drugbank_target|P30305 M-phase inducer phosphatase 2 (DB03661)
 OpenBabel12092119583D

  0  0  0     0  0            999 V3000
M  V30 BEGIN CTAB
M  V30 COUNTS 9047 9148 0 0 0
M  V30 BEGIN ATOM
M  V30 1 H -0.908 1.98254 -0.117106 0
M  V30 2 N 0 1.576 0 0
M  V30 3 C 0.933 2.03868 1.02534 0
M  V30 4 C 1.911 0.928543 1.3348 0
M  V30 5 O 3.095 1.19667 1.45644 0
M  V30 6 C 0.222 2.43627 2.35294 0
M  V30 7 C -0.732 3.65373 2.2001 0
M  V30 8 S 0.101 5.13292 1.52614 0
M  V30 9 C 1.257 5.56322 2.86805 0
M  V30 10 H 1.49 2.90518 0.631377 0
M  V30 11 H -0.977 1.52953 0.210867 0
M  V30 12 H 0.981 2.67203 3.11629 0
M  V30 13 H -0.358 1.57376 2.7183 0
M  V30 14 H -1.165 3.90944 3.18086 0
M  V30 15 H -1.563 3.418 1.51819 0
M  V30 16 H 0.729 5.58782 3.83104 0
M  V30 17 H 1.672 6.56266 2.65933 0
M  V30 18 H 2.08 4.83886 2.90714 0
M  V30 19 N 1.4781 -0.272755 1.55222 0
M  V30 20 C 2.3881 -1.35918 1.91216 0
M  V30 21 C 3.4041 -1.54026 0.809436 0
M  V30 22 O 4.5801 -1.68148 1.10852 0
M  V30 23 C 1.6451 -2.69834 2.17693 0
M  V30 24 C 0.7061 -2.6047 3.41253 0
M  V30 25 C -0.0609 -3.88 3.66458 0
M  V30 26 O 0.1621 -4.88693 2.94169 0
M  V30 27 O -0.9039 -3.88189 4.59992 0
M  V30 28 H 2.9221 -1.0839 2.83699 0
M  V30 29 H 0.5071 -0.471301 1.41771 0
M  V30 30 H 2.3891 -3.49017 2.36147 0
M  V30 31 H 1.0641 -2.97148 1.28392 0
M  V30 32 H -0.0289 -1.79663 3.28134 0
M  V30 33 H 1.3041 -2.38106 4.30774 0
M  V30 34 N 2.9562 -1.48159 -0.537278 0
M  V30 35 C 4.2022 -1.56035 -1.29541 0
M  V30 36 C 4.5352 -0.230377 -1.92829 0
M  V30 37 O 3.8102 0.762952 -1.78911 0
M  V30 38 C 4.0932 -2.69323 -2.39034 0
M  V30 39 C 3.9462 -4.12002 -1.80485 0
M  V30 40 C 5.2652 -2.78408 -3.40847 0
M  V30 41 H 2.3842 -0.567992 -0.469632 0
M  V30 42 H 5.0262 -1.80302 -0.599277 0
M  V30 43 H 3.1762 -2.48763 -2.98412 0
M  V30 44 H 4.8482 -4.43981 -1.25215 0
M  V30 45 H 3.0912 -4.19344 -1.11055 0
M  V30 46 H 3.7622 -4.87077 -2.59731 0
M  V30 47 H 6.2382 -2.97012 -2.91416 0
M  V30 48 H 5.1142 -3.59416 -4.14863 0
M  V30 49 H 5.3752 -1.86269 -4.00944 0
M  V30 50 N 4.4343 0.785586 -1.36625 0
M  V30 51 C 5.8453 1.36101 -1.27803 0
M  V30 52 C 6.1963 1.96035 0.0804875 0
M  V30 53 O 5.3213 1.92834 0.982042 0
M  V30 54 C 5.9163 2.47442 -2.31426 0
M  V30 55 C 4.4753 3.00789 -2.26281 0
M  V30 56 C 3.6223 1.73896 -2.15999 0
M  V30 57 H 6.5733 0.586928 -1.47448 0
M  V30 58 H 6.5943 3.2656 -1.95291 0
M  V30 59 H 6.1063 2.03791 -3.30289 0
M  V30 60 H 4.2073 3.48851 -1.30896 0
M  V30 61 H 4.3203 3.57343 -3.19128 0
M  V30 62 H 2.6843 1.9628 -1.62316 0
M  V30 63 H 3.4673 1.32368 -3.16755 0
M  V30 64 N 5.9124 1.20967 1.01018 0
M  V30 65 C 6.8444 0.922059 2.09835 0
M  V30 66 C 7.8574 -0.0927106 1.62536 0
M  V30 67 O 9.0464 0.139127 1.77957 0
M  V30 68 C 6.1464 0.362004 3.36961 0
M  V30 69 C 5.3194 1.42986 4.13369 0
M  V30 70 C 4.3784 0.879976 5.1879 0
M  V30 71 O 3.4044 1.56219 5.47343 0
M  V30 72 N 4.6064 -0.307396 5.79686 0
M  V30 73 H 7.3714 1.8588 2.35093 0
M  V30 74 H 4.9324 1.11422 1.1746 0
M  V30 75 H 6.9244 -0.0201474 4.04695 0
M  V30 76 H 5.4944 -0.479437 3.08902 0
M  V30 77 H 4.7144 1.98608 3.40512 0
M  V30 78 H 6.0024 2.14885 4.61196 0
M  V30 79 H 5.4004 -0.878796 5.58832 0
M  V30 80 H 3.9574 -0.631115 6.48737 0
M  V30 81 N 7.3905 -1.2043 1.01659 0
M  V30 82 C 8.8015 -1.71517 0.737482 0
M  V30 83 C 9.1525 -1.81547 -0.743973 0
M  V30 84 O 8.2775 -1.47803 -1.58061 0
M  V30 85 C 8.8725 -3.11515 1.33206 0
M  V30 86 C 7.4315 -3.59912 1.10183 0
M  V30 87 C 6.5785 -2.37116 1.43776 0
M  V30 88 H 9.5295 -1.05444 1.18606 0
M  V30 89 H 9.5505 -3.73575 0.722636 0
M  V30 90 H 9.0625 -3.04182 2.41028 0
M  V30 91 H 7.1635 -3.72577 0.0412756 0
M  V30 92 H 7.2765 -4.44731 1.78188 0
M  V30 93 H 5.6405 -2.39857 0.856778 0
M  V30 94 H 6.4235 -2.32424 2.52654 0
M  V30 95 N 8.8686 -0.792821 -1.36206 0
M  V30 96 C 9.7786 -0.194808 -2.3379 0
M  V30 97 C 10.7946 0.654869 -1.61206 0
M  V30 98 O 11.9706 0.569856 -1.9317 0
M  V30 99 C 9.0356 0.657721 -3.40404 0
M  V30 100 C 8.0966 -0.210849 -4.28782 0
M  V30 101 C 7.3296 0.601086 -5.30304 0
M  V30 102 O 7.5526 1.83682 -5.40016 0
M  V30 103 O 6.4866 -0.000808277 -6.019 0
M  V30 104 H 10.3126 -1.00172 -2.86704 0
M  V30 105 H 7.8976 -0.554341 -1.38735 0
M  V30 106 H 9.7796 1.14375 -4.05581 0
M  V30 107 H 8.4546 1.44247 -2.89784 0
M  V30 108 H 7.3616 -0.743714 -3.66633 0
M  V30 109 H 8.6946 -0.959195 -4.82763 0
M  V30 110 N 10.3467 1.47872 -0.545128 0
M  V30 111 C 11.7577 1.86384 -0.108581 0
M  V30 112 C 12.1087 1.45309 1.31832 0
M  V30 113 O 11.2337 0.850641 1.9898 0
M  V30 114 C 11.8287 3.38265 -0.190274 0
M  V30 115 C 10.3877 3.75914 0.191164 0
M  V30 116 C 9.5347 2.71926 -0.543273 0
M  V30 117 H 12.4857 1.39561 -0.755537 0
M  V30 118 H 12.5067 3.75831 0.594217 0
M  V30 119 H 12.0187 3.6813 -1.2289 0
M  V30 120 H 10.1197 3.51665 1.23136 0
M  V30 121 H 10.2327 4.78836 -0.158987 0
M  V30 122 H 8.5967 2.54697 0.0122495 0
M  V30 123 H 9.3797 3.04634 -1.58282 0
M  V30 124 N 11.8248 0.280983 1.55075 0
M  V30 125 C 12.7878 -0.590896 2.21452 0
M  V30 126 C 13.7878 -1.07682 1.19421 0
M  V30 127 O 14.9778 -0.97605 1.44288 0
M  V30 128 C 12.1098 -1.81587 2.88511 0
M  V30 129 H 13.3028 -0.0112554 2.99898 0
M  V30 130 H 10.8558 0.0316438 1.56268 0
M  V30 131 H 11.5908 -2.43587 2.14093 0
M  V30 132 H 11.3758 -1.4753 3.63287 0
M  V30 133 H 12.8658 -2.43575 3.39206 0
M  V30 134 N 13.3029 -1.57598 0.00835791 0
M  V30 135 C 14.7139 -1.7892 -0.53333 0
M  V30 136 C 15.0649 -0.916609 -1.73473 0
M  V30 137 O 14.1899 -0.121336 -2.1606 0
M  V30 138 C 14.7849 -3.24488 -0.974313 0
M  V30 139 C 13.3439 -3.46878 -1.46125 0
M  V30 140 C 12.4909 -2.74157 -0.416302 0
M  V30 141 H 15.4419 -1.56958 0.234495 0
M  V30 142 H 15.4629 -3.3306 -1.83988 0
M  V30 143 H 14.9749 -3.87972 -0.099718 0
M  V30 144 H 13.0759 -2.8862 -2.35646 0
M  V30 145 H 13.1889 -4.55572 -1.48295 0
M  V30 146 H 11.5529 -2.39022 -0.87981 0
M  V30 147 H 12.3359 -3.40345 0.44947 0
M  V30 148 N 14.781 0.264519 -1.55364 0
M  V30 149 C 16.029 0.993021 -1.76021 0
M  V30 150 C 16.35 1.86511 -0.569099 0
M  V30 151 O 15.62 1.91438 0.415735 0
M  V30 152 H 14.2 0.369639 -0.649135 0
M  V30 153 H 16.862 0.286707 -1.9278 0
M  V30 154 H 15.958 1.62502 -2.66457 0
M  V30 155 N 16.2591 1.48442 0.529413 0
M  V30 156 C 17.4841 1.60406 1.31471 0
M  V30 157 C 17.9091 0.264738 1.86228 0
M  V30 158 O 17.2671 -0.763668 1.64432 0
M  V30 159 C 17.3151 2.65419 2.44101 0
M  V30 160 O 16.4191 2.22618 3.47153 0
M  V30 161 H 15.7601 0.537863 0.389357 0
M  V30 162 H 18.2901 1.94432 0.636965 0
M  V30 163 H 18.3001 2.86709 2.90279 0
M  V30 164 H 16.9751 3.62652 2.03608 0
M  V30 165 H 15.5521 2.11543 3.0709 0
M  V30 166 N 17.7372 -0.778329 1.37039 0
M  V30 167 C 18.7002 -1.87301 1.32102 0
M  V30 168 C 19.7002 -1.59198 0.226405 0
M  V30 169 O 20.8902 -1.67403 0.481861 0
M  V30 170 C 18.0222 -3.24309 1.05055 0
M  V30 171 H 19.2152 -1.93093 2.29467 0
M  V30 172 H 16.7682 -0.977358 1.21973 0
M  V30 173 H 17.5032 -3.24196 0.0819373 0
M  V30 174 H 17.2882 -3.46098 1.84279 0
M  V30 175 H 18.7782 -4.04382 1.04234 0
M  V30 176 N 19.2153 -1.21501 -1.00376 0
M  V30 177 C 20.1453 -0.999478 -2.11028 0
M  V30 178 C 21.1263 0.0759671 -1.6993 0
M  V30 179 O 22.3113 -0.0841106 -1.94018 0
M  V30 180 C 19.4413 -0.564709 -3.42678 0
M  V30 181 C 18.3953 -1.58486 -3.97576 0
M  V30 182 C 17.7213 -1.00628 -5.25146 0
M  V30 183 C 19.0213 -2.97204 -4.29496 0
M  V30 184 H 20.7153 -1.92495 -2.29317 0
M  V30 185 H 18.2613 -0.92693 -1.102 0
M  V30 186 H 20.2143 -0.401091 -4.19487 0
M  V30 187 H 18.9383 0.396411 -3.24185 0
M  V30 188 H 17.5973 -1.73606 -3.22888 0
M  V30 189 H 17.2453 -0.0368439 -5.02987 0
M  V30 190 H 16.9453 -1.68771 -5.62841 0
M  V30 191 H 18.4693 -0.854015 -6.04598 0
M  V30 192 H 19.8833 -2.8552 -4.97143 0
M  V30 193 H 18.2803 -3.62372 -4.78338 0
M  V30 194 H 19.3503 -3.47956 -3.3772 0
M  V30 195 N 20.6934 1.19889 -1.02296 0
M  V30 196 C 21.9184 1.9393 -0.735237 0
M  V30 197 C 22.3434 1.74639 0.698782 0
M  V30 198 O 21.7014 1.04481 1.48167 0
M  V30 199 C 21.7494 3.43916 -1.08417 0
M  V30 200 O 20.8534 4.11917 -0.199446 0
M  V30 201 H 20.1944 0.605645 -0.272196 0
M  V30 202 H 22.7244 1.52137 -1.36804 0
M  V30 203 H 22.7344 3.9456 -1.03856 0
M  V30 204 H 21.4094 3.5728 -2.12894 0
M  V30 205 H 19.9864 3.71666 -0.303136 0
M  V30 206 N 22.1715 0.800033 1.35784 0
M  V30 207 C 23.5825 0.439142 1.81462 0
M  V30 208 C 23.9335 -1.03813 1.66485 0
M  V30 209 O 23.0585 -1.80626 1.19177 0
M  V30 210 C 23.6535 0.790314 3.29453 0
M  V30 211 C 22.2125 0.482111 3.733 0
M  V30 212 C 21.3595 1.01938 2.57883 0
M  V30 213 H 24.3105 0.992254 1.23855 0
M  V30 214 H 24.3315 0.0853677 3.80404 0
M  V30 215 H 23.8435 1.86554 3.40322 0
M  V30 216 H 21.9445 -0.584652 3.67984 0
M  V30 217 H 22.0575 1.01015 4.6833 0
M  V30 218 H 20.4215 0.442043 2.50835 0
M  V30 219 H 21.2045 2.10059 2.71533 0
M  V30 220 N 23.6496 -1.47581 0.552962 0
M  V30 221 C 24.6126 -2.28439 -0.186605 0
M  V30 222 C 25.6126 -1.36706 -0.84665 0
M  V30 223 O 26.8026 -1.59378 -0.703164 0
M  V30 224 C 23.9346 -3.16264 -1.2724 0
M  V30 225 H 25.1276 -2.95294 0.523609 0
M  V30 226 H 22.6806 -1.532 0.309745 0
M  V30 227 H 23.4156 -2.54091 -2.01514 0
M  V30 228 H 23.2006 -3.83769 -0.803968 0
M  V30 229 H 24.6906 -3.77198 -1.79196 0
M  V30 230 N 25.1277 -0.289203 -1.54924 0
M  V30 231 C 26.3757 0.322879 -1.99504 0
M  V30 232 C 26.6967 1.55313 -1.1791 0
M  V30 233 O 25.9667 1.94001 -0.272097 0
M  V30 234 H 24.5467 0.122291 -0.736922 0
M  V30 235 H 27.2087 -0.397802 -1.90797 0
M  V30 236 H 26.3047 0.603061 -3.06218 0
M  V30 237 N 26.6058 1.57591 -0.0167156 0
M  V30 238 C 27.8518 1.91567 0.665582 0
M  V30 239 C 28.1848 0.892298 1.72487 0
M  V30 240 O 27.4598 -0.0867127 1.94307 0
M  V30 241 C 27.7428 3.36069 1.29342 0
M  V30 242 C 27.5958 4.49135 0.244541 0
M  V30 243 C 28.9148 3.803 2.21495 0
M  V30 244 H 26.0338 0.69666 0.240488 0
M  V30 245 H 28.6758 1.89866 -0.0714356 0
M  V30 246 H 26.8258 3.3765 1.92158 0
M  V30 247 H 28.4978 4.59689 -0.385228 0
M  V30 248 H 26.7408 4.3165 -0.431379 0
M  V30 249 H 27.4118 5.47242 0.723207 0
M  V30 250 H 29.8878 3.80377 1.68678 0
M  V30 251 H 28.7638 4.82127 2.62382 0
M  V30 252 H 29.0248 3.15104 3.101 0
M  V30 253 N 28.0839 -0.256276 1.55502 0
M  V30 254 C 29.3239 -0.993081 1.78654 0
M  V30 255 C 29.6879 -1.8288 0.584724 0
M  V30 256 O 30.8889 -2.59665 0.694822 0
M  V30 257 C 29.1599 -1.83856 3.06483 0
M  V30 258 S 30.7189 -2.63573 3.5082 0
M  V30 259 H 27.5369 -0.334199 0.62756 0
M  V30 260 H 30.1389 -0.26184 1.93739 0
M  V30 261 H 28.8429 -1.21414 3.92029 0
M  V30 262 H 28.3739 -2.61271 2.94111 0
M  V30 263 H 30.3889 -3.86312 3.11412 0
M  V30 264 N 29.562 -1.4872 -0.521534 0
M  V30 265 C 30.81 -1.56857 -1.27437 0
M  V30 266 C 31.131 -0.247982 -1.93417 0
M  V30 267 O 30.401 0.731151 -1.81744 0
M  V30 268 H 28.981 -0.577885 -0.473347 0
M  V30 269 H 31.643 -1.85233 -0.606205 0
M  V30 270 H 30.739 -2.35402 -2.0492 0
M  V30 271 N 31.0401 0.771051 -1.3745 0
M  V30 272 C 32.2881 1.52661 -1.32435 0
M  V30 273 C 32.6091 1.9479 0.0905024 0
M  V30 274 O 31.8791 1.66348 1.03466 0
M  V30 275 H 30.4591 0.566218 -0.487244 0
M  V30 276 H 33.1211 0.917636 -1.71946 0
M  V30 277 H 32.2171 2.42568 -1.96385 0
M  V30 278 N 32.5182 1.22032 0.997298 0
M  V30 279 C 33.4812 0.987909 2.06816 0
M  V30 280 C 34.4812 -0.0440084 1.6074 0
M  V30 281 O 35.6712 0.194053 1.73116 0
M  V30 282 C 32.8032 0.49132 3.37341 0
M  V30 283 H 33.9962 1.93803 2.28868 0
M  V30 284 H 31.5492 1.03838 1.16822 0
M  V30 285 H 32.2842 -0.463364 3.20973 0
M  V30 286 H 32.0692 1.23575 3.72118 0
M  V30 287 H 33.5592 0.348824 4.16141 0
M  V30 288 N 33.9963 -1.19345 1.0293 0
M  V30 289 C 34.9283 -2.22036 0.56857 0
M  V30 290 C 35.9413 -1.58865 -0.355779 0
M  V30 291 O 37.1303 -1.77851 -0.152103 0
M  V30 292 C 34.2303 -3.38363 -0.190752 0
M  V30 293 C 33.4033 -4.31118 0.738643 0
M  V30 294 C 32.4623 -5.26194 0.0246497 0
M  V30 295 O 31.4883 -5.65461 0.651354 0
M  V30 296 N 32.6903 -5.66971 -1.24594 0
M  V30 297 H 35.4553 -2.6219 1.45177 0
M  V30 298 H 33.0163 -1.34015 0.908381 0
M  V30 299 H 35.0083 -3.98981 -0.677961 0
M  V30 300 H 33.5783 -2.96994 -0.975366 0
M  V30 301 H 32.7983 -3.68276 1.40593 0
M  V30 302 H 34.0863 -4.90001 1.37029 0
M  V30 303 H 33.4843 -5.37104 -1.77583 0
M  V30 304 H 32.0413 -6.2984 -1.67764 0
M  V30 305 N 35.4744 -0.807222 -1.35358 0
M  V30 306 C 36.8904 -0.491038 -1.51858 0
M  V30 307 C 37.0904 0.987648 -1.75635 0
M  V30 308 O 36.1464 1.77265 -1.79815 0
M  V30 309 C 37.4594 -1.33695 -2.69344 0
M  V30 310 C 39.0074 -1.33246 -2.83222 0
M  V30 311 C 39.4824 -2.1625 -4.03733 0
M  V30 312 N 40.9734 -2.1379 -4.10911 0
M  V30 313 C 41.7084 -2.74772 -5.03277 0
M  V30 314 N 41.2044 -3.44684 -6.0097 0
M  V30 315 N 42.9974 -2.6441 -4.96028 0
M  V30 316 H 35.1484 -1.76485 -1.18181 0
M  V30 317 H 37.4114 -0.751199 -0.578276 0
M  V30 318 H 37.1174 -2.38634 -2.58354 0
M  V30 319 H 36.9914 -0.990618 -3.6396 0
M  V30 320 H 39.3784 -0.290911 -2.93663 0
M  V30 321 H 39.4594 -1.71866 -1.89461 0
M  V30 322 H 39.1034 -3.20445 -3.94052 0
M  V30 323 H 39.0334 -1.74989 -4.96675 0
M  V30 324 H 41.5244 -1.62923 -3.40976 0
M  V30 325 H 41.8374 -3.88501 -6.68047 0
M  V30 326 H 40.1824 -3.48788 -6.01142 0
M  V30 327 H 43.3734 -2.0938 -4.18662 0
M  V30 328 H 43.5464 -3.12225 -5.6782 0
M  V30 329 N 36.9525 1.47285 -0.560781 0
M  V30 330 C 38.3635 1.86258 -0.128343 0
M  V30 331 C 38.7145 1.46699 1.30284 0
M  V30 332 O 37.8395 0.871698 1.98067 0
M  V30 333 C 38.4345 3.38044 -0.22614 0
M  V30 334 C 36.9935 3.76096 0.151283 0
M  V30 335 C 36.1405 2.71335 -0.572084 0
M  V30 336 H 39.0915 1.38752 -0.770297 0
M  V30 337 H 39.1125 3.76441 0.554322 0
M  V30 338 H 38.6245 3.66806 -1.26788 0
M  V30 339 H 36.7255 3.52951 1.19399 0
M  V30 340 H 36.8385 4.78641 -0.209765 0
M  V30 341 H 35.2025 2.54696 -0.0147653 0
M  V30 342 H 35.9855 3.02938 -1.61504 0
M  V30 343 N 38.4306 0.297415 1.54768 0
M  V30 344 C 39.6786 -0.312295 1.99673 0
M  V30 345 C 39.9996 -1.54686 1.18732 0
M  V30 346 O 39.2696 -1.93854 0.282382 0
M  V30 347 H 37.8496 -0.118381 0.73756 0
M  V30 348 H 40.5116 0.407915 1.90583 0
M  V30 349 H 39.6076 -0.586813 3.06534 0
M  V30 350 N 39.9087 -1.5758 0.0250728 0
M  V30 351 C 40.8587 -2.06468 -0.967201 0
M  V30 352 C 41.8427 -0.964376 -1.28797 0
M  V30 353 O 43.0347 -1.22797 -1.27475 0
M  V30 354 C 40.1637 -2.59203 -2.25097 0
M  V30 355 C 39.2497 -3.76157 -1.95874 0
M  V30 356 N 39.6407 -4.86919 -1.36905 0
M  V30 357 C 37.9387 -3.84566 -2.25887 0
M  V30 358 C 38.6397 -5.68172 -1.24724 0
M  V30 359 N 37.6157 -5.14953 -1.74138 0
M  V30 360 H 41.4177 -2.89508 -0.506176 0
M  V30 361 H 38.9317 -1.61399 -0.18004 0
M  V30 362 H 40.9287 -2.92517 -2.97052 0
M  V30 363 H 39.5887 -1.77592 -2.71829 0
M  V30 364 H 40.5997 -5.07256 -1.04459 0
M  V30 365 H 37.2767 -3.13854 -2.75321 0
M  V30 366 H 38.6667 -6.67221 -0.791605 0
M  V30 367 N 41.3868 0.248026 -1.55636 0
M  V30 368 C 42.3168 1.31079 -1.93237 0
M  V30 369 C 43.2978 1.50264 -0.797174 0
M  V30 370 O 44.4828 1.62891 -1.05737 0
M  V30 371 C 41.6128 2.66575 -2.22609 0
M  V30 372 C 40.5668 2.62087 -3.3837 0
M  V30 373 C 39.8928 4.01369 -3.53281 0
M  V30 374 C 41.1928 2.19171 -4.7409 0
M  V30 375 H 42.8868 0.998556 -2.82257 0
M  V30 376 H 40.4328 0.47891 -1.35803 0
M  V30 377 H 42.3858 3.41057 -2.47503 0
M  V30 378 H 41.1098 2.99432 -1.30414 0
M  V30 379 H 39.7688 1.90063 -3.13483 0
M  V30 380 H 39.4168 4.31489 -2.58508 0
M  V30 381 H 39.1168 3.99254 -4.31127 0
M  V30 382 H 40.6408 4.77552 -3.80495 0
M  V30 383 H 42.0548 2.83384 -4.98363 0
M  V30 384 H 40.4518 2.2817 -5.5503 0
M  V30 385 H 41.5218 1.14336 -4.71227 0
M  V30 386 N 42.8649 1.48995 0.513639 0
M  V30 387 C 44.2759 1.5119 1.09537 0
M  V30 388 C 44.6269 0.290906 1.94031 0
M  V30 389 O 43.7519 -0.60049 2.07902 0
M  V30 390 C 44.3469 2.73964 1.99322 0
M  V30 391 C 42.9059 2.78978 2.52682 0
M  V30 392 C 42.0529 2.44934 1.30009 0
M  V30 393 H 45.0039 1.55875 0.298125 0
M  V30 394 H 45.0249 2.53409 2.83838 0
M  V30 395 H 44.5369 3.62813 1.37799 0
M  V30 396 H 42.6379 1.94378 3.1788 0
M  V30 397 H 42.7509 3.8083 2.90698 0
M  V30 398 H 41.1149 1.9644 1.62122 0
M  V30 399 H 41.8979 3.36043 0.702131 0
M  V30 400 N 44.343 -0.763751 1.37857 0
M  V30 401 C 45.591 -1.51957 1.33243 0
M  V30 402 C 45.912 -1.94835 -0.0801709 0
M  V30 403 O 45.182 -1.66894 -1.02582 0
M  V30 404 H 43.762 -0.563626 0.49024 0
M  V30 405 H 46.424 -0.908504 1.7243 0
M  V30 406 H 45.52 -2.41523 1.97669 0
M  V30 407 N 45.8211 -1.22559 -0.990812 0
M  V30 408 C 46.7511 -1.0218 -2.09956 0
M  V30 409 C 47.7321 0.0579394 -1.70001 0
M  V30 410 O 48.9171 -0.104684 -1.93918 0
M  V30 411 C 46.0471 -0.601023 -3.4206 0
M  V30 412 C 45.0011 -1.62694 -3.95872 0
M  V30 413 C 44.3271 -1.06193 -5.24049 0
M  V30 414 C 45.6271 -3.01743 -4.2632 0
M  V30 415 H 47.3211 -1.94916 -2.27262 0
M  V30 416 H 44.8671 -0.938566 -1.09211 0
M  V30 417 H 46.8201 -0.445561 -4.19038 0
M  V30 418 H 45.5441 0.362005 -3.24588 0
M  V30 419 H 44.2031 -1.77021 -3.21028 0
M  V30 420 H 43.8511 -0.0901903 -5.02919 0
M  V30 421 H 43.5511 -1.74732 -5.61019 0
M  V30 422 H 45.0751 -0.918092 -6.03658 0
M  V30 423 H 46.4891 -2.90777 -4.94087 0
M  V30 424 H 44.8861 -3.67425 -4.74467 0
M  V30 425 H 45.9561 -3.51518 -3.34011 0
M  V30 426 N 47.2992 1.18797 -1.03562 0
M  V30 427 C 48.2292 2.24472 -0.643019 0
M  V30 428 C 49.2102 1.66433 0.351283 0
M  V30 429 O 50.3952 1.92803 0.232505 0
M  V30 430 C 47.5252 3.473 4.24935e-05 0
M  V30 431 C 46.4792 4.18055 -0.917257 0
M  V30 432 C 45.8052 5.34519 -0.138941 0
M  V30 433 C 47.1052 4.72109 -2.23407 0
M  V30 434 H 48.7992 2.57566 -1.52643 0
M  V30 435 H 46.3452 1.23806 -0.735394 0
M  V30 436 H 48.2982 4.20426 0.286383 0
M  V30 437 H 47.0222 3.13424 0.918299 0
M  V30 438 H 45.6812 3.46821 -1.1879 0
M  V30 439 H 45.3292 4.96891 0.781562 0
M  V30 440 H 45.0292 5.82794 -0.750005 0
M  V30 441 H 46.5532 6.10438 0.1405 0
M  V30 442 H 47.9672 5.36955 -2.00879 0
M  V30 443 H 46.3642 5.30897 -2.79765 0
M  V30 444 H 47.4342 3.89807 -2.88407 0
M  V30 445 N 48.7773 0.814389 1.34928 0
M  V30 446 C 49.7073 0.244827 2.32213 0
M  V30 447 C 50.6883 -0.634024 1.57842 0
M  V30 448 O 51.8733 -0.562676 1.8587 0
M  V30 449 C 49.0033 -0.601106 3.42058 0
M  V30 450 C 47.9573 0.179896 4.27622 0
M  V30 451 C 47.2833 -0.788237 5.28858 0
M  V30 452 C 48.5833 1.38329 5.03649 0
M  V30 453 H 50.2773 1.05763 2.80097 0
M  V30 454 H 47.8233 0.510029 1.34665 0
M  V30 455 H 49.7763 -1.00968 4.09125 0
M  V30 456 H 48.5003 -1.44688 2.92802 0
M  V30 457 H 47.1593 0.569739 3.62146 0
M  V30 458 H 46.8073 -1.62973 4.75866 0
M  V30 459 H 46.5073 -0.269942 5.8698 0
M  V30 460 H 48.0313 -1.19485 5.98795 0
M  V30 461 H 49.4453 1.04918 5.63618 0
M  V30 462 H 47.8423 1.83662 5.71304 0
M  V30 463 H 48.9123 2.16592 4.33839 0
M  V30 464 N 50.2554 -1.46986 0.568584 0
M  V30 465 C 51.5034 -2.02041 0.0487022 0
M  V30 466 C 51.8244 -1.44408 -1.31039 0
M  V30 467 O 51.0944 -0.623477 -1.85714 0
M  V30 468 H 49.6744 -0.746849 0.015014 0
M  V30 469 H 52.3364 -1.80257 0.741168 0
M  V30 470 H 51.4324 -3.12085 -0.0308961 0
M  V30 471 N 51.7335 -0.305618 -1.54608 0
M  V30 472 C 52.9585 0.307562 -2.05107 0
M  V30 473 C 53.3835 1.46385 -1.18123 0
M  V30 474 O 52.7415 1.8034 -0.186324 0
M  V30 475 C 52.7895 0.73704 -3.52987 0
M  V30 476 O 51.8935 1.84134 -3.6901 0
M  V30 477 H 51.2345 0.0589143 -0.661381 0
M  V30 478 H 53.7645 -0.448807 -1.99617 0
M  V30 479 H 53.7745 1.02459 -3.94925 0
M  V30 480 H 52.4495 -0.108773 -4.15758 0
M  V30 481 H 51.0265 1.55398 -3.38978 0
M  V30 482 N 53.2116 1.57565 -0.0334293 0
M  V30 483 C 54.1616 2.06978 0.956237 0
M  V30 484 C 55.1456 0.971193 1.28283 0
M  V30 485 O 56.3376 1.23471 1.26822 0
M  V30 486 C 53.4666 2.60393 2.23719 0
M  V30 487 C 52.5526 3.7719 1.93877 0
M  V30 488 N 52.9436 4.87639 1.34321 0
M  V30 489 C 51.2416 3.85758 2.23845 0
M  V30 490 C 51.9426 5.68825 1.21709 0
M  V30 491 N 50.9186 5.1587 1.71404 0
M  V30 492 H 54.7206 2.89773 0.490815 0
M  V30 493 H 52.2346 1.61492 0.171478 0
M  V30 494 H 54.2316 2.94088 2.95496 0
M  V30 495 H 52.8916 1.79031 2.70884 0
M  V30 496 H 53.9026 5.07803 1.01767 0
M  V30 497 H 50.5796 3.1531 2.73653 0
M  V30 498 H 51.9696 6.67631 0.75621 0
M  V30 499 N 54.6897 -0.239769 1.55765 0
M  V30 500 C 55.9377 -0.964892 1.77579 0
M  V30 501 C 56.2587 -1.85582 0.598699 0
M  V30 502 O 55.5287 -1.92075 -0.385226 0
M  V30 503 H 54.1087 -0.359265 0.654933 0
M  V30 504 H 56.7707 -0.256001 1.93211 0
M  V30 505 H 55.8667 -1.58243 2.69009 0
M  V30 506 N 56.1678 -1.49265 -0.50573 0
M  V30 507 C 57.0978 -1.68495 -1.61653 0
M  V30 508 C 58.0788 -0.53366 -1.61512 0
M  V30 509 O 59.2638 -0.76897 -1.78327 0
M  V30 510 C 56.3938 -1.74709 -3.00157 0
M  V30 511 C 55.3478 -2.89581 -3.15162 0
M  V30 512 C 54.6738 -2.80903 -4.5497 0
M  V30 513 C 55.9738 -4.30578 -2.95634 0
M  V30 514 H 57.6678 -2.61493 -1.45814 0
M  V30 515 H 55.2138 -1.25838 -0.70005 0
M  V30 516 H 57.1668 -1.86748 -3.77761 0
M  V30 517 H 55.8908 -0.783067 -3.17074 0
M  V30 518 H 54.5498 -2.77136 -2.39982 0
M  V30 519 H 54.1978 -1.82419 -4.68756 0
M  V30 520 H 53.8978 -3.57999 -4.65951 0
M  V30 521 H 55.4218 -2.94944 -5.34641 0
M  V30 522 H 56.8358 -4.4373 -3.63011 0
M  V30 523 H 55.2328 -5.0886 -3.18091 0
M  V30 524 H 56.3028 -4.45352 -1.91806 0
M  V30 525 N 57.6459 0.756429 -1.3826 0
M  V30 526 C 58.5759 1.88374 -1.37976 0
M  V30 527 C 59.5569 1.68311 -0.246082 0
M  V30 528 O 60.7419 1.88944 -0.44874 0
M  V30 529 C 57.8719 3.25864 -1.20125 0
M  V30 530 C 56.8259 3.60523 -2.30666 0
M  V30 531 C 56.1519 4.9672 -1.97923 0
M  V30 532 C 57.4519 3.65692 -3.72916 0
M  V30 533 H 59.1459 1.88869 -2.32312 0
M  V30 534 H 56.6919 0.907272 -1.11824 0
M  V30 535 H 58.6449 4.0438 -1.18552 0
M  V30 536 H 57.3689 3.25841 -0.222498 0
M  V30 537 H 56.0279 2.84324 -2.3142 0
M  V30 538 H 55.6759 4.93253 -0.985393 0
M  V30 539 H 55.3759 5.20878 -2.71955 0
M  V30 540 H 56.8999 5.77618 -1.97964 0
M  V30 541 H 58.3139 4.34328 -3.74208 0
M  V30 542 H 56.7109 4.01358 -4.4613 0
M  V30 543 H 57.7809 2.65987 -4.05436 0
M  V30 544 N 59.124 1.23083 0.984299 0
M  V30 545 C 60.372 1.05848 1.72165 0
M  V30 546 C 60.693 -0.406049 1.90726 0
M  V30 547 O 59.963 -1.29139 1.47309 0
M  V30 548 H 58.543 0.388685 0.637913 0
M  V30 549 H 61.205 1.54736 1.18503 0
M  V30 550 H 60.301 1.54327 2.71274 0
M  V30 551 N 60.6021 -1.18246 1.0419 0
M  V30 552 C 61.8271 -1.92736 0.765996 0
M  V30 553 C 62.2521 -1.75728 -0.67091 0
M  V30 554 O 61.6101 -1.06825 -1.46486 0
M  V30 555 C 61.6581 -3.42148 1.13875 0
M  V30 556 O 60.7621 -4.11548 0.264954 0
M  V30 557 H 60.1031 -0.601238 0.281797 0
M  V30 558 H 62.6331 -1.49942 1.39207 0
M  V30 559 H 62.6431 -3.92858 1.1012 0
M  V30 560 H 61.3181 -3.53848 2.18551 0
M  V30 561 H 59.8951 -3.71137 0.362226 0
M  V30 562 N 62.0802 -0.821533 -1.34494 0
M  V30 563 C 63.4912 -0.467956 -1.8074 0
M  V30 564 C 63.8422 1.01151 -1.68116 0
M  V30 565 O 62.9672 1.78707 -1.22036 0
M  V30 566 C 63.5622 -0.842627 -3.28154 0
M  V30 567 C 62.1212 -0.541439 -3.72485 0
M  V30 568 C 61.2682 -1.06028 -2.56229 0
M  V30 569 H 64.2192 -1.01183 -1.22261 0
M  V30 570 H 64.2402 -0.145876 -3.8022 0
M  V30 571 H 63.7522 -1.91945 -3.37311 0
M  V30 572 H 61.8532 0.526034 -3.68868 0
M  V30 573 H 61.9662 -1.08453 -4.66663 0
M  V30 574 H 60.3302 -0.481892 -2.501 0
M  V30 575 H 61.1132 -2.14352 -2.68157 0
M  V30 576 N 63.5583 1.46682 -0.576371 0
M  V30 577 C 64.8043 2.02712 -0.0596221 0
M  V30 578 C 65.1373 1.44765 1.29448 0
M  V30 579 O 64.4123 0.610355 1.84675 0
M  V30 580 C 64.6953 3.60098 0.0129503 0
M  V30 581 C 64.5483 4.28441 -1.3696 0
M  V30 582 C 65.8673 4.34224 0.71678 0
M  V30 583 H 62.9863 0.736637 -0.0231407 0
M  V30 584 H 65.6283 1.74898 -0.742351 0
M  V30 585 H 63.7783 3.83926 0.594378 0
M  V30 586 H 65.4503 4.15896 -1.9957 0
M  V30 587 H 63.6933 3.8805 -1.93907 0
M  V30 588 H 64.3643 5.3716 -1.27135 0
M  V30 589 H 66.8403 4.15503 0.222908 0
M  V30 590 H 65.7163 5.43936 0.73657 0
M  V30 591 H 65.9773 4.04823 1.77682 0
M  V30 592 N 65.0364 0.313813 1.54444 0
M  V30 593 C 66.4524 -0.0391619 1.59552 0
M  V30 594 C 66.6524 -1.51322 1.33056 0
M  V30 595 O 65.7084 -2.26782 1.11022 0
M  V30 596 C 67.0214 0.370302 2.98411 0
M  V30 597 C 68.5694 0.320139 3.11358 0
M  V30 598 C 69.0444 0.704617 4.52547 0
M  V30 599 N 70.5354 0.657645 4.58508 0
M  V30 600 C 71.2704 0.927453 5.6585 0
M  V30 601 N 70.7664 1.26389 6.81174 0
M  V30 602 N 72.5594 0.853662 5.5558 0
M  V30 603 H 64.7104 1.27433 1.69925 0
M  V30 604 H 66.9734 0.517511 0.794284 0
M  V30 605 H 66.6794 1.39694 3.22767 0
M  V30 606 H 66.5534 -0.269619 3.76235 0
M  V30 607 H 68.9404 -0.697275 2.86744 0
M  V30 608 H 69.0214 0.99486 2.35661 0
M  V30 609 H 68.6654 1.7199 4.77893 0
M  V30 610 H 68.5954 0.00768843 5.26599 0
M  V30 611 H 71.0864 0.409067 3.75679 0
M  V30 612 H 71.3994 1.4554 7.58972 0
M  V30 613 H 69.7444 1.30206 6.82694 0
M  V30 614 H 72.9354 0.590383 4.64362 0
M  V30 615 H 73.1084 1.0673 6.3915 0
M  V30 616 N 66.5145 -1.57545 0.0417849 0
M  V30 617 C 67.4775 -2.09885 -0.92093 0
M  V30 618 C 68.4775 -1.01648 -1.24596 0
M  V30 619 O 69.6675 -1.27759 -1.1842 0
M  V30 620 C 66.7995 -2.57527 -2.23367 0
M  V30 621 H 67.9925 -2.96236 -0.467382 0
M  V30 622 H 65.5455 -1.5493 -0.206467 0
M  V30 623 H 66.2805 -1.74542 -2.73323 0
M  V30 624 H 66.0655 -3.36613 -2.01083 0
M  V30 625 H 67.5555 -2.98201 -2.92346 0
M  V30 626 N 67.9926 0.231505 -1.5589 0
M  V30 627 C 68.9556 1.27028 -1.90779 0
M  V30 628 C 69.9556 1.40308 -0.785507 0
M  V30 629 O 71.1456 1.38744 -1.05336 0
M  V30 630 C 68.2776 2.64566 -2.14983 0
M  V30 631 H 69.4706 0.973017 -2.83677 0
M  V30 632 H 67.0236 0.471486 -1.49019 0
M  V30 633 H 67.7586 2.99406 -1.24604 0
M  V30 634 H 67.5436 2.56305 -2.96732 0
M  V30 635 H 69.0336 3.39543 -2.43105 0
M  V30 636 N 69.4707 1.49531 0.497807 0
M  V30 637 C 70.4337 1.65916 1.58128 0
M  V30 638 C 71.4337 0.530825 1.51786 0
M  V30 639 O 72.6237 0.797342 1.54881 0
M  V30 640 C 69.7557 1.65951 2.9778 0
M  V30 641 H 70.9487 2.62556 1.44929 0
M  V30 642 H 68.5017 1.38611 0.722275 0
M  V30 643 H 69.2367 0.709065 3.16453 0
M  V30 644 H 69.0217 2.47897 3.03792 0
M  V30 645 H 70.5117 1.80673 3.76493 0
M  V30 646 N 70.9488 -0.749086 1.3866 0
M  V30 647 C 72.1738 -1.54344 1.38538 0
M  V30 648 C 72.5988 -1.88088 -0.0216655 0
M  V30 649 O 71.9568 -1.50899 -1.00494 0
M  V30 650 C 72.0048 -2.8164 2.25192 0
M  V30 651 O 71.1088 -3.7698 1.67212 0
M  V30 652 H 70.4498 -0.466654 0.472367 0
M  V30 653 H 72.9798 -0.925355 1.82478 0
M  V30 654 H 72.9898 -3.30519 2.3921 0
M  V30 655 H 71.6648 -2.56411 3.27454 0
M  V30 656 H 70.2418 -3.35699 1.6236 0
M  V30 657 N 72.4269 -1.23603 -0.977757 0
M  V30 658 C 73.6519 -1.09735 -1.75991 0
M  V30 659 C 74.0769 0.346858 -1.84874 0
M  V30 660 O 73.4349 1.25093 -1.3123 0
M  V30 661 C 73.4829 -1.73051 -3.16363 0
M  V30 662 O 72.5869 -0.994452 -4.0023 0
M  V30 663 H 71.9279 -0.384476 -0.541364 0
M  V30 664 H 74.4579 -1.6371 -1.2272 0
M  V30 665 H 74.4679 -1.78398 -3.66931 0
M  V30 666 H 73.1429 -2.78137 -3.09213 0
M  V30 667 H 71.7199 -1.01812 -3.58732 0
M  V30 668 N 73.905 1.17692 -1.04816 0
M  V30 669 C 75.316 1.69501 -0.782698 0
M  V30 670 C 75.667 1.83456 0.695577 0
M  V30 671 O 74.792 1.51942 1.54086 0
M  V30 672 C 75.387 3.07874 -1.41419 0
M  V30 673 C 73.946 3.56864 -1.19686 0
M  V30 674 C 73.093 2.3322 -1.50012 0
M  V30 675 H 76.044 1.02262 -1.2136 0
M  V30 676 H 76.065 3.71528 -0.821428 0
M  V30 677 H 75.577 2.97685 -2.49009 0
M  V30 678 H 73.678 3.72337 -0.140043 0
M  V30 679 H 73.791 4.39851 -1.89916 0
M  V30 680 H 72.155 2.37501 -0.920071 0
M  V30 681 H 72.938 2.25644 -2.58727 0
M  V30 682 N 75.3831 0.828654 1.34056 0
M  V30 683 C 76.6291 0.42008 1.98402 0
M  V30 684 C 76.9621 -1.01564 1.65525 0
M  V30 685 O 76.2371 -1.70834 0.929831 0
M  V30 686 C 76.5201 0.62927 3.54559 0
M  V30 687 C 76.3731 2.11152 3.97159 0
M  V30 688 C 77.6921 0.0688756 4.40046 0
M  V30 689 H 74.8111 0.154104 0.720709 0
M  V30 690 H 77.4531 1.04228 1.5886 0
M  V30 691 H 75.6031 0.0996418 3.88372 0
M  V30 692 H 77.2751 2.70522 3.73651 0
M  V30 693 H 75.5181 2.59985 3.47261 0
M  V30 694 H 76.1891 2.20868 5.05887 0
M  V30 695 H 78.6651 0.521458 4.1282 0
M  V30 696 H 77.5411 0.245006 5.48353 0
M  V30 697 H 77.8021 -1.0266 4.30015 0
M  V30 698 N 76.8612 -1.46375 0.584142 0
M  V30 699 C 78.0892 -2.06761 0.0759296 0
M  V30 700 C 78.5042 -1.43266 -1.22965 0
M  V30 701 O 77.8612 -0.538458 -1.74376 0
M  V30 702 C 77.9122 -3.61375 -0.0950384 0
M  V30 703 O 77.6332 -4.22495 1.15887 0
M  V30 704 C 79.1342 -4.38693 -0.637434 0
M  V30 705 H 76.3542 -0.668479 0.0581075 0
M  V30 706 H 78.8982 -1.8798 0.805218 0
M  V30 707 H 77.0532 -3.79578 -0.774554 0
M  V30 708 H 77.4672 -5.15385 0.973598 0
M  V30 709 H 78.9412 -5.47464 -0.706237 0
M  V30 710 H 79.4182 -4.06836 -1.65472 0
M  V30 711 H 80.0242 -4.25299 0.00725967 0
M  V30 712 N 78.3393 -0.321999 -1.54275 0
M  V30 713 C 79.5673 0.283052 -2.04955 0
M  V30 714 C 79.9823 1.45904 -1.19823 0
M  V30 715 O 79.3393 1.81063 -0.228545 0
M  V30 716 C 79.3903 0.719028 -3.54277 0
M  V30 717 O 79.1113 -0.410175 -4.36176 0
M  V30 718 C 80.6123 1.38705 -4.21041 0
M  V30 719 H 77.8323 0.0584616 -0.668448 0
M  V30 720 H 80.3763 -0.467734 -1.99079 0
M  V30 721 H 78.5313 1.41979 -3.60445 0
M  V30 722 H 78.9453 -0.0669416 -5.24457 0
M  V30 723 H 80.4193 1.64306 -5.2698 0
M  V30 724 H 80.8963 2.33385 -3.72059 0
M  V30 725 H 81.5023 0.728906 -4.19007 0
M  V30 726 N 79.8174 1.5752 -0.0501392 0
M  V30 727 C 80.7474 2.14502 0.922566 0
M  V30 728 C 81.7284 1.06642 1.3252 0
M  V30 729 O 82.9134 1.34577 1.4001 0
M  V30 730 C 80.0434 2.68916 2.19776 0
M  V30 731 C 78.9974 3.8175 1.93523 0
M  V30 732 C 78.3234 4.22677 3.27487 0
M  V30 733 C 79.6234 5.06932 1.25765 0
M  V30 734 H 81.3174 2.9603 0.447952 0
M  V30 735 H 78.8634 1.42401 0.214024 0
M  V30 736 H 80.8164 3.07419 2.88222 0
M  V30 737 H 79.5404 1.84578 2.69441 0
M  V30 738 H 78.1994 3.43718 1.27489 0
M  V30 739 H 77.8474 3.35291 3.74952 0
M  V30 740 H 77.5474 4.98725 3.1072 0
M  V30 741 H 79.0714 4.63779 3.97166 0
M  V30 742 H 80.4854 5.42888 1.84244 0
M  V30 743 H 78.8824 5.88116 1.19328 0
M  V30 744 H 79.9524 4.84337 0.233536 0
M  V30 745 N 81.2955 -0.223234 1.56011 0
M  V30 746 C 82.5235 -0.964812 1.83027 0
M  V30 747 C 82.9385 -1.78013 0.62904 0
M  V30 748 O 82.2955 -1.78008 -0.402414 0
M  V30 749 C 82.3465 -1.88373 3.08542 0
M  V30 750 O 82.0675 -1.10137 4.2403 0
M  V30 751 C 83.5685 -2.73934 3.48533 0
M  V30 752 H 80.7885 -0.282842 0.608475 0
M  V30 753 H 83.3325 -0.238971 2.03099 0
M  V30 754 H 81.4875 -2.56354 2.9045 0
M  V30 755 H 81.9015 -1.72501 4.95322 0
M  V30 756 H 83.3755 -3.34117 4.39397 0
M  V30 757 H 83.8525 -3.46244 2.70207 0
M  V30 758 H 84.4585 -2.11369 3.69057 0
M  V30 759 N 82.7736 -1.49793 -0.48987 0
M  V30 760 C 83.7056 -1.63413 -1.60713 0
M  V30 761 C 84.7186 -0.516329 -1.54395 0
M  V30 762 O 85.9076 -0.788812 -1.60125 0
M  V30 763 C 83.0076 -1.58516 -2.99543 0
M  V30 764 C 82.1806 -2.86016 -3.30928 0
M  V30 765 C 81.2396 -2.74018 -4.49222 0
M  V30 766 O 80.2656 -3.47964 -4.50455 0
M  V30 767 N 81.4676 -1.86309 -5.4979 0
M  V30 768 H 84.2326 -2.59777 -1.49452 0
M  V30 769 H 81.7936 -1.47022 -0.677955 0
M  V30 770 H 83.7856 -1.48128 -3.76617 0
M  V30 771 H 82.3556 -0.69965 -3.0467 0
M  V30 772 H 81.5756 -3.10672 -2.42645 0
M  V30 773 H 82.8636 -3.70521 -3.487 0
M  V30 774 H 82.2616 -1.2551 -5.51601 0
M  V30 775 H 80.8186 -1.81837 -6.25922 0
M  V30 776 N 84.2517 0.741722 -1.39055 0
M  V30 777 C 85.4797 1.53098 -1.39171 0
M  V30 778 C 85.8947 1.88794 0.0155099 0
M  V30 779 O 85.2517 1.53626 0.985159 0
M  V30 780 C 85.3027 2.82274 -2.2584 0
M  V30 781 O 85.0237 2.48097 -3.61081 0
M  V30 782 C 86.5247 3.76343 -2.34266 0
M  V30 783 H 83.7447 0.473335 -0.4756 0
M  V30 784 H 86.2887 0.917045 -1.82785 0
M  V30 785 H 84.4437 3.40015 -1.85656 0
M  V30 786 H 84.8577 3.31029 -4.06842 0
M  V30 787 H 86.3317 4.63898 -2.9917 0
M  V30 788 H 86.8087 4.17619 -1.35982 0
M  V30 789 H 87.4147 3.24523 -2.74891 0
M  V30 790 N 85.7298 1.2412 0.971189 0
M  V30 791 C 86.6628 0.97373 2.06382 0
M  V30 792 C 87.6408 -0.0912662 1.62344 0
M  V30 793 O 88.8248 0.0449365 1.88446 0
M  V30 794 C 85.9518 0.468746 3.35441 0
M  V30 795 C 84.9978 1.52176 3.98428 0
M  V30 796 S 85.8308 3.10203 4.36503 0
M  V30 797 C 86.9868 2.61398 5.68702 0
M  V30 798 H 87.2198 1.89893 2.28753 0
M  V30 799 H 84.7528 1.07466 1.10862 0
M  V30 800 H 86.7108 0.184012 4.10087 0
M  V30 801 H 85.3718 -0.435688 3.11064 0
M  V30 802 H 84.5648 1.11876 4.91426 0
M  V30 803 H 84.1668 1.75632 3.30196 0
M  V30 804 H 86.4588 2.03992 6.4606 0
M  V30 805 H 87.4018 3.52972 6.13854 0
M  V30 806 H 87.8098 2.01941 5.27143 0
M  V30 807 N 87.2079 -1.17134 1.05439 0
M  V30 808 C 88.1579 -2.1919 0.627675 0
M  V30 809 C 89.1419 -1.57328 -0.337147 0
M  V30 810 O 90.3339 -1.76329 -0.153976 0
M  V30 811 C 87.4629 -3.43299 0.00651435 0
M  V30 812 C 86.5489 -4.12255 0.995312 0
M  V30 813 N 86.9399 -4.56997 2.16765 0
M  V30 814 C 85.2379 -4.38316 0.824336 0
M  V30 815 C 85.9389 -5.10239 2.7934 0
M  V30 816 N 84.9149 -5.02595 2.07122 0
M  V30 817 H 88.7169 -2.5149 1.52086 0
M  V30 818 H 86.2309 -1.33491 0.924868 0
M  V30 819 H 88.2279 -4.15693 -0.316965 0
M  V30 820 H 86.8879 -3.1249 -0.882033 0
M  V30 821 H 87.8989 -4.51006 2.54587 0
M  V30 822 H 84.5759 -4.17498 -0.0129526 0
M  V30 823 H 85.9659 -5.54961 3.78772 0
M  V30 824 N 88.686 -0.835752 -1.33615 0
M  V30 825 C 89.963 -0.352017 -1.92406 0
M  V30 826 C 90.343 1.16225 -1.76224 0
M  V30 827 O 89.691 1.97526 -1.14873 0
M  V30 828 C 89.901 -0.795485 -3.39813 0
M  V30 829 C 91.249 -0.801703 -4.16963 0
M  V30 830 O 92.273 -0.738889 -3.48452 0
M  V30 831 O 91.132 -0.886607 -5.3926 0
M  V30 832 H 88.226 -0.0989641 -0.821057 0
M  V30 833 H 90.772 -0.921397 -1.42507 0
M  V30 834 H 89.544 -1.83795 -3.45449 0
M  V30 835 H 89.167 -0.202505 -3.97084 0
M  V30 836 N 90.1641 1.46063 -0.591896 0
M  V30 837 C 91.0941 2.33172 0.123673 0
M  V30 838 C 92.0751 1.45897 0.87453 0
M  V30 839 O 93.2601 1.74698 0.848181 0
M  V30 840 C 90.3901 3.28336 1.13194 0
M  V30 841 C 89.3441 4.25124 0.495324 0
M  V30 842 C 88.6701 5.09863 1.61071 0
M  V30 843 C 89.9701 5.19143 -0.573425 0
M  V30 844 H 91.6641 2.93252 -0.603646 0
M  V30 845 H 89.2101 1.41014 -0.291741 0
M  V30 846 H 91.1631 3.88137 1.64097 0
M  V30 847 H 89.8871 2.66383 1.88965 0
M  V30 848 H 88.5461 3.66599 0.00729452 0
M  V30 849 H 88.1941 4.44288 2.35832 0
M  V30 850 H 87.8941 5.75417 1.19035 0
M  V30 851 H 89.4181 5.72529 2.12233 0
M  V30 852 H 90.8321 5.73106 -0.1491 0
M  V30 853 H 89.2291 5.93089 -0.914636 0
M  V30 854 H 90.2991 4.62519 -1.45617 0
M  V30 855 N 91.6422 0.330177 1.54103 0
M  V30 856 C 92.6052 -0.520144 2.2322 0
M  V30 857 C 93.6052 -1.03828 1.22786 0
M  V30 858 O 94.7952 -0.929652 1.4732 0
M  V30 859 C 91.9272 -1.72317 2.94142 0
M  V30 860 H 93.1202 0.0841605 2.99782 0
M  V30 861 H 90.6732 0.0813433 1.56088 0
M  V30 862 H 91.4082 -2.36653 2.21734 0
M  V30 863 H 91.1932 -1.35898 3.67796 0
M  V30 864 H 92.6832 -2.3266 3.46784 0
M  V30 865 N 93.1203 -1.57491 0.0584922 0
M  V30 866 C 94.3683 -1.92597 -0.612436 0
M  V30 867 C 94.6893 -0.938162 -1.70949 0
M  V30 868 O 93.9593 0.0158301 -1.95894 0
M  V30 869 H 92.5393 -0.710964 -0.229214 0
M  V30 870 H 95.2013 -1.94571 0.113218 0
M  V30 871 H 94.2973 -2.94038 -1.04633 0
M  V30 872 N 94.5984 0.214957 -1.56127 0
M  V30 873 C 95.5284 1.2695 -1.95974 0
M  V30 874 C 96.5094 1.48539 -0.828868 0
M  V30 875 O 97.6944 1.60611 -1.09168 0
M  V30 876 C 94.8244 2.61794 -2.28214 0
M  V30 877 C 93.7784 2.54851 -3.43853 0
M  V30 878 C 93.1044 3.93785 -3.61715 0
M  V30 879 C 94.4044 2.09065 -4.78632 0
M  V30 880 H 96.0984 0.93846 -2.84312 0
M  V30 881 H 93.6444 0.449996 -1.36788 0
M  V30 882 H 95.5974 3.35731 -2.54682 0
M  V30 883 H 94.3214 2.96599 -1.36736 0
M  V30 884 H 92.9804 1.8337 -3.17444 0
M  V30 885 H 92.6284 4.25908 -2.67602 0
M  V30 886 H 92.3284 3.90019 -4.39498 0
M  V30 887 H 93.8524 4.69374 -3.90539 0
M  V30 888 H 95.2664 2.7275 -5.04262 0
M  V30 889 H 93.6634 2.16346 -5.59745 0
M  V30 890 H 94.7334 1.04315 -4.73547 0
M  V30 891 N 96.0765 1.50051 0.48192 0
M  V30 892 C 97.3245 1.60181 1.23234 0
M  V30 893 C 97.6455 0.299176 1.92691 0
M  V30 894 O 96.9155 -0.682708 1.83619 0
M  V30 895 H 95.4955 0.590232 0.457859 0
M  V30 896 H 98.1575 1.86775 0.556881 0
M  V30 897 H 97.2535 2.40753 1.98607 0
M  V30 898 N 97.5546 -0.734337 1.39446 0
M  V30 899 C 98.7796 -1.52866 1.40167 0
M  V30 900 C 99.2046 -1.881 -0.00171513 0
M  V30 901 O 98.5626 -1.51957 -0.988879 0
M  V30 902 C 98.6106 -2.79235 2.28167 0
M  V30 903 O 97.7146 -3.75185 1.71201 0
M  V30 904 H 97.0556 -0.461618 0.477289 0
M  V30 905 H 99.5856 -0.905949 1.8345 0
M  V30 906 H 99.5956 -3.27963 2.42702 0
M  V30 907 H 98.2706 -2.52923 3.30156 0
M  V30 908 H 96.8476 -3.33958 1.65912 0
M  V30 909 N 99.0327 -1.24633 -0.964593 0
M  V30 910 C 99.9427 -1.05859 -2.09359 0
M  V30 911 C 100.959 0.00148855 -1.74 0
M  V30 912 O 102.135 -0.197346 -2.00431 0
M  V30 913 C 99.1997 -0.668879 -3.40187 0
M  V30 914 C 98.2607 -1.80578 -3.89474 0
M  V30 915 C 97.4937 -1.43457 -5.14058 0
M  V30 916 O 97.7167 -0.325775 -5.69469 0
M  V30 917 O 96.6507 -2.2613 -5.57807 0
M  V30 918 H 100.477 -2.00516 -2.28094 0
M  V30 919 H 98.0617 -1.03481 -1.0776 0
M  V30 920 H 99.9437 -0.463211 -4.18846 0
M  V30 921 H 98.6187 0.248536 -3.22744 0
M  V30 922 H 97.5257 -2.06623 -3.11862 0
M  V30 923 H 98.8587 -2.70208 -4.11398 0
M  V30 924 N 100.511 1.16574 -1.06058 0
M  V30 925 C 101.739 1.90952 -0.796552 0
M  V30 926 C 102.154 1.77302 0.648808 0
M  V30 927 O 101.511 1.11605 1.44397 0
M  V30 928 C 101.562 3.41736 -1.17894 0
M  V30 929 O 101.283 3.54975 -2.56758 0
M  V30 930 C 102.784 4.33169 -0.942308 0
M  V30 931 H 100.004 0.605594 -0.288959 0
M  V30 932 H 102.548 1.47777 -1.41358 0
M  V30 933 H 100.703 3.82623 -0.606491 0
M  V30 934 H 101.117 4.4846 -2.72 0
M  V30 935 H 102.591 5.37439 -1.25952 0
M  V30 936 H 103.068 4.3903 0.122078 0
M  V30 937 H 103.674 3.98007 -1.49902 0
M  V30 938 N 101.989 0.842826 1.3317 0
M  V30 939 C 103.4 0.496651 1.79973 0
M  V30 940 C 103.751 -0.984641 1.69703 0
M  V30 941 O 102.876 -1.76743 1.24863 0
M  V30 942 C 103.471 0.894727 3.26772 0
M  V30 943 C 102.03 0.600629 3.71577 0
M  V30 944 C 101.177 1.10091 2.5451 0
M  V30 945 H 104.128 1.03116 1.20635 0
M  V30 946 H 104.149 0.206347 3.7994 0
M  V30 947 H 103.661 1.97287 3.34215 0
M  V30 948 H 101.762 -0.467284 3.69658 0
M  V30 949 H 101.875 1.15863 4.64879 0
M  V30 950 H 100.239 0.52162 2.49301 0
M  V30 951 H 101.022 2.18591 2.64713 0
M  V30 952 N 103.467 -1.45747 0.599634 0
M  V30 953 C 104.414 -2.30467 -0.123849 0
M  V30 954 C 105.384 -1.41632 -0.86774 0
M  V30 955 O 106.569 -1.70568 -0.855056 0
M  V30 956 C 103.709 -3.26402 -1.12051 0
M  V30 957 C 102.822 -4.3034 -0.37832 0
M  V30 958 C 101.957 -5.13389 -1.364 0
M  V30 959 C 100.996 -6.09061 -0.609171 0
M  V30 960 N 100.133 -6.84918 -1.54374 0
M  V30 961 H 104.973 -2.91802 0.604627 0
M  V30 962 H 102.51 -1.43797 0.309972 0
M  V30 963 H 104.468 -3.80482 -1.7114 0
M  V30 964 H 103.098 -2.66839 -1.8165 0
M  V30 965 H 102.15 -3.78984 0.327929 0
M  V30 966 H 103.462 -4.98354 0.210997 0
M  V30 967 H 102.616 -5.7183 -2.02719 0
M  V30 968 H 101.355 -4.45376 -1.98725 0
M  V30 969 H 100.36 -5.49758 0.0676979 0
M  V30 970 H 101.585 -6.79099 0.00891991 0
M  V30 971 H 99.531 -6.19601 -2.15478 0
M  V30 972 H 99.448 -7.49254 -1.00766 0
M  V30 973 H 100.716 -7.47906 -2.19676 0
M  V30 974 N 104.945 -0.338344 -1.53925 0
M  V30 975 C 106.17 0.263987 -2.05713 0
M  V30 976 C 106.595 1.43847 -1.21201 0
M  V30 977 O 105.953 1.79904 -0.224535 0
M  V30 978 C 106.001 0.662 -3.54471 0
M  V30 979 O 105.105 1.76265 -3.72833 0
M  V30 980 H 104.446 0.0448722 -0.662482 0
M  V30 981 H 106.976 -0.491048 -1.9862 0
M  V30 982 H 106.986 0.940594 -3.9701 0
M  V30 983 H 105.661 -0.196937 -4.15433 0
M  V30 984 H 104.238 1.48173 -3.42198 0
M  V30 985 N 106.423 1.57458 -0.0668435 0
M  V30 986 C 107.355 2.09413 0.931601 0
M  V30 987 C 108.368 1.02522 1.26464 0
M  V30 988 O 109.557 1.30049 1.22269 0
M  V30 989 C 106.657 2.53537 2.24882 0
M  V30 990 C 105.83 3.83944 2.09537 0
M  V30 991 C 104.889 4.14214 3.2452 0
M  V30 992 O 103.915 4.83891 2.9973 0
M  V30 993 N 105.117 3.67367 4.49469 0
M  V30 994 H 107.882 2.95699 0.488048 0
M  V30 995 H 105.443 1.61462 0.119009 0
M  V30 996 H 107.435 2.70853 3.00701 0
M  V30 997 H 106.005 1.72415 2.60753 0
M  V30 998 H 105.225 3.76057 1.18215 0
M  V30 999 H 106.513 4.69312 1.96529 0
M  V30 1000 H 105.911 3.11068 4.72497 0
M  V30 1001 H 104.468 3.89891 5.2233 0
M  V30 1002 N 107.901 -0.206675 1.56239 0
M  V30 1003 C 109.147 -0.930218 1.80208 0
M  V30 1004 C 109.48 -1.83387 0.638981 0
M  V30 1005 O 108.755 -1.91119 -0.361066 0
M  V30 1006 C 109.038 -1.75641 3.1436 0
M  V30 1007 C 108.891 -0.878257 4.41142 0
M  V30 1008 C 110.21 -2.73129 3.45092 0
M  V30 1009 H 107.329 -0.336742 0.655571 0
M  V30 1010 H 109.971 -0.198222 1.88963 0
M  V30 1011 H 108.121 -2.38048 3.07027 0
M  V30 1012 H 109.793 -0.269787 4.6051 0
M  V30 1013 H 108.036 -0.184385 4.33408 0
M  V30 1014 H 108.707 -1.49106 5.3148 0
M  V30 1015 H 111.183 -2.20856 3.52649 0
M  V30 1016 H 110.059 -3.28028 4.40101 0
M  V30 1017 H 110.32 -3.51606 2.68003 0
M  V30 1018 N 109.379 -1.50304 -0.473955 0
M  V30 1019 C 110.627 -1.60832 -1.22382 0
M  V30 1020 C 110.948 -0.30939 -1.9253 0
M  V30 1021 O 110.218 0.67296 -1.83978 0
M  V30 1022 H 108.798 -0.592652 -0.454723 0
M  V30 1023 H 111.46 -1.87068 -0.546968 0
M  V30 1024 H 110.556 -2.41803 -1.97327 0
M  V30 1025 N 110.857 0.726932 -1.39834 0
M  V30 1026 C 112.085 1.51613 -1.40787 0
M  V30 1027 C 112.5 1.88799 -0.00451505 0
M  V30 1028 O 111.857 1.54662 0.968809 0
M  V30 1029 C 111.908 2.79863 -2.28821 0
M  V30 1030 O 111.629 2.44253 -3.63692 0
M  V30 1031 C 113.13 3.73837 -2.38245 0
M  V30 1032 H 110.35 0.468264 -0.480593 0
M  V30 1033 H 112.894 0.897607 -1.83748 0
M  V30 1034 H 111.049 3.38027 -1.89252 0
M  V30 1035 H 111.463 3.26695 -4.1033 0
M  V30 1036 H 112.937 4.60699 -3.04073 0
M  V30 1037 H 113.414 4.16153 -1.40403 0
M  V30 1038 H 114.02 3.21589 -2.78317 0
M  V30 1039 N 112.336 1.25143 0.95797 0
M  V30 1040 C 113.266 1.07711 2.07173 0
M  V30 1041 C 114.247 -0.0128462 1.70095 0
M  V30 1042 O 115.432 0.156061 1.93572 0
M  V30 1043 C 112.562 0.691503 3.40346 0
M  V30 1044 C 111.516 1.73132 3.9142 0
M  V30 1045 C 110.842 1.20049 5.21049 0
M  V30 1046 C 112.142 3.1294 4.1817 0
M  V30 1047 H 113.836 2.00873 2.22014 0
M  V30 1048 H 111.382 0.967191 1.06684 0
M  V30 1049 H 113.335 0.556505 4.17709 0
M  V30 1050 H 112.059 -0.275819 3.25433 0
M  V30 1051 H 110.718 1.8547 3.16222 0
M  V30 1052 H 110.366 0.223499 5.02503 0
M  V30 1053 H 110.066 1.89545 5.56189 0
M  V30 1054 H 111.59 1.07782 6.01012 0
M  V30 1055 H 113.004 3.03775 4.86203 0
M  V30 1056 H 111.401 3.79875 4.64559 0
M  V30 1057 H 112.471 3.6025 3.24573 0
M  V30 1058 N 113.814 -1.1601 1.06675 0
M  V30 1059 C 114.744 -2.22688 0.702307 0
M  V30 1060 C 115.725 -1.67306 -0.307032 0
M  V30 1061 O 116.91 -1.93352 -0.181305 0
M  V30 1062 C 114.04 -3.47178 0.092038 0
M  V30 1063 C 112.994 -4.15477 1.02777 0
M  V30 1064 C 112.32 -5.33963 0.28061 0
M  V30 1065 C 113.62 -4.66019 2.35846 0
M  V30 1066 H 115.314 -2.53429 1.59419 0
M  V30 1067 H 112.86 -1.21813 0.767961 0
M  V30 1068 H 114.813 -4.21037 -0.174814 0
M  V30 1069 H 113.537 -3.15749 -0.834877 0
M  V30 1070 H 112.196 -3.43549 1.27944 0
M  V30 1071 H 111.844 -4.98788 -0.649545 0
M  V30 1072 H 111.544 -5.806 0.904258 0
M  V30 1073 H 113.068 -6.10596 0.021396 0
M  V30 1074 H 114.482 -5.3144 2.15045 0
M  V30 1075 H 112.879 -5.23293 2.93743 0
M  V30 1076 H 113.949 -3.82023 2.98641 0
M  V30 1077 N 115.292 -0.849877 -1.32721 0
M  V30 1078 C 116.539 -0.450923 -1.97416 0
M  V30 1079 C 116.867 0.992376 -1.67279 0
M  V30 1080 O 116.122 1.71048 -0.950845 0
M  V30 1081 C 116.421 -0.631272 -3.51781 0
M  V30 1082 C 116.087 -2.04432 -4.01894 0
M  V30 1083 C 114.749 -2.4308 -4.1529 0
M  V30 1084 C 117.101 -2.96679 -4.28522 0
M  V30 1085 C 114.429 -3.73257 -4.52654 0
M  V30 1086 C 116.781 -4.26349 -4.67343 0
M  V30 1087 C 115.445 -4.64939 -4.78945 0
M  V30 1088 H 114.715 -0.165004 -0.722395 0
M  V30 1089 H 117.362 -1.07901 -1.58207 0
M  V30 1090 H 115.667 0.0800767 -3.91718 0
M  V30 1091 H 117.364 -0.302709 -3.99856 0
M  V30 1092 H 113.954 -1.73419 -3.91949 0
M  V30 1093 H 118.138 -2.68054 -4.17685 0
M  V30 1094 H 113.394 -4.02946 -4.59831 0
M  V30 1095 H 117.568 -4.97895 -4.86902 0
M  V30 1096 H 115.195 -5.65855 -5.07654 0
M  V30 1097 N 116.77 1.45427 -0.607355 0
M  V30 1098 C 118.186 1.57283 -0.270985 0
M  V30 1099 C 118.386 1.59875 1.22647 0
M  V30 1100 O 117.442 1.52893 2.00948 0
M  V30 1101 C 118.755 2.85566 -0.941952 0
M  V30 1102 C 120.303 2.9924 -0.917849 0
M  V30 1103 C 120.778 4.30293 -1.56882 0
M  V30 1104 N 122.269 4.37051 -1.5343 0
M  V30 1105 C 123.004 5.37123 -2.00715 0
M  V30 1106 N 122.5 6.43734 -2.56084 0
M  V30 1107 N 124.293 5.28479 -1.91484 0
M  V30 1108 H 116.444 1.41988 -1.57966 0
M  V30 1109 H 118.707 0.67885 -0.661715 0
M  V30 1110 H 118.413 2.8955 -1.99633 0
M  V30 1111 H 118.287 3.74322 -0.465096 0
M  V30 1112 H 120.674 2.94822 0.127984 0
M  V30 1113 H 120.755 2.11895 -1.43297 0
M  V30 1114 H 120.399 4.35469 -2.61398 0
M  V30 1115 H 120.329 5.16454 -1.02873 0
M  V30 1116 H 122.82 3.60615 -1.12982 0
M  V30 1117 H 123.133 7.16341 -2.89958 0
M  V30 1118 H 121.478 6.44485 -2.60122 0
M  V30 1119 H 124.669 4.44098 -1.47967 0
M  V30 1120 H 124.842 6.0632 -2.28648 0
M  V30 1121 N 118.248 0.346503 1.53744 0
M  V30 1122 C 119.473 -0.253074 2.0585 0
M  V30 1123 C 119.898 -1.43202 1.21962 0
M  V30 1124 O 119.256 -1.79783 0.234073 0
M  V30 1125 C 119.304 -0.643193 3.54817 0
M  V30 1126 O 118.408 -1.74286 3.73762 0
M  V30 1127 H 117.749 -0.0413583 0.662711 0
M  V30 1128 H 120.279 0.501574 1.98357 0
M  V30 1129 H 120.289 -0.919526 3.97503 0
M  V30 1130 H 118.964 0.218966 4.15323 0
M  V30 1131 H 117.541 -1.46356 3.42979 0
M  V30 1132 N 119.726 -1.57421 0.075193 0
M  V30 1133 C 121.142 -1.57099 -0.281444 0
M  V30 1134 C 121.342 -1.08486 -1.69803 0
M  V30 1135 O 120.398 -0.752279 -2.41033 0
M  V30 1136 C 121.711 -3.00571 -0.0880041 0
M  V30 1137 C 123.259 -3.12605 -0.157281 0
M  V30 1138 C 123.734 -4.57999 0.0079207 0
M  V30 1139 N 125.225 -4.63176 -0.0475725 0
M  V30 1140 C 125.96 -5.73373 0.0557876 0
M  V30 1141 N 125.456 -6.92473 0.21286 0
M  V30 1142 N 127.249 -5.621 -0.00152098 0
M  V30 1143 H 119.4 -1.87335 1.00098 0
M  V30 1144 H 121.663 -0.86377 0.390646 0
M  V30 1145 H 121.369 -3.40262 0.889629 0
M  V30 1146 H 121.243 -3.67754 -0.838875 0
M  V30 1147 H 123.63 -2.72798 -1.1254 0
M  V30 1148 H 123.711 -2.48053 0.62475 0
M  V30 1149 H 123.355 -4.98496 0.972824 0
M  V30 1150 H 123.285 -5.20586 -0.793556 0
M  V30 1151 H 125.776 -3.7753 -0.167244 0
M  V30 1152 H 126.089 -7.72279 0.283781 0
M  V30 1153 H 124.434 -6.94556 0.248267 0
M  V30 1154 H 127.625 -4.67938 -0.122958 0
M  V30 1155 H 127.798 -6.47948 0.0824844 0
M  V30 1156 N 121.204 0.198386 -1.56346 0
M  V30 1157 C 122.429 0.939682 -1.84891 0
M  V30 1158 C 122.854 1.76202 -0.658369 0
M  V30 1159 O 122.212 1.76993 0.392851 0
M  V30 1160 C 122.26 1.81428 -3.11635 0
M  V30 1161 O 121.364 2.91265 -2.91956 0
M  V30 1162 H 120.705 0.264807 -0.608912 0
M  V30 1163 H 123.235 0.204695 -2.03573 0
M  V30 1164 H 123.245 2.21958 -3.42343 0
M  V30 1165 H 121.92 1.21004 -3.97908 0
M  V30 1166 H 120.497 2.54514 -2.72538 0
M  V30 1167 N 122.682 1.50554 0.465978 0
M  V30 1168 C 124.098 1.38093 0.800154 0
M  V30 1169 C 124.298 0.440988 1.96615 0
M  V30 1170 O 123.354 -0.114499 2.5224 0
M  V30 1171 C 124.667 2.79565 1.10742 0
M  V30 1172 C 126.215 2.88516 1.21357 0
M  V30 1173 C 126.69 4.30833 1.55393 0
M  V30 1174 N 128.181 4.33807 1.62375 0
M  V30 1175 C 128.916 5.40927 1.90225 0
M  V30 1176 N 128.412 6.58247 2.16062 0
M  V30 1177 N 130.205 5.28376 1.9177 0
M  V30 1178 H 122.356 2.10237 -0.302366 0
M  V30 1179 H 124.619 0.945203 -0.0727746 0
M  V30 1180 H 124.325 3.50208 0.323661 0
M  V30 1181 H 124.199 3.17125 2.04234 0
M  V30 1182 H 126.586 2.1809 1.98799 0
M  V30 1183 H 126.667 2.54492 0.258321 0
M  V30 1184 H 126.311 5.01799 0.784889 0
M  V30 1185 H 126.241 4.62347 2.52076 0
M  V30 1186 H 128.732 3.49212 1.44427 0
M  V30 1187 H 129.045 7.3569 2.36601 0
M  V30 1188 H 127.39 6.61413 2.13444 0
M  V30 1189 H 130.581 4.35715 1.71085 0
M  V30 1190 H 130.754 6.11944 2.13139 0
M  V30 1191 N 124.16 -0.719506 1.40217 0
M  V30 1192 C 125.09 -1.8465 1.42922 0
M  V30 1193 C 126.071 -1.67599 0.29062 0
M  V30 1194 O 127.256 -1.87688 0.498677 0
M  V30 1195 C 124.386 -3.22565 1.28722 0
M  V30 1196 C 123.34 -3.54281 2.40144 0
M  V30 1197 C 122.666 -4.91298 2.11023 0
M  V30 1198 C 123.966 -3.55676 3.82481 0
M  V30 1199 H 125.66 -1.82644 2.37237 0
M  V30 1200 H 123.206 -0.877305 1.1419 0
M  V30 1201 H 125.159 -4.01095 1.29232 0
M  V30 1202 H 123.883 -3.25137 0.308811 0
M  V30 1203 H 122.542 -2.78088 2.38877 0
M  V30 1204 H 122.19 -4.90468 1.11582 0
M  V30 1205 H 121.89 -5.13485 2.8567 0
M  V30 1206 H 123.414 -5.72166 2.13209 0
M  V30 1207 H 124.828 -4.24254 3.85592 0
M  V30 1208 H 123.225 -3.89388 4.56614 0
M  V30 1209 H 124.295 -2.55144 4.12346 0
M  V30 1210 N 125.638 -1.25649 -0.95132 0
M  V30 1211 C 126.866 -1.13343 -1.73092 0
M  V30 1212 C 127.281 0.312434 -1.86197 0
M  V30 1213 O 126.638 1.21465 -1.36207 0
M  V30 1214 C 126.689 -1.78602 -3.14299 0
M  V30 1215 O 126.41 -3.17537 -3.01831 0
M  V30 1216 C 127.911 -1.72119 -4.08522 0
M  V30 1217 H 125.131 -0.395181 -0.542285 0
M  V30 1218 H 127.675 -1.66076 -1.19328 0
M  V30 1219 H 125.83 -1.29832 -3.64996 0
M  V30 1220 H 126.244 -3.49676 -3.90931 0
M  V30 1221 H 127.718 -2.22435 -5.052 0
M  V30 1222 H 128.195 -0.685635 -4.33815 0
M  V30 1223 H 128.801 -2.20393 -3.63741 0
M  V30 1224 N 127.117 1.15442 -1.07289 0
M  V30 1225 C 128.067 2.18164 -0.662467 0
M  V30 1226 C 129.051 1.57845 0.312074 0
M  V30 1227 O 130.243 1.76552 0.125905 0
M  V30 1228 C 127.372 3.43246 -0.0611295 0
M  V30 1229 C 126.458 4.1062 -1.06077 0
M  V30 1230 N 126.849 4.53491 -2.24008 0
M  V30 1231 C 125.147 4.36949 -0.893964 0
M  V30 1232 C 125.848 5.05731 -2.87422 0
M  V30 1233 N 124.824 4.99236 -2.15091 0
M  V30 1234 H 128.626 2.49038 -1.56068 0
M  V30 1235 H 126.14 1.32003 -0.945988 0
M  V30 1236 H 128.137 4.16145 0.250792 0
M  V30 1237 H 126.797 3.13854 0.832207 0
M  V30 1238 H 127.808 4.46898 -2.6173 0
M  V30 1239 H 124.485 4.17466 -0.0534693 0
M  V30 1240 H 125.875 5.48865 -3.87553 0
M  V30 1241 N 128.595 0.856903 1.32268 0
M  V30 1242 C 129.525 0.31858 2.31316 0
M  V30 1243 C 130.506 -0.583487 1.59779 0
M  V30 1244 O 131.691 -0.503259 1.87566 0
M  V30 1245 C 128.821 -0.491979 3.43798 0
M  V30 1246 C 127.775 0.315849 4.26833 0
M  V30 1247 C 127.101 -0.619586 5.31098 0
M  V30 1248 C 128.401 1.54282 4.98993 0
M  V30 1249 H 130.095 1.14621 2.76591 0
M  V30 1250 H 127.641 0.552613 1.32974 0
M  V30 1251 H 129.594 -0.879012 4.1213 0
M  V30 1252 H 128.318 -1.35299 2.97257 0
M  V30 1253 H 126.977 0.684664 3.6015 0
M  V30 1254 H 126.625 -1.47751 4.8081 0
M  V30 1255 H 126.325 -0.0830621 5.87541 0
M  V30 1256 H 127.849 -1.00375 6.02293 0
M  V30 1257 H 129.263 1.22796 5.59995 0
M  V30 1258 H 127.66 2.01745 5.65172 0
M  V30 1259 H 128.73 2.30285 4.26728 0
M  V30 1260 N 130.073 -1.45103 0.615059 0
M  V30 1261 C 131.298 -2.07064 0.117988 0
M  V30 1262 C 131.723 -1.4554 -1.19163 0
M  V30 1263 O 131.081 -0.550855 -1.72729 0
M  V30 1264 C 131.129 -3.606 -0.000288387 0
M  V30 1265 O 130.233 -3.98847 -1.04856 0
M  V30 1266 H 129.574 -0.659467 0.0774581 0
M  V30 1267 H 132.104 -1.86236 0.847186 0
M  V30 1268 H 132.114 -4.07529 -0.196091 0
M  V30 1269 H 130.789 -4.04765 0.955932 0
M  V30 1270 H 129.366 -3.63577 -0.828619 0
M  V30 1271 N 131.551 -0.354651 -1.53558 0
M  V30 1272 C 132.481 0.489091 -2.2832 0
M  V30 1273 C 133.462 1.09324 -1.30316 0
M  V30 1274 O 134.647 1.11255 -1.59173 0
M  V30 1275 C 131.777 1.63456 -3.0643 0
M  V30 1276 C 130.731 1.1582 -4.12031 0
M  V30 1277 C 130.057 2.39305 -4.7816 0
M  V30 1278 C 131.357 0.250731 -5.21698 0
M  V30 1279 H 133.051 -0.134614 -2.99097 0
M  V30 1280 H 130.597 -0.0661826 -1.43848 0
M  V30 1281 H 132.55 2.23136 -3.57475 0
M  V30 1282 H 131.274 2.28533 -2.33325 0
M  V30 1283 H 129.933 0.584146 -3.61916 0
M  V30 1284 H 129.581 3.02814 -4.01637 0
M  V30 1285 H 129.281 2.08109 -5.49513 0
M  V30 1286 H 130.805 2.99691 -5.31994 0
M  V30 1287 H 132.219 0.754695 -5.68311 0
M  V30 1288 H 130.616 0.0301468 -6.00092 0
M  V30 1289 H 131.686 -0.710125 -4.79672 0
M  V30 1290 N 133.029 1.57378 -0.0835403 0
M  V30 1291 C 134.254 1.98682 0.594987 0
M  V30 1292 C 134.679 0.961969 1.61641 0
M  V30 1293 O 134.037 -0.0709989 1.81161 0
M  V30 1294 C 134.085 3.38988 1.2296 0
M  V30 1295 O 133.189 3.39208 2.34546 0
M  V30 1296 H 132.53 0.646368 0.152002 0
M  V30 1297 H 135.06 2.03961 -0.161533 0
M  V30 1298 H 135.07 3.76431 1.57366 0
M  V30 1299 H 133.745 4.13107 0.481228 0
M  V30 1300 H 132.322 3.13548 2.01846 0
M  V30 1301 N 134.507 -0.190092 1.56449 0
M  V30 1302 C 135.923 -0.54113 1.50146 0
M  V30 1303 C 136.123 -1.85603 0.784465 0
M  V30 1304 O 135.179 -2.5024 0.337051 0
M  V30 1305 C 136.492 -0.591241 2.9483 0
M  V30 1306 C 138.04 -0.679732 3.0553 0
M  V30 1307 C 138.515 -0.760908 4.51635 0
M  V30 1308 N 140.006 -0.824302 4.55806 0
M  V30 1309 C 140.741 -0.907365 5.66175 0
M  V30 1310 N 140.237 -0.952422 6.86222 0
M  V30 1311 N 142.03 -0.94494 5.541 0
M  V30 1312 H 134.181 0.67235 2.01478 0
M  V30 1313 H 136.444 0.240127 0.917084 0
M  V30 1314 H 136.15 0.305905 3.50367 0
M  V30 1315 H 136.024 -1.44422 3.48457 0
M  V30 1316 H 138.411 -1.56731 2.50039 0
M  V30 1317 H 138.492 0.199549 2.5502 0
M  V30 1318 H 138.136 0.122336 5.07753 0
M  V30 1319 H 138.066 -1.65606 4.99882 0
M  V30 1320 H 140.557 -0.798526 3.69367 0
M  V30 1321 H 140.87 -1.01645 7.66086 0
M  V30 1322 H 139.215 -0.921014 6.8887 0
M  V30 1323 H 142.406 -0.906612 4.59236 0
M  V30 1324 H 142.579 -1.00622 6.4014 0
M  V30 1325 N 135.985 -1.50799 -0.457987 0
M  V30 1326 C 137.401 -1.38515 -0.792819 0
M  V30 1327 C 137.601 -0.451409 -1.96379 0
M  V30 1328 O 136.657 0.10112 -2.52297 0
M  V30 1329 C 137.97 -2.80149 -1.09258 0
M  V30 1330 C 139.518 -2.89156 -1.19825 0
M  V30 1331 C 139.993 -4.31651 -1.53106 0
M  V30 1332 N 141.484 -4.34662 -1.60072 0
M  V30 1333 C 142.219 -5.41928 -1.87354 0
M  V30 1334 N 141.715 -6.59384 -2.12568 0
M  V30 1335 N 143.508 -5.29385 -1.88965 0
M  V30 1336 H 135.659 -2.10073 0.313511 0
M  V30 1337 H 137.922 -0.944803 0.0777862 0
M  V30 1338 H 137.628 -3.50374 -0.305084 0
M  V30 1339 H 137.502 -3.18204 -2.02549 0
M  V30 1340 H 139.889 -2.19141 -1.97639 0
M  V30 1341 H 139.97 -2.54626 -0.244821 0
M  V30 1342 H 139.614 -5.02208 -0.758266 0
M  V30 1343 H 139.544 -4.63678 -2.49621 0
M  V30 1344 H 142.035 -3.49973 -1.42573 0
M  V30 1345 H 142.348 -7.36934 -2.32696 0
M  V30 1346 H 140.693 -6.62535 -2.09933 0
M  V30 1347 H 143.884 -4.36616 -1.68772 0
M  V30 1348 H 144.057 -6.13066 -2.09891 0
M  V30 1349 N 137.463 0.71206 -1.40597 0
M  V30 1350 C 138.426 1.80785 -1.40888 0
M  V30 1351 C 139.426 1.57937 -0.302103 0
M  V30 1352 O 140.616 1.64913 -0.561182 0
M  V30 1353 C 137.748 3.18927 -1.20409 0
M  V30 1354 H 138.941 1.81924 -2.38419 0
M  V30 1355 H 136.494 0.91805 -1.26497 0
M  V30 1356 H 137.229 3.23436 -0.236522 0
M  V30 1357 H 137.014 3.36911 -2.00582 0
M  V30 1358 H 138.504 3.98949 -1.23408 0
M  V30 1359 N 138.941 1.26152 0.944643 0
M  V30 1360 C 140.166 1.14363 1.7302 0
M  V30 1361 C 140.591 -0.29772 1.85729 0
M  V30 1362 O 139.949 -1.2157 1.34501 0
M  V30 1363 C 139.997 1.81378 3.11664 0
M  V30 1364 O 139.101 1.10022 3.97453 0
M  V30 1365 H 138.442 0.398694 0.53098 0
M  V30 1366 H 140.972 1.66906 1.18337 0
M  V30 1367 H 140.982 1.88064 3.62072 0
M  V30 1368 H 139.657 2.86237 3.0173 0
M  V30 1369 H 138.234 1.11287 3.55907 0
M  V30 1370 N 140.419 -1.14872 1.07899 0
M  V30 1371 C 141.329 -2.2341 0.715915 0
M  V30 1372 C 142.345 -1.71808 -0.275306 0
M  V30 1373 O 143.521 -2.01039 -0.120545 0
M  V30 1374 C 140.586 -3.46474 0.125168 0
M  V30 1375 C 139.647 -4.13039 1.17034 0
M  V30 1376 C 138.88 -5.30229 0.607688 0
M  V30 1377 O 139.103 -5.675 -0.574497 0
M  V30 1378 O 138.037 -5.86444 1.35526 0
M  V30 1379 H 141.863 -2.56808 1.62121 0
M  V30 1380 H 139.448 -1.22702 0.852322 0
M  V30 1381 H 141.33 -4.20917 -0.201729 0
M  V30 1382 H 140.005 -3.14811 -0.753364 0
M  V30 1383 H 138.912 -3.40493 1.54968 0
M  V30 1384 H 140.245 -4.48796 2.02097 0
M  V30 1385 N 141.898 -0.863906 -1.31812 0
M  V30 1386 C 143.123 -0.48527 -2.01643 0
M  V30 1387 C 143.548 0.913058 -1.64453 0
M  V30 1388 O 142.906 1.6014 -0.849985 0
M  V30 1389 C 142.954 -0.642625 -3.54828 0
M  V30 1390 O 142.058 0.320659 -4.11151 0
M  V30 1391 H 141.399 -0.193793 -0.635091 0
M  V30 1392 H 143.929 -1.16565 -1.68148 0
M  V30 1393 H 143.939 -0.533628 -4.04495 0
M  V30 1394 H 142.614 -1.66227 -3.81237 0
M  V30 1395 H 141.191 0.167126 -3.72525 0
M  V30 1396 N 143.376 1.44774 -0.622745 0
M  V30 1397 C 144.601 2.06999 -0.128968 0
M  V30 1398 C 145.026 1.4617 1.1839 0
M  V30 1399 O 144.384 0.560007 1.72434 0
M  V30 1400 C 144.432 3.60595 -0.0188351 0
M  V30 1401 O 143.536 3.99398 1.02739 0
M  V30 1402 H 142.877 0.659047 -0.0809544 0
M  V30 1403 H 145.407 1.85784 -0.85705 0
M  V30 1404 H 145.417 4.07627 0.174476 0
M  V30 1405 H 144.092 4.04252 -0.977384 0
M  V30 1406 H 142.669 3.64011 0.809326 0
M  V30 1407 N 144.854 0.36279 1.53368 0
M  V30 1408 C 145.784 -0.476976 2.28576 0
M  V30 1409 C 146.765 -1.08631 1.30894 0
M  V30 1410 O 147.95 -1.10409 1.59761 0
M  V30 1411 C 145.08 -1.61828 3.07293 0
M  V30 1412 C 144.034 -1.13633 4.1264 0
M  V30 1413 C 143.36 -2.36766 4.79423 0
M  V30 1414 C 144.66 -0.223061 5.21823 0
M  V30 1415 H 146.354 0.150474 2.99022 0
M  V30 1416 H 143.9 0.0738103 1.43811 0
M  V30 1417 H 145.853 -2.21237 3.58653 0
M  V30 1418 H 144.577 -2.27292 2.34533 0
M  V30 1419 H 143.236 -0.564945 3.62221 0
M  V30 1420 H 142.884 -3.0068 4.03238 0
M  V30 1421 H 142.584 -2.05192 5.50609 0
M  V30 1422 H 144.108 -2.96865 5.33576 0
M  V30 1423 H 145.522 -0.724545 5.68703 0
M  V30 1424 H 143.919 0.001678 6.001 0
M  V30 1425 H 144.989 0.735553 4.79289 0
M  V30 1426 N 146.332 -1.57332 0.0918853 0
M  V30 1427 C 147.557 -1.98995 -0.584442 0
M  V30 1428 C 147.982 -0.970528 -1.61128 0
M  V30 1429 O 147.34 0.0613904 -1.81196 0
M  V30 1430 C 147.388 -3.39636 -1.21161 0
M  V30 1431 O 146.492 -3.40447 -2.32744 0
M  V30 1432 H 145.833 -0.647165 -0.148572 0
M  V30 1433 H 148.363 -2.03873 0.172347 0
M  V30 1434 H 148.373 -3.7726 -1.55367 0
M  V30 1435 H 147.048 -4.13356 -0.459313 0
M  V30 1436 H 145.625 -3.14614 -2.0018 0
M  V30 1437 N 147.81 0.181792 -1.56548 0
M  V30 1438 C 149.035 0.920019 -1.85877 0
M  V30 1439 C 149.46 1.75494 -0.677021 0
M  V30 1440 O 148.818 1.77399 0.374056 0
M  V30 1441 C 148.866 1.78112 -3.13542 0
M  V30 1442 O 147.97 2.88152 -2.95029 0
M  V30 1443 H 147.311 0.258334 -0.611686 0
M  V30 1444 H 149.841 0.183092 -2.03779 0
M  V30 1445 H 149.851 2.18314 -3.44678 0
M  V30 1446 H 148.526 1.16777 -3.99169 0
M  V30 1447 H 147.103 2.51609 -2.75222 0
M  V30 1448 N 149.288 1.51039 0.449983 0
M  V30 1449 C 150.198 1.74261 1.57067 0
M  V30 1450 C 151.214 0.626363 1.62335 0
M  V30 1451 O 152.39 0.907162 1.79812 0
M  V30 1452 C 149.455 1.85114 2.93144 0
M  V30 1453 C 148.516 3.0893 2.98095 0
M  V30 1454 C 147.749 3.19256 4.27681 0
M  V30 1455 O 147.972 2.35835 5.19363 0
M  V30 1456 O 146.906 4.12144 4.38658 0
M  V30 1457 H 150.732 2.69303 1.40391 0
M  V30 1458 H 148.317 1.35389 0.631688 0
M  V30 1459 H 150.199 1.94311 3.73926 0
M  V30 1460 H 148.874 0.932588 3.09975 0
M  V30 1461 H 147.781 3.0522 2.16314 0
M  V30 1462 H 149.114 4.00433 2.86206 0
M  V30 1463 N 150.766 -0.704594 1.40972 0
M  V30 1464 C 151.991 -1.49858 1.43378 0
M  V30 1465 C 152.416 -1.88061 0.038184 0
M  V30 1466 O 151.774 -1.5402 -0.956425 0
M  V30 1467 C 151.822 -2.74333 2.34038 0
M  V30 1468 O 150.926 -3.7147 1.7912 0
M  V30 1469 H 150.267 -0.45139 0.486974 0
M  V30 1470 H 152.797 -0.866832 1.8533 0
M  V30 1471 H 152.807 -3.22741 2.49604 0
M  V30 1472 H 151.482 -2.45863 3.35446 0
M  V30 1473 H 150.059 -3.30363 1.72958 0
M  V30 1474 N 152.244 -1.26651 -0.937939 0
M  V30 1475 C 153.469 -1.15279 -1.72411 0
M  V30 1476 C 153.894 0.287866 -1.85884 0
M  V30 1477 O 153.252 1.20855 -1.35143 0
M  V30 1478 C 153.3 -1.83028 -3.10698 0
M  V30 1479 O 152.404 -1.12128 -3.96864 0
M  V30 1480 H 151.745 -0.401504 -0.528858 0
M  V30 1481 H 154.275 -1.67531 -1.1745 0
M  V30 1482 H 154.285 -1.89981 -3.6107 0
M  V30 1483 H 152.96 -2.87833 -3.00208 0
M  V30 1484 H 151.537 -1.13173 -3.55312 0
M  V30 1485 N 153.722 1.14298 -1.08507 0
M  V30 1486 C 154.632 2.23027 -0.727753 0
M  V30 1487 C 155.648 1.71952 0.26619 0
M  V30 1488 O 156.824 2.011 0.109882 0
M  V30 1489 C 153.889 3.46403 -0.143541 0
M  V30 1490 C 152.95 4.12413 -1.19223 0
M  V30 1491 C 152.183 5.29899 -0.635798 0
M  V30 1492 O 152.406 5.67796 0.544393 0
M  V30 1493 O 151.34 5.85717 -1.38634 0
M  V30 1494 H 155.166 2.55945 -1.63481 0
M  V30 1495 H 152.751 1.22248 -0.858817 0
M  V30 1496 H 154.633 4.21018 0.179404 0
M  V30 1497 H 153.308 3.15206 0.736659 0
M  V30 1498 H 152.215 3.39667 -1.56772 0
M  V30 1499 H 153.548 4.47718 -2.04474 0
M  V30 1500 N 155.201 0.870884 1.31352 0
M  V30 1501 C 156.426 0.495957 2.01383 0
M  V30 1502 C 156.851 -0.904324 1.64935 0
M  V30 1503 O 156.209 -1.59687 0.858466 0
M  V30 1504 C 156.257 0.661433 3.54482 0
M  V30 1505 O 155.361 -0.298851 4.11316 0
M  V30 1506 H 154.702 0.197158 0.634054 0
M  V30 1507 H 157.232 1.17455 1.67527 0
M  V30 1508 H 157.242 0.555072 4.04207 0
M  V30 1509 H 155.917 1.68246 3.8035 0
M  V30 1510 H 154.494 -0.147368 3.72609 0
M  V30 1511 N 156.679 -1.44442 0.630414 0
M  V30 1512 C 157.904 -2.06927 0.139944 0
M  V30 1513 C 158.329 -1.46795 -1.17613 0
M  V30 1514 O 157.687 -0.569144 -1.72135 0
M  V30 1515 C 157.735 -3.6058 0.0379581 0
M  V30 1516 O 156.839 -3.99937 -1.0062 0
M  V30 1517 H 156.18 -0.658608 0.0844483 0
M  V30 1518 H 158.71 -1.85327 0.866891 0
M  V30 1519 H 158.72 -4.07714 -0.152856 0
M  V30 1520 H 157.395 -4.03728 0.998809 0
M  V30 1521 H 155.972 -3.64436 -0.79001 0
M  V30 1522 N 158.157 -0.370918 -1.53173 0
M  V30 1523 C 159.434 0.273754 -1.93675 0
M  V30 1524 C 159.814 1.65938 -1.3049 0
M  V30 1525 O 159.162 2.23698 -0.465999 0
M  V30 1526 C 159.372 0.318602 -3.47543 0
M  V30 1527 C 160.72 0.556392 -4.20939 0
M  V30 1528 O 161.744 0.399587 -3.53952 0
M  V30 1529 O 160.603 0.862133 -5.39657 0
M  V30 1530 H 157.697 0.165448 -0.810281 0
M  V30 1531 H 160.243 -0.42409 -1.64315 0
M  V30 1532 H 159.015 -0.652687 -3.85818 0
M  V30 1533 H 158.638 1.06212 -3.83151 0
M  V30 1534 N 159.635 1.57281 -0.100228 0
M  V30 1535 C 160.598 2.13158 0.842398 0
M  V30 1536 C 161.598 1.06202 1.20738 0
M  V30 1537 O 162.788 1.32066 1.13597 0
M  V30 1538 C 159.92 2.65639 2.13655 0
M  V30 1539 H 161.113 2.97766 0.357114 0
M  V30 1540 H 158.666 1.5559 0.148823 0
M  V30 1541 H 159.401 1.84566 2.66657 0
M  V30 1542 H 159.186 3.43844 1.88451 0
M  V30 1543 H 160.676 3.08846 2.81077 0
M  V30 1544 N 161.113 -0.173488 1.56642 0
M  V30 1545 C 162.361 -0.888706 1.81512 0
M  V30 1546 C 162.682 -1.82875 0.676872 0
M  V30 1547 O 161.952 -1.93536 -0.303414 0
M  V30 1548 H 160.532 -0.331164 0.669582 0
M  V30 1549 H 163.194 -0.173823 1.94123 0
M  V30 1550 H 162.29 -1.46691 2.75478 0
M  V30 1551 N 162.591 -1.51276 -0.441967 0
M  V30 1552 C 163.521 -1.752 -1.54361 0
M  V30 1553 C 164.502 -0.601682 -1.59103 0
M  V30 1554 O 165.687 -0.843913 -1.74905 0
M  V30 1555 C 162.817 -1.87282 -2.92477 0
M  V30 1556 C 161.771 -3.02687 -3.02596 0
M  V30 1557 C 161.097 -2.99947 -4.42647 0
M  V30 1558 C 162.397 -4.4273 -2.77106 0
M  V30 1559 H 164.091 -2.67442 -1.34592 0
M  V30 1560 H 161.637 -1.28694 -0.646048 0
M  V30 1561 H 163.59 -2.02602 -3.695 0
M  V30 1562 H 162.314 -0.916844 -3.13467 0
M  V30 1563 H 160.973 -2.87065 -2.28012 0
M  V30 1564 H 160.621 -2.02136 -4.60597 0
M  V30 1565 H 160.321 -3.77439 -4.50348 0
M  V30 1566 H 161.845 -3.17354 -5.2165 0
M  V30 1567 H 163.259 -4.58727 -3.43864 0
M  V30 1568 H 161.656 -5.21893 -2.96222 0
M  V30 1569 H 162.726 -4.53087 -1.72744 0
M  V30 1570 N 164.069 0.697108 -1.41344 0
M  V30 1571 C 165.309 1.46939 -1.42085 0
M  V30 1572 C 165.673 1.9198 -0.0280397 0
M  V30 1573 O 166.874 2.6865 0.0897504 0
M  V30 1574 C 165.145 2.64985 -2.39828 0
M  V30 1575 S 166.704 3.54147 -2.59085 0
M  V30 1576 H 163.522 0.502146 -0.503359 0
M  V30 1577 H 166.124 0.813546 -1.77769 0
M  V30 1578 H 164.828 2.30098 -3.39828 0
M  V30 1579 H 164.359 3.35464 -2.05493 0
M  V30 1580 H 166.374 4.60137 -1.85711 0
M  V30 1581 N 165.547 1.27147 0.931209 0
M  V30 1582 C 166.48 1.0389 2.0318 0
M  V30 1583 C 167.458 -0.0395716 1.62552 0
M  V30 1584 O 168.642 0.104867 1.88208 0
M  V30 1585 C 165.769 0.575227 3.3378 0
M  V30 1586 C 164.815 1.64774 3.93385 0
M  V30 1587 S 165.648 3.23933 4.26413 0
M  V30 1588 C 166.804 2.79358 5.60098 0
M  V30 1589 H 167.037 1.97075 2.22596 0
M  V30 1590 H 164.57 1.10938 1.07387 0
M  V30 1591 H 166.528 0.314385 4.09294 0
M  V30 1592 H 165.189 -0.336505 3.12292 0
M  V30 1593 H 164.382 1.27454 4.87618 0
M  V30 1594 H 163.984 1.86048 3.24441 0
M  V30 1595 H 166.276 2.24443 6.39243 0
M  V30 1596 H 167.219 3.72322 6.02314 0
M  V30 1597 H 167.627 2.1861 5.20452 0
M  V30 1598 N 167.025 -1.13721 1.09112 0
M  V30 1599 C 168.302 -1.81155 0.737706 0
M  V30 1600 C 168.682 -1.96253 -0.777683 0
M  V30 1601 O 168.03 -1.52807 -1.69889 0
M  V30 1602 C 168.24 -3.16392 1.47299 0
M  V30 1603 C 169.588 -3.91787 1.63671 0
M  V30 1604 O 170.612 -3.26005 1.43524 0
M  V30 1605 O 169.471 -5.0977 1.96969 0
M  V30 1606 H 166.565 -0.783518 0.26463 0
M  V30 1607 H 169.111 -1.20676 1.19312 0
M  V30 1608 H 167.883 -3.0061 2.50498 0
M  V30 1609 H 167.506 -3.8457 1.00953 0
M  V30 1610 N 168.503 -0.877838 -1.30888 0
M  V30 1611 C 169.728 -0.506629 -2.01117 0
M  V30 1612 C 170.153 0.895564 -1.65412 0
M  V30 1613 O 169.511 1.5923 -0.866922 0
M  V30 1614 C 169.559 -0.680223 -3.54126 0
M  V30 1615 O 168.663 0.277033 -4.11468 0
M  V30 1616 H 168.004 -0.200518 -0.633 0
M  V30 1617 H 170.534 -1.18342 -1.66902 0
M  V30 1618 H 170.544 -0.5765 -4.03907 0
M  V30 1619 H 169.219 -1.70261 -3.79452 0
M  V30 1620 H 167.796 0.127606 -3.72682 0
M  V30 1621 N 169.982 1.44106 -0.638065 0
M  V30 1622 C 171.393 1.85316 -0.226894 0
M  V30 1623 C 171.744 1.53399 1.22324 0
M  V30 1624 O 170.869 0.975463 1.93167 0
M  V30 1625 C 171.464 3.3637 -0.405013 0
M  V30 1626 C 170.023 3.76369 -0.0482902 0
M  V30 1627 C 169.17 2.67921 -0.715108 0
M  V30 1628 H 172.121 1.34474 -0.842764 0
M  V30 1629 H 172.142 3.7885 0.354 0
M  V30 1630 H 171.654 3.59569 -1.46053 0
M  V30 1631 H 169.755 3.58784 1.00522 0
M  V30 1632 H 169.868 4.76856 -0.463187 0
M  V30 1633 H 168.232 2.54259 -0.149753 0
M  V30 1634 H 169.015 2.93951 -1.77335 0
M  V30 1635 N 171.46 0.379036 1.52974 0
M  V30 1636 C 172.685 -0.209353 2.06341 0
M  V30 1637 C 173.11 -1.40583 1.24972 0
M  V30 1638 O 172.468 -1.79246 0.272155 0
M  V30 1639 C 172.516 -0.567786 3.56102 0
M  V30 1640 O 171.62 -1.66318 3.77375 0
M  V30 1641 H 170.961 -0.0272919 0.663439 0
M  V30 1642 H 173.491 0.543536 1.97248 0
M  V30 1643 H 173.501 -0.835003 3.99364 0
M  V30 1644 H 172.176 0.307013 4.14765 0
M  V30 1645 H 170.753 -1.39048 3.46006 0
M  V30 1646 N 172.938 -1.57226 0.108567 0
M  V30 1647 C 174.349 -1.8195 -0.418464 0
M  V30 1648 C 174.7 -1.02508 -1.67292 0
M  V30 1649 O 173.825 -0.258496 -2.14851 0
M  V30 1650 C 174.42 -3.30028 -0.765979 0
M  V30 1651 C 172.979 -3.55469 -1.23769 0
M  V30 1652 C 172.126 -2.7625 -0.241106 0
M  V30 1653 H 175.077 -1.55149 0.33384 0
M  V30 1654 H 175.098 -3.44086 -1.62434 0
M  V30 1655 H 174.61 -3.87821 0.147219 0
M  V30 1656 H 172.711 -3.03022 -2.16814 0
M  V30 1657 H 172.824 -4.6408 -1.19022 0
M  V30 1658 H 171.188 -2.44133 -0.72602 0
M  V30 1659 H 171.971 -3.36797 0.665007 0
M  V30 1660 N 174.416 0.165178 -1.56732 0
M  V30 1661 C 175.349 1.23336 -1.91998 0
M  V30 1662 C 176.327 1.42476 -0.783531 0
M  V30 1663 O 177.511 1.57384 -1.03743 0
M  V30 1664 C 174.638 2.59533 -2.17625 0
M  V30 1665 C 173.684 2.57093 -3.40302 0
M  V30 1666 S 174.517 2.05571 -4.9447 0
M  V30 1667 C 175.673 3.43532 -5.23198 0
M  V30 1668 H 175.906 0.932387 -2.82301 0
M  V30 1669 H 173.439 0.370013 -1.49901 0
M  V30 1670 H 175.397 3.37918 -2.3307 0
M  V30 1671 H 174.058 2.86827 -1.28019 0
M  V30 1672 H 173.251 3.57308 -3.55453 0
M  V30 1673 H 172.853 1.86806 -3.24005 0
M  V30 1674 H 175.145 4.39559 -5.15552 0
M  V30 1675 H 176.088 3.33251 -6.2478 0
M  V30 1676 H 176.496 3.39828 -4.50752 0
M  V30 1677 N 175.894 1.51508 0.433938 0
M  V30 1678 C 177.171 1.54888 1.19453 0
M  V30 1679 C 177.551 0.315154 2.08734 0
M  V30 1680 O 176.899 -0.699558 2.17528 0
M  V30 1681 C 177.109 2.86467 1.99342 0
M  V30 1682 C 178.457 3.38545 2.56267 0
M  V30 1683 O 179.481 2.88041 2.0955 0
M  V30 1684 O 178.34 4.26675 3.41483 0
M  V30 1685 H 175.434 0.622863 0.544032 0
M  V30 1686 H 177.98 1.63823 0.442732 0
M  V30 1687 H 176.752 3.67718 1.33788 0
M  V30 1688 H 176.375 2.8071 2.8158 0
M  V30 1689 N 177.372 -0.689602 1.41712 0
M  V30 1690 C 178.783 -1.26973 1.36875 0
M  V30 1691 C 179.134 -1.96124 0.054748 0
M  V30 1692 O 178.259 -1.99141 -0.84687 0
M  V30 1693 C 178.854 -2.30912 2.47922 0
M  V30 1694 C 177.413 -2.84486 2.46464 0
M  V30 1695 C 176.56 -1.58603 2.27465 0
M  V30 1696 H 179.511 -0.48396 1.51141 0
M  V30 1697 H 179.532 -3.12331 2.17323 0
M  V30 1698 H 179.044 -1.80554 3.43543 0
M  V30 1699 H 177.145 -3.39005 1.54617 0
M  V30 1700 H 177.258 -3.34511 3.42986 0
M  V30 1701 H 175.622 -1.84632 1.75451 0
M  V30 1702 H 176.405 -1.10233 3.25121 0
M  V30 1703 N 178.85 -1.27639 -0.924453 0
M  V30 1704 C 179.8 -1.07295 -2.01176 0
M  V30 1705 C 180.784 5.77352e-05 -1.609 0
M  V30 1706 O 181.976 -0.218855 -1.75642 0
M  V30 1707 C 179.105 -0.725592 -3.35544 0
M  V30 1708 C 178.191 -1.83691 -3.82254 0
M  V30 1709 N 178.582 -3.07697 -4.01443 0
M  V30 1710 C 176.88 -1.72433 -4.11319 0
M  V30 1711 C 177.581 -3.80037 -4.40394 0
M  V30 1712 N 176.557 -3.0782 -4.48049 0
M  V30 1713 H 180.359 -2.01399 -2.14046 0
M  V30 1714 H 177.873 -1.18401 -1.11153 0
M  V30 1715 H 179.87 -0.560959 -4.13109 0
M  V30 1716 H 178.53 0.207782 -3.24034 0
M  V30 1717 H 179.541 -3.43424 -3.8766 0
M  V30 1718 H 176.218 -0.862005 -4.08504 0
M  V30 1719 H 177.608 -4.86632 -4.63291 0
M  V30 1720 N 180.328 1.1314 -1.09713 0
M  V30 1721 C 181.261 2.17735 -0.683137 0
M  V30 1722 C 182.239 1.59582 0.311841 0
M  V30 1723 O 183.423 1.87298 0.212514 0
M  V30 1724 C 180.55 3.38699 -0.00684324 0
M  V30 1725 C 179.596 4.1546 -0.964102 0
M  V30 1726 S 180.429 4.74733 -2.47767 0
M  V30 1727 C 181.585 5.9904 -1.81387 0
M  V30 1728 H 181.818 2.52515 -1.56918 0
M  V30 1729 H 179.351 1.24484 -0.913404 0
M  V30 1730 H 181.309 4.08765 0.377044 0
M  V30 1731 H 179.97 3.02214 0.85589 0
M  V30 1732 H 179.163 5.02093 -0.43803 0
M  V30 1733 H 178.765 3.51066 -1.28953 0
M  V30 1734 H 181.057 6.67846 -1.13967 0
M  V30 1735 H 182 6.56261 -2.65947 0
M  V30 1736 H 182.408 5.4976 -1.28155 0
M  V30 1737 N 181.806 0.884767 1.30421 0
M  V30 1738 C 182.769 0.356277 2.26414 0
M  V30 1739 C 183.769 -0.501124 1.52792 0
M  V30 1740 O 184.959 -0.30831 1.7145 0
M  V30 1741 C 182.091 -0.492316 3.37326 0
M  V30 1742 H 183.284 1.20389 2.74675 0
M  V30 1743 H 180.837 0.661607 1.41607 0
M  V30 1744 H 181.572 -1.36052 2.94381 0
M  V30 1745 H 181.357 0.121832 3.91911 0
M  V30 1746 H 182.847 -0.853871 4.08777 0
M  V30 1747 N 183.284 -1.43765 0.645699 0
M  V30 1748 C 184.194 -2.34544 -0.0512957 0
M  V30 1749 C 185.21 -1.53455 -0.82022 0
M  V30 1750 O 186.386 -1.86133 -0.769176 0
M  V30 1751 C 183.451 -3.31636 -1.01087 0
M  V30 1752 C 182.512 -4.2863 -0.239712 0
M  V30 1753 C 181.745 -5.21084 -1.15358 0
M  V30 1754 O 181.968 -5.1779 -2.39269 0
M  V30 1755 O 180.902 -5.98593 -0.630038 0
M  V30 1756 H 184.728 -2.95624 0.695718 0
M  V30 1757 H 182.313 -1.43781 0.405882 0
M  V30 1758 H 184.195 -3.9136 -1.56254 0
M  V30 1759 H 182.87 -2.73069 -1.73824 0
M  V30 1760 H 181.777 -3.72408 0.355356 0
M  V30 1761 H 183.11 -4.90157 0.447936 0
M  V30 1762 N 184.763 -0.387143 -1.52771 0
M  V30 1763 C 185.695 0.484089 -2.2403 0
M  V30 1764 C 186.708 1.02849 -1.26198 0
M  V30 1765 O 187.897 0.931186 -1.52286 0
M  V30 1766 C 184.997 1.68337 -2.94136 0
M  V30 1767 C 184.17 1.26672 -4.18656 0
M  V30 1768 C 183.229 2.33045 -4.7178 0
M  V30 1769 O 182.255 1.94541 -5.34923 0
M  V30 1770 N 183.457 3.64929 -4.5145 0
M  V30 1771 H 186.222 -0.126404 -2.99433 0
M  V30 1772 H 183.783 -0.213392 -1.60488 0
M  V30 1773 H 185.775 2.39019 -3.26577 0
M  V30 1774 H 184.345 2.20025 -2.22053 0
M  V30 1775 H 183.565 0.388878 -3.92277 0
M  V30 1776 H 184.853 0.964964 -4.99566 0
M  V30 1777 H 184.251 3.98974 -4.01044 0
M  V30 1778 H 182.808 4.31651 -4.88386 0
M  V30 1779 N 186.241 1.57166 -0.116904 0
M  V30 1780 C 187.469 1.99473 0.549383 0
M  V30 1781 C 187.884 0.996541 1.60357 0
M  V30 1782 O 187.241 -0.0108731 1.82497 0
M  V30 1783 C 187.292 3.41788 1.17741 0
M  V30 1784 O 187.013 4.37788 0.165362 0
M  V30 1785 C 188.514 3.99216 1.92722 0
M  V30 1786 H 185.734 0.655009 0.145616 0
M  V30 1787 H 188.278 2.03494 -0.202625 0
M  V30 1788 H 186.433 3.38713 1.88021 0
M  V30 1789 H 186.847 5.20806 0.621403 0
M  V30 1790 H 188.321 5.00882 2.31995 0
M  V30 1791 H 188.798 3.3824 2.80161 0
M  V30 1792 H 189.404 4.0583 1.27209 0
M  V30 1793 N 187.719 -0.156864 1.56817 0
M  V30 1794 C 188.966 -0.871125 1.82805 0
M  V30 1795 C 189.294 -1.81611 0.696262 0
M  V30 1796 O 188.549 -1.93141 -0.315459 0
M  V30 1797 C 188.848 -1.68737 3.1506 0
M  V30 1798 C 188.514 -0.890045 4.42028 0
M  V30 1799 C 187.176 -0.670042 4.76512 0
M  V30 1800 C 189.528 -0.331769 5.20143 0
M  V30 1801 C 186.856 0.119104 5.86579 0
M  V30 1802 C 189.208 0.444365 6.31037 0
M  V30 1803 C 187.872 0.675035 6.64078 0
M  V30 1804 H 187.142 -0.318767 0.668931 0
M  V30 1805 H 189.789 -0.135274 1.91022 0
M  V30 1806 H 188.094 -2.49304 3.0225 0
M  V30 1807 H 189.791 -2.24331 3.3238 0
M  V30 1808 H 186.381 -1.07157 4.14988 0
M  V30 1809 H 190.565 -0.489043 4.93885 0
M  V30 1810 H 185.821 0.307417 6.10627 0
M  V30 1811 H 189.995 0.884139 6.90765 0
M  V30 1812 H 187.622 1.28839 7.49203 0
M  V30 1813 N 189.197 -1.51736 -0.425897 0
M  V30 1814 C 190.107 -1.76738 -1.54275 0
M  V30 1815 C 191.123 -0.65211 -1.61318 0
M  V30 1816 O 192.299 -0.935654 -1.78346 0
M  V30 1817 C 189.364 -1.89755 -2.90162 0
M  V30 1818 C 188.425 -3.13633 -2.93143 0
M  V30 1819 C 187.658 -3.2602 -4.22548 0
M  V30 1820 O 187.881 -2.44067 -5.15546 0
M  V30 1821 O 186.815 -4.19071 -4.32046 0
M  V30 1822 H 190.641 -2.71502 -1.36089 0
M  V30 1823 H 188.226 -1.36376 -0.610069 0
M  V30 1824 H 190.108 -2.00236 -3.70788 0
M  V30 1825 H 188.783 -0.981785 -3.08452 0
M  V30 1826 H 187.69 -3.08622 -2.11431 0
M  V30 1827 H 189.023 -4.04936 -2.798 0
M  V30 1828 N 190.675 0.682077 -1.42076 0
M  V30 1829 C 191.607 1.80755 -1.40926 0
M  V30 1830 C 192.62 1.59833 -0.309398 0
M  V30 1831 O 193.809 1.69087 -0.572014 0
M  V30 1832 C 190.909 3.17744 -1.17865 0
M  V30 1833 C 190.082 3.65578 -2.40149 0
M  V30 1834 C 189.141 4.81277 -2.12742 0
M  V30 1835 O 188.167 4.92197 -2.85887 0
M  V30 1836 N 189.369 5.69474 -1.12602 0
M  V30 1837 H 192.134 1.82229 -2.37935 0
M  V30 1838 H 189.695 0.864903 -1.36861 0
M  V30 1839 H 191.687 3.9279 -0.9746 0
M  V30 1840 H 190.257 3.11214 -0.294068 0
M  V30 1841 H 189.477 2.81291 -2.76169 0
M  V30 1842 H 190.765 3.94278 -3.21593 0
M  V30 1843 H 190.163 5.63297 -0.520899 0
M  V30 1844 H 188.72 6.44363 -0.981842 0
M  V30 1845 N 192.153 1.28127 0.917671 0
M  V30 1846 C 193.116 1.11744 2.00115 0
M  V30 1847 C 194.116 0.0583052 1.60694 0
M  V30 1848 O 195.306 0.303755 1.71531 0
M  V30 1849 C 192.438 0.704862 3.33533 0
M  V30 1850 H 193.631 2.07966 2.16079 0
M  V30 1851 H 191.184 1.11058 1.09981 0
M  V30 1852 H 191.919 -0.258299 3.2327 0
M  V30 1853 H 191.704 1.4699 3.63505 0
M  V30 1854 H 193.194 0.612768 4.1308 0
M  V30 1855 N 193.631 -1.12557 1.10312 0
M  V30 1856 C 194.88 -1.83395 0.839588 0
M  V30 1857 C 195.193 -1.84939 -0.636929 0
M  V30 1858 O 196.399 -2.51761 -1.01631 0
M  V30 1859 C 194.855 -3.29303 1.45215 0
M  V30 1860 C 194.463 -3.36122 2.96186 0
M  V30 1861 C 196.207 -4.05121 1.26796 0
M  V30 1862 C 194.114 -4.76357 3.50483 0
M  V30 1863 H 193.044 -0.687133 0.310425 0
M  V30 1864 H 195.695 -1.26746 1.32694 0
M  V30 1865 H 194.077 -3.85812 0.892469 0
M  V30 1866 H 195.251 -2.89559 3.58458 0
M  V30 1867 H 193.566 -2.73776 3.13745 0
M  V30 1868 H 196.163 -5.08668 1.64806 0
M  V30 1869 H 196.506 -4.15773 0.209409 0
M  V30 1870 H 197.039 -3.54967 1.79563 0
M  V30 1871 H 193.778 -4.70899 4.55998 0
M  V30 1872 H 193.298 -5.23377 2.92978 0
M  V30 1873 H 194.977 -5.45294 3.48228 0
M  V30 1874 N 195.109 -0.891671 -1.2995 0
M  V30 1875 C 196.041 -0.320695 -2.26945 0
M  V30 1876 C 197.054 0.528497 -1.53983 0
M  V30 1877 O 198.243 0.346959 -1.75096 0
M  V30 1878 C 195.343 0.562066 -3.34207 0
M  V30 1879 C 194.516 -0.259576 -4.36629 0
M  V30 1880 C 193.575 0.554739 -5.23268 0
M  V30 1881 O 192.601 -0.0249311 -5.69195 0
M  V30 1882 N 193.803 1.8625 -5.4981 0
M  V30 1883 H 196.568 -1.15432 -2.76578 0
M  V30 1884 H 194.129 -0.755336 -1.432 0
M  V30 1885 H 196.121 1.11304 -3.89093 0
M  V30 1886 H 194.691 1.29637 -2.84452 0
M  V30 1887 H 193.911 -0.991986 -3.81514 0
M  V30 1888 H 195.199 -0.822564 -5.02107 0
M  V30 1889 H 194.597 2.35628 -5.14292 0
M  V30 1890 H 193.154 2.36078 -6.07545 0
M  V30 1891 N 196.587 1.43421 -0.653314 0
M  V30 1892 C 197.55 2.29182 0.0287951 0
M  V30 1893 C 198.55 1.42213 0.750465 0
M  V30 1894 O 199.74 1.63843 0.591701 0
M  V30 1895 C 196.872 3.24278 1.05151 0
M  V30 1896 H 198.065 2.90985 -0.725786 0
M  V30 1897 H 195.618 1.50702 -0.414545 0
M  V30 1898 H 196.353 2.6737 1.83532 0
M  V30 1899 H 196.138 3.88396 0.537687 0
M  V30 1900 H 197.628 3.88647 1.52786 0
M  V30 1901 N 198.065 0.39524 1.52563 0
M  V30 1902 C 199.028 -0.425001 2.25225 0
M  V30 1903 C 200.028 -0.985266 1.27079 0
M  V30 1904 O 201.218 -0.866332 1.5113 0
M  V30 1905 C 198.35 -1.59686 3.01186 0
M  V30 1906 H 199.543 0.211233 2.99155 0
M  V30 1907 H 197.096 0.147472 1.55603 0
M  V30 1908 H 197.831 -2.27035 2.31572 0
M  V30 1909 H 197.616 -1.20176 3.73229 0
M  V30 1910 H 199.106 -2.17743 3.5634 0
M  V30 1911 N 199.544 -1.57102 0.125237 0
M  V30 1912 C 200.769 -2.0019 -0.542101 0
M  V30 1913 C 201.194 -1.00449 -1.59034 0
M  V30 1914 O 200.552 0.0229423 -1.81285 0
M  V30 1915 C 200.6 -3.42129 -1.13929 0
M  V30 1916 O 199.704 -3.45307 -2.2547 0
M  V30 1917 H 199.045 -0.650171 -0.134812 0
M  V30 1918 H 201.575 -2.03461 0.215553 0
M  V30 1919 H 201.585 -3.80471 -1.4733 0
M  V30 1920 H 200.26 -4.14237 -0.371531 0
M  V30 1921 H 198.837 -3.1879 -1.93462 0
M  V30 1922 N 201.022 0.148545 -1.56898 0
M  V30 1923 C 202.438 0.501131 -1.51528 0
M  V30 1924 C 202.638 1.83458 -0.833399 0
M  V30 1925 O 201.694 2.49259 -0.40328 0
M  V30 1926 C 203.007 0.512864 -2.96294 0
M  V30 1927 C 204.555 0.598487 -3.07225 0
M  V30 1928 C 205.03 0.640897 -4.53494 0
M  V30 1929 N 206.521 0.703163 -4.57832 0
M  V30 1930 C 207.256 0.756935 -5.68382 0
M  V30 1931 N 206.752 0.770147 -6.88506 0
M  V30 1932 N 208.545 0.797698 -5.56411 0
M  V30 1933 H 200.696 -0.725532 -1.99624 0
M  V30 1934 H 202.959 -0.264358 -0.910395 0
M  V30 1935 H 202.665 -0.398691 -3.49433 0
M  V30 1936 H 202.539 1.35133 -3.52163 0
M  V30 1937 H 204.926 1.50046 -2.54106 0
M  V30 1938 H 205.007 -0.267093 -2.54402 0
M  V30 1939 H 204.651 -0.256915 -5.0725 0
M  V30 1940 H 204.581 1.52295 -5.04097 0
M  V30 1941 H 207.072 0.700314 -3.71354 0
M  V30 1942 H 207.385 0.812983 -7.68512 0
M  V30 1943 H 205.73 0.738049 -6.9107 0
M  V30 1944 H 208.921 0.784535 -4.61479 0
M  V30 1945 H 209.094 0.83614 -6.42583 0
M  V30 1946 N 202.5 1.5196 0.417844 0
M  V30 1947 C 203.749 1.6482 1.16264 0
M  V30 1948 C 204.062 0.379886 1.91876 0
M  V30 1949 O 205.268 0.388154 2.68711 0
M  V30 1950 C 203.724 2.91161 2.1155 0
M  V30 1951 C 203.332 4.25068 1.41495 0
M  V30 1952 C 205.076 3.13383 2.86341 0
M  V30 1953 C 202.983 5.42541 2.35379 0
M  V30 1954 H 201.913 0.613954 0.437694 0
M  V30 1955 H 204.564 1.78442 0.427871 0
M  V30 1956 H 202.946 2.71218 2.88543 0
M  V30 1957 H 204.12 4.55463 0.699263 0
M  V30 1958 H 202.435 4.0888 0.787792 0
M  V30 1959 H 205.032 3.98324 3.5671 0
M  V30 1960 H 205.375 2.27256 3.48798 0
M  V30 1961 H 205.908 3.33757 2.1645 0
M  V30 1962 H 202.647 6.30987 1.77582 0
M  V30 1963 H 202.167 5.16497 3.04945 0
M  V30 1964 H 203.846 5.75272 2.96093 0
M  V30 1965 N 203.978 -0.674533 1.42435 0
M  V30 1966 C 205.227 -1.43034 1.42212 0
M  V30 1967 C 205.54 -1.95555 0.0420788 0
M  V30 1968 O 206.746 -2.71374 -0.0827558 0
M  V30 1969 C 205.202 -2.58748 2.50155 0
M  V30 1970 C 204.81 -2.12925 3.94166 0
M  V30 1971 C 206.554 -3.36257 2.59098 0
M  V30 1972 C 204.461 -3.25723 4.93618 0
M  V30 1973 H 203.391 -0.537345 0.528939 0
M  V30 1974 H 206.042 -0.73024 1.68344 0
M  V30 1975 H 204.424 -3.31128 2.17188 0
M  V30 1976 H 205.598 -1.47697 4.36488 0
M  V30 1977 H 203.913 -1.48354 3.89076 0
M  V30 1978 H 206.51 -4.20264 3.30578 0
M  V30 1979 H 206.853 -3.82866 1.63461 0
M  V30 1980 H 207.386 -2.70947 2.9126 0
M  V30 1981 H 204.125 -2.84105 5.90732 0
M  V30 1982 H 203.645 -3.89732 4.55926 0
M  V30 1983 H 205.324 -3.91186 5.15347 0
M  V30 1984 N 205.456 -1.28612 -0.910864 0
M  V30 1985 C 206.872 -1.06381 -1.18976 0
M  V30 1986 C 207.072 0.191998 -2.00583 0
M  V30 1987 O 206.128 0.892869 -2.36187 0
M  V30 1988 C 207.441 -2.31295 -1.92154 0
M  V30 1989 C 208.989 -2.36503 -2.05025 0
M  V30 1990 C 209.464 -3.61191 -2.81612 0
M  V30 1991 N 210.955 -3.61847 -2.89172 0
M  V30 1992 C 211.69 -4.55004 -3.4894 0
M  V30 1993 N 211.186 -5.58482 -4.09963 0
M  V30 1994 N 212.979 -4.42594 -3.46506 0
M  V30 1995 H 205.13 -2.09221 -0.366094 0
M  V30 1996 H 207.393 -0.921003 -0.224629 0
M  V30 1997 H 207.099 -3.228 -1.39618 0
M  V30 1998 H 206.973 -2.37934 -2.9269 0
M  V30 1999 H 209.36 -1.45494 -2.5674 0
M  V30 2000 H 209.441 -2.33857 -1.03657 0
M  V30 2001 H 209.085 -4.52545 -2.30576 0
M  V30 2002 H 209.015 -3.61092 -3.83302 0
M  V30 2003 H 211.506 -2.87022 -2.45819 0
M  V30 2004 H 211.819 -6.25704 -4.53557 0
M  V30 2005 H 210.164 -5.62305 -4.08459 0
M  V30 2006 H 213.355 -3.60953 -2.98045 0
M  V30 2007 H 213.528 -5.15381 -3.92793 0
M  V30 2008 N 206.934 1.1197 -1.10907 0
M  V30 2009 C 207.882 2.19927 -0.757303 0
M  V30 2010 C 208.876 1.67564 0.248747 0
M  V30 2011 O 210.082 1.79672 0.108605 0
M  V30 2012 H 206.457 0.716925 -0.226987 0
M  V30 2013 H 208.428 2.46847 -1.67658 0
M  V30 2014 C 207.177 3.47061 -0.210671 0
M  V30 2015 H 206.5 3.87703 -0.976049 0
M  V30 2016 H 207.94 4.24 -0.0026584 0
M  V30 2017 C 206.399 3.19864 1.05777 0
M  V30 2018 O 206.929 3.40049 2.13845 0
M  V30 2019 N 205.135 2.73636 0.978349 0
M  V30 2020 H 204.682 2.5741 0.0988246 0
M  V30 2021 H 204.64 2.55815 1.82773 0
M  V30 2022 N 208.412 0.89855 1.29475 0
M  V30 2023 C 209.322 0.379974 2.31502 0
M  V30 2024 C 210.338 -0.524695 1.659 0
M  V30 2025 O 211.514 -0.414551 1.97087 0
M  V30 2026 C 208.579 -0.385138 3.44554 0
M  V30 2027 C 207.64 0.550914 4.2575 0
M  V30 2028 C 206.873 -0.177778 5.33404 0
M  V30 2029 O 207.096 -1.40189 5.52904 0
M  V30 2030 O 206.03 0.479106 5.9999 0
M  V30 2031 H 209.856 1.22639 2.77837 0
M  V30 2032 H 207.441 0.662834 1.33891 0
M  V30 2033 H 209.323 -0.817841 4.13388 0
M  V30 2034 H 207.998 -1.20763 3.0033 0
M  V30 2035 H 206.905 1.03271 3.59564 0
M  V30 2036 H 208.238 1.33979 4.73614 0
M  V30 2037 N 209.89 -1.43072 0.660911 0
M  V30 2038 C 210.822 -2.29108 -0.0647641 0
M  V30 2039 C 211.835 -1.42928 -0.779448 0
M  V30 2040 O 213.024 -1.66788 -0.635921 0
M  V30 2041 C 210.124 -3.20032 -1.11503 0
M  V30 2042 C 209.297 -4.34792 -0.476955 0
M  V30 2043 C 208.356 -5.06534 -1.42513 0
M  V30 2044 O 207.382 -5.61538 -0.930771 0
M  V30 2045 N 208.584 -5.1075 -2.75889 0
M  V30 2046 H 211.349 -2.92029 0.673731 0
M  V30 2047 H 208.91 -1.53846 0.50427 0
M  V30 2048 H 210.902 -3.64892 -1.75032 0
M  V30 2049 H 209.472 -2.58658 -1.75541 0
M  V30 2050 H 208.692 -3.92752 0.337572 0
M  V30 2051 H 209.98 -5.0879 -0.0318525 0
M  V30 2052 H 209.378 -4.67447 -3.18606 0
M  V30 2053 H 207.935 -5.59302 -3.347 0
M  V30 2054 N 211.368 -0.403325 -1.52352 0
M  V30 2055 C 212.615 0.174347 -2.01748 0
M  V30 2056 C 212.943 1.45636 -1.2892 0
M  V30 2057 O 212.198 1.9193 -0.382258 0
M  V30 2058 C 212.497 0.474665 -3.54234 0
M  V30 2059 C 212.163 -0.717458 -4.45155 0
M  V30 2060 C 210.825 -1.04447 -4.69728 0
M  V30 2061 C 213.177 -1.51432 -4.98716 0
M  V30 2062 C 210.505 -2.16963 -5.45109 0
M  V30 2063 C 212.857 -2.6302 -5.75329 0
M  V30 2064 C 211.521 -2.96213 -5.98175 0
M  V30 2065 H 210.791 0.0637981 -0.738248 0
M  V30 2066 H 213.438 -0.543553 -1.83624 0
M  V30 2067 H 211.743 1.27406 -3.70506 0
M  V30 2068 H 213.44 0.934496 -3.89959 0
M  V30 2069 H 210.03 -0.452596 -4.26204 0
M  V30 2070 H 214.214 -1.27491 -4.79645 0
M  V30 2071 H 209.47 -2.43034 -5.61021 0
M  V30 2072 H 213.644 -3.25158 -6.15829 0
M  V30 2073 H 211.271 -3.83516 -6.56368 0
M  V30 2074 N 212.846 1.57033 -0.133567 0
M  V30 2075 C 213.809 2.14897 0.796995 0
M  V30 2076 C 214.809 1.0874 1.18458 0
M  V30 2077 O 215.999 1.34446 1.1077 0
M  V30 2078 C 213.131 2.70112 2.07973 0
M  V30 2079 H 214.324 2.98457 0.293873 0
M  V30 2080 H 211.877 1.55871 0.115787 0
M  V30 2081 H 212.612 1.9018 2.62682 0
M  V30 2082 H 212.397 3.47764 1.81115 0
M  V30 2083 H 213.887 3.14738 2.74462 0
M  V30 2084 N 214.325 -0.140222 1.56975 0
M  V30 2085 C 215.574 -0.850152 1.82908 0
M  V30 2086 C 215.887 -1.82028 0.715892 0
M  V30 2087 O 217.093 -2.57485 0.861016 0
M  V30 2088 C 215.549 -1.5625 3.24213 0
M  V30 2089 C 215.157 -0.63443 4.43485 0
M  V30 2090 C 216.901 -2.25881 3.59413 0
M  V30 2091 C 214.808 -1.34879 5.75814 0
M  V30 2092 H 213.738 -0.321221 0.682153 0
M  V30 2093 H 216.389 -0.102874 1.83211 0
M  V30 2094 H 214.771 -2.35565 3.18316 0
M  V30 2095 H 215.945 0.12398 4.60633 0
M  V30 2096 H 214.26 -0.0461836 4.16374 0
M  V30 2097 H 216.857 -2.79978 4.5554 0
M  V30 2098 H 217.2 -3.02693 2.85802 0
M  V30 2099 H 217.733 -1.53477 3.67001 0
M  V30 2100 H 214.472 -0.622385 6.52539 0
M  V30 2101 H 213.992 -2.07974 5.6259 0
M  V30 2102 H 215.671 -1.88784 6.18845 0
M  V30 2103 N 215.803 -1.52179 -0.40978 0
M  V30 2104 C 217.219 -1.40968 -0.74835 0
M  V30 2105 C 217.419 -0.513657 -1.94843 0
M  V30 2106 O 216.475 0.0208026 -2.52491 0
M  V30 2107 C 217.788 -2.83483 -1.0029 0
M  V30 2108 C 219.336 -2.92821 -1.10565 0
M  V30 2109 C 219.811 -4.36303 -1.39296 0
M  V30 2110 N 221.302 -4.39535 -1.46162 0
M  V30 2111 C 222.037 -5.47614 -1.70018 0
M  V30 2112 N 221.533 -6.65812 -1.91483 0
M  V30 2113 N 223.326 -5.35129 -1.72027 0
M  V30 2114 H 215.477 -2.0897 0.380186 0
M  V30 2115 H 217.74 -0.94185 0.107805 0
M  V30 2116 H 217.446 -3.51168 -0.193461 0
M  V30 2117 H 217.32 -3.24487 -1.92323 0
M  V30 2118 H 219.707 -2.25318 -1.90568 0
M  V30 2119 H 219.788 -2.55276 -0.16369 0
M  V30 2120 H 219.432 -5.04366 -0.598109 0
M  V30 2121 H 219.362 -4.71385 -2.34743 0
M  V30 2122 H 221.853 -3.54332 -1.31367 0
M  V30 2123 H 222.166 -7.43964 -2.09134 0
M  V30 2124 H 220.511 -6.68879 -1.88749 0
M  V30 2125 H 223.702 -4.41764 -1.54796 0
M  V30 2126 H 223.875 -6.19433 -1.9028 0
M  V30 2127 N 217.281 0.66697 -1.42791 0
M  V30 2128 C 218.697 0.981027 -1.25889 0
M  V30 2129 C 218.897 2.00793 -0.168695 0
M  V30 2130 O 217.953 2.48321 0.45747 0
M  V30 2131 C 219.266 1.47838 -2.61848 0
M  V30 2132 C 220.814 1.59575 -2.69267 0
M  V30 2133 C 221.289 2.12704 -4.05612 0
M  V30 2134 N 222.78 2.20026 -4.07606 0
M  V30 2135 C 223.515 2.62227 -5.09926 0
M  V30 2136 N 223.011 3.03824 -6.22626 0
M  V30 2137 N 224.804 2.62045 -4.97281 0
M  V30 2138 H 216.955 -0.0127891 -2.12396 0
M  V30 2139 H 219.218 0.0568258 -0.946295 0
M  V30 2140 H 218.924 0.798299 -3.4252 0
M  V30 2141 H 218.798 2.45579 -2.86305 0
M  V30 2142 H 221.185 2.26687 -1.88936 0
M  V30 2143 H 221.266 0.60302 -2.48591 0
M  V30 2144 H 220.91 1.46198 -4.86404 0
M  V30 2145 H 220.84 3.12782 -4.23645 0
M  V30 2146 H 223.331 1.90708 -3.2625 0
M  V30 2147 H 223.644 3.34734 -6.96544 0
M  V30 2148 H 221.989 3.01662 -6.26119 0
M  V30 2149 H 225.18 2.28916 -4.08308 0
M  V30 2150 H 225.353 2.94613 -5.77154 0
M  V30 2151 N 218.759 1.29093 0.90403 0
M  V30 2152 C 220.006 1.16813 1.65411 0
M  V30 2153 C 220.334 -0.28128 1.92455 0
M  V30 2154 O 219.589 -1.22006 1.53013 0
M  V30 2155 C 219.888 1.92224 3.01305 0
M  V30 2156 C 219.554 3.41968 2.93885 0
M  V30 2157 C 218.216 3.82807 2.91569 0
M  V30 2158 C 220.568 4.37409 2.83413 0
M  V30 2159 C 217.896 5.1741 2.76594 0
M  V30 2160 C 220.248 5.72097 2.69977 0
M  V30 2161 C 218.912 6.12199 2.66024 0
M  V30 2162 H 218.182 0.42745 0.605283 0
M  V30 2163 H 220.829 1.59981 1.05254 0
M  V30 2164 H 219.134 1.41635 3.65304 0
M  V30 2165 H 220.831 1.80131 3.58265 0
M  V30 2166 H 217.421 3.09504 2.96488 0
M  V30 2167 H 221.605 4.06813 2.84283 0
M  V30 2168 H 216.861 5.47596 2.71935 0
M  V30 2169 H 221.035 6.45704 2.60844 0
M  V30 2170 H 218.662 7.16448 2.54178 0
M  V30 2171 N 220.237 -1.11381 1.11499 0
M  V30 2172 C 221.169 -2.17207 0.731704 0
M  V30 2173 C 222.182 -1.61066 -0.236957 0
M  V30 2174 O 223.371 -1.78489 -0.0197591 0
M  V30 2175 C 220.471 -3.38846 0.0607624 0
M  V30 2176 C 219.644 -4.24451 1.0564 0
M  V30 2177 C 218.703 -5.24562 0.4149 0
M  V30 2178 O 217.729 -5.59071 1.069 0
M  V30 2179 N 218.931 -5.74651 -0.821943 0
M  V30 2180 H 221.696 -2.50699 1.64225 0
M  V30 2181 H 219.257 -1.26908 1.00529 0
M  V30 2182 H 221.249 -4.02911 -0.380139 0
M  V30 2183 H 219.819 -3.03411 -0.752376 0
M  V30 2184 H 219.039 -3.56833 1.67524 0
M  V30 2185 H 220.327 -4.78486 1.72998 0
M  V30 2186 H 219.725 -5.48797 -1.37252 0
M  V30 2187 H 218.282 -6.40549 -1.20582 0
M  V30 2188 N 221.715 -0.905404 -1.28997 0
M  V30 2189 C 222.94 -0.549175 -1.99997 0
M  V30 2190 C 223.365 0.860276 -1.67275 0
M  V30 2191 O 222.723 1.57355 -0.900502 0
M  V30 2192 C 222.771 -0.755185 -3.52604 0
M  V30 2193 O 221.875 0.189692 -4.11964 0
M  V30 2194 H 221.216 -0.213899 -0.628604 0
M  V30 2195 H 223.746 -1.21856 -1.64354 0
M  V30 2196 H 223.756 -0.662045 -4.02593 0
M  V30 2197 H 222.431 -1.78271 -3.75755 0
M  V30 2198 H 221.008 0.0485257 -3.72868 0
M  V30 2199 N 223.193 1.4272 -0.668489 0
M  V30 2200 C 224.126 2.28111 0.0637898 0
M  V30 2201 C 225.104 1.40705 0.814912 0
M  V30 2202 O 226.288 1.70146 0.81134 0
M  V30 2203 C 223.415 3.20429 1.0974 0
M  V30 2204 C 222.461 4.24197 0.442579 0
M  V30 2205 S 223.294 5.29563 -0.795173 0
M  V30 2206 C 224.45 6.25449 0.237516 0
M  V30 2207 H 224.683 2.8987 -0.660521 0
M  V30 2208 H 222.216 1.47456 -0.457821 0
M  V30 2209 H 224.174 3.74158 1.68868 0
M  V30 2210 H 222.835 2.57818 1.79411 0
M  V30 2211 H 222.028 4.88954 1.22227 0
M  V30 2212 H 221.63 3.73925 -0.0749554 0
M  V30 2213 H 223.922 6.68524 1.09915 0
M  V30 2214 H 224.865 7.07104 -0.375421 0
M  V30 2215 H 225.273 5.61511 0.580167 0
M  V30 2216 N 224.671 0.411399 1.52136 0
M  V30 2217 C 226.082 -0.0576826 1.86611 0
M  V30 2218 C 226.433 -1.44238 1.33003 0
M  V30 2219 O 225.558 -2.05759 0.670228 0
M  V30 2220 C 226.153 -0.111448 3.38617 0
M  V30 2221 C 224.712 -0.52487 3.72723 0
M  V30 2222 C 223.859 0.299176 2.75681 0
M  V30 2223 H 226.81 0.628368 1.4573 0
M  V30 2224 H 226.831 -0.926252 3.69054 0
M  V30 2225 H 226.343 0.896488 3.77604 0
M  V30 2226 H 224.444 -1.53936 3.39315 0
M  V30 2227 H 224.557 -0.267681 4.78352 0
M  V30 2228 H 222.921 -0.238814 2.53578 0
M  V30 2229 H 223.704 1.3055 3.17508 0
M  V30 2230 N 226.149 -1.5696 0.141893 0
M  V30 2231 C 227.395 -1.9625 -0.511248 0
M  V30 2232 C 227.728 -1.02654 -1.64851 0
M  V30 2233 O 227.003 -0.0679676 -1.94381 0
M  V30 2234 C 227.286 -3.45285 -1.02227 0
M  V30 2235 C 227.139 -4.49658 0.113138 0
M  V30 2236 C 228.458 -3.96698 -1.90574 0
M  V30 2237 H 225.577 -0.713567 -0.184367 0
M  V30 2238 H 228.219 -1.88698 0.222087 0
M  V30 2239 H 226.369 -3.51852 -1.64719 0
M  V30 2240 H 228.041 -4.55174 0.749302 0
M  V30 2241 H 226.284 -4.26857 0.773026 0
M  V30 2242 H 226.955 -5.51258 -0.286053 0
M  V30 2243 H 229.431 -3.92578 -1.37918 0
M  V30 2244 H 228.307 -5.01453 -2.2324 0
M  V30 2245 H 228.568 -3.3875 -2.84079 0
M  V30 2246 N 227.627 0.131896 -1.57047 0
M  V30 2247 C 229.043 0.485031 -1.52051 0
M  V30 2248 C 229.243 1.82563 -0.85281 0
M  V30 2249 O 228.299 2.48817 -0.429694 0
M  V30 2250 C 229.612 0.481409 -2.96821 0
M  V30 2251 C 231.16 0.565868 -3.07842 0
M  V30 2252 C 231.635 0.592762 -4.54148 0
M  V30 2253 N 233.126 0.654564 -4.58552 0
M  V30 2254 C 233.861 0.696608 -5.69153 0
M  V30 2255 N 233.357 0.697078 -6.89284 0
M  V30 2256 N 235.15 0.738639 -5.57226 0
M  V30 2257 H 227.301 -0.746664 -1.98843 0
M  V30 2258 H 229.564 -0.273999 -0.90754 0
M  V30 2259 H 229.27 -0.435731 -3.4899 0
M  V30 2260 H 229.144 1.3139 -3.53577 0
M  V30 2261 H 231.531 1.47343 -2.55684 0
M  V30 2262 H 231.612 -0.29406 -2.54104 0
M  V30 2263 H 231.256 -0.310701 -5.06949 0
M  V30 2264 H 231.186 1.46939 -5.05684 0
M  V30 2265 H 233.677 0.660887 -3.72076 0
M  V30 2266 H 233.99 0.731426 -7.69331 0
M  V30 2267 H 232.335 0.66471 -6.91814 0
M  V30 2268 H 235.526 0.735545 -4.62285 0
M  V30 2269 H 235.699 0.767938 -6.43434 0
M  V30 2270 N 229.106 1.52395 0.401703 0
M  V30 2271 C 230.036 1.79231 1.49661 0
M  V30 2272 C 231.017 0.643654 1.57452 0
M  V30 2273 O 232.202 0.889989 1.72606 0
M  V30 2274 C 229.332 1.94971 2.87409 0
M  V30 2275 C 228.286 3.10604 2.94465 0
M  V30 2276 C 227.612 3.11577 4.34538 0
M  V30 2277 C 228.912 4.49921 2.6527 0
M  V30 2278 H 230.606 2.70917 1.27454 0
M  V30 2279 H 228.152 1.30362 0.6117 0
M  V30 2280 H 230.105 2.12328 3.63999 0
M  V30 2281 H 228.829 0.999632 3.10926 0
M  V30 2282 H 227.488 2.93009 2.20321 0
M  V30 2283 H 227.136 2.14277 4.55076 0
M  V30 2284 H 226.836 3.89247 4.40183 0
M  V30 2285 H 228.36 3.31073 5.13053 0
M  V30 2286 H 229.774 4.67683 3.31581 0
M  V30 2287 H 228.171 5.29564 2.82281 0
M  V30 2288 H 229.241 4.57507 1.60671 0
M  V30 2289 N 230.584 -0.659388 1.43143 0
M  V30 2290 C 231.514 -1.78422 1.50625 0
M  V30 2291 C 232.495 -1.66216 0.361443 0
M  V30 2292 O 233.68 -1.85404 0.577834 0
M  V30 2293 C 230.81 -3.16815 1.42287 0
M  V30 2294 C 229.764 -3.43777 2.54954 0
M  V30 2295 C 229.09 -4.81905 2.31671 0
M  V30 2296 C 230.39 -3.39134 3.97222 0
M  V30 2297 H 232.084 -1.72417 2.44771 0
M  V30 2298 H 229.63 -0.828084 1.17808 0
M  V30 2299 H 231.583 -3.95253 1.46127 0
M  V30 2300 H 230.307 -3.23534 0.446435 0
M  V30 2301 H 228.966 -2.67707 2.50457 0
M  V30 2302 H 228.614 -4.85294 1.32284 0
M  V30 2303 H 228.314 -5.00906 3.07192 0
M  V30 2304 H 229.838 -5.62609 2.37284 0
M  V30 2305 H 231.252 -4.07518 4.03239 0
M  V30 2306 H 229.649 -3.69671 4.72719 0
M  V30 2307 H 230.719 -2.37426 4.22797 0
M  V30 2308 N 232.062 -1.29571 -0.897171 0
M  V30 2309 C 233.31 -1.17456 -1.64464 0
M  V30 2310 C 233.631 0.273698 -1.9307 0
M  V30 2311 O 232.901 1.18684 -1.55855 0
M  V30 2312 H 231.481 -0.431706 -0.609622 0
M  V30 2313 H 234.143 -1.62531 -1.07562 0
M  V30 2314 H 233.239 -1.72648 -2.59998 0
M  V30 2315 N 233.54 1.10788 -1.12088 0
M  V30 2316 C 234.49 2.15158 -0.754401 0
M  V30 2317 C 235.474 1.59026 0.244846 0
M  V30 2318 O 236.666 1.76927 0.0509097 0
M  V30 2319 C 233.795 3.42677 -0.206657 0
M  V30 2320 C 232.881 4.05751 -1.23398 0
M  V30 2321 N 233.272 4.43582 -2.43041 0
M  V30 2322 C 231.57 4.32764 -1.07848 0
M  V30 2323 C 232.271 4.93085 -3.08613 0
M  V30 2324 N 231.247 4.89664 -2.36072 0
M  V30 2325 H 235.049 2.42195 -1.6649 0
M  V30 2326 H 232.563 1.27872 -1.00112 0
M  V30 2327 H 234.56 4.16834 0.0740646 0
M  V30 2328 H 233.22 3.17101 0.698342 0
M  V30 2329 H 234.231 4.35395 -2.80449 0
M  V30 2330 H 230.908 4.16863 -0.230483 0
M  V30 2331 H 232.298 5.31933 -4.10483 0
M  V30 2332 N 235.018 0.912232 1.28515 0
M  V30 2333 C 236.243 0.559774 1.99703 0
M  V30 2334 C 236.668 -0.851393 1.67729 0
M  V30 2335 O 236.026 -1.56875 0.908834 0
M  V30 2336 C 236.074 0.773874 3.52198 0
M  V30 2337 O 235.178 -0.167842 4.12058 0
M  V30 2338 H 234.519 0.21723 0.627461 0
M  V30 2339 H 237.049 1.22725 1.63706 0
M  V30 2340 H 237.059 0.683386 4.02236 0
M  V30 2341 H 235.734 1.80261 3.74805 0
M  V30 2342 H 234.311 -0.0287509 3.72889 0
M  V30 2343 N 236.496 -1.42363 0.676048 0
M  V30 2344 C 237.907 -1.84649 0.275948 0
M  V30 2345 C 238.258 -1.56588 -1.18214 0
M  V30 2346 O 237.383 -1.02634 -1.90513 0
M  V30 2347 C 237.978 -3.35178 0.494053 0
M  V30 2348 C 236.537 -3.76109 0.148061 0
M  V30 2349 C 235.684 -2.65931 0.785891 0
M  V30 2350 H 238.635 -1.32192 0.878121 0
M  V30 2351 H 238.656 -3.79655 -0.25343 0
M  V30 2352 H 238.168 -3.55571 1.55535 0
M  V30 2353 H 236.269 -3.61323 -0.909742 0
M  V30 2354 H 236.382 -4.7546 0.589454 0
M  V30 2355 H 234.746 -2.53773 0.217113 0
M  V30 2356 H 235.529 -2.89146 1.85067 0
M  V30 2357 N 237.974 -0.419461 -1.51915 0
M  V30 2358 C 239.22 0.153166 -2.02221 0
M  V30 2359 C 239.553 1.43907 -1.30401 0
M  V30 2360 O 238.828 1.90055 -0.413438 0
M  V30 2361 C 239.111 0.390291 -3.57979 0
M  V30 2362 C 238.964 -0.913014 -4.40436 0
M  V30 2363 C 240.283 1.16794 -4.2432 0
M  V30 2364 H 237.402 0.0541924 -0.735005 0
M  V30 2365 H 240.044 -0.554955 -1.81715 0
M  V30 2366 H 238.194 0.993491 -3.75582 0
M  V30 2367 H 239.866 -1.54882 -4.34522 0
M  V30 2368 H 238.109 -1.52168 -4.06236 0
M  V30 2369 H 238.78 -0.701361 -5.47526 0
M  V30 2370 H 241.256 0.657161 -4.10878 0
M  V30 2371 H 240.132 1.3026 -5.3322 0
M  V30 2372 H 240.393 2.19132 -3.83971 0
M  V30 2373 N 239.452 1.56882 -0.150215 0
M  V30 2374 C 240.382 2.19935 0.784284 0
M  V30 2375 C 241.363 1.14854 1.25469 0
M  V30 2376 O 242.548 1.43209 1.31168 0
M  V30 2377 C 239.678 2.82349 2.02229 0
M  V30 2378 C 238.632 3.93285 1.68853 0
M  V30 2379 C 237.958 4.42649 2.99944 0
M  V30 2380 C 239.258 5.13904 0.932714 0
M  V30 2381 H 240.952 2.9828 0.258781 0
M  V30 2382 H 238.498 1.43473 0.123029 0
M  V30 2383 H 240.451 3.25126 2.68088 0
M  V30 2384 H 239.175 2.0134 2.57157 0
M  V30 2385 H 237.834 3.5113 1.05371 0
M  V30 2386 H 237.482 3.58458 3.52869 0
M  V30 2387 H 237.182 5.17476 2.78374 0
M  V30 2388 H 238.706 4.88099 3.66868 0
M  V30 2389 H 240.12 5.53506 1.49345 0
M  V30 2390 H 238.517 5.94515 0.81684 0
M  V30 2391 H 239.587 4.84842 -0.0749568 0
M  V30 2392 N 240.93 -0.123565 1.57115 0
M  V30 2393 C 242.346 -0.476961 1.52306 0
M  V30 2394 C 242.546 -1.82109 0.86248 0
M  V30 2395 O 241.602 -2.48586 0.442884 0
M  V30 2396 C 242.915 -0.465661 2.97073 0
M  V30 2397 C 244.463 -0.549534 3.08138 0
M  V30 2398 C 244.938 -0.568669 4.54456 0
M  V30 2399 N 246.429 -0.630237 4.58892 0
M  V30 2400 C 247.164 -0.666415 5.69514 0
M  V30 2401 N 246.66 -0.660514 6.89644 0
M  V30 2402 N 248.453 -0.709077 5.5761 0
M  V30 2403 H 240.604 0.757198 1.98445 0
M  V30 2404 H 242.867 0.278808 0.906074 0
M  V30 2405 H 242.573 0.454232 3.48754 0
M  V30 2406 H 242.447 -1.29513 3.54269 0
M  V30 2407 H 244.834 -1.45985 2.56461 0
M  V30 2408 H 244.915 0.307532 2.53945 0
M  V30 2409 H 244.559 0.337581 5.06777 0
M  V30 2410 H 244.489 -1.44256 5.06456 0
M  V30 2411 H 246.98 -0.641146 3.72421 0
M  V30 2412 H 247.293 -0.690616 7.69708 0
M  V30 2413 H 245.638 -0.628012 6.92157 0
M  V30 2414 H 248.829 -0.711019 4.62668 0
M  V30 2415 H 249.002 -0.733804 6.43832 0
M  V30 2416 N 242.408 -1.52605 -0.393616 0
M  V30 2417 C 243.356 -1.77688 -1.50099 0
M  V30 2418 C 244.35 -0.644615 -1.56656 0
M  V30 2419 O 245.556 -0.826997 -1.59877 0
M  V30 2420 H 241.931 -0.562159 -0.499481 0
M  V30 2421 H 243.902 -2.7043 -1.26135 0
M  V30 2422 C 242.651 -1.95858 -2.87289 0
M  V30 2423 H 241.974 -2.8241 -2.82992 0
M  V30 2424 H 243.414 -2.174 -3.64024 0
M  V30 2425 C 241.873 -0.729848 -3.28899 0
M  V30 2426 O 242.403 0.0949217 -4.01588 0
M  V30 2427 N 240.609 -0.561283 -2.85128 0
M  V30 2428 H 240.156 -1.23357 -2.26143 0
M  V30 2429 H 240.114 0.2595 -3.13327 0
M  V30 2430 N 243.887 0.651787 -1.4349 0
M  V30 2431 C 245.136 1.40754 -1.44469 0
M  V30 2432 C 245.449 1.95463 -0.0731845 0
M  V30 2433 O 246.655 2.71471 0.0395721 0
M  V30 2434 C 245.111 2.54735 -2.5424 0
M  V30 2435 C 244.719 2.06628 -3.97504 0
M  V30 2436 C 246.463 3.32092 -2.64414 0
M  V30 2437 C 244.37 3.17829 -4.98737 0
M  V30 2438 H 243.3 0.528862 -0.53742 0
M  V30 2439 H 245.951 0.703365 -1.69485 0
M  V30 2440 H 244.333 3.2763 -2.22428 0
M  V30 2441 H 245.507 1.40734 -4.38783 0
M  V30 2442 H 243.822 1.42146 -3.91387 0
M  V30 2443 H 246.419 4.14952 -3.37223 0
M  V30 2444 H 246.762 3.80217 -1.69532 0
M  V30 2445 H 247.295 2.66279 -2.95534 0
M  V30 2446 H 244.034 2.74671 -5.95177 0
M  V30 2447 H 243.554 3.82429 -4.62069 0
M  V30 2448 H 245.233 3.82937 -5.21505 0
M  V30 2449 N 245.365 1.30045 0.890287 0
M  V30 2450 C 246.593 1.21472 1.67487 0
M  V30 2451 C 247.008 -0.223241 1.87476 0
M  V30 2452 O 246.365 -1.14828 1.41847 0
M  V30 2453 C 246.416 1.93394 3.05419 0
M  V30 2454 O 246.137 3.31576 2.86337 0
M  V30 2455 C 247.638 1.91414 3.99844 0
M  V30 2456 H 244.858 0.420604 0.522813 0
M  V30 2457 H 247.402 1.7158 1.11268 0
M  V30 2458 H 245.557 1.47099 3.58386 0
M  V30 2459 H 245.971 3.67929 3.73802 0
M  V30 2460 H 247.445 2.46285 4.94012 0
M  V30 2461 H 247.922 0.891833 4.3005 0
M  V30 2462 H 248.528 2.37496 3.52811 0
M  V30 2463 N 246.843 -1.10192 1.12674 0
M  V30 2464 C 247.791 -2.18694 0.792196 0
M  V30 2465 C 248.785 -1.67938 -0.222058 0
M  V30 2466 O 249.991 -1.79822 -0.0800074 0
M  V30 2467 H 246.366 -0.713223 0.238364 0
M  V30 2468 H 248.337 -2.44149 1.71564 0
M  V30 2469 C 247.086 -3.46682 0.265859 0
M  V30 2470 H 246.409 -3.86101 1.03761 0
M  V30 2471 H 247.849 -4.23942 0.0701128 0
M  V30 2472 C 246.308 -3.21506 -1.00675 0
M  V30 2473 O 246.838 -3.43408 -2.08408 0
M  V30 2474 N 245.044 -2.75158 -0.934692 0
M  V30 2475 H 244.591 -2.57535 -0.0578604 0
M  V30 2476 H 244.549 -2.58691 -1.7868 0
M  V30 2477 N 248.321 -0.919034 -1.28029 0
M  V30 2478 C 249.546 -0.570357 -1.99403 0
M  V30 2479 C 249.971 0.842486 -1.68178 0
M  V30 2480 O 249.329 1.56391 -0.917141 0
M  V30 2481 C 249.377 -0.792541 -3.51783 0
M  V30 2482 O 248.481 0.145988 -4.12142 0
M  V30 2483 H 247.822 -0.220555 -0.6263 0
M  V30 2484 H 250.352 -1.23592 -1.63053 0
M  V30 2485 H 250.362 -0.704708 -4.01868 0
M  V30 2486 H 249.037 -1.82247 -3.73844 0
M  V30 2487 H 247.614 0.00897528 -3.72899 0
M  V30 2488 N 249.799 1.42003 -0.683588 0
M  V30 2489 C 250.731 2.29183 0.0283068 0
M  V30 2490 C 251.744 1.4415 0.756611 0
M  V30 2491 O 252.933 1.67779 0.609306 0
M  V30 2492 C 250.033 3.21765 1.06398 0
M  V30 2493 C 249.206 4.35496 0.407723 0
M  V30 2494 C 248.265 5.08737 1.34437 0
M  V30 2495 O 247.291 5.62948 0.841318 0
M  V30 2496 N 248.493 5.15075 2.67728 0
M  V30 2497 H 251.258 2.9092 -0.720105 0
M  V30 2498 H 248.819 1.53025 -0.528682 0
M  V30 2499 H 250.811 3.6763 1.69204 0
M  V30 2500 H 249.381 2.61418 1.71404 0
M  V30 2501 H 248.601 3.92165 -0.400012 0
M  V30 2502 H 249.889 5.08776 -0.0490956 0
M  V30 2503 H 249.287 4.72457 3.11129 0
M  V30 2504 H 247.844 5.64556 3.2576 0
M  V30 2505 N 251.277 0.427512 1.51691 0
M  V30 2506 C 252.24 -0.377132 2.26076 0
M  V30 2507 C 253.24 -0.958089 1.29141 0
M  V30 2508 O 254.43 -0.83408 1.52934 0
M  V30 2509 C 251.562 -1.53262 3.04506 0
M  V30 2510 H 252.755 0.27464 2.9864 0
M  V30 2511 H 250.308 0.180445 1.55255 0
M  V30 2512 H 251.043 -2.22072 2.36335 0
M  V30 2513 H 250.828 -1.12232 3.75694 0
M  V30 2514 H 252.318 -2.10135 3.60878 0
M  V30 2515 N 252.755 -1.56801 0.158532 0
M  V30 2516 C 254.166 -1.83189 -0.360366 0
M  V30 2517 C 254.517 -1.07778 -1.63946 0
M  V30 2518 O 253.642 -0.326718 -2.13919 0
M  V30 2519 C 254.237 -3.32297 -0.660595 0
M  V30 2520 C 252.796 -3.59227 -1.12398 0
M  V30 2521 C 251.943 -2.76877 -0.153097 0
M  V30 2522 H 254.894 -1.54008 0.383031 0
M  V30 2523 H 254.915 -3.4908 -1.51405 0
M  V30 2524 H 254.427 -3.87156 0.270527 0
M  V30 2525 H 252.528 -3.09766 -2.07064 0
M  V30 2526 H 252.641 -4.67632 -1.04197 0
M  V30 2527 H 251.005 -2.46319 -0.647983 0
M  V30 2528 H 251.788 -3.34511 0.77182 0
M  V30 2529 N 254.233 0.115231 -1.57178 0
M  V30 2530 C 255.51 0.852873 -1.76027 0
M  V30 2531 C 255.89 1.97892 -0.73498 0
M  V30 2532 O 255.238 2.27232 0.24036 0
M  V30 2533 C 255.448 1.36608 -3.21153 0
M  V30 2534 C 256.796 1.81692 -3.83762 0
M  V30 2535 O 257.82 1.46278 -3.24779 0
M  V30 2536 O 256.679 2.47104 -4.87444 0
M  V30 2537 H 253.773 0.405296 -0.720877 0
M  V30 2538 H 256.319 0.0986785 -1.69413 0
M  V30 2539 H 255.091 0.558357 -3.87296 0
M  V30 2540 H 254.714 2.18287 -3.3232 0
M  V30 2541 N 255.711 1.52812 0.385517 0
M  V30 2542 C 256.959 1.67694 1.12797 0
M  V30 2543 C 257.28 0.421115 1.90399 0
M  V30 2544 O 256.55 -0.564551 1.87589 0
M  V30 2545 H 255.13 0.618155 0.419396 0
M  V30 2546 H 257.792 1.89938 0.436972 0
M  V30 2547 H 256.888 2.52896 1.82894 0
M  V30 2548 N 257.189 -0.644168 1.43834 0
M  V30 2549 C 258.605 -0.960875 1.27434 0
M  V30 2550 C 258.805 -2.00499 0.200618 0
M  V30 2551 O 257.861 -2.49018 -0.417906 0
M  V30 2552 C 259.174 -1.43653 2.64167 0
M  V30 2553 C 260.722 -1.55271 2.71772 0
M  V30 2554 C 261.197 -2.06224 4.08944 0
M  V30 2555 N 262.688 -2.13513 4.11055 0
M  V30 2556 C 263.423 -2.54081 5.14033 0
M  V30 2557 N 262.919 -2.9388 6.27381 0
M  V30 2558 N 264.712 -2.54101 5.01387 0
M  V30 2559 H 256.863 0.0465779 2.12349 0
M  V30 2560 H 259.126 -0.0417638 0.94708 0
M  V30 2561 H 258.832 -0.743706 3.43747 0
M  V30 2562 H 258.706 -2.40993 2.90176 0
M  V30 2563 H 261.093 -2.23653 1.92519 0
M  V30 2564 H 261.174 -0.563395 2.49519 0
M  V30 2565 H 260.818 -1.38441 4.88668 0
M  V30 2566 H 260.748 -3.06003 4.28567 0
M  V30 2567 H 263.239 -1.85493 3.29242 0
M  V30 2568 H 263.552 -3.2361 7.01781 0
M  V30 2569 H 261.897 -2.91663 6.30839 0
M  V30 2570 H 265.088 -2.22391 4.11898 0
M  V30 2571 H 265.261 -2.85394 5.81768 0
M  V30 2572 N 258.668 -1.30515 -0.883378 0
M  V30 2573 C 260.084 -1.08881 -1.16692 0
M  V30 2574 C 260.284 0.149409 -2.00945 0
M  V30 2575 O 259.34 0.84257 -2.38027 0
M  V30 2576 C 260.653 -2.35319 -1.87204 0
M  V30 2577 C 262.201 -2.40799 -1.99962 0
M  V30 2578 C 262.676 -3.67083 -2.73887 0
M  V30 2579 N 264.167 -3.679 -2.81432 0
M  V30 2580 C 264.902 -4.62303 -3.3921 0
M  V30 2581 N 264.398 -5.67052 -3.98025 0
M  V30 2582 N 266.191 -4.49845 -3.3704 0
M  V30 2583 H 258.342 -2.09951 -0.321633 0
M  V30 2584 H 260.605 -0.92556 -0.205043 0
M  V30 2585 H 260.311 -3.25689 -1.3274 0
M  V30 2586 H 260.185 -2.44089 -2.87577 0
M  V30 2587 H 262.572 -1.50907 -2.53597 0
M  V30 2588 H 262.653 -2.36003 -0.98673 0
M  V30 2589 H 262.297 -4.57334 -2.20925 0
M  V30 2590 H 262.227 -3.69141 -3.75556 0
M  V30 2591 H 264.718 -2.92171 -2.39676 0
M  V30 2592 H 265.031 -6.35184 -4.40183 0
M  V30 2593 H 263.376 -5.70842 -3.96439 0
M  V30 2594 H 266.567 -3.67194 -2.90321 0
M  V30 2595 H 266.74 -5.23597 -3.81772 0
M  V30 2596 N 260.146 1.09593 -1.13257 0
M  V30 2597 C 261.093 2.1618 -0.808381 0
M  V30 2598 C 262.063 1.64517 0.228754 0
M  V30 2599 O 263.248 1.9053 0.101381 0
M  V30 2600 C 260.388 3.43973 -0.278675 0
M  V30 2601 C 259.501 4.09545 -1.37466 0
M  V30 2602 C 258.636 5.25088 -0.803479 0
M  V30 2603 C 257.675 5.82579 -1.87799 0
M  V30 2604 N 256.812 6.89486 -1.32488 0
M  V30 2605 H 261.652 2.43254 -1.72138 0
M  V30 2606 H 259.189 1.19392 -0.859294 0
M  V30 2607 H 261.147 4.17174 0.0465583 0
M  V30 2608 H 259.777 3.17223 0.597459 0
M  V30 2609 H 258.829 3.34226 -1.81652 0
M  V30 2610 H 260.141 4.48307 -2.18684 0
M  V30 2611 H 259.295 6.05178 -0.429427 0
M  V30 2612 H 258.034 4.87684 0.0397956 0
M  V30 2613 H 257.039 5.01152 -2.26113 0
M  V30 2614 H 258.264 6.22045 -2.72463 0
M  V30 2615 H 256.21 6.54064 -0.503575 0
M  V30 2616 H 256.127 7.27007 -2.07355 0
M  V30 2617 H 257.395 7.73336 -0.978336 0
M  V30 2618 N 261.624 0.925811 1.2754 0
M  V30 2619 C 262.849 0.580924 1.99098 0
M  V30 2620 C 263.274 -0.833555 1.68622 0
M  V30 2621 O 262.632 -1.55903 0.925422 0
M  V30 2622 C 262.68 0.811186 3.51358 0
M  V30 2623 O 261.784 -0.124129 4.12213 0
M  V30 2624 H 261.125 0.223873 0.625122 0
M  V30 2625 H 263.655 1.24455 1.62395 0
M  V30 2626 H 263.665 0.72601 4.01489 0
M  V30 2627 H 262.34 1.84227 3.72872 0
M  V30 2628 H 260.917 0.0108006 3.72898 0
M  V30 2629 N 263.102 -1.41638 0.69111 0
M  V30 2630 C 264.012 -2.34588 0.0233487 0
M  V30 2631 C 265.028 -1.55987 -0.770984 0
M  V30 2632 O 266.204 -1.88486 -0.709569 0
M  V30 2633 C 263.269 -3.34684 -0.904851 0
M  V30 2634 C 262.33 -4.29176 -0.103225 0
M  V30 2635 C 261.563 -5.2449 -0.987216 0
M  V30 2636 O 261.786 -5.2514 -2.22674 0
M  V30 2637 O 260.72 -6.00295 -0.439281 0
M  V30 2638 H 264.546 -2.93261 0.789416 0
M  V30 2639 H 262.131 -1.42417 0.45142 0
M  V30 2640 H 264.013 -3.96133 -1.43724 0
M  V30 2641 H 262.688 -2.78461 -1.65049 0
M  V30 2642 H 261.595 -3.71089 0.473655 0
M  V30 2643 H 262.928 -4.88484 0.60365 0
M  V30 2644 N 264.58 -0.43555 -1.51462 0
M  V30 2645 C 265.543 0.365137 -2.26273 0
M  V30 2646 C 266.543 0.951227 -1.29647 0
M  V30 2647 O 267.733 0.825958 -1.53374 0
M  V30 2648 C 264.865 1.51645 -3.05314 0
M  V30 2649 H 266.058 -0.290474 -2.9849 0
M  V30 2650 H 263.611 -0.188676 -1.55157 0
M  V30 2651 H 264.346 2.20816 -2.3751 0
M  V30 2652 H 264.131 1.10238 -3.76284 0
M  V30 2653 H 265.621 2.08218 -3.61987 0
M  V30 2654 N 266.058 1.56714 -0.166846 0
M  V30 2655 C 267.306 1.96358 0.478305 0
M  V30 2656 C 267.627 1.0537 1.6408 0
M  V30 2657 O 266.897 0.119154 1.95537 0
M  V30 2658 H 265.477 0.725065 0.179692 0
M  V30 2659 H 268.139 1.93329 -0.246985 0
M  V30 2660 H 267.235 3.00547 0.841292 0
M  V30 2661 N 267.536 -0.106894 1.57237 0
M  V30 2662 C 268.761 -0.830287 1.90055 0
M  V30 2663 C 269.186 -1.72064 0.75998 0
M  V30 2664 O 268.544 -1.78982 -0.288991 0
M  V30 2665 C 268.592 -1.6295 3.21683 0
M  V30 2666 O 267.696 -2.73748 3.08441 0
M  V30 2667 H 267.037 -0.228855 0.623315 0
M  V30 2668 H 269.567 -0.085658 2.04421 0
M  V30 2669 H 269.577 -2.01621 3.54701 0
M  V30 2670 H 268.252 -0.975989 4.04286 0
M  V30 2671 H 266.829 -2.38192 2.86913 0
M  V30 2672 N 269.014 -1.53014 -0.377408 0
M  V30 2673 C 270.262 -1.6829 -1.11906 0
M  V30 2674 C 270.583 -0.431206 -1.90173 0
M  V30 2675 O 269.853 0.554595 -1.87886 0
M  V30 2676 H 268.433 -0.620371 -0.416112 0
M  V30 2677 H 271.095 -1.90167 -0.426893 0
M  V30 2678 H 270.191 -2.53862 -1.8155 0
M  V30 2679 N 270.492 0.636531 -1.44174 0
M  V30 2680 C 271.455 1.73063 -1.50273 0
M  V30 2681 C 272.455 1.56113 -0.385397 0
M  V30 2682 O 273.645 1.61707 -0.64781 0
M  V30 2683 C 270.777 3.12096 -1.37145 0
M  V30 2684 H 271.97 1.69031 -2.47727 0
M  V30 2685 H 269.523 0.849706 -1.31186 0
M  V30 2686 H 270.258 3.21728 -0.407636 0
M  V30 2687 H 270.043 3.25805 -2.18159 0
M  V30 2688 H 271.533 3.91846 -1.44382 0
M  V30 2689 N 271.97 1.30982 0.876444 0
M  V30 2690 C 272.933 1.18054 1.96459 0
M  V30 2691 C 273.933 0.109399 1.60427 0
M  V30 2692 O 275.123 0.358173 1.70478 0
M  V30 2693 C 272.255 0.810616 3.31122 0
M  V30 2694 H 273.448 2.14735 2.09354 0
M  V30 2695 H 271.001 1.145 1.06392 0
M  V30 2696 H 271.736 -0.155322 3.23928 0
M  V30 2697 H 271.521 1.58481 3.58645 0
M  V30 2698 H 273.011 0.743876 4.10921 0
M  V30 2699 N 273.449 -1.08991 1.13837 0
M  V30 2700 C 274.674 -1.85551 0.926585 0
M  V30 2701 C 275.099 -1.80782 -0.519566 0
M  V30 2702 O 274.457 -1.18855 -1.36906 0
M  V30 2703 C 274.505 -3.31266 1.42462 0
M  V30 2704 O 273.609 -4.07822 0.612789 0
M  V30 2705 H 272.95 -0.575192 0.331738 0
M  V30 2706 H 275.48 -1.37604 1.51414 0
M  V30 2707 H 275.49 -3.82112 1.43019 0
M  V30 2708 H 274.165 -3.34052 2.47754 0
M  V30 2709 H 272.742 -3.66731 0.675463 0
M  V30 2710 N 274.927 -0.932562 -1.27047 0
M  V30 2711 C 276.152 -0.591474 -1.98787 0
M  V30 2712 C 276.577 0.824601 -1.69062 0
M  V30 2713 O 275.935 1.5541 -0.933677 0
M  V30 2714 C 275.983 -0.829808 -3.50922 0
M  V30 2715 O 275.087 0.102266 -4.12273 0
M  V30 2716 H 274.428 -0.227185 -0.623926 0
M  V30 2717 H 276.958 -1.25314 -1.61733 0
M  V30 2718 H 276.968 -0.747292 -4.01098 0
M  V30 2719 H 275.643 -1.86201 -3.7189 0
M  V30 2720 H 274.22 -0.0305761 -3.72887 0
M  V30 2721 N 276.405 1.4127 -0.698611 0
M  V30 2722 C 277.63 2.06024 -0.238512 0
M  V30 2723 C 278.055 1.5224 1.10475 0
M  V30 2724 O 277.413 0.650623 1.69223 0
M  V30 2725 C 277.461 3.59988 -0.209952 0
M  V30 2726 O 276.565 4.04282 0.814235 0
M  V30 2727 H 275.906 0.653829 -0.115775 0
M  V30 2728 H 278.436 1.8098 -0.954326 0
M  V30 2729 H 278.446 4.07979 -0.0418436 0
M  V30 2730 H 277.121 3.98503 -1.1903 0
M  V30 2731 H 275.698 3.6779 0.615234 0
M  V30 2732 N 277.883 0.443576 1.51229 0
M  V30 2733 C 279.131 -0.120557 2.0174 0
M  V30 2734 C 279.452 -1.42665 1.32935 0
M  V30 2735 O 278.722 -1.9028 0.465866 0
M  V30 2736 H 277.302 -0.0475426 0.745486 0
M  V30 2737 H 279.964 0.587711 1.85828 0
M  V30 2738 H 279.06 -0.291972 3.10731 0
M  V30 2739 N 279.361 -1.56624 0.175154 0
M  V30 2740 C 280.271 -2.21741 -0.766042 0
M  V30 2741 C 281.287 -1.21023 -1.25018 0
M  V30 2742 O 282.463 -1.53697 -1.3015 0
M  V30 2743 C 279.528 -2.84839 -1.97655 0
M  V30 2744 C 278.589 -4.00769 -1.53892 0
M  V30 2745 C 277.822 -4.60849 -2.69173 0
M  V30 2746 O 278.045 -4.19823 -3.86141 0
M  V30 2747 O 276.979 -5.50655 -2.43028 0
M  V30 2748 H 280.805 -3.02738 -0.241585 0
M  V30 2749 H 278.39 -1.49305 -0.053222 0
M  V30 2750 H 280.272 -3.24834 -2.68442 0
M  V30 2751 H 278.947 -2.06836 -2.48999 0
M  V30 2752 H 277.854 -3.65436 -0.80044 0
M  V30 2753 H 279.187 -4.80376 -1.07236 0
M  V30 2754 N 280.839 0.0985539 -1.57292 0
M  V30 2755 C 282.116 0.834155 -1.76921 0
M  V30 2756 C 282.496 1.97101 -0.755928 0
M  V30 2757 O 281.844 2.27474 0.216245 0
M  V30 2758 C 282.054 1.33194 -3.22584 0
M  V30 2759 C 283.402 1.77611 -3.85668 0
M  V30 2760 O 284.426 1.42825 -3.26312 0
M  V30 2761 O 283.285 2.4192 -4.90038 0
M  V30 2762 H 280.379 0.397628 -0.725135 0
M  V30 2763 H 282.925 0.0807044 -1.69508 0
M  V30 2764 H 281.697 0.517248 -3.87866 0
M  V30 2765 H 281.32 2.1475 -3.34616 0
M  V30 2766 N 282.317 1.53212 0.369288 0
M  V30 2767 C 283.264 1.79388 1.45219 0
M  V30 2768 C 284.234 0.638059 1.53356 0
M  V30 2769 O 285.419 0.879852 1.69302 0
M  V30 2770 C 282.559 1.98623 2.82211 0
M  V30 2771 C 281.672 3.26337 2.8307 0
M  V30 2772 C 280.807 3.35779 4.11614 0
M  V30 2773 C 279.846 4.5754 4.06601 0
M  V30 2774 N 278.983 4.64155 5.26787 0
M  V30 2775 H 283.823 2.71794 1.22198 0
M  V30 2776 H 281.36 1.34642 0.592444 0
M  V30 2777 H 283.318 2.07761 3.61789 0
M  V30 2778 H 281.948 1.09558 3.03639 0
M  V30 2779 H 281 3.26171 1.95747 0
M  V30 2780 H 282.312 4.15988 2.75237 0
M  V30 2781 H 281.466 3.44208 4.99606 0
M  V30 2782 H 280.205 2.44137 4.22195 0
M  V30 2783 H 279.21 4.49215 3.16996 0
M  V30 2784 H 280.435 5.50519 3.97625 0
M  V30 2785 H 278.381 3.75413 5.3796 0
M  V30 2786 H 278.298 5.47706 5.21109 0
M  V30 2787 H 279.566 4.76863 6.16621 0
M  V30 2788 N 283.795 -0.628877 1.44509 0
M  V30 2789 C 284.705 -1.7694 1.54044 0
M  V30 2790 C 285.721 -1.68705 0.425987 0
M  V30 2791 O 286.897 -1.89442 0.683656 0
M  V30 2792 C 283.962 -3.13332 1.48405 0
M  V30 2793 C 283.023 -3.33181 2.70719 0
M  V30 2794 C 282.256 -4.63067 2.6534 0
M  V30 2795 O 282.479 -5.44017 1.71469 0
M  V30 2796 O 281.413 -4.85167 3.56226 0
M  V30 2797 H 285.239 -1.71848 2.50403 0
M  V30 2798 H 282.824 -0.790378 1.26781 0
M  V30 2799 H 284.706 -3.94634 1.47791 0
M  V30 2800 H 283.381 -3.1896 0.551898 0
M  V30 2801 H 282.288 -2.51549 2.769 0
M  V30 2802 H 283.621 -3.32416 3.62988 0
M  V30 2803 N 285.273 -1.31445 -0.869486 0
M  V30 2804 C 286.221 -1.19067 -1.99814 0
M  V30 2805 C 287.215 -0.0988569 -1.69111 0
M  V30 2806 O 288.421 -0.260781 -1.78101 0
M  V30 2807 H 284.796 -0.368677 -0.655425 0
M  V30 2808 H 286.767 -2.14555 -2.07385 0
M  V30 2809 C 285.516 -0.915323 -3.35436 0
M  V30 2810 H 284.839 -1.74759 -3.59582 0
M  V30 2811 H 286.279 -0.868895 -4.15001 0
M  V30 2812 C 284.738 0.381928 -3.34728 0
M  V30 2813 O 285.268 1.39857 -3.76567 0
M  V30 2814 N 283.474 0.398633 -2.87853 0
M  V30 2815 H 283.021 -0.429186 -2.54 0
M  V30 2816 H 282.979 1.26651 -2.87762 0
M  V30 2817 N 286.751 1.08385 -1.14413 0
M  V30 2818 C 288.028 1.77429 -0.823297 0
M  V30 2819 C 288.408 1.9974 0.683163 0
M  V30 2820 O 287.756 1.60739 1.62405 0
M  V30 2821 C 287.966 3.09004 -1.62227 0
M  V30 2822 C 289.314 3.83532 -1.82177 0
M  V30 2823 O 290.338 3.18786 -1.58915 0
M  V30 2824 O 289.197 4.99792 -2.21067 0
M  V30 2825 H 286.291 0.769999 -0.301712 0
M  V30 2826 H 288.837 1.14846 -1.24934 0
M  V30 2827 H 287.609 2.88316 -2.64555 0
M  V30 2828 H 287.232 3.79316 -1.19187 0
M  V30 2829 N 288.23 0.939286 1.26551 0
M  V30 2830 C 289.478 0.58469 1.93457 0
M  V30 2831 C 289.799 -0.878774 1.74076 0
M  V30 2832 O 289.069 -1.62421 1.09528 0
M  V30 2833 H 287.649 0.21325 0.715914 0
M  V30 2834 H 290.311 1.1942 1.54029 0
M  V30 2835 H 289.407 0.800849 3.0165 0
M  V30 2836 N 289.708 -1.40897 0.706093 0
M  V30 2837 C 290.955 -2.01054 0.241531 0
M  V30 2838 C 291.283 -1.55956 -1.16223 0
M  V30 2839 O 290.538 -0.766336 -1.80072 0
M  V30 2840 C 290.837 -3.5646 0.259099 0
M  V30 2841 C 290.503 -4.21106 1.61184 0
M  V30 2842 C 289.165 -4.38479 1.98216 0
M  V30 2843 C 291.517 -4.57256 2.50132 0
M  V30 2844 C 288.845 -4.89282 3.2376 0
M  V30 2845 C 291.197 -5.09454 3.7502 0
M  V30 2846 C 289.861 -5.25037 4.12181 0
M  V30 2847 H 289.131 -0.73571 0.0883825 0
M  V30 2848 H 291.778 -1.68645 0.907257 0
M  V30 2849 H 290.083 -3.88721 -0.490189 0
M  V30 2850 H 291.78 -4.00826 -0.11804 0
M  V30 2851 H 288.37 -4.07966 1.31384 0
M  V30 2852 H 292.554 -4.43479 2.228 0
M  V30 2853 H 287.81 -4.99531 3.52532 0
M  V30 2854 H 291.984 -5.36404 4.44121 0
M  V30 2855 H 289.611 -5.64164 5.09532 0
M  V30 2856 N 291.186 -0.45159 -1.50991 0
M  V30 2857 C 292.432 0.110237 -2.025 0
M  V30 2858 C 292.765 1.41109 -1.33424 0
M  V30 2859 O 292.04 1.89135 -0.453659 0
M  V30 2860 C 292.323 0.314271 -3.58726 0
M  V30 2861 C 292.176 -1.00623 -4.38401 0
M  V30 2862 C 293.495 1.07767 -4.26702 0
M  V30 2863 H 290.614 0.0385897 -0.735989 0
M  V30 2864 H 293.256 -0.593374 -1.80497 0
M  V30 2865 H 291.406 0.913601 -3.77605 0
M  V30 2866 H 293.078 -1.64064 -4.31139 0
M  V30 2867 H 291.321 -1.6075 -4.02917 0
M  V30 2868 H 291.992 -0.817341 -5.45915 0
M  V30 2869 H 294.468 0.56986 -4.12179 0
M  V30 2870 H 293.344 1.18921 -5.35863 0
M  V30 2871 H 293.605 2.10939 -3.88532 0
M  V30 2872 N 292.664 1.56529 -0.183458 0
M  V30 2873 C 293.911 1.97244 0.458357 0
M  V30 2874 C 294.239 1.06992 1.62428 0
M  V30 2875 O 293.494 0.106542 1.9541 0
M  V30 2876 C 293.793 3.43939 0.971637 0
M  V30 2877 C 293.459 4.5083 -0.0796784 0
M  V30 2878 C 292.121 4.79786 -0.368584 0
M  V30 2879 C 294.473 5.15138 -0.792638 0
M  V30 2880 C 291.801 5.70345 -1.37563 0
M  V30 2881 C 294.153 6.06784 -1.78875 0
M  V30 2882 C 292.817 6.34102 -2.08497 0
M  V30 2883 H 292.087 0.721768 0.167725 0
M  V30 2884 H 294.734 1.89472 -0.277976 0
M  V30 2885 H 293.039 3.48724 1.78602 0
M  V30 2886 H 294.736 3.72791 1.47744 0
M  V30 2887 H 291.326 4.28317 0.155668 0
M  V30 2888 H 295.51 4.92868 -0.582659 0
M  V30 2889 H 290.766 5.89789 -1.61118 0
M  V30 2890 H 294.94 6.55677 -2.3465 0
M  V30 2891 H 292.567 7.04074 -2.86678 0
M  V30 2892 N 294.142 -0.090211 1.57342 0
M  V30 2893 C 295.089 -1.10909 2.02405 0
M  V30 2894 C 296.059 -1.39523 0.901252 0
M  V30 2895 O 297.244 -1.50903 1.1676 0
M  V30 2896 C 294.384 -2.42277 2.45755 0
M  V30 2897 C 293.497 -2.20352 3.71576 0
M  V30 2898 C 292.632 -3.45154 4.03785 0
M  V30 2899 C 291.671 -3.18512 5.22701 0
M  V30 2900 N 290.808 -4.35593 5.50639 0
M  V30 2901 H 295.648 -0.71782 2.89225 0
M  V30 2902 H 293.185 -0.342901 1.43048 0
M  V30 2903 H 295.143 -3.18951 2.68935 0
M  V30 2904 H 293.773 -2.79242 1.61938 0
M  V30 2905 H 292.825 -1.34458 3.55844 0
M  V30 2906 H 294.137 -1.96661 4.58395 0
M  V30 2907 H 293.291 -4.30233 4.27767 0
M  V30 2908 H 292.03 -3.71904 3.15498 0
M  V30 2909 H 291.035 -2.31827 4.98534 0
M  V30 2910 H 292.26 -2.93103 6.12591 0
M  V30 2911 H 290.206 -4.6241 4.6531 0
M  V30 2912 H 290.123 -4.1511 6.31838 0
M  V30 2913 H 291.391 -5.21723 5.7916 0
M  V30 2914 N 295.62 -1.53406 -0.361157 0
M  V30 2915 C 296.553 -1.74946 -1.46524 0
M  V30 2916 C 297.531 -0.59795 -1.51206 0
M  V30 2917 O 298.715 -0.831062 -1.69191 0
M  V30 2918 C 295.842 -1.83224 -2.84863 0
M  V30 2919 C 294.888 -3.05233 -2.97885 0
M  V30 2920 S 295.721 -4.6466 -2.66179 0
M  V30 2921 C 296.877 -4.75793 -4.06659 0
M  V30 2922 H 297.11 -2.68319 -1.28033 0
M  V30 2923 H 294.643 -1.44051 -0.555764 0
M  V30 2924 H 296.601 -1.88679 -3.64569 0
M  V30 2925 H 295.262 -0.908948 -3.00661 0
M  V30 2926 H 294.455 -3.07648 -3.9921 0
M  V30 2927 H 294.057 -2.97913 -2.26106 0
M  V30 2928 H 296.349 -4.5612 -5.0096 0
M  V30 2929 H 297.292 -5.7786 -4.09247 0
M  V30 2930 H 297.7 -4.04389 -3.93865 0
M  V30 2931 N 297.098 0.621204 -1.44841 0
M  V30 2932 C 298.509 1.20298 -1.42777 0
M  V30 2933 C 298.86 1.95639 -0.148259 0
M  V30 2934 O 297.985 2.02955 0.750892 0
M  V30 2935 C 298.58 2.1882 -2.58657 0
M  V30 2936 C 297.139 2.72403 -2.59756 0
M  V30 2937 C 296.286 1.4757 -2.34773 0
M  V30 2938 H 299.237 0.411297 -1.53278 0
M  V30 2939 H 299.258 3.01607 -2.31977 0
M  V30 2940 H 298.77 1.63957 -3.51766 0
M  V30 2941 H 296.871 3.31242 -1.70615 0
M  V30 2942 H 296.984 3.17765 -3.58556 0
M  V30 2943 H 295.348 1.76051 -1.8406 0
M  V30 2944 H 296.131 0.945954 -3.3001 0
M  V30 2945 N 298.576 1.31904 0.862503 0
M  V30 2946 C 299.822 1.23207 1.61838 0
M  V30 2947 C 300.177 -0.206062 1.91293 0
M  V30 2948 O 299.47 -1.14162 1.53875 0
M  V30 2949 C 299.664 2.01713 2.95037 0
M  V30 2950 C 299.493 3.53014 2.78588 0
M  V30 2951 C 298.263 4.22359 2.77382 0
M  V30 2952 C 300.461 4.47819 2.52909 0
M  V30 2953 N 298.443 5.59766 2.52062 0
M  V30 2954 C 299.814 5.72947 2.36922 0
M  V30 2955 C 301.869 4.37162 2.38314 0
M  V30 2956 C 300.572 6.88623 2.07823 0
M  V30 2957 C 302.598 5.5263 2.10604 0
M  V30 2958 C 301.96 6.76752 1.95411 0
M  V30 2959 H 298.059 0.505984 0.596242 0
M  V30 2960 H 300.643 1.66179 1.01452 0
M  V30 2961 H 298.814 1.61098 3.53415 0
M  V30 2962 H 300.546 1.84975 3.59953 0
M  V30 2963 H 297.301 3.74401 2.90036 0
M  V30 2964 H 297.725 6.32135 2.42352 0
M  V30 2965 H 302.367 3.41857 2.48784 0
M  V30 2966 H 300.085 7.83948 1.9609 0
M  V30 2967 H 303.671 5.46307 2.00101 0
M  V30 2968 H 302.551 7.6459 1.74274 0
M  V30 2969 N 300.054 -1.07777 1.14986 0
M  V30 2970 C 301.001 -2.14867 0.842672 0
M  V30 2971 C 301.971 -1.6486 -0.202552 0
M  V30 2972 O 303.156 -1.90668 -0.0710568 0
M  V30 2973 C 300.296 -3.43486 0.333363 0
M  V30 2974 C 299.409 -4.07306 1.43965 0
M  V30 2975 C 298.544 -5.23744 0.886914 0
M  V30 2976 C 297.583 -5.79517 1.97043 0
M  V30 2977 N 296.72 -6.87291 1.4344 0
M  V30 2978 H 301.56 -2.40485 1.75986 0
M  V30 2979 H 299.097 -1.1801 0.878179 0
M  V30 2980 H 301.055 -4.17195 0.0198163 0
M  V30 2981 H 299.685 -3.18133 -0.546916 0
M  V30 2982 H 298.737 -3.31293 1.86946 0
M  V30 2983 H 300.049 -4.44771 2.25788 0
M  V30 2984 H 299.203 -6.04419 0.525651 0
M  V30 2985 H 297.942 -4.87685 0.0377957 0
M  V30 2986 H 296.947 -4.97491 2.34057 0
M  V30 2987 H 298.172 -6.17632 2.82325 0
M  V30 2988 H 296.118 -6.5318 0.607567 0
M  V30 2989 H 296.035 -7.23617 2.18895 0
M  V30 2990 H 297.303 -7.71682 1.10124 0
M  V30 2991 N 301.532 -0.945985 -1.26051 0
M  V30 2992 C 302.943 -0.638096 -1.75457 0
M  V30 2993 C 303.294 0.846672 -1.76991 0
M  V30 2994 O 302.419 1.66262 -1.38513 0
M  V30 2995 C 303.014 -1.15157 -3.18629 0
M  V30 2996 C 301.573 -0.894004 -3.65629 0
M  V30 2997 C 300.72 -1.29967 -2.44957 0
M  V30 2998 H 303.671 -1.12376 -1.1206 0
M  V30 2999 H 303.692 -0.507615 -3.77099 0
M  V30 3000 H 303.204 -2.23222 -3.1748 0
M  V30 3001 H 301.305 0.172057 -3.72203 0
M  V30 3002 H 301.418 -1.52439 -4.54202 0
M  V30 3003 H 299.782 -0.718078 -2.44368 0
M  V30 3004 H 300.565 -2.38935 -2.46505 0
M  V30 3005 N 303.011 1.40521 -0.713556 0
M  V30 3006 C 304.239 2.05237 -0.261775 0
M  V30 3007 C 304.654 1.53755 1.09567 0
M  V30 3008 O 304.011 0.693268 1.6882 0
M  V30 3009 C 304.062 3.60763 -0.230706 0
M  V30 3010 O 303.783 4.10345 -1.53455 0
M  V30 3011 C 305.284 4.42651 0.239874 0
M  V30 3012 H 302.504 0.660533 -0.118057 0
M  V30 3013 H 305.048 1.79967 -0.971192 0
M  V30 3014 H 303.203 3.8501 0.429661 0
M  V30 3015 H 303.617 5.04526 -1.43366 0
M  V30 3016 H 305.091 5.51599 0.210468 0
M  V30 3017 H 305.568 4.20082 1.28171 0
M  V30 3018 H 306.174 4.23507 -0.390142 0
M  V30 3019 N 304.489 0.459591 1.5075 0
M  V30 3020 C 305.439 -0.358926 2.25157 0
M  V30 3021 C 306.423 -0.971285 1.28276 0
M  V30 3022 O 307.615 -0.885739 1.53244 0
M  V30 3023 C 304.744 -1.44695 3.11317 0
M  V30 3024 C 303.83 -0.842894 4.15639 0
M  V30 3025 N 304.221 0.0299373 5.05791 0
M  V30 3026 C 302.519 -1.10809 4.32015 0
M  V30 3027 C 303.22 0.371563 5.80512 0
M  V30 3028 N 302.196 -0.250409 5.43023 0
M  V30 3029 H 305.998 0.313636 2.92222 0
M  V30 3030 H 303.512 0.273021 1.60089 0
M  V30 3031 H 305.509 -2.04641 3.63218 0
M  V30 3032 H 304.169 -2.12162 2.45799 0
M  V30 3033 H 305.18 0.39797 5.16369 0
M  V30 3034 H 301.857 -1.7786 3.77719 0
M  V30 3035 H 303.247 1.08319 6.63111 0
M  V30 3036 N 305.967 -1.56429 0.191757 0
M  V30 3037 C 307.378 -1.83912 -0.321428 0
M  V30 3038 C 307.729 -1.11231 -1.61623 0
M  V30 3039 O 306.854 -0.37202 -2.13178 0
M  V30 3040 C 307.449 -3.33624 -0.589961 0
M  V30 3041 C 306.008 -3.6153 -1.04753 0
M  V30 3042 C 305.155 -2.7714 -0.0943327 0
M  V30 3043 H 308.106 -1.53161 0.415612 0
M  V30 3044 H 308.127 -3.52213 -1.43966 0
M  V30 3045 H 307.639 -3.86495 0.352588 0
M  V30 3046 H 305.74 -3.14089 -2.00447 0
M  V30 3047 H 305.853 -4.69737 -0.942549 0
M  V30 3048 H 304.217 -2.47638 -0.595589 0
M  V30 3049 H 305 -3.32799 0.842601 0
M  V30 3050 N 307.445 0.0818655 -1.57387 0
M  V30 3051 C 308.67 0.799946 -1.91352 0
M  V30 3052 C 309.095 1.70833 -0.787258 0
M  V30 3053 O 308.453 1.79419 0.26048 0
M  V30 3054 C 308.501 1.57812 -3.24234 0
M  V30 3055 O 307.605 2.68806 -3.12757 0
M  V30 3056 H 306.946 0.21891 -0.626877 0
M  V30 3057 H 309.476 0.0531256 -2.04531 0
M  V30 3058 H 309.486 1.95952 -3.57864 0
M  V30 3059 H 308.161 0.911548 -4.05788 0
M  V30 3060 H 306.738 2.33597 -2.90666 0
M  V30 3061 N 308.923 1.53595 0.353017 0
M  V30 3062 C 310.148 1.7462 1.11904 0
M  V30 3063 C 310.573 0.479721 1.8188 0
M  V30 3064 O 309.931 -0.567066 1.72204 0
M  V30 3065 C 309.979 2.92029 2.11545 0
M  V30 3066 O 309.083 2.61516 3.18878 0
M  V30 3067 H 308.424 0.579531 0.324099 0
M  V30 3068 H 310.954 2.00525 0.406301 0
M  V30 3069 H 310.964 3.18551 2.5493 0
M  V30 3070 H 309.639 3.83888 1.60008 0
M  V30 3071 H 308.216 2.45852 2.80377 0
M  V30 3072 N 310.401 -0.613514 1.45168 0
M  V30 3073 C 311.629 -1.39946 1.5239 0
M  V30 3074 C 312.044 -1.88167 0.154531 0
M  V30 3075 O 311.401 -1.61872 -0.842843 0
M  V30 3076 C 311.452 -2.60795 2.50337 0
M  V30 3077 O 311.173 -2.1458 3.81952 0
M  V30 3078 C 312.674 -3.53723 2.67198 0
M  V30 3079 H 309.894 -0.428593 0.516284 0
M  V30 3080 H 312.438 -0.748753 1.903 0
M  V30 3081 H 310.593 -3.21919 2.15515 0
M  V30 3082 H 311.007 -2.93055 4.34993 0
M  V30 3083 H 312.481 -4.35079 3.39721 0
M  V30 3084 H 312.958 -4.0368 1.73029 0
M  V30 3085 H 313.564 -2.98456 3.02992 0
M  V30 3086 N 311.879 -1.3236 -0.855495 0
M  V30 3087 C 312.829 -1.17809 -1.95205 0
M  V30 3088 C 313.813 -0.0852319 -1.60674 0
M  V30 3089 O 315.005 -0.311651 -1.74235 0
M  V30 3090 C 312.134 -0.902437 -3.31226 0
M  V30 3091 C 311.22 -2.03695 -3.7198 0
M  V30 3092 N 311.611 -3.28544 -3.84568 0
M  V30 3093 C 309.909 -1.93993 -4.016 0
M  V30 3094 C 310.61 -4.02847 -4.19629 0
M  V30 3095 N 309.586 -3.31138 -4.31102 0
M  V30 3096 H 313.388 -2.12462 -2.0307 0
M  V30 3097 H 310.902 -1.24127 -1.0472 0
M  V30 3098 H 312.899 -0.77915 -4.09554 0
M  V30 3099 H 311.559 0.0357267 -3.2468 0
M  V30 3100 H 312.57 -3.6349 -3.68911 0
M  V30 3101 H 309.247 -1.07733 -4.03361 0
M  V30 3102 H 310.637 -5.10506 -4.36845 0
M  V30 3103 N 313.357 1.07166 -1.15556 0
M  V30 3104 C 314.32 2.12589 -0.856644 0
M  V30 3105 C 315.32 1.6015 0.14444 0
M  V30 3106 O 316.51 1.7399 -0.0854163 0
M  V30 3107 C 313.642 3.39753 -0.279405 0
M  V30 3108 H 314.835 2.40539 -1.79112 0
M  V30 3109 H 312.388 1.23086 -0.963298 0
M  V30 3110 H 313.123 3.17447 0.663174 0
M  V30 3111 H 312.908 3.79117 -1.00063 0
M  V30 3112 H 314.398 4.17507 -0.0879113 0
M  V30 3113 N 314.835 0.952656 1.25548 0
M  V30 3114 C 315.765 0.489287 2.28316 0
M  V30 3115 C 316.746 -0.463359 1.63667 0
M  V30 3116 O 317.931 -0.36274 1.90782 0
M  V30 3117 C 315.061 -0.235603 3.465 0
M  V30 3118 C 314.015 0.631593 4.23314 0
M  V30 3119 C 313.341 -0.223923 5.34231 0
M  V30 3120 C 314.641 1.90871 4.86174 0
M  V30 3121 H 316.335 1.34822 2.67326 0
M  V30 3122 H 313.881 0.649728 1.28509 0
M  V30 3123 H 315.834 -0.570882 4.17515 0
M  V30 3124 H 314.558 -1.12877 3.06474 0
M  V30 3125 H 313.217 0.949929 3.54079 0
M  V30 3126 H 312.865 -1.11678 4.90446 0
M  V30 3127 H 312.565 0.35299 5.86539 0
M  V30 3128 H 314.089 -0.554214 6.0808 0
M  V30 3129 H 315.503 1.63997 5.49343 0
M  V30 3130 H 313.9 2.43112 5.4865 0
M  V30 3131 H 314.97 2.61304 4.08471 0
M  V30 3132 N 316.313 -1.40141 0.720998 0
M  V30 3133 C 317.276 -2.29058 0.0805834 0
M  V30 3134 C 318.276 -1.45632 -0.681758 0
M  V30 3135 O 319.466 -1.6648 -0.512856 0
M  V30 3136 C 316.598 -3.28925 -0.895593 0
M  V30 3137 H 317.791 -2.87191 0.863793 0
M  V30 3138 H 315.344 -1.48553 0.485975 0
M  V30 3139 H 316.079 -2.75822 -1.70566 0
M  V30 3140 H 315.864 -3.90519 -0.351766 0
M  V30 3141 H 317.354 -3.95494 -1.34069 0
M  V30 3142 N 317.792 -0.46758 -1.50504 0
M  V30 3143 C 318.702 0.33382 -2.32213 0
M  V30 3144 C 319.718 0.999323 -1.42441 0
M  V30 3145 O 320.894 0.988068 -1.75497 0
M  V30 3146 C 317.959 1.4035 -3.17022 0
M  V30 3147 C 317.02 0.754961 -4.2261 0
M  V30 3148 C 316.253 1.77367 -5.03365 0
M  V30 3149 O 316.476 2.99976 -4.8515 0
M  V30 3150 O 315.41 1.34744 -5.86624 0
M  V30 3151 H 319.236 -0.334067 -3.01857 0
M  V30 3152 H 316.821 -0.229496 -1.47627 0
M  V30 3153 H 318.703 2.02318 -3.69656 0
M  V30 3154 H 317.378 2.05492 -2.5011 0
M  V30 3155 H 316.285 0.0964244 -3.73976 0
M  V30 3156 H 317.618 0.146545 -4.91982 0
M  V30 3157 N 319.27 1.56325 -0.20005 0
M  V30 3158 C 320.516 1.98772 0.431408 0
M  V30 3159 C 320.871 1.0849 1.58895 0
M  V30 3160 O 320.164 0.130331 1.91156 0
M  V30 3161 C 320.358 3.4495 0.935103 0
M  V30 3162 C 320.187 4.49371 -0.172096 0
M  V30 3163 C 318.957 5.0134 -0.631377 0
M  V30 3164 C 321.155 5.04822 -0.982806 0
M  V30 3165 N 319.137 5.89433 -1.71588 0
M  V30 3166 C 320.508 5.89632 -1.91661 0
M  V30 3167 C 322.563 4.87242 -1.02467 0
M  V30 3168 C 321.266 6.58741 -2.88881 0
M  V30 3169 C 323.292 5.57094 -1.98494 0
M  V30 3170 C 322.654 6.41655 -2.90617 0
M  V30 3171 H 318.753 0.771922 0.125144 0
M  V30 3172 H 321.337 1.92266 -0.306883 0
M  V30 3173 H 319.508 3.51946 1.64282 0
M  V30 3174 H 321.24 3.74354 1.53758 0
M  V30 3175 H 317.995 4.73071 -0.223827 0
M  V30 3176 H 318.419 6.38182 -2.25948 0
M  V30 3177 H 323.061 4.21538 -0.326408 0
M  V30 3178 H 320.779 7.23641 -3.5968 0
M  V30 3179 H 324.365 5.45466 -2.0238 0
M  V30 3180 H 323.245 6.94755 -3.63711 0
M  V30 3181 N 320.748 -0.0735177 1.57428 0
M  V30 3182 C 321.711 -1.07192 2.02589 0
M  V30 3183 C 322.711 -1.31695 0.922661 0
M  V30 3184 O 323.901 -1.27445 1.18758 0
M  V30 3185 C 321.033 -2.41599 2.40506 0
M  V30 3186 H 322.226 -0.682727 2.92025 0
M  V30 3187 H 319.779 -0.319193 1.53006 0
M  V30 3188 H 320.514 -2.85354 1.5409 0
M  V30 3189 H 320.299 -2.25156 3.21009 0
M  V30 3190 H 321.789 -3.13367 2.76027 0
M  V30 3191 N 322.226 -1.5378 -0.344866 0
M  V30 3192 C 323.451 -1.75211 -1.10977 0
M  V30 3193 C 323.876 -0.48936 -1.81623 0
M  V30 3194 O 323.234 0.557925 -1.72502 0
M  V30 3195 C 323.282 -2.93147 -2.09993 0
M  V30 3196 O 322.386 -2.63203 -3.17487 0
M  V30 3197 H 321.727 -0.581241 -0.321021 0
M  V30 3198 H 324.257 -2.00738 -0.395661 0
M  V30 3199 H 324.267 -3.19898 -2.53237 0
M  V30 3200 H 322.942 -3.84731 -1.5797 0
M  V30 3201 H 321.519 -2.47336 -2.79069 0
M  V30 3202 N 323.704 0.605807 -1.45491 0
M  V30 3203 C 325.12 0.926751 -1.29936 0
M  V30 3204 C 325.32 1.99896 -0.253706 0
M  V30 3205 O 324.376 2.50038 0.351737 0
M  V30 3206 C 325.689 1.36599 -2.67883 0
M  V30 3207 C 327.237 1.4801 -2.75793 0
M  V30 3208 C 327.712 1.95309 -4.14268 0
M  V30 3209 N 329.203 2.0254 -4.16571 0
M  V30 3210 C 329.938 2.40363 -5.20589 0
M  V30 3211 N 329.434 2.77143 -6.34952 0
M  V30 3212 N 331.227 2.40718 -5.07948 0
M  V30 3213 H 323.378 -0.102862 -2.12151 0
M  V30 3214 H 325.641 0.016639 -0.947854 0
M  V30 3215 H 325.347 0.652306 -3.45598 0
M  V30 3216 H 325.221 2.33215 -2.96463 0
M  V30 3217 H 327.608 2.1847 -1.98381 0
M  V30 3218 H 327.689 0.497041 -2.50925 0
M  V30 3219 H 327.333 1.25436 -4.92167 0
M  V30 3220 H 327.263 2.94532 -4.3653 0
M  V30 3221 H 329.754 1.76699 -3.34045 0
M  V30 3222 H 330.067 3.0489 -7.10114 0
M  V30 3223 H 328.412 2.74834 -6.3835 0
M  V30 3224 H 331.603 2.11392 -4.1765 0
M  V30 3225 H 331.776 2.69869 -5.89131 0
M  V30 3226 N 325.182 1.32811 0.848464 0
M  V30 3227 C 326.598 1.11937 1.13764 0
M  V30 3228 C 326.798 -0.0960789 2.01271 0
M  V30 3229 O 325.854 -0.779165 2.40178 0
M  V30 3230 C 327.167 2.402 1.809 0
M  V30 3231 C 328.715 2.46016 1.93508 0
M  V30 3232 C 329.19 3.74215 2.64059 0
M  V30 3233 N 330.681 3.75232 2.71579 0
M  V30 3234 C 331.416 4.71134 3.26833 0
M  V30 3235 N 330.912 5.77406 3.8285 0
M  V30 3236 N 332.705 4.58623 3.24995 0
M  V30 3237 H 324.856 2.1073 0.265855 0
M  V30 3238 H 327.119 0.930671 0.180431 0
M  V30 3239 H 326.825 3.29093 1.24058 0
M  V30 3240 H 326.699 2.51628 2.81004 0
M  V30 3241 H 329.086 1.57577 2.49506 0
M  V30 3242 H 329.167 2.38536 0.923811 0
M  V30 3243 H 328.811 4.63031 2.08722 0
M  V30 3244 H 328.741 3.78968 3.65637 0
M  V30 3245 H 331.232 2.98423 2.31845 0
M  V30 3246 H 331.545 6.46632 4.23187 0
M  V30 3247 H 329.89 5.81152 3.81165 0
M  V30 3248 H 333.081 3.74762 2.80484 0
M  V30 3249 H 333.254 5.33535 3.67756 0
M  V30 3250 N 326.66 -1.06551 1.16123 0
M  V30 3251 C 327.57 -2.17484 0.879662 0
M  V30 3252 C 328.586 -1.73377 -0.147104 0
M  V30 3253 O 329.762 -2.01379 0.0289128 0
M  V30 3254 C 326.827 -3.44591 0.381829 0
M  V30 3255 C 325.888 -4.0322 1.4735 0
M  V30 3256 C 325.121 -5.24261 0.999324 0
M  V30 3257 O 325.344 -5.70198 -0.151957 0
M  V30 3258 O 324.278 -5.74775 1.78653 0
M  V30 3259 H 328.104 -2.44075 1.80724 0
M  V30 3260 H 325.689 -1.16042 0.940992 0
M  V30 3261 H 327.571 -4.21254 0.111053 0
M  V30 3262 H 326.246 -3.19532 -0.51777 0
M  V30 3263 H 325.153 -3.2806 1.79798 0
M  V30 3264 H 326.486 -4.32568 2.34831 0
M  V30 3265 N 328.138 -0.959301 -1.25041 0
M  V30 3266 C 329.101 -0.487677 -2.23952 0
M  V30 3267 C 330.101 0.41119 -1.55454 0
M  V30 3268 O 331.291 0.207825 -1.72956 0
M  V30 3269 C 328.423 0.294807 -3.39623 0
M  V30 3270 H 329.616 -1.36198 -2.67189 0
M  V30 3271 H 327.169 -0.743042 -1.37508 0
M  V30 3272 H 327.904 1.18658 -3.01813 0
M  V30 3273 H 327.689 -0.35012 -3.90534 0
M  V30 3274 H 329.179 0.614089 -4.1306 0
M  V30 3275 N 329.616 1.39756 -0.72842 0
M  V30 3276 C 330.863 2.00645 -0.273487 0
M  V30 3277 C 331.191 1.57786 1.13727 0
M  V30 3278 O 330.446 0.794886 1.7883 0
M  V30 3279 C 330.745 3.56002 -0.315776 0
M  V30 3280 C 330.411 4.18489 -1.67863 0
M  V30 3281 C 329.073 4.3527 -2.05166 0
M  V30 3282 C 331.425 4.53219 -2.57375 0
M  V30 3283 C 328.753 4.84069 -3.31503 0
M  V30 3284 C 331.105 5.03423 -3.83077 0
M  V30 3285 C 329.769 5.18413 -4.20481 0
M  V30 3286 H 329.039 0.734211 -0.100076 0
M  V30 3287 H 331.686 1.6718 -0.933972 0
M  V30 3288 H 329.991 3.89452 0.428285 0
M  V30 3289 H 331.688 4.00963 0.0542575 0
M  V30 3290 H 328.278 4.05824 -1.37858 0
M  V30 3291 H 332.462 4.39878 -2.29827 0
M  V30 3292 H 327.718 4.93859 -3.60435 0
M  V30 3293 H 331.892 5.2927 -4.52599 0
M  V30 3294 H 329.519 5.55987 -5.18443 0
M  V30 3295 N 331.094 0.475555 1.50254 0
M  V30 3296 C 332.057 -0.305016 2.27161 0
M  V30 3297 C 333.057 -0.916519 1.32123 0
M  V30 3298 O 334.247 -0.785003 1.5551 0
M  V30 3299 C 331.379 -1.43496 3.09227 0
M  V30 3300 H 332.572 0.369511 2.97615 0
M  V30 3301 H 330.125 0.229747 1.54602 0
M  V30 3302 H 330.86 -2.14441 2.43281 0
M  V30 3303 H 330.645 -1.00223 3.79075 0
M  V30 3304 H 332.135 -1.98548 3.67381 0
M  V30 3305 N 332.573 -1.56217 0.208337 0
M  V30 3306 C 333.505 -2.1695 -0.739276 0
M  V30 3307 C 334.518 -1.13492 -1.1672 0
M  V30 3308 O 335.707 -1.40529 -1.10063 0
M  V30 3309 C 332.807 -2.72755 -2.01142 0
M  V30 3310 C 331.98 -4.0125 -1.74118 0
M  V30 3311 C 331.039 -4.41749 -2.85909 0
M  V30 3312 O 330.065 -5.08912 -2.54946 0
M  V30 3313 N 331.267 -4.06342 -4.14568 0
M  V30 3314 H 334.032 -2.98893 -0.219837 0
M  V30 3315 H 331.593 -1.61878 0.0268445 0
M  V30 3316 H 333.585 -2.96826 -2.75094 0
M  V30 3317 H 332.155 -1.95191 -2.4417 0
M  V30 3318 H 331.375 -3.85173 -0.838775 0
M  V30 3319 H 332.663 -4.851 -1.53477 0
M  V30 3320 H 332.061 -3.52345 -4.42571 0
M  V30 3321 H 330.618 -4.35335 -4.85105 0
M  V30 3322 N 334.051 0.0651679 -1.57465 0
M  V30 3323 C 335.467 0.420105 -1.53972 0
M  V30 3324 C 335.667 1.78782 -0.929474 0
M  V30 3325 O 334.723 2.46771 -0.534839 0
M  V30 3326 C 336.036 0.355084 -2.98596 0
M  V30 3327 C 337.584 0.434792 -3.09965 0
M  V30 3328 C 338.059 0.399609 -4.56253 0
M  V30 3329 N 339.55 0.459488 -4.60915 0
M  V30 3330 C 340.285 0.454584 -5.71595 0
M  V30 3331 N 339.781 0.404102 -6.9162 0
M  V30 3332 N 341.574 0.501635 -5.59857 0
M  V30 3333 H 333.725 -0.830328 -1.95498 0
M  V30 3334 H 335.988 -0.312244 -0.895102 0
M  V30 3335 H 335.694 -0.583357 -3.46828 0
M  V30 3336 H 335.568 1.16275 -3.58831 0
M  V30 3337 H 337.955 1.36366 -2.61703 0
M  V30 3338 H 338.036 -0.40157 -2.52628 0
M  V30 3339 H 337.68 -0.525436 -5.05175 0
M  V30 3340 H 337.61 1.25359 -5.11461 0
M  V30 3341 H 340.101 0.502482 -3.74544 0
M  V30 3342 H 340.414 0.404468 -7.71741 0
M  V30 3343 H 338.759 0.37069 -6.94011 0
M  V30 3344 H 341.95 0.538812 -4.64989 0
M  V30 3345 H 342.123 0.494345 -6.46112 0
M  V30 3346 N 335.529 1.53961 0.336706 0
M  V30 3347 C 336.94 1.62914 0.911925 0
M  V30 3348 C 337.291 0.514795 1.89326 0
M  V30 3349 O 336.416 -0.354395 2.13478 0
M  V30 3350 C 337.011 2.95304 1.66076 0
M  V30 3351 C 335.57 3.06496 2.18489 0
M  V30 3352 C 334.717 2.58403 1.00613 0
M  V30 3353 H 337.668 1.58285 0.114649 0
M  V30 3354 H 337.689 2.84727 2.5241 0
M  V30 3355 H 337.201 3.76387 0.946276 0
M  V30 3356 H 335.302 2.3006 2.93092 0
M  V30 3357 H 335.415 4.1208 2.44391 0
M  V30 3358 H 333.779 2.13977 1.38152 0
M  V30 3359 H 334.562 3.41932 0.306179 0
M  V30 3360 N 337.007 -0.598083 1.45811 0
M  V30 3361 C 338.232 -1.3881 1.54099 0
M  V30 3362 C 338.657 -1.8726 0.177578 0
M  V30 3363 O 338.015 -1.6069 -0.839541 0
M  V30 3364 C 338.063 -2.56217 2.53743 0
M  V30 3365 O 337.167 -3.5716 2.06182 0
M  V30 3366 H 336.508 -0.414024 0.519115 0
M  V30 3367 H 339.038 -0.726971 1.91249 0
M  V30 3368 H 339.048 -3.03337 2.72856 0
M  V30 3369 H 337.723 -2.20303 3.5276 0
M  V30 3370 H 336.3 -3.16624 1.96987 0
M  V30 3371 N 338.485 -1.33259 -0.841409 0
M  V30 3372 C 339.71 -1.2775 -1.63385 0
M  V30 3373 C 340.135 0.149188 -1.87507 0
M  V30 3374 O 339.493 1.10498 -1.43736 0
M  V30 3375 C 339.541 -2.05571 -2.96265 0
M  V30 3376 O 338.645 -1.41257 -3.87453 0
M  V30 3377 H 337.986 -0.439627 -0.497618 0
M  V30 3378 H 340.516 -1.75782 -1.04699 0
M  V30 3379 H 340.526 -2.16241 -3.45982 0
M  V30 3380 H 339.201 -3.09309 -2.7803 0
M  V30 3381 H 337.778 -1.39217 -3.45938 0
M  V30 3382 N 339.963 1.05934 -1.16686 0
M  V30 3383 C 340.926 2.11669 -0.879144 0
M  V30 3384 C 341.926 1.60294 0.127445 0
M  V30 3385 O 343.116 1.7389 -0.103865 0
M  V30 3386 C 340.248 3.39438 -0.315425 0
M  V30 3387 H 341.441 2.38626 -1.81653 0
M  V30 3388 H 338.994 1.22058 -0.976299 0
M  V30 3389 H 339.729 3.18132 0.629468 0
M  V30 3390 H 339.514 3.78034 -1.04079 0
M  V30 3391 H 341.004 4.17391 -0.132189 0
M  V30 3392 N 341.441 0.965919 1.2453 0
M  V30 3393 C 342.852 0.665929 1.7442 0
M  V30 3394 C 343.203 -0.818407 1.78316 0
M  V30 3395 O 342.328 -1.64037 1.41141 0
M  V30 3396 C 342.923 1.20211 3.16757 0
M  V30 3397 C 341.482 0.952059 3.6416 0
M  V30 3398 C 340.629 1.33848 2.42858 0
M  V30 3399 H 343.58 1.14144 1.10258 0
M  V30 3400 H 343.601 0.567544 3.76244 0
M  V30 3401 H 343.113 2.28244 3.13889 0
M  V30 3402 H 341.214 -0.112821 3.72429 0
M  V30 3403 H 341.327 1.59645 4.51719 0
M  V30 3404 H 339.691 0.756864 2.43195 0
M  V30 3405 H 340.474 2.42827 2.42673 0
M  V30 3406 N 342.919 -1.39368 0.735821 0
M  V30 3407 C 344.196 -1.94465 0.210395 0
M  V30 3408 C 344.576 -1.67254 -1.28799 0
M  V30 3409 O 343.924 -1.00123 -2.05396 0
M  V30 3410 C 344.134 -3.4472 0.544897 0
M  V30 3411 C 345.482 -4.21708 0.494689 0
M  V30 3412 O 346.506 -3.52922 0.482136 0
M  V30 3413 O 345.365 -5.44299 0.489947 0
M  V30 3414 H 342.459 -0.826096 0.0386666 0
M  V30 3415 H 345.005 -1.48863 0.814735 0
M  V30 3416 H 343.777 -3.57963 1.58045 0
M  V30 3417 H 343.4 -3.97502 -0.08837 0
M  V30 3418 N 344.397 -0.483516 -1.5 0
M  V30 3419 C 345.327 0.293829 -2.31644 0
M  V30 3420 C 346.308 0.978864 -1.39112 0
M  V30 3421 O 347.493 0.973644 -1.68029 0
M  V30 3422 C 344.623 1.36897 -3.19181 0
M  V30 3423 C 343.577 0.804833 -4.20365 0
M  V30 3424 C 342.903 1.9792 -4.96721 0
M  V30 3425 C 344.203 -0.192313 -5.21946 0
M  V30 3426 H 345.897 -0.387616 -2.9688 0
M  V30 3427 H 343.443 -0.187856 -1.42769 0
M  V30 3428 H 345.396 1.92037 -3.751 0
M  V30 3429 H 344.12 2.07936 -2.51853 0
M  V30 3430 H 342.779 0.275319 -3.65565 0
M  V30 3431 H 342.427 2.67686 -4.25856 0
M  V30 3432 H 342.127 1.60789 -5.65173 0
M  V30 3433 H 343.651 2.53526 -5.55479 0
M  V30 3434 H 345.065 0.270333 -5.72662 0
M  V30 3435 H 343.462 -0.478543 -5.98189 0
M  V30 3436 H 344.532 -1.11409 -4.71928 0
M  V30 3437 N 345.875 1.56104 -0.216619 0
M  V30 3438 C 346.808 2.16026 0.735395 0
M  V30 3439 C 347.786 1.1032 1.1945 0
M  V30 3440 O 348.97 1.38549 1.27814 0
M  V30 3441 C 346.097 2.73656 1.99575 0
M  V30 3442 C 345.143 3.92146 1.67702 0
M  V30 3443 S 345.976 5.29397 0.806145 0
M  V30 3444 C 347.132 5.90463 2.07617 0
M  V30 3445 H 347.365 2.96439 0.226072 0
M  V30 3446 H 344.898 1.544 -0.00136639 0
M  V30 3447 H 346.856 3.075 2.71945 0
M  V30 3448 H 345.517 1.93245 2.47619 0
M  V30 3449 H 344.71 4.30954 2.61332 0
M  V30 3450 H 344.312 3.59423 1.03398 0
M  V30 3451 H 346.604 6.06136 3.02664 0
M  V30 3452 H 347.547 6.86589 1.73207 0
M  V30 3453 H 347.955 5.19252 2.21445 0
M  V30 3454 N 347.353 -0.0568162 1.57498 0
M  V30 3455 C 348.593 -0.758273 1.89815 0
M  V30 3456 C 348.957 -1.73978 0.812132 0
M  V30 3457 O 350.158 -2.48744 1.01881 0
M  V30 3458 C 348.429 -1.43465 3.27342 0
M  V30 3459 S 349.988 -2.1691 3.81439 0
M  V30 3460 H 346.806 -0.251836 0.664906 0
M  V30 3461 H 349.408 -0.0137997 1.95495 0
M  V30 3462 H 348.112 -0.706693 4.0427 0
M  V30 3463 H 347.643 -2.21825 3.24896 0
M  V30 3464 H 349.658 -3.43658 3.5793 0
M  V30 3465 N 348.832 -1.54138 -0.328536 0
M  V30 3466 C 349.762 -1.86167 -1.40939 0
M  V30 3467 C 350.743 -0.718044 -1.54202 0
M  V30 3468 O 351.928 -0.971328 -1.68163 0
M  V30 3469 C 349.058 -2.08461 -2.77779 0
M  V30 3470 C 348.012 -3.24299 -2.7931 0
M  V30 3471 C 347.338 -3.31955 -4.19178 0
M  V30 3472 C 348.638 -4.62065 -2.43502 0
M  V30 3473 H 350.332 -2.76689 -1.14383 0
M  V30 3474 H 347.878 -1.33132 -0.548806 0
M  V30 3475 H 349.831 -2.29453 -3.53454 0
M  V30 3476 H 348.555 -1.14684 -3.05802 0
M  V30 3477 H 347.214 -3.03187 -2.0609 0
M  V30 3478 H 346.862 -2.35745 -4.44335 0
M  V30 3479 H 346.562 -4.09805 -4.2111 0
M  V30 3480 H 348.086 -3.55175 -4.96672 0
M  V30 3481 H 349.5 -4.8297 -3.08889 0
M  V30 3482 H 347.897 -5.42429 -2.56693 0
M  V30 3483 H 348.967 -4.64652 -1.38659 0
M  V30 3484 N 350.31 0.590341 -1.46126 0
M  V30 3485 C 351.535 1.37991 -1.54833 0
M  V30 3486 C 351.96 1.87163 -0.187506 0
M  V30 3487 O 351.318 1.61133 0.831008 0
M  V30 3488 C 351.366 2.54867 -2.55098 0
M  V30 3489 O 350.47 3.56061 -2.08073 0
M  V30 3490 H 349.811 0.411265 -0.521303 0
M  V30 3491 H 352.341 0.716819 -1.91632 0
M  V30 3492 H 352.351 3.01886 -2.74461 0
M  V30 3493 H 351.026 2.18429 -3.53923 0
M  V30 3494 H 349.603 3.15574 -1.98664 0
M  V30 3495 N 351.788 1.33704 0.83433 0
M  V30 3496 C 353.199 1.22813 1.4062 0
M  V30 3497 C 353.55 -0.151107 1.95617 0
M  V30 3498 O 352.675 -1.05092 1.89168 0
M  V30 3499 C 353.27 2.22355 2.55624 0
M  V30 3500 C 351.829 2.1529 3.08751 0
M  V30 3501 C 350.976 2.09589 1.8157 0
M  V30 3502 H 353.927 1.45236 0.639702 0
M  V30 3503 H 353.948 1.83391 3.33389 0
M  V30 3504 H 353.46 3.22728 2.15566 0
M  V30 3505 H 351.561 1.18235 3.53343 0
M  V30 3506 H 351.674 3.06038 3.68616 0
M  V30 3507 H 350.038 1.55134 2.02004 0
M  V30 3508 H 350.821 3.11777 1.43701 0
M  V30 3509 N 353.266 -1.05314 1.17247 0
M  V30 3510 C 354.543 -1.75184 0.87005 0
M  V30 3511 C 354.923 -2.01481 -0.629965 0
M  V30 3512 O 354.271 -1.64988 -1.58086 0
M  V30 3513 C 354.481 -3.04594 1.70363 0
M  V30 3514 C 355.829 -3.78567 1.92281 0
M  V30 3515 O 356.853 -3.14461 1.67311 0
M  V30 3516 O 355.712 -4.93755 2.3424 0
M  V30 3517 H 352.806 -0.761729 0.322021 0
M  V30 3518 H 355.352 -1.11493 1.27935 0
M  V30 3519 H 354.124 -2.81201 2.72106 0
M  V30 3520 H 353.747 -3.76022 1.29202 0
M  V30 3521 N 354.744 -0.972509 -1.24016 0
M  V30 3522 C 356.16 -0.679827 -1.44397 0
M  V30 3523 C 356.36 0.756716 -1.86751 0
M  V30 3524 O 355.416 1.53007 -2.00861 0
M  V30 3525 C 356.729 -1.66803 -2.50195 0
M  V30 3526 C 358.277 -1.68119 -2.64017 0
M  V30 3527 C 358.752 -2.65748 -3.73017 0
M  V30 3528 N 360.243 -2.64219 -3.8045 0
M  V30 3529 C 360.978 -3.36433 -4.64328 0
M  V30 3530 N 360.474 -4.1818 -5.52356 0
M  V30 3531 N 362.267 -3.25235 -4.58453 0
M  V30 3532 H 354.418 -1.90059 -0.948228 0
M  V30 3533 H 356.681 -0.818527 -0.478245 0
M  V30 3534 H 356.387 -2.69498 -2.25973 0
M  V30 3535 H 356.261 -1.4446 -3.48441 0
M  V30 3536 H 358.648 -0.661319 -2.87594 0
M  V30 3537 H 358.729 -1.94525 -1.66113 0
M  V30 3538 H 358.373 -3.67872 -3.50189 0
M  V30 3539 H 358.303 -2.36619 -4.70446 0
M  V30 3540 H 360.794 -2.04887 -3.17537 0
M  V30 3541 H 361.107 -4.70157 -6.13329 0
M  V30 3542 H 359.452 -4.22273 -5.52006 0
M  V30 3543 H 362.643 -2.60829 -3.88698 0
M  V30 3544 H 362.816 -3.81776 -5.23594 0
M  V30 3545 N 356.222 1.38976 -0.743202 0
M  V30 3546 C 357.169 2.30544 -0.10861 0
M  V30 3547 C 358.139 1.49642 0.720869 0
M  V30 3548 O 359.324 1.78304 0.679142 0
M  V30 3549 C 356.464 3.36018 0.786496 0
M  V30 3550 C 355.577 4.31963 -0.0564849 0
M  V30 3551 C 354.712 5.24506 0.840657 0
M  V30 3552 C 353.751 6.121 -0.00658363 0
M  V30 3553 N 352.888 6.96973 0.846943 0
M  V30 3554 H 357.728 2.8424 -0.895088 0
M  V30 3555 H 355.265 1.3995 -0.453048 0
M  V30 3556 H 357.223 3.95768 1.31999 0
M  V30 3557 H 355.853 2.83758 1.53887 0
M  V30 3558 H 354.905 3.73763 -0.707492 0
M  V30 3559 H 356.217 4.93703 -0.711229 0
M  V30 3560 H 355.371 5.89322 1.4417 0
M  V30 3561 H 354.11 4.63107 1.52916 0
M  V30 3562 H 353.115 5.46289 -0.620366 0
M  V30 3563 H 354.34 6.75565 -0.691992 0
M  V30 3564 H 352.286 6.38133 1.52059 0
M  V30 3565 H 352.203 7.5559 0.248864 0
M  V30 3566 H 353.471 7.6621 1.43328 0
M  V30 3567 N 357.7 0.491464 1.49741 0
M  V30 3568 C 358.633 -0.338464 2.25676 0
M  V30 3569 C 359.611 -0.978676 1.29849 0
M  V30 3570 O 360.795 -1.01064 1.59117 0
M  V30 3571 C 357.922 -1.47588 3.04853 0
M  V30 3572 C 356.968 -0.951 4.15762 0
M  V30 3573 S 357.801 0.150626 5.35288 0
M  V30 3574 C 358.957 -0.990178 6.18018 0
M  V30 3575 H 359.19 0.306068 2.9572 0
M  V30 3576 H 356.723 0.276622 1.51902 0
M  V30 3577 H 358.681 -2.12764 3.51058 0
M  V30 3578 H 357.342 -2.09199 2.34296 0
M  V30 3579 H 356.535 -1.80311 4.70642 0
M  V30 3580 H 356.137 -0.376607 3.72099 0
M  V30 3581 H 358.429 -1.89748 6.50386 0
M  V30 3582 H 359.372 -0.480205 7.0647 0
M  V30 3583 H 359.78 -1.25321 5.50413 0
M  V30 3584 N 359.178 -1.55987 0.224894 0
M  V30 3585 C 360.088 -2.24066 -0.69511 0
M  V30 3586 C 361.104 -1.24939 -1.21104 0
M  V30 3587 O 362.28 -1.5776 -1.25195 0
M  V30 3588 C 359.345 -2.90983 -1.88493 0
M  V30 3589 C 358.406 -4.05462 -1.41064 0
M  V30 3590 C 357.639 -4.69179 -2.54375 0
M  V30 3591 O 357.862 -4.31895 -3.72589 0
M  V30 3592 O 356.796 -5.58108 -2.25386 0
M  V30 3593 H 360.622 -3.03353 -0.145149 0
M  V30 3594 H 358.207 -1.49399 -0.00569476 0
M  V30 3595 H 360.089 -3.33209 -2.57972 0
M  V30 3596 H 358.764 -2.14653 -2.42293 0
M  V30 3597 H 357.671 -3.67798 -0.683774 0
M  V30 3598 H 359.004 -4.83545 -0.918985 0
M  V30 3599 N 360.656 0.0484629 -1.57525 0
M  V30 3600 C 361.902 0.744226 -1.88651 0
M  V30 3601 C 362.235 1.76029 -0.820212 0
M  V30 3602 O 361.51 1.93782 0.166985 0
M  V30 3603 C 361.793 1.43128 -3.30434 0
M  V30 3604 C 361.646 0.43005 -4.47739 0
M  V30 3605 C 362.965 2.37031 -3.70816 0
M  V30 3606 H 360.084 0.269089 -0.68612 0
M  V30 3607 H 362.726 0.00713532 -1.89999 0
M  V30 3608 H 360.876 2.05956 -3.29415 0
M  V30 3609 H 362.548 -0.194816 -4.60888 0
M  V30 3610 H 360.791 -0.252522 -4.33064 0
M  V30 3611 H 361.462 0.948874 -5.43783 0
M  V30 3612 H 363.938 1.84263 -3.73077 0
M  V30 3613 H 362.814 2.82094 -4.70865 0
M  V30 3614 H 363.075 3.22864 -3.02012 0
M  V30 3615 N 362.134 1.5431 0.320358 0
M  V30 3616 C 363.044 1.86946 1.41734 0
M  V30 3617 C 364.06 0.761689 1.56443 0
M  V30 3618 O 365.236 1.05629 1.71477 0
M  V30 3619 C 362.301 2.09293 2.76401 0
M  V30 3620 C 361.362 3.33082 2.70841 0
M  V30 3621 C 360.595 3.54353 3.99086 0
M  V30 3622 O 360.818 2.79002 4.97508 0
M  V30 3623 O 359.752 4.47838 4.0215 0
M  V30 3624 H 363.578 2.80232 1.17062 0
M  V30 3625 H 361.163 1.40255 0.514673 0
M  V30 3626 H 363.045 2.25303 3.56113 0
M  V30 3627 H 361.72 1.19194 3.00956 0
M  V30 3628 H 360.627 3.22454 1.89668 0
M  V30 3629 H 361.96 4.23249 2.5124 0
M  V30 3630 N 363.613 -0.582584 1.46437 0
M  V30 3631 C 364.523 -1.71949 1.59595 0
M  V30 3632 C 365.539 -1.67264 0.479443 0
M  V30 3633 O 366.715 -1.87171 0.743579 0
M  V30 3634 C 363.78 -3.08452 1.58298 0
M  V30 3635 C 362.841 -3.244 2.81182 0
M  V30 3636 C 362.074 -4.54391 2.79937 0
M  V30 3637 O 362.297 -5.38287 1.8869 0
M  V30 3638 O 361.231 -4.73588 3.71481 0
M  V30 3639 H 365.057 -1.63795 2.55744 0
M  V30 3640 H 362.642 -0.749643 1.29231 0
M  V30 3641 H 364.524 -3.89732 1.60271 0
M  V30 3642 H 363.199 -3.17043 0.653094 0
M  V30 3643 H 362.106 -2.42613 2.84763 0
M  V30 3644 H 363.439 -3.20699 3.7338 0
M  V30 3645 N 365.091 -1.34144 -0.827227 0
M  V30 3646 C 366.021 -1.28005 -1.95287 0
M  V30 3647 C 367.002 -0.158321 -1.69362 0
M  V30 3648 O 368.187 -0.349987 -1.9102 0
M  V30 3649 C 365.317 -1.03036 -3.31664 0
M  V30 3650 C 364.271 -2.11628 -3.72019 0
M  V30 3651 C 363.597 -1.71854 -5.0633 0
M  V30 3652 C 364.897 -3.53417 -3.8457 0
M  V30 3653 H 366.591 -2.22187 -2.00682 0
M  V30 3654 H 364.137 -1.0696 -0.964135 0
M  V30 3655 H 366.09 -0.973863 -4.09993 0
M  V30 3656 H 364.814 -0.0529391 -3.26557 0
M  V30 3657 H 363.473 -2.16339 -2.95961 0
M  V30 3658 H 363.121 -0.727841 -4.97706 0
M  V30 3659 H 362.821 -2.44531 -5.34302 0
M  V30 3660 H 364.345 -1.67692 -5.87122 0
M  V30 3661 H 365.759 -3.51142 -4.5318 0
M  V30 3662 H 364.156 -4.24679 -4.2399 0
M  V30 3663 H 365.226 -3.91072 -2.86689 0
M  V30 3664 N 366.569 1.04691 -1.17803 0
M  V30 3665 C 367.794 1.81984 -0.994813 0
M  V30 3666 C 368.219 1.82586 0.452112 0
M  V30 3667 O 367.577 1.23854 1.324 0
M  V30 3668 C 367.625 3.2575 -1.54659 0
M  V30 3669 O 366.729 4.05267 -0.763728 0
M  V30 3670 H 366.07 0.562483 -0.352857 0
M  V30 3671 H 368.6 1.3189 -1.56417 0
M  V30 3672 H 368.61 3.76541 -1.57102 0
M  V30 3673 H 367.285 3.24627 -2.59981 0
M  V30 3674 H 365.862 3.63972 -0.811108 0
M  V30 3675 N 368.047 0.979072 1.23499 0
M  V30 3676 C 369.458 0.684391 1.73704 0
M  V30 3677 C 369.809 -0.799448 1.79174 0
M  V30 3678 O 368.934 -1.62531 1.42873 0
M  V30 3679 C 369.529 1.23564 3.15464 0
M  V30 3680 C 368.088 0.99063 3.6313 0
M  V30 3681 C 367.235 1.36416 2.41425 0
M  V30 3682 H 370.186 1.15307 1.09041 0
M  V30 3683 H 370.207 0.607417 3.7562 0
M  V30 3684 H 369.719 2.31561 3.1145 0
M  V30 3685 H 367.82 -0.0733136 3.72528 0
M  V30 3686 H 367.933 1.64427 4.5 0
M  V30 3687 H 366.297 0.782616 2.42378 0
M  V30 3688 H 367.08 2.45387 2.40083 0
M  V30 3689 N 369.525 -1.3858 0.750561 0
M  V30 3690 C 370.455 -2.33102 0.136237 0
M  V30 3691 C 371.436 -1.54713 -0.706965 0
M  V30 3692 O 372.621 -1.83043 -0.648769 0
M  V30 3693 C 369.751 -3.38882 -0.760017 0
M  V30 3694 C 368.705 -4.27995 -0.0197785 0
M  V30 3695 C 368.031 -5.24605 -1.03408 0
M  V30 3696 C 369.331 -5.09554 1.14684 0
M  V30 3697 H 371.025 -2.84726 0.925822 0
M  V30 3698 H 368.571 -1.36898 0.446654 0
M  V30 3699 H 370.524 -4.0397 -1.19943 0
M  V30 3700 H 369.248 -2.85734 -1.58189 0
M  V30 3701 H 367.907 -3.64409 0.400184 0
M  V30 3702 H 367.555 -4.67746 -1.84994 0
M  V30 3703 H 367.255 -5.85081 -0.543464 0
M  V30 3704 H 368.779 -5.9257 -1.47288 0
M  V30 3705 H 370.193 -5.67899 0.785118 0
M  V30 3706 H 368.59 -5.7925 1.56812 0
M  V30 3707 H 369.66 -4.4347 1.96118 0
M  V30 3708 N 371.003 -0.499398 -1.49478 0
M  V30 3709 C 371.966 0.268838 -2.27618 0
M  V30 3710 C 372.966 0.895383 -1.33565 0
M  V30 3711 O 374.156 0.760164 -1.56739 0
M  V30 3712 C 371.288 1.38559 -3.11471 0
M  V30 3713 H 372.481 -0.416812 -2.96989 0
M  V30 3714 H 370.034 -0.254313 -1.54217 0
M  V30 3715 H 370.769 2.10544 -2.46661 0
M  V30 3716 H 370.554 0.941797 -3.80621 0
M  V30 3717 H 372.044 1.92678 -3.70493 0
M  V30 3718 N 372.481 1.55866 -0.233164 0
M  V30 3719 C 373.411 2.23783 0.666599 0
M  V30 3720 C 374.392 1.21343 1.19205 0
M  V30 3721 O 375.577 1.4996 1.23392 0
M  V30 3722 C 372.707 2.92671 1.86978 0
M  V30 3723 C 371.661 4.01682 1.47768 0
M  V30 3724 C 370.987 4.57926 2.76058 0
M  V30 3725 C 372.287 5.18126 0.658993 0
M  V30 3726 H 373.981 2.99232 0.100306 0
M  V30 3727 H 371.527 1.43924 0.046804 0
M  V30 3728 H 373.48 3.3888 2.50476 0
M  V30 3729 H 372.204 2.14688 2.46123 0
M  V30 3730 H 370.863 3.56222 0.866106 0
M  V30 3731 H 370.511 3.76659 3.33372 0
M  V30 3732 H 370.211 5.31505 2.50552 0
M  V30 3733 H 371.735 5.06859 3.40479 0
M  V30 3734 H 373.149 5.60644 1.19795 0
M  V30 3735 H 371.546 5.98009 0.500552 0
M  V30 3736 H 372.616 4.83763 -0.331856 0
M  V30 3737 N 373.959 -0.0401083 1.57549 0
M  V30 3738 C 375.207 -0.731677 1.8839 0
M  V30 3739 C 375.528 -1.76481 0.829425 0
M  V30 3740 O 374.798 -1.95411 -0.1383 0
M  V30 3741 H 373.378 -0.273225 0.695239 0
M  V30 3742 H 376.04 -0.00867725 1.94898 0
M  V30 3743 H 375.136 -1.22816 2.86919 0
M  V30 3744 N 375.437 -1.54477 -0.31217 0
M  V30 3745 C 376.853 -1.45442 -0.657185 0
M  V30 3746 C 377.053 -0.63653 -1.91182 0
M  V30 3747 O 376.109 -0.139815 -2.52113 0
M  V30 3748 C 377.422 -2.89287 -0.82058 0
M  V30 3749 C 378.97 -2.9926 -0.917188 0
M  V30 3750 C 379.445 -4.44279 -1.11267 0
M  V30 3751 N 380.936 -4.4794 -1.17914 0
M  V30 3752 C 381.671 -5.57318 -1.34848 0
M  V30 3753 N 381.167 -6.76642 -1.48752 0
M  V30 3754 N 382.96 -5.44986 -1.37647 0
M  V30 3755 H 375.111 -2.06129 0.512313 0
M  V30 3756 H 377.374 -0.933088 0.167485 0
M  V30 3757 H 377.08 -3.51687 0.0302604 0
M  V30 3758 H 376.954 -3.36061 -1.71298 0
M  V30 3759 H 379.341 -2.36981 -1.75852 0
M  V30 3760 H 379.422 -2.558 -0.00101257 0
M  V30 3761 H 379.066 -5.07149 -0.27614 0
M  V30 3762 H 378.996 -4.85359 -2.04289 0
M  V30 3763 H 381.487 -3.61969 -1.08567 0
M  V30 3764 H 381.8 -7.55758 -1.61397 0
M  V30 3765 H 380.145 -6.79529 -1.45828 0
M  V30 3766 H 383.336 -4.50715 -1.26388 0
M  V30 3767 H 383.509 -6.3028 -1.50501 0
M  V30 3768 N 376.915 0.57481 -1.46744 0
M  V30 3769 C 378.162 1.33272 -1.52462 0
M  V30 3770 C 378.49 1.93669 -0.179572 0
M  V30 3771 O 377.745 1.7743 0.825664 0
M  V30 3772 C 378.044 2.476 -2.57738 0
M  V30 3773 C 377.71 2.05146 -4.01529 0
M  V30 3774 C 376.372 1.93284 -4.40676 0
M  V30 3775 C 378.724 1.72506 -4.91824 0
M  V30 3776 C 376.052 1.47049 -5.67973 0
M  V30 3777 C 378.404 1.27748 -6.19567 0
M  V30 3778 C 377.068 1.14468 -6.57612 0
M  V30 3779 H 376.338 0.487678 -0.557899 0
M  V30 3780 H 378.985 0.646456 -1.80259 0
M  V30 3781 H 377.29 3.21708 -2.23632 0
M  V30 3782 H 378.987 3.05807 -2.5939 0
M  V30 3783 H 375.577 2.15316 -3.7059 0
M  V30 3784 H 379.761 1.80552 -4.62293 0
M  V30 3785 H 375.017 1.35417 -5.96215 0
M  V30 3786 H 379.191 1.01547 -6.88957 0
M  V30 3787 H 376.818 0.78419 -7.56145 0
M  V30 3788 N 378.394 1.34581 0.820102 0
M  V30 3789 C 379.619 1.30333 1.61332 0
M  V30 3790 C 380.044 -0.119339 1.87721 0
M  V30 3791 O 379.402 -1.08197 1.45475 0
M  V30 3792 C 379.45 2.10258 2.92957 0
M  V30 3793 O 378.554 1.47404 3.85157 0
M  V30 3794 H 377.895 0.447488 0.490561 0
M  V30 3795 H 380.425 1.77425 1.01889 0
M  V30 3796 H 380.435 2.21718 3.42498 0
M  V30 3797 H 379.11 3.13693 2.73074 0
M  V30 3798 H 377.687 1.44703 3.43679 0
M  V30 3799 N 379.872 -1.04064 1.18357 0
M  V30 3800 C 380.802 -2.14001 0.934113 0
M  V30 3801 C 381.783 -1.69616 -0.128186 0
M  V30 3802 O 382.968 -1.94185 0.0244093 0
M  V30 3803 C 380.098 -3.44253 0.459066 0
M  V30 3804 C 379.052 -4.02261 1.46185 0
M  V30 3805 C 378.378 -5.27992 0.844322 0
M  V30 3806 C 379.678 -4.38432 2.83856 0
M  V30 3807 H 381.372 -2.35127 1.85352 0
M  V30 3808 H 378.918 -1.12998 0.892604 0
M  V30 3809 H 380.871 -4.20522 0.271907 0
M  V30 3810 H 379.595 -3.22813 -0.495912 0
M  V30 3811 H 378.254 -3.28074 1.63595 0
M  V30 3812 H 377.902 -5.02862 -0.117845 0
M  V30 3813 H 377.602 -5.67765 1.51384 0
M  V30 3814 H 379.126 -6.06938 0.667693 0
M  V30 3815 H 380.54 -5.05688 2.70098 0
M  V30 3816 H 378.937 -4.89254 3.47491 0
M  V30 3817 H 380.007 -3.4826 3.37406 0
M  V30 3818 N 381.35 -0.985608 -1.22978 0
M  V30 3819 C 382.578 -0.675582 -1.95559 0
M  V30 3820 C 382.993 0.758413 -1.72897 0
M  V30 3821 O 382.35 1.51094 -1.02357 0
M  V30 3822 C 382.401 -0.96293 -3.48439 0
M  V30 3823 O 382.122 -2.34057 -3.70336 0
M  V30 3824 C 383.623 -0.669585 -4.38214 0
M  V30 3825 H 380.843 -0.250523 -0.622478 0
M  V30 3826 H 383.387 -1.3184 -1.56328 0
M  V30 3827 H 381.542 -0.366033 -3.85667 0
M  V30 3828 H 381.956 -2.43424 -4.64591 0
M  V30 3829 H 383.43 -0.920967 -5.44263 0
M  V30 3830 H 383.907 0.396383 -4.37408 0
M  V30 3831 H 384.513 -1.2472 -4.06602 0
M  V30 3832 N 382.828 1.3818 -0.7579 0
M  V30 3833 C 384.239 1.82726 -0.383134 0
M  V30 3834 C 384.59 1.63214 1.08884 0
M  V30 3835 O 383.715 1.13566 1.84205 0
M  V30 3836 C 384.31 3.31728 -0.688631 0
M  V30 3837 C 382.869 3.74606 -0.367091 0
M  V30 3838 C 382.016 2.60896 -0.939599 0
M  V30 3839 H 384.967 1.26847 -0.953699 0
M  V30 3840 H 384.988 3.80487 0.0316492 0
M  V30 3841 H 384.5 3.45898 -1.76001 0
M  V30 3842 H 382.601 3.66013 0.697532 0
M  V30 3843 H 382.714 4.71215 -0.865658 0
M  V30 3844 H 381.078 2.52075 -0.3647 0
M  V30 3845 H 381.861 2.77864 -2.0161 0
M  V30 3846 N 384.306 0.507319 1.49211 0
M  V30 3847 C 385.269 -0.256763 2.27757 0
M  V30 3848 C 386.269 -0.888287 1.34038 0
M  V30 3849 O 387.459 -0.751841 1.5714 0
M  V30 3850 C 384.591 -1.36905 3.12202 0
M  V30 3851 H 385.784 0.432557 2.96764 0
M  V30 3852 H 383.337 0.262488 1.5408 0
M  V30 3853 H 384.072 -2.09233 2.47775 0
M  V30 3854 H 383.857 -0.921599 3.81115 0
M  V30 3855 H 385.347 -1.9071 3.7151 0
M  V30 3856 N 385.784 -1.5574 0.241426 0
M  V30 3857 C 386.694 -2.2479 -0.671305 0
M  V30 3858 C 387.71 -1.26217 -1.19772 0
M  V30 3859 O 388.886 -1.59079 -1.23514 0
M  V30 3860 C 385.951 -2.92966 -1.85396 0
M  V30 3861 C 385.012 -4.06935 -1.36756 0
M  V30 3862 C 384.245 -4.71851 -2.49384 0
M  V30 3863 O 384.468 -4.35823 -3.67987 0
M  V30 3864 O 383.402 -5.60467 -2.19454 0
M  V30 3865 H 387.228 -3.0349 -0.112966 0
M  V30 3866 H 384.813 -1.49397 0.0101513 0
M  V30 3867 H 386.695 -3.35927 -2.54423 0
M  V30 3868 H 385.37 -2.17211 -2.40002 0
M  V30 3869 H 384.277 -3.68503 -0.644726 0
M  V30 3870 H 385.61 -4.84492 -0.867647 0
M  V30 3871 N 387.262 0.0317525 -1.57568 0
M  V30 3872 C 388.51 0.721676 -1.88776 0
M  V30 3873 C 388.831 1.76039 -0.838772 0
M  V30 3874 O 388.101 1.95482 0.127935 0
M  V30 3875 H 386.681 0.269534 -0.696678 0
M  V30 3876 H 389.343 -0.00165879 -1.949 0
M  V30 3877 H 388.439 1.21293 -2.87566 0
M  V30 3878 N 388.74 1.54641 0.303973 0
M  V30 3879 C 390.017 1.64455 1.05896 0
M  V30 3880 C 390.397 0.490923 2.05312 0
M  V30 3881 O 389.745 -0.512685 2.22674 0
M  V30 3882 C 389.955 3.02331 1.74347 0
M  V30 3883 C 391.303 3.59045 2.26653 0
M  V30 3884 O 392.327 3.04764 1.84384 0
M  V30 3885 O 391.186 4.54081 3.04093 0
M  V30 3886 H 388.28 0.666729 0.489287 0
M  V30 3887 H 390.826 1.66986 0.302298 0
M  V30 3888 H 389.598 3.77734 1.02142 0
M  V30 3889 H 389.221 3.03565 2.56777 0
M  V30 3890 N 390.218 -0.567019 1.47046 0
M  V30 3891 C 391.446 -1.35027 1.56765 0
M  V30 3892 C 391.861 -1.8758 0.214316 0
M  V30 3893 O 391.218 -1.64471 -0.790919 0
M  V30 3894 C 391.269 -2.52698 2.58507 0
M  V30 3895 O 390.99 -2.0232 3.88585 0
M  V30 3896 C 392.491 -3.45043 2.78316 0
M  V30 3897 H 389.711 -0.41195 0.529658 0
M  V30 3898 H 392.255 -0.687832 1.92585 0
M  V30 3899 H 390.41 -3.149 2.25648 0
M  V30 3900 H 390.824 -2.79068 4.44096 0
M  V30 3901 H 392.298 -4.2405 3.53391 0
M  V30 3902 H 392.775 -3.97971 1.85784 0
M  V30 3903 H 393.381 -2.88665 3.12334 0
M  V30 3904 N 391.696 -1.35014 -0.812953 0
M  V30 3905 C 392.606 -1.2951 -1.95613 0
M  V30 3906 C 393.622 -0.20107 -1.72834 0
M  V30 3907 O 394.798 -0.42932 -1.96771 0
M  V30 3908 C 391.863 -1.06033 -3.30088 0
M  V30 3909 C 390.924 -2.24688 -3.65805 0
M  V30 3910 C 390.157 -2.02322 -4.93864 0
M  V30 3911 O 390.38 -0.986464 -5.61805 0
M  V30 3912 O 389.314 -2.89525 -5.27692 0
M  V30 3913 H 393.14 -2.25705 -2.03202 0
M  V30 3914 H 390.725 -1.15321 -0.949811 0
M  V30 3915 H 392.607 -0.94763 -4.10607 0
M  V30 3916 H 391.282 -0.128852 -3.23443 0
M  V30 3917 H 390.189 -2.41521 -2.85689 0
M  V30 3918 H 391.522 -3.16261 -3.77147 0
M  V30 3919 N 393.175 1.03435 -1.18907 0
M  V30 3920 C 394.085 2.15075 -0.937015 0
M  V30 3921 C 395.101 1.73706 0.101085 0
M  V30 3922 O 396.277 2.01232 -0.0822948 0
M  V30 3923 C 393.342 3.43458 -0.473057 0
M  V30 3924 C 392.403 3.99172 -1.57989 0
M  V30 3925 C 391.636 5.21427 -1.13797 0
M  V30 3926 O 391.859 5.704 0.000725941 0
M  V30 3927 O 390.793 5.69837 -1.9383 0
M  V30 3928 H 394.619 2.39198 -1.87131 0
M  V30 3929 H 392.204 1.13506 -0.971427 0
M  V30 3930 H 394.086 4.20811 -0.222702 0
M  V30 3931 H 392.761 3.20793 0.432869 0
M  V30 3932 H 391.668 3.23178 -1.88433 0
M  V30 3933 H 393.001 4.2619 -2.46217 0
M  V30 3934 N 394.653 0.992116 1.22453 0
M  V30 3935 C 395.93 0.583508 1.86694 0
M  V30 3936 C 396.31 -0.9392 1.89056 0
M  V30 3937 O 395.658 -1.82081 1.38053 0
M  V30 3938 C 395.868 1.20304 3.2761 0
M  V30 3939 C 397.216 1.30308 4.0411 0
M  V30 3940 O 398.24 1.15737 3.36873 0
M  V30 3941 O 397.099 1.53615 5.24466 0
M  V30 3942 H 394.193 0.198129 0.802916 0
M  V30 3943 H 396.739 1.08794 1.30238 0
M  V30 3944 H 395.511 2.24461 3.2052 0
M  V30 3945 H 395.134 0.684144 3.9167 0
M  V30 3946 N 396.131 -1.37776 0.765217 0
M  V30 3947 C 397.408 -1.93975 0.251596 0
M  V30 3948 C 397.788 -1.69949 -1.25222 0
M  V30 3949 O 397.136 -1.04457 -2.03226 0
M  V30 3950 C 397.346 -3.43487 0.617895 0
M  V30 3951 C 398.694 -4.20564 0.584029 0
M  V30 3952 O 399.718 -3.5182 0.556888 0
M  V30 3953 O 398.577 -5.43138 0.605291 0
M  V30 3954 H 395.671 -0.82509 0.0561806 0
M  V30 3955 H 398.217 -1.47101 0.846128 0
M  V30 3956 H 396.989 -3.5453 1.65602 0
M  V30 3957 H 396.612 -3.976 -0.00403411 0
M  V30 3958 N 397.609 -0.515225 -1.4894 0
M  V30 3959 C 398.857 0.0241671 -2.02086 0
M  V30 3960 C 399.178 1.3616 -1.3959 0
M  V30 3961 O 398.448 1.87841 -0.556121 0
M  V30 3962 H 397.028 0.0119203 -0.746905 0
M  V30 3963 H 399.69 -0.675702 -1.82812 0
M  V30 3964 H 398.786 0.143385 -3.1177 0
M  V30 3965 N 399.087 1.5561 -0.249682 0
M  V30 3966 C 400.334 1.99011 0.374287 0
M  V30 3967 C 400.662 1.13785 1.57744 0
M  V30 3968 O 399.917 0.189326 1.94782 0
M  V30 3969 C 400.216 3.4775 0.824887 0
M  V30 3970 C 399.882 4.50086 -0.270819 0
M  V30 3971 C 398.544 4.77791 -0.571746 0
M  V30 3972 C 400.896 5.11312 -1.01041 0
M  V30 3973 C 398.224 5.63997 -1.61629 0
M  V30 3974 C 400.576 5.98651 -2.0445 0
M  V30 3975 C 399.24 6.24688 -2.35204 0
M  V30 3976 H 398.51 0.728233 0.136961 0
M  V30 3977 H 401.157 1.88122 -0.358087 0
M  V30 3978 H 399.462 3.55985 1.63651 0
M  V30 3979 H 401.159 3.78721 1.31799 0
M  V30 3980 H 397.749 4.28592 -0.026136 0
M  V30 3981 H 401.933 4.89953 -0.791177 0
M  V30 3982 H 397.189 5.82425 -1.85988 0
M  V30 3983 H 401.363 6.45135 -2.62248 0
M  V30 3984 H 398.99 6.91281 -3.16282 0
M  V30 3985 N 400.565 -0.0233959 1.57583 0
M  V30 3986 C 401.811 -0.714119 1.89811 0
M  V30 3987 C 402.144 -1.74702 0.848113 0
M  V30 3988 O 401.419 -1.94023 -0.136135 0
M  V30 3989 C 401.702 -1.37853 3.32669 0
M  V30 3990 C 401.555 -0.358764 4.48367 0
M  V30 3991 C 402.874 -2.31101 3.7454 0
M  V30 3992 H 399.993 -0.25814 0.690314 0
M  V30 3993 H 402.635 0.0230927 1.89986 0
M  V30 3994 H 400.785 -2.00689 3.3265 0
M  V30 3995 H 402.457 0.268115 4.6052 0
M  V30 3996 H 400.7 0.321387 4.32608 0
M  V30 3997 H 401.371 -0.862242 5.45224 0
M  V30 3998 H 403.847 -1.78304 3.75961 0
M  V30 3999 H 402.723 -2.74567 4.75294 0
M  V30 4000 H 402.984 -3.18018 3.0711 0
M  V30 4001 N 402.043 -1.548 -0.295768 0
M  V30 4002 C 403.32 -1.65014 -1.05023 0
M  V30 4003 C 403.7 -0.501805 -2.05049 0
M  V30 4004 O 403.048 0.500869 -2.22943 0
M  V30 4005 C 403.258 -3.03252 -1.72741 0
M  V30 4006 C 404.606 -3.60242 -2.24746 0
M  V30 4007 O 405.63 -3.05737 -1.82765 0
M  V30 4008 O 404.489 -4.55687 -3.01681 0
M  V30 4009 H 401.583 -0.669314 -0.485744 0
M  V30 4010 H 404.129 -1.67144 -0.293438 0
M  V30 4011 H 402.901 -3.7827 -1.00138 0
M  V30 4012 H 402.524 -3.04922 -2.55163 0
M  V30 4013 N 403.521 0.559213 -1.47345 0
M  V30 4014 C 404.77 1.31281 -1.53128 0
M  V30 4015 C 405.083 1.94602 -0.197344 0
M  V30 4016 O 406.289 2.71173 -0.133154 0
M  V30 4017 C 404.745 2.38051 -2.69925 0
M  V30 4018 C 404.353 1.8093 -4.0984 0
M  V30 4019 C 406.097 3.14604 -2.84999 0
M  V30 4020 C 404.004 2.85468 -5.1794 0
M  V30 4021 H 402.934 0.493614 -0.569966 0
M  V30 4022 H 405.585 0.594155 -1.73615 0
M  V30 4023 H 403.967 3.12822 -2.42814 0
M  V30 4024 H 405.141 1.12544 -4.46845 0
M  V30 4025 H 403.456 1.16967 -3.99634 0
M  V30 4026 H 406.053 3.92666 -3.62929 0
M  V30 4027 H 406.396 3.68665 -1.93369 0
M  V30 4028 H 406.929 2.46945 -3.1187 0
M  V30 4029 H 403.668 2.36264 -6.1144 0
M  V30 4030 H 403.188 3.52269 -4.85455 0
M  V30 4031 H 404.867 3.48996 -5.44803 0
M  V30 4032 N 404.999 1.35443 0.805782 0
M  V30 4033 C 405.929 1.31095 1.93226 0
M  V30 4034 C 406.91 0.185244 1.69088 0
M  V30 4035 O 408.095 0.380332 1.90439 0
M  V30 4036 C 405.225 1.08299 3.29983 0
M  V30 4037 C 404.179 2.17519 3.68605 0
M  V30 4038 C 403.505 1.79887 5.03532 0
M  V30 4039 C 404.805 3.5949 3.78898 0
M  V30 4040 H 406.499 2.25352 1.97122 0
M  V30 4041 H 404.045 1.0848 0.946996 0
M  V30 4042 H 405.998 1.03897 4.08391 0
M  V30 4043 H 404.722 0.104885 3.26432 0
M  V30 4044 H 403.381 2.2102 2.92482 0
M  V30 4045 H 403.029 0.80693 4.96485 0
M  V30 4046 H 402.729 2.53001 5.30344 0
M  V30 4047 H 404.253 1.77011 5.84379 0
M  V30 4048 H 405.667 3.58307 4.47536 0
M  V30 4049 H 404.064 4.31371 4.1718 0
M  V30 4050 H 405.134 3.95584 2.80431 0
M  V30 4051 N 406.477 -1.02803 1.19454 0
M  V30 4052 C 407.387 -2.14575 0.948408 0
M  V30 4053 C 408.403 -1.73757 -0.091871 0
M  V30 4054 O 409.579 -2.01185 0.0929654 0
M  V30 4055 C 406.644 -3.43202 0.491265 0
M  V30 4056 C 405.705 -3.98328 1.60103 0
M  V30 4057 C 404.938 -5.20816 1.16561 0
M  V30 4058 O 405.161 -5.70392 0.0295238 0
M  V30 4059 O 404.095 -5.68801 1.96849 0
M  V30 4060 H 407.921 -2.38202 1.88397 0
M  V30 4061 H 405.506 -1.12989 0.977433 0
M  V30 4062 H 407.388 -4.20687 0.245015 0
M  V30 4063 H 406.063 -3.21018 -0.415851 0
M  V30 4064 H 404.97 -3.22174 1.90144 0
M  V30 4065 H 406.303 -4.24879 2.48473 0
M  V30 4066 N 407.956 -0.998596 -1.21925 0
M  V30 4067 C 409.181 -0.696015 -1.95372 0
M  V30 4068 C 409.606 0.733826 -1.73195 0
M  V30 4069 O 408.964 1.50242 -1.01474 0
M  V30 4070 C 409.012 -1.01466 -3.4603 0
M  V30 4071 O 408.116 -0.116415 -4.12236 0
M  V30 4072 H 407.457 -0.259938 -0.611006 0
M  V30 4073 H 409.987 -1.33711 -1.54863 0
M  V30 4074 H 409.997 -0.958855 -3.96573 0
M  V30 4075 H 408.672 -2.05653 -3.61497 0
M  V30 4076 H 407.249 -0.228193 -3.72201 0
M  V30 4077 N 409.434 1.37368 -0.772513 0
M  V30 4078 C 410.711 1.93839 -0.26188 0
M  V30 4079 C 411.091 1.7061 1.24319 0
M  V30 4080 O 410.439 1.05534 2.02669 0
M  V30 4081 C 410.649 3.43154 -0.636102 0
M  V30 4082 C 411.997 4.20249 -0.606324 0
M  V30 4083 O 413.021 3.5152 -0.575538 0
M  V30 4084 O 411.88 5.42809 -0.634086 0
M  V30 4085 H 408.974 0.82478 -0.0605555 0
M  V30 4086 H 411.52 1.4665 -0.853917 0
M  V30 4087 H 410.292 3.53647 -1.6748 0
M  V30 4088 H 409.915 3.97596 -0.0170516 0
M  V30 4089 N 410.912 0.523116 1.48665 0
M  V30 4090 C 411.842 -0.23231 2.32342 0
M  V30 4091 C 412.823 -0.941637 1.41659 0
M  V30 4092 O 414.008 -0.928751 1.70552 0
M  V30 4093 C 411.138 -1.28387 3.22698 0
M  V30 4094 C 410.092 -0.693098 4.22351 0
M  V30 4095 C 409.418 -1.8468 5.01794 0
M  V30 4096 C 410.718 0.33063 5.21252 0
M  V30 4097 H 412.412 0.466192 2.95748 0
M  V30 4098 H 409.958 0.225643 1.42221 0
M  V30 4099 H 411.911 -1.82024 3.80059 0
M  V30 4100 H 410.635 -2.01186 2.57278 0
M  V30 4101 H 409.294 -0.178299 3.66166 0
M  V30 4102 H 408.942 -2.56301 4.32804 0
M  V30 4103 H 408.642 -1.45747 5.69238 0
M  V30 4104 H 410.166 -2.38709 5.62006 0
M  V30 4105 H 411.58 -0.118407 5.73178 0
M  V30 4106 H 409.977 0.636974 5.9671 0
M  V30 4107 H 411.047 1.23883 4.68808 0
M  V30 4108 N 412.39 -1.55475 0.257931 0
M  V30 4109 C 413.337 -2.21837 -0.636939 0
M  V30 4110 C 414.307 -1.18596 -1.16294 0
M  V30 4111 O 415.492 -1.47081 -1.21539 0
M  V30 4112 C 412.632 -2.9301 -1.82317 0
M  V30 4113 C 411.745 -4.10931 -1.33265 0
M  V30 4114 C 410.88 -4.69791 -2.47931 0
M  V30 4115 C 409.919 -5.7994 -1.95796 0
M  V30 4116 N 409.056 -6.32935 -3.0387 0
M  V30 4117 H 413.896 -2.9793 -0.0643591 0
M  V30 4118 H 411.433 -1.47086 -0.0200031 0
M  V30 4119 H 413.391 -3.3248 -2.52018 0
M  V30 4120 H 412.021 -2.1937 -2.36805 0
M  V30 4121 H 411.073 -3.76699 -0.52931 0
M  V30 4122 H 412.385 -4.90417 -0.910654 0
M  V30 4123 H 411.539 -5.11892 -3.25656 0
M  V30 4124 H 410.278 -3.89545 -2.93438 0
M  V30 4125 H 409.283 -5.37305 -1.16546 0
M  V30 4126 H 410.508 -6.62043 -1.51246 0
M  V30 4127 H 408.454 -5.55591 -3.48791 0
M  V30 4128 H 408.371 -7.07645 -2.66035 0
M  V30 4129 H 409.639 -6.79695 -3.81621 0
M  V30 4130 N 413.868 0.0150385 -1.57593 0
M  V30 4131 C 415.145 0.7392 -1.81094 0
M  V30 4132 C 415.525 1.92817 -0.859344 0
M  V30 4133 O 414.873 2.28301 0.095362 0
M  V30 4134 C 415.083 1.15907 -3.29191 0
M  V30 4135 C 416.431 1.56918 -3.9454 0
M  V30 4136 O 417.455 1.25328 -3.33424 0
M  V30 4137 O 416.314 2.15604 -5.02173 0
M  V30 4138 H 413.408 0.358631 -0.745193 0
M  V30 4139 H 415.954 -0.00926156 -1.69697 0
M  V30 4140 H 414.726 0.310921 -3.90063 0
M  V30 4141 H 414.349 1.96711 -3.45529 0
M  V30 4142 N 415.346 1.54954 0.287554 0
M  V30 4143 C 416.623 1.65569 1.04146 0
M  V30 4144 C 417.003 0.512672 2.0478 0
M  V30 4145 O 416.351 -0.489038 2.23205 0
M  V30 4146 C 416.561 3.04163 1.71131 0
M  V30 4147 C 417.909 3.61429 2.22832 0
M  V30 4148 O 418.933 3.06702 1.81141 0
M  V30 4149 O 417.792 4.57281 2.9926 0
M  V30 4150 H 414.886 0.671881 0.482188 0
M  V30 4151 H 417.432 1.67297 0.28457 0
M  V30 4152 H 416.204 3.78796 0.981303 0
M  V30 4153 H 415.827 3.06271 2.53543 0
M  V30 4154 N 416.824 -0.551391 1.4764 0
M  V30 4155 C 418.101 -1.31229 1.45046 0
M  V30 4156 C 418.481 -2.10563 0.150527 0
M  V30 4157 O 417.829 -2.11374 -0.867956 0
M  V30 4158 C 418.039 -2.21189 2.69956 0
M  V30 4159 C 419.387 -2.82021 3.1741 0
M  V30 4160 O 420.411 -2.31488 2.70724 0
M  V30 4161 O 419.27 -3.73885 3.98588 0
M  V30 4162 H 416.364 -0.591193 0.578291 0
M  V30 4163 H 418.91 -0.569813 1.59847 0
M  V30 4164 H 417.682 -1.62207 3.56096 0
M  V30 4165 H 417.305 -3.02722 2.57769 0
M  V30 4166 N 418.302 -1.35869 -0.798587 0
M  V30 4167 C 419.265 -1.29307 -1.89242 0
M  V30 4168 C 420.265 -0.202747 -1.59517 0
M  V30 4169 O 421.455 -0.456957 -1.681 0
M  V30 4170 C 418.587 -1.00229 -3.25833 0
M  V30 4171 H 419.78 -2.26576 -1.96478 0
M  V30 4172 H 417.333 -1.20509 -0.995358 0
M  V30 4173 H 418.068 -0.033801 -3.24282 0
M  V30 4174 H 417.853 -1.79121 -3.48795 0
M  V30 4175 H 419.343 -0.98219 -4.05885 0
M  V30 4176 N 419.78 1.02168 -1.19998 0
M  V30 4177 C 421.026 1.75945 -1.00852 0
M  V30 4178 C 421.359 1.88702 0.458828 0
M  V30 4179 O 420.634 1.40911 1.34069 0
M  V30 4180 C 420.917 3.18154 -1.68671 0
M  V30 4181 C 420.77 3.13224 -3.22817 0
M  V30 4182 C 422.089 4.16711 -1.41561 0
M  V30 4183 H 419.208 0.638673 -0.367785 0
M  V30 4184 H 421.85 1.19222 -1.4794 0
M  V30 4185 H 420 3.66586 -1.28636 0
M  V30 4186 H 421.672 2.72635 -3.72112 0
M  V30 4187 H 419.915 2.50751 -3.53986 0
M  V30 4188 H 420.586 4.13728 -3.65422 0
M  V30 4189 H 423.062 3.76913 -1.76284 0
M  V30 4190 H 421.938 5.14391 -1.91553 0
M  V30 4191 H 422.199 4.40774 -0.342193 0
M  V30 4192 N 421.258 1.00505 1.21394 0
M  V30 4193 C 422.669 0.721082 1.72213 0
M  V30 4194 C 423.02 -0.761263 1.80829 0
M  V30 4195 O 422.145 -1.59464 1.46288 0
M  V30 4196 C 422.74 1.30228 3.12772 0
M  V30 4197 C 421.299 1.06743 3.60947 0
M  V30 4198 C 420.446 1.41507 2.38477 0
M  V30 4199 H 423.397 1.17594 1.06571 0
M  V30 4200 H 423.418 0.686955 3.74247 0
M  V30 4201 H 422.93 2.38115 3.06468 0
M  V30 4202 H 421.031 0.00572162 3.726 0
M  V30 4203 H 421.144 1.73936 4.46411 0
M  V30 4204 H 419.508 0.833852 2.40664 0
M  V30 4205 H 420.291 2.50424 2.34824 0
M  V30 4206 N 422.737 -1.36956 0.779787 0
M  V30 4207 C 424.148 -1.82094 0.412156 0
M  V30 4208 C 424.499 -1.64926 -1.06273 0
M  V30 4209 O 423.624 -1.16483 -1.82375 0
M  V30 4210 C 424.219 -3.3059 0.741319 0
M  V30 4211 C 422.778 -3.73974 0.426641 0
M  V30 4212 C 421.925 -2.59368 0.980987 0
M  V30 4213 H 424.876 -1.25314 0.973758 0
M  V30 4214 H 424.897 -3.80489 0.028887 0
M  V30 4215 H 424.409 -3.43054 1.81482 0
M  V30 4216 H 422.51 -3.67076 -0.639215 0
M  V30 4217 H 422.623 -4.69778 0.940515 0
M  V30 4218 H 420.987 -2.51463 0.404757 0
M  V30 4219 H 421.77 -2.74621 2.06005 0
M  V30 4220 N 424.215 -0.530993 -1.48385 0
M  V30 4221 C 425.463 0.00273189 -2.021 0
M  V30 4222 C 425.784 1.34672 -1.41027 0
M  V30 4223 O 425.054 1.8724 -0.576012 0
M  V30 4224 H 423.634 0.00399774 -0.746989 0
M  V30 4225 H 426.296 -0.695054 -1.82085 0
M  V30 4226 H 425.392 0.11031 -3.11905 0
M  V30 4227 N 425.693 1.55336 -0.266172 0
M  V30 4228 C 426.626 2.18256 0.666296 0
M  V30 4229 C 427.604 1.14064 1.1588 0
M  V30 4230 O 428.788 1.42546 1.23341 0
M  V30 4231 C 425.915 2.79867 1.90768 0
M  V30 4232 C 424.961 3.97283 1.55141 0
M  V30 4233 S 425.794 5.31694 0.637313 0
M  V30 4234 C 426.95 5.96769 1.88727 0
M  V30 4235 H 427.183 2.97008 0.131647 0
M  V30 4236 H 424.716 1.54317 -0.0504869 0
M  V30 4237 H 426.674 3.15996 2.62025 0
M  V30 4238 H 425.335 2.01025 2.41346 0
M  V30 4239 H 424.528 4.3905 2.4749 0
M  V30 4240 H 424.13 3.6253 0.919113 0
M  V30 4241 H 426.422 6.15458 2.83227 0
M  V30 4242 H 427.365 6.91752 1.51276 0
M  V30 4243 H 427.773 5.26034 2.04814 0
M  V30 4244 N 427.171 -0.0066808 1.57599 0
M  V30 4245 C 428.081 -1.01671 2.11424 0
M  V30 4246 C 429.097 -1.38143 1.05795 0
M  V30 4247 O 430.273 -1.47011 1.37658 0
M  V30 4248 C 427.338 -2.29192 2.60139 0
M  V30 4249 C 426.399 -1.99094 3.80342 0
M  V30 4250 C 425.632 -3.20535 4.26724 0
M  V30 4251 O 425.855 -4.3199 3.72479 0
M  V30 4252 O 424.789 -3.04924 5.18946 0
M  V30 4253 H 428.615 -0.589181 2.9793 0
M  V30 4254 H 426.2 -0.225091 1.47695 0
M  V30 4255 H 428.082 -3.0412 2.917 0
M  V30 4256 H 426.757 -2.71195 1.76733 0
M  V30 4257 H 425.664 -1.21663 3.53764 0
M  V30 4258 H 426.997 -1.61931 4.648 0
M  V30 4259 N 428.649 -1.55105 -0.279332 0
M  V30 4260 C 429.874 -1.7976 -1.03446 0
M  V30 4261 C 430.299 -0.565952 -1.79384 0
M  V30 4262 O 429.657 0.484259 -1.74713 0
M  V30 4263 C 429.705 -3.0179 -1.97371 0
M  V30 4264 O 428.809 -2.76432 -3.06038 0
M  V30 4265 H 428.15 -0.594334 -0.29608 0
M  V30 4266 H 430.68 -2.02235 -0.310165 0
M  V30 4267 H 430.69 -3.30351 -2.39441 0
M  V30 4268 H 429.365 -3.91085 -1.4151 0
M  V30 4269 H 427.942 -2.58949 -2.68328 0
M  V30 4270 N 430.127 0.543554 -1.4793 0
M  V30 4271 C 431.057 1.65888 -1.64327 0
M  V30 4272 C 432.038 1.62818 -0.492383 0
M  V30 4273 O 433.223 1.80226 -0.723338 0
M  V30 4274 C 430.353 3.04506 -1.67013 0
M  V30 4275 C 429.307 3.2243 -2.81466 0
M  V30 4276 C 428.633 4.61972 -2.69233 0
M  V30 4277 C 429.933 3.06496 -4.22915 0
M  V30 4278 H 431.627 1.52421 -2.57698 0
M  V30 4279 H 429.173 0.731849 -1.24016 0
M  V30 4280 H 431.126 3.82391 -1.77074 0
M  V30 4281 H 429.85 3.18964 -0.70212 0
M  V30 4282 H 428.509 2.46957 -2.70938 0
M  V30 4283 H 428.157 4.73247 -1.7043 0
M  V30 4284 H 427.857 4.74911 -3.46025 0
M  V30 4285 H 429.381 5.41974 -2.81242 0
M  V30 4286 H 430.795 3.74186 -4.34348 0
M  V30 4287 H 429.192 3.30938 -5.006 0
M  V30 4288 H 430.262 2.03077 -4.40327 0
M  V30 4289 N 431.605 1.3629 0.791371 0
M  V30 4290 C 432.854 1.29742 1.54434 0
M  V30 4291 C 433.167 -0.121729 1.95221 0
M  V30 4292 O 434.373 -0.309579 2.69729 0
M  V30 4293 C 432.829 2.27623 2.78776 0
M  V30 4294 C 432.437 3.74963 2.45166 0
M  V30 4295 C 434.181 2.30047 3.56761 0
M  V30 4296 C 432.088 4.64626 3.65891 0
M  V30 4297 H 431.018 0.482113 0.579727 0
M  V30 4298 H 433.669 1.61642 0.868565 0
M  V30 4299 H 432.051 1.88714 3.48142 0
M  V30 4300 H 433.225 4.22596 1.83709 0
M  V30 4301 H 431.54 3.75295 1.80396 0
M  V30 4302 H 434.137 2.94247 4.46456 0
M  V30 4303 H 434.48 1.30846 3.95203 0
M  V30 4304 H 435.013 2.67563 2.94372 0
M  V30 4305 H 431.752 5.64883 3.32547 0
M  V30 4306 H 431.272 4.2171 4.26521 0
M  V30 4307 H 432.951 4.80801 4.32943 0
M  V30 4308 N 433.083 -1.0153 1.20538 0
M  V30 4309 C 434.308 -1.79283 1.04271 0
M  V30 4310 C 434.733 -1.8372 -0.403544 0
M  V30 4311 O 434.091 -1.27321 -1.2907 0
M  V30 4312 C 434.139 -3.21535 1.63241 0
M  V30 4313 O 433.243 -4.03099 0.870908 0
M  V30 4314 H 432.584 -0.55293 0.367647 0
M  V30 4315 H 435.114 -1.27696 1.59859 0
M  V30 4316 H 435.124 -3.72243 1.6703 0
M  V30 4317 H 433.799 -3.1762 2.68497 0
M  V30 4318 H 432.376 -3.61693 0.907323 0
M  V30 4319 N 434.561 -1.01147 -1.20859 0
M  V30 4320 C 435.524 -0.582224 -2.21682 0
M  V30 4321 C 436.524 0.344887 -1.57058 0
M  V30 4322 O 437.714 0.134281 -1.73682 0
M  V30 4323 C 434.846 0.150496 -3.40568 0
M  V30 4324 H 436.039 -1.47408 -2.61172 0
M  V30 4325 H 433.592 -0.800695 -1.34233 0
M  V30 4326 H 434.327 1.0575 -3.06574 0
M  V30 4327 H 434.112 -0.515444 -3.88697 0
M  V30 4328 H 435.602 0.438344 -4.15293 0
M  V30 4329 N 436.039 1.36541 -0.78704 0
M  V30 4330 C 437.45 1.81873 -0.421807 0
M  V30 4331 C 437.801 1.65487 1.05397 0
M  V30 4332 O 436.926 1.17448 1.81755 0
M  V30 4333 C 437.521 3.30192 -0.758841 0
M  V30 4334 C 436.08 3.73743 -0.446468 0
M  V30 4335 C 435.227 2.58844 -0.994728 0
M  V30 4336 H 438.178 1.24796 -0.98039 0
M  V30 4337 H 438.199 3.80468 -0.0490648 0
M  V30 4338 H 437.711 3.42087 -1.83299 0
M  V30 4339 H 435.812 3.6741 0.619739 0
M  V30 4340 H 435.925 4.69272 -0.965415 0
M  V30 4341 H 434.289 2.51245 -0.418087 0
M  V30 4342 H 435.072 2.73525 -2.07458 0
M  V30 4343 N 437.518 0.538854 1.48102 0
M  V30 4344 C 438.448 -0.207654 2.32575 0
M  V30 4345 C 439.429 -0.926559 1.4265 0
M  V30 4346 O 440.614 -0.91061 1.71527 0
M  V30 4347 C 437.744 -1.24957 3.24042 0
M  V30 4348 C 436.698 -0.648263 4.23062 0
M  V30 4349 C 436.024 -1.79348 5.03725 0
M  V30 4350 C 437.324 0.385897 5.20872 0
M  V30 4351 H 439.018 0.497534 2.95237 0
M  V30 4352 H 436.564 0.240715 1.41974 0
M  V30 4353 H 438.517 -1.77983 3.81969 0
M  V30 4354 H 437.241 -1.98446 2.59397 0
M  V30 4355 H 435.9 -0.139452 3.66335 0
M  V30 4356 H 435.548 -2.51696 4.35498 0
M  V30 4357 H 435.248 -1.39702 5.70751 0
M  V30 4358 H 436.772 -2.32735 5.64506 0
M  V30 4359 H 438.186 -0.057607 5.73271 0
M  V30 4360 H 436.583 0.700227 5.96001 0
M  V30 4361 H 437.653 1.28848 4.67468 0
M  V30 4362 N 438.996 -1.55193 0.274407 0
M  V30 4363 C 440.242 -1.99877 -0.343086 0
M  V30 4364 C 440.575 -1.16256 -1.55558 0
M  V30 4365 O 439.85 -0.232462 -1.93106 0
M  V30 4366 C 440.133 -3.52706 -0.725965 0
M  V30 4367 C 439.986 -4.47081 0.493818 0
M  V30 4368 C 441.305 -4.11422 -1.56268 0
M  V30 4369 H 438.424 -0.726625 -0.123229 0
M  V30 4370 H 441.066 -1.86136 0.38121 0
M  V30 4371 H 439.216 -3.64546 -1.34307 0
M  V30 4372 H 440.888 -4.47186 1.13237 0
M  V30 4373 H 439.131 -4.1877 1.13201 0
M  V30 4374 H 439.802 -5.51699 0.18217 0
M  V30 4375 H 442.278 -4.02855 -1.04151 0
M  V30 4376 H 441.154 -5.18568 -1.79939 0
M  V30 4377 H 441.415 -3.61607 -2.54348 0
M  V30 4378 N 440.474 -0.00167713 -1.576 0
M  V30 4379 C 441.421 0.989195 -2.08527 0
M  V30 4380 C 442.391 1.34031 -0.981065 0
M  V30 4381 O 443.576 1.43839 -1.2536 0
M  V30 4382 C 440.716 2.27537 -2.59463 0
M  V30 4383 C 439.829 1.98314 -3.83791 0
M  V30 4384 C 438.964 3.21025 -4.23222 0
M  V30 4385 C 438.003 2.87495 -5.40382 0
M  V30 4386 N 437.14 4.02749 -5.75098 0
M  V30 4387 H 441.98 0.547973 -2.92919 0
M  V30 4388 H 439.517 0.258917 -1.44803 0
M  V30 4389 H 441.475 3.02729 -2.87073 0
M  V30 4390 H 440.105 2.69325 -1.77943 0
M  V30 4391 H 439.157 1.13482 -3.63078 0
M  V30 4392 H 440.469 1.69601 -4.69081 0
M  V30 4393 H 439.623 4.04561 -4.52123 0
M  V30 4394 H 438.362 3.52877 -3.36644 0
M  V30 4395 H 437.367 2.02367 -5.11202 0
M  V30 4396 H 438.592 2.56889 -6.28637 0
M  V30 4397 H 436.538 4.34494 -4.91478 0
M  V30 4398 H 436.455 3.77566 -6.54966 0
M  V30 4399 H 437.723 4.87068 -6.08592 0
M  V30 4400 N 441.952 1.55251 0.271103 0
M  V30 4401 C 443.18 1.79974 1.02064 0
M  V30 4402 C 443.595 0.574003 1.79863 0
M  V30 4403 O 442.952 -0.456962 1.76686 0
M  V30 4404 C 443.003 3.02603 1.97772 0
M  V30 4405 O 442.724 4.20443 1.23124 0
M  V30 4406 C 444.225 3.39944 2.84522 0
M  V30 4407 H 441.445 0.599489 0.301419 0
M  V30 4408 H 443.989 2.02268 0.301313 0
M  V30 4409 H 442.144 2.8243 2.65165 0
M  V30 4410 H 442.558 4.89783 1.87651 0
M  V30 4411 H 444.032 4.28915 3.47471 0
M  V30 4412 H 444.509 2.59432 3.54389 0
M  V30 4413 H 445.115 3.62383 2.22618 0
M  V30 4414 N 443.43 -0.535701 1.48216 0
M  V30 4415 C 444.36 -1.65014 1.65204 0
M  V30 4416 C 445.341 -1.62554 0.501011 0
M  V30 4417 O 446.526 -1.7984 0.732886 0
M  V30 4418 C 443.656 -3.03616 1.68626 0
M  V30 4419 C 442.61 -3.20932 2.83172 0
M  V30 4420 C 441.936 -4.60537 2.71679 0
M  V30 4421 C 443.236 -3.04249 4.24535 0
M  V30 4422 H 444.93 -1.51053 2.58502 0
M  V30 4423 H 442.476 -0.725262 1.24402 0
M  V30 4424 H 444.429 -3.81446 1.79099 0
M  V30 4425 H 443.153 -3.18587 0.719026 0
M  V30 4426 H 441.812 -2.45517 2.72244 0
M  V30 4427 H 441.46 -4.72336 1.72937 0
M  V30 4428 H 441.16 -4.73069 3.48538 0
M  V30 4429 H 442.684 -5.40475 2.84112 0
M  V30 4430 H 444.098 -3.71877 4.36326 0
M  V30 4431 H 442.495 -3.28278 5.02348 0
M  V30 4432 H 443.565 -2.00739 4.41397 0
M  V30 4433 N 444.908 -1.36708 -0.784132 0
M  V30 4434 C 445.818 -1.3363 -1.92822 0
M  V30 4435 C 446.834 -0.237686 -1.72369 0
M  V30 4436 O 448.01 -0.470962 -1.95816 0
M  V30 4437 C 445.075 -1.13011 -3.27764 0
M  V30 4438 C 444.136 -2.32397 -3.60957 0
M  V30 4439 C 443.369 -2.12752 -4.89461 0
M  V30 4440 O 443.592 -1.10541 -5.59586 0
M  V30 4441 O 442.526 -3.00653 -5.21432 0
M  V30 4442 H 446.352 -2.29964 -1.98369 0
M  V30 4443 H 443.937 -1.1731 -0.925136 0
M  V30 4444 H 445.819 -1.03451 -4.08504 0
M  V30 4445 H 444.494 -0.19743 -3.23097 0
M  V30 4446 H 443.401 -2.47527 -2.80502 0
M  V30 4447 H 444.734 -3.2419 -3.70354 0
M  V30 4448 N 446.386 1.0089 -1.21074 0
M  V30 4449 C 447.333 2.09588 -0.966512 0
M  V30 4450 C 448.303 1.65761 0.106089 0
M  V30 4451 O 449.488 1.90758 -0.0402287 0
M  V30 4452 C 446.628 3.40958 -0.533058 0
M  V30 4453 C 445.741 3.9822 -1.67467 0
M  V30 4454 C 444.876 5.17682 -1.19076 0
M  V30 4455 C 443.915 5.67043 -2.30496 0
M  V30 4456 N 443.052 6.77759 -1.83267 0
M  V30 4457 H 447.892 2.29815 -1.89708 0
M  V30 4458 H 445.429 1.12689 -0.945489 0
M  V30 4459 H 447.387 4.1637 -0.263019 0
M  V30 4460 H 446.017 3.20781 0.360505 0
M  V30 4461 H 445.069 3.1983 -2.05944 0
M  V30 4462 H 446.381 4.3085 -2.51336 0
M  V30 4463 H 445.535 6.00326 -0.877151 0
M  V30 4464 H 444.274 4.86635 -0.322066 0
M  V30 4465 H 443.279 4.82999 -2.62664 0
M  V30 4466 H 444.504 6.00121 -3.17855 0
M  V30 4467 H 442.45 6.48527 -0.987356 0
M  V30 4468 H 442.367 7.09624 -2.60711 0
M  V30 4469 H 443.635 7.63949 -1.54928 0
M  V30 4470 N 447.864 1.01787 1.20321 0
M  V30 4471 C 448.774 0.598898 2.26827 0
M  V30 4472 C 449.79 -0.36418 1.70146 0
M  V30 4473 O 450.966 -0.224812 2.00141 0
M  V30 4474 C 448.031 -0.0549769 3.46656 0
M  V30 4475 C 447.092 0.954205 4.18561 0
M  V30 4476 C 446.325 0.331439 5.3267 0
M  V30 4477 O 446.548 -0.86851 5.63749 0
M  V30 4478 O 445.482 1.0488 5.92692 0
M  V30 4479 H 449.308 1.48562 2.64883 0
M  V30 4480 H 446.893 0.787434 1.26964 0
M  V30 4481 H 448.775 -0.420102 4.19301 0
M  V30 4482 H 447.45 -0.915876 3.10473 0
M  V30 4483 H 446.357 1.37072 3.48083 0
M  V30 4484 H 447.69 1.78511 4.58688 0
M  V30 4485 N 449.342 -1.36122 0.79427 0
M  V30 4486 C 450.252 -2.33769 0.197296 0
M  V30 4487 C 451.268 -1.61276 -0.653153 0
M  V30 4488 O 452.444 -1.9323 -0.5678 0
M  V30 4489 C 449.509 -3.40474 -0.654098 0
M  V30 4490 C 448.57 -4.28759 0.215411 0
M  V30 4491 C 447.803 -5.30368 -0.595443 0
M  V30 4492 O 448.026 -5.40211 -1.83107 0
M  V30 4493 O 446.96 -6.019 0.00721351 0
M  V30 4494 H 450.786 -2.86597 1.00478 0
M  V30 4495 H 448.371 -1.38676 0.555818 0
M  V30 4496 H 450.253 -4.05703 -1.13944 0
M  V30 4497 H 448.928 -2.89937 -1.43938 0
M  V30 4498 H 447.835 -3.66554 0.747615 0
M  V30 4499 H 449.168 -4.82661 0.964332 0
M  V30 4500 N 450.82 -0.546701 -1.47814 0
M  V30 4501 C 451.73 0.21026 -2.33656 0
M  V30 4502 C 452.746 0.922413 -1.47538 0
M  V30 4503 O 453.922 0.893652 -1.80488 0
M  V30 4504 C 450.987 1.23348 -3.24016 0
M  V30 4505 C 450.048 0.529883 -4.26017 0
M  V30 4506 C 449.281 1.50435 -5.12059 0
M  V30 4507 O 449.504 2.73837 -5.00369 0
M  V30 4508 O 448.438 1.03459 -5.92942 0
M  V30 4509 H 452.264 -0.493605 -2.99662 0
M  V30 4510 H 449.849 -0.307427 -1.46203 0
M  V30 4511 H 451.731 1.82438 -3.79861 0
M  V30 4512 H 450.406 1.91945 -2.60651 0
M  V30 4513 H 449.313 -0.101948 -3.73961 0
M  V30 4514 H 450.646 -0.11445 -4.92067 0
M  V30 4515 N 452.299 1.55045 -0.282633 0
M  V30 4516 C 453.246 2.22822 0.601566 0
M  V30 4517 C 454.216 1.20431 1.14392 0
M  V30 4518 O 455.401 1.48996 1.19184 0
M  V30 4519 C 452.541 2.95873 1.77632 0
M  V30 4520 C 451.654 4.12999 1.26711 0
M  V30 4521 C 450.789 4.73676 2.40426 0
M  V30 4522 C 449.828 5.82981 1.86545 0
M  V30 4523 N 448.965 6.3769 2.93762 0
M  V30 4524 H 453.805 2.97995 0.0169528 0
M  V30 4525 H 451.342 1.471 -0.00339964 0
M  V30 4526 H 453.3 3.36447 2.46697 0
M  V30 4527 H 451.93 2.2311 2.33285 0
M  V30 4528 H 450.982 3.77494 0.469314 0
M  V30 4529 H 452.294 4.91803 0.832518 0
M  V30 4530 H 451.448 5.17008 3.17471 0
M  V30 4531 H 450.187 3.94164 2.87203 0
M  V30 4532 H 449.192 5.39092 1.07983 0
M  V30 4533 H 450.417 6.64366 1.40694 0
M  V30 4534 H 448.363 5.61069 3.39908 0
M  V30 4535 H 448.28 7.11788 2.54744 0
M  V30 4536 H 449.548 6.8568 3.7076 0
M  V30 4537 N 453.777 0.010035 1.57597 0
M  V30 4538 C 455.054 -0.710296 1.82248 0
M  V30 4539 C 455.434 -1.91426 0.889911 0
M  V30 4540 O 454.782 -2.28424 -0.0590292 0
M  V30 4541 C 454.992 -1.10655 3.30993 0
M  V30 4542 C 456.34 -1.50621 3.96987 0
M  V30 4543 O 457.364 -1.20007 3.35375 0
M  V30 4544 O 456.223 -2.07587 5.05539 0
M  V30 4545 H 453.317 -0.34673 0.750804 0
M  V30 4546 H 455.863 0.0362578 1.69661 0
M  V30 4547 H 454.635 -0.248826 3.90508 0
M  V30 4548 H 454.258 -1.91189 3.48615 0
M  V30 4549 N 455.255 -1.55392 -0.262866 0
M  V30 4550 C 456.185 -1.91978 -1.32917 0
M  V30 4551 C 457.166 -0.7828 -1.51017 0
M  V30 4552 O 458.351 -1.04178 -1.63892 0
M  V30 4553 C 455.481 -2.20055 -2.68687 0
M  V30 4554 C 454.435 -3.35854 -2.65304 0
M  V30 4555 C 453.761 -3.49435 -4.04721 0
M  V30 4556 C 455.061 -4.71977 -2.23685 0
M  V30 4557 H 456.755 -2.81292 -1.02544 0
M  V30 4558 H 454.301 -1.3534 -0.491846 0
M  V30 4559 H 456.254 -2.44237 -3.43404 0
M  V30 4560 H 454.978 -1.27551 -3.00663 0
M  V30 4561 H 453.637 -3.11655 -1.93045 0
M  V30 4562 H 453.285 -2.54379 -4.33936 0
M  V30 4563 H 452.985 -4.27297 -4.0335 0
M  V30 4564 H 454.509 -3.7592 -4.81161 0
M  V30 4565 H 455.923 -4.95637 -2.88127 0
M  V30 4566 H 454.32 -5.52828 -2.33456 0
M  V30 4567 H 455.39 -4.70115 -1.18827 0
M  V30 4568 N 456.733 0.527833 -1.48498 0
M  V30 4569 C 457.979 1.28545 -1.56857 0
M  V30 4570 C 458.312 1.92678 -0.242651 0
M  V30 4571 O 457.587 1.79394 0.751545 0
M  V30 4572 C 457.87 2.37314 -2.70839 0
M  V30 4573 C 457.723 1.77858 -4.13142 0
M  V30 4574 C 459.042 3.39068 -2.80573 0
M  V30 4575 H 456.161 0.466006 -0.570971 0
M  V30 4576 H 458.803 0.587784 -1.8068 0
M  V30 4577 H 456.953 2.96821 -2.50658 0
M  V30 4578 H 458.625 1.22385 -4.44769 0
M  V30 4579 H 456.868 1.08383 -4.20042 0
M  V30 4580 H 457.539 2.56624 -4.88721 0
M  V30 4581 H 460.015 2.89518 -2.98862 0
M  V30 4582 H 458.891 4.12566 -3.6205 0
M  V30 4583 H 459.152 3.9975 -1.88818 0
M  V30 4584 N 458.211 1.37122 0.776871 0
M  V30 4585 C 459.144 1.26835 1.89705 0
M  V30 4586 C 460.122 0.14992 1.61907 0
M  V30 4587 O 461.306 0.323242 1.85708 0
M  V30 4588 C 458.433 0.95986 3.24814 0
M  V30 4589 C 457.479 2.09447 3.7153 0
M  V30 4590 S 458.312 3.71368 3.85806 0
M  V30 4591 C 459.468 3.42659 5.23771 0
M  V30 4592 H 459.701 2.21647 1.98141 0
M  V30 4593 H 457.234 1.22685 0.937433 0
M  V30 4594 H 459.192 0.788696 4.02852 0
M  V30 4595 H 457.853 0.0293137 3.14086 0
M  V30 4596 H 457.046 1.8335 4.69467 0
M  V30 4597 H 456.648 2.2255 3.00578 0
M  V30 4598 H 458.94 2.9733 6.0877 0
M  V30 4599 H 459.883 4.39905 5.54878 0
M  V30 4600 H 460.291 2.77708 4.91466 0
M  V30 4601 N 459.689 -1.00246 1.21608 0
M  V30 4602 C 460.919 -1.77373 1.05935 0
M  V30 4603 C 461.327 -1.85059 -0.393686 0
M  V30 4604 O 460.67 -1.31289 -1.28487 0
M  V30 4605 C 460.732 -3.22705 1.58435 0
M  V30 4606 C 460.396 -3.38591 3.06929 0
M  V30 4607 C 461.393 -3.2667 4.04454 0
M  V30 4608 C 459.078 -3.6395 3.46187 0
M  V30 4609 C 461.072 -3.39877 5.39224 0
M  V30 4610 C 458.759 -3.768 4.81108 0
M  V30 4611 C 459.757 -3.6477 5.77436 0
M  V30 4612 O 459.445 -3.77206 7.09909 0
M  V30 4613 H 459.177 -0.56419 0.372378 0
M  V30 4614 H 461.731 -1.26971 1.61454 0
M  V30 4615 H 459.961 -3.74255 0.973147 0
M  V30 4616 H 461.65 -3.81515 1.38568 0
M  V30 4617 H 462.416 -3.06999 3.75468 0
M  V30 4618 H 458.295 -3.72395 2.71741 0
M  V30 4619 H 461.839 -3.30404 6.14393 0
M  V30 4620 H 457.736 -3.95975 5.09779 0
M  V30 4621 H 458.504 -3.94138 7.17355 0
M  V30 4622 N 461.167 -1.02423 -1.1978 0
M  V30 4623 C 462.392 -0.7373 -1.93852 0
M  V30 4624 C 462.817 0.696923 -1.74713 0
M  V30 4625 O 462.175 1.48056 -1.04638 0
M  V30 4626 C 462.223 -1.08783 -3.438 0
M  V30 4627 O 461.327 -0.20383 -4.11896 0
M  V30 4628 H 460.668 -0.27284 -0.605355 0
M  V30 4629 H 463.198 -1.36966 -1.51992 0
M  V30 4630 H 463.208 -1.04276 -3.9445 0
M  V30 4631 H 461.883 -2.13274 -3.57053 0
M  V30 4632 H 460.46 -0.307091 -3.71633 0
M  V30 4633 N 462.645 1.35699 -0.801477 0
M  V30 4634 C 463.592 2.29876 -0.206294 0
M  V30 4635 C 464.562 1.52565 0.656752 0
M  V30 4636 O 465.747 1.81024 0.602906 0
M  V30 4637 C 462.887 3.39052 0.643272 0
M  V30 4638 C 462 4.31335 -0.239644 0
M  V30 4639 C 461.135 5.27599 0.61744 0
M  V30 4640 C 460.174 6.11521 -0.26619 0
M  V30 4641 N 459.311 6.99938 0.550571 0
M  V30 4642 H 464.151 2.80187 -1.01484 0
M  V30 4643 H 461.688 1.37902 -0.511997 0
M  V30 4644 H 463.646 4.0101 1.15094 0
M  V30 4645 H 462.276 2.9003 1.41713 0
M  V30 4646 H 461.328 3.70426 -0.865381 0
M  V30 4647 H 462.64 4.90243 -0.919985 0
M  V30 4648 H 461.794 5.94906 1.19045 0
M  V30 4649 H 460.533 4.69176 1.33137 0
M  V30 4650 H 459.538 5.43166 -0.851507 0
M  V30 4651 H 460.763 6.72022 -0.9779 0
M  V30 4652 H 458.709 6.44008 1.24856 0
M  V30 4653 H 458.626 7.55966 -0.071832 0
M  V30 4654 H 459.894 7.71599 1.10702 0
M  V30 4655 N 464.123 0.554532 1.47522 0
M  V30 4656 C 465.363 0.0317994 2.04375 0
M  V30 4657 C 465.727 -1.29242 1.41988 0
M  V30 4658 O 466.928 -1.90269 1.89872 0
M  V30 4659 C 465.199 -0.0623344 3.57346 0
M  V30 4660 S 466.758 -0.531578 4.35568 0
M  V30 4661 H 463.576 0.0238553 0.7106 0
M  V30 4662 H 466.178 0.74066 1.80927 0
M  V30 4663 H 464.882 0.905857 4.00278 0
M  V30 4664 H 464.413 -0.794831 3.85287 0
M  V30 4665 H 466.428 -1.79175 4.62721 0
M  V30 4666 N 465.601 -1.54893 0.290851 0
M  V30 4667 C 466.533 -2.20564 -0.623236 0
M  V30 4668 C 467.546 -1.19519 -1.1054 0
M  V30 4669 O 468.735 -1.46165 -1.02459 0
M  V30 4670 C 465.835 -2.83033 -1.86401 0
M  V30 4671 C 465.008 -4.09916 -1.52604 0
M  V30 4672 C 464.067 -4.56284 -2.62091 0
M  V30 4673 O 463.093 -5.2171 -2.27612 0
M  V30 4674 N 464.295 -4.27746 -3.92446 0
M  V30 4675 H 467.06 -2.99638 -0.0610915 0
M  V30 4676 H 464.621 -1.61508 0.112615 0
M  V30 4677 H 466.613 -3.1099 -2.58973 0
M  V30 4678 H 465.183 -2.0786 -2.33481 0
M  V30 4679 H 464.403 -3.89078 -0.633424 0
M  V30 4680 H 465.691 -4.92554 -1.27547 0
M  V30 4681 H 465.089 -3.7531 -4.23272 0
M  V30 4682 H 463.646 -4.60437 -4.61347 0
M  V30 4683 N 467.08 -0.0183926 -1.57589 0
M  V30 4684 C 468.496 0.337897 -1.55982 0
M  V30 4685 C 468.696 1.73604 -1.02294 0
M  V30 4686 O 467.752 2.43589 -0.664895 0
M  V30 4687 C 469.065 0.196305 -3.00059 0
M  V30 4688 C 470.613 0.269875 -3.11834 0
M  V30 4689 C 471.088 0.157197 -4.5773 0
M  V30 4690 N 472.579 0.214521 -4.62703 0
M  V30 4691 C 473.314 0.150955 -5.73201 0
M  V30 4692 N 472.81 0.0369212 -6.9279 0
M  V30 4693 N 474.603 0.204162 -5.61729 0
M  V30 4694 H 466.754 -0.93279 -1.90821 0
M  V30 4695 H 469.017 -0.359253 -0.877292 0
M  V30 4696 H 468.723 -0.766383 -3.43248 0
M  V30 4697 H 468.597 0.970908 -3.6449 0
M  V30 4698 H 470.984 1.22302 -2.68563 0
M  V30 4699 H 471.065 -0.534918 -2.50144 0
M  V30 4700 H 470.709 -0.792479 -5.01679 0
M  V30 4701 H 470.639 0.980717 -5.17387 0
M  V30 4702 H 473.13 0.303238 -3.76681 0
M  V30 4703 H 473.443 -0.00518321 -7.728 0
M  V30 4704 H 471.788 0.0022886 -6.95 0
M  V30 4705 H 474.979 0.291575 -4.67191 0
M  V30 4706 H 475.152 0.15116 -6.47824 0
M  V30 4707 N 468.558 1.5553 0.254621 0
M  V30 4708 C 469.488 1.9268 1.31897 0
M  V30 4709 C 470.469 0.790797 1.506 0
M  V30 4710 O 471.654 1.05045 1.63337 0
M  V30 4711 C 468.784 2.21477 2.67517 0
M  V30 4712 C 467.738 3.37256 2.63519 0
M  V30 4713 C 467.064 3.51576 4.02862 0
M  V30 4714 C 468.364 4.73157 2.21179 0
M  V30 4715 H 470.058 2.81832 1.01051 0
M  V30 4716 H 467.604 1.35599 0.484662 0
M  V30 4717 H 469.557 2.46055 3.42104 0
M  V30 4718 H 468.281 1.29144 2.99982 0
M  V30 4719 H 466.94 3.12675 1.9139 0
M  V30 4720 H 466.588 2.56676 4.32581 0
M  V30 4721 H 466.288 4.2943 4.01078 0
M  V30 4722 H 467.812 3.78467 4.79161 0
M  V30 4723 H 469.226 4.97158 2.85494 0
M  V30 4724 H 467.623 5.54058 2.30521 0
M  V30 4725 H 468.693 4.70739 1.16332 0
M  V30 4726 N 470.036 -0.519951 1.48776 0
M  V30 4727 C 471.283 -1.27522 1.57303 0
M  V30 4728 C 471.611 -1.92869 0.251328 0
M  V30 4729 O 470.866 -1.80372 -0.759243 0
M  V30 4730 C 471.165 -2.37864 2.6675 0
M  V30 4731 C 470.831 -1.90103 4.08867 0
M  V30 4732 C 469.493 -1.76795 4.47546 0
M  V30 4733 C 471.845 -1.54133 4.97888 0
M  V30 4734 C 469.173 -1.25868 5.73039 0
M  V30 4735 C 471.525 -1.04665 6.23881 0
M  V30 4736 C 470.189 -0.899823 6.61407 0
M  V30 4737 H 469.459 -0.466636 0.575614 0
M  V30 4738 H 472.106 -0.579109 1.82534 0
M  V30 4739 H 470.411 -3.13186 2.35418 0
M  V30 4740 H 472.108 -2.95969 2.70561 0
M  V30 4741 H 468.698 -2.01414 3.78326 0
M  V30 4742 H 472.882 -1.6327 4.68675 0
M  V30 4743 H 468.138 -1.13196 6.0083 0
M  V30 4744 H 472.312 -0.759074 6.92251 0
M  V30 4745 H 469.939 -0.503011 7.58534 0
M  V30 4746 N 471.514 -1.37532 -0.769588 0
M  V30 4747 C 472.93 -1.18379 -1.07045 0
M  V30 4748 C 473.13 -0.0214312 -2.01489 0
M  V30 4749 O 472.186 0.637809 -2.44312 0
M  V30 4750 C 473.499 -2.50338 -1.66588 0
M  V30 4751 C 475.047 -2.56879 -1.78835 0
M  V30 4752 C 475.522 -3.88974 -2.41792 0
M  V30 4753 N 477.013 -3.90428 -2.4924 0
M  V30 4754 C 477.748 -4.89388 -2.98809 0
M  V30 4755 N 477.244 -5.98745 -3.48535 0
M  V30 4756 N 479.037 -4.76791 -2.97703 0
M  V30 4757 H 471.188 -2.11921 -0.142541 0
M  V30 4758 H 473.451 -0.939608 -0.125863 0
M  V30 4759 H 473.157 -3.35767 -1.0466 0
M  V30 4760 H 473.031 -2.67583 -2.65856 0
M  V30 4761 H 475.418 -1.71856 -2.39895 0
M  V30 4762 H 475.499 -2.43516 -0.783166 0
M  V30 4763 H 475.143 -4.74412 -1.81371 0
M  V30 4764 H 475.073 -3.99641 -3.4292 0
M  V30 4765 H 477.564 -3.11433 -2.14052 0
M  V30 4766 H 477.877 -6.70205 -3.84767 0
M  V30 4767 H 476.222 -6.02387 -3.46634 0
M  V30 4768 H 479.413 -3.90478 -2.58157 0
M  V30 4769 H 479.586 -5.54069 -3.36024 0
M  V30 4770 N 472.992 0.995999 -1.22138 0
M  V30 4771 C 474.217 1.77601 -1.0711 0
M  V30 4772 C 474.642 1.84339 0.374264 0
M  V30 4773 O 474 1.29359 1.27028 0
M  V30 4774 C 474.048 3.18897 -1.68336 0
M  V30 4775 O 473.152 4.01663 -0.934928 0
M  V30 4776 H 472.493 0.547011 -0.376397 0
M  V30 4777 H 475.023 1.25137 -1.6187 0
M  V30 4778 H 475.033 3.69539 -1.72931 0
M  V30 4779 H 473.708 3.13308 -2.73516 0
M  V30 4780 H 472.285 3.60204 -0.964751 0
M  V30 4781 N 474.47 1.03057 1.19235 0
M  V30 4782 C 475.881 0.757449 1.70645 0
M  V30 4783 C 476.232 -0.722735 1.82403 0
M  V30 4784 O 475.357 -1.56325 1.49638 0
M  V30 4785 C 475.952 1.36833 3.09939 0
M  V30 4786 C 474.511 1.14375 3.58602 0
M  V30 4787 C 473.658 1.46533 2.35422 0
M  V30 4788 H 476.609 1.19828 1.04052 0
M  V30 4789 H 476.63 0.766184 3.72706 0
M  V30 4790 H 476.142 2.44562 3.01349 0
M  V30 4791 H 474.243 0.0847542 3.72504 0
M  V30 4792 H 474.356 1.83366 4.42622 0
M  V30 4793 H 472.72 0.884712 2.38841 0
M  V30 4794 H 473.503 2.55349 2.2946 0
M  V30 4795 N 475.948 -1.35272 0.808662 0
M  V30 4796 C 477.173 -2.03477 0.401475 0
M  V30 4797 C 477.598 -1.60537 -0.980279 0
M  V30 4798 O 476.956 -0.78304 -1.63518 0
M  V30 4799 C 477.004 -3.57181 0.495354 0
M  V30 4800 O 476.108 -4.09474 -0.490397 0
M  V30 4801 H 475.449 -0.642561 0.167366 0
M  V30 4802 H 477.979 -1.72824 1.09512 0
M  V30 4803 H 477.989 -4.06356 0.365912 0
M  V30 4804 H 476.664 -3.87784 1.5032 0
M  V30 4805 H 475.241 -3.71516 -0.321023 0
M  V30 4806 N 477.426 -0.562348 -1.47226 0
M  V30 4807 C 478.359 0.230405 -2.27034 0
M  V30 4808 C 479.337 0.915609 -1.3437 0
M  V30 4809 O 480.521 0.933573 -1.63758 0
M  V30 4810 C 477.648 1.32874 -3.11548 0
M  V30 4811 C 476.694 0.751552 -4.19826 0
M  V30 4812 S 477.527 -0.405848 -5.3396 0
M  V30 4813 C 478.683 0.694186 -6.22038 0
M  V30 4814 H 478.916 -0.446811 -2.93923 0
M  V30 4815 H 476.449 -0.348781 -1.50409 0
M  V30 4816 H 478.407 1.95773 -3.60809 0
M  V30 4817 H 477.068 1.97782 -2.44011 0
M  V30 4818 H 476.261 1.57651 -4.78709 0
M  V30 4819 H 475.863 0.198645 -3.73472 0
M  V30 4820 H 478.155 1.58501 -6.58698 0
M  V30 4821 H 479.098 0.142592 -7.07956 0
M  V30 4822 H 479.506 0.989169 -5.55766 0
M  V30 4823 N 478.904 1.54736 -0.299062 0
M  V30 4824 C 480.315 1.8569 0.193971 0
M  V30 4825 C 480.666 1.22101 1.53577 0
M  V30 4826 O 479.791 0.51799 2.10109 0
M  V30 4827 C 480.386 3.36895 0.358733 0
M  V30 4828 C 478.945 3.67887 0.795986 0
M  V30 4829 C 478.092 2.77131 -0.096807 0
M  V30 4830 H 481.043 1.49934 -0.520134 0
M  V30 4831 H 481.064 3.61294 1.19361 0
M  V30 4832 H 480.576 3.83148 -0.617998 0
M  V30 4833 H 478.677 3.27151 1.78334 0
M  V30 4834 H 478.79 4.75114 0.616718 0
M  V30 4835 H 477.154 2.51153 0.423581 0
M  V30 4836 H 477.937 3.26204 -1.06986 0
M  V30 4837 N 480.382 0.0267497 1.57577 0
M  V30 4838 C 481.622 -0.65659 1.93567 0
M  V30 4839 C 481.986 -1.69429 0.903213 0
M  V30 4840 O 483.187 -2.42994 1.14923 0
M  V30 4841 C 481.458 -1.25912 3.34486 0
M  V30 4842 S 483.017 -1.96386 3.924 0
M  V30 4843 H 479.835 -0.216237 0.67732 0
M  V30 4844 H 482.437 0.0898475 1.95293 0
M  V30 4845 H 481.141 -0.491405 4.07447 0
M  V30 4846 H 480.672 -2.04291 3.36198 0
M  V30 4847 H 482.687 -3.24202 3.75643 0
M  V30 4848 N 481.861 -1.55662 -0.24637 0
M  V30 4849 C 483.086 -1.81914 -0.996093 0
M  V30 4850 C 483.511 -0.603875 -1.78143 0
M  V30 4851 O 482.869 0.447091 -1.75701 0
M  V30 4852 C 482.917 -3.05908 -1.90925 0
M  V30 4853 O 482.021 -2.82861 -3.00105 0
M  V30 4854 H 481.362 -0.600481 -0.283406 0
M  V30 4855 H 483.892 -2.02848 -0.267199 0
M  V30 4856 H 483.902 -3.35356 -2.3238 0
M  V30 4857 H 482.577 -3.93999 -1.33183 0
M  V30 4858 H 481.154 -2.64583 -2.62775 0
M  V30 4859 N 483.339 0.512053 -1.4905 0
M  V30 4860 C 484.585 1.26874 -1.58212 0
M  V30 4861 C 484.918 1.9241 -0.263073 0
M  V30 4862 O 484.193 1.80181 0.732476 0
M  V30 4863 C 484.476 2.34428 -2.73341 0
M  V30 4864 C 484.329 1.73466 -4.15006 0
M  V30 4865 C 485.648 3.36073 -2.84154 0
M  V30 4866 H 482.767 0.459924 -0.575881 0
M  V30 4867 H 485.409 0.568587 -1.81293 0
M  V30 4868 H 483.559 2.94146 -2.53792 0
M  V30 4869 H 485.231 1.17661 -4.46042 0
M  V30 4870 H 483.474 1.03921 -4.21168 0
M  V30 4871 H 484.145 2.51426 -4.91415 0
M  V30 4872 H 486.621 2.86332 -3.01916 0
M  V30 4873 H 485.497 4.08703 -3.66406 0
M  V30 4874 H 485.758 3.97725 -1.93048 0
M  V30 4875 N 484.817 1.37938 0.762283 0
M  V30 4876 C 486.066 1.32989 1.51647 0
M  V30 4877 C 486.379 -0.0802922 1.95435 0
M  V30 4878 O 487.585 -0.252295 2.70325 0
M  V30 4879 C 486.041 2.33485 2.73885 0
M  V30 4880 C 485.649 3.80079 2.37157 0
M  V30 4881 C 487.393 2.37563 3.51801 0
M  V30 4882 C 485.3 4.72283 3.55954 0
M  V30 4883 H 484.23 0.494301 0.56937 0
M  V30 4884 H 486.881 1.63448 0.834083 0
M  V30 4885 H 485.263 1.96056 3.44061 0
M  V30 4886 H 486.437 4.26398 1.74704 0
M  V30 4887 H 484.752 3.79037 1.72395 0
M  V30 4888 H 487.349 3.0365 4.40114 0
M  V30 4889 H 487.692 1.39199 3.92338 0
M  V30 4890 H 488.225 2.73747 2.8863 0
M  V30 4891 H 484.964 5.7181 3.2049 0
M  V30 4892 H 484.484 4.30663 4.1748 0
M  V30 4893 H 486.163 4.89876 4.22647 0
M  V30 4894 N 486.295 -0.989507 1.22664 0
M  V30 4895 C 487.711 -1.25395 0.987331 0
M  V30 4896 C 487.911 -1.9899 -0.317056 0
M  V30 4897 O 486.967 -2.30141 -1.03882 0
M  V30 4898 C 488.28 -2.06242 2.18826 0
M  V30 4899 C 489.828 -2.19413 2.23219 0
M  V30 4900 C 490.303 -3.03648 3.42873 0
M  V30 4901 N 491.794 -3.11234 3.43056 0
M  V30 4902 C 492.529 -3.7671 4.32293 0
M  V30 4903 N 492.025 -4.44085 5.31752 0
M  V30 4904 N 493.818 -3.73505 4.2006 0
M  V30 4905 H 485.969 -0.496212 2.06522 0
M  V30 4906 H 488.232 -0.281784 0.905153 0
M  V30 4907 H 487.938 -1.59531 3.13437 0
M  V30 4908 H 487.812 -3.06996 2.19165 0
M  V30 4909 H 490.199 -2.65336 1.29154 0
M  V30 4910 H 490.28 -1.18078 2.26917 0
M  V30 4911 H 489.924 -2.58424 4.37241 0
M  V30 4912 H 489.854 -4.05132 3.36416 0
M  V30 4913 H 492.345 -2.63287 2.71088 0
M  V30 4914 H 492.658 -4.91797 5.96117 0
M  V30 4915 H 491.003 -4.42822 5.35662 0
M  V30 4916 H 494.194 -3.20033 3.41609 0
M  V30 4917 H 494.367 -4.24253 4.8981 0
M  V30 4918 N 487.773 -1.03688 -1.18687 0
M  V30 4919 C 489.184 -0.766488 -1.70241 0
M  V30 4920 C 489.535 0.713052 -1.82784 0
M  V30 4921 O 488.66 1.55529 -1.50465 0
M  V30 4922 C 489.255 -1.38475 -3.09209 0
M  V30 4923 C 487.814 -1.16276 -3.5799 0
M  V30 4924 C 486.961 -1.4778 -2.34641 0
M  V30 4925 H 489.912 -1.20378 -1.03415 0
M  V30 4926 H 489.933 -0.785939 -3.72295 0
M  V30 4927 H 489.445 -2.46157 -3.00048 0
M  V30 4928 H 487.546 -0.104508 -3.72453 0
M  V30 4929 H 487.659 -1.8571 -4.41643 0
M  V30 4930 H 486.023 -0.897366 -2.38368 0
M  V30 4931 H 486.806 -2.56562 -2.28102 0
M  V30 4932 N 489.251 1.34841 -0.815825 0
M  V30 4933 C 490.5 1.97755 -0.396976 0
M  V30 4934 C 490.813 1.65422 1.04379 0
M  V30 4935 O 492.019 2.21771 1.5662 0
M  V30 4936 C 490.475 3.53818 -0.658869 0
M  V30 4937 C 490.083 3.95051 -2.11278 0
M  V30 4938 C 491.827 4.23397 -0.305834 0
M  V30 4939 C 489.734 5.43997 -2.31994 0
M  V30 4940 H 488.664 0.739985 -0.1447 0
M  V30 4941 H 491.315 1.53781 -1.00118 0
M  V30 4942 H 489.697 3.95997 0.0154112 0
M  V30 4943 H 490.871 3.63998 -2.82564 0
M  V30 4944 H 489.186 3.38388 -2.42657 0
M  V30 4945 H 491.783 5.32899 -0.43854 0
M  V30 4946 H 492.126 4.09508 0.748952 0
M  V30 4947 H 492.659 3.8667 -0.934403 0
M  V30 4948 H 489.398 5.62865 -3.35952 0
M  V30 4949 H 488.918 5.76589 -1.65244 0
M  V30 4950 H 490.597 6.10584 -2.14001 0
M  V30 4951 N 490.729 0.570148 1.46925 0
M  V30 4952 C 491.659 -0.158274 2.32963 0
M  V30 4953 C 492.64 -0.896093 1.44583 0
M  V30 4954 O 493.825 -0.874022 1.7342 0
M  V30 4955 C 490.955 -1.18055 3.26619 0
M  V30 4956 C 489.909 -0.558379 4.24342 0
M  V30 4957 C 489.235 -1.68623 5.07415 0
M  V30 4958 C 490.535 0.496295 5.19937 0
M  V30 4959 H 492.229 0.560046 2.94115 0
M  V30 4960 H 489.775 0.270775 1.41431 0
M  V30 4961 H 491.728 -1.69841 3.85658 0
M  V30 4962 H 490.452 -1.92899 2.63548 0
M  V30 4963 H 489.111 -0.0617157 3.66548 0
M  V30 4964 H 488.759 -2.42402 4.40738 0
M  V30 4965 H 488.459 -1.27564 5.73586 0
M  V30 4966 H 489.983 -2.20709 5.69315 0
M  V30 4967 H 491.397 0.0640052 5.73264 0
M  V30 4968 H 489.794 0.82649 5.94381 0
M  V30 4969 H 490.864 1.38735 4.6463 0
M  V30 4970 N 492.207 -1.54576 0.307264 0
M  V30 4971 C 493.154 -2.23751 -0.56604 0
M  V30 4972 C 494.124 -1.22235 -1.12462 0
M  V30 4973 O 495.309 -1.50873 -1.16799 0
M  V30 4974 C 492.449 -2.98661 -1.72903 0
M  V30 4975 C 491.562 -4.14963 -1.20124 0
M  V30 4976 C 490.697 -4.77441 -2.3286 0
M  V30 4977 C 489.736 -5.85875 -1.77247 0
M  V30 4978 N 488.873 -6.42282 -2.8358 0
M  V30 4979 H 493.713 -2.97984 0.0304578 0
M  V30 4980 H 491.25 -1.47076 0.0268015 0
M  V30 4981 H 493.208 -3.40329 -2.41313 0
M  V30 4982 H 491.838 -2.26793 -2.29706 0
M  V30 4983 H 490.89 -3.78193 -0.409198 0
M  V30 4984 H 492.202 -4.93066 -0.754171 0
M  V30 4985 H 491.356 -5.21993 -3.09205 0
M  V30 4986 H 490.095 -3.98684 -2.80896 0
M  V30 4987 H 489.1 -5.40741 -0.993926 0
M  V30 4988 H 490.325 -6.6652 -1.30107 0
M  V30 4989 H 488.271 -5.66406 -3.30939 0
M  V30 4990 H 488.188 -7.1575 -2.43388 0
M  V30 4991 H 489.456 -6.91492 -3.59804 0
M  V30 4992 N 493.685 -0.035106 -1.57561 0
M  V30 4993 C 495.101 0.321334 -1.56332 0
M  V30 4994 C 495.301 1.72509 -1.04129 0
M  V30 4995 O 494.357 2.4287 -0.690694 0
M  V30 4996 C 495.67 0.164469 -3.0025 0
M  V30 4997 C 497.218 0.236786 -3.12103 0
M  V30 4998 C 497.693 0.10864 -4.57871 0
M  V30 4999 N 499.184 0.165433 -4.62904 0
M  V30 5000 C 499.919 0.0901506 -5.73329 0
M  V30 5001 N 499.415 -0.0365606 -6.9279 0
M  V30 5002 N 501.208 0.144572 -5.61914 0
M  V30 5003 H 493.359 -0.952976 -1.89821 0
M  V30 5004 H 495.622 -0.368537 -0.873432 0
M  V30 5005 H 495.328 -0.802746 -3.42416 0
M  V30 5006 H 495.202 0.932194 -3.655 0
M  V30 5007 H 497.589 1.19446 -2.69845 0
M  V30 5008 H 497.67 -0.561419 -2.49563 0
M  V30 5009 H 497.314 -0.845644 -5.00811 0
M  V30 5010 H 497.244 0.925786 -5.18398 0
M  V30 5011 H 499.735 0.263269 -3.76982 0
M  V30 5012 H 500.048 -0.0871487 -7.72751 0
M  V30 5013 H 498.393 -0.0714256 -6.94963 0
M  V30 5014 H 501.584 0.242006 -4.67474 0
M  V30 5015 H 501.757 0.0824413 -6.47948 0
M  V30 5016 N 495.163 1.55791 0.238111 0
M  V30 5017 C 496.093 1.94068 1.29846 0
M  V30 5018 C 497.074 0.806726 1.49753 0
M  V30 5019 O 498.259 1.06772 1.62214 0
M  V30 5020 C 495.389 2.24302 2.65153 0
M  V30 5021 C 494.343 3.40032 2.59927 0
M  V30 5022 C 493.669 3.55829 3.99111 0
M  V30 5023 C 494.969 4.75476 2.16148 0
M  V30 5024 H 496.663 2.82887 0.980563 0
M  V30 5025 H 494.209 1.36105 0.470253 0
M  V30 5026 H 496.162 2.4967 3.39475 0
M  V30 5027 H 494.886 1.32318 2.98596 0
M  V30 5028 H 493.545 3.14687 1.88063 0
M  V30 5029 H 493.193 2.6125 4.29834 0
M  V30 5030 H 492.893 4.3366 3.96501 0
M  V30 5031 H 494.417 3.83528 4.7512 0
M  V30 5032 H 495.831 5.00158 2.80205 0
M  V30 5033 H 494.228 5.56472 2.24631 0
M  V30 5034 H 495.298 4.71946 1.11333 0
M  V30 5035 N 496.642 -0.504142 1.49319 0
M  V30 5036 C 497.552 -1.63248 1.68486 0
M  V30 5037 C 498.568 -1.64488 0.567432 0
M  V30 5038 O 499.744 -1.82966 0.841749 0
M  V30 5039 C 496.809 -2.99627 1.74426 0
M  V30 5040 C 495.87 -3.09039 2.97982 0
M  V30 5041 C 495.103 -4.38913 3.0363 0
M  V30 5042 O 495.326 -5.27528 2.16958 0
M  V30 5043 O 494.26 -4.53231 3.96062 0
M  V30 5044 H 498.086 -1.50008 2.64067 0
M  V30 5045 H 495.671 -0.680086 1.33023 0
M  V30 5046 H 497.553 -3.80689 1.80705 0
M  V30 5047 H 496.228 -3.13136 0.820233 0
M  V30 5048 H 495.135 -2.27177 2.97223 0
M  V30 5049 H 496.468 -3.00456 3.89855 0
M  V30 5050 N 498.12 -1.38341 -0.754957 0
M  V30 5051 C 499.536 -1.19508 -1.05783 0
M  V30 5052 C 499.736 -0.0428005 -2.01455 0
M  V30 5053 O 498.792 0.611861 -2.44975 0
M  V30 5054 C 500.105 -2.52091 -1.63923 0
M  V30 5055 C 501.653 -2.58762 -1.76101 0
M  V30 5056 C 502.128 -3.91517 -2.37652 0
M  V30 5057 N 503.619 -3.93049 -2.45085 0
M  V30 5058 C 504.354 -4.9253 -2.93602 0
M  V30 5059 N 503.85 -6.02408 -3.42165 0
M  V30 5060 N 505.643 -4.79921 -2.92629 0
M  V30 5061 H 497.794 -2.1206 -0.120056 0
M  V30 5062 H 500.057 -0.94089 -0.11589 0
M  V30 5063 H 499.763 -3.36858 -1.01093 0
M  V30 5064 H 499.637 -2.70388 -2.63003 0
M  V30 5065 H 502.024 -1.74391 -2.38058 0
M  V30 5066 H 502.105 -2.44333 -0.757294 0
M  V30 5067 H 501.749 -4.76309 -1.76329 0
M  V30 5068 H 501.679 -4.03256 -3.38662 0
M  V30 5069 H 504.17 -3.13685 -2.10736 0
M  V30 5070 H 504.483 -6.74248 -3.77637 0
M  V30 5071 H 502.828 -6.0603 -3.40225 0
M  V30 5072 H 506.019 -3.93194 -2.54001 0
M  V30 5073 H 506.192 -5.57601 -3.30128 0
M  V30 5074 N 499.598 0.982988 -1.23187 0
M  V30 5075 C 501.009 1.53847 -1.05773 0
M  V30 5076 C 501.36 1.92568 0.375744 0
M  V30 5077 O 500.485 1.75783 1.26211 0
M  V30 5078 C 501.08 2.79567 -1.91384 0
M  V30 5079 C 499.639 3.31524 -1.78238 0
M  V30 5080 C 498.786 2.04534 -1.87246 0
M  V30 5081 H 501.737 0.802962 -1.36888 0
M  V30 5082 H 501.758 3.52317 -1.43711 0
M  V30 5083 H 501.27 2.51353 -2.95708 0
M  V30 5084 H 499.371 3.64623 -0.766875 0
M  V30 5085 H 499.484 4.01457 -2.61475 0
M  V30 5086 H 497.848 2.1855 -1.30797 0
M  V30 5087 H 498.631 1.78706 -2.9312 0
M  V30 5088 N 501.076 1.04316 1.18135 0
M  V30 5089 C 502.008 0.594444 2.21357 0
M  V30 5090 C 503.021 -0.337215 1.59269 0
M  V30 5091 O 504.21 -0.131337 1.78016 0
M  V30 5092 C 501.31 -0.151251 3.38562 0
M  V30 5093 C 500.483 0.788907 4.30227 0
M  V30 5094 C 499.542 0.0860572 5.2613 0
M  V30 5095 O 498.568 0.717302 5.64662 0
M  V30 5096 N 499.77 -1.17969 5.68387 0
M  V30 5097 H 502.535 1.48227 2.60478 0
M  V30 5098 H 500.096 0.92396 1.32946 0
M  V30 5099 H 502.088 -0.631352 3.99745 0
M  V30 5100 H 500.658 -0.940639 2.98112 0
M  V30 5101 H 499.878 1.44882 3.6661 0
M  V30 5102 H 501.166 1.42738 4.88368 0
M  V30 5103 H 500.564 -1.71302 5.3914 0
M  V30 5104 H 499.121 -1.60402 6.31755 0
M  V30 5105 N 502.554 -1.34406 0.822964 0
M  V30 5106 C 503.831 -1.92733 0.333641 0
M  V30 5107 C 504.211 -1.75107 -1.17901 0
M  V30 5108 O 503.559 -1.12983 -1.98613 0
M  V30 5109 C 503.769 -3.40557 0.763023 0
M  V30 5110 C 505.117 -4.17709 0.761879 0
M  V30 5111 O 506.141 -3.49141 0.705606 0
M  V30 5112 O 505 -5.40082 0.835109 0
M  V30 5113 H 502.094 -0.821964 0.0911249 0
M  V30 5114 H 504.64 -1.4338 0.907757 0
M  V30 5115 H 503.412 -3.47187 1.8049 0
M  V30 5116 H 503.035 -3.97259 0.164605 0
M  V30 5117 N 504.032 -0.577932 -1.46621 0
M  V30 5118 C 505.448 -0.239242 -1.57797 0
M  V30 5119 C 505.648 1.25843 -1.57371 0
M  V30 5120 O 504.704 2.03988 -1.48813 0
M  V30 5121 C 506.017 -0.884227 -2.87405 0
M  V30 5122 C 507.565 -0.857373 -3.01028 0
M  V30 5123 C 508.04 -1.48181 -4.33366 0
M  V30 5124 N 509.531 -1.44593 -4.40053 0
M  V30 5125 C 510.266 -1.89852 -5.41058 0
M  V30 5126 N 509.762 -2.43062 -6.48762 0
M  V30 5127 N 511.555 -1.80797 -5.3223 0
M  V30 5128 H 503.706 -1.55073 -1.45142 0
M  V30 5129 H 505.969 -0.647903 -0.692044 0
M  V30 5130 H 505.675 -1.93759 -2.93514 0
M  V30 5131 H 505.549 -0.389585 -3.75183 0
M  V30 5132 H 507.936 0.187357 -2.94505 0
M  V30 5133 H 508.017 -1.38999 -2.14739 0
M  V30 5134 H 507.661 -2.52572 -4.40647 0
M  V30 5135 H 507.591 -0.924464 -5.18422 0
M  V30 5136 H 510.082 -1.05694 -3.62819 0
M  V30 5137 H 510.395 -2.75466 -7.22038 0
M  V30 5138 H 508.74 -2.47085 -6.49595 0
M  V30 5139 H 511.931 -1.38989 -4.46989 0
M  V30 5140 H 512.104 -2.16385 -6.10804 0
M  V30 5141 N 505.51 1.54411 -0.315457 0
M  V30 5142 C 506.787 1.92562 0.343398 0
M  V30 5143 C 507.167 1.24423 1.70535 0
M  V30 5144 O 506.515 0.385051 2.25232 0
M  V30 5145 C 506.725 3.46168 0.443687 0
M  V30 5146 C 508.073 4.18659 0.707783 0
M  V30 5147 O 509.097 3.52281 0.52693 0
M  V30 5148 O 507.956 5.36198 1.05612 0
M  V30 5149 H 505.05 0.80379 0.194552 0
M  V30 5150 H 507.596 1.65738 -0.364577 0
M  V30 5151 H 506.368 3.8792 -0.513172 0
M  V30 5152 H 505.991 3.79073 1.19956 0
M  V30 5153 N 506.988 0.0434614 1.5754 0
M  V30 5154 C 508.216 -0.641835 1.96693 0
M  V30 5155 C 508.631 -1.64832 0.920652 0
M  V30 5156 O 507.988 -1.82247 -0.095993 0
M  V30 5157 C 508.039 -1.33557 3.35924 0
M  V30 5158 O 507.76 -0.369403 4.3654 0
M  V30 5159 C 509.261 -2.11135 3.89791 0
M  V30 5160 H 506.481 -0.176013 0.647503 0
M  V30 5161 H 509.025 0.107478 2.04217 0
M  V30 5162 H 507.18 -2.03617 3.29574 0
M  V30 5163 H 507.594 -0.863674 5.1734 0
M  V30 5164 H 509.068 -2.55107 4.89514 0
M  V30 5165 H 509.545 -2.95634 3.24803 0
M  V30 5166 H 510.151 -1.46002 3.99454 0
M  V30 5167 N 508.466 -1.55915 -0.229846 0
M  V30 5168 C 509.877 -1.68809 -0.797531 0
M  V30 5169 C 510.228 -0.643995 -1.8533 0
M  V30 5170 O 509.353 0.206492 -2.15413 0
M  V30 5171 C 509.948 -3.06043 -1.45338 0
M  V30 5172 C 508.507 -3.20819 -1.96856 0
M  V30 5173 C 507.654 -2.6472 -0.825736 0
M  V30 5174 H 510.605 -1.58699 -0.00533733 0
M  V30 5175 H 510.626 -3.01438 -2.32196 0
M  V30 5176 H 510.138 -3.82012 -0.684743 0
M  V30 5177 H 508.239 -2.49704 -2.76548 0
M  V30 5178 H 508.352 -4.27937 -2.15423 0
M  V30 5179 H 506.716 -2.22985 -1.23084 0
M  V30 5180 H 507.499 -3.43229 -0.0699019 0
M  V30 5181 N 509.944 0.496216 -1.49584 0
M  V30 5182 C 511.19 1.25189 -1.59548 0
M  V30 5183 C 511.523 1.9212 -0.283466 0
M  V30 5184 O 510.798 1.80947 0.713324 0
M  V30 5185 C 511.081 2.31516 -2.75812 0
M  V30 5186 C 510.934 1.69054 -4.16822 0
M  V30 5187 C 512.253 3.3304 -2.87702 0
M  V30 5188 H 509.372 0.45379 -0.580727 0
M  V30 5189 H 512.014 0.549327 -1.81886 0
M  V30 5190 H 510.164 2.91438 -2.56897 0
M  V30 5191 H 511.836 1.12923 -4.47265 0
M  V30 5192 H 510.079 0.994485 -4.22247 0
M  V30 5193 H 510.75 2.462 -4.94054 0
M  V30 5194 H 513.226 2.83114 -3.04936 0
M  V30 5195 H 512.102 4.04794 -3.7072 0
M  V30 5196 H 512.363 3.95655 -1.97255 0
M  V30 5197 N 511.423 1.38739 0.74761 0
M  V30 5198 C 512.355 1.32341 1.87132 0
M  V30 5199 C 513.368 0.234502 1.61102 0
M  V30 5200 O 514.557 0.492516 1.71571 0
M  V30 5201 C 511.657 1.02915 3.22896 0
M  V30 5202 C 510.83 2.22834 3.76383 0
M  V30 5203 C 509.889 1.90059 4.90677 0
M  V30 5204 O 508.915 2.62615 5.04997 0
M  V30 5205 N 510.117 0.859141 5.74107 0
M  V30 5206 H 512.882 2.29175 1.93129 0
M  V30 5207 H 510.443 1.32678 0.927805 0
M  V30 5208 H 512.435 0.79031 3.96908 0
M  V30 5209 H 511.005 0.148572 3.12247 0
M  V30 5210 H 510.225 2.62747 2.93867 0
M  V30 5211 H 511.513 3.02851 4.08851 0
M  V30 5212 H 510.911 0.257564 5.65113 0
M  V30 5213 H 509.468 0.680189 6.48241 0
M  V30 5214 N 512.901 -0.976442 1.23707 0
M  V30 5215 C 513.849 -2.09078 1.01927 0
M  V30 5216 C 514.843 -1.69345 -0.0430193 0
M  V30 5217 O 516.049 -1.79659 0.110814 0
M  V30 5218 H 512.424 -0.68398 0.312531 0
M  V30 5219 H 514.395 -2.24614 1.96447 0
M  V30 5220 C 513.144 -3.41919 0.631385 0
M  V30 5221 H 512.467 -3.72946 1.44053 0
M  V30 5222 H 513.907 -4.20817 0.518532 0
M  V30 5223 C 512.366 -3.30357 -0.660723 0
M  V30 5224 O 512.896 -3.63542 -1.70881 0
M  V30 5225 N 511.102 -2.83507 -0.638139 0
M  V30 5226 H 510.649 -2.567 0.215108 0
M  V30 5227 H 510.607 -2.76153 -1.50289 0
M  V30 5228 N 514.379 -1.04941 -1.1758 0
M  V30 5229 C 515.326 -0.648155 -2.21512 0
M  V30 5230 C 516.296 0.348431 -1.62404 0
M  V30 5231 O 517.481 0.240419 -1.89279 0
M  V30 5232 C 514.621 -0.0264291 -3.4509 0
M  V30 5233 C 513.734 -1.07154 -4.185 0
M  V30 5234 C 512.869 -0.417403 -5.29558 0
M  V30 5235 C 511.908 -1.447 -5.94751 0
M  V30 5236 N 511.045 -0.817203 -6.97328 0
M  V30 5237 H 515.885 -1.53891 -2.55189 0
M  V30 5238 H 513.422 -0.769699 -1.25356 0
M  V30 5239 H 515.38 0.351456 -4.15717 0
M  V30 5240 H 514.01 0.827802 -3.12005 0
M  V30 5241 H 513.062 -1.56728 -3.46613 0
M  V30 5242 H 514.374 -1.8532 -4.63096 0
M  V30 5243 H 513.528 0.0142061 -6.06698 0
M  V30 5244 H 512.267 0.396265 -4.86087 0
M  V30 5245 H 511.272 -1.88865 -5.16343 0
M  V30 5246 H 512.497 -2.26252 -6.40302 0
M  V30 5247 H 510.443 -0.0239995 -6.55996 0
M  V30 5248 H 510.36 -1.53644 -7.40223 0
M  V30 5249 H 511.628 -0.410283 -7.7842 0
M  V30 5250 N 515.857 1.33968 -0.830081 0
M  V30 5251 C 517.273 1.51003 -0.516742 0
M  V30 5252 C 517.473 1.77286 0.957694 0
M  V30 5253 O 516.529 1.82797 1.74188 0
M  V30 5254 C 517.842 2.67036 -1.38247 0
M  V30 5255 C 519.39 2.80919 -1.38034 0
M  V30 5256 C 519.865 4.00004 -2.23071 0
M  V30 5257 N 521.356 4.07224 -2.20733 0
M  V30 5258 C 522.091 4.98541 -2.83275 0
M  V30 5259 N 521.587 5.95033 -3.54835 0
M  V30 5260 N 523.38 4.91469 -2.72791 0
M  V30 5261 H 515.531 1.15168 -1.78466 0
M  V30 5262 H 517.794 0.565443 -0.760906 0
M  V30 5263 H 517.5 2.54266 -2.42985 0
M  V30 5264 H 517.374 3.62226 -1.05225 0
M  V30 5265 H 519.761 2.93127 -0.340713 0
M  V30 5266 H 519.842 1.86517 -1.75057 0
M  V30 5267 H 519.486 3.88557 -3.27087 0
M  V30 5268 H 519.416 4.93634 -1.83394 0
M  V30 5269 H 521.907 3.38162 -1.68687 0
M  V30 5270 H 522.22 6.61357 -3.99784 0
M  V30 5271 H 520.565 5.95135 -3.58942 0
M  V30 5272 H 523.756 4.15048 -2.16456 0
M  V30 5273 H 523.929 5.62439 -3.21818 0
M  V30 5274 N 517.335 0.585699 1.46312 0
M  V30 5275 C 518.751 0.247607 1.57668 0
M  V30 5276 C 518.951 -1.25007 1.58037 0
M  V30 5277 O 518.007 -2.03196 1.49893 0
M  V30 5278 C 519.32 0.899456 2.86933 0
M  V30 5279 C 520.868 0.873326 3.00569 0
M  V30 5280 C 521.343 1.50477 4.32574 0
M  V30 5281 N 522.834 1.46925 4.3928 0
M  V30 5282 C 523.569 1.92719 5.40044 0
M  V30 5283 N 523.065 2.46499 6.47464 0
M  V30 5284 N 524.858 1.83617 5.31264 0
M  V30 5285 H 517.009 1.55841 1.44317 0
M  V30 5286 H 519.272 0.651564 0.688599 0
M  V30 5287 H 518.978 1.95313 2.92482 0
M  V30 5288 H 518.852 0.409476 3.74971 0
M  V30 5289 H 521.239 -0.171736 2.946 0
M  V30 5290 H 521.32 1.40136 2.13999 0
M  V30 5291 H 520.964 2.54905 4.39302 0
M  V30 5292 H 520.894 0.951944 5.17924 0
M  V30 5293 H 523.385 1.07616 3.62253 0
M  V30 5294 H 523.698 2.79291 7.20567 0
M  V30 5295 H 522.043 2.50526 6.48276 0
M  V30 5296 H 525.234 1.41358 4.46246 0
M  V30 5297 H 525.407 2.19622 6.09648 0
M  V30 5298 N 518.813 -1.54241 0.323641 0
M  V30 5299 C 520.229 -1.59574 -0.0290018 0
M  V30 5300 C 520.429 -1.34017 -1.50472 0
M  V30 5301 O 519.485 -1.12464 -2.26071 0
M  V30 5302 C 520.798 -2.98169 0.389295 0
M  V30 5303 C 522.346 -3.11148 0.339958 0
M  V30 5304 C 522.821 -4.5209 0.733418 0
M  V30 5305 N 524.312 -4.5808 0.686827 0
M  V30 5306 C 525.047 -5.65248 0.963464 0
M  V30 5307 N 524.543 -6.80355 1.30724 0
M  V30 5308 N 526.336 -5.55025 0.88902 0
M  V30 5309 H 518.487 -1.6911 1.28512 0
M  V30 5310 H 520.75 -0.790972 0.522558 0
M  V30 5311 H 520.456 -3.21871 1.41746 0
M  V30 5312 H 520.33 -3.76399 -0.245657 0
M  V30 5313 H 522.717 -2.87182 -0.679002 0
M  V30 5314 H 522.798 -2.35023 1.00985 0
M  V30 5315 H 522.442 -4.76788 1.75029 0
M  V30 5316 H 522.372 -5.26584 0.0412189 0
M  V30 5317 H 524.863 -3.75411 0.43298 0
M  V30 5318 H 525.176 -7.58029 1.5037 0
M  V30 5319 H 523.521 -6.81851 1.3455 0
M  V30 5320 H 526.712 -4.63977 0.619939 0
M  V30 5321 H 526.885 -6.38458 1.10797 0
M  V30 5322 N 520.291 -0.0518155 -1.57515 0
M  V30 5323 C 521.516 0.634896 -1.97443 0
M  V30 5324 C 521.941 1.63546 -0.929207 0
M  V30 5325 O 521.299 1.80981 0.107484 0
M  V30 5326 C 521.347 1.29765 -3.36442 0
M  V30 5327 O 520.451 2.41333 -3.34413 0
M  V30 5328 H 519.792 0.164994 -0.643174 0
M  V30 5329 H 522.322 -0.120407 -2.04245 0
M  V30 5330 H 522.332 1.64918 -3.73184 0
M  V30 5331 H 521.007 0.564361 -4.12053 0
M  V30 5332 H 519.584 2.08122 -3.09418 0
M  V30 5333 N 521.769 1.56035 0.221574 0
M  V30 5334 C 523.015 1.79312 0.947372 0
M  V30 5335 C 523.348 0.621453 1.83988 0
M  V30 5336 O 522.623 -0.379287 1.90766 0
M  V30 5337 C 522.906 3.1267 1.78633 0
M  V30 5338 C 522.759 4.40284 0.920312 0
M  V30 5339 C 524.078 3.4247 2.7641 0
M  V30 5340 H 521.197 0.652328 0.342982 0
M  V30 5341 H 523.839 1.88765 0.216244 0
M  V30 5342 H 521.989 3.04741 2.40967 0
M  V30 5343 H 523.661 4.60232 0.313718 0
M  V30 5344 H 521.904 4.33212 0.225734 0
M  V30 5345 H 522.575 5.30033 1.54171 0
M  V30 5346 H 525.051 3.50526 2.24211 0
M  V30 5347 H 523.927 4.3695 3.32213 0
M  V30 5348 H 524.188 2.64635 3.54148 0
M  V30 5349 N 523.247 -0.488276 1.49845 0
M  V30 5350 C 524.475 -1.26527 1.63702 0
M  V30 5351 C 524.89 -1.8618 0.313447 0
M  V30 5352 O 524.247 -1.68432 -0.702624 0
M  V30 5353 C 524.298 -2.3864 2.71538 0
M  V30 5354 O 524.019 -1.81437 3.98763 0
M  V30 5355 C 525.52 -3.29805 2.96215 0
M  V30 5356 H 522.74 -0.383295 0.55075 0
M  V30 5357 H 525.284 -0.584779 1.95961 0
M  V30 5358 H 523.439 -3.02496 2.42023 0
M  V30 5359 H 523.853 -2.55135 4.58265 0
M  V30 5360 H 525.327 -4.04722 3.75372 0
M  V30 5361 H 525.804 -3.87563 2.06619 0
M  V30 5362 H 526.41 -2.71703 3.27196 0
M  V30 5363 N 524.725 -1.39134 -0.740242 0
M  V30 5364 C 526.136 -1.32208 -1.31825 0
M  V30 5365 C 526.487 0.0159919 -1.96193 0
M  V30 5366 O 525.612 0.918111 -1.95958 0
M  V30 5367 C 526.207 -2.39436 -2.39699 0
M  V30 5368 C 524.766 -2.36048 -2.93187 0
M  V30 5369 C 523.913 -2.21599 -1.66701 0
M  V30 5370 H 526.864 -1.49298 -0.538133 0
M  V30 5371 H 526.885 -2.05922 -3.19963 0
M  V30 5372 H 526.397 -3.36811 -1.92821 0
M  V30 5373 H 524.498 -1.42295 -3.44359 0
M  V30 5374 H 524.611 -3.30704 -3.46658 0
M  V30 5375 H 522.975 -1.68681 -1.90837 0
M  V30 5376 H 523.758 -3.20936 -1.21882 0
M  V30 5377 N 526.204 0.969867 -1.24223 0
M  V30 5378 C 527.615 1.52717 -1.07399 0
M  V30 5379 C 527.966 1.92956 0.355298 0
M  V30 5380 O 527.091 1.77112 1.2434 0
M  V30 5381 C 527.686 2.77521 -1.94339 0
M  V30 5382 C 526.245 3.29615 -1.81744 0
M  V30 5383 C 525.392 2.02537 -1.89405 0
M  V30 5384 H 528.343 0.788399 -1.37732 0
M  V30 5385 H 528.364 3.50773 -1.47439 0
M  V30 5386 H 527.876 2.48203 -2.98357 0
M  V30 5387 H 525.977 3.63789 -0.805505 0
M  V30 5388 H 526.09 3.98661 -2.65718 0
M  V30 5389 H 524.454 2.17151 -1.33108 0
M  V30 5390 H 525.237 1.75587 -2.94999 0
M  V30 5391 N 527.682 1.05563 1.17022 0
M  V30 5392 C 528.592 0.670758 2.24807 0
M  V30 5393 C 529.608 -0.309865 1.71219 0
M  V30 5394 O 530.784 -0.161025 2.00755 0
M  V30 5395 C 527.849 0.055337 3.46656 0
M  V30 5396 C 526.91 1.08688 4.15314 0
M  V30 5397 C 526.143 0.500736 5.31346 0
M  V30 5398 O 526.366 -0.688718 5.66227 0
M  V30 5399 O 525.3 1.23683 5.89055 0
M  V30 5400 H 529.126 1.56914 2.60023 0
M  V30 5401 H 526.711 0.827428 1.24395 0
M  V30 5402 H 528.593 -0.286492 4.20425 0
M  V30 5403 H 527.268 -0.816638 3.13229 0
M  V30 5404 H 526.175 1.48077 3.43546 0
M  V30 5405 H 527.508 1.93014 4.52777 0
M  V30 5406 N 529.16 -1.33526 0.837174 0
M  V30 5407 C 530.07 -2.33023 0.271568 0
M  V30 5408 C 531.086 -1.63272 -0.601514 0
M  V30 5409 O 532.262 -1.94939 -0.506038 0
M  V30 5410 C 529.327 -3.42382 -0.545448 0
M  V30 5411 C 528.388 -4.27857 0.351709 0
M  V30 5412 C 527.621 -5.31994 -0.426409 0
M  V30 5413 O 527.844 -5.45763 -1.65828 0
M  V30 5414 O 526.778 -6.01572 0.1987 0
M  V30 5415 H 530.604 -2.83256 1.09545 0
M  V30 5416 H 528.189 -1.36837 0.599655 0
M  V30 5417 H 530.071 -4.09122 -1.00979 0
M  V30 5418 H 528.746 -2.94369 -1.34641 0
M  V30 5419 H 527.653 -3.6399 0.863853 0
M  V30 5420 H 528.986 -4.79349 1.1174 0
M  V30 5421 N 530.638 -0.59345 -1.46 0
M  V30 5422 C 531.57 0.171569 -2.28557 0
M  V30 5423 C 532.583 0.845273 -1.39137 0
M  V30 5424 O 533.772 0.713033 -1.6364 0
M  V30 5425 C 530.872 1.26311 -3.14482 0
M  V30 5426 C 530.045 0.679258 -4.32094 0
M  V30 5427 C 529.104 1.65987 -4.99334 0
M  V30 5428 O 528.13 1.19171 -5.56585 0
M  V30 5429 N 529.332 2.99414 -4.97324 0
M  V30 5430 H 532.097 -0.536771 -2.94854 0
M  V30 5431 H 529.658 -0.431954 -1.56031 0
M  V30 5432 H 531.65 1.91863 -3.5633 0
M  V30 5433 H 530.22 1.87416 -2.50188 0
M  V30 5434 H 529.44 -0.153992 -3.93899 0
M  V30 5435 H 530.728 0.26916 -5.08088 0
M  V30 5436 H 530.126 3.40064 -4.52076 0
M  V30 5437 H 528.683 3.60426 -5.4308 0
M  V30 5438 N 532.116 1.54067 -0.331816 0
M  V30 5439 C 533.048 2.22139 0.564538 0
M  V30 5440 C 534.061 1.22408 1.07332 0
M  V30 5441 O 535.25 1.4883 0.985481 0
M  V30 5442 C 532.35 2.87876 1.78831 0
M  V30 5443 C 531.523 4.13817 1.41682 0
M  V30 5444 C 530.582 4.63072 2.49901 0
M  V30 5445 O 529.608 5.27562 2.13699 0
M  V30 5446 N 530.81 4.38001 3.80967 0
M  V30 5447 H 533.575 2.99694 -0.0183736 0
M  V30 5448 H 531.136 1.61153 -0.155396 0
M  V30 5449 H 533.128 3.17747 2.50637 0
M  V30 5450 H 531.698 2.13977 2.27887 0
M  V30 5451 H 530.918 3.9062 0.530044 0
M  V30 5452 H 532.206 4.95762 1.14443 0
M  V30 5453 H 531.604 3.864 4.13173 0
M  V30 5454 H 530.161 4.72507 4.48977 0
M  V30 5455 N 533.594 0.0601682 1.57485 0
M  V30 5456 C 534.504 -0.926121 2.15546 0
M  V30 5457 C 535.52 -1.33532 1.11558 0
M  V30 5458 O 536.696 -1.4104 1.4377 0
M  V30 5459 C 533.761 -2.17952 2.69625 0
M  V30 5460 C 532.822 -1.82783 3.88444 0
M  V30 5461 C 532.055 -3.02148 4.39935 0
M  V30 5462 O 532.278 -4.15803 3.90466 0
M  V30 5463 O 531.212 -2.82639 5.31412 0
M  V30 5464 H 535.038 -0.462289 3.00161 0
M  V30 5465 H 532.623 -0.162246 1.48516 0
M  V30 5466 H 534.505 -2.91474 3.04337 0
M  V30 5467 H 533.18 -2.63456 1.88077 0
M  V30 5468 H 532.087 -1.06549 3.58606 0
M  V30 5469 H 533.42 -1.42072 4.7125 0
M  V30 5470 N 535.072 -1.5615 -0.213296 0
M  V30 5471 C 536.035 -1.92249 -1.24792 0
M  V30 5472 C 537.035 -0.801828 -1.39382 0
M  V30 5473 O 538.225 -1.06948 -1.37506 0
M  V30 5474 C 535.357 -2.18056 -2.62039 0
M  V30 5475 H 536.55 -2.84793 -0.939845 0
M  V30 5476 H 534.103 -1.49559 -0.454062 0
M  V30 5477 H 534.838 -1.2809 -2.97932 0
M  V30 5478 H 534.623 -2.99703 -2.52825 0
M  V30 5479 H 536.113 -2.47051 -3.36683 0
M  V30 5480 N 536.55 0.480323 -1.50102 0
M  V30 5481 C 537.46 1.60547 -1.71061 0
M  V30 5482 C 538.476 1.63564 -0.593529 0
M  V30 5483 O 539.652 1.81604 -0.870751 0
M  V30 5484 C 536.717 2.96814 -1.79171 0
M  V30 5485 C 535.778 3.04259 -3.02861 0
M  V30 5486 C 535.011 4.34027 -3.10574 0
M  V30 5487 O 535.234 5.24009 -2.25323 0
M  V30 5488 O 534.168 4.46873 -4.03223 0
M  V30 5489 H 537.994 1.45788 -2.6642 0
M  V30 5490 H 535.579 0.658838 -1.34088 0
M  V30 5491 H 537.461 3.77765 -1.86738 0
M  V30 5492 H 536.136 3.11791 -0.869947 0
M  V30 5493 H 535.043 2.22419 -3.008 0
M  V30 5494 H 536.376 2.94216 -3.94586 0
M  V30 5495 N 538.028 1.39524 0.732853 0
M  V30 5496 C 538.938 1.40695 1.87729 0
M  V30 5497 C 539.954 0.301496 1.71368 0
M  V30 5498 O 541.13 0.543313 1.93933 0
M  V30 5499 C 538.195 1.25098 3.23344 0
M  V30 5500 C 537.256 2.45634 3.52083 0
M  V30 5501 C 536.489 2.30772 4.81228 0
M  V30 5502 O 536.712 1.31233 5.55098 0
M  V30 5503 O 535.646 3.19799 5.09914 0
M  V30 5504 H 539.472 2.37168 1.89697 0
M  V30 5505 H 537.057 1.20663 0.880959 0
M  V30 5506 H 538.939 1.18541 4.04383 0
M  V30 5507 H 537.614 0.317209 3.22142 0
M  V30 5508 H 536.521 2.57767 2.71122 0
M  V30 5509 H 537.854 3.37712 3.58066 0
M  V30 5510 N 539.506 -0.963266 1.24736 0
M  V30 5511 C 540.917 -1.52145 1.08207 0
M  V30 5512 C 541.268 -1.93142 -0.345061 0
M  V30 5513 O 540.393 -1.77769 -1.23399 0
M  V30 5514 C 540.988 -2.76486 1.95808 0
M  V30 5515 C 539.547 -3.28646 1.8349 0
M  V30 5516 C 538.694 -2.01529 1.90476 0
M  V30 5517 H 541.645 -0.781083 1.38148 0
M  V30 5518 H 541.666 -3.49986 1.49297 0
M  V30 5519 H 541.178 -2.46617 2.99669 0
M  V30 5520 H 539.279 -3.63357 0.824787 0
M  V30 5521 H 539.392 -3.97246 2.67829 0
M  V30 5522 H 537.756 -2.16442 1.34258 0
M  V30 5523 H 538.539 -1.7402 2.95926 0
M  V30 5524 N 540.985 -1.06182 -1.16461 0
M  V30 5525 C 541.932 -0.671613 -2.20812 0
M  V30 5526 C 542.902 0.331186 -1.62765 0
M  V30 5527 O 544.087 0.22033 -1.89524 0
M  V30 5528 C 541.227 -0.063029 -3.45042 0
M  V30 5529 C 540.34 -1.11587 -4.1734 0
M  V30 5530 C 539.475 -0.473546 -5.29085 0
M  V30 5531 C 538.514 -1.51 -5.93182 0
M  V30 5532 N 537.651 -0.891118 -6.96422 0
M  V30 5533 H 542.491 -1.56589 -2.53542 0
M  V30 5534 H 540.028 -0.782951 -1.24532 0
M  V30 5535 H 541.986 0.307344 -4.16066 0
M  V30 5536 H 540.616 0.794663 -3.12866 0
M  V30 5537 H 539.668 -1.60396 -3.44931 0
M  V30 5538 H 540.98 -1.90221 -4.61104 0
M  V30 5539 H 540.134 -0.0501432 -6.06679 0
M  V30 5540 H 538.873 0.344687 -4.8648 0
M  V30 5541 H 537.878 -1.94331 -5.14311 0
M  V30 5542 H 539.103 -2.33031 -6.37866 0
M  V30 5543 H 537.049 -0.0935753 -6.55933 0
M  V30 5544 H 536.966 -1.61486 -7.38551 0
M  V30 5545 H 538.234 -0.492822 -7.77941 0
M  V30 5546 N 542.463 1.3308 -0.844243 0
M  V30 5547 C 543.426 2.27403 -0.286485 0
M  V30 5548 C 544.426 1.51179 0.547872 0
M  V30 5549 O 545.616 1.70421 0.360886 0
M  V30 5550 C 542.748 3.35653 0.595813 0
M  V30 5551 H 543.941 2.78248 -1.11885 0
M  V30 5552 H 541.494 1.43574 -0.617749 0
M  V30 5553 H 542.229 2.90058 1.4504 0
M  V30 5554 H 542.014 3.921 -0.00125994 0
M  V30 5555 H 543.504 4.05958 0.979168 0
M  V30 5556 N 543.941 0.601185 1.45683 0
M  V30 5557 C 545.357 0.264315 1.57396 0
M  V30 5558 C 545.557 -1.23324 1.59353 0
M  V30 5559 O 544.613 -2.01594 1.52039 0
M  V30 5560 C 545.926 0.929839 2.85962 0
M  V30 5561 C 547.474 0.905156 2.99626 0
M  V30 5562 C 547.949 1.55057 4.30954 0
M  V30 5563 N 549.44 1.51576 4.37697 0
M  V30 5564 C 550.175 1.98436 5.37969 0
M  V30 5565 N 549.671 2.53352 6.44813 0
M  V30 5566 N 551.464 1.89242 5.29286 0
M  V30 5567 H 543.615 1.57363 1.42656 0
M  V30 5568 H 545.878 0.658831 0.681649 0
M  V30 5569 H 545.584 1.98404 2.90394 0
M  V30 5570 H 545.458 0.449224 3.74515 0
M  V30 5571 H 547.845 -0.14048 2.94765 0
M  V30 5572 H 547.926 1.42397 2.12501 0
M  V30 5573 H 547.57 2.5955 4.36573 0
M  V30 5574 H 547.5 1.00682 5.16886 0
M  V30 5575 H 549.991 1.11452 3.61091 0
M  V30 5576 H 550.304 2.86918 7.17564 0
M  V30 5577 H 548.649 2.57388 6.45582 0
M  V30 5578 H 551.84 1.46083 4.44722 0
M  V30 5579 H 552.013 2.26075 6.07284 0
M  V30 5580 N 545.419 -1.53889 0.339982 0
M  V30 5581 C 546.665 -2.01152 -0.258003 0
M  V30 5582 C 546.998 -1.22749 -1.50487 0
M  V30 5583 O 546.273 -0.314156 -1.91946 0
M  V30 5584 C 546.556 -3.55468 -0.575717 0
M  V30 5585 C 546.409 -4.44584 0.682996 0
M  V30 5586 C 547.728 -4.1768 -1.38677 0
M  V30 5587 H 544.847 -0.731198 -0.0922992 0
M  V30 5588 H 547.489 -1.84352 0.459814 0
M  V30 5589 H 545.639 -3.69914 -1.18725 0
M  V30 5590 H 547.311 -4.41981 1.32102 0
M  V30 5591 H 545.554 -4.13592 1.3086 0
M  V30 5592 H 546.225 -5.5043 0.416001 0
M  V30 5593 H 548.701 -4.0691 -0.869705 0
M  V30 5594 H 547.577 -5.25734 -1.57783 0
M  V30 5595 H 547.838 -3.72069 -2.38782 0
M  V30 5596 N 546.897 -0.0685191 -1.57451 0
M  V30 5597 C 547.827 0.89747 -2.15564 0
M  V30 5598 C 548.808 1.31266 -1.08181 0
M  V30 5599 O 549.993 1.38429 -1.36202 0
M  V30 5600 C 547.123 2.16623 -2.71463 0
M  V30 5601 C 546.077 1.89054 -3.83982 0
M  V30 5602 C 545.403 3.22532 -4.26471 0
M  V30 5603 C 546.703 1.1984 -5.08366 0
M  V30 5604 H 548.397 0.413373 -2.96533 0
M  V30 5605 H 545.943 0.197391 -1.42641 0
M  V30 5606 H 547.896 2.84614 -3.10761 0
M  V30 5607 H 546.62 2.67269 -1.8771 0
M  V30 5608 H 545.279 1.23469 -3.45183 0
M  V30 5609 H 544.927 3.71013 -3.39644 0
M  V30 5610 H 544.627 3.04879 -5.02317 0
M  V30 5611 H 546.151 3.91727 -4.68383 0
M  V30 5612 H 547.565 1.77896 -5.45001 0
M  V30 5613 H 545.962 1.12456 -5.89469 0
M  V30 5614 H 547.032 0.176996 -4.84577 0
M  V30 5615 N 548.375 1.56261 0.205012 0
M  V30 5616 C 549.791 1.49623 0.555433 0
M  V30 5617 C 549.991 0.766719 1.86343 0
M  V30 5618 O 549.047 0.313158 2.50551 0
M  V30 5619 C 550.36 2.94253 0.619347 0
M  V30 5620 C 551.908 3.04868 0.708855 0
M  V30 5621 C 552.383 4.50888 0.803969 0
M  V30 5622 N 553.874 4.54999 0.867758 0
M  V30 5623 C 554.609 5.65284 0.96135 0
M  V30 5624 N 554.105 6.85282 1.01786 0
M  V30 5625 N 555.898 5.53174 0.997771 0
M  V30 5626 H 548.049 2.0211 -0.653094 0
M  V30 5627 H 550.312 0.919333 -0.231366 0
M  V30 5628 H 550.018 3.50643 -0.272458 0
M  V30 5629 H 549.892 3.47063 1.47741 0
M  V30 5630 H 552.279 2.48532 1.5911 0
M  V30 5631 H 552.36 2.55199 -0.175205 0
M  V30 5632 H 552.004 5.07846 -0.0738798 0
M  V30 5633 H 551.934 4.98279 1.70369 0
M  V30 5634 H 554.425 3.68588 0.833735 0
M  V30 5635 H 554.738 7.65081 1.08951 0
M  V30 5636 H 553.083 6.8796 0.986706 0
M  V30 5637 H 556.274 4.5835 0.950392 0
M  V30 5638 H 556.447 6.39151 1.06725 0
M  V30 5639 N 549.853 -0.472356 1.50355 0
M  V30 5640 C 551.078 -1.25251 1.65309 0
M  V30 5641 C 551.503 -1.85081 0.335643 0
M  V30 5642 O 550.861 -1.67227 -0.700335 0
M  V30 5643 C 550.909 -2.3379 2.74544 0
M  V30 5644 O 550.013 -3.38401 2.35709 0
M  V30 5645 H 549.354 -0.368539 0.552336 0
M  V30 5646 H 551.884 -0.562271 1.96722 0
M  V30 5647 H 551.894 -2.79121 2.97583 0
M  V30 5648 H 550.569 -1.89614 3.70161 0
M  V30 5649 H 549.146 -2.9879 2.23112 0
M  V30 5650 N 551.331 -1.39911 -0.725443 0
M  V30 5651 C 552.278 -1.39393 -1.83952 0
M  V30 5652 C 553.248 -0.252249 -1.64173 0
M  V30 5653 O 554.433 -0.44882 -1.85446 0
M  V30 5654 C 551.573 -1.25262 -3.21564 0
M  V30 5655 C 550.686 -2.49054 -3.52982 0
M  V30 5656 C 549.821 -2.27439 -4.80047 0
M  V30 5657 C 548.86 -3.46857 -5.04338 0
M  V30 5658 N 547.997 -3.24499 -6.22611 0
M  V30 5659 H 552.837 -2.34622 -1.83729 0
M  V30 5660 H 550.374 -1.16537 -0.897636 0
M  V30 5661 H 552.332 -1.15077 -4.01015 0
M  V30 5662 H 550.962 -0.33657 -3.21041 0
M  V30 5663 H 550.014 -2.69805 -2.6816 0
M  V30 5664 H 551.326 -3.37973 -3.66846 0
M  V30 5665 H 550.48 -2.14551 -5.67497 0
M  V30 5666 H 549.219 -1.35929 -4.68374 0
M  V30 5667 H 548.224 -3.60232 -4.15346 0
M  V30 5668 H 549.449 -4.3928 -5.17889 0
M  V30 5669 H 547.395 -2.35663 -6.12208 0
M  V30 5670 H 547.312 -4.06978 -6.37106 0
M  V30 5671 H 548.58 -3.15325 -7.12875 0
M  V30 5672 N 552.809 0.956637 -1.25245 0
M  V30 5673 C 554.034 1.74104 -1.12706 0
M  V30 5674 C 554.459 1.85436 0.315429 0
M  V30 5675 O 553.817 1.33334 1.22848 0
M  V30 5676 C 553.865 3.1338 -1.78396 0
M  V30 5677 O 552.969 3.98485 -1.06224 0
M  V30 5678 H 552.31 0.53476 -0.393609 0
M  V30 5679 H 554.84 1.19924 -1.65769 0
M  V30 5680 H 554.85 3.6385 -1.846 0
M  V30 5681 H 553.525 3.04448 -2.83345 0
M  V30 5682 H 552.102 3.56952 -1.07886 0
M  V30 5683 N 554.287 1.06798 1.15896 0
M  V30 5684 C 555.217 0.704677 2.22613 0
M  V30 5685 C 556.198 -0.305252 1.67339 0
M  V30 5686 O 557.383 -0.179247 1.93371 0
M  V30 5687 C 554.513 0.0957325 3.47168 0
M  V30 5688 C 553.467 1.0322 4.15367 0
M  V30 5689 C 552.793 0.286293 5.33933 0
M  V30 5690 C 554.093 2.36341 4.65768 0
M  V30 5691 H 555.787 1.59688 2.53259 0
M  V30 5692 H 553.333 0.769257 1.21731 0
M  V30 5693 H 555.286 -0.170333 4.21056 0
M  V30 5694 H 554.01 -0.831516 3.15838 0
M  V30 5695 H 552.669 1.28309 3.43413 0
M  V30 5696 H 552.317 -0.644237 4.98857 0
M  V30 5697 H 552.017 0.910436 5.80504 0
M  V30 5698 H 553.541 0.0278938 6.10594 0
M  V30 5699 H 554.955 2.1561 5.31211 0
M  V30 5700 H 553.352 2.94299 5.2298 0
M  V30 5701 H 554.422 2.99047 3.81705 0
M  V30 5702 N 555.766 -1.3263 0.851289 0
M  V30 5703 C 557.006 -1.99174 0.459266 0
M  V30 5704 C 557.37 -1.65913 -0.966273 0
M  V30 5705 O 558.571 -2.2552 -1.46267 0
M  V30 5706 C 556.842 -3.50721 0.687698 0
M  V30 5707 S 558.401 -4.37039 0.392746 0
M  V30 5708 H 555.219 -0.689832 0.172199 0
M  V30 5709 H 557.821 -1.61395 1.10327 0
M  V30 5710 H 556.525 -3.72417 1.72435 0
M  V30 5711 H 556.056 -3.93389 0.0299949 0
M  V30 5712 H 558.071 -4.8999 -0.782578 0
M  V30 5713 N 557.244 -0.608902 -1.45362 0
M  V30 5714 C 558.194 0.130616 -2.27626 0
M  V30 5715 C 559.178 0.837323 -1.37396 0
M  V30 5716 O 560.37 0.727096 -1.61376 0
M  V30 5717 C 557.499 1.12646 -3.24293 0
M  V30 5718 C 556.585 0.42052 -4.2201 0
M  V30 5719 N 556.976 -0.538569 -5.02925 0
M  V30 5720 C 555.274 0.667901 -4.40971 0
M  V30 5721 C 555.975 -0.953625 -5.7383 0
M  V30 5722 N 554.951 -0.297097 -5.42788 0
M  V30 5723 H 558.753 -0.605996 -2.87585 0
M  V30 5724 H 556.267 -0.432672 -1.5653 0
M  V30 5725 H 558.264 1.67066 -3.81961 0
M  V30 5726 H 556.924 1.86361 -2.65894 0
M  V30 5727 H 557.935 -0.915375 -5.09746 0
M  V30 5728 H 554.612 1.38963 -3.93695 0
M  V30 5729 H 556.002 -1.74473 -6.48852 0
M  V30 5730 N 558.722 1.53707 -0.348139 0
M  V30 5731 C 559.999 1.93247 0.302475 0
M  V30 5732 C 560.379 1.28012 1.67857 0
M  V30 5733 O 559.727 0.43274 2.24365 0
M  V30 5734 C 559.937 3.47031 0.370159 0
M  V30 5735 C 561.285 4.20066 0.61882 0
M  V30 5736 O 562.309 3.53319 0.452087 0
M  V30 5737 O 561.168 5.38318 0.94215 0
M  V30 5738 H 558.262 0.807736 0.177458 0
M  V30 5739 H 560.808 1.64927 -0.399651 0
M  V30 5740 H 559.58 3.86745 -0.59534 0
M  V30 5741 H 559.203 3.81532 1.11888 0
M  V30 5742 N 560.2 0.0768682 1.57412 0
M  V30 5743 C 561.11 -0.903207 2.16516 0
M  V30 5744 C 562.126 -1.32341 1.12968 0
M  V30 5745 O 563.302 -1.39507 1.45258 0
M  V30 5746 C 560.367 -2.1508 2.71922 0
M  V30 5747 C 559.428 -1.78653 3.90361 0
M  V30 5748 C 558.661 -2.97465 4.43114 0
M  V30 5749 O 558.884 -4.11638 3.94854 0
M  V30 5750 O 557.818 -2.76987 5.3438 0
M  V30 5751 H 561.644 -0.430427 3.00634 0
M  V30 5752 H 559.229 -0.146485 1.4868 0
M  V30 5753 H 561.111 -2.8823 3.07411 0
M  V30 5754 H 559.786 -2.61446 1.9086 0
M  V30 5755 H 558.693 -1.0274 3.59716 0
M  V30 5756 H 560.026 -1.37066 4.7273 0
M  V30 5757 N 561.678 -1.56367 -0.196722 0
M  V30 5758 C 562.927 -1.79724 -0.915539 0
M  V30 5759 C 563.24 -0.649804 -1.84491 0
M  V30 5760 O 564.446 -0.767631 -2.60422 0
M  V30 5761 C 562.902 -3.18369 -1.67836 0
M  V30 5762 C 562.51 -4.4091 -0.793897 0
M  V30 5763 C 564.254 -3.51037 -2.38691 0
M  V30 5764 C 562.161 -5.70577 -1.55549 0
M  V30 5765 H 561.091 -0.67013 -0.345604 0
M  V30 5766 H 563.742 -1.82721 -0.168856 0
M  V30 5767 H 562.124 -3.09617 -2.46887 0
M  V30 5768 H 563.298 -4.60781 -0.042163 0
M  V30 5769 H 561.613 -4.15937 -0.19626 0
M  V30 5770 H 564.21 -4.4515 -2.96219 0
M  V30 5771 H 564.553 -2.74704 -3.12799 0
M  V30 5772 H 565.086 -3.61229 -1.66608 0
M  V30 5773 H 561.825 -6.49871 -0.857226 0
M  V30 5774 H 561.345 -5.54726 -2.2812 0
M  V30 5775 H 563.024 -6.11637 -2.10971 0
M  V30 5776 N 563.156 0.464375 -1.50603 0
M  V30 5777 C 564.066 1.58723 -1.72754 0
M  V30 5778 C 565.082 1.62925 -0.610844 0
M  V30 5779 O 566.258 1.8067 -0.889963 0
M  V30 5780 C 563.323 2.94897 -1.82309 0
M  V30 5781 C 562.384 3.0103 -3.06071 0
M  V30 5782 C 561.617 4.30708 -3.1516 0
M  V30 5783 O 561.84 5.2159 -2.30868 0
M  V30 5784 O 560.774 4.42571 -4.0794 0
M  V30 5785 H 564.6 1.42954 -2.67951 0
M  V30 5786 H 562.185 0.644579 -1.3478 0
M  V30 5787 H 564.067 3.75764 -1.90735 0
M  V30 5788 H 562.742 3.10851 -0.902967 0
M  V30 5789 H 561.649 2.19217 -3.03142 0
M  V30 5790 H 562.982 2.90014 -3.97684 0
M  V30 5791 N 564.634 1.40294 0.718013 0
M  V30 5792 C 565.582 1.40536 1.85344 0
M  V30 5793 C 566.576 0.286192 1.66965 0
M  V30 5794 O 567.782 0.457105 1.74099 0
M  V30 5795 H 564.157 0.439236 0.61039 0
M  V30 5796 H 566.128 2.36275 1.82255 0
M  V30 5797 C 564.877 1.28245 3.23185 0
M  V30 5798 H 564.2 2.1364 3.37932 0
M  V30 5799 H 565.64 1.32474 4.02774 0
M  V30 5800 C 564.099 -0.0075503 3.36899 0
M  V30 5801 O 564.629 -0.971391 3.89778 0
M  V30 5802 N 562.835 -0.0762479 2.905 0
M  V30 5803 H 562.382 0.708819 2.47656 0
M  V30 5804 H 562.34 -0.938846 3.00055 0
M  V30 5805 N 566.112 -0.949982 1.2575 0
M  V30 5806 C 567.042 -2.06483 1.09028 0
M  V30 5807 C 568.023 -1.701 -0.00201532 0
M  V30 5808 O 569.208 -1.93469 0.168383 0
M  V30 5809 C 566.338 -3.39899 0.71316 0
M  V30 5810 C 565.292 -3.90309 1.75621 0
M  V30 5811 C 564.618 -5.20274 1.23365 0
M  V30 5812 C 565.918 -4.16169 3.15596 0
M  V30 5813 H 567.612 -2.20731 2.02283 0
M  V30 5814 H 565.158 -1.06066 0.973964 0
M  V30 5815 H 567.111 -4.17346 0.58309 0
M  V30 5816 H 565.835 -3.25602 -0.255091 0
M  V30 5817 H 564.494 -3.15035 1.8748 0
M  V30 5818 H 564.142 -5.02351 0.255491 0
M  V30 5819 H 563.842 -5.54971 1.93082 0
M  V30 5820 H 565.366 -6.00314 1.11607 0
M  V30 5821 H 566.78 -4.84259 3.06864 0
M  V30 5822 H 565.177 -4.62131 3.82825 0
M  V30 5823 H 566.247 -3.22273 3.6231 0
M  V30 5824 N 567.59 -1.07411 -1.15328 0
M  V30 5825 C 568.52 -0.716472 -2.22236 0
M  V30 5826 C 569.501 0.296373 -1.67498 0
M  V30 5827 O 570.686 0.168989 -1.93463 0
M  V30 5828 C 567.816 -0.114142 -3.47112 0
M  V30 5829 C 566.77 -1.05421 -4.14814 0
M  V30 5830 C 566.096 -0.314604 -5.33774 0
M  V30 5831 C 567.396 -2.38808 -4.64508 0
M  V30 5832 H 569.09 -1.61029 -2.52408 0
M  V30 5833 H 566.636 -0.775702 -1.21321 0
M  V30 5834 H 568.589 0.148001 -4.2114 0
M  V30 5835 H 567.313 0.814755 -3.16274 0
M  V30 5836 H 565.972 -1.30128 -3.42728 0
M  V30 5837 H 565.62 0.617772 -4.99192 0
M  V30 5838 H 565.32 -0.941209 -5.80013 0
M  V30 5839 H 566.844 -0.0602747 -6.1057 0
M  V30 5840 H 568.258 -2.18424 -5.3006 0
M  V30 5841 H 566.655 -2.97069 -5.21412 0
M  V30 5842 H 567.725 -3.01067 -3.80114 0
M  V30 5843 N 569.068 1.32177 -0.85831 0
M  V30 5844 C 570.345 1.91781 -0.384624 0
M  V30 5845 C 570.725 1.78171 1.13217 0
M  V30 5846 O 570.073 1.18209 1.95548 0
M  V30 5847 C 570.283 3.38414 -0.853047 0
M  V30 5848 C 571.631 4.15542 -0.872359 0
M  V30 5849 O 572.655 3.47148 -0.797926 0
M  V30 5850 O 571.514 5.37678 -0.978009 0
M  V30 5851 H 568.608 0.819259 -0.112886 0
M  V30 5852 H 571.154 1.40923 -0.945453 0
M  V30 5853 H 569.926 3.4228 -1.89632 0
M  V30 5854 H 569.549 3.96683 -0.269874 0
M  V30 5855 N 570.547 0.616602 1.45037 0
M  V30 5856 C 571.772 0.120192 2.07051 0
M  V30 5857 C 572.197 -1.19008 1.45666 0
M  V30 5858 O 571.555 -1.7267 0.552692 0
M  V30 5859 C 571.603 0.00354901 3.606 0
M  V30 5860 O 570.707 -1.04431 3.98958 0
M  V30 5861 H 570.048 0.0781599 0.659384 0
M  V30 5862 H 572.578 0.849167 1.86146 0
M  V30 5863 H 572.588 -0.191754 4.07549 0
M  V30 5864 H 571.263 0.960239 4.04663 0
M  V30 5865 H 569.84 -0.824749 3.63665 0
M  V30 5866 N 572.025 -1.5352 0.356285 0
M  V30 5867 C 573.302 -1.93405 -0.292223 0
M  V30 5868 C 573.682 -1.28901 -1.67176 0
M  V30 5869 O 573.03 -0.444632 -2.24132 0
M  V30 5870 C 573.24 -3.47223 -0.35175 0
M  V30 5871 C 574.588 -4.20389 -0.596534 0
M  V30 5872 O 575.612 -3.53554 -0.433344 0
M  V30 5873 O 574.471 -5.3881 -0.913589 0
M  V30 5874 H 571.565 -0.808666 -0.173172 0
M  V30 5875 H 574.111 -1.64713 0.408391 0
M  V30 5876 H 572.883 -3.86423 0.615841 0
M  V30 5877 H 572.506 -3.8212 -1.09864 0
M  V30 5878 N 573.503 -0.0852151 -1.57369 0
M  V30 5879 C 574.453 0.88767 -2.10011 0
M  V30 5880 C 575.437 1.25021 -1.01285 0
M  V30 5881 O 576.629 1.22694 -1.27574 0
M  V30 5882 C 573.758 2.15037 -2.67608 0
M  V30 5883 C 572.844 1.81371 -3.83361 0
M  V30 5884 N 573.235 1.18216 -4.91791 0
M  V30 5885 C 571.533 2.11041 -3.92909 0
M  V30 5886 C 572.234 1.02941 -5.72519 0
M  V30 5887 N 571.21 1.54351 -5.21226 0
M  V30 5888 H 575.012 0.395279 -2.9123 0
M  V30 5889 H 572.526 0.11829 -1.61969 0
M  V30 5890 H 574.523 2.85667 -3.03644 0
M  V30 5891 H 573.183 2.64851 -1.8784 0
M  V30 5892 H 574.194 0.850168 -5.10874 0
M  V30 5893 H 570.871 2.63138 -3.24136 0
M  V30 5894 H 572.261 0.536298 -6.69756 0
M  V30 5895 N 574.981 1.5647 0.188427 0
M  V30 5896 C 576.397 1.50204 0.539532 0
M  V30 5897 C 576.597 0.78644 1.85519 0
M  V30 5898 O 575.653 0.339714 2.50204 0
M  V30 5899 C 576.966 2.94893 0.588103 0
M  V30 5900 C 578.514 3.05602 0.67648 0
M  V30 5901 C 578.989 4.51716 0.756101 0
M  V30 5902 N 580.48 4.55894 0.819451 0
M  V30 5903 C 581.215 5.66272 0.90134 0
M  V30 5904 N 580.711 6.86323 0.945118 0
M  V30 5905 N 582.504 5.54201 0.939043 0
M  V30 5906 H 574.655 2.01406 -0.674493 0
M  V30 5907 H 576.918 0.916828 -0.241103 0
M  V30 5908 H 576.624 3.50334 -0.309633 0
M  V30 5909 H 576.498 3.4861 1.44051 0
M  V30 5910 H 578.885 2.50206 1.56465 0
M  V30 5911 H 578.966 2.54999 -0.202262 0
M  V30 5912 H 578.61 5.07739 -0.12774 0
M  V30 5913 H 578.54 5.00058 1.65074 0
M  V30 5914 H 581.031 3.69452 0.794594 0
M  V30 5915 H 581.344 7.66194 1.0083 0
M  V30 5916 H 579.689 6.88968 0.913683 0
M  V30 5917 H 582.88 4.59333 0.901725 0
M  V30 5918 H 583.053 6.40247 0.999402 0
M  V30 5919 N 576.459 -0.456382 1.50847 0
M  V30 5920 C 577.369 -1.57805 1.73594 0
M  V30 5921 C 578.385 -1.62599 0.619476 0
M  V30 5922 O 579.561 -1.80195 0.899532 0
M  V30 5923 C 576.626 -2.93926 1.8387 0
M  V30 5924 C 575.687 -2.99402 3.07663 0
M  V30 5925 C 574.92 -4.29031 3.1744 0
M  V30 5926 O 575.143 -5.20358 2.33631 0
M  V30 5927 O 574.077 -4.40401 4.10281 0
M  V30 5928 H 577.903 -1.41531 2.68705 0
M  V30 5929 H 575.488 -0.637422 1.3512 0
M  V30 5930 H 577.37 -3.74747 1.92725 0
M  V30 5931 H 576.045 -3.10368 0.91944 0
M  V30 5932 H 574.952 -2.17606 3.043 0
M  V30 5933 H 576.285 -2.87901 3.99216 0
M  V30 5934 N 577.937 -1.40673 -0.710563 0
M  V30 5935 C 578.867 -1.44095 -1.83736 0
M  V30 5936 C 579.848 -0.301286 -1.67411 0
M  V30 5937 O 581.033 -0.510618 -1.87367 0
M  V30 5938 C 578.163 -1.30773 -3.21738 0
M  V30 5939 C 577.117 -2.42395 -3.52745 0
M  V30 5940 C 576.443 -2.14147 -4.89944 0
M  V30 5941 C 577.743 -3.84738 -3.53234 0
M  V30 5942 H 579.437 -2.38396 -1.81129 0
M  V30 5943 H 576.983 -1.14746 -0.870017 0
M  V30 5944 H 578.936 -1.31783 -4.00264 0
M  V30 5945 H 577.66 -0.329507 -3.24934 0
M  V30 5946 H 576.319 -2.40643 -2.76562 0
M  V30 5947 H 575.967 -1.14703 -4.89747 0
M  V30 5948 H 575.667 -2.88934 -5.11655 0
M  V30 5949 H 577.191 -2.16848 -5.70797 0
M  V30 5950 H 578.605 -3.88286 -4.2179 0
M  V30 5951 H 577.002 -4.59085 -3.86473 0
M  V30 5952 H 578.072 -4.13962 -2.52514 0
M  V30 5953 N 579.415 0.9433 -1.26252 0
M  V30 5954 C 580.664 1.68369 -1.11062 0
M  V30 5955 C 580.977 1.92514 0.346104 0
M  V30 5956 O 582.183 2.64358 0.618646 0
M  V30 5957 C 580.639 3.03171 -1.93946 0
M  V30 5958 C 580.247 2.86782 -3.4418 0
M  V30 5959 C 581.991 3.80916 -1.87359 0
M  V30 5960 C 579.898 4.17044 -4.19319 0
M  V30 5961 H 578.828 0.631469 -0.412023 0
M  V30 5962 H 581.479 1.04922 -1.50544 0
M  V30 5963 H 579.861 3.67587 -1.47296 0
M  V30 5964 H 581.035 2.31229 -3.98585 0
M  V30 5965 H 579.35 2.22482 -3.51981 0
M  V30 5966 H 581.947 4.77417 -2.40784 0
M  V30 5967 H 582.29 4.07658 -0.843857 0
M  V30 5968 H 582.823 3.2327 -2.31821 0
M  V30 5969 H 579.562 3.95487 -5.22753 0
M  V30 5970 H 579.082 4.72319 -3.69696 0
M  V30 5971 H 580.761 4.85513 -4.27651 0
M  V30 5972 N 580.893 1.08022 1.14757 0
M  V30 5973 C 582.141 0.805913 1.85336 0
M  V30 5974 C 582.462 -0.670162 1.83122 0
M  V30 5975 O 581.732 -1.48567 1.2769 0
M  V30 5976 H 580.312 0.295138 0.686223 0
M  V30 5977 H 582.974 1.36538 1.3908 0
M  V30 5978 H 582.07 1.14655 2.90277 0
M  V30 5979 N 582.371 -1.3172 0.865308 0
M  V30 5980 C 583.648 -1.91574 0.394789 0
M  V30 5981 C 584.028 -1.78769 -1.12271 0
M  V30 5982 O 583.376 -1.19245 -1.94918 0
M  V30 5983 C 583.586 -3.37957 0.870982 0
M  V30 5984 C 584.934 -4.15073 0.894384 0
M  V30 5985 O 585.958 -3.4672 0.816325 0
M  V30 5986 O 584.817 -5.37151 1.00651 0
M  V30 5987 H 581.911 -0.818649 0.117229 0
M  V30 5988 H 584.457 -1.4042 0.952913 0
M  V30 5989 H 583.229 -3.41269 1.91444 0
M  V30 5990 H 582.852 -3.96534 0.290907 0
M  V30 5991 N 583.85 -0.624285 -1.44708 0
M  V30 5992 C 585.08 -0.132726 -2.06173 0
M  V30 5993 C 585.488 1.19513 -1.46674 0
M  V30 5994 O 584.831 1.74254 -0.581491 0
M  V30 5995 C 584.893 0.0636732 -3.59444 0
M  V30 5996 C 584.557 -1.18496 -4.4137 0
M  V30 5997 C 585.553 -2.10706 -4.75288 0
M  V30 5998 C 583.239 -1.41846 -4.81856 0
M  V30 5999 C 585.233 -3.24582 -5.48567 0
M  V30 6000 C 582.92 -2.5602 -5.54885 0
M  V30 6001 C 583.918 -3.47215 -5.88159 0
M  V30 6002 O 583.606 -4.59399 -6.59703 0
M  V30 6003 H 583.338 -0.0737313 -0.671967 0
M  V30 6004 H 585.892 -0.856789 -1.86677 0
M  V30 6005 H 584.122 0.842809 -3.77404 0
M  V30 6006 H 585.811 0.508924 -4.02697 0
M  V30 6007 H 586.577 -1.93898 -4.44554 0
M  V30 6008 H 582.456 -0.717556 -4.55381 0
M  V30 6009 H 586 -3.95785 -5.74456 0
M  V30 6010 H 581.897 -2.72774 -5.85034 0
M  V30 6011 H 582.665 -4.58293 -6.78166 0
M  V30 6012 N 585.328 1.53329 -0.364422 0
M  V30 6013 C 586.553 2.06132 0.229033 0
M  V30 6014 C 586.978 1.23625 1.41769 0
M  V30 6015 O 586.336 0.255038 1.79497 0
M  V30 6016 C 586.384 3.55544 0.60174 0
M  V30 6017 O 585.488 3.75771 1.69912 0
M  V30 6018 H 584.829 0.663148 0.0336213 0
M  V30 6019 H 587.359 1.97758 -0.524689 0
M  V30 6020 H 587.369 3.98549 0.873073 0
M  V30 6021 H 586.044 4.15039 -0.267421 0
M  V30 6022 H 584.621 3.44663 1.42343 0
M  V30 6023 N 586.806 0.0935595 1.57322 0
M  V30 6024 C 587.753 -0.865935 2.1394 0
M  V30 6025 C 588.723 -1.28083 1.05754 0
M  V30 6026 O 589.908 -1.36285 1.33533 0
M  V30 6027 C 587.048 -2.12023 2.72287 0
M  V30 6028 C 586.161 -1.756 3.94701 0
M  V30 6029 C 585.296 -2.95804 4.41218 0
M  V30 6030 C 584.335 -2.555 5.56225 0
M  V30 6031 N 583.472 -3.68534 5.97601 0
M  V30 6032 H 588.312 -0.376261 2.95615 0
M  V30 6033 H 585.849 -0.174052 1.46067 0
M  V30 6034 H 587.807 -2.85477 3.04235 0
M  V30 6035 H 586.437 -2.58492 1.93343 0
M  V30 6036 H 585.489 -0.921208 3.69077 0
M  V30 6037 H 586.801 -1.41964 4.78171 0
M  V30 6038 H 585.955 -3.77513 4.74941 0
M  V30 6039 H 584.694 -3.32649 3.56645 0
M  V30 6040 H 583.699 -1.72218 5.22131 0
M  V30 6041 H 584.924 -2.19801 6.42545 0
M  V30 6042 H 582.87 -4.051 5.15974 0
M  V30 6043 H 582.787 -3.38737 6.75865 0
M  V30 6044 H 584.055 -4.50757 6.35955 0
M  V30 6045 N 588.284 -1.56567 -0.180126 0
M  V30 6046 C 589.247 -1.94852 -1.20686 0
M  V30 6047 C 590.247 -0.831212 -1.3765 0
M  V30 6048 O 591.437 -1.09841 -1.35206 0
M  V30 6049 C 588.569 -2.23565 -2.57355 0
M  V30 6050 H 589.762 -2.86722 -0.879225 0
M  V30 6051 H 587.315 -1.50489 -0.422237 0
M  V30 6052 H 588.05 -1.34381 -2.95148 0
M  V30 6053 H 587.835 -3.04999 -2.46411 0
M  V30 6054 H 589.325 -2.54137 -3.31367 0
M  V30 6055 N 589.762 0.448376 -1.51087 0
M  V30 6056 C 591.009 1.19872 -1.63209 0
M  V30 6057 C 591.337 1.91451 -0.343062 0
M  V30 6058 O 590.592 1.83789 0.672321 0
M  V30 6059 C 590.891 2.24866 -2.77795 0
M  V30 6060 C 590.557 1.70378 -4.17471 0
M  V30 6061 C 589.219 1.55241 -4.55471 0
M  V30 6062 C 591.571 1.30203 -5.04675 0
M  V30 6063 C 588.899 0.983844 -5.78392 0
M  V30 6064 C 591.251 0.747798 -6.28165 0
M  V30 6065 C 589.915 0.583233 -6.64947 0
M  V30 6066 H 589.185 0.438642 -0.597222 0
M  V30 6067 H 591.832 0.49136 -1.85089 0
M  V30 6068 H 590.137 3.01598 -2.50092 0
M  V30 6069 H 591.834 2.82723 -2.84374 0
M  V30 6070 H 588.424 1.83134 -3.87505 0
M  V30 6071 H 592.608 1.40723 -4.75932 0
M  V30 6072 H 587.864 0.844007 -6.05546 0
M  V30 6073 H 592.038 0.427927 -6.95084 0
M  V30 6074 H 589.665 0.140532 -7.6007 0
M  V30 6075 N 591.24 1.41047 0.703093 0
M  V30 6076 C 592.17 1.45067 1.82969 0
M  V30 6077 C 593.151 0.31016 1.67248 0
M  V30 6078 O 594.336 0.520548 1.87093 0
M  V30 6079 C 591.466 1.32478 3.2104 0
M  V30 6080 C 590.42 2.44262 3.51454 0
M  V30 6081 C 589.746 2.16742 4.88801 0
M  V30 6082 C 591.046 3.86606 3.51189 0
M  V30 6083 H 592.74 2.39353 1.79863 0
M  V30 6084 H 590.286 1.15206 0.863919 0
M  V30 6085 H 592.239 1.33904 3.99559 0
M  V30 6086 H 590.963 0.346735 3.24754 0
M  V30 6087 H 589.622 2.42107 2.75282 0
M  V30 6088 H 589.27 1.17299 4.89132 0
M  V30 6089 H 588.97 2.91643 5.10116 0
M  V30 6090 H 590.494 2.19872 5.69639 0
M  V30 6091 H 591.908 3.90517 4.19725 0
M  V30 6092 H 590.305 4.61128 3.84033 0
M  V30 6093 H 591.375 4.15296 2.50315 0
M  V30 6094 N 592.718 -0.936591 1.26751 0
M  V30 6095 C 593.648 -2.05315 1.11212 0
M  V30 6096 C 594.629 -1.70092 0.0160262 0
M  V30 6097 O 595.814 -1.93279 0.188894 0
M  V30 6098 C 592.944 -3.39123 0.749171 0
M  V30 6099 C 591.898 -3.88425 1.79751 0
M  V30 6100 C 591.224 -5.18936 1.28876 0
M  V30 6101 C 592.524 -4.12798 3.19992 0
M  V30 6102 H 594.218 -2.18573 2.04613 0
M  V30 6103 H 591.764 -1.05027 0.985159 0
M  V30 6104 H 593.717 -4.16704 0.627323 0
M  V30 6105 H 592.441 -3.25855 -0.220543 0
M  V30 6106 H 591.1 -3.13028 1.90811 0
M  V30 6107 H 590.748 -5.02051 0.308757 0
M  V30 6108 H 590.448 -5.52892 1.98958 0
M  V30 6109 H 591.972 -5.99096 1.17967 0
M  V30 6110 H 593.386 -4.80977 3.11983 0
M  V30 6111 H 591.783 -4.58044 3.87705 0
M  V30 6112 H 592.853 -3.18412 3.65707 0
M  V30 6113 N 594.196 -1.08629 -1.14182 0
M  V30 6114 C 595.128 -0.676189 -2.18998 0
M  V30 6115 C 596.141 0.277871 -1.60411 0
M  V30 6116 O 597.33 0.0651771 -1.78381 0
M  V30 6117 C 594.43 0.0254916 -3.3889 0
M  V30 6118 C 593.603 -0.948039 -4.27002 0
M  V30 6119 C 592.662 -0.281268 -5.25448 0
M  V30 6120 O 591.688 -0.926378 -5.61611 0
M  V30 6121 N 592.89 0.967923 -5.72374 0
M  V30 6122 H 595.655 -1.57792 -2.54798 0
M  V30 6123 H 593.216 -0.972665 -1.29425 0
M  V30 6124 H 595.208 0.482554 -4.01813 0
M  V30 6125 H 593.778 0.829348 -3.01398 0
M  V30 6126 H 592.998 -1.58388 -3.6098 0
M  V30 6127 H 594.286 -1.60765 -4.82734 0
M  V30 6128 H 593.684 1.51175 -5.45126 0
M  V30 6129 H 592.241 1.36844 -6.37273 0
M  V30 6130 N 595.674 1.31259 -0.872281 0
M  V30 6131 C 596.902 2.00795 -0.498907 0
M  V30 6132 C 597.317 1.65464 0.909238 0
M  V30 6133 O 596.674 0.885073 1.59602 0
M  V30 6134 C 596.725 3.55625 -0.649092 0
M  V30 6135 O 596.446 3.89692 -2.00179 0
M  V30 6136 C 597.947 4.42434 -0.277034 0
M  V30 6137 H 595.167 0.642299 -0.194145 0
M  V30 6138 H 597.711 1.67438 -1.17408 0
M  V30 6139 H 595.866 3.87394 -0.0214402 0
M  V30 6140 H 596.28 4.84407 -2.01122 0
M  V30 6141 H 597.754 5.50299 -0.433064 0
M  V30 6142 H 598.231 4.32146 0.783989 0
M  V30 6143 H 598.837 4.16086 -0.880483 0
M  V30 6144 N 597.152 0.631951 1.44375 0
M  V30 6145 C 598.398 0.13697 2.02337 0
M  V30 6146 C 598.731 -1.23826 1.49602 0
M  V30 6147 O 598.006 -1.8221 0.680415 0
M  V30 6148 C 598.289 0.124536 3.59885 0
M  V30 6149 C 598.142 1.53217 4.229 0
M  V30 6150 C 599.461 -0.550481 4.36644 0
M  V30 6151 H 596.58 0.051247 0.735216 0
M  V30 6152 H 599.222 0.808581 1.71936 0
M  V30 6153 H 597.372 -0.44737 3.85916 0
M  V30 6154 H 599.044 2.15303 4.07973 0
M  V30 6155 H 597.287 2.0858 3.80364 0
M  V30 6156 H 597.958 1.4755 5.31914 0
M  V30 6157 H 600.434 -0.0641154 4.16051 0
M  V30 6158 H 599.31 -0.528371 5.46351 0
M  V30 6159 H 599.571 -1.62097 4.11311 0
M  V30 6160 N 598.631 -1.53133 0.372548 0
M  V30 6161 C 599.908 -1.93704 -0.271693 0
M  V30 6162 C 600.288 -1.30667 -1.65799 0
M  V30 6163 O 599.636 -0.46838 -2.23648 0
M  V30 6164 C 599.846 -3.47576 -0.314903 0
M  V30 6165 C 601.194 -4.20998 -0.551912 0
M  V30 6166 O 602.218 -3.53994 -0.39582 0
M  V30 6167 O 601.077 -5.39748 -0.85639 0
M  V30 6168 H 598.171 -0.810457 -0.164586 0
M  V30 6169 H 600.717 -1.6427 0.425838 0
M  V30 6170 H 599.489 -3.85749 0.656792 0
M  V30 6171 H 599.112 -3.83264 -1.05804 0
M  V30 6172 N 600.109 -0.101901 -1.5727 0
M  V30 6173 C 601.357 0.559091 -1.94213 0
M  V30 6174 C 601.678 1.68297 -0.984948 0
M  V30 6175 O 600.948 1.95863 -0.0381975 0
M  V30 6176 H 599.528 0.20952 -0.717015 0
M  V30 6177 H 602.19 -0.166831 -1.94185 0
M  V30 6178 H 601.286 0.96485 -2.96811 0
M  V30 6179 N 601.587 1.56661 0.17182 0
M  V30 6180 C 602.534 1.96371 1.21273 0
M  V30 6181 C 603.504 0.82756 1.44016 0
M  V30 6182 O 604.689 1.08764 1.56764 0
M  V30 6183 C 601.829 2.32838 2.54716 0
M  V30 6184 C 600.942 3.59628 2.39356 0
M  V30 6185 C 600.077 3.85311 3.65662 0
M  V30 6186 C 599.116 5.0545 3.45234 0
M  V30 6187 N 598.253 5.27268 4.63608 0
M  V30 6188 H 603.093 2.85106 0.86709 0
M  V30 6189 H 600.63 1.41073 0.416744 0
M  V30 6190 H 602.588 2.52004 3.3249 0
M  V30 6191 H 601.218 1.47214 2.87277 0
M  V30 6192 H 600.27 3.4838 1.52761 0
M  V30 6193 H 601.582 4.4756 2.20207 0
M  V30 6194 H 600.736 4.04841 4.51872 0
M  V30 6195 H 599.475 2.95753 3.8779 0
M  V30 6196 H 598.48 4.85819 2.5741 0
M  V30 6197 H 599.705 5.96538 3.24529 0
M  V30 6198 H 597.651 4.40662 4.85956 0
M  V30 6199 H 597.568 6.09422 4.4737 0
M  V30 6200 H 598.836 5.51277 5.51103 0
M  V30 6201 N 603.065 -0.440357 1.51323 0
M  V30 6202 C 604.015 -1.53263 1.68803 0
M  V30 6203 C 604.999 -1.51494 0.542057 0
M  V30 6204 O 606.191 -1.57999 0.797839 0
M  V30 6205 C 603.32 -2.91479 1.8137 0
M  V30 6206 C 602.406 -2.98015 3.01742 0
M  V30 6207 N 602.797 -2.743 4.24962 0
M  V30 6208 C 601.095 -3.29173 3.00934 0
M  V30 6209 C 601.796 -2.86601 5.06197 0
M  V30 6210 N 600.772 -3.1814 4.40781 0
M  V30 6211 H 604.574 -1.33675 2.61741 0
M  V30 6212 H 602.088 -0.647616 1.48929 0
M  V30 6213 H 604.085 -3.70055 1.92002 0
M  V30 6214 H 602.745 -3.12089 0.896117 0
M  V30 6215 H 603.756 -2.49287 4.53957 0
M  V30 6216 H 600.433 -3.55577 2.18796 0
M  V30 6217 H 601.823 -2.72246 6.14274 0
M  V30 6218 N 604.543 -1.41418 -0.695603 0
M  V30 6219 C 605.475 -1.39195 -1.82092 0
M  V30 6220 C 606.488 -0.294132 -1.60121 0
M  V30 6221 O 607.677 -0.555854 -1.69625 0
M  V30 6222 C 604.777 -1.14828 -3.18854 0
M  V30 6223 C 603.95 -2.36649 -3.67853 0
M  V30 6224 C 603.009 -2.08139 -4.83285 0
M  V30 6225 O 602.035 -2.81177 -4.94902 0
M  V30 6226 N 603.237 -1.07162 -5.70523 0
M  V30 6227 H 606.002 -2.36185 -1.84491 0
M  V30 6228 H 603.563 -1.3603 -0.877923 0
M  V30 6229 H 605.555 -0.937075 -3.93702 0
M  V30 6230 H 604.125 -0.264358 -3.1148 0
M  V30 6231 H 603.345 -2.73472 -2.83913 0
M  V30 6232 H 604.633 -3.17816 -3.97329 0
M  V30 6233 H 604.031 -0.467124 -5.63768 0
M  V30 6234 H 602.588 -0.920311 -6.4527 0
M  V30 6235 N 606.021 0.929856 -1.27246 0
M  V30 6236 C 607.298 1.65544 -1.04186 0
M  V30 6237 C 607.678 2.06796 0.424097 0
M  V30 6238 O 607.026 1.80053 1.40688 0
M  V30 6239 C 607.236 2.85912 -2.00138 0
M  V30 6240 C 608.584 3.57305 -2.29387 0
M  V30 6241 O 609.608 2.96036 -1.98094 0
M  V30 6242 O 608.467 4.67688 -2.82719 0
M  V30 6243 H 605.561 0.725473 -0.397011 0
M  V30 6244 H 608.107 0.980583 -1.38501 0
M  V30 6245 H 606.879 2.52403 -2.99013 0
M  V30 6246 H 606.502 3.61118 -1.66371 0
M  V30 6247 N 607.499 1.09233 1.13605 0
M  V30 6248 C 608.429 0.751738 2.21068 0
M  V30 6249 C 609.41 -0.269688 1.67948 0
M  V30 6250 O 610.595 -0.13819 1.93708 0
M  V30 6251 C 607.725 0.16935 3.46887 0
M  V30 6252 C 606.679 1.12007 4.13084 0
M  V30 6253 C 606.005 0.399483 5.33206 0
M  V30 6254 C 607.305 2.46168 4.6065 0
M  V30 6255 H 608.999 1.65024 2.49815 0
M  V30 6256 H 606.545 0.794905 1.20072 0
M  V30 6257 H 608.498 -0.0809824 4.21322 0
M  V30 6258 H 607.222 -0.764335 3.1753 0
M  V30 6259 H 605.881 1.35564 3.40614 0
M  V30 6260 H 605.529 -0.538277 5.00112 0
M  V30 6261 H 605.229 1.03337 5.78442 0
M  V30 6262 H 606.753 0.157403 6.10397 0
M  V30 6263 H 608.167 2.26829 5.26518 0
M  V30 6264 H 606.564 3.05326 5.1662 0
M  V30 6265 H 607.634 3.07076 3.75276 0
M  V30 6266 N 608.977 -1.30795 0.87923 0
M  V30 6267 C 609.924 -2.28282 0.339968 0
M  V30 6268 C 610.894 -1.56134 -0.566685 0
M  V30 6269 O 612.079 -1.84231 -0.496338 0
M  V30 6270 C 609.219 -3.42225 -0.444501 0
M  V30 6271 C 608.332 -4.29204 0.490717 0
M  V30 6272 C 607.467 -5.30302 -0.308784 0
M  V30 6273 C 606.506 -6.08929 0.622272 0
M  V30 6274 N 605.643 -7.01957 -0.14155 0
M  V30 6275 H 610.483 -2.73794 1.17647 0
M  V30 6276 H 608.02 -1.34682 0.591527 0
M  V30 6277 H 609.978 -4.07038 -0.915186 0
M  V30 6278 H 608.608 -2.97799 -1.24562 0
M  V30 6279 H 607.66 -3.6475 1.07988 0
M  V30 6280 H 608.972 -4.84045 1.20425 0
M  V30 6281 H 608.126 -6.00835 -0.841575 0
M  V30 6282 H 606.865 -4.7614 -1.05556 0
M  V30 6283 H 605.87 -5.37278 1.16674 0
M  V30 6284 H 607.095 -6.65178 1.36804 0
M  V30 6285 H 605.041 -6.50192 -0.870966 0
M  V30 6286 H 604.958 -7.54261 0.51246 0
M  V30 6287 H 606.226 -7.76741 -0.655271 0
M  V30 6288 N 610.455 -0.639598 -1.44038 0
M  V30 6289 C 611.685 -0.154586 -2.06021 0
M  V30 6290 C 612.093 1.17951 -1.47933 0
M  V30 6291 O 611.436 1.73627 -0.59994 0
M  V30 6292 C 611.498 0.0255459 -3.59491 0
M  V30 6293 C 611.162 -1.2317 -4.40089 0
M  V30 6294 C 612.159 -2.15735 -4.73027 0
M  V30 6295 C 609.844 -1.46949 -4.80324 0
M  V30 6296 C 611.838 -3.30382 -5.45093 0
M  V30 6297 C 609.525 -2.61891 -5.52138 0
M  V30 6298 C 610.523 -3.53433 -5.84443 0
M  V30 6299 O 610.211 -4.6637 -6.54793 0
M  V30 6300 H 609.943 -0.0808543 -0.671147 0
M  V30 6301 H 612.497 -0.876541 -1.85758 0
M  V30 6302 H 610.727 0.802733 -3.78276 0
M  V30 6303 H 612.416 0.466184 -4.03214 0
M  V30 6304 H 613.182 -1.98602 -4.42473 0
M  V30 6305 H 609.061 -0.765815 -4.54595 0
M  V30 6306 H 612.605 -4.01856 -5.70226 0
M  V30 6307 H 608.502 -2.78964 -5.82108 0
M  V30 6308 H 609.27 -4.6546 -6.73267 0
M  V30 6309 N 611.933 1.52934 -0.380664 0
M  V30 6310 C 613.182 2.00651 0.205477 0
M  V30 6311 C 613.495 1.27164 1.48623 0
M  V30 6312 O 614.701 1.65547 2.15189 0
M  V30 6313 C 613.157 3.57479 0.416726 0
M  V30 6314 C 612.765 4.39857 -0.850268 0
M  V30 6315 C 614.509 4.13509 0.959702 0
M  V30 6316 C 612.416 5.88269 -0.607773 0
M  V30 6317 H 611.346 0.749684 0.0805614 0
M  V30 6318 H 613.997 1.76508 -0.501732 0
M  V30 6319 H 612.379 3.77836 1.18557 0
M  V30 6320 H 613.553 4.31269 -1.62307 0
M  V30 6321 H 611.868 3.95005 -1.31756 0
M  V30 6322 H 614.465 5.22039 1.15669 0
M  V30 6323 H 614.808 3.69054 1.92626 0
M  V30 6324 H 615.341 3.9701 0.250645 0
M  V30 6325 H 612.08 6.3703 -1.54509 0
M  V30 6326 H 611.6 5.99667 0.126247 0
M  V30 6327 H 613.279 6.46558 -0.239014 0
M  V30 6328 N 613.412 0.11024 1.57214 0
M  V30 6329 C 614.637 -0.561179 1.99664 0
M  V30 6330 C 615.062 -1.59985 0.989266 0
M  V30 6331 O 614.42 -1.81255 -0.0402399 0
M  V30 6332 C 614.468 -1.17189 3.41027 0
M  V30 6333 O 613.572 -2.28755 3.4314 0
M  V30 6334 H 612.913 -0.14101 0.648855 0
M  V30 6335 H 615.443 0.196128 2.03658 0
M  V30 6336 H 615.453 -1.50954 3.79047 0
M  V30 6337 H 614.128 -0.411041 4.13864 0
M  V30 6338 H 612.705 -1.96495 3.16929 0
M  V30 6339 N 614.89 -1.56749 -0.16351 0
M  V30 6340 C 616.301 -1.72039 -0.725216 0
M  V30 6341 C 616.652 -0.72202 -1.82432 0
M  V30 6342 O 615.777 0.114942 -2.16095 0
M  V30 6343 C 616.372 -3.11932 -1.32227 0
M  V30 6344 C 614.931 -3.28879 -1.83072 0
M  V30 6345 C 614.078 -2.67984 -0.712716 0
M  V30 6346 H 617.029 -1.58579 0.0619772 0
M  V30 6347 H 617.05 -3.11015 -2.19202 0
M  V30 6348 H 616.562 -3.84572 -0.522103 0
M  V30 6349 H 614.663 -2.61209 -2.65708 0
M  V30 6350 H 614.776 -4.36688 -1.97079 0
M  V30 6351 H 613.14 -2.28005 -1.13515 0
M  V30 6352 H 613.923 -3.43216 0.0757361 0
M  V30 6353 N 616.368 0.432326 -1.51554 0
M  V30 6354 C 617.278 1.55023 -1.76082 0
M  V30 6355 C 618.294 1.61593 -0.645265 0
M  V30 6356 O 619.47 1.78742 -0.928086 0
M  V30 6357 C 616.535 2.90964 -1.88523 0
M  V30 6358 C 615.596 2.9447 -3.12388 0
M  V30 6359 C 614.829 4.23926 -3.24225 0
M  V30 6360 O 615.052 5.16576 -2.4188 0
M  V30 6361 O 613.986 4.33818 -4.17235 0
M  V30 6362 H 617.812 1.37238 -2.70923 0
M  V30 6363 H 615.397 0.615845 -1.36117 0
M  V30 6364 H 617.279 3.71633 -1.98662 0
M  V30 6365 H 615.954 3.08865 -0.9687 0
M  V30 6366 H 614.861 2.12737 -3.07723 0
M  V30 6367 H 616.194 2.81514 -4.03746 0
M  V30 6368 N 617.846 1.41785 0.688094 0
M  V30 6369 C 619.074 1.44915 1.47673 0
M  V30 6370 C 619.489 0.0565786 1.88715 0
M  V30 6371 O 618.846 -0.92579 1.57275 0
M  V30 6372 C 618.897 2.36452 2.73446 0
M  V30 6373 O 618.618 3.7029 2.34131 0
M  V30 6374 C 620.119 2.48463 3.67125 0
M  V30 6375 H 617.339 0.493324 0.454832 0
M  V30 6376 H 619.883 1.86153 0.846594 0
M  V30 6377 H 618.038 1.98502 3.3268 0
M  V30 6378 H 618.452 4.19183 3.15255 0
M  V30 6379 H 619.926 3.16662 4.52138 0
M  V30 6380 H 620.403 1.51826 4.12123 0
M  V30 6381 H 621.009 2.8708 3.13792 0
M  V30 6382 N 619.324 -0.923095 1.27737 0
M  V30 6383 C 620.257 -2.02515 1.05181 0
M  V30 6384 C 621.235 -1.62574 -0.0292204 0
M  V30 6385 O 622.419 -1.88137 0.116848 0
M  V30 6386 C 619.546 -3.33407 0.596468 0
M  V30 6387 C 618.592 -3.92328 1.67276 0
M  V30 6388 S 619.425 -4.24342 3.26641 0
M  V30 6389 C 620.581 -5.58308 2.82919 0
M  V30 6390 H 620.814 -2.21336 1.98488 0
M  V30 6391 H 618.347 -1.06679 1.1162 0
M  V30 6392 H 620.305 -4.09086 0.34044 0
M  V30 6393 H 618.966 -3.125 -0.316614 0
M  V30 6394 H 618.159 -4.86797 1.30556 0
M  V30 6395 H 617.761 -3.2325 1.8811 0
M  V30 6396 H 620.053 -6.37801 2.28509 0
M  V30 6397 H 620.996 -5.99931 3.7615 0
M  V30 6398 H 621.404 -5.19049 2.21919 0
M  V30 6399 N 620.802 -1.09834 -1.13024 0
M  V30 6400 C 622.048 -0.83819 -1.84668 0
M  V30 6401 C 622.381 0.634645 -1.83537 0
M  V30 6402 O 621.656 1.46753 -1.27647 0
M  V30 6403 C 621.939 -1.37933 -3.32636 0
M  V30 6404 C 621.792 -2.91857 -3.42257 0
M  V30 6405 C 623.111 -1.01654 -4.28199 0
M  V30 6406 H 620.23 -0.30595 -0.670495 0
M  V30 6407 H 622.872 -1.36044 -1.32635 0
M  V30 6408 H 621.022 -0.935111 -3.77078 0
M  V30 6409 H 622.694 -3.44759 -3.06495 0
M  V30 6410 H 620.937 -3.28776 -2.83 0
M  V30 6411 H 621.608 -3.24799 -4.46329 0
M  V30 6412 H 624.084 -1.39973 -3.9185 0
M  V30 6413 H 622.96 -1.42217 -5.30156 0
M  V30 6414 H 623.221 0.0747794 -4.42037 0
M  V30 6415 N 622.28 1.30327 -0.886154 0
M  V30 6416 C 623.243 2.26376 -0.358687 0
M  V30 6417 C 624.243 1.52845 0.499498 0
M  V30 6418 O 625.433 1.71483 0.306485 0
M  V30 6419 C 622.565 3.37379 0.488726 0
M  V30 6420 H 623.758 2.74547 -1.20681 0
M  V30 6421 H 621.311 1.41536 -0.663113 0
M  V30 6422 H 622.046 2.94526 1.35739 0
M  V30 6423 H 621.831 3.91897 -0.126003 0
M  V30 6424 H 623.321 4.08868 0.84952 0
M  V30 6425 N 623.758 0.647228 1.43697 0
M  V30 6426 C 624.688 -0.0345631 2.33474 0
M  V30 6427 C 625.669 -0.818193 1.4913 0
M  V30 6428 O 626.854 -0.780867 1.77809 0
M  V30 6429 C 623.984 -1.00576 3.32418 0
M  V30 6430 C 622.938 -0.33266 4.26705 0
M  V30 6431 C 622.264 -1.41489 5.1564 0
M  V30 6432 C 623.564 0.771204 5.16575 0
M  V30 6433 H 625.258 0.715163 2.90733 0
M  V30 6434 H 622.804 0.345364 1.39797 0
M  V30 6435 H 624.757 -1.49159 3.94119 0
M  V30 6436 H 623.481 -1.78657 2.73403 0
M  V30 6437 H 622.14 0.13267 3.6636 0
M  V30 6438 H 621.788 -2.18698 4.52968 0
M  V30 6439 H 621.488 -0.969799 5.79542 0
M  V30 6440 H 623.012 -1.9022 5.80214 0
M  V30 6441 H 624.426 0.36779 5.72119 0
M  V30 6442 H 622.823 1.1404 5.89165 0
M  V30 6443 H 623.893 1.63169 4.56622 0
M  V30 6444 N 625.236 -1.5273 0.388769 0
M  V30 6445 C 626.166 -2.29353 -0.438111 0
M  V30 6446 C 627.147 -1.32719 -1.06394 0
M  V30 6447 O 628.332 -1.61612 -1.07681 0
M  V30 6448 C 625.462 -3.09995 -1.56589 0
M  V30 6449 C 624.416 -4.14509 -1.06613 0
M  V30 6450 C 623.742 -4.83372 -2.28594 0
M  V30 6451 C 625.042 -5.22127 -0.134459 0
M  V30 6452 H 626.736 -2.98723 0.201206 0
M  V30 6453 H 624.282 -1.43665 0.0982089 0
M  V30 6454 H 626.235 -3.62357 -2.15118 0
M  V30 6455 H 624.959 -2.38357 -2.23279 0
M  V30 6456 H 623.618 -3.63128 -0.503383 0
M  V30 6457 H 623.266 -4.08283 -2.93792 0
M  V30 6458 H 622.966 -5.54012 -1.95817 0
M  V30 6459 H 624.49 -5.38538 -2.87766 0
M  V30 6460 H 625.904 -5.69851 -0.627914 0
M  V30 6461 H 624.301 -6.00011 0.103534 0
M  V30 6462 H 625.371 -4.77971 0.816798 0
M  V30 6463 N 626.714 -0.118576 -1.57153 0
M  V30 6464 C 627.942 0.54726 -1.99531 0
M  V30 6465 C 628.357 1.60251 -0.998246 0
M  V30 6466 O 627.714 1.82498 0.00893106 0
M  V30 6467 C 627.765 1.17378 -3.41913 0
M  V30 6468 O 627.486 0.160703 -4.37805 0
M  V30 6469 C 628.987 1.92297 -3.9942 0
M  V30 6470 H 626.207 0.144919 -0.655164 0
M  V30 6471 H 628.751 -0.20479 -2.03472 0
M  V30 6472 H 626.906 1.87661 -3.38913 0
M  V30 6473 H 627.32 0.61586 -5.20872 0
M  V30 6474 H 628.794 2.31462 -5.01128 0
M  V30 6475 H 629.271 2.79801 -3.38538 0
M  V30 6476 H 629.877 1.26777 -4.05965 0
M  V30 6477 N 628.193 1.56834 0.155195 0
M  V30 6478 C 629.441 1.82536 0.867462 0
M  V30 6479 C 629.762 0.698168 1.82073 0
M  V30 6480 O 629.032 -0.280807 1.93877 0
M  V30 6481 H 627.612 0.673401 0.323327 0
M  V30 6482 H 630.274 1.94313 0.151156 0
M  V30 6483 H 629.37 2.77171 1.43466 0
M  V30 6484 N 629.671 -0.424282 1.51781 0
M  V30 6485 C 630.618 -1.51591 1.74037 0
M  V30 6486 C 631.588 -1.55556 0.582358 0
M  V30 6487 O 632.773 -1.72364 0.818245 0
M  V30 6488 C 629.913 -2.89188 1.8832 0
M  V30 6489 C 629.026 -2.9465 3.1592 0
M  V30 6490 C 628.161 -4.23452 3.20721 0
M  V30 6491 C 627.2 -4.22831 4.42584 0
M  V30 6492 N 626.337 -5.43178 4.44862 0
M  V30 6493 H 631.177 -1.31917 2.67212 0
M  V30 6494 H 628.714 -0.640599 1.32419 0
M  V30 6495 H 630.672 -3.69044 1.94583 0
M  V30 6496 H 629.302 -3.07392 0.985402 0
M  V30 6497 H 628.354 -2.07378 3.18902 0
M  V30 6498 H 629.666 -2.90055 4.05795 0
M  V30 6499 H 628.82 -5.1169 3.25973 0
M  V30 6500 H 627.559 -4.30722 2.28757 0
M  V30 6501 H 626.564 -3.32984 4.37495 0
M  V30 6502 H 627.789 -4.17213 5.35826 0
M  V30 6503 H 625.735 -5.51145 3.55775 0
M  V30 6504 H 625.652 -5.40515 5.28563 0
M  V30 6505 H 626.92 -6.33412 4.54324 0
M  V30 6506 N 631.149 -1.42148 -0.680565 0
M  V30 6507 C 632.396 -1.4231 -1.44063 0
M  V30 6508 C 632.724 -0.037488 -1.94464 0
M  V30 6509 O 631.979 0.953184 -1.70918 0
M  V30 6510 C 632.278 -2.38945 -2.65782 0
M  V30 6511 C 631.944 -3.85455 -2.33956 0
M  V30 6512 C 630.606 -4.25364 -2.24987 0
M  V30 6513 C 632.958 -4.77895 -2.08004 0
M  V30 6514 C 630.286 -5.55701 -1.88184 0
M  V30 6515 C 632.638 -6.08568 -1.72706 0
M  V30 6516 C 631.302 -6.47482 -1.62244 0
M  V30 6517 H 630.572 -0.520748 -0.527164 0
M  V30 6518 H 633.219 -1.7505 -0.776524 0
M  V30 6519 H 631.524 -1.99511 -3.37198 0
M  V30 6520 H 633.221 -2.36336 -3.23954 0
M  V30 6521 H 629.811 -3.53855 -2.41836 0
M  V30 6522 H 633.995 -4.47854 -2.1387 0
M  V30 6523 H 629.251 -5.84718 -1.78648 0
M  V30 6524 H 633.425 -6.79688 -1.5165 0
M  V30 6525 H 631.052 -7.48387 -1.33496 0
M  V30 6526 N 632.627 0.916307 -1.28225 0
M  V30 6527 C 633.852 1.7043 -1.18188 0
M  V30 6528 C 634.277 1.86346 0.256274 0
M  V30 6529 O 633.635 1.37175 1.18544 0
M  V30 6530 C 633.683 3.07546 -1.88275 0
M  V30 6531 O 632.787 3.94904 -1.18848 0
M  V30 6532 H 632.128 0.521967 -0.410423 0
M  V30 6533 H 634.658 1.14589 -1.69501 0
M  V30 6534 H 634.668 3.57793 -1.96082 0
M  V30 6535 H 633.343 2.95279 -2.92887 0
M  V30 6536 H 631.92 3.53339 -1.19187 0
M  V30 6537 N 634.105 1.10431 1.1244 0
M  V30 6538 C 635.053 0.747974 2.20246 0
M  V30 6539 C 636.047 -0.255848 1.67457 0
M  V30 6540 O 637.253 -0.116221 1.79624 0
M  V30 6541 H 633.628 0.223946 0.71788 0
M  V30 6542 H 635.599 1.6661 2.47556 0
M  V30 6543 C 634.348 0.195957 3.47147 0
M  V30 6544 H 633.671 0.959606 3.88113 0
M  V30 6545 H 635.111 -0.0153154 4.23997 0
M  V30 6546 C 633.57 -1.07132 3.19413 0
M  V30 6547 O 634.1 -2.15284 3.3914 0
M  V30 6548 N 632.306 -0.98994 2.73219 0
M  V30 6549 H 631.853 -0.109736 2.57366 0
M  V30 6550 H 631.811 -1.83856 2.55038 0
M  V30 6551 N 635.583 -1.29855 0.893053 0
M  V30 6552 C 636.832 -1.95104 0.511597 0
M  V30 6553 C 637.145 -1.71226 -0.945567 0
M  V30 6554 O 638.351 -2.30525 -1.43424 0
M  V30 6555 C 636.807 -3.49374 0.864034 0
M  V30 6556 C 636.415 -3.82061 2.33952 0
M  V30 6557 C 638.159 -4.20894 0.552167 0
M  V30 6558 C 636.066 -5.29546 2.63316 0
M  V30 6559 H 634.996 -0.73029 0.187597 0
M  V30 6560 H 637.647 -1.47682 1.08914 0
M  V30 6561 H 636.029 -3.95413 0.215493 0
M  V30 6562 H 637.203 -3.46904 3.03305 0
M  V30 6563 H 635.518 -3.23665 2.61973 0
M  V30 6564 H 638.115 -5.29435 0.748489 0
M  V30 6565 H 638.458 -4.13178 -0.508924 0
M  V30 6566 H 638.991 -3.80564 1.15825 0
M  V30 6567 H 635.73 -5.4232 3.68197 0
M  V30 6568 H 635.25 -5.65974 1.9858 0
M  V30 6569 H 636.929 -5.97068 2.49236 0
M  V30 6570 N 637.061 -0.65484 -1.43351 0
M  V30 6571 C 638.307 -0.169142 -2.02093 0
M  V30 6572 C 638.64 1.21431 -1.51553 0
M  V30 6573 O 637.915 1.81105 -0.709317 0
M  V30 6574 C 638.198 -0.181775 -3.59641 0
M  V30 6575 C 638.051 -1.59926 -4.20409 0
M  V30 6576 C 639.37 0.480945 -4.37464 0
M  V30 6577 H 636.489 -0.0629371 -0.734308 0
M  V30 6578 H 639.131 -0.835833 -1.70628 0
M  V30 6579 H 637.281 0.385918 -3.86578 0
M  V30 6580 H 638.953 -2.21766 -4.04497 0
M  V30 6581 H 637.196 -2.14605 -3.76998 0
M  V30 6582 H 637.867 -1.55994 -5.295 0
M  V30 6583 H 640.343 -0.00208273 -4.161 0
M  V30 6584 H 639.219 0.441384 -5.47122 0
M  V30 6585 H 639.48 1.55533 -4.13838 0
M  V30 6586 N 638.539 1.52521 -0.396863 0
M  V30 6587 C 639.816 1.94112 0.240842 0
M  V30 6588 C 640.196 1.33288 1.637 0
M  V30 6589 O 639.544 0.503901 2.22875 0
M  V30 6590 C 639.754 3.48033 0.259567 0
M  V30 6591 C 641.102 4.21822 0.484866 0
M  V30 6592 O 642.126 3.54579 0.339453 0
M  V30 6593 O 640.985 5.41042 0.770412 0
M  V30 6594 H 638.079 0.812973 0.151671 0
M  V30 6595 H 640.625 1.63572 -0.451918 0
M  V30 6596 H 639.397 3.84655 -0.718078 0
M  V30 6597 H 639.02 3.84899 0.996937 0
M  V30 6598 N 640.017 0.126909 1.57088 0
M  V30 6599 C 640.964 -0.82036 2.15728 0
M  V30 6600 C 641.934 -1.25811 1.08447 0
M  V30 6601 O 643.119 -1.33422 1.36393 0
M  V30 6602 C 640.259 -2.06199 2.76724 0
M  V30 6603 C 639.372 -1.67188 3.98337 0
M  V30 6604 C 638.507 -2.86378 4.47393 0
M  V30 6605 C 637.546 -2.43644 5.61519 0
M  V30 6606 N 636.683 -3.55775 6.05284 0
M  V30 6607 H 641.523 -0.313472 2.96347 0
M  V30 6608 H 639.06 -0.14303 1.46403 0
M  V30 6609 H 641.018 -2.78959 3.10222 0
M  V30 6610 H 639.648 -2.54333 1.98782 0
M  V30 6611 H 638.7 -0.842714 3.70948 0
M  V30 6612 H 640.012 -1.31789 4.81075 0
M  V30 6613 H 639.166 -3.67353 4.82842 0
M  V30 6614 H 637.905 -3.25009 3.63621 0
M  V30 6615 H 636.91 -1.61104 5.25667 0
M  V30 6616 H 638.135 -2.06122 6.47063 0
M  V30 6617 H 636.081 -3.94065 5.24451 0
M  V30 6618 H 635.998 -3.24325 6.82898 0
M  V30 6619 H 637.266 -4.37166 6.45373 0
M  V30 6620 N 641.495 -1.56914 -0.146875 0
M  V30 6621 C 642.742 -1.83356 -0.859467 0
M  V30 6622 C 643.07 -0.707811 -1.81164 0
M  V30 6623 O 642.325 0.303155 -1.93338 0
M  V30 6624 C 642.624 -3.16128 -1.66727 0
M  V30 6625 C 642.29 -4.42586 -0.861881 0
M  V30 6626 C 640.952 -4.76929 -0.639687 0
M  V30 6627 C 643.304 -5.20344 -0.298643 0
M  V30 6628 C 640.632 -5.86491 0.156451 0
M  V30 6629 C 642.984 -6.30742 0.484536 0
M  V30 6630 C 641.648 -6.63635 0.717306 0
M  V30 6631 H 640.918 -0.670947 -0.314501 0
M  V30 6632 H 643.565 -1.91104 -0.123108 0
M  V30 6633 H 641.87 -3.03831 -2.47374 0
M  V30 6634 H 643.567 -3.33802 -2.2221 0
M  V30 6635 H 640.157 -4.15662 -1.04513 0
M  V30 6636 H 644.341 -4.94186 -0.457585 0
M  V30 6637 H 639.597 -6.10419 0.346292 0
M  V30 6638 H 643.771 -6.90188 0.928105 0
M  V30 6639 H 641.398 -7.48367 1.33607 0
M  V30 6640 N 642.974 0.416227 -1.52004 0
M  V30 6641 C 644.22 1.16555 -1.6596 0
M  V30 6642 C 644.553 1.90347 -0.384906 0
M  V30 6643 O 643.828 1.84474 0.616405 0
M  V30 6644 C 644.111 2.1657 -2.87696 0
M  V30 6645 C 643.964 1.46722 -4.25197 0
M  V30 6646 C 645.283 3.17321 -3.04951 0
M  V30 6647 H 642.402 0.422369 -0.603965 0
M  V30 6648 H 645.044 0.452141 -1.84542 0
M  V30 6649 H 643.194 2.77411 -2.71985 0
M  V30 6650 H 644.866 0.89056 -4.52622 0
M  V30 6651 H 643.109 0.769263 -4.26925 0
M  V30 6652 H 643.78 2.19665 -5.0641 0
M  V30 6653 H 646.256 2.66552 -3.19514 0
M  V30 6654 H 645.132 3.84573 -3.91656 0
M  V30 6655 H 645.393 3.84643 -2.17951 0
M  V30 6656 N 644.452 1.42507 0.673017 0
M  V30 6657 C 645.701 1.42364 1.42883 0
M  V30 6658 C 646.014 0.0441598 1.9555 0
M  V30 6659 O 647.22 -0.0798679 2.71382 0
M  V30 6660 C 645.676 2.5043 2.58482 0
M  V30 6661 C 645.284 3.94392 2.12506 0
M  V30 6662 C 647.028 2.59455 3.35981 0
M  V30 6663 C 644.935 4.93964 3.25198 0
M  V30 6664 H 643.865 0.52951 0.536782 0
M  V30 6665 H 646.516 1.68422 0.728448 0
M  V30 6666 H 644.898 2.1754 3.30896 0
M  V30 6667 H 646.072 4.36645 1.47233 0
M  V30 6668 H 644.387 3.89233 1.4794 0
M  V30 6669 H 646.984 3.31025 4.19912 0
M  V30 6670 H 647.327 1.63869 3.82691 0
M  V30 6671 H 647.86 2.91549 2.70637 0
M  V30 6672 H 644.599 5.91034 2.83477 0
M  V30 6673 H 644.119 4.56341 3.89247 0
M  V30 6674 H 645.798 5.15763 3.90637 0
M  V30 6675 N 645.93 -0.909495 1.28709 0
M  V30 6676 C 647.176 -1.66151 1.16283 0
M  V30 6677 C 647.509 -1.92067 -0.287069 0
M  V30 6678 O 646.784 -1.52409 -1.20837 0
M  V30 6679 C 647.067 -3.01676 1.9663 0
M  V30 6680 C 646.92 -2.82888 3.49707 0
M  V30 6681 C 648.239 -4.02274 1.78504 0
M  V30 6682 H 645.358 -0.602966 0.423793 0
M  V30 6683 H 648 -1.05418 1.58073 0
M  V30 6684 H 646.15 -3.53515 1.61119 0
M  V30 6685 H 647.822 -2.38026 3.95147 0
M  V30 6686 H 646.065 -2.17862 3.75125 0
M  V30 6687 H 646.736 -3.79147 4.01187 0
M  V30 6688 H 649.212 -3.59511 2.09503 0
M  V30 6689 H 648.088 -4.95056 2.37088 0
M  V30 6690 H 648.349 -4.35903 0.737647 0
M  V30 6691 N 647.408 -1.11026 -1.11852 0
M  V30 6692 C 648.685 -0.768347 -1.79877 0
M  V30 6693 C 649.065 0.744261 -1.97545 0
M  V30 6694 O 648.413 1.67271 -1.55669 0
M  V30 6695 C 648.623 -1.52648 -3.13846 0
M  V30 6696 C 649.971 -1.70297 -3.88953 0
M  V30 6697 O 650.995 -1.49037 -3.23522 0
M  V30 6698 O 649.854 -2.05593 -5.06353 0
M  V30 6699 H 646.948 -0.277891 -0.778913 0
M  V30 6700 H 649.494 -1.21343 -1.18633 0
M  V30 6701 H 648.266 -2.55564 -2.96315 0
M  V30 6702 H 647.889 -1.07466 -3.82801 0
M  V30 6703 N 648.886 1.2938 -0.899927 0
M  V30 6704 C 650.126 1.97332 -0.532871 0
M  V30 6705 C 650.49 1.69385 0.904029 0
M  V30 6706 O 651.691 2.30793 1.37797 0
M  V30 6707 C 649.962 3.47927 -0.817393 0
M  V30 6708 S 651.521 4.3528 -0.55468 0
M  V30 6709 H 648.339 0.682966 -0.197683 0
M  V30 6710 H 650.941 1.57189 -1.16241 0
M  V30 6711 H 649.645 3.65761 -1.86138 0
M  V30 6712 H 649.176 3.93006 -0.175978 0
M  V30 6713 H 651.191 4.92557 0.600182 0
M  V30 6714 N 650.364 0.662433 1.43002 0
M  V30 6715 C 651.78 0.330835 1.56133 0
M  V30 6716 C 651.98 -1.16454 1.64441 0
M  V30 6717 O 651.036 -1.94964 1.60453 0
M  V30 6718 C 652.349 1.05029 2.81761 0
M  V30 6719 C 653.897 1.03142 2.95518 0
M  V30 6720 C 654.372 1.73196 4.2399 0
M  V30 6721 N 655.863 1.70004 4.30875 0
M  V30 6722 C 656.598 2.21074 5.29069 0
M  V30 6723 N 656.094 2.80473 6.33488 0
M  V30 6724 N 657.887 2.1152 5.20784 0
M  V30 6725 H 650.038 1.63272 1.35853 0
M  V30 6726 H 652.301 0.687149 0.653092 0
M  V30 6727 H 652.007 2.10542 2.81718 0
M  V30 6728 H 651.881 0.607664 3.72273 0
M  V30 6729 H 654.268 -0.0153339 2.95096 0
M  V30 6730 H 654.349 1.51282 2.0627 0
M  V30 6731 H 653.993 2.77833 4.25172 0
M  V30 6732 H 653.923 1.22515 5.1215 0
M  V30 6733 H 656.414 1.26667 3.56039 0
M  V30 6734 H 656.727 3.17094 7.04749 0
M  V30 6735 H 655.072 2.84538 6.34085 0
M  V30 6736 H 658.263 1.64814 4.38126 0
M  V30 6737 H 658.436 2.51629 5.97149 0
M  V30 6738 N 651.842 -1.52309 0.404946 0
M  V30 6739 C 653.072 -2.05886 -0.171569 0
M  V30 6740 C 653.48 -1.27527 -1.39762 0
M  V30 6741 O 652.823 -0.319215 -1.80905 0
M  V30 6742 C 652.885 -3.54609 -0.590983 0
M  V30 6743 C 652.549 -4.53989 0.523757 0
M  V30 6744 C 653.546 -5.01084 1.38604 0
M  V30 6745 C 651.231 -4.97465 0.695255 0
M  V30 6746 C 653.225 -5.90295 2.4048 0
M  V30 6747 C 650.912 -5.86473 1.71733 0
M  V30 6748 C 651.91 -6.32782 2.57051 0
M  V30 6749 O 651.598 -7.20029 3.57509 0
M  V30 6750 H 651.33 -0.675508 -0.0257763 0
M  V30 6751 H 653.884 -1.97238 0.573278 0
M  V30 6752 H 652.114 -3.60929 -1.38805 0
M  V30 6753 H 653.803 -3.90853 -1.09494 0
M  V30 6754 H 654.569 -4.68214 1.26492 0
M  V30 6755 H 650.448 -4.60982 0.0408447 0
M  V30 6756 H 653.992 -6.26363 3.07108 0
M  V30 6757 H 649.889 -6.18756 1.83877 0
M  V30 6758 H 650.657 -7.3813 3.53703 0
M  V30 6759 N 653.32 -0.135238 -1.57019 0
M  V30 6760 C 654.731 0.387521 -1.82634 0
M  V30 6761 C 655.082 1.65528 -1.05332 0
M  V30 6762 O 654.207 2.14381 -0.294926 0
M  V30 6763 C 654.802 0.709852 -3.3128 0
M  V30 6764 C 653.361 1.17718 -3.57518 0
M  V30 6765 C 652.508 0.194183 -2.76619 0
M  V30 6766 H 655.459 -0.360126 -1.5456 0
M  V30 6767 H 655.48 1.5657 -3.46794 0
M  V30 6768 H 654.992 -0.213024 -3.87515 0
M  V30 6769 H 653.093 2.1164 -3.06658 0
M  V30 6770 H 653.206 1.11128 -4.66034 0
M  V30 6771 H 651.57 0.684478 -2.4533 0
M  V30 6772 H 652.353 -0.722076 -3.3562 0
M  V30 6773 N 654.798 1.5699 0.138552 0
M  V30 6774 C 656.028 1.87704 0.863184 0
M  V30 6775 C 656.436 0.722411 1.74865 0
M  V30 6776 O 655.779 -0.316636 1.80951 0
M  V30 6777 C 655.841 3.13219 1.76449 0
M  V30 6778 C 655.505 4.44648 1.05532 0
M  V30 6779 C 656.502 5.18318 0.405252 0
M  V30 6780 C 654.187 4.91367 1.04231 0
M  V30 6781 C 656.181 6.36916 -0.24835 0
M  V30 6782 C 653.868 6.09887 0.384904 0
M  V30 6783 C 654.866 6.82508 -0.259292 0
M  V30 6784 O 654.554 7.98775 -0.906258 0
M  V30 6785 H 654.286 0.626255 0.254521 0
M  V30 6786 H 656.84 2.04966 0.133472 0
M  V30 6787 H 655.07 2.91988 2.53535 0
M  V30 6788 H 656.759 3.30111 2.36181 0
M  V30 6789 H 657.525 4.83289 0.407053 0
M  V30 6790 H 653.404 4.34759 1.53315 0
M  V30 6791 H 656.948 6.93538 -0.751755 0
M  V30 6792 H 652.845 6.44376 0.380799 0
M  V30 6793 H 653.613 8.14494 -0.80877 0
M  V30 6794 N 656.276 -0.40816 1.52223 0
M  V30 6795 C 657.186 -1.52202 1.78526 0
M  V30 6796 C 658.202 -1.60546 0.670892 0
M  V30 6797 O 659.378 -1.77242 0.956404 0
M  V30 6798 C 656.443 -2.87928 1.93128 0
M  V30 6799 C 655.504 -2.89463 3.17033 0
M  V30 6800 C 654.737 -4.18715 3.30929 0
M  V30 6801 O 654.96 -5.12662 2.50067 0
M  V30 6802 O 653.894 -4.27125 4.24084 0
M  V30 6803 H 657.72 -1.32911 2.73072 0
M  V30 6804 H 655.305 -0.594112 1.37079 0
M  V30 6805 H 657.187 -3.68426 2.04549 0
M  V30 6806 H 655.862 -3.07285 1.01772 0
M  V30 6807 H 654.769 -2.07815 3.11069 0
M  V30 6808 H 656.102 -2.75055 4.08174 0
M  V30 6809 N 657.755 -1.42862 -0.66545 0
M  V30 6810 C 658.985 -1.47032 -1.45138 0
M  V30 6811 C 659.393 -0.0829977 -1.89018 0
M  V30 6812 O 658.736 0.914551 -1.59316 0
M  V30 6813 C 658.798 -2.34302 -2.72659 0
M  V30 6814 C 658.462 -3.82034 -2.50796 0
M  V30 6815 C 659.459 -4.73453 -2.14799 0
M  V30 6816 C 657.144 -4.26397 -2.655 0
M  V30 6817 C 659.138 -6.07228 -1.93785 0
M  V30 6818 C 656.825 -5.6023 -2.44103 0
M  V30 6819 C 657.823 -6.50462 -2.08299 0
M  V30 6820 O 657.511 -7.8182 -1.87116 0
M  V30 6821 H 657.243 -0.501969 -0.452772 0
M  V30 6822 H 659.797 -1.88137 -0.82423 0
M  V30 6823 H 658.027 -1.88063 -3.37889 0
M  V30 6824 H 659.716 -2.29818 -3.34572 0
M  V30 6825 H 660.482 -4.4046 -2.03026 0
M  V30 6826 H 656.361 -3.56448 -2.92345 0
M  V30 6827 H 659.905 -6.7762 -1.65763 0
M  V30 6828 H 655.802 -5.92793 -2.55475 0
M  V30 6829 H 656.57 -7.93274 -2.01639 0
M  V30 6830 N 659.233 0.902656 -1.29189 0
M  V30 6831 C 660.143 2.03946 -1.15944 0
M  V30 6832 C 661.159 1.738 -0.0833803 0
M  V30 6833 O 662.335 1.9923 -0.29487 0
M  V30 6834 C 659.4 3.36519 -0.834006 0
M  V30 6835 C 658.461 3.80203 -1.9936 0
M  V30 6836 C 657.694 5.06449 -1.68359 0
M  V30 6837 O 657.917 5.67202 -0.603141 0
M  V30 6838 O 656.851 5.46114 -2.53067 0
M  V30 6839 H 660.677 2.18043 -2.11403 0
M  V30 6840 H 658.262 1.02584 -1.08613 0
M  V30 6841 H 660.144 4.16089 -0.666949 0
M  V30 6842 H 658.819 3.23573 0.0908245 0
M  V30 6843 H 657.726 3.01413 -2.21588 0
M  V30 6844 H 659.059 3.97729 -2.89952 0
M  V30 6845 N 660.711 1.11618 1.11262 0
M  V30 6846 C 661.959 0.864469 1.82678 0
M  V30 6847 C 662.28 -0.611564 1.85162 0
M  V30 6848 O 661.55 -1.44429 1.32352 0
M  V30 6849 H 660.13 0.316821 0.676486 0
M  V30 6850 H 662.792 1.40894 1.34666 0
M  V30 6851 H 661.888 1.23832 2.86482 0
M  V30 6852 N 662.189 -1.289 0.906776 0
M  V30 6853 C 663.437 -1.94883 0.535266 0
M  V30 6854 C 663.758 -1.71784 -0.922791 0
M  V30 6855 O 663.028 -1.05359 -1.65156 0
M  V30 6856 H 661.608 -0.721109 0.194962 0
M  V30 6857 H 664.27 -1.57018 1.15461 0
M  V30 6858 H 663.366 -3.03591 0.723821 0
M  V30 6859 N 663.667 -0.670007 -1.42649 0
M  V30 6860 C 664.617 0.0339546 -2.27975 0
M  V30 6861 C 665.601 0.778295 -1.40824 0
M  V30 6862 O 666.793 0.657997 -1.64315 0
M  V30 6863 C 663.922 0.987899 -3.28779 0
M  V30 6864 C 663.008 0.241153 -4.23414 0
M  V30 6865 N 663.399 -0.751392 -5.00188 0
M  V30 6866 C 661.697 0.480269 -4.43407 0
M  V30 6867 C 662.398 -1.19615 -5.69269 0
M  V30 6868 N 661.374 -0.527045 -5.41039 0
M  V30 6869 H 665.176 -0.727425 -2.84756 0
M  V30 6870 H 662.69 -0.498673 -1.54554 0
M  V30 6871 H 664.687 1.50716 -3.88703 0
M  V30 6872 H 663.347 1.74916 -2.73559 0
M  V30 6873 H 664.358 -1.13075 -5.05405 0
M  V30 6874 H 661.035 1.2214 -3.99234 0
M  V30 6875 H 662.425 -2.01836 -6.40868 0
M  V30 6876 N 665.145 1.52092 -0.413018 0
M  V30 6877 C 666.394 2.01041 0.16287 0
M  V30 6878 C 666.707 1.30288 1.45892 0
M  V30 6879 O 667.913 1.70075 2.11629 0
M  V30 6880 C 666.369 3.58283 0.340806 0
M  V30 6881 C 665.977 4.37955 -0.943377 0
M  V30 6882 C 667.721 4.15452 0.871774 0
M  V30 6883 C 665.628 5.86847 -0.732417 0
M  V30 6884 H 664.558 0.751224 0.0646414 0
M  V30 6885 H 667.209 1.75404 -0.539059 0
M  V30 6886 H 665.591 3.80266 1.10516 0
M  V30 6887 H 666.765 4.2773 -1.71418 0
M  V30 6888 H 665.08 3.92122 -1.40105 0
M  V30 6889 H 667.677 5.24375 1.0457 0
M  V30 6890 H 668.02 3.73057 1.84755 0
M  V30 6891 H 668.553 3.97452 0.166377 0
M  V30 6892 H 665.292 6.33609 -1.67986 0
M  V30 6893 H 664.812 5.998 -0.000980058 0
M  V30 6894 H 666.491 6.45906 -0.376105 0
M  V30 6895 N 666.623 0.143563 1.56945 0
M  V30 6896 C 667.57 -0.797433 2.16586 0
M  V30 6897 C 668.54 -1.24654 1.09775 0
M  V30 6898 O 669.725 -1.31968 1.37801 0
M  V30 6899 C 666.865 -2.03253 2.78895 0
M  V30 6900 C 665.978 -1.62954 4.00087 0
M  V30 6901 C 665.113 -2.81617 4.50406 0
M  V30 6902 C 664.152 -2.37675 5.64072 0
M  V30 6903 N 663.289 -3.49335 6.09023 0
M  V30 6904 H 668.129 -0.282023 2.96662 0
M  V30 6905 H 665.666 -0.127494 1.46546 0
M  V30 6906 H 667.624 -2.75653 3.13163 0
M  V30 6907 H 666.254 -2.52211 2.01469 0
M  V30 6908 H 665.306 -0.803322 3.71821 0
M  V30 6909 H 666.618 -1.26679 4.82446 0
M  V30 6910 H 665.772 -3.62212 4.86711 0
M  V30 6911 H 664.511 -3.21134 3.67048 0
M  V30 6912 H 663.516 -1.55519 5.27346 0
M  V30 6913 H 664.741 -1.99247 6.49213 0
M  V30 6914 H 662.687 -3.8848 5.28601 0
M  V30 6915 H 662.604 -3.17064 6.86299 0
M  V30 6916 H 663.872 -4.30297 6.49973 0
M  V30 6917 N 668.101 -1.57061 -0.130224 0
M  V30 6918 C 669.329 -1.88432 -0.854456 0
M  V30 6919 C 669.744 -0.733608 -1.73964 0
M  V30 6920 O 669.101 0.296029 -1.80083 0
M  V30 6921 C 669.152 -3.1918 -1.69724 0
M  V30 6922 O 668.873 -4.2982 -0.847705 0
M  V30 6923 C 670.374 -3.6418 -2.5276 0
M  V30 6924 H 667.594 -0.624193 -0.246221 0
M  V30 6925 H 670.138 -2.04159 -0.11798 0
M  V30 6926 H 668.293 -3.05156 -2.3866 0
M  V30 6927 H 668.707 -5.04689 -1.42792 0
M  V30 6928 H 670.181 -4.58457 -3.07443 0
M  V30 6929 H 670.658 -2.90285 -3.29592 0
M  V30 6930 H 671.264 -3.80954 -1.89087 0
M  V30 6931 N 669.579 0.400081 -1.52437 0
M  V30 6932 C 670.542 1.4707 -1.75793 0
M  V30 6933 C 671.542 1.48036 -0.627856 0
M  V30 6934 O 672.732 1.49401 -0.895817 0
M  V30 6935 C 669.864 2.86427 -1.84858 0
M  V30 6936 H 671.057 1.27649 -2.71377 0
M  V30 6937 H 668.61 0.631141 -1.42991 0
M  V30 6938 H 669.345 3.11207 -0.912194 0
M  V30 6939 H 669.13 2.87128 -2.6702 0
M  V30 6940 H 670.62 3.64023 -2.04638 0
M  V30 6941 N 671.057 1.43213 0.657864 0
M  V30 6942 C 672.303 1.44798 1.41991 0
M  V30 6943 C 672.636 0.070256 1.94073 0
M  V30 6944 O 671.911 -0.908177 1.71995 0
M  V30 6945 C 672.194 2.4865 2.60471 0
M  V30 6946 C 672.047 3.95679 2.13911 0
M  V30 6947 C 673.366 2.49292 3.62686 0
M  V30 6948 H 670.485 0.527244 0.514959 0
M  V30 6949 H 673.127 1.74733 0.74621 0
M  V30 6950 H 671.277 2.23254 3.17946 0
M  V30 6951 H 672.949 4.32116 1.61472 0
M  V30 6952 H 671.192 4.08733 1.45325 0
M  V30 6953 H 671.863 4.6395 2.99089 0
M  V30 6954 H 674.339 2.71917 3.14961 0
M  V30 6955 H 673.215 3.23907 4.43143 0
M  V30 6956 H 673.476 1.52502 4.14964 0
M  V30 6957 N 672.536 -0.895792 1.29666 0
M  V30 6958 C 673.484 -2.02173 1.15017 0
M  V30 6959 C 674.478 -1.69276 0.0647651 0
M  V30 6960 O 675.684 -1.7859 0.224846 0
M  V30 6961 H 672.059 -0.662719 0.355397 0
M  V30 6962 H 674.03 -2.11666 2.10334 0
M  V30 6963 C 672.779 -3.37212 0.847555 0
M  V30 6964 H 672.102 -3.6303 1.67479 0
M  V30 6965 H 673.542 -4.16668 0.785106 0
M  V30 6966 C 672.001 -3.33891 -0.44929 0
M  V30 6967 O 672.531 -3.73673 -1.47415 0
M  V30 6968 N 670.737 -2.86991 -0.456547 0
M  V30 6969 H 670.284 -2.54813 0.377925 0
M  V30 6970 H 670.242 -2.85152 -1.32423 0
M  V30 6971 N 674.014 -1.12206 -1.10668 0
M  V30 6972 C 674.944 -0.810086 -2.18997 0
M  V30 6973 C 675.925 0.225065 -1.68604 0
M  V30 6974 O 677.11 0.086783 -1.94006 0
M  V30 6975 C 674.24 -0.261262 -3.46316 0
M  V30 6976 C 673.194 -1.2292 -4.09969 0
M  V30 6977 C 672.52 -0.540713 -5.31959 0
M  V30 6978 C 673.82 -2.58295 -4.53962 0
M  V30 6979 H 675.514 -1.7159 -2.45352 0
M  V30 6980 H 673.06 -0.82646 -1.17922 0
M  V30 6981 H 675.013 -0.0307522 -4.21389 0
M  V30 6982 H 673.737 0.679879 -3.19445 0
M  V30 6983 H 672.396 -1.44548 -3.369 0
M  V30 6984 H 672.044 0.405492 -5.01363 0
M  V30 6985 H 671.744 -1.18637 -5.75499 0
M  V30 6986 H 673.268 -0.319184 -6.09765 0
M  V30 6987 H 674.682 -2.40709 -5.20319 0
M  V30 6988 H 673.079 -3.18916 -5.08343 0
M  V30 6989 H 674.149 -3.16918 -3.67002 0
M  V30 6990 N 675.492 1.28418 -0.913599 0
M  V30 6991 C 676.903 1.77024 -0.593237 0
M  V30 6992 C 677.254 1.74779 0.891441 0
M  V30 6993 O 676.379 1.34237 1.69733 0
M  V30 6994 C 676.974 3.21456 -1.07011 0
M  V30 6995 C 675.533 3.67786 -0.800664 0
M  V30 6996 C 674.68 2.48185 -1.23691 0
M  V30 6997 H 677.631 1.14883 -1.09487 0
M  V30 6998 H 677.652 3.78269 -0.411481 0
M  V30 6999 H 677.164 3.23058 -2.1507 0
M  V30 7000 H 675.265 3.71644 0.266725 0
M  V30 7001 H 675.378 4.57934 -1.4083 0
M  V30 7002 H 673.742 2.46116 -0.655655 0
M  V30 7003 H 674.525 2.52506 -2.32585 0
M  V30 7004 N 676.97 0.677563 1.42291 0
M  V30 7005 C 677.9 0.014968 2.33495 0
M  V30 7006 C 678.881 -0.786376 1.50831 0
M  V30 7007 O 680.066 -0.742975 1.79426 0
M  V30 7008 C 677.196 -0.935023 3.34477 0
M  V30 7009 C 676.15 -0.242074 4.27315 0
M  V30 7010 C 675.476 -1.30519 5.18526 0
M  V30 7011 C 676.776 0.880604 5.14823 0
M  V30 7012 H 678.47 0.776671 2.89151 0
M  V30 7013 H 676.016 0.37494 1.39033 0
M  V30 7014 H 677.969 -1.40766 3.97194 0
M  V30 7015 H 676.693 -1.72818 2.77131 0
M  V30 7016 H 675.352 0.210351 3.65996 0
M  V30 7017 H 675 -2.09041 4.57505 0
M  V30 7018 H 674.7 -0.846652 5.81468 0
M  V30 7019 H 676.224 -1.7787 5.84119 0
M  V30 7020 H 677.638 0.489062 5.7121 0
M  V30 7021 H 676.035 1.26511 5.86613 0
M  V30 7022 H 677.105 1.72818 4.53059 0
M  V30 7023 N 678.448 -1.51871 0.421078 0
M  V30 7024 C 679.358 -2.31077 -0.405069 0
M  V30 7025 C 680.374 -1.39301 -1.04265 0
M  V30 7026 O 681.55 -1.72376 -1.04157 0
M  V30 7027 C 678.615 -3.12556 -1.50032 0
M  V30 7028 C 677.676 -4.20088 -0.884559 0
M  V30 7029 C 676.909 -4.97673 -1.92762 0
M  V30 7030 O 677.132 -4.75696 -3.14753 0
M  V30 7031 O 676.066 -5.82203 -1.52719 0
M  V30 7032 H 679.892 -3.02742 0.241086 0
M  V30 7033 H 677.477 -1.48263 0.183991 0
M  V30 7034 H 679.359 -3.6326 -2.13589 0
M  V30 7035 H 678.034 -2.43672 -2.13086 0
M  V30 7036 H 676.941 -3.73502 -0.211379 0
M  V30 7037 H 678.274 -4.91298 -0.297763 0
M  V30 7038 N 679.926 -0.151884 -1.56866 0
M  V30 7039 C 681.342 0.204486 -1.58285 0
M  V30 7040 C 681.542 1.6431 -1.16639 0
M  V30 7041 O 680.598 2.37077 -0.868946 0
M  V30 7042 C 681.911 -0.0587019 -3.00643 0
M  V30 7043 C 683.459 0.00462303 -3.13 0
M  V30 7044 C 683.934 -0.231297 -4.57416 0
M  V30 7045 N 685.425 -0.178394 -4.62856 0
M  V30 7046 C 686.16 -0.335379 -5.72418 0
M  V30 7047 N 685.656 -0.550355 -6.90611 0
M  V30 7048 N 687.449 -0.272641 -5.61438 0
M  V30 7049 H 679.6 -1.09116 -1.82229 0
M  V30 7050 H 681.863 -0.432311 -0.843689 0
M  V30 7051 H 681.569 -1.05453 -3.35518 0
M  V30 7052 H 681.443 0.658508 -3.71407 0
M  V30 7053 H 683.83 0.991009 -2.77962 0
M  V30 7054 H 683.911 -0.744992 -2.44711 0
M  V30 7055 H 683.555 -1.2148 -4.93158 0
M  V30 7056 H 683.485 0.5387 -5.23837 0
M  V30 7057 H 685.976 -0.0170923 -3.77896 0
M  V30 7058 H 686.289 -0.660116 -7.69976 0
M  V30 7059 H 684.634 -0.586736 -6.92519 0
M  V30 7060 H 687.825 -0.105421 -4.67981 0
M  V30 7061 H 687.998 -0.398418 -6.46774 0
M  V30 7062 N 681.404 1.57128 0.121893 0
M  V30 7063 C 682.681 1.75664 0.860327 0
M  V30 7064 C 683.061 0.726585 1.98202 0
M  V30 7065 O 682.409 -0.24999 2.27128 0
M  V30 7066 C 682.619 3.20571 1.37968 0
M  V30 7067 C 683.967 3.82988 1.83317 0
M  V30 7068 O 684.991 3.24156 1.47654 0
M  V30 7069 O 683.85 4.86393 2.49168 0
M  V30 7070 H 680.944 0.719153 0.408348 0
M  V30 7071 H 683.49 1.6937 0.105859 0
M  V30 7072 H 682.262 3.87056 0.57477 0
M  V30 7073 H 681.885 3.31392 2.19694 0
M  V30 7074 N 682.882 -0.391992 1.52647 0
M  V30 7075 C 683.845 -1.46135 1.7657 0
M  V30 7076 C 684.845 -1.47701 0.635698 0
M  V30 7077 O 686.035 -1.48924 0.903728 0
M  V30 7078 C 683.167 -2.85443 1.86374 0
M  V30 7079 H 684.36 -1.26208 2.72051 0
M  V30 7080 H 681.913 -0.623549 1.43323 0
M  V30 7081 H 682.648 -3.10718 0.928685 0
M  V30 7082 H 682.433 -2.85708 2.68539 0
M  V30 7083 H 683.923 -3.62933 2.06566 0
M  V30 7084 N 684.36 -1.4356 -0.65026 0
M  V30 7085 C 685.27 -1.514 -1.79207 0
M  V30 7086 C 686.286 -0.400895 -1.69319 0
M  V30 7087 O 687.462 -0.655458 -1.90436 0
M  V30 7088 C 684.527 -1.43737 -3.155 0
M  V30 7089 C 683.588 -2.65743 -3.37163 0
M  V30 7090 C 682.821 -2.58436 -4.66954 0
M  V30 7091 O 683.044 -1.63374 -5.46503 0
M  V30 7092 O 681.978 -3.48984 -4.90402 0
M  V30 7093 H 685.804 -2.47825 -1.75547 0
M  V30 7094 H 683.389 -1.25594 -0.809111 0
M  V30 7095 H 685.271 -1.41916 -3.96784 0
M  V30 7096 H 683.946 -0.504488 -3.19745 0
M  V30 7097 H 682.853 -2.73136 -2.55632 0
M  V30 7098 H 684.186 -3.58014 -3.37768 0
M  V30 7099 N 685.838 0.888903 -1.30139 0
M  V30 7100 C 687.063 1.67884 -1.21777 0
M  V30 7101 C 687.488 1.86848 0.216689 0
M  V30 7102 O 686.846 1.39659 1.15608 0
M  V30 7103 C 686.894 3.03483 -1.94757 0
M  V30 7104 O 685.998 3.92294 -1.27198 0
M  V30 7105 H 685.339 0.513144 -0.421402 0
M  V30 7106 H 687.869 1.10968 -1.71893 0
M  V30 7107 H 687.879 3.53553 -2.03627 0
M  V30 7108 H 686.554 2.89 -2.99085 0
M  V30 7109 H 685.131 3.50732 -1.26655 0
M  V30 7110 N 687.317 1.12792 1.10072 0
M  V30 7111 C 688.564 0.885545 1.82111 0
M  V30 7112 C 688.892 -0.588519 1.85383 0
M  V30 7113 O 688.147 -1.45124 1.31292 0
M  V30 7114 C 688.446 1.4102 3.28403 0
M  V30 7115 C 688.112 2.89995 3.45273 0
M  V30 7116 C 686.774 3.30671 3.49585 0
M  V30 7117 C 689.126 3.85874 3.50358 0
M  V30 7118 C 686.454 4.65925 3.56553 0
M  V30 7119 C 688.806 5.20963 3.58859 0
M  V30 7120 C 687.47 5.61177 3.61437 0
M  V30 7121 H 686.74 0.324044 0.666391 0
M  V30 7122 H 689.387 1.40874 1.29718 0
M  V30 7123 H 687.692 0.807551 3.83387 0
M  V30 7124 H 689.389 1.19882 3.82661 0
M  V30 7125 H 685.979 2.57537 3.42597 0
M  V30 7126 H 690.163 3.5554 3.46273 0
M  V30 7127 H 685.419 4.96468 3.56833 0
M  V30 7128 H 689.593 5.95079 3.61738 0
M  V30 7129 H 687.22 6.6597 3.66589 0
M  V30 7130 N 688.795 -1.27931 0.920396 0
M  V30 7131 C 689.725 -2.29487 0.431024 0
M  V30 7132 C 690.706 -1.62435 -0.504861 0
M  V30 7133 O 691.891 -1.89797 -0.411176 0
M  V30 7134 C 689.021 -3.45788 -0.323709 0
M  V30 7135 C 687.975 -4.24784 0.523658 0
M  V30 7136 C 687.301 -5.33488 -0.359809 0
M  V30 7137 C 688.601 -4.90874 1.78437 0
M  V30 7138 H 690.295 -2.70671 1.27975 0
M  V30 7139 H 687.841 -1.30121 0.616813 0
M  V30 7140 H 689.794 -4.15927 -0.676952 0
M  V30 7141 H 688.518 -3.03502 -1.2064 0
M  V30 7142 H 687.177 -3.56382 0.85951 0
M  V30 7143 H 686.825 -4.87445 -1.24124 0
M  V30 7144 H 686.525 -5.87247 0.203605 0
M  V30 7145 H 688.049 -6.06472 -0.708787 0
M  V30 7146 H 689.463 -5.53339 1.49963 0
M  V30 7147 H 687.86 -5.54659 2.29071 0
M  V30 7148 H 688.93 -4.14988 2.50824 0
M  V30 7149 N 690.273 -0.685099 -1.4193 0
M  V30 7150 C 691.203 -0.0273506 -2.33484 0
M  V30 7151 C 692.184 0.778366 -1.51246 0
M  V30 7152 O 693.369 0.733449 -1.79817 0
M  V30 7153 C 690.499 0.917272 -3.34968 0
M  V30 7154 C 689.453 0.21941 -4.27437 0
M  V30 7155 C 688.779 1.27768 -5.1921 0
M  V30 7156 C 690.079 -0.907894 -5.14349 0
M  V30 7157 H 691.773 -0.791994 -2.88735 0
M  V30 7158 H 689.319 -0.382308 -1.38832 0
M  V30 7159 H 691.272 1.38657 -3.97935 0
M  V30 7160 H 689.996 1.71346 -2.78043 0
M  V30 7161 H 688.655 -0.229757 -3.65879 0
M  V30 7162 H 688.303 2.06612 -4.58607 0
M  V30 7163 H 688.003 0.815803 -5.81909 0
M  V30 7164 H 689.527 1.7477 -5.85054 0
M  V30 7165 H 690.941 -0.519348 -5.70943 0
M  V30 7166 H 689.338 -1.2962 -5.85934 0
M  V30 7167 H 690.408 -1.75218 -4.52136 0
M  V30 7168 N 691.751 1.51645 -0.429126 0
M  V30 7169 C 692.698 2.27542 0.386446 0
M  V30 7170 C 693.668 1.30786 1.02393 0
M  V30 7171 O 694.853 1.59678 1.0444 0
M  V30 7172 C 691.993 3.11457 1.48623 0
M  V30 7173 C 691.106 4.23196 0.867691 0
M  V30 7174 C 690.241 4.94435 1.94183 0
M  V30 7175 C 689.28 5.98108 1.30129 0
M  V30 7176 N 688.417 6.62786 2.31644 0
M  V30 7177 H 693.257 2.968 -0.267155 0
M  V30 7178 H 690.794 1.46397 -0.143591 0
M  V30 7179 H 692.752 3.58429 2.13506 0
M  V30 7180 H 691.382 2.44329 2.10957 0
M  V30 7181 H 690.434 3.80248 0.107373 0
M  V30 7182 H 691.746 4.97499 0.35997 0
M  V30 7183 H 690.9 5.44914 2.66747 0
M  V30 7184 H 689.639 4.19744 2.48326 0
M  V30 7185 H 688.644 5.4693 0.561082 0
M  V30 7186 H 689.869 6.74751 0.767303 0
M  V30 7187 H 687.815 5.90913 2.84883 0
M  V30 7188 H 687.732 7.32828 1.85741 0
M  V30 7189 H 689 7.17897 3.03717 0
M  V30 7190 N 693.229 0.160201 1.56784 0
M  V30 7191 C 694.454 -0.497373 2.01348 0
M  V30 7192 C 694.879 -1.56757 1.03966 0
M  V30 7193 O 694.237 -1.81292 0.0174455 0
M  V30 7194 C 694.285 -1.0628 3.44582 0
M  V30 7195 O 693.389 -2.17723 3.50244 0
M  V30 7196 H 692.73 -0.120295 0.653012 0
M  V30 7197 H 695.26 0.260821 2.02931 0
M  V30 7198 H 695.27 -1.38819 3.83658 0
M  V30 7199 H 693.945 -0.279166 4.14962 0
M  V30 7200 H 692.522 -1.86313 3.2302 0
M  V30 7201 N 694.707 -1.5719 -0.113559 0
M  V30 7202 C 696.118 -1.74259 -0.670116 0
M  V30 7203 C 696.469 -0.779694 -1.80042 0
M  V30 7204 O 695.594 0.0461353 -2.16351 0
M  V30 7205 C 696.189 -3.15981 -1.22236 0
M  V30 7206 C 694.748 -3.34537 -1.72516 0
M  V30 7207 C 693.895 -2.70116 -0.627098 0
M  V30 7208 H 696.846 -1.58301 0.112396 0
M  V30 7209 H 696.867 -3.17832 -2.09197 0
M  V30 7210 H 696.379 -3.86038 -0.39949 0
M  V30 7211 H 694.48 -2.6953 -2.57263 0
M  V30 7212 H 694.593 -4.42737 -1.83086 0
M  V30 7213 H 692.957 -2.31501 -1.06204 0
M  V30 7214 H 693.74 -3.42802 0.184889 0
M  V30 7215 N 696.185 0.383891 -1.52853 0
M  V30 7216 C 697.434 1.12563 -1.67369 0
M  V30 7217 C 697.747 1.90982 -0.422533 0
M  V30 7218 O 698.953 2.6778 -0.447914 0
M  V30 7219 C 697.409 2.05011 -2.95801 0
M  V30 7220 C 697.017 1.31991 -4.28115 0
M  V30 7221 C 698.761 2.79289 -3.19684 0
M  V30 7222 C 696.668 2.23235 -5.4765 0
M  V30 7223 H 695.598 0.42391 -0.623552 0
M  V30 7224 H 698.249 0.388016 -1.79351 0
M  V30 7225 H 696.631 2.82429 -2.77578 0
M  V30 7226 H 697.805 0.597633 -4.56908 0
M  V30 7227 H 696.12 0.696517 -4.10533 0
M  V30 7228 H 698.717 3.47749 -4.06171 0
M  V30 7229 H 699.06 3.43649 -2.3497 0
M  V30 7230 H 699.593 2.08962 -3.38496 0
M  V30 7231 H 696.332 1.63482 -6.34786 0
M  V30 7232 H 695.852 2.93364 -5.23161 0
M  V30 7233 H 697.531 2.83205 -5.81725 0
M  V30 7234 N 697.663 1.43903 0.642637 0
M  V30 7235 C 698.626 1.49538 1.73698 0
M  V30 7236 C 699.626 0.378776 1.56275 0
M  V30 7237 O 700.816 0.64095 1.6198 0
M  V30 7238 C 697.948 1.35821 3.12675 0
M  V30 7239 H 699.141 2.47008 1.70079 0
M  V30 7240 H 696.694 1.30824 0.85526 0
M  V30 7241 H 697.429 0.393994 3.21898 0
M  V30 7242 H 697.214 2.16776 3.26727 0
M  V30 7243 H 698.704 1.4272 3.92455 0
M  V30 7244 N 699.141 -0.881989 1.30609 0
M  V30 7245 C 700.552 -1.44956 1.17664 0
M  V30 7246 C 700.903 -1.94945 -0.221531 0
M  V30 7247 O 700.028 -1.85257 -1.11844 0
M  V30 7248 C 700.623 -2.63474 2.12995 0
M  V30 7249 C 699.182 -3.16312 2.04019 0
M  V30 7250 C 698.329 -1.89008 2.02907 0
M  V30 7251 H 701.28 -0.691645 1.42835 0
M  V30 7252 H 701.301 -3.39783 1.71253 0
M  V30 7253 H 700.813 -2.2706 3.14746 0
M  V30 7254 H 698.914 -3.57376 1.0542 0
M  V30 7255 H 699.027 -3.79409 2.9255 0
M  V30 7256 H 697.391 -2.07465 1.47751 0
M  V30 7257 H 698.174 -1.54848 3.06394 0
M  V30 7258 N 700.619 -1.13374 -1.09472 0
M  V30 7259 C 701.859 -0.905422 -1.83252 0
M  V30 7260 C 702.223 0.558396 -1.83701 0
M  V30 7261 O 703.424 0.904254 -2.53134 0
M  V30 7262 C 701.695 -1.47658 -3.25472 0
M  V30 7263 S 703.254 -1.38825 -4.16261 0
M  V30 7264 H 700.072 -0.326371 -0.631667 0
M  V30 7265 H 702.674 -1.44517 -1.31663 0
M  V30 7266 H 701.378 -2.53533 -3.22722 0
M  V30 7267 H 700.909 -0.934756 -3.82133 0
M  V30 7268 H 702.924 -0.366379 -4.94846 0
M  V30 7269 N 702.098 1.27442 -0.927168 0
M  V30 7270 C 703.323 1.99036 -0.583042 0
M  V30 7271 C 703.748 1.68711 0.83176 0
M  V30 7272 O 703.106 0.927081 1.55804 0
M  V30 7273 C 703.154 3.51271 -0.814925 0
M  V30 7274 O 702.258 4.12226 0.119742 0
M  V30 7275 H 701.599 0.624883 -0.224538 0
M  V30 7276 H 704.129 1.62263 -1.24628 0
M  V30 7277 H 704.139 4.01411 -0.730282 0
M  V30 7278 H 702.814 3.72676 -1.84623 0
M  V30 7279 H 701.391 3.72897 -0.0147688 0
M  V30 7280 N 703.576 0.692616 1.41565 0
M  V30 7281 C 704.506 0.0397325 2.33466 0
M  V30 7282 C 705.487 -0.770334 1.51657 0
M  V30 7283 O 706.672 -0.723903 1.80203 0
M  V30 7284 C 703.802 -0.899495 3.3545 0
M  V30 7285 C 702.756 -0.196738 4.27548 0
M  V30 7286 C 702.082 -1.25012 5.19881 0
M  V30 7287 C 703.382 0.935158 5.1386 0
M  V30 7288 H 705.076 0.807296 2.88311 0
M  V30 7289 H 702.622 0.389665 1.38628 0
M  V30 7290 H 704.575 -1.36545 3.98665 0
M  V30 7291 H 703.299 -1.69869 2.78948 0
M  V30 7292 H 701.958 0.249158 3.65752 0
M  V30 7293 H 701.606 -2.04177 4.59696 0
M  V30 7294 H 701.306 -0.784931 5.82334 0
M  V30 7295 H 702.83 -1.71665 5.85972 0
M  V30 7296 H 704.244 0.549619 5.70659 0
M  V30 7297 H 702.641 1.32726 5.85238 0
M  V30 7298 H 703.711 1.77613 4.512 0
M  V30 7299 N 705.054 -1.51416 0.437162 0
M  V30 7300 C 706.331 -1.94682 -0.189292 0
M  V30 7301 C 706.711 -1.37581 -1.60108 0
M  V30 7302 O 706.059 -0.562815 -2.2146 0
M  V30 7303 C 706.269 -3.48599 -0.167201 0
M  V30 7304 C 707.617 -4.2296 -0.372856 0
M  V30 7305 O 708.641 -3.55354 -0.245323 0
M  V30 7306 O 707.5 -5.42895 -0.626693 0
M  V30 7307 H 704.594 -0.816708 -0.130063 0
M  V30 7308 H 707.14 -1.62316 0.495128 0
M  V30 7309 H 705.912 -3.82616 0.81981 0
M  V30 7310 H 705.535 -3.87406 -0.894537 0
M  V30 7311 N 706.532 -0.168513 -1.56696 0
M  V30 7312 C 707.479 0.762875 -2.17828 0
M  V30 7313 C 708.449 1.22892 -1.11745 0
M  V30 7314 O 709.634 1.29759 -1.39883 0
M  V30 7315 C 706.774 1.9879 -2.82093 0
M  V30 7316 C 705.887 1.56568 -4.02629 0
M  V30 7317 C 705.022 2.74416 -4.54829 0
M  V30 7318 C 704.061 2.28671 -5.67782 0
M  V30 7319 N 703.198 3.39602 -6.14504 0
M  V30 7320 H 708.038 0.23479 -2.97074 0
M  V30 7321 H 705.575 0.104163 -1.46731 0
M  V30 7322 H 707.533 2.70636 -3.17509 0
M  V30 7323 H 706.163 2.48973 -2.05456 0
M  V30 7324 H 705.215 0.744067 -3.73052 0
M  V30 7325 H 706.527 1.18988 -4.844 0
M  V30 7326 H 705.681 3.54423 -4.92412 0
M  V30 7327 H 704.42 3.15254 -3.7211 0
M  V30 7328 H 703.425 1.4711 -5.29753 0
M  V30 7329 H 704.65 1.88894 -6.52301 0
M  V30 7330 H 702.596 3.80021 -5.34715 0
M  V30 7331 H 702.513 3.06105 -6.91257 0
M  V30 7332 H 703.781 4.19902 -6.56737 0
M  V30 7333 N 708.01 1.57248 0.105221 0
M  V30 7334 C 709.426 1.52853 0.459153 0
M  V30 7335 C 709.626 0.883674 1.8109 0
M  V30 7336 O 708.682 0.471864 2.48052 0
M  V30 7337 C 709.995 2.97596 0.43096 0
M  V30 7338 C 711.543 3.08758 0.513536 0
M  V30 7339 C 712.018 4.55089 0.515593 0
M  V30 7340 N 713.509 4.59597 0.576639 0
M  V30 7341 C 714.244 5.70253 0.599904 0
M  V30 7342 N 713.74 6.90368 0.579985 0
M  V30 7343 N 715.533 5.58399 0.643953 0
M  V30 7344 H 707.684 1.97547 -0.780306 0
M  V30 7345 H 709.947 0.902758 -0.289363 0
M  V30 7346 H 709.653 3.48201 -0.494903 0
M  V30 7347 H 709.527 3.55756 1.2537 0
M  V30 7348 H 711.914 2.58148 1.42982 0
M  V30 7349 H 711.995 2.53568 -0.337148 0
M  V30 7350 H 711.639 5.06348 -0.396701 0
M  V30 7351 H 711.569 5.08105 1.38335 0
M  V30 7352 H 714.06 3.73144 0.597639 0
M  V30 7353 H 714.373 7.70462 0.600741 0
M  V30 7354 H 712.718 6.92843 0.547191 0
M  V30 7355 H 715.909 4.63467 0.656975 0
M  V30 7356 H 716.082 6.44644 0.658616 0
M  V30 7357 N 709.488 -0.375779 1.53054 0
M  V30 7358 C 710.734 -1.12114 1.68992 0
M  V30 7359 C 711.067 -1.8926 0.435238 0
M  V30 7360 O 710.342 -1.86044 -0.567278 0
M  V30 7361 C 710.625 -2.08867 2.93337 0
M  V30 7362 C 710.478 -1.35397 4.28938 0
M  V30 7363 C 711.797 -3.09124 3.13257 0
M  V30 7364 H 708.916 -0.406207 0.614951 0
M  V30 7365 H 711.558 -0.403054 1.85676 0
M  V30 7366 H 709.708 -2.70102 2.79244 0
M  V30 7367 H 711.38 -0.770242 4.54824 0
M  V30 7368 H 709.623 -0.655801 4.28814 0
M  V30 7369 H 710.294 -2.06161 5.12056 0
M  V30 7370 H 712.77 -2.57987 3.26469 0
M  V30 7371 H 711.646 -3.74054 4.01715 0
M  V30 7372 H 711.907 -3.78729 2.28072 0
M  V30 7373 N 710.966 -1.44241 -0.634997 0
M  V30 7374 C 712.215 -1.46102 -1.39058 0
M  V30 7375 C 712.528 -0.0959909 -1.95364 0
M  V30 7376 O 713.734 0.00788751 -2.71499 0
M  V30 7377 C 712.19 -2.57195 -2.51751 0
M  V30 7378 C 711.798 -3.99888 -2.01974 0
M  V30 7379 C 713.542 -2.68272 -3.28984 0
M  V30 7380 C 711.449 -5.02412 -3.11987 0
M  V30 7381 H 710.379 -0.543556 -0.522554 0
M  V30 7382 H 713.03 -1.70294 -0.683538 0
M  V30 7383 H 711.412 -2.26237 -3.25012 0
M  V30 7384 H 712.586 -4.40396 -1.35604 0
M  V30 7385 H 710.901 -3.93019 -1.37568 0
M  V30 7386 H 713.498 -3.42042 -4.10988 0
M  V30 7387 H 713.841 -1.73957 -3.78212 0
M  V30 7388 H 714.374 -2.98622 -2.62812 0
M  V30 7389 H 711.113 -5.98342 -2.67707 0
M  V30 7390 H 710.633 -4.66501 -3.77011 0
M  V30 7391 H 712.312 -5.25939 -3.76825 0
M  V30 7392 N 712.444 0.87505 -1.31075 0
M  V30 7393 C 713.374 1.99775 -1.20881 0
M  V30 7394 C 714.355 1.69822 -0.0971612 0
M  V30 7395 O 715.54 1.92158 -0.280895 0
M  V30 7396 C 712.67 3.35163 -0.910118 0
M  V30 7397 C 711.624 3.79406 -1.98078 0
M  V30 7398 C 710.95 5.12197 -1.53488 0
M  V30 7399 C 712.25 3.97061 -3.39323 0
M  V30 7400 H 713.944 2.08562 -2.14808 0
M  V30 7401 H 711.49 1.00207 -1.03415 0
M  V30 7402 H 713.443 4.13237 -0.825423 0
M  V30 7403 H 712.167 3.26536 0.064822 0
M  V30 7404 H 710.826 3.03568 -2.05528 0
M  V30 7405 H 710.474 5.00007 -0.547941 0
M  V30 7406 H 710.174 5.4277 -2.2511 0
M  V30 7407 H 711.698 5.92785 -1.46417 0
M  V30 7408 H 713.112 4.65545 -3.34576 0
M  V30 7409 H 711.509 4.39025 -4.09118 0
M  V30 7410 H 712.579 3.00601 -3.80483 0
M  V30 7411 N 713.922 1.13953 1.08869 0
M  V30 7412 C 715.171 0.899431 1.80536 0
M  V30 7413 C 715.484 -0.575781 1.86933 0
M  V30 7414 O 716.69 -0.932988 2.54966 0
M  V30 7415 C 715.146 1.55963 3.24351 0
M  V30 7416 C 714.754 3.07077 3.26202 0
M  V30 7417 C 716.498 1.40046 4.00733 0
M  V30 7418 C 714.405 3.65955 4.64576 0
M  V30 7419 H 713.335 0.332849 0.676556 0
M  V30 7420 H 715.986 1.3679 1.22314 0
M  V30 7421 H 714.368 1.01883 3.82669 0
M  V30 7422 H 715.542 3.67785 2.77617 0
M  V30 7423 H 713.857 3.22576 2.63312 0
M  V30 7424 H 716.454 1.81441 5.02974 0
M  V30 7425 H 716.797 0.345993 4.1486 0
M  V30 7426 H 717.33 1.91137 3.48872 0
M  V30 7427 H 714.069 4.71234 4.55652 0
M  V30 7428 H 713.589 3.10027 5.13462 0
M  V30 7429 H 715.268 3.65968 5.33551 0
M  V30 7430 N 715.4 -1.26948 0.933913 0
M  V30 7431 C 716.647 -1.94087 0.577625 0
M  V30 7432 C 716.975 -1.73345 -0.88214 0
M  V30 7433 O 716.23 -1.05945 -1.64542 0
M  V30 7434 C 716.529 -3.46963 0.857406 0
M  V30 7435 C 716.195 -3.87834 2.2999 0
M  V30 7436 C 714.857 -3.98704 2.69423 0
M  V30 7437 C 717.209 -4.08442 3.23766 0
M  V30 7438 C 714.537 -4.27573 4.01744 0
M  V30 7439 C 716.889 -4.38798 4.55675 0
M  V30 7440 C 715.553 -4.47881 4.94934 0
M  V30 7441 H 714.823 -0.710215 0.211368 0
M  V30 7442 H 717.47 -1.50899 1.17905 0
M  V30 7443 H 715.775 -3.91416 0.173369 0
M  V30 7444 H 717.472 -3.97062 0.560615 0
M  V30 7445 H 714.062 -3.79916 1.98399 0
M  V30 7446 H 718.246 -3.99479 2.94499 0
M  V30 7447 H 713.502 -4.32815 4.31834 0
M  V30 7448 H 717.676 -4.5369 5.28335 0
M  V30 7449 H 715.303 -4.70005 5.97495 0
M  V30 7450 N 716.879 -0.700114 -1.41195 0
M  V30 7451 C 717.829 -0.0144098 -2.27995 0
M  V30 7452 C 718.813 0.748249 -1.42443 0
M  V30 7453 O 720.005 0.622995 -1.65674 0
M  V30 7454 C 717.134 0.917938 -3.308 0
M  V30 7455 C 716.22 0.151286 -4.2383 0
M  V30 7456 N 716.611 -0.85732 -4.98481 0
M  V30 7457 C 714.909 0.386108 -4.44326 0
M  V30 7458 C 715.61 -1.31663 -5.66604 0
M  V30 7459 N 714.586 -0.641689 -5.39799 0
M  V30 7460 H 718.388 -0.787662 -2.83149 0
M  V30 7461 H 715.902 -0.531344 -1.53462 0
M  V30 7462 H 717.899 1.42437 -3.91813 0
M  V30 7463 H 716.559 1.69074 -2.77208 0
M  V30 7464 H 717.57 -1.2377 -5.02893 0
M  V30 7465 H 714.247 1.13644 -4.01735 0
M  V30 7466 H 715.637 -2.15384 -6.36443 0
M  V30 7467 N 718.357 1.51182 -0.445186 0
M  V30 7468 C 719.597 2.04061 0.117717 0
M  V30 7469 C 719.961 1.32158 1.39278 0
M  V30 7470 O 721.162 1.75452 2.03642 0
M  V30 7471 C 719.433 3.55933 0.323445 0
M  V30 7472 S 720.992 4.30516 0.848627 0
M  V30 7473 H 717.81 0.710442 0.028165 0
M  V30 7474 H 720.412 1.85858 -0.606391 0
M  V30 7475 H 719.116 4.0583 -0.610764 0
M  V30 7476 H 718.647 3.78444 1.07441 0
M  V30 7477 H 720.662 4.48382 2.12528 0
M  V30 7478 N 719.835 0.176821 1.56605 0
M  V30 7479 C 720.745 -0.763682 2.21822 0
M  V30 7480 C 721.761 -1.24889 1.21156 0
M  V30 7481 O 722.937 -1.29987 1.53836 0
M  V30 7482 C 720.002 -1.97352 2.8505 0
M  V30 7483 C 719.063 -1.53466 4.00932 0
M  V30 7484 C 718.296 -2.68682 4.61135 0
M  V30 7485 O 718.519 -3.85694 4.20234 0
M  V30 7486 O 717.453 -2.42442 5.50913 0
M  V30 7487 H 721.279 -0.238363 3.02763 0
M  V30 7488 H 718.864 -0.0516331 1.49311 0
M  V30 7489 H 720.746 -2.68096 3.25119 0
M  V30 7490 H 719.421 -2.48779 2.07101 0
M  V30 7491 H 718.328 -0.796551 3.65521 0
M  V30 7492 H 719.661 -1.06724 4.8049 0
M  V30 7493 N 721.313 -1.57302 -0.09688 0
M  V30 7494 C 722.56 -1.85997 -0.800699 0
M  V30 7495 C 722.888 -0.765089 -1.7882 0
M  V30 7496 O 722.143 0.241492 -1.94204 0
M  V30 7497 C 722.442 -3.21272 -1.56586 0
M  V30 7498 C 722.108 -4.45104 -0.72064 0
M  V30 7499 C 720.77 -4.78723 -0.487632 0
M  V30 7500 C 723.122 -5.2103 -0.132948 0
M  V30 7501 C 720.45 -5.85697 0.34296 0
M  V30 7502 C 722.802 -6.28881 0.684957 0
M  V30 7503 C 721.466 -6.61017 0.928073 0
M  V30 7504 H 720.736 -0.680613 -0.292997 0
M  V30 7505 H 723.383 -1.91399 -0.0622474 0
M  V30 7506 H 721.688 -3.11547 -2.37583 0
M  V30 7507 H 723.385 -3.40702 -2.11478 0
M  V30 7508 H 719.975 -4.18777 -0.912359 0
M  V30 7509 H 724.159 -4.95392 -0.300132 0
M  V30 7510 H 719.415 -6.09008 0.540317 0
M  V30 7511 H 723.589 -6.86886 1.14721 0
M  V30 7512 H 721.216 -7.43738 1.57348 0
M  V30 7513 N 722.791 0.367657 -1.53252 0
M  V30 7514 C 724.016 1.13566 -1.73544 0
M  V30 7515 C 724.441 1.82329 -0.462344 0
M  V30 7516 O 723.799 1.71655 0.583472 0
M  V30 7517 C 723.847 2.14322 -2.89997 0
M  V30 7518 O 722.951 3.21359 -2.58461 0
M  V30 7519 H 722.292 0.329614 -0.576412 0
M  V30 7520 H 724.822 0.425417 -2.00128 0
M  V30 7521 H 724.832 2.57958 -3.16104 0
M  V30 7522 H 723.507 1.63664 -3.82344 0
M  V30 7523 H 722.084 2.8271 -2.43165 0
M  V30 7524 N 724.269 1.44576 0.627338 0
M  V30 7525 C 725.494 1.51271 1.41887 0
M  V30 7526 C 725.919 0.139814 1.8758 0
M  V30 7527 O 725.277 -0.871746 1.58966 0
M  V30 7528 C 725.325 2.48529 2.61277 0
M  V30 7529 O 724.429 1.98944 3.61241 0
M  V30 7530 H 723.77 0.510668 0.424399 0
M  V30 7531 H 726.3 1.89746 0.765356 0
M  V30 7532 H 726.31 2.66689 3.08773 0
M  V30 7533 H 724.985 3.48249 2.27366 0
M  V30 7534 H 723.562 1.90568 3.20528 0
M  V30 7535 N 725.747 -0.868086 1.31537 0
M  V30 7536 C 726.657 -2.00801 1.21311 0
M  V30 7537 C 727.673 -1.73518 0.129431 0
M  V30 7538 O 728.849 -1.98378 0.347588 0
M  V30 7539 C 725.914 -3.3419 0.922935 0
M  V30 7540 C 724.975 -3.74783 2.0937 0
M  V30 7541 C 724.208 -5.01807 1.81728 0
M  V30 7542 O 724.431 -5.65404 0.753313 0
M  V30 7543 O 723.365 -5.39213 2.67457 0
M  V30 7544 H 727.191 -2.12361 2.17109 0
M  V30 7545 H 724.776 -0.996684 1.11295 0
M  V30 7546 H 726.658 -4.14174 0.777033 0
M  V30 7547 H 725.333 -3.237 -0.00500301 0
M  V30 7548 H 724.24 -2.95432 2.29501 0
M  V30 7549 H 725.573 -3.89902 3.00396 0
M  V30 7550 N 727.225 -1.14528 -1.08264 0
M  V30 7551 C 728.641 -0.885976 -1.3275 0
M  V30 7552 C 728.841 0.472096 -1.95892 0
M  V30 7553 O 727.897 1.21606 -2.21288 0
M  V30 7554 C 729.21 -2.01982 -2.22764 0
M  V30 7555 C 730.758 -2.05329 -2.36239 0
M  V30 7556 C 731.233 -3.1801 -3.29596 0
M  V30 7557 N 732.724 -3.17598 -3.37173 0
M  V30 7558 C 733.459 -4.01426 -4.09444 0
M  V30 7559 N 732.955 -4.95297 -4.8441 0
M  V30 7560 N 734.748 -3.89482 -4.0529 0
M  V30 7561 H 726.899 -2.01996 -0.656607 0
M  V30 7562 H 729.162 -0.880274 -0.351884 0
M  V30 7563 H 728.868 -2.99964 -1.83615 0
M  V30 7564 H 728.742 -1.94421 -3.23234 0
M  V30 7565 H 731.129 -1.07953 -2.74646 0
M  V30 7566 H 731.21 -2.1696 -1.35506 0
M  V30 7567 H 730.854 -4.15633 -2.9191 0
M  V30 7568 H 730.784 -3.03616 -4.30261 0
M  V30 7569 H 733.275 -2.4961 -2.83731 0
M  V30 7570 H 733.588 -5.55723 -5.37021 0
M  V30 7571 H 731.933 -4.99293 -4.83457 0
M  V30 7572 H 735.124 -3.15465 -3.45832 0
M  V30 7573 H 735.297 -4.55039 -4.6135 0
M  V30 7574 N 728.703 1.26451 -0.940633 0
M  V30 7575 C 729.951 1.93395 -0.586748 0
M  V30 7576 C 730.272 1.7417 0.876921 0
M  V30 7577 O 729.542 1.097 1.62304 0
M  V30 7578 H 728.122 0.715687 -0.214012 0
M  V30 7579 H 730.784 1.53902 -1.19584 0
M  V30 7580 H 729.88 3.01565 -0.804059 0
M  V30 7581 N 730.181 0.707592 1.40822 0
M  V30 7582 C 731.592 0.317011 1.83989 0
M  V30 7583 C 731.943 -1.14697 1.59182 0
M  V30 7584 O 731.068 -1.8818 1.06852 0
M  V30 7585 C 731.663 0.568593 3.33995 0
M  V30 7586 C 730.222 0.231804 3.75686 0
M  V30 7587 C 729.369 0.844933 2.64114 0
M  V30 7588 H 732.32 0.907349 1.30203 0
M  V30 7589 H 732.341 -0.168798 3.80125 0
M  V30 7590 H 731.853 1.63417 3.52018 0
M  V30 7591 H 729.954 -0.82903 3.6326 0
M  V30 7592 H 730.067 0.695219 4.74029 0
M  V30 7593 H 728.431 0.273588 2.53226 0
M  V30 7594 H 729.214 1.91462 2.84951 0
M  V30 7595 N 731.66 -1.50943 0.453197 0
M  V30 7596 C 733.076 -1.59245 0.106342 0
M  V30 7597 C 733.276 -1.46287 -1.38572 0
M  V30 7598 O 732.332 -1.31219 -2.15726 0
M  V30 7599 C 733.645 -2.93797 0.640595 0
M  V30 7600 C 735.193 -3.07148 0.602435 0
M  V30 7601 C 735.668 -4.44247 1.11393 0
M  V30 7602 N 737.159 -4.50611 1.07258 0
M  V30 7603 C 737.894 -5.55049 1.43905 0
M  V30 7604 N 737.39 -6.66828 1.87914 0
M  V30 7605 N 739.183 -5.45494 1.35621 0
M  V30 7606 H 731.334 -1.5761 1.42382 0
M  V30 7607 H 733.597 -0.74384 0.587713 0
M  V30 7608 H 733.303 -3.087 1.68515 0
M  V30 7609 H 733.177 -3.77127 0.0742272 0
M  V30 7610 H 735.564 -2.91903 -0.433171 0
M  V30 7611 H 735.645 -2.25619 1.20539 0
M  V30 7612 H 735.289 -4.60239 2.14808 0
M  V30 7613 H 735.219 -5.2434 0.487353 0
M  V30 7614 H 737.71 -3.70391 0.749585 0
M  V30 7615 H 738.023 -7.42558 2.14072 0
M  V30 7616 H 736.368 -6.67995 1.91853 0
M  V30 7617 H 739.559 -4.57053 1.01093 0
M  V30 7618 H 739.732 -6.2677 1.64508 0
M  V30 7619 N 733.138 -0.185124 -1.56509 0
M  V30 7620 C 734.071 0.77877 -2.145 0
M  V30 7621 C 735.049 1.21649 -1.07891 0
M  V30 7622 O 736.233 1.30579 -1.35946 0
M  V30 7623 C 733.36 2.05048 -2.69579 0
M  V30 7624 C 732.406 1.75569 -3.88687 0
M  V30 7625 S 733.239 0.912642 -5.27666 0
M  V30 7626 C 734.395 2.19471 -5.8616 0
M  V30 7627 H 734.628 0.285751 -2.95924 0
M  V30 7628 H 732.161 0.0297417 -1.54371 0
M  V30 7629 H 734.119 2.78085 -3.01958 0
M  V30 7630 H 732.78 2.51462 -1.88216 0
M  V30 7631 H 731.973 2.69962 -4.25601 0
M  V30 7632 H 731.575 1.10619 -3.57267 0
M  V30 7633 H 733.867 3.14815 -5.99915 0
M  V30 7634 H 734.81 1.87005 -6.8296 0
M  V30 7635 H 735.218 2.31862 -5.14685 0
M  V30 7636 N 734.616 1.57351 0.0885366 0
M  V30 7637 C 735.856 1.88248 0.796362 0
M  V30 7638 C 736.22 0.776915 1.75579 0
M  V30 7639 O 737.421 0.968485 2.50747 0
M  V30 7640 C 735.692 3.24385 1.50031 0
M  V30 7641 S 737.251 3.76991 2.24551 0
M  V30 7642 H 734.069 0.659697 0.265181 0
M  V30 7643 H 736.671 1.95428 0.0531843 0
M  V30 7644 H 735.375 4.02764 0.788 0
M  V30 7645 H 734.906 3.20361 2.28325 0
M  V30 7646 H 736.921 3.50933 3.508 0
M  V30 7647 N 736.094 -0.359525 1.53444 0
M  V30 7648 C 737.51 -0.701599 1.43352 0
M  V30 7649 C 737.71 -1.93049 0.577439 0
M  V30 7650 O 736.766 -2.52423 0.0622224 0
M  V30 7651 C 738.079 -0.90915 2.86627 0
M  V30 7652 C 739.627 -1.00878 2.96298 0
M  V30 7653 C 740.102 -1.24876 4.40647 0
M  V30 7654 N 741.593 -1.31632 4.44103 0
M  V30 7655 C 742.328 -1.51922 5.52908 0
M  V30 7656 N 741.824 -1.69489 6.71748 0
M  V30 7657 N 743.617 -1.54341 5.40496 0
M  V30 7658 H 735.768 0.448685 2.07607 0
M  V30 7659 H 738.031 0.138713 0.937797 0
M  V30 7660 H 737.737 -0.0778997 3.51614 0
M  V30 7661 H 737.611 -1.81551 3.30634 0
M  V30 7662 H 739.998 -1.83057 2.31461 0
M  V30 7663 H 740.079 -0.0796721 2.55676 0
M  V30 7664 H 739.723 -0.431961 5.0606 0
M  V30 7665 H 739.653 -2.19118 4.78848 0
M  V30 7666 H 742.144 -1.19646 3.5846 0
M  V30 7667 H 742.457 -1.84561 7.50438 0
M  V30 7668 H 740.802 -1.66655 6.74723 0
M  V30 7669 H 743.993 -1.40188 4.46615 0
M  V30 7670 H 744.166 -1.69812 6.25354 0
M  V30 7671 N 737.572 -1.44907 -0.619662 0
M  V30 7672 C 738.819 -1.48292 -1.37898 0
M  V30 7673 C 739.147 -0.119933 -1.9413 0
M  V30 7674 O 738.402 0.879834 -1.74807 0
M  V30 7675 C 738.701 -2.50002 -2.55409 0
M  V30 7676 C 738.367 -3.95031 -2.17397 0
M  V30 7677 C 737.029 -4.34524 -2.06743 0
M  V30 7678 C 739.381 -4.86287 -1.87548 0
M  V30 7679 C 736.709 -5.63183 -1.64445 0
M  V30 7680 C 739.061 -6.15346 -1.4674 0
M  V30 7681 C 737.725 -6.53781 -1.34636 0
M  V30 7682 H 736.995 -0.542638 -0.504603 0
M  V30 7683 H 739.642 -1.78186 -0.701581 0
M  V30 7684 H 737.947 -2.13634 -3.28433 0
M  V30 7685 H 739.644 -2.49864 -3.13639 0
M  V30 7686 H 736.234 -3.63793 -2.26611 0
M  V30 7687 H 740.418 -4.56522 -1.94682 0
M  V30 7688 H 735.674 -5.91769 -1.53687 0
M  V30 7689 H 739.848 -6.85508 -1.22685 0
M  V30 7690 H 737.475 -7.53375 -1.01634 0
M  V30 7691 N 739.05 0.861098 -1.31996 0
M  V30 7692 C 740.299 1.60965 -1.21545 0
M  V30 7693 C 740.612 1.94325 0.222972 0
M  V30 7694 O 741.818 2.67757 0.449272 0
M  V30 7695 C 740.274 2.90223 -2.12834 0
M  V30 7696 C 739.882 2.64313 -3.61722 0
M  V30 7697 C 741.626 3.68229 -2.11205 0
M  V30 7698 C 739.533 3.89532 -4.44993 0
M  V30 7699 H 738.463 0.603988 -0.451348 0
M  V30 7700 H 741.114 0.951358 -1.56912 0
M  V30 7701 H 739.496 3.57475 -1.70375 0
M  V30 7702 H 740.67 2.05413 -4.12483 0
M  V30 7703 H 738.985 1.99647 -3.65418 0
M  V30 7704 H 741.582 4.61138 -2.70658 0
M  V30 7705 H 741.925 4.01466 -1.1014 0
M  V30 7706 H 742.458 3.07873 -2.51911 0
M  V30 7707 H 739.197 3.61441 -5.46846 0
M  V30 7708 H 738.717 4.47851 -3.98985 0
M  V30 7709 H 740.396 4.57334 -4.57663 0
M  V30 7710 N 740.528 1.15101 1.07655 0
M  V30 7711 C 741.944 0.893004 1.32279 0
M  V30 7712 C 742.144 -0.461701 1.96139 0
M  V30 7713 O 741.2 -1.20431 2.21929 0
M  V30 7714 C 742.513 2.03161 2.21689 0
M  V30 7715 C 744.061 2.06579 2.35147 0
M  V30 7716 C 744.536 3.19754 3.27905 0
M  V30 7717 N 746.027 3.19382 3.35484 0
M  V30 7718 C 746.762 4.03592 4.07309 0
M  V30 7719 N 746.258 4.97859 4.81776 0
M  V30 7720 N 748.051 3.91626 4.03219 0
M  V30 7721 H 740.202 2.02341 0.645886 0
M  V30 7722 H 742.465 0.882127 0.347211 0
M  V30 7723 H 742.171 3.00934 1.82021 0
M  V30 7724 H 742.045 1.96132 3.22199 0
M  V30 7725 H 744.432 1.09408 2.74069 0
M  V30 7726 H 744.513 2.17676 1.34353 0
M  V30 7727 H 744.157 4.17175 2.89702 0
M  V30 7728 H 744.087 3.05893 4.28645 0
M  V30 7729 H 746.578 2.51112 2.82403 0
M  V30 7730 H 746.891 5.58563 5.34067 0
M  V30 7731 H 745.236 5.0185 4.80803 0
M  V30 7732 H 748.427 3.17295 3.44154 0
M  V30 7733 H 748.6 4.57479 4.5893 0
M  V30 7734 N 742.006 -1.2595 0.947325 0
M  V30 7735 C 742.916 -2.29883 0.468079 0
M  V30 7736 C 743.932 -1.67783 -0.460975 0
M  V30 7737 O 745.108 -1.98526 -0.339006 0
M  V30 7738 C 742.173 -3.45773 -0.253315 0
M  V30 7739 C 741.234 -4.23337 0.713054 0
M  V30 7740 C 740.467 -5.33694 0.025993 0
M  V30 7741 O 740.69 -5.57853 -1.18978 0
M  V30 7742 O 739.624 -5.97724 0.70782 0
M  V30 7743 H 743.45 -2.72952 1.33156 0
M  V30 7744 H 741.035 -1.31263 0.713468 0
M  V30 7745 H 742.917 -4.16209 -0.659423 0
M  V30 7746 H 741.592 -3.04721 -1.09209 0
M  V30 7747 H 740.499 -3.55359 1.16923 0
M  V30 7748 H 741.832 -4.68154 1.51963 0
M  V30 7749 N 743.484 -0.715051 -1.40445 0
M  V30 7750 C 744.9 -0.388555 -1.54798 0
M  V30 7751 C 745.1 1.10271 -1.68649 0
M  V30 7752 O 744.156 1.88875 -1.67578 0
M  V30 7753 C 745.469 -1.15414 -2.77669 0
M  V30 7754 C 747.017 -1.14039 -2.91486 0
M  V30 7755 C 747.492 -1.88812 -4.1727 0
M  V30 7756 N 748.983 -1.85878 -4.24268 0
M  V30 7757 C 749.718 -2.40558 -5.20499 0
M  V30 7758 N 749.214 -3.03791 -6.22642 0
M  V30 7759 N 751.007 -2.30703 -5.12574 0
M  V30 7760 H 743.158 -1.68201 -1.297 0
M  V30 7761 H 745.421 -0.710915 -0.627139 0
M  V30 7762 H 745.127 -2.20853 -2.7371 0
M  V30 7763 H 745.001 -0.745412 -3.69761 0
M  V30 7764 H 747.388 -0.0941996 -2.9495 0
M  V30 7765 H 747.469 -1.58834 -2.00513 0
M  V30 7766 H 747.113 -2.93422 -4.14568 0
M  V30 7767 H 747.043 -1.41438 -5.0725 0
M  V30 7768 H 749.534 -1.39794 -3.51093 0
M  V30 7769 H 749.847 -3.43032 -6.92495 0
M  V30 7770 H 748.192 -3.07875 -6.23087 0
M  V30 7771 H 751.383 -1.80961 -4.31707 0
M  V30 7772 H 751.556 -2.73618 -5.87398 0
M  V30 7773 N 744.962 1.50701 -0.461195 0
M  V30 7774 C 746.239 1.94958 0.158296 0
M  V30 7775 C 746.619 1.40111 1.57899 0
M  V30 7776 O 745.967 0.597976 2.20537 0
M  V30 7777 C 746.177 3.48821 0.11172 0
M  V30 7778 C 747.525 4.23499 0.30552 0
M  V30 7779 O 748.549 3.557 0.188758 0
M  V30 7780 O 747.408 5.43823 0.540244 0
M  V30 7781 H 744.502 0.818674 0.117054 0
M  V30 7782 H 747.048 1.61508 -0.520888 0
M  V30 7783 H 745.82 3.81263 -0.880577 0
M  V30 7784 H 745.443 3.88781 0.832791 0
M  V30 7785 N 746.441 0.193421 1.56409 0
M  V30 7786 C 747.857 -0.162447 1.58771 0
M  V30 7787 C 748.057 -1.6116 1.20954 0
M  V30 7788 O 747.113 -2.3469 0.931497 0
M  V30 7789 C 748.426 0.138391 3.00381 0
M  V30 7790 C 749.974 0.0783649 3.12902 0
M  V30 7791 C 750.449 0.352491 4.56642 0
M  V30 7792 N 751.94 0.30105 4.62221 0
M  V30 7793 C 752.675 0.487028 5.71328 0
M  V30 7794 N 752.171 0.733265 6.88909 0
M  V30 7795 N 753.964 0.4214 5.60518 0
M  V30 7796 H 746.115 1.13909 1.79272 0
M  V30 7797 H 748.378 0.454528 0.83193 0
M  V30 7798 H 748.084 1.14312 3.32604 0
M  V30 7799 H 747.958 -0.559804 3.73023 0
M  V30 7800 H 750.345 -0.916963 2.80492 0
M  V30 7801 H 750.426 0.809611 2.4265 0
M  V30 7802 H 750.07 1.34513 4.89764 0
M  V30 7803 H 750 -0.399624 5.25081 0
M  V30 7804 H 752.491 0.117279 3.77718 0
M  V30 7805 H 752.804 0.86403 7.67955 0
M  V30 7806 H 751.149 0.770138 6.9072 0
M  V30 7807 H 754.34 0.229461 4.67537 0
M  V30 7808 H 754.513 0.569758 6.4549 0
M  V30 7809 N 747.919 -1.57396 -0.0801906 0
M  V30 7810 C 748.882 -2.02133 -1.0805 0
M  V30 7811 C 749.882 -0.91707 -1.32085 0
M  V30 7812 O 751.072 -1.18217 -1.27947 0
M  V30 7813 C 748.204 -2.39479 -2.42616 0
M  V30 7814 H 749.397 -2.91733 -0.6951 0
M  V30 7815 H 746.95 -1.52869 -0.325677 0
M  V30 7816 H 747.685 -1.52879 -2.86004 0
M  V30 7817 H 747.47 -3.20052 -2.26515 0
M  V30 7818 H 748.96 -2.74697 -3.14534 0
M  V30 7819 N 749.397 0.351382 -1.53633 0
M  V30 7820 C 750.643 1.09411 -1.70754 0
M  V30 7821 C 750.976 1.88544 -0.465293 0
M  V30 7822 O 750.251 1.86923 0.537608 0
M  V30 7823 C 750.534 2.04173 -2.96623 0
M  V30 7824 C 750.387 1.28556 -4.31038 0
M  V30 7825 C 751.706 3.04102 -3.18136 0
M  V30 7826 H 748.825 0.396373 -0.621335 0
M  V30 7827 H 751.467 0.373464 -1.86293 0
M  V30 7828 H 749.617 2.65625 -2.83506 0
M  V30 7829 H 751.289 0.697786 -4.55992 0
M  V30 7830 H 749.532 0.587498 -4.29803 0
M  V30 7831 H 750.203 1.97989 -5.15271 0
M  V30 7832 H 752.679 2.5276 -3.30532 0
M  V30 7833 H 751.555 3.67616 -4.07615 0
M  V30 7834 H 751.816 3.75053 -2.34068 0
M  V30 7835 N 750.875 1.45233 0.611969 0
M  V30 7836 C 751.823 1.53898 1.74408 0
M  V30 7837 C 752.817 0.409254 1.64382 0
M  V30 7838 O 754.023 0.584988 1.70229 0
M  V30 7839 H 750.398 0.483303 0.576127 0
M  V30 7840 H 752.369 2.49143 1.64227 0
M  V30 7841 C 751.118 1.51865 3.12782 0
M  V30 7842 H 750.441 2.38118 3.21154 0
M  V30 7843 H 751.881 1.61986 3.91838 0
M  V30 7844 C 750.34 0.242374 3.36027 0
M  V30 7845 O 750.87 -0.679587 3.9591 0
M  V30 7846 N 749.076 0.139448 2.90265 0
M  V30 7847 H 748.623 0.890571 2.41716 0
M  V30 7848 H 748.581 -0.713686 3.06193 0
M  V30 7849 N 752.353 -0.854086 1.3245 0
M  V30 7850 C 753.63 -1.59188 1.1366 0
M  V30 7851 C 754.01 -2.08917 -0.302807 0
M  V30 7852 O 753.358 -1.8795 -1.29951 0
M  V30 7853 C 753.568 -2.73757 2.16467 0
M  V30 7854 C 754.916 -3.43323 2.49829 0
M  V30 7855 O 755.94 -2.83983 2.15017 0
M  V30 7856 O 754.799 -4.50409 3.09506 0
M  V30 7857 H 751.893 -0.701092 0.438633 0
M  V30 7858 H 754.439 -0.898165 1.43983 0
M  V30 7859 H 753.211 -2.3454 3.1322 0
M  V30 7860 H 752.834 -3.50804 1.87142 0
M  V30 7861 N 753.831 -1.1567 -1.07043 0
M  V30 7862 C 755.061 -0.956083 -1.83146 0
M  V30 7863 C 755.469 0.498969 -1.82502 0
M  V30 7864 O 754.812 1.35791 -1.23719 0
M  V30 7865 C 754.874 -1.39704 -3.31245 0
M  V30 7866 C 754.538 -2.87045 -3.55604 0
M  V30 7867 C 755.535 -3.85092 -3.49285 0
M  V30 7868 C 753.22 -3.24787 -3.8317 0
M  V30 7869 C 755.214 -5.18885 -3.70185 0
M  V30 7870 C 752.901 -4.58751 -4.03721 0
M  V30 7871 C 753.899 -5.55609 -3.97224 0
M  V30 7872 O 753.587 -6.87154 -4.17223 0
M  V30 7873 H 753.319 -0.339473 -0.58458 0
M  V30 7874 H 755.873 -1.53922 -1.36005 0
M  V30 7875 H 754.103 -0.757326 -3.79212 0
M  V30 7876 H 755.792 -1.16503 -3.88821 0
M  V30 7877 H 756.558 -3.5728 -3.27988 0
M  V30 7878 H 752.437 -2.49979 -3.87339 0
M  V30 7879 H 755.981 -5.94473 -3.6503 0
M  V30 7880 H 751.878 -4.86277 -4.24505 0
M  V30 7881 H 752.646 -6.93618 -4.34553 0
M  V30 7882 N 755.309 1.25446 -0.953992 0
M  V30 7883 C 756.72 1.75047 -0.649255 0
M  V30 7884 C 757.071 1.77527 0.835385 0
M  V30 7885 O 756.196 1.39569 1.65377 0
M  V30 7886 C 756.791 3.17889 -1.17183 0
M  V30 7887 C 755.35 3.65052 -0.917267 0
M  V30 7888 C 754.497 2.44124 -1.31525 0
M  V30 7889 H 757.448 1.11342 -1.13087 0
M  V30 7890 H 757.469 3.76768 -0.531616 0
M  V30 7891 H 756.981 3.16052 -2.25239 0
M  V30 7892 H 755.082 3.72305 0.148354 0
M  V30 7893 H 755.195 4.53222 -1.55328 0
M  V30 7894 H 753.559 2.43906 -0.733624 0
M  V30 7895 H 754.342 2.44979 -2.405 0
M  V30 7896 N 756.787 0.722489 1.40064 0
M  V30 7897 C 758.012 0.273446 2.05589 0
M  V30 7898 C 758.437 -1.07875 1.54093 0
M  V30 7899 O 757.795 -1.68095 0.679252 0
M  V30 7900 C 757.843 0.271023 3.5958 0
M  V30 7901 O 756.947 -0.745499 4.05606 0
M  V30 7902 H 756.288 0.126856 0.65177 0
M  V30 7903 H 758.818 0.984906 1.79334 0
M  V30 7904 H 758.828 0.111084 4.07849 0
M  V30 7905 H 757.503 1.25776 3.96425 0
M  V30 7906 H 756.08 -0.552719 3.68781 0
M  V30 7907 N 758.265 -1.50454 0.469181 0
M  V30 7908 C 759.195 -2.31353 -0.31592 0
M  V30 7909 C 760.176 -1.38172 -0.992094 0
M  V30 7910 O 761.361 -1.67093 -0.989633 0
M  V30 7911 C 758.491 -3.1786 -1.39937 0
M  V30 7912 C 757.445 -4.19578 -0.844909 0
M  V30 7913 C 756.771 -4.9481 -2.0265 0
M  V30 7914 C 758.071 -5.22106 0.142499 0
M  V30 7915 H 759.765 -2.97237 0.359269 0
M  V30 7916 H 757.311 -1.42942 0.174224 0
M  V30 7917 H 759.264 -3.7325 -1.95607 0
M  V30 7918 H 757.988 -2.49858 -2.1033 0
M  V30 7919 H 756.647 -3.65285 -0.310189 0
M  V30 7920 H 756.295 -4.23282 -2.71737 0
M  V30 7921 H 755.995 -5.63613 -1.66174 0
M  V30 7922 H 757.519 -5.53035 -2.58815 0
M  V30 7923 H 758.933 -5.72378 -0.324966 0
M  V30 7924 H 757.33 -5.98618 0.421441 0
M  V30 7925 H 758.4 -4.7297 1.06901 0
M  V30 7926 N 759.743 -0.201713 -1.56304 0
M  V30 7927 C 760.973 0.440084 -2.01858 0
M  V30 7928 C 761.381 1.55279 -1.08098 0
M  V30 7929 O 760.724 1.83529 -0.0792216 0
M  V30 7930 C 760.786 1.05091 -3.43797 0
M  V30 7931 C 760.45 0.0761208 -4.56937 0
M  V30 7932 C 761.447 -0.716951 -5.14933 0
M  V30 7933 C 759.132 -0.0368815 -5.02286 0
M  V30 7934 C 761.126 -1.60993 -6.16733 0
M  V30 7935 C 758.813 -0.933409 -6.03929 0
M  V30 7936 C 759.811 -1.71849 -6.61027 0
M  V30 7937 O 759.499 -2.59998 -7.60695 0
M  V30 7938 H 759.231 0.114139 -0.666294 0
M  V30 7939 H 761.785 -0.309672 -2.03052 0
M  V30 7940 H 760.015 1.84938 -3.3961 0
M  V30 7941 H 761.704 1.59804 -3.73118 0
M  V30 7942 H 762.47 -0.63999 -4.80759 0
M  V30 7943 H 758.349 0.564034 -4.57537 0
M  V30 7944 H 761.893 -2.22315 -6.61227 0
M  V30 7945 H 757.79 -1.01146 -6.37526 0
M  V30 7946 H 758.558 -2.53851 -7.7814 0
M  V30 7947 N 761.222 1.57436 0.0718424 0
M  V30 7948 C 762.452 1.91196 0.782795 0
M  V30 7949 C 762.86 0.795927 1.71644 0
M  V30 7950 O 762.203 -0.239604 1.82131 0
M  V30 7951 C 762.265 3.20421 1.63005 0
M  V30 7952 C 761.929 4.48724 0.865782 0
M  V30 7953 C 762.926 5.19571 0.185051 0
M  V30 7954 C 760.611 4.95345 0.832971 0
M  V30 7955 C 762.605 6.3529 -0.518264 0
M  V30 7956 C 760.292 6.1097 0.125884 0
M  V30 7957 C 761.29 6.80794 -0.548533 0
M  V30 7958 O 760.978 7.94213 -1.24423 0
M  V30 7959 H 760.71 0.636486 0.227731 0
M  V30 7960 H 763.264 2.05348 0.0464187 0
M  V30 7961 H 761.494 3.02478 2.40923 0
M  V30 7962 H 763.183 3.39831 2.21968 0
M  V30 7963 H 763.949 4.8458 0.201707 0
M  V30 7964 H 759.828 4.40871 1.34737 0
M  V30 7965 H 763.372 6.89725 -1.04523 0
M  V30 7966 H 759.269 6.45411 0.107155 0
M  V30 7967 H 760.037 8.10331 -1.1535 0
M  V30 7968 N 762.7 -0.34323 1.53817 0
M  V30 7969 C 764.111 -0.918823 1.62525 0
M  V30 7970 C 764.462 -1.89542 0.506765 0
M  V30 7971 O 763.587 -2.13326 -0.363441 0
M  V30 7972 C 764.182 -1.67326 2.94597 0
M  V30 7973 C 762.741 -2.19786 3.05567 0
M  V30 7974 C 761.888 -1.01708 2.57974 0
M  V30 7975 H 764.839 -0.121358 1.58235 0
M  V30 7976 H 764.86 -2.53615 2.83654 0
M  V30 7977 H 764.372 -0.962223 3.75983 0
M  V30 7978 H 762.473 -2.94065 2.28816 0
M  V30 7979 H 762.586 -2.46135 4.1104 0
M  V30 7980 H 760.95 -1.39058 2.13389 0
M  V30 7981 H 761.733 -0.320671 3.41799 0
M  V30 7982 N 764.178 -1.45556 -0.604258 0
M  V30 7983 C 765.088 -1.57025 -1.74299 0
M  V30 7984 C 766.104 -0.45456 -1.67958 0
M  V30 7985 O 767.28 -0.715711 -1.88254 0
M  V30 7986 C 764.345 -1.53702 -3.10768 0
M  V30 7987 C 763.406 -2.76335 -3.28538 0
M  V30 7988 C 762.639 -2.73161 -4.58496 0
M  V30 7989 O 762.862 -1.80678 -5.41028 0
M  V30 7990 O 761.796 -3.64409 -4.79051 0
M  V30 7991 H 765.622 -2.53284 -1.67573 0
M  V30 7992 H 763.207 -1.28104 -0.768745 0
M  V30 7993 H 765.089 -1.54468 -3.92068 0
M  V30 7994 H 763.764 -0.605957 -3.17978 0
M  V30 7995 H 762.671 -2.8113 -2.46813 0
M  V30 7996 H 764.004 -3.68578 -3.26207 0
M  V30 7997 N 765.656 0.84705 -1.32902 0
M  V30 7998 C 766.589 1.96038 -1.1681 0
M  V30 7999 C 767.567 1.62468 -0.0656144 0
M  V30 8000 O 768.751 1.87136 -0.226339 0
M  V30 8001 C 765.878 3.29362 -0.789839 0
M  V30 8002 C 764.924 3.81908 -1.89865 0
M  V30 8003 S 765.757 4.04576 -3.50826 0
M  V30 8004 C 766.913 5.40863 -3.14989 0
M  V30 8005 H 767.146 2.09387 -2.11055 0
M  V30 8006 H 764.679 0.999896 -1.1765 0
M  V30 8007 H 766.637 4.06405 -0.578369 0
M  V30 8008 H 765.298 3.13815 0.133878 0
M  V30 8009 H 764.491 4.78357 -1.58716 0
M  V30 8010 H 764.093 3.11733 -2.06636 0
M  V30 8011 H 766.385 6.23393 -2.65306 0
M  V30 8012 H 767.328 5.7698 -4.10488 0
M  V30 8013 H 767.736 5.05228 -2.51804 0
M  V30 8014 N 767.134 1.16236 1.06428 0
M  V30 8015 C 768.364 0.965782 1.82637 0
M  V30 8016 C 768.772 -0.489284 1.82764 0
M  V30 8017 O 768.115 -1.35133 1.24438 0
M  V30 8018 C 768.177 1.41458 3.30499 0
M  V30 8019 C 767.841 2.88926 3.54077 0
M  V30 8020 C 768.838 3.86939 3.47238 0
M  V30 8021 C 766.523 3.26814 3.81442 0
M  V30 8022 C 768.517 5.20841 3.67428 0
M  V30 8023 C 766.204 4.60886 4.01282 0
M  V30 8024 C 767.202 5.57708 3.94272 0
M  V30 8025 O 766.89 6.89357 4.13573 0
M  V30 8026 H 766.622 0.342569 0.582772 0
M  V30 8027 H 769.176 1.54641 1.35187 0
M  V30 8028 H 767.406 0.777426 3.78805 0
M  V30 8029 H 769.095 1.18563 3.88198 0
M  V30 8030 H 769.861 3.59014 3.26089 0
M  V30 8031 H 765.74 2.5203 3.86008 0
M  V30 8032 H 769.284 5.96401 3.61873 0
M  V30 8033 H 765.181 4.88522 4.21921 0
M  V30 8034 H 765.949 6.95913 4.30869 0
M  V30 8035 N 768.612 -1.24939 0.960631 0
M  V30 8036 C 769.861 -1.92118 0.614298 0
M  V30 8037 C 770.174 -1.75998 -0.853474 0
M  V30 8038 O 771.38 -2.37804 -1.31003 0
M  V30 8039 C 769.836 -3.44303 1.04801 0
M  V30 8040 C 769.444 -3.69123 2.53875 0
M  V30 8041 C 771.188 -4.17375 0.774497 0
M  V30 8042 C 769.095 -5.14843 2.91016 0
M  V30 8043 H 768.025 -0.719319 0.226045 0
M  V30 8044 H 770.676 -1.41701 1.16589 0
M  V30 8045 H 769.058 -3.93715 0.42479 0
M  V30 8046 H 770.232 -3.30339 3.21267 0
M  V30 8047 H 768.547 -3.09323 2.78762 0
M  V30 8048 H 771.144 -5.24723 1.02808 0
M  V30 8049 H 771.487 -4.15294 -0.289192 0
M  V30 8050 H 772.02 -3.7389 1.35835 0
M  V30 8051 H 768.759 -5.2204 3.96427 0
M  V30 8052 H 768.279 -5.54652 2.28302 0
M  V30 8053 H 769.958 -5.83017 2.80535 0
M  V30 8054 N 770.09 -0.729906 -1.39679 0
M  V30 8055 C 771.02 -0.101618 -2.33279 0
M  V30 8056 C 772.001 0.729854 -1.53646 0
M  V30 8057 O 773.186 0.67587 -1.82059 0
M  V30 8058 C 770.316 0.81024 -3.37716 0
M  V30 8059 C 769.27 0.0833126 -4.27919 0
M  V30 8060 C 768.596 1.11185 -5.23012 0
M  V30 8061 C 769.896 -1.07107 -5.112 0
M  V30 8062 H 771.59 -0.883452 -2.86069 0
M  V30 8063 H 769.136 -0.426283 -1.37546 0
M  V30 8064 H 771.089 1.25927 -4.02145 0
M  V30 8065 H 769.813 1.62413 -2.83354 0
M  V30 8066 H 768.472 -0.346043 -3.64963 0
M  V30 8067 H 768.12 1.91917 -4.64948 0
M  V30 8068 H 767.82 0.63026 -5.8421 0
M  V30 8069 H 769.344 1.56068 -5.90318 0
M  V30 8070 H 770.758 -0.700726 -5.69002 0
M  V30 8071 H 769.155 -1.48196 -5.81514 0
M  V30 8072 H 770.225 -1.89513 -4.46332 0
M  V30 8073 N 771.568 1.50203 -0.477153 0
M  V30 8074 C 772.515 2.28656 0.31386 0
M  V30 8075 C 773.485 1.33977 0.981802 0
M  V30 8076 O 774.67 1.62919 0.993072 0
M  V30 8077 C 771.81 3.16027 1.38639 0
M  V30 8078 C 770.923 4.25743 0.732615 0
M  V30 8079 C 770.058 5.00363 1.78355 0
M  V30 8080 C 769.097 6.01945 1.11035 0
M  V30 8081 N 768.234 6.6982 2.10441 0
M  V30 8082 H 773.074 2.958 -0.361445 0
M  V30 8083 H 770.611 1.45867 -0.190093 0
M  V30 8084 H 772.569 3.6504 2.01994 0
M  V30 8085 H 771.199 2.50917 2.03077 0
M  V30 8086 H 770.251 3.80398 -0.0136546 0
M  V30 8087 H 771.563 4.98393 0.201513 0
M  V30 8088 H 770.717 5.53124 2.49276 0
M  V30 8089 H 769.456 4.27432 2.34847 0
M  V30 8090 H 768.461 5.48438 0.386797 0
M  V30 8091 H 769.686 6.76851 0.552248 0
M  V30 8092 H 767.632 5.99677 2.65939 0
M  V30 8093 H 767.549 7.38366 1.62332 0
M  V30 8094 H 768.817 7.27196 2.80724 0
M  V30 8095 N 773.046 0.209999 1.56195 0
M  V30 8096 C 774.294 -0.423974 1.97603 0
M  V30 8097 C 774.615 -1.61112 1.09854 0
M  V30 8098 O 773.885 -1.95134 0.173032 0
M  V30 8099 H 772.465 -0.159629 0.729745 0
M  V30 8100 H 775.127 0.300205 1.92574 0
M  V30 8101 H 774.223 -0.75809 3.02753 0
M  V30 8102 N 774.524 -1.57472 -0.0634922 0
M  V30 8103 C 775.772 -1.87283 -0.759563 0
M  V30 8104 C 776.093 -0.803135 -1.77693 0
M  V30 8105 O 775.363 0.167293 -1.95184 0
M  V30 8106 H 773.943 -0.691106 -0.283516 0
M  V30 8107 H 776.605 -1.94864 -0.0376091 0
M  V30 8108 H 775.701 -2.85064 -1.27062 0
M  V30 8109 N 776.003 0.335068 -1.53997 0
M  V30 8110 C 777.233 1.0926 -1.75345 0
M  V30 8111 C 777.641 1.82568 -0.496545 0
M  V30 8112 O 776.984 1.75525 0.541897 0
M  V30 8113 C 777.046 2.14473 -2.88516 0
M  V30 8114 C 776.71 1.60665 -4.27827 0
M  V30 8115 C 777.707 1.05448 -5.09094 0
M  V30 8116 C 775.392 1.65255 -4.74337 0
M  V30 8117 C 777.386 0.555372 -6.34976 0
M  V30 8118 C 775.073 1.14956 -6.0019 0
M  V30 8119 C 776.071 0.601907 -6.80343 0
M  V30 8120 O 775.759 0.106445 -8.0383 0
M  V30 8121 H 775.491 0.331329 -0.589234 0
M  V30 8122 H 778.045 0.39042 -2.01655 0
M  V30 8123 H 776.275 2.88274 -2.5775 0
M  V30 8124 H 777.964 2.75857 -2.97755 0
M  V30 8125 H 778.73 1.01218 -4.74321 0
M  V30 8126 H 774.609 2.06822 -4.12002 0
M  V30 8127 H 778.153 0.127245 -6.97484 0
M  V30 8128 H 774.05 1.18891 -6.34457 0
M  V30 8129 H 774.818 0.222944 -8.18196 0
M  V30 8130 N 777.481 1.45874 0.596531 0
M  V30 8131 C 778.428 1.55389 1.70655 0
M  V30 8132 C 779.398 0.399036 1.61236 0
M  V30 8133 O 780.583 0.61396 1.80652 0
M  V30 8134 C 777.723 1.53705 3.0898 0
M  V30 8135 C 776.836 2.79823 3.29125 0
M  V30 8136 C 775.971 2.69735 4.5762 0
M  V30 8137 C 775.01 3.90856 4.71061 0
M  V30 8138 N 774.147 3.79237 5.90867 0
M  V30 8139 H 778.987 2.50211 1.61859 0
M  V30 8140 H 776.524 1.24146 0.789069 0
M  V30 8141 H 778.482 1.50715 3.89026 0
M  V30 8142 H 777.112 0.624247 3.16706 0
M  V30 8143 H 776.164 2.92852 2.42779 0
M  V30 8144 H 777.476 3.69628 3.34927 0
M  V30 8145 H 776.63 2.64773 5.45875 0
M  V30 8146 H 775.369 1.77547 4.54234 0
M  V30 8147 H 774.374 3.96164 3.81227 0
M  V30 8148 H 775.599 4.84124 4.76236 0
M  V30 8149 H 773.545 2.89825 5.88504 0
M  V30 8150 H 773.462 4.62686 5.97877 0
M  V30 8151 H 774.73 3.78227 6.8159 0
M  V30 8152 N 778.959 -0.83999 1.33349 0
M  V30 8153 C 779.869 -1.98182 1.25543 0
M  V30 8154 C 780.885 -1.73204 0.166208 0
M  V30 8155 O 782.061 -1.97596 0.389589 0
M  V30 8156 C 779.126 -3.32157 0.993614 0
M  V30 8157 C 778.187 -3.70258 2.17273 0
M  V30 8158 C 777.42 -4.9784 1.92331 0
M  V30 8159 O 777.643 -5.63679 0.873074 0
M  V30 8160 O 776.577 -5.33418 2.78835 0
M  V30 8161 H 780.403 -2.07708 2.21565 0
M  V30 8162 H 777.988 -0.972852 1.13384 0
M  V30 8163 H 779.87 -4.12433 0.864711 0
M  V30 8164 H 778.545 -3.23637 0.0636596 0
M  V30 8165 H 777.452 -2.90497 2.35716 0
M  V30 8166 H 778.785 -3.83442 3.08598 0
M  V30 8167 N 780.437 -1.16799 -1.0581 0
M  V30 8168 C 781.684 -0.952524 -1.78699 0
M  V30 8169 C 782.012 0.51931 -1.87439 0
M  V30 8170 O 781.267 1.40151 -1.36587 0
M  V30 8171 C 781.566 -1.53111 -3.22942 0
M  V30 8172 C 781.232 -3.0261 -3.34273 0
M  V30 8173 C 779.894 -3.43418 -3.37072 0
M  V30 8174 C 782.246 -3.98611 -3.35795 0
M  V30 8175 C 779.574 -4.78838 -3.39015 0
M  V30 8176 C 781.926 -5.33923 -3.39277 0
M  V30 8177 C 780.59 -5.74205 -3.40361 0
M  V30 8178 H 779.86 -0.348553 -0.653905 0
M  V30 8179 H 782.507 -1.45591 -1.244 0
M  V30 8180 H 780.812 -0.949286 -3.80126 0
M  V30 8181 H 782.509 -1.34002 -3.77948 0
M  V30 8182 H 779.099 -2.70075 -3.32803 0
M  V30 8183 H 783.283 -3.68146 -3.32839 0
M  V30 8184 H 778.539 -5.09369 -3.38161 0
M  V30 8185 H 782.713 -6.08094 -3.39403 0
M  V30 8186 H 780.34 -6.79117 -3.4162 0
M  V30 8187 N 781.915 1.24427 -0.967243 0
M  V30 8188 C 783.162 1.92487 -0.62888 0
M  V30 8189 C 783.49 1.75623 0.835871 0
M  V30 8190 O 782.745 1.1027 1.61675 0
M  V30 8191 C 783.044 3.44568 -0.949096 0
M  V30 8192 C 782.71 3.816 -2.40192 0
M  V30 8193 C 781.372 3.9142 -2.799 0
M  V30 8194 C 783.724 3.99715 -3.34481 0
M  V30 8195 C 781.052 4.16771 -4.12939 0
M  V30 8196 C 783.404 4.26562 -4.67148 0
M  V30 8197 C 782.068 4.34601 -5.06634 0
M  V30 8198 H 781.338 0.704361 -0.230124 0
M  V30 8199 H 783.985 1.4772 -1.21864 0
M  V30 8200 H 782.29 3.90819 -0.277085 0
M  V30 8201 H 783.987 3.95436 -0.665692 0
M  V30 8202 H 780.577 3.74522 -2.08402 0
M  V30 8203 H 784.761 3.91531 -3.04987 0
M  V30 8204 H 780.017 4.21214 -4.43158 0
M  V30 8205 H 784.191 4.39523 -5.40178 0
M  V30 8206 H 781.818 4.53998 -6.09746 0
M  V30 8207 N 783.393 0.737304 1.3929 0
M  V30 8208 C 784.804 0.355966 1.83275 0
M  V30 8209 C 785.155 -1.11295 1.6158 0
M  V30 8210 O 784.28 -1.85871 1.10819 0
M  V30 8211 C 784.875 0.63931 3.32713 0
M  V30 8212 C 783.434 0.31144 3.75109 0
M  V30 8213 C 782.581 0.900765 2.62262 0
M  V30 8214 H 785.532 0.934763 1.28249 0
M  V30 8215 H 785.553 -0.0881293 3.80398 0
M  V30 8216 H 785.065 1.70847 3.48472 0
M  V30 8217 H 783.166 -0.751791 3.64937 0
M  V30 8218 H 783.279 0.795611 4.72448 0
M  V30 8219 H 781.643 0.327239 2.52589 0
M  V30 8220 H 782.426 1.97463 2.80826 0
M  V30 8221 N 784.871 -1.49948 0.485112 0
M  V30 8222 C 785.803 -2.26691 -0.338222 0
M  V30 8223 C 786.816 -1.32584 -0.944742 0
M  V30 8224 O 788.005 -1.57989 -0.830772 0
M  V30 8225 C 785.105 -3.04405 -1.48966 0
M  V30 8226 C 784.278 -4.25971 -0.993371 0
M  V30 8227 C 783.337 -4.85861 -2.02052 0
M  V30 8228 O 782.363 -5.46382 -1.59547 0
M  V30 8229 N 783.565 -4.74101 -3.34975 0
M  V30 8230 H 786.33 -2.97989 0.319748 0
M  V30 8231 H 783.891 -1.58772 0.316714 0
M  V30 8232 H 785.883 -3.41348 -2.17403 0
M  V30 8233 H 784.453 -2.35815 -2.05207 0
M  V30 8234 H 783.673 -3.93971 -0.134424 0
M  V30 8235 H 784.961 -5.0476 -0.639934 0
M  V30 8236 H 784.359 -4.26002 -3.72208 0
M  V30 8237 H 782.916 -5.15274 -3.9917 0
M  V30 8238 N 786.349 -0.21828 -1.56081 0
M  V30 8239 C 787.299 0.706492 -2.16778 0
M  V30 8240 C 788.283 1.15987 -1.11516 0
M  V30 8241 O 789.475 1.11441 -1.37513 0
M  V30 8242 C 786.604 1.91583 -2.8487 0
M  V30 8243 C 785.69 1.48228 -3.97353 0
M  V30 8244 N 786.081 0.761113 -5.00041 0
M  V30 8245 C 784.379 1.76982 -4.09382 0
M  V30 8246 C 785.08 0.540496 -5.79184 0
M  V30 8247 N 784.056 1.09622 -5.32432 0
M  V30 8248 H 787.858 0.147038 -2.93532 0
M  V30 8249 H 785.372 -0.0194049 -1.62388 0
M  V30 8250 H 787.369 2.58906 -3.26762 0
M  V30 8251 H 786.029 2.47979 -2.09611 0
M  V30 8252 H 787.04 0.414141 -5.16241 0
M  V30 8253 H 783.717 2.34721 -3.45271 0
M  V30 8254 H 785.107 -0.0332531 -6.71892 0
M  V30 8255 N 787.827 1.57504 0.0551401 0
M  V30 8256 C 789.238 1.76626 0.604979 0
M  V30 8257 C 789.589 0.845978 1.77024 0
M  V30 8258 O 788.714 0.0341936 2.16373 0
M  V30 8259 C 789.309 3.203 1.10425 0
M  V30 8260 C 787.868 3.4071 1.59981 0
M  V30 8261 C 787.015 2.72258 0.526414 0
M  V30 8262 H 789.966 1.57775 -0.171072 0
M  V30 8263 H 789.987 3.25377 1.97256 0
M  V30 8264 H 789.499 3.87255 0.255939 0
M  V30 8265 H 787.6 2.78892 2.47083 0
M  V30 8266 H 787.713 4.49227 1.66528 0
M  V30 8267 H 786.077 2.35283 0.97539 0
M  V30 8268 H 786.86 3.41879 -0.311991 0
M  V30 8269 N 789.305 -0.326896 1.54172 0
M  V30 8270 C 790.253 -1.42232 1.84046 0
M  V30 8271 C 791.247 -1.53705 0.712115 0
M  V30 8272 O 792.453 -1.56131 0.895724 0
M  V30 8273 H 788.828 -0.474568 0.583343 0
M  V30 8274 H 790.799 -1.14259 2.75658 0
M  V30 8275 C 789.548 -2.78502 2.08163 0
M  V30 8276 H 788.871 -2.70447 2.94446 0
M  V30 8277 H 790.311 -3.54228 2.33021 0
M  V30 8278 C 788.77 -3.25415 0.872152 0
M  V30 8279 O 789.3 -4.01621 0.0797648 0
M  V30 8280 N 787.506 -2.82418 0.684716 0
M  V30 8281 H 787.053 -2.20566 1.33072 0
M  V30 8282 H 787.011 -3.14159 -0.123031 0
M  V30 8283 N 790.784 -1.46188 -0.588786 0
M  V30 8284 C 792.031 -1.51184 -1.34721 0
M  V30 8285 C 792.359 -0.161084 -1.93832 0
M  V30 8286 O 791.614 0.842557 -1.76634 0
M  V30 8287 C 791.913 -2.55364 -2.50048 0
M  V30 8288 C 791.579 -3.99553 -2.08969 0
M  V30 8289 C 790.241 -4.38811 -1.9748 0
M  V30 8290 C 792.593 -4.90156 -1.77191 0
M  V30 8291 C 789.921 -5.66544 -1.52463 0
M  V30 8292 C 792.273 -6.1832 -1.33654 0
M  V30 8293 C 790.937 -6.5649 -1.20738 0
M  V30 8294 H 790.207 -0.55322 -0.49298 0
M  V30 8295 H 792.854 -1.79634 -0.663627 0
M  V30 8296 H 791.159 -2.20552 -3.23827 0
M  V30 8297 H 792.856 -2.5646 -3.08268 0
M  V30 8298 H 789.446 -3.68518 -2.18843 0
M  V30 8299 H 793.63 -4.60549 -1.84955 0
M  V30 8300 H 788.886 -5.94895 -1.411 0
M  V30 8301 H 793.06 -6.87956 -1.08117 0
M  V30 8302 H 790.687 -7.55362 -0.856307 0
M  V30 8303 N 792.262 0.832906 -1.33792 0
M  V30 8304 C 793.502 1.60217 -1.26925 0
M  V30 8305 C 793.866 1.91323 0.161146 0
M  V30 8306 O 795.067 2.66461 0.353864 0
M  V30 8307 C 793.338 2.87314 -2.12568 0
M  V30 8308 S 794.897 3.77939 -2.22952 0
M  V30 8309 H 791.715 0.549273 -0.451464 0
M  V30 8310 H 794.317 0.984648 -1.68893 0
M  V30 8311 H 793.021 2.62444 -3.15518 0
M  V30 8312 H 792.552 3.5407 -1.71459 0
M  V30 8313 H 794.567 4.76188 -1.39496 0
M  V30 8314 N 793.74 1.17359 1.05189 0
M  V30 8315 C 794.65 0.904984 2.16442 0
M  V30 8316 C 795.666 -0.12686 1.73537 0
M  V30 8317 O 796.842 0.0524127 2.01332 0
M  V30 8318 C 793.907 0.422019 3.44122 0
M  V30 8319 C 792.968 1.52045 4.01473 0
M  V30 8320 C 792.201 1.06044 5.23059 0
M  V30 8321 O 792.424 -0.0854023 5.70336 0
M  V30 8322 O 791.358 1.85349 5.72651 0
M  V30 8323 H 795.184 1.8356 2.41949 0
M  V30 8324 H 792.769 0.95447 1.14936 0
M  V30 8325 H 794.651 0.160208 4.21095 0
M  V30 8326 H 793.326 -0.480444 3.20115 0
M  V30 8327 H 792.233 1.83615 3.25939 0
M  V30 8328 H 793.566 2.39863 4.29798 0
M  V30 8329 N 795.218 -1.23913 0.973828 0
M  V30 8330 C 796.629 -1.73992 0.677021 0
M  V30 8331 C 796.98 -1.78833 -0.807036 0
M  V30 8332 O 796.105 -1.42183 -1.63135 0
M  V30 8333 C 796.7 -3.15985 1.22226 0
M  V30 8334 C 795.259 -3.63547 0.975228 0
M  V30 8335 C 794.406 -2.42001 1.35392 0
M  V30 8336 H 797.357 -1.09529 1.14844 0
M  V30 8337 H 797.378 -3.75875 0.591489 0
M  V30 8338 H 796.89 -3.12429 2.30238 0
M  V30 8339 H 794.991 -3.72493 -0.0891047 0
M  V30 8340 H 795.104 -4.50693 1.62518 0
M  V30 8341 H 793.468 -2.42708 0.772334 0
M  V30 8342 H 794.251 -2.41122 2.44367 0
M  V30 8343 N 796.696 -0.74468 -1.38897 0
M  V30 8344 C 797.628 -0.0713608 -2.29089 0
M  V30 8345 C 798.641 0.693224 -1.47303 0
M  V30 8346 O 799.83 0.535785 -1.70269 0
M  V30 8347 C 796.93 0.923078 -3.26087 0
M  V30 8348 C 796.103 0.217998 -4.36856 0
M  V30 8349 C 795.162 1.12192 -5.14101 0
M  V30 8350 O 794.188 0.595771 -5.66073 0
M  V30 8351 N 795.39 2.45082 -5.26227 0
M  V30 8352 H 798.155 -0.845906 -2.87514 0
M  V30 8353 H 795.716 -0.594712 -1.50581 0
M  V30 8354 H 797.708 1.53061 -3.74639 0
M  V30 8355 H 796.278 1.59876 -2.68623 0
M  V30 8356 H 795.498 -0.570134 -3.90055 0
M  V30 8357 H 796.786 -0.270248 -5.08082 0
M  V30 8358 H 796.184 2.90294 -4.85537 0
M  V30 8359 H 794.741 3.00907 -5.78185 0
M  V30 8360 N 798.174 1.49689 -0.493057 0
M  V30 8361 C 799.451 1.9525 0.116907 0
M  V30 8362 C 799.831 1.43429 1.54892 0
M  V30 8363 O 799.179 0.644621 2.19219 0
M  V30 8364 C 799.389 3.4898 0.037705 0
M  V30 8365 C 800.737 4.24052 0.215621 0
M  V30 8366 O 801.761 3.5602 0.113266 0
M  V30 8367 O 800.62 5.44847 0.42477 0
M  V30 8368 H 797.714 0.820973 0.099662 0
M  V30 8369 H 800.26 1.60367 -0.555029 0
M  V30 8370 H 799.032 3.79309 -0.961251 0
M  V30 8371 H 798.655 3.9046 0.750137 0
M  V30 8372 N 799.652 0.226554 1.55963 0
M  V30 8373 C 800.882 -0.407915 2.02533 0
M  V30 8374 C 801.29 -1.53539 1.10554 0
M  V30 8375 O 800.633 -1.8338 0.108409 0
M  V30 8376 C 800.695 -0.996081 3.45425 0
M  V30 8377 C 800.359 -0.00341651 4.57 0
M  V30 8378 C 801.356 0.798782 5.13727 0
M  V30 8379 C 799.041 0.116786 5.02164 0
M  V30 8380 C 801.035 1.70784 6.14094 0
M  V30 8381 C 798.722 1.02937 6.02368 0
M  V30 8382 C 799.72 1.82344 6.5821 0
M  V30 8383 O 799.408 2.72067 7.56462 0
M  V30 8384 H 799.14 -0.103524 0.668026 0
M  V30 8385 H 801.694 0.341937 2.02534 0
M  V30 8386 H 799.924 -1.79512 3.42509 0
M  V30 8387 H 801.613 -1.53848 3.75614 0
M  V30 8388 H 802.379 0.716393 4.7968 0
M  V30 8389 H 798.258 -0.491172 4.58376 0
M  V30 8390 H 801.802 2.32807 6.57607 0
M  V30 8391 H 797.699 1.11276 6.35836 0
M  V30 8392 H 798.467 2.66199 7.74003 0
M  V30 8393 N 801.13 -1.57531 -0.0467866 0
M  V30 8394 C 802.546 -1.54451 -0.402107 0
M  V30 8395 C 802.746 -0.950275 -1.77685 0
M  V30 8396 O 801.802 -0.563602 -2.4613 0
M  V30 8397 C 803.115 -2.9899 -0.320212 0
M  V30 8398 C 804.663 -3.10452 -0.398588 0
M  V30 8399 C 805.138 -4.56689 -0.346335 0
M  V30 8400 N 806.629 -4.6142 -0.405666 0
M  V30 8401 C 807.364 -5.72087 -0.387845 0
M  V30 8402 N 806.86 -6.92045 -0.32336 0
M  V30 8403 N 808.653 -5.60404 -0.436263 0
M  V30 8404 H 800.804 -1.94515 0.853087 0
M  V30 8405 H 803.067 -0.891397 0.322669 0
M  V30 8406 H 802.773 -3.46124 0.623794 0
M  V30 8407 H 802.647 -3.60164 -1.1208 0
M  V30 8408 H 805.034 -2.63276 -1.33302 0
M  V30 8409 H 805.115 -2.52142 0.431026 0
M  V30 8410 H 804.759 -5.04527 0.584356 0
M  V30 8411 H 804.689 -5.12889 -1.19382 0
M  V30 8412 H 807.18 -3.75105 -0.458737 0
M  V30 8413 H 807.493 -7.7216 -0.314375 0
M  V30 8414 H 805.838 -6.94396 -0.28967 0
M  V30 8415 H 809.029 -4.65586 -0.48451 0
M  V30 8416 H 809.202 -6.46645 -0.418907 0
M  V30 8417 N 802.608 0.318715 -1.54344 0
M  V30 8418 C 804.019 0.89285 -1.63967 0
M  V30 8419 C 804.37 1.88712 -0.536855 0
M  V30 8420 O 803.495 2.13877 0.329457 0
M  V30 8421 C 804.09 1.62618 -2.97222 0
M  V30 8422 C 802.649 2.14897 -3.09025 0
M  V30 8423 C 801.796 0.975909 -2.5956 0
M  V30 8424 H 804.747 0.0961687 -1.58408 0
M  V30 8425 H 804.768 2.4907 -2.87653 0
M  V30 8426 H 804.28 0.902286 -3.77466 0
M  V30 8427 H 802.381 2.90387 -2.33465 0
M  V30 8428 H 802.494 2.39565 -4.14904 0
M  V30 8429 H 800.858 1.35646 -2.15574 0
M  V30 8430 H 801.641 0.266253 -3.42266 0
M  V30 8431 N 804.086 1.46499 0.581025 0
M  V30 8432 C 805.019 1.51706 1.70472 0
M  V30 8433 C 805.997 0.371036 1.5831 0
M  V30 8434 O 807.181 0.575426 1.79502 0
M  V30 8435 C 804.308 1.3972 3.08538 0
M  V30 8436 C 803.354 2.58525 3.39215 0
M  V30 8437 S 804.187 4.20872 3.311 0
M  V30 8438 C 805.343 4.11398 4.71702 0
M  V30 8439 H 805.576 2.46777 1.65796 0
M  V30 8440 H 803.109 1.34405 0.759908 0
M  V30 8441 H 805.067 1.33492 3.88188 0
M  V30 8442 H 803.728 0.460742 3.10702 0
M  V30 8443 H 802.921 2.46137 4.3981 0
M  V30 8444 H 802.523 2.61752 2.67136 0
M  V30 8445 H 804.815 3.78182 5.62125 0
M  V30 8446 H 805.758 5.11997 4.89147 0
M  V30 8447 H 806.166 3.42624 4.48631 0
M  V30 8448 N 805.565 -0.825799 1.34232 0
M  V30 8449 C 806.513 -1.95792 1.25572 0
M  V30 8450 C 807.507 -1.68695 0.154404 0
M  V30 8451 O 808.713 -1.77147 0.319196 0
M  V30 8452 H 805.088 -0.642949 0.390027 0
M  V30 8453 H 807.059 -2.00219 2.21258 0
M  V30 8454 C 805.808 -3.32245 1.02511 0
M  V30 8455 H 805.131 -3.53642 1.86487 0
M  V30 8456 H 806.571 -4.1192 1.00487 0
M  V30 8457 C 805.03 -3.35803 -0.27167 0
M  V30 8458 O 805.56 -3.80962 -1.274 0
M  V30 8459 N 803.766 -2.89008 -0.303778 0
M  V30 8460 H 803.313 -2.52451 0.512464 0
M  V30 8461 H 803.271 -2.9177 -1.17121 0
M  V30 8462 N 807.043 -1.17915 -1.04565 0
M  V30 8463 C 807.993 -0.869634 -2.10764 0
M  V30 8464 C 808.977 0.158502 -1.60117 0
M  V30 8465 O 810.169 -0.04483 -1.76943 0
M  V30 8466 C 807.298 -0.391642 -3.41059 0
M  V30 8467 C 806.384 -1.45156 -3.98485 0
M  V30 8468 N 806.775 -2.6667 -4.29792 0
M  V30 8469 C 805.073 -1.3109 -4.263 0
M  V30 8470 C 805.774 -3.34823 -4.75677 0
M  V30 8471 N 804.75 -2.62203 -4.76183 0
M  V30 8472 H 808.552 -1.79342 -2.32838 0
M  V30 8473 H 806.066 -1.0688 -1.22272 0
M  V30 8474 H 808.063 -0.151428 -4.16625 0
M  V30 8475 H 806.723 0.525862 -3.20413 0
M  V30 8476 H 807.734 -3.0358 -4.19594 0
M  V30 8477 H 804.411 -0.455545 -4.15007 0
M  V30 8478 H 805.801 -4.38645 -5.0896 0
M  V30 8479 N 808.521 1.23394 -0.980386 0
M  V30 8480 C 809.431 2.28561 -0.528864 0
M  V30 8481 C 810.447 1.68946 0.416329 0
M  V30 8482 O 811.623 1.99355 0.286251 0
M  V30 8483 C 808.688 3.46323 0.16155 0
M  V30 8484 C 807.749 4.21297 -0.825044 0
M  V30 8485 C 806.982 5.33437 -0.167483 0
M  V30 8486 O 807.205 5.60812 1.04146 0
M  V30 8487 O 806.139 5.95637 -0.866047 0
M  V30 8488 H 809.965 2.69326 -1.40346 0
M  V30 8489 H 807.55 1.29325 -0.748019 0
M  V30 8490 H 809.432 4.17811 0.548841 0
M  V30 8491 H 808.107 3.0751 1.01092 0
M  V30 8492 H 807.014 3.52134 -1.26303 0
M  V30 8493 H 808.347 4.6396 -1.64322 0
M  V30 8494 N 809.999 0.752036 1.385 0
M  V30 8495 C 810.962 0.131587 2.28822 0
M  V30 8496 C 811.962 -0.649149 1.47115 0
M  V30 8497 O 813.152 -0.475645 1.67581 0
M  V30 8498 C 810.284 -0.822101 3.30839 0
M  V30 8499 H 811.477 0.927551 2.85196 0
M  V30 8500 H 809.03 0.518945 1.47434 0
M  V30 8501 H 809.765 -1.6438 2.79553 0
M  V30 8502 H 809.55 -0.264689 3.91206 0
M  V30 8503 H 811.04 -1.25226 3.98382 0
M  V30 8504 N 811.477 -1.49425 0.500989 0
M  V30 8505 C 812.724 -2.02453 -0.0435355 0
M  V30 8506 C 813.052 -1.38067 -1.36995 0
M  V30 8507 O 812.307 -0.505557 -1.89057 0
M  V30 8508 C 812.606 -3.56562 -0.24463 0
M  V30 8509 C 812.272 -4.39585 1.00379 0
M  V30 8510 C 810.934 -4.61992 1.346 0
M  V30 8511 C 813.286 -4.87881 1.83361 0
M  V30 8512 C 810.614 -5.2994 2.51755 0
M  V30 8513 C 812.966 -5.57119 2.99669 0
M  V30 8514 C 811.63 -5.77771 3.3427 0
M  V30 8515 H 810.9 -0.740829 -0.0159308 0
M  V30 8516 H 813.547 -1.79725 0.661143 0
M  V30 8517 H 811.852 -3.77969 -1.03183 0
M  V30 8518 H 813.549 -3.95185 -0.6804 0
M  V30 8519 H 810.139 -4.22385 0.727225 0
M  V30 8520 H 814.323 -4.70398 1.58237 0
M  V30 8521 H 809.579 -5.44133 2.788 0
M  V30 8522 H 813.753 -5.93516 3.64296 0
M  V30 8523 H 811.38 -6.30197 4.25154 0
M  V30 8524 N 812.955 -0.234822 -1.55841 0
M  V30 8525 C 813.902 0.6698 -2.20867 0
M  V30 8526 C 814.872 1.18042 -1.16856 0
M  V30 8527 O 816.057 1.23709 -1.45261 0
M  V30 8528 C 813.197 1.86646 -2.90271 0
M  V30 8529 C 812.31 1.39351 -4.08908 0
M  V30 8530 C 811.445 2.54878 -4.66059 0
M  V30 8531 C 810.484 2.04384 -5.76969 0
M  V30 8532 N 809.621 3.13233 -6.28355 0
M  V30 8533 H 814.461 0.10858 -2.97802 0
M  V30 8534 H 811.998 0.041836 -1.4704 0
M  V30 8535 H 813.956 2.56926 -3.28702 0
M  V30 8536 H 812.586 2.40035 -2.15831 0
M  V30 8537 H 811.638 0.585173 -3.75872 0
M  V30 8538 H 812.95 0.983356 -4.89011 0
M  V30 8539 H 812.104 3.33219 -5.07001 0
M  V30 8540 H 810.843 2.99188 -3.85146 0
M  V30 8541 H 809.848 1.24509 -5.35516 0
M  V30 8542 H 811.073 1.61057 -6.59725 0
M  V30 8543 H 809.019 3.57 -5.50352 0
M  V30 8544 H 808.936 2.76511 -7.03618 0
M  V30 8545 H 810.204 3.91669 -6.73955 0
M  V30 8546 N 814.433 1.57553 0.0384317 0
M  V30 8547 C 815.71 1.79977 0.766002 0
M  V30 8548 C 816.09 0.830625 1.94072 0
M  V30 8549 O 815.438 -0.129243 2.28134 0
M  V30 8550 C 815.648 3.27434 1.20781 0
M  V30 8551 C 816.996 3.92167 1.62758 0
M  V30 8552 O 818.02 3.31527 1.30263 0
M  V30 8553 O 816.879 4.98917 2.23035 0
M  V30 8554 H 813.973 0.739787 0.369654 0
M  V30 8555 H 816.519 1.69693 0.0159312 0
M  V30 8556 H 815.291 3.89558 0.368792 0
M  V30 8557 H 814.914 3.42571 2.01819 0
M  V30 8558 N 815.911 -0.310526 1.54511 0
M  V30 8559 C 816.821 -1.4054 1.87844 0
M  V30 8560 C 817.837 -1.55954 0.771635 0
M  V30 8561 O 819.013 -1.70801 1.06719 0
M  V30 8562 C 816.078 -2.75063 2.11048 0
M  V30 8563 C 815.139 -2.68715 3.348 0
M  V30 8564 C 814.372 -3.96821 3.56887 0
M  V30 8565 O 814.595 -4.95721 2.82165 0
M  V30 8566 O 813.529 -3.99291 4.50389 0
M  V30 8567 H 817.355 -1.15275 2.80972 0
M  V30 8568 H 814.94 -0.505732 1.4058 0
M  V30 8569 H 816.822 -3.54671 2.27566 0
M  V30 8570 H 815.497 -3.00191 1.21108 0
M  V30 8571 H 814.404 -1.87611 3.23655 0
M  V30 8572 H 815.737 -2.4854 4.2484 0
M  V30 8573 N 817.389 -1.46805 -0.573248 0
M  V30 8574 C 818.319 -1.60951 -1.69165 0
M  V30 8575 C 819.3 -0.45948 -1.63777 0
M  V30 8576 O 820.485 -0.68688 -1.81647 0
M  V30 8577 C 817.615 -1.60844 -3.07809 0
M  V30 8578 C 816.569 -2.74913 -3.28035 0
M  V30 8579 C 815.895 -2.59871 -4.67302 0
M  V30 8580 C 817.195 -4.16654 -3.14955 0
M  V30 8581 H 818.889 -2.54574 -1.57582 0
M  V30 8582 H 816.435 -1.22516 -0.756686 0
M  V30 8583 H 818.388 -1.69334 -3.85881 0
M  V30 8584 H 817.112 -0.637714 -3.20314 0
M  V30 8585 H 815.771 -2.65908 -2.52366 0
M  V30 8586 H 815.419 -1.60861 -4.76585 0
M  V30 8587 H 815.119 -3.36386 -4.81786 0
M  V30 8588 H 816.643 -2.70265 -5.4753 0
M  V30 8589 H 818.057 -4.26721 -3.82861 0
M  V30 8590 H 816.454 -4.93831 -3.40956 0
M  V30 8591 H 817.524 -4.36146 -2.11908 0
M  V30 8592 N 818.867 0.818669 -1.34668 0
M  V30 8593 C 819.814 1.92983 -1.26595 0
M  V30 8594 C 820.784 1.65506 -0.140315 0
M  V30 8595 O 821.969 1.88063 -0.322005 0
M  V30 8596 C 819.109 3.2932 -1.03163 0
M  V30 8597 C 818.222 3.69061 -2.24539 0
M  V30 8598 C 817.357 4.94368 -1.94355 0
M  V30 8599 C 816.396 5.26702 -3.11851 0
M  V30 8600 N 815.533 6.43187 -2.81522 0
M  V30 8601 H 820.373 1.99219 -2.2162 0
M  V30 8602 H 817.91 0.974612 -1.1018 0
M  V30 8603 H 819.868 4.07897 -0.87613 0
M  V30 8604 H 818.498 3.22584 -0.118045 0
M  V30 8605 H 817.55 2.85842 -2.50995 0
M  V30 8606 H 818.862 3.88924 -3.12313 0
M  V30 8607 H 818.016 5.80742 -1.75566 0
M  V30 8608 H 816.755 4.76515 -1.03848 0
M  V30 8609 H 815.76 4.38823 -3.31231 0
M  V30 8610 H 816.985 5.46492 -4.03142 0
M  V30 8611 H 814.931 6.26783 -1.93596 0
M  V30 8612 H 814.848 6.63243 -3.62829 0
M  V30 8613 H 816.116 7.32621 -2.66247 0
M  V30 8614 N 820.346 1.18468 1.03938 0
M  V30 8615 C 821.574 1.00576 1.80809 0
M  V30 8616 C 821.989 -0.445786 1.83462 0
M  V30 8617 O 821.346 -1.30964 1.27101 0
M  V30 8618 C 821.397 1.55491 3.26351 0
M  V30 8619 O 821.118 2.94963 3.23926 0
M  V30 8620 C 822.619 1.42236 4.19862 0
M  V30 8621 H 819.839 0.35508 0.56935 0
M  V30 8622 H 822.383 1.57046 1.30984 0
M  V30 8623 H 820.538 1.03195 3.73403 0
M  V30 8624 H 820.952 3.20598 4.15111 0
M  V30 8625 H 822.426 1.85455 5.19914 0
M  V30 8626 H 822.903 0.371267 4.37628 0
M  V30 8627 H 823.509 1.9361 3.78675 0
M  V30 8628 N 821.824 -1.22873 0.986916 0
M  V30 8629 C 823.071 -1.91462 0.659424 0
M  V30 8630 C 823.399 -1.76931 -0.807825 0
M  V30 8631 O 822.654 -1.12829 -1.59901 0
M  V30 8632 C 822.953 -3.43014 1.00379 0
M  V30 8633 C 822.619 -3.77731 2.46232 0
M  V30 8634 C 821.281 -3.86918 2.86091 0
M  V30 8635 C 823.633 -3.94343 3.40798 0
M  V30 8636 C 820.961 -4.10149 4.19518 0
M  V30 8637 C 823.313 -4.19076 4.73875 0
M  V30 8638 C 821.977 -4.26486 5.13484 0
M  V30 8639 H 821.247 -0.700611 0.2413 0
M  V30 8640 H 823.894 -1.45763 1.24199 0
M  V30 8641 H 822.199 -3.90329 0.339226 0
M  V30 8642 H 823.896 -3.94327 0.728518 0
M  V30 8643 H 820.486 -3.71159 2.14334 0
M  V30 8644 H 824.67 -3.86629 3.11178 0
M  V30 8645 H 819.926 -4.1411 4.49803 0
M  V30 8646 H 824.1 -4.30873 5.47102 0
M  V30 8647 H 821.727 -4.4424 6.16891 0
M  V30 8648 N 823.302 -0.75937 -1.38099 0
M  V30 8649 C 824.718 -0.437606 -1.53483 0
M  V30 8650 C 824.918 1.04849 -1.72072 0
M  V30 8651 O 823.974 1.83448 -1.73502 0
M  V30 8652 C 825.287 -1.24189 -2.73857 0
M  V30 8653 C 826.835 -1.23255 -2.8771 0
M  V30 8654 C 827.31 -2.01992 -4.11051 0
M  V30 8655 N 828.801 -1.99282 -4.1814 0
M  V30 8656 C 829.536 -2.56996 -5.12583 0
M  V30 8657 N 829.032 -3.23446 -6.12662 0
M  V30 8658 N 830.825 -2.46894 -5.04975 0
M  V30 8659 H 822.976 -1.72242 -1.24283 0
M  V30 8660 H 825.239 -0.730507 -0.604205 0
M  V30 8661 H 824.945 -2.29449 -2.66545 0
M  V30 8662 H 824.819 -0.862672 -3.67203 0
M  V30 8663 H 827.206 -0.187988 -2.94501 0
M  V30 8664 H 827.287 -1.65132 -1.95359 0
M  V30 8665 H 826.931 -3.06462 -4.05023 0
M  V30 8666 H 826.861 -1.57505 -5.02494 0
M  V30 8667 H 829.352 -1.50893 -3.46467 0
M  V30 8668 H 829.665 -3.6489 -6.81231 0
M  V30 8669 H 828.01 -3.27543 -6.12977 0
M  V30 8670 H 831.201 -1.94604 -4.25731 0
M  V30 8671 H 831.374 -2.92168 -5.78396 0
M  V30 8672 N 824.78 1.49157 -0.508906 0
M  V30 8673 C 825.71 2.32109 0.254469 0
M  V30 8674 C 826.691 1.40754 0.955111 0
M  V30 8675 O 827.876 1.69658 0.944983 0
M  V30 8676 C 825.006 3.21458 1.3146 0
M  V30 8677 C 823.96 4.2167 0.733368 0
M  V30 8678 C 823.286 5.00009 1.8946 0
M  V30 8679 C 824.586 5.21544 -0.280875 0
M  V30 8680 H 826.28 2.9618 -0.43795 0
M  V30 8681 H 823.826 1.4243 -0.212062 0
M  V30 8682 H 825.779 3.78305 1.85643 0
M  V30 8683 H 824.503 2.55346 2.03632 0
M  V30 8684 H 823.162 3.65979 0.213231 0
M  V30 8685 H 822.81 4.30338 2.60419 0
M  V30 8686 H 822.51 5.67821 1.51173 0
M  V30 8687 H 824.034 5.59702 2.44061 0
M  V30 8688 H 825.448 5.73039 0.173095 0
M  V30 8689 H 823.845 5.97291 -0.580006 0
M  V30 8690 H 824.915 4.69969 -1.19404 0
M  V30 8691 N 826.258 0.243083 1.55714 0
M  V30 8692 C 827.205 -0.658078 2.21219 0
M  V30 8693 C 828.175 -1.1742 1.17481 0
M  V30 8694 O 829.36 -1.22937 1.45915 0
M  V30 8695 C 826.5 -1.85104 2.91257 0
M  V30 8696 C 825.613 -1.3718 4.09641 0
M  V30 8697 C 824.748 -2.52403 4.67404 0
M  V30 8698 C 823.787 -2.01321 5.78045 0
M  V30 8699 N 822.924 -3.09896 6.30007 0
M  V30 8700 H 827.764 -0.0927854 2.97856 0
M  V30 8701 H 825.301 -0.0340375 1.47061 0
M  V30 8702 H 827.259 -2.55179 3.3006 0
M  V30 8703 H 825.889 -2.38887 2.17101 0
M  V30 8704 H 824.941 -0.565232 3.76177 0
M  V30 8705 H 826.253 -0.957409 4.89525 0
M  V30 8706 H 825.407 -3.30525 5.08761 0
M  V30 8707 H 824.146 -2.97142 3.86728 0
M  V30 8708 H 823.151 -1.21667 5.36169 0
M  V30 8709 H 824.376 -1.57556 6.6057 0
M  V30 8710 H 822.322 -3.54077 5.52237 0
M  V30 8711 H 822.239 -2.72776 7.05074 0
M  V30 8712 H 823.507 -3.8809 6.76023 0
M  V30 8713 N 827.736 -1.57571 -0.0300757 0
M  V30 8714 C 828.964 -1.93485 -0.732891 0
M  V30 8715 C 829.379 -0.842758 -1.68947 0
M  V30 8716 O 828.736 0.180904 -1.81601 0
M  V30 8717 C 828.787 -3.29328 -1.49082 0
M  V30 8718 O 828.508 -4.34341 -0.572639 0
M  V30 8719 C 830.009 -3.79517 -2.29088 0
M  V30 8720 H 827.229 -0.638588 -0.206026 0
M  V30 8721 H 829.773 -2.04496 0.0120966 0
M  V30 8722 H 827.928 -3.19716 -2.1877 0
M  V30 8723 H 828.342 -5.12748 -1.10406 0
M  V30 8724 H 829.816 -4.77081 -2.77665 0
M  V30 8725 H 830.293 -3.10659 -3.10464 0
M  V30 8726 H 830.899 -3.92208 -1.64477 0
M  V30 8727 N 829.214 0.302327 -1.54673 0
M  V30 8728 C 830.63 0.647911 -1.45857 0
M  V30 8729 C 830.83 1.90773 -0.64869 0
M  V30 8730 O 829.886 2.52018 -0.155865 0
M  V30 8731 C 831.199 0.802144 -2.89804 0
M  V30 8732 C 832.747 0.898114 -2.99838 0
M  V30 8733 C 833.222 1.08436 -4.44978 0
M  V30 8734 N 834.713 1.15059 -4.48682 0
M  V30 8735 C 835.448 1.31296 -5.58166 0
M  V30 8736 N 834.944 1.4444 -6.77576 0
M  V30 8737 N 836.737 1.34174 -5.45851 0
M  V30 8738 H 828.888 -0.525428 -2.05798 0
M  V30 8739 H 831.151 -0.173423 -0.932002 0
M  V30 8740 H 830.857 -0.0526531 -3.51661 0
M  V30 8741 H 830.731 1.69155 -3.37145 0
M  V30 8742 H 833.118 1.7434 -2.38096 0
M  V30 8743 H 833.199 -0.0152752 -2.55795 0
M  V30 8744 H 832.843 0.243843 -5.07314 0
M  V30 8745 H 832.773 2.01195 -4.8665 0
M  V30 8746 H 835.264 1.0626 -3.62653 0
M  V30 8747 H 835.577 1.56582 -7.56771 0
M  V30 8748 H 833.922 1.41499 -6.80443 0
M  V30 8749 H 837.113 1.23516 -4.5151 0
M  V30 8750 H 837.286 1.46485 -6.31226 0
M  V30 8751 N 830.692 1.47107 0.565454 0
M  V30 8752 C 831.917 1.57153 1.35343 0
M  V30 8753 C 832.342 0.219247 1.86818 0
M  V30 8754 O 831.7 -0.803539 1.62521 0
M  V30 8755 C 831.748 2.59387 2.50501 0
M  V30 8756 O 830.852 2.14086 3.52478 0
M  V30 8757 H 830.193 0.528209 0.402357 0
M  V30 8758 H 832.723 1.92821 0.684189 0
M  V30 8759 H 832.733 2.79546 2.97184 0
M  V30 8760 H 831.408 3.57579 2.12391 0
M  V30 8761 H 829.985 2.03991 3.12157 0
M  V30 8762 N 832.17 -0.811516 1.35101 0
M  V30 8763 C 833.416 -1.57016 1.29296 0
M  V30 8764 C 833.771 -1.91941 -0.13288 0
M  V30 8765 O 833.064 -1.58121 -1.08204 0
M  V30 8766 C 833.258 -2.87121 2.1283 0
M  V30 8767 C 833.087 -2.64908 3.63392 0
M  V30 8768 C 831.857 -2.61055 4.32641 0
M  V30 8769 C 834.055 -2.35628 4.57148 0
M  V30 8770 N 832.037 -2.30508 5.68981 0
M  V30 8771 C 833.408 -2.14876 5.81574 0
M  V30 8772 C 835.463 -2.2145 4.45942 0
M  V30 8773 C 834.166 -1.81381 6.96055 0
M  V30 8774 C 836.192 -1.89352 5.60267 0
M  V30 8775 C 835.554 -1.69432 6.83719 0
M  V30 8776 H 831.653 -0.57649 0.528378 0
M  V30 8777 H 834.237 -0.950338 1.69931 0
M  V30 8778 H 832.408 -3.47007 1.74473 0
M  V30 8779 H 834.14 -3.52629 1.98582 0
M  V30 8780 H 830.895 -2.75531 3.85201 0
M  V30 8781 H 831.319 -2.18042 6.40927 0
M  V30 8782 H 835.961 -2.35551 3.51106 0
M  V30 8783 H 833.679 -1.66018 7.90863 0
M  V30 8784 H 837.265 -1.79098 5.53548 0
M  V30 8785 H 836.145 -1.44957 7.70686 0
M  V30 8786 N 833.648 -1.19017 -1.03309 0
M  V30 8787 C 834.611 -0.926076 -2.09658 0
M  V30 8788 C 835.611 0.0917077 -1.60538 0
M  V30 8789 O 836.801 -0.142574 -1.73616 0
M  V30 8790 C 833.933 -0.390958 -3.38651 0
M  V30 8791 H 835.126 -1.86923 -2.3452 0
M  V30 8792 H 832.679 -1.00325 -1.19853 0
M  V30 8793 H 833.414 0.558446 -3.19456 0
M  V30 8794 H 833.199 -1.12474 -3.75622 0
M  V30 8795 H 834.689 -0.225131 -4.16993 0
M  V30 8796 N 835.127 1.22348 -0.993418 0
M  V30 8797 C 836.375 1.90733 -0.668246 0
M  V30 8798 C 836.696 1.77732 0.802261 0
M  V30 8799 O 835.966 1.16486 1.57505 0
M  V30 8800 H 834.546 0.705966 -0.244174 0
M  V30 8801 H 837.208 1.48691 -1.26004 0
M  V30 8802 H 836.304 2.97883 -0.931239 0
M  V30 8803 N 836.605 0.766683 1.37694 0
M  V30 8804 C 837.515 0.150158 2.34119 0
M  V30 8805 C 838.531 -0.685513 1.59927 0
M  V30 8806 O 839.707 -0.606616 1.92047 0
M  V30 8807 C 836.772 -0.722562 3.39087 0
M  V30 8808 C 835.833 0.128983 4.29106 0
M  V30 8809 C 835.066 -0.702178 5.29061 0
M  V30 8810 O 835.289 -1.93954 5.36412 0
M  V30 8811 O 834.223 -0.114056 6.01792 0
M  V30 8812 H 838.049 0.946829 2.88563 0
M  V30 8813 H 835.634 0.527765 1.39768 0
M  V30 8814 H 837.516 -1.22095 4.03325 0
M  V30 8815 H 836.191 -1.49751 2.86978 0
M  V30 8816 H 835.098 0.673612 3.67985 0
M  V30 8817 H 836.431 0.866892 4.84506 0
M  V30 8818 N 838.083 -1.48885 0.516809 0
M  V30 8819 C 839.499 -1.58651 0.173788 0
M  V30 8820 C 839.699 -1.52033 -1.32243 0
M  V30 8821 O 838.755 -1.40251 -2.09967 0
M  V30 8822 C 840.068 -2.90816 0.764628 0
M  V30 8823 C 841.616 -3.04316 0.732164 0
M  V30 8824 C 842.091 -4.39123 1.30135 0
M  V30 8825 N 843.582 -4.45656 1.26273 0
M  V30 8826 C 844.317 -5.48446 1.67317 0
M  V30 8827 N 843.813 -6.58258 2.16028 0
M  V30 8828 N 845.606 -5.39251 1.58635 0
M  V30 8829 H 837.757 -1.5143 1.48939 0
M  V30 8830 H 840.02 -0.718243 0.618733 0
M  V30 8831 H 839.726 -3.01275 1.81456 0
M  V30 8832 H 839.6 -3.76473 0.234113 0
M  V30 8833 H 841.987 -2.93478 -0.308975 0
M  V30 8834 H 842.068 -2.20303 1.3 0
M  V30 8835 H 841.712 -4.50714 2.34135 0
M  V30 8836 H 841.642 -5.21801 0.709305 0
M  V30 8837 H 844.133 -3.66879 0.906006 0
M  V30 8838 H 844.446 -7.32811 2.45374 0
M  V30 8839 H 842.791 -6.59257 2.20013 0
M  V30 8840 H 845.982 -4.52354 1.20387 0
M  V30 8841 H 846.155 -6.19229 1.90944 0
M  V30 8842 N 839.561 -0.251338 -1.55583 0
M  V30 8843 C 840.786 0.379136 -2.03905 0
M  V30 8844 C 841.211 1.50428 -1.12929 0
M  V30 8845 O 840.569 1.80882 -0.123114 0
M  V30 8846 C 840.617 0.86009 -3.50193 0
M  V30 8847 O 839.721 1.96932 -3.62342 0
M  V30 8848 H 839.062 0.0820183 -0.658915 0
M  V30 8849 H 841.592 -0.378692 -2.01065 0
M  V30 8850 H 841.602 1.16214 -3.91099 0
M  V30 8851 H 840.277 0.0367559 -4.15884 0
M  V30 8852 H 838.854 1.67163 -3.33333 0
M  V30 8853 N 841.039 1.57585 0.0217189 0
M  V30 8854 C 842.455 1.55072 0.377484 0
M  V30 8855 C 842.655 0.978423 1.76151 0
M  V30 8856 O 841.711 0.602688 2.45202 0
M  V30 8857 C 843.024 2.99462 0.272605 0
M  V30 8858 C 844.572 3.11047 0.349148 0
M  V30 8859 C 845.047 4.57182 0.273636 0
M  V30 8860 N 846.538 4.62007 0.332206 0
M  V30 8861 C 847.273 5.72631 0.296782 0
M  V30 8862 N 846.769 6.92472 0.21322 0
M  V30 8863 N 848.562 5.61028 0.347053 0
M  V30 8864 H 840.713 1.93133 -0.883925 0
M  V30 8865 H 842.976 0.886151 -0.33681 0
M  V30 8866 H 842.682 3.45088 -0.67878 0
M  V30 8867 H 842.556 3.61901 1.06335 0
M  V30 8868 H 844.943 2.65364 1.29097 0
M  V30 8869 H 845.024 2.51425 -0.471085 0
M  V30 8870 H 844.668 5.03534 -0.664548 0
M  V30 8871 H 844.598 5.14724 1.11207 0
M  V30 8872 H 847.089 3.75788 0.399003 0
M  V30 8873 H 847.402 7.72563 0.191492 0
M  V30 8874 H 845.747 6.94769 0.179161 0
M  V30 8875 H 848.938 4.66298 0.410378 0
M  V30 8876 H 849.111 6.47229 0.315979 0
M  V30 8877 N 842.517 -0.29412 1.54831 0
M  V30 8878 C 843.933 -0.640167 1.46199 0
M  V30 8879 C 844.133 -1.90426 0.658798 0
M  V30 8880 O 843.189 -2.51932 0.169228 0
M  V30 8881 C 844.502 -0.786763 2.90225 0
M  V30 8882 C 846.05 -0.882201 3.0031 0
M  V30 8883 C 846.525 -1.06074 4.45547 0
M  V30 8884 N 848.016 -1.12678 4.49286 0
M  V30 8885 C 848.751 -1.28334 5.58854 0
M  V30 8886 N 848.247 -1.40845 6.78332 0
M  V30 8887 N 850.04 -1.31277 5.46555 0
M  V30 8888 H 842.191 0.536334 2.05517 0
M  V30 8889 H 844.454 0.178363 0.93107 0
M  V30 8890 H 844.16 0.0713018 3.51628 0
M  V30 8891 H 844.034 -1.67364 3.38037 0
M  V30 8892 H 846.421 -1.73075 2.39017 0
M  V30 8893 H 846.502 0.0288405 2.55784 0
M  V30 8894 H 846.146 -0.216935 5.07437 0
M  V30 8895 H 846.076 -1.98611 4.8771 0
M  V30 8896 H 848.567 -1.04335 3.63212 0
M  V30 8897 H 848.88 -1.52566 7.57591 0
M  V30 8898 H 847.225 -1.37888 6.81184 0
M  V30 8899 H 850.416 -1.2112 4.52159 0
M  V30 8900 H 850.589 -1.43136 6.31994 0
M  V30 8901 N 843.995 -1.47404 -0.557645 0
M  V30 8902 C 844.905 -1.62491 -1.69216 0
M  V30 8903 C 845.921 -0.507764 -1.66426 0
M  V30 8904 O 847.097 -0.775241 -1.85882 0
M  V30 8905 C 844.162 -1.63511 -3.05721 0
M  V30 8906 C 843.223 -2.86648 -3.1958 0
M  V30 8907 C 842.456 -2.87609 -4.49574 0
M  V30 8908 O 842.679 -1.97799 -5.35006 0
M  V30 8909 O 841.613 -3.79465 -4.67215 0
M  V30 8910 H 845.439 -2.58487 -1.59431 0
M  V30 8911 H 843.024 -1.30485 -0.7276 0
M  V30 8912 H 844.906 -1.66863 -3.86956 0
M  V30 8913 H 843.581 -0.706812 -3.15889 0
M  V30 8914 H 842.488 -2.8884 -2.37744 0
M  V30 8915 H 843.821 -3.7877 -3.14316 0
M  V30 8916 N 845.473 0.80434 -1.35529 0
M  V30 8917 C 846.403 1.93086 -1.31301 0
M  V30 8918 C 847.384 1.69068 -0.187044 0
M  V30 8919 O 848.569 1.90399 -0.382359 0
M  V30 8920 C 845.699 3.29867 -1.0865 0
M  V30 8921 C 844.653 3.68373 -2.17911 0
M  V30 8922 C 843.979 5.0334 -1.80423 0
M  V30 8923 C 845.279 3.78516 -3.59893 0
M  V30 8924 H 846.973 1.96882 -2.25561 0
M  V30 8925 H 844.519 0.945841 -1.08581 0
M  V30 8926 H 846.472 4.08281 -1.04331 0
M  V30 8927 H 845.196 3.2642 -0.108359 0
M  V30 8928 H 843.855 2.92247 -2.21331 0
M  V30 8929 H 843.503 4.96399 -0.812213 0
M  V30 8930 H 843.203 5.30074 -2.53565 0
M  V30 8931 H 844.727 5.84191 -1.77633 0
M  V30 8932 H 846.141 4.47155 -3.58783 0
M  V30 8933 H 844.538 4.16721 -4.31814 0
M  V30 8934 H 845.608 2.8001 -3.95882 0
M  V30 8935 N 846.951 1.19563 1.02676 0
M  V30 8936 C 848.191 1.01072 1.77662 0
M  V30 8937 C 848.555 -0.450344 1.86644 0
M  V30 8938 O 849.756 -0.755132 2.57975 0
M  V30 8939 C 848.027 1.66383 3.16309 0
M  V30 8940 S 849.586 1.62858 4.07459 0
M  V30 8941 H 846.404 0.362644 0.611564 0
M  V30 8942 H 849.006 1.51947 1.23014 0
M  V30 8943 H 847.71 2.71917 3.07391 0
M  V30 8944 H 847.241 1.15596 3.76033 0
M  V30 8945 H 849.256 0.654265 4.91868 0
M  V30 8946 N 848.429 -1.21819 0.999893 0
M  V30 8947 C 849.654 -1.95298 0.698094 0
M  V30 8948 C 850.079 -1.73273 -0.731982 0
M  V30 8949 O 849.437 -1.01634 -1.50134 0
M  V30 8950 C 849.485 -3.45922 1.01834 0
M  V30 8951 O 848.589 -4.12223 0.120801 0
M  V30 8952 H 847.93 -0.610729 0.260588 0
M  V30 8953 H 850.46 -1.5472 1.33876 0
M  V30 8954 H 850.47 -3.96471 0.963074 0
M  V30 8955 H 849.145 -3.61278 2.06037 0
M  V30 8956 H 847.722 -3.72177 0.232153 0
M  V30 8957 N 849.908 -0.773975 -1.37286 0
M  V30 8958 C 851.324 -0.45386 -1.53011 0
M  V30 8959 C 851.524 1.03018 -1.73175 0
M  V30 8960 O 850.58 1.81597 -1.75438 0
M  V30 8961 C 851.893 -1.27087 -2.72524 0
M  V30 8962 C 853.441 -1.26299 -2.86387 0
M  V30 8963 C 853.916 -2.0634 -4.08886 0
M  V30 8964 N 855.407 -2.03706 -4.16003 0
M  V30 8965 C 856.142 -2.62418 -5.09828 0
M  V30 8966 N 855.638 -3.29926 -6.09197 0
M  V30 8967 N 857.431 -2.52236 -5.02328 0
M  V30 8968 H 849.582 -1.73551 -1.22449 0
M  V30 8969 H 851.845 -0.736874 -0.596423 0
M  V30 8970 H 851.551 -2.32263 -2.64096 0
M  V30 8971 H 851.425 -0.90157 -3.66267 0
M  V30 8972 H 853.812 -0.219213 -2.94285 0
M  V30 8973 H 853.893 -1.67195 -1.93596 0
M  V30 8974 H 853.537 -3.10741 -4.01749 0
M  V30 8975 H 853.467 -1.62825 -5.00795 0
M  V30 8976 H 855.958 -1.54559 -3.44848 0
M  V30 8977 H 856.271 -3.72095 -6.77322 0
M  V30 8978 H 854.616 -3.34026 -6.09469 0
M  V30 8979 H 857.807 -1.99108 -4.23643 0
M  V30 8980 H 857.98 -2.98286 -5.75265 0
M  V30 8981 N 851.386 1.48609 -0.524698 0
M  V30 8982 C 852.316 2.32366 0.229837 0
M  V30 8983 C 853.297 1.41759 0.940129 0
M  V30 8984 O 854.482 1.7065 0.926936 0
M  V30 8985 C 851.612 3.22835 1.28043 0
M  V30 8986 C 850.566 4.22424 0.688603 0
M  V30 8987 C 849.892 5.0199 1.84146 0
M  V30 8988 C 851.192 5.21217 -0.336176 0
M  V30 8989 H 852.886 2.95698 -0.469339 0
M  V30 8990 H 850.432 1.42197 -0.227156 0
M  V30 8991 H 852.385 3.80253 1.8162 0
M  V30 8992 H 851.109 2.57492 2.00912 0
M  V30 8993 H 849.768 3.66185 0.174402 0
M  V30 8994 H 849.416 4.33076 2.5584 0
M  V30 8995 H 849.116 5.69392 1.45142 0
M  V30 8996 H 850.64 5.62259 2.38111 0
M  V30 8997 H 852.054 5.7319 0.112307 0
M  V30 8998 H 850.451 5.96642 -0.643324 0
M  V30 8999 H 851.521 4.68676 -1.24381 0
M  V30 9000 N 852.864 0.259585 1.55447 0
M  V30 9001 C 853.796 -0.667548 2.19263 0
M  V30 9002 C 854.809 -1.12925 1.17268 0
M  V30 9003 O 855.998 -1.05384 1.44071 0
M  V30 9004 C 853.098 -1.92066 2.7922 0
M  V30 9005 C 852.271 -1.60832 4.06758 0
M  V30 9006 C 851.33 -2.71231 4.50911 0
M  V30 9007 O 850.356 -2.38077 5.17019 0
M  V30 9008 N 851.558 -4.00984 4.19752 0
M  V30 9009 H 854.323 -0.121449 2.99454 0
M  V30 9010 H 851.884 0.0800519 1.61702 0
M  V30 9011 H 853.876 -2.65186 3.0571 0
M  V30 9012 H 852.446 -2.37621 2.03113 0
M  V30 9013 H 851.666 -0.711685 3.87722 0
M  V30 9014 H 852.954 -1.37445 4.89884 0
M  V30 9015 H 852.352 -4.30748 3.66706 0
M  V30 9016 H 850.909 -4.7053 4.51048 0
M  V30 9017 N 854.342 -1.57594 -0.0133615 0
M  V30 9018 C 855.619 -1.81173 -0.737273 0
M  V30 9019 C 855.999 -0.861395 -1.92726 0
M  V30 9020 O 855.347 0.0929324 -2.28311 0
M  V30 9021 C 855.557 -3.29314 -1.15557 0
M  V30 9022 C 856.905 -3.94707 -1.56498 0
M  V30 9023 O 857.929 -3.33557 -1.24973 0
M  V30 9024 O 856.788 -5.02402 -2.15069 0
M  V30 9025 H 853.882 -0.745575 -0.357837 0
M  V30 9026 H 856.428 -1.69696 0.0110674 0
M  V30 9027 H 855.2 -3.90096 -0.30677 0
M  V30 9028 H 854.823 -3.45739 -1.96343 0
M  V30 9029 N 855.82 0.285905 -1.54985 0
M  V30 9030 C 856.752 1.37505 -1.83371 0
M  V30 9031 C 857.765 1.46138 -0.717454 0
M  V30 9032 O 858.954 1.48186 -0.995142 0
M  V30 9033 C 856.054 2.7575 -1.97016 0
M  V30 9034 C 855.227 2.89866 -3.27561 0
M  V30 9035 C 854.286 4.08704 -3.31433 0
M  V30 9036 O 853.312 4.00073 -4.04883 0
M  V30 9037 N 854.514 5.20062 -2.57907 0
M  V30 9038 H 857.279 1.13505 -2.77375 0
M  V30 9039 H 854.84 0.476006 -1.54744 0
M  V30 9040 H 856.832 3.5352 -1.96991 0
M  V30 9041 H 855.402 2.9263 -1.09938 0
M  V30 9042 H 854.622 1.99085 -3.40234 0
M  V30 9043 H 855.91 2.96219 -4.13681 0
M  V30 9044 H 855.308 5.29958 -1.97891 0
M  V30 9045 H 853.865 5.96111 -2.63619 0
M  V30 9046 O 857.337 1.55622 0.431745 0
M  V30 9047 H 858.028 1.60453 1.0851 0
M  V30 END ATOM
M  V30 BEGIN BOND
M  V30 END BOND
M  V30 END CTAB
M  END
$$$$
