drugbank_target|P51582 P2Y purinoceptor 4 (DB01069)
 OpenBabel12092121213D

  0  0  0     0  0            999 V3000
M  V30 BEGIN CTAB
M  V30 COUNTS 5810 5893 0 0 0
M  V30 BEGIN ATOM
M  V30 1 H -0.908 1.98254 -0.117106 0
M  V30 2 N 0 1.576 0 0
M  V30 3 C 0.933 2.03868 1.02534 0
M  V30 4 C 1.911 0.928543 1.3348 0
M  V30 5 O 3.095 1.19667 1.45644 0
M  V30 6 C 0.222 2.43627 2.35294 0
M  V30 7 C -0.732 3.65373 2.2001 0
M  V30 8 S 0.101 5.13292 1.52614 0
M  V30 9 C 1.257 5.56322 2.86805 0
M  V30 10 H 1.49 2.90518 0.631377 0
M  V30 11 H -0.977 1.52953 0.210867 0
M  V30 12 H 0.981 2.67203 3.11629 0
M  V30 13 H -0.358 1.57376 2.7183 0
M  V30 14 H -1.165 3.90944 3.18086 0
M  V30 15 H -1.563 3.418 1.51819 0
M  V30 16 H 0.729 5.58782 3.83104 0
M  V30 17 H 1.672 6.56266 2.65933 0
M  V30 18 H 2.08 4.83886 2.90714 0
M  V30 19 N 1.4781 -0.272755 1.55222 0
M  V30 20 C 2.4411 -1.32041 1.87344 0
M  V30 21 C 3.4411 -1.42342 0.74803 0
M  V30 22 O 4.6311 -1.41488 1.0162 0
M  V30 23 C 1.7631 -2.70173 2.07893 0
M  V30 24 H 2.9561 -1.04789 2.80997 0
M  V30 25 H 0.5091 -0.51083 1.47717 0
M  V30 26 H 1.2441 -3.02605 1.16622 0
M  V30 27 H 1.0291 -2.64082 2.89833 0
M  V30 28 H 2.5191 -3.45869 2.34017 0
M  V30 29 N 2.9562 -1.48159 -0.537278 0
M  V30 30 C 4.1812 -1.59707 -1.32319 0
M  V30 31 C 4.6062 -0.254859 -1.86365 0
M  V30 32 O 3.9642 0.772378 -1.64024 0
M  V30 33 C 4.0122 -2.6412 -2.45505 0
M  V30 34 O 3.1162 -2.20774 -3.48328 0
M  V30 35 H 2.4572 -0.535791 -0.392204 0
M  V30 36 H 4.9872 -1.94092 -0.647268 0
M  V30 37 H 4.9972 -2.85166 -2.91795 0
M  V30 38 H 3.6722 -3.61567 -2.05528 0
M  V30 39 H 2.2492 -2.09911 -3.08207 0
M  V30 40 N 4.4343 0.785586 -1.36625 0
M  V30 41 C 5.6623 1.57448 -1.3423 0
M  V30 42 C 6.0773 1.88649 0.0755653 0
M  V30 43 O 5.4343 1.50414 1.03354 0
M  V30 44 C 5.4853 2.89316 -2.16745 0
M  V30 45 O 5.2063 2.59459 -3.53005 0
M  V30 46 C 6.7073 3.83606 -2.22174 0
M  V30 47 H 3.9273 0.488226 -0.4603 0
M  V30 48 H 6.4713 0.974733 -1.79775 0
M  V30 49 H 4.6263 3.4575 -1.74745 0
M  V30 50 H 5.0403 3.43804 -3.96105 0
M  V30 51 H 6.5143 4.73181 -2.8426 0
M  V30 52 H 6.9913 4.21734 -1.22627 0
M  V30 53 H 7.5973 3.33104 -2.64427 0
M  V30 54 N 5.9124 1.20967 1.01018 0
M  V30 55 C 6.8224 0.980157 2.13143 0
M  V30 56 C 7.8384 -0.0660665 1.73875 0
M  V30 57 O 9.0144 0.122821 2.01025 0
M  V30 58 C 6.0794 0.54216 3.42435 0
M  V30 59 C 5.1404 1.65999 3.95908 0
M  V30 60 C 4.3734 1.2428 5.19028 0
M  V30 61 O 4.5964 0.114196 5.70286 0
M  V30 62 O 3.5304 2.05271 5.65816 0
M  V30 63 H 7.3564 1.91913 2.35379 0
M  V30 64 H 4.9414 0.994099 1.11526 0
M  V30 65 H 6.8234 0.30744 4.20277 0
M  V30 66 H 5.4984 -0.36815 3.216 0
M  V30 67 H 4.4054 1.94906 3.19316 0
M  V30 68 H 5.7384 2.54753 4.21143 0
M  V30 69 N 7.3905 -1.2043 1.01659 0
M  V30 70 C 8.6155 -1.94318 0.724942 0
M  V30 71 C 9.0405 -1.74266 -0.708034 0
M  V30 72 O 8.3985 -1.03694 -1.48719 0
M  V30 73 C 8.4465 -3.44486 1.06591 0
M  V30 74 O 7.5505 -4.12017 0.177599 0
M  V30 75 H 6.8915 -0.60708 0.26898 0
M  V30 76 H 9.4215 -1.52861 1.35995 0
M  V30 77 H 9.4315 -3.95106 1.01762 0
M  V30 78 H 8.1065 -3.58404 2.10997 0
M  V30 79 H 6.6835 -3.71821 0.283421 0
M  V30 80 N 8.8686 -0.792821 -1.36206 0
M  V30 81 C 10.0936 -0.377701 -2.03932 0
M  V30 82 C 10.5186 0.998947 -1.59382 0
M  V30 83 O 9.8766 1.64421 -0.763903 0
M  V30 84 C 9.9246 -0.453635 -3.57735 0
M  V30 85 O 9.0286 0.538151 -4.08874 0
M  V30 86 H 8.3696 -0.159855 -0.644471 0
M  V30 87 H 10.8996 -1.07488 -1.7409 0
M  V30 88 H 10.9096 -0.318464 -4.06755 0
M  V30 89 H 9.5846 -1.45784 -3.89512 0
M  V30 90 H 8.1616 0.364359 -3.71116 0
M  V30 91 N 10.3467 1.47872 -0.545128 0
M  V30 92 C 11.2767 2.32661 0.197793 0
M  V30 93 C 12.2577 1.43041 0.920504 0
M  V30 94 O 13.4427 1.71912 0.90333 0
M  V30 95 C 10.5727 3.24569 1.23582 0
M  V30 96 C 9.5267 4.23333 0.630323 0
M  V30 97 C 8.8527 5.0448 1.77211 0
M  V30 98 C 10.1527 5.20704 -0.407974 0
M  V30 99 H 11.8467 2.95024 -0.510045 0
M  V30 100 H 9.3927 1.4187 -0.246731 0
M  V30 101 H 11.3457 3.8272 1.76362 0
M  V30 102 H 10.0697 2.60236 1.97344 0
M  V30 103 H 8.7287 3.6639 0.123922 0
M  V30 104 H 8.3767 4.36561 2.49847 0
M  V30 105 H 8.0767 5.71339 1.37281 0
M  V30 106 H 9.6007 5.65487 2.3034 0
M  V30 107 H 11.0147 5.7329 0.033305 0
M  V30 108 H 9.4117 5.95699 -0.725486 0
M  V30 109 H 10.4817 4.66917 -1.30828 0
M  V30 110 N 11.8248 0.280983 1.55075 0
M  V30 111 C 12.7548 -0.597469 2.25727 0
M  V30 112 C 13.7358 -1.15417 1.24952 0
M  V30 113 O 14.9208 -1.18722 1.53684 0
M  V30 114 C 12.0508 -1.7789 2.98283 0
M  V30 115 C 11.0048 -1.35347 4.06036 0
M  V30 116 C 10.3308 -2.61846 4.66198 0
M  V30 117 C 11.6308 -0.499354 5.19907 0
M  V30 118 H 13.3248 -0.00824265 2.99399 0
M  V30 119 H 10.8708 -0.0025244 1.44 0
M  V30 120 H 12.8238 -2.39937 3.46422 0
M  V30 121 H 11.5478 -2.39405 2.22155 0
M  V30 122 H 10.2068 -0.756156 3.58717 0
M  V30 123 H 9.8548 -3.21632 3.86732 0
M  V30 124 H 9.5548 -2.3409 5.38958 0
M  V30 125 H 11.0788 -3.24732 5.1709 0
M  V30 126 H 12.4928 -1.02498 5.64063 0
M  V30 127 H 10.8898 -0.316424 5.99265 0
M  V30 128 H 11.9598 0.480459 4.82514 0
M  V30 129 N 13.3029 -1.57598 0.00835791 0
M  V30 130 C 14.7189 -1.55764 -0.347822 0
M  V30 131 C 14.9189 -1.01186 -1.74252 0
M  V30 132 O 13.9749 -0.649371 -2.44007 0
M  V30 133 C 15.2879 -2.99927 -0.215407 0
M  V30 134 C 16.8359 -3.11656 -0.289725 0
M  V30 135 C 17.3109 -4.57621 -0.18634 0
M  V30 136 N 18.8019 -4.62557 -0.243978 0
M  V30 137 C 19.5369 -5.73094 -0.18745 0
M  V30 138 N 19.0329 -6.92753 -0.0810331 0
M  V30 139 N 20.8259 -5.61588 -0.239925 0
M  V30 140 H 12.9769 -1.91411 0.92062 0
M  V30 141 H 15.2399 -0.879562 0.353659 0
M  V30 142 H 14.9459 -3.43729 0.744512 0
M  V30 143 H 14.8199 -3.63865 -0.994097 0
M  V30 144 H 17.2069 -2.67779 -1.24009 0
M  V30 145 H 17.2879 -2.5048 0.51898 0
M  V30 146 H 16.9319 -5.02174 0.760519 0
M  V30 147 H 16.8619 -5.16752 -1.01364 0
M  V30 148 H 19.3529 -3.76481 -0.327217 0
M  V30 149 H 19.6659 -7.72787 -0.0440241 0
M  V30 150 H 18.0109 -6.94984 -0.0465419 0
M  V30 151 H 21.2019 -4.66996 -0.321317 0
M  V30 152 H 21.3749 -6.47714 -0.192407 0
M  V30 153 N 14.781 0.264519 -1.55364 0
M  V30 154 C 16.006 1.01726 -1.80739 0
M  V30 155 C 16.431 1.78836 -0.583044 0
M  V30 156 O 15.789 1.75167 0.467566 0
M  V30 157 C 15.837 1.94482 -3.03659 0
M  V30 158 O 14.941 3.03386 -2.7934 0
M  V30 159 H 14.282 0.290395 -0.597132 0
M  V30 160 H 16.812 0.290854 -2.02522 0
M  V30 161 H 16.822 2.36278 -3.32621 0
M  V30 162 H 15.497 1.37772 -3.92418 0
M  V30 163 H 14.074 2.65844 -2.61498 0
M  V30 164 N 16.2591 1.48442 0.529413 0
M  V30 165 C 17.1891 1.65902 1.64313 0
M  V30 166 C 18.1701 0.507897 1.6234 0
M  V30 167 O 19.3551 0.740503 1.79528 0
M  V30 168 C 16.4851 1.69911 3.02898 0
M  V30 169 C 15.4391 2.8453 3.19729 0
M  V30 170 C 14.7651 2.73629 4.59381 0
M  V30 171 C 16.0651 4.25821 3.02447 0
M  V30 172 H 17.7591 2.5914 1.49955 0
M  V30 173 H 15.3051 1.24709 0.719982 0
M  V30 174 H 17.2581 1.80715 3.80684 0
M  V30 175 H 15.9821 0.732524 3.18279 0
M  V30 176 H 14.6411 2.73283 2.44361 0
M  V30 177 H 14.2891 1.74938 4.71599 0
M  V30 178 H 13.9891 3.50541 4.71588 0
M  V30 179 H 15.5131 2.86401 5.39265 0
M  V30 180 H 16.9271 4.37898 3.70024 0
M  V30 181 H 15.3241 5.03735 3.26146 0
M  V30 182 H 16.3941 4.42244 1.98867 0
M  V30 183 N 17.7372 -0.778329 1.37039 0
M  V30 184 C 18.9852 -1.53361 1.31623 0
M  V30 185 C 19.3062 -1.94739 -0.100831 0
M  V30 186 O 18.5762 -1.65797 -1.04347 0
M  V30 187 H 17.1562 -0.568794 0.484234 0
M  V30 188 H 19.8182 -0.926742 1.71457 0
M  V30 189 H 18.9142 -2.43606 1.95096 0
M  V30 190 N 19.2153 -1.21501 -1.00376 0
M  V30 191 C 20.1453 -0.999478 -2.11028 0
M  V30 192 C 21.1263 0.0759671 -1.6993 0
M  V30 193 O 22.3113 -0.0841106 -1.94018 0
M  V30 194 C 19.4413 -0.564709 -3.42678 0
M  V30 195 C 18.3953 -1.58486 -3.97576 0
M  V30 196 C 17.7213 -1.00628 -5.25146 0
M  V30 197 C 19.0213 -2.97204 -4.29496 0
M  V30 198 H 20.7153 -1.92495 -2.29317 0
M  V30 199 H 18.2613 -0.92693 -1.102 0
M  V30 200 H 20.2143 -0.401091 -4.19487 0
M  V30 201 H 18.9383 0.396411 -3.24185 0
M  V30 202 H 17.5973 -1.73606 -3.22888 0
M  V30 203 H 17.2453 -0.0368439 -5.02987 0
M  V30 204 H 16.9453 -1.68771 -5.62841 0
M  V30 205 H 18.4693 -0.854015 -6.04598 0
M  V30 206 H 19.8833 -2.8552 -4.97143 0
M  V30 207 H 18.2803 -3.62372 -4.78338 0
M  V30 208 H 19.3503 -3.47956 -3.3772 0
M  V30 209 N 20.6934 1.19889 -1.02296 0
M  V30 210 C 21.9184 1.9393 -0.735237 0
M  V30 211 C 22.3434 1.74639 0.698782 0
M  V30 212 O 21.7014 1.04481 1.48167 0
M  V30 213 C 21.7494 3.43916 -1.08417 0
M  V30 214 O 20.8534 4.11917 -0.199446 0
M  V30 215 H 20.1944 0.605645 -0.272196 0
M  V30 216 H 22.7244 1.52137 -1.36804 0
M  V30 217 H 22.7344 3.9456 -1.03856 0
M  V30 218 H 21.4094 3.5728 -2.12894 0
M  V30 219 H 19.9864 3.71666 -0.303136 0
M  V30 220 N 22.1715 0.800033 1.35784 0
M  V30 221 C 23.5825 0.439142 1.81462 0
M  V30 222 C 23.9335 -1.03813 1.66485 0
M  V30 223 O 23.0585 -1.80626 1.19177 0
M  V30 224 C 23.6535 0.790314 3.29453 0
M  V30 225 C 22.2125 0.482111 3.733 0
M  V30 226 C 21.3595 1.01938 2.57883 0
M  V30 227 H 24.3105 0.992254 1.23855 0
M  V30 228 H 24.3315 0.0853677 3.80404 0
M  V30 229 H 23.8435 1.86554 3.40322 0
M  V30 230 H 21.9445 -0.584652 3.67984 0
M  V30 231 H 22.0575 1.01015 4.6833 0
M  V30 232 H 20.4215 0.442043 2.50835 0
M  V30 233 H 21.2045 2.10059 2.71533 0
M  V30 234 N 23.6496 -1.47581 0.552962 0
M  V30 235 C 24.8976 -2.02082 0.0272703 0
M  V30 236 C 25.2186 -1.4301 -1.32563 0
M  V30 237 O 24.4886 -0.603745 -1.86365 0
M  V30 238 H 23.0686 -0.746966 0.00709182 0
M  V30 239 H 25.7306 -1.81033 0.722008 0
M  V30 240 H 24.8266 -3.12034 -0.0639951 0
M  V30 241 N 25.1277 -0.289203 -1.54924 0
M  V30 242 C 26.5387 0.205791 -1.85562 0
M  V30 243 C 26.8897 1.54351 -1.2112 0
M  V30 244 O 26.0147 2.10435 -0.504601 0
M  V30 245 C 26.6097 0.380177 -3.3666 0
M  V30 246 C 25.1687 0.819395 -3.67373 0
M  V30 247 C 24.3157 -0.079159 -2.77187 0
M  V30 248 H 27.2667 -0.510577 -1.50262 0
M  V30 249 H 27.2877 1.21659 -3.60526 0
M  V30 250 H 26.7997 -0.593589 -3.83534 0
M  V30 251 H 24.9007 1.80413 -3.26009 0
M  V30 252 H 25.0137 0.646957 -4.74712 0
M  V30 253 H 23.3777 0.439565 -2.50878 0
M  V30 254 H 24.1607 -1.04906 -3.26878 0
M  V30 255 N 26.6058 1.57591 -0.0167156 0
M  V30 256 C 27.8538 1.90906 0.663285 0
M  V30 257 C 28.1748 0.892509 1.73376 0
M  V30 258 O 27.4448 -0.0677623 1.95783 0
M  V30 259 H 26.0248 0.704637 0.247983 0
M  V30 260 H 28.6868 1.94803 -0.0615909 0
M  V30 261 H 27.7828 2.9116 1.12393 0
M  V30 262 N 28.0839 -0.256276 1.55502 0
M  V30 263 C 29.3089 -1.00766 1.81276 0
M  V30 264 C 29.7339 -1.78524 0.59252 0
M  V30 265 O 29.0919 -1.75413 -0.45827 0
M  V30 266 C 29.1399 -1.92869 3.04687 0
M  V30 267 O 28.2439 -3.019 2.80945 0
M  V30 268 H 27.5849 -0.287224 0.598664 0
M  V30 269 H 30.1149 -0.280109 2.02674 0
M  V30 270 H 30.1249 -2.34511 3.33869 0
M  V30 271 H 28.7999 -1.35689 3.93143 0
M  V30 272 H 27.3769 -2.64454 2.62904 0
M  V30 273 N 29.562 -1.4872 -0.521534 0
M  V30 274 C 30.787 -1.61101 -1.30618 0
M  V30 275 C 31.212 -0.274611 -1.86085 0
M  V30 276 O 30.57 0.754937 -1.64834 0
M  V30 277 C 30.618 -2.66709 -2.4269 0
M  V30 278 O 29.722 -2.24456 -3.45967 0
M  V30 279 H 29.063 -0.539921 -0.386499 0
M  V30 280 H 31.593 -1.94767 -0.626645 0
M  V30 281 H 31.603 -2.88245 -2.88754 0
M  V30 282 H 30.278 -3.63727 -2.01682 0
M  V30 283 H 28.855 -2.13168 -3.05964 0
M  V30 284 N 31.0401 0.771051 -1.3745 0
M  V30 285 C 31.9501 1.91538 -1.35464 0
M  V30 286 C 32.9661 1.72134 -0.254123 0
M  V30 287 O 34.1421 1.95358 -0.489626 0
M  V30 288 C 31.2071 3.26671 -1.16134 0
M  V30 289 C 30.2681 3.58723 -2.35831 0
M  V30 290 C 29.5011 4.87409 -2.17413 0
M  V30 291 O 29.7241 5.58506 -1.15876 0
M  V30 292 O 28.6581 5.18539 -3.05615 0
M  V30 293 H 32.4841 1.96165 -2.31847 0
M  V30 294 H 30.0691 0.9139 -1.18187 0
M  V30 295 H 31.9511 4.07499 -1.07345 0
M  V30 296 H 30.6261 3.22894 -0.228251 0
M  V30 297 H 29.5331 2.78127 -2.50192 0
M  V30 298 H 30.8661 3.67243 -3.27709 0
M  V30 299 N 32.5182 1.22032 0.997298 0
M  V30 300 C 33.7642 1.04376 1.73878 0
M  V30 301 C 34.0972 -0.420716 1.89588 0
M  V30 302 O 33.3722 -1.31202 1.43583 0
M  V30 303 C 33.6552 1.75047 3.14691 0
M  V30 304 C 33.5082 3.29062 3.06656 0
M  V30 305 C 34.8272 1.49928 4.13775 0
M  V30 306 H 31.9462 0.380578 0.631133 0
M  V30 307 H 34.5882 1.50312 1.16217 0
M  V30 308 H 32.7382 1.35996 3.63919 0
M  V30 309 H 34.4102 3.7753 2.65083 0
M  V30 310 H 32.6532 3.58967 2.43568 0
M  V30 311 H 33.3242 3.73683 4.06282 0
M  V30 312 H 35.8002 1.83842 3.73285 0
M  V30 313 H 34.6762 2.01878 5.10428 0
M  V30 314 H 34.9372 0.430929 4.39995 0
M  V30 315 N 33.9963 -1.19345 1.0293 0
M  V30 316 C 34.9063 -2.26245 0.620515 0
M  V30 317 C 35.9223 -1.70486 -0.347928 0
M  V30 318 O 37.0983 -2.00347 -0.205704 0
M  V30 319 C 34.1633 -3.46693 -0.0218957 0
M  V30 320 C 33.2243 -4.17632 0.994102 0
M  V30 321 C 32.4573 -5.32329 0.382253 0
M  V30 322 O 32.6803 -5.64552 -0.814676 0
M  V30 323 O 31.6143 -5.91664 1.10531 0
M  V30 324 H 35.4403 -2.63453 1.51083 0
M  V30 325 H 33.0253 -1.26207 0.799513 0
M  V30 326 H 34.9073 -4.19683 -0.380072 0
M  V30 327 H 33.5823 -3.11333 -0.886209 0
M  V30 328 H 32.4893 -3.4676 1.40387 0
M  V30 329 H 33.8223 -4.56964 1.8288 0
M  V30 330 N 35.4744 -0.807222 -1.35358 0
M  V30 331 C 36.4044 -0.232509 -2.3234 0
M  V30 332 C 37.3854 0.642386 -1.57504 0
M  V30 333 O 38.5704 0.572526 -1.85569 0
M  V30 334 C 35.7004 0.619238 -3.41735 0
M  V30 335 C 34.6544 -0.157215 -4.27711 0
M  V30 336 C 33.9804 0.816273 -5.28433 0
M  V30 337 C 35.2804 -1.35656 -5.04376 0
M  V30 338 H 36.9744 -1.04276 -2.80654 0
M  V30 339 H 34.5204 -0.50288 -1.34934 0
M  V30 340 H 36.4734 1.03137 -4.08584 0
M  V30 341 H 35.1974 1.46239 -2.92031 0
M  V30 342 H 33.8564 -0.550525 -3.62443 0
M  V30 343 H 33.5044 1.65494 -4.74996 0
M  V30 344 H 33.2044 0.301067 -5.86828 0
M  V30 345 H 34.7284 1.22659 -5.98153 0
M  V30 346 H 36.1424 -1.01927 -5.64166 0
M  V30 347 H 34.5394 -1.8063 -5.7227 0
M  V30 348 H 35.6094 -2.14288 -4.34981 0
M  V30 349 N 36.9525 1.47285 -0.560781 0
M  V30 350 C 38.2295 1.9558 0.0277798 0
M  V30 351 C 38.6095 1.5034 1.48192 0
M  V30 352 O 37.9575 0.743882 2.16052 0
M  V30 353 C 38.1675 3.48789 -0.121418 0
M  V30 354 C 39.5155 4.24594 0.0220912 0
M  V30 355 O 40.5395 3.56166 -0.0491439 0
M  V30 356 O 39.3985 5.46217 0.175958 0
M  V30 357 H 36.4925 0.824663 0.0621342 0
M  V30 358 H 39.0385 1.5767 -0.627556 0
M  V30 359 H 37.8105 3.74533 -1.13316 0
M  V30 360 H 37.4335 3.93473 0.571366 0
M  V30 361 N 38.4306 0.297415 1.54768 0
M  V30 362 C 39.6706 -0.313829 2.01976 0
M  V30 363 C 40.0346 -1.51366 1.1812 0
M  V30 364 O 41.2356 -2.19603 1.5501 0
M  V30 365 C 39.5066 -0.664964 3.51159 0
M  V30 366 S 41.0656 -1.25958 4.20333 0
M  V30 367 H 37.8836 -0.0965014 0.704421 0
M  V30 368 H 40.4856 0.424451 1.90837 0
M  V30 369 H 39.1896 0.21681 4.09827 0
M  V30 370 H 38.7206 -1.43413 3.66328 0
M  V30 371 H 40.7356 -2.54751 4.25813 0
M  V30 372 N 39.9087 -1.5758 0.0250728 0
M  V30 373 C 41.1547 -1.92746 -0.649648 0
M  V30 374 C 41.5097 -0.901588 -1.69968 0
M  V30 375 O 40.8027 0.0829251 -1.9142 0
M  V30 376 C 40.9967 -3.32421 -1.31268 0
M  V30 377 C 40.8257 -4.48499 -0.328394 0
M  V30 378 C 39.5957 -5.05251 0.070284 0
M  V30 379 C 41.7937 -5.12618 0.415665 0
M  V30 380 N 39.7757 -6.04851 1.05016 0
M  V30 381 C 41.1467 -6.0728 1.24943 0
M  V30 382 C 43.2017 -4.95612 0.476803 0
M  V30 383 C 41.9047 -6.86766 2.1388 0
M  V30 384 C 43.9307 -5.75703 1.3535 0
M  V30 385 C 43.2927 -6.69978 2.17504 0
M  V30 386 H 39.3917 -0.753231 -0.210159 0
M  V30 387 H 41.9757 -1.94486 0.0912999 0
M  V30 388 H 40.1467 -3.31508 -2.02379 0
M  V30 389 H 41.8787 -3.54946 -1.94411 0
M  V30 390 H 38.6337 -4.72628 -0.303323 0
M  V30 391 H 39.0577 -6.5934 1.53622 0
M  V30 392 H 43.6997 -4.22554 -0.144105 0
M  V30 393 H 41.4177 -7.59132 2.77027 0
M  V30 394 H 45.0037 -5.64579 1.40504 0
M  V30 395 H 43.8837 -7.30873 2.84244 0
M  V30 396 N 41.3868 0.248026 -1.55636 0
M  V30 397 C 42.6338 0.976224 -1.77415 0
M  V30 398 C 42.9618 1.85361 -0.589193 0
M  V30 399 O 42.2168 1.90973 0.427529 0
M  V30 400 C 42.5158 1.86819 -3.04686 0
M  V30 401 C 42.1818 1.14625 -4.36087 0
M  V30 402 C 40.8438 0.946723 -4.71795 0
M  V30 403 C 43.1958 0.634463 -5.17324 0
M  V30 404 C 40.5238 0.223091 -5.86276 0
M  V30 405 C 42.8758 -0.0756959 -6.32555 0
M  V30 406 C 41.5398 -0.286711 -6.66884 0
M  V30 407 H 40.8098 0.357226 -0.649208 0
M  V30 408 H 43.4568 0.246415 -1.89908 0
M  V30 409 H 41.7618 2.66502 -2.872 0
M  V30 410 H 43.4588 2.43329 -3.18735 0
M  V30 411 H 40.0488 1.3117 -4.08035 0
M  V30 412 H 44.2328 0.77616 -4.90193 0
M  V30 413 H 39.4888 0.0491185 -6.1138 0
M  V30 414 H 43.6628 -0.479899 -6.94745 0
M  V30 415 H 41.2898 -0.849389 -7.5544 0
M  V30 416 N 42.8649 1.48995 0.513639 0
M  V30 417 C 44.1419 1.48338 1.27495 0
M  V30 418 C 44.5219 0.204065 2.10111 0
M  V30 419 O 43.8699 -0.813881 2.13514 0
M  V30 420 C 44.0799 2.75498 2.14247 0
M  V30 421 C 45.4279 3.24484 2.73852 0
M  V30 422 O 46.4519 2.76528 2.24523 0
M  V30 423 O 45.3109 4.07974 3.6362 0
M  V30 424 H 42.4049 0.593149 0.576284 0
M  V30 425 H 44.9509 1.61246 0.528948 0
M  V30 426 H 43.7229 3.60109 1.53092 0
M  V30 427 H 43.3459 2.6539 2.96064 0
M  V30 428 N 44.343 -0.763751 1.37857 0
M  V30 429 C 45.253 -1.90817 1.36478 0
M  V30 430 C 46.269 -1.71997 0.263248 0
M  V30 431 O 47.445 -1.95095 0.499979 0
M  V30 432 C 44.51 -3.2605 1.17864 0
M  V30 433 C 43.571 -3.57467 2.3773 0
M  V30 434 C 42.804 -4.86249 2.19995 0
M  V30 435 O 43.027 -5.57884 1.18836 0
M  V30 436 O 41.961 -5.16911 3.08361 0
M  V30 437 H 45.787 -1.94933 2.32884 0
M  V30 438 H 43.372 -0.907619 1.1867 0
M  V30 439 H 45.254 -4.06924 1.09504 0
M  V30 440 H 43.929 -3.22769 0.245372 0
M  V30 441 H 42.836 -2.76796 2.51664 0
M  V30 442 H 44.169 -3.655 3.29652 0
M  V30 443 N 45.8211 -1.22559 -0.990812 0
M  V30 444 C 47.0981 -0.959875 -1.70428 0
M  V30 445 C 47.4781 0.524455 -2.04481 0
M  V30 446 O 46.8261 1.49302 -1.72977 0
M  V30 447 C 47.0361 -1.85955 -2.95333 0
M  V30 448 C 48.3841 -2.11687 -3.68068 0
M  V30 449 O 49.4081 -1.8342 -3.05345 0
M  V30 450 O 48.2671 -2.59572 -4.80921 0
M  V30 451 H 45.3611 -0.361154 -0.743974 0
M  V30 452 H 47.9071 -1.33554 -1.04697 0
M  V30 453 H 46.6791 -2.86346 -2.66687 0
M  V30 454 H 46.3021 -1.4856 -3.68803 0
M  V30 455 N 47.2992 1.18797 -1.03562 0
M  V30 456 C 48.5462 1.8865 -0.736023 0
M  V30 457 C 48.8742 1.80041 0.735889 0
M  V30 458 O 48.1292 1.19179 1.55225 0
M  V30 459 C 48.4282 3.38692 -1.14117 0
M  V30 460 C 48.0942 3.67504 -2.6125 0
M  V30 461 C 46.7562 3.75078 -3.01447 0
M  V30 462 C 49.1082 3.80293 -3.56408 0
M  V30 463 C 46.4362 3.92915 -4.35701 0
M  V30 464 C 48.7882 3.99645 -4.90374 0
M  V30 465 C 47.4522 4.05453 -5.30249 0
M  V30 466 H 46.7222 0.690321 -0.26933 0
M  V30 467 H 49.3692 1.40641 -1.29971 0
M  V30 468 H 47.6742 3.88645 -0.496202 0
M  V30 469 H 49.3712 3.91072 -0.886789 0
M  V30 470 H 45.9612 3.62223 -2.29113 0
M  V30 471 H 50.1452 3.73779 -3.26501 0
M  V30 472 H 45.4012 3.95653 -4.66121 0
M  V30 473 H 49.5752 4.08482 -5.64017 0
M  V30 474 H 47.2022 4.19027 -6.34288 0
M  V30 475 N 48.7773 0.814389 1.34928 0
M  V30 476 C 49.7243 0.22822 2.29669 0
M  V30 477 C 50.6943 -0.642164 1.53184 0
M  V30 478 O 51.8793 -0.585605 1.81591 0
M  V30 479 C 49.0193 -0.61089 3.3965 0
M  V30 480 C 48.1323 0.280792 4.31086 0
M  V30 481 C 47.2673 -0.567067 5.28165 0
M  V30 482 C 46.3063 0.324531 6.11239 0
M  V30 483 N 45.4433 -0.483756 7.00431 0
M  V30 484 H 50.2833 1.04153 2.79206 0
M  V30 485 H 47.8203 0.525133 1.37407 0
M  V30 486 H 49.7783 -1.11263 4.0209 0
M  V30 487 H 48.4083 -1.38939 2.91369 0
M  V30 488 H 47.4603 0.900688 3.69583 0
M  V30 489 H 48.7723 0.966723 4.89342 0
M  V30 490 H 47.9263 -1.13363 5.96015 0
M  V30 491 H 46.6653 -1.28654 4.70425 0
M  V30 492 H 45.6703 0.903298 5.42329 0
M  V30 493 H 46.8953 1.04198 6.71059 0
M  V30 494 H 44.8413 -1.18706 6.45171 0
M  V30 495 H 44.7583 0.143965 7.55863 0
M  V30 496 H 46.0263 -1.03334 7.7262 0
M  V30 497 N 50.2554 -1.46986 0.568584 0
M  V30 498 C 51.5024 -2.02441 0.0487986 0
M  V30 499 C 51.8304 -1.44169 -1.30559 0
M  V30 500 O 51.0854 -0.591213 -1.86556 0
M  V30 501 C 51.3844 -3.57306 -0.081836 0
M  V30 502 C 51.0504 -4.34552 1.20313 0
M  V30 503 C 49.7124 -4.55376 1.5552 0
M  V30 504 C 52.0644 -4.79016 2.05411 0
M  V30 505 C 49.3924 -5.17913 2.7565 0
M  V30 506 C 51.7444 -5.42879 3.24754 0
M  V30 507 C 50.4084 -5.61933 3.60261 0
M  V30 508 H 49.6784 -0.740785 0.0178567 0
M  V30 509 H 52.3254 -1.76525 0.742384 0
M  V30 510 H 50.6304 -3.8228 -0.858463 0
M  V30 511 H 52.3274 -3.97876 -0.499546 0
M  V30 512 H 48.9174 -4.18631 0.919014 0
M  V30 513 H 53.1014 -4.62696 1.79516 0
M  V30 514 H 48.3574 -5.30858 3.03315 0
M  V30 515 H 52.5314 -5.76293 3.90973 0
M  V30 516 H 50.1584 -6.10161 4.53439 0
M  V30 517 N 51.7335 -0.305618 -1.54608 0
M  V30 518 C 52.9825 0.303098 -1.9941 0
M  V30 519 C 53.2955 1.54648 -1.19764 0
M  V30 520 O 54.5015 2.23007 -1.54855 0
M  V30 521 C 52.9575 0.590588 -3.55021 0
M  V30 522 C 52.5655 -0.634719 -4.43481 0
M  V30 523 C 54.3095 1.16025 -4.08336 0
M  V30 524 C 52.2165 -0.320126 -5.90533 0
M  V30 525 H 51.1465 0.117031 -0.744862 0
M  V30 526 H 53.7975 -0.415045 -1.78745 0
M  V30 527 H 52.1795 1.36845 -3.71604 0
M  V30 528 H 53.3535 -1.41079 -4.38672 0
M  V30 529 H 51.6685 -1.12333 -4.00962 0
M  V30 530 H 54.2655 1.40994 -5.15776 0
M  V30 531 H 54.6085 2.10397 -3.5922 0
M  V30 532 H 55.1415 0.443985 -3.95315 0
M  V30 533 H 51.8805 -1.23254 -6.43808 0
M  V30 534 H 51.4005 0.418579 -5.98338 0
M  V30 535 H 53.0795 0.0766241 -6.46955 0
M  V30 536 N 53.2116 1.57565 -0.0334293 0
M  V30 537 C 54.1416 2.13511 0.945265 0
M  V30 538 C 55.1226 1.05231 1.33643 0
M  V30 539 O 56.3076 1.33084 1.41429 0
M  V30 540 C 53.4376 2.6657 2.22616 0
M  V30 541 C 52.3916 3.79676 1.97561 0
M  V30 542 C 51.7176 4.1918 3.31952 0
M  V30 543 C 53.0176 5.0557 1.31135 0
M  V30 544 H 54.7116 2.95538 0.479325 0
M  V30 545 H 52.2576 1.42166 0.229115 0
M  V30 546 H 54.2106 3.04344 2.91466 0
M  V30 547 H 52.9346 1.8171 2.71384 0
M  V30 548 H 51.5936 3.42347 1.31127 0
M  V30 549 H 51.2416 3.31296 3.78487 0
M  V30 550 H 50.9416 4.95402 3.15992 0
M  V30 551 H 52.4656 4.59541 4.02063 0
M  V30 552 H 53.8796 5.40903 1.89992 0
M  V30 553 H 52.2766 5.86818 1.25559 0
M  V30 554 H 53.3466 4.84062 0.284894 0
M  V30 555 N 54.6897 -0.239769 1.55765 0
M  V30 556 C 55.6197 -1.30052 1.9393 0
M  V30 557 C 56.6007 -1.49839 0.805132 0
M  V30 558 O 57.7857 -1.62328 1.06599 0
M  V30 559 C 54.9157 -2.65391 2.2402 0
M  V30 560 C 53.8697 -2.60289 3.39755 0
M  V30 561 C 53.1957 -3.99489 3.55405 0
M  V30 562 C 54.4957 -2.16654 4.75246 0
M  V30 563 H 56.1897 -0.983573 2.82783 0
M  V30 564 H 53.7357 -0.471701 1.36055 0
M  V30 565 H 55.6887 -3.3974 2.49308 0
M  V30 566 H 54.4127 -2.98736 1.32 0
M  V30 567 H 53.0717 -1.88398 3.14487 0
M  V30 568 H 52.7197 -4.30112 2.60793 0
M  V30 569 H 52.4197 -3.96962 4.33238 0
M  V30 570 H 53.9437 -4.75528 3.83022 0
M  V30 571 H 55.3577 -2.80737 4.99859 0
M  V30 572 H 53.7547 -2.25223 5.56232 0
M  V30 573 H 54.8247 -1.11835 4.71827 0
M  V30 574 N 56.1678 -1.49265 -0.50573 0
M  V30 575 C 57.5788 -1.51769 -1.08734 0
M  V30 576 C 57.9298 -0.301192 -1.93874 0
M  V30 577 O 57.0548 0.589456 -2.08217 0
M  V30 578 C 57.6498 -2.75017 -1.97867 0
M  V30 579 C 56.2088 -2.80314 -2.51199 0
M  V30 580 C 55.3558 -2.4562 -1.28709 0
M  V30 581 H 58.3068 -1.56031 -0.289855 0
M  V30 582 H 58.3278 -2.5491 -2.82491 0
M  V30 583 H 57.8398 -3.63539 -1.35873 0
M  V30 584 H 55.9408 -1.96061 -3.16845 0
M  V30 585 H 56.0538 -3.82366 -2.88675 0
M  V30 586 H 54.4178 -1.97297 -1.61078 0
M  V30 587 H 55.2008 -3.36411 -0.6843 0
M  V30 588 N 57.6459 0.756429 -1.3826 0
M  V30 589 C 58.8919 1.51772 -1.34511 0
M  V30 590 C 59.2249 1.94089 0.0656691 0
M  V30 591 O 58.4999 1.65221 1.02626 0
M  V30 592 C 58.7829 2.77226 -2.29821 0
M  V30 593 C 58.6359 2.41065 -3.79747 0
M  V30 594 C 59.9549 3.79236 -2.23312 0
M  V30 595 H 57.0739 0.550578 -0.489931 0
M  V30 596 H 59.7159 0.866607 -1.69086 0
M  V30 597 H 57.8659 3.32784 -2.00467 0
M  V30 598 H 59.5379 1.91303 -4.19763 0
M  V30 599 H 57.7809 1.7356 -3.97567 0
M  V30 600 H 58.4519 3.3081 -4.41892 0
M  V30 601 H 60.9279 3.3321 -2.49219 0
M  V30 602 H 59.8039 4.64714 -2.92116 0
M  V30 603 H 60.0649 4.24615 -1.23102 0
M  V30 604 N 59.124 1.23083 0.984299 0
M  V30 605 C 60.349 1.088 1.76571 0
M  V30 606 C 60.774 -0.356657 1.84688 0
M  V30 607 O 60.132 -1.25788 1.30565 0
M  V30 608 C 60.18 1.71371 3.17277 0
M  V30 609 O 59.284 0.973213 4.00752 0
M  V30 610 H 58.625 0.381599 0.543395 0
M  V30 611 H 61.155 1.63057 1.23587 0
M  V30 612 H 61.165 1.76449 3.67872 0
M  V30 613 H 59.84 2.76493 3.10684 0
M  V30 614 H 58.417 0.999078 3.59267 0
M  V30 615 N 60.6021 -1.18246 1.0419 0
M  V30 616 C 61.8321 -1.91916 0.764961 0
M  V30 617 C 62.2401 -1.76485 -0.681898 0
M  V30 618 O 61.5831 -1.09275 -1.47664 0
M  V30 619 C 61.6451 -3.4373 1.05309 0
M  V30 620 C 61.3091 -3.8294 2.4941 0
M  V30 621 C 62.3061 -3.86621 3.47592 0
M  V30 622 C 59.9911 -4.142 2.84155 0
M  V30 623 C 61.9851 -4.21013 4.78568 0
M  V30 624 C 59.6721 -4.48262 4.15337 0
M  V30 625 C 60.6701 -4.51645 5.12353 0
M  V30 626 O 60.3581 -4.84911 6.41183 0
M  V30 627 H 60.0901 -0.61606 0.278292 0
M  V30 628 H 62.6441 -1.50947 1.39299 0
M  V30 629 H 60.8741 -3.84946 0.367933 0
M  V30 630 H 62.5631 -3.9865 0.763752 0
M  V30 631 H 63.3291 -3.62607 3.22089 0
M  V30 632 H 59.2081 -4.10743 2.09311 0
M  V30 633 H 62.7521 -4.23568 5.54289 0
M  V30 634 H 58.6491 -4.71737 4.40607 0
M  V30 635 H 59.4171 -5.02809 6.45852 0
M  V30 636 N 62.0802 -0.821533 -1.34494 0
M  V30 637 C 63.0432 -0.247847 -2.27856 0
M  V30 638 C 64.0432 0.573453 -1.50227 0
M  V30 639 O 65.2332 0.389759 -1.69784 0
M  V30 640 C 62.3652 0.652698 -3.34593 0
M  V30 641 H 63.5582 -1.07146 -2.80107 0
M  V30 642 H 61.1112 -0.593291 -1.44602 0
M  V30 643 H 61.8462 1.49943 -2.87555 0
M  V30 644 H 61.6312 0.065292 -3.92046 0
M  V30 645 H 63.1212 1.04793 -4.04238 0
M  V30 646 N 63.5583 1.46682 -0.576371 0
M  V30 647 C 64.8043 2.02712 -0.0596221 0
M  V30 648 C 65.1373 1.44765 1.29448 0
M  V30 649 O 64.4123 0.610355 1.84675 0
M  V30 650 C 64.6953 3.60098 0.0129503 0
M  V30 651 C 64.5483 4.28441 -1.3696 0
M  V30 652 C 65.8673 4.34224 0.71678 0
M  V30 653 H 62.9863 0.736637 -0.0231407 0
M  V30 654 H 65.6283 1.74898 -0.742351 0
M  V30 655 H 63.7783 3.83926 0.594378 0
M  V30 656 H 65.4503 4.15896 -1.9957 0
M  V30 657 H 63.6933 3.8805 -1.93907 0
M  V30 658 H 64.3643 5.3716 -1.27135 0
M  V30 659 H 66.8403 4.15503 0.222908 0
M  V30 660 H 65.7163 5.43936 0.73657 0
M  V30 661 H 65.9773 4.04823 1.77682 0
M  V30 662 N 65.0364 0.313813 1.54444 0
M  V30 663 C 66.2824 -0.292108 2.00685 0
M  V30 664 C 66.6154 -1.52548 1.20177 0
M  V30 665 O 65.8904 -1.92452 0.281531 0
M  V30 666 C 66.1734 -0.635968 3.5444 0
M  V30 667 C 66.0264 0.607437 4.4568 0
M  V30 668 C 67.3454 -1.45747 4.15266 0
M  V30 669 H 64.4644 -0.104697 0.729526 0
M  V30 670 H 67.1064 0.428457 1.85106 0
M  V30 671 H 65.2564 -1.24986 3.67846 0
M  V30 672 H 66.9284 1.24581 4.44159 0
M  V30 673 H 65.1714 1.23822 4.15753 0
M  V30 674 H 65.8424 0.322515 5.51057 0
M  V30 675 H 68.3184 -0.938645 4.05375 0
M  V30 676 H 67.1944 -1.66683 5.2298 0
M  V30 677 H 67.4554 -2.45063 3.67963 0
M  V30 678 N 66.5145 -1.57545 0.0417849 0
M  V30 679 C 67.7615 -1.92317 -0.634082 0
M  V30 680 C 68.0895 -0.919334 -1.71402 0
M  V30 681 O 67.3445 0.0698253 -1.95575 0
M  V30 682 C 67.6435 -3.33794 -1.27735 0
M  V30 683 C 67.3095 -4.49716 -0.326543 0
M  V30 684 C 65.9715 -4.81156 -0.0648814 0
M  V30 685 C 68.3235 -5.20182 0.325623 0
M  V30 686 C 65.6515 -5.80414 0.856539 0
M  V30 687 C 68.0035 -6.20424 1.23518 0
M  V30 688 C 66.6675 -6.50298 1.5056 0
M  V30 689 H 65.9375 -0.703736 -0.232027 0
M  V30 690 H 68.5845 -1.91205 0.106259 0
M  V30 691 H 66.8895 -3.31228 -2.09274 0
M  V30 692 H 68.5865 -3.57975 -1.80707 0
M  V30 693 H 65.1765 -4.25176 -0.540665 0
M  V30 694 H 69.3605 -4.96112 0.136546 0
M  V30 695 H 64.6165 -6.019 1.07363 0
M  V30 696 H 68.7905 -6.74141 1.74664 0
M  V30 697 H 66.4175 -7.27025 2.22123 0
M  V30 698 N 67.9926 0.231505 -1.5589 0
M  V30 699 C 69.2386 0.95877 -1.78705 0
M  V30 700 C 69.5716 1.8438 -0.609725 0
M  V30 701 O 68.8466 1.90521 0.391426 0
M  V30 702 C 69.1296 1.8062 -3.11526 0
M  V30 703 C 68.9826 0.948328 -4.39689 0
M  V30 704 C 70.3016 2.78585 -3.40703 0
M  V30 705 H 67.4206 0.347129 -0.650131 0
M  V30 706 H 70.0626 0.228259 -1.88624 0
M  V30 707 H 68.2126 2.42902 -3.03201 0
M  V30 708 H 69.8846 0.343016 -4.60023 0
M  V30 709 H 68.1276 0.253314 -4.3306 0
M  V30 710 H 68.7986 1.57543 -5.29041 0
M  V30 711 H 71.2746 2.26439 -3.49091 0
M  V30 712 H 70.1506 3.34988 -4.34826 0
M  V30 713 H 70.4116 3.55825 -2.62375 0
M  V30 714 N 69.4707 1.49531 0.497807 0
M  V30 715 C 70.4007 1.6935 1.60757 0
M  V30 716 C 71.3817 0.542218 1.61227 0
M  V30 717 O 72.5667 0.778417 1.77917 0
M  V30 718 C 69.6967 1.76298 2.99226 0
M  V30 719 C 68.6507 2.91248 3.13622 0
M  V30 720 C 67.9767 2.83312 4.53474 0
M  V30 721 C 69.2767 4.3214 2.93346 0
M  V30 722 H 70.9707 2.62263 1.44425 0
M  V30 723 H 68.5167 1.26208 0.693367 0
M  V30 724 H 70.4697 1.88749 3.76765 0
M  V30 725 H 69.1937 0.799871 3.16654 0
M  V30 726 H 67.8527 2.78404 2.38509 0
M  V30 727 H 67.5007 1.84902 4.67782 0
M  V30 728 H 67.2007 3.60465 4.64046 0
M  V30 729 H 68.7247 2.97775 5.33069 0
M  V30 730 H 70.1387 4.45649 3.60652 0
M  V30 731 H 68.5357 5.1054 3.15387 0
M  V30 732 H 69.6057 4.46363 1.89441 0
M  V30 733 N 70.9488 -0.749086 1.3866 0
M  V30 734 C 72.1968 -1.50535 1.34847 0
M  V30 735 C 72.5178 -1.94909 -0.0595016 0
M  V30 736 O 71.7878 -1.67973 -1.00806 0
M  V30 737 H 70.3678 -0.558395 0.49619 0
M  V30 738 H 73.0298 -0.890165 1.73384 0
M  V30 739 H 72.1258 -2.39413 2.00219 0
M  V30 740 N 72.4269 -1.23603 -0.977757 0
M  V30 741 C 73.3569 -1.04401 -2.0886 0
M  V30 742 C 74.3379 0.0399052 -1.70053 0
M  V30 743 O 75.5229 -0.125246 -1.93796 0
M  V30 744 C 72.6529 -0.637269 -3.41403 0
M  V30 745 C 71.6069 -1.66883 -3.94124 0
M  V30 746 C 70.9329 -1.11745 -5.22893 0
M  V30 747 C 72.2329 -3.06247 -4.23096 0
M  V30 748 H 73.9269 -1.97316 -2.25182 0
M  V30 749 H 71.4729 -0.950096 -1.08209 0
M  V30 750 H 73.4259 -0.48998 -4.18542 0
M  V30 751 H 72.1499 0.327557 -3.24953 0
M  V30 752 H 70.8089 -1.80416 -3.19133 0
M  V30 753 H 70.4569 -0.143527 -5.02795 0
M  V30 754 H 70.1569 -1.80672 -5.59134 0
M  V30 755 H 71.6809 -0.982067 -6.02651 0
M  V30 756 H 73.0949 -2.96001 -4.90975 0
M  V30 757 H 71.4919 -3.72436 -4.70544 0
M  V30 758 H 72.5619 -3.55041 -3.30263 0
M  V30 759 N 73.905 1.17692 -1.04816 0
M  V30 760 C 75.153 1.87488 -0.754497 0
M  V30 761 C 75.474 1.81205 0.720407 0
M  V30 762 O 74.744 1.23544 1.52032 0
M  V30 763 H 73.324 0.694101 -0.276102 0
M  V30 764 H 75.986 1.42793 -1.32651 0
M  V30 765 H 75.082 2.93328 -1.06606 0
M  V30 766 N 75.3831 0.828654 1.34056 0
M  V30 767 C 76.3131 0.269443 2.3194 0
M  V30 768 C 77.2941 -0.617247 1.58506 0
M  V30 769 O 78.4791 -0.542931 1.86456 0
M  V30 770 C 75.6091 -0.564793 3.42677 0
M  V30 771 C 74.5631 0.225241 4.27407 0
M  V30 772 C 73.8891 -0.7321 5.29664 0
M  V30 773 C 75.1891 1.43663 5.02154 0
M  V30 774 H 76.8831 1.08728 2.7896 0
M  V30 775 H 74.4291 0.524283 1.34117 0
M  V30 776 H 76.3821 -0.966233 4.10173 0
M  V30 777 H 75.1061 -1.41574 2.9432 0
M  V30 778 H 73.7651 0.608117 3.61521 0
M  V30 779 H 73.4131 -1.57916 4.77568 0
M  V30 780 H 73.1131 -0.20767 5.87233 0
M  V30 781 H 74.6371 -1.13128 6.00029 0
M  V30 782 H 76.0511 1.1089 5.62473 0
M  V30 783 H 74.4481 1.89711 5.69324 0
M  V30 784 H 75.5181 2.21181 4.31517 0
M  V30 785 N 76.8612 -1.46375 0.584142 0
M  V30 786 C 77.8092 -2.32042 -0.161047 0
M  V30 787 C 78.8032 -1.44569 -0.882966 0
M  V30 788 O 80.0092 -1.61186 -0.801191 0
M  V30 789 H 76.3842 -0.748659 -0.0708033 0
M  V30 790 H 78.3552 -2.92704 0.580269 0
M  V30 791 C 77.1042 -3.27762 -1.1605 0
M  V30 792 H 76.4272 -3.95051 -0.614419 0
M  V30 793 H 77.8672 -3.90481 -1.65228 0
M  V30 794 C 76.3262 -2.53218 -2.22221 0
M  V30 795 O 76.8562 -2.29628 -3.29597 0
M  V30 796 N 75.0622 -2.13756 -1.96868 0
M  V30 797 H 74.6092 -2.33142 -1.09557 0
M  V30 798 H 74.5672 -1.642 -2.68115 0
M  V30 799 N 78.3393 -0.321999 -1.54275 0
M  V30 800 C 79.3023 0.531975 -2.22941 0
M  V30 801 C 80.3023 1.04478 -1.22234 0
M  V30 802 O 81.4923 0.937452 -1.46825 0
M  V30 803 C 78.6243 1.73874 -2.93224 0
M  V30 804 H 79.8173 -0.0682612 -2.99822 0
M  V30 805 H 77.3703 -0.0730644 -1.56129 0
M  V30 806 H 78.1053 2.37825 -2.20476 0
M  V30 807 H 77.8903 1.37847 -3.6707 0
M  V30 808 H 79.3803 2.34496 -3.45545 0
M  V30 809 N 79.8174 1.5752 -0.0501392 0
M  V30 810 C 81.2284 1.80271 0.485705 0
M  V30 811 C 81.5794 0.96228 1.70981 0
M  V30 812 O 80.7044 0.178578 2.15662 0
M  V30 813 C 81.2994 3.26957 0.887938 0
M  V30 814 C 79.8584 3.5063 1.36877 0
M  V30 815 C 79.0054 2.75165 0.343468 0
M  V30 816 H 81.9564 1.56281 -0.276028 0
M  V30 817 H 81.9774 3.37821 1.75093 0
M  V30 818 H 81.4894 3.881 -0.0031809 0
M  V30 819 H 79.5904 2.94766 2.27911 0
M  V30 820 H 79.7034 4.59343 1.36164 0
M  V30 821 H 78.0674 2.4127 0.816128 0
M  V30 822 H 78.8504 3.39034 -0.539548 0
M  V30 823 N 81.2955 -0.223234 1.56011 0
M  V30 824 C 82.5235 -0.964812 1.83027 0
M  V30 825 C 82.9385 -1.78013 0.62904 0
M  V30 826 O 82.2955 -1.78008 -0.402414 0
M  V30 827 C 82.3465 -1.88373 3.08542 0
M  V30 828 O 82.0675 -1.10137 4.2403 0
M  V30 829 C 83.5685 -2.73934 3.48533 0
M  V30 830 H 80.7885 -0.282842 0.608475 0
M  V30 831 H 83.3325 -0.238971 2.03099 0
M  V30 832 H 81.4875 -2.56354 2.9045 0
M  V30 833 H 81.9015 -1.72501 4.95322 0
M  V30 834 H 83.3755 -3.34117 4.39397 0
M  V30 835 H 83.8525 -3.46244 2.70207 0
M  V30 836 H 84.4585 -2.11369 3.69057 0
M  V30 837 N 82.7736 -1.49793 -0.48987 0
M  V30 838 C 83.7036 -1.70201 -1.59856 0
M  V30 839 C 84.6846 -0.55076 -1.60937 0
M  V30 840 O 85.8696 -0.787841 -1.77501 0
M  V30 841 C 82.9996 -1.77882 -2.98287 0
M  V30 842 C 81.9536 -2.92907 -3.12073 0
M  V30 843 C 81.2796 -2.85712 -4.51965 0
M  V30 844 C 82.5796 -4.3369 -2.91051 0
M  V30 845 H 84.2736 -2.63025 -1.43032 0
M  V30 846 H 81.8196 -1.26574 -0.686664 0
M  V30 847 H 83.7726 -1.90744 -3.75759 0
M  V30 848 H 82.4966 -0.816653 -3.16225 0
M  V30 849 H 81.1556 -2.79665 -2.37029 0
M  V30 850 H 80.8036 -1.8738 -4.66795 0
M  V30 851 H 80.5036 -3.62921 -4.62128 0
M  V30 852 H 82.0276 -3.00598 -5.31482 0
M  V30 853 H 83.4416 -4.47555 -3.58284 0
M  V30 854 H 81.8386 -5.12205 -3.12675 0
M  V30 855 H 82.9086 -4.47362 -1.87071 0
M  V30 856 N 84.2517 0.741722 -1.39055 0
M  V30 857 C 85.4977 1.50234 -1.37118 0
M  V30 858 C 85.8527 1.92368 0.0350439 0
M  V30 859 O 85.1457 1.63422 1.00019 0
M  V30 860 C 85.3397 2.7592 -2.27163 0
M  V30 861 C 85.1687 2.46074 -3.76401 0
M  V30 862 C 83.9387 2.38704 -4.45364 0
M  V30 863 C 86.1367 2.12062 -4.68545 0
M  V30 864 N 84.1187 2.01258 -5.79973 0
M  V30 865 C 85.4897 1.85005 -5.91754 0
M  V30 866 C 87.5447 1.98473 -4.56632 0
M  V30 867 C 86.2477 1.4573 -7.04383 0
M  V30 868 C 88.2737 1.60599 -5.69176 0
M  V30 869 C 87.6357 1.34423 -6.91455 0
M  V30 870 H 83.7347 0.548858 -0.557027 0
M  V30 871 H 86.3187 0.862642 -1.74547 0
M  V30 872 H 84.4897 3.3768 -1.91904 0
M  V30 873 H 86.2217 3.42068 -2.16267 0
M  V30 874 H 82.9767 2.55574 -3.98721 0
M  V30 875 H 83.4007 1.85147 -6.51191 0
M  V30 876 H 88.0427 2.17381 -3.62637 0
M  V30 877 H 85.7607 1.25562 -7.98286 0
M  V30 878 H 89.3467 1.507 -5.61944 0
M  V30 879 H 88.2267 1.05555 -7.77064 0
M  V30 880 N 85.7298 1.2412 0.971189 0
M  V30 881 C 86.6598 1.05508 2.08304 0
M  V30 882 C 87.6408 -0.0308864 1.70072 0
M  V30 883 O 88.8258 0.135521 1.93727 0
M  V30 884 C 85.9558 0.655365 3.4106 0
M  V30 885 C 84.9098 1.68971 3.93234 0
M  V30 886 C 84.2358 1.14516 5.22293 0
M  V30 887 C 85.5358 3.08487 4.21465 0
M  V30 888 H 87.2298 1.98507 2.24132 0
M  V30 889 H 84.7758 0.955821 1.07704 0
M  V30 890 H 86.7288 0.51217 4.18276 0
M  V30 891 H 85.4528 -0.31032 3.25122 0
M  V30 892 H 84.1118 1.82106 3.18171 0
M  V30 893 H 83.7598 0.170189 5.02712 0
M  V30 894 H 83.4598 1.83635 5.58168 0
M  V30 895 H 84.9838 1.01401 6.02121 0
M  V30 896 H 86.3978 2.98601 4.89398 0
M  V30 897 H 84.7948 3.74926 4.68562 0
M  V30 898 H 85.8648 3.56787 3.28376 0
M  V30 899 N 87.2079 -1.17134 1.05439 0
M  V30 900 C 88.4549 -1.87456 0.765942 0
M  V30 901 C 88.7829 -1.81189 -0.707153 0
M  V30 902 O 88.0379 -1.21633 -1.5331 0
M  V30 903 C 88.3369 -3.36833 1.19491 0
M  V30 904 C 88.0029 -3.63301 2.67063 0
M  V30 905 C 86.6649 -3.70234 3.07376 0
M  V30 906 C 89.0169 -3.74575 3.62413 0
M  V30 907 C 86.3449 -3.85933 4.41896 0
M  V30 908 C 88.6969 -3.91793 4.9667 0
M  V30 909 C 87.3609 -3.96966 5.36633 0
M  V30 910 H 86.6309 -0.685948 0.280278 0
M  V30 911 H 89.2779 -1.38556 1.32192 0
M  V30 912 H 87.5829 -3.87807 0.557969 0
M  V30 913 H 89.2799 -3.89611 0.948893 0
M  V30 914 H 85.8699 -3.58532 2.34846 0
M  V30 915 H 90.0539 -3.68537 3.32406 0
M  V30 916 H 85.3099 -3.88187 4.72357 0
M  V30 917 H 89.4839 -3.99458 5.70444 0
M  V30 918 H 87.1109 -4.08883 6.40874 0
M  V30 919 N 88.686 -0.835752 -1.33615 0
M  V30 920 C 89.935 -0.426289 -1.97144 0
M  V30 921 C 90.248 1.01912 -1.66953 0
M  V30 922 O 91.454 1.53311 -2.24072 0
M  V30 923 C 89.91 -0.711321 -3.52801 0
M  V30 924 C 89.518 -2.1712 -3.91871 0
M  V30 925 C 91.262 -0.368654 -4.22896 0
M  V30 926 C 89.169 -2.40044 -5.40493 0
M  V30 927 H 88.099 -0.15567 -0.737755 0
M  V30 928 H 90.75 -1.0239 -1.52278 0
M  V30 929 H 89.132 -0.0433766 -3.95976 0
M  V30 930 H 90.306 -2.87936 -3.59763 0
M  V30 931 H 88.621 -2.47654 -3.34749 0
M  V30 932 H 91.218 -0.517601 -5.32189 0
M  V30 933 H 91.561 0.688078 -4.10574 0
M  V30 934 H 92.094 -0.991702 -3.8524 0
M  V30 935 H 88.833 -3.44271 -5.57815 0
M  V30 936 H 88.353 -1.73785 -5.74072 0
M  V30 937 H 90.032 -2.23042 -6.0734 0
M  V30 938 N 90.1641 1.46063 -0.591896 0
M  V30 939 C 91.4111 2.02338 -0.0809991 0
M  V30 940 C 91.7391 1.46228 1.28249 0
M  V30 941 O 90.9941 0.620818 1.85592 0
M  V30 942 C 91.2931 3.57391 0.0249813 0
M  V30 943 C 90.9591 4.32583 -1.27211 0
M  V30 944 C 89.6211 4.52844 -1.62745 0
M  V30 945 C 91.9731 4.75687 -2.13005 0
M  V30 946 C 89.3011 5.13462 -2.83855 0
M  V30 947 C 91.6531 5.37644 -3.3335 0
M  V30 948 C 90.3171 5.5613 -3.69155 0
M  V30 949 H 89.5871 0.740407 -0.0296397 0
M  V30 950 H 92.2341 1.75321 -0.770374 0
M  V30 951 H 90.5391 3.83597 0.797537 0
M  V30 952 H 92.2361 3.98621 0.436184 0
M  V30 953 H 88.8261 4.17116 -0.985499 0
M  V30 954 H 93.0101 4.59782 -1.86855 0
M  V30 955 H 88.2661 5.25965 -3.11722 0
M  V30 956 H 92.4401 5.7 -4.00092 0
M  V30 957 H 90.0671 6.0287 -4.63089 0
M  V30 958 N 91.6422 0.330177 1.54103 0
M  V30 959 C 93.0582 -0.0222371 1.59585 0
M  V30 960 C 93.2582 -1.49902 1.34654 0
M  V30 961 O 92.3142 -2.25592 1.13421 0
M  V30 962 C 93.6272 0.401932 2.98002 0
M  V30 963 C 95.1752 0.353145 3.11001 0
M  V30 964 C 95.6502 0.752576 4.51775 0
M  V30 965 N 97.1412 0.706239 4.57784 0
M  V30 966 C 97.8762 0.987417 5.64834 0
M  V30 967 N 97.3722 1.33607 6.79795 0
M  V30 968 N 99.1652 0.91254 5.54643 0
M  V30 969 H 91.3162 1.29228 1.68564 0
M  V30 970 H 93.5792 0.525906 0.78875 0
M  V30 971 H 93.2852 1.4311 3.21267 0
M  V30 972 H 93.1592 -0.229699 3.765 0
M  V30 973 H 95.5462 -0.666822 2.87467 0
M  V30 974 H 95.6272 1.0198 2.34593 0
M  V30 975 H 95.2712 1.77049 4.76042 0
M  V30 976 H 95.2012 0.0635409 5.26562 0
M  V30 977 H 97.6922 0.44889 3.75224 0
M  V30 978 H 98.0052 1.53582 7.57385 0
M  V30 979 H 96.3502 1.37439 6.81275 0
M  V30 980 H 99.5412 0.639601 4.6371 0
M  V30 981 H 99.7142 1.13503 6.37982 0
M  V30 982 N 93.1203 -1.57491 0.0584922 0
M  V30 983 C 94.0503 -2.14988 -0.911178 0
M  V30 984 C 95.0313 -1.07343 -1.31952 0
M  V30 985 O 96.2163 -1.35318 -1.39294 0
M  V30 986 C 93.3463 -2.70078 -2.18347 0
M  V30 987 C 92.3003 -3.82771 -1.91495 0
M  V30 988 C 91.6263 -4.24408 -3.25241 0
M  V30 989 C 92.9263 -5.07592 -1.23075 0
M  V30 990 H 94.6203 -2.96263 -0.432246 0
M  V30 991 H 92.1663 -1.42512 -0.206469 0
M  V30 992 H 94.1193 -3.08943 -2.86587 0
M  V30 993 H 92.8433 -1.86005 -2.68458 0
M  V30 994 H 91.5023 -3.44389 -1.25664 0
M  V30 995 H 91.1503 -3.37275 -3.73168 0
M  V30 996 H 90.8503 -5.00366 -3.08071 0
M  V30 997 H 92.3743 -4.65879 -3.94701 0
M  V30 998 H 93.7883 -5.43857 -1.81362 0
M  V30 999 H 92.1853 -5.88741 -1.16207 0
M  V30 1000 H 93.2553 -4.84454 -0.207847 0
M  V30 1001 N 94.5984 0.214957 -1.56127 0
M  V30 1002 C 96.0144 0.564948 -1.49267 0
M  V30 1003 C 96.2144 1.86827 -0.754838 0
M  V30 1004 O 95.2704 2.50745 -0.297198 0
M  V30 1005 C 96.5834 0.638071 -2.93852 0
M  V30 1006 C 98.1314 0.728253 -3.0441 0
M  V30 1007 C 98.6064 0.832663 -4.50367 0
M  V30 1008 N 100.097 0.896712 -4.54437 0
M  V30 1009 C 100.832 0.997324 -5.6466 0
M  V30 1010 N 100.328 1.06147 -6.8462 0
M  V30 1011 N 102.121 1.03297 -5.52527 0
M  V30 1012 H 94.2724 -0.640211 -2.02522 0
M  V30 1013 H 96.5354 -0.225507 -0.920788 0
M  V30 1014 H 96.2414 -0.250126 -3.50809 0
M  V30 1015 H 96.1154 1.49947 -3.46115 0
M  V30 1016 H 98.5024 1.60689 -2.47514 0
M  V30 1017 H 98.5834 -0.158952 -2.55306 0
M  V30 1018 H 98.2274 -0.0415417 -5.07883 0
M  V30 1019 H 98.1574 1.73538 -4.97184 0
M  V30 1020 H 100.648 0.857188 -3.6805 0
M  V30 1021 H 100.961 1.1382 -7.64372 0
M  V30 1022 H 99.3064 1.03049 -6.87318 0
M  V30 1023 H 102.497 0.979558 -4.57736 0
M  V30 1024 H 102.67 1.10793 -6.38458 0
M  V30 1025 N 96.0765 1.50051 0.48192 0
M  V30 1026 C 97.4875 1.5348 1.06305 0
M  V30 1027 C 97.8385 0.331997 1.93371 0
M  V30 1028 O 96.9635 -0.556256 2.09129 0
M  V30 1029 C 97.5585 2.7813 1.93466 0
M  V30 1030 C 96.1175 2.84275 2.46707 0
M  V30 1031 C 95.2645 2.47637 1.24785 0
M  V30 1032 H 98.2155 1.56472 0.264995 0
M  V30 1033 H 98.2365 2.59372 2.78399 0
M  V30 1034 H 97.7485 3.65654 1.30072 0
M  V30 1035 H 95.8495 2.01077 3.13686 0
M  V30 1036 H 95.9625 3.8691 2.82555 0
M  V30 1037 H 94.3265 1.99835 1.57918 0
M  V30 1038 H 95.1095 3.37457 0.630694 0
M  V30 1039 N 97.5546 -0.734337 1.39446 0
M  V30 1040 C 98.8006 -1.49505 1.37913 0
M  V30 1041 C 99.1556 -1.92384 -0.0248416 0
M  V30 1042 O 98.4486 -1.6395 -0.991506 0
M  V30 1043 C 98.6426 -2.74711 2.28623 0
M  V30 1044 C 98.4716 -2.44075 3.777 0
M  V30 1045 C 97.2416 -2.36338 4.46623 0
M  V30 1046 C 99.4396 -2.09574 4.69663 0
M  V30 1047 N 97.4216 -1.9818 5.81032 0
M  V30 1048 C 98.7926 -1.81865 5.92727 0
M  V30 1049 C 100.848 -1.96048 4.57678 0
M  V30 1050 C 99.5506 -1.41992 7.05146 0
M  V30 1051 C 101.577 -1.57579 5.7002 0
M  V30 1052 C 100.939 -1.30754 6.92158 0
M  V30 1053 H 97.0376 -0.545896 0.55993 0
M  V30 1054 H 99.6216 -0.853373 1.75002 0
M  V30 1055 H 97.7926 -3.36657 1.93692 0
M  V30 1056 H 99.5246 -3.40916 2.18078 0
M  V30 1057 H 96.2796 -2.53456 4.00071 0
M  V30 1058 H 96.7036 -1.81691 6.52163 0
M  V30 1059 H 101.346 -2.15455 3.63784 0
M  V30 1060 H 99.0636 -1.21327 7.9894 0
M  V30 1061 H 102.65 -1.47718 5.62735 0
M  V30 1062 H 101.53 -1.01432 7.77612 0
M  V30 1063 N 99.0327 -1.24633 -0.964593 0
M  V30 1064 C 100.31 -0.995809 -1.68354 0
M  V30 1065 C 100.69 0.480964 -2.05548 0
M  V30 1066 O 100.038 1.45599 -1.76105 0
M  V30 1067 C 100.248 -1.92177 -2.91323 0
M  V30 1068 C 101.596 -2.19446 -3.63495 0
M  V30 1069 O 102.62 -1.89855 -3.01386 0
M  V30 1070 O 101.479 -2.69714 -4.75307 0
M  V30 1071 H 98.5727 -0.376854 -0.736146 0
M  V30 1072 H 101.119 -1.35745 -1.0184 0
M  V30 1073 H 99.8907 -2.91938 -2.60553 0
M  V30 1074 H 99.5137 -1.56349 -3.65569 0
M  V30 1075 N 100.511 1.16574 -1.06058 0
M  V30 1076 C 101.474 2.19085 -0.673392 0
M  V30 1077 C 102.474 1.5835 0.279648 0
M  V30 1078 O 103.664 1.74088 0.0623488 0
M  V30 1079 C 100.796 3.40899 0.00954234 0
M  V30 1080 H 101.989 2.54853 -1.58081 0
M  V30 1081 H 99.5418 1.30808 -0.855516 0
M  V30 1082 H 100.277 3.10684 0.929826 0
M  V30 1083 H 100.062 3.86233 -0.67573 0
M  V30 1084 H 101.552 4.1675 0.266245 0
M  V30 1085 N 101.989 0.842826 1.3317 0
M  V30 1086 C 103.217 0.454055 2.01856 0
M  V30 1087 C 103.632 -0.94587 1.63397 0
M  V30 1088 O 102.989 -1.61534 0.849302 0
M  V30 1089 C 103.04 0.569715 3.56982 0
M  V30 1090 O 102.761 1.91448 3.94055 0
M  V30 1091 C 104.262 0.178412 4.42941 0
M  V30 1092 H 101.482 0.17979 0.646465 0
M  V30 1093 H 104.026 1.1365 1.70012 0
M  V30 1094 H 102.181 -0.0648587 3.87346 0
M  V30 1095 H 102.595 1.90282 4.88767 0
M  V30 1096 H 104.069 0.310376 5.51127 0
M  V30 1097 H 104.546 -0.880056 4.30293 0
M  V30 1098 H 105.152 0.787579 4.17944 0
M  V30 1099 N 103.467 -1.45747 0.599634 0
M  V30 1100 C 104.43 -2.28917 -0.113835 0
M  V30 1101 C 105.43 -1.3933 -0.802729 0
M  V30 1102 O 106.62 -1.61534 -0.652103 0
M  V30 1103 C 103.752 -3.20152 -1.17114 0
M  V30 1104 H 104.945 -2.93478 0.617289 0
M  V30 1105 H 102.498 -1.52137 0.358327 0
M  V30 1106 H 103.233 -2.60374 -1.93329 0
M  V30 1107 H 103.018 -3.86133 -0.681468 0
M  V30 1108 H 104.508 -3.82708 -1.67105 0
M  V30 1109 N 104.945 -0.338344 -1.53925 0
M  V30 1110 C 106.173 0.261298 -2.05243 0
M  V30 1111 C 106.588 1.44625 -1.21363 0
M  V30 1112 O 105.945 1.80811 -0.247736 0
M  V30 1113 C 105.996 0.681412 -3.5502 0
M  V30 1114 O 105.717 -0.456414 -4.35716 0
M  V30 1115 C 107.218 1.34232 -4.22489 0
M  V30 1116 H 104.438 0.0513685 -0.669031 0
M  V30 1117 H 106.982 -0.488822 -1.98572 0
M  V30 1118 H 105.137 1.38148 -3.61931 0
M  V30 1119 H 105.551 -0.122564 -5.24357 0
M  V30 1120 H 107.025 1.58708 -5.28693 0
M  V30 1121 H 107.502 2.29426 -3.74514 0
M  V30 1122 H 108.108 0.684424 -4.19757 0
M  V30 1123 N 106.423 1.57458 -0.0668435 0
M  V30 1124 C 107.653 1.97337 0.611677 0
M  V30 1125 C 108.061 0.943744 1.63982 0
M  V30 1126 O 107.404 -0.0785584 1.83532 0
M  V30 1127 C 107.466 3.33511 1.34205 0
M  V30 1128 C 107.13 4.54598 0.467941 0
M  V30 1129 C 108.127 5.19186 -0.272439 0
M  V30 1130 C 105.812 5.0075 0.39427 0
M  V30 1131 C 107.806 6.28274 -1.07476 0
M  V30 1132 C 105.493 6.09711 -0.411729 0
M  V30 1133 C 106.491 6.73335 -1.14492 0
M  V30 1134 O 106.179 7.80199 -1.93763 0
M  V30 1135 H 105.911 0.654042 0.170893 0
M  V30 1136 H 108.465 2.04961 -0.134289 0
M  V30 1137 H 106.695 3.22487 2.13398 0
M  V30 1138 H 108.384 3.58029 1.91233 0
M  V30 1139 H 109.15 4.84477 -0.225086 0
M  V30 1140 H 105.029 4.51009 0.954569 0
M  V30 1141 H 108.573 6.77866 -1.64755 0
M  V30 1142 H 104.47 6.43854 -0.460664 0
M  V30 1143 H 105.238 7.97053 -1.86142 0
M  V30 1144 N 107.901 -0.206675 1.56239 0
M  V30 1145 C 108.834 -1.28383 1.88661 0
M  V30 1146 C 109.812 -1.44504 0.745481 0
M  V30 1147 O 110.996 -1.60079 0.995336 0
M  V30 1148 C 108.123 -2.65211 2.10667 0
M  V30 1149 C 107.169 -2.66025 3.33366 0
M  V30 1150 S 108.002 -2.18609 4.88846 0
M  V30 1151 C 109.158 -3.57283 5.13906 0
M  V30 1152 H 109.391 -1.00691 2.7973 0
M  V30 1153 H 106.924 -0.409627 1.48867 0
M  V30 1154 H 108.882 -3.43979 2.24029 0
M  V30 1155 H 107.543 -2.90121 1.20369 0
M  V30 1156 H 106.736 -3.66607 3.45855 0
M  V30 1157 H 106.338 -1.95331 3.18938 0
M  V30 1158 H 108.63 -4.53074 5.03717 0
M  V30 1159 H 109.573 -3.49699 6.15724 0
M  V30 1160 H 109.981 -3.51659 4.41583 0
M  V30 1161 N 109.379 -1.50304 -0.473955 0
M  V30 1162 C 110.626 -1.6115 -1.22625 0
M  V30 1163 C 110.954 -0.310517 -1.92005 0
M  V30 1164 O 110.209 0.703419 -1.82621 0
M  V30 1165 C 110.508 -2.73938 -2.29549 0
M  V30 1166 C 110.174 -4.14519 -1.7744 0
M  V30 1167 C 108.836 -4.5277 -1.62949 0
M  V30 1168 C 111.188 -5.02392 -1.3875 0
M  V30 1169 C 108.516 -5.76639 -1.08187 0
M  V30 1170 C 110.868 -6.26805 -0.854309 0
M  V30 1171 C 109.532 -6.63861 -0.696011 0
M  V30 1172 H 108.802 -0.589691 -0.448715 0
M  V30 1173 H 111.449 -1.84228 -0.522705 0
M  V30 1174 H 109.754 -2.44937 -3.05799 0
M  V30 1175 H 111.451 -2.79534 -2.87509 0
M  V30 1176 H 108.041 -3.8434 -1.89685 0
M  V30 1177 H 112.225 -4.73474 -1.4878 0
M  V30 1178 H 107.481 -6.04027 -0.946666 0
M  V30 1179 H 111.655 -6.94258 -0.545843 0
M  V30 1180 H 109.282 -7.59722 -0.26952 0
M  V30 1181 N 110.857 0.726932 -1.39834 0
M  V30 1182 C 111.807 1.83232 -1.35683 0
M  V30 1183 C 112.791 1.59155 -0.236295 0
M  V30 1184 O 113.983 1.70522 -0.474488 0
M  V30 1185 C 111.112 3.21246 -1.21062 0
M  V30 1186 C 110.198 3.51125 -2.37849 0
M  V30 1187 N 110.589 3.51889 -3.63329 0
M  V30 1188 C 108.887 3.81527 -2.30982 0
M  V30 1189 C 109.588 3.79791 -4.40606 0
M  V30 1190 N 108.564 3.97971 -3.70297 0
M  V30 1191 H 112.366 1.8214 -2.30656 0
M  V30 1192 H 109.88 0.925545 -1.33444 0
M  V30 1193 H 111.877 4.00387 -1.16171 0
M  V30 1194 H 110.537 3.23572 -0.270458 0
M  V30 1195 H 111.548 3.33008 -3.96643 0
M  V30 1196 H 108.225 3.91411 -1.45272 0
M  V30 1197 H 109.615 3.86783 -5.49408 0
M  V30 1198 N 112.336 1.25143 0.95797 0
M  V30 1199 C 113.266 1.07711 2.07173 0
M  V30 1200 C 114.247 -0.0128462 1.70095 0
M  V30 1201 O 115.432 0.156061 1.93572 0
M  V30 1202 C 112.562 0.691503 3.40346 0
M  V30 1203 C 111.516 1.73132 3.9142 0
M  V30 1204 C 110.842 1.20049 5.21049 0
M  V30 1205 C 112.142 3.1294 4.1817 0
M  V30 1206 H 113.836 2.00873 2.22014 0
M  V30 1207 H 111.382 0.967191 1.06684 0
M  V30 1208 H 113.335 0.556505 4.17709 0
M  V30 1209 H 112.059 -0.275819 3.25433 0
M  V30 1210 H 110.718 1.8547 3.16222 0
M  V30 1211 H 110.366 0.223499 5.02503 0
M  V30 1212 H 110.066 1.89545 5.56189 0
M  V30 1213 H 111.59 1.07782 6.01012 0
M  V30 1214 H 113.004 3.03775 4.86203 0
M  V30 1215 H 111.401 3.79875 4.64559 0
M  V30 1216 H 112.471 3.6025 3.24573 0
M  V30 1217 N 113.814 -1.1601 1.06675 0
M  V30 1218 C 114.777 -2.18724 0.685001 0
M  V30 1219 C 115.777 -1.58496 -0.271246 0
M  V30 1220 O 116.967 -1.74119 -0.0531156 0
M  V30 1221 C 114.099 -3.40899 0.00853648 0
M  V30 1222 H 115.292 -2.54011 1.59431 0
M  V30 1223 H 112.845 -1.30352 0.862441 0
M  V30 1224 H 113.58 -3.11173 -0.913337 0
M  V30 1225 H 113.365 -3.8587 0.696204 0
M  V30 1226 H 114.855 -4.16886 -0.24414 0
M  V30 1227 N 115.292 -0.849877 -1.32721 0
M  V30 1228 C 116.222 -0.306308 -2.31482 0
M  V30 1229 C 117.203 0.591952 -1.59468 0
M  V30 1230 O 118.388 0.513199 -1.87296 0
M  V30 1231 C 115.518 0.510204 -3.43532 0
M  V30 1232 C 114.472 -0.293209 -4.26994 0
M  V30 1233 C 113.798 0.647743 -5.30762 0
M  V30 1234 C 115.098 -1.51634 -4.99804 0
M  V30 1235 H 116.792 -1.13153 -2.77195 0
M  V30 1236 H 114.338 -0.545553 -1.33266 0
M  V30 1237 H 116.291 0.900856 -4.11658 0
M  V30 1238 H 115.015 1.36874 -2.96535 0
M  V30 1239 H 113.674 -0.665555 -3.60508 0
M  V30 1240 H 113.322 1.50299 -4.8002 0
M  V30 1241 H 113.022 0.11422 -5.87489 0
M  V30 1242 H 114.546 1.03567 -6.01753 0
M  V30 1243 H 115.96 -1.19824 -5.60638 0
M  V30 1244 H 114.357 -1.98745 -5.66234 0
M  V30 1245 H 115.427 -2.28018 -4.27943 0
M  V30 1246 N 116.77 1.45427 -0.607355 0
M  V30 1247 C 117.995 2.07124 -0.107006 0
M  V30 1248 C 118.42 1.44906 1.19933 0
M  V30 1249 O 117.778 0.541687 1.73019 0
M  V30 1250 C 117.826 3.60595 0.0194119 0
M  V30 1251 O 116.93 3.98285 1.0697 0
M  V30 1252 H 116.271 0.659868 -0.0739597 0
M  V30 1253 H 118.801 1.86683 -0.837297 0
M  V30 1254 H 118.811 4.07419 0.2177 0
M  V30 1255 H 117.486 4.05266 -0.934453 0
M  V30 1256 H 116.063 3.63133 0.847889 0
M  V30 1257 N 118.248 0.346503 1.53744 0
M  V30 1258 C 119.525 -0.304532 1.93215 0
M  V30 1259 C 119.905 -1.67993 1.27834 0
M  V30 1260 O 119.253 -2.24411 0.430352 0
M  V30 1261 C 119.463 -0.373852 3.46992 0
M  V30 1262 C 120.811 -0.62329 4.2 0
M  V30 1263 O 121.835 -0.455847 3.53271 0
M  V30 1264 O 120.694 -0.947879 5.38217 0
M  V30 1265 H 117.788 -0.178318 0.807547 0
M  V30 1266 H 120.334 0.397895 1.64969 0
M  V30 1267 H 119.106 0.591224 3.86808 0
M  V30 1268 H 118.729 -1.12294 3.81413 0
M  V30 1269 N 119.726 -1.57421 0.075193 0
M  V30 1270 C 120.954 -1.97946 -0.602076 0
M  V30 1271 C 121.369 -0.953674 -1.62943 0
M  V30 1272 O 120.726 0.0592551 -1.82404 0
M  V30 1273 C 120.777 -3.38546 -1.26762 0
M  V30 1274 O 120.498 -4.37195 -0.281376 0
M  V30 1275 C 121.999 -3.93966 -2.03239 0
M  V30 1276 H 119.219 -0.650918 -0.162931 0
M  V30 1277 H 121.763 -2.03959 0.148601 0
M  V30 1278 H 119.918 -3.33609 -1.96936 0
M  V30 1279 H 120.332 -5.18975 -0.759267 0
M  V30 1280 H 121.806 -4.94555 -2.45193 0
M  V30 1281 H 122.283 -3.30693 -2.8903 0
M  V30 1282 H 122.889 -4.02315 -1.37924 0
M  V30 1283 N 121.204 0.198386 -1.56346 0
M  V30 1284 C 122.134 1.24865 -1.9731 0
M  V30 1285 C 123.115 1.47651 -0.844576 0
M  V30 1286 O 124.3 1.59444 -1.10866 0
M  V30 1287 C 121.43 2.59358 -2.30977 0
M  V30 1288 C 120.384 2.5119 -3.46537 0
M  V30 1289 C 119.71 3.89926 -3.65871 0
M  V30 1290 C 121.01 2.03977 -4.80823 0
M  V30 1291 H 122.704 0.908252 -2.85291 0
M  V30 1292 H 120.25 0.435462 -1.37258 0
M  V30 1293 H 122.203 3.33011 -2.58228 0
M  V30 1294 H 120.927 2.95132 -1.39874 0
M  V30 1295 H 119.586 1.79993 -3.19371 0
M  V30 1296 H 119.234 4.23046 -2.72105 0
M  V30 1297 H 118.934 3.85336 -4.4361 0
M  V30 1298 H 120.458 4.65205 -3.95495 0
M  V30 1299 H 121.872 2.67386 -5.07127 0
M  V30 1300 H 120.269 2.10397 -5.62008 0
M  V30 1301 H 121.339 0.992861 -4.74626 0
M  V30 1302 N 122.682 1.50554 0.465978 0
M  V30 1303 C 123.912 1.65323 1.23903 0
M  V30 1304 C 124.32 0.338051 1.86155 0
M  V30 1305 O 123.663 -0.690518 1.70228 0
M  V30 1306 C 123.725 2.69048 2.3844 0
M  V30 1307 C 123.389 4.12462 1.96784 0
M  V30 1308 C 124.386 4.98168 1.48745 0
M  V30 1309 C 122.071 4.58407 2.05349 0
M  V30 1310 C 124.065 6.27868 1.0982 0
M  V30 1311 C 121.752 5.88112 1.66035 0
M  V30 1312 C 122.75 6.72668 1.18349 0
M  V30 1313 O 122.438 7.99951 0.795825 0
M  V30 1314 H 122.17 0.558629 0.38067 0
M  V30 1315 H 124.724 1.97561 0.562022 0
M  V30 1316 H 122.954 2.32062 3.09328 0
M  V30 1317 H 124.643 2.72985 3.0039 0
M  V30 1318 H 125.409 4.63885 1.41546 0
M  V30 1319 H 121.288 3.92735 2.41414 0
M  V30 1320 H 124.832 6.93819 0.725293 0
M  V30 1321 H 120.729 6.21914 1.72895 0
M  V30 1322 H 121.497 8.13265 0.924222 0
M  V30 1323 N 124.16 -0.719506 1.40217 0
M  V30 1324 C 125.406 -1.48152 1.38488 0
M  V30 1325 C 125.739 -1.94195 -0.0141867 0
M  V30 1326 O 125.014 -1.67884 -0.982096 0
M  V30 1327 C 125.297 -2.71035 2.37091 0
M  V30 1328 C 125.15 -2.30912 3.86005 0
M  V30 1329 C 126.469 -3.73182 2.33288 0
M  V30 1330 H 123.588 -0.537395 0.504357 0
M  V30 1331 H 126.23 -0.821472 1.71324 0
M  V30 1332 H 124.38 -3.27352 2.0922 0
M  V30 1333 H 126.052 -1.80107 4.24687 0
M  V30 1334 H 124.295 -1.62958 4.02029 0
M  V30 1335 H 124.966 -3.18978 4.50508 0
M  V30 1336 H 127.442 -3.26485 2.57966 0
M  V30 1337 H 126.318 -4.56806 3.04334 0
M  V30 1338 H 126.579 -4.21202 1.34317 0
M  V30 1339 N 125.638 -1.25649 -0.95132 0
M  V30 1340 C 126.568 -1.08808 -2.06599 0
M  V30 1341 C 127.549 0.00382547 -1.701 0
M  V30 1342 O 128.734 -0.166325 -1.93486 0
M  V30 1343 C 125.864 -0.709542 -3.39975 0
M  V30 1344 C 124.818 -1.75206 -3.90496 0
M  V30 1345 C 124.144 -1.22811 -5.20405 0
M  V30 1346 C 125.444 -3.15153 -4.16504 0
M  V30 1347 H 127.138 -2.02048 -2.20946 0
M  V30 1348 H 124.684 -0.972835 -1.06169 0
M  V30 1349 H 126.637 -0.578649 -4.17408 0
M  V30 1350 H 125.361 0.258556 -3.25575 0
M  V30 1351 H 124.02 -1.87145 -3.15234 0
M  V30 1352 H 123.668 -0.250145 -5.02378 0
M  V30 1353 H 123.368 -1.92492 -5.55176 0
M  V30 1354 H 124.892 -1.10968 -6.00432 0
M  V30 1355 H 126.306 -3.06349 -4.84586 0
M  V30 1356 H 124.703 -3.82333 -4.62538 0
M  V30 1357 H 125.773 -3.61966 -3.22658 0
M  V30 1358 N 127.117 1.15442 -1.07289 0
M  V30 1359 C 128.342 1.90638 -0.816828 0
M  V30 1360 C 128.767 1.77445 0.624083 0
M  V30 1361 O 128.125 1.10671 1.43602 0
M  V30 1362 C 128.173 3.39008 -1.22906 0
M  V30 1363 O 127.277 4.10701 -0.373975 0
M  V30 1364 H 126.618 0.593555 -0.297638 0
M  V30 1365 H 129.148 1.46198 -1.43134 0
M  V30 1366 H 129.158 3.89801 -1.20497 0
M  V30 1367 H 127.833 3.47929 -2.27856 0
M  V30 1368 H 126.41 3.70046 -0.460499 0
M  V30 1369 N 128.595 0.856903 1.32268 0
M  V30 1370 C 129.525 0.31858 2.31316 0
M  V30 1371 C 130.506 -0.583487 1.59779 0
M  V30 1372 O 131.691 -0.503259 1.87566 0
M  V30 1373 C 128.821 -0.491979 3.43798 0
M  V30 1374 C 127.775 0.315849 4.26833 0
M  V30 1375 C 127.101 -0.619586 5.31098 0
M  V30 1376 C 128.401 1.54282 4.98993 0
M  V30 1377 H 130.095 1.14621 2.76591 0
M  V30 1378 H 127.641 0.552613 1.32974 0
M  V30 1379 H 129.594 -0.879012 4.1213 0
M  V30 1380 H 128.318 -1.35299 2.97257 0
M  V30 1381 H 126.977 0.684664 3.6015 0
M  V30 1382 H 126.625 -1.47751 4.8081 0
M  V30 1383 H 126.325 -0.0830621 5.87541 0
M  V30 1384 H 127.849 -1.00375 6.02293 0
M  V30 1385 H 129.263 1.22796 5.59995 0
M  V30 1386 H 127.66 2.01745 5.65172 0
M  V30 1387 H 128.73 2.30285 4.26728 0
M  V30 1388 N 130.073 -1.45103 0.615059 0
M  V30 1389 C 131.484 -1.85654 0.197383 0
M  V30 1390 C 131.835 -1.51433 -1.24749 0
M  V30 1391 O 130.96 -0.944608 -1.94695 0
M  V30 1392 C 131.555 -3.36972 0.351448 0
M  V30 1393 C 130.114 -3.76398 -0.011593 0
M  V30 1394 C 129.261 -2.69024 0.672394 0
M  V30 1395 H 132.212 -1.35797 0.821263 0
M  V30 1396 H 132.233 -3.78239 -0.414227 0
M  V30 1397 H 131.745 -3.61847 1.40314 0
M  V30 1398 H 129.846 -3.5714 -1.06217 0
M  V30 1399 H 129.959 -4.77532 0.387265 0
M  V30 1400 H 128.323 -2.54465 0.109284 0
M  V30 1401 H 129.106 -2.96735 1.72636 0
M  V30 1402 N 131.551 -0.354651 -1.53558 0
M  V30 1403 C 132.779 0.239515 -2.05509 0
M  V30 1404 C 133.194 1.4333 -1.2289 0
M  V30 1405 O 132.551 1.80538 -0.266899 0
M  V30 1406 C 132.602 0.643719 -3.55723 0
M  V30 1407 O 132.323 -0.502602 -4.35207 0
M  V30 1408 C 133.824 1.29743 -4.23889 0
M  V30 1409 H 131.044 0.0442697 -0.669538 0
M  V30 1410 H 133.588 -0.509856 -1.98042 0
M  V30 1411 H 131.743 1.34302 -3.63376 0
M  V30 1412 H 132.157 -0.178172 -5.24197 0
M  V30 1413 H 133.631 1.53091 -5.30346 0
M  V30 1414 H 134.108 2.25441 -3.76926 0
M  V30 1415 H 134.714 0.639865 -4.20459 0
M  V30 1416 N 133.029 1.57378 -0.0835403 0
M  V30 1417 C 133.959 2.1641 0.87686 0
M  V30 1418 C 134.94 1.09429 1.30228 0
M  V30 1419 O 136.125 1.37516 1.37124 0
M  V30 1420 C 133.255 2.73517 2.14022 0
M  V30 1421 C 132.209 3.85769 1.85381 0
M  V30 1422 C 131.535 4.29529 3.18448 0
M  V30 1423 C 132.835 5.09486 1.14984 0
M  V30 1424 H 134.529 2.96914 0.385059 0
M  V30 1425 H 132.075 1.42823 0.18377 0
M  V30 1426 H 134.028 3.13463 2.81636 0
M  V30 1427 H 132.752 1.90252 2.65465 0
M  V30 1428 H 131.411 3.46345 1.20169 0
M  V30 1429 H 131.059 3.43169 3.67755 0
M  V30 1430 H 130.759 5.05204 3.00071 0
M  V30 1431 H 132.283 4.72099 3.8724 0
M  V30 1432 H 133.697 5.46674 1.72687 0
M  V30 1433 H 132.094 5.90515 1.06826 0
M  V30 1434 H 133.164 4.84724 0.130749 0
M  V30 1435 N 134.507 -0.190092 1.56449 0
M  V30 1436 C 135.756 -0.907912 1.80111 0
M  V30 1437 C 136.069 -1.84214 0.657619 0
M  V30 1438 O 137.275 -2.60094 0.778663 0
M  V30 1439 C 135.731 -1.66485 3.19078 0
M  V30 1440 C 135.339 -0.7752 4.41242 0
M  V30 1441 C 137.083 -2.37201 3.52045 0
M  V30 1442 C 134.99 -1.53129 5.71231 0
M  V30 1443 H 133.92 -0.34276 0.671589 0
M  V30 1444 H 136.571 -0.161109 1.82791 0
M  V30 1445 H 134.953 -2.45572 3.10661 0
M  V30 1446 H 136.127 -0.0226298 4.60794 0
M  V30 1447 H 134.442 -0.178627 4.16017 0
M  V30 1448 H 137.039 -2.94329 4.46402 0
M  V30 1449 H 137.382 -3.11632 2.76028 0
M  V30 1450 H 137.915 -1.65075 3.61932 0
M  V30 1451 H 134.654 -0.82967 6.50228 0
M  V30 1452 H 134.174 -2.25767 5.55688 0
M  V30 1453 H 135.853 -2.08377 6.12526 0
M  V30 1454 N 135.985 -1.50799 -0.457987 0
M  V30 1455 C 137.215 -1.65977 -1.23025 0
M  V30 1456 C 137.623 -0.347918 -1.85974 0
M  V30 1457 O 136.966 0.68148 -1.70592 0
M  V30 1458 C 137.028 -2.70309 -2.3701 0
M  V30 1459 C 136.692 -4.135 -1.94594 0
M  V30 1460 C 137.689 -4.98949 -1.46101 0
M  V30 1461 C 135.374 -4.5949 -2.02915 0
M  V30 1462 C 137.368 -6.28442 -1.06489 0
M  V30 1463 C 135.055 -5.88984 -1.62914 0
M  V30 1464 C 136.053 -6.73286 -1.1478 0
M  V30 1465 O 135.741 -8.00362 -0.75339 0
M  V30 1466 H 135.473 -0.56064 -0.377702 0
M  V30 1467 H 138.027 -1.97857 -0.551537 0
M  V30 1468 H 136.257 -2.337 -3.08093 0
M  V30 1469 H 137.946 -2.74574 -2.98938 0
M  V30 1470 H 138.712 -4.6463 -1.39084 0
M  V30 1471 H 134.591 -3.94009 -2.39328 0
M  V30 1472 H 138.135 -6.94194 -0.688488 0
M  V30 1473 H 134.032 -6.22822 -1.69595 0
M  V30 1474 H 134.8 -8.13744 -0.88108 0
M  V30 1475 N 137.463 0.71206 -1.40597 0
M  V30 1476 C 138.693 1.49894 -1.42181 0
M  V30 1477 C 139.101 1.89189 -0.0208078 0
M  V30 1478 O 138.444 1.56223 0.966436 0
M  V30 1479 C 138.506 2.80215 -2.25211 0
M  V30 1480 C 138.17 2.63221 -3.73582 0
M  V30 1481 C 139.167 2.30249 -4.66135 0
M  V30 1482 C 136.852 2.79376 -4.17438 0
M  V30 1483 C 138.846 2.13645 -6.00529 0
M  V30 1484 C 136.533 2.6239 -5.51901 0
M  V30 1485 C 137.531 2.29573 -6.43262 0
M  V30 1486 O 137.219 2.12719 -7.75246 0
M  V30 1487 H 136.951 0.469031 -0.486812 0
M  V30 1488 H 139.505 0.88564 -1.85326 0
M  V30 1489 H 137.735 3.4389 -1.76852 0
M  V30 1490 H 139.424 3.41947 -2.18694 0
M  V30 1491 H 140.19 2.17398 -4.33547 0
M  V30 1492 H 136.069 3.03906 -3.46644 0
M  V30 1493 H 139.613 1.87953 -6.71803 0
M  V30 1494 H 135.51 2.74826 -5.84073 0
M  V30 1495 H 136.278 2.27611 -7.86216 0
M  V30 1496 N 138.941 1.26152 0.944643 0
M  V30 1497 C 140.171 1.14094 1.72239 0
M  V30 1498 C 140.579 -0.306931 1.86694 0
M  V30 1499 O 139.922 -1.22222 1.3714 0
M  V30 1500 C 139.984 1.73316 3.14963 0
M  V30 1501 C 139.648 3.2239 3.23904 0
M  V30 1502 C 140.645 4.19252 3.07447 0
M  V30 1503 C 138.33 3.62788 3.47405 0
M  V30 1504 C 140.324 5.54491 3.14353 0
M  V30 1505 C 138.011 4.98162 3.53947 0
M  V30 1506 C 139.009 5.93823 3.37436 0
M  V30 1507 O 138.697 7.26732 3.43679 0
M  V30 1508 H 138.429 0.398292 0.546205 0
M  V30 1509 H 140.983 1.67201 1.19301 0
M  V30 1510 H 139.213 1.14667 3.69308 0
M  V30 1511 H 140.902 1.56214 3.74636 0
M  V30 1512 H 141.668 3.8938 2.8915 0
M  V30 1513 H 137.547 2.88816 3.59313 0
M  V30 1514 H 141.091 6.29137 3.01384 0
M  V30 1515 H 136.988 5.27695 3.71763 0
M  V30 1516 H 137.756 7.3496 3.60245 0
M  V30 1517 N 140.419 -1.14872 1.07899 0
M  V30 1518 C 141.382 -2.17986 0.708161 0
M  V30 1519 C 142.382 -1.58775 -0.25442 0
M  V30 1520 O 143.572 -1.74166 -0.034645 0
M  V30 1521 C 140.704 -3.40871 0.0446929 0
M  V30 1522 H 141.897 -2.52306 1.62116 0
M  V30 1523 H 139.45 -1.2943 0.876218 0
M  V30 1524 H 140.185 -3.12124 -0.880281 0
M  V30 1525 H 139.97 -3.8511 0.737091 0
M  V30 1526 H 141.46 -4.17121 -0.19991 0
M  V30 1527 N 141.898 -0.863906 -1.31812 0
M  V30 1528 C 142.861 -0.320212 -2.26952 0
M  V30 1529 C 143.861 0.525369 -1.51975 0
M  V30 1530 O 145.051 0.335547 -1.70938 0
M  V30 1531 C 142.183 0.545919 -3.365 0
M  V30 1532 H 143.376 -1.16004 -2.76556 0
M  V30 1533 H 140.929 -0.638995 -1.42641 0
M  V30 1534 H 141.664 1.40718 -2.92179 0
M  V30 1535 H 141.449 -0.0594674 -3.92055 0
M  V30 1536 H 142.939 0.918796 -4.07367 0
M  V30 1537 N 143.376 1.44774 -0.622745 0
M  V30 1538 C 144.326 2.2774 0.108889 0
M  V30 1539 C 145.31 1.38189 0.824175 0
M  V30 1540 O 146.502 1.62063 0.711664 0
M  V30 1541 C 143.631 3.25353 1.09546 0
M  V30 1542 C 142.717 4.22392 0.380232 0
M  V30 1543 N 143.108 5.02388 -0.586535 0
M  V30 1544 C 141.406 4.41588 0.625792 0
M  V30 1545 C 142.107 5.72894 -1.00834 0
M  V30 1546 N 141.083 5.42479 -0.348878 0
M  V30 1547 H 144.885 2.86993 -0.63341 0
M  V30 1548 H 142.399 1.5611 -0.447589 0
M  V30 1549 H 144.396 3.83538 1.63414 0
M  V30 1550 H 143.056 2.6766 1.83815 0
M  V30 1551 H 144.067 5.0885 -0.963975 0
M  V30 1552 H 140.744 3.95003 1.352 0
M  V30 1553 H 142.134 6.47158 -1.80656 0
M  V30 1554 N 144.854 0.36279 1.53368 0
M  V30 1555 C 145.802 -0.500155 2.27159 0
M  V30 1556 C 146.796 -1.08575 1.3003 0
M  V30 1557 O 148.002 -1.02927 1.47668 0
M  V30 1558 H 144.377 -0.180009 0.730138 0
M  V30 1559 H 146.348 0.14401 2.98052 0
M  V30 1560 C 145.097 -1.62937 3.07159 0
M  V30 1561 H 144.42 -1.18806 3.8174 0
M  V30 1562 H 145.86 -2.20795 3.61975 0
M  V30 1563 C 144.319 -2.57007 2.17829 0
M  V30 1564 O 144.849 -3.59752 1.78721 0
M  V30 1565 N 143.055 -2.26131 1.82518 0
M  V30 1566 H 142.602 -1.42616 2.14519 0
M  V30 1567 H 142.56 -2.89327 1.23034 0
M  V30 1568 N 146.332 -1.57332 0.0918853 0
M  V30 1569 C 147.282 -2.10385 -0.87876 0
M  V30 1570 C 148.266 -1.01814 -1.24591 0
M  V30 1571 O 149.458 -1.28093 -1.22152 0
M  V30 1572 C 146.587 -2.68517 -2.13901 0
M  V30 1573 C 145.673 -3.84126 -1.79744 0
M  V30 1574 N 146.064 -4.92288 -1.1613 0
M  V30 1575 C 144.362 -3.93801 -2.09373 0
M  V30 1576 C 145.063 -5.7295 -1.00513 0
M  V30 1577 N 144.039 -5.21876 -1.5214 0
M  V30 1578 H 147.841 -2.91395 -0.38293 0
M  V30 1579 H 145.355 -1.62017 -0.111423 0
M  V30 1580 H 147.352 -3.04852 -2.84378 0
M  V30 1581 H 146.012 -1.88961 -2.64053 0
M  V30 1582 H 147.023 -5.1123 -0.828504 0
M  V30 1583 H 143.7 -3.25249 -2.61762 0
M  V30 1584 H 145.09 -6.69978 -0.507902 0
M  V30 1585 N 147.81 0.181792 -1.56548 0
M  V30 1586 C 149.056 0.896803 -1.82562 0
M  V30 1587 C 149.411 1.80324 -0.670908 0
M  V30 1588 O 148.704 1.8868 0.333235 0
M  V30 1589 C 148.898 1.73728 -3.12335 0
M  V30 1590 C 148.727 0.913714 -4.4032 0
M  V30 1591 C 147.497 0.592903 -5.01809 0
M  V30 1592 C 149.695 0.260164 -5.13642 0
M  V30 1593 N 147.677 -0.247901 -6.13399 0
M  V30 1594 C 149.048 -0.442256 -6.18421 0
M  V30 1595 C 151.103 0.177253 -4.97584 0
M  V30 1596 C 149.806 -1.21971 -7.08883 0
M  V30 1597 C 151.832 -0.586839 -5.88481 0
M  V30 1598 C 151.194 -1.27766 -6.92716 0
M  V30 1599 H 147.293 0.307122 -0.719166 0
M  V30 1600 H 149.877 0.164535 -1.94004 0
M  V30 1601 H 148.048 2.44105 -3.02105 0
M  V30 1602 H 149.78 2.39279 -3.26386 0
M  V30 1603 H 146.535 0.920502 -4.64568 0
M  V30 1604 H 146.959 -0.658304 -6.73792 0
M  V30 1605 H 151.601 0.696993 -4.17015 0
M  V30 1606 H 149.319 -1.75083 -7.88905 0
M  V30 1607 H 152.905 -0.652522 -5.78129 0
M  V30 1608 H 151.785 -1.85943 -7.61836 0
M  V30 1609 N 149.288 1.51039 0.449983 0
M  V30 1610 C 150.699 1.557 1.03026 0
M  V30 1611 C 151.05 0.372939 1.92623 0
M  V30 1612 O 150.175 -0.511771 2.10261 0
M  V30 1613 C 150.77 2.82171 1.87523 0
M  V30 1614 C 149.329 2.89444 2.40622 0
M  V30 1615 C 148.476 2.50228 1.19504 0
M  V30 1616 H 151.427 1.56999 0.231745 0
M  V30 1617 H 151.448 2.65219 2.72835 0
M  V30 1618 H 150.96 3.68331 1.22286 0
M  V30 1619 H 149.061 2.07685 3.0935 0
M  V30 1620 H 149.174 3.92816 2.74285 0
M  V30 1621 H 147.538 2.03139 1.53644 0
M  V30 1622 H 148.321 3.38719 0.558972 0
M  V30 1623 N 150.766 -0.704594 1.40972 0
M  V30 1624 C 152.013 -1.46458 1.39844 0
M  V30 1625 C 152.341 -1.94499 0.00447594 0
M  V30 1626 O 151.596 -1.69275 -0.982057 0
M  V30 1627 C 151.895 -2.698 2.34399 0
M  V30 1628 C 151.561 -2.40464 3.81429 0
M  V30 1629 C 150.223 -2.32174 4.21484 0
M  V30 1630 C 152.575 -2.16086 4.74296 0
M  V30 1631 C 149.903 -1.97589 5.52427 0
M  V30 1632 C 152.255 -1.83011 6.05549 0
M  V30 1633 C 150.919 -1.7321 6.44635 0
M  V30 1634 H 150.189 -0.535927 0.511725 0
M  V30 1635 H 152.836 -0.806124 1.73706 0
M  V30 1636 H 151.141 -3.40536 1.93759 0
M  V30 1637 H 152.838 -3.27919 2.30804 0
M  V30 1638 H 149.428 -2.47808 3.49699 0
M  V30 1639 H 153.612 -2.2144 4.4416 0
M  V30 1640 H 148.868 -1.88547 5.81601 0
M  V30 1641 H 153.042 -1.63164 6.77016 0
M  V30 1642 H 150.669 -1.46179 7.46013 0
M  V30 1643 N 152.244 -1.26651 -0.937939 0
M  V30 1644 C 153.492 -1.12165 -1.68118 0
M  V30 1645 C 153.813 0.334983 -1.92101 0
M  V30 1646 O 153.083 1.23583 -1.52 0
M  V30 1647 H 151.663 -0.412093 -0.623048 0
M  V30 1648 H 154.325 -1.59027 -1.12678 0
M  V30 1649 H 153.421 -1.64289 -2.6536 0
M  V30 1650 N 153.722 1.14298 -1.08507 0
M  V30 1651 C 154.95 1.89219 -0.836876 0
M  V30 1652 C 155.365 1.78638 0.611054 0
M  V30 1653 O 154.722 1.14643 1.41998 0
M  V30 1654 C 154.773 3.39158 -1.25116 0
M  V30 1655 O 154.494 3.49449 -2.64229 0
M  V30 1656 C 155.995 4.31073 -1.03398 0
M  V30 1657 H 153.215 0.599328 -0.301739 0
M  V30 1658 H 155.759 1.44746 -1.44461 0
M  V30 1659 H 153.914 3.81251 -0.687514 0
M  V30 1660 H 154.328 4.42589 -2.81452 0
M  V30 1661 H 155.802 5.34646 -1.37323 0
M  V30 1662 H 156.279 4.3919 0.0289259 0
M  V30 1663 H 156.885 3.94738 -1.58311 0
M  V30 1664 N 155.201 0.870884 1.31352 0
M  V30 1665 C 156.111 0.330783 2.32256 0
M  V30 1666 C 157.127 -0.559767 1.6475 0
M  V30 1667 O 158.303 -0.456263 1.96164 0
M  V30 1668 C 155.368 -0.458137 3.4366 0
M  V30 1669 C 154.429 0.460482 4.26823 0
M  V30 1670 C 153.662 -0.290881 5.32907 0
M  V30 1671 O 153.885 -1.51885 5.49806 0
M  V30 1672 O 152.819 0.351732 6.00871 0
M  V30 1673 H 156.645 1.16718 2.80376 0
M  V30 1674 H 154.23 0.634285 1.35267 0
M  V30 1675 H 156.112 -0.905343 4.1156 0
M  V30 1676 H 154.787 -1.27106 2.97701 0
M  V30 1677 H 153.694 0.956207 3.61673 0
M  V30 1678 H 155.027 1.23903 4.7635 0
M  V30 1679 N 156.679 -1.44442 0.630414 0
M  V30 1680 C 157.928 -2.01267 0.132073 0
M  V30 1681 C 158.241 -1.50172 -1.25331 0
M  V30 1682 O 159.447 -1.9912 -1.84562 0
M  V30 1683 C 157.903 -3.59422 0.185362 0
M  V30 1684 C 157.511 -4.19514 1.57201 0
M  V30 1685 C 159.255 -4.23724 -0.256553 0
M  V30 1686 C 157.162 -5.69891 1.58045 0
M  V30 1687 H 156.092 -0.752619 0.0456092 0
M  V30 1688 H 158.743 -1.65666 0.789106 0
M  V30 1689 H 157.125 -3.92318 -0.538759 0
M  V30 1690 H 158.299 -3.98156 2.31966 0
M  V30 1691 H 156.614 -3.67496 1.95795 0
M  V30 1692 H 159.211 -5.34019 -0.269767 0
M  V30 1693 H 159.554 -3.96013 -1.28372 0
M  V30 1694 H 160.087 -3.95629 0.41505 0
M  V30 1695 H 156.826 -6.02336 2.58597 0
M  V30 1696 H 156.346 -5.93373 0.875725 0
M  V30 1697 H 158.025 -6.33515 1.31408 0
M  V30 1698 N 158.157 -0.370918 -1.53173 0
M  V30 1699 C 159.397 0.217106 -2.03244 0
M  V30 1700 C 159.761 1.45558 -1.25207 0
M  V30 1701 O 160.962 2.11957 -1.65311 0
M  V30 1702 C 159.233 0.496664 -3.53932 0
M  V30 1703 S 160.792 1.0576 -4.25864 0
M  V30 1704 H 157.61 0.0627827 -0.708223 0
M  V30 1705 H 160.212 -0.515019 -1.88594 0
M  V30 1706 H 158.916 -0.412096 -4.08326 0
M  V30 1707 H 158.447 1.25772 -3.72753 0
M  V30 1708 H 160.462 2.34145 -4.37482 0
M  V30 1709 N 159.635 1.57281 -0.100228 0
M  V30 1710 C 160.582 2.14305 0.856858 0
M  V30 1711 C 161.552 1.06296 1.27634 0
M  V30 1712 O 162.737 1.34109 1.35718 0
M  V30 1713 C 159.877 2.73184 2.10866 0
M  V30 1714 C 158.99 3.95442 1.73925 0
M  V30 1715 C 158.125 4.42468 2.93931 0
M  V30 1716 C 157.164 5.57303 2.5314 0
M  V30 1717 N 156.301 5.99158 3.65997 0
M  V30 1718 H 161.141 2.95772 0.363726 0
M  V30 1719 H 158.678 1.46139 0.167858 0
M  V30 1720 H 160.636 3.05442 2.84185 0
M  V30 1721 H 159.266 1.94437 2.57671 0
M  V30 1722 H 158.318 3.69464 0.905554 0
M  V30 1723 H 159.63 4.78769 1.39935 0
M  V30 1724 H 158.784 4.76537 3.75496 0
M  V30 1725 H 157.523 3.58052 3.31134 0
M  V30 1726 H 156.528 5.22857 1.70003 0
M  V30 1727 H 157.753 6.43471 2.17075 0
M  V30 1728 H 155.699 5.17687 4.02909 0
M  V30 1729 H 155.616 6.77295 3.35869 0
M  V30 1730 H 156.884 6.3786 4.48057 0
M  V30 1731 N 161.113 -0.173488 1.56642 0
M  V30 1732 C 162.36 -0.890465 1.81871 0
M  V30 1733 C 162.688 -1.82339 0.67696 0
M  V30 1734 O 161.943 -1.92795 -0.335926 0
M  V30 1735 C 162.242 -1.72069 3.13252 0
M  V30 1736 C 161.908 -0.936878 4.41059 0
M  V30 1737 C 160.57 -0.720545 4.75775 0
M  V30 1738 C 162.922 -0.386919 5.19762 0
M  V30 1739 C 160.25 0.0568829 5.86672 0
M  V30 1740 C 162.602 0.37741 6.31473 0
M  V30 1741 C 161.266 0.604563 6.64757 0
M  V30 1742 H 160.536 -0.325844 0.665512 0
M  V30 1743 H 163.183 -0.155527 1.90867 0
M  V30 1744 H 161.488 -2.52496 2.99588 0
M  V30 1745 H 163.185 -2.27844 3.29982 0
M  V30 1746 H 159.775 -1.11553 4.13828 0
M  V30 1747 H 163.959 -0.541398 4.93338 0
M  V30 1748 H 159.215 0.242635 6.10918 0
M  V30 1749 H 163.389 0.810825 6.91664 0
M  V30 1750 H 161.016 1.20885 7.50527 0
M  V30 1751 N 162.591 -1.51276 -0.441967 0
M  V30 1752 C 163.837 -1.63958 -1.19355 0
M  V30 1753 C 164.17 -0.352543 -1.90973 0
M  V30 1754 O 163.445 0.647627 -1.83401 0
M  V30 1755 C 163.728 -2.83979 -2.21422 0
M  V30 1756 C 163.581 -4.22646 -1.53918 0
M  V30 1757 C 164.9 -2.99521 -3.22451 0
M  V30 1758 H 162.019 -0.596709 -0.432559 0
M  V30 1759 H 164.661 -1.83748 -0.483398 0
M  V30 1760 H 162.811 -2.67237 -2.81987 0
M  V30 1761 H 164.483 -4.51045 -0.967256 0
M  V30 1762 H 162.726 -4.25558 -0.841615 0
M  V30 1763 H 163.397 -5.02609 -2.28229 0
M  V30 1764 H 165.873 -3.14944 -2.71937 0
M  V30 1765 H 164.749 -3.85072 -3.91166 0
M  V30 1766 H 165.01 -2.11391 -3.88287 0
M  V30 1767 N 164.069 0.697108 -1.41344 0
M  V30 1768 C 165.485 1.00751 -1.2378 0
M  V30 1769 C 165.685 2.01105 -0.126066 0
M  V30 1770 O 164.741 2.47295 0.51004 0
M  V30 1771 C 166.054 1.53359 -2.58653 0
M  V30 1772 C 167.602 1.6525 -2.65822 0
M  V30 1773 C 168.077 2.2126 -4.01009 0
M  V30 1774 N 169.568 2.28622 -4.02847 0
M  V30 1775 C 170.303 2.72984 -5.04249 0
M  V30 1776 N 169.799 3.16962 -6.16041 0
M  V30 1777 N 171.592 2.72534 -4.91611 0
M  V30 1778 H 163.743 0.0322662 -2.12375 0
M  V30 1779 H 166.006 0.0768853 -0.944877 0
M  V30 1780 H 165.712 0.870773 -3.4075 0
M  V30 1781 H 165.586 2.51597 -2.81032 0
M  V30 1782 H 167.973 2.30644 -1.84086 0
M  V30 1783 H 168.054 0.655614 -2.47256 0
M  V30 1784 H 167.698 1.56482 -4.83193 0
M  V30 1785 H 167.628 3.21698 -4.16915 0
M  V30 1786 H 170.119 1.97585 -3.22131 0
M  V30 1787 H 170.432 3.49434 -6.89287 0
M  V30 1788 H 168.777 3.14875 -6.1958 0
M  V30 1789 H 171.968 2.37525 -4.0336 0
M  V30 1790 H 172.141 3.06789 -5.70775 0
M  V30 1791 N 165.547 1.27147 0.931209 0
M  V30 1792 C 166.794 1.13278 1.67852 0
M  V30 1793 C 167.122 -0.32204 1.91815 0
M  V30 1794 O 166.377 -1.25224 1.50391 0
M  V30 1795 C 166.676 1.8579 3.05314 0
M  V30 1796 C 166.342 3.35657 3.01073 0
M  V30 1797 C 165.004 3.76536 2.99623 0
M  V30 1798 C 167.356 4.31299 2.92627 0
M  V30 1799 C 164.684 5.11426 2.87506 0
M  V30 1800 C 167.036 5.66242 2.82051 0
M  V30 1801 C 165.7 6.06418 2.7895 0
M  V30 1802 H 164.97 0.414515 0.614214 0
M  V30 1803 H 167.617 1.57712 1.08624 0
M  V30 1804 H 165.922 1.33854 3.68226 0
M  V30 1805 H 167.619 1.72491 3.62005 0
M  V30 1806 H 164.209 3.03146 3.02986 0
M  V30 1807 H 168.393 4.00692 2.92848 0
M  V30 1808 H 163.649 5.41705 2.83489 0
M  V30 1809 H 167.823 6.40026 2.74481 0
M  V30 1810 H 165.45 7.10895 2.69318 0
M  V30 1811 N 167.025 -1.13721 1.09112 0
M  V30 1812 C 167.955 -2.21148 0.749385 0
M  V30 1813 C 168.936 -1.6792 -0.271475 0
M  V30 1814 O 170.121 -1.93693 -0.140251 0
M  V30 1815 C 167.251 -3.46905 0.165659 0
M  V30 1816 C 166.205 -4.13203 1.11567 0
M  V30 1817 C 165.531 -5.33248 0.393809 0
M  V30 1818 C 166.831 -4.60912 2.45678 0
M  V30 1819 H 168.525 -2.4999 1.64758 0
M  V30 1820 H 166.071 -1.20156 0.793626 0
M  V30 1821 H 168.024 -4.21313 -0.085466 0
M  V30 1822 H 166.748 -3.17449 -0.767714 0
M  V30 1823 H 165.407 -3.40758 1.35202 0
M  V30 1824 H 165.055 -5.00054 -0.543599 0
M  V30 1825 H 164.755 -5.78552 1.02721 0
M  V30 1826 H 166.279 -6.10413 0.150908 0
M  V30 1827 H 167.693 -5.26759 2.26269 0
M  V30 1828 H 166.09 -5.16944 3.04776 0
M  V30 1829 H 167.16 -3.75603 3.06677 0
M  V30 1830 N 168.503 -0.877838 -1.30888 0
M  V30 1831 C 169.75 -0.492696 -1.96415 0
M  V30 1832 C 170.078 0.956671 -1.69346 0
M  V30 1833 O 169.333 1.68993 -0.986913 0
M  V30 1834 C 169.632 -0.705748 -3.50363 0
M  V30 1835 C 169.298 -2.1291 -3.97467 0
M  V30 1836 C 167.96 -2.51834 -4.1004 0
M  V30 1837 C 170.312 -3.05702 -4.22132 0
M  V30 1838 C 167.64 -3.82775 -4.44635 0
M  V30 1839 C 169.992 -4.36166 -4.58194 0
M  V30 1840 C 168.656 -4.74993 -4.68975 0
M  V30 1841 H 167.926 -0.18029 -0.718733 0
M  V30 1842 H 170.573 -1.11233 -1.55883 0
M  V30 1843 H 168.878 -0.00303058 -3.918 0
M  V30 1844 H 170.575 -0.387456 -3.99124 0
M  V30 1845 H 167.165 -1.81694 -3.88182 0
M  V30 1846 H 171.349 -2.76853 -4.11906 0
M  V30 1847 H 166.605 -4.12609 -4.51181 0
M  V30 1848 H 170.779 -5.08111 -4.76231 0
M  V30 1849 H 168.406 -5.76495 -4.95537 0
M  V30 1850 N 169.982 1.44106 -0.638065 0
M  V30 1851 C 171.212 2.06037 -0.152394 0
M  V30 1852 C 171.62 1.47808 1.18108 0
M  V30 1853 O 170.963 0.598092 1.73691 0
M  V30 1854 C 171.025 3.59488 0.0293714 0
M  V30 1855 C 170.689 4.4022 -1.22702 0
M  V30 1856 C 171.686 4.73256 -2.15232 0
M  V30 1857 C 169.371 4.8048 -1.46437 0
M  V30 1858 C 171.365 5.45444 -3.29802 0
M  V30 1859 C 169.052 5.52417 -2.61303 0
M  V30 1860 C 170.05 5.84819 -3.52811 0
M  V30 1861 O 169.738 6.55289 -4.65673 0
M  V30 1862 H 169.47 0.671233 -0.0801401 0
M  V30 1863 H 172.024 1.85851 -0.874563 0
M  V30 1864 H 170.254 3.78191 0.806758 0
M  V30 1865 H 171.943 4.03164 0.470475 0
M  V30 1866 H 172.709 4.42684 -1.98131 0
M  V30 1867 H 168.588 4.54676 -0.760977 0
M  V30 1868 H 172.132 5.70653 -4.01249 0
M  V30 1869 H 168.029 5.82404 -2.78344 0
M  V30 1870 H 168.797 6.73762 -4.64744 0
M  V30 1871 N 171.46 0.379036 1.52974 0
M  V30 1872 C 172.706 -0.199244 2.02422 0
M  V30 1873 C 173.061 -1.4532 1.26095 0
M  V30 1874 O 172.354 -1.88377 0.34996 0
M  V30 1875 C 172.548 -0.53096 3.53434 0
M  V30 1876 C 172.377 0.689298 4.44386 0
M  V30 1877 C 171.147 1.20546 4.9071 0
M  V30 1878 C 173.345 1.55856 4.90116 0
M  V30 1879 N 171.327 2.38434 5.65705 0
M  V30 1880 C 172.698 2.58396 5.63588 0
M  V30 1881 C 174.753 1.57986 4.7217 0
M  V30 1882 C 173.456 3.62939 6.21022 0
M  V30 1883 C 175.482 2.6143 5.30479 0
M  V30 1884 C 174.844 3.62693 6.03849 0
M  V30 1885 H 170.943 -0.0352671 0.781204 0
M  V30 1886 H 173.527 0.526614 1.87443 0
M  V30 1887 H 171.698 -1.22588 3.68547 0
M  V30 1888 H 173.43 -1.0955 3.89591 0
M  V30 1889 H 170.185 0.768022 4.67331 0
M  V30 1890 H 170.609 2.98055 6.07859 0
M  V30 1891 H 175.251 0.810475 4.14959 0
M  V30 1892 H 172.969 4.40751 6.77321 0
M  V30 1893 H 176.555 2.63949 5.18481 0
M  V30 1894 H 175.435 4.41424 6.48163 0
M  V30 1895 N 172.938 -1.57226 0.108567 0
M  V30 1896 C 173.886 -2.16002 -0.862885 0
M  V30 1897 C 174.88 -1.10644 -1.28274 0
M  V30 1898 O 176.086 -1.28966 -1.2557 0
M  V30 1899 H 172.461 -0.691148 -0.296342 0
M  V30 1900 H 174.432 -2.96427 -0.342575 0
M  V30 1901 C 173.181 -2.76576 -2.10716 0
M  V30 1902 H 172.504 -3.5734 -1.793 0
M  V30 1903 H 173.944 -3.21253 -2.76717 0
M  V30 1904 C 172.403 -1.73137 -2.89007 0
M  V30 1905 O 172.933 -1.17842 -3.84026 0
M  V30 1906 N 171.139 -1.43317 -2.52801 0
M  V30 1907 H 170.686 -1.88473 -1.75601 0
M  V30 1908 H 170.644 -0.743485 -3.05483 0
M  V30 1909 N 174.416 0.165178 -1.56732 0
M  V30 1910 C 175.346 1.20651 -1.99914 0
M  V30 1911 C 176.327 1.45827 -0.875705 0
M  V30 1912 O 177.512 1.57057 -1.14223 0
M  V30 1913 C 174.642 2.54401 -2.36427 0
M  V30 1914 C 173.596 2.43782 -3.51787 0
M  V30 1915 C 172.922 3.82078 -3.7406 0
M  V30 1916 C 174.222 1.93732 -4.85041 0
M  V30 1917 H 175.916 0.847534 -2.87154 0
M  V30 1918 H 173.462 0.40625 -1.38151 0
M  V30 1919 H 175.415 3.27458 -2.65234 0
M  V30 1920 H 174.139 2.92098 -1.46103 0
M  V30 1921 H 172.798 1.73178 -3.23117 0
M  V30 1922 H 172.446 4.17179 -2.81017 0
M  V30 1923 H 172.146 3.7584 -4.51684 0
M  V30 1924 H 173.67 4.56712 -4.05274 0
M  V30 1925 H 175.084 2.56569 -5.12684 0
M  V30 1926 H 173.481 1.98428 -5.66345 0
M  V30 1927 H 174.551 0.891962 -4.76626 0
M  V30 1928 N 175.894 1.51508 0.433938 0
M  V30 1929 C 177.124 1.67914 1.20369 0
M  V30 1930 C 177.532 0.377461 1.85397 0
M  V30 1931 O 176.875 -0.654255 1.71654 0
M  V30 1932 C 176.937 2.74045 2.32679 0
M  V30 1933 C 176.601 4.16543 1.87991 0
M  V30 1934 C 177.598 5.01211 1.38145 0
M  V30 1935 C 175.283 4.6266 1.95579 0
M  V30 1936 C 177.277 6.30056 0.964774 0
M  V30 1937 C 174.964 5.91501 1.53523 0
M  V30 1938 C 175.962 6.75027 1.04055 0
M  V30 1939 O 175.65 8.01459 0.625964 0
M  V30 1940 H 175.382 0.566578 0.368735 0
M  V30 1941 H 177.936 1.98709 0.51999 0
M  V30 1942 H 176.166 2.38572 3.04336 0
M  V30 1943 H 177.855 2.79295 2.94532 0
M  V30 1944 H 178.621 4.66783 1.31675 0
M  V30 1945 H 174.5 3.97767 2.33029 0
M  V30 1946 H 178.044 6.95202 0.57796 0
M  V30 1947 H 173.941 6.25442 1.59665 0
M  V30 1948 H 174.709 8.15043 0.751509 0
M  V30 1949 N 177.372 -0.689602 1.41712 0
M  V30 1950 C 178.612 -1.46184 1.42862 0
M  V30 1951 C 178.976 -1.91962 0.0382204 0
M  V30 1952 O 180.177 -2.68694 -0.0755019 0
M  V30 1953 C 178.448 -2.6371 2.4123 0
M  V30 1954 S 180.007 -3.52768 2.6096 0
M  V30 1955 H 176.825 -0.49947 0.506015 0
M  V30 1956 H 179.427 -0.804107 1.78198 0
M  V30 1957 H 178.131 -2.28293 3.41044 0
M  V30 1958 H 177.662 -3.3437 2.07269 0
M  V30 1959 H 179.677 -4.59146 1.88148 0
M  V30 1960 N 178.85 -1.27639 -0.924453 0
M  V30 1961 C 180.075 -1.17101 -1.71179 0
M  V30 1962 C 180.5 0.268134 -1.86179 0
M  V30 1963 O 179.858 1.19415 -1.36418 0
M  V30 1964 C 179.906 -1.86313 -3.08739 0
M  V30 1965 O 179.01 -1.16331 -3.95652 0
M  V30 1966 H 178.351 -0.407091 -0.524569 0
M  V30 1967 H 180.881 -1.68767 -1.15666 0
M  V30 1968 H 180.891 -1.938 -3.59034 0
M  V30 1969 H 179.566 -2.91001 -2.97138 0
M  V30 1970 H 178.143 -1.16935 -3.54091 0
M  V30 1971 N 180.328 1.1314 -1.09713 0
M  V30 1972 C 181.574 1.84757 -0.836224 0
M  V30 1973 C 181.907 1.8347 0.636598 0
M  V30 1974 O 181.182 1.27491 1.46889 0
M  V30 1975 C 181.465 3.32782 -1.37578 0
M  V30 1976 C 181.318 3.42567 -2.91493 0
M  V30 1977 C 182.637 4.28307 -1.01198 0
M  V30 1978 H 179.756 0.67082 -0.305236 0
M  V30 1979 H 182.398 1.3278 -1.35903 0
M  V30 1980 H 180.548 3.77177 -0.931097 0
M  V30 1981 H 182.22 3.06862 -3.44432 0
M  V30 1982 H 180.463 2.83349 -3.28475 0
M  V30 1983 H 181.134 4.46674 -3.24324 0
M  V30 1984 H 183.61 3.91999 -1.39556 0
M  V30 1985 H 182.486 5.30307 -1.41653 0
M  V30 1986 H 182.747 4.42029 0.0794833 0
M  V30 1987 N 181.806 0.884767 1.30421 0
M  V30 1988 C 182.736 0.367574 2.30589 0
M  V30 1989 C 183.717 -0.549464 1.60981 0
M  V30 1990 O 184.902 -0.46336 1.88591 0
M  V30 1991 C 182.032 -0.418944 3.44764 0
M  V30 1992 C 180.986 0.406316 4.26067 0
M  V30 1993 C 180.312 -0.506793 5.32293 0
M  V30 1994 C 181.612 1.64832 4.95608 0
M  V30 1995 H 183.306 1.20462 2.74097 0
M  V30 1996 H 180.852 0.580695 1.31772 0
M  V30 1997 H 182.805 -0.791395 4.13902 0
M  V30 1998 H 181.529 -1.28964 3.0006 0
M  V30 1999 H 180.188 0.760903 3.58617 0
M  V30 2000 H 179.836 -1.37519 4.83836 0
M  V30 2001 H 179.536 0.0415828 5.87585 0
M  V30 2002 H 181.06 -0.875764 6.04287 0
M  V30 2003 H 182.474 1.34646 5.57264 0
M  V30 2004 H 180.871 2.13688 5.60765 0
M  V30 2005 H 181.941 2.39284 4.21748 0
M  V30 2006 N 183.284 -1.43765 0.645699 0
M  V30 2007 C 184.531 -2.01898 0.15604 0
M  V30 2008 C 184.859 -1.50887 -1.22733 0
M  V30 2009 O 184.114 -0.689271 -1.8316 0
M  V30 2010 C 184.413 -3.57238 0.107679 0
M  V30 2011 C 184.079 -4.27564 1.43178 0
M  V30 2012 C 182.741 -4.46492 1.7944 0
M  V30 2013 C 185.093 -4.67454 2.30513 0
M  V30 2014 C 182.421 -5.02573 3.02716 0
M  V30 2015 C 184.773 -5.24901 3.53074 0
M  V30 2016 C 183.437 -5.42046 3.89541 0
M  V30 2017 H 182.707 -0.738797 0.057099 0
M  V30 2018 H 185.354 -1.72341 0.834912 0
M  V30 2019 H 183.659 -3.86293 -0.654618 0
M  V30 2020 H 185.356 -3.99965 -0.287938 0
M  V30 2021 H 181.946 -4.13171 1.13963 0
M  V30 2022 H 186.13 -4.5253 2.0379 0
M  V30 2023 H 181.386 -5.14033 3.31028 0
M  V30 2024 H 185.56 -5.54758 4.20971 0
M  V30 2025 H 183.187 -5.85268 4.85145 0
M  V30 2026 N 184.763 -0.387143 -1.52771 0
M  V30 2027 C 185.693 0.440551 -2.29306 0
M  V30 2028 C 186.674 1.06535 -1.32606 0
M  V30 2029 O 187.859 1.07853 -1.61497 0
M  V30 2030 C 184.989 1.56919 -3.09829 0
M  V30 2031 C 183.943 1.07054 -4.14395 0
M  V30 2032 C 183.269 2.29109 -4.83129 0
M  V30 2033 C 184.569 0.140015 -5.22112 0
M  V30 2034 H 186.263 -0.198026 -2.98744 0
M  V30 2035 H 183.809 -0.09668 -1.43675 0
M  V30 2036 H 185.762 2.15503 -3.62128 0
M  V30 2037 H 184.486 2.23532 -2.3812 0
M  V30 2038 H 183.145 0.507247 -3.63074 0
M  V30 2039 H 182.793 2.94227 -4.0797 0
M  V30 2040 H 182.493 1.96406 -5.53804 0
M  V30 2041 H 184.017 2.88339 -5.38231 0
M  V30 2042 H 185.431 0.633978 -5.69784 0
M  V30 2043 H 183.828 -0.0971485 -6.00021 0
M  V30 2044 H 184.898 -0.811711 -4.78058 0
M  V30 2045 N 186.241 1.57166 -0.116904 0
M  V30 2046 C 187.469 1.99473 0.549383 0
M  V30 2047 C 187.884 0.996541 1.60357 0
M  V30 2048 O 187.241 -0.0108731 1.82497 0
M  V30 2049 C 187.292 3.41788 1.17741 0
M  V30 2050 O 187.013 4.37788 0.165362 0
M  V30 2051 C 188.514 3.99216 1.92722 0
M  V30 2052 H 185.734 0.655009 0.145616 0
M  V30 2053 H 188.278 2.03494 -0.202625 0
M  V30 2054 H 186.433 3.38713 1.88021 0
M  V30 2055 H 186.847 5.20806 0.621403 0
M  V30 2056 H 188.321 5.00882 2.31995 0
M  V30 2057 H 188.798 3.3824 2.80161 0
M  V30 2058 H 189.404 4.0583 1.27209 0
M  V30 2059 N 187.719 -0.156864 1.56817 0
M  V30 2060 C 188.959 -0.877453 1.84608 0
M  V30 2061 C 189.323 -1.78791 0.699845 0
M  V30 2062 O 190.524 -2.5472 0.858553 0
M  V30 2063 C 188.795 -1.63992 3.17555 0
M  V30 2064 S 190.354 -2.40729 3.66872 0
M  V30 2065 H 187.172 -0.293612 0.647544 0
M  V30 2066 H 189.774 -0.138099 1.95012 0
M  V30 2067 H 188.478 -0.962363 3.98957 0
M  V30 2068 H 188.009 -2.42038 3.10131 0
M  V30 2069 H 190.024 -3.65725 3.3535 0
M  V30 2070 N 189.197 -1.51736 -0.425897 0
M  V30 2071 C 190.446 -1.64201 -1.17136 0
M  V30 2072 C 190.759 -0.369705 -1.92074 0
M  V30 2073 O 191.965 -0.373898 -2.68913 0
M  V30 2074 C 190.421 -2.90035 -2.13091 0
M  V30 2075 C 190.029 -4.24312 -1.43747 0
M  V30 2076 C 191.773 -3.1186 -2.87999 0
M  V30 2077 C 189.68 -5.41285 -2.38253 0
M  V30 2078 H 188.61 -0.611624 -0.440944 0
M  V30 2079 H 191.261 -1.78212 -0.437328 0
M  V30 2080 H 189.643 -2.69684 -2.89977 0
M  V30 2081 H 190.817 -4.55086 -0.723408 0
M  V30 2082 H 189.132 -4.08456 -0.809465 0
M  V30 2083 H 191.729 -3.96427 -3.58817 0
M  V30 2084 H 192.072 -2.25403 -3.49999 0
M  V30 2085 H 192.605 -3.32605 -2.18217 0
M  V30 2086 H 189.344 -6.30037 -1.80925 0
M  V30 2087 H 188.864 -5.14872 -3.0768 0
M  V30 2088 H 190.543 -5.73694 -2.99139 0
M  V30 2089 N 190.675 0.682077 -1.42076 0
M  V30 2090 C 191.9 1.47558 -1.45744 0
M  V30 2091 C 192.325 1.87977 -0.0680981 0
M  V30 2092 O 191.683 1.55522 0.9318 0
M  V30 2093 C 191.731 2.70575 -2.38373 0
M  V30 2094 O 190.835 3.68573 -1.85007 0
M  V30 2095 H 190.176 0.443585 -0.494093 0
M  V30 2096 H 192.706 0.837238 -1.86686 0
M  V30 2097 H 192.716 3.18729 -2.54707 0
M  V30 2098 H 191.391 2.40495 -3.39315 0
M  V30 2099 H 189.968 3.2757 -1.78192 0
M  V30 2100 N 192.153 1.28127 0.917671 0
M  V30 2101 C 193.399 1.15223 1.66888 0
M  V30 2102 C 193.732 -0.299293 1.9188 0
M  V30 2103 O 193.007 -1.21805 1.51637 0
M  V30 2104 C 193.29 1.94706 3.02922 0
M  V30 2105 C 193.143 3.47898 2.85109 0
M  V30 2106 C 194.462 1.75939 4.03402 0
M  V30 2107 H 191.581 0.419946 0.605652 0
M  V30 2108 H 194.223 1.57398 1.06423 0
M  V30 2109 H 192.373 1.58864 3.54534 0
M  V30 2110 H 194.045 3.93624 2.40537 0
M  V30 2111 H 192.288 3.7373 2.20246 0
M  V30 2112 H 192.959 3.98765 3.81694 0
M  V30 2113 H 195.435 2.07209 3.60837 0
M  V30 2114 H 194.311 2.33931 4.96556 0
M  V30 2115 H 194.572 0.709877 4.36364 0
M  V30 2116 N 193.631 -1.12557 1.10312 0
M  V30 2117 C 194.581 -2.16331 0.720076 0
M  V30 2118 C 195.565 -1.58616 -0.270115 0
M  V30 2119 O 196.757 -1.76823 -0.0790507 0
M  V30 2120 C 193.886 -3.42963 0.152113 0
M  V30 2121 C 192.972 -4.07663 1.16927 0
M  V30 2122 N 193.363 -4.47392 2.35953 0
M  V30 2123 C 191.661 -4.34425 1.0095 0
M  V30 2124 C 192.362 -4.97932 3.0073 0
M  V30 2125 N 191.338 -4.93358 2.28252 0
M  V30 2126 H 195.14 -2.44813 1.62616 0
M  V30 2127 H 192.654 -1.29449 0.980654 0
M  V30 2128 H 194.651 -4.16664 -0.14037 0
M  V30 2129 H 193.311 -3.1595 -0.748701 0
M  V30 2130 H 194.322 -4.39802 2.73486 0
M  V30 2131 H 190.999 -4.17177 0.164134 0
M  V30 2132 H 192.389 -5.38397 4.01969 0
M  V30 2133 N 195.109 -0.891671 -1.2995 0
M  V30 2134 C 196.525 -0.58662 -1.48428 0
M  V30 2135 C 196.725 0.873951 -1.81561 0
M  V30 2136 O 195.781 1.65471 -1.90724 0
M  V30 2137 C 197.094 -1.50553 -2.60296 0
M  V30 2138 C 198.642 -1.50988 -2.74175 0
M  V30 2139 C 199.117 -2.41488 -3.89163 0
M  V30 2140 N 200.608 -2.39489 -3.96483 0
M  V30 2141 C 201.343 -3.06223 -4.84784 0
M  V30 2142 N 200.839 -3.82206 -5.77833 0
M  V30 2143 N 202.632 -2.95421 -4.78208 0
M  V30 2144 H 194.783 -1.83644 -1.06718 0
M  V30 2145 H 197.046 -0.786455 -0.529332 0
M  V30 2146 H 196.752 -2.54581 -2.42654 0
M  V30 2147 H 196.626 -1.22008 -3.56923 0
M  V30 2148 H 199.013 -0.47708 -2.91218 0
M  V30 2149 H 199.094 -1.83567 -1.78148 0
M  V30 2150 H 198.738 -3.44857 -3.72876 0
M  V30 2151 H 198.668 -2.06222 -4.84541 0
M  V30 2152 H 201.159 -1.84278 -3.29924 0
M  V30 2153 H 201.472 -4.302 -6.41988 0
M  V30 2154 H 199.817 -3.86313 -5.77743 0
M  V30 2155 H 203.008 -2.35581 -4.04499 0
M  V30 2156 H 203.181 -3.47704 -5.46814 0
M  V30 2157 N 196.587 1.43421 -0.653314 0
M  V30 2158 C 197.817 2.05864 -0.174238 0
M  V30 2159 C 198.225 1.49052 1.16534 0
M  V30 2160 O 197.568 0.616481 1.73047 0
M  V30 2161 C 197.63 3.59499 -0.00875873 0
M  V30 2162 C 197.294 4.38893 -1.27364 0
M  V30 2163 C 198.291 4.70947 -2.20239 0
M  V30 2164 C 195.976 4.789 -1.51525 0
M  V30 2165 C 197.97 5.41916 -3.35568 0
M  V30 2166 C 195.657 5.49614 -2.67147 0
M  V30 2167 C 196.655 5.81044 -3.58994 0
M  V30 2168 O 196.343 6.50313 -4.72597 0
M  V30 2169 H 196.075 0.670345 -0.0872549 0
M  V30 2170 H 198.629 1.84913 -0.894226 0
M  V30 2171 H 196.859 3.79025 0.7666 0
M  V30 2172 H 198.548 4.0364 0.427687 0
M  V30 2173 H 199.314 4.40558 -2.02815 0
M  V30 2174 H 195.193 4.53843 -0.809158 0
M  V30 2175 H 198.737 5.66365 -4.07279 0
M  V30 2176 H 194.634 5.79419 -2.84505 0
M  V30 2177 H 195.402 6.68795 -4.71864 0
M  V30 2178 N 198.065 0.39524 1.52563 0
M  V30 2179 C 198.995 -0.428384 2.29537 0
M  V30 2180 C 199.976 -1.05831 1.33169 0
M  V30 2181 O 201.161 -1.06995 1.62067 0
M  V30 2182 C 198.291 -1.55274 3.10656 0
M  V30 2183 C 197.245 -1.04855 4.14957 0
M  V30 2184 C 196.571 -2.26543 4.84337 0
M  V30 2185 C 197.871 -0.112324 5.22179 0
M  V30 2186 H 199.565 0.213867 2.98635 0
M  V30 2187 H 197.111 0.104298 1.43622 0
M  V30 2188 H 199.064 -2.1358 3.63265 0
M  V30 2189 H 197.788 -2.22266 2.39302 0
M  V30 2190 H 196.447 -0.487985 3.63338 0
M  V30 2191 H 196.095 -2.92059 4.09525 0
M  V30 2192 H 195.795 -1.93466 5.54837 0
M  V30 2193 H 197.319 -2.85481 5.39753 0
M  V30 2194 H 198.733 -0.603752 5.70112 0
M  V30 2195 H 197.13 0.128968 5.99961 0
M  V30 2196 H 198.2 0.837052 4.77621 0
M  V30 2197 N 199.544 -1.57102 0.125237 0
M  V30 2198 C 200.792 -1.95021 -0.530198 0
M  V30 2199 C 201.113 -1.00982 -1.66816 0
M  V30 2200 O 200.383 -0.0672693 -1.95784 0
M  V30 2201 H 198.963 -0.720046 -0.198853 0
M  V30 2202 H 201.625 -1.93916 0.19564 0
M  V30 2203 H 200.721 -2.98211 -0.920681 0
M  V30 2204 N 201.022 0.148545 -1.56898 0
M  V30 2205 C 202.271 0.85984 -1.82454 0
M  V30 2206 C 202.584 1.82406 -0.706229 0
M  V30 2207 O 203.79 2.57938 -0.847349 0
M  V30 2208 C 202.246 1.57967 -3.2338 0
M  V30 2209 C 201.854 0.65794 -4.43142 0
M  V30 2210 C 203.598 2.27784 -3.58211 0
M  V30 2211 C 201.505 1.3793 -5.75091 0
M  V30 2212 H 200.435 0.324834 -0.68044 0
M  V30 2213 H 203.086 0.112588 -1.83154 0
M  V30 2214 H 201.468 2.37249 -3.17063 0
M  V30 2215 H 202.642 -0.0995497 -4.60692 0
M  V30 2216 H 200.957 0.0682643 -4.16344 0
M  V30 2217 H 203.554 2.8239 -4.54048 0
M  V30 2218 H 203.897 3.04204 -2.84193 0
M  V30 2219 H 204.43 1.55421 -3.66182 0
M  V30 2220 H 201.169 0.656982 -6.52199 0
M  V30 2221 H 200.689 2.10954 -5.61479 0
M  V30 2222 H 202.368 1.92063 -6.17835 0
M  V30 2223 N 202.5 1.5196 0.417844 0
M  V30 2224 C 203.74 1.67262 1.17486 0
M  V30 2225 C 204.104 0.38983 1.88001 0
M  V30 2226 O 205.305 0.418845 2.65517 0
M  V30 2227 C 203.576 2.85526 2.14965 0
M  V30 2228 S 205.135 3.21263 2.98891 0
M  V30 2229 H 201.953 0.589077 0.398132 0
M  V30 2230 H 204.555 1.89927 0.463452 0
M  V30 2231 H 203.259 3.77145 1.61833 0
M  V30 2232 H 202.79 2.65107 2.90657 0
M  V30 2233 H 204.805 2.69208 4.16823 0
M  V30 2234 N 203.978 -0.674533 1.42435 0
M  V30 2235 C 204.928 -1.7807 1.4239 0
M  V30 2236 C 205.912 -1.58169 0.295202 0
M  V30 2237 O 207.104 -1.68643 0.537449 0
M  V30 2238 C 204.233 -3.16532 1.32901 0
M  V30 2239 C 203.319 -3.42055 2.50717 0
M  V30 2240 N 203.71 -3.38162 3.76139 0
M  V30 2241 C 202.008 -3.72692 2.44983 0
M  V30 2242 C 202.709 -3.63177 4.54398 0
M  V30 2243 N 201.685 -3.83954 3.84812 0
M  V30 2244 H 205.487 -1.73454 2.37257 0
M  V30 2245 H 203.001 -0.875381 1.36788 0
M  V30 2246 H 204.998 -3.958 1.30951 0
M  V30 2247 H 203.658 -3.22345 0.390363 0
M  V30 2248 H 204.669 -3.18057 4.0873 0
M  V30 2249 H 201.346 -3.85749 1.59699 0
M  V30 2250 H 202.736 -3.66125 5.63384 0
M  V30 2251 N 205.456 -1.28612 -0.910864 0
M  V30 2252 C 206.867 -1.14406 -1.47541 0
M  V30 2253 C 207.218 0.264901 -1.94403 0
M  V30 2254 O 206.343 1.15942 -1.82719 0
M  V30 2255 C 206.938 -2.07073 -2.68153 0
M  V30 2256 C 205.497 -1.96923 -3.20778 0
M  V30 2257 C 204.644 -1.98646 -1.93481 0
M  V30 2258 H 207.595 -1.41259 -0.723291 0
M  V30 2259 H 207.616 -1.63642 -3.43514 0
M  V30 2260 H 207.128 -3.09611 -2.34015 0
M  V30 2261 H 205.229 -0.97433 -3.59635 0
M  V30 2262 H 205.342 -2.84026 -3.85832 0
M  V30 2263 H 203.706 -1.43093 -2.10705 0
M  V30 2264 H 204.489 -3.02868 -1.61634 0
M  V30 2265 N 206.934 1.1197 -1.10907 0
M  V30 2266 C 207.864 2.19928 -0.784473 0
M  V30 2267 C 208.845 1.6833 0.244726 0
M  V30 2268 O 210.03 1.93892 0.109418 0
M  V30 2269 C 207.16 3.46597 -0.220827 0
M  V30 2270 C 206.114 4.11376 -1.18127 0
M  V30 2271 C 205.44 5.32554 -0.478594 0
M  V30 2272 C 206.74 4.56945 -2.52979 0
M  V30 2273 H 208.434 2.47337 -1.68715 0
M  V30 2274 H 205.98 1.18879 -0.812642 0
M  V30 2275 H 207.933 4.21396 0.0184278 0
M  V30 2276 H 206.657 3.1863 0.717113 0
M  V30 2277 H 205.316 3.38564 -1.40606 0
M  V30 2278 H 204.964 5.00856 0.463976 0
M  V30 2279 H 204.664 5.76844 -1.11912 0
M  V30 2280 H 206.188 6.10096 -0.248 0
M  V30 2281 H 207.602 5.23093 -2.3462 0
M  V30 2282 H 205.999 5.1203 -3.12962 0
M  V30 2283 H 207.069 3.70676 -3.12614 0
M  V30 2284 N 208.412 0.89855 1.29475 0
M  V30 2285 C 209.828 0.594483 1.48115 0
M  V30 2286 C 210.028 -0.86431 1.82022 0
M  V30 2287 O 209.084 -1.64457 1.91599 0
M  V30 2288 C 210.397 1.51932 2.59494 0
M  V30 2289 C 211.945 1.5244 2.7337 0
M  V30 2290 C 212.42 2.43548 3.87877 0
M  V30 2291 N 213.911 2.41589 3.95208 0
M  V30 2292 C 214.646 3.08789 4.83153 0
M  V30 2293 N 214.142 3.85265 5.75798 0
M  V30 2294 N 215.935 2.97952 4.76635 0
M  V30 2295 H 208.086 1.84207 1.05742 0
M  V30 2296 H 210.349 0.789251 0.525154 0
M  V30 2297 H 210.055 2.55865 2.41301 0
M  V30 2298 H 209.929 1.23899 3.56271 0
M  V30 2299 H 212.316 0.492518 2.90961 0
M  V30 2300 H 212.397 1.8451 1.77172 0
M  V30 2301 H 212.041 3.46829 3.71041 0
M  V30 2302 H 211.971 2.08788 4.83441 0
M  V30 2303 H 214.462 1.86025 3.28943 0
M  V30 2304 H 214.775 4.33598 6.39697 0
M  V30 2305 H 213.12 3.89371 5.75687 0
M  V30 2306 H 216.311 2.37723 4.03244 0
M  V30 2307 H 216.484 3.50599 5.44962 0
M  V30 2308 N 209.89 -1.43072 0.660911 0
M  V30 2309 C 210.853 -2.29194 -0.0166406 0
M  V30 2310 C 211.853 -1.42609 -0.742912 0
M  V30 2311 O 213.043 -1.64155 -0.583004 0
M  V30 2312 C 210.175 -3.24831 -1.0343 0
M  V30 2313 H 211.368 -2.90596 0.741208 0
M  V30 2314 H 208.921 -1.5048 0.422532 0
M  V30 2315 H 209.656 -2.68339 -1.82111 0
M  V30 2316 H 209.441 -3.88676 -0.517082 0
M  V30 2317 H 210.931 -3.89451 -1.50723 0
M  V30 2318 N 211.368 -0.403325 -1.52352 0
M  V30 2319 C 212.298 0.416205 -2.29761 0
M  V30 2320 C 213.279 1.05123 -1.33728 0
M  V30 2321 O 214.464 1.06134 -1.62632 0
M  V30 2322 C 211.594 1.53624 -3.11475 0
M  V30 2323 C 210.548 1.02653 -4.15507 0
M  V30 2324 C 209.874 2.23971 -4.85532 0
M  V30 2325 C 211.174 0.08463 -5.22231 0
M  V30 2326 H 212.868 -0.229701 -2.98518 0
M  V30 2327 H 210.414 -0.111913 -1.43564 0
M  V30 2328 H 212.367 2.1165 -3.64393 0
M  V30 2329 H 211.091 2.20994 -2.40477 0
M  V30 2330 H 209.75 0.46871 -3.63591 0
M  V30 2331 H 209.398 2.89883 -4.11068 0
M  V30 2332 H 209.098 1.90521 -5.55856 0
M  V30 2333 H 210.622 2.82614 -5.41259 0
M  V30 2334 H 212.036 0.573509 -5.70424 0
M  V30 2335 H 210.433 -0.160783 -5.99885 0
M  V30 2336 H 211.503 -0.86237 -4.7717 0
M  V30 2337 N 212.846 1.57033 -0.133567 0
M  V30 2338 C 214.262 1.58035 0.222944 0
M  V30 2339 C 214.462 1.14713 1.6566 0
M  V30 2340 O 213.518 0.841218 2.38075 0
M  V30 2341 C 214.831 3.00691 -0.0236116 0
M  V30 2342 C 216.379 3.12973 0.0411512 0
M  V30 2343 C 216.854 4.57654 -0.177899 0
M  V30 2344 N 218.345 4.63033 -0.124365 0
M  V30 2345 C 219.08 5.72771 -0.268553 0
M  V30 2346 N 218.576 6.91206 -0.46972 0
M  V30 2347 N 220.369 5.61718 -0.2071 0
M  V30 2348 H 212.52 1.8349 -1.06981 0
M  V30 2349 H 214.783 0.848677 -0.422436 0
M  V30 2350 H 214.489 3.36726 -1.0153 0
M  V30 2351 H 214.363 3.70614 0.701808 0
M  V30 2352 H 216.75 2.76787 1.02338 0
M  V30 2353 H 216.831 2.45564 -0.716383 0
M  V30 2354 H 216.475 4.94542 -1.15717 0
M  V30 2355 H 216.405 5.23173 0.599797 0
M  V30 2356 H 218.896 3.7789 0.027011 0
M  V30 2357 H 219.209 7.70693 -0.570212 0
M  V30 2358 H 217.554 6.93156 -0.505876 0
M  V30 2359 H 220.745 4.68072 -0.0507986 0
M  V30 2360 H 220.918 6.47195 -0.322909 0
M  V30 2361 N 214.325 -0.140222 1.56975 0
M  V30 2362 C 215.571 -0.848084 1.84876 0
M  V30 2363 C 215.926 -1.78481 0.718481 0
M  V30 2364 O 215.219 -1.89497 -0.283093 0
M  V30 2365 C 215.413 -1.65386 3.16832 0
M  V30 2366 C 215.242 -0.79665 4.42587 0
M  V30 2367 C 214.012 -0.459648 5.03205 0
M  V30 2368 C 216.21 -0.12389 5.14151 0
M  V30 2369 N 214.192 0.410446 6.12526 0
M  V30 2370 C 215.563 0.606064 6.17031 0
M  V30 2371 C 217.618 -0.0452654 4.97879 0
M  V30 2372 C 216.321 1.40723 7.054 0
M  V30 2373 C 218.347 0.742658 5.86718 0
M  V30 2374 C 217.709 1.46087 6.89085 0
M  V30 2375 H 213.808 -0.287946 0.727056 0
M  V30 2376 H 216.392 -0.11304 1.94372 0
M  V30 2377 H 214.563 -2.36009 3.08471 0
M  V30 2378 H 216.295 -2.30541 3.32615 0
M  V30 2379 H 213.05 -0.797006 4.66846 0
M  V30 2380 H 213.474 0.836716 6.7181 0
M  V30 2381 H 218.116 -0.586184 4.18717 0
M  V30 2382 H 215.834 1.95938 7.83986 0
M  V30 2383 H 219.42 0.805574 5.76196 0
M  V30 2384 H 218.3 2.06077 7.56639 0
M  V30 2385 N 215.803 -1.52179 -0.40978 0
M  V30 2386 C 217.051 -1.65878 -1.15451 0
M  V30 2387 C 217.372 -0.390771 -1.91044 0
M  V30 2388 O 216.642 0.594323 -1.86667 0
M  V30 2389 H 215.222 -0.611405 -0.429177 0
M  V30 2390 H 217.884 -1.89219 -0.467134 0
M  V30 2391 H 216.98 -2.49954 -1.86894 0
M  V30 2392 N 217.281 0.66697 -1.42791 0
M  V30 2393 C 218.697 0.981027 -1.25889 0
M  V30 2394 C 218.897 2.00793 -0.168695 0
M  V30 2395 O 217.953 2.48321 0.45747 0
M  V30 2396 C 219.266 1.47838 -2.61848 0
M  V30 2397 C 220.814 1.59575 -2.69267 0
M  V30 2398 C 221.289 2.12704 -4.05612 0
M  V30 2399 N 222.78 2.20026 -4.07606 0
M  V30 2400 C 223.515 2.62227 -5.09926 0
M  V30 2401 N 223.011 3.03824 -6.22626 0
M  V30 2402 N 224.804 2.62045 -4.97281 0
M  V30 2403 H 216.955 -0.0127891 -2.12396 0
M  V30 2404 H 219.218 0.0568258 -0.946295 0
M  V30 2405 H 218.924 0.798299 -3.4252 0
M  V30 2406 H 218.798 2.45579 -2.86305 0
M  V30 2407 H 221.185 2.26687 -1.88936 0
M  V30 2408 H 221.266 0.60302 -2.48591 0
M  V30 2409 H 220.91 1.46198 -4.86404 0
M  V30 2410 H 220.84 3.12782 -4.23645 0
M  V30 2411 H 223.331 1.90708 -3.2625 0
M  V30 2412 H 223.644 3.34734 -6.96544 0
M  V30 2413 H 221.989 3.01662 -6.26119 0
M  V30 2414 H 225.18 2.28916 -4.08308 0
M  V30 2415 H 225.353 2.94613 -5.77154 0
M  V30 2416 N 218.759 1.29093 0.90403 0
M  V30 2417 C 220.17 1.15186 1.46932 0
M  V30 2418 C 220.521 -0.254587 1.94541 0
M  V30 2419 O 219.646 -1.14972 1.83332 0
M  V30 2420 C 220.241 2.08492 2.67051 0
M  V30 2421 C 218.8 1.98621 3.19729 0
M  V30 2422 C 217.947 1.9967 1.92425 0
M  V30 2423 H 220.898 1.41641 0.715789 0
M  V30 2424 H 220.919 1.65461 3.42641 0
M  V30 2425 H 220.431 3.10847 2.3237 0
M  V30 2426 H 218.532 0.993389 3.59114 0
M  V30 2427 H 218.645 2.86068 3.8432 0
M  V30 2428 H 217.009 1.44208 2.09943 0
M  V30 2429 H 217.792 3.03721 1.60026 0
M  V30 2430 N 220.237 -1.11381 1.11499 0
M  V30 2431 C 221.653 -1.35143 0.849031 0
M  V30 2432 C 221.853 -1.94515 -0.525938 0
M  V30 2433 O 220.909 -2.1785 -1.27662 0
M  V30 2434 C 222.222 -2.28249 1.95762 0
M  V30 2435 C 223.77 -2.41812 1.98736 0
M  V30 2436 C 224.245 -3.3824 3.088 0
M  V30 2437 N 225.736 -3.45803 3.08179 0
M  V30 2438 C 226.471 -4.20358 3.89982 0
M  V30 2439 N 225.967 -4.97884 4.8175 0
M  V30 2440 N 227.76 -4.15877 3.78157 0
M  V30 2441 H 219.911 -0.712062 2.00109 0
M  V30 2442 H 222.174 -0.376025 0.870235 0
M  V30 2443 H 221.88 -1.91817 2.94787 0
M  V30 2444 H 221.754 -3.28473 1.85433 0
M  V30 2445 H 224.141 -2.77518 1.00338 0
M  V30 2446 H 224.222 -1.41437 2.13141 0
M  V30 2447 H 223.866 -3.03261 4.07425 0
M  V30 2448 H 223.796 -4.38471 2.91635 0
M  V30 2449 H 226.287 -2.90506 2.41691 0
M  V30 2450 H 226.6 -5.52142 5.40702 0
M  V30 2451 H 224.945 -4.97043 4.85771 0
M  V30 2452 H 228.136 -3.544 3.05808 0
M  V30 2453 H 228.309 -4.73723 4.42143 0
M  V30 2454 N 221.715 -0.905404 -1.28997 0
M  V30 2455 C 222.645 -0.404212 -2.29975 0
M  V30 2456 C 223.626 0.523784 -1.61835 0
M  V30 2457 O 224.811 0.433298 -1.89304 0
M  V30 2458 C 221.941 0.364042 -3.45387 0
M  V30 2459 C 220.895 -0.474048 -4.25367 0
M  V30 2460 C 220.221 0.422045 -5.33032 0
M  V30 2461 C 221.521 -1.72696 -4.92923 0
M  V30 2462 H 223.215 -1.24807 -2.72146 0
M  V30 2463 H 220.761 -0.601585 -1.30832 0
M  V30 2464 H 222.714 0.725447 -4.15109 0
M  V30 2465 H 221.438 1.24174 -3.02074 0
M  V30 2466 H 220.097 -0.81786 -3.57361 0
M  V30 2467 H 219.745 1.29804 -4.85963 0
M  V30 2468 H 219.445 -0.135057 -5.87445 0
M  V30 2469 H 220.969 0.779517 -6.05604 0
M  V30 2470 H 222.383 -1.43495 -5.55051 0
M  V30 2471 H 220.78 -2.22582 -5.57295 0
M  V30 2472 H 221.85 -2.45964 -4.17887 0
M  V30 2473 N 223.193 1.4272 -0.668489 0
M  V30 2474 C 224.156 2.292 0.00448567 0
M  V30 2475 C 225.156 1.43001 0.735339 0
M  V30 2476 O 226.346 1.64461 0.57429 0
M  V30 2477 C 223.478 3.25375 1.01705 0
M  V30 2478 H 224.671 2.90199 -0.756608 0
M  V30 2479 H 222.224 1.50254 -0.430506 0
M  V30 2480 H 222.959 2.69301 1.80686 0
M  V30 2481 H 222.744 3.88944 0.496463 0
M  V30 2482 H 224.234 3.90245 1.48655 0
M  V30 2483 N 224.671 0.411399 1.52136 0
M  V30 2484 C 225.919 -0.163322 2.01439 0
M  V30 2485 C 226.24 -1.45453 1.29879 0
M  V30 2486 O 225.51 -1.91225 0.4254 0
M  V30 2487 H 224.09 -0.0633447 0.744309 0
M  V30 2488 H 226.752 0.548161 1.87033 0
M  V30 2489 H 225.848 -0.357817 3.10042 0
M  V30 2490 N 226.149 -1.5696 0.141893 0
M  V30 2491 C 227.079 -2.19516 -0.795936 0
M  V30 2492 C 228.06 -1.14187 -1.26077 0
M  V30 2493 O 229.245 -1.42511 -1.31925 0
M  V30 2494 C 226.375 -2.81272 -2.03723 0
M  V30 2495 C 225.329 -3.92384 -1.70936 0
M  V30 2496 C 224.655 -4.41052 -3.02287 0
M  V30 2497 C 225.955 -5.13403 -0.959954 0
M  V30 2498 H 227.649 -2.98138 -0.274596 0
M  V30 2499 H 225.195 -1.43406 -0.130636 0
M  V30 2500 H 227.148 -3.237 -2.69808 0
M  V30 2501 H 225.872 -1.99973 -2.58221 0
M  V30 2502 H 224.531 -3.50566 -1.07232 0
M  V30 2503 H 224.179 -3.56582 -3.54765 0
M  V30 2504 H 223.879 -5.15993 -2.81114 0
M  V30 2505 H 225.403 -4.86146 -3.69451 0
M  V30 2506 H 226.817 -5.52706 -1.52279 0
M  V30 2507 H 225.214 -5.94073 -0.848357 0
M  V30 2508 H 226.284 -4.84875 0.0492434 0
M  V30 2509 N 227.627 0.131896 -1.57047 0
M  V30 2510 C 228.557 1.16384 -2.02428 0
M  V30 2511 C 229.538 1.43936 -0.90644 0
M  V30 2512 O 230.723 1.54599 -1.17528 0
M  V30 2513 C 227.853 2.49328 -2.4177 0
M  V30 2514 C 226.807 2.36266 -3.56879 0
M  V30 2515 C 226.133 3.74057 -3.8208 0
M  V30 2516 C 227.433 1.834 -4.89042 0
M  V30 2517 H 229.127 0.786433 -2.88887 0
M  V30 2518 H 226.673 0.376855 -1.38981 0
M  V30 2519 H 228.626 3.21759 -2.7212 0
M  V30 2520 H 227.35 2.88934 -1.52266 0
M  V30 2521 H 226.009 1.66286 -3.26718 0
M  V30 2522 H 225.657 4.11125 -2.89803 0
M  V30 2523 H 225.357 3.66174 -4.59554 0
M  V30 2524 H 226.881 4.48012 -4.1487 0
M  V30 2525 H 228.295 2.45636 -5.18011 0
M  V30 2526 H 226.692 1.8637 -5.70426 0
M  V30 2527 H 227.762 0.790662 -4.7841 0
M  V30 2528 N 229.106 1.52395 0.401703 0
M  V30 2529 C 230.346 1.68498 1.15705 0
M  V30 2530 C 230.71 0.409748 1.87577 0
M  V30 2531 O 231.911 0.446983 2.65058 0
M  V30 2532 C 230.182 2.87789 2.11924 0
M  V30 2533 S 231.741 3.24415 2.95466 0
M  V30 2534 H 228.559 0.593267 0.391862 0
M  V30 2535 H 231.161 1.90408 0.443282 0
M  V30 2536 H 229.865 3.7884 1.57824 0
M  V30 2537 H 229.396 2.68175 2.87829 0
M  V30 2538 H 231.411 2.73614 4.13944 0
M  V30 2539 N 230.584 -0.659388 1.43143 0
M  V30 2540 C 231.514 -1.78422 1.50625 0
M  V30 2541 C 232.495 -1.66216 0.361443 0
M  V30 2542 O 233.68 -1.85404 0.577834 0
M  V30 2543 C 230.81 -3.16815 1.42287 0
M  V30 2544 C 229.764 -3.43777 2.54954 0
M  V30 2545 C 229.09 -4.81905 2.31671 0
M  V30 2546 C 230.39 -3.39134 3.97222 0
M  V30 2547 H 232.084 -1.72417 2.44771 0
M  V30 2548 H 229.63 -0.828084 1.17808 0
M  V30 2549 H 231.583 -3.95253 1.46127 0
M  V30 2550 H 230.307 -3.23534 0.446435 0
M  V30 2551 H 228.966 -2.67707 2.50457 0
M  V30 2552 H 228.614 -4.85294 1.32284 0
M  V30 2553 H 228.314 -5.00906 3.07192 0
M  V30 2554 H 229.838 -5.62609 2.37284 0
M  V30 2555 H 231.252 -4.07518 4.03239 0
M  V30 2556 H 229.649 -3.69671 4.72719 0
M  V30 2557 H 230.719 -2.37426 4.22797 0
M  V30 2558 N 232.062 -1.29571 -0.897171 0
M  V30 2559 C 233.025 -1.14913 -1.98312 0
M  V30 2560 C 234.025 -0.0838629 -1.60581 0
M  V30 2561 O 235.215 -0.331006 -1.71026 0
M  V30 2562 C 232.347 -0.757835 -3.3237 0
M  V30 2563 H 233.54 -2.11377 -2.12743 0
M  V30 2564 H 231.093 -1.12793 -1.08201 0
M  V30 2565 H 231.828 0.206837 -3.2364 0
M  V30 2566 H 231.613 -1.52755 -3.61121 0
M  V30 2567 H 233.103 -0.678408 -4.12053 0
M  V30 2568 N 233.54 1.10788 -1.12088 0
M  V30 2569 C 234.786 1.82942 -0.875226 0
M  V30 2570 C 235.119 1.84779 0.597538 0
M  V30 2571 O 234.394 1.30578 1.44152 0
M  V30 2572 C 234.677 3.29789 -1.44606 0
M  V30 2573 C 234.53 3.36307 -2.98693 0
M  V30 2574 C 235.849 4.26064 -1.10261 0
M  V30 2575 H 232.968 0.664195 -0.319397 0
M  V30 2576 H 235.61 1.29867 -1.38689 0
M  V30 2577 H 233.76 3.75118 -1.01089 0
M  V30 2578 H 235.432 2.99487 -3.50864 0
M  V30 2579 H 233.675 2.76318 -3.34411 0
M  V30 2580 H 234.346 4.39694 -3.33726 0
M  V30 2581 H 236.822 3.88951 -1.4784 0
M  V30 2582 H 235.698 5.27183 -1.52869 0
M  V30 2583 H 235.959 4.42098 -0.0142953 0
M  V30 2584 N 235.018 0.912232 1.28515 0
M  V30 2585 C 236.264 0.554851 1.95686 0
M  V30 2586 C 236.619 -0.89138 1.70506 0
M  V30 2587 O 235.912 -1.62529 1.01464 0
M  V30 2588 C 236.106 0.798392 3.48368 0
M  V30 2589 C 235.935 2.26674 3.88393 0
M  V30 2590 C 234.705 2.91657 4.12631 0
M  V30 2591 C 236.903 3.24303 3.99164 0
M  V30 2592 N 234.885 4.28805 4.39317 0
M  V30 2593 C 236.256 4.4661 4.30046 0
M  V30 2594 C 238.311 3.19723 3.81683 0
M  V30 2595 C 237.014 5.64915 4.45268 0
M  V30 2596 C 239.04 4.37325 3.98121 0
M  V30 2597 C 238.402 5.58406 4.29375 0
M  V30 2598 H 234.501 0.252876 0.739985 0
M  V30 2599 H 237.085 1.17565 1.55199 0
M  V30 2600 H 235.256 0.20688 3.87849 0
M  V30 2601 H 236.988 0.405193 4.02666 0
M  V30 2602 H 233.743 2.42393 4.06869 0
M  V30 2603 H 234.167 4.99712 4.56746 0
M  V30 2604 H 238.809 2.27191 3.56573 0
M  V30 2605 H 236.527 6.57927 4.6921 0
M  V30 2606 H 240.113 4.35282 3.86033 0
M  V30 2607 H 238.993 6.47889 4.41825 0
M  V30 2608 N 236.496 -1.42363 0.676048 0
M  V30 2609 C 237.426 -2.33497 0.0124832 0
M  V30 2610 C 238.407 -1.50748 -0.787981 0
M  V30 2611 O 239.592 -1.79346 -0.744884 0
M  V30 2612 C 236.722 -3.34377 -0.938582 0
M  V30 2613 C 235.676 -4.27289 -0.246622 0
M  V30 2614 C 235.002 -5.18386 -1.31071 0
M  V30 2615 C 236.302 -5.14916 0.875125 0
M  V30 2616 H 237.996 -2.89233 0.773593 0
M  V30 2617 H 235.542 -1.39073 0.37346 0
M  V30 2618 H 237.495 -3.97044 -1.41188 0
M  V30 2619 H 236.219 -2.76947 -1.73113 0
M  V30 2620 H 234.878 -3.66018 0.206456 0
M  V30 2621 H 234.526 -4.57282 -2.09528 0
M  V30 2622 H 234.226 -5.81378 -0.852839 0
M  V30 2623 H 235.75 -5.83929 -1.78492 0
M  V30 2624 H 237.164 -5.71262 0.482983 0
M  V30 2625 H 235.561 -5.86747 1.25887 0
M  V30 2626 H 236.631 -4.53242 1.72335 0
M  V30 2627 N 237.974 -0.419461 -1.51915 0
M  V30 2628 C 239.22 0.153166 -2.02221 0
M  V30 2629 C 239.553 1.43907 -1.30401 0
M  V30 2630 O 238.828 1.90055 -0.413438 0
M  V30 2631 C 239.111 0.390291 -3.57979 0
M  V30 2632 C 238.964 -0.913014 -4.40436 0
M  V30 2633 C 240.283 1.16794 -4.2432 0
M  V30 2634 H 237.402 0.0541924 -0.735005 0
M  V30 2635 H 240.044 -0.554955 -1.81715 0
M  V30 2636 H 238.194 0.993491 -3.75582 0
M  V30 2637 H 239.866 -1.54882 -4.34522 0
M  V30 2638 H 238.109 -1.52168 -4.06236 0
M  V30 2639 H 238.78 -0.701361 -5.47526 0
M  V30 2640 H 241.256 0.657161 -4.10878 0
M  V30 2641 H 240.132 1.3026 -5.3322 0
M  V30 2642 H 240.393 2.19132 -3.83971 0
M  V30 2643 N 239.452 1.56882 -0.150215 0
M  V30 2644 C 240.698 1.96518 0.500834 0
M  V30 2645 C 241.031 1.03527 1.64304 0
M  V30 2646 O 240.306 0.0782751 1.94342 0
M  V30 2647 C 240.589 3.45822 1.00395 0
M  V30 2648 C 240.442 4.49591 -0.136983 0
M  V30 2649 C 241.761 3.97704 1.88467 0
M  V30 2650 H 238.88 0.714535 0.18058 0
M  V30 2651 H 241.522 1.88577 -0.232091 0
M  V30 2652 H 239.672 3.5272 1.62851 0
M  V30 2653 H 241.344 4.5477 -0.77343 0
M  V30 2654 H 239.587 4.26441 -0.795652 0
M  V30 2655 H 240.258 5.51402 0.256815 0
M  V30 2656 H 242.734 3.93304 1.35834 0
M  V30 2657 H 241.61 5.0263 2.20578 0
M  V30 2658 H 241.871 3.40252 2.82279 0
M  V30 2659 N 240.93 -0.123565 1.57115 0
M  V30 2660 C 241.893 -1.13583 1.99076 0
M  V30 2661 C 242.893 -1.34564 0.880296 0
M  V30 2662 O 244.083 -1.31158 1.14644 0
M  V30 2663 C 241.215 -2.49128 2.32698 0
M  V30 2664 H 242.408 -0.775287 2.89706 0
M  V30 2665 H 239.961 -0.36771 1.51913 0
M  V30 2666 H 240.696 -2.90111 1.44934 0
M  V30 2667 H 240.481 -2.35255 3.13684 0
M  V30 2668 H 241.971 -3.2199 2.65918 0
M  V30 2669 N 242.408 -1.52605 -0.393616 0
M  V30 2670 C 243.656 -1.67093 -1.13685 0
M  V30 2671 C 243.977 -0.411011 -1.90619 0
M  V30 2672 O 243.247 0.574491 -1.87287 0
M  V30 2673 H 241.827 -0.615923 -0.422668 0
M  V30 2674 H 244.489 -1.89704 -0.447039 0
M  V30 2675 H 243.585 -2.51922 -1.84232 0
M  V30 2676 N 243.887 0.651787 -1.4349 0
M  V30 2677 C 245.127 1.42345 -1.46688 0
M  V30 2678 C 245.491 1.91793 -0.0891023 0
M  V30 2679 O 246.692 2.688 0.00423594 0
M  V30 2680 C 244.963 2.57221 -2.48137 0
M  V30 2681 S 246.522 3.45725 -2.70221 0
M  V30 2682 H 243.34 0.485878 -0.51908 0
M  V30 2683 H 245.942 0.756578 -1.80267 0
M  V30 2684 H 244.646 2.1917 -3.46976 0
M  V30 2685 H 244.177 3.28757 -2.16061 0
M  V30 2686 H 246.192 4.53996 -2.00255 0
M  V30 2687 N 245.365 1.30045 0.890287 0
M  V30 2688 C 246.295 1.18541 2.01172 0
M  V30 2689 C 247.276 0.0773356 1.69924 0
M  V30 2690 O 248.461 0.25845 1.92473 0
M  V30 2691 C 245.591 0.870941 3.36202 0
M  V30 2692 C 244.545 1.93637 3.81692 0
M  V30 2693 C 243.871 1.475 5.13953 0
M  V30 2694 C 245.171 3.34666 4.00994 0
M  V30 2695 H 246.865 2.12359 2.11054 0
M  V30 2696 H 244.411 1.02238 1.01407 0
M  V30 2697 H 246.364 0.777141 4.14172 0
M  V30 2698 H 245.088 -0.102926 3.26438 0
M  V30 2699 H 243.747 2.01972 3.05946 0
M  V30 2700 H 243.395 0.489551 5.00612 0
M  V30 2701 H 243.095 2.1876 5.4536 0
M  V30 2702 H 244.619 1.39489 5.94454 0
M  V30 2703 H 246.033 3.2912 4.69417 0
M  V30 2704 H 244.43 4.03966 4.43769 0
M  V30 2705 H 245.5 3.76949 3.05021 0
M  V30 2706 N 246.843 -1.10192 1.12674 0
M  V30 2707 C 248.089 -1.82475 0.884915 0
M  V30 2708 C 248.422 -1.85093 -0.58773 0
M  V30 2709 O 247.697 -1.3134 -1.43457 0
M  V30 2710 C 247.98 -3.29018 1.46353 0
M  V30 2711 C 247.833 -3.34718 3.00473 0
M  V30 2712 C 249.152 -4.25473 1.12519 0
M  V30 2713 H 246.271 -0.662492 0.322915 0
M  V30 2714 H 248.913 -1.2913 1.39375 0
M  V30 2715 H 247.063 -3.74576 1.03077 0
M  V30 2716 H 248.735 -2.97622 3.52447 0
M  V30 2717 H 246.978 -2.74541 3.35872 0
M  V30 2718 H 247.649 -4.37918 3.36053 0
M  V30 2719 H 250.125 -3.88161 1.499 0
M  V30 2720 H 249.001 -5.26365 1.55663 0
M  V30 2721 H 249.262 -4.42084 0.0377407 0
M  V30 2722 N 248.321 -0.919034 -1.28029 0
M  V30 2723 C 249.732 -0.600735 -1.76771 0
M  V30 2724 C 250.083 0.884024 -1.75156 0
M  V30 2725 O 249.208 1.69163 -1.34956 0
M  V30 2726 C 249.803 -1.08372 -3.21 0
M  V30 2727 C 248.362 -0.816248 -3.67443 0
M  V30 2728 C 247.509 -1.24742 -2.47658 0
M  V30 2729 H 250.46 -1.09974 -1.14418 0
M  V30 2730 H 250.481 -0.427512 -3.78091 0
M  V30 2731 H 249.993 -2.16437 -3.22144 0
M  V30 2732 H 248.094 0.250968 -3.71754 0
M  V30 2733 H 248.207 -1.4277 -4.57333 0
M  V30 2734 H 246.571 -0.666083 -2.45836 0
M  V30 2735 H 247.354 -2.33653 -2.51518 0
M  V30 2736 N 249.799 1.42003 -0.683588 0
M  V30 2737 C 250.747 2.326 0.000815408 0
M  V30 2738 C 251.741 1.50308 0.781278 0
M  V30 2739 O 252.947 1.66322 0.688251 0
M  V30 2740 H 249.322 0.751758 0.0190616 0
M  V30 2741 H 251.293 2.88011 -0.780528 0
M  V30 2742 C 250.042 3.34978 0.93195 0
M  V30 2743 H 249.365 3.98345 0.340817 0
M  V30 2744 H 250.805 4.00936 1.37936 0
M  V30 2745 C 249.264 2.67925 2.04249 0
M  V30 2746 O 249.794 2.51788 3.12995 0
M  V30 2747 N 248 2.2681 1.81675 0
M  V30 2748 H 247.547 2.40135 0.932363 0
M  V30 2749 H 247.505 1.8228 2.56167 0
M  V30 2750 N 251.277 0.427512 1.51691 0
M  V30 2751 C 252.207 -0.3796 2.30394 0
M  V30 2752 C 253.188 -1.02982 1.35384 0
M  V30 2753 O 254.373 -1.03534 1.643 0
M  V30 2754 C 251.503 -1.48649 3.1388 0
M  V30 2755 C 250.457 -0.960294 4.17088 0
M  V30 2756 C 249.783 -2.16219 4.89033 0
M  V30 2757 C 251.083 -0.00153679 5.223 0
M  V30 2758 H 252.777 0.277164 2.98114 0
M  V30 2759 H 250.323 0.134739 1.43368 0
M  V30 2760 H 252.276 -2.05826 3.67714 0
M  V30 2761 H 251 -2.1714 2.43962 0
M  V30 2762 H 249.659 -0.410806 3.64291 0
M  V30 2763 H 249.307 -2.83307 4.15628 0
M  V30 2764 H 249.007 -1.81654 5.58816 0
M  V30 2765 H 250.531 -2.73968 5.45687 0
M  V30 2766 H 251.945 -0.482687 5.71264 0
M  V30 2767 H 250.342 0.256199 5.99553 0
M  V30 2768 H 251.412 0.938174 4.75738 0
M  V30 2769 N 252.755 -1.56801 0.158532 0
M  V30 2770 C 254.002 -1.9649 -0.489679 0
M  V30 2771 C 254.33 -1.04394 -1.6411 0
M  V30 2772 O 253.585 -0.0754401 -1.95555 0
M  V30 2773 C 253.884 -3.4235 -1.02623 0
M  V30 2774 C 253.55 -4.50899 0.00794526 0
M  V30 2775 C 252.212 -4.80312 0.292207 0
M  V30 2776 C 254.564 -5.16333 0.710584 0
M  V30 2777 C 251.892 -5.72461 1.28472 0
M  V30 2778 C 254.244 -6.09553 1.69199 0
M  V30 2779 C 252.908 -6.37339 1.98383 0
M  V30 2780 H 252.178 -0.719009 -0.179186 0
M  V30 2781 H 254.825 -1.8989 0.247798 0
M  V30 2782 H 253.13 -3.45838 -1.84128 0
M  V30 2783 H 254.827 -3.70393 -1.53656 0
M  V30 2784 H 251.417 -4.28015 -0.22379 0
M  V30 2785 H 255.601 -4.93732 0.504174 0
M  V30 2786 H 250.857 -5.92278 1.51714 0
M  V30 2787 H 255.031 -6.59327 2.24189 0
M  V30 2788 H 252.658 -7.08546 2.7544 0
M  V30 2789 N 254.233 0.115231 -1.57178 0
M  V30 2790 C 255.48 0.822351 -1.8505 0
M  V30 2791 C 255.808 1.79701 -0.744168 0
M  V30 2792 O 255.063 1.93909 0.26414 0
M  V30 2793 C 255.362 1.60324 -3.19423 0
M  V30 2794 C 255.028 0.772536 -4.44233 0
M  V30 2795 C 253.69 0.543468 -4.78121 0
M  V30 2796 C 256.042 0.193746 -5.2084 0
M  V30 2797 C 253.37 -0.274583 -5.86057 0
M  V30 2798 C 255.722 -0.611517 -6.29637 0
M  V30 2799 C 254.386 -0.850867 -6.62055 0
M  V30 2800 H 253.656 0.30092 -0.677147 0
M  V30 2801 H 256.303 0.0845802 -1.91313 0
M  V30 2802 H 254.608 2.41203 -3.08753 0
M  V30 2803 H 256.305 2.1544 -3.38211 0
M  V30 2804 H 252.895 0.96117 -4.17683 0
M  V30 2805 H 257.079 0.357926 -4.95008 0
M  V30 2806 H 252.335 -0.469206 -6.09597 0
M  V30 2807 H 256.509 -1.06697 -6.88178 0
M  V30 2808 H 254.136 -1.48657 -7.45523 0
M  V30 2809 N 255.711 1.52812 0.385517 0
M  V30 2810 C 256.957 1.68275 1.13188 0
M  V30 2811 C 257.29 0.423179 1.89533 0
M  V30 2812 O 256.565 -0.579113 1.85679 0
M  V30 2813 C 256.848 2.92001 2.1073 0
M  V30 2814 C 256.701 4.28067 1.38125 0
M  V30 2815 C 258.02 3.11283 3.11113 0
M  V30 2816 H 255.139 0.612352 0.410115 0
M  V30 2817 H 257.781 1.85415 0.414869 0
M  V30 2818 H 255.931 2.77519 2.71874 0
M  V30 2819 H 257.603 4.54324 0.799187 0
M  V30 2820 H 255.846 4.28388 0.683092 0
M  V30 2821 H 256.517 5.10733 2.09417 0
M  V30 2822 H 258.993 3.2482 2.6006 0
M  V30 2823 H 257.869 3.99325 3.76605 0
M  V30 2824 H 258.13 2.25656 3.80173 0
M  V30 2825 N 257.189 -0.644168 1.43834 0
M  V30 2826 C 258.417 -1.43147 1.49387 0
M  V30 2827 C 258.832 -1.88452 0.114583 0
M  V30 2828 O 258.189 -1.60047 -0.876989 0
M  V30 2829 C 258.24 -2.66046 2.44748 0
M  V30 2830 O 257.961 -2.22633 3.77314 0
M  V30 2831 C 259.462 -3.59311 2.59635 0
M  V30 2832 H 256.682 -0.439447 0.507077 0
M  V30 2833 H 259.226 -0.78895 1.88669 0
M  V30 2834 H 257.381 -3.26418 2.08638 0
M  V30 2835 H 257.795 -3.02216 4.28679 0
M  V30 2836 H 259.269 -4.42187 3.30416 0
M  V30 2837 H 259.746 -4.07259 1.64427 0
M  V30 2838 H 260.352 -3.04816 2.96593 0
M  V30 2839 N 258.668 -1.30515 -0.883378 0
M  V30 2840 C 259.896 -1.22359 -1.66841 0
M  V30 2841 C 260.311 0.213296 -1.87591 0
M  V30 2842 O 259.668 1.14075 -1.42454 0
M  V30 2843 C 259.719 -1.95011 -3.04389 0
M  V30 2844 O 259.44 -3.3309 -2.84575 0
M  V30 2845 C 260.941 -1.93532 -3.98824 0
M  V30 2846 H 258.161 -0.423371 -0.520575 0
M  V30 2847 H 260.705 -1.72167 -1.10357 0
M  V30 2848 H 258.86 -1.48997 -3.57601 0
M  V30 2849 H 259.274 -3.69907 -3.71846 0
M  V30 2850 H 260.748 -2.48902 -4.92699 0
M  V30 2851 H 261.225 -0.914627 -4.29571 0
M  V30 2852 H 261.831 -2.39364 -3.51547 0
M  V30 2853 N 260.146 1.09593 -1.13257 0
M  V30 2854 C 261.371 1.8604 -0.916732 0
M  V30 2855 C 261.796 1.80504 0.529146 0
M  V30 2856 O 261.154 1.18127 1.37534 0
M  V30 2857 C 261.202 3.32017 -1.40703 0
M  V30 2858 O 260.306 4.08141 -0.591153 0
M  V30 2859 H 259.647 0.576943 -0.328683 0
M  V30 2860 H 262.177 1.38405 -1.50682 0
M  V30 2861 H 262.187 3.82865 -1.4099 0
M  V30 2862 H 260.862 3.35361 -2.45979 0
M  V30 2863 H 259.439 3.67084 -0.656005 0
M  V30 2864 N 261.624 0.925811 1.2754 0
M  V30 2865 C 262.572 0.413897 2.28888 0
M  V30 2866 C 263.566 -0.500779 1.61829 0
M  V30 2867 O 264.772 -0.38069 1.75928 0
M  V30 2868 H 261.147 0.115274 0.743112 0
M  V30 2869 H 263.118 1.28151 2.69481 0
M  V30 2870 C 261.867 -0.319792 3.46226 0
M  V30 2871 H 261.19 0.374846 3.98039 0
M  V30 2872 H 262.63 -0.642435 4.19105 0
M  V30 2873 C 261.089 -1.53209 3.00048 0
M  V30 2874 O 261.619 -2.6309 3.03557 0
M  V30 2875 N 259.825 -1.38326 2.55566 0
M  V30 2876 H 259.372 -0.489292 2.5291 0
M  V30 2877 H 259.33 -2.19564 2.25031 0
M  V30 2878 N 263.102 -1.41638 0.69111 0
M  V30 2879 C 264.049 -2.30789 0.0229705 0
M  V30 2880 C 265.019 -1.46863 -0.775911 0
M  V30 2881 O 266.204 -1.75661 -0.74485 0
M  V30 2882 C 263.344 -3.32868 -0.910666 0
M  V30 2883 C 262.457 -4.31875 -0.103874 0
M  V30 2884 C 261.592 -5.21024 -1.03475 0
M  V30 2885 C 260.631 -6.11702 -0.220598 0
M  V30 2886 N 259.768 -6.93349 -1.10504 0
M  V30 2887 H 264.608 -2.87366 0.788978 0
M  V30 2888 H 262.145 -1.41535 0.400794 0
M  V30 2889 H 264.103 -3.90596 -1.46597 0
M  V30 2890 H 262.733 -2.77851 -1.64312 0
M  V30 2891 H 261.785 -3.76131 0.568285 0
M  V30 2892 H 263.097 -4.96003 0.527504 0
M  V30 2893 H 262.251 -5.83565 -1.65943 0
M  V30 2894 H 260.99 -4.57112 -1.69999 0
M  V30 2895 H 259.995 -5.48215 0.417187 0
M  V30 2896 H 261.22 -6.77668 0.440784 0
M  V30 2897 H 259.166 -6.3205 -1.75638 0
M  V30 2898 H 259.083 -7.54146 -0.529125 0
M  V30 2899 H 260.351 -7.60362 -1.71667 0
M  V30 2900 N 264.58 -0.43555 -1.51462 0
M  V30 2901 C 265.828 0.131254 -2.01673 0
M  V30 2902 C 266.149 1.43368 -1.32177 0
M  V30 2903 O 265.419 1.90524 -0.455769 0
M  V30 2904 H 263.999 0.0514954 -0.745223 0
M  V30 2905 H 266.661 -0.577847 -1.86137 0
M  V30 2906 H 265.757 0.308446 -3.10572 0
M  V30 2907 N 266.058 1.56714 -0.166846 0
M  V30 2908 C 267.286 2.0112 0.485644 0
M  V30 2909 C 267.701 1.04705 1.57106 0
M  V30 2910 O 267.058 0.0471923 1.82439 0
M  V30 2911 C 267.109 3.45361 1.06808 0
M  V30 2912 O 266.83 4.38092 0.0259995 0
M  V30 2913 C 268.331 4.05145 1.79924 0
M  V30 2914 H 265.551 0.65931 0.124704 0
M  V30 2915 H 268.095 2.02746 -0.267262 0
M  V30 2916 H 266.25 3.44524 1.7715 0
M  V30 2917 H 266.664 5.22519 0.455398 0
M  V30 2918 H 268.138 5.08009 2.15942 0
M  V30 2919 H 268.615 3.46982 2.69258 0
M  V30 2920 H 269.221 4.09672 1.14234 0
M  V30 2921 N 267.536 -0.106894 1.57237 0
M  V30 2922 C 268.764 -0.826389 1.8968 0
M  V30 2923 C 269.179 -1.72856 0.759353 0
M  V30 2924 O 268.536 -1.80503 -0.269263 0
M  V30 2925 C 268.587 -1.64967 3.21665 0
M  V30 2926 O 268.308 -0.783804 4.31031 0
M  V30 2927 C 269.809 -2.47326 3.67892 0
M  V30 2928 H 267.029 -0.236927 0.627779 0
M  V30 2929 H 269.573 -0.0876593 2.04312 0
M  V30 2930 H 267.728 -2.34103 3.08666 0
M  V30 2931 H 268.142 -1.35284 5.06753 0
M  V30 2932 H 269.616 -3.00604 4.6297 0
M  V30 2933 H 270.093 -3.25247 2.95146 0
M  V30 2934 H 270.699 -1.83411 3.83719 0
M  V30 2935 N 269.014 -1.53014 -0.377408 0
M  V30 2936 C 270.26 -1.68872 -1.12294 0
M  V30 2937 C 270.593 -0.433224 -1.89306 0
M  V30 2938 O 269.868 0.569258 -1.85983 0
M  V30 2939 C 270.151 -2.93115 -2.09179 0
M  V30 2940 C 270.004 -4.28794 -1.35853 0
M  V30 2941 C 271.323 -3.12928 -3.09458 0
M  V30 2942 H 268.442 -0.614518 -0.406862 0
M  V30 2943 H 271.084 -1.85633 -0.40503 0
M  V30 2944 H 269.234 -2.78956 -2.70399 0
M  V30 2945 H 270.906 -4.54742 -0.775082 0
M  V30 2946 H 269.149 -4.28744 -0.660364 0
M  V30 2947 H 269.82 -5.11837 -2.06706 0
M  V30 2948 H 272.296 -3.26194 -2.58334 0
M  V30 2949 H 271.172 -4.01316 -3.74482 0
M  V30 2950 H 271.433 -2.27669 -3.78971 0
M  V30 2951 N 270.492 0.636531 -1.44174 0
M  V30 2952 C 271.422 1.76003 -1.53444 0
M  V30 2953 C 272.403 1.65619 -0.387841 0
M  V30 2954 O 273.588 1.84461 -0.607257 0
M  V30 2955 C 270.718 3.14511 -1.4731 0
M  V30 2956 C 269.672 3.39677 -2.60391 0
M  V30 2957 C 268.998 4.78159 -2.39308 0
M  V30 2958 C 270.298 3.32772 -4.02567 0
M  V30 2959 H 271.992 1.68501 -2.47483 0
M  V30 2960 H 269.538 0.809237 -1.19111 0
M  V30 2961 H 271.491 3.92878 -1.52397 0
M  V30 2962 H 270.215 3.22783 -0.49785 0
M  V30 2963 H 268.874 2.63688 -2.54684 0
M  V30 2964 H 268.522 4.83128 -1.39988 0
M  V30 2965 H 268.222 4.95956 -3.15122 0
M  V30 2966 H 269.746 5.58762 -2.46205 0
M  V30 2967 H 271.16 4.01051 -4.09672 0
M  V30 2968 H 269.557 3.62104 -4.7854 0
M  V30 2969 H 270.627 2.30669 -4.2652 0
M  V30 2970 N 271.97 1.30982 0.876444 0
M  V30 2971 C 273.21 1.21589 1.64303 0
M  V30 2972 C 273.574 -0.223962 1.90689 0
M  V30 2973 O 274.775 -0.44128 2.65153 0
M  V30 2974 C 273.046 2.03007 2.94148 0
M  V30 2975 S 274.605 2.10405 3.85065 0
M  V30 2976 H 271.423 0.433161 0.563819 0
M  V30 2977 H 274.025 1.65565 1.03964 0
M  V30 2978 H 272.729 3.06719 2.72675 0
M  V30 2979 H 272.26 1.59725 3.59515 0
M  V30 2980 H 274.275 1.23765 4.80517 0
M  V30 2981 N 273.449 -1.08991 1.13837 0
M  V30 2982 C 274.399 -2.1393 0.788535 0
M  V30 2983 C 275.383 -1.59396 -0.219516 0
M  V30 2984 O 276.575 -1.76985 -0.0227557 0
M  V30 2985 C 273.704 -3.42305 0.261147 0
M  V30 2986 C 272.79 -4.03736 1.29837 0
M  V30 2987 N 273.181 -4.39659 2.50067 0
M  V30 2988 C 271.479 -4.30993 1.1472 0
M  V30 2989 C 272.18 -4.88113 3.16419 0
M  V30 2990 N 271.156 -4.85846 2.43832 0
M  V30 2991 H 274.958 -2.39516 1.70322 0
M  V30 2992 H 272.472 -1.26263 1.02134 0
M  V30 2993 H 274.469 -4.16899 -0.0077405 0
M  V30 2994 H 273.129 -3.18172 -0.647805 0
M  V30 2995 H 274.14 -4.30878 2.8734 0
M  V30 2996 H 270.817 -4.16444 0.296773 0
M  V30 2997 H 272.207 -5.25336 4.18894 0
M  V30 2998 N 274.927 -0.932562 -1.27047 0
M  V30 2999 C 276.204 -0.49377 -1.89265 0
M  V30 3000 C 276.584 1.02833 -1.8436 0
M  V30 3001 O 275.932 1.88461 -1.29209 0
M  V30 3002 C 276.142 -1.04536 -3.32976 0
M  V30 3003 C 277.49 -1.10879 -4.09867 0
M  V30 3004 O 278.514 -0.995327 -3.42011 0
M  V30 3005 O 277.373 -1.28417 -5.31198 0
M  V30 3006 H 274.467 -0.159596 -0.811454 0
M  V30 3007 H 277.013 -1.02457 -1.3528 0
M  V30 3008 H 275.785 -2.08913 -3.30864 0
M  V30 3009 H 275.408 -0.496494 -3.94488 0
M  V30 3010 N 276.405 1.4127 -0.698611 0
M  V30 3011 C 277.633 2.05503 -0.239992 0
M  V30 3012 C 278.048 1.52584 1.11191 0
M  V30 3013 O 277.405 0.675323 1.69545 0
M  V30 3014 C 277.456 3.60987 -0.192429 0
M  V30 3015 O 277.177 4.1195 -1.49094 0
M  V30 3016 C 278.678 4.42371 0.28681 0
M  V30 3017 H 275.898 0.661748 -0.111045 0
M  V30 3018 H 278.442 1.80987 -0.95205 0
M  V30 3019 H 276.597 3.84533 0.470472 0
M  V30 3020 H 277.011 5.06018 -1.38007 0
M  V30 3021 H 278.485 5.51344 0.26896 0
M  V30 3022 H 278.962 4.18699 1.32619 0
M  V30 3023 H 279.568 4.23897 -0.345201 0
M  V30 3024 N 277.883 0.443576 1.51229 0
M  V30 3025 C 279.111 -0.11929 2.06556 0
M  V30 3026 C 279.526 -1.35921 1.31038 0
M  V30 3027 O 278.883 -1.78675 0.371704 0
M  V30 3028 C 278.934 -0.435228 3.5887 0
M  V30 3029 O 278.655 0.755486 4.31537 0
M  V30 3030 C 280.156 -1.04808 4.30732 0
M  V30 3031 H 277.376 -0.0051584 0.67098 0
M  V30 3032 H 279.92 0.624453 1.94733 0
M  V30 3033 H 278.075 -1.12887 3.70588 0
M  V30 3034 H 278.489 0.483491 5.22267 0
M  V30 3035 H 279.963 -1.2191 5.3837 0
M  V30 3036 H 280.44 -2.03081 3.89429 0
M  V30 3037 H 281.046 -0.393637 4.23474 0
M  V30 3038 N 279.361 -1.56624 0.175154 0
M  V30 3039 C 280.777 -1.58571 -0.180966 0
M  V30 3040 C 280.977 -1.19065 -1.6256 0
M  V30 3041 O 280.033 -0.904044 -2.35761 0
M  V30 3042 C 281.346 -3.00522 0.103326 0
M  V30 3043 C 282.894 -3.12972 0.0418426 0
M  V30 3044 C 283.369 -4.57022 0.299175 0
M  V30 3045 N 284.86 -4.62541 0.247086 0
M  V30 3046 C 285.595 -5.71857 0.420318 0
M  V30 3047 N 285.091 -6.89717 0.652816 0
M  V30 3048 N 286.884 -5.60972 0.355957 0
M  V30 3049 H 279.035 -1.80589 1.11809 0
M  V30 3050 H 281.298 -0.837178 0.444788 0
M  V30 3051 H 281.004 -3.33916 1.10422 0
M  V30 3052 H 280.878 -3.72344 -0.603299 0
M  V30 3053 H 283.265 -2.79403 -0.949636 0
M  V30 3054 H 283.346 -2.43578 0.781238 0
M  V30 3055 H 282.99 -4.913 1.28788 0
M  V30 3056 H 282.92 -5.24579 -0.460876 0
M  V30 3057 H 285.411 -3.77829 0.0731895 0
M  V30 3058 H 285.724 -7.68911 0.774347 0
M  V30 3059 H 284.069 -6.91572 0.689476 0
M  V30 3060 H 287.26 -4.67773 0.174882 0
M  V30 3061 H 287.433 -6.46111 0.494388 0
M  V30 3062 N 280.839 0.0985539 -1.57292 0
M  V30 3063 C 282.25 0.653457 -1.74891 0
M  V30 3064 C 282.601 1.7929 -0.796838 0
M  V30 3065 O 281.726 2.16385 0.0254886 0
M  V30 3066 C 282.321 1.19216 -3.17133 0
M  V30 3067 C 280.88 1.69316 -3.36168 0
M  V30 3068 C 280.027 0.601294 -2.70702 0
M  V30 3069 H 282.978 -0.127497 -1.58187 0
M  V30 3070 H 282.999 2.06154 -3.19814 0
M  V30 3071 H 282.511 0.362635 -3.86402 0
M  V30 3072 H 280.612 2.5468 -2.71972 0
M  V30 3073 H 280.725 1.78853 -4.44464 0
M  V30 3074 H 279.089 1.0399 -2.32504 0
M  V30 3075 H 279.872 -0.217592 -3.4261 0
M  V30 3076 N 282.317 1.53212 0.369288 0
M  V30 3077 C 283.227 1.82342 1.47609 0
M  V30 3078 C 284.243 0.711532 1.58787 0
M  V30 3079 O 285.419 1.0012 1.74751 0
M  V30 3080 C 282.484 2.00393 2.8292 0
M  V30 3081 C 281.545 3.24297 2.81301 0
M  V30 3082 C 280.778 3.41478 4.10157 0
M  V30 3083 O 281.001 2.63033 5.06132 0
M  V30 3084 O 279.935 4.34817 4.16194 0
M  V30 3085 H 283.761 2.76366 1.25918 0
M  V30 3086 H 281.346 1.38547 0.559034 0
M  V30 3087 H 283.228 2.13859 3.63101 0
M  V30 3088 H 281.903 1.09559 3.04596 0
M  V30 3089 H 280.81 3.16257 1.99831 0
M  V30 3090 H 282.143 4.15041 2.64578 0
M  V30 3091 N 283.795 -0.628877 1.44509 0
M  V30 3092 C 284.705 -1.7694 1.54044 0
M  V30 3093 C 285.721 -1.68705 0.425987 0
M  V30 3094 O 286.897 -1.89442 0.683656 0
M  V30 3095 C 283.962 -3.13332 1.48405 0
M  V30 3096 C 283.023 -3.33181 2.70719 0
M  V30 3097 C 282.256 -4.63067 2.6534 0
M  V30 3098 O 282.479 -5.44017 1.71469 0
M  V30 3099 O 281.413 -4.85167 3.56226 0
M  V30 3100 H 285.239 -1.71848 2.50403 0
M  V30 3101 H 282.824 -0.790378 1.26781 0
M  V30 3102 H 284.706 -3.94634 1.47791 0
M  V30 3103 H 283.381 -3.1896 0.551898 0
M  V30 3104 H 282.288 -2.51549 2.769 0
M  V30 3105 H 283.621 -3.32416 3.62988 0
M  V30 3106 N 285.273 -1.31445 -0.869486 0
M  V30 3107 C 286.52 -1.21158 -1.62256 0
M  V30 3108 C 286.848 0.230155 -1.93133 0
M  V30 3109 O 286.103 1.17906 -1.56194 0
M  V30 3110 C 286.402 -2.00145 -2.96102 0
M  V30 3111 C 286.068 -3.4964 -2.84715 0
M  V30 3112 C 284.73 -3.90403 -2.81317 0
M  V30 3113 C 287.082 -4.44769 -2.71716 0
M  V30 3114 C 284.41 -5.24561 -2.62778 0
M  V30 3115 C 286.762 -5.79054 -2.54714 0
M  V30 3116 C 285.426 -6.19037 -2.49699 0
M  V30 3117 H 284.696 -0.443348 -0.593737 0
M  V30 3118 H 287.343 -1.62715 -1.00976 0
M  V30 3119 H 285.648 -1.5127 -3.6142 0
M  V30 3120 H 287.345 -1.89566 -3.53363 0
M  V30 3121 H 283.935 -3.17256 -2.88178 0
M  V30 3122 H 288.119 -4.14208 -2.73397 0
M  V30 3123 H 283.375 -5.54613 -2.57321 0
M  V30 3124 H 287.549 -6.52393 -2.43632 0
M  V30 3125 H 285.176 -7.22935 -2.35093 0
M  V30 3126 N 286.751 1.08385 -1.14413 0
M  V30 3127 C 288.028 1.77429 -0.823297 0
M  V30 3128 C 288.408 1.9974 0.683163 0
M  V30 3129 O 287.756 1.60739 1.62405 0
M  V30 3130 C 287.966 3.09004 -1.62227 0
M  V30 3131 C 289.314 3.83532 -1.82177 0
M  V30 3132 O 290.338 3.18786 -1.58915 0
M  V30 3133 O 289.197 4.99792 -2.21067 0
M  V30 3134 H 286.291 0.769999 -0.301712 0
M  V30 3135 H 288.837 1.14846 -1.24934 0
M  V30 3136 H 287.609 2.88316 -2.64555 0
M  V30 3137 H 287.232 3.79316 -1.19187 0
M  V30 3138 N 288.23 0.939286 1.26551 0
M  V30 3139 C 289.18 0.418284 2.2413 0
M  V30 3140 C 290.164 -0.483935 1.5345 0
M  V30 3141 O 291.356 -0.319489 1.74093 0
M  V30 3142 C 288.485 -0.31709 3.41832 0
M  V30 3143 C 287.571 0.602311 4.19801 0
M  V30 3144 N 287.962 1.72726 4.75394 0
M  V30 3145 C 286.26 0.407534 4.44134 0
M  V30 3146 C 286.961 2.30004 5.34297 0
M  V30 3147 N 285.937 1.58828 5.1988 0
M  V30 3148 H 289.739 1.27705 2.64705 0
M  V30 3149 H 287.253 0.794929 1.41614 0
M  V30 3150 H 289.25 -0.707364 4.10855 0
M  V30 3151 H 287.91 -1.17264 3.02786 0
M  V30 3152 H 288.921 2.10944 4.72994 0
M  V30 3153 H 285.598 -0.406406 4.15517 0
M  V30 3154 H 286.988 3.24778 5.88191 0
M  V30 3155 N 289.708 -1.40897 0.706093 0
M  V30 3156 C 290.938 -2.05075 0.250523 0
M  V30 3157 C 291.346 -1.53275 -1.10921 0
M  V30 3158 O 290.689 -0.680281 -1.7064 0
M  V30 3159 C 290.751 -3.59219 0.142178 0
M  V30 3160 C 290.415 -4.33864 1.43566 0
M  V30 3161 C 291.412 -4.62448 2.37566 0
M  V30 3162 C 289.097 -4.72946 1.69195 0
M  V30 3163 C 291.091 -5.29088 3.5545 0
M  V30 3164 C 288.778 -5.3932 2.87362 0
M  V30 3165 C 289.776 -5.6732 3.80312 0
M  V30 3166 O 289.464 -6.32325 4.96408 0
M  V30 3167 H 289.196 -0.666645 0.112074 0
M  V30 3168 H 291.75 -1.81467 0.962239 0
M  V30 3169 H 289.98 -3.81609 -0.6254 0
M  V30 3170 H 291.669 -4.0495 -0.277584 0
M  V30 3171 H 292.435 -4.32727 2.19027 0
M  V30 3172 H 288.314 -4.50527 0.977042 0
M  V30 3173 H 291.858 -5.50859 4.28018 0
M  V30 3174 H 287.755 -5.68461 3.05814 0
M  V30 3175 H 288.523 -6.50821 4.9636 0
M  V30 3176 N 291.186 -0.45159 -1.50991 0
M  V30 3177 C 292.432 0.110237 -2.025 0
M  V30 3178 C 292.765 1.41109 -1.33424 0
M  V30 3179 O 292.04 1.89135 -0.453659 0
M  V30 3180 C 292.323 0.314271 -3.58726 0
M  V30 3181 C 292.176 -1.00623 -4.38401 0
M  V30 3182 C 293.495 1.07767 -4.26702 0
M  V30 3183 H 290.614 0.0385897 -0.735989 0
M  V30 3184 H 293.256 -0.593374 -1.80497 0
M  V30 3185 H 291.406 0.913601 -3.77605 0
M  V30 3186 H 293.078 -1.64064 -4.31139 0
M  V30 3187 H 291.321 -1.6075 -4.02917 0
M  V30 3188 H 291.992 -0.817341 -5.45915 0
M  V30 3189 H 294.468 0.56986 -4.12179 0
M  V30 3190 H 293.344 1.18921 -5.35863 0
M  V30 3191 H 293.605 2.10939 -3.88532 0
M  V30 3192 N 292.664 1.56529 -0.183458 0
M  V30 3193 C 293.614 2.1515 0.754605 0
M  V30 3194 C 294.598 1.08904 1.18443 0
M  V30 3195 O 295.79 1.34997 1.14476 0
M  V30 3196 C 292.919 2.80531 1.97881 0
M  V30 3197 C 292.005 3.93952 1.57043 0
M  V30 3198 N 292.396 4.98221 0.87231 0
M  V30 3199 C 290.694 4.05338 1.86057 0
M  V30 3200 C 291.395 5.77836 0.669377 0
M  V30 3201 N 290.371 5.29858 1.21454 0
M  V30 3202 H 294.173 2.93132 0.212387 0
M  V30 3203 H 291.687 1.62391 0.0167725 0
M  V30 3204 H 293.684 3.20914 2.6612 0
M  V30 3205 H 292.344 2.04035 2.52586 0
M  V30 3206 H 293.355 5.15191 0.529033 0
M  V30 3207 H 290.032 3.39957 2.42354 0
M  V30 3208 H 291.422 6.71799 0.116422 0
M  V30 3209 N 294.142 -0.090211 1.57342 0
M  V30 3210 C 295.389 -0.792807 1.86335 0
M  V30 3211 C 295.717 -1.78494 0.772662 0
M  V30 3212 O 294.972 -1.94305 -0.233258 0
M  V30 3213 C 295.271 -1.55222 3.21933 0
M  V30 3214 C 294.937 -0.701765 4.45406 0
M  V30 3215 C 293.599 -0.467334 4.78925 0
M  V30 3216 C 295.951 -0.11086 5.21082 0
M  V30 3217 C 293.279 0.367785 5.85546 0
M  V30 3218 C 295.631 0.711609 6.28585 0
M  V30 3219 C 294.295 0.956086 6.60617 0
M  V30 3220 H 293.565 -0.290109 0.681849 0
M  V30 3221 H 296.212 -0.0541332 1.91423 0
M  V30 3222 H 294.517 -2.3626 3.12551 0
M  V30 3223 H 296.214 -2.10032 3.41595 0
M  V30 3224 H 292.804 -0.894598 4.1916 0
M  V30 3225 H 296.988 -0.279129 4.95514 0
M  V30 3226 H 292.244 0.566128 6.08773 0
M  V30 3227 H 296.418 1.17632 6.86393 0
M  V30 3228 H 294.045 1.60499 7.43064 0
M  V30 3229 N 295.62 -1.53406 -0.361157 0
M  V30 3230 C 296.845 -1.74024 -1.12829 0
M  V30 3231 C 297.27 -0.470069 -1.82132 0
M  V30 3232 O 296.628 0.57619 -1.719 0
M  V30 3233 C 296.676 -2.90903 -2.13091 0
M  V30 3234 O 295.78 -2.59821 -3.20261 0
M  V30 3235 H 295.121 -0.577804 -0.327168 0
M  V30 3236 H 297.651 -2.00307 -0.41693 0
M  V30 3237 H 297.661 -3.17194 -2.56616 0
M  V30 3238 H 296.336 -3.83034 -1.62042 0
M  V30 3239 H 294.913 -2.44362 -2.81677 0
M  V30 3240 N 297.098 0.621204 -1.44841 0
M  V30 3241 C 298.323 1.41244 -1.51871 0
M  V30 3242 C 298.748 1.87519 -0.147764 0
M  V30 3243 O 298.106 1.59334 0.865 0
M  V30 3244 C 298.154 2.60221 -2.49634 0
M  V30 3245 O 297.258 3.60395 -2.00473 0
M  V30 3246 H 296.599 0.42223 -0.512463 0
M  V30 3247 H 299.129 0.757305 -1.90069 0
M  V30 3248 H 299.139 3.0764 -2.67996 0
M  V30 3249 H 297.814 2.25887 -3.4921 0
M  V30 3250 H 296.391 3.19717 -1.91925 0
M  V30 3251 N 298.576 1.31904 0.862503 0
M  V30 3252 C 299.539 1.20131 1.95195 0
M  V30 3253 C 300.539 0.126409 1.60302 0
M  V30 3254 O 301.729 0.376234 1.70089 0
M  V30 3255 C 298.861 0.845691 3.30244 0
M  V30 3256 H 300.054 2.16943 2.07064 0
M  V30 3257 H 297.607 1.15622 1.05172 0
M  V30 3258 H 298.342 -0.120957 3.24074 0
M  V30 3259 H 298.127 1.62276 3.56944 0
M  V30 3260 H 299.617 0.787418 4.10109 0
M  V30 3261 N 300.054 -1.07777 1.14986 0
M  V30 3262 C 301.3 -1.80557 0.923422 0
M  V30 3263 C 301.633 -1.86298 -0.548337 0
M  V30 3264 O 300.908 -1.34354 -1.40639 0
M  V30 3265 C 301.191 -3.25839 1.53299 0
M  V30 3266 C 301.044 -3.28269 3.07505 0
M  V30 3267 C 302.363 -4.22991 1.21518 0
M  V30 3268 H 299.482 -0.655493 0.336894 0
M  V30 3269 H 302.124 -1.26144 1.42083 0
M  V30 3270 H 300.274 -3.72306 1.10999 0
M  V30 3271 H 301.946 -2.90079 3.58681 0
M  V30 3272 H 300.189 -2.67355 3.4162 0
M  V30 3273 H 300.86 -4.30691 3.45266 0
M  V30 3274 H 303.336 -3.84894 1.581 0
M  V30 3275 H 302.212 -5.22945 1.66793 0
M  V30 3276 H 302.473 -4.41904 0.131505 0
M  V30 3277 N 301.532 -0.945985 -1.26051 0
M  V30 3278 C 302.465 -0.403619 -2.24602 0
M  V30 3279 C 303.443 0.510241 -1.54387 0
M  V30 3280 O 304.627 0.446593 -1.83133 0
M  V30 3281 C 301.754 0.419564 -3.36091 0
M  V30 3282 C 300.8 -0.433454 -4.24292 0
M  V30 3283 S 301.633 -1.86037 -5.02146 0
M  V30 3284 C 302.789 -1.04538 -6.17108 0
M  V30 3285 H 303.022 -1.23883 -2.7026 0
M  V30 3286 H 300.555 -0.749438 -1.34992 0
M  V30 3287 H 302.513 0.888595 -4.00767 0
M  V30 3288 H 301.174 1.22951 -2.89036 0
M  V30 3289 H 300.367 0.197486 -5.03613 0
M  V30 3290 H 299.969 -0.837357 -3.64506 0
M  V30 3291 H 302.261 -0.289923 -6.76879 0
M  V30 3292 H 303.204 -1.81222 -6.84518 0
M  V30 3293 H 303.612 -0.579319 -5.61519 0
M  V30 3294 N 303.011 1.40521 -0.713556 0
M  V30 3295 C 304.259 2.00527 -0.251692 0
M  V30 3296 C 304.58 1.56857 1.15848 0
M  V30 3297 O 303.85 0.807127 1.785 0
M  V30 3298 H 302.43 0.741551 -0.0900646 0
M  V30 3299 H 305.092 1.71887 -0.918733 0
M  V30 3300 H 304.188 3.10813 -0.283192 0
M  V30 3301 N 304.489 0.459591 1.5075 0
M  V30 3302 C 305.419 -0.330644 2.31147 0
M  V30 3303 C 306.4 -1.00087 1.37538 0
M  V30 3304 O 307.585 -1.00025 1.66459 0
M  V30 3305 C 304.715 -1.41958 3.16962 0
M  V30 3306 C 303.669 -0.871608 4.19031 0
M  V30 3307 C 302.995 -2.05797 4.9351 0
M  V30 3308 C 304.295 0.109251 5.22186 0
M  V30 3309 H 305.989 0.340336 2.97459 0
M  V30 3310 H 303.535 0.165119 1.4305 0
M  V30 3311 H 305.488 -1.9798 3.71997 0
M  V30 3312 H 304.212 -2.11917 2.48513 0
M  V30 3313 H 302.871 -0.333442 3.6508 0
M  V30 3314 H 302.519 -2.74427 4.21544 0
M  V30 3315 H 302.219 -1.6976 5.62544 0
M  V30 3316 H 303.743 -2.62331 5.51375 0
M  V30 3317 H 305.157 -0.361405 5.7216 0
M  V30 3318 H 303.554 0.383316 5.98875 0
M  V30 3319 H 304.624 1.03887 4.73641 0
M  V30 3320 N 305.967 -1.56429 0.191757 0
M  V30 3321 C 306.897 -2.21937 -0.725696 0
M  V30 3322 C 307.878 -1.1814 -1.2238 0
M  V30 3323 O 309.063 -1.46636 -1.27325 0
M  V30 3324 C 306.193 -2.87611 -1.94672 0
M  V30 3325 C 305.147 -3.97623 -1.58366 0
M  V30 3326 C 304.473 -4.50446 -2.88102 0
M  V30 3327 C 305.773 -5.16197 -0.796133 0
M  V30 3328 H 307.467 -2.98861 -0.179606 0
M  V30 3329 H 305.013 -1.43749 -0.0849464 0
M  V30 3330 H 306.966 -3.3212 -2.59373 0
M  V30 3331 H 305.69 -2.08087 -2.51728 0
M  V30 3332 H 304.349 -3.53801 -0.960247 0
M  V30 3333 H 303.997 -3.67688 -3.43241 0
M  V30 3334 H 303.697 -5.24675 -2.64556 0
M  V30 3335 H 305.221 -4.97654 -3.53798 0
M  V30 3336 H 306.635 -5.57271 -1.34618 0
M  V30 3337 H 305.032 -5.96471 -0.658928 0
M  V30 3338 H 306.102 -4.84473 0.203478 0
M  V30 3339 N 307.445 0.0818655 -1.57387 0
M  V30 3340 C 308.692 0.782914 -1.86753 0
M  V30 3341 C 309.02 1.78082 -0.782118 0
M  V30 3342 O 308.275 1.94426 0.22295 0
M  V30 3343 C 308.574 1.53513 -3.22752 0
M  V30 3344 C 308.24 0.678134 -4.45771 0
M  V30 3345 C 306.902 0.441929 -4.79166 0
M  V30 3346 C 309.254 0.0832243 -5.21134 0
M  V30 3347 C 306.582 -0.398833 -5.85343 0
M  V30 3348 C 308.934 -0.744935 -6.28199 0
M  V30 3349 C 307.598 -0.991107 -6.60101 0
M  V30 3350 H 306.868 0.286489 -0.683378 0
M  V30 3351 H 309.515 0.0439808 -1.91449 0
M  V30 3352 H 307.82 2.34599 -3.138 0
M  V30 3353 H 309.517 2.08218 -3.42705 0
M  V30 3354 H 306.107 0.872357 -4.19628 0
M  V30 3355 H 310.291 0.252847 -4.95655 0
M  V30 3356 H 305.547 -0.598405 -6.08465 0
M  V30 3357 H 309.721 -1.21271 -6.8576 0
M  V30 3358 H 307.348 -1.64437 -7.42202 0
M  V30 3359 N 308.923 1.53595 0.353017 0
M  V30 3360 C 310.171 1.70049 1.09215 0
M  V30 3361 C 310.492 0.461406 1.89463 0
M  V30 3362 O 309.762 -0.524633 1.88744 0
M  V30 3363 H 308.342 0.626912 0.40619 0
M  V30 3364 H 311.004 1.90822 0.396585 0
M  V30 3365 H 310.1 2.56718 1.77488 0
M  V30 3366 N 310.401 -0.613514 1.45168 0
M  V30 3367 C 311.647 -1.37471 1.49096 0
M  V30 3368 C 311.98 -1.93765 0.129901 0
M  V30 3369 O 311.255 -1.74707 -0.854858 0
M  V30 3370 C 311.538 -2.52701 2.56542 0
M  V30 3371 C 311.391 -2.01643 4.0207 0
M  V30 3372 C 312.71 -3.54849 2.60327 0
M  V30 3373 H 309.829 -0.498502 0.54283 0
M  V30 3374 H 312.471 -0.692125 1.76945 0
M  V30 3375 H 310.621 -3.10931 2.32926 0
M  V30 3376 H 312.293 -1.48108 4.36877 0
M  V30 3377 H 310.536 -1.32688 4.13009 0
M  V30 3378 H 311.207 -2.84681 4.72928 0
M  V30 3379 H 313.683 -3.0645 2.81474 0
M  V30 3380 H 312.559 -4.32973 3.37381 0
M  V30 3381 H 312.82 -4.10079 1.6519 0
M  V30 3382 N 311.879 -1.3236 -0.855495 0
M  V30 3383 C 313.29 -1.2056 -1.42556 0
M  V30 3384 C 313.641 0.182209 -1.95352 0
M  V30 3385 O 312.766 1.08088 -1.87472 0
M  V30 3386 C 313.361 -2.1826 -2.59129 0
M  V30 3387 C 311.92 -2.10351 -3.12137 0
M  V30 3388 C 311.067 -2.06674 -1.84882 0
M  V30 3389 H 314.018 -1.442 -0.662727 0
M  V30 3390 H 314.039 -1.78064 -3.36264 0
M  V30 3391 H 313.551 -3.19257 -2.20673 0
M  V30 3392 H 311.652 -1.12599 -3.55179 0
M  V30 3393 H 311.765 -3.00135 -3.73438 0
M  V30 3394 H 310.129 -1.51901 -2.04446 0
M  V30 3395 H 310.912 -3.09451 -1.48643 0
M  V30 3396 N 313.357 1.07166 -1.15556 0
M  V30 3397 C 314.597 1.81391 -0.94216 0
M  V30 3398 C 314.961 1.84788 0.521272 0
M  V30 3399 O 316.162 2.54904 0.85307 0
M  V30 3400 C 314.433 3.22431 -1.54185 0
M  V30 3401 S 315.992 4.13379 -1.47183 0
M  V30 3402 H 312.81 0.624963 -0.339031 0
M  V30 3403 H 315.412 1.28725 -1.4714 0
M  V30 3404 H 314.116 3.17548 -2.59984 0
M  V30 3405 H 313.647 3.80172 -1.01156 0
M  V30 3406 H 315.662 4.94007 -0.466004 0
M  V30 3407 N 314.835 0.952656 1.25548 0
M  V30 3408 C 315.765 0.489287 2.28316 0
M  V30 3409 C 316.746 -0.463359 1.63667 0
M  V30 3410 O 317.931 -0.36274 1.90782 0
M  V30 3411 C 315.061 -0.235603 3.465 0
M  V30 3412 C 314.015 0.631593 4.23314 0
M  V30 3413 C 313.341 -0.223923 5.34231 0
M  V30 3414 C 314.641 1.90871 4.86174 0
M  V30 3415 H 316.335 1.34822 2.67326 0
M  V30 3416 H 313.881 0.649728 1.28509 0
M  V30 3417 H 315.834 -0.570882 4.17515 0
M  V30 3418 H 314.558 -1.12877 3.06474 0
M  V30 3419 H 313.217 0.949929 3.54079 0
M  V30 3420 H 312.865 -1.11678 4.90446 0
M  V30 3421 H 312.565 0.35299 5.86539 0
M  V30 3422 H 314.089 -0.554214 6.0808 0
M  V30 3423 H 315.503 1.63997 5.49343 0
M  V30 3424 H 313.9 2.43112 5.4865 0
M  V30 3425 H 314.97 2.61304 4.08471 0
M  V30 3426 N 316.313 -1.40141 0.720998 0
M  V30 3427 C 317.559 -2.01084 0.263231 0
M  V30 3428 C 317.892 -1.57052 -1.14229 0
M  V30 3429 O 317.167 -0.793027 -1.77599 0
M  V30 3430 C 317.45 -3.58401 0.349344 0
M  V30 3431 C 317.303 -4.12491 1.79363 0
M  V30 3432 C 318.622 -4.39231 -0.276351 0
M  V30 3433 H 315.741 -0.730572 0.0971228 0
M  V30 3434 H 318.383 -1.66543 0.914518 0
M  V30 3435 H 316.533 -3.87958 -0.205165 0
M  V30 3436 H 318.205 -3.93711 2.40394 0
M  V30 3437 H 316.448 -3.66576 2.31958 0
M  V30 3438 H 317.119 -5.21646 1.80524 0
M  V30 3439 H 319.595 -4.15637 0.196184 0
M  V30 3440 H 318.471 -5.48586 -0.185681 0
M  V30 3441 H 318.732 -4.20643 -1.36059 0
M  V30 3442 N 317.792 -0.46758 -1.50504 0
M  V30 3443 C 319.02 0.0864133 -2.06719 0
M  V30 3444 C 319.435 1.33819 -1.33184 0
M  V30 3445 O 318.792 1.78061 -0.400083 0
M  V30 3446 C 318.843 0.378079 -3.59517 0
M  V30 3447 O 318.564 -0.824044 -4.3028 0
M  V30 3448 C 320.065 0.979426 -4.32345 0
M  V30 3449 H 317.285 -0.00551697 -0.670977 0
M  V30 3450 H 319.829 -0.655354 -1.93715 0
M  V30 3451 H 317.984 1.06977 -3.72337 0
M  V30 3452 H 318.398 -0.566518 -5.21432 0
M  V30 3453 H 319.872 1.1333 -5.40241 0
M  V30 3454 H 320.349 1.9686 -3.9261 0
M  V30 3455 H 320.955 0.326216 -4.24047 0
M  V30 3456 N 319.27 1.56325 -0.20005 0
M  V30 3457 C 320.2 2.22318 0.713916 0
M  V30 3458 C 321.181 1.18788 1.21752 0
M  V30 3459 O 322.366 1.47309 1.26545 0
M  V30 3460 C 319.496 2.88639 1.93144 0
M  V30 3461 C 318.45 3.98457 1.56255 0
M  V30 3462 C 317.776 4.51967 2.85709 0
M  V30 3463 C 319.076 5.16612 0.768747 0
M  V30 3464 H 320.77 2.98952 0.163755 0
M  V30 3465 H 318.316 1.43792 0.0773219 0
M  V30 3466 H 320.269 3.33491 2.57608 0
M  V30 3467 H 318.993 2.09419 2.50621 0
M  V30 3468 H 317.652 3.54305 0.941471 0
M  V30 3469 H 317.3 3.69503 3.41287 0
M  V30 3470 H 317 5.26071 2.6177 0
M  V30 3471 H 318.524 4.99523 3.51154 0
M  V30 3472 H 319.938 5.57977 1.3166 0
M  V30 3473 H 318.335 5.96812 0.627286 0
M  V30 3474 H 319.405 4.84358 -0.229168 0
M  V30 3475 N 320.748 -0.0735177 1.57428 0
M  V30 3476 C 321.994 -0.774145 1.87443 0
M  V30 3477 C 322.327 -1.77311 0.792103 0
M  V30 3478 O 321.602 -1.93492 -0.197793 0
M  V30 3479 C 321.885 -1.48367 3.28115 0
M  V30 3480 C 321.738 -0.501227 4.46999 0
M  V30 3481 C 323.057 -2.429 3.66998 0
M  V30 3482 H 320.176 -0.279971 0.681752 0
M  V30 3483 H 322.818 -0.0373616 1.89963 0
M  V30 3484 H 320.968 -2.11171 3.26097 0
M  V30 3485 H 322.64 0.121468 4.6114 0
M  V30 3486 H 320.883 0.183593 4.33411 0
M  V30 3487 H 321.554 -1.03526 5.42205 0
M  V30 3488 H 324.03 -1.90175 3.70098 0
M  V30 3489 H 322.906 -2.89549 4.66318 0
M  V30 3490 H 323.167 -3.27628 2.96837 0
M  V30 3491 N 322.226 -1.5378 -0.344866 0
M  V30 3492 C 323.466 -1.72677 -1.09371 0
M  V30 3493 C 323.83 -0.479084 -1.85927 0
M  V30 3494 O 325.031 -0.54505 -2.63216 0
M  V30 3495 C 323.302 -2.95457 -2.01097 0
M  V30 3496 S 324.861 -3.35158 -2.83222 0
M  V30 3497 H 321.679 -0.607402 -0.369573 0
M  V30 3498 H 324.281 -1.91922 -0.372307 0
M  V30 3499 H 322.985 -3.84437 -1.43655 0
M  V30 3500 H 322.516 -2.78673 -2.77678 0
M  V30 3501 H 324.531 -2.88789 -4.03504 0
M  V30 3502 N 323.704 0.605807 -1.45491 0
M  V30 3503 C 324.934 1.38934 -1.52908 0
M  V30 3504 C 325.342 1.88513 -0.161086 0
M  V30 3505 O 324.685 1.62962 0.847891 0
M  V30 3506 C 324.747 2.62737 -2.45376 0
M  V30 3507 C 324.411 2.34785 -3.92078 0
M  V30 3508 C 325.408 1.95038 -4.8193 0
M  V30 3509 C 323.093 2.47642 -4.37011 0
M  V30 3510 C 325.087 1.68511 -6.14722 0
M  V30 3511 C 322.774 2.20728 -5.69844 0
M  V30 3512 C 323.772 1.81225 -6.58519 0
M  V30 3513 O 323.46 1.54627 -7.88889 0
M  V30 3514 H 323.192 0.431629 -0.520262 0
M  V30 3515 H 325.746 0.74573 -1.91384 0
M  V30 3516 H 323.976 3.29824 -2.01874 0
M  V30 3517 H 325.665 3.24783 -2.43456 0
M  V30 3518 H 326.431 1.84639 -4.48479 0
M  V30 3519 H 322.31 2.77356 -3.68232 0
M  V30 3520 H 325.854 1.37602 -6.83894 0
M  V30 3521 H 321.751 2.30744 -6.02849 0
M  V30 3522 H 322.519 1.68665 -8.00933 0
M  V30 3523 N 325.182 1.32811 0.848464 0
M  V30 3524 C 326.43 1.23479 1.59991 0
M  V30 3525 C 326.751 -0.201853 1.93952 0
M  V30 3526 O 326.021 -1.12818 1.60153 0
M  V30 3527 H 324.601 0.454034 0.593179 0
M  V30 3528 H 327.263 1.66412 1.01455 0
M  V30 3529 H 326.359 1.82178 2.53412 0
M  V30 3530 N 326.66 -1.06551 1.16123 0
M  V30 3531 C 327.59 -2.15935 0.88851 0
M  V30 3532 C 328.571 -1.69306 -0.164135 0
M  V30 3533 O 329.756 -1.94193 -0.0167857 0
M  V30 3534 C 326.886 -3.45149 0.385942 0
M  V30 3535 C 325.84 -4.05271 1.3762 0
M  V30 3536 C 325.166 -5.29664 0.732137 0
M  V30 3537 C 326.466 -4.44355 2.74493 0
M  V30 3538 H 328.16 -2.39006 1.80323 0
M  V30 3539 H 325.706 -1.14866 0.868435 0
M  V30 3540 H 327.659 -4.21004 0.182647 0
M  V30 3541 H 326.383 -3.21689 -0.564274 0
M  V30 3542 H 325.042 -3.3147 1.56599 0
M  V30 3543 H 324.69 -5.02499 -0.224483 0
M  V30 3544 H 324.39 -5.70848 1.39307 0
M  V30 3545 H 325.914 -6.08218 0.538802 0
M  V30 3546 H 327.328 -5.11303 2.59311 0
M  V30 3547 H 325.725 -4.96515 3.37035 0
M  V30 3548 H 326.795 -3.55339 3.29943 0
M  V30 3549 N 328.138 -0.959301 -1.25041 0
M  V30 3550 C 329.071 -0.427418 -2.24161 0
M  V30 3551 C 330.049 0.493837 -1.54919 0
M  V30 3552 O 331.233 0.427144 -1.83597 0
M  V30 3553 C 328.36 0.383893 -3.36517 0
M  V30 3554 C 327.406 -0.478431 -4.23808 0
M  V30 3555 S 328.239 -1.91353 -5.00144 0
M  V30 3556 C 329.395 -1.11077 -6.15965 0
M  V30 3557 H 329.628 -1.26743 -2.6893 0
M  V30 3558 H 327.161 -0.763714 -1.34189 0
M  V30 3559 H 329.119 0.846039 -4.01687 0
M  V30 3560 H 327.78 1.19878 -2.90324 0
M  V30 3561 H 326.973 0.14406 -5.03794 0
M  V30 3562 H 326.575 -0.87597 -3.63597 0
M  V30 3563 H 328.867 -0.361699 -6.76534 0
M  V30 3564 H 329.81 -1.88472 -6.82557 0
M  V30 3565 H 330.218 -0.638843 -5.60873 0
M  V30 3566 N 329.616 1.39756 -0.72842 0
M  V30 3567 C 330.579 2.29012 -0.0927297 0
M  V30 3568 C 331.579 1.45992 0.674025 0
M  V30 3569 O 332.769 1.66749 0.50402 0
M  V30 3570 C 329.901 3.29396 0.878137 0
M  V30 3571 H 331.094 2.86729 -0.879011 0
M  V30 3572 H 328.647 1.48293 -0.493847 0
M  V30 3573 H 329.382 2.76722 1.69101 0
M  V30 3574 H 329.167 3.907 0.331051 0
M  V30 3575 H 330.657 3.96199 1.3197 0
M  V30 3576 N 331.094 0.475555 1.50254 0
M  V30 3577 C 332.51 0.12997 1.5907 0
M  V30 3578 C 332.71 -1.36385 1.48328 0
M  V30 3579 O 331.766 -2.13754 1.34407 0
M  V30 3580 C 333.079 0.684139 2.92814 0
M  V30 3581 C 334.627 0.647965 3.0622 0
M  V30 3582 C 335.102 1.17975 4.42545 0
M  V30 3583 N 336.593 1.13936 4.48969 0
M  V30 3584 C 337.328 1.52129 5.52851 0
M  V30 3585 N 336.824 1.97793 6.63965 0
M  V30 3586 N 338.617 1.43704 5.4342 0
M  V30 3587 H 330.768 1.44706 1.55479 0
M  V30 3588 H 333.031 0.598691 0.735033 0
M  V30 3589 H 332.737 1.73079 3.06164 0
M  V30 3590 H 332.611 0.130204 3.76975 0
M  V30 3591 H 334.998 -0.38979 2.92514 0
M  V30 3592 H 335.079 1.23876 2.23805 0
M  V30 3593 H 334.723 2.21616 4.57 0
M  V30 3594 H 334.653 0.565138 5.23559 0
M  V30 3595 H 337.144 0.804488 3.69238 0
M  V30 3596 H 337.457 2.25072 7.39299 0
M  V30 3597 H 335.802 2.01749 6.65073 0
M  V30 3598 H 338.993 1.07867 4.55502 0
M  V30 3599 H 339.166 1.73794 6.24259 0
M  V30 3600 N 332.573 -1.56217 0.208337 0
M  V30 3601 C 333.989 -1.58919 -0.14729 0
M  V30 3602 C 334.189 -1.22486 -1.59998 0
M  V30 3603 O 333.245 -0.953849 -2.3379 0
M  V30 3604 C 334.558 -3.00236 0.167048 0
M  V30 3605 C 336.106 -3.12813 0.108219 0
M  V30 3606 C 336.581 -4.56284 0.396049 0
M  V30 3607 N 338.072 -4.61912 0.345142 0
M  V30 3608 C 338.807 -5.70837 0.541523 0
M  V30 3609 N 338.303 -6.88178 0.798968 0
M  V30 3610 N 340.096 -5.60091 0.474867 0
M  V30 3611 H 332.247 -1.78177 1.15614 0
M  V30 3612 H 334.51 -0.827555 0.462446 0
M  V30 3613 H 334.216 -3.31499 1.1748 0
M  V30 3614 H 334.09 -3.7354 -0.524184 0
M  V30 3615 H 336.477 -2.81354 -0.890157 0
M  V30 3616 H 336.558 -2.41866 0.832729 0
M  V30 3617 H 336.202 -4.88458 1.3918 0
M  V30 3618 H 336.132 -5.25439 -0.349502 0
M  V30 3619 H 338.623 -3.77589 0.153316 0
M  V30 3620 H 338.936 -7.67095 0.93727 0
M  V30 3621 H 337.281 -6.89953 0.836013 0
M  V30 3622 H 340.472 -4.67297 0.274064 0
M  V30 3623 H 340.645 -6.44917 0.631326 0
M  V30 3624 N 334.051 0.0651679 -1.57465 0
M  V30 3625 C 334.981 1.07693 -2.07182 0
M  V30 3626 C 335.962 1.39962 -0.966673 0
M  V30 3627 O 337.147 1.49475 -1.2398 0
M  V30 3628 C 334.277 2.3885 -2.52127 0
M  V30 3629 C 333.231 2.20917 -3.66579 0
M  V30 3630 C 332.557 3.57515 -3.97601 0
M  V30 3631 C 333.857 1.62493 -4.9638 0
M  V30 3632 H 335.551 0.663199 -2.91962 0
M  V30 3633 H 333.097 0.317569 -1.40455 0
M  V30 3634 H 335.05 3.09928 -2.85522 0
M  V30 3635 H 333.774 2.82215 -1.64384 0
M  V30 3636 H 332.433 1.52279 -3.33477 0
M  V30 3637 H 332.081 3.98463 -3.06979 0
M  V30 3638 H 331.781 3.46353 -4.74672 0
M  V30 3639 H 333.305 4.30013 -4.33499 0
M  V30 3640 H 334.719 2.23445 -5.27963 0
M  V30 3641 H 333.116 1.62009 -5.77818 0
M  V30 3642 H 334.186 0.587041 -4.81333 0
M  V30 3643 N 335.529 1.53961 0.336706 0
M  V30 3644 C 336.759 1.75229 1.09446 0
M  V30 3645 C 337.167 0.494602 1.82621 0
M  V30 3646 O 336.51 -0.543764 1.75468 0
M  V30 3647 C 336.572 2.88288 2.1478 0
M  V30 3648 C 336.236 4.27656 1.6112 0
M  V30 3649 C 337.233 5.08981 1.0599 0
M  V30 3650 C 334.918 4.74161 1.6576 0
M  V30 3651 C 336.912 6.34916 0.562129 0
M  V30 3652 C 334.599 6.00067 1.15595 0
M  V30 3653 C 335.597 6.80278 0.609147 0
M  V30 3654 O 335.285 8.03818 0.114999 0
M  V30 3655 H 335.017 0.588881 0.331956 0
M  V30 3656 H 337.571 2.01614 0.392566 0
M  V30 3657 H 335.801 2.57443 2.88548 0
M  V30 3658 H 337.49 2.97461 2.76174 0
M  V30 3659 H 338.256 4.74213 1.01722 0
M  V30 3660 H 334.135 4.11781 2.07261 0
M  V30 3661 H 337.679 6.9747 0.134668 0
M  V30 3662 H 333.576 6.3433 1.19566 0
M  V30 3663 H 334.344 8.18172 0.231651 0
M  V30 3664 N 337.007 -0.598083 1.45811 0
M  V30 3665 C 337.939 -1.72231 1.51225 0
M  V30 3666 C 338.952 -1.57757 0.402059 0
M  V30 3667 O 340.141 -1.65464 0.669624 0
M  V30 3668 C 337.241 -3.10331 1.3619 0
M  V30 3669 C 336.414 -3.50955 2.61054 0
M  V30 3670 C 335.473 -4.68055 2.40439 0
M  V30 3671 O 334.499 -4.74691 3.14097 0
M  V30 3672 N 335.701 -5.61941 1.45612 0
M  V30 3673 H 338.466 -1.68046 2.48154 0
M  V30 3674 H 336.027 -0.783637 1.41671 0
M  V30 3675 H 338.019 -3.86439 1.20195 0
M  V30 3676 H 336.589 -3.0897 0.475015 0
M  V30 3677 H 335.809 -2.64711 2.92099 0
M  V30 3678 H 337.097 -3.74858 3.44034 0
M  V30 3679 H 336.495 -5.59301 0.848431 0
M  V30 3680 H 335.052 -6.37542 1.35585 0
M  V30 3681 N 338.485 -1.33259 -0.841409 0
M  V30 3682 C 339.896 -1.22066 -1.41269 0
M  V30 3683 C 340.247 0.161479 -1.95534 0
M  V30 3684 O 339.372 1.06094 -1.88608 0
M  V30 3685 C 339.967 -2.20996 -2.568 0
M  V30 3686 C 338.526 -2.13649 -3.09888 0
M  V30 3687 C 337.673 -2.08623 -1.82679 0
M  V30 3688 H 340.624 -1.44895 -0.647395 0
M  V30 3689 H 340.645 -1.81621 -3.34356 0
M  V30 3690 H 340.157 -3.2158 -2.17274 0
M  V30 3691 H 338.258 -1.16359 -3.53965 0
M  V30 3692 H 338.371 -3.04079 -3.70234 0
M  V30 3693 H 336.735 -1.54061 -2.02824 0
M  V30 3694 H 337.518 -3.1101 -1.45353 0
M  V30 3695 N 339.963 1.05934 -1.16686 0
M  V30 3696 C 340.893 2.1546 -0.899949 0
M  V30 3697 C 341.874 1.69391 0.155154 0
M  V30 3698 O 343.059 1.94199 0.00648693 0
M  V30 3699 C 340.189 3.44939 -0.404241 0
M  V30 3700 C 339.143 4.04536 -1.39767 0
M  V30 3701 C 338.469 5.29268 -0.760216 0
M  V30 3702 C 339.769 4.42893 -2.76845 0
M  V30 3703 H 341.463 2.38046 -1.81588 0
M  V30 3704 H 339.009 1.14404 -0.874514 0
M  V30 3705 H 340.962 4.20901 -0.204971 0
M  V30 3706 H 339.686 3.21983 0.547206 0
M  V30 3707 H 338.345 3.30635 -1.58355 0
M  V30 3708 H 337.993 5.02611 0.197831 0
M  V30 3709 H 337.693 5.70101 -1.42332 0
M  V30 3710 H 339.217 6.07924 -0.57105 0
M  V30 3711 H 340.631 5.09921 -2.62019 0
M  V30 3712 H 339.028 4.94721 -3.39663 0
M  V30 3713 H 340.098 3.53584 -3.31823 0
M  V30 3714 N 341.441 0.965919 1.2453 0
M  V30 3715 C 342.852 0.665929 1.7442 0
M  V30 3716 C 343.203 -0.818407 1.78316 0
M  V30 3717 O 342.328 -1.64037 1.41141 0
M  V30 3718 C 342.923 1.20211 3.16757 0
M  V30 3719 C 341.482 0.952059 3.6416 0
M  V30 3720 C 340.629 1.33848 2.42858 0
M  V30 3721 H 343.58 1.14144 1.10258 0
M  V30 3722 H 343.601 0.567544 3.76244 0
M  V30 3723 H 343.113 2.28244 3.13889 0
M  V30 3724 H 341.214 -0.112821 3.72429 0
M  V30 3725 H 341.327 1.59645 4.51719 0
M  V30 3726 H 339.691 0.756864 2.43195 0
M  V30 3727 H 340.474 2.42827 2.42673 0
M  V30 3728 N 342.919 -1.39368 0.735821 0
M  V30 3729 C 344.167 -2.00101 0.283562 0
M  V30 3730 C 344.488 -1.5868 -1.13338 0
M  V30 3731 O 343.758 -0.835423 -1.77193 0
M  V30 3732 H 342.338 -0.740024 0.101851 0
M  V30 3733 H 345 -1.70404 0.945962 0
M  V30 3734 H 344.096 -3.10323 0.332604 0
M  V30 3735 N 344.397 -0.483516 -1.5 0
M  V30 3736 C 345.622 0.0667119 -2.07293 0
M  V30 3737 C 346.047 1.3164 -1.3436 0
M  V30 3738 O 345.405 1.76945 -0.394987 0
M  V30 3739 C 345.453 0.321126 -3.59167 0
M  V30 3740 O 344.557 1.39927 -3.87936 0
M  V30 3741 H 343.898 -0.0184758 -0.663743 0
M  V30 3742 H 346.428 -0.678125 -1.93035 0
M  V30 3743 H 346.438 0.557906 -4.04168 0
M  V30 3744 H 345.113 -0.592007 -4.11665 0
M  V30 3745 H 343.69 1.14882 -3.54763 0
M  V30 3746 N 345.875 1.56104 -0.216619 0
M  V30 3747 C 346.838 2.18819 0.681962 0
M  V30 3748 C 347.838 1.14866 1.12528 0
M  V30 3749 O 349.028 1.40128 1.03488 0
M  V30 3750 C 346.16 2.80756 1.93362 0
M  V30 3751 H 347.353 2.99595 0.135254 0
M  V30 3752 H 344.906 1.56265 0.0330003 0
M  V30 3753 H 345.641 2.03837 2.52232 0
M  V30 3754 H 345.426 3.56876 1.62426 0
M  V30 3755 H 346.916 3.28844 2.57393 0
M  V30 3756 N 347.353 -0.0568162 1.57498 0
M  V30 3757 C 348.285 -1.09292 2.01464 0
M  V30 3758 C 349.298 -1.34112 0.922913 0
M  V30 3759 O 350.487 -1.32089 1.20062 0
M  V30 3760 C 347.587 -2.44068 2.35125 0
M  V30 3761 C 346.76 -2.38995 3.66333 0
M  V30 3762 C 345.819 -3.55997 3.87495 0
M  V30 3763 O 344.845 -3.36746 4.58901 0
M  V30 3764 N 346.047 -4.76888 3.30996 0
M  V30 3765 H 348.812 -0.718386 2.90963 0
M  V30 3766 H 346.373 -0.245235 1.60032 0
M  V30 3767 H 348.365 -3.21011 2.46443 0
M  V30 3768 H 346.935 -2.73468 1.5144 0
M  V30 3769 H 346.155 -1.47336 3.65631 0
M  V30 3770 H 347.443 -2.3272 4.52458 0
M  V30 3771 H 346.841 -4.95431 2.73065 0
M  V30 3772 H 345.398 -5.51291 3.47738 0
M  V30 3773 N 348.832 -1.54138 -0.328536 0
M  V30 3774 C 350.057 -1.76378 -1.09112 0
M  V30 3775 C 350.482 -0.508596 -1.81094 0
M  V30 3776 O 349.84 0.539598 -1.73084 0
M  V30 3777 C 349.888 -2.95358 -2.06872 0
M  V30 3778 O 348.992 -2.66556 -3.14677 0
M  V30 3779 H 348.333 -0.584614 -0.314838 0
M  V30 3780 H 350.863 -2.01146 -0.374348 0
M  V30 3781 H 350.873 -3.22566 -2.4983 0
M  V30 3782 H 349.548 -3.86385 -1.5388 0
M  V30 3783 H 348.125 -2.50282 -2.7643 0
M  V30 3784 N 350.31 0.590341 -1.46126 0
M  V30 3785 C 351.535 1.37991 -1.54833 0
M  V30 3786 C 351.96 1.87163 -0.187506 0
M  V30 3787 O 351.318 1.61133 0.831008 0
M  V30 3788 C 351.366 2.54867 -2.55098 0
M  V30 3789 O 350.47 3.56061 -2.08073 0
M  V30 3790 H 349.811 0.411265 -0.521303 0
M  V30 3791 H 352.341 0.716819 -1.91632 0
M  V30 3792 H 352.351 3.01886 -2.74461 0
M  V30 3793 H 351.026 2.18429 -3.53923 0
M  V30 3794 H 349.603 3.15574 -1.98664 0
M  V30 3795 N 351.788 1.33704 0.83433 0
M  V30 3796 C 353.013 1.28615 1.62705 0
M  V30 3797 C 353.438 -0.139242 1.87584 0
M  V30 3798 O 352.796 -1.09734 1.4432 0
M  V30 3799 C 352.844 2.07139 2.95171 0
M  V30 3800 O 351.948 1.4331 3.86699 0
M  V30 3801 H 351.289 0.44226 0.49528 0
M  V30 3802 H 353.819 1.76335 1.03766 0
M  V30 3803 H 353.829 2.18073 3.44831 0
M  V30 3804 H 352.504 3.10779 2.76386 0
M  V30 3805 H 351.081 1.4105 3.45195 0
M  V30 3806 N 353.266 -1.05314 1.17247 0
M  V30 3807 C 354.682 -1.30452 0.919473 0
M  V30 3808 C 354.882 -1.9703 -0.42209 0
M  V30 3809 O 353.938 -2.24311 -1.15935 0
M  V30 3810 C 355.251 -2.17551 2.07586 0
M  V30 3811 C 356.799 -2.30937 2.11275 0
M  V30 3812 C 357.274 -3.21396 3.26296 0
M  V30 3813 N 358.765 -3.28981 3.26076 0
M  V30 3814 C 359.5 -3.99095 4.11716 0
M  V30 3815 N 358.996 -4.71648 5.07465 0
M  V30 3816 N 360.789 -3.95247 3.9967 0
M  V30 3817 H 352.94 -0.604988 2.03602 0
M  V30 3818 H 355.203 -0.329368 0.888944 0
M  V30 3819 H 354.909 -1.75921 3.0454 0
M  V30 3820 H 354.783 -3.18182 2.02584 0
M  V30 3821 H 357.17 -2.71809 1.14907 0
M  V30 3822 H 357.251 -1.2994 2.20339 0
M  V30 3823 H 356.895 -2.81238 4.22927 0
M  V30 3824 H 356.825 -4.22395 3.14467 0
M  V30 3825 H 359.316 -2.77286 2.5675 0
M  V30 3826 H 359.629 -5.22705 5.6921 0
M  V30 3827 H 357.974 -4.70594 5.11435 0
M  V30 3828 H 361.165 -3.37691 3.24164 0
M  V30 3829 H 361.338 -4.4962 4.66632 0
M  V30 3830 N 354.744 -0.972509 -1.24016 0
M  V30 3831 C 355.674 -0.525548 -2.27509 0
M  V30 3832 C 356.655 0.437262 -1.64384 0
M  V30 3833 O 357.84 0.332343 -1.91335 0
M  V30 3834 C 354.97 0.180448 -3.46831 0
M  V30 3835 C 353.924 -0.698859 -4.22256 0
M  V30 3836 C 353.25 0.138903 -5.3452 0
M  V30 3837 C 354.55 -1.98582 -4.83076 0
M  V30 3838 H 356.244 -1.39058 -2.65148 0
M  V30 3839 H 353.79 -0.67009 -1.27459 0
M  V30 3840 H 355.743 0.504387 -4.18371 0
M  V30 3841 H 354.467 1.07987 -3.08231 0
M  V30 3842 H 353.126 -1.00614 -3.52523 0
M  V30 3843 H 352.774 1.03862 -4.9216 0
M  V30 3844 H 352.474 -0.446259 -5.85903 0
M  V30 3845 H 353.998 0.457404 -6.08884 0
M  V30 3846 H 355.412 -1.72715 -5.46665 0
M  V30 3847 H 353.809 -2.5181 -5.44713 0
M  V30 3848 H 354.879 -2.67769 -4.04262 0
M  V30 3849 N 356.222 1.38976 -0.743202 0
M  V30 3850 C 357.638 1.53984 -0.419664 0
M  V30 3851 C 357.838 1.70837 1.0685 0
M  V30 3852 O 356.894 1.7135 1.8546 0
M  V30 3853 C 358.207 2.75287 -1.20985 0
M  V30 3854 C 359.755 2.89129 -1.19889 0
M  V30 3855 C 360.23 4.13381 -1.97181 0
M  V30 3856 N 361.721 4.20437 -1.94389 0
M  V30 3857 C 362.456 5.15547 -2.50996 0
M  V30 3858 N 361.952 6.16395 -3.16274 0
M  V30 3859 N 363.745 5.07822 -2.40984 0
M  V30 3860 H 355.896 1.26285 -1.7078 0
M  V30 3861 H 358.159 0.612689 -0.723406 0
M  V30 3862 H 357.865 2.69204 -2.26323 0
M  V30 3863 H 357.739 3.68184 -0.819759 0
M  V30 3864 H 360.126 2.947 -0.153606 0
M  V30 3865 H 360.207 1.97272 -1.62841 0
M  V30 3866 H 359.851 4.08572 -3.01714 0
M  V30 3867 H 359.781 5.04298 -1.51629 0
M  V30 3868 H 362.272 3.48205 -1.46839 0
M  V30 3869 H 362.585 6.85443 -3.56915 0
M  V30 3870 H 360.93 6.16758 -3.20367 0
M  V30 3871 H 364.121 4.27973 -1.89622 0
M  V30 3872 H 364.294 5.81767 -2.85397 0
M  V30 3873 N 357.7 0.491464 1.49741 0
M  V30 3874 C 358.925 -0.0557177 2.07325 0
M  V30 3875 C 359.35 -1.30925 1.35056 0
M  V30 3876 O 358.708 -1.76733 0.404365 0
M  V30 3877 C 358.756 -0.302074 3.59333 0
M  V30 3878 O 357.86 -1.37868 3.88672 0
M  V30 3879 H 357.201 0.0219956 0.663636 0
M  V30 3880 H 359.731 0.688352 1.92673 0
M  V30 3881 H 359.741 -0.536464 4.04458 0
M  V30 3882 H 358.416 0.61383 4.11345 0
M  V30 3883 H 356.993 -1.12999 3.55367 0
M  V30 3884 N 359.178 -1.55987 0.224894 0
M  V30 3885 C 360.108 -2.23426 -0.678457 0
M  V30 3886 C 361.089 -1.20709 -1.19847 0
M  V30 3887 O 362.274 -1.49304 -1.24186 0
M  V30 3888 C 359.404 -2.91676 -1.88527 0
M  V30 3889 C 358.358 -4.00893 -1.49896 0
M  V30 3890 C 357.684 -4.56455 -2.78483 0
M  V30 3891 C 358.984 -5.17769 -0.686461 0
M  V30 3892 H 360.678 -2.99175 -0.116173 0
M  V30 3893 H 358.224 -1.43897 -0.054436 0
M  V30 3894 H 360.177 -3.37547 -2.5227 0
M  V30 3895 H 358.901 -2.1338 -2.47258 0
M  V30 3896 H 357.56 -3.55758 -0.884985 0
M  V30 3897 H 357.208 -3.74886 -3.35365 0
M  V30 3898 H 356.908 -5.30169 -2.53368 0
M  V30 3899 H 358.432 -5.05047 -3.43162 0
M  V30 3900 H 359.846 -5.60001 -1.22767 0
M  V30 3901 H 358.243 -5.97735 -0.532259 0
M  V30 3902 H 359.313 -4.83932 0.306196 0
M  V30 3903 N 360.656 0.0484629 -1.57525 0
M  V30 3904 C 362.072 0.40375 -1.54409 0
M  V30 3905 C 362.272 1.77786 -0.948384 0
M  V30 3906 O 361.328 2.46189 -0.560983 0
M  V30 3907 C 362.641 0.323394 -2.98956 0
M  V30 3908 C 364.189 0.401892 -3.10409 0
M  V30 3909 C 364.664 0.351195 -4.56652 0
M  V30 3910 N 366.155 0.410576 -4.61377 0
M  V30 3911 C 366.89 0.393933 -5.72045 0
M  V30 3912 N 366.386 0.330724 -6.9201 0
M  V30 3913 N 368.179 0.442227 -5.60358 0
M  V30 3914 H 360.33 -0.851016 -1.94606 0
M  V30 3915 H 362.593 -0.321721 -0.89174 0
M  V30 3916 H 362.299 -0.62011 -3.4619 0
M  V30 3917 H 362.173 1.12463 -3.60044 0
M  V30 3918 H 364.56 1.33582 -2.63134 0
M  V30 3919 H 364.641 -0.428342 -2.52188 0
M  V30 3920 H 364.285 -0.578987 -5.04589 0
M  V30 3921 H 364.215 1.19928 -5.12762 0
M  V30 3922 H 366.706 0.462729 -3.75056 0
M  V30 3923 H 367.019 0.322592 -7.72126 0
M  V30 3924 H 365.364 0.29706 -6.94365 0
M  V30 3925 H 368.555 0.489464 -4.65534 0
M  V30 3926 H 368.728 0.425788 -6.466 0
M  V30 3927 N 362.134 1.5431 0.320358 0
M  V30 3928 C 363.362 1.76636 1.07738 0
M  V30 3929 C 363.777 0.51649 1.81598 0
M  V30 3930 O 363.134 -0.512942 1.75143 0
M  V30 3931 C 363.185 2.96158 2.07299 0
M  V30 3932 O 362.906 4.16313 1.36438 0
M  V30 3933 C 364.407 3.3072 2.95193 0
M  V30 3934 H 361.627 0.589597 0.320339 0
M  V30 3935 H 364.171 2.01207 0.36551 0
M  V30 3936 H 362.326 2.73851 2.74016 0
M  V30 3937 H 362.74 4.83565 2.03138 0
M  V30 3938 H 364.214 4.17643 3.60941 0
M  V30 3939 H 364.691 2.48026 3.62463 0
M  V30 3940 H 365.297 3.55117 2.34034 0
M  V30 3941 N 363.613 -0.582584 1.46437 0
M  V30 3942 C 364.862 -1.337 1.5102 0
M  V30 3943 C 365.175 -1.94891 0.166359 0
M  V30 3944 O 366.381 -2.71351 0.0899954 0
M  V30 3945 C 364.837 -2.42315 2.66104 0
M  V30 3946 C 364.445 -1.87427 4.06909 0
M  V30 3947 C 366.189 -3.19099 2.79958 0
M  V30 3948 C 364.096 -2.93672 5.13333 0
M  V30 3949 H 363.026 -0.502619 0.562041 0
M  V30 3950 H 365.677 -0.621701 1.72647 0
M  V30 3951 H 364.059 -3.16645 2.37807 0
M  V30 3952 H 365.233 -1.19639 4.44998 0
M  V30 3953 H 363.548 -1.2331 3.97723 0
M  V30 3954 H 366.145 -3.9839 3.56636 0
M  V30 3955 H 366.488 -3.71695 1.87479 0
M  V30 3956 H 367.021 -2.51875 3.07902 0
M  V30 3957 H 363.76 -2.45962 6.07604 0
M  V30 3958 H 363.28 -3.59948 4.79789 0
M  V30 3959 H 364.959 -3.5762 5.39182 0
M  V30 3960 N 365.091 -1.34144 -0.827227 0
M  V30 3961 C 366.054 -1.25264 -1.91942 0
M  V30 3962 C 367.054 -0.168866 -1.59911 0
M  V30 3963 O 368.244 -0.421198 -1.69031 0
M  V30 3964 C 365.376 -0.932952 -3.27885 0
M  V30 3965 H 366.569 -2.22357 -2.0124 0
M  V30 3966 H 364.122 -1.1837 -1.0207 0
M  V30 3967 H 364.857 0.0349917 -3.24281 0
M  V30 3968 H 364.642 -1.71682 -3.52516 0
M  V30 3969 H 366.132 -0.895874 -4.07877 0
M  V30 3970 N 366.569 1.04691 -1.17803 0
M  V30 3971 C 367.815 1.78045 -0.970969 0
M  V30 3972 C 368.148 1.87686 0.498751 0
M  V30 3973 O 367.423 1.38035 1.37027 0
M  V30 3974 C 367.706 3.2166 -1.61884 0
M  V30 3975 C 367.559 3.20001 -3.161 0
M  V30 3976 C 368.878 4.1962 -1.3269 0
M  V30 3977 H 365.997 0.64633 -0.354155 0
M  V30 3978 H 368.639 1.22333 -1.45378 0
M  V30 3979 H 366.789 3.69232 -1.20831 0
M  V30 3980 H 368.461 2.80467 -3.66246 0
M  V30 3981 H 366.704 2.58203 -3.48588 0
M  V30 3982 H 367.375 4.21386 -3.56564 0
M  V30 3983 H 369.851 3.80567 -1.68249 0
M  V30 3984 H 368.727 5.18339 -1.80599 0
M  V30 3985 H 368.988 4.414 -0.248622 0
M  V30 3986 N 368.047 0.979072 1.23499 0
M  V30 3987 C 369.293 0.648178 1.92163 0
M  V30 3988 C 369.626 -0.816049 1.76222 0
M  V30 3989 O 368.901 -1.58849 1.12237 0
M  V30 3990 C 369.184 1.03773 3.44824 0
M  V30 3991 C 369.037 2.55948 3.69879 0
M  V30 3992 C 370.356 0.580653 4.36253 0
M  V30 3993 H 367.475 0.236952 0.69787 0
M  V30 3994 H 370.117 1.22012 1.45647 0
M  V30 3995 H 368.267 0.551058 3.84572 0
M  V30 3996 H 369.939 3.12179 3.3962 0
M  V30 3997 H 368.182 2.98641 3.14636 0
M  V30 3998 H 368.853 2.78255 4.76737 0
M  V30 3999 H 371.329 0.998465 4.03943 0
M  V30 4000 H 370.205 0.881663 5.41773 0
M  V30 4001 H 370.466 -0.519052 4.39042 0
M  V30 4002 N 369.525 -1.3858 0.750561 0
M  V30 4003 C 370.455 -2.33102 0.136237 0
M  V30 4004 C 371.436 -1.54713 -0.706965 0
M  V30 4005 O 372.621 -1.83043 -0.648769 0
M  V30 4006 C 369.751 -3.38882 -0.760017 0
M  V30 4007 C 368.705 -4.27995 -0.0197785 0
M  V30 4008 C 368.031 -5.24605 -1.03408 0
M  V30 4009 C 369.331 -5.09554 1.14684 0
M  V30 4010 H 371.025 -2.84726 0.925822 0
M  V30 4011 H 368.571 -1.36898 0.446654 0
M  V30 4012 H 370.524 -4.0397 -1.19943 0
M  V30 4013 H 369.248 -2.85734 -1.58189 0
M  V30 4014 H 367.907 -3.64409 0.400184 0
M  V30 4015 H 367.555 -4.67746 -1.84994 0
M  V30 4016 H 367.255 -5.85081 -0.543464 0
M  V30 4017 H 368.779 -5.9257 -1.47288 0
M  V30 4018 H 370.193 -5.67899 0.785118 0
M  V30 4019 H 368.59 -5.7925 1.56812 0
M  V30 4020 H 369.66 -4.4347 1.96118 0
M  V30 4021 N 371.003 -0.499398 -1.49478 0
M  V30 4022 C 372.231 0.0425456 -2.06856 0
M  V30 4023 C 372.646 1.30964 -1.35992 0
M  V30 4024 O 372.003 1.77172 -0.437762 0
M  V30 4025 C 372.054 0.301735 -3.60239 0
M  V30 4026 O 371.775 -0.915127 -4.28436 0
M  V30 4027 C 373.276 0.887499 -4.34325 0
M  V30 4028 H 370.496 -0.0197482 -0.670709 0
M  V30 4029 H 373.04 -0.696297 -1.92281 0
M  V30 4030 H 371.195 0.990556 -3.74522 0
M  V30 4031 H 371.609 -0.676993 -5.20113 0
M  V30 4032 H 373.083 1.01845 -5.42523 0
M  V30 4033 H 373.56 1.88488 -3.96698 0
M  V30 4034 H 374.166 0.236196 -4.24644 0
M  V30 4035 N 372.481 1.55866 -0.233164 0
M  V30 4036 C 373.727 1.98897 0.395959 0
M  V30 4037 C 374.06 1.12091 1.58585 0
M  V30 4038 O 373.335 0.181182 1.93654 0
M  V30 4039 C 373.618 3.50658 0.819224 0
M  V30 4040 C 373.471 4.48233 -0.375109 0
M  V30 4041 C 374.79 4.07135 1.67121 0
M  V30 4042 H 371.909 0.723102 0.142451 0
M  V30 4043 H 374.551 1.87082 -0.331725 0
M  V30 4044 H 372.701 3.60857 1.43925 0
M  V30 4045 H 374.373 4.50031 -1.01341 0
M  V30 4046 H 372.616 4.21624 -1.02058 0
M  V30 4047 H 373.287 5.51988 -0.0358328 0
M  V30 4048 H 375.763 3.99952 1.14795 0
M  V30 4049 H 374.639 5.13615 1.93625 0
M  V30 4050 H 374.9 3.54736 2.63846 0
M  V30 4051 N 373.959 -0.0401083 1.57549 0
M  V30 4052 C 375.206 -0.733125 1.88763 0
M  V30 4053 C 375.534 -1.75946 0.829058 0
M  V30 4054 O 374.789 -1.94949 -0.171323 0
M  V30 4055 C 375.088 -1.44902 3.26708 0
M  V30 4056 C 374.754 -0.559707 4.47413 0
M  V30 4057 C 373.416 -0.314731 4.8017 0
M  V30 4058 C 375.768 0.0549743 5.21171 0
M  V30 4059 C 373.096 0.553886 5.8408 0
M  V30 4060 C 375.448 0.911229 6.26003 0
M  V30 4061 C 374.112 1.16577 6.57241 0
M  V30 4062 H 373.382 -0.268269 0.690733 0
M  V30 4063 H 376.029 0.00679408 1.91499 0
M  V30 4064 H 374.334 -2.26197 3.1991 0
M  V30 4065 H 376.031 -1.99058 3.48105 0
M  V30 4066 H 372.621 -0.760793 4.21794 0
M  V30 4067 H 376.805 -0.121344 4.96152 0
M  V30 4068 H 372.061 0.759518 6.06664 0
M  V30 4069 H 376.235 1.3941 6.82303 0
M  V30 4070 H 373.862 1.84058 7.37582 0
M  V30 4071 N 375.437 -1.54477 -0.31217 0
M  V30 4072 C 376.4 -1.83923 -1.36766 0
M  V30 4073 C 377.4 -0.711563 -1.44199 0
M  V30 4074 O 378.59 -0.979866 -1.44029 0
M  V30 4075 C 375.722 -2.0095 -2.75376 0
M  V30 4076 H 376.915 -2.78239 -1.11906 0
M  V30 4077 H 374.468 -1.46369 -0.548257 0
M  V30 4078 H 375.203 -1.08883 -3.05475 0
M  V30 4079 H 374.988 -2.83018 -2.71373 0
M  V30 4080 H 376.478 -2.2514 -3.51713 0
M  V30 4081 N 376.915 0.57481 -1.46744 0
M  V30 4082 C 378.161 1.3347 -1.52688 0
M  V30 4083 C 378.494 1.93353 -0.181229 0
M  V30 4084 O 377.769 1.76912 0.808237 0
M  V30 4085 C 378.052 2.45811 -2.63152 0
M  V30 4086 C 377.905 1.90912 -4.07275 0
M  V30 4087 C 379.224 3.47822 -2.69644 0
M  V30 4088 H 376.343 0.483935 -0.555856 0
M  V30 4089 H 378.985 0.644968 -1.78718 0
M  V30 4090 H 377.135 3.04646 -2.41088 0
M  V30 4091 H 378.807 1.36473 -4.4065 0
M  V30 4092 H 377.05 1.21691 -4.16382 0
M  V30 4093 H 377.721 2.72042 -4.80309 0
M  V30 4094 H 380.197 2.9888 -2.895 0
M  V30 4095 H 379.073 4.23876 -3.48742 0
M  V30 4096 H 379.334 4.05555 -1.76005 0
M  V30 4097 N 378.394 1.34581 0.820102 0
M  V30 4098 C 379.634 1.28448 1.58998 0
M  V30 4099 C 379.998 -0.142883 1.91468 0
M  V30 4100 O 381.199 -0.328422 2.66786 0
M  V30 4101 C 379.47 2.153 2.85273 0
M  V30 4102 S 381.029 2.26548 3.75794 0
M  V30 4103 H 377.847 0.456685 0.54494 0
M  V30 4104 H 380.449 1.69825 0.968487 0
M  V30 4105 H 379.153 3.18008 2.59421 0
M  V30 4106 H 378.684 1.7483 3.52417 0
M  V30 4107 H 380.699 1.44034 4.74835 0
M  V30 4108 N 379.872 -1.04064 1.18357 0
M  V30 4109 C 381.119 -1.77265 0.978947 0
M  V30 4110 C 381.447 -1.88189 -0.491428 0
M  V30 4111 O 380.702 -1.38653 -1.38108 0
M  V30 4112 C 381.001 -3.20634 1.57888 0
M  V30 4113 C 380.667 -3.29743 3.07539 0
M  V30 4114 C 379.329 -3.31937 3.48384 0
M  V30 4115 C 381.681 -3.29841 4.03552 0
M  V30 4116 C 379.009 -3.3187 4.83818 0
M  V30 4117 C 381.361 -3.31313 5.38901 0
M  V30 4118 C 380.025 -3.31799 5.79194 0
M  V30 4119 H 379.295 -0.648659 0.358222 0
M  V30 4120 H 381.942 -1.22225 1.47422 0
M  V30 4121 H 380.247 -3.78675 1.00561 0
M  V30 4122 H 381.944 -3.75917 1.39598 0
M  V30 4123 H 378.534 -3.28757 2.74986 0
M  V30 4124 H 382.718 -3.27337 3.73047 0
M  V30 4125 H 377.974 -3.30562 5.14333 0
M  V30 4126 H 382.148 -3.30338 6.13066 0
M  V30 4127 H 379.775 -3.315 6.84114 0
M  V30 4128 N 381.35 -0.985608 -1.22978 0
M  V30 4129 C 382.596 -0.65836 -1.91816 0
M  V30 4130 C 382.929 0.806692 -1.76653 0
M  V30 4131 O 382.204 1.58252 -1.13078 0
M  V30 4132 C 382.487 -1.056 -3.44268 0
M  V30 4133 C 382.34 -2.57906 -3.68516 0
M  V30 4134 C 383.659 -0.603781 -4.35939 0
M  V30 4135 H 380.778 -0.24065 -0.696604 0
M  V30 4136 H 383.42 -1.22783 -1.44998 0
M  V30 4137 H 381.57 -0.571445 -3.84274 0
M  V30 4138 H 383.242 -3.13976 -3.3796 0
M  V30 4139 H 381.485 -3.00305 -3.13048 0
M  V30 4140 H 382.156 -2.80779 -4.75255 0
M  V30 4141 H 384.632 -1.01987 -4.03408 0
M  V30 4142 H 383.508 -0.910383 -5.41298 0
M  V30 4143 H 383.769 0.495761 -4.39312 0
M  V30 4144 N 382.828 1.3818 -0.7579 0
M  V30 4145 C 384.239 1.82726 -0.383134 0
M  V30 4146 C 384.59 1.63214 1.08884 0
M  V30 4147 O 383.715 1.13566 1.84205 0
M  V30 4148 C 384.31 3.31728 -0.688631 0
M  V30 4149 C 382.869 3.74606 -0.367091 0
M  V30 4150 C 382.016 2.60896 -0.939599 0
M  V30 4151 H 384.967 1.26847 -0.953699 0
M  V30 4152 H 384.988 3.80487 0.0316492 0
M  V30 4153 H 384.5 3.45898 -1.76001 0
M  V30 4154 H 382.601 3.66013 0.697532 0
M  V30 4155 H 382.714 4.71215 -0.865658 0
M  V30 4156 H 381.078 2.52075 -0.3647 0
M  V30 4157 H 381.861 2.77864 -2.0161 0
M  V30 4158 N 384.306 0.507319 1.49211 0
M  V30 4159 C 385.553 -0.0349529 2.0247 0
M  V30 4160 C 385.881 -1.36409 1.38647 0
M  V30 4161 O 385.136 -1.88841 0.513566 0
M  V30 4162 C 385.435 -0.229513 3.56662 0
M  V30 4163 C 385.101 1.02241 4.39156 0
M  V30 4164 C 383.763 1.36557 4.61417 0
M  V30 4165 C 386.115 1.85428 4.871 0
M  V30 4166 C 383.443 2.53999 5.28868 0
M  V30 4167 C 385.795 3.02028 5.55843 0
M  V30 4168 C 384.459 3.36717 5.76349 0
M  V30 4169 H 383.729 -0.0127902 0.74089 0
M  V30 4170 H 386.376 0.668756 1.79443 0
M  V30 4171 H 384.681 -1.0158 3.78403 0
M  V30 4172 H 386.378 -0.663641 3.9547 0
M  V30 4173 H 382.968 0.745124 4.22073 0
M  V30 4174 H 387.152 1.6023 4.69723 0
M  V30 4175 H 382.408 2.81105 5.42946 0
M  V30 4176 H 386.582 3.66808 5.91967 0
M  V30 4177 H 384.209 4.27821 6.28389 0
M  V30 4178 N 385.784 -1.5574 0.241426 0
M  V30 4179 C 386.734 -2.17803 -0.674233 0
M  V30 4180 C 387.718 -1.13225 -1.14319 0
M  V30 4181 O 388.91 -1.39153 -1.09387 0
M  V30 4182 C 386.039 -2.87682 -1.87333 0
M  V30 4183 C 385.125 -3.99509 -1.42313 0
M  V30 4184 N 385.516 -5.01115 -0.686798 0
M  V30 4185 C 383.814 -4.11964 -1.70885 0
M  V30 4186 C 384.515 -5.79922 -0.454456 0
M  V30 4187 N 383.491 -5.34001 -1.01705 0
M  V30 4188 H 387.293 -2.93718 -0.103447 0
M  V30 4189 H 384.807 -1.62342 0.0435095 0
M  V30 4190 H 386.804 -3.3057 -2.54026 0
M  V30 4191 H 385.464 -2.13269 -2.4484 0
M  V30 4192 H 386.475 -5.16799 -0.337459 0
M  V30 4193 H 383.152 -3.48718 -2.2957 0
M  V30 4194 H 384.542 -6.71768 0.132992 0
M  V30 4195 N 387.262 0.0317525 -1.57568 0
M  V30 4196 C 388.511 0.722131 -1.8833 0
M  V30 4197 C 388.824 1.76664 -0.839587 0
M  V30 4198 O 390.03 2.50942 -1.03635 0
M  V30 4199 C 388.486 1.33544 -3.34207 0
M  V30 4200 C 388.094 0.327415 -4.46802 0
M  V30 4201 C 389.838 2.00585 -3.7412 0
M  V30 4202 C 387.745 0.948915 -5.83738 0
M  V30 4203 H 386.675 0.273466 -0.702661 0
M  V30 4204 H 389.326 -0.0235811 -1.83485 0
M  V30 4205 H 387.708 2.13077 -3.33788 0
M  V30 4206 H 388.882 -0.441006 -4.58685 0
M  V30 4207 H 387.197 -0.240758 -4.15703 0
M  V30 4208 H 389.794 2.47932 -4.73744 0
M  V30 4209 H 390.137 2.82285 -3.05975 0
M  V30 4210 H 390.67 1.27831 -3.76702 0
M  V30 4211 H 387.409 0.171387 -6.55276 0
M  V30 4212 H 386.929 1.68724 -5.7558 0
M  V30 4213 H 388.608 1.45705 -6.3038 0
M  V30 4214 N 388.74 1.54641 0.303973 0
M  V30 4215 C 389.968 1.77768 1.05858 0
M  V30 4216 C 390.383 0.535722 1.8104 0
M  V30 4217 O 389.74 -0.494337 1.75677 0
M  V30 4218 C 389.791 2.9834 2.04146 0
M  V30 4219 O 389.512 4.17736 1.32015 0
M  V30 4220 C 391.013 3.33832 2.91669 0
M  V30 4221 H 388.233 0.592961 0.314067 0
M  V30 4222 H 390.777 2.01583 0.344149 0
M  V30 4223 H 388.932 2.76742 2.71096 0
M  V30 4224 H 389.346 4.85693 1.97998 0
M  V30 4225 H 390.82 4.21448 3.56491 0
M  V30 4226 H 391.297 2.51857 3.59812 0
M  V30 4227 H 391.903 3.57579 2.30254 0
M  V30 4228 N 390.218 -0.567019 1.47046 0
M  V30 4229 C 391.634 -0.891975 1.32348 0
M  V30 4230 C 391.834 -1.99154 0.306616 0
M  V30 4231 O 390.89 -2.50883 -0.28532 0
M  V30 4232 C 392.203 -1.29449 2.7141 0
M  V30 4233 C 393.751 -1.40646 2.79621 0
M  V30 4234 C 394.226 -1.84257 4.19301 0
M  V30 4235 N 395.717 -1.91424 4.21795 0
M  V30 4236 C 396.452 -2.26476 5.26779 0
M  V30 4237 N 395.948 -2.60211 6.42077 0
M  V30 4238 N 397.741 -2.27166 5.14152 0
M  V30 4239 H 389.892 0.159074 2.11803 0
M  V30 4240 H 392.155 0.00849752 0.947962 0
M  V30 4241 H 391.861 -0.560448 3.47206 0
M  V30 4242 H 391.735 -2.25273 3.02542 0
M  V30 4243 H 394.122 -2.13133 2.04104 0
M  V30 4244 H 394.203 -0.430339 2.52154 0
M  V30 4245 H 393.847 -1.12343 4.95319 0
M  V30 4246 H 393.777 -2.82855 4.44185 0
M  V30 4247 H 396.268 -1.6778 3.38612 0
M  V30 4248 H 396.581 -2.85956 7.17948 0
M  V30 4249 H 394.926 -2.57813 6.45413 0
M  V30 4250 H 398.117 -2.00244 4.23107 0
M  V30 4251 H 398.29 -2.54154 5.96079 0
M  V30 4252 N 391.696 -1.35014 -0.812953 0
M  V30 4253 C 392.924 -1.31031 -1.6012 0
M  V30 4254 C 393.339 0.113558 -1.88458 0
M  V30 4255 O 392.696 1.06363 -1.48301 0
M  V30 4256 C 392.747 -2.10872 -2.93624 0
M  V30 4257 O 392.468 -3.47706 -2.66518 0
M  V30 4258 C 393.969 -2.14401 -3.88004 0
M  V30 4259 H 391.189 -0.45037 -0.497401 0
M  V30 4260 H 393.733 -1.77775 -1.01076 0
M  V30 4261 H 391.888 -1.67744 -3.492 0
M  V30 4262 H 392.302 -3.89097 -3.51715 0
M  V30 4263 H 393.776 -2.74669 -4.78812 0
M  V30 4264 H 394.253 -1.14105 -4.24119 0
M  V30 4265 H 394.859 -2.57662 -3.38364 0
M  V30 4266 N 393.175 1.03435 -1.18907 0
M  V30 4267 C 394.424 1.76143 -0.982669 0
M  V30 4268 C 394.737 1.89416 0.487953 0
M  V30 4269 O 395.943 2.59041 0.813036 0
M  V30 4270 C 394.399 3.16722 -1.70924 0
M  V30 4271 C 394.007 3.11522 -3.21959 0
M  V30 4272 C 395.751 3.93764 -1.58588 0
M  V30 4273 C 393.658 4.46999 -3.87228 0
M  V30 4274 H 392.588 0.660292 -0.364047 0
M  V30 4275 H 395.239 1.158 -1.42347 0
M  V30 4276 H 393.621 3.775 -1.19623 0
M  V30 4277 H 394.795 2.60158 -3.80335 0
M  V30 4278 H 393.11 2.47978 -3.34508 0
M  V30 4279 H 395.707 4.93963 -2.04707 0
M  V30 4280 H 396.05 4.12794 -0.539142 0
M  V30 4281 H 396.583 3.39576 -2.07203 0
M  V30 4282 H 393.322 4.33174 -4.91976 0
M  V30 4283 H 392.842 4.98441 -3.33642 0
M  V30 4284 H 394.521 5.15898 -3.90459 0
M  V30 4285 N 394.653 0.992116 1.22453 0
M  V30 4286 C 395.883 0.684949 1.94915 0
M  V30 4287 C 396.291 -0.754292 1.73514 0
M  V30 4288 O 395.634 -1.52056 1.03076 0
M  V30 4289 C 395.696 0.910054 3.47791 0
M  V30 4290 C 395.36 2.33363 3.92926 0
M  V30 4291 C 396.357 3.31308 4.00663 0
M  V30 4292 C 394.042 2.66785 4.25595 0
M  V30 4293 C 396.036 4.6075 4.40441 0
M  V30 4294 C 393.723 3.96446 4.65053 0
M  V30 4295 C 394.721 4.9324 4.72444 0
M  V30 4296 O 394.409 6.20584 5.1101 0
M  V30 4297 H 394.141 0.25258 0.62704 0
M  V30 4298 H 396.695 1.32939 1.56577 0
M  V30 4299 H 394.925 0.208443 3.86138 0
M  V30 4300 H 396.614 0.598257 4.01467 0
M  V30 4301 H 397.38 3.0682 3.75615 0
M  V30 4302 H 393.259 1.92148 4.19047 0
M  V30 4303 H 396.803 5.363 4.46126 0
M  V30 4304 H 392.7 4.20724 4.89552 0
M  V30 4305 H 393.468 6.24509 5.29085 0
M  V30 4306 N 396.131 -1.37776 0.765217 0
M  V30 4307 C 397.361 -2.03828 0.337277 0
M  V30 4308 C 397.769 -1.57841 -1.04321 0
M  V30 4309 O 397.112 -0.752043 -1.67601 0
M  V30 4310 C 397.174 -3.58292 0.294407 0
M  V30 4311 C 396.838 -4.27384 1.61838 0
M  V30 4312 C 397.835 -4.51956 2.56967 0
M  V30 4313 C 395.52 -4.65345 1.89102 0
M  V30 4314 C 397.514 -5.13536 3.77571 0
M  V30 4315 C 395.201 -5.26647 3.09978 0
M  V30 4316 C 396.199 -5.50679 4.04032 0
M  V30 4317 O 395.887 -6.10702 5.2278 0
M  V30 4318 H 395.619 -0.661292 0.140248 0
M  V30 4319 H 398.173 -1.77222 1.03834 0
M  V30 4320 H 396.403 -3.83918 -0.462983 0
M  V30 4321 H 398.092 -4.05763 -0.105581 0
M  V30 4322 H 398.858 -4.23048 2.37183 0
M  V30 4323 H 394.737 -4.45978 1.16725 0
M  V30 4324 H 398.281 -5.3221 4.50997 0
M  V30 4325 H 394.178 -5.54979 3.29649 0
M  V30 4326 H 394.946 -6.29183 5.23517 0
M  V30 4327 N 397.609 -0.515225 -1.4894 0
M  V30 4328 C 398.539 0.244628 -2.32215 0
M  V30 4329 C 399.52 0.949136 -1.41157 0
M  V30 4330 O 400.705 0.937783 -1.70057 0
M  V30 4331 C 397.835 1.30096 -3.22013 0
M  V30 4332 C 396.789 0.715486 -4.21977 0
M  V30 4333 C 396.115 1.87339 -5.00808 0
M  V30 4334 C 397.415 -0.302982 -5.2142 0
M  V30 4335 H 399.109 -0.450501 -2.95991 0
M  V30 4336 H 396.655 -0.218098 -1.42339 0
M  V30 4337 H 398.608 1.84037 -3.79089 0
M  V30 4338 H 397.332 2.02547 -2.56207 0
M  V30 4339 H 395.991 0.197715 -3.66066 0
M  V30 4340 H 395.639 2.58592 -4.31438 0
M  V30 4341 H 395.339 1.48764 -5.68457 0
M  V30 4342 H 396.863 2.41686 -5.60732 0
M  V30 4343 H 398.277 0.148802 -5.73107 0
M  V30 4344 H 396.674 -0.60532 -5.97039 0
M  V30 4345 H 397.744 -1.21395 -4.69459 0
M  V30 4346 N 399.087 1.5561 -0.249682 0
M  V30 4347 C 400.05 2.20217 0.635394 0
M  V30 4348 C 401.05 1.17227 1.10066 0
M  V30 4349 O 402.24 1.42292 1.00492 0
M  V30 4350 C 399.372 2.84794 1.87363 0
M  V30 4351 H 400.565 2.99814 0.0716752 0
M  V30 4352 H 398.118 1.563 -0.000153234 0
M  V30 4353 H 398.853 2.09142 2.47851 0
M  V30 4354 H 398.638 3.60241 1.5482 0
M  V30 4355 H 400.128 3.3423 2.5036 0
M  V30 4356 N 400.565 -0.0233959 1.57583 0
M  V30 4357 C 401.981 -0.379134 1.55031 0
M  V30 4358 C 402.181 -1.76255 0.976548 0
M  V30 4359 O 401.237 -2.45266 0.600078 0
M  V30 4360 C 402.55 -0.275792 2.99433 0
M  V30 4361 C 404.098 -0.352458 3.11009 0
M  V30 4362 C 404.573 -0.278501 4.57152 0
M  V30 4363 N 406.064 -0.337123 4.61972 0
M  V30 4364 C 406.799 -0.302876 5.726 0
M  V30 4365 N 406.295 -0.220589 6.92449 0
M  V30 4366 N 408.088 -0.353023 5.6099 0
M  V30 4367 H 400.239 0.881869 1.93227 0
M  V30 4368 H 402.502 0.335867 0.886509 0
M  V30 4369 H 402.208 0.675108 3.4516 0
M  V30 4370 H 402.082 -1.06721 3.61788 0
M  V30 4371 H 404.469 -1.29379 2.65226 0
M  V30 4372 H 404.55 0.468409 2.51475 0
M  V30 4373 H 404.194 0.659189 5.03604 0
M  V30 4374 H 404.124 -1.11755 5.14605 0
M  V30 4375 H 406.615 -0.403002 3.75745 0
M  V30 4376 H 406.928 -0.199713 7.72542 0
M  V30 4377 H 405.273 -0.186555 6.9475 0
M  V30 4378 H 408.464 -0.415339 4.66254 0
M  V30 4379 H 408.637 -0.322866 6.47195 0
M  V30 4380 N 402.043 -1.548 -0.295768 0
M  V30 4381 C 402.973 -1.89115 -1.36959 0
M  V30 4382 C 403.954 -0.75059 -1.52644 0
M  V30 4383 O 405.139 -1.00678 -1.66065 0
M  V30 4384 C 402.269 -2.14307 -2.73295 0
M  V30 4385 C 401.223 -3.30151 -2.72368 0
M  V30 4386 C 400.549 -3.40772 -4.12042 0
M  V30 4387 C 401.849 -4.67126 -2.33646 0
M  V30 4388 H 403.543 -2.79053 -1.08488 0
M  V30 4389 H 401.089 -1.34266 -0.520443 0
M  V30 4390 H 403.042 -2.36898 -3.48507 0
M  V30 4391 H 401.766 -1.21145 -3.03301 0
M  V30 4392 H 400.425 -3.0749 -1.99613 0
M  V30 4393 H 400.073 -2.45117 -4.39234 0
M  V30 4394 H 399.773 -4.18645 -4.12322 0
M  V30 4395 H 401.297 -3.6563 -4.89027 0
M  V30 4396 H 402.711 -4.89414 -2.98575 0
M  V30 4397 H 401.108 -5.47751 -2.45129 0
M  V30 4398 H 402.178 -4.67489 -1.28772 0
M  V30 4399 N 403.521 0.559213 -1.47345 0
M  V30 4400 C 404.451 1.67622 -1.62558 0
M  V30 4401 C 405.432 1.63331 -0.475087 0
M  V30 4402 O 406.617 1.80983 -0.704182 0
M  V30 4403 C 403.747 3.0626 -1.63774 0
M  V30 4404 C 402.701 3.25397 -2.7803 0
M  V30 4405 C 402.027 4.64801 -2.64318 0
M  V30 4406 C 403.327 3.10965 -4.19641 0
M  V30 4407 H 405.021 1.55146 -2.56067 0
M  V30 4408 H 402.567 0.744961 -1.23233 0
M  V30 4409 H 404.52 3.84247 -1.73008 0
M  V30 4410 H 403.244 3.1969 -0.66825 0
M  V30 4411 H 401.903 2.49817 -2.68304 0
M  V30 4412 H 401.551 4.75028 -1.65401 0
M  V30 4413 H 401.251 4.78555 -3.40968 0
M  V30 4414 H 402.775 5.44926 -2.75478 0
M  V30 4415 H 404.189 3.78772 -4.30354 0
M  V30 4416 H 402.586 3.36229 -4.97062 0
M  V30 4417 H 403.656 2.07736 -4.38148 0
M  V30 4418 N 404.999 1.35443 0.805782 0
M  V30 4419 C 405.909 1.30546 1.94923 0
M  V30 4420 C 406.925 0.210233 1.72725 0
M  V30 4421 O 408.101 0.43975 1.9654 0
M  V30 4422 C 405.166 1.07782 3.29521 0
M  V30 4423 C 404.227 2.26625 3.64609 0
M  V30 4424 C 403.46 2.04938 4.92784 0
M  V30 4425 O 403.683 1.01624 5.61274 0
M  V30 4426 O 402.617 2.9232 5.26149 0
M  V30 4427 H 406.443 2.26779 2.02002 0
M  V30 4428 H 404.028 1.15823 0.943682 0
M  V30 4429 H 405.91 0.969392 4.10098 0
M  V30 4430 H 404.585 0.146003 3.23371 0
M  V30 4431 H 403.492 2.43033 2.84404 0
M  V30 4432 H 404.825 3.18257 3.75464 0
M  V30 4433 N 406.477 -1.02803 1.19454 0
M  V30 4434 C 407.44 -2.09264 0.934955 0
M  V30 4435 C 408.44 -1.60576 -0.0849015 0
M  V30 4436 O 409.63 -1.73554 0.149933 0
M  V30 4437 C 406.762 -3.38482 0.40531 0
M  V30 4438 H 407.955 -2.33726 1.87916 0
M  V30 4439 H 405.508 -1.19426 1.00832 0
M  V30 4440 H 406.243 -3.19689 -0.544899 0
M  V30 4441 H 406.028 -3.75142 1.14065 0
M  V30 4442 H 407.518 -4.16894 0.242806 0
M  V30 4443 N 407.956 -0.998596 -1.21925 0
M  V30 4444 C 409.233 -0.593401 -1.86382 0
M  V30 4445 C 409.613 0.92916 -1.89552 0
M  V30 4446 O 408.961 1.81347 -1.39017 0
M  V30 4447 C 409.171 -1.22039 -3.26967 0
M  V30 4448 C 410.519 -1.32449 -4.03413 0
M  V30 4449 O 411.543 -1.17522 -3.36254 0
M  V30 4450 O 410.402 -1.56395 -5.23644 0
M  V30 4451 H 407.496 -0.202385 -0.801854 0
M  V30 4452 H 410.042 -1.09484 -1.29659 0
M  V30 4453 H 408.814 -2.26158 -3.19325 0
M  V30 4454 H 408.437 -0.704906 -3.91301 0
M  V30 4455 N 409.434 1.37368 -0.772513 0
M  V30 4456 C 410.674 2.01512 -0.342361 0
M  V30 4457 C 411.038 1.59997 1.06136 0
M  V30 4458 O 412.239 2.16609 1.59167 0
M  V30 4459 C 410.51 3.54134 -0.482048 0
M  V30 4460 S 412.069 4.38585 -0.137272 0
M  V30 4461 H 408.887 0.698699 -0.131686 0
M  V30 4462 H 411.489 1.67552 -1.0073 0
M  V30 4463 H 410.193 3.81837 -1.50428 0
M  V30 4464 H 409.724 3.92894 0.199413 0
M  V30 4465 H 411.739 4.84594 1.06692 0
M  V30 4466 N 410.912 0.523116 1.48665 0
M  V30 4467 C 412.328 0.180511 1.58576 0
M  V30 4468 C 412.528 -1.31597 1.52592 0
M  V30 4469 O 411.584 -2.0937 1.4114 0
M  V30 4470 C 412.897 0.776949 2.90489 0
M  V30 4471 C 414.445 0.745058 3.04003 0
M  V30 4472 C 414.92 1.31995 4.38567 0
M  V30 4473 N 416.411 1.28162 4.45117 0
M  V30 4474 C 417.146 1.6964 5.47731 0
M  V30 4475 N 416.642 2.18816 6.57337 0
M  V30 4476 N 418.435 1.6092 5.38573 0
M  V30 4477 H 410.586 1.4958 1.50797 0
M  V30 4478 H 412.849 0.621772 0.715614 0
M  V30 4479 H 412.555 1.82732 3.00503 0
M  V30 4480 H 412.429 0.25007 3.7637 0
M  V30 4481 H 414.816 -0.296532 2.93606 0
M  V30 4482 H 414.897 1.30933 2.1975 0
M  V30 4483 H 414.541 2.36043 4.49718 0
M  V30 4484 H 414.471 0.731418 5.21496 0
M  V30 4485 H 416.962 0.92155 3.66491 0
M  V30 4486 H 417.275 2.48478 7.31764 0
M  V30 4487 H 415.62 2.22805 6.58318 0
M  V30 4488 H 418.811 1.22304 4.5184 0
M  V30 4489 H 418.984 1.93567 6.18414 0
M  V30 4490 N 412.39 -1.55475 0.257931 0
M  V30 4491 C 413.636 -1.99502 -0.364266 0
M  V30 4492 C 413.969 -1.146 -1.56782 0
M  V30 4493 O 413.244 -0.211968 -1.93342 0
M  V30 4494 C 413.527 -3.51917 -0.763333 0
M  V30 4495 C 413.38 -4.4758 0.446371 0
M  V30 4496 C 414.699 -4.09742 -1.60623 0
M  V30 4497 H 411.818 -0.725277 -0.130929 0
M  V30 4498 H 414.46 -1.8653 0.361446 0
M  V30 4499 H 412.61 -3.63101 -1.38166 0
M  V30 4500 H 414.282 -4.48362 1.08487 0
M  V30 4501 H 412.525 -4.19947 1.08753 0
M  V30 4502 H 413.196 -5.51862 0.123645 0
M  V30 4503 H 415.672 -4.01727 -1.08418 0
M  V30 4504 H 414.548 -5.16631 -1.85429 0
M  V30 4505 H 414.809 -3.58889 -2.58169 0
M  V30 4506 N 413.868 0.0150385 -1.57593 0
M  V30 4507 C 414.798 1.01047 -2.10503 0
M  V30 4508 C 415.779 1.36816 -1.01071 0
M  V30 4509 O 416.964 1.45455 -1.28672 0
M  V30 4510 C 414.094 2.30708 -2.59598 0
M  V30 4511 C 413.048 2.09142 -3.73421 0
M  V30 4512 C 412.374 3.44685 -4.08774 0
M  V30 4513 C 413.674 1.46619 -5.01298 0
M  V30 4514 H 415.368 0.569978 -2.93925 0
M  V30 4515 H 412.914 0.272724 -1.41394 0
M  V30 4516 H 414.867 3.00687 -2.95238 0
M  V30 4517 H 413.591 2.76843 -1.73279 0
M  V30 4518 H 412.25 1.41592 -3.38153 0
M  V30 4519 H 411.898 3.88495 -3.195 0
M  V30 4520 H 411.598 3.31077 -4.8545 0
M  V30 4521 H 413.122 4.16004 -4.4696 0
M  V30 4522 H 414.536 2.06535 -5.34805 0
M  V30 4523 H 412.933 1.43544 -5.82679 0
M  V30 4524 H 414.003 0.433611 -4.82957 0
M  V30 4525 N 415.346 1.54954 0.287554 0
M  V30 4526 C 416.294 1.87606 1.37502 0
M  V30 4527 C 417.288 0.751001 1.51843 0
M  V30 4528 O 418.494 0.935169 1.53801 0
M  V30 4529 H 414.869 0.595231 0.459569 0
M  V30 4530 H 416.84 2.78477 1.07206 0
M  V30 4531 C 415.589 2.15183 2.73115 0
M  V30 4532 H 414.912 3.01234 2.62866 0
M  V30 4533 H 416.352 2.4196 3.48183 0
M  V30 4534 C 414.811 0.954686 3.2309 0
M  V30 4535 O 415.341 0.181949 4.01288 0
M  V30 4536 N 413.547 0.756368 2.80584 0
M  V30 4537 H 413.094 1.38643 2.17108 0
M  V30 4538 H 413.052 -0.0430391 3.14371 0
M  V30 4539 N 416.824 -0.551391 1.4764 0
M  V30 4540 C 418.073 -1.30467 1.53822 0
M  V30 4541 C 418.386 -1.94495 0.207661 0
M  V30 4542 O 419.592 -2.71099 0.147533 0
M  V30 4543 C 418.048 -2.36616 2.71184 0
M  V30 4544 C 417.656 -1.78754 4.10793 0
M  V30 4545 C 419.4 -3.13088 2.86663 0
M  V30 4546 C 417.307 -2.82717 5.19447 0
M  V30 4547 H 416.237 -0.490584 0.572576 0
M  V30 4548 H 418.888 -0.58494 1.73927 0
M  V30 4549 H 417.27 -3.11529 2.4447 0
M  V30 4550 H 418.444 -1.10173 4.47435 0
M  V30 4551 H 416.759 -1.14846 4.00249 0
M  V30 4552 H 419.356 -3.90736 3.65007 0
M  V30 4553 H 419.699 -3.67635 1.95321 0
M  V30 4554 H 420.232 -2.45288 3.13175 0
M  V30 4555 H 416.971 -2.33018 6.12685 0
M  V30 4556 H 416.491 -3.4969 4.87316 0
M  V30 4557 H 418.17 -3.46102 5.46646 0
M  V30 4558 N 418.302 -1.35869 -0.798587 0
M  V30 4559 C 419.548 -1.2978 -1.55836 0
M  V30 4560 C 419.881 0.125322 -1.93795 0
M  V30 4561 O 419.156 1.07658 -1.61987 0
M  V30 4562 C 419.439 -2.21188 -2.84162 0
M  V30 4563 C 419.292 -3.72155 -2.52628 0
M  V30 4564 C 420.611 -2.11545 -3.85923 0
M  V30 4565 H 417.73 -0.472769 -0.565383 0
M  V30 4566 H 420.372 -1.66341 -0.918192 0
M  V30 4567 H 418.522 -1.90139 -3.38791 0
M  V30 4568 H 420.194 -4.13682 -2.04121 0
M  V30 4569 H 418.437 -3.92042 -1.85704 0
M  V30 4570 H 419.108 -4.31511 -3.44242 0
M  V30 4571 H 421.584 -2.38855 -3.40716 0
M  V30 4572 H 420.46 -2.77688 -4.73477 0
M  V30 4573 H 420.721 -1.09987 -4.282 0
M  V30 4574 N 419.78 1.02168 -1.19998 0
M  V30 4575 C 420.728 2.12717 -0.940967 0
M  V30 4576 C 421.722 1.69069 0.105841 0
M  V30 4577 O 422.928 1.79946 -0.0440583 0
M  V30 4578 H 419.303 0.695108 -0.28693 0
M  V30 4579 H 421.274 2.3175 -1.87975 0
M  V30 4580 C 420.023 3.44027 -0.504049 0
M  V30 4581 H 419.346 3.78036 -1.30112 0
M  V30 4582 H 420.786 4.22452 -0.361991 0
M  V30 4583 C 419.245 3.27678 0.782878 0
M  V30 4584 O 419.775 3.56949 1.84256 0
M  V30 4585 N 417.981 2.80943 0.742921 0
M  V30 4586 H 417.528 2.57322 -0.119687 0
M  V30 4587 H 417.486 2.70385 1.60435 0
M  V30 4588 N 421.258 1.00505 1.21394 0
M  V30 4589 C 422.504 0.688793 1.90745 0
M  V30 4590 C 422.837 -0.778486 1.77914 0
M  V30 4591 O 422.112 -1.56433 1.15581 0
M  V30 4592 C 422.395 1.11063 3.42545 0
M  V30 4593 C 422.248 2.63737 3.64367 0
M  V30 4594 C 423.567 0.673059 4.34923 0
M  V30 4595 H 420.686 0.251702 0.692687 0
M  V30 4596 H 423.328 1.25074 1.43026 0
M  V30 4597 H 421.478 0.632508 3.83317 0
M  V30 4598 H 423.15 3.19313 3.32922 0
M  V30 4599 H 421.393 3.05248 3.08231 0
M  V30 4600 H 422.064 2.88305 4.70727 0
M  V30 4601 H 424.54 1.08392 4.01734 0
M  V30 4602 H 423.416 0.996383 5.39781 0
M  V30 4603 H 423.677 -0.425808 4.40045 0
M  V30 4604 N 422.737 -1.36956 0.779787 0
M  V30 4605 C 423.983 -1.99787 0.348281 0
M  V30 4606 C 424.316 -1.61756 -1.07465 0
M  V30 4607 O 423.591 -0.867639 -1.74075 0
M  V30 4608 C 423.874 -3.56597 0.50104 0
M  V30 4609 C 423.727 -4.04513 1.96697 0
M  V30 4610 C 425.046 -4.40008 -0.0898097 0
M  V30 4611 H 422.165 -0.725796 0.128022 0
M  V30 4612 H 424.807 -1.62514 0.984331 0
M  V30 4613 H 422.957 -3.88479 -0.0404347 0
M  V30 4614 H 424.629 -3.83161 2.56876 0
M  V30 4615 H 422.872 -3.56408 2.47297 0
M  V30 4616 H 423.543 -5.1352 2.02486 0
M  V30 4617 H 426.019 -4.14431 0.372293 0
M  V30 4618 H 424.895 -5.4888 0.0471605 0
M  V30 4619 H 425.156 -4.26035 -1.18096 0
M  V30 4620 N 424.215 -0.530993 -1.48385 0
M  V30 4621 C 425.445 -0.00133928 -2.066 0
M  V30 4622 C 425.853 1.28599 -1.38777 0
M  V30 4623 O 425.196 1.77599 -0.469495 0
M  V30 4624 C 425.258 0.292137 -3.58311 0
M  V30 4625 C 424.922 -0.901864 -4.48013 0
M  V30 4626 C 425.919 -1.80053 -4.87726 0
M  V30 4627 C 423.604 -1.10915 -4.89901 0
M  V30 4628 C 425.598 -2.89038 -5.68098 0
M  V30 4629 C 423.285 -2.20213 -5.70043 0
M  V30 4630 C 424.283 -3.09107 -6.0905 0
M  V30 4631 O 423.971 -4.16514 -6.87583 0
M  V30 4632 H 423.703 -0.0308475 -0.675296 0
M  V30 4633 H 426.257 -0.736335 -1.91748 0
M  V30 4634 H 424.487 1.08112 -3.7128 0
M  V30 4635 H 426.176 0.763994 -3.98645 0
M  V30 4636 H 426.942 -1.65234 -4.55986 0
M  V30 4637 H 422.821 -0.426498 -4.59023 0
M  V30 4638 H 426.365 -3.58451 -5.98464 0
M  V30 4639 H 422.262 -2.35016 -6.01197 0
M  V30 4640 H 423.03 -4.14237 -7.05939 0
M  V30 4641 N 425.693 1.55336 -0.266172 0
M  V30 4642 C 426.64 2.22172 0.625165 0
M  V30 4643 C 427.61 1.19211 1.15663 0
M  V30 4644 O 428.795 1.47723 1.20758 0
M  V30 4645 C 425.935 2.93972 1.8076 0
M  V30 4646 C 425.048 4.11632 1.31084 0
M  V30 4647 C 424.183 4.71099 2.45436 0
M  V30 4648 C 423.222 5.8097 1.92718 0
M  V30 4649 N 422.359 6.34538 3.00509 0
M  V30 4650 H 427.199 2.9796 0.0485582 0
M  V30 4651 H 424.736 1.47095 0.0122024 0
M  V30 4652 H 426.694 3.33811 2.50251 0
M  V30 4653 H 425.324 2.20623 2.35638 0
M  V30 4654 H 424.376 3.76975 0.509326 0
M  V30 4655 H 425.688 4.90893 0.884633 0
M  V30 4656 H 424.842 5.13612 3.22936 0
M  V30 4657 H 423.581 3.91096 2.91368 0
M  V30 4658 H 422.586 5.37916 1.13695 0
M  V30 4659 H 423.811 6.62836 1.47733 0
M  V30 4660 H 421.757 5.57433 3.45839 0
M  V30 4661 H 421.674 7.09046 2.62279 0
M  V30 4662 H 422.942 6.81709 3.78011 0
M  V30 4663 N 427.171 -0.0066808 1.57599 0
M  V30 4664 C 428.417 -0.693947 1.90558 0
M  V30 4665 C 428.75 -1.73792 0.866594 0
M  V30 4666 O 428.025 -1.94156 -0.115548 0
M  V30 4667 C 428.308 -1.34317 3.34112 0
M  V30 4668 C 428.161 -0.311189 4.48722 0
M  V30 4669 C 429.48 -2.27116 3.7697 0
M  V30 4670 H 426.599 -0.250803 0.693013 0
M  V30 4671 H 429.241 0.043242 1.89951 0
M  V30 4672 H 427.391 -1.9715 3.3476 0
M  V30 4673 H 429.063 0.316944 4.6021 0
M  V30 4674 H 427.306 0.367253 4.32243 0
M  V30 4675 H 427.977 -0.804366 5.46108 0
M  V30 4676 H 430.453 -1.74306 3.77831 0
M  V30 4677 H 429.329 -2.69511 4.78179 0
M  V30 4678 H 429.59 -3.14743 3.10466 0
M  V30 4679 N 428.649 -1.55105 -0.279332 0
M  V30 4680 C 429.877 -1.7943 -1.03017 0
M  V30 4681 C 430.292 -0.564456 -1.80165 0
M  V30 4682 O 429.649 0.466326 -1.76442 0
M  V30 4683 C 429.7 -3.0155 -1.99374 0
M  V30 4684 O 429.421 -4.19784 -1.25352 0
M  V30 4685 C 430.922 -3.3843 -2.86321 0
M  V30 4686 H 428.142 -0.597882 -0.304594 0
M  V30 4687 H 430.686 -2.02105 -0.312035 0
M  V30 4688 H 428.841 -2.81019 -2.66659 0
M  V30 4689 H 429.255 -4.88781 -1.90246 0
M  V30 4690 H 430.729 -4.27066 -3.49741 0
M  V30 4691 H 431.206 -2.57549 -3.5576 0
M  V30 4692 H 431.812 -3.61197 -2.24536 0
M  V30 4693 N 430.127 0.543554 -1.4793 0
M  V30 4694 C 431.543 0.870806 -1.3375 0
M  V30 4695 C 431.743 1.9864 -0.338261 0
M  V30 4696 O 430.799 2.51305 0.245371 0
M  V30 4697 C 432.112 1.25114 -2.73435 0
M  V30 4698 C 433.66 1.3618 -2.81823 0
M  V30 4699 C 434.135 1.77563 -4.22179 0
M  V30 4700 N 435.626 1.8469 -4.24787 0
M  V30 4701 C 436.361 2.18067 -5.30315 0
M  V30 4702 N 435.857 2.49963 -6.46135 0
M  V30 4703 N 437.65 2.18958 -5.17701 0
M  V30 4704 H 429.801 -0.19275 -2.11524 0
M  V30 4705 H 432.064 -0.0235777 -0.947707 0
M  V30 4706 H 431.77 0.50514 -3.48053 0
M  V30 4707 H 431.644 2.20431 -3.06088 0
M  V30 4708 H 434.031 2.09859 -2.07468 0
M  V30 4709 H 434.112 0.390169 -2.52807 0
M  V30 4710 H 433.756 1.04449 -4.97044 0
M  V30 4711 H 433.686 2.75753 -4.48629 0
M  V30 4712 H 436.177 1.62372 -3.41239 0
M  V30 4713 H 436.49 2.74497 -7.22406 0
M  V30 4714 H 434.835 2.47513 -6.49432 0
M  V30 4715 H 438.026 1.93488 -4.2624 0
M  V30 4716 H 438.199 2.44639 -6.00047 0
M  V30 4717 N 431.605 1.3629 0.791371 0
M  V30 4718 C 433.016 1.27225 1.36641 0
M  V30 4719 C 433.367 -0.0887968 1.95999 0
M  V30 4720 O 432.492 -0.990207 1.92416 0
M  V30 4721 C 433.087 2.30375 2.48421 0
M  V30 4722 C 431.646 2.25004 3.01746 0
M  V30 4723 C 430.793 2.15259 1.7481 0
M  V30 4724 H 433.744 1.47198 0.593173 0
M  V30 4725 H 433.765 1.93905 3.27385 0
M  V30 4726 H 433.277 3.29422 2.05189 0
M  V30 4727 H 431.378 1.29417 3.49403 0
M  V30 4728 H 431.491 3.1761 3.58693 0
M  V30 4729 H 429.855 1.61482 1.96966 0
M  V30 4730 H 430.638 3.16191 1.33709 0
M  V30 4731 N 433.083 -1.0153 1.20538 0
M  V30 4732 C 434.013 -2.11972 0.979295 0
M  V30 4733 C 434.994 -1.6985 -0.0921787 0
M  V30 4734 O 436.179 -1.94089 0.0655932 0
M  V30 4735 C 433.309 -3.43201 0.531984 0
M  V30 4736 C 432.263 -3.9907 1.54685 0
M  V30 4737 C 431.589 -5.26082 0.956127 0
M  V30 4738 C 432.889 -4.32313 2.93092 0
M  V30 4739 H 434.583 -2.31143 1.90298 0
M  V30 4740 H 432.129 -1.11079 0.916372 0
M  V30 4741 H 434.082 -4.1985 0.361044 0
M  V30 4742 H 432.806 -3.23792 -0.427327 0
M  V30 4743 H 431.465 -3.2453 1.70517 0
M  V30 4744 H 431.113 -5.02999 -0.0111538 0
M  V30 4745 H 430.813 -5.64426 1.63393 0
M  V30 4746 H 432.337 -6.05386 0.796284 0
M  V30 4747 H 433.751 -4.99845 2.80763 0
M  V30 4748 H 432.148 -4.81774 3.57791 0
M  V30 4749 H 433.218 -3.41025 3.44717 0
M  V30 4750 N 434.561 -1.01147 -1.20859 0
M  V30 4751 C 435.524 -0.582224 -2.21682 0
M  V30 4752 C 436.524 0.344887 -1.57058 0
M  V30 4753 O 437.714 0.134281 -1.73682 0
M  V30 4754 C 434.846 0.150496 -3.40568 0
M  V30 4755 H 436.039 -1.47408 -2.61172 0
M  V30 4756 H 433.592 -0.800695 -1.34233 0
M  V30 4757 H 434.327 1.0575 -3.06574 0
M  V30 4758 H 434.112 -0.515444 -3.88697 0
M  V30 4759 H 435.602 0.438344 -4.15293 0
M  V30 4760 N 436.039 1.36541 -0.78704 0
M  V30 4761 C 437.264 2.0409 -0.369053 0
M  V30 4762 C 437.689 1.58957 1.00569 0
M  V30 4763 O 437.047 0.756926 1.64743 0
M  V30 4764 C 437.095 3.57924 -0.438466 0
M  V30 4765 O 436.199 4.08642 0.555479 0
M  V30 4766 H 435.54 0.645142 -0.157122 0
M  V30 4767 H 438.07 1.74545 -1.06749 0
M  V30 4768 H 438.08 4.06887 -0.301218 0
M  V30 4769 H 436.755 3.90127 -1.44132 0
M  V30 4770 H 435.332 3.70958 0.380088 0
M  V30 4771 N 437.518 0.538854 1.48102 0
M  V30 4772 C 438.481 -0.208395 2.28251 0
M  V30 4773 C 439.481 -0.859656 1.35892 0
M  V30 4774 O 440.671 -0.71834 1.58699 0
M  V30 4775 C 437.803 -1.30252 3.15035 0
M  V30 4776 H 438.996 0.495407 2.9578 0
M  V30 4777 H 436.549 0.295112 1.53489 0
M  V30 4778 H 437.284 -2.0393 2.52157 0
M  V30 4779 H 437.069 -0.840551 3.82985 0
M  V30 4780 H 438.559 -1.82787 3.75471 0
M  V30 4781 N 438.996 -1.55193 0.274407 0
M  V30 4782 C 439.944 -2.23924 -0.629362 0
M  V30 4783 C 440.938 -1.23602 -1.1584 0
M  V30 4784 O 442.144 -1.41535 -1.11211 0
M  V30 4785 H 438.519 -0.718637 -0.221507 0
M  V30 4786 H 440.49 -2.98388 -0.0268322 0
M  V30 4787 C 439.239 -2.97329 -1.80252 0
M  V30 4788 H 438.562 -3.74313 -1.40462 0
M  V30 4789 H 440.002 -3.48743 -2.41152 0
M  V30 4790 C 438.461 -2.0276 -2.69054 0
M  V30 4791 O 438.991 -1.57836 -3.69392 0
M  V30 4792 N 437.197 -1.69275 -2.36208 0
M  V30 4793 H 436.744 -2.06004 -1.54661 0
M  V30 4794 H 436.702 -1.06271 -2.95895 0
M  V30 4795 N 440.474 -0.00167713 -1.576 0
M  V30 4796 C 441.699 0.69739 -1.95323 0
M  V30 4797 C 442.124 1.6642 -0.876706 0
M  V30 4798 O 441.482 1.80548 0.165007 0
M  V30 4799 C 441.53 1.40403 -3.32144 0
M  V30 4800 O 440.634 2.5185 -3.26566 0
M  V30 4801 H 439.975 0.185373 -0.637599 0
M  V30 4802 H 442.505 -0.0553665 -2.04525 0
M  V30 4803 H 442.515 1.76707 -3.67748 0
M  V30 4804 H 441.19 0.695167 -4.10049 0
M  V30 4805 H 439.767 2.17861 -3.0264 0
M  V30 4806 N 441.952 1.55251 0.271103 0
M  V30 4807 C 443.192 1.77698 1.01008 0
M  V30 4808 C 443.556 0.567246 1.83429 0
M  V30 4809 O 444.757 0.670013 2.60316 0
M  V30 4810 C 443.028 3.04715 1.86772 0
M  V30 4811 S 444.587 3.48289 2.66909 0
M  V30 4812 H 441.405 0.624343 0.340172 0
M  V30 4813 H 444.007 1.9348 0.280315 0
M  V30 4814 H 442.711 3.90853 1.25149 0
M  V30 4815 H 442.242 2.91604 2.64066 0
M  V30 4816 H 444.257 3.07712 3.89266 0
M  V30 4817 N 443.43 -0.535701 1.48216 0
M  V30 4818 C 444.36 -1.65014 1.65204 0
M  V30 4819 C 445.341 -1.62554 0.501011 0
M  V30 4820 O 446.526 -1.7984 0.732886 0
M  V30 4821 C 443.656 -3.03616 1.68626 0
M  V30 4822 C 442.61 -3.20932 2.83172 0
M  V30 4823 C 441.936 -4.60537 2.71679 0
M  V30 4824 C 443.236 -3.04249 4.24535 0
M  V30 4825 H 444.93 -1.51053 2.58502 0
M  V30 4826 H 442.476 -0.725262 1.24402 0
M  V30 4827 H 444.429 -3.81446 1.79099 0
M  V30 4828 H 443.153 -3.18587 0.719026 0
M  V30 4829 H 441.812 -2.45517 2.72244 0
M  V30 4830 H 441.46 -4.72336 1.72937 0
M  V30 4831 H 441.16 -4.73069 3.48538 0
M  V30 4832 H 442.684 -5.40475 2.84112 0
M  V30 4833 H 444.098 -3.71877 4.36326 0
M  V30 4834 H 442.495 -3.28278 5.02348 0
M  V30 4835 H 443.565 -2.00739 4.41397 0
M  V30 4836 N 444.908 -1.36708 -0.784132 0
M  V30 4837 C 446.185 -1.21776 -1.53069 0
M  V30 4838 C 446.565 0.193876 -2.10208 0
M  V30 4839 O 445.913 1.20012 -1.94446 0
M  V30 4840 C 446.123 -2.30395 -2.62143 0
M  V30 4841 C 447.471 -2.67325 -3.29882 0
M  V30 4842 O 448.495 -2.29478 -2.7243 0
M  V30 4843 O 447.354 -3.32485 -4.33724 0
M  V30 4844 H 444.448 -0.474459 -0.677361 0
M  V30 4845 H 446.994 -1.48454 -0.82216 0
M  V30 4846 H 445.766 -3.2498 -2.17953 0
M  V30 4847 H 445.389 -2.05112 -3.40609 0
M  V30 4848 N 446.386 1.0089 -1.21074 0
M  V30 4849 C 447.797 1.56056 -1.02486 0
M  V30 4850 C 448.148 1.91728 0.416506 0
M  V30 4851 O 447.273 1.73066 1.29912 0
M  V30 4852 C 447.868 2.83563 -1.85411 0
M  V30 4853 C 446.427 3.3523 -1.71166 0
M  V30 4854 C 445.574 2.0846 -1.82865 0
M  V30 4855 H 448.525 0.831818 -1.35154 0
M  V30 4856 H 448.546 3.55286 -1.36205 0
M  V30 4857 H 448.058 2.57569 -2.9031 0
M  V30 4858 H 446.159 3.66167 -0.689361 0
M  V30 4859 H 446.272 4.06913 -2.52901 0
M  V30 4860 H 444.636 2.21275 -1.26132 0
M  V30 4861 H 445.419 1.84883 -2.89263 0
M  V30 4862 N 447.864 1.01787 1.20321 0
M  V30 4863 C 449.11 0.708985 1.90003 0
M  V30 4864 C 449.443 -0.759572 1.78729 0
M  V30 4865 O 448.718 -1.55198 1.17234 0
M  V30 4866 C 449.001 1.1469 3.41348 0
M  V30 4867 C 448.854 2.67586 3.61549 0
M  V30 4868 C 450.173 0.71915 4.34185 0
M  V30 4869 H 447.292 0.259034 0.689978 0
M  V30 4870 H 449.934 1.26584 1.41692 0
M  V30 4871 H 448.084 0.673128 3.82624 0
M  V30 4872 H 449.756 3.22826 3.29517 0
M  V30 4873 H 447.999 3.085 3.04976 0
M  V30 4874 H 448.67 2.93281 4.67643 0
M  V30 4875 H 451.146 1.12647 4.00562 0
M  V30 4876 H 450.022 1.05358 5.38694 0
M  V30 4877 H 450.283 -0.379111 4.40472 0
M  V30 4878 N 449.342 -1.36122 0.79427 0
M  V30 4879 C 450.272 -2.32551 0.210328 0
M  V30 4880 C 451.253 -1.56884 -0.657386 0
M  V30 4881 O 452.438 -1.85014 -0.590207 0
M  V30 4882 C 449.568 -3.41128 -0.651819 0
M  V30 4883 C 448.522 -4.27842 0.116395 0
M  V30 4884 C 447.848 -5.2763 -0.86666 0
M  V30 4885 C 449.148 -5.05647 1.30837 0
M  V30 4886 H 450.842 -2.81636 1.01594 0
M  V30 4887 H 448.388 -1.35407 0.489981 0
M  V30 4888 H 450.341 -4.07581 -1.07031 0
M  V30 4889 H 449.065 -2.90622 -1.49019 0
M  V30 4890 H 447.724 -3.62952 0.515915 0
M  V30 4891 H 447.372 -4.73395 -1.70019 0
M  V30 4892 H 447.072 -5.86514 -0.35705 0
M  V30 4893 H 448.596 -5.96955 -1.28361 0
M  V30 4894 H 450.01 -5.65113 0.965393 0
M  V30 4895 H 448.407 -5.73967 1.75161 0
M  V30 4896 H 449.477 -4.37006 2.10128 0
M  V30 4897 N 450.82 -0.546701 -1.47814 0
M  V30 4898 C 452.05 -0.0232519 -2.06587 0
M  V30 4899 C 452.458 1.2712 -1.40133 0
M  V30 4900 O 451.801 1.77091 -0.488305 0
M  V30 4901 C 451.863 0.254117 -3.58601 0
M  V30 4902 C 451.527 -0.949331 -4.47031 0
M  V30 4903 C 452.524 -1.85216 -4.85789 0
M  V30 4904 C 450.209 -1.16104 -4.88697 0
M  V30 4905 C 452.203 -2.95047 -5.65001 0
M  V30 4906 C 449.89 -2.26247 -5.67676 0
M  V30 4907 C 450.888 -3.1555 -6.05737 0
M  V30 4908 O 450.576 -4.23784 -6.83127 0
M  V30 4909 H 450.308 -0.0380082 -0.674931 0
M  V30 4910 H 452.862 -0.756631 -1.90956 0
M  V30 4911 H 451.092 1.04168 -3.72406 0
M  V30 4912 H 452.781 0.72167 -3.99433 0
M  V30 4913 H 453.547 -1.70061 -4.54207 0
M  V30 4914 H 449.426 -0.475159 -4.58545 0
M  V30 4915 H 452.97 -3.64778 -5.94628 0
M  V30 4916 H 448.867 -2.41379 -5.98671 0
M  V30 4917 H 449.635 -4.21701 -7.01506 0
M  V30 4918 N 452.299 1.55045 -0.282633 0
M  V30 4919 C 453.229 2.2579 0.595066 0
M  V30 4920 C 454.21 1.25074 1.15284 0
M  V30 4921 O 455.395 1.5381 1.18559 0
M  V30 4922 C 452.525 2.98472 1.77572 0
M  V30 4923 C 451.479 4.0618 1.34914 0
M  V30 4924 C 450.805 4.66477 2.6135 0
M  V30 4925 C 452.105 5.1996 0.493821 0
M  V30 4926 H 453.799 2.994 0.00505653 0
M  V30 4927 H 451.345 1.44 0.000992001 0
M  V30 4928 H 453.298 3.46677 2.39568 0
M  V30 4929 H 452.022 2.2241 2.39168 0
M  V30 4930 H 450.681 3.58797 0.752338 0
M  V30 4931 H 450.329 3.87074 3.2122 0
M  V30 4932 H 450.029 5.39207 2.33516 0
M  V30 4933 H 451.553 5.17435 3.24181 0
M  V30 4934 H 452.967 5.64172 1.01898 0
M  V30 4935 H 451.364 5.99299 0.310047 0
M  V30 4936 H 452.434 4.82462 -0.485593 0
M  V30 4937 N 453.777 0.010035 1.57597 0
M  V30 4938 C 454.707 -0.976857 2.12084 0
M  V30 4939 C 455.688 -1.35191 1.03235 0
M  V30 4940 O 456.873 -1.43389 1.3097 0
M  V30 4941 C 454.003 -2.26548 2.63236 0
M  V30 4942 C 452.957 -2.03175 3.76701 0
M  V30 4943 C 452.283 -3.38138 4.14206 0
M  V30 4944 C 453.583 -1.38625 5.03568 0
M  V30 4945 H 455.277 -0.523145 2.94794 0
M  V30 4946 H 452.823 -0.250195 1.4181 0
M  V30 4947 H 454.776 -2.95952 2.99984 0
M  V30 4948 H 453.5 -2.74051 1.77661 0
M  V30 4949 H 452.159 -1.36195 3.40362 0
M  V30 4950 H 451.807 -3.83363 3.25641 0
M  V30 4951 H 451.507 -3.23312 4.90656 0
M  V30 4952 H 453.031 -4.08841 4.53521 0
M  V30 4953 H 454.445 -1.98 5.38023 0
M  V30 4954 H 452.842 -1.34256 5.84889 0
M  V30 4955 H 453.912 -0.356722 4.83586 0
M  V30 4956 N 455.255 -1.55392 -0.262866 0
M  V30 4957 C 456.483 -1.80513 -1.01108 0
M  V30 4958 C 456.898 -0.583533 -1.79556 0
M  V30 4959 O 456.255 0.447585 -1.76926 0
M  V30 4960 C 456.306 -3.03648 -1.96164 0
M  V30 4961 O 456.027 -4.2109 -1.20893 0
M  V30 4962 C 457.528 -3.41448 -2.82715 0
M  V30 4963 H 454.748 -0.601079 -0.298236 0
M  V30 4964 H 457.292 -2.02425 -0.290582 0
M  V30 4965 H 455.447 -2.83832 -2.63663 0
M  V30 4966 H 455.861 -4.90771 -1.85051 0
M  V30 4967 H 457.335 -4.30751 -3.45192 0
M  V30 4968 H 457.812 -2.61308 -3.53008 0
M  V30 4969 H 458.418 -3.63559 -2.20693 0
M  V30 4970 N 456.733 0.527833 -1.48498 0
M  V30 4971 C 457.981 1.28101 -1.56316 0
M  V30 4972 C 458.302 1.9352 -0.239781 0
M  V30 4973 O 457.572 1.81433 0.738849 0
M  V30 4974 H 456.152 0.475793 -0.575873 0
M  V30 4975 H 458.814 0.614052 -1.84974 0
M  V30 4976 H 457.91 2.05916 -2.34532 0
M  V30 4977 N 458.211 1.37122 0.776871 0
M  V30 4978 C 459.488 1.22586 1.52421 0
M  V30 4979 C 459.868 -0.182726 2.10308 0
M  V30 4980 O 459.216 -1.18979 1.9508 0
M  V30 4981 C 459.426 2.31782 2.60918 0
M  V30 4982 C 460.774 2.69071 3.2846 0
M  V30 4983 O 461.798 2.3092 2.71209 0
M  V30 4984 O 460.657 3.3478 4.31954 0
M  V30 4985 H 457.751 0.478045 0.674835 0
M  V30 4986 H 460.297 1.48888 0.814275 0
M  V30 4987 H 459.069 3.26131 2.16227 0
M  V30 4988 H 458.692 2.06916 3.39517 0
M  V30 4989 N 459.689 -1.00246 1.21608 0
M  V30 4990 C 460.636 -2.09073 0.977613 0
M  V30 4991 C 461.606 -1.65815 -0.097297 0
M  V30 4992 O 462.791 -1.90734 0.0503445 0
M  V30 4993 C 459.931 -3.40671 0.551133 0
M  V30 4994 C 459.044 -3.97326 1.69576 0
M  V30 4995 C 458.179 -5.17043 1.2182 0
M  V30 4996 C 457.218 -5.65813 2.335 0
M  V30 4997 N 456.355 -6.76778 1.86859 0
M  V30 4998 H 461.195 -2.28806 1.90924 0
M  V30 4999 H 458.732 -1.12186 0.951452 0
M  V30 5000 H 460.69 -4.16225 0.285097 0
M  V30 5001 H 459.32 -3.20967 -0.343489 0
M  V30 5002 H 458.372 -3.18734 2.07637 0
M  V30 5003 H 459.684 -4.29511 2.53617 0
M  V30 5004 H 458.838 -5.99852 0.908975 0
M  V30 5005 H 457.577 -4.86458 0.347869 0
M  V30 5006 H 456.582 -4.81599 2.65222 0
M  V30 5007 H 457.807 -5.98427 3.21033 0
M  V30 5008 H 455.753 -6.47994 1.02174 0
M  V30 5009 H 455.67 -7.08231 2.64471 0
M  V30 5010 H 456.938 -7.63116 1.58978 0
M  V30 5011 N 461.167 -1.02423 -1.1978 0
M  V30 5012 C 462.397 -0.736387 -1.93031 0
M  V30 5013 C 462.805 0.708023 -1.75453 0
M  V30 5014 O 462.148 1.4927 -1.07071 0
M  V30 5015 C 462.21 -1.00194 -3.45255 0
M  V30 5016 C 461.874 -2.43698 -3.86601 0
M  V30 5017 C 462.871 -3.41814 -3.91738 0
M  V30 5018 C 460.556 -2.77975 -4.18372 0
M  V30 5019 C 462.55 -4.72265 -4.28071 0
M  V30 5020 C 460.237 -4.08636 -4.54378 0
M  V30 5021 C 461.235 -5.05592 -4.59201 0
M  V30 5022 O 460.923 -6.33914 -4.94376 0
M  V30 5023 H 460.655 -0.269116 -0.620123 0
M  V30 5024 H 463.209 -1.37043 -1.52998 0
M  V30 5025 H 461.439 -0.310747 -3.85449 0
M  V30 5026 H 463.128 -0.704488 -3.9974 0
M  V30 5027 H 463.894 -3.16671 -3.67348 0
M  V30 5028 H 459.773 -2.0319 -4.13805 0
M  V30 5029 H 463.317 -5.4794 -4.3175 0
M  V30 5030 H 459.214 -4.33556 -4.78226 0
M  V30 5031 H 459.982 -6.38317 -5.12341 0
M  V30 5032 N 462.645 1.35699 -0.801477 0
M  V30 5033 C 464.061 1.52065 -0.484596 0
M  V30 5034 C 464.261 1.75215 0.995084 0
M  V30 5035 O 463.317 1.79061 1.78026 0
M  V30 5036 C 464.63 2.69908 -1.32552 0
M  V30 5037 C 466.178 2.83784 -1.32044 0
M  V30 5038 C 466.653 4.04646 -2.14536 0
M  V30 5039 N 468.144 4.11814 -2.12046 0
M  V30 5040 C 468.879 5.04437 -2.72636 0
M  V30 5041 N 468.375 6.02426 -3.42133 0
M  V30 5042 N 470.168 4.97144 -2.62305 0
M  V30 5043 H 462.319 1.18928 -1.75983 0
M  V30 5044 H 464.582 0.581455 -0.748741 0
M  V30 5045 H 464.288 2.59363 -2.37537 0
M  V30 5046 H 464.162 3.64376 -0.975181 0
M  V30 5047 H 466.549 2.93783 -0.27846 0
M  V30 5048 H 466.63 1.90188 -1.71062 0
M  V30 5049 H 466.274 3.95407 -3.18772 0
M  V30 5050 H 466.204 4.97413 -1.72882 0
M  V30 5051 H 468.695 3.41664 -1.61476 0
M  V30 5052 H 469.008 6.69688 -3.85666 0
M  V30 5053 H 467.353 6.02615 -3.46237 0
M  V30 5054 H 470.544 4.19546 -2.07603 0
M  V30 5055 H 470.717 5.69138 -3.09815 0
M  V30 5056 N 464.123 0.554532 1.47522 0
M  V30 5057 C 465.539 0.214107 1.58157 0
M  V30 5058 C 465.739 -1.28331 1.55349 0
M  V30 5059 O 464.795 -2.06329 1.45549 0
M  V30 5060 C 466.108 0.838391 2.88776 0
M  V30 5061 C 467.656 0.809374 3.02354 0
M  V30 5062 C 468.131 1.41268 4.35669 0
M  V30 5063 N 469.622 1.37574 4.42298 0
M  V30 5064 C 470.357 1.8122 5.4401 0
M  V30 5065 N 469.853 2.3271 6.52547 0
M  V30 5066 N 471.646 1.72307 5.35039 0
M  V30 5067 H 463.797 1.52744 1.4759 0
M  V30 5068 H 466.06 0.636812 0.702264 0
M  V30 5069 H 465.766 1.89065 2.96559 0
M  V30 5070 H 465.64 0.329847 3.75755 0
M  V30 5071 H 468.027 -0.234187 2.94169 0
M  V30 5072 H 468.108 1.35565 2.16924 0
M  V30 5073 H 467.752 2.45529 4.4461 0
M  V30 5074 H 467.682 0.841871 5.19827 0
M  V30 5075 H 470.173 0.999081 3.64454 0
M  V30 5076 H 470.486 2.63944 7.26329 0
M  V30 5077 H 468.831 2.36719 6.53444 0
M  V30 5078 H 472.022 1.3186 4.49144 0
M  V30 5079 H 472.195 2.06641 6.14169 0
M  V30 5080 N 465.601 -1.54893 0.290851 0
M  V30 5081 C 466.533 -2.20564 -0.623236 0
M  V30 5082 C 467.546 -1.19519 -1.1054 0
M  V30 5083 O 468.735 -1.46165 -1.02459 0
M  V30 5084 C 465.835 -2.83033 -1.86401 0
M  V30 5085 C 465.008 -4.09916 -1.52604 0
M  V30 5086 C 464.067 -4.56284 -2.62091 0
M  V30 5087 O 463.093 -5.2171 -2.27612 0
M  V30 5088 N 464.295 -4.27746 -3.92446 0
M  V30 5089 H 467.06 -2.99638 -0.0610915 0
M  V30 5090 H 464.621 -1.61508 0.112615 0
M  V30 5091 H 466.613 -3.1099 -2.58973 0
M  V30 5092 H 465.183 -2.0786 -2.33481 0
M  V30 5093 H 464.403 -3.89078 -0.633424 0
M  V30 5094 H 465.691 -4.92554 -1.27547 0
M  V30 5095 H 465.089 -3.7531 -4.23272 0
M  V30 5096 H 463.646 -4.60437 -4.61347 0
M  V30 5097 N 467.08 -0.0183926 -1.57589 0
M  V30 5098 C 468.01 0.965596 -2.12599 0
M  V30 5099 C 468.991 1.34641 -1.0395 0
M  V30 5100 O 470.176 1.42693 -1.31729 0
M  V30 5101 C 467.306 2.25149 -2.64434 0
M  V30 5102 C 466.26 2.01175 -3.77773 0
M  V30 5103 C 465.586 3.35937 -4.15994 0
M  V30 5104 C 466.886 1.35953 -5.04296 0
M  V30 5105 H 468.58 0.507504 -2.95067 0
M  V30 5106 H 466.126 0.242671 -1.41941 0
M  V30 5107 H 468.079 2.94357 -3.01549 0
M  V30 5108 H 466.803 2.73105 -1.79112 0
M  V30 5109 H 465.462 1.34388 -3.4108 0
M  V30 5110 H 465.11 3.81631 -3.27669 0
M  V30 5111 H 464.81 3.20705 -4.92364 0
M  V30 5112 H 466.334 4.0643 -4.55683 0
M  V30 5113 H 467.748 1.95144 -5.39065 0
M  V30 5114 H 466.145 1.31152 -5.85593 0
M  V30 5115 H 467.215 0.331071 -4.83768 0
M  V30 5116 N 468.558 1.5553 0.254621 0
M  V30 5117 C 469.974 1.4778 0.602753 0
M  V30 5118 C 470.174 0.707047 1.88688 0
M  V30 5119 O 469.23 0.233288 2.5142 0
M  V30 5120 C 470.543 2.92133 0.712648 0
M  V30 5121 C 472.091 3.02458 0.805488 0
M  V30 5122 C 472.566 4.48102 0.947009 0
M  V30 5123 N 474.057 4.52008 1.01207 0
M  V30 5124 C 474.792 5.61939 1.1407 0
M  V30 5125 N 474.288 6.81697 1.23536 0
M  V30 5126 N 476.081 5.49719 1.17325 0
M  V30 5127 H 468.232 2.04085 -0.588463 0
M  V30 5128 H 470.495 0.926229 -0.202001 0
M  V30 5129 H 470.201 3.51332 -0.160766 0
M  V30 5130 H 470.075 3.42187 1.58707 0
M  V30 5131 H 472.462 2.43344 1.66936 0
M  V30 5132 H 472.543 2.55627 -0.0939266 0
M  V30 5133 H 472.187 5.07824 0.087725 0
M  V30 5134 H 472.117 4.92607 1.86135 0
M  V30 5135 H 474.608 3.65749 0.950577 0
M  V30 5136 H 474.921 7.61228 1.33236 0
M  V30 5137 H 473.266 6.84473 1.20508 0
M  V30 5138 H 476.457 4.55095 1.09573 0
M  V30 5139 H 476.63 6.35432 1.27005 0
M  V30 5140 N 470.036 -0.519951 1.48776 0
M  V30 5141 C 470.968 -1.63973 1.60142 0
M  V30 5142 C 471.981 -1.55404 0.485117 0
M  V30 5143 O 473.17 -1.61682 0.756391 0
M  V30 5144 C 470.27 -3.02676 1.52449 0
M  V30 5145 C 469.443 -3.36624 2.79291 0
M  V30 5146 C 468.502 -4.54652 2.64912 0
M  V30 5147 O 467.528 -4.57374 3.38818 0
M  V30 5148 N 468.73 -5.53432 1.75195 0
M  V30 5149 H 471.495 -1.54656 2.56713 0
M  V30 5150 H 469.056 -0.707439 1.45626 0
M  V30 5151 H 471.048 -3.79525 1.4051 0
M  V30 5152 H 469.618 -3.06018 0.638125 0
M  V30 5153 H 468.838 -2.48855 3.0572 0
M  V30 5154 H 470.126 -3.56094 3.6342 0
M  V30 5155 H 469.524 -5.54018 1.14371 0
M  V30 5156 H 468.081 -6.29459 1.69189 0
M  V30 5157 N 471.514 -1.37532 -0.769588 0
M  V30 5158 C 472.444 -1.36172 -1.89682 0
M  V30 5159 C 473.425 -0.23001 -1.68538 0
M  V30 5160 O 474.61 -0.43069 -1.89364 0
M  V30 5161 C 471.74 -1.1701 -3.26995 0
M  V30 5162 C 470.694 -2.27216 -3.62708 0
M  V30 5163 C 470.02 -1.93174 -4.98586 0
M  V30 5164 C 471.32 -3.6941 -3.69234 0
M  V30 5165 H 473.014 -2.30499 -1.91078 0
M  V30 5166 H 470.56 -1.10953 -0.917902 0
M  V30 5167 H 472.513 -1.14688 -4.05493 0
M  V30 5168 H 471.237 -0.191395 -3.26039 0
M  V30 5169 H 469.896 -2.28697 -2.86519 0
M  V30 5170 H 469.544 -0.938281 -4.94171 0
M  V30 5171 H 469.244 -2.66973 -5.23449 0
M  V30 5172 H 470.768 -1.92443 -5.79481 0
M  V30 5173 H 472.182 -3.70047 -4.37879 0
M  V30 5174 H 470.579 -4.4228 -4.05597 0
M  V30 5175 H 471.649 -4.0288 -2.69844 0
M  V30 5176 N 472.992 0.995999 -1.22138 0
M  V30 5177 C 474.232 1.75032 -1.05561 0
M  V30 5178 C 474.596 1.87729 0.402698 0
M  V30 5179 O 475.797 2.59813 0.689234 0
M  V30 5180 C 474.068 3.11973 -1.74379 0
M  V30 5181 S 475.627 4.03182 -1.73175 0
M  V30 5182 H 472.445 0.602137 -0.37809 0
M  V30 5183 H 475.047 1.19107 -1.55028 0
M  V30 5184 H 473.751 3.00371 -2.79652 0
M  V30 5185 H 473.282 3.7297 -1.25128 0
M  V30 5186 H 475.297 4.90043 -0.77923 0
M  V30 5187 N 474.47 1.03057 1.19235 0
M  V30 5188 C 475.718 0.726581 1.88587 0
M  V30 5189 C 476.039 -0.747227 1.80115 0
M  V30 5190 O 475.309 -1.53849 1.21274 0
M  V30 5191 H 473.889 0.265768 0.698124 0
M  V30 5192 H 476.551 1.30516 1.44746 0
M  V30 5193 H 475.647 1.0224 2.94879 0
M  V30 5194 N 475.948 -1.35272 0.808662 0
M  V30 5195 C 477.196 -1.98316 0.389233 0
M  V30 5196 C 477.517 -1.64465 -1.04767 0
M  V30 5197 O 476.787 -0.928175 -1.72516 0
M  V30 5198 H 475.367 -0.733585 0.140935 0
M  V30 5199 H 478.029 -1.6515 1.03496 0
M  V30 5200 H 477.125 -3.08123 0.496631 0
M  V30 5201 N 477.426 -0.562348 -1.47226 0
M  V30 5202 C 478.674 -0.0401371 -2.0206 0
M  V30 5203 C 478.995 1.3165 -1.43852 0
M  V30 5204 O 478.265 1.85976 -0.615599 0
M  V30 5205 H 476.845 -0.0118479 -0.746906 0
M  V30 5206 H 479.507 -0.73352 -1.8057 0
M  V30 5207 H 478.603 0.0441254 -3.12069 0
M  V30 5208 N 478.904 1.54736 -0.299062 0
M  V30 5209 C 479.851 2.23448 0.577899 0
M  V30 5210 C 480.821 1.21637 1.13109 0
M  V30 5211 O 482.006 1.50252 1.17597 0
M  V30 5212 C 479.146 2.9774 1.74484 0
M  V30 5213 C 478.259 4.1432 1.22323 0
M  V30 5214 C 477.394 4.76199 2.35388 0
M  V30 5215 C 476.433 5.84927 1.80351 0
M  V30 5216 N 475.57 6.4077 2.86982 0
M  V30 5217 H 480.41 2.97996 -0.0146545 0
M  V30 5218 H 477.947 1.47088 -0.0190013 0
M  V30 5219 H 479.905 3.39045 2.43114 0
M  V30 5220 H 478.535 2.25572 2.30905 0
M  V30 5221 H 477.587 3.7797 0.429249 0
M  V30 5222 H 478.899 4.92659 0.780309 0
M  V30 5223 H 478.053 5.20346 3.11969 0
M  V30 5224 H 476.792 3.97188 2.83006 0
M  V30 5225 H 475.797 5.40207 1.02259 0
M  V30 5226 H 477.022 6.65821 1.3364 0
M  V30 5227 H 474.968 5.64643 3.33938 0
M  V30 5228 H 474.885 7.1445 2.4718 0
M  V30 5229 H 476.153 6.89574 3.63466 0
M  V30 5230 N 480.382 0.0267497 1.57577 0
M  V30 5231 C 481.793 -0.512413 1.79531 0
M  V30 5232 C 482.144 -1.72391 0.936791 0
M  V30 5233 O 481.269 -2.15903 0.146543 0
M  V30 5234 C 481.864 -0.936378 3.25603 0
M  V30 5235 C 480.423 -1.42067 3.4856 0
M  V30 5236 C 479.57 -0.384278 2.74624 0
M  V30 5237 H 482.521 0.252797 1.56674 0
M  V30 5238 H 482.542 -1.80088 3.35184 0
M  V30 5239 H 482.054 -0.0544332 3.88062 0
M  V30 5240 H 480.155 -2.32262 2.9135 0
M  V30 5241 H 480.268 -1.42968 4.57271 0
M  V30 5242 H 478.632 -0.851855 2.40032 0
M  V30 5243 H 479.415 0.489159 3.39797 0
M  V30 5244 N 481.861 -1.55662 -0.24637 0
M  V30 5245 C 482.793 -1.86811 -1.32794 0
M  V30 5246 C 483.806 -0.754413 -1.44265 0
M  V30 5247 O 484.995 -1.03253 -1.45606 0
M  V30 5248 C 482.095 -2.0397 -2.70646 0
M  V30 5249 C 481.268 -3.34832 -2.81436 0
M  V30 5250 C 480.327 -3.41727 -4.00136 0
M  V30 5251 O 479.353 -4.14934 -3.89639 0
M  V30 5252 N 480.555 -2.71058 -5.1333 0
M  V30 5253 H 483.32 -2.80174 -1.06409 0
M  V30 5254 H 480.881 -1.55906 -0.43647 0
M  V30 5255 H 482.873 -2.05924 -3.48393 0
M  V30 5256 H 481.443 -1.1735 -2.89738 0
M  V30 5257 H 480.663 -3.4519 -1.90361 0
M  V30 5258 H 481.951 -4.21085 -2.85595 0
M  V30 5259 H 481.349 -2.11314 -5.2475 0
M  V30 5260 H 479.906 -2.78704 -5.89209 0
M  V30 5261 N 483.339 0.512053 -1.4905 0
M  V30 5262 C 484.75 1.09376 -1.51307 0
M  V30 5263 C 485.101 1.94 -0.292971 0
M  V30 5264 O 484.226 2.07965 0.598277 0
M  V30 5265 C 484.821 1.99031 -2.74176 0
M  V30 5266 C 483.38 2.52385 -2.79247 0
M  V30 5267 C 482.527 1.29749 -2.45073 0
M  V30 5268 H 485.478 0.296467 -1.55906 0
M  V30 5269 H 485.499 2.83569 -2.53711 0
M  V30 5270 H 485.011 1.37412 -3.62959 0
M  V30 5271 H 483.112 3.17673 -1.94716 0
M  V30 5272 H 483.225 2.90293 -3.81139 0
M  V30 5273 H 481.589 1.61912 -1.96612 0
M  V30 5274 H 482.372 0.698555 -3.36118 0
M  V30 5275 N 484.817 1.37938 0.762283 0
M  V30 5276 C 486.233 1.18945 1.06415 0
M  V30 5277 C 486.433 0.0321163 2.01474 0
M  V30 5278 O 485.489 -0.624844 2.44647 0
M  V30 5279 C 486.802 2.51218 1.65258 0
M  V30 5280 C 488.35 2.57824 1.7747 0
M  V30 5281 C 488.825 3.90251 2.39725 0
M  V30 5282 N 490.316 3.91744 2.47166 0
M  V30 5283 C 491.051 4.90966 2.96209 0
M  V30 5284 N 490.547 6.00585 3.45354 0
M  V30 5285 N 492.34 4.78363 2.9517 0
M  V30 5286 H 484.491 2.11994 0.131301 0
M  V30 5287 H 486.754 0.940262 0.120879 0
M  V30 5288 H 486.46 3.36317 1.02878 0
M  V30 5289 H 486.334 2.68989 2.64433 0
M  V30 5290 H 488.721 1.73126 2.3898 0
M  V30 5291 H 488.802 2.43928 0.770241 0
M  V30 5292 H 488.446 4.75368 1.78852 0
M  V30 5293 H 488.376 4.01454 3.40796 0
M  V30 5294 H 490.867 3.12563 2.12397 0
M  V30 5295 H 491.18 6.72236 3.81207 0
M  V30 5296 H 489.525 6.04217 3.43434 0
M  V30 5297 H 492.716 3.91841 2.56082 0
M  V30 5298 H 492.889 5.55843 3.33081 0
M  V30 5299 N 486.295 -0.989507 1.22664 0
M  V30 5300 C 487.523 -1.76496 1.07967 0
M  V30 5301 C 487.938 -1.85148 -0.369543 0
M  V30 5302 O 487.295 -1.32408 -1.25596 0
M  V30 5303 C 487.346 -3.19642 1.68853 0
M  V30 5304 O 487.067 -3.11453 3.08105 0
M  V30 5305 C 488.568 -4.13621 1.59475 0
M  V30 5306 H 485.788 -0.55418 0.378319 0
M  V30 5307 H 488.332 -1.24378 1.62328 0
M  V30 5308 H 486.487 -3.68816 1.18547 0
M  V30 5309 H 486.901 -4.01499 3.37489 0
M  V30 5310 H 488.375 -5.11801 2.06795 0
M  V30 5311 H 488.852 -4.35718 0.55191 0
M  V30 5312 H 489.458 -3.70346 2.09103 0
M  V30 5313 N 487.773 -1.03688 -1.18687 0
M  V30 5314 C 488.736 -0.629115 -2.20397 0
M  V30 5315 C 489.736 0.311495 -1.57754 0
M  V30 5316 O 490.926 0.0974107 -1.73927 0
M  V30 5317 C 488.058 0.0782231 -3.4081 0
M  V30 5318 H 489.251 -1.52915 -2.57987 0
M  V30 5319 H 486.804 -0.828988 -1.32505 0
M  V30 5320 H 487.539 0.992233 -3.08748 0
M  V30 5321 H 487.324 -0.597776 -3.87517 0
M  V30 5322 H 488.814 0.350156 -4.16129 0
M  V30 5323 N 489.251 1.34841 -0.815825 0
M  V30 5324 C 490.214 2.27959 -0.238185 0
M  V30 5325 C 491.214 1.49983 0.579816 0
M  V30 5326 O 492.404 1.69617 0.396953 0
M  V30 5327 C 489.536 3.34314 0.666876 0
M  V30 5328 H 490.729 2.80558 -1.05958 0
M  V30 5329 H 488.282 1.44852 -0.587156 0
M  V30 5330 H 489.017 2.86916 1.5116 0
M  V30 5331 H 488.802 3.92014 0.0819106 0
M  V30 5332 H 490.292 4.0379 1.06506 0
M  V30 5333 N 490.729 0.570148 1.46925 0
M  V30 5334 C 491.954 0.0542592 2.07329 0
M  V30 5335 C 492.379 -1.23582 1.41806 0
M  V30 5336 O 491.737 -1.74341 0.497479 0
M  V30 5337 C 491.785 -0.111175 3.60429 0
M  V30 5338 O 490.889 -1.17071 3.95434 0
M  V30 5339 H 490.23 0.0571425 0.661537 0
M  V30 5340 H 492.76 0.789516 1.88753 0
M  V30 5341 H 492.77 -0.321315 4.06733 0
M  V30 5342 H 491.445 0.831012 4.07513 0
M  V30 5343 H 490.022 -0.940029 3.60857 0
M  V30 5344 N 492.207 -1.54576 0.307264 0
M  V30 5345 C 493.432 -2.05139 -0.305379 0
M  V30 5346 C 493.857 -1.18278 -1.46259 0
M  V30 5347 O 493.215 -0.188243 -1.8032 0
M  V30 5348 C 493.263 -3.53066 -0.733283 0
M  V30 5349 O 492.367 -3.69206 -1.83741 0
M  V30 5350 H 491.708 -0.661444 -0.0582105 0
M  V30 5351 H 494.238 -1.99569 0.450931 0
M  V30 5352 H 494.248 -3.95034 -1.02039 0
M  V30 5353 H 492.923 -4.15746 0.113198 0
M  V30 5354 H 491.5 -3.39143 -1.55037 0
M  V30 5355 N 493.685 -0.035106 -1.57561 0
M  V30 5356 C 494.615 0.942993 -2.13612 0
M  V30 5357 C 495.596 1.33531 -1.05373 0
M  V30 5358 O 496.781 1.41287 -1.33235 0
M  V30 5359 C 493.911 2.22332 -2.66807 0
M  V30 5360 C 492.865 1.97156 -3.79886 0
M  V30 5361 C 492.191 3.31506 -4.19533 0
M  V30 5362 C 493.491 1.30596 -5.05709 0
M  V30 5363 H 495.185 0.476179 -2.95589 0
M  V30 5364 H 492.731 0.227602 -1.4219 0
M  V30 5365 H 494.684 2.91142 -3.04654 0
M  V30 5366 H 493.408 2.7119 -1.81999 0
M  V30 5367 H 492.067 1.30763 -3.42486 0
M  V30 5368 H 491.715 3.78134 -3.31698 0
M  V30 5369 H 491.415 3.15465 -4.95738 0
M  V30 5370 H 492.939 4.01574 -4.59968 0
M  V30 5371 H 494.353 1.89416 -5.41105 0
M  V30 5372 H 492.75 1.24934 -5.86951 0
M  V30 5373 H 493.82 0.279742 -4.84092 0
M  V30 5374 N 495.163 1.55791 0.238111 0
M  V30 5375 C 496.126 1.90239 1.27835 0
M  V30 5376 C 497.126 0.779552 1.4064 0
M  V30 5377 O 498.316 1.04747 1.3919 0
M  V30 5378 C 495.448 2.13859 2.65475 0
M  V30 5379 H 496.641 2.83262 0.985034 0
M  V30 5380 H 494.194 1.48818 0.477799 0
M  V30 5381 H 494.929 1.23334 2.99932 0
M  V30 5382 H 494.714 2.95643 2.57561 0
M  V30 5383 H 496.204 2.41664 3.40571 0
M  V30 5384 N 496.642 -0.504142 1.49319 0
M  V30 5385 C 497.572 -1.61473 1.68667 0
M  V30 5386 C 498.553 -1.61455 0.535378 0
M  V30 5387 O 499.738 -1.78245 0.770868 0
M  V30 5388 C 496.868 -2.99971 1.75028 0
M  V30 5389 C 495.822 -3.14854 2.89916 0
M  V30 5390 C 495.148 -4.54671 2.81387 0
M  V30 5391 C 496.448 -2.95176 4.30893 0
M  V30 5392 H 498.142 -1.45535 2.61648 0
M  V30 5393 H 495.688 -0.698711 1.25913 0
M  V30 5394 H 497.641 -3.77562 1.8715 0
M  V30 5395 H 496.365 -3.1699 0.786441 0
M  V30 5396 H 495.024 -2.39687 2.77391 0
M  V30 5397 H 494.672 -4.68562 1.82917 0
M  V30 5398 H 494.372 -4.6557 3.58494 0
M  V30 5399 H 495.896 -5.34327 2.95512 0
M  V30 5400 H 497.31 -3.62538 4.44116 0
M  V30 5401 H 495.707 -3.17549 5.09198 0
M  V30 5402 H 496.777 -1.91332 4.45556 0
M  V30 5403 N 498.12 -1.38341 -0.754957 0
M  V30 5404 C 499.366 -1.34672 -1.51628 0
M  V30 5405 C 499.699 0.0636036 -1.94096 0
M  V30 5406 O 498.974 1.0245 -1.6533 0
M  V30 5407 C 499.257 -2.30116 -2.76981 0
M  V30 5408 C 499.11 -3.80003 -2.4066 0
M  V30 5409 C 500.429 -2.23715 -3.78998 0
M  V30 5410 H 497.548 -0.490517 -0.550056 0
M  V30 5411 H 500.19 -1.69178 -0.864807 0
M  V30 5412 H 498.34 -2.00821 -3.3257 0
M  V30 5413 H 500.012 -4.19966 -1.90856 0
M  V30 5414 H 498.255 -3.97751 -1.73137 0
M  V30 5415 H 498.926 -4.42244 -3.30339 0
M  V30 5416 H 501.402 -2.49574 -3.32945 0
M  V30 5417 H 500.278 -2.9261 -4.64403 0
M  V30 5418 H 500.539 -1.23554 -4.24484 0
M  V30 5419 N 499.598 0.982988 -1.23187 0
M  V30 5420 C 500.823 1.76455 -1.08988 0
M  V30 5421 C 501.248 1.84726 0.354691 0
M  V30 5422 O 500.606 1.30699 1.25649 0
M  V30 5423 C 500.654 3.17094 -1.71708 0
M  V30 5424 O 499.758 4.00648 -0.977477 0
M  V30 5425 H 499.099 0.542988 -0.382177 0
M  V30 5426 H 501.629 1.23413 -1.63188 0
M  V30 5427 H 501.639 3.67684 -1.76841 0
M  V30 5428 H 500.314 3.10389 -2.76823 0
M  V30 5429 H 498.891 3.59161 -1.0029 0
M  V30 5430 N 501.076 1.04316 1.18135 0
M  V30 5431 C 502.006 0.657299 2.24058 0
M  V30 5432 C 502.987 -0.340678 1.66654 0
M  V30 5433 O 504.172 -0.220223 1.92947 0
M  V30 5434 C 501.302 0.0220715 3.47293 0
M  V30 5435 C 500.256 0.943857 4.17463 0
M  V30 5436 C 499.582 0.172973 5.3442 0
M  V30 5437 C 500.882 2.26409 4.70677 0
M  V30 5438 H 502.576 1.5428 2.56589 0
M  V30 5439 H 500.122 0.743263 1.23335 0
M  V30 5440 H 502.075 -0.259607 4.206 0
M  V30 5441 H 500.799 -0.898323 3.14003 0
M  V30 5442 H 499.458 1.20996 3.46057 0
M  V30 5443 H 499.106 -0.749907 4.97379 0
M  V30 5444 H 498.806 0.787098 5.82304 0
M  V30 5445 H 500.33 -0.101628 6.10515 0
M  V30 5446 H 501.744 2.04294 5.35665 0
M  V30 5447 H 500.141 2.8314 5.29105 0
M  V30 5448 H 501.211 2.90883 3.87962 0
M  V30 5449 N 502.554 -1.34406 0.822964 0
M  V30 5450 C 503.965 -1.8069 0.469879 0
M  V30 5451 C 504.316 -1.68223 -1.00972 0
M  V30 5452 O 503.441 -1.22226 -1.78577 0
M  V30 5453 C 504.036 -3.28064 0.846118 0
M  V30 5454 C 502.595 -3.72428 0.545402 0
M  V30 5455 C 501.742 -2.56116 1.06301 0
M  V30 5456 H 504.693 -1.22153 1.01313 0
M  V30 5457 H 504.714 -3.80205 0.149922 0
M  V30 5458 H 504.226 -3.37107 1.92304 0
M  V30 5459 H 502.327 -3.68924 -0.522109 0
M  V30 5460 H 502.44 -4.66548 1.0895 0
M  V30 5461 H 500.804 -2.50048 0.484554 0
M  V30 5462 H 501.587 -2.67928 2.14638 0
M  V30 5463 N 504.032 -0.577932 -1.46621 0
M  V30 5464 C 504.942 0.160651 -2.34049 0
M  V30 5465 C 505.958 0.890911 -1.49462 0
M  V30 5466 O 507.134 0.855166 -1.82343 0
M  V30 5467 C 504.199 1.16447 -3.26559 0
M  V30 5468 C 503.26 0.4394 -4.27045 0
M  V30 5469 C 502.493 1.3954 -5.15135 0
M  V30 5470 O 502.716 2.63162 -5.06065 0
M  V30 5471 O 501.65 0.908585 -5.95003 0
M  V30 5472 H 505.476 -0.557057 -2.98547 0
M  V30 5473 H 503.061 -0.338369 -1.45518 0
M  V30 5474 H 504.943 1.7434 -3.83645 0
M  V30 5475 H 503.618 1.86373 -2.64663 0
M  V30 5476 H 502.525 -0.181247 -3.73661 0
M  V30 5477 H 503.858 -0.218799 -4.91713 0
M  V30 5478 N 505.51 1.54411 -0.315457 0
M  V30 5479 C 506.787 1.92562 0.343398 0
M  V30 5480 C 507.167 1.24423 1.70535 0
M  V30 5481 O 506.515 0.385051 2.25232 0
M  V30 5482 C 506.725 3.46168 0.443687 0
M  V30 5483 C 508.073 4.18659 0.707783 0
M  V30 5484 O 509.097 3.52281 0.52693 0
M  V30 5485 O 507.956 5.36198 1.05612 0
M  V30 5486 H 505.05 0.80379 0.194552 0
M  V30 5487 H 507.596 1.65738 -0.364577 0
M  V30 5488 H 506.368 3.8792 -0.513172 0
M  V30 5489 H 505.991 3.79073 1.19956 0
M  V30 5490 N 506.988 0.0434614 1.5754 0
M  V30 5491 C 508.213 -0.645358 1.97104 0
M  V30 5492 C 508.638 -1.64037 0.920521 0
M  V30 5493 O 507.996 -1.80922 -0.11708 0
M  V30 5494 C 508.044 -1.31547 3.35749 0
M  V30 5495 O 507.148 -2.43103 3.33129 0
M  V30 5496 H 506.489 -0.168403 0.64229 0
M  V30 5497 H 509.019 0.109573 2.04306 0
M  V30 5498 H 509.029 -1.66895 3.72304 0
M  V30 5499 H 507.704 -0.586205 4.11748 0
M  V30 5500 H 506.281 -2.0976 3.0831 0
M  V30 5501 N 508.466 -1.55915 -0.229846 0
M  V30 5502 C 509.691 -1.8296 -0.976743 0
M  V30 5503 C 510.116 -0.622735 -1.77493 0
M  V30 5504 O 509.474 0.428431 -1.76165 0
M  V30 5505 C 509.522 -3.07916 -1.8767 0
M  V30 5506 O 508.626 -2.86028 -2.97088 0
M  V30 5507 H 507.967 -0.603453 -0.277021 0
M  V30 5508 H 510.497 -2.0312 -0.245669 0
M  V30 5509 H 510.507 -3.37802 -2.2881 0
M  V30 5510 H 509.182 -3.95389 -1.28996 0
M  V30 5511 H 507.759 -2.67355 -2.59954 0
M  V30 5512 N 509.944 0.496216 -1.49584 0
M  V30 5513 C 511.184 1.26015 -1.60933 0
M  V30 5514 C 511.548 1.89772 -0.291646 0
M  V30 5515 O 512.749 2.67334 -0.280357 0
M  V30 5516 C 511.02 2.29506 -2.73974 0
M  V30 5517 S 512.579 3.15175 -3.05303 0
M  V30 5518 H 509.397 0.428194 -0.567601 0
M  V30 5519 H 511.999 0.561484 -1.87263 0
M  V30 5520 H 510.703 1.81205 -3.68229 0
M  V30 5521 H 510.234 3.04036 -2.49651 0
M  V30 5522 H 512.249 4.30244 -2.47193 0
M  V30 5523 N 511.423 1.38739 0.74761 0
M  V30 5524 C 512.839 1.20067 1.05148 0
M  V30 5525 C 513.039 0.0534835 2.01429 0
M  V30 5526 O 512.095 -0.59886 2.45296 0
M  V30 5527 C 513.408 2.52957 1.62584 0
M  V30 5528 C 514.956 2.59692 1.74726 0
M  V30 5529 C 515.431 3.92772 2.35573 0
M  V30 5530 N 516.922 3.94343 2.42997 0
M  V30 5531 C 517.657 4.9408 2.90985 0
M  V30 5532 N 517.153 6.04214 3.38965 0
M  V30 5533 N 518.946 4.81466 2.9008 0
M  V30 5534 H 511.097 2.12121 0.108808 0
M  V30 5535 H 513.36 0.941491 0.110899 0
M  V30 5536 H 513.066 3.37389 0.993051 0
M  V30 5537 H 512.94 2.71779 2.61565 0
M  V30 5538 H 515.327 1.75651 2.3713 0
M  V30 5539 H 515.408 2.44731 0.744326 0
M  V30 5540 H 515.052 4.77238 1.738 0
M  V30 5541 H 514.982 4.05046 3.36519 0
M  V30 5542 H 517.473 3.14799 2.0907 0
M  V30 5543 H 517.786 6.76241 3.74056 0
M  V30 5544 H 516.131 6.07825 3.37007 0
M  V30 5545 H 519.322 3.94535 2.51912 0
M  V30 5546 H 519.495 5.59344 3.27166 0
M  V30 5547 N 512.901 -0.976442 1.23707 0
M  V30 5548 C 514.147 -1.72158 1.08319 0
M  V30 5549 C 514.502 -1.88701 -0.375445 0
M  V30 5550 O 513.795 -1.43107 -1.274 0
M  V30 5551 C 513.989 -3.11814 1.74662 0
M  V30 5552 C 513.818 -3.08892 3.26827 0
M  V30 5553 C 512.588 -3.13861 3.96004 0
M  V30 5554 C 514.786 -2.9175 4.2354 0
M  V30 5555 N 512.768 -3.00867 5.35119 0
M  V30 5556 C 514.139 -2.8696 5.49595 0
M  V30 5557 C 516.194 -2.76265 4.14225 0
M  V30 5558 C 514.897 -2.68268 6.67401 0
M  V30 5559 C 516.923 -2.58938 5.317 0
M  V30 5560 C 516.285 -2.54849 6.56682 0
M  V30 5561 H 512.384 -0.638896 0.450927 0
M  V30 5562 H 514.968 -1.15835 1.56494 0
M  V30 5563 H 513.139 -3.66347 1.29014 0
M  V30 5564 H 514.871 -3.74984 1.52215 0
M  V30 5565 H 511.626 -3.22198 3.4711 0
M  V30 5566 H 512.05 -2.97634 6.08065 0
M  V30 5567 H 516.692 -2.78213 3.18366 0
M  V30 5568 H 514.41 -2.65063 7.63392 0
M  V30 5569 H 517.996 -2.47914 5.26336 0
M  V30 5570 H 516.876 -2.41611 7.46052 0
M  V30 5571 N 514.379 -1.04941 -1.1758 0
M  V30 5572 C 515.342 -0.652456 -2.19717 0
M  V30 5573 C 516.342 0.294745 -1.58076 0
M  V30 5574 O 517.532 0.0789579 -1.74021 0
M  V30 5575 C 514.664 0.0420712 -3.40874 0
M  V30 5576 H 515.857 -1.55642 -2.5635 0
M  V30 5577 H 513.41 -0.842995 -1.31618 0
M  V30 5578 H 514.145 0.95943 -3.09783 0
M  V30 5579 H 513.93 -0.638844 -3.86861 0
M  V30 5580 H 515.42 0.306 -4.16477 0
M  V30 5581 N 515.857 1.33968 -0.830081 0
M  V30 5582 C 516.82 2.27694 -0.26235 0
M  V30 5583 C 517.82 1.50589 0.563876 0
M  V30 5584 O 519.01 1.70028 0.378941 0
M  V30 5585 C 516.142 3.35002 0.63138 0
M  V30 5586 H 517.335 2.79419 -1.08928 0
M  V30 5587 H 514.888 1.44221 -0.602486 0
M  V30 5588 H 515.623 2.88504 1.48109 0
M  V30 5589 H 515.408 3.92079 0.0403276 0
M  V30 5590 H 516.898 4.04897 1.02217 0
M  V30 5591 N 517.335 0.585699 1.46312 0
M  V30 5592 C 518.563 0.0781299 2.06752 0
M  V30 5593 C 518.978 -1.22812 1.43396 0
M  V30 5594 O 518.335 -1.74318 0.540314 0
M  V30 5595 C 518.386 -0.0911927 3.61385 0
M  V30 5596 O 518.107 1.16336 4.22371 0
M  V30 5597 C 519.608 -0.632765 4.38761 0
M  V30 5598 H 516.828 0.0588188 0.668417 0
M  V30 5599 H 519.372 0.807218 1.87894 0
M  V30 5600 H 517.527 -0.770514 3.7966 0
M  V30 5601 H 517.941 0.979082 5.15281 0
M  V30 5602 H 519.415 -0.70041 5.47538 0
M  V30 5603 H 519.892 -1.65039 4.07012 0
M  V30 5604 H 520.498 0.0117856 4.25298 0
M  V30 5605 N 518.813 -1.54241 0.323641 0
M  V30 5606 C 520.224 -1.85975 -0.164405 0
M  V30 5607 C 520.575 -1.24529 -1.51615 0
M  V30 5608 O 519.7 -0.551351 -2.09258 0
M  V30 5609 C 520.295 -3.37424 -0.305091 0
M  V30 5610 C 518.854 -3.69107 -0.737358 0
M  V30 5611 C 518.001 -2.76942 0.140884 0
M  V30 5612 H 520.952 -1.49088 0.543922 0
M  V30 5613 H 520.973 -3.63147 -1.13598 0
M  V30 5614 H 520.485 -3.82116 0.678876 0
M  V30 5615 H 518.586 -3.29947 -1.73107 0
M  V30 5616 H 518.699 -4.76035 -0.541053 0
M  V30 5617 H 517.063 -2.51795 -0.383572 0
M  V30 5618 H 517.846 -3.24461 1.12162 0
M  V30 5619 N 520.291 -0.0518155 -1.57515 0
M  V30 5620 C 521.223 0.951542 -2.08515 0
M  V30 5621 C 522.236 1.27436 -1.01311 0
M  V30 5622 O 523.425 1.23504 -1.28876 0
M  V30 5623 C 520.525 2.27291 -2.5138 0
M  V30 5624 C 519.698 2.13191 -3.81927 0
M  V30 5625 C 518.757 3.28458 -4.11098 0
M  V30 5626 O 517.783 3.04334 -4.81009 0
M  V30 5627 N 518.985 4.52954 -3.63061 0
M  V30 5628 H 521.75 0.516242 -2.9522 0
M  V30 5629 H 519.311 0.13441 -1.61341 0
M  V30 5630 H 521.303 3.03272 -2.67971 0
M  V30 5631 H 519.873 2.62386 -1.69919 0
M  V30 5632 H 519.093 1.21798 -3.74912 0
M  V30 5633 H 520.381 2.00999 -4.67415 0
M  V30 5634 H 519.779 4.75444 -3.06545 0
M  V30 5635 H 518.336 5.26026 -3.84889 0
M  V30 5636 N 521.769 1.56035 0.221574 0
M  V30 5637 C 523.046 1.69837 0.970301 0
M  V30 5638 C 523.426 0.599065 2.02421 0
M  V30 5639 O 522.774 -0.393929 2.25079 0
M  V30 5640 C 522.984 3.11148 1.58076 0
M  V30 5641 C 524.332 3.70555 2.07302 0
M  V30 5642 O 525.356 3.14109 1.6797 0
M  V30 5643 O 524.215 4.69562 2.79596 0
M  V30 5644 H 521.309 0.691727 0.453257 0
M  V30 5645 H 523.855 1.68353 0.213358 0
M  V30 5646 H 522.627 3.82617 0.819759 0
M  V30 5647 H 522.25 3.16749 2.40324 0
M  V30 5648 N 523.247 -0.488276 1.49845 0
M  V30 5649 C 524.472 -1.26997 1.63971 0
M  V30 5650 C 524.897 -1.85427 0.315994 0
M  V30 5651 O 524.255 -1.66475 -0.718032 0
M  V30 5652 C 524.303 -2.36689 2.72049 0
M  V30 5653 O 523.407 -3.40882 2.32107 0
M  V30 5654 H 522.748 -0.374376 0.548396 0
M  V30 5655 H 525.278 -0.583104 1.96115 0
M  V30 5656 H 525.288 -2.82262 2.94605 0
M  V30 5657 H 523.963 -1.93529 3.68129 0
M  V30 5658 H 522.54 -3.01139 2.19931 0
M  V30 5659 N 524.725 -1.39134 -0.740242 0
M  V30 5660 C 525.95 -1.39518 -1.53459 0
M  V30 5661 C 526.375 0.00968883 -1.88098 0
M  V30 5662 O 525.733 0.995312 -1.51536 0
M  V30 5663 C 525.781 -2.26981 -2.802 0
M  V30 5664 O 524.885 -1.69609 -3.75908 0
M  V30 5665 H 524.226 -0.475328 -0.463637 0
M  V30 5666 H 526.756 -1.83064 -0.913717 0
M  V30 5667 H 526.766 -2.41309 -3.28989 0
M  V30 5668 H 525.441 -3.29081 -2.5432 0
M  V30 5669 H 524.018 -1.64495 -3.34658 0
M  V30 5670 N 526.204 0.969867 -1.24223 0
M  V30 5671 C 527.444 1.72754 -1.0925 0
M  V30 5672 C 527.808 1.88541 0.362787 0
M  V30 5673 O 529.009 2.61217 0.633969 0
M  V30 5674 C 527.28 3.08204 -1.80957 0
M  V30 5675 S 528.839 3.99418 -1.81688 0
M  V30 5676 H 525.657 0.593981 -0.390778 0
M  V30 5677 H 528.259 1.15792 -1.5752 0
M  V30 5678 H 526.963 2.94372 -2.85961 0
M  V30 5679 H 526.494 3.70232 -1.33012 0
M  V30 5680 H 528.509 4.8828 -0.883001 0
M  V30 5681 N 527.682 1.05563 1.17022 0
M  V30 5682 C 528.907 0.788437 1.91829 0
M  V30 5683 C 529.332 -0.650356 1.76499 0
M  V30 5684 O 528.69 -1.45229 1.08527 0
M  V30 5685 C 528.738 1.1786 3.40795 0
M  V30 5686 O 527.842 0.312965 4.11211 0
M  V30 5687 H 527.183 0.288794 0.597908 0
M  V30 5688 H 529.713 1.40948 1.48307 0
M  V30 5689 H 529.723 1.14697 3.91546 0
M  V30 5690 H 528.398 2.22666 3.51273 0
M  V30 5691 H 526.975 0.405515 3.70689 0
M  V30 5692 N 529.16 -1.33526 0.837174 0
M  V30 5693 C 530.388 -2.02047 0.445494 0
M  V30 5694 C 530.803 -1.62995 -0.952788 0
M  V30 5695 O 530.16 -0.842447 -1.61892 0
M  V30 5696 C 530.211 -3.57221 0.554577 0
M  V30 5697 O 529.932 -3.94863 1.89776 0
M  V30 5698 C 531.433 -4.43012 0.159634 0
M  V30 5699 H 528.653 -0.647221 0.177048 0
M  V30 5700 H 531.197 -1.70492 1.12928 0
M  V30 5701 H 529.352 -3.87315 -0.0812781 0
M  V30 5702 H 529.766 -4.89569 1.88208 0
M  V30 5703 H 531.24 -5.51253 0.28701 0
M  V30 5704 H 531.717 -4.29916 -0.898289 0
M  V30 5705 H 532.323 -4.18274 0.769855 0
M  V30 5706 N 530.638 -0.59345 -1.46 0
M  V30 5707 C 532.049 -0.169801 -1.85926 0
M  V30 5708 C 532.4 1.26984 -1.49565 0
M  V30 5709 O 531.525 1.96076 -0.915602 0
M  V30 5710 C 532.12 -0.301385 -3.37457 0
M  V30 5711 C 530.679 0.0674684 -3.7634 0
M  V30 5712 C 529.826 -0.632383 -2.69993 0
M  V30 5713 H 532.777 -0.801014 -1.37002 0
M  V30 5714 H 532.798 0.470331 -3.77582 0
M  V30 5715 H 532.31 -1.34927 -3.63891 0
M  V30 5716 H 530.411 1.11507 -3.55523 0
M  V30 5717 H 530.524 -0.316332 -4.78055 0
M  V30 5718 H 528.888 -0.0714961 -2.546 0
M  V30 5719 H 529.671 -1.68212 -2.99265 0
M  V30 5720 N 532.116 1.54067 -0.331816 0
M  V30 5721 C 533.532 1.59587 0.0205388 0
M  V30 5722 C 533.732 1.34813 1.49759 0
M  V30 5723 O 532.788 1.13661 2.25471 0
M  V30 5724 C 534.101 2.97959 -0.405103 0
M  V30 5725 C 535.649 3.10964 -0.356454 0
M  V30 5726 C 536.124 4.51694 -0.757384 0
M  V30 5727 N 537.615 4.57709 -0.71111 0
M  V30 5728 C 538.35 5.64729 -0.993427 0
M  V30 5729 N 537.846 6.79652 -1.3433 0
M  V30 5730 N 539.639 5.54546 -0.918442 0
M  V30 5731 H 531.79 1.68426 -1.29407 0
M  V30 5732 H 534.053 0.78819 -0.526745 0
M  V30 5733 H 533.759 3.21115 -1.43451 0
M  V30 5734 H 533.633 3.76524 0.225692 0
M  V30 5735 H 536.02 2.87538 0.663763 0
M  V30 5736 H 536.101 2.34484 -1.02229 0
M  V30 5737 H 535.745 4.75853 -1.77555 0
M  V30 5738 H 535.675 5.26555 -0.0691444 0
M  V30 5739 H 538.166 3.75176 -0.452883 0
M  V30 5740 H 538.479 7.57221 -1.54388 0
M  V30 5741 H 536.824 6.81128 -1.38164 0
M  V30 5742 H 540.015 4.63641 -0.644536 0
M  V30 5743 H 540.188 6.37861 -1.14181 0
M  V30 5744 N 533.594 0.0601682 1.57485 0
M  V30 5745 C 534.557 -0.896373 2.10945 0
M  V30 5746 C 535.557 -1.23402 1.03095 0
M  V30 5747 O 536.747 -1.16921 1.29132 0
M  V30 5748 C 533.879 -2.20346 2.60116 0
M  V30 5749 H 535.072 -0.432778 2.96761 0
M  V30 5750 H 532.625 -0.188372 1.55161 0
M  V30 5751 H 533.36 -2.71268 1.7772 0
M  V30 5752 H 533.145 -1.9714 3.38937 0
M  V30 5753 H 534.635 -2.88846 3.01592 0
M  V30 5754 N 535.072 -1.5615 -0.213296 0
M  V30 5755 C 536.349 -1.70349 -0.961281 0
M  V30 5756 C 536.729 -0.609791 -2.02101 0
M  V30 5757 O 536.077 0.381987 -2.25285 0
M  V30 5758 C 536.287 -3.11982 -1.56424 0
M  V30 5759 C 537.635 -3.71649 -2.05334 0
M  V30 5760 O 538.659 -3.14995 -1.66302 0
M  V30 5761 O 537.518 -4.71038 -2.77102 0
M  V30 5762 H 534.612 -0.694121 -0.449582 0
M  V30 5763 H 537.158 -1.68464 -0.204426 0
M  V30 5764 H 535.93 -3.83046 -0.799457 0
M  V30 5765 H 535.553 -3.18019 -2.38641 0
M  V30 5766 N 536.55 0.480323 -1.50102 0
M  V30 5767 C 537.966 0.813295 -1.37323 0
M  V30 5768 C 538.166 1.97027 -0.422206 0
M  V30 5769 O 537.222 2.5212 0.138563 0
M  V30 5770 C 538.535 1.13404 -2.78496 0
M  V30 5771 C 540.083 1.24104 -2.87345 0
M  V30 5772 C 540.558 1.59497 -4.29331 0
M  V30 5773 N 542.049 1.66507 -4.32238 0
M  V30 5774 C 542.784 1.95378 -5.39087 0
M  V30 5775 N 542.28 2.22333 -6.56155 0
M  V30 5776 N 544.073 1.96803 -5.26522 0
M  V30 5777 H 536.224 -0.282291 -2.10516 0
M  V30 5778 H 538.487 -0.063752 -0.945854 0
M  V30 5779 H 538.193 0.357064 -3.49883 0
M  V30 5780 H 538.067 2.07251 -3.15162 0
M  V30 5781 H 540.454 2.00871 -2.16183 0
M  V30 5782 H 540.535 0.282593 -2.54234 0
M  V30 5783 H 540.179 0.832736 -5.01027 0
M  V30 5784 H 540.109 2.56477 -4.59921 0
M  V30 5785 H 542.6 1.47753 -3.47818 0
M  V30 5786 H 542.913 2.43611 -7.33399 0
M  V30 5787 H 541.258 2.19745 -6.59346 0
M  V30 5788 H 544.449 1.75235 -4.34062 0
M  V30 5789 H 544.622 2.18969 -6.09883 0
M  V30 5790 N 538.028 1.39524 0.732853 0
M  V30 5791 C 538.958 1.41153 1.86005 0
M  V30 5792 C 539.939 0.274614 1.67869 0
M  V30 5793 O 541.124 0.480745 1.88155 0
M  V30 5794 C 538.254 1.25638 3.23778 0
M  V30 5795 C 537.208 2.36752 3.56556 0
M  V30 5796 C 536.534 2.06326 4.93289 0
M  V30 5797 C 537.834 3.79069 3.5931 0
M  V30 5798 H 539.528 2.35484 1.84899 0
M  V30 5799 H 537.074 1.13348 0.888162 0
M  V30 5800 H 539.027 1.25398 4.0231 0
M  V30 5801 H 537.751 0.277772 3.25417 0
M  V30 5802 H 536.41 2.36213 2.80355 0
M  V30 5803 H 536.058 1.06897 4.9151 0
M  V30 5804 H 535.758 2.80757 5.16187 0
M  V30 5805 H 537.282 2.07739 5.74175 0
M  V30 5806 H 538.696 3.81526 4.27914 0
M  V30 5807 H 537.093 4.52878 3.93728 0
M  V30 5808 H 538.163 4.09893 2.59068 0
M  V30 5809 O 539.545 -0.874016 1.35806 0
M  V30 5810 H 540.236 -1.51229 1.21035 0
M  V30 END ATOM
M  V30 BEGIN BOND
M  V30 END BOND
M  V30 END CTAB
M  END
$$$$
