drugbank_target|P10724 Alanine racemase (DB01993; DB02038; DB02142; DB03097; DB03327; DB03766; DB03801; DB04467)
 OpenBabel12092119523D

  0  0  0     0  0            999 V3000
M  V30 BEGIN CTAB
M  V30 COUNTS 6141 6219 0 0 0
M  V30 BEGIN ATOM
M  V30 1 H -0.908 1.98254 -0.117106 0
M  V30 2 N 0 1.576 0 0
M  V30 3 C 0.933 2.03868 1.02534 0
M  V30 4 C 1.911 0.928543 1.3348 0
M  V30 5 O 3.095 1.19667 1.45644 0
M  V30 6 C 0.222 2.43627 2.35294 0
M  V30 7 C -0.732 3.65373 2.2001 0
M  V30 8 S 0.101 5.13292 1.52614 0
M  V30 9 C 1.257 5.56322 2.86805 0
M  V30 10 H 1.49 2.90518 0.631377 0
M  V30 11 H -0.977 1.52953 0.210867 0
M  V30 12 H 0.981 2.67203 3.11629 0
M  V30 13 H -0.358 1.57376 2.7183 0
M  V30 14 H -1.165 3.90944 3.18086 0
M  V30 15 H -1.563 3.418 1.51819 0
M  V30 16 H 0.729 5.58782 3.83104 0
M  V30 17 H 1.672 6.56266 2.65933 0
M  V30 18 H 2.08 4.83886 2.90714 0
M  V30 19 N 1.4781 -0.272755 1.55222 0
M  V30 20 C 2.4261 -1.35705 1.88909 0
M  V30 21 C 3.4201 -1.5112 0.765456 0
M  V30 22 O 4.6261 -1.52901 0.949802 0
M  V30 23 H 1.0011 -0.453868 0.59959 0
M  V30 24 H 2.9721 -1.04544 2.79487 0
M  V30 25 C 1.7211 -2.71049 2.17779 0
M  V30 26 H 1.0441 -2.59979 3.03728 0
M  V30 27 H 2.4841 -3.45858 2.45272 0
M  V30 28 C 0.9431 -3.22165 0.985473 0
M  V30 29 O 1.4731 -4.01096 0.220233 0
M  V30 30 N -0.3209 -2.7985 0.783108 0
M  V30 31 H -0.7739 -2.15775 1.40708 0
M  V30 32 H -0.8159 -3.14397 -0.0130392 0
M  V30 33 N 2.9562 -1.48159 -0.537278 0
M  V30 34 C 4.2332 -1.46291 -1.29839 0
M  V30 35 C 4.6132 -0.170613 -2.10409 0
M  V30 36 O 3.9612 0.847746 -2.12192 0
M  V30 37 C 4.1712 -2.72055 -2.18603 0
M  V30 38 C 5.5192 -3.20087 -2.7898 0
M  V30 39 O 6.5432 -2.72921 -2.28894 0
M  V30 40 O 5.4022 -4.02138 -3.70064 0
M  V30 41 H 2.4962 -0.583906 -0.585647 0
M  V30 42 H 5.0422 -1.60384 -0.554534 0
M  V30 43 H 3.8142 -3.57628 -1.58801 0
M  V30 44 H 3.4372 -2.60646 -3.00249 0
M  V30 45 N 4.4343 0.785586 -1.36625 0
M  V30 46 C 5.6813 1.54362 -1.31067 0
M  V30 47 C 6.0093 1.94195 0.10893 0
M  V30 48 O 5.2643 1.63262 1.07908 0
M  V30 49 C 5.5633 2.83007 -2.1827 0
M  V30 50 C 5.2293 2.62294 -3.6676 0
M  V30 51 C 3.8913 2.56353 -4.0723 0
M  V30 52 C 6.2433 2.43371 -4.6089 0
M  V30 53 C 3.5713 2.29461 -5.39967 0
M  V30 54 C 5.9233 2.18005 -5.93849 0
M  V30 55 C 4.5873 2.105 -6.3344 0
M  V30 56 H 3.8573 0.564851 -0.479609 0
M  V30 57 H 6.5043 0.906028 -1.68711 0
M  V30 58 H 4.8093 3.51253 -1.73576 0
M  V30 59 H 6.5063 3.40817 -2.11292 0
M  V30 60 H 3.0963 2.67774 -3.34656 0
M  V30 61 H 7.2803 2.46959 -4.30494 0
M  V30 62 H 2.5363 2.22135 -5.69619 0
M  V30 63 H 6.7103 2.02359 -6.66351 0
M  V30 64 H 4.3373 1.89425 -7.36222 0
M  V30 65 N 5.9124 1.20967 1.01018 0
M  V30 66 C 6.8624 0.93182 2.08089 0
M  V30 67 C 7.8464 -0.110898 1.60517 0
M  V30 68 O 9.0384 0.0973392 1.76732 0
M  V30 69 C 6.1674 0.492719 3.39746 0
M  V30 70 C 5.2534 1.56922 3.94 0
M  V30 71 N 5.6444 2.79312 4.21686 0
M  V30 72 C 3.9424 1.43688 4.2222 0
M  V30 73 C 4.6434 3.48797 4.65527 0
M  V30 74 N 3.6194 2.76224 4.68189 0
M  V30 75 H 7.4214 1.86175 2.27412 0
M  V30 76 H 4.9354 1.10463 1.19045 0
M  V30 77 H 6.9324 0.275044 4.15992 0
M  V30 78 H 5.5924 -0.430509 3.21833 0
M  V30 79 H 6.6034 3.15903 4.10397 0
M  V30 80 H 3.2804 0.578548 4.13472 0
M  V30 81 H 4.6704 4.53561 4.95714 0
M  V30 82 N 7.3905 -1.2043 1.01659 0
M  V30 83 C 8.8065 -1.41852 0.731442 0
M  V30 84 C 9.0065 -1.89358 -0.688898 0
M  V30 85 O 8.0625 -2.06247 -1.45666 0
M  V30 86 C 9.3755 -2.44019 1.75714 0
M  V30 87 C 10.9235 -2.57785 1.77527 0
M  V30 88 C 11.3985 -3.63194 2.79023 0
M  V30 89 N 12.8895 -3.70678 2.77763 0
M  V30 90 C 13.6245 -4.51897 3.52954 0
M  V30 91 N 13.1205 -5.36921 4.37821 0
M  V30 92 N 14.9135 -4.4643 3.41551 0
M  V30 93 H 7.0645 -0.879093 1.93354 0
M  V30 94 H 9.3275 -0.448425 0.835236 0
M  V30 95 H 9.0335 -2.1611 2.77469 0
M  V30 96 H 8.9075 -3.43007 1.56927 0
M  V30 97 H 11.2945 -2.85023 0.764569 0
M  V30 98 H 11.3755 -1.58992 2.00387 0
M  V30 99 H 11.0195 -3.36699 3.80258 0
M  V30 100 H 10.9495 -4.61609 2.53425 0
M  V30 101 H 13.4405 -3.09944 2.16201 0
M  V30 102 H 13.7535 -5.95981 4.91962 0
M  V30 103 H 12.0985 -5.36424 4.41899 0
M  V30 104 H 15.2895 -3.79042 2.74672 0
M  V30 105 H 15.4625 -5.09491 4.00404 0
M  V30 106 N 8.8686 -0.792821 -1.36206 0
M  V30 107 C 10.1456 -0.290627 -1.93429 0
M  V30 108 C 10.5256 1.21773 -1.72437 0
M  V30 109 O 9.8736 2.0108 -1.08531 0
M  V30 110 C 10.0836 -0.686973 -3.42172 0
M  V30 111 C 11.4316 -0.668643 -4.19302 0
M  V30 112 O 12.4556 -0.627658 -3.50626 0
M  V30 113 O 11.3146 -0.714597 -5.41808 0
M  V30 114 H 8.4086 -0.0727927 -0.82379 0
M  V30 115 H 10.9546 -0.875593 -1.45367 0
M  V30 116 H 9.7266 -1.72711 -3.51122 0
M  V30 117 H 9.3496 -0.0760733 -3.97527 0
M  V30 118 N 10.3467 1.47872 -0.545128 0
M  V30 119 C 11.5747 2.06889 -0.021084 0
M  V30 120 C 11.9897 1.39955 1.2672 0
M  V30 121 O 11.3467 0.492036 1.75742 0
M  V30 122 C 11.3977 3.60996 0.190817 0
M  V30 123 O 11.1187 4.25419 -1.04644 0
M  V30 124 C 12.6197 4.36849 0.753521 0
M  V30 125 H 9.8397 0.669785 -0.0403635 0
M  V30 126 H 12.3837 1.90049 -0.755095 0
M  V30 127 H 10.5387 3.77391 0.87492 0
M  V30 128 H 10.9527 5.17785 -0.836611 0
M  V30 129 H 12.4267 5.45399 0.851139 0
M  V30 130 H 12.9037 4.02306 1.762 0
M  V30 131 H 13.5097 4.25169 0.105503 0
M  V30 132 N 11.8248 0.280983 1.55075 0
M  V30 133 C 13.0708 -0.327573 2.00745 0
M  V30 134 C 13.4258 -1.53045 1.16598 0
M  V30 135 O 12.7188 -1.90221 0.229451 0
M  V30 136 C 12.9128 -0.754656 3.49342 0
M  V30 137 C 12.7418 0.40529 4.4787 0
M  V30 138 C 11.5118 0.890947 4.97383 0
M  V30 139 C 13.7098 1.24371 4.99035 0
M  V30 140 N 11.6918 2.01975 5.79724 0
M  V30 141 C 13.0628 2.22031 5.7888 0
M  V30 142 C 15.1178 1.27638 4.81262 0
M  V30 143 C 13.8208 3.22709 6.42846 0
M  V30 144 C 15.8468 2.27164 5.46031 0
M  V30 145 C 15.2088 3.23556 6.25692 0
M  V30 146 H 11.3078 -0.0848774 0.77738 0
M  V30 147 H 13.8918 0.406342 1.90413 0
M  V30 148 H 12.0628 -1.45778 3.60005 0
M  V30 149 H 13.7948 -1.34105 3.81835 0
M  V30 150 H 10.5498 0.469262 4.71269 0
M  V30 151 H 10.9738 2.58794 6.25584 0
M  V30 152 H 15.6158 0.544936 4.19274 0
M  V30 153 H 13.3338 3.96784 7.0398 0
M  V30 154 H 16.9198 2.30441 5.34217 0
M  V30 155 H 15.7998 3.99309 6.74924 0
M  V30 156 N 13.3029 -1.57598 0.00835791 0
M  V30 157 C 14.2659 -2.07884 -0.965242 0
M  V30 158 C 15.2659 -0.989825 -1.26725 0
M  V30 159 O 16.4559 -1.25218 -1.21104 0
M  V30 160 C 13.5879 -2.52731 -2.28779 0
M  V30 161 H 14.7809 -2.95178 -0.530112 0
M  V30 162 H 12.3339 -1.54458 -0.239283 0
M  V30 163 H 13.0689 -1.68705 -2.76964 0
M  V30 164 H 12.8539 -3.32272 -2.08177 0
M  V30 165 H 14.3439 -2.91933 -2.98605 0
M  V30 166 N 14.781 0.264519 -1.55364 0
M  V30 167 C 15.691 1.34902 -1.91934 0
M  V30 168 C 16.707 1.53595 -0.817593 0
M  V30 169 O 17.883 1.67558 -1.11742 0
M  V30 170 C 14.948 2.68676 -2.19121 0
M  V30 171 C 14.009 2.58657 -3.4263 0
M  V30 172 C 13.242 3.86051 -3.68511 0
M  V30 173 O 13.465 4.87126 -2.96757 0
M  V30 174 O 12.399 3.85744 -4.62045 0
M  V30 175 H 16.225 1.06883 -2.8427 0
M  V30 176 H 13.81 0.463775 -1.42019 0
M  V30 177 H 15.692 3.47759 -2.37995 0
M  V30 178 H 14.367 2.96463 -1.29966 0
M  V30 179 H 13.274 1.7792 -3.29082 0
M  V30 180 H 14.607 2.35818 -4.32031 0
M  V30 181 N 16.2591 1.48442 0.529413 0
M  V30 182 C 17.5051 1.5672 1.28711 0
M  V30 183 C 17.8381 0.2406 1.92704 0
M  V30 184 O 17.1131 -0.753454 1.79313 0
M  V30 185 C 17.3961 2.70587 2.37603 0
M  V30 186 C 17.2491 4.12953 1.78297 0
M  V30 187 C 18.5681 2.80212 3.39366 0
M  V30 188 H 15.6871 0.570474 0.466613 0
M  V30 189 H 18.3291 1.80617 0.589706 0
M  V30 190 H 16.4791 2.50342 2.97088 0
M  V30 191 H 18.1511 4.44639 1.22858 0
M  V30 192 H 16.3941 4.19927 1.0883 0
M  V30 193 H 17.0651 4.88448 2.57144 0
M  V30 194 H 19.5411 2.98553 2.89836 0
M  V30 195 H 18.4171 3.61611 4.12951 0
M  V30 196 H 18.6781 1.88393 3.99951 0
M  V30 197 N 17.7372 -0.778329 1.37039 0
M  V30 198 C 19.0142 -1.52551 1.22424 0
M  V30 199 C 19.3942 -2.10288 -0.184964 0
M  V30 200 O 18.7422 -1.94953 -1.19187 0
M  V30 201 C 18.9522 -2.61164 2.31504 0
M  V30 202 C 20.3002 -3.28746 2.68721 0
M  V30 203 O 21.3242 -2.71455 2.30631 0
M  V30 204 O 20.1832 -4.3231 3.3432 0
M  V30 205 H 17.2772 -0.675343 0.477326 0
M  V30 206 H 19.8232 -0.815859 1.48801 0
M  V30 207 H 18.5952 -2.16574 3.25901 0
M  V30 208 H 18.2182 -3.39737 2.06554 0
M  V30 209 N 19.2153 -1.21501 -1.00376 0
M  V30 210 C 20.1453 -0.999478 -2.11028 0
M  V30 211 C 21.1263 0.0759671 -1.6993 0
M  V30 212 O 22.3113 -0.0841106 -1.94018 0
M  V30 213 C 19.4413 -0.564709 -3.42678 0
M  V30 214 C 18.3953 -1.58486 -3.97576 0
M  V30 215 C 17.7213 -1.00628 -5.25146 0
M  V30 216 C 19.0213 -2.97204 -4.29496 0
M  V30 217 H 20.7153 -1.92495 -2.29317 0
M  V30 218 H 18.2613 -0.92693 -1.102 0
M  V30 219 H 20.2143 -0.401091 -4.19487 0
M  V30 220 H 18.9383 0.396411 -3.24185 0
M  V30 221 H 17.5973 -1.73606 -3.22888 0
M  V30 222 H 17.2453 -0.0368439 -5.02987 0
M  V30 223 H 16.9453 -1.68771 -5.62841 0
M  V30 224 H 18.4693 -0.854015 -6.04598 0
M  V30 225 H 19.8833 -2.8552 -4.97143 0
M  V30 226 H 18.2803 -3.62372 -4.78338 0
M  V30 227 H 19.3503 -3.47956 -3.3772 0
M  V30 228 N 20.6934 1.19889 -1.02296 0
M  V30 229 C 21.9704 1.85148 -0.630832 0
M  V30 230 C 22.3504 1.91385 0.890782 0
M  V30 231 O 21.6984 1.42642 1.78509 0
M  V30 232 C 21.9084 3.24442 -1.28602 0
M  V30 233 C 23.2564 4.00663 -1.4055 0
M  V30 234 O 24.2804 3.33818 -1.24273 0
M  V30 235 O 23.1394 5.20387 -1.66913 0
M  V30 236 H 20.2334 0.797613 -0.218499 0
M  V30 237 H 22.7794 1.27427 -1.12074 0
M  V30 238 H 21.5514 3.14704 -2.32545 0
M  V30 239 H 21.1744 3.89802 -0.7836 0
M  V30 240 N 22.1715 0.800033 1.35784 0
M  V30 241 C 23.1345 0.211565 2.28221 0
M  V30 242 C 24.1345 -0.59728 1.49296 0
M  V30 243 O 25.3245 -0.416721 1.69142 0
M  V30 244 C 22.4565 -0.705846 3.33513 0
M  V30 245 H 23.6495 1.02677 2.81776 0
M  V30 246 H 21.2025 0.570211 1.45528 0
M  V30 247 H 21.9375 -1.54498 2.85133 0
M  V30 248 H 21.7225 -0.127655 3.91892 0
M  V30 249 H 23.2125 -1.11211 4.02519 0
M  V30 250 N 23.6496 -1.47581 0.552962 0
M  V30 251 C 24.8986 -2.01684 0.0251995 0
M  V30 252 C 25.2116 -1.43317 -1.33115 0
M  V30 253 O 26.4176 -1.89057 -1.94858 0
M  V30 254 C 24.8736 -3.599 -0.00542052 0
M  V30 255 C 24.4816 -4.27257 1.34742 0
M  V30 256 C 26.2256 -4.21768 -0.4808 0
M  V30 257 C 24.1326 -5.77467 1.27614 0
M  V30 258 H 23.0626 -0.753979 0.00565033 0
M  V30 259 H 25.7136 -1.69616 0.70018 0
M  V30 260 H 24.0956 -3.88911 -0.745961 0
M  V30 261 H 25.2696 -4.09893 2.10534 0
M  V30 262 H 23.5846 -3.77358 1.76039 0
M  V30 263 H 26.1816 -5.31838 -0.55246 0
M  V30 264 H 26.5246 -3.88651 -1.49184 0
M  V30 265 H 27.0576 -3.97273 0.204752 0
M  V30 266 H 23.7966 -6.15196 2.26304 0
M  V30 267 H 23.3166 -5.9718 0.55996 0
M  V30 268 H 24.9956 -6.3959 0.976421 0
M  V30 269 N 25.1277 -0.289203 -1.54924 0
M  V30 270 C 26.3577 0.325989 -2.04012 0
M  V30 271 C 26.7657 1.48961 -1.1665 0
M  V30 272 O 26.1087 1.82794 -0.1822 0
M  V30 273 C 26.1707 0.856112 -3.49158 0
M  V30 274 C 25.8347 -0.180697 -4.56643 0
M  V30 275 C 26.8317 -1.0051 -5.10092 0
M  V30 276 C 24.5167 -0.318998 -5.01286 0
M  V30 277 C 26.5107 -1.95385 -6.06715 0
M  V30 278 C 24.1977 -1.27121 -5.97732 0
M  V30 279 C 25.1957 -2.08713 -6.50329 0
M  V30 280 O 24.8837 -3.02322 -7.44887 0
M  V30 281 H 24.6157 0.0765276 -0.671654 0
M  V30 282 H 27.1697 -0.423254 -2.00992 0
M  V30 283 H 25.3997 1.65567 -3.49463 0
M  V30 284 H 27.0887 1.38591 -3.81507 0
M  V30 285 H 27.8547 -0.90906 -4.76404 0
M  V30 286 H 23.7337 0.306108 -4.59983 0
M  V30 287 H 27.2777 -2.59111 -6.47694 0
M  V30 288 H 23.1747 -1.36801 -6.30837 0
M  V30 289 H 23.9427 -2.97165 -7.6265 0
M  V30 290 N 26.6058 1.57591 -0.0167156 0
M  V30 291 C 27.8828 1.82547 0.702564 0
M  V30 292 C 28.2628 0.898018 1.91047 0
M  V30 293 O 27.6108 -0.0493456 2.28447 0
M  V30 294 C 27.8208 3.31459 1.09251 0
M  V30 295 C 29.1688 3.97622 1.48937 0
M  V30 296 O 30.1928 3.35881 1.18584 0
M  V30 297 O 29.0518 5.06415 2.05442 0
M  V30 298 H 26.1458 0.752268 0.343544 0
M  V30 299 H 28.6918 1.69644 -0.0434495 0
M  V30 300 H 27.4638 3.9061 0.23227 0
M  V30 301 H 27.0868 3.49422 1.89709 0
M  V30 302 N 28.0839 -0.256276 1.55502 0
M  V30 303 C 29.0319 -1.33694 1.90338 0
M  V30 304 C 30.0259 -1.50299 0.781441 0
M  V30 305 O 31.2319 -1.51885 0.965966 0
M  V30 306 H 27.6069 -0.447483 0.60437 0
M  V30 307 H 29.5779 -1.01574 2.8058 0
M  V30 308 C 28.3269 -2.68724 2.20642 0
M  V30 309 H 27.6499 -2.56743 3.06469 0
M  V30 310 H 29.0899 -3.43237 2.48926 0
M  V30 311 C 27.5489 -3.21101 1.01959 0
M  V30 312 O 28.0789 -4.0084 0.262762 0
M  V30 313 N 26.2849 -2.79003 0.812746 0
M  V30 314 H 25.8319 -2.14271 1.42989 0
M  V30 315 H 25.7899 -3.14393 0.0203076 0
M  V30 316 N 29.562 -1.4872 -0.521534 0
M  V30 317 C 30.808 -1.574 -1.27879 0
M  V30 318 C 31.141 -0.250817 -1.92573 0
M  V30 319 O 30.416 0.743934 -1.79711 0
M  V30 320 C 30.699 -2.71843 -2.36164 0
M  V30 321 C 30.552 -4.13893 -1.76105 0
M  V30 322 C 31.871 -2.82008 -3.37875 0
M  V30 323 H 28.99 -0.572941 -0.463581 0
M  V30 324 H 31.632 -1.80927 -0.580119 0
M  V30 325 H 29.782 -2.51914 -2.95756 0
M  V30 326 H 31.454 -4.45284 -1.20499 0
M  V30 327 H 29.697 -4.20498 -1.06601 0
M  V30 328 H 30.368 -4.89804 -2.5455 0
M  V30 329 H 32.844 -3.00086 -2.88249 0
M  V30 330 H 31.72 -3.63796 -4.11028 0
M  V30 331 H 31.981 -1.90511 -3.98946 0
M  V30 332 N 31.0401 0.771051 -1.3745 0
M  V30 333 C 31.9501 1.91538 -1.35464 0
M  V30 334 C 32.9661 1.72134 -0.254123 0
M  V30 335 O 34.1421 1.95358 -0.489626 0
M  V30 336 C 31.2071 3.26671 -1.16134 0
M  V30 337 C 30.2681 3.58723 -2.35831 0
M  V30 338 C 29.5011 4.87409 -2.17413 0
M  V30 339 O 29.7241 5.58506 -1.15876 0
M  V30 340 O 28.6581 5.18539 -3.05615 0
M  V30 341 H 32.4841 1.96165 -2.31847 0
M  V30 342 H 30.0691 0.9139 -1.18187 0
M  V30 343 H 31.9511 4.07499 -1.07345 0
M  V30 344 H 30.6261 3.22894 -0.228251 0
M  V30 345 H 29.5331 2.78127 -2.50192 0
M  V30 346 H 30.8661 3.67243 -3.27709 0
M  V30 347 N 32.5182 1.22032 0.997298 0
M  V30 348 C 33.4662 0.983634 2.10778 0
M  V30 349 C 34.4602 -0.0717564 1.69248 0
M  V30 350 O 35.6662 0.080304 1.79821 0
M  V30 351 H 32.0412 0.300877 0.689186 0
M  V30 352 H 34.0122 1.92606 2.27916 0
M  V30 353 C 32.7612 0.57326 3.42942 0
M  V30 354 H 32.0842 1.37702 3.75338 0
M  V30 355 H 33.5242 0.447031 4.21637 0
M  V30 356 C 31.9832 -0.7167 3.29188 0
M  V30 357 O 32.5132 -1.77027 3.60589 0
M  V30 358 N 30.7192 -0.686167 2.82383 0
M  V30 359 H 30.2662 0.171507 2.57028 0
M  V30 360 H 30.2242 -1.54955 2.73562 0
M  V30 361 N 33.9963 -1.19345 1.0293 0
M  V30 362 C 34.9263 -2.2481 0.631105 0
M  V30 363 C 35.9073 -1.66245 -0.360104 0
M  V30 364 O 37.0923 -1.92677 -0.242726 0
M  V30 365 C 34.2223 -3.47295 -0.0184607 0
M  V30 366 C 33.1763 -4.18536 0.895073 0
M  V30 367 C 32.5023 -5.34586 0.110592 0
M  V30 368 C 33.8023 -4.73287 2.209 0
M  V30 369 H 35.4963 -2.58372 1.51275 0
M  V30 370 H 33.0423 -1.24194 0.728818 0
M  V30 371 H 34.9953 -4.20268 -0.308675 0
M  V30 372 H 33.7193 -3.12933 -0.934907 0
M  V30 373 H 32.3783 -3.47446 1.16949 0
M  V30 374 H 32.0263 -4.96469 -0.807902 0
M  V30 375 H 31.7263 -5.83183 0.719087 0
M  V30 376 H 33.2503 -6.10355 -0.172871 0
M  V30 377 H 34.6643 -5.38013 1.98028 0
M  V30 378 H 33.0613 -5.32373 2.76946 0
M  V30 379 H 34.1313 -3.91331 2.86336 0
M  V30 380 N 35.4744 -0.807222 -1.35358 0
M  V30 381 C 36.8904 -0.491038 -1.51858 0
M  V30 382 C 37.0904 0.987648 -1.75635 0
M  V30 383 O 36.1464 1.77265 -1.79815 0
M  V30 384 C 37.4594 -1.33695 -2.69344 0
M  V30 385 C 39.0074 -1.33246 -2.83222 0
M  V30 386 C 39.4824 -2.1625 -4.03733 0
M  V30 387 N 40.9734 -2.1379 -4.10911 0
M  V30 388 C 41.7084 -2.74772 -5.03277 0
M  V30 389 N 41.2044 -3.44684 -6.0097 0
M  V30 390 N 42.9974 -2.6441 -4.96028 0
M  V30 391 H 35.1484 -1.76485 -1.18181 0
M  V30 392 H 37.4114 -0.751199 -0.578276 0
M  V30 393 H 37.1174 -2.38634 -2.58354 0
M  V30 394 H 36.9914 -0.990618 -3.6396 0
M  V30 395 H 39.3784 -0.290911 -2.93663 0
M  V30 396 H 39.4594 -1.71866 -1.89461 0
M  V30 397 H 39.1034 -3.20445 -3.94052 0
M  V30 398 H 39.0334 -1.74989 -4.96675 0
M  V30 399 H 41.5244 -1.62923 -3.40976 0
M  V30 400 H 41.8374 -3.88501 -6.68047 0
M  V30 401 H 40.1824 -3.48788 -6.01142 0
M  V30 402 H 43.3734 -2.0938 -4.18662 0
M  V30 403 H 43.5464 -3.12225 -5.6782 0
M  V30 404 N 36.9525 1.47285 -0.560781 0
M  V30 405 C 38.3685 1.58065 -0.22081 0
M  V30 406 C 38.5685 1.55892 1.27671 0
M  V30 407 O 37.6245 1.46422 2.0571 0
M  V30 408 C 38.9375 2.88418 -0.850625 0
M  V30 409 C 40.4855 3.02009 -0.822184 0
M  V30 410 C 40.9605 4.35066 -1.43113 0
M  V30 411 N 42.4515 4.41711 -1.39448 0
M  V30 412 C 43.1865 5.43237 -1.83525 0
M  V30 413 N 42.6825 6.51555 -2.35474 0
M  V30 414 N 44.4755 5.34304 -1.74574 0
M  V30 415 H 36.6265 1.46941 -1.53369 0
M  V30 416 H 38.8895 0.699558 -0.639783 0
M  V30 417 H 38.5955 2.95755 -1.9032 0
M  V30 418 H 38.4695 3.75612 -0.345773 0
M  V30 419 H 40.8565 2.94266 0.221714 0
M  V30 420 H 40.9375 2.16347 -1.36483 0
M  V30 421 H 40.5815 4.43565 -2.47412 0
M  V30 422 H 40.5115 5.19465 -0.863899 0
M  V30 423 H 43.0025 3.64027 -1.01452 0
M  V30 424 H 43.3155 7.25203 -2.67021 0
M  V30 425 H 41.6605 6.52435 -2.39487 0
M  V30 426 H 44.8515 4.48581 -1.33763 0
M  V30 427 H 45.0245 6.13288 -2.09242 0
M  V30 428 N 38.4306 0.297415 1.54768 0
M  V30 429 C 39.3606 -0.573494 2.26348 0
M  V30 430 C 40.3416 -1.14085 1.26169 0
M  V30 431 O 41.5266 -1.17086 1.54934 0
M  V30 432 C 38.6566 -1.74716 3.00153 0
M  V30 433 C 37.6106 -1.31032 4.07449 0
M  V30 434 C 36.9366 -2.56887 4.68949 0
M  V30 435 C 38.2366 -0.444183 5.20408 0
M  V30 436 H 39.9306 0.0235131 2.99391 0
M  V30 437 H 37.4766 0.0127488 1.43994 0
M  V30 438 H 39.4296 -2.3625 3.48947 0
M  V30 439 H 38.1536 -2.37035 2.24682 0
M  V30 440 H 36.8126 -0.718066 3.59499 0
M  V30 441 H 36.4606 -3.17512 3.90122 0
M  V30 442 H 36.1606 -2.2836 5.41411 0
M  V30 443 H 37.6846 -3.19229 5.20505 0
M  V30 444 H 39.0986 -0.9651 5.65118 0
M  V30 445 H 37.4956 -0.252846 5.99567 0
M  V30 446 H 38.5656 0.531609 4.81977 0
M  V30 447 N 39.9087 -1.5758 0.0250728 0
M  V30 448 C 40.8387 -2.13007 -0.956575 0
M  V30 449 C 41.8197 -1.0452 -1.342 0
M  V30 450 O 43.0047 -1.32332 -1.42133 0
M  V30 451 C 40.1347 -2.65386 -2.24026 0
M  V30 452 C 39.0887 -3.78623 -1.99571 0
M  V30 453 C 38.4147 -4.17414 -3.3417 0
M  V30 454 C 39.7147 -5.04867 -1.33814 0
M  V30 455 H 41.4087 -2.9528 -0.494991 0
M  V30 456 H 38.9547 -1.42042 -0.236651 0
M  V30 457 H 40.9077 -3.02794 -2.93076 0
M  V30 458 H 39.6317 -1.80268 -2.72343 0
M  V30 459 H 38.2907 -3.41646 -1.32941 0
M  V30 460 H 37.9387 -3.29284 -3.80238 0
M  V30 461 H 37.6387 -4.93719 -3.18615 0
M  V30 462 H 39.1627 -4.57402 -4.04495 0
M  V30 463 H 40.5767 -5.39888 -1.92857 0
M  V30 464 H 38.9737 -5.86144 -1.28669 0
M  V30 465 H 40.0437 -4.83904 -0.310561 0
M  V30 466 N 41.3868 0.248026 -1.55636 0
M  V30 467 C 42.7978 0.817177 -1.67866 0
M  V30 468 C 43.1488 1.86069 -0.622322 0
M  V30 469 O 42.2738 2.15157 0.231618 0
M  V30 470 C 42.8688 1.489 -3.04326 0
M  V30 471 C 41.4278 2.00587 -3.185 0
M  V30 472 C 40.5748 0.856573 -2.63739 0
M  V30 473 H 43.5258 0.0238579 -1.58682 0
M  V30 474 H 43.5468 2.35698 -2.98708 0
M  V30 475 H 43.0588 0.729279 -3.81186 0
M  V30 476 H 41.1598 2.79443 -2.4646 0
M  V30 477 H 41.2728 2.20402 -4.25393 0
M  V30 478 H 39.6368 1.25678 -2.21534 0
M  V30 479 H 40.4198 0.109953 -3.43124 0
M  V30 480 N 42.8649 1.48995 0.513639 0
M  V30 481 C 44.1419 1.48338 1.27495 0
M  V30 482 C 44.5219 0.204065 2.10111 0
M  V30 483 O 43.8699 -0.813881 2.13514 0
M  V30 484 C 44.0799 2.75498 2.14247 0
M  V30 485 C 45.4279 3.24484 2.73852 0
M  V30 486 O 46.4519 2.76528 2.24523 0
M  V30 487 O 45.3109 4.07974 3.6362 0
M  V30 488 H 42.4049 0.593149 0.576284 0
M  V30 489 H 44.9509 1.61246 0.528948 0
M  V30 490 H 43.7229 3.60109 1.53092 0
M  V30 491 H 43.3459 2.6539 2.96064 0
M  V30 492 N 44.343 -0.763751 1.37857 0
M  V30 493 C 45.62 -1.51244 1.24035 0
M  V30 494 C 46 -2.10472 -0.162649 0
M  V30 495 O 45.348 -1.96206 -1.17112 0
M  V30 496 C 45.558 -2.58694 2.34261 0
M  V30 497 C 46.906 -3.25878 2.72193 0
M  V30 498 O 47.93 -2.68993 2.33497 0
M  V30 499 O 46.789 -4.2874 3.38887 0
M  V30 500 H 43.883 -0.670243 0.484462 0
M  V30 501 H 46.429 -0.800031 1.49658 0
M  V30 502 H 45.201 -2.13105 3.2818 0
M  V30 503 H 44.824 -3.37527 2.10146 0
M  V30 504 N 45.8211 -1.22559 -0.990812 0
M  V30 505 C 47.0491 -1.07779 -1.76611 0
M  V30 506 C 47.4641 0.371513 -1.85109 0
M  V30 507 O 46.8211 1.25737 -1.32274 0
M  V30 508 C 46.8721 -1.68512 -3.19822 0
M  V30 509 O 46.5931 -3.07774 -3.1178 0
M  V30 510 C 48.0941 -1.59035 -4.13791 0
M  V30 511 H 45.3141 -0.377729 -0.554583 0
M  V30 512 H 47.8581 -1.62195 -1.24551 0
M  V30 513 H 46.0131 -1.18154 -3.68942 0
M  V30 514 H 46.4271 -3.37062 -4.01858 0
M  V30 515 H 47.9011 -2.0625 -5.1202 0
M  V30 516 H 48.3781 -0.547273 -4.35777 0
M  V30 517 H 48.9841 -2.08709 -3.70568 0
M  V30 518 N 47.2992 1.18797 -1.03562 0
M  V30 519 C 48.2492 2.20161 -0.592724 0
M  V30 520 C 49.2332 1.56772 0.362133 0
M  V30 521 O 50.4252 1.76062 0.182009 0
M  V30 522 C 47.5542 3.43266 0.0481024 0
M  V30 523 C 46.6402 4.13786 -0.9296 0
M  V30 524 N 47.0312 4.60388 -2.09467 0
M  V30 525 C 45.3292 4.39572 -0.754499 0
M  V30 526 C 46.0302 5.14619 -2.71187 0
M  V30 527 N 45.0062 5.05826 -1.991 0
M  V30 528 H 48.8082 2.53877 -1.48066 0
M  V30 529 H 46.3222 1.34946 -0.903514 0
M  V30 530 H 48.3192 4.15136 0.383058 0
M  V30 531 H 46.9792 3.11048 0.931636 0
M  V30 532 H 47.9902 4.54999 -2.47379 0
M  V30 533 H 44.6672 4.17425 0.0793713 0
M  V30 534 H 46.0572 5.60917 -3.69895 0
M  V30 535 N 48.7773 0.814389 1.34928 0
M  V30 536 C 50.0263 0.394871 1.97797 0
M  V30 537 C 50.3393 -1.04555 1.65311 0
M  V30 538 O 51.5453 -1.56856 2.21604 0
M  V30 539 C 50.0013 0.655103 3.53888 0
M  V30 540 C 49.6093 2.10858 3.95276 0
M  V30 541 C 51.3533 0.301329 4.23429 0
M  V30 542 C 49.2603 2.31415 5.44244 0
M  V30 543 H 48.1903 0.143913 0.740139 0
M  V30 544 H 50.8413 0.999544 1.53888 0
M  V30 545 H 49.2233 -0.0196253 3.95995 0
M  V30 546 H 50.3973 2.82176 3.64298 0
M  V30 547 H 48.7123 2.42297 3.38646 0
M  V30 548 H 51.3093 0.432869 5.32945 0
M  V30 549 H 51.6523 -0.75331 4.09428 0
M  V30 550 H 52.1853 0.930288 3.86769 0
M  V30 551 H 48.9243 3.35353 5.63222 0
M  V30 552 H 48.4443 1.6463 5.76764 0
M  V30 553 H 50.1233 2.13352 6.10811 0
M  V30 554 N 50.2554 -1.46986 0.568584 0
M  V30 555 C 51.1884 -2.27129 -0.220779 0
M  V30 556 C 52.1664 -1.34757 -0.909905 0
M  V30 557 O 53.3504 -1.64152 -0.926622 0
M  V30 558 C 50.4774 -3.12108 -1.31553 0
M  V30 559 C 49.5234 -4.20141 -0.733748 0
M  V30 560 S 50.3564 -5.33783 0.428479 0
M  V30 561 C 51.5124 -6.22327 -0.667811 0
M  V30 562 H 51.7454 -2.93731 0.459267 0
M  V30 563 H 49.2784 -1.5026 0.355154 0
M  V30 564 H 51.2364 -3.61636 -1.94241 0
M  V30 565 H 49.8974 -2.44847 -1.96746 0
M  V30 566 H 49.0904 -4.79373 -1.5562 0
M  V30 567 H 48.6924 -3.73553 -0.182812 0
M  V30 568 H 50.9844 -6.59364 -1.55708 0
M  V30 569 H 51.9274 -7.0801 -0.11258 0
M  V30 570 H 52.3354 -5.5618 -0.965601 0
M  V30 571 N 51.7335 -0.305618 -1.54608 0
M  V30 572 C 52.6965 0.555591 -2.22364 0
M  V30 573 C 53.6965 1.05768 -1.21119 0
M  V30 574 O 54.8865 0.952972 -1.45822 0
M  V30 575 C 52.0185 1.76974 -2.91364 0
M  V30 576 H 53.2115 -0.0364572 -2.99878 0
M  V30 577 H 50.7645 -0.0565007 -1.56198 0
M  V30 578 H 51.4995 2.40151 -2.17941 0
M  V30 579 H 51.2845 1.41732 -3.65588 0
M  V30 580 H 52.7745 2.38148 -3.43038 0
M  V30 581 N 53.2116 1.57565 -0.0334293 0
M  V30 582 C 54.4576 1.92262 0.645226 0
M  V30 583 C 54.7906 0.910543 1.71531 0
M  V30 584 O 54.0656 -0.066099 1.94388 0
M  V30 585 C 54.3486 3.37422 1.2577 0
M  V30 586 C 54.2016 4.49369 0.196891 0
M  V30 587 C 55.5206 3.82628 2.17449 0
M  V30 588 H 52.6396 0.699171 0.233085 0
M  V30 589 H 55.2816 1.89779 -0.0915694 0
M  V30 590 H 53.4316 3.39669 1.88566 0
M  V30 591 H 55.1036 4.59254 -0.433962 0
M  V30 592 H 53.3466 4.31168 -0.477137 0
M  V30 593 H 54.0176 5.47978 0.665124 0
M  V30 594 H 56.4936 3.82145 1.64634 0
M  V30 595 H 55.3696 4.84883 2.57254 0
M  V30 596 H 55.6306 3.18376 3.0674 0
M  V30 597 N 54.6897 -0.239769 1.55765 0
M  V30 598 C 55.9357 -0.968234 1.78194 0
M  V30 599 C 56.2687 -1.84701 0.599938 0
M  V30 600 O 55.5437 -1.9031 -0.401524 0
M  V30 601 C 55.8267 -1.8227 3.10564 0
M  V30 602 C 55.6797 -0.971633 4.3918 0
M  V30 603 C 56.9987 -2.80388 3.39221 0
M  V30 604 H 54.1177 -0.350572 0.648281 0
M  V30 605 H 56.7597 -0.238259 1.885 0
M  V30 606 H 54.9097 -2.44507 3.01908 0
M  V30 607 H 56.5817 -0.367408 4.59835 0
M  V30 608 H 54.8247 -0.276276 4.32919 0
M  V30 609 H 55.4957 -1.60346 5.28198 0
M  V30 610 H 57.9717 -2.28287 3.47885 0
M  V30 611 H 56.8477 -3.3729 4.33044 0
M  V30 612 H 57.1087 -3.57212 2.60484 0
M  V30 613 N 56.1678 -1.49265 -0.50573 0
M  V30 614 C 57.1148 -1.65585 -1.6078 0
M  V30 615 C 58.0848 -0.497396 -1.58478 0
M  V30 616 O 59.2698 -0.72385 -1.76536 0
M  V30 617 C 56.4098 -1.72408 -2.98948 0
M  V30 618 C 55.5228 -2.99525 -3.11301 0
M  V30 619 C 54.6578 -2.97356 -4.40174 0
M  V30 620 C 53.6968 -4.19074 -4.46143 0
M  V30 621 N 52.8338 -4.14841 -5.66437 0
M  V30 622 H 57.6738 -2.59688 -1.46172 0
M  V30 623 H 55.2108 -1.28761 -0.711261 0
M  V30 624 H 57.1688 -1.74344 -3.79025 0
M  V30 625 H 55.7988 -0.817753 -3.1227 0
M  V30 626 H 54.8508 -3.07222 -2.24318 0
M  V30 627 H 56.1628 -3.89518 -3.11572 0
M  V30 628 H 55.3168 -2.97829 -5.28567 0
M  V30 629 H 54.0558 -2.05133 -4.42461 0
M  V30 630 H 53.0608 -4.1885 -3.56153 0
M  V30 631 H 54.2858 -5.12483 -4.45575 0
M  V30 632 H 52.2318 -3.25453 -5.69575 0
M  V30 633 H 52.1488 -4.98564 -5.68304 0
M  V30 634 H 53.4168 -4.1941 -6.57051 0
M  V30 635 N 57.6459 0.756429 -1.3826 0
M  V30 636 C 58.6089 1.85176 -1.35065 0
M  V30 637 C 59.6089 1.58818 -0.251703 0
M  V30 638 O 60.7989 1.66615 -0.508433 0
M  V30 639 C 57.9309 3.22596 -1.10201 0
M  V30 640 H 59.1239 1.89417 -2.3251 0
M  V30 641 H 56.6769 0.95783 -1.23512 0
M  V30 642 H 57.4119 3.24025 -0.133504 0
M  V30 643 H 57.1969 3.43122 -1.89762 0
M  V30 644 H 58.6869 4.02673 -1.10654 0
M  V30 645 N 59.124 1.23083 0.984299 0
M  V30 646 C 60.072 1.00593 2.09723 0
M  V30 647 C 61.066 -0.0538014 1.69315 0
M  V30 648 O 62.272 0.0993719 1.79725 0
M  V30 649 H 58.647 0.30817 0.685956 0
M  V30 650 H 60.618 1.95012 2.2586 0
M  V30 651 C 59.367 0.609601 3.42314 0
M  V30 652 H 58.69 1.41675 3.73856 0
M  V30 653 H 60.13 0.491726 4.21139 0
M  V30 654 C 58.589 -0.681745 3.2993 0
M  V30 655 O 59.119 -1.73192 3.62446 0
M  V30 656 N 57.325 -0.656178 2.83095 0
M  V30 657 H 56.872 0.198759 2.56832 0
M  V30 658 H 56.83 -1.52044 2.75191 0
M  V30 659 N 60.6021 -1.18246 1.0419 0
M  V30 660 C 61.5651 -2.20128 0.638452 0
M  V30 661 C 62.5651 -1.57885 -0.304805 0
M  V30 662 O 63.7551 -1.73967 -0.0900369 0
M  V30 663 C 60.8871 -3.4084 -0.0637751 0
M  V30 664 H 62.0801 -2.57336 1.54007 0
M  V30 665 H 59.6331 -1.32152 0.834598 0
M  V30 666 H 60.3681 -3.09166 -0.979136 0
M  V30 667 H 60.1531 -3.8726 0.614198 0
M  V30 668 H 61.6431 -4.16274 -0.332512 0
M  V30 669 N 62.0802 -0.821533 -1.34494 0
M  V30 670 C 63.3102 -0.421272 -2.02259 0
M  V30 671 C 63.7182 0.977047 -1.6202 0
M  V30 672 O 63.0612 1.64348 -0.820703 0
M  V30 673 C 63.1232 -0.44231 -3.56769 0
M  V30 674 C 62.7872 -1.79372 -4.20327 0
M  V30 675 C 63.7842 -2.75435 -4.40944 0
M  V30 676 C 61.4692 -2.08182 -4.57127 0
M  V30 677 C 63.4632 -3.98482 -4.97484 0
M  V30 678 C 61.1502 -3.31489 -5.13379 0
M  V30 679 C 62.1482 -4.26457 -5.33501 0
M  V30 680 O 61.8362 -5.47585 -5.88562 0
M  V30 681 H 61.5682 -0.167473 -0.654927 0
M  V30 682 H 64.1222 -1.11073 -1.72777 0
M  V30 683 H 62.3522 0.303836 -3.85505 0
M  V30 684 H 64.0412 -0.0622925 -4.05852 0
M  V30 685 H 64.8072 -2.54473 -4.12878 0
M  V30 686 H 60.6862 -1.35066 -4.4077 0
M  V30 687 H 64.2302 -4.72618 -5.13106 0
M  V30 688 H 60.1272 -3.52316 -5.40873 0
M  V30 689 H 60.8952 -5.49086 -6.06998 0
M  V30 690 N 63.5583 1.46682 -0.576371 0
M  V30 691 C 64.8063 2.02013 -0.0594163 0
M  V30 692 C 65.1273 1.45101 1.30271 0
M  V30 693 O 64.3973 0.633317 1.8538 0
M  V30 694 H 62.9773 0.746759 -0.0189745 0
M  V30 695 H 65.6393 1.79862 -0.750717 0
M  V30 696 H 64.7353 3.12097 0.014345 0
M  V30 697 N 65.0364 0.313813 1.54444 0
M  V30 698 C 65.9864 -0.571898 2.20711 0
M  V30 699 C 66.9704 -1.08913 1.18435 0
M  V30 700 O 68.1624 -1.02777 1.44104 0
M  V30 701 C 65.2914 -1.7371 2.96108 0
M  V30 702 C 64.3774 -1.23522 4.05713 0
M  V30 703 N 64.7684 -0.452288 5.03774 0
M  V30 704 C 63.0664 -1.51482 4.19487 0
M  V30 705 C 63.7674 -0.183438 5.81411 0
M  V30 706 N 62.7434 -0.766845 5.38164 0
M  V30 707 H 66.5454 0.0336802 2.93881 0
M  V30 708 H 64.0594 0.119192 1.61962 0
M  V30 709 H 66.0564 -2.38329 3.4206 0
M  V30 710 H 64.7164 -2.34625 2.24458 0
M  V30 711 H 65.7274 -0.0960131 5.17811 0
M  V30 712 H 62.4044 -2.13053 3.59047 0
M  V30 713 H 63.7944 0.446216 6.70417 0
M  V30 714 N 66.5145 -1.57545 0.0417849 0
M  V30 715 C 67.7625 -1.91937 -0.632829 0
M  V30 716 C 68.0835 -0.919978 -1.71934 0
M  V30 717 O 67.3535 0.0366064 -1.95866 0
M  V30 718 H 65.9335 -0.708493 -0.236742 0
M  V30 719 H 68.5955 -1.9468 0.0925745 0
M  V30 720 H 67.6915 -2.92912 -1.07746 0
M  V30 721 N 67.9926 0.231505 -1.5589 0
M  V30 722 C 69.2696 0.981096 -1.69215 0
M  V30 723 C 69.6496 2.02799 -0.586164 0
M  V30 724 O 68.9976 2.24823 0.408253 0
M  V30 725 C 69.2076 1.60054 -3.10135 0
M  V30 726 C 70.5556 2.09658 -3.69227 0
M  V30 727 O 71.5796 1.69967 -3.13033 0
M  V30 728 O 70.4386 2.8258 -4.67772 0
M  V30 729 H 67.5326 0.457653 -0.688827 0
M  V30 730 H 70.0786 0.224073 -1.68214 0
M  V30 731 H 68.8506 0.844105 -3.82087 0
M  V30 732 H 68.4736 2.42336 -3.15212 0
M  V30 733 N 69.4707 1.49531 0.497807 0
M  V30 734 C 70.7167 1.59415 1.25358 0
M  V30 735 C 71.0497 0.281422 1.9215 0
M  V30 736 O 70.3247 -0.715249 1.80871 0
M  V30 737 C 70.6077 2.75566 2.3181 0
M  V30 738 C 70.4607 4.16642 1.69498 0
M  V30 739 C 71.7797 2.87347 3.33346 0
M  V30 740 H 68.8987 0.580244 0.454408 0
M  V30 741 H 71.5407 1.81827 0.551262 0
M  V30 742 H 69.6907 2.56587 2.91711 0
M  V30 743 H 71.3627 4.47145 1.13399 0
M  V30 744 H 69.6057 4.22141 0.998978 0
M  V30 745 H 70.2767 4.93792 2.46725 0
M  V30 746 H 72.7527 3.04634 2.83438 0
M  V30 747 H 71.6287 3.70289 4.05188 0
M  V30 748 H 71.8897 1.96834 3.95865 0
M  V30 749 N 70.9488 -0.749086 1.3866 0
M  V30 750 C 71.8808 -1.87273 1.32142 0
M  V30 751 C 72.8938 -1.61127 0.232787 0
M  V30 752 O 74.0828 -1.71623 0.49069 0
M  V30 753 C 71.1828 -3.23005 1.02571 0
M  V30 754 C 70.3558 -3.7662 2.22433 0
M  V30 755 C 69.4148 -4.90879 1.89537 0
M  V30 756 O 68.4408 -5.05276 2.62078 0
M  V30 757 N 69.6428 -5.74198 0.853031 0
M  V30 758 H 72.4078 -1.93373 2.28969 0
M  V30 759 H 69.9688 -0.929216 1.32579 0
M  V30 760 H 71.9608 -3.96992 0.786085 0
M  V30 761 H 70.5308 -3.12262 0.145249 0
M  V30 762 H 69.7508 -2.94147 2.62434 0
M  V30 763 H 71.0388 -4.09173 3.02415 0
M  V30 764 H 70.4368 -5.6514 0.25155 0
M  V30 765 H 68.9938 -6.48313 0.67329 0
M  V30 766 N 72.4269 -1.23603 -0.977757 0
M  V30 767 C 73.6729 -1.07129 -1.72195 0
M  V30 768 C 74.0059 0.390501 -1.90233 0
M  V30 769 O 73.2809 1.28902 -1.45653 0
M  V30 770 C 73.5639 -1.80031 -3.11867 0
M  V30 771 C 73.4169 -3.33899 -3.01383 0
M  V30 772 C 74.7359 -1.56492 -4.11337 0
M  V30 773 H 71.8549 -0.390571 -0.624999 0
M  V30 774 H 74.4969 -1.52142 -1.13811 0
M  V30 775 H 72.6469 -1.41768 -3.6171 0
M  V30 776 H 74.3189 -3.81699 -2.59043 0
M  V30 777 H 72.5619 -3.62796 -2.37827 0
M  V30 778 H 73.2329 -3.801 -4.00285 0
M  V30 779 H 75.7089 -1.89757 -3.70313 0
M  V30 780 H 74.5849 -2.09973 -5.07151 0
M  V30 781 H 74.8459 -0.500874 -4.39254 0
M  V30 782 N 73.905 1.17692 -1.04816 0
M  V30 783 C 74.868 2.19787 -0.650117 0
M  V30 784 C 75.868 1.58044 0.296427 0
M  V30 785 O 77.058 1.74012 0.0808097 0
M  V30 786 C 74.19 3.40869 0.0456987 0
M  V30 787 H 75.383 2.56516 -1.5537 0
M  V30 788 H 72.936 1.31708 -0.841594 0
M  V30 789 H 73.671 3.09681 0.962726 0
M  V30 790 H 73.456 3.86928 -0.634727 0
M  V30 791 H 74.946 4.16445 0.310432 0
M  V30 792 N 75.3831 0.828654 1.34056 0
M  V30 793 C 76.7991 0.515135 1.51058 0
M  V30 794 C 76.9991 -0.959581 1.77184 0
M  V30 795 O 76.0551 -1.74382 1.82612 0
M  V30 796 C 77.3681 1.37963 2.67183 0
M  V30 797 C 78.9161 1.37735 2.81066 0
M  V30 798 C 79.3911 2.22645 4.00241 0
M  V30 799 N 80.8821 2.203 4.07458 0
M  V30 800 C 81.6171 2.82744 4.98842 0
M  V30 801 N 81.1131 3.54201 5.9541 0
M  V30 802 N 82.9061 2.72268 4.91759 0
M  V30 803 H 75.0571 1.78343 1.15358 0
M  V30 804 H 77.3201 0.760304 0.566252 0
M  V30 805 H 77.0261 2.42714 2.54525 0
M  V30 806 H 76.9001 1.0484 3.62338 0
M  V30 807 H 79.2871 0.337593 2.93163 0
M  V30 808 H 79.3681 1.74859 1.86703 0
M  V30 809 H 79.0121 3.26674 3.88905 0
M  V30 810 H 78.9421 1.82869 4.93829 0
M  V30 811 H 81.4331 1.68327 3.38341 0
M  V30 812 H 81.7461 3.9908 6.61782 0
M  V30 813 H 80.0911 3.58308 5.95517 0
M  V30 814 H 83.2821 2.16014 4.15278 0
M  V30 815 H 83.4551 3.21219 5.62781 0
M  V30 816 N 76.8612 -1.46375 0.584142 0
M  V30 817 C 78.0892 -2.06761 0.0759296 0
M  V30 818 C 78.5042 -1.43266 -1.22965 0
M  V30 819 O 77.8612 -0.538458 -1.74376 0
M  V30 820 C 77.9122 -3.61375 -0.0950384 0
M  V30 821 O 77.6332 -4.22495 1.15887 0
M  V30 822 C 79.1342 -4.38693 -0.637434 0
M  V30 823 H 76.3542 -0.668479 0.0581075 0
M  V30 824 H 78.8982 -1.8798 0.805218 0
M  V30 825 H 77.0532 -3.79578 -0.774554 0
M  V30 826 H 77.4672 -5.15385 0.973598 0
M  V30 827 H 78.9412 -5.47464 -0.706237 0
M  V30 828 H 79.4182 -4.06836 -1.65472 0
M  V30 829 H 80.0242 -4.25299 0.00725967 0
M  V30 830 N 78.3393 -0.321999 -1.54275 0
M  V30 831 C 79.3023 0.531975 -2.22941 0
M  V30 832 C 80.3023 1.04478 -1.22234 0
M  V30 833 O 81.4923 0.937452 -1.46825 0
M  V30 834 C 78.6243 1.73874 -2.93224 0
M  V30 835 H 79.8173 -0.0682612 -2.99822 0
M  V30 836 H 77.3703 -0.0730644 -1.56129 0
M  V30 837 H 78.1053 2.37825 -2.20476 0
M  V30 838 H 77.8903 1.37847 -3.6707 0
M  V30 839 H 79.3803 2.34496 -3.45545 0
M  V30 840 N 79.8174 1.5752 -0.0501392 0
M  V30 841 C 80.7474 2.14502 0.922566 0
M  V30 842 C 81.7284 1.06642 1.3252 0
M  V30 843 O 82.9134 1.34577 1.4001 0
M  V30 844 C 80.0434 2.68916 2.19776 0
M  V30 845 C 78.9974 3.8175 1.93523 0
M  V30 846 C 78.3234 4.22677 3.27487 0
M  V30 847 C 79.6234 5.06932 1.25765 0
M  V30 848 H 81.3174 2.9603 0.447952 0
M  V30 849 H 78.8634 1.42401 0.214024 0
M  V30 850 H 80.8164 3.07419 2.88222 0
M  V30 851 H 79.5404 1.84578 2.69441 0
M  V30 852 H 78.1994 3.43718 1.27489 0
M  V30 853 H 77.8474 3.35291 3.74952 0
M  V30 854 H 77.5474 4.98725 3.1072 0
M  V30 855 H 79.0714 4.63779 3.97166 0
M  V30 856 H 80.4854 5.42888 1.84244 0
M  V30 857 H 78.8824 5.88116 1.19328 0
M  V30 858 H 79.9524 4.84337 0.233536 0
M  V30 859 N 81.2955 -0.223234 1.56011 0
M  V30 860 C 82.2055 -1.29766 1.95443 0
M  V30 861 C 83.2215 -1.51373 0.858028 0
M  V30 862 O 84.3975 -1.64536 1.16146 0
M  V30 863 C 81.4625 -2.62772 2.26167 0
M  V30 864 C 80.5235 -2.49482 3.49367 0
M  V30 865 C 79.7565 -3.76145 3.78616 0
M  V30 866 O 79.9795 -4.79087 3.09568 0
M  V30 867 O 78.9135 -3.73358 4.72109 0
M  V30 868 H 82.7395 -0.99309 2.87004 0
M  V30 869 H 80.3245 -0.425958 1.43199 0
M  V30 870 H 82.2065 -3.41327 2.47131 0
M  V30 871 H 80.8815 -2.92913 1.37781 0
M  V30 872 H 79.7885 -1.69133 3.33684 0
M  V30 873 H 81.1215 -2.2428 4.38131 0
M  V30 874 N 82.7736 -1.49793 -0.48987 0
M  V30 875 C 83.7366 -1.66752 -1.57246 0
M  V30 876 C 84.7366 -0.538867 -1.51502 0
M  V30 877 O 85.9266 -0.805545 -1.54456 0
M  V30 878 C 83.0586 -1.67528 -2.96896 0
M  V30 879 H 84.2516 -2.63321 -1.43534 0
M  V30 880 H 81.8046 -1.38992 -0.714914 0
M  V30 881 H 82.5396 -0.725837 -3.16073 0
M  V30 882 H 82.3246 -2.49504 -3.02473 0
M  V30 883 H 83.8146 -1.82667 -3.7553 0
M  V30 884 N 84.2517 0.741722 -1.39055 0
M  V30 885 C 85.4997 1.49818 -1.35643 0
M  V30 886 C 85.8207 1.94938 0.0491642 0
M  V30 887 O 85.0907 1.68505 0.999141 0
M  V30 888 H 83.6707 0.555755 -0.499144 0
M  V30 889 H 86.3327 0.880957 -1.73854 0
M  V30 890 H 85.4287 2.38348 -2.01486 0
M  V30 891 N 85.7298 1.2412 0.971189 0
M  V30 892 C 86.6928 1.03156 2.04674 0
M  V30 893 C 87.6928 -0.00990322 1.60797 0
M  V30 894 O 88.8828 0.230729 1.72665 0
M  V30 895 C 86.0148 0.562765 3.36223 0
M  V30 896 H 87.2078 1.98614 2.24705 0
M  V30 897 H 84.7608 1.06293 1.14593 0
M  V30 898 H 85.4958 -0.395176 3.21883 0
M  V30 899 H 85.2808 1.31441 3.69413 0
M  V30 900 H 86.7708 0.437015 4.15307 0
M  V30 901 N 87.2079 -1.17134 1.05439 0
M  V30 902 C 88.4329 -1.91913 0.786396 0
M  V30 903 C 88.8579 -1.7643 -0.652234 0
M  V30 904 O 88.2159 -1.08372 -1.45345 0
M  V30 905 C 88.2639 -3.40921 1.17497 0
M  V30 906 O 87.3679 -4.11244 0.308589 0
M  V30 907 H 86.7089 -0.598215 0.288158 0
M  V30 908 H 89.2389 -1.48457 1.4079 0
M  V30 909 H 89.2489 -3.91668 1.14281 0
M  V30 910 H 87.9239 -3.5151 2.22292 0
M  V30 911 H 86.5009 -3.70731 0.40157 0
M  V30 912 N 88.686 -0.835752 -1.33615 0
M  V30 913 C 90.102 -0.523139 -1.50783 0
M  V30 914 C 90.302 0.950171 -1.77691 0
M  V30 915 O 89.358 1.73411 -1.83534 0
M  V30 916 C 90.671 -1.39378 -2.66448 0
M  V30 917 C 92.219 -1.39223 -2.80332 0
M  V30 918 C 92.694 -2.24765 -3.99055 0
M  V30 919 N 94.185 -2.22458 -4.06284 0
M  V30 920 C 94.92 -2.85386 -4.97336 0
M  V30 921 N 94.416 -3.57354 -5.93523 0
M  V30 922 N 96.209 -2.74872 -4.90308 0
M  V30 923 H 88.36 -1.78952 -1.14411 0
M  V30 924 H 90.623 -0.763297 -0.562212 0
M  V30 925 H 90.329 -2.44061 -2.53234 0
M  V30 926 H 90.203 -1.0676 -3.61776 0
M  V30 927 H 92.59 -0.353136 -2.92979 0
M  V30 928 H 92.671 -1.75846 -1.85773 0
M  V30 929 H 92.315 -3.28732 -3.87167 0
M  V30 930 H 92.245 -1.85485 -4.92852 0
M  V30 931 H 94.736 -1.70119 -3.37443 0
M  V30 932 H 95.049 -4.02584 -6.59656 0
M  V30 933 H 93.394 -3.61461 -5.93608 0
M  V30 934 H 96.585 -2.18213 -4.14126 0
M  V30 935 H 96.758 -3.24199 -5.61069 0
M  V30 936 N 90.1641 1.46063 -0.591896 0
M  V30 937 C 91.0941 2.33172 0.123673 0
M  V30 938 C 92.0751 1.45897 0.87453 0
M  V30 939 O 93.2601 1.74698 0.848181 0
M  V30 940 C 90.3901 3.28336 1.13194 0
M  V30 941 C 89.3441 4.25124 0.495324 0
M  V30 942 C 88.6701 5.09863 1.61071 0
M  V30 943 C 89.9701 5.19143 -0.573425 0
M  V30 944 H 91.6641 2.93252 -0.603646 0
M  V30 945 H 89.2101 1.41014 -0.291741 0
M  V30 946 H 91.1631 3.88137 1.64097 0
M  V30 947 H 89.8871 2.66383 1.88965 0
M  V30 948 H 88.5461 3.66599 0.00729452 0
M  V30 949 H 88.1941 4.44288 2.35832 0
M  V30 950 H 87.8941 5.75417 1.19035 0
M  V30 951 H 89.4181 5.72529 2.12233 0
M  V30 952 H 90.8321 5.73106 -0.1491 0
M  V30 953 H 89.2291 5.93089 -0.914636 0
M  V30 954 H 90.2991 4.62519 -1.45617 0
M  V30 955 N 91.6422 0.330177 1.54103 0
M  V30 956 C 92.6052 -0.520144 2.2322 0
M  V30 957 C 93.6052 -1.03828 1.22786 0
M  V30 958 O 94.7952 -0.929652 1.4732 0
M  V30 959 C 91.9272 -1.72317 2.94142 0
M  V30 960 H 93.1202 0.0841605 2.99782 0
M  V30 961 H 90.6732 0.0813433 1.56088 0
M  V30 962 H 91.4082 -2.36653 2.21734 0
M  V30 963 H 91.1932 -1.35898 3.67796 0
M  V30 964 H 92.6832 -2.3266 3.46784 0
M  V30 965 N 93.1203 -1.57491 0.0584922 0
M  V30 966 C 94.3663 -1.93264 -0.614558 0
M  V30 967 C 94.6993 -0.937717 -1.7006 0
M  V30 968 O 93.9743 0.0351652 -1.94468 0
M  V30 969 C 94.2573 -3.3938 -1.20386 0
M  V30 970 C 94.1103 -4.49625 -0.125375 0
M  V30 971 C 95.4293 -3.86039 -2.11334 0
M  V30 972 H 92.5483 -0.702791 -0.221933 0
M  V30 973 H 95.1903 -1.8961 0.12175 0
M  V30 974 H 93.3403 -3.42626 -1.83139 0
M  V30 975 H 95.0123 -4.58506 0.506971 0
M  V30 976 H 93.2553 -4.30354 0.545672 0
M  V30 977 H 93.9263 -5.48967 -0.577861 0
M  V30 978 H 96.4023 -3.84716 -1.58534 0
M  V30 979 H 95.2783 -4.88914 -2.49507 0
M  V30 980 H 95.5393 -3.23215 -3.01636 0
M  V30 981 N 94.5984 0.214957 -1.56127 0
M  V30 982 C 95.5614 1.24997 -1.92116 0
M  V30 983 C 96.5614 1.39467 -0.800344 0
M  V30 984 O 97.7514 1.37619 -1.06802 0
M  V30 985 C 94.8834 2.62271 -2.17777 0
M  V30 986 H 96.0764 0.942875 -2.84693 0
M  V30 987 H 93.6294 0.455654 -1.49511 0
M  V30 988 H 94.3644 2.98068 -1.27773 0
M  V30 989 H 94.1494 2.53143 -2.99434 0
M  V30 990 H 95.6394 3.36946 -2.46693 0
M  V30 991 N 96.0765 1.50051 0.48192 0
M  V30 992 C 97.3235 1.60498 1.23477 0
M  V30 993 C 97.6515 0.300331 1.92167 0
M  V30 994 O 96.9065 -0.713094 1.82246 0
M  V30 995 C 97.2055 2.72717 2.30998 0
M  V30 996 C 96.8715 4.13572 1.79636 0
M  V30 997 C 95.5335 4.519 1.65348 0
M  V30 998 C 97.8855 5.01649 1.41412 0
M  V30 999 C 95.2135 5.76057 1.11244 0
M  V30 1000 C 97.5655 6.26343 0.887538 0
M  V30 1001 C 96.2295 6.63483 0.731207 0
M  V30 1002 H 95.4995 0.587303 0.451836 0
M  V30 1003 H 98.1465 1.83948 0.532468 0
M  V30 1004 H 96.4515 2.43312 3.07094 0
M  V30 1005 H 98.1485 2.78006 2.88988 0
M  V30 1006 H 94.7385 3.83329 1.91721 0
M  V30 1007 H 98.9225 4.72679 1.51289 0
M  V30 1008 H 94.1785 6.03516 0.978686 0
M  V30 1009 H 98.3525 6.93958 0.582654 0
M  V30 1010 H 95.9795 7.59568 0.309806 0
M  V30 1011 N 97.5546 -0.734337 1.39446 0
M  V30 1012 C 98.4846 -1.86155 1.40955 0
M  V30 1013 C 99.4656 -1.67898 0.272827 0
M  V30 1014 O 100.651 -1.88207 0.478743 0
M  V30 1015 C 97.7806 -3.23912 1.25294 0
M  V30 1016 C 96.7346 -3.56808 2.36373 0
M  V30 1017 C 96.0606 -4.93508 2.058 0
M  V30 1018 C 97.3606 -3.59713 3.78687 0
M  V30 1019 H 99.0546 -1.8515 2.35287 0
M  V30 1020 H 96.6006 -0.889367 1.13253 0
M  V30 1021 H 98.5536 -4.02443 1.2497 0
M  V30 1022 H 97.2776 -3.25446 0.274308 0
M  V30 1023 H 95.9366 -2.80606 2.35914 0
M  V30 1024 H 95.5846 -4.91623 1.06374 0
M  V30 1025 H 95.2846 -5.16486 2.80208 0
M  V30 1026 H 96.8086 -5.74396 2.07128 0
M  V30 1027 H 98.2226 -4.2832 3.81071 0
M  V30 1028 H 96.6196 -3.94209 4.52459 0
M  V30 1029 H 97.6896 -2.59504 4.09617 0
M  V30 1030 N 99.0327 -1.24633 -0.964593 0
M  V30 1031 C 100.31 -0.995809 -1.68354 0
M  V30 1032 C 100.69 0.480964 -2.05548 0
M  V30 1033 O 100.038 1.45599 -1.76105 0
M  V30 1034 C 100.248 -1.92177 -2.91323 0
M  V30 1035 C 101.596 -2.19446 -3.63495 0
M  V30 1036 O 102.62 -1.89855 -3.01386 0
M  V30 1037 O 101.479 -2.69714 -4.75307 0
M  V30 1038 H 98.5727 -0.376854 -0.736146 0
M  V30 1039 H 101.119 -1.35745 -1.0184 0
M  V30 1040 H 99.8907 -2.91938 -2.60553 0
M  V30 1041 H 99.5137 -1.56349 -3.65569 0
M  V30 1042 N 100.511 1.16574 -1.06058 0
M  V30 1043 C 101.421 2.2452 -0.680282 0
M  V30 1044 C 102.437 1.71348 0.302604 0
M  V30 1045 O 103.613 2.00822 0.152513 0
M  V30 1046 C 100.678 3.46629 -0.0700315 0
M  V30 1047 C 99.7388 4.14849 -1.10448 0
M  V30 1048 C 98.9718 5.31129 -0.523256 0
M  V30 1049 O 99.1948 5.66514 0.664709 0
M  V30 1050 O 98.1288 5.88526 -1.26179 0
M  V30 1051 H 101.955 2.59355 -1.58015 0
M  V30 1052 H 99.5398 1.24043 -0.832694 0
M  V30 1053 H 101.422 4.20543 0.268667 0
M  V30 1054 H 100.097 3.13573 0.803353 0
M  V30 1055 H 99.0038 3.42916 -1.49532 0
M  V30 1056 H 100.337 4.51954 -1.94931 0
M  V30 1057 N 101.989 0.842826 1.3317 0
M  V30 1058 C 102.952 0.284065 2.27433 0
M  V30 1059 C 103.952 -0.54948 1.5112 0
M  V30 1060 O 105.142 -0.362699 1.70382 0
M  V30 1061 C 102.274 -0.599384 3.35589 0
M  V30 1062 H 103.467 1.11589 2.78366 0
M  V30 1063 H 101.02 0.616221 1.4364 0
M  V30 1064 H 101.755 -1.45349 2.89904 0
M  V30 1065 H 101.54 -0.00291266 3.921 0
M  V30 1066 H 103.03 -0.983488 4.05854 0
M  V30 1067 N 103.467 -1.45747 0.599634 0
M  V30 1068 C 104.397 -2.33235 -0.111306 0
M  V30 1069 C 105.378 -1.46359 -0.866781 0
M  V30 1070 O 106.563 -1.75146 -0.838904 0
M  V30 1071 C 103.693 -3.28932 -1.11451 0
M  V30 1072 C 102.647 -4.25381 -0.472772 0
M  V30 1073 C 101.973 -5.1071 -1.58365 0
M  V30 1074 C 103.273 -5.18831 0.600948 0
M  V30 1075 H 104.967 -2.92927 0.61919 0
M  V30 1076 H 102.513 -1.40857 0.299215 0
M  V30 1077 H 104.466 -3.89002 -1.62036 0
M  V30 1078 H 103.19 -2.67381 -1.8755 0
M  V30 1079 H 101.849 -3.66598 0.0121472 0
M  V30 1080 H 101.497 -4.45533 -2.33473 0
M  V30 1081 H 101.197 -5.7604 -1.15982 0
M  V30 1082 H 102.721 -5.73647 -2.09194 0
M  V30 1083 H 104.135 -5.73019 0.179491 0
M  V30 1084 H 102.532 -5.92595 0.946076 0
M  V30 1085 H 103.602 -4.6174 1.48068 0
M  V30 1086 N 104.945 -0.338344 -1.53925 0
M  V30 1087 C 105.908 0.508299 -2.23493 0
M  V30 1088 C 106.908 1.03175 -1.23335 0
M  V30 1089 O 108.098 0.921826 -1.47811 0
M  V30 1090 C 105.23 1.70754 -2.95052 0
M  V30 1091 H 106.423 -0.100058 -2.99733 0
M  V30 1092 H 103.976 -0.0896198 -1.56043 0
M  V30 1093 H 104.711 2.35474 -2.22986 0
M  V30 1094 H 104.496 1.33946 -3.68512 0
M  V30 1095 H 105.986 2.30818 -3.48013 0
M  V30 1096 N 106.423 1.57458 -0.0668435 0
M  V30 1097 C 107.353 2.15468 0.899764 0
M  V30 1098 C 108.334 1.08042 1.31381 0
M  V30 1099 O 109.519 1.36054 1.38574 0
M  V30 1100 C 106.649 2.71232 2.16911 0
M  V30 1101 C 105.603 3.83781 1.89463 0
M  V30 1102 C 104.929 4.26127 3.22986 0
M  V30 1103 C 106.229 5.08238 1.20381 0
M  V30 1104 H 107.923 2.96488 0.416529 0
M  V30 1105 H 105.469 1.4262 0.198908 0
M  V30 1106 H 107.422 3.10458 2.84945 0
M  V30 1107 H 106.146 1.87426 2.67468 0
M  V30 1108 H 104.805 3.45051 1.23836 0
M  V30 1109 H 104.453 3.39249 3.71374 0
M  V30 1110 H 104.153 5.01993 3.05413 0
M  V30 1111 H 105.677 4.67966 3.92225 0
M  V30 1112 H 107.091 5.44811 1.78475 0
M  V30 1113 H 105.488 5.89349 1.13083 0
M  V30 1114 H 106.558 4.84558 0.182153 0
M  V30 1115 N 107.901 -0.206675 1.56239 0
M  V30 1116 C 109.317 -0.557025 1.49564 0
M  V30 1117 C 109.517 -1.86424 0.764735 0
M  V30 1118 O 108.573 -2.50584 0.310491 0
M  V30 1119 C 109.886 -0.622478 2.94186 0
M  V30 1120 C 111.434 -0.712099 3.04792 0
M  V30 1121 C 111.909 -0.808767 4.50803 0
M  V30 1122 N 113.4 -0.8726 4.54907 0
M  V30 1123 C 114.135 -0.967365 5.65181 0
M  V30 1124 N 113.631 -1.02515 6.85173 0
M  V30 1125 N 115.424 -1.00366 5.53067 0
M  V30 1126 H 107.575 0.650943 2.02179 0
M  V30 1127 H 109.838 0.230387 0.919579 0
M  V30 1128 H 109.544 0.268727 3.50672 0
M  V30 1129 H 109.418 -1.4811 3.46905 0
M  V30 1130 H 111.805 -1.59374 2.48363 0
M  V30 1131 H 111.886 0.172489 2.55218 0
M  V30 1132 H 111.53 0.0684754 5.07854 0
M  V30 1133 H 111.46 -1.70899 4.98098 0
M  V30 1134 H 113.951 -0.837657 3.68499 0
M  V30 1135 H 114.264 -1.09765 7.64965 0
M  V30 1136 H 112.609 -0.994026 6.87855 0
M  V30 1137 H 115.8 -0.95527 4.58249 0
M  V30 1138 H 115.973 -1.07405 6.39037 0
M  V30 1139 N 109.379 -1.50304 -0.473955 0
M  V30 1140 C 110.289 -1.7174 -1.5982 0
M  V30 1141 C 111.305 -0.600457 -1.63311 0
M  V30 1142 O 112.481 -0.878441 -1.81233 0
M  V30 1143 C 109.546 -1.80427 -2.96052 0
M  V30 1144 C 108.607 -3.04148 -3.02972 0
M  V30 1145 C 107.84 -3.12411 -4.32706 0
M  V30 1146 O 108.063 -2.27542 -5.23049 0
M  V30 1147 O 106.997 -4.05113 -4.45159 0
M  V30 1148 H 110.823 -2.67035 -1.44657 0
M  V30 1149 H 108.408 -1.34366 -0.653148 0
M  V30 1150 H 110.29 -1.88338 -3.7697 0
M  V30 1151 H 108.965 -0.883156 -3.11419 0
M  V30 1152 H 107.872 -3.0174 -2.21142 0
M  V30 1153 H 109.205 -3.95829 -2.92541 0
M  V30 1154 N 110.857 0.726932 -1.39834 0
M  V30 1155 C 111.804 1.841 -1.39197 0
M  V30 1156 C 112.774 1.642 -0.250502 0
M  V30 1157 O 113.959 1.85494 -0.446846 0
M  V30 1158 C 111.099 3.21697 -1.24919 0
M  V30 1159 C 110.212 3.53247 -2.48678 0
M  V30 1160 C 109.347 4.80289 -2.26928 0
M  V30 1161 C 108.386 5.04707 -3.4632 0
M  V30 1162 N 107.523 6.22956 -3.23836 0
M  V30 1163 H 112.363 1.83979 -2.34427 0
M  V30 1164 H 109.9 0.898876 -1.16442 0
M  V30 1165 H 111.858 4.01137 -1.1465 0
M  V30 1166 H 110.488 3.21076 -0.333153 0
M  V30 1167 H 109.54 2.68447 -2.69519 0
M  V30 1168 H 110.852 3.67205 -3.37582 0
M  V30 1169 H 110.006 5.67725 -2.13947 0
M  V30 1170 H 108.745 4.68519 -1.35431 0
M  V30 1171 H 107.75 4.1573 -3.5979 0
M  V30 1172 H 108.975 5.18357 -4.38729 0
M  V30 1173 H 106.921 6.12459 -2.35011 0
M  V30 1174 H 106.838 6.37539 -4.063 0
M  V30 1175 H 108.106 7.1321 -3.14566 0
M  V30 1176 N 112.336 1.25143 0.95797 0
M  V30 1177 C 113.584 1.09476 1.69881 0
M  V30 1178 C 113.905 -0.365502 1.91544 0
M  V30 1179 O 113.175 -1.25985 1.50015 0
M  V30 1180 H 111.755 0.402128 0.629525 0
M  V30 1181 H 114.417 1.57214 1.15194 0
M  V30 1182 H 113.513 1.60046 2.6794 0
M  V30 1183 N 113.814 -1.1601 1.06675 0
M  V30 1184 C 115.063 -1.85973 0.780818 0
M  V30 1185 C 115.376 -1.82819 -0.695444 0
M  V30 1186 O 116.582 -2.484 -1.09589 0
M  V30 1187 C 115.038 -3.33757 1.34665 0
M  V30 1188 C 114.646 -3.45374 2.85343 0
M  V30 1189 C 116.39 -4.0895 1.13843 0
M  V30 1190 C 114.297 -4.87266 3.35151 0
M  V30 1191 H 113.227 -0.696661 0.288407 0
M  V30 1192 H 115.878 -1.30903 1.28595 0
M  V30 1193 H 114.26 -3.88456 0.769274 0
M  V30 1194 H 115.434 -3.00816 3.49065 0
M  V30 1195 H 113.749 -2.83619 3.04876 0
M  V30 1196 H 116.346 -5.13654 1.4854 0
M  V30 1197 H 116.689 -4.16229 0.0770282 0
M  V30 1198 H 117.222 -3.605 1.68179 0
M  V30 1199 H 113.961 -4.85168 4.40786 0
M  V30 1200 H 113.481 -5.32433 2.76179 0
M  V30 1201 H 115.16 -5.56097 3.30704 0
M  V30 1202 N 115.292 -0.849877 -1.32721 0
M  V30 1203 C 116.202 -0.293791 -2.32753 0
M  V30 1204 C 117.218 0.585906 -1.63839 0
M  V30 1205 O 118.394 0.487413 -1.95413 0
M  V30 1206 C 115.459 0.512752 -3.42887 0
M  V30 1207 C 114.52 -0.39252 -4.27502 0
M  V30 1208 C 113.753 0.375625 -5.32377 0
M  V30 1209 O 113.976 1.60613 -5.4732 0
M  V30 1210 O 112.91 -0.256094 -6.01355 0
M  V30 1211 H 116.736 -1.12242 -2.82197 0
M  V30 1212 H 114.321 -0.612685 -1.36259 0
M  V30 1213 H 116.203 0.970704 -4.10067 0
M  V30 1214 H 114.878 1.31826 -2.95641 0
M  V30 1215 H 113.785 -0.898547 -3.63149 0
M  V30 1216 H 115.118 -1.16309 -4.7826 0
M  V30 1217 N 116.77 1.45427 -0.607355 0
M  V30 1218 C 117.733 2.28974 0.101693 0
M  V30 1219 C 118.733 1.39754 0.795329 0
M  V30 1220 O 119.923 1.61878 0.643527 0
M  V30 1221 C 117.055 3.20768 1.15414 0
M  V30 1222 H 118.248 2.93147 -0.632844 0
M  V30 1223 H 115.801 1.51945 -0.366391 0
M  V30 1224 H 116.536 2.61395 1.91945 0
M  V30 1225 H 116.321 3.86489 0.66098 0
M  V30 1226 H 117.811 3.83589 1.65073 0
M  V30 1227 N 118.248 0.346503 1.53744 0
M  V30 1228 C 119.659 -0.136779 1.86198 0
M  V30 1229 C 120.01 -1.49749 1.26766 0
M  V30 1230 O 119.135 -2.08417 0.582355 0
M  V30 1231 C 119.73 -0.254966 3.37839 0
M  V30 1232 C 118.289 -0.682482 3.70161 0
M  V30 1233 C 117.436 0.181981 2.76702 0
M  V30 1234 H 120.387 0.565994 1.48264 0
M  V30 1235 H 120.408 -1.08195 3.64793 0
M  V30 1236 H 119.92 0.735526 3.81066 0
M  V30 1237 H 118.021 -1.68189 3.3248 0
M  V30 1238 H 118.134 -0.470326 4.76786 0
M  V30 1239 H 116.498 -0.34615 2.52337 0
M  V30 1240 H 117.281 1.16966 3.2276 0
M  V30 1241 N 119.726 -1.57421 0.075193 0
M  V30 1242 C 120.975 -1.92794 -0.592731 0
M  V30 1243 C 121.288 -0.957478 -1.70563 0
M  V30 1244 O 122.494 -1.20417 -2.43335 0
M  V30 1245 C 120.95 -3.42495 -1.10569 0
M  V30 1246 C 120.558 -4.47994 -0.0236121 0
M  V30 1247 C 122.302 -3.86864 -1.74748 0
M  V30 1248 C 120.209 -5.88829 -0.550803 0
M  V30 1249 H 119.139 -0.719591 -0.225177 0
M  V30 1250 H 121.79 -1.82902 0.147978 0
M  V30 1251 H 120.172 -3.47471 -1.89947 0
M  V30 1252 H 121.346 -4.54637 0.751099 0
M  V30 1253 H 119.661 -4.13113 0.522159 0
M  V30 1254 H 122.258 -4.8947 -2.15229 0
M  V30 1255 H 122.601 -3.24417 -2.60882 0
M  V30 1256 H 123.134 -3.84504 -1.01986 0
M  V30 1257 H 119.873 -6.54929 0.273457 0
M  V30 1258 H 119.393 -5.85698 -1.29296 0
M  V30 1259 H 121.072 -6.38811 -1.02613 0
M  V30 1260 N 121.204 0.198386 -1.56346 0
M  V30 1261 C 122.134 1.24865 -1.9731 0
M  V30 1262 C 123.115 1.47651 -0.844576 0
M  V30 1263 O 124.3 1.59444 -1.10866 0
M  V30 1264 C 121.43 2.59358 -2.30977 0
M  V30 1265 C 120.384 2.5119 -3.46537 0
M  V30 1266 C 119.71 3.89926 -3.65871 0
M  V30 1267 C 121.01 2.03977 -4.80823 0
M  V30 1268 H 122.704 0.908252 -2.85291 0
M  V30 1269 H 120.25 0.435462 -1.37258 0
M  V30 1270 H 122.203 3.33011 -2.58228 0
M  V30 1271 H 120.927 2.95132 -1.39874 0
M  V30 1272 H 119.586 1.79993 -3.19371 0
M  V30 1273 H 119.234 4.23046 -2.72105 0
M  V30 1274 H 118.934 3.85336 -4.4361 0
M  V30 1275 H 120.458 4.65205 -3.95495 0
M  V30 1276 H 121.872 2.67386 -5.07127 0
M  V30 1277 H 120.269 2.10397 -5.62008 0
M  V30 1278 H 121.339 0.992861 -4.74626 0
M  V30 1279 N 122.682 1.50554 0.465978 0
M  V30 1280 C 123.928 1.62038 1.21949 0
M  V30 1281 C 124.261 0.322116 1.9151 0
M  V30 1282 O 123.536 -0.676723 1.82348 0
M  V30 1283 C 123.819 2.80421 2.25912 0
M  V30 1284 C 123.672 4.20144 1.60622 0
M  V30 1285 C 124.991 2.94354 3.27176 0
M  V30 1286 H 122.11 0.589752 0.441998 0
M  V30 1287 H 124.752 1.82956 0.51257 0
M  V30 1288 H 122.902 2.62717 2.86203 0
M  V30 1289 H 124.574 4.49449 1.03889 0
M  V30 1290 H 122.817 4.24165 0.909211 0
M  V30 1291 H 123.488 4.98914 2.36196 0
M  V30 1292 H 125.964 3.10578 2.76913 0
M  V30 1293 H 124.84 3.788 3.97242 0
M  V30 1294 H 125.101 2.05186 3.916 0
M  V30 1295 N 124.16 -0.719506 1.40217 0
M  V30 1296 C 125.09 -1.8465 1.42922 0
M  V30 1297 C 126.071 -1.67599 0.29062 0
M  V30 1298 O 127.256 -1.87688 0.498677 0
M  V30 1299 C 124.386 -3.22565 1.28722 0
M  V30 1300 C 123.34 -3.54281 2.40144 0
M  V30 1301 C 122.666 -4.91298 2.11023 0
M  V30 1302 C 123.966 -3.55676 3.82481 0
M  V30 1303 H 125.66 -1.82644 2.37237 0
M  V30 1304 H 123.206 -0.877305 1.1419 0
M  V30 1305 H 125.159 -4.01095 1.29232 0
M  V30 1306 H 123.883 -3.25137 0.308811 0
M  V30 1307 H 122.542 -2.78088 2.38877 0
M  V30 1308 H 122.19 -4.90468 1.11582 0
M  V30 1309 H 121.89 -5.13485 2.8567 0
M  V30 1310 H 123.414 -5.72166 2.13209 0
M  V30 1311 H 124.828 -4.24254 3.85592 0
M  V30 1312 H 123.225 -3.89388 4.56614 0
M  V30 1313 H 124.295 -2.55144 4.12346 0
M  V30 1314 N 125.638 -1.25649 -0.95132 0
M  V30 1315 C 126.886 -1.10375 -1.69298 0
M  V30 1316 C 127.207 0.355339 -1.91735 0
M  V30 1317 O 126.477 1.25188 -1.50681 0
M  V30 1318 H 125.057 -0.405461 -0.627384 0
M  V30 1319 H 127.719 -1.57823 -1.14358 0
M  V30 1320 H 126.815 -1.61465 -2.67087 0
M  V30 1321 N 127.117 1.15442 -1.07289 0
M  V30 1322 C 128.08 2.18358 -0.696591 0
M  V30 1323 C 129.08 1.58637 0.262837 0
M  V30 1324 O 130.27 1.74145 0.0438809 0
M  V30 1325 C 127.402 3.4089 -0.0266151 0
M  V30 1326 H 128.595 2.53162 -1.60776 0
M  V30 1327 H 126.148 1.29893 -0.869342 0
M  V30 1328 H 126.883 3.11653 0.896822 0
M  V30 1329 H 126.668 3.85495 -0.716657 0
M  V30 1330 H 128.158 4.17009 0.222028 0
M  V30 1331 N 128.595 0.856903 1.32268 0
M  V30 1332 C 129.82 0.474569 2.01897 0
M  V30 1333 C 130.245 -0.921766 1.63967 0
M  V30 1334 O 129.603 -1.60589 0.84148 0
M  V30 1335 C 129.651 0.623799 3.55164 0
M  V30 1336 O 128.755 -0.342459 4.10976 0
M  V30 1337 H 128.096 0.190422 0.63611 0
M  V30 1338 H 130.626 1.15672 1.68764 0
M  V30 1339 H 130.636 0.512169 4.04773 0
M  V30 1340 H 129.311 1.64202 3.82113 0
M  V30 1341 H 127.888 -0.18688 3.72431 0
M  V30 1342 N 130.073 -1.45103 0.615059 0
M  V30 1343 C 131.489 -1.57137 0.279322 0
M  V30 1344 C 131.689 -1.60523 -1.21797 0
M  V30 1345 O 130.745 -1.53956 -2.00134 0
M  V30 1346 C 132.058 -2.85062 0.957083 0
M  V30 1347 C 133.606 -2.98749 0.933706 0
M  V30 1348 C 134.081 -4.29455 1.59162 0
M  V30 1349 N 135.572 -4.36231 1.55746 0
M  V30 1350 C 136.307 -5.36051 2.0356 0
M  V30 1351 N 135.803 -6.42367 2.59494 0
M  V30 1352 N 137.596 -5.27456 1.94284 0
M  V30 1353 H 129.747 -1.41148 1.58717 0
M  V30 1354 H 132.01 -0.675331 0.665306 0
M  V30 1355 H 131.716 -2.88488 2.01166 0
M  V30 1356 H 131.59 -3.7407 0.48494 0
M  V30 1357 H 133.977 -2.94886 -0.112347 0
M  V30 1358 H 134.058 -2.11132 1.44419 0
M  V30 1359 H 133.702 -4.34077 2.63704 0
M  V30 1360 H 133.632 -5.15901 1.0561 0
M  V30 1361 H 136.123 -3.60011 1.14893 0
M  V30 1362 H 136.436 -7.14793 2.93752 0
M  V30 1363 H 134.781 -6.43097 2.63537 0
M  V30 1364 H 137.972 -4.43308 1.5032 0
M  V30 1365 H 138.145 -6.05099 2.3186 0
M  V30 1366 N 131.551 -0.354651 -1.53558 0
M  V30 1367 C 132.962 0.126902 -1.86268 0
M  V30 1368 C 133.313 1.49075 -1.27558 0
M  V30 1369 O 132.438 2.08105 -0.5934 0
M  V30 1370 C 133.033 0.237046 -3.3797 0
M  V30 1371 C 131.592 0.662842 -3.70518 0
M  V30 1372 C 130.739 -0.196652 -2.76602 0
M  V30 1373 H 133.69 -0.573849 -1.47962 0
M  V30 1374 H 133.711 1.06259 -3.65362 0
M  V30 1375 H 133.223 -0.755725 -3.80671 0
M  V30 1376 H 131.324 1.66424 -3.33367 0
M  V30 1377 H 131.437 0.445034 -4.77029 0
M  V30 1378 H 129.801 0.332763 -2.52517 0
M  V30 1379 H 130.584 -1.18676 -3.22135 0
M  V30 1380 N 133.029 1.57378 -0.0835403 0
M  V30 1381 C 133.992 2.12252 0.864959 0
M  V30 1382 C 134.992 1.04916 1.21858 0
M  V30 1383 O 136.182 1.30853 1.14991 0
M  V30 1384 C 133.314 2.63358 2.16461 0
M  V30 1385 H 134.507 2.97371 0.388676 0
M  V30 1386 H 132.06 1.55423 0.165317 0
M  V30 1387 H 132.795 1.81727 2.686 0
M  V30 1388 H 132.58 3.41826 1.92087 0
M  V30 1389 H 134.07 3.05847 2.84337 0
M  V30 1390 N 134.507 -0.190092 1.56449 0
M  V30 1391 C 135.784 -0.935886 1.71757 0
M  V30 1392 C 136.164 -2.01173 0.639726 0
M  V30 1393 O 135.512 -2.25827 -0.348502 0
M  V30 1394 C 135.722 -1.51775 3.1427 0
M  V30 1395 C 137.07 -1.99794 3.74656 0
M  V30 1396 O 138.094 -1.61607 3.1743 0
M  V30 1397 O 136.953 -2.70079 4.751 0
M  V30 1398 H 134.047 -0.439229 0.700719 0
M  V30 1399 H 136.593 -0.179395 1.68749 0
M  V30 1400 H 135.365 -0.742505 3.84191 0
M  V30 1401 H 134.988 -2.33894 3.21527 0
M  V30 1402 N 135.985 -1.50799 -0.457987 0
M  V30 1403 C 136.948 -1.7005 -1.53674 0
M  V30 1404 C 137.948 -0.570881 -1.50325 0
M  V30 1405 O 139.138 -0.838126 -1.52712 0
M  V30 1406 C 136.27 -1.73788 -2.93276 0
M  V30 1407 H 137.463 -2.66306 -1.37917 0
M  V30 1408 H 135.016 -1.40477 -0.685271 0
M  V30 1409 H 135.751 -0.792717 -3.14462 0
M  V30 1410 H 135.536 -2.55864 -2.97113 0
M  V30 1411 H 137.026 -1.90591 -3.71571 0
M  V30 1412 N 137.463 0.71206 -1.40597 0
M  V30 1413 C 138.426 1.80785 -1.40888 0
M  V30 1414 C 139.426 1.57937 -0.302103 0
M  V30 1415 O 140.616 1.64913 -0.561182 0
M  V30 1416 C 137.748 3.18927 -1.20409 0
M  V30 1417 H 138.941 1.81924 -2.38419 0
M  V30 1418 H 136.494 0.91805 -1.26497 0
M  V30 1419 H 137.229 3.23436 -0.236522 0
M  V30 1420 H 137.014 3.36911 -2.00582 0
M  V30 1421 H 138.504 3.98949 -1.23408 0
M  V30 1422 N 138.941 1.26152 0.944643 0
M  V30 1423 C 139.871 1.09902 2.06019 0
M  V30 1424 C 140.852 0.00519538 1.70099 0
M  V30 1425 O 142.037 0.176583 1.93396 0
M  V30 1426 C 139.167 0.727562 3.39594 0
M  V30 1427 C 138.121 1.77274 3.89561 0
M  V30 1428 C 137.447 1.25569 5.19747 0
M  V30 1429 C 138.747 3.17357 4.14827 0
M  V30 1430 H 140.441 2.03217 2.19871 0
M  V30 1431 H 137.987 0.978452 1.05652 0
M  V30 1432 H 139.94 0.600777 4.17095 0
M  V30 1433 H 138.664 -0.241287 3.25707 0
M  V30 1434 H 137.323 1.88814 3.14237 0
M  V30 1435 H 136.971 0.276783 5.02238 0
M  V30 1436 H 136.671 1.95433 5.54148 0
M  V30 1437 H 138.195 1.1415 5.99835 0
M  V30 1438 H 139.609 3.08914 4.82954 0
M  V30 1439 H 138.006 3.84781 4.60504 0
M  V30 1440 H 139.076 3.63673 3.20734 0
M  V30 1441 N 140.419 -1.14872 1.07899 0
M  V30 1442 C 141.382 -2.17986 0.708161 0
M  V30 1443 C 142.382 -1.58775 -0.25442 0
M  V30 1444 O 143.572 -1.74166 -0.034645 0
M  V30 1445 C 140.704 -3.40871 0.0446929 0
M  V30 1446 H 141.897 -2.52306 1.62116 0
M  V30 1447 H 139.45 -1.2943 0.876218 0
M  V30 1448 H 140.185 -3.12124 -0.880281 0
M  V30 1449 H 139.97 -3.8511 0.737091 0
M  V30 1450 H 141.46 -4.17121 -0.19991 0
M  V30 1451 N 141.898 -0.863906 -1.31812 0
M  V30 1452 C 142.861 -0.320212 -2.26952 0
M  V30 1453 C 143.861 0.525369 -1.51975 0
M  V30 1454 O 145.051 0.335547 -1.70938 0
M  V30 1455 C 142.183 0.545919 -3.365 0
M  V30 1456 H 143.376 -1.16004 -2.76556 0
M  V30 1457 H 140.929 -0.638995 -1.42641 0
M  V30 1458 H 141.664 1.40718 -2.92179 0
M  V30 1459 H 141.449 -0.0594674 -3.92055 0
M  V30 1460 H 142.939 0.918796 -4.07367 0
M  V30 1461 N 143.376 1.44774 -0.622745 0
M  V30 1462 C 144.308 2.28856 0.125485 0
M  V30 1463 C 145.321 1.40811 0.817069 0
M  V30 1464 O 146.51 1.65044 0.679918 0
M  V30 1465 C 143.61 3.16963 1.19949 0
M  V30 1466 C 142.783 4.33374 0.592064 0
M  V30 1467 C 141.842 5.02577 1.55893 0
M  V30 1468 O 140.868 5.58873 1.07933 0
M  V30 1469 N 142.07 5.03256 2.89334 0
M  V30 1470 H 144.835 2.93713 -0.596068 0
M  V30 1471 H 142.396 1.55129 -0.463303 0
M  V30 1472 H 144.388 3.60123 1.84644 0
M  V30 1473 H 142.958 2.53913 1.82337 0
M  V30 1474 H 142.178 3.93509 -0.233322 0
M  V30 1475 H 143.466 5.08527 0.166738 0
M  V30 1476 H 142.864 4.58836 3.30887 0
M  V30 1477 H 141.421 5.50232 3.49412 0
M  V30 1478 N 144.854 0.36279 1.53368 0
M  V30 1479 C 145.786 -0.519668 2.23231 0
M  V30 1480 C 146.799 -1.04844 1.24546 0
M  V30 1481 O 147.988 -0.955296 1.50786 0
M  V30 1482 C 145.088 -1.72995 2.9142 0
M  V30 1483 C 144.261 -1.33316 4.16588 0
M  V30 1484 C 143.32 -2.40521 4.68013 0
M  V30 1485 O 142.346 -2.03027 5.3176 0
M  V30 1486 N 143.548 -3.72065 4.45587 0
M  V30 1487 H 146.313 0.078751 2.99597 0
M  V30 1488 H 143.874 0.187833 1.60807 0
M  V30 1489 H 145.866 -2.44184 3.22733 0
M  V30 1490 H 144.436 -2.2353 2.18525 0
M  V30 1491 H 143.656 -0.451236 3.91609 0
M  V30 1492 H 144.944 -1.04432 4.97967 0
M  V30 1493 H 144.342 -4.05304 3.94646 0
M  V30 1494 H 142.899 -4.39366 4.81457 0
M  V30 1495 N 146.332 -1.57332 0.0918853 0
M  V30 1496 C 147.748 -1.57389 -0.264766 0
M  V30 1497 C 147.948 -1.10281 -1.68643 0
M  V30 1498 O 147.004 -0.777801 -2.40222 0
M  V30 1499 C 148.317 -3.00648 -0.0561195 0
M  V30 1500 C 149.865 -3.12754 -0.124116 0
M  V30 1501 C 150.34 -4.57965 0.0564972 0
M  V30 1502 N 151.831 -4.632 0.00155611 0
M  V30 1503 C 152.566 -5.73281 0.116598 0
M  V30 1504 N 152.062 -6.92208 0.286294 0
M  V30 1505 N 153.855 -5.6207 0.0580973 0
M  V30 1506 H 146.006 -1.86262 1.02079 0
M  V30 1507 H 148.269 -0.859579 0.399786 0
M  V30 1508 H 147.975 -3.393 0.925669 0
M  V30 1509 H 147.849 -3.68623 -0.799823 0
M  V30 1510 H 150.236 -2.73976 -1.09641 0
M  V30 1511 H 150.317 -2.47377 0.651024 0
M  V30 1512 H 149.961 -4.97436 1.02564 0
M  V30 1513 H 149.891 -5.21399 -0.738297 0
M  V30 1514 H 152.382 -3.77686 -0.127192 0
M  V30 1515 H 152.695 -7.71934 0.365676 0
M  V30 1516 H 151.04 -6.94254 0.32192 0
M  V30 1517 H 154.231 -4.68043 -0.0733204 0
M  V30 1518 H 154.404 -6.47824 0.151203 0
M  V30 1519 N 147.81 0.181792 -1.56548 0
M  V30 1520 C 149.059 0.898348 -1.8059 0
M  V30 1521 C 149.372 1.83862 -0.667379 0
M  V30 1522 O 150.578 2.59678 -0.792446 0
M  V30 1523 C 149.034 1.64791 -3.19956 0
M  V30 1524 C 148.642 0.751789 -4.41647 0
M  V30 1525 C 150.386 2.35331 -3.53298 0
M  V30 1526 C 148.293 1.50098 -5.72035 0
M  V30 1527 H 147.223 0.339194 -0.673397 0
M  V30 1528 H 149.874 0.151413 -1.82874 0
M  V30 1529 H 148.256 2.43921 -3.11959 0
M  V30 1530 H 149.43 -0.0018076 -4.608 0
M  V30 1531 H 147.745 0.156562 -4.16106 0
M  V30 1532 H 150.342 2.91958 -4.47956 0
M  V30 1533 H 150.685 3.10164 -2.77676 0
M  V30 1534 H 151.218 1.63154 -3.62803 0
M  V30 1535 H 147.957 0.795175 -6.50659 0
M  V30 1536 H 147.477 2.22817 -5.56878 0
M  V30 1537 H 149.156 2.05125 -6.13622 0
M  V30 1538 N 149.288 1.51039 0.449983 0
M  V30 1539 C 150.251 1.70863 1.5277 0
M  V30 1540 C 151.251 0.578846 1.5002 0
M  V30 1541 O 152.441 0.846213 1.52266 0
M  V30 1542 C 149.573 1.75341 2.9235 0
M  V30 1543 H 150.766 2.67034 1.36502 0
M  V30 1544 H 148.319 1.40838 0.677812 0
M  V30 1545 H 149.054 0.809383 3.14037 0
M  V30 1546 H 148.839 2.57436 2.95752 0
M  V30 1547 H 150.329 1.92559 3.70555 0
M  V30 1548 N 150.766 -0.704594 1.40972 0
M  V30 1549 C 151.696 -1.83124 1.44872 0
M  V30 1550 C 152.677 -1.67281 0.30838 0
M  V30 1551 O 153.862 -1.87149 0.518556 0
M  V30 1552 C 150.992 -3.21181 1.32136 0
M  V30 1553 C 149.946 -3.51714 2.43888 0
M  V30 1554 C 149.272 -4.89032 2.16222 0
M  V30 1555 C 150.572 -3.516 3.86232 0
M  V30 1556 H 152.266 -1.80117 2.39161 0
M  V30 1557 H 149.812 -0.865145 1.15114 0
M  V30 1558 H 151.765 -3.99702 1.33479 0
M  V30 1559 H 150.489 -3.24791 0.343279 0
M  V30 1560 H 149.148 -2.75539 2.41813 0
M  V30 1561 H 148.796 -4.89256 1.16778 0
M  V30 1562 H 148.496 -5.10426 2.911 0
M  V30 1563 H 150.02 -5.69873 2.19265 0
M  V30 1564 H 151.434 -4.2014 3.9007 0
M  V30 1565 H 149.831 -3.84523 4.60719 0
M  V30 1566 H 150.901 -2.50757 4.15029 0
M  V30 1567 N 152.244 -1.26651 -0.937939 0
M  V30 1568 C 153.472 -1.15173 -1.7188 0
M  V30 1569 C 153.887 0.292668 -1.86518 0
M  V30 1570 O 153.244 1.20014 -1.37488 0
M  V30 1571 C 153.295 -1.81925 -3.12387 0
M  V30 1572 O 153.016 -3.2072 -2.98446 0
M  V30 1573 C 154.517 -1.76442 -4.06673 0
M  V30 1574 H 151.737 -0.400911 -0.538063 0
M  V30 1575 H 154.281 -1.67332 -1.1756 0
M  V30 1576 H 152.436 -1.33696 -3.63599 0
M  V30 1577 H 152.85 -3.53802 -3.872 0
M  V30 1578 H 154.324 -2.27781 -5.02812 0
M  V30 1579 H 154.801 -0.731608 -4.33064 0
M  V30 1580 H 155.407 -2.24238 -3.61382 0
M  V30 1581 N 153.722 1.14298 -1.08507 0
M  V30 1582 C 154.968 1.85633 -0.816581 0
M  V30 1583 C 155.301 1.82784 0.656021 0
M  V30 1584 O 154.576 1.25926 1.48233 0
M  V30 1585 C 154.859 3.34223 -1.34041 0
M  V30 1586 C 154.712 3.45639 -2.87843 0
M  V30 1587 C 156.031 4.29356 -0.9665 0
M  V30 1588 H 153.15 0.67402 -0.298104 0
M  V30 1589 H 155.792 1.34214 -1.34487 0
M  V30 1590 H 153.942 3.78144 -0.89104 0
M  V30 1591 H 155.614 3.10498 -3.41158 0
M  V30 1592 H 153.857 2.86817 -3.25451 0
M  V30 1593 H 154.528 4.50089 -3.19569 0
M  V30 1594 H 157.004 3.93457 -1.35391 0
M  V30 1595 H 155.88 5.3178 -1.3602 0
M  V30 1596 H 156.141 4.41919 0.126362 0
M  V30 1597 N 155.201 0.870884 1.31352 0
M  V30 1598 C 156.448 0.482273 1.96673 0
M  V30 1599 C 156.776 -0.965638 1.68836 0
M  V30 1600 O 156.031 -1.69514 0.977937 0
M  V30 1601 C 156.33 0.687157 3.50732 0
M  V30 1602 C 155.996 2.108 3.9859 0
M  V30 1603 C 154.658 2.49656 4.1137 0
M  V30 1604 C 157.01 3.03459 4.23748 0
M  V30 1605 C 154.338 3.80412 4.46659 0
M  V30 1606 C 156.69 4.3373 4.60501 0
M  V30 1607 C 155.354 4.725 4.71487 0
M  V30 1608 H 154.624 0.176476 0.719679 0
M  V30 1609 H 157.271 1.10405 1.56471 0
M  V30 1610 H 155.576 -0.0177476 3.91796 0
M  V30 1611 H 157.273 0.366284 3.99324 0
M  V30 1612 H 153.863 1.79633 3.8914 0
M  V30 1613 H 158.047 2.74665 4.13368 0
M  V30 1614 H 153.303 4.1021 4.53362 0
M  V30 1615 H 157.477 5.05578 4.78919 0
M  V30 1616 H 155.104 5.73859 4.98588 0
M  V30 1617 N 156.679 -1.44442 0.630414 0
M  V30 1618 C 158.095 -1.56832 0.295973 0
M  V30 1619 C 158.295 -1.61806 -1.20088 0
M  V30 1620 O 157.351 -1.5607 -1.9849 0
M  V30 1621 C 158.664 -2.84031 0.987264 0
M  V30 1622 C 160.212 -2.97742 0.96534 0
M  V30 1623 C 160.687 -4.27743 1.63708 0
M  V30 1624 N 162.178 -4.34555 1.60364 0
M  V30 1625 C 162.913 -5.33862 2.09234 0
M  V30 1626 N 162.409 -6.39578 2.66292 0
M  V30 1627 N 164.202 -5.25366 1.99867 0
M  V30 1628 H 156.353 -1.39457 1.60205 0
M  V30 1629 H 158.616 -0.668237 0.672431 0
M  V30 1630 H 158.322 -2.86338 2.04215 0
M  V30 1631 H 158.196 -3.73534 0.524588 0
M  V30 1632 H 160.583 -2.94989 -0.0810639 0
M  V30 1633 H 160.664 -2.09589 1.4665 0
M  V30 1634 H 160.308 -4.31255 2.68293 0
M  V30 1635 H 160.238 -5.14752 1.11076 0
M  V30 1636 H 162.729 -3.58772 1.18705 0
M  V30 1637 H 163.042 -7.11637 3.01317 0
M  V30 1638 H 161.387 -6.40265 2.70343 0
M  V30 1639 H 164.578 -4.41688 1.55013 0
M  V30 1640 H 164.751 -6.02606 2.38265 0
M  V30 1641 N 158.157 -0.370918 -1.53173 0
M  V30 1642 C 159.382 0.220293 -2.06227 0
M  V30 1643 C 159.807 1.41243 -1.24225 0
M  V30 1644 O 159.165 1.79387 -0.262645 0
M  V30 1645 C 159.213 0.586663 -3.55796 0
M  V30 1646 O 158.317 1.68317 -3.76488 0
M  V30 1647 H 157.658 0.0308099 -0.663285 0
M  V30 1648 H 160.188 -0.533068 -1.97534 0
M  V30 1649 H 160.198 0.85617 -3.98916 0
M  V30 1650 H 158.873 -0.285013 -4.14922 0
M  V30 1651 H 157.45 1.40881 -3.45264 0
M  V30 1652 N 159.635 1.57281 -0.100228 0
M  V30 1653 C 160.912 1.86014 0.604812 0
M  V30 1654 C 161.292 0.998025 1.86018 0
M  V30 1655 O 160.64 0.0718184 2.28387 0
M  V30 1656 C 160.85 3.36784 0.915278 0
M  V30 1657 C 162.198 4.04957 1.27651 0
M  V30 1658 O 163.222 3.41695 1.00613 0
M  V30 1659 O 162.081 5.16593 1.7831 0
M  V30 1660 H 159.175 0.76942 0.303185 0
M  V30 1661 H 161.721 1.69176 -0.133313 0
M  V30 1662 H 160.493 3.91292 0.0248896 0
M  V30 1663 H 160.116 3.58987 1.70921 0
M  V30 1664 N 161.113 -0.173488 1.56642 0
M  V30 1665 C 162.359 -0.887108 1.83035 0
M  V30 1666 C 162.714 -1.79965 0.680461 0
M  V30 1667 O 162.007 -1.88854 -0.323225 0
M  V30 1668 C 162.201 -1.72069 3.13252 0
M  V30 1669 C 162.03 -0.89035 4.40798 0
M  V30 1670 C 160.8 -0.566282 5.02117 0
M  V30 1671 C 162.998 -0.232921 5.13772 0
M  V30 1672 N 160.98 0.280427 6.13259 0
M  V30 1673 C 162.351 0.475046 6.18177 0
M  V30 1674 C 164.406 -0.150863 4.97671 0
M  V30 1675 C 163.109 1.25729 7.08227 0
M  V30 1676 C 165.135 0.618039 5.88162 0
M  V30 1677 C 164.497 1.31438 6.92029 0
M  V30 1678 H 160.596 -0.303303 0.720785 0
M  V30 1679 H 163.18 -0.154244 1.94088 0
M  V30 1680 H 161.351 -2.42499 3.03395 0
M  V30 1681 H 163.083 -2.37545 3.2765 0
M  V30 1682 H 159.838 -0.895852 4.6505 0
M  V30 1683 H 160.262 0.694027 6.73433 0
M  V30 1684 H 164.904 -0.674868 4.17379 0
M  V30 1685 H 162.622 1.79265 7.87966 0
M  V30 1686 H 166.208 0.683173 5.77775 0
M  V30 1687 H 165.088 1.89981 7.6084 0
M  V30 1688 N 162.591 -1.51276 -0.441967 0
M  V30 1689 C 163.521 -1.752 -1.54361 0
M  V30 1690 C 164.502 -0.601682 -1.59103 0
M  V30 1691 O 165.687 -0.843913 -1.74905 0
M  V30 1692 C 162.817 -1.87282 -2.92477 0
M  V30 1693 C 161.771 -3.02687 -3.02596 0
M  V30 1694 C 161.097 -2.99947 -4.42647 0
M  V30 1695 C 162.397 -4.4273 -2.77106 0
M  V30 1696 H 164.091 -2.67442 -1.34592 0
M  V30 1697 H 161.637 -1.28694 -0.646048 0
M  V30 1698 H 163.59 -2.02602 -3.695 0
M  V30 1699 H 162.314 -0.916844 -3.13467 0
M  V30 1700 H 160.973 -2.87065 -2.28012 0
M  V30 1701 H 160.621 -2.02136 -4.60597 0
M  V30 1702 H 160.321 -3.77439 -4.50348 0
M  V30 1703 H 161.845 -3.17354 -5.2165 0
M  V30 1704 H 163.259 -4.58727 -3.43864 0
M  V30 1705 H 161.656 -5.21893 -2.96222 0
M  V30 1706 H 162.726 -4.53087 -1.72744 0
M  V30 1707 N 164.069 0.697108 -1.41344 0
M  V30 1708 C 164.979 1.84088 -1.45427 0
M  V30 1709 C 165.995 1.70545 -0.34501 0
M  V30 1710 O 167.171 1.92488 -0.592492 0
M  V30 1711 C 164.236 3.20056 -1.33286 0
M  V30 1712 C 163.297 3.45718 -2.54514 0
M  V30 1713 C 162.53 4.75199 -2.42944 0
M  V30 1714 O 162.753 5.51579 -1.45318 0
M  V30 1715 O 161.687 5.0161 -3.32672 0
M  V30 1716 H 165.513 1.836 -2.41919 0
M  V30 1717 H 163.098 0.849966 -1.22866 0
M  V30 1718 H 164.98 4.01236 -1.28794 0
M  V30 1719 H 163.655 3.2123 -0.39909 0
M  V30 1720 H 162.562 2.64474 -2.64583 0
M  V30 1721 H 163.895 3.49356 -3.46715 0
M  V30 1722 N 165.547 1.27147 0.931209 0
M  V30 1723 C 166.457 1.11372 2.06478 0
M  V30 1724 C 167.473 0.044645 1.73943 0
M  V30 1725 O 168.649 0.250417 1.99837 0
M  V30 1726 C 165.714 0.758838 3.38294 0
M  V30 1727 C 164.775 1.90841 3.84549 0
M  V30 1728 C 164.008 1.57036 5.10074 0
M  V30 1729 O 164.231 0.476645 5.68405 0
M  V30 1730 O 163.165 2.40839 5.51616 0
M  V30 1731 H 166.991 2.06493 2.22698 0
M  V30 1732 H 164.576 1.06301 1.04978 0
M  V30 1733 H 166.458 0.574098 4.17471 0
M  V30 1734 H 165.133 -0.162879 3.2329 0
M  V30 1735 H 164.04 2.14819 3.06274 0
M  V30 1736 H 165.373 2.81021 4.04089 0
M  V30 1737 N 167.025 -1.13721 1.09112 0
M  V30 1738 C 167.988 -2.17222 0.731241 0
M  V30 1739 C 168.988 -1.59035 -0.237566 0
M  V30 1740 O 170.178 -1.74192 -0.0161704 0
M  V30 1741 C 167.31 -3.40804 0.0808443 0
M  V30 1742 H 168.503 -2.50573 1.64783 0
M  V30 1743 H 166.056 -1.28493 0.889897 0
M  V30 1744 H 166.791 -3.1304 -0.847127 0
M  V30 1745 H 166.576 -3.84306 0.777896 0
M  V30 1746 H 168.066 -4.1731 -0.155657 0
M  V30 1747 N 168.503 -0.877838 -1.30888 0
M  V30 1748 C 169.728 -0.506629 -2.01117 0
M  V30 1749 C 170.153 0.895564 -1.65412 0
M  V30 1750 O 169.511 1.5923 -0.866922 0
M  V30 1751 C 169.559 -0.680223 -3.54126 0
M  V30 1752 O 168.663 0.277033 -4.11468 0
M  V30 1753 H 168.004 -0.200518 -0.633 0
M  V30 1754 H 170.534 -1.18342 -1.66902 0
M  V30 1755 H 170.544 -0.5765 -4.03907 0
M  V30 1756 H 169.219 -1.70261 -3.79452 0
M  V30 1757 H 167.796 0.127606 -3.72682 0
M  V30 1758 N 169.982 1.44106 -0.638065 0
M  V30 1759 C 170.945 2.29138 0.0531013 0
M  V30 1760 C 171.945 1.41409 0.765506 0
M  V30 1761 O 173.135 1.63206 0.609046 0
M  V30 1762 C 170.267 3.23144 1.08584 0
M  V30 1763 H 171.46 2.91739 -0.694883 0
M  V30 1764 H 169.013 1.51134 -0.398538 0
M  V30 1765 H 169.748 2.65408 1.86357 0
M  V30 1766 H 169.533 3.87804 0.578852 0
M  V30 1767 H 171.023 3.87004 1.56899 0
M  V30 1768 N 171.46 0.379036 1.52974 0
M  V30 1769 C 172.39 -0.452706 2.29069 0
M  V30 1770 C 173.371 -1.07237 1.32039 0
M  V30 1771 O 174.556 -1.08708 1.60923 0
M  V30 1772 C 171.686 -1.5856 3.08992 0
M  V30 1773 C 170.64 -1.0925 4.13822 0
M  V30 1774 C 169.966 -2.31668 4.81907 0
M  V30 1775 C 171.266 -0.167702 5.22031 0
M  V30 1776 H 172.96 0.182181 2.98845 0
M  V30 1777 H 170.506 0.0890592 1.43724 0
M  V30 1778 H 172.459 -2.1742 3.6098 0
M  V30 1779 H 171.183 -2.24792 2.36931 0
M  V30 1780 H 169.842 -0.526494 3.628 0
M  V30 1781 H 169.49 -2.96386 4.06404 0
M  V30 1782 H 169.19 -1.9934 5.52754 0
M  V30 1783 H 170.714 -2.91189 5.36695 0
M  V30 1784 H 172.128 -0.664186 5.6944 0
M  V30 1785 H 170.525 0.0653265 6.00064 0
M  V30 1786 H 171.595 0.786347 4.78482 0
M  V30 1787 N 172.938 -1.57226 0.108567 0
M  V30 1788 C 174.168 -1.9889 -0.559142 0
M  V30 1789 C 174.576 -0.986889 -1.61422 0
M  V30 1790 O 173.919 0.0298705 -1.83676 0
M  V30 1791 C 173.981 -3.36952 -1.25315 0
M  V30 1792 C 173.645 -4.55679 -0.347248 0
M  V30 1793 C 174.642 -5.18281 0.409996 0
M  V30 1794 C 172.327 -5.0162 -0.261367 0
M  V30 1795 C 174.321 -6.25203 1.24096 0
M  V30 1796 C 172.008 -6.08405 0.573238 0
M  V30 1797 C 173.006 -6.70063 1.32304 0
M  V30 1798 O 172.694 -7.74788 2.14381 0
M  V30 1799 H 172.426 -0.658343 -0.153492 0
M  V30 1800 H 174.98 -2.04532 0.188584 0
M  V30 1801 H 173.21 -3.28032 -2.04773 0
M  V30 1802 H 174.899 -3.62974 -1.81673 0
M  V30 1803 H 175.665 -4.8371 0.353457 0
M  V30 1804 H 171.544 -4.53381 -0.834656 0
M  V30 1805 H 175.088 -6.73259 1.82669 0
M  V30 1806 H 170.985 -6.42406 0.631208 0
M  V30 1807 H 171.753 -7.91837 2.07209 0
M  V30 1808 N 174.416 0.165178 -1.56732 0
M  V30 1809 C 175.641 0.900253 -1.86843 0
M  V30 1810 C 176.066 1.74766 -0.695596 0
M  V30 1811 O 175.424 1.77786 0.35522 0
M  V30 1812 C 175.472 1.74777 -3.15413 0
M  V30 1813 O 174.576 2.85007 -2.98068 0
M  V30 1814 H 173.917 0.251832 -0.614391 0
M  V30 1815 H 176.447 0.161468 -2.03962 0
M  V30 1816 H 176.457 2.14646 -3.46974 0
M  V30 1817 H 175.132 1.12537 -4.00385 0
M  V30 1818 H 173.709 2.48676 -2.77875 0
M  V30 1819 N 175.894 1.51508 0.433938 0
M  V30 1820 C 177.142 1.6402 1.18075 0
M  V30 1821 C 177.463 0.360328 1.91642 0
M  V30 1822 O 176.733 -0.623945 1.85698 0
M  V30 1823 H 175.313 0.6045 0.43885 0
M  V30 1824 H 177.975 1.88452 0.497178 0
M  V30 1825 H 177.071 2.46949 1.90847 0
M  V30 1826 N 177.372 -0.689602 1.41712 0
M  V30 1827 C 178.783 -1.26973 1.36875 0
M  V30 1828 C 179.134 -1.96124 0.054748 0
M  V30 1829 O 178.259 -1.99141 -0.84687 0
M  V30 1830 C 178.854 -2.30912 2.47922 0
M  V30 1831 C 177.413 -2.84486 2.46464 0
M  V30 1832 C 176.56 -1.58603 2.27465 0
M  V30 1833 H 179.511 -0.48396 1.51141 0
M  V30 1834 H 179.532 -3.12331 2.17323 0
M  V30 1835 H 179.044 -1.80554 3.43543 0
M  V30 1836 H 177.145 -3.39005 1.54617 0
M  V30 1837 H 177.258 -3.34511 3.42986 0
M  V30 1838 H 175.622 -1.84632 1.75451 0
M  V30 1839 H 176.405 -1.10233 3.25121 0
M  V30 1840 N 178.85 -1.27639 -0.924453 0
M  V30 1841 C 180.097 -1.14167 -1.67249 0
M  V30 1842 C 180.425 0.311863 -1.91984 0
M  V30 1843 O 179.68 1.24425 -1.51053 0
M  V30 1844 C 179.979 -1.87407 -3.04325 0
M  V30 1845 C 179.645 -3.37249 -2.99289 0
M  V30 1846 C 178.307 -3.7812 -2.97622 0
M  V30 1847 C 180.659 -4.32845 -2.90336 0
M  V30 1848 C 177.987 -5.12944 -2.8479 0
M  V30 1849 C 180.339 -5.6773 -2.79045 0
M  V30 1850 C 179.003 -6.07889 -2.7573 0
M  V30 1851 H 178.273 -0.417766 -0.612007 0
M  V30 1852 H 180.92 -1.58286 -1.07786 0
M  V30 1853 H 179.225 -1.35805 -3.67511 0
M  V30 1854 H 180.922 -1.74408 -3.61086 0
M  V30 1855 H 177.512 -3.04748 -3.01374 0
M  V30 1856 H 181.696 -4.02239 -2.90719 0
M  V30 1857 H 176.952 -5.432 -2.80612 0
M  V30 1858 H 181.126 -6.41472 -2.71083 0
M  V30 1859 H 178.753 -7.12314 -2.65544 0
M  V30 1860 N 180.328 1.1314 -1.09713 0
M  V30 1861 C 181.739 1.66029 -0.853885 0
M  V30 1862 C 182.09 1.86241 0.617142 0
M  V30 1863 O 181.215 1.5834 1.47503 0
M  V30 1864 C 181.81 3.01599 -1.5435 0
M  V30 1865 C 180.369 3.51467 -1.34714 0
M  V30 1866 C 179.516 2.26648 -1.59769 0
M  V30 1867 H 182.467 0.970226 -1.25588 0
M  V30 1868 H 182.488 3.67709 -0.978267 0
M  V30 1869 H 182 2.86856 -2.6141 0
M  V30 1870 H 180.101 3.71408 -0.297838 0
M  V30 1871 H 180.214 4.314 -2.08401 0
M  V30 1872 H 178.578 2.33385 -1.01998 0
M  V30 1873 H 179.361 2.14467 -2.68065 0
M  V30 1874 N 181.806 0.884767 1.30421 0
M  V30 1875 C 183.055 0.499164 1.95426 0
M  V30 1876 C 183.368 -0.95645 1.70621 0
M  V30 1877 O 184.574 -1.44889 2.29607 0
M  V30 1878 C 183.03 0.84177 3.49917 0
M  V30 1879 C 182.638 2.31514 3.83543 0
M  V30 1880 C 184.382 0.525355 4.21237 0
M  V30 1881 C 182.289 2.59939 5.31212 0
M  V30 1882 H 181.219 0.182944 0.73147 0
M  V30 1883 H 183.87 1.07971 1.48373 0
M  V30 1884 H 182.252 0.190311 3.95542 0
M  V30 1885 H 183.426 3.0109 3.48829 0
M  V30 1886 H 181.741 2.59907 3.25326 0
M  V30 1887 H 184.338 0.714762 5.29901 0
M  V30 1888 H 184.681 -0.535222 4.12845 0
M  V30 1889 H 185.214 1.134 3.81294 0
M  V30 1890 H 181.953 3.64736 5.44654 0
M  V30 1891 H 181.473 1.94972 5.67227 0
M  V30 1892 H 183.152 2.45429 5.98643 0
M  V30 1893 N 183.284 -1.43765 0.645699 0
M  V30 1894 C 184.234 -2.27884 -0.0726442 0
M  V30 1895 C 185.218 -1.39483 -0.802086 0
M  V30 1896 O 186.41 -1.63174 -0.685791 0
M  V30 1897 C 183.539 -3.27055 -1.04356 0
M  V30 1898 C 182.625 -4.22944 -0.312985 0
M  V30 1899 N 183.016 -5.01391 0.666386 0
M  V30 1900 C 181.314 -4.42528 -0.55546 0
M  V30 1901 C 182.015 -5.71217 1.09935 0
M  V30 1902 N 180.991 -5.41856 0.435137 0
M  V30 1903 H 184.793 -2.85949 0.678988 0
M  V30 1904 H 182.307 -1.55378 0.472368 0
M  V30 1905 H 184.304 -3.86089 -1.57292 0
M  V30 1906 H 182.964 -2.70551 -1.79534 0
M  V30 1907 H 183.975 -5.07252 1.04481 0
M  V30 1908 H 180.652 -3.97104 -1.28899 0
M  V30 1909 H 182.042 -6.44202 1.90929 0
M  V30 1910 N 184.763 -0.387143 -1.52771 0
M  V30 1911 C 186.01 0.195735 -2.01552 0
M  V30 1912 C 186.338 1.46995 -1.27369 0
M  V30 1913 O 185.593 1.92325 -0.361879 0
M  V30 1914 C 185.892 0.512209 -3.53711 0
M  V30 1915 C 185.558 -0.670202 -4.45891 0
M  V30 1916 C 184.22 -0.994586 -4.70809 0
M  V30 1917 C 186.572 -1.46134 -5.00294 0
M  V30 1918 C 183.9 -2.11169 -5.4738 0
M  V30 1919 C 186.252 -2.56903 -5.78086 0
M  V30 1920 C 184.916 -2.89852 -6.01284 0
M  V30 1921 H 184.186 0.0716246 -0.73753 0
M  V30 1922 H 186.833 -0.524046 -1.8419 0
M  V30 1923 H 185.138 1.31329 -3.69134 0
M  V30 1924 H 186.835 0.975804 -3.88946 0
M  V30 1925 H 183.425 -0.407366 -4.2666 0
M  V30 1926 H 187.609 -1.22397 -4.80971 0
M  V30 1927 H 182.865 -2.3707 -5.63567 0
M  V30 1928 H 187.039 -3.18608 -6.19243 0
M  V30 1929 H 184.666 -3.76533 -6.60399 0
M  V30 1930 N 186.241 1.57166 -0.116904 0
M  V30 1931 C 187.191 2.11756 0.845178 0
M  V30 1932 C 188.175 1.03783 1.22955 0
M  V30 1933 O 189.367 1.3002 1.20099 0
M  V30 1934 C 186.496 2.71886 2.09602 0
M  V30 1935 C 185.582 3.86937 1.7361 0
M  V30 1936 N 185.973 4.94073 1.08284 0
M  V30 1937 C 184.271 3.97082 2.03082 0
M  V30 1938 C 184.972 5.74477 0.913855 0
M  V30 1939 N 183.948 5.2423 1.43818 0
M  V30 1940 H 187.75 2.91967 0.336523 0
M  V30 1941 H 185.264 1.62174 0.0856332 0
M  V30 1942 H 187.261 3.09338 2.79492 0
M  V30 1943 H 185.921 1.93138 2.61013 0
M  V30 1944 H 186.932 5.12483 0.747067 0
M  V30 1945 H 183.609 3.29372 2.56554 0
M  V30 1946 H 184.999 6.70701 0.40125 0
M  V30 1947 N 187.719 -0.156864 1.56817 0
M  V30 1948 C 188.649 -1.19589 2.00551 0
M  V30 1949 C 189.63 -1.4536 0.883426 0
M  V30 1950 O 190.815 -1.56449 1.15054 0
M  V30 1951 C 187.945 -2.53143 2.37773 0
M  V30 1952 C 186.899 -2.41913 3.53075 0
M  V30 1953 C 186.225 -3.80088 3.76081 0
M  V30 1954 C 187.525 -1.91157 4.86062 0
M  V30 1955 H 189.219 -0.832293 2.87599 0
M  V30 1956 H 186.765 -0.398918 1.38364 0
M  V30 1957 H 188.718 -3.26047 2.66967 0
M  V30 1958 H 187.442 -2.91319 1.4765 0
M  V30 1959 H 186.101 -1.71462 3.24031 0
M  V30 1960 H 185.749 -4.15683 2.83225 0
M  V30 1961 H 185.449 -3.73439 4.53671 0
M  V30 1962 H 186.973 -4.54556 4.0769 0
M  V30 1963 H 188.387 -2.53846 5.14038 0
M  V30 1964 H 186.784 -1.95422 5.67389 0
M  V30 1965 H 187.854 -0.866673 4.77092 0
M  V30 1966 N 189.197 -1.51736 -0.425897 0
M  V30 1967 C 190.144 -1.73875 -1.51776 0
M  V30 1968 C 191.114 -0.580702 -1.55618 0
M  V30 1969 O 192.299 -0.81641 -1.72451 0
M  V30 1970 C 189.439 -1.88012 -2.89388 0
M  V30 1971 C 188.552 -3.15606 -2.94986 0
M  V30 1972 C 187.687 -3.20271 -4.23793 0
M  V30 1973 C 186.726 -4.42134 -4.23302 0
M  V30 1974 N 185.863 -4.44284 -5.43651 0
M  V30 1975 H 190.703 -2.67071 -1.32201 0
M  V30 1976 H 188.24 -1.32351 -0.642008 0
M  V30 1977 H 190.198 -1.9419 -3.69251 0
M  V30 1978 H 188.828 -0.98213 -3.07496 0
M  V30 1979 H 187.88 -3.18681 -2.07717 0
M  V30 1980 H 189.192 -4.05486 -2.90486 0
M  V30 1981 H 188.346 -3.25428 -5.12036 0
M  V30 1982 H 187.085 -2.28299 -4.30965 0
M  V30 1983 H 186.09 -4.3714 -3.3345 0
M  V30 1984 H 187.315 -5.35382 -4.17783 0
M  V30 1985 H 185.261 -3.55188 -5.51523 0
M  V30 1986 H 185.178 -5.27988 -5.41078 0
M  V30 1987 H 186.446 -4.53649 -6.33895 0
M  V30 1988 N 190.675 0.682077 -1.42076 0
M  V30 1989 C 191.608 1.80666 -1.3941 0
M  V30 1990 C 192.586 1.60518 -0.25939 0
M  V30 1991 O 193.77 1.83088 -0.448456 0
M  V30 1992 C 190.897 3.17556 -1.17796 0
M  V30 1993 C 189.943 3.56468 -2.34164 0
M  V30 1994 S 190.776 3.59729 -3.96681 0
M  V30 1995 C 191.932 4.99323 -3.77395 0
M  V30 1996 H 192.165 1.82652 -2.34575 0
M  V30 1997 H 189.698 0.852062 -1.2876 0
M  V30 1998 H 191.656 3.96575 -1.06012 0
M  V30 1999 H 190.317 3.13164 -0.242279 0
M  V30 2000 H 189.51 4.5595 -2.1477 0
M  V30 2001 H 189.112 2.84792 -2.42425 0
M  V30 2002 H 191.404 5.87202 -3.37935 0
M  V30 2003 H 192.347 5.23763 -4.76527 0
M  V30 2004 H 192.755 4.71498 -3.10403 0
M  V30 2005 N 192.153 1.28127 0.917671 0
M  V30 2006 C 193.43 1.05761 1.64542 0
M  V30 2007 C 193.81 -0.404344 2.07191 0
M  V30 2008 O 193.158 -1.38963 1.81388 0
M  V30 2009 C 193.368 2.02857 2.83989 0
M  V30 2010 C 194.716 2.32786 3.551 0
M  V30 2011 O 195.74 2.0091 2.94132 0
M  V30 2012 O 194.599 2.87169 4.64969 0
M  V30 2013 H 191.693 0.403916 0.721652 0
M  V30 2014 H 194.239 1.39431 0.967322 0
M  V30 2015 H 193.011 3.01407 2.49538 0
M  V30 2016 H 192.634 1.69809 3.59514 0
M  V30 2017 N 193.631 -1.12557 1.10312 0
M  V30 2018 C 194.859 -1.87864 0.866873 0
M  V30 2019 C 195.274 -1.79588 -0.582557 0
M  V30 2020 O 194.631 -1.16887 -1.40156 0
M  V30 2021 C 194.682 -3.37125 1.30496 0
M  V30 2022 O 194.403 -3.45201 2.69755 0
M  V30 2023 C 195.904 -4.29373 1.10243 0
M  V30 2024 H 193.124 -0.594452 0.311236 0
M  V30 2025 H 195.668 -1.42429 1.46745 0
M  V30 2026 H 193.823 -3.80109 0.748081 0
M  V30 2027 H 194.237 -4.38056 2.88457 0
M  V30 2028 H 195.711 -5.32394 1.45811 0
M  V30 2029 H 196.188 -4.39181 0.0409492 0
M  V30 2030 H 196.794 -3.92169 1.64571 0
M  V30 2031 N 195.109 -0.891671 -1.2995 0
M  V30 2032 C 196.357 -0.512486 -1.95494 0
M  V30 2033 C 196.678 0.942776 -1.70695 0
M  V30 2034 O 195.948 1.66374 -1.03424 0
M  V30 2035 H 194.528 -0.186533 -0.723336 0
M  V30 2036 H 197.19 -1.13621 -1.58355 0
M  V30 2037 H 196.286 -0.688342 -3.04415 0
M  V30 2038 N 196.587 1.43421 -0.653314 0
M  V30 2039 C 197.52 2.2803 0.0879804 0
M  V30 2040 C 198.498 1.39833 0.82979 0
M  V30 2041 O 199.682 1.69275 0.829341 0
M  V30 2042 C 196.809 3.19247 1.13132 0
M  V30 2043 C 195.855 4.23704 0.487546 0
M  V30 2044 S 196.688 5.30377 -0.738961 0
M  V30 2045 C 197.844 6.25162 0.30384 0
M  V30 2046 H 198.077 2.90554 -0.629739 0
M  V30 2047 H 195.61 1.47934 -0.442156 0
M  V30 2048 H 197.568 3.72346 1.72827 0
M  V30 2049 H 196.229 2.55901 1.82136 0
M  V30 2050 H 195.422 4.87631 1.27407 0
M  V30 2051 H 195.024 3.73983 -0.0352915 0
M  V30 2052 H 197.316 6.67321 1.17 0
M  V30 2053 H 198.259 7.07463 -0.300402 0
M  V30 2054 H 198.667 5.60864 0.63969 0
M  V30 2055 N 198.065 0.39524 1.52563 0
M  V30 2056 C 199.313 -0.184678 2.01254 0
M  V30 2057 C 199.634 -1.46822 1.28329 0
M  V30 2058 O 198.904 -1.91666 0.405094 0
M  V30 2059 H 197.484 -0.0712355 0.743596 0
M  V30 2060 H 200.146 0.528293 1.87603 0
M  V30 2061 H 199.242 -0.390681 3.09645 0
M  V30 2062 N 199.544 -1.57102 0.125237 0
M  V30 2063 C 200.96 -1.57915 -0.231322 0
M  V30 2064 C 201.16 -1.13833 -1.66266 0
M  V30 2065 O 200.216 -0.828581 -2.38518 0
M  V30 2066 C 201.529 -3.00699 0.00766489 0
M  V30 2067 C 203.077 -3.12947 -0.0577483 0
M  V30 2068 C 203.552 -4.57742 0.153626 0
M  V30 2069 N 205.043 -4.63092 0.0998073 0
M  V30 2070 C 205.778 -5.72905 0.238174 0
M  V30 2071 N 205.274 -6.91445 0.433057 0
M  V30 2072 N 207.067 -5.6182 0.177308 0
M  V30 2073 H 199.218 -1.84055 1.06007 0
M  V30 2074 H 201.481 -0.850905 0.417929 0
M  V30 2075 H 201.187 -3.3726 0.997431 0
M  V30 2076 H 201.061 -3.70236 -0.721452 0
M  V30 2077 H 203.448 -2.7624 -1.03804 0
M  V30 2078 H 203.529 -2.4594 0.70335 0
M  V30 2079 H 203.173 -4.95149 1.13092 0
M  V30 2080 H 203.103 -5.22848 -0.627534 0
M  V30 2081 H 205.594 -3.77871 -0.047051 0
M  V30 2082 H 205.907 -7.70985 0.529332 0
M  V30 2083 H 204.252 -6.93415 0.469109 0
M  V30 2084 H 207.443 -4.68093 0.0259748 0
M  V30 2085 H 207.616 -6.47357 0.288582 0
M  V30 2086 N 201.022 0.148545 -1.56898 0
M  V30 2087 C 201.952 1.18524 -2.01182 0
M  V30 2088 C 202.933 1.4489 -0.891123 0
M  V30 2089 O 204.118 1.55836 -1.15882 0
M  V30 2090 C 201.248 2.51879 -2.39112 0
M  V30 2091 C 200.202 2.40038 -3.54353 0
M  V30 2092 C 199.528 3.78089 -3.78091 0
M  V30 2093 C 200.828 1.88577 -4.87069 0
M  V30 2094 H 202.522 0.817029 -2.88036 0
M  V30 2095 H 200.068 0.391575 -1.38574 0
M  V30 2096 H 202.021 3.24627 -2.68692 0
M  V30 2097 H 200.745 2.90532 -1.49193 0
M  V30 2098 H 199.404 1.69742 -3.24936 0
M  V30 2099 H 199.052 4.14175 -2.85426 0
M  V30 2100 H 198.752 3.71028 -4.55645 0
M  V30 2101 H 200.276 4.52387 -4.10095 0
M  V30 2102 H 201.69 2.51117 -5.15377 0
M  V30 2103 H 200.087 1.9241 -5.68417 0
M  V30 2104 H 201.157 0.84136 -4.77545 0
M  V30 2105 N 202.5 1.5196 0.417844 0
M  V30 2106 C 203.748 1.65263 1.16329 0
M  V30 2107 C 204.069 0.380634 1.91249 0
M  V30 2108 O 203.339 -0.604214 1.86349 0
M  V30 2109 H 201.919 0.60912 0.432414 0
M  V30 2110 H 204.581 1.88969 0.477162 0
M  V30 2111 H 203.677 2.4896 1.88217 0
M  V30 2112 N 203.978 -0.674533 1.42435 0
M  V30 2113 C 205.224 -1.43671 1.43131 0
M  V30 2114 C 205.557 -1.94142 0.0476021 0
M  V30 2115 O 204.832 -1.70924 -0.928188 0
M  V30 2116 C 205.115 -2.63355 2.45594 0
M  V30 2117 C 204.968 -2.18514 3.93156 0
M  V30 2118 C 206.287 -3.65571 2.45043 0
M  V30 2119 H 203.406 -0.521077 0.521198 0
M  V30 2120 H 206.048 -0.766551 1.7385 0
M  V30 2121 H 204.198 -3.2053 2.19528 0
M  V30 2122 H 205.87 -1.66504 4.30202 0
M  V30 2123 H 204.113 -1.50086 4.07009 0
M  V30 2124 H 204.784 -3.04484 4.60428 0
M  V30 2125 H 207.26 -3.18113 2.68223 0
M  V30 2126 H 206.136 -4.46893 3.18713 0
M  V30 2127 H 206.397 -4.16716 1.47649 0
M  V30 2128 N 205.456 -1.28612 -0.910864 0
M  V30 2129 C 206.403 -1.12786 -2.01365 0
M  V30 2130 C 207.373 -0.024201 -1.66082 0
M  V30 2131 O 208.558 -0.189667 -1.89855 0
M  V30 2132 C 205.698 -0.798743 -3.35729 0
M  V30 2133 C 204.811 -1.98173 -3.83864 0
M  V30 2134 C 203.946 -1.59298 -5.06752 0
M  V30 2135 C 202.985 -2.74245 -5.47226 0
M  V30 2136 N 202.122 -2.35842 -6.61304 0
M  V30 2137 H 206.962 -2.07142 -2.14234 0
M  V30 2138 H 204.499 -1.03093 -1.0493 0
M  V30 2139 H 206.457 -0.588662 -4.13026 0
M  V30 2140 H 205.087 0.10789 -3.2262 0
M  V30 2141 H 204.139 -2.30386 -3.02699 0
M  V30 2142 H 205.451 -2.84343 -4.09818 0
M  V30 2143 H 204.605 -1.34513 -5.916 0
M  V30 2144 H 203.344 -0.702618 -4.82612 0
M  V30 2145 H 202.349 -2.99725 -4.60918 0
M  V30 2146 H 203.574 -3.63928 -5.73353 0
M  V30 2147 H 201.52 -1.49279 -6.38789 0
M  V30 2148 H 201.437 -3.15546 -6.86998 0
M  V30 2149 H 202.705 -2.14348 -7.4945 0
M  V30 2150 N 206.934 1.1197 -1.10907 0
M  V30 2151 C 208.211 1.79959 -0.766432 0
M  V30 2152 C 208.591 1.97466 0.746363 0
M  V30 2153 O 207.939 1.55491 1.67436 0
M  V30 2154 C 208.149 3.14009 -1.52314 0
M  V30 2155 C 209.497 3.89134 -1.69883 0
M  V30 2156 O 210.521 3.2368 -1.48692 0
M  V30 2157 O 209.38 5.06572 -2.05054 0
M  V30 2158 H 206.474 0.779208 -0.277062 0
M  V30 2159 H 209.02 1.18762 -1.21217 0
M  V30 2160 H 207.792 2.96587 -2.55249 0
M  V30 2161 H 207.415 3.82915 -1.07059 0
M  V30 2162 N 208.412 0.89855 1.29475 0
M  V30 2163 C 209.322 0.379974 2.31502 0
M  V30 2164 C 210.338 -0.524695 1.659 0
M  V30 2165 O 211.514 -0.414551 1.97087 0
M  V30 2166 C 208.579 -0.385138 3.44554 0
M  V30 2167 C 207.64 0.550914 4.2575 0
M  V30 2168 C 206.873 -0.177778 5.33404 0
M  V30 2169 O 207.096 -1.40189 5.52904 0
M  V30 2170 O 206.03 0.479106 5.9999 0
M  V30 2171 H 209.856 1.22639 2.77837 0
M  V30 2172 H 207.441 0.662834 1.33891 0
M  V30 2173 H 209.323 -0.817841 4.13388 0
M  V30 2174 H 207.998 -1.20763 3.0033 0
M  V30 2175 H 206.905 1.03271 3.59564 0
M  V30 2176 H 208.238 1.33979 4.73614 0
M  V30 2177 N 209.89 -1.43072 0.660911 0
M  V30 2178 C 210.8 -2.34585 -0.0264163 0
M  V30 2179 C 211.816 -1.54316 -0.803898 0
M  V30 2180 O 212.992 -1.86939 -0.749391 0
M  V30 2181 C 210.057 -3.32689 -0.975639 0
M  V30 2182 C 209.118 -4.2886 -0.194236 0
M  V30 2183 C 208.351 -5.22278 -1.09825 0
M  V30 2184 O 208.574 -5.20299 -2.33763 0
M  V30 2185 O 207.508 -5.99228 -0.566513 0
M  V30 2186 H 211.334 -2.94869 0.727034 0
M  V30 2187 H 208.919 -1.43342 0.42111 0
M  V30 2188 H 210.801 -3.92995 -1.52094 0
M  V30 2189 H 209.476 -2.74898 -1.70918 0
M  V30 2190 H 208.383 -3.72011 0.394835 0
M  V30 2191 H 209.716 -4.89655 0.499899 0
M  V30 2192 N 211.368 -0.403325 -1.52352 0
M  V30 2193 C 212.278 0.432009 -2.30588 0
M  V30 2194 C 213.294 1.05884 -1.38075 0
M  V30 2195 O 214.47 1.06161 -1.71148 0
M  V30 2196 C 211.535 1.53669 -3.10784 0
M  V30 2197 C 210.596 0.933525 -4.19027 0
M  V30 2198 C 209.829 1.98557 -4.9539 0
M  V30 2199 O 210.052 3.20283 -4.71991 0
M  V30 2200 O 208.986 1.59504 -5.80381 0
M  V30 2201 H 212.812 -0.205739 -3.03002 0
M  V30 2202 H 210.397 -0.166675 -1.48467 0
M  V30 2203 H 212.279 2.17814 -3.60742 0
M  V30 2204 H 210.954 2.15915 -2.41169 0
M  V30 2205 H 209.861 0.254954 -3.7323 0
M  V30 2206 H 211.194 0.35508 -4.90918 0
M  V30 2207 N 212.846 1.57033 -0.133567 0
M  V30 2208 C 214.074 2.00044 0.528195 0
M  V30 2209 C 214.489 1.01349 1.59291 0
M  V30 2210 O 213.846 0.00848369 1.82498 0
M  V30 2211 C 213.897 3.43018 1.1411 0
M  V30 2212 O 213.618 4.37939 0.11892 0
M  V30 2213 C 215.119 4.01237 1.88477 0
M  V30 2214 H 212.339 0.656517 0.138661 0
M  V30 2215 H 214.883 2.03267 -0.224196 0
M  V30 2216 H 213.038 3.40688 1.84418 0
M  V30 2217 H 213.452 5.21436 0.56613 0
M  V30 2218 H 214.926 5.03314 2.26669 0
M  V30 2219 H 215.403 3.41193 2.76558 0
M  V30 2220 H 216.009 4.07156 1.22898 0
M  V30 2221 N 214.325 -0.140222 1.56975 0
M  V30 2222 C 215.272 -1.17292 1.98774 0
M  V30 2223 C 216.242 -1.4232 0.856408 0
M  V30 2224 O 217.427 -1.54541 1.119 0
M  V30 2225 C 214.567 -2.49973 2.37923 0
M  V30 2226 C 213.68 -2.32062 3.64378 0
M  V30 2227 C 212.815 -3.57825 3.926 0
M  V30 2228 C 211.854 -3.3498 5.12303 0
M  V30 2229 N 210.991 -4.52891 5.36502 0
M  V30 2230 H 215.831 -0.809472 2.86795 0
M  V30 2231 H 213.368 -0.388237 1.41884 0
M  V30 2232 H 215.326 -3.27346 2.58652 0
M  V30 2233 H 213.956 -2.84252 1.52972 0
M  V30 2234 H 213.008 -1.45711 3.51387 0
M  V30 2235 H 214.32 -2.11145 4.51906 0
M  V30 2236 H 213.474 -4.43624 4.13863 0
M  V30 2237 H 212.213 -3.81753 3.03506 0
M  V30 2238 H 211.218 -2.4757 4.90906 0
M  V30 2239 H 212.443 -3.12444 6.02956 0
M  V30 2240 H 210.389 -4.76979 4.50363 0
M  V30 2241 H 210.306 -4.35001 6.18312 0
M  V30 2242 H 211.574 -5.39884 5.62268 0
M  V30 2243 N 215.803 -1.52179 -0.40978 0
M  V30 2244 C 217.219 -1.40968 -0.74835 0
M  V30 2245 C 217.419 -0.513657 -1.94843 0
M  V30 2246 O 216.475 0.0208026 -2.52491 0
M  V30 2247 C 217.788 -2.83483 -1.0029 0
M  V30 2248 C 219.336 -2.92821 -1.10565 0
M  V30 2249 C 219.811 -4.36303 -1.39296 0
M  V30 2250 N 221.302 -4.39535 -1.46162 0
M  V30 2251 C 222.037 -5.47614 -1.70018 0
M  V30 2252 N 221.533 -6.65812 -1.91483 0
M  V30 2253 N 223.326 -5.35129 -1.72027 0
M  V30 2254 H 215.477 -2.0897 0.380186 0
M  V30 2255 H 217.74 -0.94185 0.107805 0
M  V30 2256 H 217.446 -3.51168 -0.193461 0
M  V30 2257 H 217.32 -3.24487 -1.92323 0
M  V30 2258 H 219.707 -2.25318 -1.90568 0
M  V30 2259 H 219.788 -2.55276 -0.16369 0
M  V30 2260 H 219.432 -5.04366 -0.598109 0
M  V30 2261 H 219.362 -4.71385 -2.34743 0
M  V30 2262 H 221.853 -3.54332 -1.31367 0
M  V30 2263 H 222.166 -7.43964 -2.09134 0
M  V30 2264 H 220.511 -6.68879 -1.88749 0
M  V30 2265 H 223.702 -4.41764 -1.54796 0
M  V30 2266 H 223.875 -6.19433 -1.9028 0
M  V30 2267 N 217.281 0.66697 -1.42791 0
M  V30 2268 C 218.53 1.42278 -1.42968 0
M  V30 2269 C 218.843 1.9553 -0.0524489 0
M  V30 2270 O 220.049 2.71414 0.068363 0
M  V30 2271 C 218.505 2.57418 -2.51524 0
M  V30 2272 C 218.113 2.10832 -3.9529 0
M  V30 2273 C 219.857 3.34878 -2.60877 0
M  V30 2274 C 217.764 3.23101 -4.95338 0
M  V30 2275 H 216.694 0.534533 -0.531781 0
M  V30 2276 H 219.345 0.721302 -1.68729 0
M  V30 2277 H 217.727 3.29971 -2.18941 0
M  V30 2278 H 218.901 1.4538 -4.37266 0
M  V30 2279 H 217.216 1.46289 -3.89857 0
M  V30 2280 H 219.813 4.18505 -3.32802 0
M  V30 2281 H 220.156 3.81993 -1.6549 0
M  V30 2282 H 220.689 2.69398 -2.92693 0
M  V30 2283 H 217.428 2.80969 -5.9223 0
M  V30 2284 H 216.948 3.87309 -4.57987 0
M  V30 2285 H 218.627 3.88447 -5.17415 0
M  V30 2286 N 218.759 1.29093 0.90403 0
M  V30 2287 C 220.005 1.16986 1.65656 0
M  V30 2288 C 220.338 -0.278925 1.92186 0
M  V30 2289 O 219.613 -1.2019 1.5292 0
M  V30 2290 C 219.896 1.97908 3.0084 0
M  V30 2291 C 219.749 3.50903 2.81403 0
M  V30 2292 C 221.068 1.80208 4.01513 0
M  V30 2293 H 218.187 0.426346 0.601164 0
M  V30 2294 H 220.829 1.58518 1.04747 0
M  V30 2295 H 218.979 1.62616 3.52829 0
M  V30 2296 H 220.651 3.96153 2.36348 0
M  V30 2297 H 218.894 3.76045 2.1627 0
M  V30 2298 H 219.565 4.02791 3.77443 0
M  V30 2299 H 222.041 2.11025 3.58619 0
M  V30 2300 H 220.917 2.39184 4.94047 0
M  V30 2301 H 221.178 0.756119 4.35586 0
M  V30 2302 N 220.237 -1.11381 1.11499 0
M  V30 2303 C 221.2 -2.15622 0.777153 0
M  V30 2304 C 222.2 -1.59504 -0.203779 0
M  V30 2305 O 223.39 -1.74188 0.020782 0
M  V30 2306 C 220.522 -3.40556 0.153116 0
M  V30 2307 H 221.715 -2.47021 1.70061 0
M  V30 2308 H 219.268 -1.26577 0.916952 0
M  V30 2309 H 220.003 -3.14767 -0.780536 0
M  V30 2310 H 219.788 -3.8257 0.859238 0
M  V30 2311 H 221.278 -4.17546 -0.0671044 0
M  V30 2312 N 221.715 -0.905404 -1.28997 0
M  V30 2313 C 222.645 -0.404212 -2.29975 0
M  V30 2314 C 223.626 0.523784 -1.61835 0
M  V30 2315 O 224.811 0.433298 -1.89304 0
M  V30 2316 C 221.941 0.364042 -3.45387 0
M  V30 2317 C 220.895 -0.474048 -4.25367 0
M  V30 2318 C 220.221 0.422045 -5.33032 0
M  V30 2319 C 221.521 -1.72696 -4.92923 0
M  V30 2320 H 223.215 -1.24807 -2.72146 0
M  V30 2321 H 220.761 -0.601585 -1.30832 0
M  V30 2322 H 222.714 0.725447 -4.15109 0
M  V30 2323 H 221.438 1.24174 -3.02074 0
M  V30 2324 H 220.097 -0.81786 -3.57361 0
M  V30 2325 H 219.745 1.29804 -4.85963 0
M  V30 2326 H 219.445 -0.135057 -5.87445 0
M  V30 2327 H 220.969 0.779517 -6.05604 0
M  V30 2328 H 222.383 -1.43495 -5.55051 0
M  V30 2329 H 220.78 -2.22582 -5.57295 0
M  V30 2330 H 221.85 -2.45964 -4.17887 0
M  V30 2331 N 223.193 1.4272 -0.668489 0
M  V30 2332 C 224.442 2.00846 -0.185389 0
M  V30 2333 C 224.755 1.53442 1.21305 0
M  V30 2334 O 225.961 2.03944 1.79218 0
M  V30 2335 C 224.417 3.58805 -0.280591 0
M  V30 2336 C 224.025 4.15198 -1.68268 0
M  V30 2337 C 225.769 4.24255 0.14412 0
M  V30 2338 C 223.676 5.655 -1.73099 0
M  V30 2339 H 222.606 0.751145 -0.0655475 0
M  V30 2340 H 225.257 1.63516 -0.832752 0
M  V30 2341 H 223.639 3.93608 0.434553 0
M  V30 2342 H 224.813 3.91866 -2.42441 0
M  V30 2343 H 223.128 3.62176 -2.05469 0
M  V30 2344 H 225.725 5.34547 0.128086 0
M  V30 2345 H 226.068 3.99277 1.17827 0
M  V30 2346 H 226.601 3.94389 -0.519798 0
M  V30 2347 H 223.34 5.95268 -2.74475 0
M  V30 2348 H 222.86 5.90842 -1.03274 0
M  V30 2349 H 224.539 6.29808 -1.48158 0
M  V30 2350 N 224.671 0.411399 1.52136 0
M  V30 2351 C 225.581 -0.419774 2.30814 0
M  V30 2352 C 226.597 -1.0515 1.38634 0
M  V30 2353 O 227.773 -1.05252 1.71709 0
M  V30 2354 C 224.838 -1.52019 3.11594 0
M  V30 2355 C 223.899 -0.91129 4.19516 0
M  V30 2356 C 223.132 -1.95927 4.96436 0
M  V30 2357 O 223.355 -3.17775 4.73683 0
M  V30 2358 O 222.289 -1.56423 5.81219 0
M  V30 2359 H 226.115 0.221805 3.02889 0
M  V30 2360 H 223.7 0.174547 1.48377 0
M  V30 2361 H 225.582 -2.15898 3.61892 0
M  V30 2362 H 224.257 -2.14633 2.42311 0
M  V30 2363 H 223.164 -0.235157 3.7336 0
M  V30 2364 H 224.497 -0.32904 4.91099 0
M  V30 2365 N 226.149 -1.5696 0.141893 0
M  V30 2366 C 227.565 -1.58151 -0.21456 0
M  V30 2367 C 227.765 -1.1559 -1.65049 0
M  V30 2368 O 226.821 -0.853832 -2.37626 0
M  V30 2369 C 228.134 -3.00674 0.0395576 0
M  V30 2370 C 229.682 -3.1299 -0.0245529 0
M  V30 2371 C 230.157 -4.57554 0.202167 0
M  V30 2372 N 231.648 -4.62961 0.148919 0
M  V30 2373 C 232.383 -5.7262 0.298924 0
M  V30 2374 N 231.879 -6.90947 0.50637 0
M  V30 2375 N 233.672 -5.61601 0.236886 0
M  V30 2376 H 225.823 -1.8292 1.07953 0
M  V30 2377 H 228.086 -0.846425 0.42693 0
M  V30 2378 H 227.792 -3.36183 1.03315 0
M  V30 2379 H 227.666 -3.70981 -0.682143 0
M  V30 2380 H 230.053 -2.77326 -1.00869 0
M  V30 2381 H 230.134 -2.4518 0.729396 0
M  V30 2382 H 229.778 -4.93922 1.18338 0
M  V30 2383 H 229.708 -5.23484 -0.572044 0
M  V30 2384 H 232.199 -3.77899 -0.00697015 0
M  V30 2385 H 232.512 -7.7038 0.611076 0
M  V30 2386 H 230.857 -6.92878 0.542628 0
M  V30 2387 H 234.048 -4.68039 0.0756209 0
M  V30 2388 H 234.221 -6.47015 0.357227 0
M  V30 2389 N 227.627 0.131896 -1.57047 0
M  V30 2390 C 228.577 1.1679 -1.95816 0
M  V30 2391 C 229.561 1.37756 -0.831393 0
M  V30 2392 O 230.753 1.39065 -1.09499 0
M  V30 2393 C 227.882 2.49778 -2.35512 0
M  V30 2394 C 226.968 2.32342 -3.54793 0
M  V30 2395 N 227.359 1.8469 -4.70875 0
M  V30 2396 C 225.657 2.63043 -3.60173 0
M  V30 2397 C 226.358 1.80656 -5.52936 0
M  V30 2398 N 225.334 2.24528 -4.95064 0
M  V30 2399 H 229.136 0.791818 -2.83033 0
M  V30 2400 H 226.65 0.339791 -1.58805 0
M  V30 2401 H 228.647 3.24692 -2.61498 0
M  V30 2402 H 227.307 2.88156 -1.49654 0
M  V30 2403 H 228.318 1.54429 -4.9434 0
M  V30 2404 H 224.995 3.05193 -2.84892 0
M  V30 2405 H 226.385 1.45178 -6.56028 0
M  V30 2406 N 229.106 1.52395 0.401703 0
M  V30 2407 C 230.517 1.58899 0.980202 0
M  V30 2408 C 230.868 0.434032 1.91339 0
M  V30 2409 O 229.993 -0.444619 2.11783 0
M  V30 2410 C 230.588 2.87994 1.78451 0
M  V30 2411 C 229.147 2.96953 2.31292 0
M  V30 2412 C 228.294 2.53903 1.11483 0
M  V30 2413 H 231.245 1.57657 0.18168 0
M  V30 2414 H 231.266 2.73765 2.64259 0
M  V30 2415 H 230.778 3.72035 1.10506 0
M  V30 2416 H 228.879 2.17422 3.02586 0
M  V30 2417 H 228.992 4.01344 2.61649 0
M  V30 2418 H 227.356 2.07925 1.47104 0
M  V30 2419 H 228.139 3.40326 0.450928 0
M  V30 2420 N 230.584 -0.659388 1.43143 0
M  V30 2421 C 231.534 -1.7655 1.44271 0
M  V30 2422 C 232.518 -1.57847 0.311961 0
M  V30 2423 O 233.71 -1.68064 0.555306 0
M  V30 2424 C 230.839 -3.15104 1.36251 0
M  V30 2425 C 229.925 -3.39377 2.54331 0
M  V30 2426 N 230.316 -3.34153 3.79704 0
M  V30 2427 C 228.614 -3.70072 2.48922 0
M  V30 2428 C 229.315 -3.58337 4.58225 0
M  V30 2429 N 228.291 -3.79851 3.88863 0
M  V30 2430 H 232.093 -1.70928 2.39083 0
M  V30 2431 H 229.607 -0.860823 1.37708 0
M  V30 2432 H 231.604 -3.94389 1.35141 0
M  V30 2433 H 230.264 -3.21913 0.424531 0
M  V30 2434 H 231.275 -3.13704 4.1208 0
M  V30 2435 H 227.952 -3.84034 1.63781 0
M  V30 2436 H 229.342 -3.60129 5.67236 0
M  V30 2437 N 232.062 -1.29571 -0.897171 0
M  V30 2438 C 233.309 -1.17689 -1.6479 0
M  V30 2439 C 233.637 0.27107 -1.92602 0
M  V30 2440 O 232.892 1.21193 -1.53658 0
M  V30 2441 C 233.191 -1.9382 -3.00281 0
M  V30 2442 C 232.857 -3.43522 -2.92068 0
M  V30 2443 C 231.519 -3.84348 -2.89535 0
M  V30 2444 C 233.871 -4.38906 -2.81089 0
M  V30 2445 C 231.199 -5.18869 -2.73846 0
M  V30 2446 C 233.551 -5.73521 -2.66939 0
M  V30 2447 C 232.215 -6.13601 -2.62774 0
M  V30 2448 H 231.485 -0.430654 -0.603008 0
M  V30 2449 H 234.132 -1.60536 -1.04404 0
M  V30 2450 H 232.437 -1.4357 -3.64547 0
M  V30 2451 H 234.134 -1.82028 -3.57305 0
M  V30 2452 H 230.724 -3.11072 -2.94842 0
M  V30 2453 H 234.908 -4.08315 -2.82121 0
M  V30 2454 H 230.164 -5.4903 -2.69027 0
M  V30 2455 H 234.338 -6.47078 -2.57416 0
M  V30 2456 H 231.965 -7.17786 -2.50375 0
M  V30 2457 N 233.54 1.10788 -1.12088 0
M  V30 2458 C 234.786 1.82942 -0.875226 0
M  V30 2459 C 235.119 1.84779 0.597538 0
M  V30 2460 O 234.394 1.30578 1.44152 0
M  V30 2461 C 234.677 3.29789 -1.44606 0
M  V30 2462 C 234.53 3.36307 -2.98693 0
M  V30 2463 C 235.849 4.26064 -1.10261 0
M  V30 2464 H 232.968 0.664195 -0.319397 0
M  V30 2465 H 235.61 1.29867 -1.38689 0
M  V30 2466 H 233.76 3.75118 -1.01089 0
M  V30 2467 H 235.432 2.99487 -3.50864 0
M  V30 2468 H 233.675 2.76318 -3.34411 0
M  V30 2469 H 234.346 4.39694 -3.33726 0
M  V30 2470 H 236.822 3.88951 -1.4784 0
M  V30 2471 H 235.698 5.27183 -1.52869 0
M  V30 2472 H 235.959 4.42098 -0.0142953 0
M  V30 2473 N 235.018 0.912232 1.28515 0
M  V30 2474 C 235.948 0.416403 2.29757 0
M  V30 2475 C 236.929 -0.515194 1.6211 0
M  V30 2476 O 238.114 -0.423253 1.89532 0
M  V30 2477 C 235.244 -0.34572 3.45575 0
M  V30 2478 C 234.198 0.496599 4.25109 0
M  V30 2479 C 233.524 -0.393771 5.33248 0
M  V30 2480 C 234.824 1.75307 4.92001 0
M  V30 2481 H 236.518 1.26249 2.7148 0
M  V30 2482 H 234.064 0.608515 1.30511 0
M  V30 2483 H 236.017 -0.703422 4.15488 0
M  V30 2484 H 234.741 -1.2257 3.02728 0
M  V30 2485 H 233.4 0.8368 3.56922 0
M  V30 2486 H 233.048 -1.27225 4.86644 0
M  V30 2487 H 232.748 0.166209 5.87365 0
M  V30 2488 H 234.272 -0.747389 6.06009 0
M  V30 2489 H 235.686 1.46437 5.54283 0
M  V30 2490 H 234.083 2.25534 5.56106 0
M  V30 2491 H 235.153 2.48176 4.16577 0
M  V30 2492 N 236.496 -1.42363 0.676048 0
M  V30 2493 C 237.406 -2.346 -0.00153389 0
M  V30 2494 C 238.422 -1.5516 -0.787485 0
M  V30 2495 O 239.598 -1.87723 -0.729521 0
M  V30 2496 C 236.663 -3.33705 -0.940298 0
M  V30 2497 C 235.724 -4.29042 -0.148739 0
M  V30 2498 C 234.957 -5.23413 -1.04279 0
M  V30 2499 O 235.18 -5.22749 -2.28232 0
M  V30 2500 O 234.114 -5.99795 -0.502925 0
M  V30 2501 H 237.94 -2.94082 0.758268 0
M  V30 2502 H 235.525 -1.42888 0.436289 0
M  V30 2503 H 237.407 -3.94586 -1.47917 0
M  V30 2504 H 236.082 -2.76695 -1.67993 0
M  V30 2505 H 234.989 -3.71571 0.43427 0
M  V30 2506 H 236.322 -4.89097 0.551805 0
M  V30 2507 N 237.974 -0.419461 -1.51915 0
M  V30 2508 C 239.222 0.152637 -2.01523 0
M  V30 2509 C 239.543 1.44762 -1.30649 0
M  V30 2510 O 238.813 1.90997 -0.435535 0
M  V30 2511 H 237.393 0.0593966 -0.744635 0
M  V30 2512 H 240.055 -0.558073 -1.86739 0
M  V30 2513 H 239.151 0.341369 -3.10227 0
M  V30 2514 N 239.452 1.56882 -0.150215 0
M  V30 2515 C 240.382 2.19935 0.784284 0
M  V30 2516 C 241.363 1.14854 1.25469 0
M  V30 2517 O 242.548 1.43209 1.31168 0
M  V30 2518 C 239.678 2.82349 2.02229 0
M  V30 2519 C 238.632 3.93285 1.68853 0
M  V30 2520 C 237.958 4.42649 2.99944 0
M  V30 2521 C 239.258 5.13904 0.932714 0
M  V30 2522 H 240.952 2.9828 0.258781 0
M  V30 2523 H 238.498 1.43473 0.123029 0
M  V30 2524 H 240.451 3.25126 2.68088 0
M  V30 2525 H 239.175 2.0134 2.57157 0
M  V30 2526 H 237.834 3.5113 1.05371 0
M  V30 2527 H 237.482 3.58458 3.52869 0
M  V30 2528 H 237.182 5.17476 2.78374 0
M  V30 2529 H 238.706 4.88099 3.66868 0
M  V30 2530 H 240.12 5.53506 1.49345 0
M  V30 2531 H 238.517 5.94515 0.81684 0
M  V30 2532 H 239.587 4.84842 -0.0749568 0
M  V30 2533 N 240.93 -0.123565 1.57115 0
M  V30 2534 C 242.16 -0.845233 1.88519 0
M  V30 2535 C 242.568 -1.74168 0.739064 0
M  V30 2536 O 241.911 -1.81244 -0.299355 0
M  V30 2537 C 241.973 -1.73452 3.14888 0
M  V30 2538 C 241.637 -1.01285 4.45635 0
M  V30 2539 C 242.634 -0.355774 5.18681 0
M  V30 2540 C 240.319 -0.99538 4.92339 0
M  V30 2541 C 242.313 0.309114 6.3665 0
M  V30 2542 C 240 -0.32669 6.10226 0
M  V30 2543 C 240.998 0.324406 6.82229 0
M  V30 2544 O 240.686 0.982437 7.97874 0
M  V30 2545 H 240.418 -0.248534 0.628655 0
M  V30 2546 H 242.972 -0.113907 2.05084 0
M  V30 2547 H 241.202 -2.50737 2.94394 0
M  V30 2548 H 242.891 -2.33021 3.32349 0
M  V30 2549 H 243.657 -0.360918 4.83655 0
M  V30 2550 H 239.536 -1.49159 4.36202 0
M  V30 2551 H 243.08 0.8179 6.92789 0
M  V30 2552 H 238.977 -0.319294 6.4471 0
M  V30 2553 H 239.745 0.886454 8.13686 0
M  V30 2554 N 242.408 -1.52605 -0.393616 0
M  V30 2555 C 243.636 -1.71294 -1.16043 0
M  V30 2556 C 244.051 -0.429259 -1.83855 0
M  V30 2557 O 243.408 0.595921 -1.72496 0
M  V30 2558 C 243.459 -2.8593 -2.21193 0
M  V30 2559 O 243.18 -4.09329 -1.56146 0
M  V30 2560 C 244.681 -3.16259 -3.10636 0
M  V30 2561 H 241.901 -0.573641 -0.348104 0
M  V30 2562 H 244.445 -1.99234 -0.461092 0
M  V30 2563 H 242.6 -2.60465 -2.86769 0
M  V30 2564 H 243.014 -4.73323 -2.25978 0
M  V30 2565 H 244.488 -3.99946 -3.80456 0
M  V30 2566 H 244.965 -2.3045 -3.73884 0
M  V30 2567 H 245.571 -3.43547 -2.50711 0
M  V30 2568 N 243.887 0.651787 -1.4349 0
M  V30 2569 C 244.837 1.75783 -1.45205 0
M  V30 2570 C 245.821 1.57679 -0.320328 0
M  V30 2571 O 247.013 1.67767 -0.564211 0
M  V30 2572 C 244.142 3.14377 -1.3792 0
M  V30 2573 C 243.228 3.38023 -2.56127 0
M  V30 2574 N 243.619 3.32135 -3.81471 0
M  V30 2575 C 241.917 3.68747 -2.50882 0
M  V30 2576 C 242.618 3.55902 -4.60118 0
M  V30 2577 N 241.594 3.77783 -3.90872 0
M  V30 2578 H 245.396 1.69657 -2.39987 0
M  V30 2579 H 242.91 0.853508 -1.38163 0
M  V30 2580 H 244.907 3.93666 -1.37231 0
M  V30 2581 H 243.567 3.21683 -0.441596 0
M  V30 2582 H 244.578 3.11515 -4.13738 0
M  V30 2583 H 241.255 3.8316 -1.65816 0
M  V30 2584 H 242.645 3.57116 -5.69138 0
M  V30 2585 N 245.365 1.30045 0.890287 0
M  V30 2586 C 246.612 1.18561 1.64163 0
M  V30 2587 C 246.94 -0.260852 1.92743 0
M  V30 2588 O 246.195 -1.20376 1.54299 0
M  V30 2589 C 246.494 1.95409 2.99249 0
M  V30 2590 C 246.16 3.45066 2.90242 0
M  V30 2591 C 244.822 3.85878 2.87492 0
M  V30 2592 C 247.174 4.4039 2.78758 0
M  V30 2593 C 244.502 5.20314 2.7109 0
M  V30 2594 C 246.854 5.74928 2.63894 0
M  V30 2595 C 245.518 6.14986 2.59516 0
M  V30 2596 H 244.788 0.433846 0.600715 0
M  V30 2597 H 247.435 1.61088 1.03552 0
M  V30 2598 H 245.74 1.45501 3.63781 0
M  V30 2599 H 247.437 1.8392 3.56334 0
M  V30 2600 H 244.027 3.12631 2.93189 0
M  V30 2601 H 248.211 4.09806 2.79952 0
M  V30 2602 H 243.467 5.50449 2.66112 0
M  V30 2603 H 247.641 6.48434 2.53981 0
M  V30 2604 H 245.268 7.19104 2.46565 0
M  V30 2605 N 246.843 -1.10192 1.12674 0
M  V30 2606 C 247.806 -2.14786 0.799979 0
M  V30 2607 C 248.806 -1.59711 -0.18685 0
M  V30 2608 O 249.996 -1.74156 0.0392558 0
M  V30 2609 C 247.128 -3.40374 0.189228 0
M  V30 2610 H 248.321 -2.45203 1.72671 0
M  V30 2611 H 245.874 -1.25597 0.930326 0
M  V30 2612 H 246.609 -3.15577 -0.747107 0
M  V30 2613 H 246.394 -3.81637 0.899766 0
M  V30 2614 H 247.884 -4.17594 -0.0228143 0
M  V30 2615 N 248.321 -0.919034 -1.28029 0
M  V30 2616 C 249.549 -0.570971 -1.98866 0
M  V30 2617 C 249.964 0.848996 -1.68634 0
M  V30 2618 O 249.321 1.56307 -0.942036 0
M  V30 2619 C 249.372 -0.776876 -3.53054 0
M  V30 2620 O 249.093 -2.14097 -3.82222 0
M  V30 2621 C 250.594 -0.436356 -4.41147 0
M  V30 2622 H 247.814 -0.217175 -0.634883 0
M  V30 2623 H 250.358 -1.23368 -1.63097 0
M  V30 2624 H 248.513 -0.161085 -3.87065 0
M  V30 2625 H 248.927 -2.18455 -4.76841 0
M  V30 2626 H 250.401 -0.63117 -5.4838 0
M  V30 2627 H 250.878 0.627686 -4.34692 0
M  V30 2628 H 251.484 -1.02991 -4.12641 0
M  V30 2629 N 249.799 1.42003 -0.683588 0
M  V30 2630 C 250.762 2.29191 -0.0198243 0
M  V30 2631 C 251.762 1.43773 0.72013 0
M  V30 2632 O 252.952 1.65061 0.556815 0
M  V30 2633 C 250.084 3.26435 0.982487 0
M  V30 2634 H 251.277 2.8938 -0.787345 0
M  V30 2635 H 248.83 1.49789 -0.446418 0
M  V30 2636 H 249.565 2.71203 1.77819 0
M  V30 2637 H 249.35 3.89449 0.455182 0
M  V30 2638 H 250.84 3.918 1.44508 0
M  V30 2639 N 251.277 0.427512 1.51691 0
M  V30 2640 C 252.554 -0.201684 1.94557 0
M  V30 2641 C 252.934 -1.60981 1.36559 0
M  V30 2642 O 252.282 -2.21814 0.548702 0
M  V30 2643 C 252.492 -0.189394 3.48486 0
M  V30 2644 C 253.84 -0.39978 4.22714 0
M  V30 2645 O 254.864 -0.267945 3.55191 0
M  V30 2646 O 253.723 -0.661249 5.42485 0
M  V30 2647 H 250.817 -0.135261 0.815864 0
M  V30 2648 H 253.363 0.484782 1.62628 0
M  V30 2649 H 252.135 0.795431 3.8313 0
M  V30 2650 H 251.758 -0.919187 3.86829 0
M  V30 2651 N 252.755 -1.56801 0.158532 0
M  V30 2652 C 253.665 -2.20916 -0.789518 0
M  V30 2653 C 254.681 -1.1969 -1.26294 0
M  V30 2654 O 255.857 -1.52308 -1.31773 0
M  V30 2655 C 252.922 -2.82727 -2.00665 0
M  V30 2656 C 251.983 -3.99114 -1.58134 0
M  V30 2657 C 251.216 -4.57968 -2.74045 0
M  V30 2658 O 251.439 -4.15704 -3.90572 0
M  V30 2659 O 250.373 -5.48047 -2.48855 0
M  V30 2660 H 254.199 -3.02464 -0.273681 0
M  V30 2661 H 251.784 -1.4924 -0.0690548 0
M  V30 2662 H 253.666 -3.21968 -2.71872 0
M  V30 2663 H 252.341 -2.04184 -2.51179 0
M  V30 2664 H 251.248 -3.64567 -0.839155 0
M  V30 2665 H 252.581 -4.79212 -1.12325 0
M  V30 2666 N 254.233 0.115231 -1.57178 0
M  V30 2667 C 255.479 0.82357 -1.85325 0
M  V30 2668 C 255.812 1.79349 -0.744814 0
M  V30 2669 O 255.087 1.92899 0.249024 0
M  V30 2670 C 255.37 1.57014 -3.24066 0
M  V30 2671 C 255.223 0.619565 -4.45513 0
M  V30 2672 C 256.542 2.52545 -3.60429 0
M  V30 2673 H 253.661 0.297948 -0.674089 0
M  V30 2674 H 256.303 0.0877138 -1.89797 0
M  V30 2675 H 254.453 2.19742 -3.20383 0
M  V30 2676 H 256.125 0.000837639 -4.613 0
M  V30 2677 H 254.368 -0.0686174 -4.33746 0
M  V30 2678 H 255.039 1.17866 -5.3927 0
M  V30 2679 H 257.515 1.9992 -3.64926 0
M  V30 2680 H 256.391 3.01811 -4.58477 0
M  V30 2681 H 256.652 3.35383 -2.88047 0
M  V30 2682 N 255.711 1.52812 0.385517 0
M  V30 2683 C 256.659 1.78482 1.49155 0
M  V30 2684 C 257.653 0.652914 1.56312 0
M  V30 2685 O 258.859 0.835464 1.59436 0
M  V30 2686 H 255.234 0.5648 0.496493 0
M  V30 2687 H 257.205 2.71095 1.24699 0
M  V30 2688 C 255.954 1.97378 2.86247 0
M  V30 2689 H 255.277 2.83907 2.81491 0
M  V30 2690 H 256.717 2.19327 3.62866 0
M  V30 2691 C 255.176 0.74728 3.28508 0
M  V30 2692 O 255.706 -0.0736232 4.01633 0
M  V30 2693 N 253.912 0.576396 2.84826 0
M  V30 2694 H 253.459 1.24555 2.25486 0
M  V30 2695 H 253.417 -0.24288 3.1346 0
M  V30 2696 N 257.189 -0.644168 1.43834 0
M  V30 2697 C 258.417 -1.43147 1.49387 0
M  V30 2698 C 258.832 -1.88452 0.114583 0
M  V30 2699 O 258.189 -1.60047 -0.876989 0
M  V30 2700 C 258.24 -2.66046 2.44748 0
M  V30 2701 O 257.961 -2.22633 3.77314 0
M  V30 2702 C 259.462 -3.59311 2.59635 0
M  V30 2703 H 256.682 -0.439447 0.507077 0
M  V30 2704 H 259.226 -0.78895 1.88669 0
M  V30 2705 H 257.381 -3.26418 2.08638 0
M  V30 2706 H 257.795 -3.02216 4.28679 0
M  V30 2707 H 259.269 -4.42187 3.30416 0
M  V30 2708 H 259.746 -4.07259 1.64427 0
M  V30 2709 H 260.352 -3.04816 2.96593 0
M  V30 2710 N 258.668 -1.30515 -0.883378 0
M  V30 2711 C 259.945 -1.10086 -1.6168 0
M  V30 2712 C 260.325 0.349269 -2.08191 0
M  V30 2713 O 259.673 1.34105 -1.85008 0
M  V30 2714 C 259.883 -2.10315 -2.78511 0
M  V30 2715 C 261.231 -2.42119 -3.48803 0
M  V30 2716 O 262.255 -2.08638 -2.88702 0
M  V30 2717 O 261.114 -2.99396 -4.57192 0
M  V30 2718 H 258.208 -0.422907 -0.710689 0
M  V30 2719 H 260.754 -1.41947 -0.930015 0
M  V30 2720 H 259.526 -3.07917 -2.41459 0
M  V30 2721 H 259.149 -1.79282 -3.54886 0
M  V30 2722 N 260.146 1.09593 -1.13257 0
M  V30 2723 C 261.376 1.85231 -0.915049 0
M  V30 2724 C 261.784 1.81345 0.539498 0
M  V30 2725 O 261.127 1.20664 1.38513 0
M  V30 2726 C 261.189 3.34275 -1.3229 0
M  V30 2727 C 260.853 3.6191 -2.79052 0
M  V30 2728 C 261.85 3.57777 -3.77216 0
M  V30 2729 C 259.535 3.90309 -3.16171 0
M  V30 2730 C 261.529 3.81652 -5.1051 0
M  V30 2731 C 259.216 4.13839 -4.49644 0
M  V30 2732 C 260.214 4.09502 -5.46623 0
M  V30 2733 O 259.902 4.32426 -6.77689 0
M  V30 2734 H 259.634 0.591997 -0.326367 0
M  V30 2735 H 262.188 1.394 -1.50854 0
M  V30 2736 H 260.418 3.80805 -0.672667 0
M  V30 2737 H 262.107 3.9132 -1.07812 0
M  V30 2738 H 262.873 3.35865 -3.49885 0
M  V30 2739 H 258.752 3.92811 -2.41289 0
M  V30 2740 H 262.296 3.78182 -5.86195 0
M  V30 2741 H 258.193 4.35232 -4.767 0
M  V30 2742 H 258.961 4.49896 -6.83766 0
M  V30 2743 N 261.624 0.925811 1.2754 0
M  V30 2744 C 262.871 0.565255 1.94451 0
M  V30 2745 C 263.199 -0.89316 1.7278 0
M  V30 2746 O 262.454 -1.65213 1.04895 0
M  V30 2747 C 262.753 0.835296 3.47502 0
M  V30 2748 C 262.419 2.27515 3.89291 0
M  V30 2749 C 261.081 2.66879 4.00411 0
M  V30 2750 C 263.433 3.21158 4.10496 0
M  V30 2751 C 260.761 3.99014 4.30122 0
M  V30 2752 C 263.113 4.52871 4.4169 0
M  V30 2753 C 261.777 4.92072 4.51023 0
M  V30 2754 H 261.047 0.206841 0.711546 0
M  V30 2755 H 263.694 1.16942 1.51647 0
M  V30 2756 H 261.999 0.148442 3.91519 0
M  V30 2757 H 263.696 0.535322 3.97411 0
M  V30 2758 H 260.286 1.95976 3.81171 0
M  V30 2759 H 264.47 2.9195 4.01346 0
M  V30 2760 H 259.726 4.2907 4.35556 0
M  V30 2761 H 263.9 5.25436 4.57045 0
M  V30 2762 H 261.527 5.9449 4.738 0
M  V30 2763 N 263.102 -1.41638 0.69111 0
M  V30 2764 C 264.327 -2.06148 0.227583 0
M  V30 2765 C 264.752 -1.51652 -1.11281 0
M  V30 2766 O 264.11 -0.64164 -1.69566 0
M  V30 2767 C 264.158 -3.60095 0.190858 0
M  V30 2768 O 263.262 -4.03845 -0.835664 0
M  V30 2769 H 262.603 -0.654434 0.112306 0
M  V30 2770 H 265.133 -1.81484 0.944714 0
M  V30 2771 H 265.143 -4.07995 0.020207 0
M  V30 2772 H 263.818 -3.99129 1.16915 0
M  V30 2773 H 262.395 -3.67458 -0.63473 0
M  V30 2774 N 264.58 -0.43555 -1.51462 0
M  V30 2775 C 265.81 0.130053 -2.0619 0
M  V30 2776 C 266.218 1.37164 -1.30317 0
M  V30 2777 O 265.561 1.80225 -0.355598 0
M  V30 2778 C 265.623 0.519418 -3.55728 0
M  V30 2779 C 265.287 -0.615119 -4.52841 0
M  V30 2780 C 266.284 -1.48671 -4.9819 0
M  V30 2781 C 263.969 -0.795341 -4.95963 0
M  V30 2782 C 265.963 -2.52324 -5.8533 0
M  V30 2783 C 263.65 -1.83514 -5.82894 0
M  V30 2784 C 264.648 -2.69748 -6.27475 0
M  V30 2785 O 264.336 -3.71944 -7.1268 0
M  V30 2786 H 264.068 0.0121612 -0.675891 0
M  V30 2787 H 266.622 -0.6129 -1.96043 0
M  V30 2788 H 264.852 1.31505 -3.63653 0
M  V30 2789 H 266.541 1.01597 -3.92979 0
M  V30 2790 H 267.307 -1.359 -4.65571 0
M  V30 2791 H 263.186 -0.133713 -4.60806 0
M  V30 2792 H 266.73 -3.19665 -6.20048 0
M  V30 2793 H 262.627 -1.96306 -6.14926 0
M  V30 2794 H 263.395 -3.68503 -7.30854 0
M  V30 2795 N 266.058 1.56714 -0.166846 0
M  V30 2796 C 266.99 2.14914 0.796537 0
M  V30 2797 C 268.003 1.10357 1.19688 0
M  V30 2798 O 269.192 1.37561 1.13751 0
M  V30 2799 C 266.292 2.67326 2.08303 0
M  V30 2800 C 265.465 3.96493 1.84696 0
M  V30 2801 C 264.524 4.34014 2.97521 0
M  V30 2802 O 263.55 5.01973 2.6835 0
M  V30 2803 N 264.752 3.95208 4.25196 0
M  V30 2804 H 267.517 2.98205 0.299006 0
M  V30 2805 H 265.078 1.61892 0.0160839 0
M  V30 2806 H 267.07 2.89428 2.82867 0
M  V30 2807 H 265.64 1.88649 2.4926 0
M  V30 2808 H 264.86 3.82814 0.940602 0
M  V30 2809 H 266.148 4.8086 1.66285 0
M  V30 2810 H 265.546 3.40487 4.51758 0
M  V30 2811 H 264.103 4.2232 4.96477 0
M  V30 2812 N 267.536 -0.106894 1.57237 0
M  V30 2813 C 268.766 -0.825191 1.89405 0
M  V30 2814 C 269.174 -1.73374 0.757496 0
M  V30 2815 O 268.517 -1.81552 -0.280115 0
M  V30 2816 C 268.579 -1.70102 3.1671 0
M  V30 2817 C 268.243 -0.965523 4.46684 0
M  V30 2818 C 269.24 -0.300741 5.19029 0
M  V30 2819 C 266.925 -0.943105 4.93367 0
M  V30 2820 C 268.919 0.376622 6.36286 0
M  V30 2821 C 266.606 -0.261949 6.10538 0
M  V30 2822 C 267.604 0.396748 6.81847 0
M  V30 2823 O 267.292 1.06701 7.96787 0
M  V30 2824 H 267.024 -0.241852 0.631255 0
M  V30 2825 H 269.578 -0.0921491 2.05193 0
M  V30 2826 H 267.808 -2.47601 2.97036 0
M  V30 2827 H 269.497 -2.29483 3.34802 0
M  V30 2828 H 270.263 -0.309599 4.84011 0
M  V30 2829 H 266.142 -1.44524 4.3776 0
M  V30 2830 H 269.686 0.891334 6.91882 0
M  V30 2831 H 265.583 -0.250896 6.45012 0
M  V30 2832 H 266.351 0.972707 8.127 0
M  V30 2833 N 269.014 -1.53014 -0.377408 0
M  V30 2834 C 270.242 -1.72515 -1.14219 0
M  V30 2835 C 270.657 -0.448735 -1.8339 0
M  V30 2836 O 270.014 0.577592 -1.73119 0
M  V30 2837 C 270.065 -2.8826 -2.18148 0
M  V30 2838 O 269.786 -4.10962 -1.51795 0
M  V30 2839 C 271.287 -3.19536 -3.07264 0
M  V30 2840 H 268.507 -0.577301 -0.342001 0
M  V30 2841 H 271.051 -1.99712 -0.439935 0
M  V30 2842 H 269.206 -2.63492 -2.83991 0
M  V30 2843 H 269.62 -4.75693 -2.20945 0
M  V30 2844 H 271.094 -4.03959 -3.76193 0
M  V30 2845 H 271.571 -2.34403 -3.71419 0
M  V30 2846 H 272.177 -3.46186 -2.47053 0
M  V30 2847 N 270.492 0.636531 -1.44174 0
M  V30 2848 C 271.908 0.954104 -1.27941 0
M  V30 2849 C 272.108 2.0039 -0.211248 0
M  V30 2850 O 271.164 2.49236 0.404695 0
M  V30 2851 C 272.477 1.4225 -2.64925 0
M  V30 2852 C 274.025 1.53827 -2.72592 0
M  V30 2853 C 274.5 2.04053 -4.10032 0
M  V30 2854 N 275.991 2.11331 -4.12182 0
M  V30 2855 C 276.726 2.51352 -5.15374 0
M  V30 2856 N 276.222 2.90549 -6.2893 0
M  V30 2857 N 278.015 2.51438 -5.02728 0
M  V30 2858 H 270.166 -0.0578386 -2.12321 0
M  V30 2859 H 272.429 0.0367406 -0.947288 0
M  V30 2860 H 272.135 0.725466 -3.44136 0
M  V30 2861 H 272.009 2.39451 -2.9145 0
M  V30 2862 H 274.396 2.22628 -1.93702 0
M  V30 2863 H 274.477 0.550154 -2.49814 0
M  V30 2864 H 274.121 1.35848 -4.89395 0
M  V30 2865 H 274.051 3.03726 -4.30184 0
M  V30 2866 H 276.542 1.83745 -3.30222 0
M  V30 2867 H 276.855 3.19884 -7.03487 0
M  V30 2868 H 275.2 2.88313 -6.32377 0
M  V30 2869 H 278.391 2.20203 -4.13072 0
M  V30 2870 H 278.564 2.82304 -5.83274 0
M  V30 2871 N 271.97 1.30982 0.876444 0
M  V30 2872 C 273.217 1.20296 1.62896 0
M  V30 2873 C 273.545 -0.240395 1.93009 0
M  V30 2874 O 272.8 -1.18733 1.55567 0
M  V30 2875 C 273.099 1.98572 2.9716 0
M  V30 2876 C 272.765 3.48125 2.86566 0
M  V30 2877 C 271.427 3.88905 2.83383 0
M  V30 2878 C 273.779 4.43322 2.74071 0
M  V30 2879 C 271.107 5.2316 2.65556 0
M  V30 2880 C 273.459 5.77695 2.57781 0
M  V30 2881 C 272.123 6.17704 2.52979 0
M  V30 2882 H 271.393 0.440193 0.59608 0
M  V30 2883 H 274.04 1.62177 1.01837 0
M  V30 2884 H 272.345 1.49352 3.62217 0
M  V30 2885 H 274.042 1.8769 3.54364 0
M  V30 2886 H 270.632 3.15723 2.89856 0
M  V30 2887 H 274.816 4.12752 2.75589 0
M  V30 2888 H 270.072 5.53241 2.60259 0
M  V30 2889 H 274.246 6.51091 2.47089 0
M  V30 2890 H 271.873 7.21678 2.38924 0
M  V30 2891 N 273.449 -1.08991 1.13837 0
M  V30 2892 C 274.379 -2.17771 0.842507 0
M  V30 2893 C 275.36 -1.6892 -0.20001 0
M  V30 2894 O 276.545 -1.94113 -0.0579731 0
M  V30 2895 C 273.675 -3.4589 0.312644 0
M  V30 2896 C 272.629 -4.08099 1.28992 0
M  V30 2897 C 271.955 -5.31098 0.619623 0
M  V30 2898 C 273.255 -4.50077 2.65005 0
M  V30 2899 H 274.949 -2.42777 1.75213 0
M  V30 2900 H 272.495 -1.16682 0.843875 0
M  V30 2901 H 274.448 -4.21297 0.0933043 0
M  V30 2902 H 273.172 -3.20419 -0.632382 0
M  V30 2903 H 271.831 -3.34717 1.49533 0
M  V30 2904 H 271.479 -5.0191 -0.33102 0
M  V30 2905 H 271.179 -5.73674 1.27167 0
M  V30 2906 H 272.703 -6.09224 0.409669 0
M  V30 2907 H 274.117 -5.16688 2.48407 0
M  V30 2908 H 272.514 -5.03553 3.26427 0
M  V30 2909 H 273.584 -3.62257 3.22332 0
M  V30 2910 N 274.927 -0.932562 -1.27047 0
M  V30 2911 C 275.877 -0.406392 -2.24349 0
M  V30 2912 C 276.861 0.492066 -1.53191 0
M  V30 2913 O 278.053 0.328717 -1.73921 0
M  V30 2914 C 275.182 0.335214 -3.41659 0
M  V30 2915 C 274.268 -0.58004 -4.20115 0
M  V30 2916 N 274.659 -1.70203 -4.76303 0
M  V30 2917 C 272.957 -0.383974 -4.44344 0
M  V30 2918 C 273.658 -2.27167 -5.35509 0
M  V30 2919 N 272.634 -1.56068 -5.20715 0
M  V30 2920 H 276.436 -1.26299 -2.65378 0
M  V30 2921 H 273.95 -0.787408 -1.42034 0
M  V30 2922 H 275.947 0.729142 -4.10474 0
M  V30 2923 H 274.607 1.18868 -3.0216 0
M  V30 2924 H 275.618 -2.08433 -4.74106 0
M  V30 2925 H 272.295 0.428436 -4.15296 0
M  V30 2926 H 273.685 -3.21654 -5.89905 0
M  V30 2927 N 276.405 1.4127 -0.698611 0
M  V30 2928 C 277.338 2.28195 0.0153898 0
M  V30 2929 C 278.316 1.42402 0.784883 0
M  V30 2930 O 279.5 1.71828 0.775067 0
M  V30 2931 C 276.627 3.22685 1.02918 0
M  V30 2932 C 275.673 4.25041 0.352501 0
M  V30 2933 S 276.506 5.27757 -0.907322 0
M  V30 2934 C 277.662 6.25812 0.104796 0
M  V30 2935 H 277.895 2.88403 -0.721858 0
M  V30 2936 H 275.428 1.46452 -0.488996 0
M  V30 2937 H 277.386 3.77655 1.60893 0
M  V30 2938 H 276.047 2.61566 1.73902 0
M  V30 2939 H 275.24 4.91437 1.11828 0
M  V30 2940 H 274.842 3.73682 -0.154254 0
M  V30 2941 H 277.134 6.70705 0.957103 0
M  V30 2942 H 278.077 7.06149 -0.525323 0
M  V30 2943 H 278.485 5.62615 0.460931 0
M  V30 2944 N 277.883 0.443576 1.51229 0
M  V30 2945 C 278.813 -0.355142 2.30783 0
M  V30 2946 C 279.794 -1.0154 1.36468 0
M  V30 2947 O 280.979 -1.01785 1.65389 0
M  V30 2948 C 278.109 -1.45312 3.15439 0
M  V30 2949 C 277.063 -0.916002 4.18083 0
M  V30 2950 C 276.389 -2.1102 4.91299 0
M  V30 2951 C 277.689 0.0538602 5.22272 0
M  V30 2952 H 279.383 0.308767 2.97804 0
M  V30 2953 H 276.929 0.149937 1.43217 0
M  V30 2954 H 278.882 -2.01914 3.69876 0
M  V30 2955 H 277.606 -2.14541 2.46252 0
M  V30 2956 H 276.265 -0.372145 3.64706 0
M  V30 2957 H 275.913 -2.78882 4.18609 0
M  V30 2958 H 275.613 -1.75717 5.60712 0
M  V30 2959 H 277.137 -2.68164 5.48562 0
M  V30 2960 H 278.551 -0.422069 5.71744 0
M  V30 2961 H 276.948 0.319776 5.99247 0
M  V30 2962 H 278.018 0.98858 4.74716 0
M  V30 2963 N 279.361 -1.56624 0.175154 0
M  V30 2964 C 280.271 -2.21741 -0.766042 0
M  V30 2965 C 281.287 -1.21023 -1.25018 0
M  V30 2966 O 282.463 -1.53697 -1.3015 0
M  V30 2967 C 279.528 -2.84839 -1.97655 0
M  V30 2968 C 278.589 -4.00769 -1.53892 0
M  V30 2969 C 277.822 -4.60849 -2.69173 0
M  V30 2970 O 278.045 -4.19823 -3.86141 0
M  V30 2971 O 276.979 -5.50655 -2.43028 0
M  V30 2972 H 280.805 -3.02738 -0.241585 0
M  V30 2973 H 278.39 -1.49305 -0.053222 0
M  V30 2974 H 280.272 -3.24834 -2.68442 0
M  V30 2975 H 278.947 -2.06836 -2.48999 0
M  V30 2976 H 277.854 -3.65436 -0.80044 0
M  V30 2977 H 279.187 -4.80376 -1.07236 0
M  V30 2978 N 280.839 0.0985539 -1.57292 0
M  V30 2979 C 282.085 0.798769 -1.87059 0
M  V30 2980 C 282.44 1.76514 -0.76555 0
M  V30 2981 O 281.733 1.90181 0.232752 0
M  V30 2982 C 281.927 1.56927 -3.21105 0
M  V30 2983 C 281.756 0.679026 -4.44544 0
M  V30 2984 C 280.526 0.326071 -5.04247 0
M  V30 2985 C 282.724 -0.0124715 -5.14298 0
M  V30 2986 N 280.706 -0.572702 -6.11223 0
M  V30 2987 C 282.077 -0.769446 -6.15207 0
M  V30 2988 C 284.132 -0.0867545 -4.97824 0
M  V30 2989 C 282.835 -1.59376 -7.01421 0
M  V30 2990 C 284.861 -0.897955 -5.84543 0
M  V30 2991 C 284.223 -1.64306 -6.84969 0
M  V30 2992 H 280.322 0.268568 -0.734435 0
M  V30 2993 H 282.906 0.0614664 -1.94603 0
M  V30 2994 H 281.077 2.27748 -3.1462 0
M  V30 2995 H 282.809 2.21641 -3.38611 0
M  V30 2996 H 279.564 0.67295 -4.68795 0
M  V30 2997 H 279.988 -1.01454 -6.69355 0
M  V30 2998 H 284.63 0.474963 -4.20124 0
M  V30 2999 H 282.348 -2.16655 -7.78515 0
M  V30 3000 H 285.934 -0.958059 -5.73858 0
M  V30 3001 H 284.814 -2.26065 -7.50909 0
M  V30 3002 N 282.317 1.53212 0.369288 0
M  V30 3003 C 283.247 1.82365 1.45826 0
M  V30 3004 C 284.228 0.676907 1.56051 0
M  V30 3005 O 285.413 0.926401 1.70679 0
M  V30 3006 C 282.543 2.01023 2.83208 0
M  V30 3007 C 281.497 3.1678 2.8781 0
M  V30 3008 C 280.823 3.20724 4.27832 0
M  V30 3009 C 282.123 4.55447 2.55667 0
M  V30 3010 H 283.817 2.73559 1.21678 0
M  V30 3011 H 281.363 1.3163 0.583911 0
M  V30 3012 H 283.316 2.20001 3.59413 0
M  V30 3013 H 282.04 1.06536 3.08736 0
M  V30 3014 H 280.699 2.97616 2.14056 0
M  V30 3015 H 280.347 2.23882 4.50429 0
M  V30 3016 H 280.047 3.98496 4.31827 0
M  V30 3017 H 281.571 3.41881 5.05915 0
M  V30 3018 H 282.985 4.74611 3.21586 0
M  V30 3019 H 281.382 5.35432 2.70984 0
M  V30 3020 H 282.452 4.60812 1.5093 0
M  V30 3021 N 283.795 -0.628877 1.44509 0
M  V30 3022 C 285.206 -1.21054 1.42137 0
M  V30 3023 C 285.557 -1.95715 0.137881 0
M  V30 3024 O 284.682 -2.02554 -0.761645 0
M  V30 3025 C 285.277 -2.20189 2.57493 0
M  V30 3026 C 283.836 -2.73777 2.58308 0
M  V30 3027 C 282.983 -1.48813 2.33987 0
M  V30 3028 H 285.934 -0.41942 1.53057 0
M  V30 3029 H 285.955 -3.02833 2.30375 0
M  V30 3030 H 285.467 -1.6582 3.50892 0
M  V30 3031 H 283.568 -3.32142 1.68856 0
M  V30 3032 H 283.681 -3.19662 3.56865 0
M  V30 3033 H 282.045 -1.77024 1.83124 0
M  V30 3034 H 282.828 -0.963442 3.29504 0
M  V30 3035 N 285.273 -1.31445 -0.869486 0
M  V30 3036 C 286.498 -1.24256 -1.66058 0
M  V30 3037 C 286.923 0.188928 -1.87149 0
M  V30 3038 O 286.281 1.13522 -1.4136 0
M  V30 3039 C 286.329 -1.9924 -3.00559 0
M  V30 3040 O 285.433 -1.33007 -3.90362 0
M  V30 3041 H 284.774 -0.428973 -0.506831 0
M  V30 3042 H 287.304 -1.73521 -1.08404 0
M  V30 3043 H 287.314 -2.08854 -3.50491 0
M  V30 3044 H 285.989 -3.03342 -2.84528 0
M  V30 3045 H 284.566 -1.31848 -3.48813 0
M  V30 3046 N 286.751 1.08385 -1.14413 0
M  V30 3047 C 288.167 1.32844 -0.884563 0
M  V30 3048 C 288.367 1.95841 0.474181 0
M  V30 3049 O 287.423 2.21158 1.21842 0
M  V30 3050 C 288.736 2.22978 -2.01745 0
M  V30 3051 C 290.284 2.36458 -2.05077 0
M  V30 3052 C 290.759 3.29934 -3.1766 0
M  V30 3053 N 292.25 3.37511 -3.17239 0
M  V30 3054 C 292.985 4.09871 -4.0099 0
M  V30 3055 N 292.481 4.84936 -4.94781 0
M  V30 3056 N 294.274 4.05704 -3.89051 0
M  V30 3057 H 286.425 0.658756 -2.01926 0
M  V30 3058 H 288.688 0.352821 -0.879899 0
M  V30 3059 H 288.394 1.83934 -2.99769 0
M  V30 3060 H 288.268 3.23441 -1.94077 0
M  V30 3061 H 290.655 2.7476 -1.0766 0
M  V30 3062 H 290.736 1.35736 -2.16816 0
M  V30 3063 H 290.38 2.92352 -4.15322 0
M  V30 3064 H 290.31 4.30584 -3.03158 0
M  V30 3065 H 292.801 2.83996 -2.49308 0
M  V30 3066 H 293.114 5.37612 -5.55151 0
M  V30 3067 H 291.459 4.83988 -4.98779 0
M  V30 3068 H 294.65 3.46167 -3.15097 0
M  V30 3069 H 294.823 4.61834 -4.54547 0
M  V30 3070 N 288.23 0.939286 1.26551 0
M  V30 3071 C 289.641 0.628782 1.75793 0
M  V30 3072 C 289.992 -0.856046 1.7654 0
M  V30 3073 O 289.117 -1.66994 1.3763 0
M  V30 3074 C 289.712 1.13465 3.19235 0
M  V30 3075 C 288.271 0.874601 3.66098 0
M  V30 3076 C 287.418 1.28667 2.45642 0
M  V30 3077 H 290.369 1.1178 1.12654 0
M  V30 3078 H 290.39 0.487609 3.77363 0
M  V30 3079 H 289.902 2.21535 3.1866 0
M  V30 3080 H 288.003 -0.191793 3.72106 0
M  V30 3081 H 288.116 1.50028 4.55004 0
M  V30 3082 H 286.48 0.705109 2.44745 0
M  V30 3083 H 287.263 2.37625 2.47769 0
M  V30 3084 N 289.708 -1.40897 0.706093 0
M  V30 3085 C 291.119 -1.84023 0.315052 0
M  V30 3086 C 291.47 -1.5906 -1.14866 0
M  V30 3087 O 290.595 -1.06651 -1.88293 0
M  V30 3088 C 291.19 -3.34055 0.565038 0
M  V30 3089 C 289.749 -3.7571 0.227806 0
M  V30 3090 C 288.896 -2.64204 0.842122 0
M  V30 3091 H 291.847 -1.303 0.905963 0
M  V30 3092 H 291.868 -3.80107 -0.172843 0
M  V30 3093 H 291.38 -3.52192 1.63042 0
M  V30 3094 H 289.481 -3.63172 -0.832895 0
M  V30 3095 H 289.594 -4.74103 0.690174 0
M  V30 3096 H 287.958 -2.53255 0.270893 0
M  V30 3097 H 288.741 -2.85155 1.91158 0
M  V30 3098 N 291.186 -0.45159 -1.50991 0
M  V30 3099 C 292.116 0.342898 -2.30969 0
M  V30 3100 C 293.097 1.00815 -1.37005 0
M  V30 3101 O 294.282 1.00907 -1.65926 0
M  V30 3102 C 291.412 1.43637 -3.16205 0
M  V30 3103 C 290.366 0.893818 -4.18563 0
M  V30 3104 C 289.692 2.08411 -4.92411 0
M  V30 3105 C 290.992 -0.0815568 -5.22236 0
M  V30 3106 H 292.686 -0.324556 -2.97636 0
M  V30 3107 H 290.232 -0.157531 -1.43136 0
M  V30 3108 H 292.185 1.9995 -3.70942 0
M  V30 3109 H 290.909 2.13232 -2.47386 0
M  V30 3110 H 289.568 0.352798 -3.64898 0
M  V30 3111 H 289.216 2.76658 -4.20082 0
M  V30 3112 H 288.916 1.72741 -5.61636 0
M  V30 3113 H 290.44 2.65251 -5.49976 0
M  V30 3114 H 291.854 0.391742 -5.7196 0
M  V30 3115 H 290.251 -0.351551 -5.99069 0
M  V30 3116 H 291.321 -1.01374 -4.74185 0
M  V30 3117 N 292.664 1.56529 -0.183458 0
M  V30 3118 C 293.91 1.97537 0.459036 0
M  V30 3119 C 294.243 1.06989 1.62071 0
M  V30 3120 O 293.518 0.11948 1.94133 0
M  V30 3121 C 293.801 3.47874 0.930368 0
M  V30 3122 C 293.654 4.492 -0.232317 0
M  V30 3123 C 294.973 4.01612 1.79989 0
M  V30 3124 H 292.092 0.718204 0.165383 0
M  V30 3125 H 294.734 1.88042 -0.272038 0
M  V30 3126 H 292.884 3.56095 1.55333 0
M  V30 3127 H 294.556 4.53027 -0.86972 0
M  V30 3128 H 292.799 4.24657 -0.885928 0
M  V30 3129 H 293.47 5.51823 0.139796 0
M  V30 3130 H 295.946 3.96097 1.27461 0
M  V30 3131 H 294.822 5.07195 2.09867 0
M  V30 3132 H 295.083 3.46163 2.74998 0
M  V30 3133 N 294.142 -0.090211 1.57342 0
M  V30 3134 C 295.092 -1.11557 1.98844 0
M  V30 3135 C 296.076 -1.35503 0.867624 0
M  V30 3136 O 297.268 -1.36113 1.13148 0
M  V30 3137 C 294.397 -2.43446 2.42051 0
M  V30 3138 C 293.483 -2.22853 3.60828 0
M  V30 3139 N 293.874 -1.72141 4.75606 0
M  V30 3140 C 292.172 -2.53401 3.67021 0
M  V30 3141 C 292.873 -1.65932 5.57531 0
M  V30 3142 N 291.849 -2.11323 5.00843 0
M  V30 3143 H 295.651 -0.716499 2.85032 0
M  V30 3144 H 293.165 -0.297567 1.59651 0
M  V30 3145 H 295.162 -3.17644 2.70014 0
M  V30 3146 H 293.822 -2.84087 1.57241 0
M  V30 3147 H 294.833 -1.41268 4.98261 0
M  V30 3148 H 291.51 -2.97532 2.92884 0
M  V30 3149 H 292.9 -1.27733 6.59647 0
M  V30 3150 N 295.62 -1.53406 -0.361157 0
M  V30 3151 C 296.86 -1.71507 -1.11197 0
M  V30 3152 C 297.224 -0.459337 -1.86425 0
M  V30 3153 O 298.425 -0.517102 -2.63779 0
M  V30 3154 C 296.696 -2.93307 -2.0422 0
M  V30 3155 S 298.255 -3.32135 -2.86761 0
M  V30 3156 H 295.073 -0.603448 -0.375995 0
M  V30 3157 H 297.675 -1.91516 -0.392642 0
M  V30 3158 H 296.379 -3.82891 -1.47724 0
M  V30 3159 H 295.91 -2.75712 -2.80618 0
M  V30 3160 H 297.925 -2.84493 -4.06544 0
M  V30 3161 N 297.098 0.621204 -1.44841 0
M  V30 3162 C 298.061 1.71459 -1.521 0
M  V30 3163 C 299.061 1.55696 -0.401933 0
M  V30 3164 O 300.251 1.61011 -0.664925 0
M  V30 3165 C 297.383 3.10624 -1.40447 0
M  V30 3166 H 298.576 1.66394 -2.49506 0
M  V30 3167 H 296.129 0.835745 -1.3208 0
M  V30 3168 H 296.864 3.21277 -0.441737 0
M  V30 3169 H 296.649 3.23473 -2.21602 0
M  V30 3170 H 298.139 3.90293 -1.4853 0
M  V30 3171 N 298.576 1.31904 0.862503 0
M  V30 3172 C 299.524 1.20125 1.9918 0
M  V30 3173 C 300.518 0.107824 1.69056 0
M  V30 3174 O 301.724 0.270223 1.7796 0
M  V30 3175 H 298.099 0.372148 0.65346 0
M  V30 3176 H 300.07 2.15652 2.06244 0
M  V30 3177 C 298.819 0.933099 3.34946 0
M  V30 3178 H 298.142 1.76664 3.5865 0
M  V30 3179 H 299.582 0.890892 4.14535 0
M  V30 3180 C 298.041 -0.364172 3.34926 0
M  V30 3181 O 298.571 -1.37858 3.77304 0
M  V30 3182 N 296.777 -0.383362 2.8806 0
M  V30 3183 H 296.324 0.442651 2.53768 0
M  V30 3184 H 296.282 -1.25123 2.8843 0
M  V30 3185 N 300.054 -1.07777 1.14986 0
M  V30 3186 C 301.279 -1.84558 0.946213 0
M  V30 3187 C 301.704 -1.81323 -0.500362 0
M  V30 3188 O 301.062 -1.20301 -1.35637 0
M  V30 3189 C 301.11 -3.29736 1.45968 0
M  V30 3190 O 300.214 -4.07149 0.65601 0
M  V30 3191 H 299.555 -0.571641 0.33782 0
M  V30 3192 H 302.085 -1.35991 1.52865 0
M  V30 3193 H 302.095 -3.80574 1.47063 0
M  V30 3194 H 300.77 -3.31406 2.51283 0
M  V30 3195 H 299.347 -3.65994 0.714322 0
M  V30 3196 N 301.532 -0.945985 -1.26051 0
M  V30 3197 C 302.495 -0.463897 -2.24456 0
M  V30 3198 C 303.495 0.427655 -1.55009 0
M  V30 3199 O 304.685 0.226157 -1.72726 0
M  V30 3200 C 301.817 0.330812 -3.39291 0
M  V30 3201 H 303.01 -1.33357 -2.68619 0
M  V30 3202 H 300.563 -0.728416 -1.38289 0
M  V30 3203 H 301.298 1.21852 -3.00537 0
M  V30 3204 H 301.083 -0.308679 -3.90883 0
M  V30 3205 H 302.573 0.657865 -4.12386 0
M  V30 3206 N 303.011 1.40521 -0.713556 0
M  V30 3207 C 303.974 2.29098 -0.0684347 0
M  V30 3208 C 304.974 1.45268 0.689472 0
M  V30 3209 O 306.164 1.66205 0.521677 0
M  V30 3210 C 303.296 3.28446 0.913024 0
M  V30 3211 H 304.489 2.87645 -0.84855 0
M  V30 3212 H 302.042 1.48809 -0.47809 0
M  V30 3213 H 302.777 2.74913 1.72027 0
M  V30 3214 H 302.562 3.90327 0.372472 0
M  V30 3215 H 304.052 3.94777 1.36165 0
M  V30 3216 N 304.489 0.459591 1.5075 0
M  V30 3217 C 305.714 -0.0996819 2.0716 0
M  V30 3218 C 306.139 -1.33761 1.32249 0
M  V30 3219 O 305.497 -1.77551 0.366786 0
M  V30 3220 C 305.545 -0.378226 3.58611 0
M  V30 3221 O 304.649 -1.46081 3.85661 0
M  V30 3222 H 303.99 0.00791392 0.663953 0
M  V30 3223 H 306.52 0.647329 1.9409 0
M  V30 3224 H 306.53 -0.622135 4.03229 0
M  V30 3225 H 305.205 0.526439 4.12555 0
M  V30 3226 H 303.782 -1.20511 3.5289 0
M  V30 3227 N 305.967 -1.56429 0.191757 0
M  V30 3228 C 306.897 -2.21937 -0.725696 0
M  V30 3229 C 307.878 -1.1814 -1.2238 0
M  V30 3230 O 309.063 -1.46636 -1.27325 0
M  V30 3231 C 306.193 -2.87611 -1.94672 0
M  V30 3232 C 305.147 -3.97623 -1.58366 0
M  V30 3233 C 304.473 -4.50446 -2.88102 0
M  V30 3234 C 305.773 -5.16197 -0.796133 0
M  V30 3235 H 307.467 -2.98861 -0.179606 0
M  V30 3236 H 305.013 -1.43749 -0.0849464 0
M  V30 3237 H 306.966 -3.3212 -2.59373 0
M  V30 3238 H 305.69 -2.08087 -2.51728 0
M  V30 3239 H 304.349 -3.53801 -0.960247 0
M  V30 3240 H 303.997 -3.67688 -3.43241 0
M  V30 3241 H 303.697 -5.24675 -2.64556 0
M  V30 3242 H 305.221 -4.97654 -3.53798 0
M  V30 3243 H 306.635 -5.57271 -1.34618 0
M  V30 3244 H 305.032 -5.96471 -0.658928 0
M  V30 3245 H 306.102 -4.84473 0.203478 0
M  V30 3246 N 307.445 0.0818655 -1.57387 0
M  V30 3247 C 308.861 0.436412 -1.53517 0
M  V30 3248 C 309.061 1.79758 -0.910459 0
M  V30 3249 O 308.117 2.47324 -0.508636 0
M  V30 3250 C 309.43 0.386734 -2.98203 0
M  V30 3251 C 310.978 0.467644 -3.09487 0
M  V30 3252 C 311.453 0.447978 -4.55804 0
M  V30 3253 N 312.944 0.508348 -4.60402 0
M  V30 3254 C 313.679 0.515184 -5.71081 0
M  V30 3255 N 313.175 0.477435 -6.91153 0
M  V30 3256 N 314.968 0.560988 -5.59294 0
M  V30 3257 H 307.119 -0.809546 -1.96367 0
M  V30 3258 H 309.382 -0.302733 -0.898363 0
M  V30 3259 H 309.088 -0.546539 -3.47427 0
M  V30 3260 H 308.962 1.20075 -3.57578 0
M  V30 3261 H 311.349 1.39134 -2.60242 0
M  V30 3262 H 311.43 -0.374753 -2.5304 0
M  V30 3263 H 311.074 -0.471826 -5.05704 0
M  V30 3264 H 311.004 1.30777 -5.10103 0
M  V30 3265 H 313.495 0.54218 -3.7399 0
M  V30 3266 H 313.808 0.486299 -7.71268 0
M  V30 3267 H 312.153 0.444278 -6.93579 0
M  V30 3268 H 315.344 0.5881 -4.64391 0
M  V30 3269 H 315.517 0.562846 -6.45551 0
M  V30 3270 N 308.923 1.53595 0.353017 0
M  V30 3271 C 310.17 1.70385 1.09431 0
M  V30 3272 C 310.498 0.462113 1.88931 0
M  V30 3273 O 309.753 -0.556074 1.87633 0
M  V30 3274 C 310.052 2.91313 2.07054 0
M  V30 3275 C 309.718 4.27308 1.43939 0
M  V30 3276 C 308.38 4.64287 1.26454 0
M  V30 3277 C 310.732 5.11829 0.983883 0
M  V30 3278 C 308.06 5.83412 0.620226 0
M  V30 3279 C 310.412 6.31611 0.353516 0
M  V30 3280 C 309.076 6.67293 0.166272 0
M  V30 3281 H 308.346 0.623484 0.400436 0
M  V30 3282 H 310.993 1.87799 0.374655 0
M  V30 3283 H 309.298 2.68463 2.85368 0
M  V30 3284 H 310.995 3.01497 2.64387 0
M  V30 3285 H 307.585 3.98198 1.58543 0
M  V30 3286 H 311.769 4.838 1.10685 0
M  V30 3287 H 307.025 6.09639 0.463681 0
M  V30 3288 H 311.199 6.964 -0.00757555 0
M  V30 3289 H 308.826 7.59461 -0.335047 0
M  V30 3290 N 310.401 -0.613514 1.45168 0
M  V30 3291 C 311.812 -1.19539 1.43413 0
M  V30 3292 C 312.163 -1.95558 0.158632 0
M  V30 3293 O 311.288 -2.0335 -0.740119 0
M  V30 3294 C 311.883 -2.17445 2.59813 0
M  V30 3295 C 310.442 -2.71022 2.61197 0
M  V30 3296 C 309.589 -1.46323 2.35552 0
M  V30 3297 H 312.54 -0.403163 1.53494 0
M  V30 3298 H 312.561 -3.00373 2.33574 0
M  V30 3299 H 312.073 -1.62089 3.52631 0
M  V30 3300 H 310.174 -3.30332 1.7237 0
M  V30 3301 H 310.287 -3.15859 3.60236 0
M  V30 3302 H 308.651 -1.75072 1.84992 0
M  V30 3303 H 309.434 -0.92844 3.30507 0
M  V30 3304 N 311.879 -1.3236 -0.855495 0
M  V30 3305 C 313.156 -1.13491 -1.59309 0
M  V30 3306 C 313.536 0.30503 -2.08885 0
M  V30 3307 O 312.884 1.30151 -1.87811 0
M  V30 3308 C 313.094 -2.16176 -2.73987 0
M  V30 3309 C 314.442 -2.49463 -3.43589 0
M  V30 3310 O 315.466 -2.14715 -2.84211 0
M  V30 3311 O 314.325 -3.09027 -4.50738 0
M  V30 3312 H 311.419 -0.437887 -0.701559 0
M  V30 3313 H 313.965 -1.43887 -0.899696 0
M  V30 3314 H 312.737 -3.1297 -2.34873 0
M  V30 3315 H 312.36 -1.86769 -3.51003 0
M  V30 3316 N 313.357 1.07166 -1.15556 0
M  V30 3317 C 314.773 1.31899 -0.898603 0
M  V30 3318 C 314.973 1.96333 0.453383 0
M  V30 3319 O 314.029 2.22438 1.19489 0
M  V30 3320 C 315.342 2.20826 -2.04099 0
M  V30 3321 C 316.89 2.34269 -2.07574 0
M  V30 3322 C 317.365 3.26546 -3.21141 0
M  V30 3323 N 318.856 3.34127 -3.20801 0
M  V30 3324 C 319.591 4.05595 -4.05315 0
M  V30 3325 N 319.087 4.79661 -4.99897 0
M  V30 3326 N 320.88 4.01555 -3.93332 0
M  V30 3327 H 313.031 0.637302 -2.02613 0
M  V30 3328 H 315.294 0.343468 -0.883591 0
M  V30 3329 H 315 1.80744 -3.01703 0
M  V30 3330 H 314.874 3.21364 -1.97496 0
M  V30 3331 H 317.261 2.73603 -1.10568 0
M  V30 3332 H 317.342 1.33429 -2.18244 0
M  V30 3333 H 316.986 2.87931 -4.184 0
M  V30 3334 H 316.916 4.27345 -3.07708 0
M  V30 3335 H 319.407 2.81336 -2.52306 0
M  V30 3336 H 319.72 5.31694 -5.60822 0
M  V30 3337 H 318.065 4.78671 -5.03884 0
M  V30 3338 H 321.256 3.42806 -3.18751 0
M  V30 3339 H 321.429 4.56987 -4.5942 0
M  V30 3340 N 314.835 0.952656 1.25548 0
M  V30 3341 C 316.063 0.623496 1.97282 0
M  V30 3342 C 316.478 -0.803987 1.70826 0
M  V30 3343 O 315.835 -1.53755 0.983147 0
M  V30 3344 C 315.886 0.870209 3.5087 0
M  V30 3345 O 315.607 2.24156 3.76412 0
M  V30 3346 C 317.108 0.553164 4.39835 0
M  V30 3347 H 314.328 0.233931 0.628902 0
M  V30 3348 H 316.872 1.27649 1.59768 0
M  V30 3349 H 315.027 0.263652 3.86502 0
M  V30 3350 H 315.441 2.31021 4.70882 0
M  V30 3351 H 316.915 0.776342 5.46513 0
M  V30 3352 H 317.392 -0.512215 4.36203 0
M  V30 3353 H 317.998 1.13896 4.09766 0
M  V30 3354 N 316.313 -1.40141 0.720998 0
M  V30 3355 C 317.56 -2.00787 0.262842 0
M  V30 3356 C 317.888 -1.5718 -1.14563 0
M  V30 3357 O 317.143 -0.785391 -1.79249 0
M  V30 3358 C 317.442 -3.56165 0.296892 0
M  V30 3359 C 317.108 -4.19373 1.65641 0
M  V30 3360 C 315.77 -4.36352 2.02855 0
M  V30 3361 C 318.122 -4.54578 2.54968 0
M  V30 3362 C 315.45 -4.8582 3.28931 0
M  V30 3363 C 317.802 -5.05447 3.80402 0
M  V30 3364 C 316.466 -5.20635 4.17726 0
M  V30 3365 H 315.736 -0.734731 0.0961807 0
M  V30 3366 H 318.383 -1.67673 0.925093 0
M  V30 3367 H 316.688 -3.8922 -0.448932 0
M  V30 3368 H 318.385 -4.00929 -0.0755208 0
M  V30 3369 H 314.975 -4.06549 1.35704 0
M  V30 3370 H 319.159 -4.41091 2.27491 0
M  V30 3371 H 314.415 -4.95764 3.57811 0
M  V30 3372 H 318.589 -5.31663 4.49786 0
M  V30 3373 H 316.216 -5.58728 5.15487 0
M  V30 3374 N 317.792 -0.46758 -1.50504 0
M  V30 3375 C 318.74 0.342482 -2.30065 0
M  V30 3376 C 319.734 0.993596 -1.37201 0
M  V30 3377 O 320.94 0.925102 -1.54408 0
M  V30 3378 H 317.315 0.129283 -0.740803 0
M  V30 3379 H 319.286 -0.34899 -2.96352 0
M  V30 3380 C 318.035 1.4139 -3.17654 0
M  V30 3381 H 317.358 0.922264 -3.89017 0
M  V30 3382 H 318.798 1.95335 -3.76325 0
M  V30 3383 C 317.257 2.4139 -2.35016 0
M  V30 3384 O 317.787 3.46586 -2.03079 0
M  V30 3385 N 315.993 2.13021 -1.97662 0
M  V30 3386 H 315.54 1.27499 -2.23834 0
M  V30 3387 H 315.498 2.80164 -1.42673 0
M  V30 3388 N 319.27 1.56325 -0.20005 0
M  V30 3389 C 320.203 2.15234 0.758267 0
M  V30 3390 C 321.181 1.09046 1.20614 0
M  V30 3391 O 322.365 1.37186 1.29276 0
M  V30 3392 C 319.492 2.71524 2.02466 0
M  V30 3393 C 318.538 3.90345 1.71852 0
M  V30 3394 S 319.371 5.28513 0.862249 0
M  V30 3395 C 320.527 5.88227 2.13868 0
M  V30 3396 H 320.76 2.96183 0.2575 0
M  V30 3397 H 318.293 1.54393 0.0150099 0
M  V30 3398 H 320.251 3.04598 2.75191 0
M  V30 3399 H 318.912 1.90607 2.49655 0
M  V30 3400 H 318.105 4.28158 2.65888 0
M  V30 3401 H 317.707 3.58306 1.07205 0
M  V30 3402 H 319.999 6.02891 3.09076 0
M  V30 3403 H 320.942 6.84714 1.80479 0
M  V30 3404 H 321.35 5.16874 2.2694 0
M  V30 3405 N 320.748 -0.0735177 1.57428 0
M  V30 3406 C 321.994 -0.774145 1.87443 0
M  V30 3407 C 322.327 -1.77311 0.792103 0
M  V30 3408 O 321.602 -1.93492 -0.197793 0
M  V30 3409 C 321.885 -1.48367 3.28115 0
M  V30 3410 C 321.738 -0.501227 4.46999 0
M  V30 3411 C 323.057 -2.429 3.66998 0
M  V30 3412 H 320.176 -0.279971 0.681752 0
M  V30 3413 H 322.818 -0.0373616 1.89963 0
M  V30 3414 H 320.968 -2.11171 3.26097 0
M  V30 3415 H 322.64 0.121468 4.6114 0
M  V30 3416 H 320.883 0.183593 4.33411 0
M  V30 3417 H 321.554 -1.03526 5.42205 0
M  V30 3418 H 324.03 -1.90175 3.70098 0
M  V30 3419 H 322.906 -2.89549 4.66318 0
M  V30 3420 H 323.167 -3.27628 2.96837 0
M  V30 3421 N 322.226 -1.5378 -0.344866 0
M  V30 3422 C 323.642 -1.44015 -0.687888 0
M  V30 3423 C 323.842 -0.595834 -1.92489 0
M  V30 3424 O 322.898 -0.0863064 -2.52352 0
M  V30 3425 C 324.211 -2.87481 -0.881758 0
M  V30 3426 C 325.759 -2.97247 -0.980459 0
M  V30 3427 C 326.234 -4.41819 -1.20665 0
M  V30 3428 N 327.725 -4.45339 -1.27389 0
M  V30 3429 C 328.46 -5.54333 -1.46639 0
M  V30 3430 N 327.956 -6.73335 -1.63071 0
M  V30 3431 N 329.749 -5.41944 -1.49176 0
M  V30 3432 H 321.9 -2.07169 0.468475 0
M  V30 3433 H 324.163 -0.93643 0.147655 0
M  V30 3434 H 323.869 -3.51672 -0.0443444 0
M  V30 3435 H 323.743 -3.32352 -1.78388 0
M  V30 3436 H 326.13 -2.33197 -1.8084 0
M  V30 3437 H 326.211 -2.5574 -0.0552713 0
M  V30 3438 H 325.855 -5.06449 -0.383652 0
M  V30 3439 H 325.785 -4.80917 -2.14539 0
M  V30 3440 H 328.276 -3.59585 -1.1622 0
M  V30 3441 H 328.589 -7.52165 -1.77391 0
M  V30 3442 H 326.934 -6.76282 -1.60209 0
M  V30 3443 H 330.125 -4.47932 -1.3592 0
M  V30 3444 H 330.298 -6.26946 -1.63837 0
M  V30 3445 N 323.704 0.605807 -1.45491 0
M  V30 3446 C 324.951 1.36476 -1.49601 0
M  V30 3447 C 325.279 1.94007 -0.138452 0
M  V30 3448 O 324.534 1.75638 0.863114 0
M  V30 3449 C 324.833 2.53012 -2.52428 0
M  V30 3450 C 324.499 2.13617 -3.97087 0
M  V30 3451 C 323.161 2.02587 -4.36477 0
M  V30 3452 C 325.513 1.82899 -4.88055 0
M  V30 3453 C 322.841 1.59064 -5.64726 0
M  V30 3454 C 325.193 1.40861 -6.16718 0
M  V30 3455 C 323.857 1.28391 -6.55036 0
M  V30 3456 H 323.127 0.499402 -0.547429 0
M  V30 3457 H 325.774 0.684546 -1.78847 0
M  V30 3458 H 324.079 3.26379 -2.16758 0
M  V30 3459 H 325.776 3.1124 -2.52845 0
M  V30 3460 H 322.366 2.23129 -3.65939 0
M  V30 3461 H 326.55 1.90317 -4.58359 0
M  V30 3462 H 321.806 1.48034 -5.93208 0
M  V30 3463 H 325.98 1.16138 -6.86648 0
M  V30 3464 H 323.607 0.944403 -7.54311 0
M  V30 3465 N 325.182 1.32811 0.848464 0
M  V30 3466 C 326.43 1.23479 1.59991 0
M  V30 3467 C 326.751 -0.201853 1.93952 0
M  V30 3468 O 326.021 -1.12818 1.60153 0
M  V30 3469 H 324.601 0.454034 0.593179 0
M  V30 3470 H 327.263 1.66412 1.01455 0
M  V30 3471 H 326.359 1.82178 2.53412 0
M  V30 3472 N 326.66 -1.06551 1.16123 0
M  V30 3473 C 327.909 -1.78687 0.935622 0
M  V30 3474 C 328.222 -1.88056 -0.538001 0
M  V30 3475 O 329.428 -2.56794 -0.88143 0
M  V30 3476 C 327.884 -3.21143 1.62466 0
M  V30 3477 C 327.492 -3.19949 3.13587 0
M  V30 3478 C 329.236 -3.9783 1.48092 0
M  V30 3479 C 327.143 -4.57108 3.75241 0
M  V30 3480 H 326.073 -0.669712 0.346412 0
M  V30 3481 H 328.724 -1.19534 1.39226 0
M  V30 3482 H 327.106 -3.80539 1.09572 0
M  V30 3483 H 328.28 -2.70151 3.73303 0
M  V30 3484 H 326.595 -2.5676 3.27816 0
M  V30 3485 H 329.192 -4.99217 1.91538 0
M  V30 3486 H 329.535 -4.14078 0.429507 0
M  V30 3487 H 330.068 -3.4495 1.98127 0
M  V30 3488 H 326.807 -4.46065 4.80319 0
M  V30 3489 H 326.327 -5.07111 3.20309 0
M  V30 3490 H 328.006 -5.26069 3.76644 0
M  V30 3491 N 328.138 -0.959301 -1.25041 0
M  V30 3492 C 329.101 -0.487677 -2.23952 0
M  V30 3493 C 330.101 0.41119 -1.55454 0
M  V30 3494 O 331.291 0.207825 -1.72956 0
M  V30 3495 C 328.423 0.294807 -3.39623 0
M  V30 3496 H 329.616 -1.36198 -2.67189 0
M  V30 3497 H 327.169 -0.743042 -1.37508 0
M  V30 3498 H 327.904 1.18658 -3.01813 0
M  V30 3499 H 327.689 -0.35012 -3.90534 0
M  V30 3500 H 329.179 0.614089 -4.1306 0
M  V30 3501 N 329.616 1.39756 -0.72842 0
M  V30 3502 C 330.549 2.28176 -0.0330172 0
M  V30 3503 C 331.527 1.44035 0.754501 0
M  V30 3504 O 332.711 1.73434 0.738445 0
M  V30 3505 C 329.838 3.24795 0.960504 0
M  V30 3506 C 328.884 4.25693 0.262264 0
M  V30 3507 S 329.717 5.25714 -1.01906 0
M  V30 3508 C 330.873 6.25894 -0.0279717 0
M  V30 3509 H 331.106 2.86807 -0.78287 0
M  V30 3510 H 328.639 1.45382 -0.519951 0
M  V30 3511 H 330.597 3.80983 1.52846 0
M  V30 3512 H 329.258 2.65196 1.68315 0
M  V30 3513 H 328.451 4.93699 1.01379 0
M  V30 3514 H 328.053 3.7327 -0.233482 0
M  V30 3515 H 330.345 6.72585 0.814621 0
M  V30 3516 H 331.288 7.04876 -0.67499 0
M  V30 3517 H 331.696 5.63466 0.341489 0
M  V30 3518 N 331.094 0.475555 1.50254 0
M  V30 3519 C 332.324 -0.0753399 2.06463 0
M  V30 3520 C 332.732 -1.33661 1.33908 0
M  V30 3521 O 332.075 -1.79219 0.403257 0
M  V30 3522 C 332.137 -0.424921 3.5698 0
M  V30 3523 C 331.801 0.734965 4.51051 0
M  V30 3524 C 332.798 1.61827 4.94073 0
M  V30 3525 C 330.483 0.926557 4.9368 0
M  V30 3526 C 332.477 2.67754 5.78434 0
M  V30 3527 C 330.164 1.98904 5.77824 0
M  V30 3528 C 331.162 2.8629 6.20103 0
M  V30 3529 O 330.85 3.90708 7.02568 0
M  V30 3530 H 330.582 0.00576308 0.675975 0
M  V30 3531 H 333.136 0.664662 1.94349 0
M  V30 3532 H 331.366 -1.21817 3.67012 0
M  V30 3533 H 333.055 -0.911422 3.95535 0
M  V30 3534 H 333.821 1.48196 4.61804 0
M  V30 3535 H 329.7 0.25584 4.6029 0
M  V30 3536 H 333.244 3.35992 6.11355 0
M  V30 3537 H 329.141 2.12541 6.09505 0
M  V30 3538 H 329.909 3.87751 7.20827 0
M  V30 3539 N 332.573 -1.56217 0.208337 0
M  V30 3540 C 333.821 -1.97558 -0.426076 0
M  V30 3541 C 334.142 -1.09683 -1.61229 0
M  V30 3542 O 333.412 -0.170956 -1.95153 0
M  V30 3543 H 331.992 -0.729575 -0.160405 0
M  V30 3544 H 334.654 -1.92606 0.298155 0
M  V30 3545 H 333.75 -3.02672 -0.761312 0
M  V30 3546 N 334.051 0.0651679 -1.57465 0
M  V30 3547 C 334.981 1.07693 -2.07182 0
M  V30 3548 C 335.962 1.39962 -0.966673 0
M  V30 3549 O 337.147 1.49475 -1.2398 0
M  V30 3550 C 334.277 2.3885 -2.52127 0
M  V30 3551 C 333.231 2.20917 -3.66579 0
M  V30 3552 C 332.557 3.57515 -3.97601 0
M  V30 3553 C 333.857 1.62493 -4.9638 0
M  V30 3554 H 335.551 0.663199 -2.91962 0
M  V30 3555 H 333.097 0.317569 -1.40455 0
M  V30 3556 H 335.05 3.09928 -2.85522 0
M  V30 3557 H 333.774 2.82215 -1.64384 0
M  V30 3558 H 332.433 1.52279 -3.33477 0
M  V30 3559 H 332.081 3.98463 -3.06979 0
M  V30 3560 H 331.781 3.46353 -4.74672 0
M  V30 3561 H 333.305 4.30013 -4.33499 0
M  V30 3562 H 334.719 2.23445 -5.27963 0
M  V30 3563 H 333.116 1.62009 -5.77818 0
M  V30 3564 H 334.186 0.587041 -4.81333 0
M  V30 3565 N 335.529 1.53961 0.336706 0
M  V30 3566 C 336.492 1.81724 1.39675 0
M  V30 3567 C 337.492 0.688532 1.45313 0
M  V30 3568 O 338.682 0.956829 1.45569 0
M  V30 3569 C 335.814 1.96543 2.78538 0
M  V30 3570 H 337.007 2.76424 1.16318 0
M  V30 3571 H 334.56 1.45478 0.571474 0
M  V30 3572 H 335.295 1.0401 3.07168 0
M  V30 3573 H 335.08 2.78665 2.75841 0
M  V30 3574 H 336.57 2.19516 3.5525 0
M  V30 3575 N 337.007 -0.598083 1.45811 0
M  V30 3576 C 338.418 -1.18011 1.44673 0
M  V30 3577 C 338.769 -1.95378 0.179364 0
M  V30 3578 O 337.894 -2.04124 -0.718509 0
M  V30 3579 C 338.489 -2.14677 2.62105 0
M  V30 3580 C 337.048 -2.68236 2.64057 0
M  V30 3581 C 336.195 -1.43816 2.37091 0
M  V30 3582 H 339.146 -0.38686 1.53913 0
M  V30 3583 H 339.167 -2.97878 2.36746 0
M  V30 3584 H 338.679 -1.5834 3.5433 0
M  V30 3585 H 336.78 -3.28486 1.75864 0
M  V30 3586 H 336.893 -3.12021 3.63566 0
M  V30 3587 H 335.257 -1.731 1.86838 0
M  V30 3588 H 336.04 -0.893333 3.31473 0
M  V30 3589 N 338.485 -1.33259 -0.841409 0
M  V30 3590 C 339.71 -1.2775 -1.63385 0
M  V30 3591 C 340.135 0.149188 -1.87507 0
M  V30 3592 O 339.493 1.10498 -1.43736 0
M  V30 3593 C 339.541 -2.05571 -2.96265 0
M  V30 3594 O 338.645 -1.41257 -3.87453 0
M  V30 3595 H 337.986 -0.439627 -0.497618 0
M  V30 3596 H 340.516 -1.75782 -1.04699 0
M  V30 3597 H 340.526 -2.16241 -3.45982 0
M  V30 3598 H 339.201 -3.09309 -2.7803 0
M  V30 3599 H 337.778 -1.39217 -3.45938 0
M  V30 3600 N 339.963 1.05934 -1.16686 0
M  V30 3601 C 341.374 1.60263 -0.957745 0
M  V30 3602 C 341.725 1.89789 0.49745 0
M  V30 3603 O 340.85 1.67401 1.37135 0
M  V30 3604 C 341.445 2.91172 -1.73218 0
M  V30 3605 C 340.004 3.42188 -1.56794 0
M  V30 3606 C 339.151 2.16028 -1.73859 0
M  V30 3607 H 342.102 0.888392 -1.31504 0
M  V30 3608 H 342.123 3.60744 -1.21014 0
M  V30 3609 H 341.635 2.6965 -2.79124 0
M  V30 3610 H 339.736 3.68762 -0.533437 0
M  V30 3611 H 339.849 4.17273 -2.35414 0
M  V30 3612 H 338.213 2.26426 -1.16633 0
M  V30 3613 H 338.996 1.96985 -2.81161 0
M  V30 3614 N 341.441 0.965919 1.2453 0
M  V30 3615 C 342.689 0.625593 1.92174 0
M  V30 3616 C 343.01 -0.841652 1.75901 0
M  V30 3617 O 342.28 -1.60061 1.12948 0
M  V30 3618 H 340.86 0.228388 0.71123 0
M  V30 3619 H 343.522 1.2266 1.51461 0
M  V30 3620 H 342.618 0.864653 2.99884 0
M  V30 3621 N 342.919 -1.39368 0.735821 0
M  V30 3622 C 344.168 -1.99733 0.281004 0
M  V30 3623 C 344.481 -1.59055 -1.13846 0
M  V30 3624 O 345.687 -2.12262 -1.69284 0
M  V30 3625 C 344.143 -3.57057 0.451462 0
M  V30 3626 C 343.751 -4.06697 1.87886 0
M  V30 3627 C 345.495 -4.2446 0.0584616 0
M  V30 3628 C 343.402 -5.56598 1.99883 0
M  V30 3629 H 342.332 -0.747163 0.101311 0
M  V30 3630 H 344.983 -1.59357 0.909819 0
M  V30 3631 H 343.365 -3.95234 -0.246263 0
M  V30 3632 H 344.539 -3.79853 2.60861 0
M  V30 3633 H 342.854 -3.5196 2.22515 0
M  V30 3634 H 345.451 -5.34549 0.127099 0
M  V30 3635 H 345.794 -4.04444 -0.986433 0
M  V30 3636 H 346.327 -3.9146 0.707374 0
M  V30 3637 H 343.066 -5.81494 3.02564 0
M  V30 3638 H 342.586 -5.85242 1.31346 0
M  V30 3639 H 344.265 -6.22022 1.78039 0
M  V30 3640 N 344.397 -0.483516 -1.5 0
M  V30 3641 C 345.344 0.304164 -2.28787 0
M  V30 3642 C 346.314 0.976114 -1.34392 0
M  V30 3643 O 347.499 0.986156 -1.63339 0
M  V30 3644 C 344.639 1.37298 -3.16612 0
M  V30 3645 C 343.752 0.714561 -4.26049 0
M  V30 3646 C 342.887 1.76232 -5.01114 0
M  V30 3647 C 341.926 1.08483 -6.0241 0
M  V30 3648 N 341.063 2.076 -6.70706 0
M  V30 3649 H 345.903 -0.373981 -2.95644 0
M  V30 3650 H 343.44 -0.196275 -1.45785 0
M  V30 3651 H 345.398 2.00445 -3.65893 0
M  V30 3652 H 344.028 2.02012 -2.51776 0
M  V30 3653 H 343.08 -0.0297798 -3.80388 0
M  V30 3654 H 344.392 0.180383 -4.98474 0
M  V30 3655 H 343.546 2.46929 -5.54176 0
M  V30 3656 H 342.285 2.33033 -4.28424 0
M  V30 3657 H 341.29 0.363545 -5.48597 0
M  V30 3658 H 342.515 0.523551 -6.77079 0
M  V30 3659 H 340.461 2.63394 -6.00799 0
M  V30 3660 H 340.378 1.59201 -7.39047 0
M  V30 3661 H 341.646 2.77639 -7.2838 0
M  V30 3662 N 345.875 1.56104 -0.216619 0
M  V30 3663 C 347.286 1.844 0.292128 0
M  V30 3664 C 347.637 1.13788 1.59833 0
M  V30 3665 O 346.762 0.405888 2.12559 0
M  V30 3666 C 347.357 3.3452 0.53681 0
M  V30 3667 C 345.916 3.63151 0.989876 0
M  V30 3668 C 345.063 2.77255 0.0502302 0
M  V30 3669 H 348.014 1.52481 -0.439926 0
M  V30 3670 H 348.035 3.54459 1.38345 0
M  V30 3671 H 347.547 3.85885 -0.414031 0
M  V30 3672 H 345.648 3.17238 1.95425 0
M  V30 3673 H 345.761 4.71177 0.867698 0
M  V30 3674 H 344.125 2.48555 0.556117 0
M  V30 3675 H 344.908 3.31416 -0.89544 0
M  V30 3676 N 347.353 -0.0568162 1.57498 0
M  V30 3677 C 348.283 -1.06593 2.0775 0
M  V30 3678 C 349.264 -1.39448 0.974082 0
M  V30 3679 O 350.449 -1.48815 1.24771 0
M  V30 3680 C 347.579 -2.37509 2.5339 0
M  V30 3681 C 346.533 -2.1897 3.67745 0
M  V30 3682 C 345.859 -3.55402 3.99492 0
M  V30 3683 C 347.159 -1.59859 4.97235 0
M  V30 3684 H 348.853 -0.647706 2.9231 0
M  V30 3685 H 346.399 -0.310116 1.40621 0
M  V30 3686 H 348.352 -3.08409 2.87162 0
M  V30 3687 H 347.076 -2.8134 1.65878 0
M  V30 3688 H 345.735 -1.50508 3.3428 0
M  V30 3689 H 345.383 -3.9683 3.09088 0
M  V30 3690 H 345.083 -3.43831 4.76502 0
M  V30 3691 H 346.607 -4.27708 4.35773 0
M  V30 3692 H 348.021 -2.20642 5.29141 0
M  V30 3693 H 346.418 -1.58942 5.78669 0
M  V30 3694 H 347.488 -0.561506 4.81638 0
M  V30 3695 N 348.832 -1.54138 -0.328536 0
M  V30 3696 C 349.762 -1.86167 -1.40939 0
M  V30 3697 C 350.743 -0.718044 -1.54202 0
M  V30 3698 O 351.928 -0.971328 -1.68163 0
M  V30 3699 C 349.058 -2.08461 -2.77779 0
M  V30 3700 C 348.012 -3.24299 -2.7931 0
M  V30 3701 C 347.338 -3.31955 -4.19178 0
M  V30 3702 C 348.638 -4.62065 -2.43502 0
M  V30 3703 H 350.332 -2.76689 -1.14383 0
M  V30 3704 H 347.878 -1.33132 -0.548806 0
M  V30 3705 H 349.831 -2.29453 -3.53454 0
M  V30 3706 H 348.555 -1.14684 -3.05802 0
M  V30 3707 H 347.214 -3.03187 -2.0609 0
M  V30 3708 H 346.862 -2.35745 -4.44335 0
M  V30 3709 H 346.562 -4.09805 -4.2111 0
M  V30 3710 H 348.086 -3.55175 -4.96672 0
M  V30 3711 H 349.5 -4.8297 -3.08889 0
M  V30 3712 H 347.897 -5.42429 -2.56693 0
M  V30 3713 H 348.967 -4.64652 -1.38659 0
M  V30 3714 N 350.31 0.590341 -1.46126 0
M  V30 3715 C 351.721 1.17243 -1.45296 0
M  V30 3716 C 352.072 1.95281 -0.189723 0
M  V30 3717 O 351.197 2.04502 0.707674 0
M  V30 3718 C 351.792 2.13284 -2.6324 0
M  V30 3719 C 350.351 2.66832 -2.65476 0
M  V30 3720 C 349.498 1.42557 -2.3785 0
M  V30 3721 H 352.449 0.378692 -1.54116 0
M  V30 3722 H 352.47 2.96619 -2.38323 0
M  V30 3723 H 351.982 1.56459 -3.55165 0
M  V30 3724 H 350.083 3.27548 -1.77603 0
M  V30 3725 H 350.196 3.10088 -3.65215 0
M  V30 3726 H 348.56 1.72107 -1.87753 0
M  V30 3727 H 349.343 0.875741 -3.31942 0
M  V30 3728 N 351.788 1.33704 0.83433 0
M  V30 3729 C 353.018 1.28281 1.6195 0
M  V30 3730 C 353.426 -0.147603 1.88623 0
M  V30 3731 O 352.769 -1.1016 1.47005 0
M  V30 3732 C 352.831 1.99386 2.99141 0
M  V30 3733 C 352.495 3.48681 2.95416 0
M  V30 3734 C 353.492 4.438 2.70809 0
M  V30 3735 C 351.177 3.90925 3.15409 0
M  V30 3736 C 353.171 5.79138 2.66229 0
M  V30 3737 C 350.858 5.26366 3.10454 0
M  V30 3738 C 351.856 6.20284 2.85895 0
M  V30 3739 O 351.544 7.53245 2.80852 0
M  V30 3740 H 351.276 0.44315 0.510484 0
M  V30 3741 H 353.83 1.76711 1.04702 0
M  V30 3742 H 352.06 1.45554 3.58261 0
M  V30 3743 H 353.749 1.87403 3.60049 0
M  V30 3744 H 354.515 4.12485 2.5511 0
M  V30 3745 H 350.394 3.18229 3.33543 0
M  V30 3746 H 353.938 6.52416 2.4698 0
M  V30 3747 H 349.835 5.57304 3.25703 0
M  V30 3748 H 350.603 7.62846 2.96661 0
M  V30 3749 N 353.266 -1.05314 1.17247 0
M  V30 3750 C 354.677 -1.59753 0.96623 0
M  V30 3751 C 355.028 -1.9005 -0.487378 0
M  V30 3752 O 354.153 -1.68126 -1.36245 0
M  V30 3753 C 354.748 -2.90249 1.74759 0
M  V30 3754 C 353.307 -3.41352 1.58606 0
M  V30 3755 C 352.454 -2.15103 1.75002 0
M  V30 3756 H 355.405 -0.881406 1.31973 0
M  V30 3757 H 355.426 -3.60097 1.22925 0
M  V30 3758 H 354.938 -2.68166 2.8055 0
M  V30 3759 H 353.039 -3.68474 0.552985 0
M  V30 3760 H 353.152 -4.16019 2.37624 0
M  V30 3761 H 351.516 -2.25804 1.17833 0
M  V30 3762 H 352.299 -1.95491 2.82202 0
M  V30 3763 N 354.744 -0.972509 -1.24016 0
M  V30 3764 C 355.674 -0.525548 -2.27509 0
M  V30 3765 C 356.655 0.437262 -1.64384 0
M  V30 3766 O 357.84 0.332343 -1.91335 0
M  V30 3767 C 354.97 0.180448 -3.46831 0
M  V30 3768 C 353.924 -0.698859 -4.22256 0
M  V30 3769 C 353.25 0.138903 -5.3452 0
M  V30 3770 C 354.55 -1.98582 -4.83076 0
M  V30 3771 H 356.244 -1.39058 -2.65148 0
M  V30 3772 H 353.79 -0.67009 -1.27459 0
M  V30 3773 H 355.743 0.504387 -4.18371 0
M  V30 3774 H 354.467 1.07987 -3.08231 0
M  V30 3775 H 353.126 -1.00614 -3.52523 0
M  V30 3776 H 352.774 1.03862 -4.9216 0
M  V30 3777 H 352.474 -0.446259 -5.85903 0
M  V30 3778 H 353.998 0.457404 -6.08884 0
M  V30 3779 H 355.412 -1.72715 -5.46665 0
M  V30 3780 H 353.809 -2.5181 -5.44713 0
M  V30 3781 H 354.879 -2.67769 -4.04262 0
M  V30 3782 N 356.222 1.38976 -0.743202 0
M  V30 3783 C 357.169 2.30544 -0.10861 0
M  V30 3784 C 358.139 1.49642 0.720869 0
M  V30 3785 O 359.324 1.78304 0.679142 0
M  V30 3786 C 356.464 3.36018 0.786496 0
M  V30 3787 C 355.577 4.31963 -0.0564849 0
M  V30 3788 C 354.712 5.24506 0.840657 0
M  V30 3789 C 353.751 6.121 -0.00658363 0
M  V30 3790 N 352.888 6.96973 0.846943 0
M  V30 3791 H 357.728 2.8424 -0.895088 0
M  V30 3792 H 355.265 1.3995 -0.453048 0
M  V30 3793 H 357.223 3.95768 1.31999 0
M  V30 3794 H 355.853 2.83758 1.53887 0
M  V30 3795 H 354.905 3.73763 -0.707492 0
M  V30 3796 H 356.217 4.93703 -0.711229 0
M  V30 3797 H 355.371 5.89322 1.4417 0
M  V30 3798 H 354.11 4.63107 1.52916 0
M  V30 3799 H 353.115 5.46289 -0.620366 0
M  V30 3800 H 354.34 6.75565 -0.691992 0
M  V30 3801 H 352.286 6.38133 1.52059 0
M  V30 3802 H 352.203 7.5559 0.248864 0
M  V30 3803 H 353.471 7.6621 1.43328 0
M  V30 3804 N 357.7 0.491464 1.49741 0
M  V30 3805 C 358.61 -0.296835 2.32715 0
M  V30 3806 C 359.626 -0.976536 1.44013 0
M  V30 3807 O 360.802 -0.960023 1.77047 0
M  V30 3808 C 357.867 -1.35288 3.19215 0
M  V30 3809 C 356.928 -0.687632 4.23757 0
M  V30 3810 C 356.161 -1.69336 5.06123 0
M  V30 3811 O 356.384 -2.92219 4.89861 0
M  V30 3812 O 355.318 -1.25394 5.88693 0
M  V30 3813 H 359.144 0.382048 3.01287 0
M  V30 3814 H 356.729 0.252953 1.47243 0
M  V30 3815 H 358.611 -1.96411 3.72828 0
M  V30 3816 H 357.286 -2.01487 2.53347 0
M  V30 3817 H 356.193 -0.0369159 3.74082 0
M  V30 3818 H 357.526 -0.0682566 4.92153 0
M  V30 3819 N 359.178 -1.55987 0.224894 0
M  V30 3820 C 360.141 -2.19178 -0.670348 0
M  V30 3821 C 361.141 -1.15461 -1.11917 0
M  V30 3822 O 362.331 -1.40675 -1.02743 0
M  V30 3823 C 359.463 -2.81777 -1.9187 0
M  V30 3824 H 360.656 -2.99662 -0.119364 0
M  V30 3825 H 358.209 -1.5628 -0.0247128 0
M  V30 3826 H 358.944 -2.05172 -2.51147 0
M  V30 3827 H 358.729 -3.57732 -1.60531 0
M  V30 3828 H 360.219 -3.30205 -2.55645 0
M  V30 3829 N 360.656 0.0484629 -1.57525 0
M  V30 3830 C 361.903 0.743125 -1.88372 0
M  V30 3831 C 362.231 1.76383 -0.819715 0
M  V30 3832 O 361.486 1.94855 0.181659 0
M  V30 3833 C 361.785 1.46632 -3.25935 0
M  V30 3834 C 361.451 0.583427 -4.4711 0
M  V30 3835 C 360.113 0.340191 -4.79996 0
M  V30 3836 C 362.465 -0.0273345 -5.21193 0
M  V30 3837 C 359.793 -0.522903 -5.84365 0
M  V30 3838 C 362.145 -0.878017 -6.26477 0
M  V30 3839 C 360.809 -1.1309 -6.5785 0
M  V30 3840 H 360.079 0.271929 -0.689301 0
M  V30 3841 H 362.726 0.00336166 -1.915 0
M  V30 3842 H 361.031 2.2789 -3.18706 0
M  V30 3843 H 362.728 2.00902 -3.47044 0
M  V30 3844 H 359.318 0.783151 -4.21384 0
M  V30 3845 H 363.502 0.147654 -4.9608 0
M  V30 3846 H 358.758 -0.727335 -6.07058 0
M  V30 3847 H 362.932 -1.35789 -6.83033 0
M  V30 3848 H 360.559 -1.80144 -7.38547 0
M  V30 3849 N 362.134 1.5431 0.320358 0
M  V30 3850 C 363.359 1.76954 1.08175 0
M  V30 3851 C 363.784 0.518193 1.80821 0
M  V30 3852 O 363.142 -0.530411 1.73368 0
M  V30 3853 C 363.19 2.96451 2.05303 0
M  V30 3854 O 362.294 2.68221 3.13259 0
M  V30 3855 H 361.635 0.586275 0.311733 0
M  V30 3856 H 364.165 2.01342 0.363676 0
M  V30 3857 H 364.175 3.23887 2.48116 0
M  V30 3858 H 362.85 3.87196 1.51829 0
M  V30 3859 H 361.427 2.51744 2.75099 0
M  V30 3860 N 363.613 -0.582584 1.46437 0
M  V30 3861 C 364.543 -1.70187 1.59871 0
M  V30 3862 C 365.524 -1.64066 0.449042 0
M  V30 3863 O 366.709 -1.82081 0.6753 0
M  V30 3864 C 363.839 -3.08827 1.58881 0
M  V30 3865 C 362.793 -3.29779 2.72819 0
M  V30 3866 C 362.119 -4.68947 2.5689 0
M  V30 3867 C 363.419 -3.17601 4.1464 0
M  V30 3868 H 365.113 -1.592 2.53566 0
M  V30 3869 H 362.659 -0.764472 1.22032 0
M  V30 3870 H 364.612 -3.86951 1.66873 0
M  V30 3871 H 363.336 -3.20713 0.617306 0
M  V30 3872 H 361.995 -2.54054 2.64296 0
M  V30 3873 H 361.643 -4.77599 1.57823 0
M  V30 3874 H 361.343 -4.83919 3.33312 0
M  V30 3875 H 362.867 -5.4924 2.66773 0
M  V30 3876 H 364.281 -3.8557 4.24274 0
M  V30 3877 H 362.678 -3.44094 4.9165 0
M  V30 3878 H 363.748 -2.14681 4.34788 0
M  V30 3879 N 365.091 -1.34144 -0.827227 0
M  V30 3880 C 366.041 -1.21923 -1.92663 0
M  V30 3881 C 367.025 -0.119294 -1.60457 0
M  V30 3882 O 368.217 -0.348539 -1.73534 0
M  V30 3883 C 365.346 -0.972492 -3.29238 0
M  V30 3884 C 364.432 -2.1154 -3.67576 0
M  V30 3885 N 364.823 -3.36627 -3.77512 0
M  V30 3886 C 363.121 -2.02468 -3.97395 0
M  V30 3887 C 363.822 -4.11658 -4.1099 0
M  V30 3888 N 362.798 -3.40207 -4.23981 0
M  V30 3889 H 366.6 -2.16721 -1.98517 0
M  V30 3890 H 364.114 -1.2632 -1.02064 0
M  V30 3891 H 366.111 -0.865847 -4.0781 0
M  V30 3892 H 364.771 -0.0331509 -3.24683 0
M  V30 3893 H 365.782 -3.71234 -3.61118 0
M  V30 3894 H 362.459 -1.16265 -4.00985 0
M  V30 3895 H 363.849 -5.19657 -4.25918 0
M  V30 3896 N 366.569 1.04691 -1.17803 0
M  V30 3897 C 367.794 1.81984 -0.994813 0
M  V30 3898 C 368.219 1.82586 0.452112 0
M  V30 3899 O 367.577 1.23854 1.324 0
M  V30 3900 C 367.625 3.2575 -1.54659 0
M  V30 3901 O 366.729 4.05267 -0.763728 0
M  V30 3902 H 366.07 0.562483 -0.352857 0
M  V30 3903 H 368.6 1.3189 -1.56417 0
M  V30 3904 H 368.61 3.76541 -1.57102 0
M  V30 3905 H 367.285 3.24627 -2.59981 0
M  V30 3906 H 365.862 3.63972 -0.811108 0
M  V30 3907 N 368.047 0.979072 1.23499 0
M  V30 3908 C 369.463 0.687475 1.44034 0
M  V30 3909 C 369.663 -0.746801 1.8715 0
M  V30 3910 O 368.719 -1.51939 2.0167 0
M  V30 3911 C 370.032 1.68127 2.49307 0
M  V30 3912 C 371.58 1.69516 2.63122 0
M  V30 3913 C 372.055 2.67723 3.71603 0
M  V30 3914 N 373.546 2.66233 3.79044 0
M  V30 3915 C 374.281 3.38891 4.62537 0
M  V30 3916 N 373.777 4.21103 5.50131 0
M  V30 3917 N 375.57 3.27661 4.56721 0
M  V30 3918 H 367.721 1.90559 0.938135 0
M  V30 3919 H 369.984 0.821051 0.473897 0
M  V30 3920 H 369.69 2.70693 2.2454 0
M  V30 3921 H 369.564 1.46306 3.4767 0
M  V30 3922 H 371.951 0.676561 2.8724 0
M  V30 3923 H 372.032 1.95404 1.65079 0
M  V30 3924 H 371.676 3.69724 3.48233 0
M  V30 3925 H 371.606 2.39111 4.69184 0
M  V30 3926 H 374.097 2.06568 3.16446 0
M  V30 3927 H 374.41 4.73403 6.10827 0
M  V30 3928 H 372.755 4.25195 5.49759 0
M  V30 3929 H 375.946 2.62887 3.87309 0
M  V30 3930 H 376.119 3.84547 5.21562 0
M  V30 3931 N 369.525 -1.3858 0.750561 0
M  V30 3932 C 370.455 -2.33102 0.136237 0
M  V30 3933 C 371.436 -1.54713 -0.706965 0
M  V30 3934 O 372.621 -1.83043 -0.648769 0
M  V30 3935 C 369.751 -3.38882 -0.760017 0
M  V30 3936 C 368.705 -4.27995 -0.0197785 0
M  V30 3937 C 368.031 -5.24605 -1.03408 0
M  V30 3938 C 369.331 -5.09554 1.14684 0
M  V30 3939 H 371.025 -2.84726 0.925822 0
M  V30 3940 H 368.571 -1.36898 0.446654 0
M  V30 3941 H 370.524 -4.0397 -1.19943 0
M  V30 3942 H 369.248 -2.85734 -1.58189 0
M  V30 3943 H 367.907 -3.64409 0.400184 0
M  V30 3944 H 367.555 -4.67746 -1.84994 0
M  V30 3945 H 367.255 -5.85081 -0.543464 0
M  V30 3946 H 368.779 -5.9257 -1.47288 0
M  V30 3947 H 370.193 -5.67899 0.785118 0
M  V30 3948 H 368.59 -5.7925 1.56812 0
M  V30 3949 H 369.66 -4.4347 1.96118 0
M  V30 3950 N 371.003 -0.499398 -1.49478 0
M  V30 3951 C 372.249 0.0457576 -2.02748 0
M  V30 3952 C 372.582 1.36793 -1.37846 0
M  V30 3953 O 371.857 1.87596 -0.513601 0
M  V30 3954 C 372.14 0.199986 -3.59544 0
M  V30 3955 C 371.993 -1.1452 -4.34977 0
M  V30 3956 C 373.312 0.94137 -4.29914 0
M  V30 3957 H 370.431 0.0151552 -0.736844 0
M  V30 3958 H 373.073 -0.650498 -1.78518 0
M  V30 3959 H 371.223 0.793007 -3.8032 0
M  V30 3960 H 372.895 -1.77697 -4.25701 0
M  V30 3961 H 371.138 -1.73488 -3.97598 0
M  V30 3962 H 371.809 -0.990607 -5.43039 0
M  V30 3963 H 374.285 0.43844 -4.13784 0
M  V30 3964 H 373.161 1.01812 -5.39375 0
M  V30 3965 H 373.422 1.98471 -3.95046 0
M  V30 3966 N 372.481 1.55866 -0.233164 0
M  V30 3967 C 373.431 2.17442 0.685774 0
M  V30 3968 C 374.415 1.12617 1.14918 0
M  V30 3969 O 375.607 1.3857 1.10124 0
M  V30 3970 C 372.736 2.86685 1.88856 0
M  V30 3971 C 371.822 3.98749 1.4443 0
M  V30 3972 N 372.213 5.00744 0.713364 0
M  V30 3973 C 370.511 4.11052 1.73068 0
M  V30 3974 C 371.212 5.79673 0.485205 0
M  V30 3975 N 370.188 5.33454 1.04536 0
M  V30 3976 H 373.99 2.93659 0.119022 0
M  V30 3977 H 371.504 1.62362 -0.0348995 0
M  V30 3978 H 373.501 3.29218 2.55776 0
M  V30 3979 H 372.161 2.11967 2.45967 0
M  V30 3980 H 373.172 5.16613 0.364861 0
M  V30 3981 H 369.849 3.47495 2.31416 0
M  V30 3982 H 371.239 6.71829 -0.097365 0
M  V30 3983 N 373.959 -0.0401083 1.57549 0
M  V30 3984 C 375.205 -0.734211 1.89043 0
M  V30 3985 C 375.538 -1.75591 0.829535 0
M  V30 3986 O 374.813 -1.93868 -0.156706 0
M  V30 3987 C 375.096 -1.41374 3.31188 0
M  V30 3988 C 374.949 -0.406299 4.47961 0
M  V30 3989 C 376.268 -2.35061 3.72068 0
M  V30 3990 H 373.387 -0.265447 0.687537 0
M  V30 3991 H 376.029 0.00294087 1.9 0
M  V30 3992 H 374.179 -2.04206 3.30503 0
M  V30 3993 H 375.851 0.219255 4.60779 0
M  V30 3994 H 374.094 0.275485 4.32924 0
M  V30 3995 H 374.765 -0.920022 5.44279 0
M  V30 3996 H 377.241 -1.82282 3.74049 0
M  V30 3997 H 376.117 -2.79593 4.72355 0
M  V30 3998 H 376.378 -3.21258 3.0372 0
M  V30 3999 N 375.437 -1.54477 -0.31217 0
M  V30 4000 C 376.384 -1.84655 -1.38461 0
M  V30 4001 C 377.354 -0.694536 -1.50882 0
M  V30 4002 O 378.539 -0.942081 -1.6592 0
M  V30 4003 C 375.679 -2.0896 -2.74645 0
M  V30 4004 C 374.792 -3.36618 -2.70763 0
M  V30 4005 C 373.927 -3.50824 -3.98868 0
M  V30 4006 C 372.966 -4.72315 -3.89339 0
M  V30 4007 N 372.103 -4.83387 -5.09197 0
M  V30 4008 H 376.943 -2.76142 -1.12026 0
M  V30 4009 H 374.48 -1.36748 -0.542065 0
M  V30 4010 H 376.438 -2.21045 -3.53829 0
M  V30 4011 H 375.068 -1.20752 -2.99364 0
M  V30 4012 H 374.12 -3.33211 -1.83506 0
M  V30 4013 H 375.432 -4.25917 -2.59608 0
M  V30 4014 H 374.586 -3.62513 -4.86486 0
M  V30 4015 H 373.325 -2.59638 -4.12843 0
M  V30 4016 H 372.33 -4.6067 -3.00105 0
M  V30 4017 H 373.555 -5.64897 -3.76919 0
M  V30 4018 H 371.501 -3.9512 -5.23657 0
M  V30 4019 H 371.418 -5.66669 -5.00422 0
M  V30 4020 H 372.686 -4.9942 -5.98498 0
M  V30 4021 N 376.915 0.57481 -1.46744 0
M  V30 4022 C 377.862 1.68329 -1.57905 0
M  V30 4023 C 378.832 1.60625 -0.422927 0
M  V30 4024 O 380.017 1.79721 -0.640711 0
M  V30 4025 C 377.157 3.06665 -1.58274 0
M  V30 4026 C 376.27 3.24935 -2.84678 0
M  V30 4027 C 375.405 4.53566 -2.76499 0
M  V30 4028 C 374.444 4.65207 -3.97806 0
M  V30 4029 N 373.581 5.85172 -3.87967 0
M  V30 4030 H 378.421 1.58127 -2.52587 0
M  V30 4031 H 375.958 0.770552 -1.25303 0
M  V30 4032 H 377.916 3.86745 -1.56473 0
M  V30 4033 H 376.546 3.15745 -0.671194 0
M  V30 4034 H 375.598 2.38405 -2.96424 0
M  V30 4035 H 376.91 3.29403 -3.7456 0
M  V30 4036 H 376.064 5.41885 -2.72848 0
M  V30 4037 H 374.803 4.51548 -1.8427 0
M  V30 4038 H 373.808 3.75304 -4.0178 0
M  V30 4039 H 375.033 4.68997 -4.9114 0
M  V30 4040 H 372.979 5.84137 -2.98529 0
M  V30 4041 H 372.896 5.90943 -4.71511 0
M  V30 4042 H 374.164 6.759 -3.88303 0
M  V30 4043 N 378.394 1.34581 0.820102 0
M  V30 4044 C 379.324 1.29038 1.94606 0
M  V30 4045 C 380.305 0.1673 1.69275 0
M  V30 4046 O 381.49 0.360112 1.90832 0
M  V30 4047 C 378.62 1.04793 3.31113 0
M  V30 4048 C 377.574 2.13597 3.70891 0
M  V30 4049 C 376.9 1.74537 5.05412 0
M  V30 4050 C 378.2 3.55451 3.8269 0
M  V30 4051 H 379.894 2.23248 1.99501 0
M  V30 4052 H 377.44 1.0747 0.958449 0
M  V30 4053 H 379.393 0.995592 4.0947 0
M  V30 4054 H 378.117 0.0702565 3.26524 0
M  V30 4055 H 376.776 2.17905 2.9481 0
M  V30 4056 H 376.424 0.754226 4.97313 0
M  V30 4057 H 376.124 2.47361 5.32997 0
M  V30 4058 H 377.648 1.70803 5.86224 0
M  V30 4059 H 379.062 3.5354 4.51312 0
M  V30 4060 H 377.459 4.26922 4.21732 0
M  V30 4061 H 378.529 3.92587 2.84611 0
M  V30 4062 N 379.872 -1.04064 1.18357 0
M  V30 4063 C 380.804 -2.12114 0.868358 0
M  V30 4064 C 381.817 -1.62247 -0.134045 0
M  V30 4065 O 383.006 -1.78253 0.0937933 0
M  V30 4066 C 380.106 -3.37773 0.276132 0
M  V30 4067 C 379.279 -4.16874 1.3242 0
M  V30 4068 C 378.338 -5.20861 0.747662 0
M  V30 4069 O 377.364 -5.51141 1.42239 0
M  V30 4070 N 378.566 -5.78715 -0.454823 0
M  V30 4071 H 381.331 -2.39748 1.79836 0
M  V30 4072 H 378.892 -1.20258 1.08396 0
M  V30 4073 H 380.884 -4.04513 -0.123133 0
M  V30 4074 H 379.454 -3.07581 -0.557895 0
M  V30 4075 H 378.674 -3.45456 1.89878 0
M  V30 4076 H 379.962 -4.66516 2.03078 0
M  V30 4077 H 379.36 -5.56415 -1.02073 0
M  V30 4078 H 377.917 -6.46921 -0.79601 0
M  V30 4079 N 381.35 -0.985608 -1.22978 0
M  V30 4080 C 382.761 -0.693593 -1.73338 0
M  V30 4081 C 383.112 0.789935 -1.79595 0
M  V30 4082 O 382.237 1.61771 -1.43733 0
M  V30 4083 C 382.832 -1.25235 -3.14804 0
M  V30 4084 C 381.391 -1.00987 -3.626 0
M  V30 4085 C 380.538 -1.37695 -2.40698 0
M  V30 4086 H 383.489 -1.15884 -1.08428 0
M  V30 4087 H 383.51 -0.627329 -3.75293 0
M  V30 4088 H 383.022 -2.33209 -3.10218 0
M  V30 4089 H 381.123 0.0535565 -3.72562 0
M  V30 4090 H 381.236 -1.66812 -4.49122 0
M  V30 4091 H 379.6 -0.795459 -2.4196 0
M  V30 4092 H 380.383 -2.46657 -2.38779 0
M  V30 4093 N 382.828 1.3818 -0.7579 0
M  V30 4094 C 384.076 1.99624 -0.315361 0
M  V30 4095 C 384.397 1.60464 1.10799 0
M  V30 4096 O 383.667 0.863507 1.75842 0
M  V30 4097 H 382.247 0.73831 -0.113611 0
M  V30 4098 H 384.909 1.68878 -0.972952 0
M  V30 4099 H 384.005 3.09754 -0.381931 0
M  V30 4100 N 384.306 0.507319 1.49211 0
M  V30 4101 C 385.216 -0.272136 2.33016 0
M  V30 4102 C 386.232 -0.961206 1.45041 0
M  V30 4103 O 387.408 -0.941191 1.78055 0
M  V30 4104 C 384.473 -1.31895 3.20631 0
M  V30 4105 C 383.534 -0.642648 4.24463 0
M  V30 4106 C 382.767 -1.63959 5.07891 0
M  V30 4107 O 382.99 -2.87007 4.92933 0
M  V30 4108 O 381.924 -1.19143 5.8999 0
M  V30 4109 H 385.75 0.413982 3.00865 0
M  V30 4110 H 383.335 0.268556 1.46966 0
M  V30 4111 H 385.217 -1.92446 3.7489 0
M  V30 4112 H 383.892 -1.98788 2.5547 0
M  V30 4113 H 382.799 0.00276252 3.741 0
M  V30 4114 H 384.132 -0.0160534 4.92197 0
M  V30 4115 N 385.784 -1.5574 0.241426 0
M  V30 4116 C 386.731 -2.21149 -0.660432 0
M  V30 4117 C 387.701 -1.17356 -1.17545 0
M  V30 4118 O 388.886 -1.45784 -1.23093 0
M  V30 4119 C 386.026 -2.91059 -1.85414 0
M  V30 4120 C 385.139 -4.09495 -1.37616 0
M  V30 4121 C 384.274 -4.67135 -2.529 0
M  V30 4122 C 383.313 -5.77831 -2.01936 0
M  V30 4123 N 382.45 -6.29677 -3.10566 0
M  V30 4124 H 387.29 -2.97845 -0.095955 0
M  V30 4125 H 384.827 -1.47057 -0.0356024 0
M  V30 4126 H 386.785 -3.29788 -2.5553 0
M  V30 4127 H 385.415 -2.16846 -2.39118 0
M  V30 4128 H 384.467 -3.76117 -0.569235 0
M  V30 4129 H 385.779 -4.89423 -0.962618 0
M  V30 4130 H 384.933 -5.08409 -3.31067 0
M  V30 4131 H 383.672 -3.86411 -2.97553 0
M  V30 4132 H 382.677 -5.36039 -1.22238 0
M  V30 4133 H 383.902 -6.60402 -1.58259 0
M  V30 4134 H 381.848 -5.5186 -3.54664 0
M  V30 4135 H 381.765 -7.04783 -2.73526 0
M  V30 4136 H 383.033 -6.75609 -3.88809 0
M  V30 4137 N 387.262 0.0317525 -1.57568 0
M  V30 4138 C 388.508 0.724175 -1.8943 0
M  V30 4139 C 388.841 1.75149 -0.838836 0
M  V30 4140 O 388.116 1.93948 0.146422 0
M  V30 4141 C 388.399 1.39615 -3.31933 0
M  V30 4142 C 388.252 0.382537 -4.4817 0
M  V30 4143 C 389.571 2.33084 -3.73309 0
M  V30 4144 H 386.69 0.261797 -0.688935 0
M  V30 4145 H 389.332 -0.013017 -1.89996 0
M  V30 4146 H 387.482 2.02451 -3.31581 0
M  V30 4147 H 389.154 -0.243689 -4.60656 0
M  V30 4148 H 387.397 -0.29844 -4.32772 0
M  V30 4149 H 388.068 0.891145 -5.44759 0
M  V30 4150 H 390.544 1.80295 -3.7501 0
M  V30 4151 H 389.42 2.77084 -4.73831 0
M  V30 4152 H 389.681 3.19643 -3.05419 0
M  V30 4153 N 388.74 1.54641 0.303973 0
M  V30 4154 C 389.965 1.78092 1.06292 0
M  V30 4155 C 390.39 0.537342 1.80262 0
M  V30 4156 O 389.748 -0.511993 1.7392 0
M  V30 4157 C 389.796 2.98612 2.02147 0
M  V30 4158 O 388.9 2.71528 3.10397 0
M  V30 4159 H 388.241 0.589548 0.305497 0
M  V30 4160 H 390.771 2.01716 0.3423 0
M  V30 4161 H 390.781 3.265 2.44667 0
M  V30 4162 H 389.456 3.88785 1.47714 0
M  V30 4163 H 388.033 2.54648 2.72413 0
M  V30 4164 N 390.218 -0.567019 1.47046 0
M  V30 4165 C 391.448 -1.34831 1.56538 0
M  V30 4166 C 391.856 -1.8802 0.21101 0
M  V30 4167 O 391.199 -1.65152 -0.804387 0
M  V30 4168 C 391.261 -2.56139 2.52256 0
M  V30 4169 C 390.925 -2.24307 3.98165 0
M  V30 4170 C 391.922 -1.82192 4.86931 0
M  V30 4171 C 389.607 -2.35968 4.43423 0
M  V30 4172 C 391.601 -1.52153 6.18973 0
M  V30 4173 C 389.288 -2.05542 5.75496 0
M  V30 4174 C 390.286 -1.63701 6.63092 0
M  V30 4175 O 389.974 -1.33657 7.92711 0
M  V30 4176 H 389.706 -0.417683 0.531523 0
M  V30 4177 H 392.26 -0.694726 1.93294 0
M  V30 4178 H 390.49 -3.24356 2.10548 0
M  V30 4179 H 392.179 -3.18214 2.51982 0
M  V30 4180 H 392.945 -1.72684 4.53217 0
M  V30 4181 H 388.824 -2.67495 3.75456 0
M  V30 4182 H 392.368 -1.19421 6.87302 0
M  V30 4183 H 388.265 -2.14679 6.08755 0
M  V30 4184 H 389.033 -1.4737 8.05124 0
M  V30 4185 N 391.696 -1.35014 -0.812953 0
M  V30 4186 C 392.944 -1.27678 -1.56661 0
M  V30 4187 C 393.265 0.150359 -1.94419 0
M  V30 4188 O 392.535 1.08532 -1.63088 0
M  V30 4189 H 391.115 -0.469602 -0.580933 0
M  V30 4190 H 393.777 -1.69043 -0.970076 0
M  V30 4191 H 392.873 -1.88833 -2.48492 0
M  V30 4192 N 393.175 1.03435 -1.18907 0
M  V30 4193 C 394.138 2.09756 -0.923844 0
M  V30 4194 C 395.138 1.60528 0.093416 0
M  V30 4195 O 396.328 1.73631 -0.140727 0
M  V30 4196 C 393.46 3.38692 -0.387354 0
M  V30 4197 H 394.653 2.34719 -1.86674 0
M  V30 4198 H 392.206 1.19959 -1.00197 0
M  V30 4199 H 392.941 3.19396 0.561845 0
M  V30 4200 H 392.726 3.75742 -1.12074 0
M  V30 4201 H 394.216 4.17016 -0.220694 0
M  V30 4202 N 394.653 0.992116 1.22453 0
M  V30 4203 C 395.881 0.685944 1.95198 0
M  V30 4204 C 396.296 -0.749233 1.73297 0
M  V30 4205 O 395.653 -1.50549 1.03156 0
M  V30 4206 C 395.704 0.981395 3.47924 0
M  V30 4207 O 395.425 2.36018 3.6909 0
M  V30 4208 C 396.926 0.692815 4.37853 0
M  V30 4209 H 394.146 0.253821 0.621141 0
M  V30 4210 H 396.69 1.32668 1.55626 0
M  V30 4211 H 394.845 0.386481 3.85467 0
M  V30 4212 H 395.259 2.45884 4.63294 0
M  V30 4213 H 396.733 0.949818 5.43767 0
M  V30 4214 H 397.21 -0.373181 4.37612 0
M  V30 4215 H 397.816 1.26874 4.05935 0
M  V30 4216 N 396.131 -1.37776 0.765217 0
M  V30 4217 C 397.361 -2.03828 0.337277 0
M  V30 4218 C 397.769 -1.57841 -1.04321 0
M  V30 4219 O 397.112 -0.752043 -1.67601 0
M  V30 4220 C 397.174 -3.58292 0.294407 0
M  V30 4221 C 396.838 -4.27384 1.61838 0
M  V30 4222 C 397.835 -4.51956 2.56967 0
M  V30 4223 C 395.52 -4.65345 1.89102 0
M  V30 4224 C 397.514 -5.13536 3.77571 0
M  V30 4225 C 395.201 -5.26647 3.09978 0
M  V30 4226 C 396.199 -5.50679 4.04032 0
M  V30 4227 O 395.887 -6.10702 5.2278 0
M  V30 4228 H 395.619 -0.661292 0.140248 0
M  V30 4229 H 398.173 -1.77222 1.03834 0
M  V30 4230 H 396.403 -3.83918 -0.462983 0
M  V30 4231 H 398.092 -4.05763 -0.105581 0
M  V30 4232 H 398.858 -4.23048 2.37183 0
M  V30 4233 H 394.737 -4.45978 1.16725 0
M  V30 4234 H 398.281 -5.3221 4.50997 0
M  V30 4235 H 394.178 -5.54979 3.29649 0
M  V30 4236 H 394.946 -6.29183 5.23517 0
M  V30 4237 N 397.609 -0.515225 -1.4894 0
M  V30 4238 C 398.837 0.0206034 -2.0689 0
M  V30 4239 C 399.252 1.29514 -1.37374 0
M  V30 4240 O 398.609 1.76698 -0.456529 0
M  V30 4241 C 398.66 0.26351 -3.60538 0
M  V30 4242 O 398.381 -0.960517 -4.27441 0
M  V30 4243 C 399.882 0.841383 -4.35242 0
M  V30 4244 H 397.102 -0.0268608 -0.670462 0
M  V30 4245 H 399.646 -0.716651 -1.91532 0
M  V30 4246 H 397.801 0.950777 -3.75552 0
M  V30 4247 H 398.215 -0.73212 -5.19365 0
M  V30 4248 H 399.689 0.96085 -5.43573 0
M  V30 4249 H 400.166 1.8427 -3.98674 0
M  V30 4250 H 400.772 0.191143 -4.2487 0
M  V30 4251 N 399.087 1.5561 -0.249682 0
M  V30 4252 C 400.05 2.20217 0.635394 0
M  V30 4253 C 401.05 1.17227 1.10066 0
M  V30 4254 O 402.24 1.42292 1.00492 0
M  V30 4255 C 399.372 2.84794 1.87363 0
M  V30 4256 H 400.565 2.99814 0.0716752 0
M  V30 4257 H 398.118 1.563 -0.000153234 0
M  V30 4258 H 398.853 2.09142 2.47851 0
M  V30 4259 H 398.638 3.60241 1.5482 0
M  V30 4260 H 400.128 3.3423 2.5036 0
M  V30 4261 N 400.565 -0.0233959 1.57583 0
M  V30 4262 C 401.497 -1.04994 2.03737 0
M  V30 4263 C 402.51 -1.32125 0.951152 0
M  V30 4264 O 403.699 -1.29512 1.22837 0
M  V30 4265 C 400.799 -2.39026 2.40249 0
M  V30 4266 C 399.972 -2.31171 3.7132 0
M  V30 4267 C 399.031 -3.47698 3.94959 0
M  V30 4268 O 398.057 -3.26937 4.65941 0
M  V30 4269 N 399.259 -4.6976 3.41037 0
M  V30 4270 H 402.024 -0.656507 2.92421 0
M  V30 4271 H 399.585 -0.211235 1.60516 0
M  V30 4272 H 401.577 -3.15712 2.53196 0
M  V30 4273 H 400.147 -2.70194 1.57207 0
M  V30 4274 H 399.367 -1.39547 3.68674 0
M  V30 4275 H 400.655 -2.23071 4.57293 0
M  V30 4276 H 400.053 -4.89528 2.83512 0
M  V30 4277 H 398.61 -5.43791 3.59353 0
M  V30 4278 N 402.043 -1.548 -0.295768 0
M  V30 4279 C 403.271 -1.78327 -1.04914 0
M  V30 4280 C 403.686 -0.545316 -1.80753 0
M  V30 4281 O 403.043 0.485013 -1.75937 0
M  V30 4282 C 403.094 -2.99418 -2.02561 0
M  V30 4283 O 402.815 -4.18431 -1.29798 0
M  V30 4284 C 404.316 -3.35375 -2.89895 0
M  V30 4285 H 401.536 -0.594618 -0.310918 0
M  V30 4286 H 404.08 -2.01763 -0.333454 0
M  V30 4287 H 402.235 -2.78175 -2.69624 0
M  V30 4288 H 402.649 -4.86736 -1.95419 0
M  V30 4289 H 404.123 -4.23332 -3.54251 0
M  V30 4290 H 404.6 -2.53761 -3.58472 0
M  V30 4291 H 405.206 -3.58796 -2.28355 0
M  V30 4292 N 403.521 0.559213 -1.47345 0
M  V30 4293 C 404.431 1.69388 -1.62311 0
M  V30 4294 C 405.447 1.6648 -0.505993 0
M  V30 4295 O 406.623 1.85964 -0.773262 0
M  V30 4296 C 403.688 3.05894 -1.63185 0
M  V30 4297 C 402.749 3.19885 -2.86307 0
M  V30 4298 C 401.982 4.49879 -2.87131 0
M  V30 4299 O 402.205 5.35217 -1.97229 0
M  V30 4300 O 401.139 4.67618 -3.78968 0
M  V30 4301 H 404.965 1.59706 -2.58317 0
M  V30 4302 H 402.55 0.728989 -1.30407 0
M  V30 4303 H 404.432 3.87133 -1.66451 0
M  V30 4304 H 403.107 3.15964 -0.70345 0
M  V30 4305 H 402.014 2.38052 -2.88587 0
M  V30 4306 H 403.347 3.14718 -3.78435 0
M  V30 4307 N 404.999 1.35443 0.805782 0
M  V30 4308 C 405.909 1.30546 1.94923 0
M  V30 4309 C 406.925 0.210233 1.72725 0
M  V30 4310 O 408.101 0.43975 1.9654 0
M  V30 4311 C 405.166 1.07782 3.29521 0
M  V30 4312 C 404.227 2.26625 3.64609 0
M  V30 4313 C 403.46 2.04938 4.92784 0
M  V30 4314 O 403.683 1.01624 5.61274 0
M  V30 4315 O 402.617 2.9232 5.26149 0
M  V30 4316 H 406.443 2.26779 2.02002 0
M  V30 4317 H 404.028 1.15823 0.943682 0
M  V30 4318 H 405.91 0.969392 4.10098 0
M  V30 4319 H 404.585 0.146003 3.23371 0
M  V30 4320 H 403.492 2.43033 2.84404 0
M  V30 4321 H 404.825 3.18257 3.75464 0
M  V30 4322 N 406.477 -1.02803 1.19454 0
M  V30 4323 C 407.723 -1.76598 1.0092 0
M  V30 4324 C 408.078 -1.86939 -0.455142 0
M  V30 4325 O 407.371 -1.37575 -1.33355 0
M  V30 4326 C 407.565 -3.18941 1.6128 0
M  V30 4327 C 407.394 -3.22476 3.13431 0
M  V30 4328 C 406.164 -3.30375 3.82336 0
M  V30 4329 C 408.362 -3.09451 4.10785 0
M  V30 4330 N 406.344 -3.23292 5.21877 0
M  V30 4331 C 407.715 -3.10012 5.36929 0
M  V30 4332 C 409.77 -2.93585 4.02135 0
M  V30 4333 C 408.473 -2.96334 6.55423 0
M  V30 4334 C 410.499 -2.81256 5.20239 0
M  V30 4335 C 409.861 -2.82472 6.45282 0
M  V30 4336 H 405.96 -0.657447 0.423424 0
M  V30 4337 H 408.544 -1.22369 1.5144 0
M  V30 4338 H 406.715 -3.71489 1.1336 0
M  V30 4339 H 408.447 -3.81102 1.36173 0
M  V30 4340 H 405.202 -3.3663 3.33132 0
M  V30 4341 H 405.626 -3.23156 5.94894 0
M  V30 4342 H 410.268 -2.91466 3.0628 0
M  V30 4343 H 407.986 -2.97203 7.51463 0
M  V30 4344 H 411.572 -2.70014 5.15348 0
M  V30 4345 H 410.452 -2.73036 7.35133 0
M  V30 4346 N 407.956 -0.998596 -1.21925 0
M  V30 4347 C 409.205 -0.673085 -1.90138 0
M  V30 4348 C 409.518 0.79895 -1.78539 0
M  V30 4349 O 410.724 1.23628 -2.4172 0
M  V30 4350 C 409.18 -1.15339 -3.40918 0
M  V30 4351 C 408.788 -2.65106 -3.61141 0
M  V30 4352 C 410.532 -0.902476 -4.14796 0
M  V30 4353 C 408.439 -3.0671 -5.05651 0
M  V30 4354 H 407.369 -0.248057 -0.712028 0
M  V30 4355 H 410.02 -1.20891 -1.38049 0
M  V30 4356 H 408.402 -0.545658 -3.92223 0
M  V30 4357 H 409.576 -3.31274 -3.20304 0
M  V30 4358 H 407.891 -2.88142 -3.00605 0
M  V30 4359 H 410.488 -1.18895 -5.21314 0
M  V30 4360 H 410.831 0.161349 -4.15987 0
M  V30 4361 H 411.364 -1.47269 -3.69536 0
M  V30 4362 H 408.103 -4.12292 -5.09603 0
M  V30 4363 H 407.623 -2.45249 -5.47369 0
M  V30 4364 H 409.302 -2.9833 -5.74115 0
M  V30 4365 N 409.434 1.37368 -0.772513 0
M  V30 4366 C 410.682 1.99279 -0.336516 0
M  V30 4367 C 411.003 1.6163 1.09091 0
M  V30 4368 O 410.273 0.882109 1.74916 0
M  V30 4369 H 408.853 0.737063 -0.121435 0
M  V30 4370 H 411.515 1.67836 -0.990809 0
M  V30 4371 H 410.611 3.09332 -0.414763 0
M  V30 4372 N 410.912 0.523116 1.48665 0
M  V30 4373 C 412.14 -0.0096312 2.06898 0
M  V30 4374 C 412.555 -1.28784 1.38059 0
M  V30 4375 O 411.912 -1.76453 0.465893 0
M  V30 4376 C 411.963 -0.244386 3.60673 0
M  V30 4377 O 411.684 0.983172 4.26925 0
M  V30 4378 C 413.185 -0.818289 4.35682 0
M  V30 4379 H 410.405 0.0304161 0.67031 0
M  V30 4380 H 412.949 0.726799 1.91149 0
M  V30 4381 H 411.104 -0.930847 3.76051 0
M  V30 4382 H 411.518 0.759653 5.1897 0
M  V30 4383 H 412.992 -0.93201 5.44075 0
M  V30 4384 H 413.469 -1.82153 3.99646 0
M  V30 4385 H 414.075 -0.168609 4.24966 0
M  V30 4386 N 412.39 -1.55475 0.257931 0
M  V30 4387 C 413.639 -1.98383 -0.364275 0
M  V30 4388 C 413.952 -1.14952 -1.58258 0
M  V30 4389 O 415.158 -1.47924 -2.27664 0
M  V30 4390 C 413.614 -3.53037 -0.699479 0
M  V30 4391 C 413.222 -4.45223 0.498046 0
M  V30 4392 C 414.966 -4.04575 -1.28526 0
M  V30 4393 C 412.873 -5.91238 0.138383 0
M  V30 4394 H 411.803 -0.740911 -0.13988 0
M  V30 4395 H 414.454 -1.79936 0.359883 0
M  V30 4396 H 412.836 -3.6722 -1.48207 0
M  V30 4397 H 414.01 -4.42803 1.27522 0
M  V30 4398 H 412.325 -4.04226 0.999503 0
M  V30 4399 H 414.922 -5.11196 -1.56788 0
M  V30 4400 H 415.265 -3.5258 -2.21344 0
M  V30 4401 H 415.798 -3.93762 -0.565337 0
M  V30 4402 H 412.537 -6.47294 1.03398 0
M  V30 4403 H 412.057 -5.96768 -0.602374 0
M  V30 4404 H 413.736 -6.46413 -0.27553 0
M  V30 4405 N 413.868 0.0150385 -1.57593 0
M  V30 4406 C 415.279 0.559832 -1.78109 0
M  V30 4407 C 415.63 1.74814 -0.890756 0
M  V30 4408 O 414.755 2.16216 -0.0892482 0
M  V30 4409 C 415.35 1.02238 -3.23006 0
M  V30 4410 C 413.909 1.51258 -3.44671 0
M  V30 4411 C 413.056 0.456955 -2.73509 0
M  V30 4412 H 416.007 -0.211169 -1.57289 0
M  V30 4413 H 416.028 1.88912 -3.30292 0
M  V30 4414 H 415.54 0.157302 -3.87781 0
M  V30 4415 H 413.641 2.39905 -2.8509 0
M  V30 4416 H 413.754 1.55042 -4.5332 0
M  V30 4417 H 412.118 0.915196 -2.37689 0
M  V30 4418 H 412.901 -0.398896 -3.40975 0
M  V30 4419 N 415.346 1.54954 0.287554 0
M  V30 4420 C 416.595 1.74081 1.01877 0
M  V30 4421 C 416.908 0.541135 1.87966 0
M  V30 4422 O 418.114 0.614491 2.64455 0
M  V30 4423 C 416.57 3.08042 1.86113 0
M  V30 4424 C 416.178 4.35531 1.04961 0
M  V30 4425 C 417.922 3.36523 2.58752 0
M  V30 4426 C 415.829 5.60538 1.88551 0
M  V30 4427 H 414.759 0.64884 0.384087 0
M  V30 4428 H 417.41 1.81426 0.275101 0
M  V30 4429 H 415.792 2.94696 2.64519 0
M  V30 4430 H 416.966 4.59751 0.31074 0
M  V30 4431 H 415.281 4.14085 0.43843 0
M  V30 4432 H 417.878 4.27122 3.21668 0
M  V30 4433 H 418.221 2.56 3.28283 0
M  V30 4434 H 418.754 3.50901 1.87386 0
M  V30 4435 H 415.493 6.43767 1.23466 0
M  V30 4436 H 415.013 5.40483 2.60074 0
M  V30 4437 H 416.692 5.98297 2.46273 0
M  V30 4438 N 416.824 -0.551391 1.4764 0
M  V30 4439 C 418.072 -1.30572 1.54258 0
M  V30 4440 C 418.393 -1.93877 0.208963 0
M  V30 4441 O 417.663 -1.80234 -0.767619 0
M  V30 4442 H 416.243 -0.484894 0.568231 0
M  V30 4443 H 418.905 -0.643402 1.83974 0
M  V30 4444 H 418.001 -2.09621 2.31226 0
M  V30 4445 N 418.302 -1.35869 -0.798587 0
M  V30 4446 C 419.532 -1.32529 -1.58491 0
M  V30 4447 C 419.94 0.0975405 -1.88948 0
M  V30 4448 O 419.283 1.06224 -1.49874 0
M  V30 4449 C 419.345 -2.07247 -2.9375 0
M  V30 4450 C 419.009 -3.56391 -2.86068 0
M  V30 4451 C 420.006 -4.50824 -2.58947 0
M  V30 4452 C 417.691 -3.9915 -3.04933 0
M  V30 4453 C 419.685 -5.85993 -2.5078 0
M  V30 4454 C 417.372 -5.34413 -2.96389 0
M  V30 4455 C 418.37 -6.27646 -2.69349 0
M  V30 4456 O 418.058 -7.60426 -2.60782 0
M  V30 4457 H 417.79 -0.456529 -0.498556 0
M  V30 4458 H 420.344 -1.79425 -0.999799 0
M  V30 4459 H 418.574 -1.55001 -3.54276 0
M  V30 4460 H 420.263 -1.96883 -3.54954 0
M  V30 4461 H 421.029 -4.19104 -2.44084 0
M  V30 4462 H 416.908 -3.26961 -3.24989 0
M  V30 4463 H 420.452 -6.58735 -2.29595 0
M  V30 4464 H 416.349 -5.65743 -3.10813 0
M  V30 4465 H 417.117 -7.70444 -2.76331 0
M  V30 4466 N 419.78 1.02168 -1.19998 0
M  V30 4467 C 420.743 2.08765 -0.94604 0
M  V30 4468 C 421.743 1.60618 0.0763846 0
M  V30 4469 O 422.933 1.73472 -0.159135 0
M  V30 4470 C 420.065 3.38262 -0.423255 0
M  V30 4471 H 421.258 2.32726 -1.89153 0
M  V30 4472 H 418.811 1.1889 -1.01464 0
M  V30 4473 H 419.546 3.19974 0.527938 0
M  V30 4474 H 419.331 3.74532 -1.16053 0
M  V30 4475 H 420.821 4.16759 -0.264911 0
M  V30 4476 N 421.258 1.00505 1.21394 0
M  V30 4477 C 422.535 0.603277 1.86064 0
M  V30 4478 C 422.915 -0.919095 1.90042 0
M  V30 4479 O 422.263 -1.80607 1.39977 0
M  V30 4480 C 422.473 1.23772 3.26315 0
M  V30 4481 C 423.821 1.34586 4.02705 0
M  V30 4482 O 424.845 1.19304 3.35626 0
M  V30 4483 O 423.704 1.59169 5.22807 0
M  V30 4484 H 420.798 0.206634 0.800769 0
M  V30 4485 H 423.344 1.1017 1.29076 0
M  V30 4486 H 422.116 2.27848 3.18121 0
M  V30 4487 H 421.739 0.725648 3.90922 0
M  V30 4488 N 422.737 -1.36956 0.779787 0
M  V30 4489 C 423.985 -1.99097 0.347079 0
M  V30 4490 C 424.306 -1.62206 -1.08232 0
M  V30 4491 O 423.576 -0.891373 -1.74446 0
M  V30 4492 H 422.156 -0.736409 0.125342 0
M  V30 4493 H 424.818 -1.67308 0.999696 0
M  V30 4494 H 423.914 -3.09107 0.431162 0
M  V30 4495 N 424.215 -0.530993 -1.48385 0
M  V30 4496 C 425.461 -0.00538653 -2.03399 0
M  V30 4497 C 425.816 1.31899 -1.40073 0
M  V30 4498 O 425.109 1.83901 -0.537676 0
M  V30 4499 C 425.303 0.172742 -3.56982 0
M  V30 4500 C 425.132 -1.13282 -4.35198 0
M  V30 4501 C 423.902 -1.69296 -4.76096 0
M  V30 4502 C 426.1 -2.04367 -4.71952 0
M  V30 4503 N 424.082 -2.9413 -5.38851 0
M  V30 4504 C 425.453 -3.13777 -5.34737 0
M  V30 4505 C 427.508 -2.04681 -4.53883 0
M  V30 4506 C 426.211 -4.23567 -5.81363 0
M  V30 4507 C 428.237 -3.13466 -5.01491 0
M  V30 4508 C 427.599 -4.21595 -5.64302 0
M  V30 4509 H 423.698 -0.0434945 -0.780789 0
M  V30 4510 H 426.282 -0.712495 -1.81195 0
M  V30 4511 H 424.453 0.848937 -3.79009 0
M  V30 4512 H 426.185 0.698046 -3.98634 0
M  V30 4513 H 422.94 -1.23422 -4.57235 0
M  V30 4514 H 423.364 -3.57689 -5.74794 0
M  V30 4515 H 428.006 -1.22378 -4.04702 0
M  V30 4516 H 425.724 -5.06648 -6.2955 0
M  V30 4517 H 429.31 -3.14765 -4.893 0
M  V30 4518 H 428.19 -5.04384 -6.00472 0
M  V30 4519 N 425.693 1.55336 -0.266172 0
M  V30 4520 C 426.623 2.25146 0.618981 0
M  V30 4521 C 427.604 1.23845 1.16604 0
M  V30 4522 O 428.789 1.52544 1.20183 0
M  V30 4523 C 425.919 2.96572 1.80728 0
M  V30 4524 C 424.873 4.04726 1.39215 0
M  V30 4525 C 424.199 4.63678 2.66283 0
M  V30 4526 C 425.499 5.19407 0.548942 0
M  V30 4527 H 427.193 2.99377 0.0368116 0
M  V30 4528 H 424.739 1.43991 0.0162651 0
M  V30 4529 H 426.692 3.44116 2.43232 0
M  V30 4530 H 425.416 2.19861 2.41514 0
M  V30 4531 H 424.075 3.57979 0.790351 0
M  V30 4532 H 423.723 3.83646 3.25308 0
M  V30 4533 H 423.423 5.367 2.39222 0
M  V30 4534 H 424.947 5.13967 3.29651 0
M  V30 4535 H 426.361 5.63059 1.07876 0
M  V30 4536 H 424.758 5.98936 0.373593 0
M  V30 4537 H 425.828 4.8295 -0.434394 0
M  V30 4538 N 427.171 -0.0066808 1.57599 0
M  V30 4539 C 428.587 -0.36267 1.55425 0
M  V30 4540 C 428.787 -1.75209 0.995187 0
M  V30 4541 O 427.843 -2.44616 0.626058 0
M  V30 4542 C 429.156 -0.244017 2.99708 0
M  V30 4543 C 430.704 -0.319451 3.11366 0
M  V30 4544 C 431.179 -0.229998 4.57422 0
M  V30 4545 N 432.67 -0.288105 4.62303 0
M  V30 4546 C 433.405 -0.242127 5.72889 0
M  V30 4547 N 432.901 -0.147133 6.92644 0
M  V30 4548 N 434.694 -0.293502 5.61333 0
M  V30 4549 H 426.845 0.902314 1.92281 0
M  V30 4550 H 429.108 0.34525 0.882896 0
M  V30 4551 H 428.814 0.711678 3.44424 0
M  V30 4552 H 428.688 -1.02877 3.629 0
M  V30 4553 H 431.075 -1.26559 2.66584 0
M  V30 4554 H 431.156 0.495055 2.50964 0
M  V30 4555 H 430.8 0.712566 5.02877 0
M  V30 4556 H 430.73 -1.0629 5.15761 0
M  V30 4557 H 433.221 -0.363126 3.76151 0
M  V30 4558 H 433.534 -0.117763 7.7271 0
M  V30 4559 H 431.879 -0.112857 6.94908 0
M  V30 4560 H 435.07 -0.365864 4.66668 0
M  V30 4561 H 435.243 -0.254204 6.47501 0
M  V30 4562 N 428.649 -1.55105 -0.279332 0
M  V30 4563 C 430.065 -1.46803 -0.626187 0
M  V30 4564 C 430.265 -0.676939 -1.89789 0
M  V30 4565 O 429.321 -0.19326 -2.51759 0
M  V30 4566 C 430.634 -2.90962 -0.759034 0
M  V30 4567 C 432.182 -3.01138 -0.853504 0
M  V30 4568 C 432.657 -4.46539 -1.01818 0
M  V30 4569 N 434.148 -4.50341 -1.08386 0
M  V30 4570 C 434.883 -5.60053 -1.22996 0
M  V30 4571 N 434.379 -6.79645 -1.34366 0
M  V30 4572 N 436.172 -5.47783 -1.26056 0
M  V30 4573 H 428.323 -2.04996 0.555921 0
M  V30 4574 H 430.586 -0.929325 0.187239 0
M  V30 4575 H 430.292 -3.51544 0.104852 0
M  V30 4576 H 430.166 -3.39619 -1.64131 0
M  V30 4577 H 432.553 -2.40658 -1.70786 0
M  V30 4578 H 432.634 -2.55745 0.0532466 0
M  V30 4579 H 432.278 -5.0762 -0.168504 0
M  V30 4580 H 432.208 -4.89583 -1.93948 0
M  V30 4581 H 434.699 -3.64191 -1.00864 0
M  V30 4582 H 435.012 -7.59012 -1.4533 0
M  V30 4583 H 433.357 -6.82469 -1.31382 0
M  V30 4584 H 436.548 -4.53294 -1.168 0
M  V30 4585 H 436.721 -6.33331 -1.37098 0
M  V30 4586 N 430.127 0.543554 -1.4793 0
M  V30 4587 C 431.057 1.65888 -1.64327 0
M  V30 4588 C 432.038 1.62818 -0.492383 0
M  V30 4589 O 433.223 1.80226 -0.723338 0
M  V30 4590 C 430.353 3.04506 -1.67013 0
M  V30 4591 C 429.307 3.2243 -2.81466 0
M  V30 4592 C 428.633 4.61972 -2.69233 0
M  V30 4593 C 429.933 3.06496 -4.22915 0
M  V30 4594 H 431.627 1.52421 -2.57698 0
M  V30 4595 H 429.173 0.731849 -1.24016 0
M  V30 4596 H 431.126 3.82391 -1.77074 0
M  V30 4597 H 429.85 3.18964 -0.70212 0
M  V30 4598 H 428.509 2.46957 -2.70938 0
M  V30 4599 H 428.157 4.73247 -1.7043 0
M  V30 4600 H 427.857 4.74911 -3.46025 0
M  V30 4601 H 429.381 5.41974 -2.81242 0
M  V30 4602 H 430.795 3.74186 -4.34348 0
M  V30 4603 H 429.192 3.30938 -5.006 0
M  V30 4604 H 430.262 2.03077 -4.40327 0
M  V30 4605 N 431.605 1.3629 0.791371 0
M  V30 4606 C 432.537 1.26321 1.91248 0
M  V30 4607 C 433.55 0.18313 1.61767 0
M  V30 4608 O 434.739 0.437682 1.73051 0
M  V30 4609 C 431.839 0.925901 3.26007 0
M  V30 4610 C 431.012 2.10746 3.83281 0
M  V30 4611 C 430.071 1.74352 4.96475 0
M  V30 4612 O 429.097 2.46416 5.13096 0
M  V30 4613 N 430.299 0.676058 5.7655 0
M  V30 4614 H 433.064 2.22915 2.00323 0
M  V30 4615 H 430.625 1.29659 0.969546 0
M  V30 4616 H 432.617 0.663636 3.99222 0
M  V30 4617 H 431.187 0.0491581 3.12561 0
M  V30 4618 H 430.407 2.53264 3.02077 0
M  V30 4619 H 431.695 2.8969 4.18279 0
M  V30 4620 H 431.093 0.0776467 5.65647 0
M  V30 4621 H 429.65 0.473612 6.50077 0
M  V30 4622 N 433.083 -1.0153 1.20538 0
M  V30 4623 C 434.033 -2.08482 0.922991 0
M  V30 4624 C 435.017 -1.60469 -0.117702 0
M  V30 4625 O 436.209 -1.76772 0.0898465 0
M  V30 4626 C 433.338 -3.39952 0.478312 0
M  V30 4627 C 432.424 -3.94662 1.5525 0
M  V30 4628 N 432.815 -4.22866 2.77521 0
M  V30 4629 C 431.113 -4.22825 1.41897 0
M  V30 4630 C 431.814 -4.67002 3.4682 0
M  V30 4631 N 430.79 -4.69356 2.74237 0
M  V30 4632 H 434.592 -2.28199 1.85209 0
M  V30 4633 H 432.106 -1.19512 1.09957 0
M  V30 4634 H 434.103 -4.16105 0.257408 0
M  V30 4635 H 432.763 -3.21648 -0.444148 0
M  V30 4636 H 433.774 -4.11732 3.1416 0
M  V30 4637 H 430.451 -4.13714 0.561015 0
M  V30 4638 H 431.841 -4.97632 4.51455 0
M  V30 4639 N 434.561 -1.01147 -1.20859 0
M  V30 4640 C 435.808 -0.697865 -1.90095 0
M  V30 4641 C 436.136 0.772014 -1.78522 0
M  V30 4642 O 435.391 1.57595 -1.16027 0
M  V30 4643 C 435.69 -1.0727 -3.40922 0
M  V30 4644 C 435.356 -2.53792 -3.72693 0
M  V30 4645 C 434.018 -2.93829 -3.81075 0
M  V30 4646 C 436.37 -3.48674 -3.87397 0
M  V30 4647 C 433.698 -4.27696 -4.01613 0
M  V30 4648 C 436.05 -4.82223 -4.09444 0
M  V30 4649 C 434.714 -5.21973 -4.16054 0
M  V30 4650 H 433.984 -0.255367 -0.695607 0
M  V30 4651 H 436.631 -1.27111 -1.43231 0
M  V30 4652 H 434.936 -0.417799 -3.89566 0
M  V30 4653 H 436.633 -0.807818 -3.92779 0
M  V30 4654 H 433.223 -2.21768 -3.66765 0
M  V30 4655 H 437.407 -3.18904 -3.80281 0
M  V30 4656 H 432.663 -4.58055 -4.04964 0
M  V30 4657 H 436.837 -5.55672 -4.19763 0
M  V30 4658 H 434.464 -6.25717 -4.31721 0
M  V30 4659 N 436.039 1.36541 -0.78704 0
M  V30 4660 C 436.989 2.27459 -0.156957 0
M  V30 4661 C 437.973 1.46843 0.657709 0
M  V30 4662 O 439.165 1.69245 0.518173 0
M  V30 4663 C 436.294 3.35893 0.709278 0
M  V30 4664 C 435.38 4.23947 -0.114049 0
M  V30 4665 N 435.771 4.92145 -1.16736 0
M  V30 4666 C 434.069 4.4587 0.107497 0
M  V30 4667 C 434.77 5.57261 -1.66837 0
M  V30 4668 N 433.746 5.3473 -0.977992 0
M  V30 4669 H 437.548 2.77669 -0.963185 0
M  V30 4670 H 435.062 1.49839 -0.62627 0
M  V30 4671 H 437.059 3.99953 1.17656 0
M  V30 4672 H 435.719 2.87238 1.51408 0
M  V30 4673 H 436.73 4.94169 -1.54976 0
M  V30 4674 H 433.407 4.08056 0.882994 0
M  V30 4675 H 434.797 6.21728 -2.54762 0
M  V30 4676 N 437.518 0.538854 1.48102 0
M  V30 4677 C 438.764 0.00801365 2.02798 0
M  V30 4678 C 439.097 -1.3309 1.41424 0
M  V30 4679 O 438.372 -1.86169 0.563158 0
M  V30 4680 C 438.655 -0.104589 3.59948 0
M  V30 4681 C 438.508 1.26012 4.31788 0
M  V30 4682 C 439.827 -0.827055 4.32259 0
M  V30 4683 H 436.946 0.00438624 0.736987 0
M  V30 4684 H 439.588 0.6976 1.7673 0
M  V30 4685 H 437.738 -0.691893 3.82289 0
M  V30 4686 H 439.41 1.88922 4.2084 0
M  V30 4687 H 437.653 1.83968 3.92859 0
M  V30 4688 H 438.324 1.13424 5.40221 0
M  V30 4689 H 440.8 -0.328578 4.14801 0
M  V30 4690 H 439.676 -0.87476 5.41885 0
M  V30 4691 H 439.937 -1.87927 4.0017 0
M  V30 4692 N 438.996 -1.55193 0.274407 0
M  V30 4693 C 439.926 -2.25471 -0.607032 0
M  V30 4694 C 440.907 -1.24461 -1.15946 0
M  V30 4695 O 442.092 -1.53179 -1.19373 0
M  V30 4696 C 439.222 -2.97526 -1.79153 0
M  V30 4697 C 438.176 -4.05459 -1.37067 0
M  V30 4698 C 437.502 -4.65084 -2.6382 0
M  V30 4699 C 438.802 -5.19691 -0.521389 0
M  V30 4700 H 440.496 -2.99393 -0.0209343 0
M  V30 4701 H 438.042 -1.43997 -0.00862866 0
M  V30 4702 H 439.995 -3.45402 -2.41404 0
M  V30 4703 H 438.719 -2.21138 -2.40344 0
M  V30 4704 H 437.378 -3.58393 -0.771355 0
M  V30 4705 H 437.026 -3.85365 -3.23268 0
M  V30 4706 H 436.726 -5.37961 -2.36372 0
M  V30 4707 H 438.25 -5.15708 -3.26921 0
M  V30 4708 H 439.664 -5.63623 -1.04889 0
M  V30 4709 H 438.061 -5.99126 -0.341825 0
M  V30 4710 H 439.131 -4.82713 0.46 0
M  V30 4711 N 440.474 -0.00167713 -1.576 0
M  V30 4712 C 441.72 0.683832 -1.90923 0
M  V30 4713 C 442.053 1.7333 -0.875799 0
M  V30 4714 O 441.328 1.94215 0.10525 0
M  V30 4715 C 441.611 1.32543 -3.3482 0
M  V30 4716 C 441.464 0.287387 -4.48881 0
M  V30 4717 C 442.783 2.25114 -3.78169 0
M  V30 4718 H 439.902 0.247125 -0.694333 0
M  V30 4719 H 442.544 -0.0533149 -1.89925 0
M  V30 4720 H 440.694 1.95372 -3.35801 0
M  V30 4721 H 442.366 -0.341346 -4.60035 0
M  V30 4722 H 440.609 -0.39017 -4.32042 0
M  V30 4723 H 441.28 0.775393 -5.46527 0
M  V30 4724 H 443.756 1.723 -3.7875 0
M  V30 4725 H 442.632 2.66971 -4.79602 0
M  V30 4726 H 442.893 3.13092 -3.12131 0
M  V30 4727 N 441.952 1.55251 0.271103 0
M  V30 4728 C 443.229 1.66664 1.02384 0
M  V30 4729 C 443.609 0.534363 2.04225 0
M  V30 4730 O 442.957 -0.465337 2.23712 0
M  V30 4731 C 443.167 3.05961 1.67895 0
M  V30 4732 C 444.515 3.63772 2.18986 0
M  V30 4733 O 445.539 3.08606 1.77878 0
M  V30 4734 O 444.398 4.60429 2.94393 0
M  V30 4735 H 441.492 0.676957 0.475035 0
M  V30 4736 H 444.038 1.67589 0.26681 0
M  V30 4737 H 442.81 3.79815 0.941071 0
M  V30 4738 H 442.433 3.08943 2.5028 0
M  V30 4739 N 443.43 -0.535701 1.48216 0
M  V30 4740 C 444.678 -1.28928 1.55634 0
M  V30 4741 C 444.999 -1.93645 0.229514 0
M  V30 4742 O 444.269 -1.81038 -0.74846 0
M  V30 4743 H 442.849 -0.47884 0.573342 0
M  V30 4744 H 445.511 -0.623853 1.84646 0
M  V30 4745 H 444.607 -2.07157 2.33436 0
M  V30 4746 N 444.908 -1.36708 -0.784132 0
M  V30 4747 C 445.84 -1.27333 -1.90575 0
M  V30 4748 C 446.853 -0.191706 -1.61667 0
M  V30 4749 O 448.042 -0.446854 -1.72816 0
M  V30 4750 C 445.142 -0.943177 -3.25511 0
M  V30 4751 C 444.315 -2.12776 -3.82158 0
M  V30 4752 C 443.374 -1.76983 -4.95544 0
M  V30 4753 O 442.4 -2.49134 -5.11782 0
M  V30 4754 N 443.602 -0.706624 -5.76183 0
M  V30 4755 H 446.367 -2.23974 -1.99138 0
M  V30 4756 H 443.928 -1.30171 -0.962656 0
M  V30 4757 H 445.92 -0.684799 -3.98864 0
M  V30 4758 H 444.49 -0.0657333 -3.12531 0
M  V30 4759 H 443.71 -2.54863 -3.0073 0
M  V30 4760 H 444.998 -2.91904 -4.16737 0
M  V30 4761 H 444.396 -0.107643 -5.65598 0
M  V30 4762 H 442.953 -0.50808 -6.49817 0
M  V30 4763 N 446.386 1.0089 -1.21074 0
M  V30 4764 C 447.333 2.09588 -0.966512 0
M  V30 4765 C 448.303 1.65761 0.106089 0
M  V30 4766 O 449.488 1.90758 -0.0402287 0
M  V30 4767 C 446.628 3.40958 -0.533058 0
M  V30 4768 C 445.741 3.9822 -1.67467 0
M  V30 4769 C 444.876 5.17682 -1.19076 0
M  V30 4770 C 443.915 5.67043 -2.30496 0
M  V30 4771 N 443.052 6.77759 -1.83267 0
M  V30 4772 H 447.892 2.29815 -1.89708 0
M  V30 4773 H 445.429 1.12689 -0.945489 0
M  V30 4774 H 447.387 4.1637 -0.263019 0
M  V30 4775 H 446.017 3.20781 0.360505 0
M  V30 4776 H 445.069 3.1983 -2.05944 0
M  V30 4777 H 446.381 4.3085 -2.51336 0
M  V30 4778 H 445.535 6.00326 -0.877151 0
M  V30 4779 H 444.274 4.86635 -0.322066 0
M  V30 4780 H 443.279 4.82999 -2.62664 0
M  V30 4781 H 444.504 6.00121 -3.17855 0
M  V30 4782 H 442.45 6.48527 -0.987356 0
M  V30 4783 H 442.367 7.09624 -2.60711 0
M  V30 4784 H 443.635 7.63949 -1.54928 0
M  V30 4785 N 447.864 1.01787 1.20321 0
M  V30 4786 C 448.827 0.593972 2.2137 0
M  V30 4787 C 449.827 -0.336553 1.57239 0
M  V30 4788 O 451.017 -0.125069 1.7375 0
M  V30 4789 C 448.149 -0.132433 3.40643 0
M  V30 4790 H 449.342 1.48791 2.60387 0
M  V30 4791 H 446.895 0.807803 1.33807 0
M  V30 4792 H 447.63 -1.04123 3.0713 0
M  V30 4793 H 447.415 0.53605 3.88418 0
M  V30 4794 H 448.905 -0.416314 4.1552 0
M  V30 4795 N 449.342 -1.36122 0.79427 0
M  V30 4796 C 450.753 -1.81646 0.431446 0
M  V30 4797 C 451.104 -1.66043 -1.04518 0
M  V30 4798 O 450.229 -1.1841 -1.8113 0
M  V30 4799 C 450.824 -3.29785 0.776341 0
M  V30 4800 C 449.383 -3.73501 0.466282 0
M  V30 4801 C 448.53 -2.58313 1.00844 0
M  V30 4802 H 451.481 -1.24274 0.986995 0
M  V30 4803 H 451.502 -3.80437 0.0692413 0
M  V30 4804 H 451.014 -3.4111 1.8511 0
M  V30 4805 H 449.115 -3.67733 -0.600245 0
M  V30 4806 H 449.228 -4.68754 0.990288 0
M  V30 4807 H 447.592 -2.5102 0.431406 0
M  V30 4808 H 448.375 -2.72421 2.08906 0
M  V30 4809 N 450.82 -0.546701 -1.47814 0
M  V30 4810 C 452.069 -0.0166497 -2.01693 0
M  V30 4811 C 452.382 1.33721 -1.42752 0
M  V30 4812 O 453.588 1.95658 -1.8823 0
M  V30 4813 C 452.044 0.0206769 -3.59894 0
M  V30 4814 C 451.652 -1.3293 -4.27824 0
M  V30 4815 C 453.396 0.498674 -4.21561 0
M  V30 4816 C 451.303 -1.25165 -5.78003 0
M  V30 4817 H 450.233 -0.0024541 -0.753996 0
M  V30 4818 H 452.884 -0.692984 -1.69912 0
M  V30 4819 H 451.266 0.76244 -3.88591 0
M  V30 4820 H 452.44 -2.08795 -4.10781 0
M  V30 4821 H 450.755 -1.74438 -3.78101 0
M  V30 4822 H 453.352 0.575 -5.31599 0
M  V30 4823 H 453.695 1.5083 -3.88016 0
M  V30 4824 H 454.228 -0.18791 -3.97356 0
M  V30 4825 H 450.967 -2.23695 -6.1615 0
M  V30 4826 H 450.487 -0.53464 -5.97412 0
M  V30 4827 H 452.166 -0.949299 -6.39998 0
M  V30 4828 N 452.299 1.55045 -0.282633 0
M  V30 4829 C 453.545 2.00056 0.332481 0
M  V30 4830 C 453.878 1.1708 1.54939 0
M  V30 4831 O 453.153 0.2427 1.9298 0
M  V30 4832 C 453.436 3.53086 0.70725 0
M  V30 4833 C 453.289 4.46813 -0.517521 0
M  V30 4834 C 454.608 4.12245 1.54084 0
M  V30 4835 H 451.727 0.727268 0.119373 0
M  V30 4836 H 454.369 1.85932 -0.391076 0
M  V30 4837 H 452.519 3.65253 1.32372 0
M  V30 4838 H 454.191 4.46579 -1.15607 0
M  V30 4839 H 452.434 4.18163 -1.1542 0
M  V30 4840 H 453.105 5.51595 -0.211426 0
M  V30 4841 H 455.581 4.03401 1.02013 0
M  V30 4842 H 454.457 5.19515 1.77186 0
M  V30 4843 H 454.718 3.62951 2.52427 0
M  V30 4844 N 453.777 0.010035 1.57597 0
M  V30 4845 C 455.025 -0.671371 1.90623 0
M  V30 4846 C 455.346 -1.73753 0.885151 0
M  V30 4847 O 454.616 -1.95752 -0.0760611 0
M  V30 4848 H 453.196 -0.250968 0.703579 0
M  V30 4849 H 455.858 0.0533325 1.94827 0
M  V30 4850 H 454.954 -1.13626 2.90681 0
M  V30 4851 N 455.255 -1.55392 -0.262866 0
M  V30 4852 C 456.671 -1.47459 -0.610582 0
M  V30 4853 C 456.871 -0.697031 -1.8906 0
M  V30 4854 O 455.927 -0.219952 -2.5154 0
M  V30 4855 C 457.24 -2.91751 -0.728131 0
M  V30 4856 C 458.788 -3.02027 -0.821517 0
M  V30 4857 C 459.263 -4.47594 -0.97076 0
M  V30 4858 N 460.754 -4.51465 -1.03603 0
M  V30 4859 C 461.489 -5.61326 -1.17049 0
M  V30 4860 N 460.985 -6.81032 -1.2715 0
M  V30 4861 N 462.778 -5.49089 -1.20239 0
M  V30 4862 H 454.929 -2.04395 0.577632 0
M  V30 4863 H 457.192 -0.927287 0.197086 0
M  V30 4864 H 456.898 -3.51413 0.142132 0
M  V30 4865 H 456.772 -3.4134 -1.6052 0
M  V30 4866 H 459.159 -2.42456 -1.68224 0
M  V30 4867 H 459.24 -2.55674 0.0803688 0
M  V30 4868 H 458.884 -5.07771 -0.114655 0
M  V30 4869 H 458.814 -4.91613 -1.88745 0
M  V30 4870 H 461.305 -3.6524 -0.96996 0
M  V30 4871 H 461.618 -7.60511 -1.37271 0
M  V30 4872 H 459.963 -6.83824 -1.24136 0
M  V30 4873 H 463.154 -4.54507 -1.11985 0
M  V30 4874 H 463.327 -6.34749 -1.30373 0
M  V30 4875 N 456.733 0.527833 -1.48498 0
M  V30 4876 C 457.982 1.28003 -1.55878 0
M  V30 4877 C 458.295 1.9414 -0.238577 0
M  V30 4878 O 459.501 2.7083 -0.190643 0
M  V30 4879 C 457.957 2.32272 -2.74914 0
M  V30 4880 C 457.565 1.72196 -4.13585 0
M  V30 4881 C 459.309 3.08488 -2.91608 0
M  V30 4882 C 457.216 2.74417 -5.23879 0
M  V30 4883 H 456.146 0.481413 -0.580308 0
M  V30 4884 H 458.797 0.557195 -1.74836 0
M  V30 4885 H 457.179 3.07601 -2.49395 0
M  V30 4886 H 458.353 1.03041 -4.49132 0
M  V30 4887 H 456.668 1.08464 -4.02025 0
M  V30 4888 H 459.265 3.84879 -3.71177 0
M  V30 4889 H 459.608 3.64481 -2.01145 0
M  V30 4890 H 460.141 2.40274 -3.17038 0
M  V30 4891 H 456.88 2.23242 -6.16314 0
M  V30 4892 H 456.4 3.41893 -4.92818 0
M  V30 4893 H 458.079 3.37362 -5.52083 0
M  V30 4894 N 458.211 1.37122 0.776871 0
M  V30 4895 C 459.451 1.33441 1.54831 0
M  V30 4896 C 459.815 -0.0818963 1.91825 0
M  V30 4897 O 461.016 -0.24338 2.67696 0
M  V30 4898 C 459.287 2.24267 2.78279 0
M  V30 4899 S 460.846 2.38389 3.68397 0
M  V30 4900 H 457.664 0.473791 0.530135 0
M  V30 4901 H 460.266 1.7282 0.913968 0
M  V30 4902 H 458.97 3.261 2.49173 0
M  V30 4903 H 458.501 1.85953 3.46677 0
M  V30 4904 H 460.516 1.59068 4.70013 0
M  V30 4905 N 459.689 -1.00246 1.21608 0
M  V30 4906 C 460.622 -2.08794 0.920892 0
M  V30 4907 C 461.6 -1.62059 -0.132552 0
M  V30 4908 O 462.784 -1.885 -0.0030366 0
M  V30 4909 C 459.911 -3.36525 0.383226 0
M  V30 4910 C 458.957 -4.02172 1.41987 0
M  V30 4911 S 459.79 -4.44256 2.98994 0
M  V30 4912 C 460.946 -5.7517 2.4684 0
M  V30 4913 H 461.179 -2.33511 1.8401 0
M  V30 4914 H 458.712 -1.13562 1.04609 0
M  V30 4915 H 460.67 -4.10423 0.0795871 0
M  V30 4916 H 459.331 -3.09854 -0.514711 0
M  V30 4917 H 458.524 -4.94114 0.993335 0
M  V30 4918 H 458.126 -3.34559 1.67171 0
M  V30 4919 H 460.418 -6.51042 1.87484 0
M  V30 4920 H 461.361 -6.22638 3.37235 0
M  V30 4921 H 461.769 -5.32112 1.88461 0
M  V30 4922 N 461.167 -1.02423 -1.1978 0
M  V30 4923 C 462.444 -0.632802 -1.85081 0
M  V30 4924 C 462.824 0.888745 -1.9148 0
M  V30 4925 O 462.172 1.78357 -1.42832 0
M  V30 4926 C 462.382 -1.28947 -3.24305 0
M  V30 4927 C 463.73 -1.40976 -4.00513 0
M  V30 4928 O 464.754 -1.24628 -3.33686 0
M  V30 4929 O 463.613 -1.67467 -5.20209 0
M  V30 4930 H 460.707 -0.219348 -0.79738 0
M  V30 4931 H 463.253 -1.12209 -1.27307 0
M  V30 4932 H 462.025 -2.3288 -3.14456 0
M  V30 4933 H 461.648 -0.787748 -3.89718 0
M  V30 4934 N 462.645 1.35699 -0.801477 0
M  V30 4935 C 463.577 2.28598 -0.166028 0
M  V30 4936 C 464.59 1.50044 0.631721 0
M  V30 4937 O 465.779 1.72339 0.464921 0
M  V30 4938 C 462.879 3.29625 0.787451 0
M  V30 4939 C 462.052 4.37384 0.037171 0
M  V30 4940 C 461.111 5.183 0.908375 0
M  V30 4941 O 460.137 5.68053 0.361189 0
M  V30 4942 N 461.339 5.35912 2.23112 0
M  V30 4943 H 464.104 2.83771 -0.964071 0
M  V30 4944 H 461.665 1.47994 -0.656469 0
M  V30 4945 H 463.657 3.80648 1.37439 0
M  V30 4946 H 462.227 2.75004 1.48632 0
M  V30 4947 H 461.447 3.87364 -0.730935 0
M  V30 4948 H 462.735 5.0653 -0.480109 0
M  V30 4949 H 462.133 4.97125 2.69968 0
M  V30 4950 H 460.69 5.90133 2.76741 0
M  V30 4951 N 464.123 0.554532 1.47522 0
M  V30 4952 C 465.363 0.0317994 2.04375 0
M  V30 4953 C 465.727 -1.29242 1.41988 0
M  V30 4954 O 466.928 -1.90269 1.89872 0
M  V30 4955 C 465.199 -0.0623344 3.57346 0
M  V30 4956 S 466.758 -0.531578 4.35568 0
M  V30 4957 H 463.576 0.0238553 0.7106 0
M  V30 4958 H 466.178 0.74066 1.80927 0
M  V30 4959 H 464.882 0.905857 4.00278 0
M  V30 4960 H 464.413 -0.794831 3.85287 0
M  V30 4961 H 466.428 -1.79175 4.62721 0
M  V30 4962 N 465.601 -1.54893 0.290851 0
M  V30 4963 C 466.534 -2.19289 -0.631489 0
M  V30 4964 C 467.512 -1.15893 -1.14051 0
M  V30 4965 O 468.696 -1.4449 -1.21058 0
M  V30 4966 C 465.823 -2.82866 -1.86291 0
M  V30 4967 C 464.869 -3.997 -1.48801 0
M  V30 4968 S 465.702 -5.32641 -0.552644 0
M  V30 4969 C 466.858 -5.99696 -1.79209 0
M  V30 4970 H 467.091 -2.9718 -0.0843791 0
M  V30 4971 H 464.624 -1.54218 0.075031 0
M  V30 4972 H 466.582 -3.20124 -2.56964 0
M  V30 4973 H 465.243 -2.04839 -2.38117 0
M  V30 4974 H 464.436 -4.42932 -2.40473 0
M  V30 4975 H 464.038 -3.63947 -0.861321 0
M  V30 4976 H 466.33 -6.19886 -2.734 0
M  V30 4977 H 467.273 -6.94071 -1.40251 0
M  V30 4978 H 467.681 -5.29226 -1.96419 0
M  V30 4979 N 467.08 -0.0183926 -1.57589 0
M  V30 4980 C 468.329 0.66185 -1.90532 0
M  V30 4981 C 468.642 1.73904 -0.895366 0
M  V30 4982 O 469.848 2.47518 -1.11566 0
M  V30 4983 C 468.304 1.22844 -3.38286 0
M  V30 4984 C 467.912 0.185103 -4.47617 0
M  V30 4985 C 469.656 1.88581 -3.80312 0
M  V30 4986 C 467.563 0.762723 -5.86461 0
M  V30 4987 H 466.493 0.250972 -0.711006 0
M  V30 4988 H 469.144 -0.0819435 -1.83317 0
M  V30 4989 H 467.526 2.0235 -3.40398 0
M  V30 4990 H 468.7 -0.58671 -4.5705 0
M  V30 4991 H 467.015 -0.372889 -4.14727 0
M  V30 4992 H 469.612 2.32735 -4.81392 0
M  V30 4993 H 469.955 2.72408 -3.14801 0
M  V30 4994 H 470.488 1.15782 -3.80578 0
M  V30 4995 H 467.227 -0.0371713 -6.55489 0
M  V30 4996 H 466.747 1.50327 -5.80656 0
M  V30 4997 H 468.426 1.25576 -6.34697 0
M  V30 4998 N 468.558 1.5553 0.254621 0
M  V30 4999 C 469.974 1.4778 0.602753 0
M  V30 5000 C 470.174 0.707047 1.88688 0
M  V30 5001 O 469.23 0.233288 2.5142 0
M  V30 5002 C 470.543 2.92133 0.712648 0
M  V30 5003 C 472.091 3.02458 0.805488 0
M  V30 5004 C 472.566 4.48102 0.947009 0
M  V30 5005 N 474.057 4.52008 1.01207 0
M  V30 5006 C 474.792 5.61939 1.1407 0
M  V30 5007 N 474.288 6.81697 1.23536 0
M  V30 5008 N 476.081 5.49719 1.17325 0
M  V30 5009 H 468.232 2.04085 -0.588463 0
M  V30 5010 H 470.495 0.926229 -0.202001 0
M  V30 5011 H 470.201 3.51332 -0.160766 0
M  V30 5012 H 470.075 3.42187 1.58707 0
M  V30 5013 H 472.462 2.43344 1.66936 0
M  V30 5014 H 472.543 2.55627 -0.0939266 0
M  V30 5015 H 472.187 5.07824 0.087725 0
M  V30 5016 H 472.117 4.92607 1.86135 0
M  V30 5017 H 474.608 3.65749 0.950577 0
M  V30 5018 H 474.921 7.61228 1.33236 0
M  V30 5019 H 473.266 6.84473 1.20508 0
M  V30 5020 H 476.457 4.55095 1.09573 0
M  V30 5021 H 476.63 6.35432 1.27005 0
M  V30 5022 N 470.036 -0.519951 1.48776 0
M  V30 5023 C 470.966 -1.63253 1.66945 0
M  V30 5024 C 471.947 -1.62014 0.518224 0
M  V30 5025 O 473.132 -1.79053 0.751919 0
M  V30 5026 C 470.262 -3.0181 1.71836 0
M  V30 5027 C 469.216 -3.17911 2.8656 0
M  V30 5028 C 468.542 -4.5763 2.76548 0
M  V30 5029 C 469.842 -2.99729 4.27738 0
M  V30 5030 H 471.536 -1.48302 2.6009 0
M  V30 5031 H 469.082 -0.712026 1.25165 0
M  V30 5032 H 471.035 -3.79525 1.83135 0
M  V30 5033 H 469.759 -3.17806 0.752775 0
M  V30 5034 H 468.418 -2.42616 2.74833 0
M  V30 5035 H 468.066 -4.70476 1.77937 0
M  V30 5036 H 467.766 -4.69346 3.53536 0
M  V30 5037 H 469.29 -5.37431 2.89828 0
M  V30 5038 H 470.704 -3.67228 4.40246 0
M  V30 5039 H 469.101 -3.22932 5.05801 0
M  V30 5040 H 470.171 -1.96047 4.43502 0
M  V30 5041 N 471.514 -1.37532 -0.769588 0
M  V30 5042 C 472.925 -1.29382 -1.346 0
M  V30 5043 C 473.276 0.0576039 -1.96115 0
M  V30 5044 O 472.401 0.95947 -1.93967 0
M  V30 5045 C 472.996 -2.34298 -2.44724 0
M  V30 5046 C 471.555 -2.29776 -2.98128 0
M  V30 5047 C 470.702 -2.18013 -1.71364 0
M  V30 5048 H 473.653 -1.48123 -0.56968 0
M  V30 5049 H 473.674 -1.99089 -3.24259 0
M  V30 5050 H 473.186 -3.32645 -1.99922 0
M  V30 5051 H 471.287 -1.34959 -3.47299 0
M  V30 5052 H 471.4 -3.23276 -3.53595 0
M  V30 5053 H 469.764 -1.64595 -1.94372 0
M  V30 5054 H 470.547 -3.18278 -1.28662 0
M  V30 5055 N 472.992 0.995999 -1.22138 0
M  V30 5056 C 474.24 1.73167 -1.042 0
M  V30 5057 C 474.561 1.90329 0.42423 0
M  V30 5058 O 473.831 1.4607 1.30539 0
M  V30 5059 H 472.411 0.641593 -0.38258 0
M  V30 5060 H 475.073 1.19974 -1.53598 0
M  V30 5061 H 474.169 2.72734 -1.51731 0
M  V30 5062 N 474.47 1.03057 1.19235 0
M  V30 5063 C 475.881 0.757449 1.70645 0
M  V30 5064 C 476.232 -0.722735 1.82403 0
M  V30 5065 O 475.357 -1.56325 1.49638 0
M  V30 5066 C 475.952 1.36833 3.09939 0
M  V30 5067 C 474.511 1.14375 3.58602 0
M  V30 5068 C 473.658 1.46533 2.35422 0
M  V30 5069 H 476.609 1.19828 1.04052 0
M  V30 5070 H 476.63 0.766184 3.72706 0
M  V30 5071 H 476.142 2.44562 3.01349 0
M  V30 5072 H 474.243 0.0847542 3.72504 0
M  V30 5073 H 474.356 1.83366 4.42622 0
M  V30 5074 H 472.72 0.884712 2.38841 0
M  V30 5075 H 473.503 2.55349 2.2946 0
M  V30 5076 N 475.948 -1.35272 0.808662 0
M  V30 5077 C 476.878 -2.32315 0.234981 0
M  V30 5078 C 477.859 -1.57572 -0.64071 0
M  V30 5079 O 479.044 -1.8563 -0.570551 0
M  V30 5080 C 476.174 -3.41801 -0.615601 0
M  V30 5081 C 475.128 -4.27694 0.161767 0
M  V30 5082 C 474.454 -5.28519 -0.810649 0
M  V30 5083 C 475.754 -5.04231 1.36193 0
M  V30 5084 H 477.448 -2.80543 1.04575 0
M  V30 5085 H 474.994 -1.3488 0.504315 0
M  V30 5086 H 476.947 -4.08693 -1.02702 0
M  V30 5087 H 475.671 -2.92186 -1.45928 0
M  V30 5088 H 474.33 -3.62384 0.554382 0
M  V30 5089 H 473.978 -4.75171 -1.64988 0
M  V30 5090 H 473.678 -5.8686 -0.294822 0
M  V30 5091 H 475.202 -5.98283 -1.22023 0
M  V30 5092 H 476.616 -5.64058 1.02528 0
M  V30 5093 H 475.013 -5.72077 1.81239 0
M  V30 5094 H 476.083 -4.34753 2.14751 0
M  V30 5095 N 477.426 -0.562348 -1.47226 0
M  V30 5096 C 478.837 -0.130325 -1.86245 0
M  V30 5097 C 479.188 1.30128 -1.46838 0
M  V30 5098 O 478.313 1.97974 -0.873805 0
M  V30 5099 C 478.908 -0.229738 -3.3802 0
M  V30 5100 C 477.467 0.14728 -3.76112 0
M  V30 5101 C 476.614 -0.574971 -2.71274 0
M  V30 5102 H 479.565 -0.771773 -1.3867 0
M  V30 5103 H 479.586 0.550316 -3.76499 0
M  V30 5104 H 479.098 -1.27178 -3.66671 0
M  V30 5105 H 477.199 1.19023 -3.53078 0
M  V30 5106 H 477.312 -0.214858 -4.78618 0
M  V30 5107 H 475.676 -0.0174756 -2.54694 0
M  V30 5108 H 476.459 -1.61827 -3.02766 0
M  V30 5109 N 478.904 1.54736 -0.299062 0
M  V30 5110 C 480.15 2.00397 0.311244 0
M  V30 5111 C 480.483 1.18716 1.53688 0
M  V30 5112 O 479.758 0.263154 1.92712 0
M  V30 5113 C 480.041 3.53817 0.669761 0
M  V30 5114 C 479.894 4.46239 -0.564882 0
M  V30 5115 C 481.213 4.13856 1.49702 0
M  V30 5116 H 478.332 0.728493 0.111653 0
M  V30 5117 H 480.974 1.85506 -0.410774 0
M  V30 5118 H 479.124 3.66637 1.28491 0
M  V30 5119 H 480.796 4.45328 -1.20337 0
M  V30 5120 H 479.039 4.16916 -1.19849 0
M  V30 5121 H 479.71 5.5134 -0.269918 0
M  V30 5122 H 482.186 4.04461 0.977284 0
M  V30 5123 H 481.062 5.21365 1.71666 0
M  V30 5124 H 481.323 3.65608 2.48563 0
M  V30 5125 N 480.382 0.0267497 1.57577 0
M  V30 5126 C 481.63 -0.651116 1.91324 0
M  V30 5127 C 481.951 -1.72804 0.90353 0
M  V30 5128 O 481.221 -1.95822 -0.0552946 0
M  V30 5129 H 479.801 -0.243491 0.706202 0
M  V30 5130 H 482.463 0.0739935 1.94759 0
M  V30 5131 H 481.559 -1.10536 2.9187 0
M  V30 5132 N 481.861 -1.55662 -0.24637 0
M  V30 5133 C 483.089 -1.81575 -0.991876 0
M  V30 5134 C 483.504 -0.602545 -1.78927 0
M  V30 5135 O 482.861 0.428795 -1.77391 0
M  V30 5136 C 482.912 -3.05711 -1.92933 0
M  V30 5137 O 482.633 -4.22348 -1.1642 0
M  V30 5138 C 484.134 -3.44428 -2.79078 0
M  V30 5139 H 481.354 -0.604209 -0.291844 0
M  V30 5140 H 483.898 -2.02722 -0.269095 0
M  V30 5141 H 482.053 -2.86612 -2.60638 0
M  V30 5142 H 482.467 -4.92706 -1.79835 0
M  V30 5143 H 483.941 -4.34388 -3.40603 0
M  V30 5144 H 484.418 -2.65037 -3.50217 0
M  V30 5145 H 485.024 -3.65879 -2.16824 0
M  V30 5146 N 483.339 0.512053 -1.4905 0
M  V30 5147 C 484.286 1.6148 -1.64902 0
M  V30 5148 C 485.256 1.58687 -0.490673 0
M  V30 5149 O 486.441 1.76842 -0.71636 0
M  V30 5150 C 483.581 2.99676 -1.71139 0
M  V30 5151 C 482.694 3.12568 -2.98203 0
M  V30 5152 C 481.829 4.4143 -2.95487 0
M  V30 5153 C 480.868 4.47916 -4.17179 0
M  V30 5154 N 480.005 5.68191 -4.12437 0
M  V30 5155 H 484.845 1.47271 -2.59066 0
M  V30 5156 H 482.382 0.716713 -1.28459 0
M  V30 5157 H 484.34 3.79761 -1.72736 0
M  V30 5158 H 482.97 3.12614 -0.804508 0
M  V30 5159 H 482.022 2.25618 -3.06269 0
M  V30 5160 H 483.334 3.1322 -3.88194 0
M  V30 5161 H 482.488 5.29825 -2.95585 0
M  V30 5162 H 481.227 4.43326 -2.03256 0
M  V30 5163 H 480.232 3.57925 -4.17337 0
M  V30 5164 H 481.457 4.47744 -5.1059 0
M  V30 5165 H 479.403 5.7095 -3.23036 0
M  V30 5166 H 479.32 5.70413 -4.96151 0
M  V30 5167 H 480.588 6.58823 -4.16621 0
M  V30 5168 N 484.817 1.37938 0.762283 0
M  V30 5169 C 486.063 1.33866 1.52341 0
M  V30 5170 C 486.396 -0.0738961 1.94059 0
M  V30 5171 O 485.671 -1.03326 1.64785 0
M  V30 5172 C 485.954 2.28644 2.78197 0
M  V30 5173 C 485.807 3.78722 2.42672 0
M  V30 5174 C 487.126 2.21702 3.80179 0
M  V30 5175 H 484.245 0.487593 0.55265 0
M  V30 5176 H 486.887 1.68717 0.873767 0
M  V30 5177 H 485.037 1.99055 3.33631 0
M  V30 5178 H 486.709 4.18948 1.93081 0
M  V30 5179 H 484.952 3.96827 1.75244 0
M  V30 5180 H 485.623 4.40486 3.3268 0
M  V30 5181 H 488.099 2.47805 3.34263 0
M  V30 5182 H 486.975 2.90143 4.65949 0
M  V30 5183 H 487.236 1.21301 4.25133 0
M  V30 5184 N 486.295 -0.989507 1.22664 0
M  V30 5185 C 487.523 -1.76496 1.07967 0
M  V30 5186 C 487.938 -1.85148 -0.369543 0
M  V30 5187 O 487.295 -1.32408 -1.25596 0
M  V30 5188 C 487.346 -3.19642 1.68853 0
M  V30 5189 O 487.067 -3.11453 3.08105 0
M  V30 5190 C 488.568 -4.13621 1.59475 0
M  V30 5191 H 485.788 -0.55418 0.378319 0
M  V30 5192 H 488.332 -1.24378 1.62328 0
M  V30 5193 H 486.487 -3.68816 1.18547 0
M  V30 5194 H 486.901 -4.01499 3.37489 0
M  V30 5195 H 488.375 -5.11801 2.06795 0
M  V30 5196 H 488.852 -4.35718 0.55191 0
M  V30 5197 H 489.458 -3.70346 2.09103 0
M  V30 5198 N 487.773 -1.03688 -1.18687 0
M  V30 5199 C 488.703 -0.645407 -2.24403 0
M  V30 5200 C 489.684 0.349511 -1.66471 0
M  V30 5201 O 490.869 0.230453 -1.92828 0
M  V30 5202 C 487.999 -0.00365337 -3.473 0
M  V30 5203 C 486.953 -0.921705 -4.17958 0
M  V30 5204 C 486.279 -0.144629 -5.34504 0
M  V30 5205 C 487.579 -2.23909 -4.71871 0
M  V30 5206 H 489.273 -1.52917 -2.57404 0
M  V30 5207 H 486.819 -0.736711 -1.23728 0
M  V30 5208 H 488.772 0.281908 -4.20456 0
M  V30 5209 H 487.496 0.914963 -3.13522 0
M  V30 5210 H 486.155 -1.19159 -3.46694 0
M  V30 5211 H 485.803 0.776274 -4.96974 0
M  V30 5212 H 485.503 -0.756206 -5.82714 0
M  V30 5213 H 487.027 0.134004 -6.10453 0
M  V30 5214 H 488.441 -2.0145 -5.36741 0
M  V30 5215 H 486.838 -2.8033 -5.30599 0
M  V30 5216 H 487.908 -2.88822 -3.895 0
M  V30 5217 N 489.251 1.34841 -0.815825 0
M  V30 5218 C 490.5 1.97755 -0.396976 0
M  V30 5219 C 490.813 1.65422 1.04379 0
M  V30 5220 O 492.019 2.21771 1.5662 0
M  V30 5221 C 490.475 3.53818 -0.658869 0
M  V30 5222 C 490.083 3.95051 -2.11278 0
M  V30 5223 C 491.827 4.23397 -0.305834 0
M  V30 5224 C 489.734 5.43997 -2.31994 0
M  V30 5225 H 488.664 0.739985 -0.1447 0
M  V30 5226 H 491.315 1.53781 -1.00118 0
M  V30 5227 H 489.697 3.95997 0.0154112 0
M  V30 5228 H 490.871 3.63998 -2.82564 0
M  V30 5229 H 489.186 3.38388 -2.42657 0
M  V30 5230 H 491.783 5.32899 -0.43854 0
M  V30 5231 H 492.126 4.09508 0.748952 0
M  V30 5232 H 492.659 3.8667 -0.934403 0
M  V30 5233 H 489.398 5.62865 -3.35952 0
M  V30 5234 H 488.918 5.76589 -1.65244 0
M  V30 5235 H 490.597 6.10584 -2.14001 0
M  V30 5236 N 490.729 0.570148 1.46925 0
M  V30 5237 C 491.977 0.0508523 2.02036 0
M  V30 5238 C 492.298 -1.30885 1.44548 0
M  V30 5239 O 491.568 -1.85647 0.625453 0
M  V30 5240 H 490.148 0.0158088 0.746833 0
M  V30 5241 H 492.81 0.743086 1.80178 0
M  V30 5242 H 491.906 -0.027575 3.12088 0
M  V30 5243 N 492.207 -1.54576 0.307264 0
M  V30 5244 C 493.623 -1.59534 -0.0459251 0
M  V30 5245 C 493.823 -1.32414 -1.51884 0
M  V30 5246 O 492.879 -1.1006 -2.27251 0
M  V30 5247 C 494.192 -2.98566 0.357649 0
M  V30 5248 C 495.74 -3.11491 0.306937 0
M  V30 5249 C 496.215 -4.52842 0.685427 0
M  V30 5250 N 497.706 -4.58782 0.638203 0
M  V30 5251 C 498.441 -5.66238 0.903458 0
M  V30 5252 N 497.937 -6.81703 1.23501 0
M  V30 5253 N 499.73 -5.55937 0.830102 0
M  V30 5254 H 491.881 -1.70464 1.26712 0
M  V30 5255 H 494.144 -0.79647 0.514139 0
M  V30 5256 H 493.85 -3.23356 1.38325 0
M  V30 5257 H 493.724 -3.76117 -0.285565 0
M  V30 5258 H 496.111 -2.86446 -0.709424 0
M  V30 5259 H 496.192 -2.36081 0.984861 0
M  V30 5260 H 495.836 -4.78618 1.69963 0
M  V30 5261 H 495.766 -5.26598 -0.0146346 0
M  V30 5262 H 498.257 -3.75849 0.393138 0
M  V30 5263 H 498.57 -7.59582 1.42322 0
M  V30 5264 H 496.915 -6.8324 1.27311 0
M  V30 5265 H 500.106 -4.64608 0.570693 0
M  V30 5266 H 500.279 -6.39597 1.04019 0
M  V30 5267 N 493.685 -0.035106 -1.57561 0
M  V30 5268 C 494.617 0.973604 -2.07494 0
M  V30 5269 C 495.63 1.28504 -0.999534 0
M  V30 5270 O 496.819 1.24864 -1.27559 0
M  V30 5271 C 493.919 2.29945 -2.48955 0
M  V30 5272 C 493.092 2.1723 -3.79644 0
M  V30 5273 C 492.151 3.328 -4.07592 0
M  V30 5274 O 491.177 3.09418 -4.77754 0
M  V30 5275 N 492.379 4.56779 -3.58236 0
M  V30 5276 H 495.144 0.547525 -2.94656 0
M  V30 5277 H 492.705 0.151515 -1.61189 0
M  V30 5278 H 494.697 3.06097 -2.64739 0
M  V30 5279 H 493.267 2.64173 -1.67126 0
M  V30 5280 H 492.487 1.25768 -3.73599 0
M  V30 5281 H 493.775 2.05945 -4.65257 0
M  V30 5282 H 493.173 4.78668 -3.01485 0
M  V30 5283 H 491.73 5.30079 -3.79288 0
M  V30 5284 N 495.163 1.55791 0.238111 0
M  V30 5285 C 496.411 1.77681 0.963001 0
M  V30 5286 C 496.732 0.600674 1.85518 0
M  V30 5287 O 496.002 -0.383182 1.92116 0
M  V30 5288 H 494.582 0.655315 0.358568 0
M  V30 5289 H 497.244 1.93239 0.253945 0
M  V30 5290 H 496.34 2.69177 1.57956 0
M  V30 5291 N 496.642 -0.504142 1.49319 0
M  V30 5292 C 497.919 -1.26548 1.49147 0
M  V30 5293 C 498.299 -2.09977 0.21744 0
M  V30 5294 O 497.647 -2.14028 -0.800269 0
M  V30 5295 C 497.857 -2.12489 2.76857 0
M  V30 5296 C 499.205 -2.7178 3.26222 0
M  V30 5297 O 500.229 -2.22758 2.77952 0
M  V30 5298 O 499.088 -3.61015 4.10281 0
M  V30 5299 H 496.182 -0.572495 0.596806 0
M  V30 5300 H 498.728 -0.51867 1.61579 0
M  V30 5301 H 497.5 -1.50796 3.61077 0
M  V30 5302 H 497.123 -2.94368 2.6727 0
M  V30 5303 N 498.12 -1.38341 -0.754957 0
M  V30 5304 C 499.03 -1.3769 -1.89944 0
M  V30 5305 C 500.046 -0.274194 -1.71826 0
M  V30 5306 O 501.222 -0.512391 -1.94773 0
M  V30 5307 C 498.287 -1.19938 -3.25293 0
M  V30 5308 C 497.348 -2.40001 -3.55946 0
M  V30 5309 C 496.581 -2.23087 -4.84838 0
M  V30 5310 O 496.804 -1.22386 -5.57116 0
M  V30 5311 O 495.738 -3.11646 -5.14937 0
M  V30 5312 H 499.564 -2.3412 -1.93446 0
M  V30 5313 H 497.149 -1.19246 -0.900044 0
M  V30 5314 H 499.031 -1.12093 -4.06218 0
M  V30 5315 H 497.706 -0.265919 -3.22606 0
M  V30 5316 H 496.613 -2.53421 -2.75188 0
M  V30 5317 H 497.946 -3.31973 -3.63394 0
M  V30 5318 N 499.598 0.982988 -1.23187 0
M  V30 5319 C 500.844 1.72648 -1.06398 0
M  V30 5320 C 501.177 1.90066 0.398561 0
M  V30 5321 O 500.452 1.45105 1.29518 0
M  V30 5322 C 500.735 3.12627 -1.78707 0
M  V30 5323 C 500.588 3.02795 -3.32618 0
M  V30 5324 C 501.907 4.11997 -1.54747 0
M  V30 5325 H 499.026 0.626649 -0.387918 0
M  V30 5326 H 501.668 1.14455 -1.51658 0
M  V30 5327 H 499.818 3.62308 -1.40234 0
M  V30 5328 H 501.49 2.60659 -3.80598 0
M  V30 5329 H 499.733 2.39362 -3.61785 0
M  V30 5330 H 500.404 4.01893 -3.78399 0
M  V30 5331 H 502.88 3.71114 -1.88186 0
M  V30 5332 H 501.756 5.08037 -2.07821 0
M  V30 5333 H 502.017 4.39462 -0.482249 0
M  V30 5334 N 501.076 1.04316 1.18135 0
M  V30 5335 C 502.325 0.74319 1.87509 0
M  V30 5336 C 502.638 -0.732136 1.81381 0
M  V30 5337 O 503.844 -1.14572 2.46141 0
M  V30 5338 C 502.3 1.27913 3.36402 0
M  V30 5339 C 501.908 2.78326 3.51053 0
M  V30 5340 C 503.652 1.0558 4.11161 0
M  V30 5341 C 501.559 3.25266 4.93919 0
M  V30 5342 H 500.489 0.274313 0.702331 0
M  V30 5343 H 503.14 1.25931 1.33467 0
M  V30 5344 H 501.522 0.690853 3.89927 0
M  V30 5345 H 502.696 3.42933 3.07788 0
M  V30 5346 H 501.011 2.991 2.89704 0
M  V30 5347 H 503.608 1.38161 5.16542 0
M  V30 5348 H 503.951 -0.00684729 4.16299 0
M  V30 5349 H 504.484 1.60882 3.63816 0
M  V30 5350 H 501.223 4.30922 4.9395 0
M  V30 5351 H 500.743 2.65396 5.3789 0
M  V30 5352 H 502.422 3.19433 5.62647 0
M  V30 5353 N 502.554 -1.34406 0.822964 0
M  V30 5354 C 503.779 -2.0304 0.423034 0
M  V30 5355 C 504.204 -1.61568 -0.963196 0
M  V30 5356 O 503.562 -0.800339 -1.62678 0
M  V30 5357 C 503.61 -3.56636 0.53321 0
M  V30 5358 O 502.714 -4.09971 -0.446939 0
M  V30 5359 H 502.055 -0.64075 0.174171 0
M  V30 5360 H 504.585 -1.71653 1.11339 0
M  V30 5361 H 504.595 -4.05945 0.408991 0
M  V30 5362 H 503.27 -3.86168 1.54425 0
M  V30 5363 H 501.847 -3.71835 -0.281601 0
M  V30 5364 N 504.032 -0.577932 -1.46621 0
M  V30 5365 C 505.281 -0.0594281 -2.01612 0
M  V30 5366 C 505.594 1.30663 -1.45556 0
M  V30 5367 O 506.8 1.91621 -1.92337 0
M  V30 5368 C 505.256 -0.0556666 -3.59857 0
M  V30 5369 C 504.864 -1.41975 -4.24908 0
M  V30 5370 C 506.608 0.409143 -4.22524 0
M  V30 5371 C 504.515 -1.37397 -5.75218 0
M  V30 5372 H 503.445 -0.0184469 -0.753774 0
M  V30 5373 H 506.096 -0.728869 -1.68404 0
M  V30 5374 H 504.478 0.679843 -3.90121 0
M  V30 5375 H 505.652 -2.17461 -4.0626 0
M  V30 5376 H 503.967 -1.82419 -3.74316 0
M  V30 5377 H 506.564 0.46211 -5.32699 0
M  V30 5378 H 506.907 1.42565 -3.91128 0
M  V30 5379 H 507.44 -0.272152 -3.96868 0
M  V30 5380 H 504.179 -2.36714 -6.11267 0
M  V30 5381 H 503.699 -0.661239 -5.96144 0
M  V30 5382 H 505.378 -1.08484 -6.3784 0
M  V30 5383 N 505.51 1.54411 -0.315457 0
M  V30 5384 C 506.787 1.92562 0.343398 0
M  V30 5385 C 507.167 1.24423 1.70535 0
M  V30 5386 O 506.515 0.385051 2.25232 0
M  V30 5387 C 506.725 3.46168 0.443687 0
M  V30 5388 C 508.073 4.18659 0.707783 0
M  V30 5389 O 509.097 3.52281 0.52693 0
M  V30 5390 O 507.956 5.36198 1.05612 0
M  V30 5391 H 505.05 0.80379 0.194552 0
M  V30 5392 H 507.596 1.65738 -0.364577 0
M  V30 5393 H 506.368 3.8792 -0.513172 0
M  V30 5394 H 505.991 3.79073 1.19956 0
M  V30 5395 N 506.988 0.0434614 1.5754 0
M  V30 5396 C 508.265 -0.671479 1.83713 0
M  V30 5397 C 508.645 -1.89495 0.930315 0
M  V30 5398 O 507.993 -2.28498 -0.0105639 0
M  V30 5399 C 508.203 -1.0361 3.33266 0
M  V30 5400 C 509.551 -1.42167 4.00092 0
M  V30 5401 O 510.575 -1.12866 3.37846 0
M  V30 5402 O 509.434 -1.96817 5.09829 0
M  V30 5403 H 506.528 -0.330726 0.75799 0
M  V30 5404 H 509.074 0.0722373 1.69546 0
M  V30 5405 H 507.846 -0.165938 3.90948 0
M  V30 5406 H 507.469 -1.83751 3.52592 0
M  V30 5407 N 508.466 -1.55915 -0.229846 0
M  V30 5408 C 509.712 -1.78807 -0.956868 0
M  V30 5409 C 510.045 -0.611687 -1.84315 0
M  V30 5410 O 509.32 0.389398 -1.90562 0
M  V30 5411 C 509.603 -3.11718 -1.80288 0
M  V30 5412 C 509.456 -4.3979 -0.943649 0
M  V30 5413 C 510.775 -3.40999 -2.78222 0
M  V30 5414 H 507.894 -0.6505 -0.346437 0
M  V30 5415 H 510.536 -1.88648 -0.226252 0
M  V30 5416 H 508.686 -3.03459 -2.42579 0
M  V30 5417 H 510.358 -4.60059 -0.338121 0
M  V30 5418 H 508.601 -4.33086 -0.248705 0
M  V30 5419 H 509.272 -5.29208 -1.5698 0
M  V30 5420 H 511.748 -3.49332 -2.26067 0
M  V30 5421 H 510.624 -4.35183 -3.34526 0
M  V30 5422 H 510.885 -2.62754 -3.55546 0
M  V30 5423 N 509.944 0.496216 -1.49584 0
M  V30 5424 C 510.907 1.57952 -1.66084 0
M  V30 5425 C 511.907 1.51729 -0.53244 0
M  V30 5426 O 513.097 1.54796 -0.79899 0
M  V30 5427 C 510.229 2.97604 -1.66268 0
M  V30 5428 H 511.422 1.44649 -2.6271 0
M  V30 5429 H 508.975 0.7208 -1.38687 0
M  V30 5430 H 509.71 3.16378 -0.712432 0
M  V30 5431 H 509.495 3.03528 -2.4822 0
M  V30 5432 H 510.985 3.76301 -1.81073 0
M  V30 5433 N 511.423 1.38739 0.74761 0
M  V30 5434 C 512.839 1.20067 1.05148 0
M  V30 5435 C 513.039 0.0534835 2.01429 0
M  V30 5436 O 512.095 -0.59886 2.45296 0
M  V30 5437 C 513.408 2.52957 1.62584 0
M  V30 5438 C 514.956 2.59692 1.74726 0
M  V30 5439 C 515.431 3.92772 2.35573 0
M  V30 5440 N 516.922 3.94343 2.42997 0
M  V30 5441 C 517.657 4.9408 2.90985 0
M  V30 5442 N 517.153 6.04214 3.38965 0
M  V30 5443 N 518.946 4.81466 2.9008 0
M  V30 5444 H 511.097 2.12121 0.108808 0
M  V30 5445 H 513.36 0.941491 0.110899 0
M  V30 5446 H 513.066 3.37389 0.993051 0
M  V30 5447 H 512.94 2.71779 2.61565 0
M  V30 5448 H 515.327 1.75651 2.3713 0
M  V30 5449 H 515.408 2.44731 0.744326 0
M  V30 5450 H 515.052 4.77238 1.738 0
M  V30 5451 H 514.982 4.05046 3.36519 0
M  V30 5452 H 517.473 3.14799 2.0907 0
M  V30 5453 H 517.786 6.76241 3.74056 0
M  V30 5454 H 516.131 6.07825 3.37007 0
M  V30 5455 H 519.322 3.94535 2.51912 0
M  V30 5456 H 519.495 5.59344 3.27166 0
M  V30 5457 N 512.901 -0.976442 1.23707 0
M  V30 5458 C 513.851 -2.0544 0.988851 0
M  V30 5459 C 514.835 -1.60762 -0.0665901 0
M  V30 5460 O 516.027 -1.76396 0.14604 0
M  V30 5461 C 513.156 -3.38258 0.586223 0
M  V30 5462 C 512.242 -3.89523 1.67728 0
M  V30 5463 N 512.633 -4.13823 2.90834 0
M  V30 5464 C 510.931 -4.18097 1.55277 0
M  V30 5465 C 511.632 -4.55731 3.61502 0
M  V30 5466 N 510.608 -4.60394 2.8903 0
M  V30 5467 H 514.41 -2.22191 1.92376 0
M  V30 5468 H 511.924 -1.15954 1.13704 0
M  V30 5469 H 513.921 -4.15075 0.389658 0
M  V30 5470 H 512.581 -3.22898 -0.341594 0
M  V30 5471 H 513.592 -4.01529 3.271 0
M  V30 5472 H 510.269 -4.11719 0.692351 0
M  V30 5473 H 511.659 -4.83018 4.67059 0
M  V30 5474 N 514.379 -1.04941 -1.1758 0
M  V30 5475 C 515.309 -0.669172 -2.23706 0
M  V30 5476 C 516.29 0.331835 -1.66832 0
M  V30 5477 O 517.475 0.209988 -1.93061 0
M  V30 5478 C 514.605 -0.0404889 -3.47276 0
M  V30 5479 C 513.559 -0.965983 -4.16957 0
M  V30 5480 C 512.885 -0.201312 -5.34321 0
M  V30 5481 C 514.185 -2.28902 -4.69469 0
M  V30 5482 H 515.879 -1.55639 -2.55767 0
M  V30 5483 H 513.425 -0.749793 -1.22939 0
M  V30 5484 H 515.378 0.237298 -4.20731 0
M  V30 5485 H 514.102 0.881658 -3.14475 0
M  V30 5486 H 512.761 -1.22829 -3.45411 0
M  V30 5487 H 512.409 0.723519 -4.97769 0
M  V30 5488 H 512.109 -0.817968 -5.81879 0
M  V30 5489 H 513.633 0.0692499 -6.10561 0
M  V30 5490 H 515.047 -2.07132 -5.34574 0
M  V30 5491 H 513.444 -2.85942 -5.27596 0
M  V30 5492 H 514.514 -2.92937 -3.86414 0
M  V30 5493 N 515.857 1.33968 -0.830081 0
M  V30 5494 C 516.767 2.33164 -0.259207 0
M  V30 5495 C 517.783 1.62951 0.610164 0
M  V30 5496 O 518.959 1.94668 0.516369 0
M  V30 5497 C 516.024 3.42088 0.563598 0
M  V30 5498 C 515.085 4.28037 -0.329014 0
M  V30 5499 C 514.318 5.3176 0.454616 0
M  V30 5500 O 514.541 5.44876 1.6872 0
M  V30 5501 O 513.475 6.01669 -0.166794 0
M  V30 5502 H 517.301 2.83832 -1.08041 0
M  V30 5503 H 514.886 1.37154 -0.59239 0
M  V30 5504 H 516.768 4.08581 1.03147 0
M  V30 5505 H 515.443 2.93651 1.36201 0
M  V30 5506 H 514.35 3.64443 -0.844538 0
M  V30 5507 H 515.683 4.79934 -1.09196 0
M  V30 5508 N 517.335 0.585699 1.46312 0
M  V30 5509 C 518.563 0.0781299 2.06752 0
M  V30 5510 C 518.978 -1.22812 1.43396 0
M  V30 5511 O 518.335 -1.74318 0.540314 0
M  V30 5512 C 518.386 -0.0911927 3.61385 0
M  V30 5513 O 518.107 1.16336 4.22371 0
M  V30 5514 C 519.608 -0.632765 4.38761 0
M  V30 5515 H 516.828 0.0588188 0.668417 0
M  V30 5516 H 519.372 0.807218 1.87894 0
M  V30 5517 H 517.527 -0.770514 3.7966 0
M  V30 5518 H 517.941 0.979082 5.15281 0
M  V30 5519 H 519.415 -0.70041 5.47538 0
M  V30 5520 H 519.892 -1.65039 4.07012 0
M  V30 5521 H 520.498 0.0117856 4.25298 0
M  V30 5522 N 518.813 -1.54241 0.323641 0
M  V30 5523 C 520.062 -1.9975 -0.279806 0
M  V30 5524 C 520.375 -1.2156 -1.5324 0
M  V30 5525 O 521.581 -1.57447 -2.21185 0
M  V30 5526 C 520.037 -3.55686 -0.549115 0
M  V30 5527 C 519.645 -4.4271 0.686432 0
M  V30 5528 C 521.389 -4.09663 -1.11251 0
M  V30 5529 C 519.296 -5.90119 0.389022 0
M  V30 5530 H 518.226 -0.746177 -0.10833 0
M  V30 5531 H 520.877 -1.78248 0.435877 0
M  V30 5532 H 519.259 -3.73176 -1.32499 0
M  V30 5533 H 520.433 -4.36996 1.46188 0
M  V30 5534 H 518.748 -3.99623 1.17005 0
M  V30 5535 H 521.345 -5.17386 -1.34965 0
M  V30 5536 H 521.688 -3.61651 -2.06191 0
M  V30 5537 H 522.221 -3.95806 -0.39782 0
M  V30 5538 H 518.96 -6.42326 1.30759 0
M  V30 5539 H 518.48 -5.98785 -0.348722 0
M  V30 5540 H 520.159 -6.47 -0.0011164 0
M  V30 5541 N 520.291 -0.0518155 -1.57515 0
M  V30 5542 C 521.239 0.940195 -2.12751 0
M  V30 5543 C 522.233 1.3218 -1.05948 0
M  V30 5544 O 523.439 1.30138 -1.24355 0
M  V30 5545 H 519.814 0.321066 -0.680015 0
M  V30 5546 H 521.785 0.449217 -2.94999 0
M  V30 5547 C 520.534 2.2055 -2.68799 0
M  V30 5548 H 519.857 1.92066 -3.50643 0
M  V30 5549 H 521.297 2.88119 -3.11068 0
M  V30 5550 C 519.756 2.95061 -1.62605 0
M  V30 5551 O 520.286 3.88025 -1.03921 0
M  V30 5552 N 518.492 2.57804 -1.34111 0
M  V30 5553 H 518.039 1.82281 -1.8202 0
M  V30 5554 H 517.997 3.07964 -0.632872 0
M  V30 5555 N 521.769 1.56035 0.221574 0
M  V30 5556 C 522.999 1.82864 0.961468 0
M  V30 5557 C 523.407 0.628703 1.78449 0
M  V30 5558 O 522.75 -0.412109 1.79018 0
M  V30 5559 C 522.812 3.03425 1.92804 0
M  V30 5560 C 522.476 4.38429 1.28954 0
M  V30 5561 C 523.473 5.15441 0.679431 0
M  V30 5562 C 521.158 4.85151 1.30131 0
M  V30 5563 C 523.152 6.37337 0.0896148 0
M  V30 5564 C 520.839 6.06989 0.707651 0
M  V30 5565 C 521.837 6.82923 0.102855 0
M  V30 5566 O 521.525 8.02456 -0.48157 0
M  V30 5567 H 521.257 0.611883 0.28736 0
M  V30 5568 H 523.811 2.0397 0.241932 0
M  V30 5569 H 522.041 2.78138 2.68656 0
M  V30 5570 H 523.73 3.17127 2.53348 0
M  V30 5571 H 524.496 4.80452 0.662661 0
M  V30 5572 H 520.375 4.26021 1.76145 0
M  V30 5573 H 523.919 6.96547 -0.383069 0
M  V30 5574 H 519.816 6.41451 0.721834 0
M  V30 5575 H 520.584 8.17636 -0.375887 0
M  V30 5576 N 523.247 -0.488276 1.49845 0
M  V30 5577 C 524.157 -1.61451 1.70207 0
M  V30 5578 C 525.173 -1.63877 0.584846 0
M  V30 5579 O 526.349 -1.82063 0.861107 0
M  V30 5580 C 523.414 -2.9776 1.77594 0
M  V30 5581 C 522.475 -3.05861 3.01243 0
M  V30 5582 C 521.708 -4.35668 3.08268 0
M  V30 5583 O 521.931 -5.25197 2.22541 0
M  V30 5584 O 520.865 -4.49005 4.00847 0
M  V30 5585 H 524.691 -1.47199 2.65643 0
M  V30 5586 H 522.276 -0.665939 1.33737 0
M  V30 5587 H 524.158 -3.7875 1.84732 0
M  V30 5588 H 522.833 -3.12248 0.8534 0
M  V30 5589 H 521.74 -2.24012 2.99616 0
M  V30 5590 H 523.073 -2.96304 3.9302 0
M  V30 5591 N 524.725 -1.39134 -0.740242 0
M  V30 5592 C 525.971 -1.36273 -1.50192 0
M  V30 5593 C 526.304 0.0430136 -1.94152 0
M  V30 5594 O 525.579 1.00691 -1.66408 0
M  V30 5595 C 525.862 -2.33041 -2.74525 0
M  V30 5596 C 525.715 -3.82535 -2.36617 0
M  V30 5597 C 527.034 -2.27723 -3.76604 0
M  V30 5598 H 524.153 -0.496323 -0.544823 0
M  V30 5599 H 526.795 -1.70085 -0.846815 0
M  V30 5600 H 524.945 -2.04337 -3.30422 0
M  V30 5601 H 526.617 -4.21967 -1.86391 0
M  V30 5602 H 524.86 -3.99565 -1.68909 0
M  V30 5603 H 525.531 -4.45723 -3.2563 0
M  V30 5604 H 528.007 -2.53091 -3.30279 0
M  V30 5605 H 526.883 -2.97519 -4.61274 0
M  V30 5606 H 527.144 -1.28049 -4.2315 0
M  V30 5607 N 526.204 0.969867 -1.24223 0
M  V30 5608 C 527.615 1.52717 -1.07399 0
M  V30 5609 C 527.966 1.92956 0.355298 0
M  V30 5610 O 527.091 1.77112 1.2434 0
M  V30 5611 C 527.686 2.77521 -1.94339 0
M  V30 5612 C 526.245 3.29615 -1.81744 0
M  V30 5613 C 525.392 2.02537 -1.89405 0
M  V30 5614 H 528.343 0.788399 -1.37732 0
M  V30 5615 H 528.364 3.50773 -1.47439 0
M  V30 5616 H 527.876 2.48203 -2.98357 0
M  V30 5617 H 525.977 3.63789 -0.805505 0
M  V30 5618 H 526.09 3.98661 -2.65718 0
M  V30 5619 H 524.454 2.17151 -1.33108 0
M  V30 5620 H 525.237 1.75587 -2.94999 0
M  V30 5621 N 527.682 1.05563 1.17022 0
M  V30 5622 C 528.922 0.777033 1.89054 0
M  V30 5623 C 529.286 -0.683617 1.79418 0
M  V30 5624 O 530.487 -1.07648 2.46303 0
M  V30 5625 C 528.758 1.24886 3.34871 0
M  V30 5626 S 530.317 1.0982 4.24835 0
M  V30 5627 H 527.135 0.282082 0.652649 0
M  V30 5628 H 529.737 1.35103 1.41306 0
M  V30 5629 H 528.441 2.30699 3.3942 0
M  V30 5630 H 527.972 0.669292 3.87665 0
M  V30 5631 H 529.987 0.02462 4.96194 0
M  V30 5632 N 529.16 -1.33526 0.837174 0
M  V30 5633 C 530.388 -2.02047 0.445494 0
M  V30 5634 C 530.803 -1.62995 -0.952788 0
M  V30 5635 O 530.16 -0.842447 -1.61892 0
M  V30 5636 C 530.211 -3.57221 0.554577 0
M  V30 5637 O 529.932 -3.94863 1.89776 0
M  V30 5638 C 531.433 -4.43012 0.159634 0
M  V30 5639 H 528.653 -0.647221 0.177048 0
M  V30 5640 H 531.197 -1.70492 1.12928 0
M  V30 5641 H 529.352 -3.87315 -0.0812781 0
M  V30 5642 H 529.766 -4.89569 1.88208 0
M  V30 5643 H 531.24 -5.51253 0.28701 0
M  V30 5644 H 531.717 -4.29916 -0.898289 0
M  V30 5645 H 532.323 -4.18274 0.769855 0
M  V30 5646 N 530.638 -0.59345 -1.46 0
M  V30 5647 C 531.887 -0.0808084 -2.01538 0
M  V30 5648 C 532.2 1.29112 -1.46934 0
M  V30 5649 O 533.406 1.8957 -1.94359 0
M  V30 5650 C 531.862 -0.0938311 -3.59778 0
M  V30 5651 C 531.47 -1.46474 -4.23379 0
M  V30 5652 C 533.214 0.364306 -4.22934 0
M  V30 5653 C 531.121 -1.4349 -5.73729 0
M  V30 5654 H 530.051 -0.0264407 -0.753536 0
M  V30 5655 H 532.702 -0.746689 -1.67621 0
M  V30 5656 H 531.084 0.638427 -3.9082 0
M  V30 5657 H 532.258 -2.21758 -4.03931 0
M  V30 5658 H 530.573 -1.86379 -3.7236 0
M  V30 5659 H 533.17 0.405584 -5.3316 0
M  V30 5660 H 533.513 1.38409 -3.92618 0
M  V30 5661 H 534.046 -0.31423 -3.96557 0
M  V30 5662 H 530.785 -2.43184 -6.08722 0
M  V30 5663 H 530.305 -0.724431 -5.95409 0
M  V30 5664 H 531.984 -1.15243 -6.36654 0
M  V30 5665 N 532.116 1.54067 -0.331816 0
M  V30 5666 C 533.341 2.05599 0.272705 0
M  V30 5667 C 533.766 1.2059 1.44359 0
M  V30 5668 O 533.124 0.216907 1.79998 0
M  V30 5669 C 533.172 3.54188 0.677021 0
M  V30 5670 O 532.276 3.72082 1.77844 0
M  V30 5671 H 531.617 0.662286 0.0476801 0
M  V30 5672 H 534.147 1.98826 -0.482624 0
M  V30 5673 H 534.157 3.96608 0.957415 0
M  V30 5674 H 532.832 4.15513 -0.179325 0
M  V30 5675 H 531.409 3.41566 1.49622 0
M  V30 5676 N 533.594 0.0601682 1.57485 0
M  V30 5677 C 534.824 -0.620037 1.97076 0
M  V30 5678 C 535.232 -1.64381 0.936784 0
M  V30 5679 O 534.575 -1.83497 -0.0863377 0
M  V30 5680 C 534.637 -1.35617 3.32939 0
M  V30 5681 C 534.301 -0.487208 4.54396 0
M  V30 5682 C 535.298 0.250428 5.19297 0
M  V30 5683 C 532.983 -0.415494 5.00579 0
M  V30 5684 C 534.977 1.04812 6.28723 0
M  V30 5685 C 532.664 0.385879 6.0988 0
M  V30 5686 C 533.662 1.11637 6.73815 0
M  V30 5687 O 533.35 1.90454 7.81014 0
M  V30 5688 H 533.082 -0.173664 0.653312 0
M  V30 5689 H 535.636 0.1256 2.05016 0
M  V30 5690 H 533.866 -2.14763 3.2158 0
M  V30 5691 H 535.555 -1.92749 3.57215 0
M  V30 5692 H 536.321 0.204546 4.84568 0
M  V30 5693 H 532.2 -0.973679 4.506 0
M  V30 5694 H 535.744 1.6188 6.78558 0
M  V30 5695 H 531.641 0.433366 6.44044 0
M  V30 5696 H 532.409 1.82762 7.97835 0
M  V30 5697 N 535.072 -1.5615 -0.213296 0
M  V30 5698 C 536.488 -1.49327 -0.56336 0
M  V30 5699 C 536.688 -0.756826 -1.86747 0
M  V30 5700 O 535.744 -0.299866 -2.50713 0
M  V30 5701 C 537.057 -2.9392 -0.634944 0
M  V30 5702 C 538.605 -3.04487 -0.725013 0
M  V30 5703 C 539.08 -4.50456 -0.82787 0
M  V30 5704 N 540.571 -4.54533 -0.891876 0
M  V30 5705 C 541.306 -5.64766 -0.991315 0
M  V30 5706 N 540.802 -6.84733 -1.05419 0
M  V30 5707 N 542.595 -5.52637 -1.02709 0
M  V30 5708 H 534.746 -2.02453 0.642366 0
M  V30 5709 H 537.009 -0.920548 0.226487 0
M  V30 5710 H 536.715 -3.50783 0.253859 0
M  V30 5711 H 536.589 -3.46274 -1.49579 0
M  V30 5712 H 538.976 -2.47685 -1.60425 0
M  V30 5713 H 539.057 -2.55289 0.161669 0
M  V30 5714 H 538.701 -5.07878 0.0469464 0
M  V30 5715 H 538.631 -4.97369 -1.73009 0
M  V30 5716 H 541.122 -3.68141 -0.85327 0
M  V30 5717 H 541.435 -7.64493 -1.13007 0
M  V30 5718 H 539.78 -6.87427 -1.02318 0
M  V30 5719 H 542.971 -4.5784 -0.974687 0
M  V30 5720 H 543.144 -6.38576 -1.10113 0
M  V30 5721 N 536.55 0.480323 -1.50102 0
M  V30 5722 C 537.796 1.23489 -1.60867 0
M  V30 5723 C 538.129 1.91809 -0.303827 0
M  V30 5724 O 537.404 1.81694 0.694092 0
M  V30 5725 C 537.687 2.28578 -2.78252 0
M  V30 5726 C 537.54 1.64624 -4.18592 0
M  V30 5727 C 538.859 3.2997 -2.91218 0
M  V30 5728 H 535.978 0.447605 -0.585507 0
M  V30 5729 H 538.62 0.530005 -1.82458 0
M  V30 5730 H 536.77 2.88697 -2.59974 0
M  V30 5731 H 538.442 1.08173 -4.48438 0
M  V30 5732 H 536.685 0.949645 -4.23278 0
M  V30 5733 H 537.356 2.40946 -4.96638 0
M  V30 5734 H 539.832 2.79864 -3.07921 0
M  V30 5735 H 538.708 4.00839 -3.74993 0
M  V30 5736 H 538.969 3.93541 -2.0144 0
M  V30 5737 N 538.028 1.39524 0.732853 0
M  V30 5738 C 539.439 1.32905 1.31122 0
M  V30 5739 C 539.79 -0.00558708 1.96199 0
M  V30 5740 O 538.915 -0.907706 1.96443 0
M  V30 5741 C 539.51 2.40704 2.38426 0
M  V30 5742 C 538.069 2.37599 2.91931 0
M  V30 5743 C 537.216 2.2248 1.65523 0
M  V30 5744 H 540.167 1.49581 0.530207 0
M  V30 5745 H 540.188 2.07616 3.18867 0
M  V30 5746 H 539.7 3.37829 1.91033 0
M  V30 5747 H 537.801 1.44119 3.43599 0
M  V30 5748 H 537.914 3.32538 3.44899 0
M  V30 5749 H 536.278 1.69691 1.8994 0
M  V30 5750 H 537.061 3.21577 1.20178 0
M  V30 5751 N 539.506 -0.963266 1.24736 0
M  V30 5752 C 540.922 -1.23273 1.01371 0
M  V30 5753 C 541.122 -1.99618 -0.274776 0
M  V30 5754 O 540.178 -2.32293 -0.989769 0
M  V30 5755 C 541.491 -2.01554 2.23152 0
M  V30 5756 C 543.039 -2.14629 2.27823 0
M  V30 5757 C 543.514 -2.96307 3.49237 0
M  V30 5758 N 545.005 -3.03887 3.49581 0
M  V30 5759 C 545.74 -3.67456 4.40186 0
M  V30 5760 N 545.236 -4.32706 5.41052 0
M  V30 5761 N 547.029 -3.64511 4.27888 0
M  V30 5762 H 539.18 -0.452294 2.07528 0
M  V30 5763 H 541.443 -0.262521 0.910926 0
M  V30 5764 H 541.149 -1.52847 3.1675 0
M  V30 5765 H 541.023 -3.02278 2.25628 0
M  V30 5766 H 543.41 -2.62537 1.34753 0
M  V30 5767 H 543.491 -1.13238 2.2937 0
M  V30 5768 H 543.135 -2.49091 4.42624 0
M  V30 5769 H 543.065 -3.97905 3.44933 0
M  V30 5770 H 545.556 -2.57477 2.76611 0
M  V30 5771 H 545.869 -4.79042 6.06415 0
M  V30 5772 H 544.214 -4.31361 5.44934 0
M  V30 5773 H 547.405 -3.12715 3.4832 0
M  V30 5774 H 547.578 -4.13768 4.98698 0
M  V30 5775 N 540.985 -1.06182 -1.16461 0
M  V30 5776 C 542.234 -0.772927 -1.86303 0
M  V30 5777 C 542.547 0.703187 -1.82523 0
M  V30 5778 O 543.753 1.10641 -2.47933 0
M  V30 5779 C 542.209 -1.33249 -3.34324 0
M  V30 5780 C 541.817 -2.83876 -3.46581 0
M  V30 5781 C 543.561 -1.12108 -4.09429 0
M  V30 5782 C 541.468 -3.33082 -4.88682 0
M  V30 5783 H 540.398 -0.285452 -0.697878 0
M  V30 5784 H 543.049 -1.28039 -1.31447 0
M  V30 5785 H 541.431 -0.7528 -3.88779 0
M  V30 5786 H 542.605 -3.47786 -3.02293 0
M  V30 5787 H 540.92 -3.03671 -2.84909 0
M  V30 5788 H 543.517 -1.46361 -5.14279 0
M  V30 5789 H 543.86 -0.0593832 -4.16258 0
M  V30 5790 H 544.393 -1.6665 -3.6121 0
M  V30 5791 H 541.132 -4.38726 -4.87032 0
M  V30 5792 H 540.652 -2.73919 -5.33599 0
M  V30 5793 H 542.331 -3.28344 -5.57494 0
M  V30 5794 N 542.463 1.3308 -0.844243 0
M  V30 5795 C 543.71 1.97605 -0.44255 0
M  V30 5796 C 544.038 1.66856 0.999458 0
M  V30 5797 O 543.293 0.943586 1.7145 0
M  V30 5798 C 543.592 3.52045 -0.616354 0
M  V30 5799 C 543.258 4.02757 -2.02726 0
M  V30 5800 C 541.92 4.16316 -2.41317 0
M  V30 5801 C 544.272 4.29776 -2.9486 0
M  V30 5802 C 541.6 4.54232 -3.71335 0
M  V30 5803 C 543.952 4.69146 -4.24364 0
M  V30 5804 C 542.616 4.80911 -4.62904 0
M  V30 5805 H 541.886 0.723088 -0.161941 0
M  V30 5806 H 544.533 1.58663 -1.0723 0
M  V30 5807 H 542.838 3.91681 0.0966812 0
M  V30 5808 H 544.535 3.99981 -0.285756 0
M  V30 5809 H 541.125 3.9268 -1.71756 0
M  V30 5810 H 545.309 4.18818 -2.6628 0
M  V30 5811 H 540.565 4.61535 -4.00993 0
M  V30 5812 H 544.739 4.89008 -4.95827 0
M  V30 5813 H 542.366 5.10048 -5.63698 0
M  V30 5814 N 543.941 0.601185 1.45683 0
M  V30 5815 C 545.188 0.0938811 2.02282 0
M  V30 5816 C 545.516 -1.27315 1.47041 0
M  V30 5817 O 544.771 -1.85193 0.632623 0
M  V30 5818 C 545.07 -0.00222425 3.574 0
M  V30 5819 C 544.736 1.29963 4.31764 0
M  V30 5820 C 543.398 1.65625 4.51798 0
M  V30 5821 C 545.75 2.1603 4.74321 0
M  V30 5822 C 543.078 2.87119 5.11644 0
M  V30 5823 C 545.43 3.36766 5.3551 0
M  V30 5824 C 544.094 3.72689 5.53768 0
M  V30 5825 H 543.364 0.0343535 0.740203 0
M  V30 5826 H 546.011 0.781522 1.74827 0
M  V30 5827 H 544.316 -0.773096 3.84097 0
M  V30 5828 H 546.013 -0.410794 3.9889 0
M  V30 5829 H 542.603 1.01204 4.1648 0
M  V30 5830 H 546.787 1.89778 4.58582 0
M  V30 5831 H 542.043 3.15065 5.2397 0
M  V30 5832 H 546.217 4.03713 5.67441 0
M  V30 5833 H 543.844 4.66918 5.99909 0
M  V30 5834 N 545.419 -1.53889 0.339982 0
M  V30 5835 C 546.835 -1.59595 -0.0120752 0
M  V30 5836 C 547.035 -1.35605 -1.49042 0
M  V30 5837 O 546.091 -1.14856 -2.24865 0
M  V30 5838 C 547.404 -2.9774 0.420898 0
M  V30 5839 C 548.952 -3.1077 0.37294 0
M  V30 5840 C 549.427 -4.51286 0.781327 0
M  V30 5841 N 550.918 -4.57325 0.735374 0
M  V30 5842 C 551.653 -5.64194 1.02336 0
M  V30 5843 N 551.149 -6.7893 1.37933 0
M  V30 5844 N 552.942 -5.54051 0.947838 0
M  V30 5845 H 545.093 -1.67738 1.30299 0
M  V30 5846 H 547.356 -0.785385 0.530918 0
M  V30 5847 H 547.062 -3.20349 1.45152 0
M  V30 5848 H 546.936 -3.76639 -0.205721 0
M  V30 5849 H 549.323 -2.87886 -0.648505 0
M  V30 5850 H 549.404 -2.33939 1.03472 0
M  V30 5851 H 549.048 -4.74905 1.80077 0
M  V30 5852 H 548.978 -5.26511 0.0970679 0
M  V30 5853 H 551.469 -3.74931 0.472773 0
M  V30 5854 H 551.782 -7.56392 1.58402 0
M  V30 5855 H 550.127 -6.80386 1.41774 0
M  V30 5856 H 553.318 -4.63293 0.669115 0
M  V30 5857 H 553.491 -6.37246 1.17563 0
M  V30 5858 N 546.897 -0.0685191 -1.57451 0
M  V30 5859 C 547.847 0.909895 -2.09057 0
M  V30 5860 C 548.831 1.26088 -0.999528 0
M  V30 5861 O 550.023 1.24041 -1.26265 0
M  V30 5862 C 547.152 2.17863 -2.65312 0
M  V30 5863 C 546.238 1.85427 -3.81415 0
M  V30 5864 N 546.629 1.23426 -4.9051 0
M  V30 5865 C 544.927 2.15196 -3.90649 0
M  V30 5866 C 545.628 1.09008 -5.71395 0
M  V30 5867 N 544.604 1.59871 -5.1956 0
M  V30 5868 H 548.406 0.426145 -2.90794 0
M  V30 5869 H 545.92 0.135462 -1.61834 0
M  V30 5870 H 547.917 2.88872 -3.00597 0
M  V30 5871 H 546.577 2.66829 -1.85021 0
M  V30 5872 H 547.588 0.904305 -5.09944 0
M  V30 5873 H 544.265 2.66562 -3.21327 0
M  V30 5874 H 545.655 0.607305 -6.6915 0
M  V30 5875 N 548.375 1.56261 0.205012 0
M  V30 5876 C 549.322 1.93754 1.25411 0
M  V30 5877 C 550.292 0.796826 1.45739 0
M  V30 5878 O 551.477 1.05414 1.59036 0
M  V30 5879 C 548.617 2.27383 2.59598 0
M  V30 5880 C 547.73 3.5447 2.46931 0
M  V30 5881 C 546.865 3.77468 3.73753 0
M  V30 5882 C 545.904 4.98014 3.55877 0
M  V30 5883 N 545.041 5.17316 4.74688 0
M  V30 5884 H 549.881 2.83203 0.92737 0
M  V30 5885 H 547.418 1.40158 0.446574 0
M  V30 5886 H 549.376 2.44895 3.37761 0
M  V30 5887 H 548.006 1.41088 2.90335 0
M  V30 5888 H 547.058 3.45061 1.60116 0
M  V30 5889 H 548.37 4.42789 2.29651 0
M  V30 5890 H 547.524 3.95165 4.60358 0
M  V30 5891 H 546.263 2.87461 3.93976 0
M  V30 5892 H 545.268 4.80249 2.67657 0
M  V30 5893 H 546.493 5.8952 3.37109 0
M  V30 5894 H 544.439 4.30255 4.95194 0
M  V30 5895 H 544.356 5.99796 4.60197 0
M  V30 5896 H 545.624 5.39463 5.62672 0
M  V30 5897 N 549.853 -0.472356 1.50355 0
M  V30 5898 C 551.269 -0.806001 1.37753 0
M  V30 5899 C 551.469 -1.968 0.432649 0
M  V30 5900 O 550.525 -2.52189 -0.12519 0
M  V30 5901 C 551.838 -1.11926 2.79093 0
M  V30 5902 C 553.386 -1.22579 2.87999 0
M  V30 5903 C 553.861 -1.57218 4.3017 0
M  V30 5904 N 555.352 -1.64212 4.33115 0
M  V30 5905 C 556.087 -1.92517 5.40116 0
M  V30 5906 N 555.583 -2.1885 6.57325 0
M  V30 5907 N 557.376 -1.94008 5.27558 0
M  V30 5908 H 549.527 0.293451 2.10363 0
M  V30 5909 H 551.79 0.0687672 0.945503 0
M  V30 5910 H 551.496 -0.338504 3.50067 0
M  V30 5911 H 551.37 -2.05577 3.16256 0
M  V30 5912 H 553.757 -1.99722 2.17245 0
M  V30 5913 H 553.838 -0.269107 2.54381 0
M  V30 5914 H 553.482 -0.806154 5.01461 0
M  V30 5915 H 553.412 -2.54034 4.61275 0
M  V30 5916 H 555.903 -1.45906 3.48597 0
M  V30 5917 H 556.216 -2.39718 7.3468 0
M  V30 5918 H 554.561 -2.16245 6.60502 0
M  V30 5919 H 557.752 -1.72931 4.34986 0
M  V30 5920 H 557.925 -2.15731 6.11035 0
M  V30 5921 N 551.331 -1.39911 -0.725443 0
M  V30 5922 C 552.58 -1.36963 -1.48068 0
M  V30 5923 C 552.893 0.0284478 -1.95579 0
M  V30 5924 O 554.099 0.180535 -2.70899 0
M  V30 5925 C 552.555 -2.40664 -2.67598 0
M  V30 5926 C 552.163 -3.86234 -2.26997 0
M  V30 5927 C 553.907 -2.46807 -3.45379 0
M  V30 5928 C 551.814 -4.81554 -3.43307 0
M  V30 5929 H 550.744 -0.509223 -0.556065 0
M  V30 5930 H 553.395 -1.65602 -0.790454 0
M  V30 5931 H 551.777 -2.05109 -3.38742 0
M  V30 5932 H 552.951 -4.3088 -1.63337 0
M  V30 5933 H 551.266 -3.83475 -1.62284 0
M  V30 5934 H 553.863 -3.15213 -4.31909 0
M  V30 5935 H 554.206 -1.49552 -3.8851 0
M  V30 5936 H 554.739 -2.81303 -2.81271 0
M  V30 5937 H 551.478 -5.80106 -3.05217 0
M  V30 5938 H 550.998 -4.4158 -4.05915 0
M  V30 5939 H 552.677 -5.0091 -4.0951 0
M  V30 5940 N 552.809 0.956637 -1.25245 0
M  V30 5941 C 553.742 2.05232 -0.99775 0
M  V30 5942 C 554.72 1.62439 0.0723137 0
M  V30 5943 O 555.904 1.88381 -0.066926 0
M  V30 5944 C 553.031 3.34871 -0.507861 0
M  V30 5945 C 552.077 3.96625 -1.56815 0
M  V30 5946 S 552.91 4.32853 -3.15276 0
M  V30 5947 C 554.066 5.65613 -2.68017 0
M  V30 5948 H 554.299 2.26521 -1.9255 0
M  V30 5949 H 551.832 1.09601 -1.08752 0
M  V30 5950 H 553.79 4.09845 -0.231858 0
M  V30 5951 H 552.451 3.11551 0.399356 0
M  V30 5952 H 551.644 4.90087 -1.17604 0
M  V30 5953 H 551.246 3.28124 -1.79473 0
M  V30 5954 H 553.538 6.43635 -2.11518 0
M  V30 5955 H 554.481 6.09693 -3.60112 0
M  V30 5956 H 554.889 5.24751 -2.0808 0
M  V30 5957 N 554.287 1.06798 1.15896 0
M  V30 5958 C 555.197 0.694564 2.24083 0
M  V30 5959 C 556.213 -0.291687 1.71538 0
M  V30 5960 O 557.389 -0.139723 2.00915 0
M  V30 5961 C 554.454 0.0921014 3.46578 0
M  V30 5962 C 553.515 1.13087 4.14137 0
M  V30 5963 C 552.748 0.557064 5.30785 0
M  V30 5964 O 552.971 -0.628623 5.66925 0
M  V30 5965 O 551.905 1.29924 5.8771 0
M  V30 5966 H 555.731 1.59663 2.58344 0
M  V30 5967 H 553.316 0.840575 1.2351 0
M  V30 5968 H 555.198 -0.241884 4.20705 0
M  V30 5969 H 553.873 -0.78337 3.14078 0
M  V30 5970 H 552.78 1.51712 3.41957 0
M  V30 5971 H 554.113 1.97805 4.50704 0
M  V30 5972 N 555.766 -1.3263 0.851289 0
M  V30 5973 C 557.012 -1.9766 0.453694 0
M  V30 5974 C 557.345 -1.67225 -0.987396 0
M  V30 5975 O 556.62 -0.958693 -1.69232 0
M  V30 5976 C 556.903 -3.5344 0.68936 0
M  V30 5977 C 556.756 -3.93517 2.17862 0
M  V30 5978 C 558.075 -4.39866 0.143555 0
M  V30 5979 H 555.194 -0.717989 0.166314 0
M  V30 5980 H 557.836 -1.57068 1.06909 0
M  V30 5981 H 555.986 -3.88147 0.165546 0
M  V30 5982 H 557.658 -3.69006 2.76826 0
M  V30 5983 H 555.901 -3.42798 2.65841 0
M  V30 5984 H 556.572 -5.02065 2.29422 0
M  V30 5985 H 559.048 -4.11875 0.591451 0
M  V30 5986 H 557.924 -5.47858 0.338043 0
M  V30 5987 H 558.185 -4.31696 -0.953466 0
M  V30 5988 N 557.244 -0.608902 -1.45362 0
M  V30 5989 C 558.66 -0.272659 -1.57254 0
M  V30 5990 C 558.86 1.22477 -1.60005 0
M  V30 5991 O 557.916 2.00785 -1.53106 0
M  V30 5992 C 559.229 -0.944991 -2.85465 0
M  V30 5993 C 560.777 -0.921033 -2.99142 0
M  V30 5994 C 561.252 -1.5734 -4.30126 0
M  V30 5995 N 562.743 -1.53895 -4.36887 0
M  V30 5996 C 563.478 -2.01286 -5.36909 0
M  V30 5997 N 562.974 -2.56768 -6.43461 0
M  V30 5998 N 564.767 -1.92046 -5.28275 0
M  V30 5999 H 556.918 -1.58117 -1.4182 0
M  V30 6000 H 559.181 -0.662437 -0.678146 0
M  V30 6001 H 558.887 -1.99941 -2.89338 0
M  V30 6002 H 558.761 -0.469079 -3.74272 0
M  V30 6003 H 561.148 0.124846 -2.94836 0
M  V30 6004 H 561.229 -1.43522 -2.11743 0
M  V30 6005 H 560.873 -2.61862 -4.35191 0
M  V30 6006 H 560.803 -1.03422 -5.16344 0
M  V30 6007 H 563.294 -1.13366 -3.60495 0
M  V30 6008 H 563.607 -2.9072 -7.16032 0
M  V30 6009 H 561.952 -2.60808 -6.44208 0
M  V30 6010 H 565.143 -1.48439 -4.43941 0
M  V30 6011 H 565.316 -2.29293 -6.06077 0
M  V30 6012 N 558.722 1.53707 -0.348139 0
M  V30 6013 C 559.67 2.26671 0.521808 0
M  V30 6014 C 560.664 1.28988 1.09811 0
M  V30 6015 O 561.87 1.4668 1.04332 0
M  V30 6016 H 558.245 0.728387 0.186968 0
M  V30 6017 H 560.216 2.98176 -0.115563 0
M  V30 6018 C 558.965 3.05591 1.6586 0
M  V30 6019 H 558.288 3.80589 1.22443 0
M  V30 6020 H 559.728 3.59851 2.24239 0
M  V30 6021 C 558.187 2.15366 2.59073 0
M  V30 6022 O 558.717 1.7528 3.61441 0
M  V30 6023 N 556.923 1.80352 2.27863 0
M  V30 6024 H 556.47 2.13149 1.44656 0
M  V30 6025 H 556.428 1.20268 2.90488 0
M  V30 6026 N 560.2 0.0768682 1.57412 0
M  V30 6027 C 561.163 -0.873949 2.11884 0
M  V30 6028 C 562.163 -1.22301 1.04398 0
M  V30 6029 O 563.353 -1.15545 1.30365 0
M  V30 6030 C 560.485 -2.17575 2.62438 0
M  V30 6031 H 561.678 -0.401278 2.97203 0
M  V30 6032 H 559.231 -0.171904 1.55352 0
M  V30 6033 H 559.966 -2.69368 1.80587 0
M  V30 6034 H 559.751 -1.93534 3.41009 0
M  V30 6035 H 561.241 -2.85631 3.04639 0
M  V30 6036 N 561.678 -1.56367 -0.196722 0
M  V30 6037 C 562.927 -1.79724 -0.915539 0
M  V30 6038 C 563.24 -0.649804 -1.84491 0
M  V30 6039 O 564.446 -0.767631 -2.60422 0
M  V30 6040 C 562.902 -3.18369 -1.67836 0
M  V30 6041 C 562.51 -4.4091 -0.793897 0
M  V30 6042 C 564.254 -3.51037 -2.38691 0
M  V30 6043 C 562.161 -5.70577 -1.55549 0
M  V30 6044 H 561.091 -0.67013 -0.345604 0
M  V30 6045 H 563.742 -1.82721 -0.168856 0
M  V30 6046 H 562.124 -3.09617 -2.46887 0
M  V30 6047 H 563.298 -4.60781 -0.042163 0
M  V30 6048 H 561.613 -4.15937 -0.19626 0
M  V30 6049 H 564.21 -4.4515 -2.96219 0
M  V30 6050 H 564.553 -2.74704 -3.12799 0
M  V30 6051 H 565.086 -3.61229 -1.66608 0
M  V30 6052 H 561.825 -6.49871 -0.857226 0
M  V30 6053 H 561.345 -5.54726 -2.2812 0
M  V30 6054 H 563.024 -6.11637 -2.10971 0
M  V30 6055 N 563.156 0.464375 -1.50603 0
M  V30 6056 C 564.404 1.21356 -1.61608 0
M  V30 6057 C 564.725 1.92329 -0.321643 0
M  V30 6058 O 563.995 1.84403 0.661232 0
M  V30 6059 H 562.575 0.45094 -0.595535 0
M  V30 6060 H 565.237 0.535046 -1.87412 0
M  V30 6061 H 564.333 1.95783 -2.43054 0
M  V30 6062 N 564.634 1.40294 0.718013 0
M  V30 6063 C 566.05 1.2227 1.02577 0
M  V30 6064 C 566.25 0.0961976 2.0127 0
M  V30 6065 O 565.306 -0.546695 2.46511 0
M  V30 6066 C 566.619 2.56348 1.57182 0
M  V30 6067 C 568.167 2.6334 1.69178 0
M  V30 6068 C 568.642 3.9768 2.27188 0
M  V30 6069 N 570.133 3.99409 2.34578 0
M  V30 6070 C 570.868 5.00141 2.8044 0
M  V30 6071 N 570.364 6.11268 3.26073 0
M  V30 6072 N 572.157 4.87511 2.79802 0
M  V30 6073 H 564.308 2.12304 0.0637899 0
M  V30 6074 H 566.571 0.943632 0.0909036 0
M  V30 6075 H 566.277 3.3942 0.921262 0
M  V30 6076 H 566.151 2.77266 2.55741 0
M  V30 6077 H 568.538 1.80641 2.33351 0
M  V30 6078 H 568.619 2.46255 0.692247 0
M  V30 6079 H 568.263 4.80817 1.63638 0
M  V30 6080 H 568.193 4.12093 3.27852 0
M  V30 6081 H 570.684 3.19162 2.02346 0
M  V30 6082 H 570.997 6.84023 3.59628 0
M  V30 6083 H 569.342 6.14837 3.24038 0
M  V30 6084 H 572.533 3.9979 2.43487 0
M  V30 6085 H 572.706 5.66158 3.15228 0
M  V30 6086 N 566.112 -0.949982 1.2575 0
M  V30 6087 C 567.36 -1.6918 1.10555 0
M  V30 6088 C 567.681 -1.91773 -0.353298 0
M  V30 6089 O 566.951 -1.50814 -1.25027 0
M  V30 6090 H 565.531 -0.626952 0.406129 0
M  V30 6091 H 568.193 -1.1419 1.57945 0
M  V30 6092 H 567.289 -2.66915 1.61749 0
M  V30 6093 N 567.59 -1.07411 -1.15328 0
M  V30 6094 C 568.5 -0.706438 -2.23711 0
M  V30 6095 C 569.516 0.282586 -1.7169 0
M  V30 6096 O 570.692 0.129066 -2.00986 0
M  V30 6097 C 567.757 -0.11048 -3.46524 0
M  V30 6098 C 566.818 -1.15282 -4.13532 0
M  V30 6099 C 566.051 -0.585205 -5.30482 0
M  V30 6100 O 566.274 0.598549 -5.67251 0
M  V30 6101 O 565.208 -1.33039 -5.87013 0
M  V30 6102 H 569.034 -1.61031 -2.57493 0
M  V30 6103 H 566.619 -0.847113 -1.23062 0
M  V30 6104 H 568.501 0.21957 -4.20828 0
M  V30 6105 H 567.176 0.766703 -3.14489 0
M  V30 6106 H 566.083 -1.53523 -3.41147 0
M  V30 6107 H 567.416 -2.00192 -4.49649 0
M  V30 6108 N 569.068 1.32177 -0.85831 0
M  V30 6109 C 570.293 2.01847 -0.476718 0
M  V30 6110 C 570.718 1.64065 0.920021 0
M  V30 6111 O 570.076 0.843189 1.60499 0
M  V30 6112 C 570.124 3.55097 -0.627578 0
M  V30 6113 O 569.228 4.11012 0.338086 0
M  V30 6114 H 568.569 0.635907 -0.191099 0
M  V30 6115 H 571.099 1.68641 -1.15851 0
M  V30 6116 H 571.109 4.04718 -0.516476 0
M  V30 6117 H 569.784 3.81938 -1.64609 0
M  V30 6118 H 568.361 3.72451 0.182917 0
M  V30 6119 N 570.547 0.616602 1.45037 0
M  V30 6120 C 571.772 0.120192 2.07051 0
M  V30 6121 C 572.197 -1.19008 1.45666 0
M  V30 6122 O 571.555 -1.7267 0.552692 0
M  V30 6123 C 571.603 0.00354901 3.606 0
M  V30 6124 O 570.707 -1.04431 3.98958 0
M  V30 6125 H 570.048 0.0781599 0.659384 0
M  V30 6126 H 572.578 0.849167 1.86146 0
M  V30 6127 H 572.588 -0.191754 4.07549 0
M  V30 6128 H 571.263 0.960239 4.04663 0
M  V30 6129 H 569.84 -0.824749 3.63665 0
M  V30 6130 N 572.025 -1.5352 0.356285 0
M  V30 6131 C 572.988 -2.24071 -0.482182 0
M  V30 6132 C 573.988 -1.24531 -1.01729 0
M  V30 6133 O 575.178 -1.48876 -0.904513 0
M  V30 6134 C 572.31 -2.97025 -1.67299 0
M  V30 6135 H 573.503 -2.99596 0.135031 0
M  V30 6136 H 571.056 -1.55928 0.107825 0
M  V30 6137 H 571.791 -2.25719 -2.32855 0
M  V30 6138 H 571.576 -3.7005 -1.29636 0
M  V30 6139 H 573.066 -3.50683 -2.26741 0
M  V30 6140 O 573.542 -0.225101 -1.59924 0
M  V30 6141 H 574.233 0.354711 -1.90425 0
M  V30 END ATOM
M  V30 BEGIN BOND
M  V30 END BOND
M  V30 END CTAB
M  END
$$$$
