drugbank_target|P30520 Adenylosuccinate synthetase isozyme 2 (DB00128; DB05540)
 OpenBabel12092120083D

  0  0  0     0  0            999 V3000
M  V30 BEGIN CTAB
M  V30 COUNTS 7061 7133 0 0 0
M  V30 BEGIN ATOM
M  V30 1 H -0.908 1.98254 -0.117106 0
M  V30 2 N 0 1.576 0 0
M  V30 3 C 0.933 2.03868 1.02534 0
M  V30 4 C 1.911 0.928543 1.3348 0
M  V30 5 O 3.095 1.19667 1.45644 0
M  V30 6 C 0.222 2.43627 2.35294 0
M  V30 7 C -0.732 3.65373 2.2001 0
M  V30 8 S 0.101 5.13292 1.52614 0
M  V30 9 C 1.257 5.56322 2.86805 0
M  V30 10 H 1.49 2.90518 0.631377 0
M  V30 11 H -0.977 1.52953 0.210867 0
M  V30 12 H 0.981 2.67203 3.11629 0
M  V30 13 H -0.358 1.57376 2.7183 0
M  V30 14 H -1.165 3.90944 3.18086 0
M  V30 15 H -1.563 3.418 1.51819 0
M  V30 16 H 0.729 5.58782 3.83104 0
M  V30 17 H 1.672 6.56266 2.65933 0
M  V30 18 H 2.08 4.83886 2.90714 0
M  V30 19 N 1.4781 -0.272755 1.55222 0
M  V30 20 C 2.4411 -1.32041 1.87344 0
M  V30 21 C 3.4411 -1.42342 0.74803 0
M  V30 22 O 4.6311 -1.41488 1.0162 0
M  V30 23 C 1.7631 -2.70173 2.07893 0
M  V30 24 H 2.9561 -1.04789 2.80997 0
M  V30 25 H 0.5091 -0.51083 1.47717 0
M  V30 26 H 1.2441 -3.02605 1.16622 0
M  V30 27 H 1.0291 -2.64082 2.89833 0
M  V30 28 H 2.5191 -3.45869 2.34017 0
M  V30 29 N 2.9562 -1.48159 -0.537278 0
M  V30 30 C 4.2032 -1.55804 -1.29349 0
M  V30 31 C 4.5312 -0.228802 -1.9315 0
M  V30 32 O 3.7862 0.780242 -1.79473 0
M  V30 33 C 4.0852 -2.63956 -2.40961 0
M  V30 34 C 3.7512 -4.0662 -1.94861 0
M  V30 35 C 2.4132 -4.45452 -1.82006 0
M  V30 36 C 4.7652 -4.96055 -1.59933 0
M  V30 37 C 2.0932 -5.71531 -1.32547 0
M  V30 38 C 4.4452 -6.22617 -1.11939 0
M  V30 39 C 3.1092 -6.60312 -0.976951 0
M  V30 40 H 2.3792 -0.570129 -0.473322 0
M  V30 41 H 5.0262 -1.81845 -0.600372 0
M  V30 42 H 3.3312 -2.31747 -3.15912 0
M  V30 43 H 5.0282 -2.67089 -2.99107 0
M  V30 44 H 1.6182 -3.75949 -2.05815 0
M  V30 45 H 5.8022 -4.66738 -1.68728 0
M  V30 46 H 1.0582 -5.99468 -1.202 0
M  V30 47 H 5.2322 -6.91318 -0.839811 0
M  V30 48 H 2.8592 -7.57895 -0.591501 0
M  V30 49 N 4.4343 0.785586 -1.36625 0
M  V30 50 C 5.3973 1.87999 -1.31107 0
M  V30 51 C 6.3973 1.59316 -0.217959 0
M  V30 52 O 7.5873 1.67656 -0.472977 0
M  V30 53 C 4.7193 3.24861 -1.03334 0
M  V30 54 H 5.9123 1.94307 -2.2844 0
M  V30 55 H 3.4653 0.983813 -1.21453 0
M  V30 56 H 4.2003 3.24235 -0.0647432 0
M  V30 57 H 3.9853 3.4707 -1.82441 0
M  V30 58 H 5.4753 4.04929 -1.02088 0
M  V30 59 N 5.9124 1.20967 1.01018 0
M  V30 60 C 6.8224 0.980157 2.13143 0
M  V30 61 C 7.8384 -0.0660665 1.73875 0
M  V30 62 O 9.0144 0.122821 2.01025 0
M  V30 63 C 6.0794 0.54216 3.42435 0
M  V30 64 C 5.1404 1.65999 3.95908 0
M  V30 65 C 4.3734 1.2428 5.19028 0
M  V30 66 O 4.5964 0.114196 5.70286 0
M  V30 67 O 3.5304 2.05271 5.65816 0
M  V30 68 H 7.3564 1.91913 2.35379 0
M  V30 69 H 4.9414 0.994099 1.11526 0
M  V30 70 H 6.8234 0.30744 4.20277 0
M  V30 71 H 5.4984 -0.36815 3.216 0
M  V30 72 H 4.4054 1.94906 3.19316 0
M  V30 73 H 5.7384 2.54753 4.21143 0
M  V30 74 N 7.3905 -1.2043 1.01659 0
M  V30 75 C 8.6185 -1.93777 0.725132 0
M  V30 76 C 9.0335 -1.74772 -0.714166 0
M  V30 77 O 8.3905 -1.06169 -1.4844 0
M  V30 78 C 8.4415 -3.45876 1.05129 0
M  V30 79 O 8.1625 -3.6426 2.43406 0
M  V30 80 C 9.6635 -4.36368 0.780891 0
M  V30 81 H 6.8835 -0.615901 0.266284 0
M  V30 82 H 9.4275 -1.52922 1.35776 0
M  V30 83 H 7.5825 -3.8461 0.464065 0
M  V30 84 H 7.9965 -4.58246 2.55169 0
M  V30 85 H 9.4705 -5.41743 1.05918 0
M  V30 86 H 9.9475 -4.38275 -0.284937 0
M  V30 87 H 10.5535 -4.03296 1.35027 0
M  V30 88 N 8.8686 -0.792821 -1.36206 0
M  V30 89 C 10.0986 -0.378275 -2.03107 0
M  V30 90 C 10.5066 1.01119 -1.59911 0
M  V30 91 O 9.8496 1.66052 -0.785658 0
M  V30 92 C 9.9116 -0.366535 -3.57627 0
M  V30 93 C 9.5756 -1.70416 -4.24037 0
M  V30 94 C 10.5726 -2.6602 -4.46687 0
M  V30 95 C 8.2576 -1.98439 -4.6144 0
M  V30 96 C 10.2516 -3.8784 -5.05825 0
M  V30 97 C 7.9386 -3.20525 -5.20295 0
M  V30 98 C 8.9366 -4.15044 -5.42427 0
M  V30 99 O 8.6246 -5.34978 -6.00045 0
M  V30 100 H 8.3566 -0.153543 -0.658332 0
M  V30 101 H 10.9106 -1.07383 -1.75094 0
M  V30 102 H 9.1406 0.385539 -3.84773 0
M  V30 103 H 10.8296 0.0238088 -4.05893 0
M  V30 104 H 11.5956 -2.45658 -4.18183 0
M  V30 105 H 7.4746 -1.25686 -4.43536 0
M  V30 106 H 11.0186 -4.61628 -5.23015 0
M  V30 107 H 6.9156 -3.40764 -5.48225 0
M  V30 108 H 7.6836 -5.36088 -6.18508 0
M  V30 109 N 10.3467 1.47872 -0.545128 0
M  V30 110 C 11.7577 1.86384 -0.108581 0
M  V30 111 C 12.1087 1.45309 1.31832 0
M  V30 112 O 11.2337 0.850641 1.9898 0
M  V30 113 C 11.8287 3.38265 -0.190274 0
M  V30 114 C 10.3877 3.75914 0.191164 0
M  V30 115 C 9.5347 2.71926 -0.543273 0
M  V30 116 H 12.4857 1.39561 -0.755537 0
M  V30 117 H 12.5067 3.75831 0.594217 0
M  V30 118 H 12.0187 3.6813 -1.2289 0
M  V30 119 H 10.1197 3.51665 1.23136 0
M  V30 120 H 10.2327 4.78836 -0.158987 0
M  V30 121 H 8.5967 2.54697 0.0122495 0
M  V30 122 H 9.3797 3.04634 -1.58282 0
M  V30 123 N 11.8248 0.280983 1.55075 0
M  V30 124 C 12.7878 -0.590896 2.21452 0
M  V30 125 C 13.7878 -1.07682 1.19421 0
M  V30 126 O 14.9778 -0.97605 1.44288 0
M  V30 127 C 12.1098 -1.81587 2.88511 0
M  V30 128 H 13.3028 -0.0112554 2.99898 0
M  V30 129 H 10.8558 0.0316438 1.56268 0
M  V30 130 H 11.5908 -2.43587 2.14093 0
M  V30 131 H 11.3758 -1.4753 3.63287 0
M  V30 132 H 12.8658 -2.43575 3.39206 0
M  V30 133 N 13.3029 -1.57598 0.00835791 0
M  V30 134 C 14.2659 -2.07884 -0.965242 0
M  V30 135 C 15.2659 -0.989825 -1.26725 0
M  V30 136 O 16.4559 -1.25218 -1.21104 0
M  V30 137 C 13.5879 -2.52731 -2.28779 0
M  V30 138 H 14.7809 -2.95178 -0.530112 0
M  V30 139 H 12.3339 -1.54458 -0.239283 0
M  V30 140 H 13.0689 -1.68705 -2.76964 0
M  V30 141 H 12.8539 -3.32272 -2.08177 0
M  V30 142 H 14.3439 -2.91933 -2.98605 0
M  V30 143 N 14.781 0.264519 -1.55364 0
M  V30 144 C 16.006 1.01726 -1.80739 0
M  V30 145 C 16.431 1.78836 -0.583044 0
M  V30 146 O 15.789 1.75167 0.467566 0
M  V30 147 C 15.837 1.94482 -3.03659 0
M  V30 148 O 14.941 3.03386 -2.7934 0
M  V30 149 H 14.282 0.290395 -0.597132 0
M  V30 150 H 16.812 0.290854 -2.02522 0
M  V30 151 H 16.822 2.36278 -3.32621 0
M  V30 152 H 15.497 1.37772 -3.92418 0
M  V30 153 H 14.074 2.65844 -2.61498 0
M  V30 154 N 16.2591 1.48442 0.529413 0
M  V30 155 C 17.4841 1.60406 1.31471 0
M  V30 156 C 17.9091 0.264738 1.86228 0
M  V30 157 O 17.2671 -0.763668 1.64432 0
M  V30 158 C 17.3151 2.65419 2.44101 0
M  V30 159 O 16.4191 2.22618 3.47153 0
M  V30 160 H 15.7601 0.537863 0.389357 0
M  V30 161 H 18.2901 1.94432 0.636965 0
M  V30 162 H 18.3001 2.86709 2.90279 0
M  V30 163 H 16.9751 3.62652 2.03608 0
M  V30 164 H 15.5521 2.11543 3.0709 0
M  V30 165 N 17.7372 -0.778329 1.37039 0
M  V30 166 C 18.6672 -1.90546 1.34962 0
M  V30 167 C 19.6482 -1.68681 0.219274 0
M  V30 168 O 20.8332 -1.89634 0.418624 0
M  V30 169 C 17.9632 -3.27734 1.14925 0
M  V30 170 C 16.9172 -3.64147 2.24902 0
M  V30 171 C 16.2432 -4.99806 1.89996 0
M  V30 172 C 17.5432 -3.71579 3.67051 0
M  V30 173 H 19.2372 -1.92541 2.29277 0
M  V30 174 H 16.7832 -0.924948 1.10366 0
M  V30 175 H 18.7362 -4.06215 1.12104 0
M  V30 176 H 17.4602 -3.26154 0.170631 0
M  V30 177 H 16.1192 -2.8797 2.26868 0
M  V30 178 H 15.7672 -4.94759 0.906796 0
M  V30 179 H 15.4672 -5.25139 2.63634 0
M  V30 180 H 16.9912 -5.80694 1.88749 0
M  V30 181 H 18.4052 -4.40227 3.67251 0
M  V30 182 H 16.8022 -4.08405 4.39688 0
M  V30 183 H 17.8722 -2.72404 4.01154 0
M  V30 184 N 19.2153 -1.21501 -1.00376 0
M  V30 185 C 20.6263 -1.03146 -1.55621 0
M  V30 186 C 20.9773 0.408375 -1.91903 0
M  V30 187 O 20.1023 1.29177 -1.73616 0
M  V30 188 C 20.6973 -1.86612 -2.82775 0
M  V30 189 C 19.2563 -1.72586 -3.34501 0
M  V30 190 C 18.4033 -1.83747 -2.07683 0
M  V30 191 H 21.3543 -1.35505 -0.826081 0
M  V30 192 H 21.3753 -1.3771 -3.54706 0
M  V30 193 H 20.8873 -2.91399 -2.56336 0
M  V30 194 H 18.9883 -0.704877 -3.65872 0
M  V30 195 H 19.1013 -2.54623 -4.05837 0
M  V30 196 H 17.4653 -1.27069 -2.20739 0
M  V30 197 H 18.2483 -2.90044 -1.83655 0
M  V30 198 N 20.6934 1.19889 -1.02296 0
M  V30 199 C 21.6414 2.24938 -0.592081 0
M  V30 200 C 22.6354 1.65257 0.372357 0
M  V30 201 O 23.8414 1.78371 0.241583 0
M  V30 202 H 20.2164 0.731787 -0.173182 0
M  V30 203 H 22.1874 2.58603 -1.48885 0
M  V30 204 C 20.9364 3.47668 0.047351 0
M  V30 205 H 20.2594 3.93875 -0.685772 0
M  V30 206 H 21.6994 4.22852 0.311862 0
M  V30 207 C 20.1584 3.11136 1.29212 0
M  V30 208 O 20.6884 3.2325 2.38479 0
M  V30 209 N 18.8944 2.65625 1.17863 0
M  V30 210 H 18.4414 2.55968 0.289493 0
M  V30 211 H 18.3994 2.41553 2.01245 0
M  V30 212 N 22.1715 0.800033 1.35784 0
M  V30 213 C 23.4195 0.376597 1.9856 0
M  V30 214 C 23.7405 -1.05812 1.63795 0
M  V30 215 O 23.0105 -1.73103 0.917171 0
M  V30 216 H 21.5905 0.136261 0.734467 0
M  V30 217 H 24.2525 1.02442 1.65806 0
M  V30 218 H 23.3485 0.477002 3.08433 0
M  V30 219 N 23.6496 -1.47581 0.552962 0
M  V30 220 C 24.9266 -1.95563 -0.0381515 0
M  V30 221 C 25.3066 -1.49552 -1.48988 0
M  V30 222 O 24.6546 -0.732414 -2.16444 0
M  V30 223 C 24.8646 -3.48848 0.102919 0
M  V30 224 C 26.2126 -4.24577 -0.0446082 0
M  V30 225 O 27.2366 -3.56187 0.0302548 0
M  V30 226 O 26.0956 -5.46116 -0.204923 0
M  V30 227 H 23.1896 -0.824321 -0.0665067 0
M  V30 228 H 25.7356 -1.58001 0.619186 0
M  V30 229 H 24.5076 -3.75129 1.11328 0
M  V30 230 H 24.1306 -3.93165 -0.592224 0
M  V30 231 N 25.1277 -0.289203 -1.54924 0
M  V30 232 C 26.3677 0.324536 -2.01807 0
M  V30 233 C 26.7317 1.5199 -1.17316 0
M  V30 234 O 27.9327 2.20422 -1.53843 0
M  V30 235 C 26.2037 0.683578 -3.50802 0
M  V30 236 S 27.7627 1.28185 -4.19659 0
M  V30 237 H 24.5807 0.100236 -0.703899 0
M  V30 238 H 27.1827 -0.414325 -1.91059 0
M  V30 239 H 25.8867 -0.195073 -4.09936 0
M  V30 240 H 25.4177 1.45354 -3.65562 0
M  V30 241 H 27.4327 2.57006 -4.24456 0
M  V30 242 N 26.6058 1.57591 -0.0167156 0
M  V30 243 C 27.8538 1.90906 0.663285 0
M  V30 244 C 28.1748 0.892509 1.73376 0
M  V30 245 O 27.4448 -0.0677623 1.95783 0
M  V30 246 H 26.0248 0.704637 0.247983 0
M  V30 247 H 28.6868 1.94803 -0.0615909 0
M  V30 248 H 27.7828 2.9116 1.12393 0
M  V30 249 N 28.0839 -0.256276 1.55502 0
M  V30 250 C 29.4999 -0.604325 1.47716 0
M  V30 251 C 29.6999 -1.88763 0.705039 0
M  V30 252 O 28.7559 -2.51445 0.230613 0
M  V30 253 C 30.0689 -0.715756 2.92057 0
M  V30 254 C 31.6169 -0.808706 3.02372 0
M  V30 255 C 32.0919 -0.951777 4.48001 0
M  V30 256 N 33.5829 -1.01688 4.519 0
M  V30 257 C 34.3179 -1.14668 5.61817 0
M  V30 258 N 33.8139 -1.24261 6.81565 0
M  V30 259 N 35.6069 -1.1791 5.49594 0
M  V30 260 H 27.7579 0.586291 2.04148 0
M  V30 261 H 30.0209 0.201015 0.926443 0
M  V30 262 H 29.7269 0.157027 3.51349 0
M  V30 263 H 29.6009 -1.59071 3.42018 0
M  V30 264 H 31.9879 -1.67195 2.43166 0
M  V30 265 H 32.0689 0.0912063 2.55637 0
M  V30 266 H 31.7129 -0.0931291 5.07815 0
M  V30 267 H 31.6429 -1.86659 4.92408 0
M  V30 268 H 34.1339 -0.954468 3.65648 0
M  V30 269 H 34.4469 -1.34046 7.61086 0
M  V30 270 H 32.7919 -1.21236 6.84344 0
M  V30 271 H 35.9829 -1.10057 4.54978 0
M  V30 272 H 36.1559 -1.27681 6.35296 0
M  V30 273 N 29.562 -1.4872 -0.521534 0
M  V30 274 C 30.973 -1.50607 -1.10337 0
M  V30 275 C 31.324 -0.280612 -1.94183 0
M  V30 276 O 30.449 0.611507 -2.0758 0
M  V30 277 C 31.044 -2.72903 -2.00772 0
M  V30 278 C 29.603 -2.77634 -2.54158 0
M  V30 279 C 28.75 -2.44241 -1.31307 0
M  V30 280 H 31.701 -1.55714 -0.306388 0
M  V30 281 H 31.722 -2.519 -2.85178 0
M  V30 282 H 31.234 -3.62077 -1.39721 0
M  V30 283 H 29.335 -1.92689 -3.18907 0
M  V30 284 H 29.448 -3.79283 -2.92714 0
M  V30 285 H 27.812 -1.95577 -1.63161 0
M  V30 286 H 28.595 -3.35666 -0.719943 0
M  V30 287 N 31.0401 0.771051 -1.3745 0
M  V30 288 C 32.4561 1.07171 -1.18265 0
M  V30 289 C 32.6561 2.01491 -0.019287 0
M  V30 290 O 31.7121 2.44244 0.640408 0
M  V30 291 C 33.0251 1.66854 -2.50161 0
M  V30 292 C 34.5731 1.79109 -2.56689 0
M  V30 293 C 35.0481 2.42205 -3.88717 0
M  V30 294 N 36.5391 2.49655 -3.90162 0
M  V30 295 C 37.2741 2.9933 -4.8907 0
M  V30 296 N 36.7701 3.49172 -5.98374 0
M  V30 297 N 38.5631 2.9821 -4.76474 0
M  V30 298 H 30.7141 0.144796 -2.11906 0
M  V30 299 H 32.9771 0.126863 -0.939473 0
M  V30 300 H 32.6831 1.05017 -3.35655 0
M  V30 301 H 32.5571 2.6614 -2.673 0
M  V30 302 H 34.9441 2.40077 -1.71601 0
M  V30 303 H 35.0251 0.785757 -2.43433 0
M  V30 304 H 34.6691 1.81875 -4.74219 0
M  V30 305 H 34.5991 3.43345 -3.99276 0
M  V30 306 H 37.0901 2.14383 -3.11205 0
M  V30 307 H 37.4031 3.8548 -6.69795 0
M  V30 308 H 35.7481 3.47275 -6.02018 0
M  V30 309 H 38.9391 2.58572 -3.90203 0
M  V30 310 H 39.1121 3.36613 -5.53711 0
M  V30 311 N 32.5182 1.22032 0.997298 0
M  V30 312 C 33.4812 0.987909 2.06816 0
M  V30 313 C 34.4812 -0.0440084 1.6074 0
M  V30 314 O 35.6712 0.194053 1.73116 0
M  V30 315 C 32.8032 0.49132 3.37341 0
M  V30 316 H 33.9962 1.93803 2.28868 0
M  V30 317 H 31.5492 1.03838 1.16822 0
M  V30 318 H 32.2842 -0.463364 3.20973 0
M  V30 319 H 32.0692 1.23575 3.72118 0
M  V30 320 H 33.5592 0.348824 4.16141 0
M  V30 321 N 33.9963 -1.19345 1.0293 0
M  V30 322 C 35.4123 -1.41069 0.746446 0
M  V30 323 C 35.6123 -1.90078 -0.668776 0
M  V30 324 O 34.6683 -2.0778 -1.4347 0
M  V30 325 C 35.9813 -2.42141 1.78292 0
M  V30 326 C 37.5293 -2.55887 1.80252 0
M  V30 327 C 38.0043 -3.60214 2.8286 0
M  V30 328 N 39.4953 -3.67711 2.81679 0
M  V30 329 C 40.2303 -4.48128 3.57727 0
M  V30 330 N 39.7263 -5.32248 4.43491 0
M  V30 331 N 41.5193 -4.42782 3.46267 0
M  V30 332 H 33.6703 -0.858536 1.94275 0
M  V30 333 H 35.9333 -0.439541 0.839945 0
M  V30 334 H 35.6393 -2.13155 2.79746 0
M  V30 335 H 35.5133 -3.41323 1.60557 0
M  V30 336 H 37.9003 -2.84196 0.794757 0
M  V30 337 H 37.9813 -1.56858 2.02062 0
M  V30 338 H 37.6253 -3.32647 3.83807 0
M  V30 339 H 37.5553 -4.58895 2.58307 0
M  V30 340 H 40.0463 -3.07634 2.19476 0
M  V30 341 H 40.3593 -5.90729 4.98256 0
M  V30 342 H 38.7043 -5.31707 4.47564 0
M  V30 343 H 41.8953 -3.76107 2.78677 0
M  V30 344 H 42.0683 -5.05215 4.05785 0
M  V30 345 N 35.4744 -0.807222 -1.35358 0
M  V30 346 C 36.8854 -0.44876 -1.81226 0
M  V30 347 C 37.2364 1.02929 -1.67033 0
M  V30 348 O 36.3614 1.79991 -1.20133 0
M  V30 349 C 36.9564 -0.807774 -3.2903 0
M  V30 350 C 35.5154 -0.501901 -3.73039 0
M  V30 351 C 34.6624 -1.03304 -2.57339 0
M  V30 352 H 37.6134 -0.998808 -1.23327 0
M  V30 353 H 37.6344 -0.10554 -3.80354 0
M  V30 354 H 37.1464 -1.88357 -3.39328 0
M  V30 355 H 35.2474 0.565128 -3.68289 0
M  V30 356 H 35.3604 -1.03497 -4.67787 0
M  V30 357 H 33.7244 -0.455339 -2.50597 0
M  V30 358 H 34.5074 -2.11496 -2.70415 0
M  V30 359 N 36.9525 1.47285 -0.560781 0
M  V30 360 C 38.2005 2.02064 -0.0379868 0
M  V30 361 C 38.5215 1.43711 1.31803 0
M  V30 362 O 37.7915 0.61362 1.86042 0
M  V30 363 H 36.3715 0.746918 -0.0110531 0
M  V30 364 H 39.0335 1.80648 -0.731598 0
M  V30 365 H 38.1295 3.12064 0.0474463 0
M  V30 366 N 38.4306 0.297415 1.54768 0
M  V30 367 C 39.6786 -0.312295 1.99673 0
M  V30 368 C 39.9996 -1.54686 1.18732 0
M  V30 369 O 39.2696 -1.93854 0.282382 0
M  V30 370 H 37.8496 -0.118381 0.73756 0
M  V30 371 H 40.5116 0.407915 1.90583 0
M  V30 372 H 39.6076 -0.586813 3.06534 0
M  V30 373 N 39.9087 -1.5758 0.0250728 0
M  V30 374 C 40.8567 -2.11125 -0.97617 0
M  V30 375 C 41.8507 -1.03689 -1.33959 0
M  V30 376 O 43.0567 -1.22128 -1.3223 0
M  V30 377 H 39.4317 -0.674468 -0.332561 0
M  V30 378 H 41.4027 -2.94194 -0.499223 0
M  V30 379 C 40.1517 -2.65017 -2.2508 0
M  V30 380 H 39.4747 -3.47333 -1.9799 0
M  V30 381 H 40.9147 -3.06133 -2.93357 0
M  V30 382 C 39.3737 -1.57574 -2.97779 0
M  V30 383 O 39.9037 -0.973203 -3.89733 0
M  V30 384 N 38.1097 -1.29716 -2.60043 0
M  V30 385 H 37.6567 -1.789 -1.85345 0
M  V30 386 H 37.6147 -0.58051 -3.08994 0
M  V30 387 N 41.3868 0.248026 -1.55636 0
M  V30 388 C 42.8028 0.596483 -1.48035 0
M  V30 389 C 43.0028 1.88386 -0.715039 0
M  V30 390 O 42.0588 2.51319 -0.243944 0
M  V30 391 C 43.3718 0.700258 -2.92433 0
M  V30 392 C 44.9198 0.792659 -3.02797 0
M  V30 393 C 45.3948 0.928005 -4.485 0
M  V30 394 N 46.8858 0.992903 -4.52433 0
M  V30 395 C 47.6208 1.11687 -5.62418 0
M  V30 396 N 47.1168 1.20645 -6.82214 0
M  V30 397 N 48.9098 1.14994 -5.50212 0
M  V30 398 H 41.0608 -0.597109 -2.03834 0
M  V30 399 H 43.3238 -0.205925 -0.925364 0
M  V30 400 H 43.0298 -0.175658 -3.51261 0
M  V30 401 H 42.9038 1.57255 -3.42857 0
M  V30 402 H 45.2908 1.65903 -2.4405 0
M  V30 403 H 45.3718 -0.104762 -2.55585 0
M  V30 404 H 45.0158 0.0661971 -5.07857 0
M  V30 405 H 44.9458 1.84045 -4.93391 0
M  V30 406 H 47.4368 0.935064 -3.66149 0
M  V30 407 H 47.7498 1.30008 -7.61786 0
M  V30 408 H 46.0948 1.17605 -6.84977 0
M  V30 409 H 49.2858 1.07643 -4.55555 0
M  V30 410 H 49.4588 1.24311 -6.35965 0
M  V30 411 N 42.8649 1.48995 0.513639 0
M  V30 412 C 44.1109 1.58076 1.27042 0
M  V30 413 C 44.4439 0.261026 1.92438 0
M  V30 414 O 43.7189 -0.734393 1.80103 0
M  V30 415 C 44.0019 2.73091 2.34719 0
M  V30 416 C 43.8549 4.14821 1.73907 0
M  V30 417 C 45.1739 2.83796 3.36375 0
M  V30 418 H 42.2929 0.575391 0.460536 0
M  V30 419 H 44.9349 1.81232 0.570516 0
M  V30 420 H 43.0849 2.53479 2.94416 0
M  V30 421 H 44.7569 4.45917 1.18135 0
M  V30 422 H 42.9999 4.21058 1.0437 0
M  V30 423 H 43.6709 4.91147 2.51949 0
M  V30 424 H 46.1469 3.01611 2.86653 0
M  V30 425 H 45.0229 3.65971 4.09093 0
M  V30 426 H 45.2839 1.92624 3.9793 0
M  V30 427 N 44.343 -0.763751 1.37857 0
M  V30 428 C 45.571 -1.55293 1.36718 0
M  V30 429 C 45.986 -1.88745 -0.0455434 0
M  V30 430 O 45.343 -1.52039 -1.00947 0
M  V30 431 C 45.394 -2.85831 2.2132 0
M  V30 432 O 45.115 -2.5381 3.57089 0
M  V30 433 C 46.616 -3.80023 2.28249 0
M  V30 434 H 43.836 -0.480841 0.468009 0
M  V30 435 H 46.38 -0.946009 1.81303 0
M  V30 436 H 44.535 -3.42926 1.80223 0
M  V30 437 H 44.949 -3.37459 4.01524 0
M  V30 438 H 46.423 -4.68599 2.91752 0
M  V30 439 H 46.9 -4.1973 1.2932 0
M  V30 440 H 47.506 -3.28855 2.69693 0
M  V30 441 N 45.8211 -1.22559 -0.990812 0
M  V30 442 C 47.0671 -1.05297 -1.73322 0
M  V30 443 C 47.4001 0.410655 -1.89808 0
M  V30 444 O 46.6751 1.30439 -1.44277 0
M  V30 445 C 46.9581 -1.76713 -3.13759 0
M  V30 446 C 46.8111 -3.30684 -3.04907 0
M  V30 447 C 48.1301 -1.52121 -4.12974 0
M  V30 448 H 45.2491 -0.38392 -0.629106 0
M  V30 449 H 47.8911 -1.50926 -1.15418 0
M  V30 450 H 46.0411 -1.37924 -3.63193 0
M  V30 451 H 47.7131 -3.7893 -2.63077 0
M  V30 452 H 45.9561 -3.60253 -2.41661 0
M  V30 453 H 46.6271 -3.75833 -4.04294 0
M  V30 454 H 49.1031 -1.85819 -3.72304 0
M  V30 455 H 47.9791 -2.04582 -5.0935 0
M  V30 456 H 48.2401 -0.454257 -4.3976 0
M  V30 457 N 47.2992 1.18797 -1.03562 0
M  V30 458 C 48.5452 1.8893 -0.737113 0
M  V30 459 C 48.8782 1.79837 0.732956 0
M  V30 460 O 48.1532 1.19525 1.5344 0
M  V30 461 C 48.4362 3.39607 -1.19745 0
M  V30 462 C 48.2892 3.57537 -2.72924 0
M  V30 463 C 49.6082 4.33069 -0.783526 0
M  V30 464 H 46.7272 0.686057 -0.269249 0
M  V30 465 H 49.3692 1.39797 -1.28673 0
M  V30 466 H 47.5192 3.81583 -0.729855 0
M  V30 467 H 49.1912 3.24688 -3.27682 0
M  V30 468 H 47.4342 3.00363 -3.12993 0
M  V30 469 H 48.1052 4.63238 -3.00191 0
M  V30 470 H 50.5812 3.98846 -1.18581 0
M  V30 471 H 49.4572 5.3707 -1.13343 0
M  V30 472 H 49.7182 4.40986 0.313681 0
M  V30 473 N 48.7773 0.814389 1.34928 0
M  V30 474 C 49.7073 0.244827 2.32213 0
M  V30 475 C 50.6883 -0.634024 1.57842 0
M  V30 476 O 51.8733 -0.562676 1.8587 0
M  V30 477 C 49.0033 -0.601106 3.42058 0
M  V30 478 C 47.9573 0.179896 4.27622 0
M  V30 479 C 47.2833 -0.788237 5.28858 0
M  V30 480 C 48.5833 1.38329 5.03649 0
M  V30 481 H 50.2773 1.05763 2.80097 0
M  V30 482 H 47.8233 0.510029 1.34665 0
M  V30 483 H 49.7763 -1.00968 4.09125 0
M  V30 484 H 48.5003 -1.44688 2.92802 0
M  V30 485 H 47.1593 0.569739 3.62146 0
M  V30 486 H 46.8073 -1.62973 4.75866 0
M  V30 487 H 46.5073 -0.269942 5.8698 0
M  V30 488 H 48.0313 -1.19485 5.98795 0
M  V30 489 H 49.4453 1.04918 5.63618 0
M  V30 490 H 47.8423 1.83662 5.71304 0
M  V30 491 H 48.9123 2.16592 4.33839 0
M  V30 492 N 50.2554 -1.46986 0.568584 0
M  V30 493 C 51.5034 -2.02041 0.0487022 0
M  V30 494 C 51.8244 -1.44408 -1.31039 0
M  V30 495 O 51.0944 -0.623477 -1.85714 0
M  V30 496 H 49.6744 -0.746849 0.015014 0
M  V30 497 H 52.3364 -1.80257 0.741168 0
M  V30 498 H 51.4324 -3.12085 -0.0308961 0
M  V30 499 N 51.7335 -0.305618 -1.54608 0
M  V30 500 C 52.6965 0.555591 -2.22364 0
M  V30 501 C 53.6965 1.05768 -1.21119 0
M  V30 502 O 54.8865 0.952972 -1.45822 0
M  V30 503 C 52.0185 1.76974 -2.91364 0
M  V30 504 H 53.2115 -0.0364572 -2.99878 0
M  V30 505 H 50.7645 -0.0565007 -1.56198 0
M  V30 506 H 51.4995 2.40151 -2.17941 0
M  V30 507 H 51.2845 1.41732 -3.65588 0
M  V30 508 H 52.7745 2.38148 -3.43038 0
M  V30 509 N 53.2116 1.57565 -0.0334293 0
M  V30 510 C 54.1436 2.0739 0.975811 0
M  V30 511 C 55.1566 0.998166 1.2861 0
M  V30 512 O 56.3456 1.27426 1.25 0
M  V30 513 C 53.4456 2.4871 2.30209 0
M  V30 514 C 52.6186 3.79413 2.17634 0
M  V30 515 C 51.6776 4.07237 3.33233 0
M  V30 516 O 50.7036 4.77425 3.09927 0
M  V30 517 N 51.9056 3.5775 4.5716 0
M  V30 518 H 54.6706 2.94598 0.55066 0
M  V30 519 H 52.2316 1.61173 0.15323 0
M  V30 520 H 54.2236 2.64413 3.06378 0
M  V30 521 H 52.7936 1.66845 2.64351 0
M  V30 522 H 52.0136 3.73465 1.26165 0
M  V30 523 H 53.3016 4.65038 2.0644 0
M  V30 524 H 52.6996 3.00976 4.78989 0
M  V30 525 H 51.2566 3.78724 5.30482 0
M  V30 526 N 54.6897 -0.239769 1.55765 0
M  V30 527 C 55.9357 -0.963942 1.79108 0
M  V30 528 C 56.2907 -1.82689 0.60352 0
M  V30 529 O 55.5837 -1.87313 -0.403033 0
M  V30 530 C 55.7777 -1.852 3.05672 0
M  V30 531 C 55.6067 -1.07651 4.36625 0
M  V30 532 C 54.3767 -0.778738 4.99263 0
M  V30 533 C 56.5747 -0.45062 5.12322 0
M  V30 534 N 54.5567 0.0200708 6.13897 0
M  V30 535 C 55.9277 0.212429 6.19636 0
M  V30 536 C 57.9827 -0.361806 4.96584 0
M  V30 537 C 56.6857 0.955772 7.12922 0
M  V30 538 C 58.7117 0.368023 5.90254 0
M  V30 539 C 58.0737 1.01968 6.96981 0
M  V30 540 H 54.1727 -0.333601 0.707272 0
M  V30 541 H 56.7567 -0.236425 1.93259 0
M  V30 542 H 54.9277 -2.55149 2.92837 0
M  V30 543 H 56.6597 -2.51228 3.1728 0
M  V30 544 H 53.4147 -1.09229 4.60832 0
M  V30 545 H 53.8387 0.407777 6.75771 0
M  V30 546 H 58.4807 -0.851286 4.14141 0
M  V30 547 H 56.1987 1.45683 7.9486 0
M  V30 548 H 59.7847 0.437504 5.80153 0
M  V30 549 H 58.6647 1.5754 7.68213 0
M  V30 550 N 56.1678 -1.49265 -0.50573 0
M  V30 551 C 57.4158 -1.582 -1.25766 0
M  V30 552 C 57.7368 -0.268482 -1.93143 0
M  V30 553 O 57.0068 0.711833 -1.8251 0
M  V30 554 H 55.5868 -0.582873 -0.467191 0
M  V30 555 H 58.2488 -1.85865 -0.586525 0
M  V30 556 H 57.3448 -2.37563 -2.02412 0
M  V30 557 N 57.6459 0.756429 -1.3826 0
M  V30 558 C 58.9229 1.50584 -1.24835 0
M  V30 559 C 59.3029 2.10556 0.151485 0
M  V30 560 O 58.6509 1.96825 1.1607 0
M  V30 561 C 58.8609 2.57448 -2.3563 0
M  V30 562 C 60.2089 3.24429 -2.73917 0
M  V30 563 O 61.2329 2.67751 -2.34921 0
M  V30 564 O 60.0919 4.26937 -3.41156 0
M  V30 565 H 57.1859 0.667664 -0.48801 0
M  V30 566 H 59.7319 0.792083 -1.5008 0
M  V30 567 H 58.5039 2.11362 -3.29305 0
M  V30 568 H 58.1269 3.36408 -2.11933 0
M  V30 569 N 59.124 1.23083 0.984299 0
M  V30 570 C 60.034 1.02515 2.11016 0
M  V30 571 C 61.05 -0.0291702 1.73976 0
M  V30 572 O 62.226 0.165434 2.00719 0
M  V30 573 C 59.291 0.614673 3.41208 0
M  V30 574 C 58.352 1.74359 3.92297 0
M  V30 575 C 57.585 1.35261 5.16275 0
M  V30 576 O 57.808 0.235136 5.69915 0
M  V30 577 O 56.742 2.17227 5.61334 0
M  V30 578 H 60.568 1.96862 2.31255 0
M  V30 579 H 58.153 1.01753 1.09392 0
M  V30 580 H 60.035 0.396518 4.1953 0
M  V30 581 H 58.71 -0.299851 3.22308 0
M  V30 582 H 57.617 2.01635 3.1511 0
M  V30 583 H 58.95 2.63629 4.15645 0
M  V30 584 N 60.6021 -1.18246 1.0419 0
M  V30 585 C 61.8501 -1.87886 0.744543 0
M  V30 586 C 62.1711 -1.8082 -0.730006 0
M  V30 587 O 61.4411 -1.22736 -1.52685 0
M  V30 588 H 60.0211 -0.695556 0.272417 0
M  V30 589 H 62.6831 -1.43494 1.31892 0
M  V30 590 H 61.7791 -2.9389 1.05049 0
M  V30 591 N 62.0802 -0.821533 -1.34494 0
M  V30 592 C 63.0272 -0.240397 -2.29545 0
M  V30 593 C 63.9972 0.634031 -1.53523 0
M  V30 594 O 65.1822 0.575966 -1.81899 0
M  V30 595 C 62.3222 0.592869 -3.39969 0
M  V30 596 C 61.4352 -0.30365 -4.30932 0
M  V30 597 C 60.5702 0.539049 -5.28458 0
M  V30 598 C 59.6092 -0.356942 -6.11058 0
M  V30 599 N 58.7462 0.446603 -7.00678 0
M  V30 600 H 63.5862 -1.05632 -2.7865 0
M  V30 601 H 61.1232 -0.532413 -1.37127 0
M  V30 602 H 63.0812 1.09129 -4.02675 0
M  V30 603 H 61.7112 1.37392 -2.92102 0
M  V30 604 H 60.7632 -0.920276 -3.691 0
M  V30 605 H 62.0752 -0.992661 -4.88823 0
M  V30 606 H 61.2292 1.102 -5.96608 0
M  V30 607 H 59.9682 1.26157 -4.71101 0
M  V30 608 H 58.9732 -0.932047 -5.41842 0
M  V30 609 H 60.1982 -1.07755 -6.70497 0
M  V30 610 H 58.1442 1.15282 -6.45791 0
M  V30 611 H 58.0612 -0.184048 -7.55776 0
M  V30 612 H 59.3292 0.992352 -7.73158 0
M  V30 613 N 63.5583 1.46682 -0.576371 0
M  V30 614 C 64.8063 2.02013 -0.0594163 0
M  V30 615 C 65.1273 1.45101 1.30271 0
M  V30 616 O 64.3973 0.633317 1.8538 0
M  V30 617 H 62.9773 0.746759 -0.0189745 0
M  V30 618 H 65.6393 1.79862 -0.750717 0
M  V30 619 H 64.7353 3.12097 0.014345 0
M  V30 620 N 65.0364 0.313813 1.54444 0
M  V30 621 C 65.9834 -0.55655 2.23989 0
M  V30 622 C 66.9534 -1.11943 1.22711 0
M  V30 623 O 68.1384 -1.16158 1.51367 0
M  V30 624 C 65.2784 -1.71635 2.99392 0
M  V30 625 C 64.3914 -1.18364 4.15468 0
M  V30 626 C 63.5264 -2.30834 4.78424 0
M  V30 627 C 62.5654 -1.74762 5.86622 0
M  V30 628 N 61.7024 -2.80855 6.43479 0
M  V30 629 H 66.5424 0.0430893 2.97969 0
M  V30 630 H 64.0794 0.0330359 1.47063 0
M  V30 631 H 66.0374 -2.39868 3.41349 0
M  V30 632 H 64.6674 -2.28742 2.27765 0
M  V30 633 H 63.7194 -0.393163 3.78363 0
M  V30 634 H 65.0314 -0.733262 4.93381 0
M  V30 635 H 64.1854 -3.0699 5.23299 0
M  V30 636 H 62.9244 -2.79204 3.99871 0
M  V30 637 H 61.9294 -0.970995 5.41158 0
M  V30 638 H 63.1544 -1.2728 6.67066 0
M  V30 639 H 61.1004 -3.28535 5.67804 0
M  V30 640 H 61.0174 -2.40351 7.16776 0
M  V30 641 H 62.2854 -3.5687 6.93011 0
M  V30 642 N 66.5145 -1.57545 0.0417849 0
M  V30 643 C 67.7605 -1.92601 -0.635021 0
M  V30 644 C 68.0935 -0.919627 -1.71045 0
M  V30 645 O 67.3685 0.0557892 -1.9442 0
M  V30 646 C 67.6515 -3.38085 -1.23979 0
M  V30 647 C 67.5045 -4.49467 -0.173057 0
M  V30 648 C 68.8235 -3.83776 -2.15416 0
M  V30 649 H 65.9425 -0.700397 -0.229374 0
M  V30 650 H 68.5845 -1.89728 0.101633 0
M  V30 651 H 66.7345 -3.40664 -1.86762 0
M  V30 652 H 68.4065 -4.59018 0.458312 0
M  V30 653 H 66.6495 -4.30909 0.499996 0
M  V30 654 H 67.3205 -5.48323 -0.636054 0
M  V30 655 H 69.7965 -3.83013 -1.62605 0
M  V30 656 H 68.6725 -4.8624 -2.54679 0
M  V30 657 H 68.9335 -3.19998 -3.05047 0
M  V30 658 N 67.9926 0.231505 -1.5589 0
M  V30 659 C 69.2386 0.95877 -1.78705 0
M  V30 660 C 69.5716 1.8438 -0.609725 0
M  V30 661 O 68.8466 1.90521 0.391426 0
M  V30 662 C 69.1296 1.8062 -3.11526 0
M  V30 663 C 68.9826 0.948328 -4.39689 0
M  V30 664 C 70.3016 2.78585 -3.40703 0
M  V30 665 H 67.4206 0.347129 -0.650131 0
M  V30 666 H 70.0626 0.228259 -1.88624 0
M  V30 667 H 68.2126 2.42902 -3.03201 0
M  V30 668 H 69.8846 0.343016 -4.60023 0
M  V30 669 H 68.1276 0.253314 -4.3306 0
M  V30 670 H 68.7986 1.57543 -5.29041 0
M  V30 671 H 71.2746 2.26439 -3.49091 0
M  V30 672 H 70.1506 3.34988 -4.34826 0
M  V30 673 H 70.4116 3.55825 -2.62375 0
M  V30 674 N 69.4707 1.49531 0.497807 0
M  V30 675 C 70.7477 1.49682 1.25915 0
M  V30 676 C 71.1277 0.226339 2.09883 0
M  V30 677 O 70.4757 -0.791189 2.14365 0
M  V30 678 C 70.6857 2.77755 2.11313 0
M  V30 679 C 72.0337 3.27371 2.70395 0
M  V30 680 O 73.0577 2.78894 2.21578 0
M  V30 681 O 71.9167 4.11808 3.59272 0
M  V30 682 H 69.0107 0.599228 0.56996 0
M  V30 683 H 71.5567 1.61798 0.511816 0
M  V30 684 H 70.3287 3.61713 1.49264 0
M  V30 685 H 69.9517 2.68515 2.93233 0
M  V30 686 N 70.9488 -0.749086 1.3866 0
M  V30 687 C 71.8788 -1.8764 1.38973 0
M  V30 688 C 72.8598 -1.68178 0.255004 0
M  V30 689 O 74.0448 -1.88704 0.458754 0
M  V30 690 C 71.1748 -3.25222 1.21851 0
M  V30 691 C 70.1288 -3.59295 2.32575 0
M  V30 692 C 69.4548 -4.95663 2.00555 0
M  V30 693 C 70.7548 -3.63709 3.7485 0
M  V30 694 H 72.4488 -1.87635 2.3331 0
M  V30 695 H 69.9948 -0.901329 1.12303 0
M  V30 696 H 71.9478 -4.03746 1.20695 0
M  V30 697 H 70.6718 -3.25719 0.239775 0
M  V30 698 H 69.3308 -2.83093 2.32925 0
M  V30 699 H 68.9788 -4.92724 1.01154 0
M  V30 700 H 68.6788 -5.19429 2.74714 0
M  V30 701 H 70.2028 -5.7656 2.01024 0
M  V30 702 H 71.6168 -4.32338 3.76506 0
M  V30 703 H 70.0138 -3.98986 4.48252 0
M  V30 704 H 71.0838 -2.63834 4.06841 0
M  V30 705 N 72.4269 -1.23603 -0.977757 0
M  V30 706 C 73.3569 -1.04401 -2.0886 0
M  V30 707 C 74.3379 0.0399052 -1.70053 0
M  V30 708 O 75.5229 -0.125246 -1.93796 0
M  V30 709 C 72.6529 -0.637269 -3.41403 0
M  V30 710 C 71.6069 -1.66883 -3.94124 0
M  V30 711 C 70.9329 -1.11745 -5.22893 0
M  V30 712 C 72.2329 -3.06247 -4.23096 0
M  V30 713 H 73.9269 -1.97316 -2.25182 0
M  V30 714 H 71.4729 -0.950096 -1.08209 0
M  V30 715 H 73.4259 -0.48998 -4.18542 0
M  V30 716 H 72.1499 0.327557 -3.24953 0
M  V30 717 H 70.8089 -1.80416 -3.19133 0
M  V30 718 H 70.4569 -0.143527 -5.02795 0
M  V30 719 H 70.1569 -1.80672 -5.59134 0
M  V30 720 H 71.6809 -0.982067 -6.02651 0
M  V30 721 H 73.0949 -2.96001 -4.90975 0
M  V30 722 H 71.4919 -3.72436 -4.70544 0
M  V30 723 H 72.5619 -3.55041 -3.30263 0
M  V30 724 N 73.905 1.17692 -1.04816 0
M  V30 725 C 74.868 2.19787 -0.650117 0
M  V30 726 C 75.868 1.58044 0.296427 0
M  V30 727 O 77.058 1.74012 0.0808097 0
M  V30 728 C 74.19 3.40869 0.0456987 0
M  V30 729 H 75.383 2.56516 -1.5537 0
M  V30 730 H 72.936 1.31708 -0.841594 0
M  V30 731 H 73.671 3.09681 0.962726 0
M  V30 732 H 73.456 3.86928 -0.634727 0
M  V30 733 H 74.946 4.16445 0.310432 0
M  V30 734 N 75.3831 0.828654 1.34056 0
M  V30 735 C 76.3151 0.212052 2.28217 0
M  V30 736 C 77.3281 -0.601362 1.51286 0
M  V30 737 O 78.5171 -0.430104 1.73241 0
M  V30 738 C 75.6171 -0.72088 3.31144 0
M  V30 739 C 74.7901 0.0509587 4.3737 0
M  V30 740 C 73.8491 -0.803766 5.20025 0
M  V30 741 O 72.8751 -0.246667 5.68665 0
M  V30 742 N 74.0771 -2.1227 5.40298 0
M  V30 743 H 76.8421 1.02105 2.81771 0
M  V30 744 H 74.4031 0.686153 1.46641 0
M  V30 745 H 76.3951 -1.29742 3.8334 0
M  V30 746 H 74.9651 -1.43061 2.77943 0
M  V30 747 H 74.1851 0.808831 3.85813 0
M  V30 748 H 75.4731 0.582065 5.0546 0
M  V30 749 H 74.8711 -2.59898 5.02464 0
M  V30 750 H 73.4281 -2.64796 5.95589 0
M  V30 751 N 76.8612 -1.46375 0.584142 0
M  V30 752 C 78.1382 -1.956 0.0033388 0
M  V30 753 C 78.5182 -1.52679 -1.45782 0
M  V30 754 O 77.8662 -0.77816 -2.14842 0
M  V30 755 C 78.0762 -3.48551 0.176891 0
M  V30 756 C 79.4242 -4.24576 0.0454609 0
M  V30 757 O 80.4482 -3.56043 0.105801 0
M  V30 758 O 79.3072 -5.46427 -0.0890376 0
M  V30 759 H 76.4012 -0.825547 -0.0490066 0
M  V30 760 H 78.9472 -1.56652 0.65256 0
M  V30 761 H 77.7192 -3.72683 1.1926 0
M  V30 762 H 77.3422 -3.94332 -0.508695 0
M  V30 763 N 78.3393 -0.321999 -1.54275 0
M  V30 764 C 79.3023 0.531975 -2.22941 0
M  V30 765 C 80.3023 1.04478 -1.22234 0
M  V30 766 O 81.4923 0.937452 -1.46825 0
M  V30 767 C 78.6243 1.73874 -2.93224 0
M  V30 768 H 79.8173 -0.0682612 -2.99822 0
M  V30 769 H 77.3703 -0.0730644 -1.56129 0
M  V30 770 H 78.1053 2.37825 -2.20476 0
M  V30 771 H 77.8903 1.37847 -3.6707 0
M  V30 772 H 79.3803 2.34496 -3.45545 0
M  V30 773 N 79.8174 1.5752 -0.0501392 0
M  V30 774 C 81.0944 1.83996 0.663685 0
M  V30 775 C 81.4744 0.938339 1.89099 0
M  V30 776 O 80.8224 -0.00087759 2.285 0
M  V30 777 C 81.0324 3.33702 1.02196 0
M  V30 778 C 82.3804 4.00691 1.40469 0
M  V30 779 O 83.4044 3.38321 1.11433 0
M  V30 780 O 82.2634 5.10658 1.94654 0
M  V30 781 H 79.3574 0.759385 0.32751 0
M  V30 782 H 81.9034 1.69514 -0.0794238 0
M  V30 783 H 80.6754 3.91015 0.149364 0
M  V30 784 H 80.2984 3.53368 1.82255 0
M  V30 785 N 81.2955 -0.223234 1.56011 0
M  V30 786 C 82.5445 -0.945912 1.78144 0
M  V30 787 C 82.8575 -1.85567 0.618396 0
M  V30 788 O 84.0635 -2.61688 0.723318 0
M  V30 789 C 82.5195 -1.73216 3.15475 0
M  V30 790 C 82.1275 -0.868619 4.39499 0
M  V30 791 C 83.8715 -2.44615 3.46935 0
M  V30 792 C 81.7785 -1.65212 5.67855 0
M  V30 793 H 80.7085 -0.356929 0.664167 0
M  V30 794 H 83.3595 -0.199845 1.82409 0
M  V30 795 H 81.7415 -2.52107 3.05382 0
M  V30 796 H 82.9155 -0.120366 4.60643 0
M  V30 797 H 81.2305 -0.26683 4.15544 0
M  V30 798 H 83.8275 -3.03732 4.40058 0
M  V30 799 H 84.1705 -3.17417 2.69355 0
M  V30 800 H 84.7035 -1.72715 3.58349 0
M  V30 801 H 81.4425 -0.967407 6.48322 0
M  V30 802 H 80.9625 -2.37503 5.50774 0
M  V30 803 H 82.6415 -2.21322 6.07968 0
M  V30 804 N 82.7736 -1.49793 -0.48987 0
M  V30 805 C 84.0196 -1.60078 -1.24511 0
M  V30 806 C 84.3526 -0.291608 -1.91998 0
M  V30 807 O 83.6276 0.705647 -1.81248 0
M  V30 808 C 83.9106 -2.76791 -2.30345 0
M  V30 809 C 83.7636 -4.17535 -1.67286 0
M  V30 810 C 85.0826 -2.89111 -3.31817 0
M  V30 811 H 82.2016 -0.582645 -0.451324 0
M  V30 812 H 84.8436 -1.82117 -0.541612 0
M  V30 813 H 82.9936 -2.5813 -2.90346 0
M  V30 814 H 84.6656 -4.4774 -1.11026 0
M  V30 815 H 82.9086 -4.22665 -0.976577 0
M  V30 816 H 83.5796 -4.95094 -2.44103 0
M  V30 817 H 86.0556 -3.06133 -2.81819 0
M  V30 818 H 84.9316 -3.72433 -4.03219 0
M  V30 819 H 85.1926 -1.9893 -3.94815 0
M  V30 820 N 84.2517 0.741722 -1.39055 0
M  V30 821 C 85.4917 1.51385 -1.37338 0
M  V30 822 C 85.8557 1.91972 0.0330513 0
M  V30 823 O 87.0567 2.68229 0.175174 0
M  V30 824 C 85.3277 2.72481 -2.31276 0
M  V30 825 S 86.8867 3.62211 -2.47687 0
M  V30 826 H 83.7047 0.517906 -0.487129 0
M  V30 827 H 86.3067 0.86969 -1.7509 0
M  V30 828 H 85.0107 2.40793 -3.32336 0
M  V30 829 H 84.5417 3.41832 -1.94716 0
M  V30 830 H 86.5567 4.65812 -1.70978 0
M  V30 831 N 85.7298 1.2412 0.971189 0
M  V30 832 C 87.1458 1.00584 1.23916 0
M  V30 833 C 87.3458 -0.287481 1.99439 0
M  V30 834 O 86.4018 -1.00454 2.31658 0
M  V30 835 C 87.7148 2.21864 2.0297 0
M  V30 836 C 89.2628 2.26452 2.16076 0
M  V30 837 C 89.7378 3.47343 2.98524 0
M  V30 838 N 91.2288 3.47639 3.06107 0
M  V30 839 C 91.9638 4.37837 3.70251 0
M  V30 840 N 91.4598 5.38286 4.36142 0
M  V30 841 N 93.2528 4.25558 3.67228 0
M  V30 842 H 85.4038 2.07236 0.465499 0
M  V30 843 H 87.6668 0.909236 0.268315 0
M  V30 844 H 87.3728 3.15771 1.54861 0
M  V30 845 H 87.2468 2.23698 3.03709 0
M  V30 846 H 89.6338 1.33078 2.6339 0
M  V30 847 H 89.7148 2.28645 1.14696 0
M  V30 848 H 89.3588 4.41029 2.51905 0
M  V30 849 H 89.2888 3.42393 4.00093 0
M  V30 850 H 91.7798 2.74966 2.59233 0
M  V30 851 H 92.0928 6.03352 4.82894 0
M  V30 852 H 90.4378 5.42176 4.34822 0
M  V30 853 H 93.6288 3.46322 3.14927 0
M  V30 854 H 93.8018 4.96054 4.16935 0
M  V30 855 N 87.2079 -1.17134 1.05439 0
M  V30 856 C 88.4479 -1.89137 0.77502 0
M  V30 857 C 88.8119 -1.79345 -0.685526 0
M  V30 858 O 90.0129 -2.46188 -1.0791 0
M  V30 859 C 88.2839 -3.35003 1.2453 0
M  V30 860 S 89.8429 -4.24952 1.09367 0
M  V30 861 H 86.6609 -0.652949 0.281387 0
M  V30 862 H 89.2629 -1.4145 1.34953 0
M  V30 863 H 87.9669 -3.39666 2.30338 0
M  V30 864 H 87.4979 -3.87736 0.665166 0
M  V30 865 H 89.5129 -4.96196 0.0193397 0
M  V30 866 N 88.686 -0.835752 -1.33615 0
M  V30 867 C 89.618 -0.224151 -2.28101 0
M  V30 868 C 90.631 0.593331 -1.51603 0
M  V30 869 O 91.82 0.420911 -1.73466 0
M  V30 870 C 88.92 0.703309 -3.31522 0
M  V30 871 C 88.093 -0.0741528 -4.37337 0
M  V30 872 C 87.152 0.776176 -5.20444 0
M  V30 873 O 86.178 0.216506 -5.68788 0
M  V30 874 N 87.38 2.09401 -5.41416 0
M  V30 875 H 90.145 -1.03598 -2.81225 0
M  V30 876 H 87.706 -0.69392 -1.46275 0
M  V30 877 H 89.698 1.27707 -3.84022 0
M  V30 878 H 88.268 1.41585 -2.78698 0
M  V30 879 H 87.488 -0.82928 -3.85378 0
M  V30 880 H 88.776 -0.608863 -5.05144 0
M  V30 881 H 88.174 2.57229 -5.03835 0
M  V30 882 H 86.731 2.61633 -5.96985 0
M  V30 883 N 90.1641 1.46063 -0.591896 0
M  V30 884 C 91.4121 2.01938 -0.0808391 0
M  V30 885 C 91.7331 1.46475 1.28725 0
M  V30 886 O 91.0031 0.652944 1.84698 0
M  V30 887 H 89.5831 0.746516 -0.0268938 0
M  V30 888 H 92.2451 1.79055 -0.769752 0
M  V30 889 H 91.3411 3.12094 -0.0187578 0
M  V30 890 N 91.6422 0.330177 1.54103 0
M  V30 891 C 92.8902 -0.269871 2.0029 0
M  V30 892 C 93.2112 -1.52133 1.21986 0
M  V30 893 O 92.4812 -1.93212 0.323438 0
M  V30 894 H 91.0612 -0.10271 0.739905 0
M  V30 895 H 93.7232 0.448249 1.89675 0
M  V30 896 H 92.8192 -0.52166 3.07709 0
M  V30 897 N 93.1203 -1.57491 0.0584922 0
M  V30 898 C 94.0683 -2.13148 -0.931168 0
M  V30 899 C 95.0623 -1.06507 -1.31729 0
M  V30 900 O 96.2683 -1.24906 -1.29609 0
M  V30 901 H 92.6433 -0.68137 -0.31818 0
M  V30 902 H 94.6143 -2.95187 -0.436707 0
M  V30 903 C 93.3633 -2.69732 -2.19408 0
M  V30 904 H 92.6863 -3.51454 -1.90578 0
M  V30 905 H 94.1263 -3.12287 -2.86798 0
M  V30 906 C 92.5853 -1.63855 -2.94369 0
M  V30 907 O 93.1153 -1.05565 -3.87581 0
M  V30 908 N 91.3213 -1.35202 -2.57233 0
M  V30 909 H 90.8683 -1.82791 -1.81508 0
M  V30 910 H 90.8263 -0.645922 -3.07693 0
M  V30 911 N 94.5984 0.214957 -1.56127 0
M  V30 912 C 95.5464 1.28601 -1.93816 0
M  V30 913 C 96.5404 1.48175 -0.821016 0
M  V30 914 O 97.7464 1.49271 -1.0059 0
M  V30 915 H 94.1214 0.431302 -0.616022 0
M  V30 916 H 96.0924 0.940991 -2.83175 0
M  V30 917 C 94.8414 2.62779 -2.27689 0
M  V30 918 H 94.1644 2.48527 -3.13168 0
M  V30 919 H 95.6044 3.36517 -2.57939 0
M  V30 920 C 94.0634 3.18285 -1.10436 0
M  V30 921 O 94.5934 4.00002 -0.368945 0
M  V30 922 N 92.7994 2.7675 -0.886433 0
M  V30 923 H 92.3464 2.10404 -1.48619 0
M  V30 924 H 92.3044 3.14229 -0.103656 0
M  V30 925 N 96.0765 1.50051 0.48192 0
M  V30 926 C 97.0395 1.67584 1.5636 0
M  V30 927 C 98.0395 0.546894 1.51214 0
M  V30 928 O 99.2295 0.813725 1.54026 0
M  V30 929 C 96.3615 1.691 2.96003 0
M  V30 930 H 97.5545 2.64078 1.42136 0
M  V30 931 H 95.1075 1.39369 0.707533 0
M  V30 932 H 95.8425 0.742589 3.15684 0
M  V30 933 H 95.6275 2.51105 3.01146 0
M  V30 934 H 97.1175 1.84656 3.74556 0
M  V30 935 N 97.5546 -0.734337 1.39446 0
M  V30 936 C 98.8026 -1.49096 1.36436 0
M  V30 937 C 99.1236 -1.94961 -0.0388255 0
M  V30 938 O 98.3936 -1.69033 -0.990191 0
M  V30 939 H 96.9736 -0.5531 0.502085 0
M  V30 940 H 99.6356 -0.871725 1.74319 0
M  V30 941 H 98.7316 -2.37276 2.02747 0
M  V30 942 N 99.0327 -1.24633 -0.964593 0
M  V30 943 C 99.9827 -1.00841 -2.04487 0
M  V30 944 C 100.967 0.0512468 -1.60818 0
M  V30 945 O 102.159 -0.162865 -1.76249 0
M  V30 946 C 99.2877 -0.618474 -3.37683 0
M  V30 947 C 98.3737 -1.71437 -3.87905 0
M  V30 948 N 98.7647 -2.9477 -4.11029 0
M  V30 949 C 97.0627 -1.5926 -4.16596 0
M  V30 950 C 97.7637 -3.65834 -4.52261 0
M  V30 951 N 96.7397 -2.9341 -4.57615 0
M  V30 952 H 100.542 -1.94487 -2.20345 0
M  V30 953 H 98.0557 -1.14805 -1.14863 0
M  V30 954 H 100.053 -0.429247 -4.14684 0
M  V30 955 H 98.7127 0.310766 -3.23209 0
M  V30 956 H 99.7237 -3.30917 -3.9839 0
M  V30 957 H 96.4007 -0.731606 -4.1104 0
M  V30 958 H 97.7907 -4.71646 -4.78539 0
M  V30 959 N 100.511 1.16574 -1.06058 0
M  V30 960 C 101.739 1.90952 -0.796552 0
M  V30 961 C 102.154 1.77302 0.648808 0
M  V30 962 O 101.511 1.11605 1.44397 0
M  V30 963 C 101.562 3.41736 -1.17894 0
M  V30 964 O 101.283 3.54975 -2.56758 0
M  V30 965 C 102.784 4.33169 -0.942308 0
M  V30 966 H 100.004 0.605594 -0.288959 0
M  V30 967 H 102.548 1.47777 -1.41358 0
M  V30 968 H 100.703 3.82623 -0.606491 0
M  V30 969 H 101.117 4.4846 -2.72 0
M  V30 970 H 102.591 5.37439 -1.25952 0
M  V30 971 H 103.068 4.3903 0.122078 0
M  V30 972 H 103.674 3.98007 -1.49902 0
M  V30 973 N 101.989 0.842826 1.3317 0
M  V30 974 C 103.235 0.441099 1.97945 0
M  V30 975 C 103.568 -0.998024 1.66593 0
M  V30 976 O 102.843 -1.69839 0.947898 0
M  V30 977 C 103.126 0.666841 3.53872 0
M  V30 978 C 102.979 2.15352 3.94897 0
M  V30 979 C 104.298 0.115544 4.39948 0
M  V30 980 H 101.417 0.161739 0.719034 0
M  V30 981 H 104.059 1.05907 1.57746 0
M  V30 982 H 102.209 0.140828 3.88245 0
M  V30 983 H 103.881 2.7447 3.70761 0
M  V30 984 H 102.124 2.63653 3.44484 0
M  V30 985 H 102.795 2.26221 5.03516 0
M  V30 986 H 105.271 0.565213 4.12243 0
M  V30 987 H 104.147 0.303152 5.48062 0
M  V30 988 H 104.408 -0.980935 4.3108 0
M  V30 989 N 103.467 -1.45747 0.599634 0
M  V30 990 C 104.713 -2.02592 0.0918643 0
M  V30 991 C 105.046 -1.46806 -1.27128 0
M  V30 992 O 104.321 -0.639658 -1.83681 0
M  V30 993 C 104.604 -3.60073 0.0443398 0
M  V30 994 C 104.457 -4.26208 1.43759 0
M  V30 995 C 105.776 -4.35309 -0.647608 0
M  V30 996 H 102.895 -0.736175 0.034857 0
M  V30 997 H 105.537 -1.73694 0.770081 0
M  V30 998 H 103.687 -3.84823 -0.533224 0
M  V30 999 H 105.359 -4.12668 2.06162 0
M  V30 1000 H 103.602 -3.84916 2.00056 0
M  V30 1001 H 104.273 -5.35069 1.35665 0
M  V30 1002 H 106.749 -4.15805 -0.156776 0
M  V30 1003 H 105.625 -5.45038 -0.649942 0
M  V30 1004 H 105.886 -4.07598 -1.71219 0
M  V30 1005 N 104.945 -0.338344 -1.53925 0
M  V30 1006 C 106.191 0.260143 -2.01125 0
M  V30 1007 C 106.524 1.50617 -1.22589 0
M  V30 1008 O 105.799 1.91979 -0.312113 0
M  V30 1009 C 106.082 0.579499 -3.55407 0
M  V30 1010 C 105.935 -0.678264 -4.44657 0
M  V30 1011 C 107.254 1.39122 -4.17532 0
M  V30 1012 H 104.373 0.0930772 -0.731099 0
M  V30 1013 H 107.015 -0.457852 -1.84401 0
M  V30 1014 H 105.165 1.19118 -3.69788 0
M  V30 1015 H 106.837 -1.31631 -4.42121 0
M  V30 1016 H 105.08 -1.3042 -4.13731 0
M  V30 1017 H 105.751 -0.410143 -5.50474 0
M  V30 1018 H 108.227 0.874035 -4.06817 0
M  V30 1019 H 107.103 1.58342 -5.25565 0
M  V30 1020 H 107.364 2.39178 -3.71815 0
M  V30 1021 N 106.423 1.57458 -0.0668435 0
M  V30 1022 C 107.7 1.8469 0.644132 0
M  V30 1023 C 108.08 0.958343 1.88093 0
M  V30 1024 O 107.428 0.0233579 2.28488 0
M  V30 1025 C 107.638 3.34767 0.986509 0
M  V30 1026 C 108.986 4.02159 1.36212 0
M  V30 1027 O 110.01 3.39484 1.07839 0
M  V30 1028 O 108.869 5.12694 1.89227 0
M  V30 1029 H 105.963 0.762816 0.319437 0
M  V30 1030 H 108.509 1.6942 -0.0973986 0
M  V30 1031 H 107.281 3.91151 0.107883 0
M  V30 1032 H 106.904 3.55281 1.78497 0
M  V30 1033 N 107.901 -0.206675 1.56239 0
M  V30 1034 C 109.126 -0.949474 1.8439 0
M  V30 1035 C 109.551 -1.76549 0.649016 0
M  V30 1036 O 108.909 -1.76782 -0.402231 0
M  V30 1037 C 108.957 -1.83078 3.10668 0
M  V30 1038 O 108.061 -2.9281 2.90407 0
M  V30 1039 H 107.402 -0.268033 0.607499 0
M  V30 1040 H 109.932 -0.215488 2.03462 0
M  V30 1041 H 109.942 -2.2377 3.41161 0
M  V30 1042 H 108.617 -1.23112 3.97261 0
M  V30 1043 H 107.194 -2.55956 2.71184 0
M  V30 1044 N 109.379 -1.50304 -0.473955 0
M  V30 1045 C 110.625 -1.61389 -1.22806 0
M  V30 1046 C 110.958 -0.311955 -1.91678 0
M  V30 1047 O 110.233 0.686384 -1.81986 0
M  V30 1048 C 110.516 -2.79219 -2.27396 0
M  V30 1049 C 110.369 -4.19286 -1.62848 0
M  V30 1050 C 111.688 -2.92614 -3.28732 0
M  V30 1051 H 108.807 -0.587399 -0.445119 0
M  V30 1052 H 111.449 -1.82681 -0.522265 0
M  V30 1053 H 109.599 -2.61195 -2.87592 0
M  V30 1054 H 111.271 -4.48892 -1.06271 0
M  V30 1055 H 109.514 -4.23677 -0.931693 0
M  V30 1056 H 110.185 -4.97655 -2.38838 0
M  V30 1057 H 112.661 -3.09105 -2.78556 0
M  V30 1058 H 111.537 -3.76688 -3.99246 0
M  V30 1059 H 111.798 -2.03107 -3.92683 0
M  V30 1060 N 110.857 0.726932 -1.39834 0
M  V30 1061 C 111.767 1.87131 -1.41489 0
M  V30 1062 C 112.783 1.71239 -0.308757 0
M  V30 1063 O 113.959 1.93701 -0.551529 0
M  V30 1064 C 111.024 3.22811 -1.26468 0
M  V30 1065 C 110.085 3.51039 -2.47124 0
M  V30 1066 C 109.318 4.80245 -2.3281 0
M  V30 1067 O 109.541 5.54537 -1.33585 0
M  V30 1068 O 108.475 5.08554 -3.21957 0
M  V30 1069 H 112.301 1.8869 -2.3797 0
M  V30 1070 H 109.886 0.875837 -1.21035 0
M  V30 1071 H 111.768 4.03877 -1.20255 0
M  V30 1072 H 110.443 3.22005 -0.330862 0
M  V30 1073 H 109.35 2.70027 -2.58914 0
M  V30 1074 H 110.683 3.56632 -3.39227 0
M  V30 1075 N 112.336 1.25143 0.95797 0
M  V30 1076 C 113.566 1.12261 1.73439 0
M  V30 1077 C 113.974 -0.326715 1.86358 0
M  V30 1078 O 113.317 -1.2367 1.35836 0
M  V30 1079 C 113.379 1.69966 3.16784 0
M  V30 1080 C 113.043 3.18936 3.27305 0
M  V30 1081 C 114.04 4.15968 3.11877 0
M  V30 1082 C 111.725 3.59083 3.51234 0
M  V30 1083 C 113.719 5.51126 3.20217 0
M  V30 1084 C 111.406 4.9438 3.5921 0
M  V30 1085 C 112.404 5.90211 3.43716 0
M  V30 1086 O 112.092 7.23046 3.51368 0
M  V30 1087 H 111.824 0.392476 0.550399 0
M  V30 1088 H 114.378 1.65927 1.21068 0
M  V30 1089 H 112.608 1.10744 3.70503 0
M  V30 1090 H 114.297 1.52232 3.76272 0
M  V30 1091 H 115.063 3.86292 2.93264 0
M  V30 1092 H 110.942 2.84989 3.62356 0
M  V30 1093 H 114.486 6.25905 3.0804 0
M  V30 1094 H 110.383 5.23723 3.77339 0
M  V30 1095 H 111.151 7.31097 3.6802 0
M  V30 1096 N 113.814 -1.1601 1.06675 0
M  V30 1097 C 115.091 -1.82679 0.699114 0
M  V30 1098 C 115.471 -1.94559 -0.819137 0
M  V30 1099 O 114.819 -1.49169 -1.73092 0
M  V30 1100 C 115.029 -3.19445 1.40555 0
M  V30 1101 C 116.377 -3.95171 1.55323 0
M  V30 1102 O 117.401 -3.28976 1.36577 0
M  V30 1103 O 116.26 -5.13833 1.86112 0
M  V30 1104 H 113.354 -0.788954 0.247951 0
M  V30 1105 H 115.9 -1.23179 1.16726 0
M  V30 1106 H 114.672 -3.05856 2.44065 0
M  V30 1107 H 114.295 -3.86625 0.927733 0
M  V30 1108 N 115.292 -0.849877 -1.32721 0
M  V30 1109 C 116.539 -0.450923 -1.97416 0
M  V30 1110 C 116.867 0.992376 -1.67279 0
M  V30 1111 O 116.122 1.71048 -0.950845 0
M  V30 1112 C 116.421 -0.631272 -3.51781 0
M  V30 1113 C 116.087 -2.04432 -4.01894 0
M  V30 1114 C 114.749 -2.4308 -4.1529 0
M  V30 1115 C 117.101 -2.96679 -4.28522 0
M  V30 1116 C 114.429 -3.73257 -4.52654 0
M  V30 1117 C 116.781 -4.26349 -4.67343 0
M  V30 1118 C 115.445 -4.64939 -4.78945 0
M  V30 1119 H 114.715 -0.165004 -0.722395 0
M  V30 1120 H 117.362 -1.07901 -1.58207 0
M  V30 1121 H 115.667 0.0800767 -3.91718 0
M  V30 1122 H 117.364 -0.302709 -3.99856 0
M  V30 1123 H 113.954 -1.73419 -3.91949 0
M  V30 1124 H 118.138 -2.68054 -4.17685 0
M  V30 1125 H 113.394 -4.02946 -4.59831 0
M  V30 1126 H 117.568 -4.97895 -4.86902 0
M  V30 1127 H 115.195 -5.65855 -5.07654 0
M  V30 1128 N 116.77 1.45427 -0.607355 0
M  V30 1129 C 117.72 2.27612 0.133038 0
M  V30 1130 C 118.704 1.37307 0.838785 0
M  V30 1131 O 119.896 1.61299 0.728813 0
M  V30 1132 C 117.025 3.24173 1.12991 0
M  V30 1133 C 116.111 4.21965 0.425011 0
M  V30 1134 N 116.502 5.02982 -0.533217 0
M  V30 1135 C 114.8 4.40899 0.672593 0
M  V30 1136 C 115.501 5.73931 -0.947518 0
M  V30 1137 N 114.477 5.42819 -0.291321 0
M  V30 1138 H 118.279 2.87649 -0.602935 0
M  V30 1139 H 115.793 1.56576 -0.431006 0
M  V30 1140 H 117.79 3.81783 1.67473 0
M  V30 1141 H 116.45 2.65696 1.86644 0
M  V30 1142 H 117.461 5.09843 -0.90995 0
M  V30 1143 H 114.138 3.93547 1.39382 0
M  V30 1144 H 115.528 6.49037 -1.73782 0
M  V30 1145 N 118.248 0.346503 1.53744 0
M  V30 1146 C 119.178 -0.501193 2.28058 0
M  V30 1147 C 120.159 -1.10014 1.29734 0
M  V30 1148 O 121.344 -1.12097 1.58581 0
M  V30 1149 C 118.474 -1.65078 3.05559 0
M  V30 1150 C 117.428 -1.18003 4.11411 0
M  V30 1151 C 116.754 -2.41837 4.76884 0
M  V30 1152 C 118.054 -0.278394 5.21558 0
M  V30 1153 H 119.748 0.11875 2.99164 0
M  V30 1154 H 117.294 0.0585531 1.43881 0
M  V30 1155 H 119.247 -2.25028 3.56287 0
M  V30 1156 H 117.971 -2.29767 2.32109 0
M  V30 1157 H 116.63 -0.603331 3.61601 0
M  V30 1158 H 116.278 -3.0494 4.00026 0
M  V30 1159 H 115.978 -2.1102 5.48402 0
M  V30 1160 H 117.502 -3.02508 5.30397 0
M  V30 1161 H 118.916 -0.784823 5.67903 0
M  V30 1162 H 117.313 -0.0619707 6.00068 0
M  V30 1163 H 118.383 0.684677 4.80042 0
M  V30 1164 N 119.726 -1.57421 0.075193 0
M  V30 1165 C 120.656 -2.15942 -0.888324 0
M  V30 1166 C 121.637 -1.08737 -1.30806 0
M  V30 1167 O 122.822 -1.36787 -1.37851 0
M  V30 1168 C 119.952 -2.72379 -2.1547 0
M  V30 1169 C 118.906 -3.8478 -1.87425 0
M  V30 1170 C 118.232 -4.27834 -3.20721 0
M  V30 1171 C 119.532 -5.08869 -1.17684 0
M  V30 1172 H 121.226 -2.96705 -0.400799 0
M  V30 1173 H 118.772 -1.42723 -0.191342 0
M  V30 1174 H 120.725 -3.11965 -2.83295 0
M  V30 1175 H 119.449 -1.88841 -2.6647 0
M  V30 1176 H 118.108 -3.45703 -1.22004 0
M  V30 1177 H 117.756 -3.41214 -3.6957 0
M  V30 1178 H 117.456 -5.03605 -3.02746 0
M  V30 1179 H 118.98 -4.70039 -3.89738 0
M  V30 1180 H 120.394 -5.4575 -1.75584 0
M  V30 1181 H 118.791 -5.8994 -1.09956 0
M  V30 1182 H 119.861 -4.84648 -0.156453 0
M  V30 1183 N 121.204 0.198386 -1.56346 0
M  V30 1184 C 122.615 0.763358 -1.70381 0
M  V30 1185 C 122.966 1.83995 -0.681203 0
M  V30 1186 O 122.091 2.15785 0.16305 0
M  V30 1187 C 122.686 1.39143 -3.08909 0
M  V30 1188 C 121.245 1.90352 -3.2472 0
M  V30 1189 C 120.392 0.772233 -2.6633 0
M  V30 1190 H 123.343 -0.0266377 -1.58678 0
M  V30 1191 H 123.364 2.26076 -3.06055 0
M  V30 1192 H 122.876 0.607638 -3.83314 0
M  V30 1193 H 120.977 2.71461 -2.55225 0
M  V30 1194 H 121.09 2.06757 -4.3219 0
M  V30 1195 H 119.454 1.18566 -2.2542 0
M  V30 1196 H 120.237 0.00073556 -3.433 0
M  V30 1197 N 122.682 1.50554 0.465978 0
M  V30 1198 C 123.907 1.65838 1.24549 0
M  V30 1199 C 124.332 0.343486 1.84937 0
M  V30 1200 O 123.69 -0.69324 1.67523 0
M  V30 1201 C 123.738 2.75533 2.32624 0
M  V30 1202 O 122.842 2.37142 3.37398 0
M  V30 1203 H 122.183 0.553893 0.366194 0
M  V30 1204 H 124.713 1.96959 0.553927 0
M  V30 1205 H 124.723 2.98763 2.77857 0
M  V30 1206 H 123.398 3.70962 1.88043 0
M  V30 1207 H 121.975 2.24377 2.97841 0
M  V30 1208 N 124.16 -0.719506 1.40217 0
M  V30 1209 C 125.408 -1.47641 1.3801 0
M  V30 1210 C 125.729 -1.94992 -0.018145 0
M  V30 1211 O 124.999 -1.70073 -0.972207 0
M  V30 1212 H 123.579 -0.547744 0.507923 0
M  V30 1213 H 126.241 -0.853187 1.75233 0
M  V30 1214 H 125.337 -2.35112 2.05253 0
M  V30 1215 N 125.638 -1.25649 -0.95132 0
M  V30 1216 C 126.887 -1.09988 -1.69073 0
M  V30 1217 C 127.2 0.358355 -1.92289 0
M  V30 1218 O 128.406 0.635466 -2.63958 0
M  V30 1219 C 126.862 -1.92012 -3.044 0
M  V30 1220 C 126.47 -3.42347 -2.88968 0
M  V30 1221 C 128.214 -1.8493 -3.82101 0
M  V30 1222 C 126.121 -4.16655 -4.19705 0
M  V30 1223 H 125.051 -0.407993 -0.63408 0
M  V30 1224 H 127.702 -1.49873 -1.05879 0
M  V30 1225 H 126.084 -1.44952 -3.68517 0
M  V30 1226 H 127.258 -3.97104 -2.33762 0
M  V30 1227 H 125.573 -3.50557 -2.24719 0
M  V30 1228 H 128.17 -2.37739 -4.78941 0
M  V30 1229 H 128.513 -0.817883 -4.08187 0
M  V30 1230 H 129.046 -2.29758 -3.2474 0
M  V30 1231 H 125.785 -5.20224 -3.98807 0
M  V30 1232 H 125.305 -3.66681 -4.74663 0
M  V30 1233 H 126.984 -4.24551 -4.88227 0
M  V30 1234 N 127.117 1.15442 -1.07289 0
M  V30 1235 C 128.366 1.85557 -0.790669 0
M  V30 1236 C 128.679 1.83186 0.685739 0
M  V30 1237 O 129.885 2.48977 1.0827 0
M  V30 1238 C 128.341 3.33038 -1.36433 0
M  V30 1239 C 127.949 3.43856 -2.8717 0
M  V30 1240 C 129.693 4.0834 -1.1601 0
M  V30 1241 C 127.6 4.85482 -3.3773 0
M  V30 1242 H 126.53 0.695122 -0.292098 0
M  V30 1243 H 129.181 1.30219 -1.29287 0
M  V30 1244 H 127.563 3.88043 -0.789864 0
M  V30 1245 H 128.737 2.98961 -3.50655 0
M  V30 1246 H 127.052 2.81998 -3.06376 0
M  V30 1247 H 129.649 5.12859 -1.51262 0
M  V30 1248 H 129.992 4.16182 -0.0991007 0
M  V30 1249 H 130.525 3.59603 -1.70089 0
M  V30 1250 H 127.264 4.82823 -4.43353 0
M  V30 1251 H 126.784 5.30961 -2.78999 0
M  V30 1252 H 128.463 5.54335 -3.33648 0
M  V30 1253 N 128.595 0.856903 1.32268 0
M  V30 1254 C 129.543 0.291987 2.3076 0
M  V30 1255 C 130.537 -0.585857 1.58947 0
M  V30 1256 O 131.743 -0.47341 1.73663 0
M  V30 1257 H 128.118 0.075721 0.748178 0
M  V30 1258 H 130.089 1.13687 2.75895 0
M  V30 1259 C 128.838 -0.502869 3.44044 0
M  V30 1260 H 128.161 0.163328 3.99466 0
M  V30 1261 H 129.601 -0.863691 4.1511 0
M  V30 1262 C 128.06 -1.68898 2.91505 0
M  V30 1263 O 128.59 -2.78811 2.89184 0
M  V30 1264 N 126.796 -1.51679 2.47875 0
M  V30 1265 H 126.343 -0.622666 2.49961 0
M  V30 1266 H 126.301 -2.31184 2.13076 0
M  V30 1267 N 130.073 -1.45103 0.615059 0
M  V30 1268 C 131.484 -1.85654 0.197383 0
M  V30 1269 C 131.835 -1.51433 -1.24749 0
M  V30 1270 O 130.96 -0.944608 -1.94695 0
M  V30 1271 C 131.555 -3.36972 0.351448 0
M  V30 1272 C 130.114 -3.76398 -0.011593 0
M  V30 1273 C 129.261 -2.69024 0.672394 0
M  V30 1274 H 132.212 -1.35797 0.821263 0
M  V30 1275 H 132.233 -3.78239 -0.414227 0
M  V30 1276 H 131.745 -3.61847 1.40314 0
M  V30 1277 H 129.846 -3.5714 -1.06217 0
M  V30 1278 H 129.959 -4.77532 0.387265 0
M  V30 1279 H 128.323 -2.54465 0.109284 0
M  V30 1280 H 129.106 -2.96735 1.72636 0
M  V30 1281 N 131.551 -0.354651 -1.53558 0
M  V30 1282 C 132.499 0.512195 -2.26891 0
M  V30 1283 C 133.493 1.09263 -1.29452 0
M  V30 1284 O 134.699 1.03709 -1.47121 0
M  V30 1285 H 131.074 0.183878 -0.729173 0
M  V30 1286 H 133.045 -0.128202 -2.98124 0
M  V30 1287 C 131.794 1.64563 -3.06291 0
M  V30 1288 H 131.117 1.20829 -3.81104 0
M  V30 1289 H 132.557 2.22711 -3.60799 0
M  V30 1290 C 131.016 2.58158 -2.16462 0
M  V30 1291 O 131.546 3.60695 -1.76811 0
M  V30 1292 N 129.752 2.27096 -1.81317 0
M  V30 1293 H 129.299 1.43751 -2.1376 0
M  V30 1294 H 129.257 2.89975 -1.21498 0
M  V30 1295 N 133.029 1.57378 -0.0835403 0
M  V30 1296 C 134.275 1.94217 0.583733 0
M  V30 1297 C 134.608 0.964653 1.68547 0
M  V30 1298 O 133.883 -0.00422258 1.945 0
M  V30 1299 C 134.166 3.41253 1.14972 0
M  V30 1300 C 134.019 4.49768 0.0538277 0
M  V30 1301 C 135.338 3.89352 2.05166 0
M  V30 1302 H 132.457 0.706233 0.210724 0
M  V30 1303 H 135.099 1.89392 -0.1519 0
M  V30 1304 H 133.249 3.45496 1.77665 0
M  V30 1305 H 134.921 4.57641 -0.579851 0
M  V30 1306 H 133.164 4.29432 -0.614068 0
M  V30 1307 H 133.835 5.49817 0.490452 0
M  V30 1308 H 136.311 3.87189 1.52393 0
M  V30 1309 H 135.187 4.92822 2.41698 0
M  V30 1310 H 135.448 3.27973 2.96456 0
M  V30 1311 N 134.507 -0.190092 1.56449 0
M  V30 1312 C 135.735 -0.925772 1.85033 0
M  V30 1313 C 136.15 -1.76638 0.666658 0
M  V30 1314 O 135.507 -1.78822 -0.364565 0
M  V30 1315 C 135.558 -1.81786 3.12468 0
M  V30 1316 O 135.279 -1.01118 4.26271 0
M  V30 1317 C 136.78 -2.6648 3.54265 0
M  V30 1318 H 134 -0.269872 0.614337 0
M  V30 1319 H 136.544 -0.195837 2.0356 0
M  V30 1320 H 134.699 -2.50136 2.95822 0
M  V30 1321 H 135.113 -1.61956 4.98869 0
M  V30 1322 H 136.587 -3.24722 4.46385 0
M  V30 1323 H 137.064 -3.40434 2.77491 0
M  V30 1324 H 137.67 -2.03493 3.73458 0
M  V30 1325 N 135.985 -1.50799 -0.457987 0
M  V30 1326 C 136.948 -1.7005 -1.53674 0
M  V30 1327 C 137.948 -0.570881 -1.50325 0
M  V30 1328 O 139.138 -0.838126 -1.52712 0
M  V30 1329 C 136.27 -1.73788 -2.93276 0
M  V30 1330 H 137.463 -2.66306 -1.37917 0
M  V30 1331 H 135.016 -1.40477 -0.685271 0
M  V30 1332 H 135.751 -0.792717 -3.14462 0
M  V30 1333 H 135.536 -2.55864 -2.97113 0
M  V30 1334 H 137.026 -1.90591 -3.71571 0
M  V30 1335 N 137.463 0.71206 -1.40597 0
M  V30 1336 C 138.71 1.47197 -1.39065 0
M  V30 1337 C 139.038 1.94499 0.00583891 0
M  V30 1338 O 138.293 1.68752 0.99102 0
M  V30 1339 C 138.592 2.71039 -2.32965 0
M  V30 1340 C 138.258 2.42484 -3.80148 0
M  V30 1341 C 136.92 2.34406 -4.20247 0
M  V30 1342 C 139.272 2.18598 -4.73143 0
M  V30 1343 C 136.6 2.00516 -5.51371 0
M  V30 1344 C 138.952 1.8622 -6.0457 0
M  V30 1345 C 137.616 1.76626 -6.43708 0
M  V30 1346 H 136.886 0.538634 -0.508876 0
M  V30 1347 H 139.533 0.815325 -1.73276 0
M  V30 1348 H 137.838 3.41558 -1.91951 0
M  V30 1349 H 139.535 3.29138 -2.29061 0
M  V30 1350 H 136.125 2.49659 -3.4838 0
M  V30 1351 H 140.309 2.23793 -4.42979 0
M  V30 1352 H 135.565 1.91628 -5.80593 0
M  V30 1353 H 139.739 1.66752 -6.76141 0
M  V30 1354 H 137.366 1.50133 -7.45228 0
M  V30 1355 N 138.941 1.26152 0.944643 0
M  V30 1356 C 140.19 1.10883 1.68487 0
M  V30 1357 C 140.503 -0.348153 1.92477 0
M  V30 1358 O 141.709 -0.621459 2.64292 0
M  V30 1359 C 140.165 1.93624 3.03377 0
M  V30 1360 C 139.773 3.43875 2.87148 0
M  V30 1361 C 141.517 1.86954 3.81115 0
M  V30 1362 C 139.424 4.18875 4.1749 0
M  V30 1363 H 138.354 0.41135 0.631907 0
M  V30 1364 H 141.005 1.50433 1.05082 0
M  V30 1365 H 139.387 1.46904 3.67743 0
M  V30 1366 H 140.561 3.98338 2.31653 0
M  V30 1367 H 138.876 3.51744 2.22856 0
M  V30 1368 H 141.473 2.40275 4.77673 0
M  V30 1369 H 141.816 0.839518 4.07747 0
M  V30 1370 H 142.349 2.31477 3.23517 0
M  V30 1371 H 139.088 5.22332 3.96043 0
M  V30 1372 H 138.608 3.69193 4.72712 0
M  V30 1373 H 140.287 4.27134 4.85968 0
M  V30 1374 N 140.419 -1.14872 1.07899 0
M  V30 1375 C 141.667 -1.85422 0.803941 0
M  V30 1376 C 141.988 -1.83051 -0.67211 0
M  V30 1377 O 141.258 -1.27532 -1.48703 0
M  V30 1378 H 139.838 -0.686537 0.294408 0
M  V30 1379 H 142.5 -1.39226 1.3639 0
M  V30 1380 H 141.596 -2.90399 1.14346 0
M  V30 1381 N 141.898 -0.863906 -1.31812 0
M  V30 1382 C 142.846 -0.30422 -2.30602 0
M  V30 1383 C 143.84 0.577419 -1.59255 0
M  V30 1384 O 145.046 0.464194 -1.73912 0
M  V30 1385 H 141.421 -0.0796877 -0.747766 0
M  V30 1386 H 143.392 -1.15148 -2.75288 0
M  V30 1387 C 142.141 0.484617 -3.44306 0
M  V30 1388 H 141.464 -0.18451 -3.99374 0
M  V30 1389 H 142.904 0.841664 -4.15562 0
M  V30 1390 C 141.363 1.6735 -2.92396 0
M  V30 1391 O 141.893 2.77273 -2.90659 0
M  V30 1392 N 140.099 1.50362 -2.48676 0
M  V30 1393 H 139.646 0.609402 -2.50288 0
M  V30 1394 H 139.604 2.30051 -2.14299 0
M  V30 1395 N 143.376 1.44774 -0.622745 0
M  V30 1396 C 144.624 2.01721 -0.123655 0
M  V30 1397 C 144.945 1.49172 1.25589 0
M  V30 1398 O 144.215 0.691974 1.83272 0
M  V30 1399 H 142.795 0.745777 -0.0427225 0
M  V30 1400 H 145.457 1.77382 -0.807559 0
M  V30 1401 H 144.553 3.11984 -0.0849534 0
M  V30 1402 N 144.854 0.36279 1.53368 0
M  V30 1403 C 146.1 -0.228113 2.01513 0
M  V30 1404 C 146.433 -1.48648 1.2497 0
M  V30 1405 O 145.708 -1.91459 0.342616 0
M  V30 1406 C 145.991 -0.522884 3.56284 0
M  V30 1407 C 145.844 0.74892 4.43521 0
M  V30 1408 C 147.163 -1.32461 4.19693 0
M  V30 1409 H 144.282 -0.0814343 0.732487 0
M  V30 1410 H 146.924 0.48713 1.83649 0
M  V30 1411 H 145.074 -1.1322 3.71636 0
M  V30 1412 H 146.746 1.38648 4.39971 0
M  V30 1413 H 144.989 1.36986 4.11603 0
M  V30 1414 H 145.66 0.497667 5.49752 0
M  V30 1415 H 148.136 -0.809203 4.08156 0
M  V30 1416 H 147.012 -1.49961 5.28018 0
M  V30 1417 H 147.273 -2.33232 3.75573 0
M  V30 1418 N 146.332 -1.57332 0.0918853 0
M  V30 1419 C 147.578 -1.94524 -0.573425 0
M  V30 1420 C 147.911 -0.973578 -1.68033 0
M  V30 1421 O 147.186 -0.00609226 -1.94499 0
M  V30 1422 C 147.469 -3.41858 -1.13161 0
M  V30 1423 C 147.322 -4.4979 -0.0299747 0
M  V30 1424 C 148.641 -3.90435 -2.03098 0
M  V30 1425 H 145.76 -0.70734 -0.206975 0
M  V30 1426 H 148.402 -1.89309 0.161942 0
M  V30 1427 H 146.552 -3.46433 -1.7583 0
M  V30 1428 H 148.224 -4.57327 0.604112 0
M  V30 1429 H 146.467 -4.291 0.636833 0
M  V30 1430 H 147.138 -5.50069 -0.461287 0
M  V30 1431 H 149.614 -3.87992 -1.50338 0
M  V30 1432 H 148.49 -4.94097 -2.39081 0
M  V30 1433 H 148.751 -3.29541 -2.94712 0
M  V30 1434 N 147.81 0.181792 -1.56548 0
M  V30 1435 C 149.059 0.898348 -1.8059 0
M  V30 1436 C 149.372 1.83862 -0.667379 0
M  V30 1437 O 150.578 2.59678 -0.792446 0
M  V30 1438 C 149.034 1.64791 -3.19956 0
M  V30 1439 C 148.642 0.751789 -4.41647 0
M  V30 1440 C 150.386 2.35331 -3.53298 0
M  V30 1441 C 148.293 1.50098 -5.72035 0
M  V30 1442 H 147.223 0.339194 -0.673397 0
M  V30 1443 H 149.874 0.151413 -1.82874 0
M  V30 1444 H 148.256 2.43921 -3.11959 0
M  V30 1445 H 149.43 -0.0018076 -4.608 0
M  V30 1446 H 147.745 0.156562 -4.16106 0
M  V30 1447 H 150.342 2.91958 -4.47956 0
M  V30 1448 H 150.685 3.10164 -2.77676 0
M  V30 1449 H 151.218 1.63154 -3.62803 0
M  V30 1450 H 147.957 0.795175 -6.50659 0
M  V30 1451 H 147.477 2.22817 -5.56878 0
M  V30 1452 H 149.156 2.05125 -6.13622 0
M  V30 1453 N 149.288 1.51039 0.449983 0
M  V30 1454 C 150.238 1.67824 1.54335 0
M  V30 1455 C 151.222 0.5324 1.51836 0
M  V30 1456 O 152.414 0.787762 1.58503 0
M  V30 1457 C 149.543 1.7951 2.92628 0
M  V30 1458 C 148.629 2.99838 2.9993 0
M  V30 1459 N 149.02 4.23207 2.77001 0
M  V30 1460 C 147.318 2.98832 3.31082 0
M  V30 1461 C 148.019 5.04361 2.89818 0
M  V30 1462 N 146.995 4.38746 3.2094 0
M  V30 1463 H 150.797 2.60884 1.35339 0
M  V30 1464 H 148.311 1.48513 0.657085 0
M  V30 1465 H 150.308 1.89642 3.7127 0
M  V30 1466 H 148.968 0.876227 3.12654 0
M  V30 1467 H 149.979 4.5236 2.52172 0
M  V30 1468 H 146.656 2.16527 3.56963 0
M  V30 1469 H 148.046 6.12528 2.76151 0
M  V30 1470 N 150.766 -0.704594 1.40972 0
M  V30 1471 C 151.696 -1.83124 1.44872 0
M  V30 1472 C 152.677 -1.67281 0.30838 0
M  V30 1473 O 153.862 -1.87149 0.518556 0
M  V30 1474 C 150.992 -3.21181 1.32136 0
M  V30 1475 C 149.946 -3.51714 2.43888 0
M  V30 1476 C 149.272 -4.89032 2.16222 0
M  V30 1477 C 150.572 -3.516 3.86232 0
M  V30 1478 H 152.266 -1.80117 2.39161 0
M  V30 1479 H 149.812 -0.865145 1.15114 0
M  V30 1480 H 151.765 -3.99702 1.33479 0
M  V30 1481 H 150.489 -3.24791 0.343279 0
M  V30 1482 H 149.148 -2.75539 2.41813 0
M  V30 1483 H 148.796 -4.89256 1.16778 0
M  V30 1484 H 148.496 -5.10426 2.911 0
M  V30 1485 H 150.02 -5.69873 2.19265 0
M  V30 1486 H 151.434 -4.2014 3.9007 0
M  V30 1487 H 149.831 -3.84523 4.60719 0
M  V30 1488 H 150.901 -2.50757 4.15029 0
M  V30 1489 N 152.244 -1.26651 -0.937939 0
M  V30 1490 C 153.655 -1.1125 -1.49934 0
M  V30 1491 C 154.006 0.306077 -1.93798 0
M  V30 1492 O 153.131 1.19792 -1.80219 0
M  V30 1493 C 153.726 -2.01339 -2.72485 0
M  V30 1494 C 152.285 -1.90074 -3.24883 0
M  V30 1495 C 151.432 -1.94498 -1.97651 0
M  V30 1496 H 154.383 -1.39693 -0.753091 0
M  V30 1497 H 154.404 -1.56319 -3.46907 0
M  V30 1498 H 153.916 -3.04577 -2.40529 0
M  V30 1499 H 152.017 -0.897827 -3.61621 0
M  V30 1500 H 152.13 -2.75778 -3.9177 0
M  V30 1501 H 150.494 -1.38591 -2.13693 0
M  V30 1502 H 151.277 -2.99372 -1.68022 0
M  V30 1503 N 153.722 1.14298 -1.08507 0
M  V30 1504 C 154.97 1.84993 -0.813763 0
M  V30 1505 C 155.291 1.83405 0.662393 0
M  V30 1506 O 154.561 1.28319 1.48024 0
M  V30 1507 H 153.141 0.684966 -0.298045 0
M  V30 1508 H 155.803 1.385 -1.37126 0
M  V30 1509 H 154.899 2.89788 -1.15884 0
M  V30 1510 N 155.201 0.870884 1.31352 0
M  V30 1511 C 156.131 0.343096 2.30966 0
M  V30 1512 C 157.112 -0.566507 1.60389 0
M  V30 1513 O 158.297 -0.483336 1.88089 0
M  V30 1514 C 155.427 -0.455487 3.443 0
M  V30 1515 C 154.381 0.361103 4.26474 0
M  V30 1516 C 153.707 -0.563221 5.31725 0
M  V30 1517 C 155.007 1.59566 4.97329 0
M  V30 1518 H 156.701 1.17548 2.75359 0
M  V30 1519 H 154.247 0.566686 1.32381 0
M  V30 1520 H 156.2 -0.83525 4.13039 0
M  V30 1521 H 154.924 -1.32139 2.98675 0
M  V30 1522 H 153.583 0.722825 3.59403 0
M  V30 1523 H 153.231 -1.42643 4.82351 0
M  V30 1524 H 152.931 -0.0207409 5.87596 0
M  V30 1525 H 154.455 -0.939808 6.03324 0
M  V30 1526 H 155.869 1.28728 5.58661 0
M  V30 1527 H 154.266 2.07728 5.63 0
M  V30 1528 H 155.336 2.34798 4.24262 0
M  V30 1529 N 156.679 -1.44442 0.630414 0
M  V30 1530 C 157.926 -2.02052 0.134617 0
M  V30 1531 C 158.254 -1.49576 -1.24327 0
M  V30 1532 O 157.509 -0.669806 -1.83881 0
M  V30 1533 C 157.808 -3.57332 0.0697835 0
M  V30 1534 C 157.474 -4.29058 1.38635 0
M  V30 1535 C 156.136 -4.4837 1.74694 0
M  V30 1536 C 158.488 -4.69872 2.25543 0
M  V30 1537 C 155.816 -5.05756 2.97369 0
M  V30 1538 C 158.168 -5.28616 3.47487 0
M  V30 1539 C 156.832 -5.46147 3.8377 0
M  V30 1540 H 156.102 -0.739361 0.0492598 0
M  V30 1541 H 158.749 -1.73217 0.816586 0
M  V30 1542 H 157.054 -3.85577 -0.695553 0
M  V30 1543 H 158.751 -3.99637 -0.330344 0
M  V30 1544 H 155.341 -4.14357 1.09574 0
M  V30 1545 H 159.525 -4.54666 1.98979 0
M  V30 1546 H 154.781 -5.17515 3.25558 0
M  V30 1547 H 158.955 -5.59192 4.15063 0
M  V30 1548 H 156.582 -5.9038 4.7891 0
M  V30 1549 N 158.157 -0.370918 -1.53173 0
M  V30 1550 C 159.067 0.480823 -2.2962 0
M  V30 1551 C 160.083 1.08789 -1.35798 0
M  V30 1552 O 161.259 1.09768 -1.68858 0
M  V30 1553 C 158.324 1.60227 -3.07454 0
M  V30 1554 C 157.385 1.0222 -4.16953 0
M  V30 1555 C 156.618 2.0902 -4.91066 0
M  V30 1556 O 156.841 3.30222 -4.65091 0
M  V30 1557 O 155.775 1.71778 -5.76867 0
M  V30 1558 H 159.601 -0.141421 -3.03371 0
M  V30 1559 H 157.186 -0.135146 -1.48787 0
M  V30 1560 H 159.068 2.25417 -3.56041 0
M  V30 1561 H 157.743 2.20982 -2.36535 0
M  V30 1562 H 156.65 0.334064 -3.72605 0
M  V30 1563 H 157.983 0.459131 -4.90054 0
M  V30 1564 N 159.635 1.57281 -0.100228 0
M  V30 1565 C 160.545 2.17833 0.870965 0
M  V30 1566 C 161.561 1.14921 1.30649 0
M  V30 1567 O 162.737 1.47313 1.37335 0
M  V30 1568 C 159.802 2.75085 2.1102 0
M  V30 1569 C 158.863 3.9297 1.72838 0
M  V30 1570 C 158.096 4.47482 2.90854 0
M  V30 1571 O 158.319 4.00922 4.05731 0
M  V30 1572 O 157.253 5.38433 2.69023 0
M  V30 1573 H 161.079 3.0124 0.38575 0
M  V30 1574 H 158.664 1.48881 0.124397 0
M  V30 1575 H 160.546 3.11656 2.83634 0
M  V30 1576 H 159.221 1.94721 2.58584 0
M  V30 1577 H 158.128 3.61201 0.973883 0
M  V30 1578 H 159.461 4.74713 1.30033 0
M  V30 1579 N 161.113 -0.173488 1.56642 0
M  V30 1580 C 162.076 -1.19859 1.95362 0
M  V30 1581 C 163.076 -1.37296 0.83704 0
M  V30 1582 O 164.266 -1.34739 1.10413 0
M  V30 1583 C 161.398 -2.56405 2.24654 0
M  V30 1584 H 162.591 -0.867062 2.87092 0
M  V30 1585 H 160.144 -0.415853 1.50666 0
M  V30 1586 H 160.879 -2.94576 1.35631 0
M  V30 1587 H 160.664 -2.45115 3.06041 0
M  V30 1588 H 162.154 -3.30287 2.5554 0
M  V30 1589 N 162.591 -1.51276 -0.441967 0
M  V30 1590 C 163.501 -1.75092 -1.56141 0
M  V30 1591 C 164.517 -0.634963 -1.62001 0
M  V30 1592 O 165.693 -0.916686 -1.79329 0
M  V30 1593 C 162.758 -1.86666 -2.92158 0
M  V30 1594 C 161.819 -3.10506 -2.96453 0
M  V30 1595 C 161.052 -3.21519 -4.25982 0
M  V30 1596 O 161.275 -2.38586 -5.18105 0
M  V30 1597 O 160.209 -4.14465 -4.36466 0
M  V30 1598 H 164.035 -2.70044 -1.38961 0
M  V30 1599 H 161.62 -1.35722 -0.624499 0
M  V30 1600 H 163.502 -1.96292 -3.72891 0
M  V30 1601 H 162.177 -0.949014 -3.09476 0
M  V30 1602 H 161.084 -3.06363 -2.14692 0
M  V30 1603 H 162.417 -4.01945 -2.84079 0
M  V30 1604 N 164.069 0.697108 -1.41344 0
M  V30 1605 C 165.016 1.81106 -1.43071 0
M  V30 1606 C 165.986 1.63632 -0.285275 0
M  V30 1607 O 167.171 1.84504 -0.486091 0
M  V30 1608 C 164.311 3.18975 -1.31715 0
M  V30 1609 C 163.424 3.47892 -2.56115 0
M  V30 1610 C 162.559 4.75367 -2.37064 0
M  V30 1611 C 161.598 4.97247 -3.56948 0
M  V30 1612 N 160.735 6.15947 -3.36977 0
M  V30 1613 H 165.575 1.78965 -2.38276 0
M  V30 1614 H 163.112 0.873975 -1.18322 0
M  V30 1615 H 165.07 3.98615 -1.23133 0
M  V30 1616 H 163.7 3.20297 -0.401183 0
M  V30 1617 H 162.752 2.62669 -2.75153 0
M  V30 1618 H 164.064 3.59962 -3.45295 0
M  V30 1619 H 163.218 5.63059 -2.25941 0
M  V30 1620 H 161.957 4.65541 -1.45338 0
M  V30 1621 H 160.962 4.08004 -3.68527 0
M  V30 1622 H 162.187 5.08934 -4.49626 0
M  V30 1623 H 160.133 6.07336 -2.47949 0
M  V30 1624 H 160.05 6.28777 -4.19732 0
M  V30 1625 H 161.318 7.06377 -3.29623 0
M  V30 1626 N 165.547 1.27147 0.931209 0
M  V30 1627 C 166.495 1.09398 2.05268 0
M  V30 1628 C 167.489 0.0180591 1.6939 0
M  V30 1629 O 168.695 0.17551 1.79142 0
M  V30 1630 H 165.07 0.336986 0.672268 0
M  V30 1631 H 167.041 2.04416 2.17386 0
M  V30 1632 C 165.79 0.75424 3.39421 0
M  V30 1633 H 165.113 1.57404 3.67511 0
M  V30 1634 H 166.553 0.669903 4.18674 0
M  V30 1635 C 165.012 -0.541197 3.32525 0
M  V30 1636 O 165.542 -1.57664 3.69466 0
M  V30 1637 N 163.748 -0.535517 2.85623 0
M  V30 1638 H 163.295 0.307511 2.55758 0
M  V30 1639 H 163.253 -1.40236 2.81392 0
M  V30 1640 N 167.025 -1.13721 1.09112 0
M  V30 1641 C 168.271 -1.85198 0.826414 0
M  V30 1642 C 168.604 -1.83129 -0.646319 0
M  V30 1643 O 167.879 -1.2671 -1.47563 0
M  V30 1644 C 168.162 -3.33507 1.35812 0
M  V30 1645 C 168.015 -3.44108 2.89672 0
M  V30 1646 C 169.334 -4.28838 0.989256 0
M  V30 1647 H 166.453 -0.67243 0.301675 0
M  V30 1648 H 169.095 -1.33499 1.35197 0
M  V30 1649 H 167.245 -3.77666 0.911082 0
M  V30 1650 H 168.917 -3.08684 3.428 0
M  V30 1651 H 167.16 -2.85087 3.26967 0
M  V30 1652 H 167.831 -4.48388 3.21951 0
M  V30 1653 H 170.307 -3.92734 1.37475 0
M  V30 1654 H 169.183 -5.31051 1.38838 0
M  V30 1655 H 169.444 -4.4198 -0.102924 0
M  V30 1656 N 168.503 -0.877838 -1.30888 0
M  V30 1657 C 169.435 -0.296607 -2.27273 0
M  V30 1658 C 170.448 0.544799 -1.53414 0
M  V30 1659 O 171.637 0.365511 -1.74718 0
M  V30 1660 C 168.737 0.597481 -3.33592 0
M  V30 1661 C 167.91 -0.213251 -4.3688 0
M  V30 1662 C 166.969 0.610208 -5.2265 0
M  V30 1663 O 165.995 0.035441 -5.69189 0
M  V30 1664 N 167.197 1.92071 -5.47804 0
M  V30 1665 H 169.962 -1.12492 -2.77787 0
M  V30 1666 H 167.523 -0.740105 -1.43993 0
M  V30 1667 H 169.515 1.15425 -3.87891 0
M  V30 1668 H 168.085 1.32647 -2.83061 0
M  V30 1669 H 167.305 -0.951466 -3.82545 0
M  V30 1670 H 168.593 -0.769262 -5.02951 0
M  V30 1671 H 167.991 2.4107 -5.11763 0
M  V30 1672 H 166.548 2.42508 -6.05007 0
M  V30 1673 N 169.982 1.44106 -0.638065 0
M  V30 1674 C 170.929 2.30715 0.062701 0
M  V30 1675 C 171.899 1.43882 0.829883 0
M  V30 1676 O 173.084 1.72775 0.809532 0
M  V30 1677 C 170.224 3.29258 1.03358 0
M  V30 1678 C 169.337 4.31192 0.26409 0
M  V30 1679 C 168.472 5.16825 1.22741 0
M  V30 1680 C 167.511 6.10462 0.447475 0
M  V30 1681 N 166.648 6.8877 1.36161 0
M  V30 1682 H 171.488 2.90096 -0.681781 0
M  V30 1683 H 169.025 1.42925 -0.347988 0
M  V30 1684 H 170.983 3.84886 1.60992 0
M  V30 1685 H 169.613 2.71562 1.74511 0
M  V30 1686 H 168.665 3.77981 -0.428295 0
M  V30 1687 H 169.977 4.97619 -0.343052 0
M  V30 1688 H 169.131 5.77004 1.87487 0
M  V30 1689 H 167.87 4.50488 1.86847 0
M  V30 1690 H 166.875 5.49386 -0.213433 0
M  V30 1691 H 168.1 6.78837 -0.188968 0
M  V30 1692 H 166.046 6.25096 1.98975 0
M  V30 1693 H 165.963 7.51663 0.808656 0
M  V30 1694 H 167.231 7.53467 1.99769 0
M  V30 1695 N 171.46 0.379036 1.52974 0
M  V30 1696 C 172.708 -0.206014 2.01047 0
M  V30 1697 C 173.029 -1.48175 1.26765 0
M  V30 1698 O 172.299 -1.92085 0.384743 0
M  V30 1699 H 170.879 -0.0791184 0.742798 0
M  V30 1700 H 173.541 0.508366 1.88153 0
M  V30 1701 H 172.637 -0.423501 3.09213 0
M  V30 1702 N 172.938 -1.57226 0.108567 0
M  V30 1703 C 173.885 -2.14756 -0.845481 0
M  V30 1704 C 174.855 -1.06971 -1.27068 0
M  V30 1705 O 176.04 -1.34827 -1.35005 0
M  V30 1706 C 173.18 -2.74298 -2.09415 0
M  V30 1707 C 172.293 -3.96358 -1.71826 0
M  V30 1708 C 171.428 -4.44021 -2.9158 0
M  V30 1709 C 170.467 -5.58637 -2.50181 0
M  V30 1710 N 169.604 -6.01091 -3.62814 0
M  V30 1711 H 174.444 -2.95961 -0.348035 0
M  V30 1712 H 171.981 -1.46226 -0.160106 0
M  V30 1713 H 173.939 -3.06945 -2.82561 0
M  V30 1714 H 172.569 -1.95801 -2.56636 0
M  V30 1715 H 171.621 -3.69939 -0.885947 0
M  V30 1716 H 172.933 -4.79504 -1.37394 0
M  V30 1717 H 172.087 -4.78522 -3.72963 0
M  V30 1718 H 170.826 -3.59803 -3.29231 0
M  V30 1719 H 169.831 -5.23751 -1.67228 0
M  V30 1720 H 171.056 -6.44613 -2.13659 0
M  V30 1721 H 169.002 -5.19817 -4.00158 0
M  V30 1722 H 168.919 -6.79066 -3.32273 0
M  V30 1723 H 170.187 -6.40227 -4.44668 0
M  V30 1724 N 174.416 0.165178 -1.56732 0
M  V30 1725 C 175.664 0.879068 -1.8198 0
M  V30 1726 C 175.985 1.82514 -0.686561 0
M  V30 1727 O 175.255 1.93694 0.293146 0
M  V30 1728 H 173.835 0.327608 -0.671329 0
M  V30 1729 H 176.497 0.163526 -1.94213 0
M  V30 1730 H 175.593 1.45228 -2.76252 0
M  V30 1731 N 175.894 1.51508 0.433938 0
M  V30 1732 C 176.824 1.76016 1.53429 0
M  V30 1733 C 177.805 0.610112 1.58782 0
M  V30 1734 O 178.99 0.853177 1.74455 0
M  V30 1735 C 176.12 1.88831 2.9148 0
M  V30 1736 C 175.074 3.04288 3.00987 0
M  V30 1737 C 174.4 3.0229 4.4105 0
M  V30 1738 C 175.7 4.44193 2.74754 0
M  V30 1739 H 177.394 2.68152 1.33171 0
M  V30 1740 H 174.94 1.29035 0.639214 0
M  V30 1741 H 176.893 2.04559 3.6842 0
M  V30 1742 H 175.617 0.933455 3.12976 0
M  V30 1743 H 174.276 2.8827 2.26486 0
M  V30 1744 H 173.924 2.04576 4.59519 0
M  V30 1745 H 173.624 3.79822 4.4834 0
M  V30 1746 H 175.148 3.20116 5.1996 0
M  V30 1747 H 176.562 4.60544 3.41426 0
M  V30 1748 H 174.959 5.23457 2.9345 0
M  V30 1749 H 176.029 4.53996 1.70339 0
M  V30 1750 N 177.372 -0.689602 1.41712 0
M  V30 1751 C 178.282 -1.83314 1.46401 0
M  V30 1752 C 179.298 -1.7036 0.35405 0
M  V30 1753 O 180.474 -1.92171 0.602692 0
M  V30 1754 C 177.539 -3.19344 1.34982 0
M  V30 1755 C 176.6 -3.44363 2.56344 0
M  V30 1756 C 175.833 -4.73904 2.45461 0
M  V30 1757 O 176.056 -5.508 1.48241 0
M  V30 1758 O 174.99 -4.99839 3.35328 0
M  V30 1759 H 178.816 -1.82314 2.42889 0
M  V30 1760 H 176.401 -0.843438 1.23315 0
M  V30 1761 H 178.283 -4.00547 1.3092 0
M  V30 1762 H 176.958 -3.21014 0.41612 0
M  V30 1763 H 175.865 -2.63067 2.65982 0
M  V30 1764 H 177.198 -3.47512 3.48563 0
M  V30 1765 N 178.85 -1.27639 -0.924453 0
M  V30 1766 C 180.098 -1.13941 -1.66918 0
M  V30 1767 C 180.419 0.314589 -1.92446 0
M  V30 1768 O 179.689 1.21964 -1.53303 0
M  V30 1769 H 178.269 -0.418678 -0.618642 0
M  V30 1770 H 180.931 -1.60213 -1.10985 0
M  V30 1771 H 180.027 -1.67094 -2.63602 0
M  V30 1772 N 180.328 1.1314 -1.09713 0
M  V30 1773 C 181.574 1.84967 -0.846104 0
M  V30 1774 C 181.929 1.82082 0.621601 0
M  V30 1775 O 181.222 1.2501 1.452 0
M  V30 1776 C 181.416 3.32167 -1.3191 0
M  V30 1777 C 181.245 3.49386 -2.83125 0
M  V30 1778 C 180.015 3.63456 -3.51038 0
M  V30 1779 C 182.213 3.45179 -3.81256 0
M  V30 1780 N 180.195 3.68966 -4.9065 0
M  V30 1781 C 181.566 3.57094 -5.06837 0
M  V30 1782 C 183.621 3.28598 -3.74069 0
M  V30 1783 C 182.324 3.5414 -6.26081 0
M  V30 1784 C 184.35 3.26953 -4.92804 0
M  V30 1785 C 183.712 3.39422 -6.17229 0
M  V30 1786 H 179.811 0.692899 -0.362512 0
M  V30 1787 H 182.395 1.35506 -1.39808 0
M  V30 1788 H 180.566 3.80186 -0.794535 0
M  V30 1789 H 182.298 3.91815 -1.01308 0
M  V30 1790 H 179.053 3.65256 -3.01471 0
M  V30 1791 H 179.477 3.75404 -5.63383 0
M  V30 1792 H 184.119 3.17858 -2.78794 0
M  V30 1793 H 181.837 3.63653 -7.21653 0
M  V30 1794 H 185.423 3.15316 -4.88945 0
M  V30 1795 H 184.303 3.38114 -7.07565 0
M  V30 1796 N 181.806 0.884767 1.30421 0
M  V30 1797 C 182.716 0.355398 2.31892 0
M  V30 1798 C 183.732 -0.542261 1.65335 0
M  V30 1799 O 184.908 -0.435432 1.96637 0
M  V30 1800 C 181.973 -0.421661 3.44126 0
M  V30 1801 C 181.034 0.505727 4.26311 0
M  V30 1802 C 180.267 -0.234343 5.33185 0
M  V30 1803 O 180.49 -1.46045 5.51386 0
M  V30 1804 O 179.424 0.415443 6.00465 0
M  V30 1805 H 183.25 1.19685 2.79122 0
M  V30 1806 H 180.835 0.648596 1.34587 0
M  V30 1807 H 182.717 -0.861641 4.12497 0
M  V30 1808 H 181.392 -1.23942 2.99032 0
M  V30 1809 H 180.299 0.994513 3.60639 0
M  V30 1810 H 181.632 1.28948 4.75009 0
M  V30 1811 N 183.284 -1.43765 0.645699 0
M  V30 1812 C 184.231 -2.30745 -0.0504648 0
M  V30 1813 C 185.201 -1.4432 -0.822241 0
M  V30 1814 O 186.386 -1.73202 -0.800358 0
M  V30 1815 C 183.526 -3.29802 -1.0161 0
M  V30 1816 C 182.639 -4.31326 -0.241219 0
M  V30 1817 C 181.774 -5.17469 -1.19998 0
M  V30 1818 C 180.813 -6.10691 -0.415094 0
M  V30 1819 N 179.95 -6.89483 -1.32506 0
M  V30 1820 H 184.79 -2.8973 0.697155 0
M  V30 1821 H 182.327 -1.42738 0.355563 0
M  V30 1822 H 184.285 -3.85734 -1.58949 0
M  V30 1823 H 182.915 -2.72483 -1.73069 0
M  V30 1824 H 181.967 -3.77749 0.448334 0
M  V30 1825 H 183.279 -4.9743 0.369437 0
M  V30 1826 H 182.433 -5.7799 -1.84424 0
M  V30 1827 H 181.172 -4.51473 -1.84455 0
M  V30 1828 H 180.177 -5.49265 0.242565 0
M  V30 1829 H 181.402 -6.78727 0.224966 0
M  V30 1830 H 179.348 -6.26142 -1.95657 0
M  V30 1831 H 179.265 -7.52081 -0.768783 0
M  V30 1832 H 180.533 -7.54516 -1.9577 0
M  V30 1833 N 184.763 -0.387143 -1.52771 0
M  V30 1834 C 186.179 -0.037007 -1.59557 0
M  V30 1835 C 186.379 1.44801 -1.40124 0
M  V30 1836 O 185.435 2.21227 -1.21716 0
M  V30 1837 C 186.748 -0.512256 -2.96305 0
M  V30 1838 C 188.296 -0.468328 -3.09476 0
M  V30 1839 C 188.771 -0.919731 -4.4867 0
M  V30 1840 N 190.262 -0.875656 -4.54848 0
M  V30 1841 C 190.997 -1.19637 -5.6078 0
M  V30 1842 N 190.493 -1.58745 -6.74368 0
M  V30 1843 N 192.286 -1.11776 -5.50874 0
M  V30 1844 H 184.437 -1.35395 -1.63652 0
M  V30 1845 H 186.7 -0.554818 -0.768688 0
M  V30 1846 H 186.406 -1.54935 -3.15734 0
M  V30 1847 H 186.28 0.089805 -3.77093 0
M  V30 1848 H 188.667 0.559671 -2.89744 0
M  V30 1849 H 188.748 -1.10616 -2.30646 0
M  V30 1850 H 188.392 -1.94595 -4.69143 0
M  V30 1851 H 188.322 -0.258927 -5.25963 0
M  V30 1852 H 190.813 -0.587843 -3.733 0
M  V30 1853 H 191.126 -1.81586 -7.51163 0
M  V30 1854 H 189.471 -1.6263 -6.75705 0
M  V30 1855 H 192.662 -0.811264 -4.61016 0
M  V30 1856 H 192.835 -1.37103 -6.3333 0
M  V30 1857 N 186.241 1.57166 -0.116904 0
M  V30 1858 C 187.171 2.18222 0.830759 0
M  V30 1859 C 188.152 1.12167 1.27877 0
M  V30 1860 O 189.337 1.40394 1.34176 0
M  V30 1861 C 186.467 2.77996 2.08172 0
M  V30 1862 C 185.421 3.89614 1.77157 0
M  V30 1863 C 184.747 4.36187 3.09265 0
M  V30 1864 C 186.047 5.1181 1.04151 0
M  V30 1865 H 187.741 2.97664 0.321992 0
M  V30 1866 H 185.287 1.4318 0.153434 0
M  V30 1867 H 187.24 3.19366 2.74924 0
M  V30 1868 H 185.964 1.9584 2.6137 0
M  V30 1869 H 184.623 3.48816 1.12796 0
M  V30 1870 H 184.271 3.50893 3.60393 0
M  V30 1871 H 183.971 5.11455 2.89288 0
M  V30 1872 H 185.495 4.80207 3.77139 0
M  V30 1873 H 186.909 5.50214 1.61052 0
M  V30 1874 H 185.306 5.92648 0.942762 0
M  V30 1875 H 186.376 4.84892 0.0279022 0
M  V30 1876 N 187.719 -0.156864 1.56817 0
M  V30 1877 C 188.968 -0.869504 1.81996 0
M  V30 1878 C 189.281 -1.82777 0.696545 0
M  V30 1879 O 190.487 -2.58384 0.833658 0
M  V30 1880 C 188.943 -1.59679 3.22538 0
M  V30 1881 C 188.551 -0.681431 4.42787 0
M  V30 1882 C 190.295 -2.2968 3.56997 0
M  V30 1883 C 188.202 -1.40978 5.74351 0
M  V30 1884 H 187.132 -0.328438 0.678708 0
M  V30 1885 H 189.783 -0.1223 1.83092 0
M  V30 1886 H 188.165 -2.38927 3.158 0
M  V30 1887 H 189.339 0.0751166 4.60739 0
M  V30 1888 H 187.654 -0.0903431 4.16302 0
M  V30 1889 H 190.251 -2.84794 4.52544 0
M  V30 1890 H 190.594 -3.05707 2.82576 0
M  V30 1891 H 191.127 -1.57361 3.65352 0
M  V30 1892 H 187.866 -0.691561 6.51842 0
M  V30 1893 H 187.386 -2.13929 5.60352 0
M  V30 1894 H 189.065 -1.95337 6.16808 0
M  V30 1895 N 189.197 -1.51736 -0.425897 0
M  V30 1896 C 190.446 -1.64201 -1.17136 0
M  V30 1897 C 190.759 -0.369705 -1.92074 0
M  V30 1898 O 191.965 -0.373898 -2.68913 0
M  V30 1899 C 190.421 -2.90035 -2.13091 0
M  V30 1900 C 190.029 -4.24312 -1.43747 0
M  V30 1901 C 191.773 -3.1186 -2.87999 0
M  V30 1902 C 189.68 -5.41285 -2.38253 0
M  V30 1903 H 188.61 -0.611624 -0.440944 0
M  V30 1904 H 191.261 -1.78212 -0.437328 0
M  V30 1905 H 189.643 -2.69684 -2.89977 0
M  V30 1906 H 190.817 -4.55086 -0.723408 0
M  V30 1907 H 189.132 -4.08456 -0.809465 0
M  V30 1908 H 191.729 -3.96427 -3.58817 0
M  V30 1909 H 192.072 -2.25403 -3.49999 0
M  V30 1910 H 192.605 -3.32605 -2.18217 0
M  V30 1911 H 189.344 -6.30037 -1.80925 0
M  V30 1912 H 188.864 -5.14872 -3.0768 0
M  V30 1913 H 190.543 -5.73694 -2.99139 0
M  V30 1914 N 190.675 0.682077 -1.42076 0
M  V30 1915 C 191.9 1.47558 -1.45744 0
M  V30 1916 C 192.325 1.87977 -0.0680981 0
M  V30 1917 O 191.683 1.55522 0.9318 0
M  V30 1918 C 191.731 2.70575 -2.38373 0
M  V30 1919 O 190.835 3.68573 -1.85007 0
M  V30 1920 H 190.176 0.443585 -0.494093 0
M  V30 1921 H 192.706 0.837238 -1.86686 0
M  V30 1922 H 192.716 3.18729 -2.54707 0
M  V30 1923 H 191.391 2.40495 -3.39315 0
M  V30 1924 H 189.968 3.2757 -1.78192 0
M  V30 1925 N 192.153 1.28127 0.917671 0
M  V30 1926 C 193.43 1.05761 1.64542 0
M  V30 1927 C 193.81 -0.404344 2.07191 0
M  V30 1928 O 193.158 -1.38963 1.81388 0
M  V30 1929 C 193.368 2.02857 2.83989 0
M  V30 1930 C 194.716 2.32786 3.551 0
M  V30 1931 O 195.74 2.0091 2.94132 0
M  V30 1932 O 194.599 2.87169 4.64969 0
M  V30 1933 H 191.693 0.403916 0.721652 0
M  V30 1934 H 194.239 1.39431 0.967322 0
M  V30 1935 H 193.011 3.01407 2.49538 0
M  V30 1936 H 192.634 1.69809 3.59514 0
M  V30 1937 N 193.631 -1.12557 1.10312 0
M  V30 1938 C 195.047 -1.36036 0.834649 0
M  V30 1939 C 195.247 -1.93946 -0.546539 0
M  V30 1940 O 194.303 -2.16484 -1.29966 0
M  V30 1941 C 195.616 -2.30312 1.9333 0
M  V30 1942 C 197.164 -2.43906 1.9616 0
M  V30 1943 C 197.639 -3.41496 3.05195 0
M  V30 1944 N 199.13 -3.49053 3.04494 0
M  V30 1945 C 199.865 -4.24471 3.85502 0
M  V30 1946 N 199.361 -5.02966 4.76442 0
M  V30 1947 N 201.154 -4.19864 3.73725 0
M  V30 1948 H 193.305 -0.733246 1.99342 0
M  V30 1949 H 195.568 -0.385234 0.866198 0
M  V30 1950 H 195.274 -1.94933 2.92735 0
M  V30 1951 H 195.148 -3.30421 1.81939 0
M  V30 1952 H 197.535 -2.78567 0.973886 0
M  V30 1953 H 197.616 -1.4369 2.11629 0
M  V30 1954 H 197.26 -3.07565 4.04186 0
M  V30 1955 H 197.19 -4.41539 2.86968 0
M  V30 1956 H 199.681 -2.93053 2.38596 0
M  V30 1957 H 199.994 -5.57846 5.34815 0
M  V30 1958 H 198.339 -5.02167 4.80472 0
M  V30 1959 H 201.53 -3.57623 3.02032 0
M  V30 1960 H 201.703 -4.78386 4.37093 0
M  V30 1961 N 195.109 -0.891671 -1.2995 0
M  V30 1962 C 196.072 -0.36828 -2.26222 0
M  V30 1963 C 197.072 0.493014 -1.53056 0
M  V30 1964 O 198.262 0.299213 -1.71611 0
M  V30 1965 C 195.394 0.47442 -3.37583 0
M  V30 1966 H 196.587 -1.21844 -2.74033 0
M  V30 1967 H 194.14 -0.669107 -1.41254 0
M  V30 1968 H 194.875 1.34489 -2.95099 0
M  V30 1969 H 194.66 -0.142615 -3.91841 0
M  V30 1970 H 196.15 0.83218 -4.09224 0
M  V30 1971 N 196.587 1.43421 -0.653314 0
M  V30 1972 C 197.537 2.2792 0.060558 0
M  V30 1973 C 198.521 1.39906 0.794677 0
M  V30 1974 O 199.713 1.63536 0.677128 0
M  V30 1975 C 196.842 3.27603 1.0262 0
M  V30 1976 C 195.928 4.23104 0.290551 0
M  V30 1977 N 196.319 5.01031 -0.692967 0
M  V30 1978 C 194.617 4.42816 0.531984 0
M  V30 1979 C 195.318 5.70626 -1.12963 0
M  V30 1980 N 194.294 5.41617 -0.463867 0
M  V30 1981 H 198.096 2.85585 -0.694143 0
M  V30 1982 H 195.61 1.55126 -0.480602 0
M  V30 1983 H 197.607 3.86918 1.55242 0
M  V30 1984 H 196.267 2.71499 1.78096 0
M  V30 1985 H 197.278 5.0669 -1.07169 0
M  V30 1986 H 193.955 3.97782 1.26791 0
M  V30 1987 H 195.345 6.4318 -1.94343 0
M  V30 1988 N 198.065 0.39524 1.52563 0
M  V30 1989 C 199.314 -0.186321 2.00838 0
M  V30 1990 C 199.627 -1.47402 1.28577 0
M  V30 1991 O 200.833 -2.13599 1.67593 0
M  V30 1992 C 199.289 -0.382595 3.57861 0
M  V30 1993 C 198.897 0.892202 4.39026 0
M  V30 1994 C 200.641 -0.9202 4.14406 0
M  V30 1995 C 198.548 0.66388 5.87662 0
M  V30 1996 H 197.478 -0.0734041 0.750418 0
M  V30 1997 H 200.129 0.518552 1.76021 0
M  V30 1998 H 198.511 -1.14946 3.7895 0
M  V30 1999 H 199.685 1.66414 4.29701 0
M  V30 2000 H 198 1.35519 3.9373 0
M  V30 2001 H 200.597 -1.10683 5.23119 0
M  V30 2002 H 200.94 -1.89096 3.70875 0
M  V30 2003 H 201.473 -0.212751 3.97231 0
M  V30 2004 H 198.212 1.6058 6.35527 0
M  V30 2005 H 197.732 -0.0690193 5.9976 0
M  V30 2006 H 199.411 0.300699 6.46301 0
M  V30 2007 N 199.544 -1.57102 0.125237 0
M  V30 2008 C 200.79 -1.95697 -0.532035 0
M  V30 2009 C 201.123 -1.009 -1.6593 0
M  V30 2010 O 200.398 -0.047347 -1.94442 0
M  V30 2011 C 200.681 -3.44181 -1.05884 0
M  V30 2012 C 200.534 -4.49752 0.0654392 0
M  V30 2013 C 201.853 -3.94655 -1.9477 0
M  V30 2014 H 198.972 -0.711571 -0.191925 0
M  V30 2015 H 201.614 -1.88923 0.20206 0
M  V30 2016 H 199.764 -3.50085 -1.68442 0
M  V30 2017 H 201.436 -4.55943 0.700982 0
M  V30 2018 H 199.679 -4.27653 0.727709 0
M  V30 2019 H 200.35 -5.50924 -0.344505 0
M  V30 2020 H 202.826 -3.91094 -1.42074 0
M  V30 2021 H 201.702 -4.99057 -2.28546 0
M  V30 2022 H 201.963 -3.35718 -2.87656 0
M  V30 2023 N 201.022 0.148545 -1.56898 0
M  V30 2024 C 202.269 0.861418 -1.83264 0
M  V30 2025 C 202.597 1.81239 -0.705883 0
M  V30 2026 O 201.852 1.93305 0.305212 0
M  V30 2027 C 202.151 1.67064 -3.1595 0
M  V30 2028 C 201.817 0.866591 -4.42494 0
M  V30 2029 C 200.479 0.644762 -4.76861 0
M  V30 2030 C 202.831 0.30418 -5.20312 0
M  V30 2031 C 200.159 -0.15021 -5.86508 0
M  V30 2032 C 202.511 -0.477824 -6.30793 0
M  V30 2033 C 201.175 -0.710244 -6.63711 0
M  V30 2034 H 200.445 0.315215 -0.670612 0
M  V30 2035 H 203.092 0.125142 -1.91091 0
M  V30 2036 H 201.397 2.47698 -3.03567 0
M  V30 2037 H 203.094 2.22566 -3.33565 0
M  V30 2038 H 199.684 1.04955 -4.15551 0
M  V30 2039 H 203.868 0.462844 -4.94137 0
M  V30 2040 H 199.124 -0.339796 -6.10455 0
M  V30 2041 H 203.298 -0.92076 -6.90286 0
M  V30 2042 H 200.925 -1.3281 -7.48509 0
M  V30 2043 N 202.5 1.5196 0.417844 0
M  V30 2044 C 203.777 1.56146 1.17803 0
M  V30 2045 C 204.157 0.337275 2.08388 0
M  V30 2046 O 203.505 -0.676447 2.18258 0
M  V30 2047 C 203.715 2.88566 1.96293 0
M  V30 2048 C 205.063 3.41244 2.52662 0
M  V30 2049 O 206.087 2.90247 2.06483 0
M  V30 2050 O 204.946 4.30273 3.36938 0
M  V30 2051 H 202.04 0.628598 0.537395 0
M  V30 2052 H 204.586 1.64283 0.425331 0
M  V30 2053 H 203.358 3.69116 1.2988 0
M  V30 2054 H 202.981 2.83681 2.78587 0
M  V30 2055 N 203.978 -0.674533 1.42435 0
M  V30 2056 C 205.225 -1.43459 1.42919 0
M  V30 2057 C 205.553 -1.94446 0.0457312 0
M  V30 2058 O 204.808 -1.7132 -0.94593 0
M  V30 2059 C 205.107 -2.64767 2.40069 0
M  V30 2060 C 204.773 -2.3232 3.86443 0
M  V30 2061 C 203.435 -2.23182 4.26314 0
M  V30 2062 C 205.787 -2.05977 4.78773 0
M  V30 2063 C 203.115 -1.85827 5.56494 0
M  V30 2064 C 205.467 -1.70125 6.09295 0
M  V30 2065 C 204.131 -1.59498 6.48164 0
M  V30 2066 H 203.401 -0.524952 0.522978 0
M  V30 2067 H 206.048 -0.769097 1.75377 0
M  V30 2068 H 204.353 -3.36349 2.00939 0
M  V30 2069 H 206.05 -3.22949 2.37707 0
M  V30 2070 H 202.64 -2.40334 3.54877 0
M  V30 2071 H 206.824 -2.11969 4.48757 0
M  V30 2072 H 202.08 -1.76168 5.8547 0
M  V30 2073 H 206.254 -1.48767 6.80324 0
M  V30 2074 H 203.881 -1.30322 7.48946 0
M  V30 2075 N 205.456 -1.28612 -0.910864 0
M  V30 2076 C 206.406 -1.09423 -2.00026 0
M  V30 2077 C 207.39 -0.0170079 -1.60891 0
M  V30 2078 O 208.582 -0.237472 -1.754 0
M  V30 2079 C 205.711 -0.76114 -3.34756 0
M  V30 2080 C 204.797 -1.87735 -3.80285 0
M  V30 2081 N 205.188 -3.11938 -3.98156 0
M  V30 2082 C 203.486 -1.76786 -4.09467 0
M  V30 2083 C 204.187 -3.84687 -4.36338 0
M  V30 2084 N 203.163 -3.12555 -4.44759 0
M  V30 2085 H 206.965 -2.03658 -2.11898 0
M  V30 2086 H 204.479 -1.19573 -1.09891 0
M  V30 2087 H 206.476 -0.604743 -4.12491 0
M  V30 2088 H 205.136 0.173403 -3.24237 0
M  V30 2089 H 206.147 -3.47516 -3.83996 0
M  V30 2090 H 202.824 -0.905284 -4.07567 0
M  V30 2091 H 204.214 -4.91518 -4.58104 0
M  V30 2092 N 206.934 1.1197 -1.10907 0
M  V30 2093 C 207.866 2.17592 -0.720175 0
M  V30 2094 C 208.879 1.60938 0.245495 0
M  V30 2095 O 210.068 1.78476 0.0292245 0
M  V30 2096 C 207.168 3.38873 -0.0427917 0
M  V30 2097 C 206.341 4.25006 -1.03388 0
M  V30 2098 C 205.4 5.24774 -0.387075 0
M  V30 2099 O 204.426 5.59631 -1.03934 0
M  V30 2100 N 205.628 5.74208 0.852407 0
M  V30 2101 H 208.393 2.51567 -1.62893 0
M  V30 2102 H 205.954 1.27439 -0.998543 0
M  V30 2103 H 207.946 4.02703 0.401501 0
M  V30 2104 H 206.516 3.03007 0.768456 0
M  V30 2105 H 205.736 3.57716 -1.65629 0
M  V30 2106 H 207.024 4.79397 -1.70458 0
M  V30 2107 H 206.422 5.48062 1.40161 0
M  V30 2108 H 204.979 6.39901 1.23977 0
M  V30 2109 N 208.412 0.89855 1.29475 0
M  V30 2110 C 209.375 0.380272 2.26023 0
M  V30 2111 C 210.375 -0.484891 1.53315 0
M  V30 2112 O 211.565 -0.290108 1.71767 0
M  V30 2113 C 208.697 -0.45651 3.3783 0
M  V30 2114 H 209.89 1.23295 2.73383 0
M  V30 2115 H 207.443 0.676589 1.40897 0
M  V30 2116 H 208.178 -1.32922 2.95808 0
M  V30 2117 H 207.963 0.163393 3.91759 0
M  V30 2118 H 209.453 -0.810466 4.0966 0
M  V30 2119 N 209.89 -1.43072 0.660911 0
M  V30 2120 C 210.853 -2.29194 -0.0166406 0
M  V30 2121 C 211.853 -1.42609 -0.742912 0
M  V30 2122 O 213.043 -1.64155 -0.583004 0
M  V30 2123 C 210.175 -3.24831 -1.0343 0
M  V30 2124 H 211.368 -2.90596 0.741208 0
M  V30 2125 H 208.921 -1.5048 0.422532 0
M  V30 2126 H 209.656 -2.68339 -1.82111 0
M  V30 2127 H 209.441 -3.88676 -0.517082 0
M  V30 2128 H 210.931 -3.89451 -1.50723 0
M  V30 2129 N 211.368 -0.403325 -1.52352 0
M  V30 2130 C 212.645 0.232611 -1.94212 0
M  V30 2131 C 213.025 1.63133 -1.33981 0
M  V30 2132 O 212.373 2.22659 -0.513344 0
M  V30 2133 C 212.583 0.244811 -3.4814 0
M  V30 2134 C 213.931 0.46698 -4.22024 0
M  V30 2135 O 214.955 0.324419 -3.5472 0
M  V30 2136 O 213.814 0.74747 -5.41364 0
M  V30 2137 H 210.908 0.148223 -0.813609 0
M  V30 2138 H 213.454 -0.458848 -1.63379 0
M  V30 2139 H 212.226 -0.734378 -3.84347 0
M  V30 2140 H 211.849 0.980611 -3.85318 0
M  V30 2141 N 212.846 1.57033 -0.133567 0
M  V30 2142 C 214.094 1.953 0.519848 0
M  V30 2143 C 214.415 1.01866 1.66278 0
M  V30 2144 O 213.685 0.0776513 1.95746 0
M  V30 2145 H 212.265 0.721091 0.195032 0
M  V30 2146 H 214.927 1.93809 -0.205921 0
M  V30 2147 H 214.023 2.98695 0.904854 0
M  V30 2148 N 214.325 -0.140222 1.56975 0
M  V30 2149 C 215.574 -0.850152 1.82908 0
M  V30 2150 C 215.887 -1.82028 0.715892 0
M  V30 2151 O 217.093 -2.57485 0.861016 0
M  V30 2152 C 215.549 -1.5625 3.24213 0
M  V30 2153 C 215.157 -0.63443 4.43485 0
M  V30 2154 C 216.901 -2.25881 3.59413 0
M  V30 2155 C 214.808 -1.34879 5.75814 0
M  V30 2156 H 213.738 -0.321221 0.682153 0
M  V30 2157 H 216.389 -0.102874 1.83211 0
M  V30 2158 H 214.771 -2.35565 3.18316 0
M  V30 2159 H 215.945 0.12398 4.60633 0
M  V30 2160 H 214.26 -0.0461836 4.16374 0
M  V30 2161 H 216.857 -2.79978 4.5554 0
M  V30 2162 H 217.2 -3.02693 2.85802 0
M  V30 2163 H 217.733 -1.53477 3.67001 0
M  V30 2164 H 214.472 -0.622385 6.52539 0
M  V30 2165 H 213.992 -2.07974 5.6259 0
M  V30 2166 H 215.671 -1.88784 6.18845 0
M  V30 2167 N 215.803 -1.52179 -0.40978 0
M  V30 2168 C 216.735 -1.71703 -1.51825 0
M  V30 2169 C 217.748 -0.597445 -1.51441 0
M  V30 2170 O 218.937 -0.872582 -1.55719 0
M  V30 2171 C 216.037 -1.74171 -2.90719 0
M  V30 2172 C 215.21 -3.03156 -3.15302 0
M  V30 2173 C 214.269 -2.97445 -4.34065 0
M  V30 2174 O 213.295 -3.71352 -4.31377 0
M  V30 2175 N 214.497 -2.15191 -5.39141 0
M  V30 2176 H 217.262 -2.67334 -1.35472 0
M  V30 2177 H 214.823 -1.50409 -0.599069 0
M  V30 2178 H 216.815 -1.67884 -3.68235 0
M  V30 2179 H 215.385 -0.860166 -3.00533 0
M  V30 2180 H 214.605 -3.23097 -2.25836 0
M  V30 2181 H 215.893 -3.88484 -3.28569 0
M  V30 2182 H 215.291 -1.54573 -5.44173 0
M  V30 2183 H 213.848 -2.1476 -6.15403 0
M  V30 2184 N 217.281 0.66697 -1.42791 0
M  V30 2185 C 218.191 1.80962 -1.49299 0
M  V30 2186 C 219.207 1.69775 -0.381108 0
M  V30 2187 O 220.383 1.91188 -0.633188 0
M  V30 2188 C 217.448 3.17156 -1.40045 0
M  V30 2189 C 216.509 3.40242 -2.6179 0
M  V30 2190 C 215.742 4.69939 -2.52969 0
M  V30 2191 O 215.965 5.48372 -1.56985 0
M  V30 2192 O 214.899 4.94441 -3.43237 0
M  V30 2193 H 218.725 1.78427 -2.45759 0
M  V30 2194 H 216.31 0.823713 -1.24641 0
M  V30 2195 H 218.192 3.98413 -1.37276 0
M  V30 2196 H 216.867 3.20312 -0.467138 0
M  V30 2197 H 215.774 2.58802 -2.70134 0
M  V30 2198 H 217.107 3.41923 -3.54047 0
M  V30 2199 N 218.759 1.29093 0.90403 0
M  V30 2200 C 219.691 1.09658 2.01266 0
M  V30 2201 C 220.704 0.0453729 1.62737 0
M  V30 2202 O 221.893 0.289446 1.76138 0
M  V30 2203 C 218.993 0.646278 3.32681 0
M  V30 2204 C 218.166 1.77505 3.99763 0
M  V30 2205 C 217.225 1.31649 5.09465 0
M  V30 2206 O 216.251 2.02045 5.32134 0
M  V30 2207 N 217.453 0.184997 5.80205 0
M  V30 2208 H 220.218 2.05135 2.18494 0
M  V30 2209 H 217.779 1.20975 1.07594 0
M  V30 2210 H 219.771 0.322906 4.0341 0
M  V30 2211 H 218.341 -0.215916 3.11853 0
M  V30 2212 H 217.561 2.26752 3.22455 0
M  V30 2213 H 218.849 2.53198 4.41325 0
M  V30 2214 H 218.247 -0.402021 5.6427 0
M  V30 2215 H 216.804 -0.0790358 6.51752 0
M  V30 2216 N 220.237 -1.11381 1.11499 0
M  V30 2217 C 221.169 -2.17207 0.731704 0
M  V30 2218 C 222.182 -1.61066 -0.236957 0
M  V30 2219 O 223.371 -1.78489 -0.0197591 0
M  V30 2220 C 220.471 -3.38846 0.0607624 0
M  V30 2221 C 219.644 -4.24451 1.0564 0
M  V30 2222 C 218.703 -5.24562 0.4149 0
M  V30 2223 O 217.729 -5.59071 1.069 0
M  V30 2224 N 218.931 -5.74651 -0.821943 0
M  V30 2225 H 221.696 -2.50699 1.64225 0
M  V30 2226 H 219.257 -1.26908 1.00529 0
M  V30 2227 H 221.249 -4.02911 -0.380139 0
M  V30 2228 H 219.819 -3.03411 -0.752376 0
M  V30 2229 H 219.039 -3.56833 1.67524 0
M  V30 2230 H 220.327 -4.78486 1.72998 0
M  V30 2231 H 219.725 -5.48797 -1.37252 0
M  V30 2232 H 218.282 -6.40549 -1.20582 0
M  V30 2233 N 221.715 -0.905404 -1.28997 0
M  V30 2234 C 223.131 -0.60233 -1.47798 0
M  V30 2235 C 223.331 0.854645 -1.82478 0
M  V30 2236 O 222.387 1.63439 -1.92468 0
M  V30 2237 C 223.7 -1.53306 -2.58685 0
M  V30 2238 C 225.248 -1.53887 -2.72558 0
M  V30 2239 C 225.723 -2.45602 -3.86579 0
M  V30 2240 N 227.214 -2.43681 -3.93921 0
M  V30 2241 C 227.949 -3.11347 -4.81509 0
M  V30 2242 N 227.445 -3.88313 -5.73746 0
M  V30 2243 N 229.238 -3.00476 -4.75048 0
M  V30 2244 H 221.389 -1.84765 -1.04764 0
M  V30 2245 H 223.652 -0.792025 -0.520961 0
M  V30 2246 H 223.358 -2.57141 -2.39941 0
M  V30 2247 H 223.232 -1.25787 -3.55609 0
M  V30 2248 H 225.619 -0.507941 -2.90696 0
M  V30 2249 H 225.7 -1.85447 -1.76191 0
M  V30 2250 H 225.344 -3.48792 -3.69197 0
M  V30 2251 H 225.274 -2.11349 -4.82327 0
M  V30 2252 H 227.765 -1.87767 -3.27951 0
M  V30 2253 H 228.078 -4.36985 -6.37389 0
M  V30 2254 H 226.423 -3.92419 -5.73614 0
M  V30 2255 H 229.614 -2.39858 -4.01977 0
M  V30 2256 H 229.787 -3.53485 -5.43095 0
M  V30 2257 N 223.193 1.4272 -0.668489 0
M  V30 2258 C 224.125 2.2914 0.052613 0
M  V30 2259 C 225.138 1.43339 0.771857 0
M  V30 2260 O 226.327 1.67123 0.627067 0
M  V30 2261 C 223.427 3.20618 1.09804 0
M  V30 2262 C 222.6 4.35039 0.45389 0
M  V30 2263 C 221.659 5.07282 1.39825 0
M  V30 2264 O 220.685 5.62024 0.900978 0
M  V30 2265 N 221.887 5.12206 2.73176 0
M  V30 2266 H 224.652 2.91668 -0.689209 0
M  V30 2267 H 222.213 1.53577 -0.512422 0
M  V30 2268 H 224.205 3.65815 1.73094 0
M  V30 2269 H 222.775 2.59585 1.74167 0
M  V30 2270 H 221.995 3.92567 -0.358396 0
M  V30 2271 H 223.283 5.088 0.00486972 0
M  V30 2272 H 222.681 4.6913 3.16122 0
M  V30 2273 H 221.238 5.61069 3.31729 0
M  V30 2274 N 224.671 0.411399 1.52136 0
M  V30 2275 C 225.581 -0.419774 2.30814 0
M  V30 2276 C 226.597 -1.0515 1.38634 0
M  V30 2277 O 227.773 -1.05252 1.71709 0
M  V30 2278 C 224.838 -1.52019 3.11594 0
M  V30 2279 C 223.899 -0.91129 4.19516 0
M  V30 2280 C 223.132 -1.95927 4.96436 0
M  V30 2281 O 223.355 -3.17775 4.73683 0
M  V30 2282 O 222.289 -1.56423 5.81219 0
M  V30 2283 H 226.115 0.221805 3.02889 0
M  V30 2284 H 223.7 0.174547 1.48377 0
M  V30 2285 H 225.582 -2.15898 3.61892 0
M  V30 2286 H 224.257 -2.14633 2.42311 0
M  V30 2287 H 223.164 -0.235157 3.7336 0
M  V30 2288 H 224.497 -0.32904 4.91099 0
M  V30 2289 N 226.149 -1.5696 0.141893 0
M  V30 2290 C 227.081 -2.13619 -0.830627 0
M  V30 2291 C 228.094 -1.08439 -1.21428 0
M  V30 2292 O 229.283 -1.35734 -1.15925 0
M  V30 2293 C 226.383 -2.63978 -2.12529 0
M  V30 2294 C 225.556 -3.93504 -1.9098 0
M  V30 2295 C 224.615 -4.29225 -3.04388 0
M  V30 2296 O 223.641 -4.97641 -2.76302 0
M  V30 2297 N 224.843 -3.88393 -4.31429 0
M  V30 2298 H 227.608 -2.97691 -0.34641 0
M  V30 2299 H 225.169 -1.61846 -0.0418375 0
M  V30 2300 H 227.161 -2.84891 -2.87436 0
M  V30 2301 H 225.731 -1.84659 -2.52229 0
M  V30 2302 H 224.951 -3.81269 -1.00139 0
M  V30 2303 H 226.239 -4.78154 -1.73914 0
M  V30 2304 H 225.637 -3.33257 -4.57117 0
M  V30 2305 H 224.194 -4.14368 -5.03133 0
M  V30 2306 N 227.627 0.131896 -1.57047 0
M  V30 2307 C 228.59 1.14638 -1.98471 0
M  V30 2308 C 229.59 1.35029 -0.873148 0
M  V30 2309 O 230.78 1.31764 -1.13946 0
M  V30 2310 C 227.912 2.50358 -2.31373 0
M  V30 2311 H 229.105 0.79064 -2.8929 0
M  V30 2312 H 226.658 0.375761 -1.51716 0
M  V30 2313 H 227.393 2.90876 -1.43393 0
M  V30 2314 H 227.178 2.36915 -3.12432 0
M  V30 2315 H 228.668 3.23395 -2.64207 0
M  V30 2316 N 229.106 1.52395 0.401703 0
M  V30 2317 C 230.354 1.66488 1.14569 0
M  V30 2318 C 230.675 0.400897 1.90835 0
M  V30 2319 O 229.945 -0.584415 1.8698 0
M  V30 2320 H 228.525 0.613672 0.425929 0
M  V30 2321 H 231.187 1.89464 0.457093 0
M  V30 2322 H 230.283 2.50942 1.85566 0
M  V30 2323 N 230.584 -0.659388 1.43143 0
M  V30 2324 C 231.531 -1.77249 1.47822 0
M  V30 2325 C 232.501 -1.62818 0.328558 0
M  V30 2326 O 233.686 -1.83151 0.534838 0
M  V30 2327 C 230.826 -3.15371 1.40126 0
M  V30 2328 C 229.939 -3.4098 2.65249 0
M  V30 2329 C 229.074 -4.68915 2.49584 0
M  V30 2330 C 228.113 -4.87608 3.70006 0
M  V30 2331 N 227.25 -6.06796 3.53189 0
M  V30 2332 H 232.09 -1.72584 2.42938 0
M  V30 2333 H 229.627 -0.842297 1.20598 0
M  V30 2334 H 231.585 -3.9521 1.33659 0
M  V30 2335 H 230.215 -3.19121 0.485964 0
M  V30 2336 H 229.267 -2.55282 2.8202 0
M  V30 2337 H 230.579 -3.50681 3.54717 0
M  V30 2338 H 229.733 -5.56871 2.4079 0
M  V30 2339 H 228.472 -4.61524 1.5763 0
M  V30 2340 H 227.477 -3.9809 3.79215 0
M  V30 2341 H 228.702 -4.96834 4.62961 0
M  V30 2342 H 226.648 -6.00549 2.63965 0
M  V30 2343 H 226.565 -6.17428 4.36255 0
M  V30 2344 H 227.833 -6.9739 3.48236 0
M  V30 2345 N 232.062 -1.29571 -0.897171 0
M  V30 2346 C 233.01 -1.14802 -2.02295 0
M  V30 2347 C 234.004 -0.0629637 -1.69283 0
M  V30 2348 O 235.21 -0.222945 -1.78614 0
M  V30 2349 H 231.585 -0.354692 -0.663097 0
M  V30 2350 H 233.556 -2.10108 -2.11889 0
M  V30 2351 C 232.305 -0.843966 -3.37302 0
M  V30 2352 H 231.628 -1.67093 -3.63208 0
M  V30 2353 H 233.068 -0.780672 -4.16751 0
M  V30 2354 C 231.527 0.452843 -3.33843 0
M  V30 2355 O 232.057 1.47813 -3.73516 0
M  V30 2356 N 230.263 0.459601 -2.86943 0
M  V30 2357 H 229.81 -0.375213 -2.54853 0
M  V30 2358 H 229.768 1.32726 -2.85011 0
M  V30 2359 N 233.54 1.10788 -1.12088 0
M  V30 2360 C 234.47 2.19083 -0.807755 0
M  V30 2361 C 235.451 1.6858 0.226859 0
M  V30 2362 O 236.636 1.93997 0.0888475 0
M  V30 2363 C 233.766 3.46344 -0.257576 0
M  V30 2364 C 232.72 4.101 -1.22483 0
M  V30 2365 C 232.046 5.32016 -0.535052 0
M  V30 2366 C 233.346 4.54236 -2.57811 0
M  V30 2367 H 235.04 2.45534 -1.71328 0
M  V30 2368 H 232.586 1.1801 -0.825205 0
M  V30 2369 H 234.539 4.21392 -0.0262679 0
M  V30 2370 H 233.263 3.19373 0.683278 0
M  V30 2371 H 231.922 3.37054 -1.44189 0
M  V30 2372 H 231.57 5.01319 0.410827 0
M  V30 2373 H 231.27 5.75625 -1.18024 0
M  V30 2374 H 232.794 6.09799 -0.312695 0
M  V30 2375 H 234.208 5.20575 -2.40155 0
M  V30 2376 H 232.605 5.08682 -3.18375 0
M  V30 2377 H 233.675 3.6734 -3.16528 0
M  V30 2378 N 235.018 0.912232 1.28515 0
M  V30 2379 C 236.266 0.543523 1.94654 0
M  V30 2380 C 236.587 -0.9155 1.72173 0
M  V30 2381 O 235.857 -1.64708 1.06058 0
M  V30 2382 H 234.437 0.198017 0.720277 0
M  V30 2383 H 237.099 1.16126 1.56527 0
M  V30 2384 H 236.195 0.736684 3.03281 0
M  V30 2385 N 236.496 -1.42363 0.676048 0
M  V30 2386 C 237.724 -2.05859 0.207268 0
M  V30 2387 C 238.139 -1.50796 -1.13605 0
M  V30 2388 O 237.496 -0.648265 -1.70598 0
M  V30 2389 C 237.547 -3.61248 0.134975 0
M  V30 2390 O 237.268 -4.1427 1.42521 0
M  V30 2391 C 238.769 -4.41859 -0.357151 0
M  V30 2392 H 235.989 -0.663431 0.100503 0
M  V30 2393 H 238.533 -1.82479 0.923136 0
M  V30 2394 H 236.688 -3.83735 -0.531588 0
M  V30 2395 H 237.102 -5.0815 1.29939 0
M  V30 2396 H 238.576 -5.50847 -0.356641 0
M  V30 2397 H 239.053 -4.16536 -1.39264 0
M  V30 2398 H 239.659 -4.24392 0.27772 0
M  V30 2399 N 237.974 -0.419461 -1.51915 0
M  V30 2400 C 239.202 0.152136 -2.0634 0
M  V30 2401 C 239.617 1.37988 -1.28859 0
M  V30 2402 O 238.974 1.79243 -0.343232 0
M  V30 2403 C 239.025 0.492266 -3.58133 0
M  V30 2404 O 238.746 -0.686736 -4.32684 0
M  V30 2405 C 240.247 1.11648 -4.2901 0
M  V30 2406 H 237.467 0.0158325 -0.670813 0
M  V30 2407 H 240.011 -0.593394 -1.95702 0
M  V30 2408 H 238.166 1.18769 -3.68745 0
M  V30 2409 H 238.58 -0.400341 -5.2297 0
M  V30 2410 H 240.054 1.3046 -5.36362 0
M  V30 2411 H 240.531 2.09251 -3.86148 0
M  V30 2412 H 241.137 0.460958 -4.22795 0
M  V30 2413 N 239.452 1.56882 -0.150215 0
M  V30 2414 C 240.399 2.16922 0.788244 0
M  V30 2415 C 241.369 1.10303 1.24187 0
M  V30 2416 O 242.554 1.38359 1.31383 0
M  V30 2417 C 239.694 2.79754 2.02068 0
M  V30 2418 C 238.807 4.00775 1.61257 0
M  V30 2419 C 237.942 4.51595 2.79705 0
M  V30 2420 C 236.981 5.65074 2.35282 0
M  V30 2421 N 236.118 6.10499 3.4675 0
M  V30 2422 H 240.958 2.96779 0.269444 0
M  V30 2423 H 238.495 1.46599 0.12128 0
M  V30 2424 H 240.453 3.14329 2.74323 0
M  V30 2425 H 239.083 2.02536 2.51354 0
M  V30 2426 H 238.135 3.72158 0.787553 0
M  V30 2427 H 239.447 4.82978 1.24633 0
M  V30 2428 H 238.601 4.88242 3.60145 0
M  V30 2429 H 237.34 3.68406 3.19576 0
M  V30 2430 H 236.345 5.28 1.53283 0
M  V30 2431 H 237.57 6.50052 1.96493 0
M  V30 2432 H 235.516 5.30243 3.86236 0
M  V30 2433 H 235.433 6.87637 3.14152 0
M  V30 2434 H 236.701 6.51791 4.27537 0
M  V30 2435 N 240.93 -0.123565 1.57115 0
M  V30 2436 C 241.877 -1.15177 2.00007 0
M  V30 2437 C 242.847 -1.41403 0.871454 0
M  V30 2438 O 244.032 -1.53346 1.13533 0
M  V30 2439 C 241.172 -2.47436 2.40561 0
M  V30 2440 C 240.285 -2.28184 3.66819 0
M  V30 2441 C 239.42 -3.53641 3.96373 0
M  V30 2442 C 238.459 -3.29528 5.15827 0
M  V30 2443 N 237.596 -4.47175 5.41275 0
M  V30 2444 H 242.436 -0.779008 2.87638 0
M  V30 2445 H 239.973 -0.373166 1.42288 0
M  V30 2446 H 241.931 -3.24584 2.62109 0
M  V30 2447 H 240.561 -2.82614 1.55978 0
M  V30 2448 H 239.613 -1.41976 3.52912 0
M  V30 2449 H 240.925 -2.0634 4.5412 0
M  V30 2450 H 240.079 -4.39209 4.18545 0
M  V30 2451 H 238.818 -3.78512 3.07538 0
M  V30 2452 H 237.823 -2.42349 4.93505 0
M  V30 2453 H 239.048 -3.06031 6.06236 0
M  V30 2454 H 236.994 -4.72175 4.55397 0
M  V30 2455 H 236.911 -4.28419 6.22891 0
M  V30 2456 H 238.179 -5.3389 5.67963 0
M  V30 2457 N 242.408 -1.52605 -0.393616 0
M  V30 2458 C 243.656 -1.67093 -1.13685 0
M  V30 2459 C 243.977 -0.411011 -1.90619 0
M  V30 2460 O 243.247 0.574491 -1.87287 0
M  V30 2461 H 241.827 -0.615923 -0.422668 0
M  V30 2462 H 244.489 -1.89704 -0.447039 0
M  V30 2463 H 243.585 -2.51922 -1.84232 0
M  V30 2464 N 243.887 0.651787 -1.4349 0
M  V30 2465 C 245.136 1.40754 -1.44469 0
M  V30 2466 C 245.449 1.95463 -0.0731845 0
M  V30 2467 O 246.655 2.71471 0.0395721 0
M  V30 2468 C 245.111 2.54735 -2.5424 0
M  V30 2469 C 244.719 2.06628 -3.97504 0
M  V30 2470 C 246.463 3.32092 -2.64414 0
M  V30 2471 C 244.37 3.17829 -4.98737 0
M  V30 2472 H 243.3 0.528862 -0.53742 0
M  V30 2473 H 245.951 0.703365 -1.69485 0
M  V30 2474 H 244.333 3.2763 -2.22428 0
M  V30 2475 H 245.507 1.40734 -4.38783 0
M  V30 2476 H 243.822 1.42146 -3.91387 0
M  V30 2477 H 246.419 4.14952 -3.37223 0
M  V30 2478 H 246.762 3.80217 -1.69532 0
M  V30 2479 H 247.295 2.66279 -2.95534 0
M  V30 2480 H 244.034 2.74671 -5.95177 0
M  V30 2481 H 243.554 3.82429 -4.62069 0
M  V30 2482 H 245.233 3.82937 -5.21505 0
M  V30 2483 N 245.365 1.30045 0.890287 0
M  V30 2484 C 246.613 1.18327 1.63839 0
M  V30 2485 C 246.934 -0.263455 1.93212 0
M  V30 2486 O 246.204 -1.17856 1.56482 0
M  V30 2487 H 244.784 0.434933 0.607324 0
M  V30 2488 H 247.446 1.631 1.06698 0
M  V30 2489 H 246.542 1.74024 2.59079 0
M  V30 2490 N 246.843 -1.10192 1.12674 0
M  V30 2491 C 248.254 -1.63707 0.897604 0
M  V30 2492 C 248.605 -1.87812 -0.567546 0
M  V30 2493 O 247.73 -1.62196 -1.43253 0
M  V30 2494 C 248.325 -2.974 1.62292 0
M  V30 2495 C 246.884 -3.47772 1.43986 0
M  V30 2496 C 246.031 -2.22332 1.65722 0
M  V30 2497 H 248.982 -0.936587 1.28116 0
M  V30 2498 H 249.003 -3.64986 1.07541 0
M  V30 2499 H 248.515 -2.79824 2.68924 0
M  V30 2500 H 246.616 -3.70487 0.396206 0
M  V30 2501 H 246.729 -4.25723 2.19765 0
M  V30 2502 H 245.093 -2.30599 1.08149 0
M  V30 2503 H 245.876 -2.07285 2.73657 0
M  V30 2504 N 248.321 -0.919034 -1.28029 0
M  V30 2505 C 249.567 -0.555757 -1.95036 0
M  V30 2506 C 249.9 0.899198 -1.72128 0
M  V30 2507 O 249.175 1.64023 -1.04531 0
M  V30 2508 C 249.458 -0.872024 -3.49382 0
M  V30 2509 C 249.311 -2.3801 -3.81669 0
M  V30 2510 C 250.63 -0.37185 -4.38526 0
M  V30 2511 H 247.749 -0.203386 -0.708381 0
M  V30 2512 H 250.391 -1.14924 -1.51303 0
M  V30 2513 H 248.541 -0.366946 -3.86763 0
M  V30 2514 H 250.213 -2.9562 -3.54128 0
M  V30 2515 H 248.456 -2.83289 -3.28526 0
M  V30 2516 H 249.127 -2.55192 -4.8947 0
M  V30 2517 H 251.603 -0.804602 -4.08247 0
M  V30 2518 H 250.479 -0.622173 -5.45362 0
M  V30 2519 H 250.74 0.727934 -4.36066 0
M  V30 2520 N 249.799 1.42003 -0.683588 0
M  V30 2521 C 251.029 2.05448 -0.217866 0
M  V30 2522 C 251.437 1.51491 1.13346 0
M  V30 2523 O 250.78 0.653048 1.717 0
M  V30 2524 C 250.842 3.59399 -0.0850118 0
M  V30 2525 C 250.506 4.36093 -1.36645 0
M  V30 2526 C 251.503 4.66169 -2.30179 0
M  V30 2527 C 249.188 4.75578 -1.61649 0
M  V30 2528 C 251.182 5.34676 -3.46988 0
M  V30 2529 C 248.869 5.43824 -2.78745 0
M  V30 2530 C 249.867 5.73299 -3.71238 0
M  V30 2531 O 249.555 6.40142 -4.86285 0
M  V30 2532 H 249.287 0.668344 -0.101454 0
M  V30 2533 H 251.841 1.82974 -0.933248 0
M  V30 2534 H 250.071 3.80566 0.686031 0
M  V30 2535 H 251.76 4.04457 0.341973 0
M  V30 2536 H 252.526 4.36156 -2.12115 0
M  V30 2537 H 248.405 4.52025 -0.905243 0
M  V30 2538 H 251.949 5.57599 -4.19201 0
M  V30 2539 H 247.846 5.73254 -2.96732 0
M  V30 2540 H 248.614 6.58636 -4.85944 0
M  V30 2541 N 251.277 0.427512 1.51691 0
M  V30 2542 C 252.502 -0.143601 2.06902 0
M  V30 2543 C 252.927 -1.36536 1.29382 0
M  V30 2544 O 252.285 -1.78289 0.329043 0
M  V30 2545 C 252.333 -0.454207 3.57728 0
M  V30 2546 O 251.437 -1.54228 3.82475 0
M  V30 2547 H 250.778 -0.00617128 0.663971 0
M  V30 2548 H 253.308 0.606014 1.95419 0
M  V30 2549 H 253.318 -0.707525 4.01818 0
M  V30 2550 H 251.993 0.438812 4.13579 0
M  V30 2551 H 250.57 -1.2797 3.50254 0
M  V30 2552 N 252.755 -1.56801 0.158532 0
M  V30 2553 C 253.98 -2.01295 -0.499516 0
M  V30 2554 C 254.405 -1.03799 -1.56867 0
M  V30 2555 O 253.763 -0.0155162 -1.81293 0
M  V30 2556 C 253.811 -3.44469 -1.06647 0
M  V30 2557 O 252.915 -3.50012 -2.18095 0
M  V30 2558 H 252.256 -0.652884 -0.12099 0
M  V30 2559 H 254.786 -2.02958 0.258661 0
M  V30 2560 H 254.796 -3.8351 -1.39227 0
M  V30 2561 H 253.471 -4.14932 -0.283581 0
M  V30 2562 H 252.048 -3.22822 -1.86656 0
M  V30 2563 N 254.233 0.115231 -1.57178 0
M  V30 2564 C 255.18 1.14115 -2.00615 0
M  V30 2565 C 256.15 1.40939 -0.878941 0
M  V30 2566 O 257.335 1.52741 -1.14345 0
M  V30 2567 C 254.475 2.46156 -2.4187 0
M  V30 2568 C 253.588 2.26236 -3.68024 0
M  V30 2569 C 252.723 3.51534 -3.98243 0
M  V30 2570 C 251.762 3.26787 -5.17568 0
M  V30 2571 N 250.899 4.44298 -5.43639 0
M  V30 2572 H 255.739 0.763743 -2.88047 0
M  V30 2573 H 253.276 0.365615 -1.42484 0
M  V30 2574 H 255.234 3.23189 -2.63827 0
M  V30 2575 H 253.864 2.81783 -1.57475 0
M  V30 2576 H 252.916 1.40102 -3.5366 0
M  V30 2577 H 254.228 2.03929 -4.55208 0
M  V30 2578 H 253.382 4.36984 -4.20868 0
M  V30 2579 H 252.121 3.76876 -3.09541 0
M  V30 2580 H 251.126 2.39729 -4.94783 0
M  V30 2581 H 252.351 3.02812 -6.0785 0
M  V30 2582 H 250.297 4.69754 -4.57895 0
M  V30 2583 H 250.214 4.25109 -6.25154 0
M  V30 2584 H 251.482 5.3087 -5.70786 0
M  V30 2585 N 255.711 1.52812 0.385517 0
M  V30 2586 C 256.674 1.77188 1.45386 0
M  V30 2587 C 257.674 0.641953 1.4743 0
M  V30 2588 O 258.864 0.910033 1.4854 0
M  V30 2589 C 255.996 1.87582 2.8465 0
M  V30 2590 H 257.189 2.72583 1.25054 0
M  V30 2591 H 254.742 1.43586 0.617467 0
M  V30 2592 H 255.477 0.941849 3.10322 0
M  V30 2593 H 255.262 2.69748 2.84567 0
M  V30 2594 H 256.752 2.08102 3.62054 0
M  V30 2595 N 257.189 -0.644168 1.43834 0
M  V30 2596 C 258.152 -1.73857 1.49353 0
M  V30 2597 C 259.152 -1.56315 0.377112 0
M  V30 2598 O 260.342 -1.62048 0.639226 0
M  V30 2599 C 257.474 -3.12819 1.35488 0
M  V30 2600 H 258.667 -1.70342 2.46827 0
M  V30 2601 H 256.22 -0.856652 1.30733 0
M  V30 2602 H 256.955 -3.2194 0.390569 0
M  V30 2603 H 256.74 -3.26958 2.16428 0
M  V30 2604 H 258.23 -3.92606 1.42302 0
M  V30 2605 N 258.668 -1.30515 -0.883378 0
M  V30 2606 C 260.084 -1.08881 -1.16692 0
M  V30 2607 C 260.284 0.149409 -2.00945 0
M  V30 2608 O 259.34 0.84257 -2.38027 0
M  V30 2609 C 260.653 -2.35319 -1.87204 0
M  V30 2610 C 262.201 -2.40799 -1.99962 0
M  V30 2611 C 262.676 -3.67083 -2.73887 0
M  V30 2612 N 264.167 -3.679 -2.81432 0
M  V30 2613 C 264.902 -4.62303 -3.3921 0
M  V30 2614 N 264.398 -5.67052 -3.98025 0
M  V30 2615 N 266.191 -4.49845 -3.3704 0
M  V30 2616 H 258.342 -2.09951 -0.321633 0
M  V30 2617 H 260.605 -0.92556 -0.205043 0
M  V30 2618 H 260.311 -3.25689 -1.3274 0
M  V30 2619 H 260.185 -2.44089 -2.87577 0
M  V30 2620 H 262.572 -1.50907 -2.53597 0
M  V30 2621 H 262.653 -2.36003 -0.98673 0
M  V30 2622 H 262.297 -4.57334 -2.20925 0
M  V30 2623 H 262.227 -3.69141 -3.75556 0
M  V30 2624 H 264.718 -2.92171 -2.39676 0
M  V30 2625 H 265.031 -6.35184 -4.40183 0
M  V30 2626 H 263.376 -5.70842 -3.96439 0
M  V30 2627 H 266.567 -3.67194 -2.90321 0
M  V30 2628 H 266.74 -5.23597 -3.81772 0
M  V30 2629 N 260.146 1.09593 -1.13257 0
M  V30 2630 C 261.371 1.8604 -0.916732 0
M  V30 2631 C 261.796 1.80504 0.529146 0
M  V30 2632 O 261.154 1.18127 1.37534 0
M  V30 2633 C 261.202 3.32017 -1.40703 0
M  V30 2634 O 260.306 4.08141 -0.591153 0
M  V30 2635 H 259.647 0.576943 -0.328683 0
M  V30 2636 H 262.177 1.38405 -1.50682 0
M  V30 2637 H 262.187 3.82865 -1.4099 0
M  V30 2638 H 260.862 3.35361 -2.45979 0
M  V30 2639 H 259.439 3.67084 -0.656005 0
M  V30 2640 N 261.624 0.925811 1.2754 0
M  V30 2641 C 262.872 0.564138 1.94067 0
M  V30 2642 C 263.193 -0.897188 1.73134 0
M  V30 2643 O 262.463 -1.63573 1.07799 0
M  V30 2644 H 261.043 0.205645 0.718136 0
M  V30 2645 H 263.705 1.1778 1.55287 0
M  V30 2646 H 262.801 0.76881 3.02483 0
M  V30 2647 N 263.102 -1.41638 0.69111 0
M  V30 2648 C 264.032 -2.3347 0.037248 0
M  V30 2649 C 265.013 -1.51575 -0.771947 0
M  V30 2650 O 266.198 -1.80126 -0.72582 0
M  V30 2651 C 263.328 -3.35354 -0.903064 0
M  V30 2652 C 262.282 -4.27526 -0.201288 0
M  V30 2653 C 261.608 -5.19747 -1.25565 0
M  V30 2654 C 262.908 -5.13959 0.929689 0
M  V30 2655 H 264.602 -2.88397 0.804227 0
M  V30 2656 H 262.148 -1.38669 0.388189 0
M  V30 2657 H 264.101 -3.98519 -1.36969 0
M  V30 2658 H 262.825 -2.78767 -1.70166 0
M  V30 2659 H 261.484 -3.65779 0.245265 0
M  V30 2660 H 261.132 -4.59479 -2.04666 0
M  V30 2661 H 260.832 -5.8225 -0.791128 0
M  V30 2662 H 262.356 -5.85789 -1.72288 0
M  V30 2663 H 263.77 -5.70718 0.543546 0
M  V30 2664 H 262.167 -5.85379 1.32103 0
M  V30 2665 H 263.237 -4.51389 1.77133 0
M  V30 2666 N 264.58 -0.43555 -1.51462 0
M  V30 2667 C 265.996 -0.0877501 -1.59359 0
M  V30 2668 C 266.196 1.4027 -1.4466 0
M  V30 2669 O 265.252 2.17243 -1.28693 0
M  V30 2670 C 266.565 -0.606264 -2.94525 0
M  V30 2671 C 268.113 -0.566548 -3.0783 0
M  V30 2672 C 268.588 -1.06201 -4.45517 0
M  V30 2673 N 270.079 -1.01992 -4.51832 0
M  V30 2674 C 270.814 -1.37417 -5.5669 0
M  V30 2675 N 270.31 -1.80119 -6.68976 0
M  V30 2676 N 272.103 -1.29245 -5.47039 0
M  V30 2677 H 264.254 -1.40533 -1.59261 0
M  V30 2678 H 266.517 -0.578992 -0.750648 0
M  V30 2679 H 266.223 -1.64901 -3.10645 0
M  V30 2680 H 266.097 -0.0302097 -3.77188 0
M  V30 2681 H 268.484 0.467208 -2.91378 0
M  V30 2682 H 268.565 -1.17898 -2.2701 0
M  V30 2683 H 268.209 -2.09422 -4.62715 0
M  V30 2684 H 268.139 -0.426127 -5.24873 0
M  V30 2685 H 270.63 -0.706308 -3.71241 0
M  V30 2686 H 270.943 -2.05392 -7.45006 0
M  V30 2687 H 269.288 -1.84044 -6.70189 0
M  V30 2688 H 272.479 -0.957522 -4.58202 0
M  V30 2689 H 272.652 -1.57182 -6.28648 0
M  V30 2690 N 266.058 1.56714 -0.166846 0
M  V30 2691 C 266.991 2.13577 0.80375 0
M  V30 2692 C 267.969 1.06464 1.22899 0
M  V30 2693 O 269.153 1.34413 1.32157 0
M  V30 2694 C 266.28 2.67168 2.0818 0
M  V30 2695 C 265.326 3.86612 1.80093 0
M  V30 2696 S 266.159 5.26565 0.97416 0
M  V30 2697 C 267.315 5.83558 2.26297 0
M  V30 2698 H 267.548 2.9557 0.320267 0
M  V30 2699 H 265.081 1.54326 0.0477555 0
M  V30 2700 H 267.039 2.98692 2.8159 0
M  V30 2701 H 265.7 1.85269 2.53642 0
M  V30 2702 H 264.893 4.22422 2.7491 0
M  V30 2703 H 264.495 3.55951 1.14781 0
M  V30 2704 H 266.787 5.962 3.21795 0
M  V30 2705 H 267.73 6.80731 1.94962 0
M  V30 2706 H 268.138 5.11944 2.37853 0
M  V30 2707 N 267.536 -0.106894 1.57237 0
M  V30 2708 C 268.776 -0.818277 1.87306 0
M  V30 2709 C 269.14 -1.76474 0.756371 0
M  V30 2710 O 270.341 -2.5186 0.939155 0
M  V30 2711 C 268.612 -1.53806 3.22612 0
M  V30 2712 S 270.171 -2.28935 3.74345 0
M  V30 2713 H 266.989 -0.272862 0.656557 0
M  V30 2714 H 269.591 -0.075988 1.95352 0
M  V30 2715 H 268.295 -0.834951 4.01817 0
M  V30 2716 H 267.826 -2.32049 3.17674 0
M  V30 2717 H 269.841 -3.54871 3.46815 0
M  V30 2718 N 269.014 -1.53014 -0.377408 0
M  V30 2719 C 270.291 -1.59215 -1.13622 0
M  V30 2720 C 270.671 -0.392407 -2.07421 0
M  V30 2721 O 270.019 0.618342 -2.19975 0
M  V30 2722 C 270.229 -2.93669 -1.88573 0
M  V30 2723 C 271.577 -3.47822 -2.43526 0
M  V30 2724 O 272.601 -2.9562 -1.98715 0
M  V30 2725 O 271.46 -4.39055 -3.25412 0
M  V30 2726 H 268.554 -0.642625 -0.52054 0
M  V30 2727 H 271.1 -1.65353 -0.381625 0
M  V30 2728 H 269.872 -3.7243 -1.20048 0
M  V30 2729 H 269.495 -2.90968 -2.70968 0
M  V30 2730 N 270.492 0.636531 -1.44174 0
M  V30 2731 C 271.422 1.76003 -1.53444 0
M  V30 2732 C 272.403 1.65619 -0.387841 0
M  V30 2733 O 273.588 1.84461 -0.607257 0
M  V30 2734 C 270.718 3.14511 -1.4731 0
M  V30 2735 C 269.672 3.39677 -2.60391 0
M  V30 2736 C 268.998 4.78159 -2.39308 0
M  V30 2737 C 270.298 3.32772 -4.02567 0
M  V30 2738 H 271.992 1.68501 -2.47483 0
M  V30 2739 H 269.538 0.809237 -1.19111 0
M  V30 2740 H 271.491 3.92878 -1.52397 0
M  V30 2741 H 270.215 3.22783 -0.49785 0
M  V30 2742 H 268.874 2.63688 -2.54684 0
M  V30 2743 H 268.522 4.83128 -1.39988 0
M  V30 2744 H 268.222 4.95956 -3.15122 0
M  V30 2745 H 269.746 5.58762 -2.46205 0
M  V30 2746 H 271.16 4.01051 -4.09672 0
M  V30 2747 H 269.557 3.62104 -4.7854 0
M  V30 2748 H 270.627 2.30669 -4.2652 0
M  V30 2749 N 271.97 1.30982 0.876444 0
M  V30 2750 C 273.216 1.20474 1.63138 0
M  V30 2751 C 273.549 -0.238096 1.92735 0
M  V30 2752 O 272.824 -1.1692 1.55435 0
M  V30 2753 C 273.107 2.04244 2.96574 0
M  V30 2754 C 272.96 3.56793 2.73896 0
M  V30 2755 C 274.279 1.88684 3.97601 0
M  V30 2756 H 271.398 0.439001 0.591985 0
M  V30 2757 H 274.04 1.60704 1.01361 0
M  V30 2758 H 272.19 1.70063 3.493 0
M  V30 2759 H 273.862 4.01077 2.27892 0
M  V30 2760 H 272.105 3.80548 2.08245 0
M  V30 2761 H 272.776 4.10706 3.68815 0
M  V30 2762 H 275.252 2.18584 3.54062 0
M  V30 2763 H 274.128 2.4961 4.88862 0
M  V30 2764 H 274.389 0.848343 4.33884 0
M  V30 2765 N 273.449 -1.08991 1.13837 0
M  V30 2766 C 274.674 -1.85551 0.926585 0
M  V30 2767 C 275.099 -1.80782 -0.519566 0
M  V30 2768 O 274.457 -1.18855 -1.36906 0
M  V30 2769 C 274.505 -3.31266 1.42462 0
M  V30 2770 O 273.609 -4.07822 0.612789 0
M  V30 2771 H 272.95 -0.575192 0.331738 0
M  V30 2772 H 275.48 -1.37604 1.51414 0
M  V30 2773 H 275.49 -3.82112 1.43019 0
M  V30 2774 H 274.165 -3.34052 2.47754 0
M  V30 2775 H 272.742 -3.66731 0.675463 0
M  V30 2776 N 274.927 -0.932562 -1.27047 0
M  V30 2777 C 276.204 -0.49377 -1.89265 0
M  V30 2778 C 276.584 1.02833 -1.8436 0
M  V30 2779 O 275.932 1.88461 -1.29209 0
M  V30 2780 C 276.142 -1.04536 -3.32976 0
M  V30 2781 C 277.49 -1.10879 -4.09867 0
M  V30 2782 O 278.514 -0.995327 -3.42011 0
M  V30 2783 O 277.373 -1.28417 -5.31198 0
M  V30 2784 H 274.467 -0.159596 -0.811454 0
M  V30 2785 H 277.013 -1.02457 -1.3528 0
M  V30 2786 H 275.785 -2.08913 -3.30864 0
M  V30 2787 H 275.408 -0.496494 -3.94488 0
M  V30 2788 N 276.405 1.4127 -0.698611 0
M  V30 2789 C 277.652 2.0118 -0.230865 0
M  V30 2790 C 277.98 1.55338 1.17049 0
M  V30 2791 O 277.235 0.756775 1.80475 0
M  V30 2792 C 277.534 3.56592 -0.240192 0
M  V30 2793 C 277.2 4.21955 -1.58948 0
M  V30 2794 C 275.862 4.39524 -1.95887 0
M  V30 2795 C 278.214 4.58576 -2.47704 0
M  V30 2796 C 275.542 4.90992 -3.2116 0
M  V30 2797 C 277.894 5.11435 -3.72313 0
M  V30 2798 C 276.558 5.27215 -4.0939 0
M  V30 2799 H 275.828 0.736169 -0.0844796 0
M  V30 2800 H 278.475 1.69124 -0.8983 0
M  V30 2801 H 276.78 3.88456 0.510797 0
M  V30 2802 H 278.477 4.00758 0.139296 0
M  V30 2803 H 275.067 4.08657 -1.29219 0
M  V30 2804 H 279.251 4.44654 -2.20445 0
M  V30 2805 H 274.507 5.01393 -3.49878 0
M  V30 2806 H 278.681 5.38752 -4.4127 0
M  V30 2807 H 276.308 5.66859 -5.06533 0
M  V30 2808 N 277.883 0.443576 1.51229 0
M  V30 2809 C 279.16 -0.181038 1.9476 0
M  V30 2810 C 279.54 -1.59523 1.38259 0
M  V30 2811 O 278.888 -2.2122 0.572198 0
M  V30 2812 C 279.098 -0.152422 3.48667 0
M  V30 2813 C 280.446 -0.354923 4.23114 0
M  V30 2814 O 281.47 -0.230257 3.55455 0
M  V30 2815 O 280.329 -0.603674 5.43156 0
M  V30 2816 H 277.423 -0.1266 0.817252 0
M  V30 2817 H 279.969 0.502004 1.62105 0
M  V30 2818 H 278.741 0.836022 3.82265 0
M  V30 2819 H 278.364 -0.878107 3.87782 0
M  V30 2820 N 279.361 -1.56624 0.175154 0
M  V30 2821 C 280.609 -1.96609 -0.467885 0
M  V30 2822 C 280.93 -1.06238 -1.63519 0
M  V30 2823 O 280.2 -0.129523 -1.95471 0
M  V30 2824 H 278.78 -0.726008 -0.175845 0
M  V30 2825 H 281.442 -1.93195 0.257234 0
M  V30 2826 H 280.538 -3.00989 -0.825342 0
M  V30 2827 N 280.839 0.0985539 -1.57292 0
M  V30 2828 C 282.086 0.802678 -1.85912 0
M  V30 2829 C 282.414 1.78901 -0.763186 0
M  V30 2830 O 281.669 1.94178 0.243559 0
M  V30 2831 C 281.968 1.56927 -3.21105 0
M  V30 2832 C 281.634 0.725376 -4.45027 0
M  V30 2833 C 280.296 0.492726 -4.78671 0
M  V30 2834 C 282.648 0.138493 -5.21016 0
M  V30 2835 C 279.976 -0.336727 -5.85733 0
M  V30 2836 C 282.328 -0.678264 -6.28953 0
M  V30 2837 C 280.992 -0.921039 -6.61115 0
M  V30 2838 H 280.262 0.293721 -0.680301 0
M  V30 2839 H 282.909 0.0642841 -1.91392 0
M  V30 2840 H 281.214 2.37914 -3.11294 0
M  V30 2841 H 282.911 2.11841 -3.40477 0
M  V30 2842 H 279.501 0.916815 -4.18679 0
M  V30 2843 H 283.685 0.305404 -4.95359 0
M  V30 2844 H 278.941 -0.533836 -6.09065 0
M  V30 2845 H 283.115 -1.1399 -6.87007 0
M  V30 2846 H 280.742 -1.56556 -7.43905 0
M  V30 2847 N 282.317 1.53212 0.369288 0
M  V30 2848 C 283.542 1.73423 1.1375 0
M  V30 2849 C 283.967 0.460404 1.82378 0
M  V30 2850 O 283.325 -0.585298 1.71592 0
M  V30 2851 C 283.373 2.89769 2.1463 0
M  V30 2852 O 282.477 2.58119 3.21634 0
M  V30 2853 H 281.818 0.576061 0.330227 0
M  V30 2854 H 284.348 2.00083 0.427547 0
M  V30 2855 H 284.358 3.15829 2.58294 0
M  V30 2856 H 283.033 3.8217 1.64071 0
M  V30 2857 H 281.61 2.42864 2.82969 0
M  V30 2858 N 283.795 -0.628877 1.44509 0
M  V30 2859 C 284.705 -1.7694 1.54044 0
M  V30 2860 C 285.721 -1.68705 0.425987 0
M  V30 2861 O 286.897 -1.89442 0.683656 0
M  V30 2862 C 283.962 -3.13332 1.48405 0
M  V30 2863 C 283.023 -3.33181 2.70719 0
M  V30 2864 C 282.256 -4.63067 2.6534 0
M  V30 2865 O 282.479 -5.44017 1.71469 0
M  V30 2866 O 281.413 -4.85167 3.56226 0
M  V30 2867 H 285.239 -1.71848 2.50403 0
M  V30 2868 H 282.824 -0.790378 1.26781 0
M  V30 2869 H 284.706 -3.94634 1.47791 0
M  V30 2870 H 283.381 -3.1896 0.551898 0
M  V30 2871 H 282.288 -2.51549 2.769 0
M  V30 2872 H 283.621 -3.32416 3.62988 0
M  V30 2873 N 285.273 -1.31445 -0.869486 0
M  V30 2874 C 286.689 -1.10113 -1.15531 0
M  V30 2875 C 286.889 0.128087 -2.01092 0
M  V30 2876 O 285.945 0.817276 -2.38908 0
M  V30 2877 C 287.258 -2.37291 -1.84698 0
M  V30 2878 C 288.806 -2.42906 -1.97397 0
M  V30 2879 C 289.281 -3.69967 -2.69979 0
M  V30 2880 N 290.772 -3.70864 -2.77514 0
M  V30 2881 C 291.507 -4.65875 -3.34287 0
M  V30 2882 N 291.003 -5.71242 -3.91988 0
M  V30 2883 N 292.796 -4.53394 -3.3225 0
M  V30 2884 H 284.947 -2.1028 -0.299347 0
M  V30 2885 H 287.21 -0.927683 -0.195214 0
M  V30 2886 H 286.916 -3.27078 -1.29278 0
M  V30 2887 H 286.79 -2.47125 -2.84972 0
M  V30 2888 H 289.177 -1.53588 -2.51982 0
M  V30 2889 H 289.258 -2.37036 -0.961643 0
M  V30 2890 H 288.902 -4.59652 -2.16062 0
M  V30 2891 H 288.832 -3.73103 -3.7162 0
M  V30 2892 H 291.323 -2.94697 -2.36563 0
M  V30 2893 H 291.636 -6.39817 -4.33421 0
M  V30 2894 H 289.981 -5.75015 -3.90362 0
M  V30 2895 H 293.172 -3.70252 -2.8641 0
M  V30 2896 H 293.345 -5.27617 -3.76197 0
M  V30 2897 N 286.751 1.08385 -1.14413 0
M  V30 2898 C 287.998 1.80776 -0.912482 0
M  V30 2899 C 288.326 1.86236 0.560934 0
M  V30 2900 O 287.581 1.33431 1.43159 0
M  V30 2901 C 287.88 3.26273 -1.45879 0
M  V30 2902 C 287.546 3.4093 -2.95089 0
M  V30 2903 C 286.208 3.44638 -3.35824 0
M  V30 2904 C 288.56 3.44591 -3.91033 0
M  V30 2905 C 285.888 3.49597 -4.71167 0
M  V30 2906 C 288.24 3.51086 -5.26233 0
M  V30 2907 C 286.904 3.53067 -5.6648 0
M  V30 2908 H 286.174 0.661507 -0.333901 0
M  V30 2909 H 288.821 1.27613 -1.42784 0
M  V30 2910 H 287.126 3.82146 -0.864376 0
M  V30 2911 H 288.823 3.80839 -1.2555 0
M  V30 2912 H 285.413 3.38736 -2.62594 0
M  V30 2913 H 289.597 3.40957 -3.60641 0
M  V30 2914 H 284.853 3.49424 -5.0171 0
M  V30 2915 H 289.027 3.52864 -6.00383 0
M  V30 2916 H 286.654 3.56662 -6.71339 0
M  V30 2917 N 288.23 0.939286 1.26551 0
M  V30 2918 C 289.177 0.446088 2.26448 0
M  V30 2919 C 290.147 -0.493234 1.58608 0
M  V30 2920 O 291.332 -0.409857 1.86346 0
M  V30 2921 C 288.472 -0.284375 3.43926 0
M  V30 2922 C 287.585 0.690399 4.26448 0
M  V30 2923 C 286.72 -0.0610712 5.31165 0
M  V30 2924 C 285.759 0.905649 6.05363 0
M  V30 2925 N 284.896 0.186055 7.01853 0
M  V30 2926 H 289.736 1.30291 2.68008 0
M  V30 2927 H 287.273 0.65371 1.31776 0
M  V30 2928 H 289.231 -0.724313 4.10864 0
M  V30 2929 H 287.861 -1.10535 3.03285 0
M  V30 2930 H 286.913 1.24885 3.59316 0
M  V30 2931 H 288.225 1.42873 4.779 0
M  V30 2932 H 287.379 -0.56038 6.04106 0
M  V30 2933 H 286.118 -0.832297 4.80546 0
M  V30 2934 H 285.123 1.4161 5.3125 0
M  V30 2935 H 286.348 1.67685 6.58072 0
M  V30 2936 H 284.294 -0.566714 6.53548 0
M  V30 2937 H 284.211 0.863752 7.51049 0
M  V30 2938 H 285.479 -0.292221 7.78952 0
M  V30 2939 N 289.708 -1.40897 0.706093 0
M  V30 2940 C 290.954 -2.01352 0.241889 0
M  V30 2941 C 291.287 -1.55832 -1.15888 0
M  V30 2942 O 290.562 -0.774145 -1.7843 0
M  V30 2943 C 290.845 -3.58752 0.311311 0
M  V30 2944 C 290.698 -4.1437 1.74978 0
M  V30 2945 C 292.017 -4.38914 -0.322922 0
M  V30 2946 H 289.136 -0.731562 0.0893687 0
M  V30 2947 H 291.778 -1.67504 0.896802 0
M  V30 2948 H 289.928 -3.87718 -0.246302 0
M  V30 2949 H 291.6 -3.96239 2.36205 0
M  V30 2950 H 289.843 -3.69016 2.28057 0
M  V30 2951 H 290.514 -5.23532 1.74981 0
M  V30 2952 H 292.99 -4.15822 0.152089 0
M  V30 2953 H 291.866 -5.48358 -0.243855 0
M  V30 2954 H 292.127 -4.19176 -1.40513 0
M  V30 2955 N 291.186 -0.45159 -1.50991 0
M  V30 2956 C 292.116 0.342898 -2.30969 0
M  V30 2957 C 293.097 1.00815 -1.37005 0
M  V30 2958 O 294.282 1.00907 -1.65926 0
M  V30 2959 C 291.412 1.43637 -3.16205 0
M  V30 2960 C 290.366 0.893818 -4.18563 0
M  V30 2961 C 289.692 2.08411 -4.92411 0
M  V30 2962 C 290.992 -0.0815568 -5.22236 0
M  V30 2963 H 292.686 -0.324556 -2.97636 0
M  V30 2964 H 290.232 -0.157531 -1.43136 0
M  V30 2965 H 292.185 1.9995 -3.70942 0
M  V30 2966 H 290.909 2.13232 -2.47386 0
M  V30 2967 H 289.568 0.352798 -3.64898 0
M  V30 2968 H 289.216 2.76658 -4.20082 0
M  V30 2969 H 288.916 1.72741 -5.61636 0
M  V30 2970 H 290.44 2.65251 -5.49976 0
M  V30 2971 H 291.854 0.391742 -5.7196 0
M  V30 2972 H 290.251 -0.351551 -5.99069 0
M  V30 2973 H 291.321 -1.01374 -4.74185 0
M  V30 2974 N 292.664 1.56529 -0.183458 0
M  V30 2975 C 293.627 2.17324 0.728223 0
M  V30 2976 C 294.627 1.12453 1.14939 0
M  V30 2977 O 295.817 1.37902 1.06437 0
M  V30 2978 C 292.949 2.76591 1.99274 0
M  V30 2979 H 294.142 2.99241 0.198772 0
M  V30 2980 H 291.695 1.5616 0.0661391 0
M  V30 2981 H 292.43 1.98441 2.56499 0
M  V30 2982 H 292.215 3.5335 1.69959 0
M  V30 2983 H 293.705 3.23311 2.6431 0
M  V30 2984 N 294.142 -0.090211 1.57342 0
M  V30 2985 C 295.09 -1.12792 2.03422 0
M  V30 2986 C 296.084 -1.41182 0.936166 0
M  V30 2987 O 297.29 -1.40805 1.12133 0
M  V30 2988 H 293.665 -0.380986 0.648347 0
M  V30 2989 H 295.636 -0.71299 2.89757 0
M  V30 2990 C 294.385 -2.43855 2.47851 0
M  V30 2991 H 293.708 -2.22855 3.31927 0
M  V30 2992 H 295.148 -3.14955 2.83865 0
M  V30 2993 C 293.607 -3.08503 1.3538 0
M  V30 2994 O 294.137 -3.95805 0.685641 0
M  V30 2995 N 292.343 -2.68831 1.10355 0
M  V30 2996 H 291.89 -1.97929 1.64869 0
M  V30 2997 H 291.848 -3.12412 0.353031 0
M  V30 2998 N 295.62 -1.53406 -0.361157 0
M  V30 2999 C 296.552 -1.76446 -1.46286 0
M  V30 3000 C 297.565 -0.645322 -1.49464 0
M  V30 3001 O 298.754 -0.921681 -1.52864 0
M  V30 3002 C 295.854 -1.83332 -2.85031 0
M  V30 3003 C 295.027 -3.13033 -3.05498 0
M  V30 3004 C 294.086 -3.11104 -4.24383 0
M  V30 3005 O 293.112 -3.84888 -4.19344 0
M  V30 3006 N 294.314 -2.32234 -5.32022 0
M  V30 3007 H 297.079 -2.71508 -1.26899 0
M  V30 3008 H 294.64 -1.52238 -0.550915 0
M  V30 3009 H 296.632 -1.79514 -3.62708 0
M  V30 3010 H 295.202 -0.955342 -2.97644 0
M  V30 3011 H 294.422 -3.30119 -2.15442 0
M  V30 3012 H 295.71 -3.9874 -3.16044 0
M  V30 3013 H 295.108 -1.71807 -5.38979 0
M  V30 3014 H 293.665 -2.3423 -6.08259 0
M  V30 3015 N 297.098 0.621204 -1.44841 0
M  V30 3016 C 298.328 1.40548 -1.51426 0
M  V30 3017 C 298.736 1.88673 -0.141083 0
M  V30 3018 O 298.079 1.62053 0.865128 0
M  V30 3019 C 298.141 2.65325 -2.42576 0
M  V30 3020 C 297.805 2.3893 -3.89566 0
M  V30 3021 C 298.802 2.00138 -4.79834 0
M  V30 3022 C 296.487 2.52263 -4.3436 0
M  V30 3023 C 298.481 1.75021 -6.129 0
M  V30 3024 C 296.168 2.2676 -5.67471 0
M  V30 3025 C 297.166 1.88199 -6.56559 0
M  V30 3026 O 296.854 1.62986 -7.87204 0
M  V30 3027 H 296.586 0.437122 -0.515655 0
M  V30 3028 H 299.14 0.765987 -1.90583 0
M  V30 3029 H 297.37 3.31947 -1.98364 0
M  V30 3030 H 299.059 3.27347 -2.39998 0
M  V30 3031 H 299.825 1.89386 -4.46495 0
M  V30 3032 H 295.704 2.81246 -3.65269 0
M  V30 3033 H 299.248 1.44848 -6.82396 0
M  V30 3034 H 295.145 2.37125 -6.00368 0
M  V30 3035 H 295.913 1.7715 -7.991 0
M  V30 3036 N 298.576 1.31904 0.862503 0
M  V30 3037 C 299.523 1.20182 1.9704 0
M  V30 3038 C 300.493 0.0858247 1.65878 0
M  V30 3039 O 301.678 0.26 1.8902 0
M  V30 3040 C 298.818 0.922797 3.32533 0
M  V30 3041 C 297.931 2.12284 3.76244 0
M  V30 3042 C 297.066 1.77996 5.00491 0
M  V30 3043 C 296.105 2.94366 5.36671 0
M  V30 3044 N 295.242 2.60223 6.52095 0
M  V30 3045 H 300.082 2.14951 2.06398 0
M  V30 3046 H 297.619 1.06917 1.01031 0
M  V30 3047 H 299.577 0.741548 4.10557 0
M  V30 3048 H 298.207 0.0119227 3.22798 0
M  V30 3049 H 297.259 2.41461 2.9394 0
M  V30 3050 H 298.571 2.99357 3.98982 0
M  V30 3051 H 297.725 1.56377 5.862 0
M  V30 3052 H 296.464 0.881252 4.79672 0
M  V30 3053 H 295.469 3.16625 4.49476 0
M  V30 3054 H 296.694 3.84957 5.59451 0
M  V30 3055 H 294.64 1.72884 6.32809 0
M  V30 3056 H 294.557 3.40827 6.74814 0
M  V30 3057 H 295.825 2.42016 7.40978 0
M  V30 3058 N 300.054 -1.07777 1.14986 0
M  V30 3059 C 301.279 -1.84558 0.946213 0
M  V30 3060 C 301.704 -1.81323 -0.500362 0
M  V30 3061 O 301.062 -1.20301 -1.35637 0
M  V30 3062 C 301.11 -3.29736 1.45968 0
M  V30 3063 O 300.214 -4.07149 0.65601 0
M  V30 3064 H 299.555 -0.571641 0.33782 0
M  V30 3065 H 302.085 -1.35991 1.52865 0
M  V30 3066 H 302.095 -3.80574 1.47063 0
M  V30 3067 H 300.77 -3.31406 2.51283 0
M  V30 3068 H 299.347 -3.65994 0.714322 0
M  V30 3069 N 301.532 -0.945985 -1.26051 0
M  V30 3070 C 302.781 -0.591836 -1.92822 0
M  V30 3071 C 303.094 0.873956 -1.7499 0
M  V30 3072 O 304.3 1.33769 -2.36259 0
M  V30 3073 C 302.756 -1.00776 -3.45503 0
M  V30 3074 C 302.364 -2.4955 -3.7206 0
M  V30 3075 C 304.108 -0.725735 -4.1825 0
M  V30 3076 C 302.015 -2.84988 -5.18205 0
M  V30 3077 H 300.945 -0.217635 -0.721908 0
M  V30 3078 H 303.596 -1.14927 -1.43052 0
M  V30 3079 H 301.978 -0.378812 -3.94184 0
M  V30 3080 H 303.152 -3.1739 -3.34066 0
M  V30 3081 H 301.467 -2.75133 -3.12555 0
M  V30 3082 H 304.064 -0.966771 -5.25887 0
M  V30 3083 H 304.407 0.337639 -4.14929 0
M  V30 3084 H 304.94 -1.31463 -3.7545 0
M  V30 3085 H 301.679 -3.90307 -5.26631 0
M  V30 3086 H 301.199 -2.21813 -5.57278 0
M  V30 3087 H 302.878 -2.73712 -5.86252 0
M  V30 3088 N 303.011 1.40521 -0.713556 0
M  V30 3089 C 304.241 2.0494 -0.261395 0
M  V30 3090 C 304.649 1.53861 1.10107 0
M  V30 3091 O 303.992 0.689321 1.70276 0
M  V30 3092 C 304.054 3.59138 -0.161227 0
M  V30 3093 C 303.718 4.33096 -1.45865 0
M  V30 3094 C 304.715 4.61182 -2.40016 0
M  V30 3095 C 302.4 4.72043 -1.71701 0
M  V30 3096 C 304.394 5.27196 -3.58251 0
M  V30 3097 C 302.081 5.37789 -2.90218 0
M  V30 3098 C 303.079 5.65295 -3.83315 0
M  V30 3099 O 302.767 6.29683 -4.99754 0
M  V30 3100 H 302.499 0.666041 -0.115608 0
M  V30 3101 H 305.053 1.80954 -0.971849 0
M  V30 3102 H 303.283 3.81936 0.605153 0
M  V30 3103 H 304.972 4.05091 0.256105 0
M  V30 3104 H 305.738 4.31559 -2.21318 0
M  V30 3105 H 301.617 4.50003 -1.00092 0
M  V30 3106 H 305.161 5.48582 -4.30934 0
M  V30 3107 H 301.058 5.66831 -3.08825 0
M  V30 3108 H 301.826 6.4818 -4.99805 0
M  V30 3109 N 304.489 0.459591 1.5075 0
M  V30 3110 C 305.9 0.00171547 1.867 0
M  V30 3111 C 306.251 -1.39934 1.37525 0
M  V30 3112 O 305.376 -2.03523 0.735349 0
M  V30 3113 C 305.971 -0.00366298 3.388 0
M  V30 3114 C 304.53 -0.406026 3.74204 0
M  V30 3115 C 303.677 0.38673 2.7459 0
M  V30 3116 H 306.628 0.674413 1.43657 0
M  V30 3117 H 306.649 -0.808371 3.71814 0
M  V30 3118 H 306.161 1.01617 3.74561 0
M  V30 3119 H 304.262 -1.43063 3.4404 0
M  V30 3120 H 304.375 -0.115362 4.78961 0
M  V30 3121 H 302.739 -0.158019 2.54209 0
M  V30 3122 H 303.522 1.40585 3.13194 0
M  V30 3123 N 305.967 -1.56429 0.191757 0
M  V30 3124 C 307.195 -2.01867 -0.453586 0
M  V30 3125 C 307.61 -1.07191 -1.5542 0
M  V30 3126 O 306.967 -0.0762108 -1.82341 0
M  V30 3127 C 307.018 -3.47017 -1.013 0
M  V30 3128 O 306.739 -4.38078 0.0437005 0
M  V30 3129 C 308.24 -4.07956 -1.73456 0
M  V30 3130 H 305.46 -0.661211 -0.114199 0
M  V30 3131 H 308.004 -2.02295 0.299483 0
M  V30 3132 H 306.159 -3.47298 -1.71647 0
M  V30 3133 H 306.573 -5.23178 -0.372212 0
M  V30 3134 H 308.047 -5.1138 -2.07833 0
M  V30 3135 H 308.524 -3.51222 -2.63704 0
M  V30 3136 H 309.13 -4.11437 -1.07702 0
M  V30 3137 N 307.445 0.0818655 -1.57387 0
M  V30 3138 C 308.375 1.09885 -2.06028 0
M  V30 3139 C 309.356 1.4098 -0.951774 0
M  V30 3140 O 310.541 1.50781 -1.22387 0
M  V30 3141 C 307.671 2.4151 -2.4958 0
M  V30 3142 C 306.625 2.24792 -3.64215 0
M  V30 3143 C 305.951 3.61712 -3.93787 0
M  V30 3144 C 307.251 1.67749 -4.94629 0
M  V30 3145 H 308.945 0.694128 -2.91243 0
M  V30 3146 H 306.491 0.332448 -1.4011 0
M  V30 3147 H 308.444 3.12939 -2.82219 0
M  V30 3148 H 307.168 2.83943 -1.61381 0
M  V30 3149 H 305.827 1.55807 -3.31843 0
M  V30 3150 H 305.475 4.01697 -3.02735 0
M  V30 3151 H 305.175 3.51368 -4.70971 0
M  V30 3152 H 306.699 4.34587 -4.28913 0
M  V30 3153 H 308.113 2.29032 -5.25564 0
M  V30 3154 H 306.51 1.68128 -5.76067 0
M  V30 3155 H 307.58 0.638059 -4.80684 0
M  V30 3156 N 308.923 1.53595 0.353017 0
M  V30 3157 C 309.833 1.83897 1.45667 0
M  V30 3158 C 310.849 0.728334 1.58023 0
M  V30 3159 O 312.025 1.01968 1.73679 0
M  V30 3160 C 309.09 2.03383 2.80778 0
M  V30 3161 C 308.151 3.27262 2.77845 0
M  V30 3162 C 307.384 3.45809 4.06512 0
M  V30 3163 O 307.607 2.68387 5.03314 0
M  V30 3164 O 306.541 4.39207 4.11559 0
M  V30 3165 H 310.367 2.77686 1.2298 0
M  V30 3166 H 307.952 1.39132 0.544308 0
M  V30 3167 H 309.834 2.17698 3.60812 0
M  V30 3168 H 308.509 1.12783 3.03417 0
M  V30 3169 H 307.416 3.18359 1.96465 0
M  V30 3170 H 308.749 4.17824 2.60161 0
M  V30 3171 N 310.401 -0.613514 1.45168 0
M  V30 3172 C 311.65 -1.36874 1.4815 0
M  V30 3173 C 311.963 -1.952 0.124982 0
M  V30 3174 O 313.169 -2.71481 0.0324176 0
M  V30 3175 C 311.625 -2.47905 2.60904 0
M  V30 3176 C 311.233 -1.96016 4.02842 0
M  V30 3177 C 312.977 -3.24965 2.73126 0
M  V30 3178 C 310.884 -3.04494 5.06988 0
M  V30 3179 H 309.814 -0.514428 0.551253 0
M  V30 3180 H 312.465 -0.658182 1.7129 0
M  V30 3181 H 310.847 -3.21618 2.31037 0
M  V30 3182 H 312.021 -1.29051 4.4236 0
M  V30 3183 H 310.336 -1.31719 3.95018 0
M  V30 3184 H 312.933 -4.05865 3.48106 0
M  V30 3185 H 313.276 -3.75588 1.79553 0
M  V30 3186 H 313.809 -2.5835 3.0249 0
M  V30 3187 H 310.548 -2.58795 6.0225 0
M  V30 3188 H 310.068 -3.70044 4.72046 0
M  V30 3189 H 311.747 -3.68976 5.31475 0
M  V30 3190 N 311.879 -1.3236 -0.855495 0
M  V30 3191 C 313.156 -1.13491 -1.59309 0
M  V30 3192 C 313.536 0.30503 -2.08885 0
M  V30 3193 O 312.884 1.30151 -1.87811 0
M  V30 3194 C 313.094 -2.16176 -2.73987 0
M  V30 3195 C 314.442 -2.49463 -3.43589 0
M  V30 3196 O 315.466 -2.14715 -2.84211 0
M  V30 3197 O 314.325 -3.09027 -4.50738 0
M  V30 3198 H 311.419 -0.437887 -0.701559 0
M  V30 3199 H 313.965 -1.43887 -0.899696 0
M  V30 3200 H 312.737 -3.1297 -2.34873 0
M  V30 3201 H 312.36 -1.86769 -3.51003 0
M  V30 3202 N 313.357 1.07166 -1.15556 0
M  V30 3203 C 314.606 1.79181 -0.926132 0
M  V30 3204 C 314.919 1.87768 0.547967 0
M  V30 3205 O 316.125 2.56323 0.895036 0
M  V30 3206 C 314.581 3.22 -1.60761 0
M  V30 3207 C 314.189 3.21607 -3.11886 0
M  V30 3208 C 315.933 3.9861 -1.4598 0
M  V30 3209 C 313.84 4.59092 -3.72812 0
M  V30 3210 H 312.77 0.67154 -0.342856 0
M  V30 3211 H 315.421 1.2027 -1.3859 0
M  V30 3212 H 313.803 3.81115 -1.07553 0
M  V30 3213 H 314.977 2.72127 -3.71865 0
M  V30 3214 H 313.292 2.58495 -3.2645 0
M  V30 3215 H 315.889 5.00225 -1.88888 0
M  V30 3216 H 316.232 4.143 -0.407541 0
M  V30 3217 H 316.765 3.45996 -1.96295 0
M  V30 3218 H 313.504 4.48606 -4.77946 0
M  V30 3219 H 313.024 5.08803 -3.17616 0
M  V30 3220 H 314.703 5.28059 -3.73848 0
M  V30 3221 N 314.835 0.952656 1.25548 0
M  V30 3222 C 315.745 0.47782 2.29682 0
M  V30 3223 C 316.761 -0.453859 1.67977 0
M  V30 3224 O 317.937 -0.330587 1.98668 0
M  V30 3225 C 315.002 -0.238655 3.45878 0
M  V30 3226 C 314.063 0.730994 4.23031 0
M  V30 3227 C 313.296 0.0486165 5.33678 0
M  V30 3228 O 313.519 -1.16612 5.58353 0
M  V30 3229 O 312.453 0.733152 5.97418 0
M  V30 3230 H 316.279 1.34312 2.72386 0
M  V30 3231 H 313.864 0.719026 1.30959 0
M  V30 3232 H 315.746 -0.641774 4.16484 0
M  V30 3233 H 314.421 -1.07916 3.05181 0
M  V30 3234 H 313.328 1.18428 3.5486 0
M  V30 3235 H 314.661 1.53946 4.67506 0
M  V30 3236 N 316.313 -1.40141 0.720998 0
M  V30 3237 C 317.561 -2.0039 0.262323 0
M  V30 3238 C 317.882 -1.57469 -1.15015 0
M  V30 3239 O 317.152 -0.816582 -1.78069 0
M  V30 3240 H 315.732 -0.741063 0.093996 0
M  V30 3241 H 318.394 -1.71398 0.927835 0
M  V30 3242 H 317.49 -3.10658 0.299671 0
M  V30 3243 N 317.792 -0.46758 -1.50504 0
M  V30 3244 C 318.702 0.33382 -2.32213 0
M  V30 3245 C 319.718 0.999323 -1.42441 0
M  V30 3246 O 320.894 0.988068 -1.75497 0
M  V30 3247 C 317.959 1.4035 -3.17022 0
M  V30 3248 C 317.02 0.754961 -4.2261 0
M  V30 3249 C 316.253 1.77367 -5.03365 0
M  V30 3250 O 316.476 2.99976 -4.8515 0
M  V30 3251 O 315.41 1.34744 -5.86624 0
M  V30 3252 H 319.236 -0.334067 -3.01857 0
M  V30 3253 H 316.821 -0.229496 -1.47627 0
M  V30 3254 H 318.703 2.02318 -3.69656 0
M  V30 3255 H 317.378 2.05492 -2.5011 0
M  V30 3256 H 316.285 0.0964244 -3.73976 0
M  V30 3257 H 317.618 0.146545 -4.91982 0
M  V30 3258 N 319.27 1.56325 -0.20005 0
M  V30 3259 C 320.2 2.22318 0.713916 0
M  V30 3260 C 321.181 1.18788 1.21752 0
M  V30 3261 O 322.366 1.47309 1.26545 0
M  V30 3262 C 319.496 2.88639 1.93144 0
M  V30 3263 C 318.45 3.98457 1.56255 0
M  V30 3264 C 317.776 4.51967 2.85709 0
M  V30 3265 C 319.076 5.16612 0.768747 0
M  V30 3266 H 320.77 2.98952 0.163755 0
M  V30 3267 H 318.316 1.43792 0.0773219 0
M  V30 3268 H 320.269 3.33491 2.57608 0
M  V30 3269 H 318.993 2.09419 2.50621 0
M  V30 3270 H 317.652 3.54305 0.941471 0
M  V30 3271 H 317.3 3.69503 3.41287 0
M  V30 3272 H 317 5.26071 2.6177 0
M  V30 3273 H 318.524 4.99523 3.51154 0
M  V30 3274 H 319.938 5.57977 1.3166 0
M  V30 3275 H 318.335 5.96812 0.627286 0
M  V30 3276 H 319.405 4.84358 -0.229168 0
M  V30 3277 N 320.748 -0.0735177 1.57428 0
M  V30 3278 C 321.68 -1.11423 2.00294 0
M  V30 3279 C 322.693 -1.35084 0.908637 0
M  V30 3280 O 323.882 -1.33355 1.18654 0
M  V30 3281 C 320.982 -2.46548 2.32523 0
M  V30 3282 C 320.155 -2.42867 3.63778 0
M  V30 3283 C 319.214 -3.60087 3.83697 0
M  V30 3284 O 318.24 -3.41595 4.55304 0
M  V30 3285 N 319.442 -4.80372 3.25919 0
M  V30 3286 H 322.207 -0.749206 2.90184 0
M  V30 3287 H 319.768 -0.262195 1.59763 0
M  V30 3288 H 321.76 -3.23607 2.43024 0
M  V30 3289 H 320.33 -2.75059 1.48531 0
M  V30 3290 H 319.55 -1.51206 3.64047 0
M  V30 3291 H 320.838 -2.37506 4.49965 0
M  V30 3292 H 320.236 -4.983 2.67795 0
M  V30 3293 H 318.793 -5.54948 3.41871 0
M  V30 3294 N 322.226 -1.5378 -0.344866 0
M  V30 3295 C 323.173 -1.81676 -1.42346 0
M  V30 3296 C 324.143 -0.662376 -1.52321 0
M  V30 3297 O 325.328 -0.906675 -1.67881 0
M  V30 3298 C 322.468 -2.03087 -2.79015 0
M  V30 3299 C 321.581 -3.30799 -2.77842 0
M  V30 3300 C 320.716 -3.42285 -4.0622 0
M  V30 3301 C 319.755 -4.6395 -3.9927 0
M  V30 3302 N 318.892 -4.72477 -5.19336 0
M  V30 3303 H 323.732 -2.73703 -1.17858 0
M  V30 3304 H 321.269 -1.35568 -0.570949 0
M  V30 3305 H 323.227 -2.1349 -3.58438 0
M  V30 3306 H 321.857 -1.14375 -3.01858 0
M  V30 3307 H 320.909 -3.29244 -1.90533 0
M  V30 3308 H 322.221 -4.20314 -2.68584 0
M  V30 3309 H 321.375 -3.52113 -4.94066 0
M  V30 3310 H 320.114 -2.50823 -4.18258 0
M  V30 3311 H 319.119 -4.54201 -3.09809 0
M  V30 3312 H 320.344 -5.56775 -3.88817 0
M  V30 3313 H 318.29 -3.83924 -5.3192 0
M  V30 3314 H 318.207 -5.55927 -5.12329 0
M  V30 3315 H 319.475 -4.86613 -6.08957 0
M  V30 3316 N 323.704 0.605807 -1.45491 0
M  V30 3317 C 324.634 1.72709 -1.57143 0
M  V30 3318 C 325.615 1.6476 -0.422884 0
M  V30 3319 O 326.8 1.83132 -0.646247 0
M  V30 3320 C 323.93 3.11316 -1.53948 0
M  V30 3321 C 322.884 3.34077 -2.67537 0
M  V30 3322 C 322.21 4.72975 -2.49397 0
M  V30 3323 C 323.51 3.24158 -4.09535 0
M  V30 3324 H 325.204 1.63214 -2.51001 0
M  V30 3325 H 322.75 0.78379 -1.208 0
M  V30 3326 H 324.703 3.89557 -1.60696 0
M  V30 3327 H 323.427 3.21655 -0.566205 0
M  V30 3328 H 322.086 2.58227 -2.6022 0
M  V30 3329 H 321.734 4.8005 -1.50205 0
M  V30 3330 H 321.434 4.8916 -3.25571 0
M  V30 3331 H 322.958 5.53414 -2.58002 0
M  V30 3332 H 324.372 3.92271 -4.18086 0
M  V30 3333 H 322.769 3.51872 -4.86113 0
M  V30 3334 H 323.839 2.2157 -4.31317 0
M  V30 3335 N 325.182 1.32811 0.848464 0
M  V30 3336 C 326.129 1.22265 1.95755 0
M  V30 3337 C 327.099 0.103413 1.65778 0
M  V30 3338 O 328.284 0.280033 1.88734 0
M  V30 3339 C 325.424 0.958014 3.31536 0
M  V30 3340 C 324.537 2.16262 3.73971 0
M  V30 3341 C 323.672 1.83295 4.98575 0
M  V30 3342 C 322.711 3.00041 5.33518 0
M  V30 3343 N 321.848 2.67125 6.49299 0
M  V30 3344 H 326.688 2.17128 2.04107 0
M  V30 3345 H 324.225 1.07982 0.998913 0
M  V30 3346 H 326.183 0.785052 4.09747 0
M  V30 3347 H 324.813 0.046159 3.22767 0
M  V30 3348 H 323.865 2.44565 2.91362 0
M  V30 3349 H 325.177 3.03572 3.95785 0
M  V30 3350 H 324.331 1.62586 5.84509 0
M  V30 3351 H 323.07 0.932078 4.7871 0
M  V30 3352 H 322.075 3.21374 4.46093 0
M  V30 3353 H 323.3 3.90869 5.55336 0
M  V30 3354 H 321.246 1.79586 6.3094 0
M  V30 3355 H 321.163 3.47965 6.71161 0
M  V30 3356 H 322.431 2.49861 7.3837 0
M  V30 3357 N 326.66 -1.06551 1.16123 0
M  V30 3358 C 327.908 -1.78947 0.939267 0
M  V30 3359 C 328.229 -1.87532 -0.534476 0
M  V30 3360 O 327.499 -1.38211 -1.38833 0
M  V30 3361 H 326.079 -0.662807 0.344523 0
M  V30 3362 H 328.741 -1.28725 1.46342 0
M  V30 3363 H 327.837 -2.81117 1.35572 0
M  V30 3364 N 328.138 -0.959301 -1.25041 0
M  V30 3365 C 329.368 -0.63303 -1.96663 0
M  V30 3366 C 329.776 0.800031 -1.71453 0
M  V30 3367 O 329.119 1.54736 -0.99008 0
M  V30 3368 C 329.181 -0.817523 -3.50081 0
M  V30 3369 C 328.845 -2.22863 -3.98975 0
M  V30 3370 C 329.842 -3.20569 -4.09306 0
M  V30 3371 C 327.527 -2.55407 -4.32519 0
M  V30 3372 C 329.521 -4.4891 -4.52503 0
M  V30 3373 C 327.208 -3.83976 -4.754 0
M  V30 3374 C 328.206 -4.8054 -4.85356 0
M  V30 3375 O 327.894 -6.06817 -5.27284 0
M  V30 3376 H 327.626 -0.235866 -0.633516 0
M  V30 3377 H 330.18 -1.2874 -1.60047 0
M  V30 3378 H 328.41 -0.105992 -3.86555 0
M  V30 3379 H 330.099 -0.491604 -4.02912 0
M  V30 3380 H 330.865 -2.96753 -3.83618 0
M  V30 3381 H 326.744 -1.8097 -4.23994 0
M  V30 3382 H 330.288 -5.24283 -4.60188 0
M  V30 3383 H 326.185 -4.07596 -5.00535 0
M  V30 3384 H 326.953 -6.10262 -5.45457 0
M  V30 3385 N 329.616 1.39756 -0.72842 0
M  V30 3386 C 330.549 2.28176 -0.0330172 0
M  V30 3387 C 331.527 1.44035 0.754501 0
M  V30 3388 O 332.711 1.73434 0.738445 0
M  V30 3389 C 329.838 3.24795 0.960504 0
M  V30 3390 C 328.884 4.25693 0.262264 0
M  V30 3391 S 329.717 5.25714 -1.01906 0
M  V30 3392 C 330.873 6.25894 -0.0279717 0
M  V30 3393 H 331.106 2.86807 -0.78287 0
M  V30 3394 H 328.639 1.45382 -0.519951 0
M  V30 3395 H 330.597 3.80983 1.52846 0
M  V30 3396 H 329.258 2.65196 1.68315 0
M  V30 3397 H 328.451 4.93699 1.01379 0
M  V30 3398 H 328.053 3.7327 -0.233482 0
M  V30 3399 H 330.345 6.72585 0.814621 0
M  V30 3400 H 331.288 7.04876 -0.67499 0
M  V30 3401 H 331.696 5.63466 0.341489 0
M  V30 3402 N 331.094 0.475555 1.50254 0
M  V30 3403 C 332.004 -0.321501 2.32387 0
M  V30 3404 C 333.02 -0.991755 1.42969 0
M  V30 3405 O 334.196 -0.978747 1.76018 0
M  V30 3406 C 331.261 -1.38667 3.17762 0
M  V30 3407 C 330.322 -0.732538 4.23004 0
M  V30 3408 C 329.555 -1.74695 5.04299 0
M  V30 3409 O 329.778 -2.97399 4.86734 0
M  V30 3410 O 328.712 -1.31631 5.8733 0
M  V30 3411 H 332.538 0.350071 3.01676 0
M  V30 3412 H 330.123 0.237321 1.47503 0
M  V30 3413 H 332.005 -2.00354 3.70724 0
M  V30 3414 H 330.68 -2.04163 2.51196 0
M  V30 3415 H 329.587 -0.0765902 3.74022 0
M  V30 3416 H 330.92 -0.120452 4.92053 0
M  V30 3417 N 332.573 -1.56217 0.208337 0
M  V30 3418 C 333.52 -2.19699 -0.707192 0
M  V30 3419 C 334.49 -1.14836 -1.20008 0
M  V30 3420 O 335.675 -1.4314 -1.26157 0
M  V30 3421 C 332.815 -2.87061 -1.91546 0
M  V30 3422 C 331.928 -4.06483 -1.46271 0
M  V30 3423 C 331.063 -4.61665 -2.62752 0
M  V30 3424 C 330.102 -5.73417 -2.14147 0
M  V30 3425 N 329.239 -6.22948 -3.23853 0
M  V30 3426 H 334.079 -2.97575 -0.159111 0
M  V30 3427 H 331.616 -1.46948 -0.0667874 0
M  V30 3428 H 333.574 -3.24294 -2.62468 0
M  V30 3429 H 332.204 -2.11725 -2.43664 0
M  V30 3430 H 331.256 -3.74825 -0.648886 0
M  V30 3431 H 332.568 -4.87271 -1.06622 0
M  V30 3432 H 331.722 -5.01272 -3.41776 0
M  V30 3433 H 330.461 -3.80013 -3.05682 0
M  V30 3434 H 329.466 -5.33326 -1.33581 0
M  V30 3435 H 330.691 -6.56897 -1.72232 0
M  V30 3436 H 328.637 -5.44213 -3.6629 0
M  V30 3437 H 328.554 -6.98823 -2.88414 0
M  V30 3438 H 329.822 -6.6721 -4.03052 0
M  V30 3439 N 334.051 0.0651679 -1.57465 0
M  V30 3440 C 335.3 0.761916 -1.86756 0
M  V30 3441 C 335.613 1.78406 -0.801925 0
M  V30 3442 O 336.819 2.53084 -0.982885 0
M  V30 3443 C 335.275 1.40603 -3.31299 0
M  V30 3444 C 334.883 0.422115 -4.46007 0
M  V30 3445 C 336.627 2.08476 -3.69781 0
M  V30 3446 C 334.534 1.07252 -5.81593 0
M  V30 3447 H 333.464 0.288308 -0.696702 0
M  V30 3448 H 336.115 0.015344 -1.83494 0
M  V30 3449 H 334.497 2.20109 -3.29193 0
M  V30 3450 H 335.671 -0.343613 -4.59517 0
M  V30 3451 H 333.986 -0.152527 -4.16121 0
M  V30 3452 H 336.583 2.57925 -4.68379 0
M  V30 3453 H 336.926 2.88712 -2.99919 0
M  V30 3454 H 337.459 1.35792 -3.73905 0
M  V30 3455 H 334.198 0.310342 -6.54765 0
M  V30 3456 H 333.718 1.80895 -5.71872 0
M  V30 3457 H 335.397 1.59043 -6.27148 0
M  V30 3458 N 335.529 1.53961 0.336706 0
M  V30 3459 C 336.476 1.82428 1.41381 0
M  V30 3460 C 337.446 0.670444 1.51968 0
M  V30 3461 O 338.631 0.915565 1.67398 0
M  V30 3462 C 335.771 2.04564 2.77934 0
M  V30 3463 C 334.884 3.32267 2.76084 0
M  V30 3464 C 334.019 3.44434 4.04399 0
M  V30 3465 C 333.058 4.66061 3.96804 0
M  V30 3466 N 332.195 4.75224 5.16823 0
M  V30 3467 H 337.035 2.74324 1.16405 0
M  V30 3468 H 334.572 1.35869 0.563752 0
M  V30 3469 H 336.53 2.15388 3.57301 0
M  V30 3470 H 335.16 1.15974 3.01247 0
M  V30 3471 H 334.212 3.3025 1.88784 0
M  V30 3472 H 335.524 4.21733 2.66351 0
M  V30 3473 H 334.678 3.54728 4.92192 0
M  V30 3474 H 333.417 2.53037 4.16921 0
M  V30 3475 H 332.422 4.55838 3.07396 0
M  V30 3476 H 333.647 5.58829 3.85858 0
M  V30 3477 H 331.593 3.86739 5.29876 0
M  V30 3478 H 331.51 5.58636 5.09374 0
M  V30 3479 H 332.778 4.89835 6.06367 0
M  V30 3480 N 337.007 -0.598083 1.45811 0
M  V30 3481 C 338.418 -1.18011 1.44673 0
M  V30 3482 C 338.769 -1.95378 0.179364 0
M  V30 3483 O 337.894 -2.04124 -0.718509 0
M  V30 3484 C 338.489 -2.14677 2.62105 0
M  V30 3485 C 337.048 -2.68236 2.64057 0
M  V30 3486 C 336.195 -1.43816 2.37091 0
M  V30 3487 H 339.146 -0.38686 1.53913 0
M  V30 3488 H 339.167 -2.97878 2.36746 0
M  V30 3489 H 338.679 -1.5834 3.5433 0
M  V30 3490 H 336.78 -3.28486 1.75864 0
M  V30 3491 H 336.893 -3.12021 3.63566 0
M  V30 3492 H 335.257 -1.731 1.86838 0
M  V30 3493 H 336.04 -0.893333 3.31473 0
M  V30 3494 N 338.485 -1.33259 -0.841409 0
M  V30 3495 C 339.418 -1.1764 -1.95541 0
M  V30 3496 C 340.396 -0.072501 -1.62438 0
M  V30 3497 O 341.58 -0.23427 -1.87039 0
M  V30 3498 C 338.707 -0.803794 -3.29024 0
M  V30 3499 C 337.753 -1.91482 -3.81099 0
M  V30 3500 S 338.586 -3.52538 -4.03085 0
M  V30 3501 C 339.742 -3.17279 -5.39523 0
M  V30 3502 H 339.975 -2.11941 -2.08491 0
M  V30 3503 H 337.508 -1.18072 -0.9949 0
M  V30 3504 H 339.466 -0.595592 -4.06156 0
M  V30 3505 H 338.127 0.120574 -3.13868 0
M  V30 3506 H 337.32 -1.60742 -4.7768 0
M  V30 3507 H 336.922 -2.07956 -3.10854 0
M  V30 3508 H 339.214 -2.67946 -6.22263 0
M  V30 3509 H 340.157 -4.1293 -5.75234 0
M  V30 3510 H 340.565 -2.53943 -5.04156 0
M  V30 3511 N 339.963 1.05934 -1.16686 0
M  V30 3512 C 341.209 1.79065 -0.95203 0
M  V30 3513 C 341.542 1.87147 0.518629 0
M  V30 3514 O 340.817 1.36574 1.38484 0
M  V30 3515 C 341.1 3.23359 -1.58464 0
M  V30 3516 C 340.953 3.23336 -3.12689 0
M  V30 3517 C 342.272 4.21004 -1.28232 0
M  V30 3518 H 339.391 0.65005 -0.34728 0
M  V30 3519 H 342.033 1.23868 -1.44072 0
M  V30 3520 H 340.183 3.70493 -1.16908 0
M  V30 3521 H 341.855 2.84336 -3.6325 0
M  V30 3522 H 340.098 2.61886 -3.4583 0
M  V30 3523 H 340.769 4.25144 -3.52075 0
M  V30 3524 H 343.245 3.8233 -1.64203 0
M  V30 3525 H 342.121 5.20225 -1.75092 0
M  V30 3526 H 342.382 4.41639 -0.201791 0
M  V30 3527 N 341.441 0.965919 1.2453 0
M  V30 3528 C 342.857 0.67216 1.44756 0
M  V30 3529 C 343.057 -0.766609 1.86347 0
M  V30 3530 O 342.113 -1.5407 2.00047 0
M  V30 3531 C 343.426 1.65473 2.51076 0
M  V30 3532 C 344.974 1.66716 2.64905 0
M  V30 3533 C 345.449 2.63766 3.74421 0
M  V30 3534 N 346.94 2.62198 3.81846 0
M  V30 3535 C 347.675 3.33966 4.66106 0
M  V30 3536 N 347.171 4.15245 5.54566 0
M  V30 3537 N 348.964 3.22799 4.60171 0
M  V30 3538 H 341.115 1.89553 0.958293 0
M  V30 3539 H 343.378 0.815979 0.482579 0
M  V30 3540 H 343.084 2.68296 2.27399 0
M  V30 3541 H 342.958 1.4261 3.49202 0
M  V30 3542 H 345.345 0.646057 2.87941 0
M  V30 3543 H 345.426 1.93642 1.67142 0
M  V30 3544 H 345.07 3.6601 3.52135 0
M  V30 3545 H 345 2.34121 4.71694 0
M  V30 3546 H 347.491 2.032 3.18619 0
M  V30 3547 H 347.804 4.66898 6.15814 0
M  V30 3548 H 346.149 4.1934 5.54237 0
M  V30 3549 H 349.34 2.58764 3.90075 0
M  V30 3550 H 349.513 3.78994 5.25612 0
M  V30 3551 N 342.919 -1.39368 0.735821 0
M  V30 3552 C 344.196 -1.94465 0.210395 0
M  V30 3553 C 344.576 -1.67254 -1.28799 0
M  V30 3554 O 343.924 -1.00123 -2.05396 0
M  V30 3555 C 344.134 -3.4472 0.544897 0
M  V30 3556 C 345.482 -4.21708 0.494689 0
M  V30 3557 O 346.506 -3.52922 0.482136 0
M  V30 3558 O 345.365 -5.44299 0.489947 0
M  V30 3559 H 342.459 -0.826096 0.0386666 0
M  V30 3560 H 345.005 -1.48863 0.814735 0
M  V30 3561 H 343.777 -3.57963 1.58045 0
M  V30 3562 H 343.4 -3.97502 -0.08837 0
M  V30 3563 N 344.397 -0.483516 -1.5 0
M  V30 3564 C 345.645 0.067027 -2.01989 0
M  V30 3565 C 345.966 1.3909 -1.36671 0
M  V30 3566 O 345.236 1.88978 -0.516152 0
M  V30 3567 H 343.816 0.0277606 -0.746484 0
M  V30 3568 H 346.478 -0.636773 -1.84204 0
M  V30 3569 H 345.574 0.209484 -3.11396 0
M  V30 3570 N 345.875 1.56104 -0.216619 0
M  V30 3571 C 347.121 1.98466 0.417033 0
M  V30 3572 C 347.454 1.10403 1.59765 0
M  V30 3573 O 346.729 0.160632 1.93836 0
M  V30 3574 C 347.012 3.49769 0.85637 0
M  V30 3575 C 346.865 4.48606 -0.327546 0
M  V30 3576 C 348.184 4.05339 1.7143 0
M  V30 3577 H 345.303 0.721551 0.150112 0
M  V30 3578 H 347.945 1.87423 -0.311864 0
M  V30 3579 H 346.095 3.5931 1.47745 0
M  V30 3580 H 347.767 4.5108 -0.965618 0
M  V30 3581 H 346.01 4.22682 -0.975805 0
M  V30 3582 H 346.681 5.51995 0.0227149 0
M  V30 3583 H 349.157 3.98712 1.19031 0
M  V30 3584 H 348.033 5.11533 1.99061 0
M  V30 3585 H 348.294 3.51918 2.67593 0
M  V30 3586 N 347.353 -0.0568162 1.57498 0
M  V30 3587 C 348.583 -0.764515 1.91934 0
M  V30 3588 C 348.991 -1.70877 0.81227 0
M  V30 3589 O 348.334 -1.82351 -0.222213 0
M  V30 3590 C 348.396 -1.5994 3.21962 0
M  V30 3591 C 348.06 -0.822925 4.4953 0
M  V30 3592 C 349.057 -0.135464 5.19723 0
M  V30 3593 C 346.742 -0.785666 4.96117 0
M  V30 3594 C 348.736 0.578861 6.34766 0
M  V30 3595 C 346.423 -0.0675784 6.11063 0
M  V30 3596 C 347.421 0.613471 6.80239 0
M  V30 3597 O 347.109 1.31996 7.92989 0
M  V30 3598 H 346.841 -0.221647 0.63863 0
M  V30 3599 H 349.395 -0.0268218 2.05382 0
M  V30 3600 H 347.625 -2.38026 3.04763 0
M  V30 3601 H 349.314 -2.18715 3.41934 0
M  V30 3602 H 350.08 -0.155458 4.84751 0
M  V30 3603 H 345.959 -1.30524 4.42136 0
M  V30 3604 H 349.503 1.111 6.88696 0
M  V30 3605 H 345.4 -0.0455636 6.45484 0
M  V30 3606 H 346.168 1.23077 8.09194 0
M  V30 3607 N 348.832 -1.54138 -0.328536 0
M  V30 3608 C 350.079 -1.72105 -1.06706 0
M  V30 3609 C 350.407 -0.492111 -1.88171 0
M  V30 3610 O 349.662 0.526153 -1.88494 0
M  V30 3611 C 349.961 -2.9457 -2.02393 0
M  V30 3612 C 349.627 -4.29544 -1.37122 0
M  V30 3613 C 348.289 -4.6624 -1.19052 0
M  V30 3614 C 350.641 -5.1333 -0.902331 0
M  V30 3615 C 347.969 -5.84325 -0.527331 0
M  V30 3616 C 350.321 -6.32094 -0.252988 0
M  V30 3617 C 348.985 -6.67473 -0.0600901 0
M  V30 3618 H 348.255 -0.629775 -0.390466 0
M  V30 3619 H 350.902 -1.88372 -0.34473 0
M  V30 3620 H 349.207 -2.72969 -2.81061 0
M  V30 3621 H 350.904 -3.05665 -2.59557 0
M  V30 3622 H 347.494 -4.0067 -1.52188 0
M  V30 3623 H 351.678 -4.855 -1.02974 0
M  V30 3624 H 346.934 -6.103 -0.366634 0
M  V30 3625 H 351.108 -6.96299 0.118366 0
M  V30 3626 H 348.735 -7.58832 0.455828 0
M  V30 3627 N 350.31 0.590341 -1.46126 0
M  V30 3628 C 351.24 1.71032 -1.58966 0
M  V30 3629 C 352.221 1.64302 -0.440335 0
M  V30 3630 O 353.406 1.82436 -0.665634 0
M  V30 3631 C 350.536 3.09665 -1.57241 0
M  V30 3632 C 349.49 3.31221 -2.71066 0
M  V30 3633 C 348.816 4.70303 -2.54399 0
M  V30 3634 C 350.116 3.19796 -4.1295 0
M  V30 3635 H 351.81 1.60543 -2.52718 0
M  V30 3636 H 349.356 0.770933 -1.21625 0
M  V30 3637 H 351.309 3.87831 -1.64819 0
M  V30 3638 H 350.033 3.21036 -0.600289 0
M  V30 3639 H 348.692 2.55452 -2.62944 0
M  V30 3640 H 348.34 4.78429 -1.55288 0
M  V30 3641 H 348.04 4.85679 -3.30741 0
M  V30 3642 H 349.564 5.50647 -2.63857 0
M  V30 3643 H 350.978 3.87815 -4.22223 0
M  V30 3644 H 349.375 3.46696 -4.89818 0
M  V30 3645 H 350.445 2.16983 -4.33643 0
M  V30 3646 N 351.788 1.33704 0.83433 0
M  V30 3647 C 353.018 1.28281 1.6195 0
M  V30 3648 C 353.426 -0.147603 1.88623 0
M  V30 3649 O 352.769 -1.1016 1.47005 0
M  V30 3650 C 352.831 1.99386 2.99141 0
M  V30 3651 C 352.495 3.48681 2.95416 0
M  V30 3652 C 353.492 4.438 2.70809 0
M  V30 3653 C 351.177 3.90925 3.15409 0
M  V30 3654 C 353.171 5.79138 2.66229 0
M  V30 3655 C 350.858 5.26366 3.10454 0
M  V30 3656 C 351.856 6.20284 2.85895 0
M  V30 3657 O 351.544 7.53245 2.80852 0
M  V30 3658 H 351.276 0.44315 0.510484 0
M  V30 3659 H 353.83 1.76711 1.04702 0
M  V30 3660 H 352.06 1.45554 3.58261 0
M  V30 3661 H 353.749 1.87403 3.60049 0
M  V30 3662 H 354.515 4.12485 2.5511 0
M  V30 3663 H 350.394 3.18229 3.33543 0
M  V30 3664 H 353.938 6.52416 2.4698 0
M  V30 3665 H 349.835 5.57304 3.25703 0
M  V30 3666 H 350.603 7.62846 2.96661 0
M  V30 3667 N 353.266 -1.05314 1.17247 0
M  V30 3668 C 354.176 -2.16538 0.90268 0
M  V30 3669 C 355.192 -1.73523 -0.128707 0
M  V30 3670 O 356.368 -2.01337 0.0502701 0
M  V30 3671 C 353.433 -3.44167 0.418356 0
M  V30 3672 C 352.494 -4.01635 1.51618 0
M  V30 3673 C 351.727 -5.23171 1.05487 0
M  V30 3674 O 351.95 -5.70327 -0.0914715 0
M  V30 3675 O 350.884 -5.72848 1.8474 0
M  V30 3676 H 354.71 -2.42145 1.83302 0
M  V30 3677 H 352.295 -1.15037 0.953246 0
M  V30 3678 H 354.177 -4.21112 0.155726 0
M  V30 3679 H 352.852 -3.20063 -0.48385 0
M  V30 3680 H 351.759 -3.26135 1.83268 0
M  V30 3681 H 353.092 -4.30053 2.39405 0
M  V30 3682 N 354.744 -0.972509 -1.24016 0
M  V30 3683 C 355.707 -0.511403 -2.23422 0
M  V30 3684 C 356.707 0.394679 -1.55881 0
M  V30 3685 O 357.897 0.189469 -1.73167 0
M  V30 3686 C 355.029 0.258769 -3.39916 0
M  V30 3687 H 356.222 -1.39024 -2.6573 0
M  V30 3688 H 353.775 -0.757585 -1.36713 0
M  V30 3689 H 354.51 1.1545 -3.03054 0
M  V30 3690 H 354.295 -0.391522 -3.9014 0
M  V30 3691 H 355.785 0.570244 -4.13688 0
M  V30 3692 N 356.222 1.38976 -0.743202 0
M  V30 3693 C 357.152 2.33171 -0.123873 0
M  V30 3694 C 358.133 1.54336 0.71516 0
M  V30 3695 O 359.318 1.82696 0.658467 0
M  V30 3696 C 356.448 3.38474 0.777978 0
M  V30 3697 C 355.402 4.27979 0.0424758 0
M  V30 3698 C 354.728 5.2405 1.06189 0
M  V30 3699 C 356.028 5.10155 -1.1198 0
M  V30 3700 H 357.722 2.85213 -0.910709 0
M  V30 3701 H 355.268 1.37133 -0.439388 0
M  V30 3702 H 357.221 4.03328 1.22084 0
M  V30 3703 H 355.945 2.84891 1.59702 0
M  V30 3704 H 354.604 3.64616 -0.380853 0
M  V30 3705 H 354.252 4.66758 1.87472 0
M  V30 3706 H 353.952 5.84785 0.574485 0
M  V30 3707 H 355.476 5.9178 1.50428 0
M  V30 3708 H 356.89 5.68307 -0.75499 0
M  V30 3709 H 355.287 5.80073 -1.53738 0
M  V30 3710 H 356.357 4.44504 -1.93764 0
M  V30 3711 N 357.7 0.491464 1.49741 0
M  V30 3712 C 358.65 -0.311086 2.25868 0
M  V30 3713 C 359.634 -0.943857 1.30308 0
M  V30 3714 O 360.826 -0.853035 1.55088 0
M  V30 3715 C 357.955 -1.38059 3.14316 0
M  V30 3716 C 357.041 -0.754541 4.17334 0
M  V30 3717 N 357.432 0.137216 5.05614 0
M  V30 3718 C 355.73 -1.01621 4.34269 0
M  V30 3719 C 356.431 0.494614 5.79593 0
M  V30 3720 N 355.407 -0.135169 5.43432 0
M  V30 3721 H 359.209 0.37555 2.91491 0
M  V30 3722 H 356.723 0.306917 1.59473 0
M  V30 3723 H 358.72 -1.96891 3.67477 0
M  V30 3724 H 357.38 -2.06901 2.50244 0
M  V30 3725 H 358.391 0.50741 5.15408 0
M  V30 3726 H 355.068 -1.69808 3.81407 0
M  V30 3727 H 356.458 1.2236 6.60665 0
M  V30 3728 N 359.178 -1.55987 0.224894 0
M  V30 3729 C 360.426 -1.97998 -0.405099 0
M  V30 3730 C 360.747 -1.11387 -1.60056 0
M  V30 3731 O 360.017 -0.191645 -1.9496 0
M  V30 3732 H 358.597 -0.731235 -0.152658 0
M  V30 3733 H 361.259 -1.92279 0.318567 0
M  V30 3734 H 360.355 -3.03463 -0.729167 0
M  V30 3735 N 360.656 0.0484629 -1.57525 0
M  V30 3736 C 362.067 0.597486 -1.76881 0
M  V30 3737 C 362.418 1.76664 -0.853475 0
M  V30 3738 O 361.543 2.16357 -0.0433656 0
M  V30 3739 C 362.138 1.09066 -3.20765 0
M  V30 3740 C 360.697 1.58535 -3.41385 0
M  V30 3741 C 359.844 0.514868 -2.72478 0
M  V30 3742 H 362.795 -0.177758 -1.57701 0
M  V30 3743 H 362.816 1.95875 -3.2621 0
M  V30 3744 H 362.328 0.239521 -3.8736 0
M  V30 3745 H 360.429 2.45898 -2.79937 0
M  V30 3746 H 360.542 1.64622 -4.49929 0
M  V30 3747 H 358.906 0.965407 -2.35695 0
M  V30 3748 H 359.689 -0.32648 -3.41744 0
M  V30 3749 N 362.134 1.5431 0.320358 0
M  V30 3750 C 363.545 1.63872 0.894594 0
M  V30 3751 C 363.896 0.534847 1.88769 0
M  V30 3752 O 363.021 -0.331732 2.13842 0
M  V30 3753 C 363.616 2.97049 1.62934 0
M  V30 3754 C 362.175 3.08796 2.15226 0
M  V30 3755 C 361.322 2.59456 0.978671 0
M  V30 3756 H 364.273 1.58398 0.0978544 0
M  V30 3757 H 364.294 2.87388 2.49376 0
M  V30 3758 H 363.806 3.7737 0.906302 0
M  V30 3759 H 361.907 2.33156 2.90636 0
M  V30 3760 H 362.02 4.14649 2.40006 0
M  V30 3761 H 360.384 2.1543 1.35875 0
M  V30 3762 H 361.167 3.42237 0.269895 0
M  V30 3763 N 363.613 -0.582584 1.46437 0
M  V30 3764 C 364.56 -1.69164 1.5701 0
M  V30 3765 C 365.53 -1.60847 0.414403 0
M  V30 3766 O 366.715 -1.80058 0.631171 0
M  V30 3767 C 363.855 -3.075 1.56646 0
M  V30 3768 C 362.968 -3.2644 2.82951 0
M  V30 3769 C 362.103 -4.55026 2.7409 0
M  V30 3770 C 361.142 -4.6731 3.95333 0
M  V30 3771 N 360.279 -5.87221 3.84858 0
M  V30 3772 H 365.119 -1.59464 2.51744 0
M  V30 3773 H 362.656 -0.777186 1.24893 0
M  V30 3774 H 364.614 -3.8757 1.5442 0
M  V30 3775 H 363.244 -3.16096 0.654439 0
M  V30 3776 H 362.296 -2.39974 2.95155 0
M  V30 3777 H 363.608 -3.31385 3.72808 0
M  V30 3778 H 362.762 -5.43324 2.6997 0
M  V30 3779 H 361.501 -4.52519 1.81873 0
M  V30 3780 H 360.506 -3.77429 3.99784 0
M  V30 3781 H 361.731 -4.71595 4.88646 0
M  V30 3782 H 359.677 -5.85712 2.95427 0
M  V30 3783 H 359.594 -5.93435 4.6837 0
M  V30 3784 H 360.862 -6.7795 3.84713 0
M  V30 3785 N 365.091 -1.34144 -0.827227 0
M  V30 3786 C 366.038 -1.25364 -1.93785 0
M  V30 3787 C 367.008 -0.129774 -1.65592 0
M  V30 3788 O 368.193 -0.310024 -1.88264 0
M  V30 3789 C 365.333 -1.01064 -3.2997 0
M  V30 3790 C 364.446 -2.22185 -3.70484 0
M  V30 3791 C 363.581 -1.91203 -4.95595 0
M  V30 3792 C 362.62 -3.08491 -5.28677 0
M  V30 3793 N 361.757 -2.77421 -6.44967 0
M  V30 3794 H 366.597 -2.20347 -2.00627 0
M  V30 3795 H 364.134 -1.09558 -0.981608 0
M  V30 3796 H 366.092 -0.850139 -4.08446 0
M  V30 3797 H 364.722 -0.0975026 -3.22653 0
M  V30 3798 H 363.774 -2.4917 -2.87434 0
M  V30 3799 H 365.086 -3.0983 -3.90905 0
M  V30 3800 H 364.24 -1.71864 -5.81848 0
M  V30 3801 H 362.979 -1.00812 -4.77167 0
M  V30 3802 H 361.984 -3.28431 -4.40923 0
M  V30 3803 H 363.209 -3.99655 -5.49047 0
M  V30 3804 H 361.155 -1.89601 -6.28003 0
M  V30 3805 H 361.072 -3.58598 -6.6554 0
M  V30 3806 H 362.34 -2.61577 -7.34301 0
M  V30 3807 N 366.569 1.04691 -1.17803 0
M  V30 3808 C 367.818 1.77176 -0.963931 0
M  V30 3809 C 368.131 1.88888 0.508015 0
M  V30 3810 O 369.337 2.58164 0.840465 0
M  V30 3811 C 367.793 3.18518 -1.67555 0
M  V30 3812 C 367.401 3.14919 -3.18637 0
M  V30 3813 C 369.145 3.95424 -1.54402 0
M  V30 3814 C 367.052 4.51081 -3.82466 0
M  V30 3815 H 365.982 0.664116 -0.357023 0
M  V30 3816 H 368.633 1.17303 -1.4111 0
M  V30 3817 H 367.015 3.78748 -1.15613 0
M  V30 3818 H 368.189 2.64178 -3.77554 0
M  V30 3819 H 366.504 2.51512 -3.31859 0
M  V30 3820 H 369.101 4.96106 -1.99456 0
M  V30 3821 H 369.444 4.13343 -0.495329 0
M  V30 3822 H 369.977 3.41754 -2.0359 0
M  V30 3823 H 366.716 4.38368 -4.87354 0
M  V30 3824 H 366.236 5.01951 -3.28337 0
M  V30 3825 H 367.915 5.2001 -3.84965 0
M  V30 3826 N 368.047 0.979072 1.23499 0
M  V30 3827 C 368.977 0.537606 2.27227 0
M  V30 3828 C 369.958 -0.428539 1.64613 0
M  V30 3829 O 371.143 -0.322191 1.91509 0
M  V30 3830 C 368.273 -0.162052 3.46922 0
M  V30 3831 C 367.227 0.721242 4.21879 0
M  V30 3832 C 366.553 -0.110555 5.34586 0
M  V30 3833 C 367.853 2.01141 4.82016 0
M  V30 3834 H 369.547 1.40462 2.64406 0
M  V30 3835 H 367.093 0.67684 1.27102 0
M  V30 3836 H 369.046 -0.482192 4.18632 0
M  V30 3837 H 367.77 -1.06351 3.08799 0
M  V30 3838 H 366.429 1.02482 3.51984 0
M  V30 3839 H 366.077 -1.0125 4.92704 0
M  V30 3840 H 365.777 0.477325 5.85658 0
M  V30 3841 H 367.301 -0.425107 6.09118 0
M  V30 3842 H 368.715 1.75612 5.45741 0
M  V30 3843 H 367.112 2.54695 5.43369 0
M  V30 3844 H 368.182 2.69909 4.02836 0
M  V30 3845 N 369.525 -1.3858 0.750561 0
M  V30 3846 C 370.771 -2.00481 0.305825 0
M  V30 3847 C 371.104 -1.5944 -1.10872 0
M  V30 3848 O 370.379 -0.83052 -1.75877 0
M  V30 3849 C 370.662 -3.5758 0.425287 0
M  V30 3850 C 370.515 -4.08594 1.88072 0
M  V30 3851 C 371.834 -4.39719 -0.183122 0
M  V30 3852 H 368.953 -0.728348 0.112598 0
M  V30 3853 H 371.595 -1.64566 0.949638 0
M  V30 3854 H 369.745 -3.88306 -0.122828 0
M  V30 3855 H 371.417 -3.88523 2.48691 0
M  V30 3856 H 369.66 -3.61574 2.39681 0
M  V30 3857 H 370.331 -5.177 1.91548 0
M  V30 3858 H 372.807 -4.15128 0.284303 0
M  V30 3859 H 371.683 -5.48856 -0.0692757 0
M  V30 3860 H 371.944 -4.23434 -1.27106 0
M  V30 3861 N 371.003 -0.499398 -1.49478 0
M  V30 3862 C 371.913 0.284489 -2.32869 0
M  V30 3863 C 372.929 0.968885 -1.44529 0
M  V30 3864 O 374.105 0.95062 -1.77553 0
M  V30 3865 C 371.17 1.33594 -3.19928 0
M  V30 3866 C 370.231 0.665149 -4.24116 0
M  V30 3867 C 369.464 1.6665 -5.07014 0
M  V30 3868 O 369.687 2.89618 -4.91404 0
M  V30 3869 O 368.621 1.22271 -5.8935 0
M  V30 3870 H 372.447 -0.39802 -3.01081 0
M  V30 3871 H 370.032 -0.260758 -1.47107 0
M  V30 3872 H 371.914 1.94431 -3.73864 0
M  V30 3873 H 370.589 2.0014 -2.54412 0
M  V30 3874 H 369.496 0.0170769 -3.74096 0
M  V30 3875 H 370.829 0.0421555 -4.92182 0
M  V30 3876 N 372.481 1.55866 -0.233164 0
M  V30 3877 C 373.729 1.9821 0.394593 0
M  V30 3878 C 374.05 1.12234 1.59463 0
M  V30 3879 O 373.32 0.201981 1.94856 0
M  V30 3880 H 371.9 0.732034 0.148778 0
M  V30 3881 H 374.562 1.92107 -0.32876 0
M  V30 3882 H 373.658 3.03845 0.713063 0
M  V30 3883 N 373.959 -0.0401083 1.57549 0
M  V30 3884 C 374.922 -1.02871 2.04817 0
M  V30 3885 C 375.922 -1.29708 0.950388 0
M  V30 3886 O 377.112 -1.24897 1.21435 0
M  V30 3887 C 374.244 -2.36443 2.45576 0
M  V30 3888 H 375.437 -0.620631 2.93408 0
M  V30 3889 H 372.99 -0.286667 1.53649 0
M  V30 3890 H 373.725 -2.82021 1.60108 0
M  V30 3891 H 373.51 -2.18296 3.25713 0
M  V30 3892 H 375 -3.07441 2.82612 0
M  V30 3893 N 375.437 -1.54477 -0.31217 0
M  V30 3894 C 376.385 -1.85395 -1.40469 0
M  V30 3895 C 377.379 -0.726749 -1.53019 0
M  V30 3896 O 378.585 -0.910582 -1.55269 0
M  V30 3897 H 374.96 -0.587845 -0.46898 0
M  V30 3898 H 376.931 -2.76736 -1.11623 0
M  V30 3899 C 375.68 -2.10811 -2.76503 0
M  V30 3900 H 375.003 -2.97014 -2.67625 0
M  V30 3901 H 376.443 -2.3639 -3.51988 0
M  V30 3902 C 374.902 -0.903165 -3.24568 0
M  V30 3903 O 375.432 -0.118085 -4.01526 0
M  V30 3904 N 373.638 -0.711634 -2.81752 0
M  V30 3905 H 373.185 -1.35171 -2.19286 0
M  V30 3906 H 373.143 0.0930473 -3.14262 0
M  V30 3907 N 376.915 0.57481 -1.46744 0
M  V30 3908 C 377.878 1.66533 -1.57478 0
M  V30 3909 C 378.878 1.54338 -0.451263 0
M  V30 3910 O 380.068 1.58814 -0.715813 0
M  V30 3911 C 377.2 3.05999 -1.50259 0
M  V30 3912 H 378.393 1.58372 -2.54673 0
M  V30 3913 H 375.946 0.793301 -1.34672 0
M  V30 3914 H 376.681 3.19709 -0.543725 0
M  V30 3915 H 376.466 3.16259 -2.31781 0
M  V30 3916 H 377.956 3.8537 -1.60872 0
M  V30 3917 N 378.394 1.34581 0.820102 0
M  V30 3918 C 379.357 1.2628 1.91275 0
M  V30 3919 C 380.357 0.177344 1.59819 0
M  V30 3920 O 381.547 0.430156 1.68806 0
M  V30 3921 C 378.679 0.950327 3.27386 0
M  V30 3922 H 379.872 2.23421 2.00057 0
M  V30 3923 H 377.425 1.1891 1.0144 0
M  V30 3924 H 378.16 -0.0177938 3.24295 0
M  V30 3925 H 377.945 1.73549 3.51601 0
M  V30 3926 H 379.435 0.917492 4.07396 0
M  V30 3927 N 379.872 -1.04064 1.18357 0
M  V30 3928 C 380.802 -2.14001 0.934113 0
M  V30 3929 C 381.783 -1.69616 -0.128186 0
M  V30 3930 O 382.968 -1.94185 0.0244093 0
M  V30 3931 C 380.098 -3.44253 0.459066 0
M  V30 3932 C 379.052 -4.02261 1.46185 0
M  V30 3933 C 378.378 -5.27992 0.844322 0
M  V30 3934 C 379.678 -4.38432 2.83856 0
M  V30 3935 H 381.372 -2.35127 1.85352 0
M  V30 3936 H 378.918 -1.12998 0.892604 0
M  V30 3937 H 380.871 -4.20522 0.271907 0
M  V30 3938 H 379.595 -3.22813 -0.495912 0
M  V30 3939 H 378.254 -3.28074 1.63595 0
M  V30 3940 H 377.902 -5.02862 -0.117845 0
M  V30 3941 H 377.602 -5.67765 1.51384 0
M  V30 3942 H 379.126 -6.06938 0.667693 0
M  V30 3943 H 380.54 -5.05688 2.70098 0
M  V30 3944 H 378.937 -4.89254 3.47491 0
M  V30 3945 H 380.007 -3.4826 3.37406 0
M  V30 3946 N 381.35 -0.985608 -1.22978 0
M  V30 3947 C 382.28 -0.549649 -2.26939 0
M  V30 3948 C 383.261 0.419803 -1.64838 0
M  V30 3949 O 384.446 0.31203 -1.91677 0
M  V30 3950 C 381.576 0.143652 -3.47003 0
M  V30 3951 C 380.53 -0.743606 -4.21491 0
M  V30 3952 C 379.856 0.0822027 -5.34637 0
M  V30 3953 C 381.156 -2.03694 -4.80943 0
M  V30 3954 H 382.85 -1.41862 -2.63658 0
M  V30 3955 H 380.396 -0.683571 -1.26741 0
M  V30 3956 H 382.349 0.459985 -4.18882 0
M  V30 3957 H 381.073 1.04711 -3.09359 0
M  V30 3958 H 379.732 -1.04347 -3.51436 0
M  V30 3959 H 379.38 0.986359 -4.93234 0
M  V30 3960 H 379.08 -0.508377 -5.85397 0
M  V30 3961 H 380.604 0.392797 -6.09335 0
M  V30 3962 H 382.018 -1.78504 -5.44802 0
M  V30 3963 H 380.415 -2.57573 -5.42011 0
M  V30 3964 H 381.485 -2.72042 -4.01399 0
M  V30 3965 N 382.828 1.3818 -0.7579 0
M  V30 3966 C 384.105 1.94106 -0.241306 0
M  V30 3967 C 384.485 1.69282 1.26122 0
M  V30 3968 O 383.833 1.03378 2.03777 0
M  V30 3969 C 384.043 3.43809 -0.59967 0
M  V30 3970 C 385.391 4.20868 -0.561717 0
M  V30 3971 O 386.415 3.5211 -0.538222 0
M  V30 3972 O 385.274 5.43451 -0.576478 0
M  V30 3973 H 382.368 0.825376 -0.0518042 0
M  V30 3974 H 384.914 1.47548 -0.838315 0
M  V30 3975 H 383.686 3.55403 -1.6372 0
M  V30 3976 H 383.309 3.97592 0.0251197 0
M  V30 3977 N 384.306 0.507319 1.49211 0
M  V30 3978 C 385.555 -0.0368315 2.01666 0
M  V30 3979 C 385.868 -1.37459 1.39156 0
M  V30 3980 O 387.074 -2.00579 1.82976 0
M  V30 3981 C 385.53 -0.116089 3.59713 0
M  V30 3982 C 385.138 1.2154 4.31198 0
M  V30 3983 C 386.882 -0.610268 4.2009 0
M  V30 3984 C 384.789 1.09796 5.81119 0
M  V30 3985 H 383.719 -0.0175376 0.753796 0
M  V30 3986 H 386.37 0.647691 1.71689 0
M  V30 3987 H 384.752 -0.8652 3.86433 0
M  V30 3988 H 385.926 1.9783 4.16173 0
M  V30 3989 H 384.241 1.64352 3.82593 0
M  V30 3990 H 386.838 -0.715742 5.29888 0
M  V30 3991 H 387.181 -1.61064 3.8388 0
M  V30 3992 H 387.714 0.0824916 3.97714 0
M  V30 3993 H 384.453 2.0728 6.21864 0
M  V30 3994 H 383.973 0.376058 5.9862 0
M  V30 3995 H 385.652 0.779281 6.4229 0
M  V30 3996 N 385.784 -1.5574 0.241426 0
M  V30 3997 C 387.061 -1.90704 -0.434881 0
M  V30 3998 C 387.441 -1.16145 -1.76277 0
M  V30 3999 O 386.789 -0.277152 -2.26813 0
M  V30 4000 C 386.999 -3.43657 -0.608343 0
M  V30 4001 C 388.347 -4.14806 -0.906725 0
M  V30 4002 O 389.371 -3.49366 -0.694408 0
M  V30 4003 O 388.23 -5.30548 -1.31075 0
M  V30 4004 H 385.324 -0.793592 -0.23268 0
M  V30 4005 H 387.87 -1.67288 0.285086 0
M  V30 4006 H 386.642 -3.89927 0.327505 0
M  V30 4007 H 386.265 -3.72918 -1.37906 0
M  V30 4008 N 387.262 0.0317525 -1.57568 0
M  V30 4009 C 388.509 0.723104 -1.89149 0
M  V30 4010 C 388.837 1.75504 -0.838377 0
M  V30 4011 O 388.092 1.95037 0.160982 0
M  V30 4012 C 388.391 1.43167 -3.27472 0
M  V30 4013 C 388.057 0.535972 -4.47703 0
M  V30 4014 C 386.719 0.289262 -4.8033 0
M  V30 4015 C 389.071 -0.0826125 -5.21135 0
M  V30 4016 C 386.399 -0.584853 -5.83778 0
M  V30 4017 C 388.751 -0.944414 -6.25511 0
M  V30 4018 C 387.415 -1.20061 -6.56614 0
M  V30 4019 H 386.685 0.264602 -0.692146 0
M  V30 4020 H 389.332 -0.0169496 -1.91492 0
M  V30 4021 H 387.637 2.24497 -3.21105 0
M  V30 4022 H 389.334 1.97209 -3.49155 0
M  V30 4023 H 385.924 0.738414 -4.22191 0
M  V30 4024 H 390.108 0.0950302 -4.96209 0
M  V30 4025 H 385.364 -0.79168 -6.06253 0
M  V30 4026 H 389.538 -1.43026 -6.81554 0
M  V30 4027 H 387.165 -1.87967 -7.36595 0
M  V30 4028 N 388.74 1.54641 0.303973 0
M  V30 4029 C 389.988 1.73437 1.0375 0
M  V30 4030 C 390.309 0.521449 1.87899 0
M  V30 4031 O 389.579 -0.46432 1.90318 0
M  V30 4032 H 388.159 0.639518 0.386039 0
M  V30 4033 H 390.821 1.91988 0.335675 0
M  V30 4034 H 389.917 2.62235 1.69231 0
M  V30 4035 N 390.218 -0.567019 1.47046 0
M  V30 4036 C 391.446 -1.35027 1.56765 0
M  V30 4037 C 391.861 -1.8758 0.214316 0
M  V30 4038 O 391.218 -1.64471 -0.790919 0
M  V30 4039 C 391.269 -2.52698 2.58507 0
M  V30 4040 O 390.99 -2.0232 3.88585 0
M  V30 4041 C 392.491 -3.45043 2.78316 0
M  V30 4042 H 389.711 -0.41195 0.529658 0
M  V30 4043 H 392.255 -0.687832 1.92585 0
M  V30 4044 H 390.41 -3.149 2.25648 0
M  V30 4045 H 390.824 -2.79068 4.44096 0
M  V30 4046 H 392.298 -4.2405 3.53391 0
M  V30 4047 H 392.775 -3.97971 1.85784 0
M  V30 4048 H 393.381 -2.88665 3.12334 0
M  V30 4049 N 391.696 -1.35014 -0.812953 0
M  V30 4050 C 392.926 -1.30841 -1.59888 0
M  V30 4051 C 393.334 0.117576 -1.88834 0
M  V30 4052 O 392.677 1.07807 -1.48739 0
M  V30 4053 C 392.739 -2.0412 -2.95931 0
M  V30 4054 C 392.403 -3.53336 -2.89832 0
M  V30 4055 C 393.4 -4.48052 -2.63714 0
M  V30 4056 C 391.085 -3.95894 -3.0915 0
M  V30 4057 C 393.079 -5.833 -2.56982 0
M  V30 4058 C 390.766 -5.31239 -3.0204 0
M  V30 4059 C 391.764 -6.24754 -2.75991 0
M  V30 4060 O 391.452 -7.57617 -2.68833 0
M  V30 4061 H 391.184 -0.451215 -0.50337 0
M  V30 4062 H 393.738 -1.78354 -1.01877 0
M  V30 4063 H 391.968 -1.51235 -3.559 0
M  V30 4064 H 393.657 -1.93107 -3.57022 0
M  V30 4065 H 394.423 -4.16492 -2.48515 0
M  V30 4066 H 390.302 -3.23495 -3.28438 0
M  V30 4067 H 393.846 -6.56263 -2.36569 0
M  V30 4068 H 389.743 -5.62415 -3.16796 0
M  V30 4069 H 390.511 -7.67469 -2.84487 0
M  V30 4070 N 393.175 1.03435 -1.18907 0
M  V30 4071 C 394.586 1.58195 -0.991523 0
M  V30 4072 C 394.937 1.90801 0.457081 0
M  V30 4073 O 394.062 1.70272 1.33553 0
M  V30 4074 C 394.657 2.87432 -1.79355 0
M  V30 4075 C 393.216 3.38785 -1.64017 0
M  V30 4076 C 392.363 2.12292 -1.78402 0
M  V30 4077 H 395.314 0.860299 -1.33359 0
M  V30 4078 H 395.335 3.58096 -1.28638 0
M  V30 4079 H 394.847 2.63669 -2.84781 0
M  V30 4080 H 392.948 3.67547 -0.611536 0
M  V30 4081 H 393.061 4.12186 -2.44212 0
M  V30 4082 H 391.425 2.23901 -1.2141 0
M  V30 4083 H 392.208 1.90977 -2.85277 0
M  V30 4084 N 394.653 0.992116 1.22453 0
M  V30 4085 C 395.9 0.667534 1.91181 0
M  V30 4086 C 396.228 -0.800317 1.77271 0
M  V30 4087 O 395.483 -1.59421 1.13505 0
M  V30 4088 C 395.782 1.01832 3.42586 0
M  V30 4089 C 395.448 2.47831 3.76684 0
M  V30 4090 C 394.11 2.87729 3.85701 0
M  V30 4091 C 396.462 3.42466 3.92895 0
M  V30 4092 C 393.79 4.21252 4.08367 0
M  V30 4093 C 396.142 4.75648 4.17064 0
M  V30 4094 C 394.806 5.15288 4.24305 0
M  V30 4095 H 394.076 0.244268 0.699581 0
M  V30 4096 H 396.723 1.24816 1.45235 0
M  V30 4097 H 395.028 0.355769 3.90181 0
M  V30 4098 H 396.725 0.745228 3.94014 0
M  V30 4099 H 393.315 2.15905 3.70247 0
M  V30 4100 H 397.499 3.12814 3.85307 0
M  V30 4101 H 392.755 4.51554 4.122 0
M  V30 4102 H 396.929 5.48924 4.2855 0
M  V30 4103 H 394.556 6.18769 4.41621 0
M  V30 4104 N 396.131 -1.37776 0.765217 0
M  V30 4105 C 397.377 -2.00145 0.327072 0
M  V30 4106 C 397.71 -1.60607 -1.09175 0
M  V30 4107 O 396.985 -0.849127 -1.74986 0
M  V30 4108 C 397.268 -3.57109 0.46319 0
M  V30 4109 C 397.121 -4.06576 1.92395 0
M  V30 4110 C 398.44 -4.39888 -0.136473 0
M  V30 4111 H 395.559 -0.727113 0.120316 0
M  V30 4112 H 398.201 -1.63549 0.967039 0
M  V30 4113 H 396.351 -3.88414 -0.0816358 0
M  V30 4114 H 398.023 -3.85864 2.52798 0
M  V30 4115 H 396.266 -3.59011 2.43503 0
M  V30 4116 H 396.937 -5.15639 1.97028 0
M  V30 4117 H 399.413 -4.14803 0.328317 0
M  V30 4118 H 398.289 -5.48899 -0.0110582 0
M  V30 4119 H 398.55 -4.24758 -1.22608 0
M  V30 4120 N 397.609 -0.515225 -1.4894 0
M  V30 4121 C 398.837 0.0206034 -2.0689 0
M  V30 4122 C 399.252 1.29514 -1.37374 0
M  V30 4123 O 398.609 1.76698 -0.456529 0
M  V30 4124 C 398.66 0.26351 -3.60538 0
M  V30 4125 O 398.381 -0.960517 -4.27441 0
M  V30 4126 C 399.882 0.841383 -4.35242 0
M  V30 4127 H 397.102 -0.0268608 -0.670462 0
M  V30 4128 H 399.646 -0.716651 -1.91532 0
M  V30 4129 H 397.801 0.950777 -3.75552 0
M  V30 4130 H 398.215 -0.73212 -5.19365 0
M  V30 4131 H 399.689 0.96085 -5.43573 0
M  V30 4132 H 400.166 1.8427 -3.98674 0
M  V30 4133 H 400.772 0.191143 -4.2487 0
M  V30 4134 N 399.087 1.5561 -0.249682 0
M  V30 4135 C 400.312 2.03865 0.381305 0
M  V30 4136 C 400.737 1.12769 1.50548 0
M  V30 4137 O 400.095 0.121189 1.80895 0
M  V30 4138 C 400.143 3.50101 0.863816 0
M  V30 4139 O 399.247 3.62132 1.97318 0
M  V30 4140 H 398.588 0.658827 0.0827194 0
M  V30 4141 H 401.118 2.01105 -0.376552 0
M  V30 4142 H 401.128 3.90975 1.1663 0
M  V30 4143 H 399.803 4.1588 0.0411816 0
M  V30 4144 H 398.38 3.33155 1.67517 0
M  V30 4145 N 400.565 -0.0233959 1.57583 0
M  V30 4146 C 401.79 -0.728376 1.94189 0
M  V30 4147 C 402.215 -1.67793 0.850119 0
M  V30 4148 O 401.573 -1.80262 -0.19371 0
M  V30 4149 C 401.621 -1.45669 3.29868 0
M  V30 4150 O 400.725 -2.57013 3.22518 0
M  V30 4151 H 400.066 -0.195493 0.63457 0
M  V30 4152 H 402.596 0.0228214 2.04587 0
M  V30 4153 H 402.606 -1.82535 3.6489 0
M  V30 4154 H 401.281 -0.760314 4.08891 0
M  V30 4155 H 399.858 -2.22648 2.99136 0
M  V30 4156 N 402.043 -1.548 -0.295768 0
M  V30 4157 C 402.991 -1.86874 -1.38495 0
M  V30 4158 C 403.985 -0.742938 -1.52239 0
M  V30 4159 O 405.191 -0.926999 -1.54294 0
M  V30 4160 H 401.566 -0.592786 -0.462719 0
M  V30 4161 H 403.537 -2.77904 -1.08682 0
M  V30 4162 C 402.286 -2.13732 -2.74252 0
M  V30 4163 H 401.609 -2.99835 -2.64459 0
M  V30 4164 H 403.049 -2.4011 -3.49461 0
M  V30 4165 C 401.508 -0.937539 -3.23592 0
M  V30 4166 O 402.038 -0.160665 -4.01379 0
M  V30 4167 N 400.244 -0.741478 -2.80981 0
M  V30 4168 H 399.791 -1.37489 -2.1784 0
M  V30 4169 H 399.749 0.0597103 -3.14343 0
M  V30 4170 N 403.521 0.559213 -1.47345 0
M  V30 4171 C 404.761 1.32728 -1.55444 0
M  V30 4172 C 405.125 1.90838 -0.210895 0
M  V30 4173 O 406.326 2.68282 -0.166719 0
M  V30 4174 C 404.597 2.4092 -2.63993 0
M  V30 4175 S 406.156 3.2784 -2.91661 0
M  V30 4176 H 402.974 0.451883 -0.548929 0
M  V30 4177 H 405.576 0.640404 -1.84714 0
M  V30 4178 H 404.28 1.9666 -3.60212 0
M  V30 4179 H 403.811 3.14351 -2.36531 0
M  V30 4180 H 405.826 4.40341 -2.28722 0
M  V30 4181 N 404.999 1.35443 0.805782 0
M  V30 4182 C 406.227 1.31878 1.59423 0
M  V30 4183 C 406.642 -0.103562 1.88516 0
M  V30 4184 O 405.999 -1.05575 1.48863 0
M  V30 4185 C 406.05 2.12426 2.92502 0
M  V30 4186 O 405.771 3.49115 2.6467 0
M  V30 4187 C 407.272 2.16455 3.86862 0
M  V30 4188 H 404.492 0.453002 0.495005 0
M  V30 4189 H 407.036 1.78309 1.00131 0
M  V30 4190 H 405.191 1.69593 3.48306 0
M  V30 4191 H 405.605 3.90957 3.49647 0
M  V30 4192 H 407.079 2.77204 4.77349 0
M  V30 4193 H 407.556 1.16352 4.23508 0
M  V30 4194 H 408.162 2.59453 3.36993 0
M  V30 4195 N 406.477 -1.02803 1.19454 0
M  V30 4196 C 407.723 -1.76478 0.999171 0
M  V30 4197 C 408.056 -1.88456 -0.468828 0
M  V30 4198 O 407.331 -1.40198 -1.34814 0
M  V30 4199 C 407.614 -3.19044 1.66981 0
M  V30 4200 C 407.467 -3.14932 3.21151 0
M  V30 4201 C 408.786 -4.17456 1.39349 0
M  V30 4202 H 405.905 -0.640614 0.364393 0
M  V30 4203 H 408.547 -1.20005 1.47305 0
M  V30 4204 H 406.697 -3.67263 1.2669 0
M  V30 4205 H 408.369 -2.74605 3.70661 0
M  V30 4206 H 406.612 -2.52625 3.52652 0
M  V30 4207 H 407.283 -4.1566 3.63223 0
M  V30 4208 H 409.759 -3.77842 1.74283 0
M  V30 4209 H 408.635 -5.154 1.88823 0
M  V30 4210 H 408.896 -4.40949 0.318813 0
M  V30 4211 N 407.956 -0.998596 -1.21925 0
M  V30 4212 C 409.204 -0.676325 -1.90448 0
M  V30 4213 C 409.525 0.794719 -1.78071 0
M  V30 4214 O 408.795 1.5701 -1.17152 0
M  V30 4215 H 407.375 -0.247165 -0.704925 0
M  V30 4216 H 410.037 -1.26633 -1.48156 0
M  V30 4217 H 409.133 -0.943858 -2.97486 0
M  V30 4218 N 409.434 1.37368 -0.772513 0
M  V30 4219 C 410.682 1.99279 -0.336516 0
M  V30 4220 C 411.003 1.6163 1.09091 0
M  V30 4221 O 410.273 0.882109 1.74916 0
M  V30 4222 H 408.853 0.737063 -0.121435 0
M  V30 4223 H 411.515 1.67836 -0.990809 0
M  V30 4224 H 410.611 3.09332 -0.414763 0
M  V30 4225 N 410.912 0.523116 1.48665 0
M  V30 4226 C 412.158 -0.0134963 2.02796 0
M  V30 4227 C 412.491 -1.34582 1.40004 0
M  V30 4228 O 411.766 -1.86756 0.543381 0
M  V30 4229 C 412.049 -0.14276 3.59817 0
M  V30 4230 C 411.902 1.21425 4.331 0
M  V30 4231 C 413.221 -0.872856 4.31357 0
M  V30 4232 H 410.34 -0.00343074 0.736992 0
M  V30 4233 H 412.982 0.678816 1.7746 0
M  V30 4234 H 411.132 -0.732401 3.81534 0
M  V30 4235 H 412.804 1.84447 4.2282 0
M  V30 4236 H 411.047 1.79791 3.94788 0
M  V30 4237 H 411.718 1.07687 5.41394 0
M  V30 4238 H 414.194 -0.372555 4.14429 0
M  V30 4239 H 413.07 -0.932185 5.40927 0
M  V30 4240 H 413.331 -1.92161 3.98154 0
M  V30 4241 N 412.39 -1.55475 0.257931 0
M  V30 4242 C 413.63 -2.01112 -0.365129 0
M  V30 4243 C 413.994 -1.1423 -1.54323 0
M  V30 4244 O 415.195 -1.49371 -2.23477 0
M  V30 4245 C 413.466 -3.49353 -0.754117 0
M  V30 4246 S 415.025 -4.16992 -1.36614 0
M  V30 4247 H 411.843 -0.701737 -0.114397 0
M  V30 4248 H 414.445 -1.91855 0.375747 0
M  V30 4249 H 413.149 -4.10246 0.112441 0
M  V30 4250 H 412.68 -3.6256 -1.52689 0
M  V30 4251 H 414.695 -4.19191 -2.65505 0
M  V30 4252 N 413.868 0.0150385 -1.57593 0
M  V30 4253 C 415.096 0.714395 -1.94175 0
M  V30 4254 C 415.511 1.68135 -0.858841 0
M  V30 4255 O 414.868 1.81766 0.163567 0
M  V30 4256 C 414.919 1.45933 -3.30735 0
M  V30 4257 O 414.64 0.531167 -4.34868 0
M  V30 4258 C 416.141 2.25456 -3.81686 0
M  V30 4259 H 413.361 0.199923 -0.640525 0
M  V30 4260 H 415.905 -0.0316096 -2.04476 0
M  V30 4261 H 414.06 2.15709 -3.21789 0
M  V30 4262 H 414.474 1.05509 -5.13778 0
M  V30 4263 H 415.948 2.731 -4.79709 0
M  V30 4264 H 416.425 3.07485 -3.13607 0
M  V30 4265 H 417.031 1.60727 -3.9376 0
M  V30 4266 N 415.346 1.54954 0.287554 0
M  V30 4267 C 416.594 1.74528 1.01904 0
M  V30 4268 C 416.915 0.541349 1.87335 0
M  V30 4269 O 416.185 -0.444108 1.908 0
M  V30 4270 H 414.765 0.643576 0.379235 0
M  V30 4271 H 417.427 1.92333 0.315294 0
M  V30 4272 H 416.523 2.64015 1.6644 0
M  V30 4273 N 416.824 -0.551391 1.4764 0
M  V30 4274 C 417.754 -1.66757 1.63445 0
M  V30 4275 C 418.735 -1.63077 0.483742 0
M  V30 4276 O 419.92 -1.80607 0.71377 0
M  V30 4277 C 417.05 -3.05387 1.65396 0
M  V30 4278 C 416.004 -3.23918 2.79752 0
M  V30 4279 C 415.33 -4.63393 2.66779 0
M  V30 4280 C 416.63 -3.08735 4.21284 0
M  V30 4281 H 418.324 -1.53786 2.56886 0
M  V30 4282 H 415.87 -0.738415 1.23626 0
M  V30 4283 H 417.823 -3.83325 1.75043 0
M  V30 4284 H 416.547 -3.19332 0.685195 0
M  V30 4285 H 415.206 -2.48391 2.69625 0
M  V30 4286 H 414.854 -4.74144 1.67918 0
M  V30 4287 H 414.554 -4.7674 3.43501 0
M  V30 4288 H 416.078 -5.43458 2.78364 0
M  V30 4289 H 417.492 -3.76484 4.32357 0
M  V30 4290 H 415.889 -3.33588 4.98838 0
M  V30 4291 H 416.959 -2.0541 4.39243 0
M  V30 4292 N 418.302 -1.35869 -0.798587 0
M  V30 4293 C 419.55 -1.29332 -1.55298 0
M  V30 4294 C 419.871 0.129729 -1.94568 0
M  V30 4295 O 419.141 1.06796 -1.6423 0
M  V30 4296 H 417.721 -0.475737 -0.57592 0
M  V30 4297 H 420.383 -1.70062 -0.952093 0
M  V30 4298 H 419.479 -1.91458 -2.46476 0
M  V30 4299 N 419.78 1.02168 -1.19998 0
M  V30 4300 C 420.713 2.10232 -0.887558 0
M  V30 4301 C 421.691 1.61827 0.158317 0
M  V30 4302 O 422.875 1.88471 0.0330249 0
M  V30 4303 C 420.002 3.37092 -0.32964 0
M  V30 4304 C 419.048 4.0438 -1.3557 0
M  V30 4305 S 419.881 4.48956 -2.91888 0
M  V30 4306 C 421.037 5.79024 -2.37658 0
M  V30 4307 H 421.27 2.36409 -1.80272 0
M  V30 4308 H 418.803 1.15211 -1.0279 0
M  V30 4309 H 420.761 4.10498 -0.0142824 0
M  V30 4310 H 419.422 3.08996 0.563941 0
M  V30 4311 H 418.615 4.95632 -0.9146 0
M  V30 4312 H 418.217 3.37176 -1.61828 0
M  V30 4313 H 420.509 6.53942 -1.77103 0
M  V30 4314 H 421.452 6.27924 -3.27287 0
M  V30 4315 H 421.86 5.35043 -1.79971 0
M  V30 4316 N 421.258 1.00505 1.21394 0
M  V30 4317 C 422.669 0.721082 1.72213 0
M  V30 4318 C 423.02 -0.761263 1.80829 0
M  V30 4319 O 422.145 -1.59464 1.46288 0
M  V30 4320 C 422.74 1.30228 3.12772 0
M  V30 4321 C 421.299 1.06743 3.60947 0
M  V30 4322 C 420.446 1.41507 2.38477 0
M  V30 4323 H 423.397 1.17594 1.06571 0
M  V30 4324 H 423.418 0.686955 3.74247 0
M  V30 4325 H 422.93 2.38115 3.06468 0
M  V30 4326 H 421.031 0.00572162 3.726 0
M  V30 4327 H 421.144 1.73936 4.46411 0
M  V30 4328 H 419.508 0.833852 2.40664 0
M  V30 4329 H 420.291 2.50424 2.34824 0
M  V30 4330 N 422.737 -1.36956 0.779787 0
M  V30 4331 C 424.148 -1.82094 0.412156 0
M  V30 4332 C 424.499 -1.64926 -1.06273 0
M  V30 4333 O 423.624 -1.16483 -1.82375 0
M  V30 4334 C 424.219 -3.3059 0.741319 0
M  V30 4335 C 422.778 -3.73974 0.426641 0
M  V30 4336 C 421.925 -2.59368 0.980987 0
M  V30 4337 H 424.876 -1.25314 0.973758 0
M  V30 4338 H 424.897 -3.80489 0.028887 0
M  V30 4339 H 424.409 -3.43054 1.81482 0
M  V30 4340 H 422.51 -3.67076 -0.639215 0
M  V30 4341 H 422.623 -4.69778 0.940515 0
M  V30 4342 H 420.987 -2.51463 0.404757 0
M  V30 4343 H 421.77 -2.74621 2.06005 0
M  V30 4344 N 424.215 -0.530993 -1.48385 0
M  V30 4345 C 425.147 0.268353 -2.27624 0
M  V30 4346 C 426.16 0.903525 -1.35426 0
M  V30 4347 O 427.349 0.781796 -1.60469 0
M  V30 4348 C 424.449 1.39535 -3.08842 0
M  V30 4349 C 423.622 0.861913 -4.28824 0
M  V30 4350 C 422.681 1.87016 -4.91845 0
M  V30 4351 O 421.707 1.4267 -5.5103 0
M  V30 4352 N 422.909 3.20238 -4.84178 0
M  V30 4353 H 425.674 -0.41123 -2.96865 0
M  V30 4354 H 423.235 -0.365387 -1.57723 0
M  V30 4355 H 425.227 2.06803 -3.47871 0
M  V30 4356 H 423.797 1.97859 -2.42014 0
M  V30 4357 H 423.017 0.0132126 -3.94198 0
M  V30 4358 H 424.305 0.484415 -5.06489 0
M  V30 4359 H 423.703 3.58932 -4.37246 0
M  V30 4360 H 422.26 3.83136 -5.27305 0
M  V30 4361 N 425.693 1.55336 -0.266172 0
M  V30 4362 C 426.641 2.23587 0.641228 0
M  V30 4363 C 427.635 1.22986 1.16494 0
M  V30 4364 O 428.841 1.40943 1.1196 0
M  V30 4365 H 425.216 0.717452 0.225315 0
M  V30 4366 H 427.187 2.9837 0.0426561 0
M  V30 4367 C 425.936 2.96369 1.81826 0
M  V30 4368 H 425.259 3.73563 1.42445 0
M  V30 4369 H 426.699 3.47459 2.42998 0
M  V30 4370 C 425.158 2.0133 2.70125 0
M  V30 4371 O 425.688 1.55875 3.70224 0
M  V30 4372 N 423.894 1.6802 2.37102 0
M  V30 4373 H 423.441 2.05181 1.55751 0
M  V30 4374 H 423.399 1.047 2.96454 0
M  V30 4375 N 427.171 -0.0066808 1.57599 0
M  V30 4376 C 428.417 -0.693947 1.90558 0
M  V30 4377 C 428.75 -1.73792 0.866594 0
M  V30 4378 O 428.025 -1.94156 -0.115548 0
M  V30 4379 C 428.308 -1.34317 3.34112 0
M  V30 4380 C 428.161 -0.311189 4.48722 0
M  V30 4381 C 429.48 -2.27116 3.7697 0
M  V30 4382 H 426.599 -0.250803 0.693013 0
M  V30 4383 H 429.241 0.043242 1.89951 0
M  V30 4384 H 427.391 -1.9715 3.3476 0
M  V30 4385 H 429.063 0.316944 4.6021 0
M  V30 4386 H 427.306 0.367253 4.32243 0
M  V30 4387 H 427.977 -0.804366 5.46108 0
M  V30 4388 H 430.453 -1.74306 3.77831 0
M  V30 4389 H 429.329 -2.69511 4.78179 0
M  V30 4390 H 429.59 -3.14743 3.10466 0
M  V30 4391 N 428.649 -1.55105 -0.279332 0
M  V30 4392 C 429.897 -1.75066 -1.00977 0
M  V30 4393 C 430.218 -0.551276 -1.87045 0
M  V30 4394 O 429.488 0.433984 -1.91032 0
M  V30 4395 H 428.068 -0.645578 -0.375816 0
M  V30 4396 H 430.73 -1.92497 -0.305089 0
M  V30 4397 H 429.826 -2.64894 -1.65038 0
M  V30 4398 N 430.127 0.543554 -1.4793 0
M  V30 4399 C 431.037 1.67657 -1.64098 0
M  V30 4400 C 432.053 1.65934 -0.523622 0
M  V30 4401 O 433.229 1.85133 -0.792943 0
M  V30 4402 C 430.294 3.04146 -1.66421 0
M  V30 4403 C 429.355 3.16831 -2.89684 0
M  V30 4404 C 428.588 4.46809 -2.91886 0
M  V30 4405 O 428.811 5.33095 -2.02895 0
M  V30 4406 O 427.745 4.63573 -3.83906 0
M  V30 4407 H 431.571 1.56957 -2.59997 0
M  V30 4408 H 429.156 0.715116 -1.31173 0
M  V30 4409 H 431.038 3.85346 -1.70548 0
M  V30 4410 H 429.713 3.152 -0.736923 0
M  V30 4411 H 428.62 2.34977 -2.91095 0
M  V30 4412 H 429.953 3.10687 -3.81752 0
M  V30 4413 N 431.605 1.3629 0.791371 0
M  V30 4414 C 432.851 1.30605 1.55146 0
M  V30 4415 C 433.184 -0.115042 1.93859 0
M  V30 4416 O 432.459 -1.06798 1.62556 0
M  V30 4417 C 432.742 2.22692 2.82985 0
M  V30 4418 C 432.595 3.73489 2.50651 0
M  V30 4419 C 433.914 2.13588 3.84796 0
M  V30 4420 H 431.033 0.475761 0.562868 0
M  V30 4421 H 433.675 1.66825 0.909358 0
M  V30 4422 H 431.825 1.91933 3.37778 0
M  V30 4423 H 433.497 4.14758 2.01924 0
M  V30 4424 H 431.74 3.93021 1.83622 0
M  V30 4425 H 432.411 4.3333 3.41949 0
M  V30 4426 H 434.887 2.40659 3.39445 0
M  V30 4427 H 433.763 2.80195 4.71998 0
M  V30 4428 H 434.024 1.12256 4.27611 0
M  V30 4429 N 433.083 -1.0153 1.20538 0
M  V30 4430 C 434.313 -1.78487 1.04048 0
M  V30 4431 C 434.721 -1.84631 -0.413292 0
M  V30 4432 O 434.064 -1.29919 -1.29872 0
M  V30 4433 C 434.126 -3.24367 1.55003 0
M  V30 4434 C 433.79 -3.41827 3.0332 0
M  V30 4435 C 434.787 -3.30941 4.00966 0
M  V30 4436 C 432.472 -3.67602 3.42307 0
M  V30 4437 C 434.466 -3.45577 5.35589 0
M  V30 4438 C 432.153 -3.81881 4.77085 0
M  V30 4439 C 433.151 -3.70874 5.73534 0
M  V30 4440 O 432.839 -3.84714 7.05868 0
M  V30 4441 H 432.571 -0.568108 0.366373 0
M  V30 4442 H 435.125 -1.28677 1.60098 0
M  V30 4443 H 433.355 -3.75266 0.933397 0
M  V30 4444 H 435.044 -3.82963 1.34514 0
M  V30 4445 H 435.81 -3.10964 3.72191 0
M  V30 4446 H 431.689 -3.75256 2.67776 0
M  V30 4447 H 435.233 -3.36902 6.10854 0
M  V30 4448 H 431.13 -4.01359 5.0555 0
M  V30 4449 H 431.898 -4.01724 7.13134 0
M  V30 4450 N 434.561 -1.01147 -1.20859 0
M  V30 4451 C 435.809 -0.696486 -1.89719 0
M  V30 4452 C 436.13 0.775788 -1.78904 0
M  V30 4453 O 435.4 1.55759 -1.18811 0
M  V30 4454 H 433.98 -0.254628 -0.702263 0
M  V30 4455 H 436.642 -1.28197 -1.46804 0
M  V30 4456 H 435.738 -0.975357 -2.96468 0
M  V30 4457 N 436.039 1.36541 -0.78704 0
M  V30 4458 C 437.285 1.99599 -0.358872 0
M  V30 4459 C 437.618 1.62323 1.06606 0
M  V30 4460 O 436.893 0.876858 1.73613 0
M  V30 4461 C 437.176 3.56327 -0.519944 0
M  V30 4462 C 437.029 4.03464 -1.98839 0
M  V30 4463 C 438.348 4.4005 0.0664737 0
M  V30 4464 H 435.467 0.725107 -0.131869 0
M  V30 4465 H 438.109 1.6199 -0.992936 0
M  V30 4466 H 436.259 3.88495 0.0198321 0
M  V30 4467 H 437.931 3.81793 -2.58905 0
M  V30 4468 H 436.174 3.55092 -2.49183 0
M  V30 4469 H 436.845 5.12439 -2.05207 0
M  V30 4470 H 439.321 4.14228 -0.394267 0
M  V30 4471 H 438.197 5.48847 -0.0762682 0
M  V30 4472 H 438.458 4.26655 1.15835 0
M  V30 4473 N 437.518 0.538854 1.48102 0
M  V30 4474 C 438.764 0.00801365 2.02798 0
M  V30 4475 C 439.097 -1.3309 1.41424 0
M  V30 4476 O 438.372 -1.86169 0.563158 0
M  V30 4477 C 438.655 -0.104589 3.59948 0
M  V30 4478 C 438.508 1.26012 4.31788 0
M  V30 4479 C 439.827 -0.827055 4.32259 0
M  V30 4480 H 436.946 0.00438624 0.736987 0
M  V30 4481 H 439.588 0.6976 1.7673 0
M  V30 4482 H 437.738 -0.691893 3.82289 0
M  V30 4483 H 439.41 1.88922 4.2084 0
M  V30 4484 H 437.653 1.83968 3.92859 0
M  V30 4485 H 438.324 1.13424 5.40221 0
M  V30 4486 H 440.8 -0.328578 4.14801 0
M  V30 4487 H 439.676 -0.87476 5.41885 0
M  V30 4488 H 439.937 -1.87927 4.0017 0
M  V30 4489 N 438.996 -1.55193 0.274407 0
M  V30 4490 C 439.943 -2.225 -0.613374 0
M  V30 4491 C 440.913 -1.19823 -1.15029 0
M  V30 4492 O 442.098 -1.48362 -1.19973 0
M  V30 4493 C 439.238 -2.94927 -1.79199 0
M  V30 4494 C 438.351 -4.12322 -1.28899 0
M  V30 4495 C 437.486 -4.72394 -2.42934 0
M  V30 4496 C 436.525 -5.81984 -1.89634 0
M  V30 4497 N 435.662 -6.36123 -2.9714 0
M  V30 4498 H 440.502 -2.97982 -0.032756 0
M  V30 4499 H 438.039 -1.47099 -0.00440146 0
M  V30 4500 H 439.997 -3.35134 -2.48478 0
M  V30 4501 H 438.627 -2.2187 -2.34465 0
M  V30 4502 H 437.679 -3.7724 -0.489327 0
M  V30 4503 H 438.991 -4.91355 -0.858587 0
M  V30 4504 H 438.145 -5.15317 -3.20208 0
M  V30 4505 H 436.884 -3.92636 -2.8929 0
M  V30 4506 H 435.889 -5.38511 -1.1084 0
M  V30 4507 H 437.114 -6.6361 -1.44215 0
M  V30 4508 H 435.06 -5.59259 -3.42878 0
M  V30 4509 H 434.977 -7.10427 -2.58515 0
M  V30 4510 H 436.245 -6.83704 -3.74391 0
M  V30 4511 N 440.474 -0.00167713 -1.576 0
M  V30 4512 C 441.437 0.974046 -2.07473 0
M  V30 4513 C 442.437 1.27143 -0.984444 0
M  V30 4514 O 443.627 1.21633 -1.24703 0
M  V30 4515 C 440.759 2.29849 -2.51759 0
M  V30 4516 H 441.952 0.54262 -2.9495 0
M  V30 4517 H 439.505 0.245829 -1.54355 0
M  V30 4518 H 440.24 2.77677 -1.67529 0
M  V30 4519 H 440.025 2.09584 -3.31386 0
M  V30 4520 H 441.515 2.9984 -2.90664 0
M  V30 4521 N 441.952 1.55251 0.271103 0
M  V30 4522 C 443.182 1.79713 1.01916 0
M  V30 4523 C 443.59 0.571613 1.80359 0
M  V30 4524 O 442.933 -0.468853 1.77616 0
M  V30 4525 C 442.995 2.97138 2.02359 0
M  V30 4526 C 442.659 4.34104 1.42837 0
M  V30 4527 C 443.656 5.13019 0.843071 0
M  V30 4528 C 441.341 4.80765 1.455 0
M  V30 4529 C 443.335 6.36729 0.292333 0
M  V30 4530 C 441.022 6.0443 0.900402 0
M  V30 4531 C 442.02 6.8225 0.32007 0
M  V30 4532 O 441.708 8.03582 -0.226031 0
M  V30 4533 H 441.44 0.602431 0.306681 0
M  V30 4534 H 443.994 2.03097 0.306701 0
M  V30 4535 H 442.224 2.6945 2.77369 0
M  V30 4536 H 443.913 3.08907 2.63309 0
M  V30 4537 H 444.679 4.781 0.815178 0
M  V30 4538 H 440.558 4.20202 1.89609 0
M  V30 4539 H 444.102 6.97414 -0.161274 0
M  V30 4540 H 439.999 6.3883 0.925541 0
M  V30 4541 H 440.767 8.18418 -0.115572 0
M  V30 4542 N 443.43 -0.535701 1.48216 0
M  V30 4543 C 444.658 -1.31671 1.59594 0
M  V30 4544 C 445.073 -1.87083 0.254056 0
M  V30 4545 O 444.43 -1.66112 -0.755854 0
M  V30 4546 C 444.481 -2.47158 2.63809 0
M  V30 4547 O 444.202 -1.94032 3.92789 0
M  V30 4548 C 445.703 -3.39062 2.85573 0
M  V30 4549 H 442.923 -0.400623 0.538277 0
M  V30 4550 H 445.467 -0.646827 1.94001 0
M  V30 4551 H 443.622 -3.10043 2.32276 0
M  V30 4552 H 444.036 -2.69585 4.49916 0
M  V30 4553 H 445.51 -4.16459 3.62306 0
M  V30 4554 H 445.987 -3.93941 1.94184 0
M  V30 4555 H 446.593 -2.81975 3.18387 0
M  V30 4556 N 444.908 -1.36708 -0.784132 0
M  V30 4557 C 446.136 -1.34398 -1.57305 0
M  V30 4558 C 446.551 0.0735577 -1.88657 0
M  V30 4559 O 445.908 1.03193 -1.50524 0
M  V30 4560 C 445.959 -2.17053 -2.89085 0
M  V30 4561 O 445.68 -3.53281 -2.59083 0
M  V30 4562 C 447.181 -2.22583 -3.83369 0
M  V30 4563 H 444.401 -0.460819 -0.487736 0
M  V30 4564 H 446.945 -1.79879 -0.972819 0
M  V30 4565 H 445.1 -1.75113 -3.45564 0
M  V30 4566 H 445.514 -3.9647 -3.43383 0
M  V30 4567 H 446.988 -2.84763 -4.72878 0
M  V30 4568 H 447.465 -1.23075 -4.21603 0
M  V30 4569 H 448.071 -2.64781 -3.32823 0
M  V30 4570 N 446.386 1.0089 -1.21074 0
M  V30 4571 C 447.802 1.2695 -0.967257 0
M  V30 4572 C 448.002 1.9846 0.348673 0
M  V30 4573 O 447.058 2.28459 1.0753 0
M  V30 4574 C 448.371 2.09697 -2.15517 0
M  V30 4575 C 449.919 2.22937 -2.197 0
M  V30 4576 C 450.394 3.09064 -3.37999 0
M  V30 4577 N 451.885 3.16653 -3.38061 0
M  V30 4578 C 452.62 3.8354 -4.26245 0
M  V30 4579 N 452.116 4.52488 -5.2462 0
M  V30 4580 N 453.909 3.80141 -4.14064 0
M  V30 4581 H 446.06 0.529005 -2.05707 0
M  V30 4582 H 448.323 0.296148 -0.900556 0
M  V30 4583 H 448.029 1.64497 -3.10859 0
M  V30 4584 H 447.903 3.10444 -2.14253 0
M  V30 4585 H 450.29 2.67357 -1.24916 0
M  V30 4586 H 450.371 1.21673 -2.2501 0
M  V30 4587 H 450.015 2.65347 -4.33074 0
M  V30 4588 H 449.945 4.10433 -3.29928 0
M  V30 4589 H 452.436 2.67566 -2.66865 0
M  V30 4590 H 452.749 5.01219 -5.88217 0
M  V30 4591 H 451.094 4.51288 -5.28549 0
M  V30 4592 H 454.285 3.25427 -3.36474 0
M  V30 4593 H 454.458 4.31992 -4.82998 0
M  V30 4594 N 447.864 1.01787 1.20321 0
M  V30 4595 C 449.11 0.708985 1.90003 0
M  V30 4596 C 449.443 -0.759572 1.78729 0
M  V30 4597 O 448.718 -1.55198 1.17234 0
M  V30 4598 C 449.001 1.1469 3.41348 0
M  V30 4599 C 448.854 2.67586 3.61549 0
M  V30 4600 C 450.173 0.71915 4.34185 0
M  V30 4601 H 447.292 0.259034 0.689978 0
M  V30 4602 H 449.934 1.26584 1.41692 0
M  V30 4603 H 448.084 0.673128 3.82624 0
M  V30 4604 H 449.756 3.22826 3.29517 0
M  V30 4605 H 447.999 3.085 3.04976 0
M  V30 4606 H 448.67 2.93281 4.67643 0
M  V30 4607 H 451.146 1.12647 4.00562 0
M  V30 4608 H 450.022 1.05358 5.38694 0
M  V30 4609 H 450.283 -0.379111 4.40472 0
M  V30 4610 N 449.342 -1.36122 0.79427 0
M  V30 4611 C 450.59 -1.98718 0.368177 0
M  V30 4612 C 450.911 -1.63345 -1.06506 0
M  V30 4613 O 450.181 -0.909825 -1.73491 0
M  V30 4614 H 448.761 -0.735038 0.133146 0
M  V30 4615 H 451.423 -1.66239 1.01739 0
M  V30 4616 H 450.519 -3.08633 0.463923 0
M  V30 4617 N 450.82 -0.546701 -1.47814 0
M  V30 4618 C 452.069 -0.0166497 -2.01693 0
M  V30 4619 C 452.382 1.33721 -1.42752 0
M  V30 4620 O 453.588 1.95658 -1.8823 0
M  V30 4621 C 452.044 0.0206769 -3.59894 0
M  V30 4622 C 451.652 -1.3293 -4.27824 0
M  V30 4623 C 453.396 0.498674 -4.21561 0
M  V30 4624 C 451.303 -1.25165 -5.78003 0
M  V30 4625 H 450.233 -0.0024541 -0.753996 0
M  V30 4626 H 452.884 -0.692984 -1.69912 0
M  V30 4627 H 451.266 0.76244 -3.88591 0
M  V30 4628 H 452.44 -2.08795 -4.10781 0
M  V30 4629 H 450.755 -1.74438 -3.78101 0
M  V30 4630 H 453.352 0.575 -5.31599 0
M  V30 4631 H 453.695 1.5083 -3.88016 0
M  V30 4632 H 454.228 -0.18791 -3.97356 0
M  V30 4633 H 450.967 -2.23695 -6.1615 0
M  V30 4634 H 450.487 -0.53464 -5.97412 0
M  V30 4635 H 452.166 -0.949299 -6.39998 0
M  V30 4636 N 452.299 1.55045 -0.282633 0
M  V30 4637 C 453.547 1.99365 0.331334 0
M  V30 4638 C 453.868 1.1725 1.55812 0
M  V30 4639 O 453.138 0.263871 1.94115 0
M  V30 4640 H 451.718 0.736397 0.125414 0
M  V30 4641 H 454.38 1.90964 -0.389711 0
M  V30 4642 H 453.476 3.0596 0.616036 0
M  V30 4643 N 453.777 0.010035 1.57597 0
M  V30 4644 C 454.74 -0.963029 2.07986 0
M  V30 4645 C 455.74 -1.26619 0.991173 0
M  V30 4646 O 456.93 -1.2097 1.25347 0
M  V30 4647 C 454.062 -2.2851 2.52974 0
M  V30 4648 H 455.255 -0.526971 2.95234 0
M  V30 4649 H 452.808 -0.237639 1.54483 0
M  V30 4650 H 453.543 -2.76784 1.69 0
M  V30 4651 H 453.328 -2.07824 3.32493 0
M  V30 4652 H 454.818 -2.98294 2.9225 0
M  V30 4653 N 455.255 -1.55392 -0.262866 0
M  V30 4654 C 456.502 -1.76476 -0.993109 0
M  V30 4655 C 456.83 -0.571479 -1.85915 0
M  V30 4656 O 456.085 0.445733 -1.90556 0
M  V30 4657 C 456.384 -3.02889 -1.89718 0
M  V30 4658 C 456.05 -4.34974 -1.18781 0
M  V30 4659 C 454.712 -4.7087 -0.991699 0
M  V30 4660 C 457.064 -5.16695 -0.683798 0
M  V30 4661 C 454.392 -5.86036 -0.279024 0
M  V30 4662 C 456.744 -6.32598 0.0153327 0
M  V30 4663 C 455.408 -6.67127 0.223062 0
M  V30 4664 H 454.678 -0.64577 -0.363404 0
M  V30 4665 H 457.325 -1.89664 -0.264525 0
M  V30 4666 H 455.63 -2.84644 -2.6923 0
M  V30 4667 H 457.327 -3.16399 -2.46359 0
M  V30 4668 H 453.917 -4.06765 -1.35058 0
M  V30 4669 H 458.101 -4.8943 -0.8229 0
M  V30 4670 H 453.357 -6.11306 -0.107456 0
M  V30 4671 H 457.531 -6.95171 0.413584 0
M  V30 4672 H 455.158 -7.56216 0.777265 0
M  V30 4673 N 456.733 0.527833 -1.48498 0
M  V30 4674 C 458.144 1.10975 -1.50138 0
M  V30 4675 C 458.495 1.943 -0.272378 0
M  V30 4676 O 457.62 2.07319 0.620301 0
M  V30 4677 C 458.215 2.01927 -2.72049 0
M  V30 4678 C 456.774 2.55332 -2.76554 0
M  V30 4679 C 455.921 1.32341 -2.43683 0
M  V30 4680 H 458.872 0.312986 -1.55583 0
M  V30 4681 H 458.893 2.86244 -2.50689 0
M  V30 4682 H 458.405 1.41254 -3.61481 0
M  V30 4683 H 456.506 3.19721 -1.91336 0
M  V30 4684 H 456.619 2.94319 -3.78038 0
M  V30 4685 H 454.983 1.63989 -1.94884 0
M  V30 4686 H 455.766 0.734165 -3.35358 0
M  V30 4687 N 458.211 1.37122 0.776871 0
M  V30 4688 C 459.439 1.3523 1.5659 0
M  V30 4689 C 459.854 -0.0635518 1.88693 0
M  V30 4690 O 459.211 -1.02394 1.51069 0
M  V30 4691 C 459.262 2.18583 2.8793 0
M  V30 4692 O 458.983 3.5465 2.57206 0
M  V30 4693 C 460.484 2.24612 3.82183 0
M  V30 4694 H 457.704 0.4634 0.485285 0
M  V30 4695 H 460.248 1.80392 0.963266 0
M  V30 4696 H 458.403 1.76943 3.4463 0
M  V30 4697 H 458.817 3.98286 3.41275 0
M  V30 4698 H 460.291 2.87267 4.71361 0
M  V30 4699 H 460.768 1.25309 4.20944 0
M  V30 4700 H 461.374 2.66543 3.31414 0
M  V30 4701 N 459.689 -1.00246 1.21608 0
M  V30 4702 C 460.599 -2.12515 0.993709 0
M  V30 4703 C 461.615 -1.73913 -0.0549939 0
M  V30 4704 O 462.791 -2.00943 0.135619 0
M  V30 4705 C 459.856 -3.42083 0.563953 0
M  V30 4706 C 458.917 -3.94843 1.68516 0
M  V30 4707 C 458.15 -5.18226 1.27582 0
M  V30 4708 O 458.373 -5.70201 0.150506 0
M  V30 4709 O 457.307 -5.64497 2.0887 0
M  V30 4710 H 461.133 -2.34152 1.93407 0
M  V30 4711 H 458.718 -1.10891 1.00118 0
M  V30 4712 H 460.6 -4.20073 0.334194 0
M  V30 4713 H 459.275 -3.21828 -0.347665 0
M  V30 4714 H 458.182 -3.18068 1.96935 0
M  V30 4715 H 459.515 -4.19512 2.5743 0
M  V30 4716 N 461.167 -1.02423 -1.1978 0
M  V30 4717 C 462.099 -0.559152 -2.22275 0
M  V30 4718 C 463.112 0.36251 -1.58713 0
M  V30 4719 O 464.301 0.159641 -1.77785 0
M  V30 4720 C 461.401 0.205094 -3.38279 0
M  V30 4721 C 460.574 -0.720361 -4.31427 0
M  V30 4722 C 459.633 -0.00234368 -5.262 0
M  V30 4723 O 458.659 -0.627378 -5.65732 0
M  V30 4724 N 459.861 1.26996 -5.66438 0
M  V30 4725 H 462.626 -1.44064 -2.62804 0
M  V30 4726 H 460.187 -0.902692 -1.34399 0
M  V30 4727 H 462.179 0.694868 -3.9869 0
M  V30 4728 H 460.749 0.987947 -2.96578 0
M  V30 4729 H 459.969 -1.39031 -3.68869 0
M  V30 4730 H 461.257 -1.3495 -4.90577 0
M  V30 4731 H 460.655 1.79858 -5.36347 0
M  V30 4732 H 459.212 1.70432 -6.29123 0
M  V30 4733 N 462.645 1.35699 -0.801477 0
M  V30 4734 C 463.922 1.9324 -0.302937 0
M  V30 4735 C 464.302 1.73209 1.20672 0
M  V30 4736 O 463.65 1.09809 2.00385 0
M  V30 4737 C 463.86 3.41728 -0.708747 0
M  V30 4738 C 465.208 4.18868 -0.695328 0
M  V30 4739 O 466.232 3.5022 -0.649971 0
M  V30 4740 O 465.091 5.41342 -0.749081 0
M  V30 4741 H 462.185 0.82331 -0.0780367 0
M  V30 4742 H 464.731 1.44806 -0.884832 0
M  V30 4743 H 463.503 3.50015 -1.74944 0
M  V30 4744 H 463.126 3.97471 -0.101384 0
M  V30 4745 N 464.123 0.554532 1.47522 0
M  V30 4746 C 465.071 -0.207765 2.3167 0
M  V30 4747 C 466.065 -0.911914 1.4276 0
M  V30 4748 O 467.271 -0.833504 1.59539 0
M  V30 4749 H 463.646 -0.0858726 0.747081 0
M  V30 4750 H 465.617 0.521178 2.93813 0
M  V30 4751 C 464.366 -1.2263 3.25357 0
M  V30 4752 H 463.689 -0.693887 3.93732 0
M  V30 4753 H 465.129 -1.73062 3.87073 0
M  V30 4754 C 463.588 -2.27278 2.4869 0
M  V30 4755 O 464.118 -3.34156 2.22941 0
M  V30 4756 N 462.324 -2.01134 2.09746 0
M  V30 4757 H 461.871 -1.14232 2.30887 0
M  V30 4758 H 461.829 -2.71369 1.58765 0
M  V30 4759 N 465.601 -1.54893 0.290851 0
M  V30 4760 C 466.511 -2.26812 -0.59945 0
M  V30 4761 C 467.527 -1.29963 -1.15696 0
M  V30 4762 O 468.703 -1.62928 -1.18391 0
M  V30 4763 C 465.768 -2.98716 -1.75982 0
M  V30 4764 C 464.829 -4.1108 -1.2374 0
M  V30 4765 C 464.062 -4.79546 -2.34246 0
M  V30 4766 O 464.285 -4.47309 -3.53936 0
M  V30 4767 O 463.219 -5.67165 -2.01512 0
M  V30 4768 H 467.045 -3.03696 -0.0163561 0
M  V30 4769 H 464.63 -1.49289 0.0576755 0
M  V30 4770 H 466.512 -3.43851 -2.43607 0
M  V30 4771 H 465.187 -2.24737 -2.3297 0
M  V30 4772 H 464.094 -3.70367 -0.527163 0
M  V30 4773 H 465.427 -4.87007 -0.71307 0
M  V30 4774 N 467.08 -0.0183926 -1.57589 0
M  V30 4775 C 468.329 0.66185 -1.90532 0
M  V30 4776 C 468.642 1.73904 -0.895366 0
M  V30 4777 O 469.848 2.47518 -1.11566 0
M  V30 4778 C 468.304 1.22844 -3.38286 0
M  V30 4779 C 467.912 0.185103 -4.47617 0
M  V30 4780 C 469.656 1.88581 -3.80312 0
M  V30 4781 C 467.563 0.762723 -5.86461 0
M  V30 4782 H 466.493 0.250972 -0.711006 0
M  V30 4783 H 469.144 -0.0819435 -1.83317 0
M  V30 4784 H 467.526 2.0235 -3.40398 0
M  V30 4785 H 468.7 -0.58671 -4.5705 0
M  V30 4786 H 467.015 -0.372889 -4.14727 0
M  V30 4787 H 469.612 2.32735 -4.81392 0
M  V30 4788 H 469.955 2.72408 -3.14801 0
M  V30 4789 H 470.488 1.15782 -3.80578 0
M  V30 4790 H 467.227 -0.0371713 -6.55489 0
M  V30 4791 H 466.747 1.50327 -5.80656 0
M  V30 4792 H 468.426 1.25576 -6.34697 0
M  V30 4793 N 468.558 1.5553 0.254621 0
M  V30 4794 C 469.806 1.7665 0.981793 0
M  V30 4795 C 470.127 0.580963 1.86145 0
M  V30 4796 O 469.397 -0.403537 1.91699 0
M  V30 4797 H 467.977 0.651475 0.365498 0
M  V30 4798 H 470.639 1.92958 0.274426 0
M  V30 4799 H 469.735 2.67486 1.60802 0
M  V30 4800 N 470.036 -0.519951 1.48776 0
M  V30 4801 C 470.946 -1.65025 1.66745 0
M  V30 4802 C 471.962 -1.6508 0.549954 0
M  V30 4803 O 473.138 -1.83848 0.822295 0
M  V30 4804 C 470.203 -3.0146 1.71238 0
M  V30 4805 C 469.264 -3.12182 2.94688 0
M  V30 4806 C 468.497 -4.42109 2.98958 0
M  V30 4807 O 468.72 -5.29799 2.1135 0
M  V30 4808 O 467.654 -4.57406 3.91233 0
M  V30 4809 H 471.48 -1.52801 2.62461 0
M  V30 4810 H 469.065 -0.694157 1.32294 0
M  V30 4811 H 470.947 -3.82584 1.76657 0
M  V30 4812 H 469.622 -3.13988 0.786975 0
M  V30 4813 H 468.529 -2.30316 2.94797 0
M  V30 4814 H 469.862 -3.04574 3.86646 0
M  V30 4815 N 471.514 -1.37532 -0.769588 0
M  V30 4816 C 472.444 -1.36172 -1.89682 0
M  V30 4817 C 473.425 -0.23001 -1.68538 0
M  V30 4818 O 474.61 -0.43069 -1.89364 0
M  V30 4819 C 471.74 -1.1701 -3.26995 0
M  V30 4820 C 470.694 -2.27216 -3.62708 0
M  V30 4821 C 470.02 -1.93174 -4.98586 0
M  V30 4822 C 471.32 -3.6941 -3.69234 0
M  V30 4823 H 473.014 -2.30499 -1.91078 0
M  V30 4824 H 470.56 -1.10953 -0.917902 0
M  V30 4825 H 472.513 -1.14688 -4.05493 0
M  V30 4826 H 471.237 -0.191395 -3.26039 0
M  V30 4827 H 469.896 -2.28697 -2.86519 0
M  V30 4828 H 469.544 -0.938281 -4.94171 0
M  V30 4829 H 469.244 -2.66973 -5.23449 0
M  V30 4830 H 470.768 -1.92443 -5.79481 0
M  V30 4831 H 472.182 -3.70047 -4.37879 0
M  V30 4832 H 470.579 -4.4228 -4.05597 0
M  V30 4833 H 471.649 -4.0288 -2.69844 0
M  V30 4834 N 472.992 0.995999 -1.22138 0
M  V30 4835 C 473.922 2.10387 -1.01289 0
M  V30 4836 C 474.903 1.69975 0.0651454 0
M  V30 4837 O 476.088 1.9396 -0.0964628 0
M  V30 4838 C 473.218 3.42312 -0.586517 0
M  V30 4839 C 472.172 3.96558 -1.61014 0
M  V30 4840 C 471.498 5.24494 -1.0397 0
M  V30 4841 C 472.798 4.27595 -2.99933 0
M  V30 4842 H 474.492 2.28086 -1.93951 0
M  V30 4843 H 472.038 1.09607 -0.933928 0
M  V30 4844 H 473.991 4.19223 -0.427793 0
M  V30 4845 H 472.715 3.24431 0.375761 0
M  V30 4846 H 471.374 3.21776 -1.75658 0
M  V30 4847 H 471.022 5.02953 -0.0688703 0
M  V30 4848 H 470.722 5.61755 -1.72352 0
M  V30 4849 H 472.246 6.04042 -0.892494 0
M  V30 4850 H 473.66 4.95315 -2.8868 0
M  V30 4851 H 472.057 4.76021 -3.6541 0
M  V30 4852 H 473.127 3.35498 -3.50099 0
M  V30 4853 N 474.47 1.03057 1.19235 0
M  V30 4854 C 475.402 0.570932 2.21975 0
M  V30 4855 C 476.415 -0.354088 1.58903 0
M  V30 4856 O 477.604 -0.150211 1.77867 0
M  V30 4857 C 474.704 -0.187152 3.38383 0
M  V30 4858 C 473.877 0.743231 4.31039 0
M  V30 4859 C 472.936 0.0302493 5.26191 0
M  V30 4860 O 471.962 0.657371 5.65391 0
M  V30 4861 N 473.164 -1.23991 5.67104 0
M  V30 4862 H 475.929 1.45456 2.62036 0
M  V30 4863 H 473.49 0.909807 1.33918 0
M  V30 4864 H 475.482 -0.673715 3.99053 0
M  V30 4865 H 474.052 -0.972205 2.97098 0
M  V30 4866 H 473.272 1.40985 3.68126 0
M  V30 4867 H 474.56 1.3755 4.89854 0
M  V30 4868 H 473.958 -1.77011 5.37293 0
M  V30 4869 H 472.515 -1.67093 6.30018 0
M  V30 4870 N 475.948 -1.35272 0.808662 0
M  V30 4871 C 477.176 -2.02946 0.402537 0
M  V30 4872 C 477.591 -1.60937 -0.987147 0
M  V30 4873 O 476.948 -0.807917 -1.63643 0
M  V30 4874 C 476.999 -3.58317 0.47868 0
M  V30 4875 O 476.72 -3.98799 1.81358 0
M  V30 4876 C 478.221 -4.43251 0.0656281 0
M  V30 4877 H 475.441 -0.650831 0.163279 0
M  V30 4878 H 477.985 -1.72849 1.09286 0
M  V30 4879 H 476.14 -3.87055 -0.163415 0
M  V30 4880 H 476.554 -4.93451 1.77781 0
M  V30 4881 H 478.028 -5.51738 0.170017 0
M  V30 4882 H 478.505 -4.27913 -0.989278 0
M  V30 4883 H 479.111 -4.19813 0.68096 0
M  V30 4884 N 477.426 -0.562348 -1.47226 0
M  V30 4885 C 478.842 -0.222492 -1.58042 0
M  V30 4886 C 479.042 1.27505 -1.56028 0
M  V30 4887 O 478.098 2.05555 -1.46641 0
M  V30 4888 C 479.411 -0.853694 -2.88327 0
M  V30 4889 C 480.959 -0.825397 -3.01921 0
M  V30 4890 C 481.434 -1.43576 -4.34914 0
M  V30 4891 N 482.925 -1.39918 -4.41562 0
M  V30 4892 C 483.66 -1.84103 -5.43041 0
M  V30 4893 N 483.156 -2.36167 -6.51304 0
M  V30 4894 N 484.949 -1.75142 -5.34118 0
M  V30 4895 H 477.1 -1.53525 -1.46778 0
M  V30 4896 H 479.363 -0.640527 -0.698877 0
M  V30 4897 H 479.069 -1.90635 -2.95552 0
M  V30 4898 H 478.943 -0.34977 -3.75575 0
M  V30 4899 H 481.33 0.218583 -2.94289 0
M  V30 4900 H 481.411 -1.36713 -2.16202 0
M  V30 4901 H 481.055 -2.47884 -4.43301 0
M  V30 4902 H 480.985 -0.869427 -5.19373 0
M  V30 4903 H 483.476 -1.0184 -3.63919 0
M  V30 4904 H 483.789 -2.67793 -7.24919 0
M  V30 4905 H 482.134 -2.40181 -6.52179 0
M  V30 4906 H 485.325 -1.34241 -4.48439 0
M  V30 4907 H 485.498 -2.09895 -6.13065 0
M  V30 4908 N 478.904 1.54736 -0.299062 0
M  V30 4909 C 480.152 1.99706 0.31017 0
M  V30 4910 C 480.473 1.18896 1.54559 0
M  V30 4911 O 479.743 0.284445 1.93824 0
M  V30 4912 H 478.323 0.737686 0.117596 0
M  V30 4913 H 480.985 1.9054 -0.409943 0
M  V30 4914 H 480.081 3.06596 0.58355 0
M  V30 4915 N 480.382 0.0267497 1.57577 0
M  V30 4916 C 481.798 -0.32962 1.56159 0
M  V30 4917 C 481.998 -1.73059 1.03213 0
M  V30 4918 O 481.054 -2.43233 0.677804 0
M  V30 4919 C 482.367 -0.18039 3.00158 0
M  V30 4920 C 483.915 -0.253334 3.11973 0
M  V30 4921 C 484.39 -0.132921 4.57807 0
M  V30 4922 N 485.881 -0.189979 4.6281 0
M  V30 4923 C 486.616 -0.120554 5.73273 0
M  V30 4924 N 486.112 -0.000180315 6.928 0
M  V30 4925 N 487.905 -0.174369 5.61829 0
M  V30 4926 H 480.056 0.942896 1.90324 0
M  V30 4927 H 482.319 0.3639 0.875375 0
M  V30 4928 H 482.025 0.784576 3.42837 0
M  V30 4929 H 481.899 -0.951565 3.65 0
M  V30 4930 H 484.286 -1.20876 2.69208 0
M  V30 4931 H 484.367 0.548177 2.49857 0
M  V30 4932 H 484.011 0.819073 5.01252 0
M  V30 4933 H 483.941 -0.953264 5.179 0
M  V30 4934 H 486.432 -0.283257 3.76837 0
M  V30 4935 H 486.745 0.0461666 7.72786 0
M  V30 4936 H 485.09 0.034569 6.94991 0
M  V30 4937 H 488.281 -0.266794 4.67339 0
M  V30 4938 H 488.454 -0.116802 6.47895 0
M  V30 4939 N 481.861 -1.55662 -0.24637 0
M  V30 4940 C 482.771 -1.93495 -1.32653 0
M  V30 4941 C 483.787 -0.835462 -1.5263 0
M  V30 4942 O 484.963 -1.1369 -1.66242 0
M  V30 4943 C 482.028 -2.22242 -2.66101 0
M  V30 4944 C 481.089 -3.45625 -2.54641 0
M  V30 4945 C 480.322 -3.72991 -3.81724 0
M  V30 4946 O 480.545 -3.02421 -4.8363 0
M  V30 4947 O 479.479 -4.66515 -3.80325 0
M  V30 4948 H 483.305 -2.85498 -1.03559 0
M  V30 4949 H 480.89 -1.42551 -0.44717 0
M  V30 4950 H 482.772 -2.42037 -3.44958 0
M  V30 4951 H 481.447 -1.33417 -2.94926 0
M  V30 4952 H 480.354 -3.31136 -1.74067 0
M  V30 4953 H 481.687 -4.34754 -2.3076 0
M  V30 4954 N 483.339 0.512053 -1.4905 0
M  V30 4955 C 484.586 1.26686 -1.57978 0
M  V30 4956 C 484.914 1.92733 -0.261553 0
M  V30 4957 O 484.169 1.80772 0.749667 0
M  V30 4958 C 484.468 2.36446 -2.68008 0
M  V30 4959 C 484.134 1.87932 -4.09869 0
M  V30 4960 C 482.796 1.74419 -4.48477 0
M  V30 4961 C 485.148 1.5149 -4.98698 0
M  V30 4962 C 482.476 1.22827 -5.73699 0
M  V30 4963 C 484.828 1.01355 -6.24428 0
M  V30 4964 C 483.492 0.864735 -6.61875 0
M  V30 4965 H 482.762 0.463577 -0.578081 0
M  V30 4966 H 485.409 0.569421 -1.82838 0
M  V30 4967 H 483.714 3.11933 -2.37076 0
M  V30 4968 H 485.411 2.9453 -2.72127 0
M  V30 4969 H 482.001 1.99405 -3.79389 0
M  V30 4970 H 486.185 1.60782 -4.69535 0
M  V30 4971 H 481.441 1.10008 -6.01422 0
M  V30 4972 H 485.615 0.722351 -6.92644 0
M  V30 4973 H 483.242 0.462777 -7.5879 0
M  V30 4974 N 484.817 1.37938 0.762283 0
M  V30 4975 C 486.065 1.33404 1.51815 0
M  V30 4976 C 486.386 -0.0780975 1.94844 0
M  V30 4977 O 485.656 -1.02405 1.67003 0
M  V30 4978 H 484.236 0.490839 0.563104 0
M  V30 4979 H 486.898 1.72527 0.906669 0
M  V30 4980 H 485.994 1.97926 2.41313 0
M  V30 4981 N 486.295 -0.989507 1.22664 0
M  V30 4982 C 487.541 -1.7321 1.05481 0
M  V30 4983 C 487.874 -1.89852 -0.408635 0
M  V30 4984 O 487.149 -1.44416 -1.30285 0
M  V30 4985 C 487.432 -3.1357 1.77047 0
M  V30 4986 C 487.285 -3.04555 3.31008 0
M  V30 4987 C 488.604 -4.12812 1.5256 0
M  V30 4988 H 485.723 -0.628697 0.384589 0
M  V30 4989 H 488.365 -1.15258 1.51049 0
M  V30 4990 H 486.515 -3.63046 1.3831 0
M  V30 4991 H 488.187 -2.62674 3.7921 0
M  V30 4992 H 486.43 -2.41278 3.6051 0
M  V30 4993 H 487.101 -4.03894 3.76263 0
M  V30 4994 H 489.577 -3.72106 1.86215 0
M  V30 4995 H 488.453 -5.09132 2.05124 0
M  V30 4996 H 488.714 -4.39711 0.458936 0
M  V30 4997 N 487.773 -1.03688 -1.18687 0
M  V30 4998 C 489.001 -0.757918 -1.92518 0
M  V30 4999 C 489.416 0.684398 -1.75959 0
M  V30 5000 O 488.773 1.46617 -1.08673 0
M  V30 5001 C 488.824 -1.10985 -3.44042 0
M  V30 5002 O 488.545 -2.49554 -3.60076 0
M  V30 5003 C 490.046 -0.854844 -4.3498 0
M  V30 5004 H 487.266 -0.276699 -0.611293 0
M  V30 5005 H 489.81 -1.38352 -1.50595 0
M  V30 5006 H 487.965 -0.529279 -3.83767 0
M  V30 5007 H 488.379 -2.6291 -4.53849 0
M  V30 5008 H 489.853 -1.15098 -5.39867 0
M  V30 5009 H 490.33 0.210507 -4.38695 0
M  V30 5010 H 490.936 -1.41853 -4.00946 0
M  V30 5011 N 489.251 1.34841 -0.815825 0
M  V30 5012 C 490.479 2.0273 -0.413294 0
M  V30 5013 C 490.894 1.61459 0.978599 0
M  V30 5014 O 490.251 0.816584 1.63212 0
M  V30 5015 C 490.302 3.58058 -0.497676 0
M  V30 5016 O 490.023 3.97832 -1.8347 0
M  V30 5017 C 491.524 4.4321 -0.0891339 0
M  V30 5018 H 488.744 0.649956 -0.166728 0
M  V30 5019 H 491.288 1.72267 -1.10201 0
M  V30 5020 H 489.443 3.87136 0.142886 0
M  V30 5021 H 489.857 4.92501 -1.80396 0
M  V30 5022 H 491.331 5.5164 -0.199274 0
M  V30 5023 H 491.808 4.28432 0.966571 0
M  V30 5024 H 492.414 4.19446 -0.703214 0
M  V30 5025 N 490.729 0.570148 1.46925 0
M  V30 5026 C 491.977 0.0508523 2.02036 0
M  V30 5027 C 492.298 -1.30885 1.44548 0
M  V30 5028 O 491.568 -1.85647 0.625453 0
M  V30 5029 H 490.148 0.0158088 0.746833 0
M  V30 5030 H 492.81 0.743086 1.80178 0
M  V30 5031 H 491.906 -0.027575 3.12088 0
M  V30 5032 N 492.207 -1.54576 0.307264 0
M  V30 5033 C 493.623 -1.59534 -0.0459251 0
M  V30 5034 C 493.823 -1.32414 -1.51884 0
M  V30 5035 O 492.879 -1.1006 -2.27251 0
M  V30 5036 C 494.192 -2.98566 0.357649 0
M  V30 5037 C 495.74 -3.11491 0.306937 0
M  V30 5038 C 496.215 -4.52842 0.685427 0
M  V30 5039 N 497.706 -4.58782 0.638203 0
M  V30 5040 C 498.441 -5.66238 0.903458 0
M  V30 5041 N 497.937 -6.81703 1.23501 0
M  V30 5042 N 499.73 -5.55937 0.830102 0
M  V30 5043 H 491.881 -1.70464 1.26712 0
M  V30 5044 H 494.144 -0.79647 0.514139 0
M  V30 5045 H 493.85 -3.23356 1.38325 0
M  V30 5046 H 493.724 -3.76117 -0.285565 0
M  V30 5047 H 496.111 -2.86446 -0.709424 0
M  V30 5048 H 496.192 -2.36081 0.984861 0
M  V30 5049 H 495.836 -4.78618 1.69963 0
M  V30 5050 H 495.766 -5.26598 -0.0146346 0
M  V30 5051 H 498.257 -3.75849 0.393138 0
M  V30 5052 H 498.57 -7.59582 1.42322 0
M  V30 5053 H 496.915 -6.8324 1.27311 0
M  V30 5054 H 500.106 -4.64608 0.570693 0
M  V30 5055 H 500.279 -6.39597 1.04019 0
M  V30 5056 N 493.685 -0.035106 -1.57561 0
M  V30 5057 C 494.632 0.94474 -2.10578 0
M  V30 5058 C 495.602 1.3192 -1.00927 0
M  V30 5059 O 496.787 1.41147 -1.28382 0
M  V30 5060 C 493.927 2.21982 -2.64231 0
M  V30 5061 C 493.04 1.90128 -3.87911 0
M  V30 5062 C 492.175 3.11975 -4.29936 0
M  V30 5063 C 491.214 2.75968 -5.46359 0
M  V30 5064 N 490.351 3.90459 -5.83512 0
M  V30 5065 H 495.191 0.485717 -2.94015 0
M  V30 5066 H 492.728 0.228143 -1.4532 0
M  V30 5067 H 494.686 2.96572 -2.9343 0
M  V30 5068 H 493.316 2.6549 -1.83616 0
M  V30 5069 H 492.368 1.05755 -3.65404 0
M  V30 5070 H 493.68 1.59613 -4.72573 0
M  V30 5071 H 492.834 3.9488 -4.60603 0
M  V30 5072 H 491.573 3.45657 -3.44053 0
M  V30 5073 H 490.578 1.91478 -5.1538 0
M  V30 5074 H 491.803 2.43497 -6.33945 0
M  V30 5075 H 489.749 4.23971 -5.00584 0
M  V30 5076 H 489.666 3.63588 -6.62827 0
M  V30 5077 H 490.934 4.7405 -6.18787 0
M  V30 5078 N 495.163 1.55791 0.238111 0
M  V30 5079 C 496.579 1.48411 0.587045 0
M  V30 5080 C 496.779 0.72702 1.87927 0
M  V30 5081 O 495.835 0.259942 2.51158 0
M  V30 5082 C 497.148 2.92873 0.681623 0
M  V30 5083 C 498.696 3.03295 0.773363 0
M  V30 5084 C 499.171 4.49082 0.899428 0
M  V30 5085 N 500.662 4.53056 0.964075 0
M  V30 5086 C 501.397 5.63117 1.08104 0
M  V30 5087 N 500.893 6.82969 1.16299 0
M  V30 5088 N 502.686 5.50933 1.11488 0
M  V30 5089 H 494.837 2.0345 -0.610076 0
M  V30 5090 H 497.1 0.924034 -0.211813 0
M  V30 5091 H 496.806 3.51142 -0.19802 0
M  V30 5092 H 496.68 3.43851 1.55069 0
M  V30 5093 H 499.067 2.45101 1.64346 0
M  V30 5094 H 499.148 2.55513 -0.121034 0
M  V30 5095 H 498.792 5.07889 0.0338586 0
M  V30 5096 H 498.722 4.94553 1.809 0
M  V30 5097 H 501.213 3.66737 0.91173 0
M  V30 5098 H 501.526 7.62598 1.25155 0
M  V30 5099 H 499.871 6.85712 1.13241 0
M  V30 5100 H 503.062 4.56231 1.0474 0
M  V30 5101 H 503.235 6.36743 1.20259 0
M  V30 5102 N 496.642 -0.504142 1.49319 0
M  V30 5103 C 498.058 -0.835039 1.36012 0
M  V30 5104 C 498.258 -1.97674 0.390808 0
M  V30 5105 O 497.314 -2.51867 -0.178655 0
M  V30 5106 C 498.627 -1.17821 2.76656 0
M  V30 5107 C 500.175 -1.2866 2.85334 0
M  V30 5108 C 500.65 -1.66307 4.26739 0
M  V30 5109 N 502.141 -1.73362 4.29534 0
M  V30 5110 C 502.876 -2.0393 5.35911 0
M  V30 5111 N 502.372 -2.32744 6.52535 0
M  V30 5112 N 504.165 -2.05155 5.23324 0
M  V30 5113 H 496.316 0.248764 2.10938 0
M  V30 5114 H 498.579 0.0486962 0.946748 0
M  V30 5115 H 498.285 -0.412682 3.4927 0
M  V30 5116 H 498.159 -2.12239 3.11825 0
M  V30 5117 H 500.546 -2.04285 2.1296 0
M  V30 5118 H 500.627 -0.323004 2.53752 0
M  V30 5119 H 500.271 -0.91234 4.99639 0
M  V30 5120 H 500.201 -2.63761 4.55782 0
M  V30 5121 H 502.692 -1.53268 3.45424 0
M  V30 5122 H 503.005 -2.55248 7.2943 0
M  V30 5123 H 501.35 -2.30207 6.55767 0
M  V30 5124 H 504.541 -1.82119 4.3122 0
M  V30 5125 H 504.714 -2.28644 6.06322 0
M  V30 5126 N 498.12 -1.38341 -0.754957 0
M  V30 5127 C 499.36 -1.35888 -1.52689 0
M  V30 5128 C 499.724 0.0513682 -1.91931 0
M  V30 5129 O 500.925 0.200761 -2.68049 0
M  V30 5130 C 499.196 -2.28666 -2.74676 0
M  V30 5131 S 500.755 -2.4422 -3.64558 0
M  V30 5132 H 497.573 -0.482165 -0.522531 0
M  V30 5133 H 500.175 -1.74253 -0.886358 0
M  V30 5134 H 498.879 -3.30023 -2.43953 0
M  V30 5135 H 498.41 -1.91445 -3.43675 0
M  V30 5136 H 500.425 -1.66525 -4.67423 0
M  V30 5137 N 499.598 0.982988 -1.23187 0
M  V30 5138 C 500.846 1.72052 -1.06031 0
M  V30 5139 C 501.167 1.90769 0.404019 0
M  V30 5140 O 500.437 1.47446 1.28982 0
M  V30 5141 H 499.017 0.637499 -0.389363 0
M  V30 5142 H 501.679 1.18338 -1.54862 0
M  V30 5143 H 500.775 2.7111 -1.54615 0
M  V30 5144 N 501.076 1.04316 1.18135 0
M  V30 5145 C 502.322 0.758899 1.88712 0
M  V30 5146 C 502.677 -0.705863 1.78984 0
M  V30 5147 O 501.97 -1.50874 1.18101 0
M  V30 5148 C 502.164 1.16271 3.37958 0
M  V30 5149 C 501.993 2.66518 3.62213 0
M  V30 5150 C 500.763 3.33702 3.79436 0
M  V30 5151 C 502.961 3.64739 3.62588 0
M  V30 5152 N 500.943 4.72904 3.91452 0
M  V30 5153 C 502.314 4.89627 3.80348 0
M  V30 5154 C 504.369 3.58333 3.4569 0
M  V30 5155 C 503.072 6.08879 3.8296 0
M  V30 5156 C 505.098 4.77016 3.49586 0
M  V30 5157 C 504.46 6.00724 3.67845 0
M  V30 5158 H 500.559 0.329795 0.709055 0
M  V30 5159 H 503.143 1.33334 1.4188 0
M  V30 5160 H 501.314 0.616319 3.83479 0
M  V30 5161 H 503.046 0.829205 3.96114 0
M  V30 5162 H 499.801 2.84105 3.78921 0
M  V30 5163 H 500.225 5.45258 4.01277 0
M  V30 5164 H 504.867 2.63663 3.30517 0
M  V30 5165 H 502.585 7.03903 3.96921 0
M  V30 5166 H 506.171 4.73703 3.37782 0
M  V30 5167 H 505.051 6.91022 3.70753 0
M  V30 5168 N 502.554 -1.34406 0.822964 0
M  V30 5169 C 503.484 -2.32052 0.259608 0
M  V30 5170 C 504.465 -1.58243 -0.623961 0
M  V30 5171 O 505.65 -1.86224 -0.55083 0
M  V30 5172 C 502.78 -3.42434 -0.579314 0
M  V30 5173 C 501.734 -4.27499 0.20712 0
M  V30 5174 C 501.06 -5.29349 -0.754547 0
M  V30 5175 C 502.36 -5.02758 1.41533 0
M  V30 5176 H 504.054 -2.79418 1.07545 0
M  V30 5177 H 501.6 -1.34338 0.518593 0
M  V30 5178 H 503.553 -4.0976 -0.983612 0
M  V30 5179 H 502.277 -2.93717 -1.4282 0
M  V30 5180 H 500.936 -3.61776 0.592787 0
M  V30 5181 H 500.584 -4.76895 -1.59939 0
M  V30 5182 H 500.284 -5.8714 -0.232561 0
M  V30 5183 H 501.808 -5.99544 -1.1567 0
M  V30 5184 H 503.222 -5.62938 1.08504 0
M  V30 5185 H 501.619 -5.70123 1.87296 0
M  V30 5186 H 502.689 -4.32451 2.1935 0
M  V30 5187 N 504.032 -0.577932 -1.46621 0
M  V30 5188 C 505.309 0.00495287 -1.95599 0
M  V30 5189 C 505.689 1.46428 -1.5206 0
M  V30 5190 O 505.037 2.1517 -0.769046 0
M  V30 5191 C 505.247 -0.162114 -3.48623 0
M  V30 5192 C 506.595 -0.0274623 -4.24591 0
M  V30 5193 O 507.619 -0.0907067 -3.56084 0
M  V30 5194 O 506.478 0.1122 -5.46385 0
M  V30 5195 H 503.572 0.0525057 -0.825332 0
M  V30 5196 H 506.118 -0.645914 -1.56927 0
M  V30 5197 H 504.89 -1.17679 -3.73185 0
M  V30 5198 H 504.513 0.525407 -3.94113 0
M  V30 5199 N 505.51 1.54411 -0.315457 0
M  V30 5200 C 506.44 2.27002 0.547039 0
M  V30 5201 C 507.421 1.27492 1.12605 0
M  V30 5202 O 508.606 1.5629 1.15269 0
M  V30 5203 C 505.736 3.02171 1.71201 0
M  V30 5204 C 504.69 4.0895 1.26268 0
M  V30 5205 C 504.016 4.71915 2.51396 0
M  V30 5206 C 505.316 5.20891 0.383419 0
M  V30 5207 H 507.01 2.99343 -0.0584517 0
M  V30 5208 H 504.556 1.4397 -0.0295527 0
M  V30 5209 H 506.509 3.51681 2.32161 0
M  V30 5210 H 505.233 2.27433 2.34397 0
M  V30 5211 H 503.892 3.60312 0.676062 0
M  V30 5212 H 503.54 3.93801 3.12937 0
M  V30 5213 H 503.24 5.44039 2.22026 0
M  V30 5214 H 504.764 5.24195 3.13133 0
M  V30 5215 H 506.178 5.66206 0.899082 0
M  V30 5216 H 504.575 5.99821 0.182857 0
M  V30 5217 H 505.645 4.81324 -0.587821 0
M  V30 5218 N 506.988 0.0434614 1.5754 0
M  V30 5219 C 508.234 -0.632971 1.92669 0
M  V30 5220 C 508.567 -1.70947 0.921446 0
M  V30 5221 O 507.842 -1.94426 -0.0537202 0
M  V30 5222 C 508.125 -1.23619 3.38216 0
M  V30 5223 C 507.978 -0.168274 4.49485 0
M  V30 5224 C 509.297 -2.15008 3.84005 0
M  V30 5225 H 506.416 -0.228629 0.700641 0
M  V30 5226 H 509.058 0.103651 1.89717 0
M  V30 5227 H 507.208 -1.864 3.40863 0
M  V30 5228 H 508.88 0.463196 4.58969 0
M  V30 5229 H 507.123 0.504581 4.30855 0
M  V30 5230 H 507.794 -0.630218 5.48391 0
M  V30 5231 H 510.27 -1.62198 3.83185 0
M  V30 5232 H 509.146 -2.54161 4.86511 0
M  V30 5233 H 509.407 -3.04707 3.20322 0
M  V30 5234 N 508.466 -1.55915 -0.229846 0
M  V30 5235 C 509.396 -1.94754 -1.28815 0
M  V30 5236 C 510.377 -0.814657 -1.49323 0
M  V30 5237 O 511.562 -1.07631 -1.61645 0
M  V30 5238 C 508.692 -2.25705 -2.63959 0
M  V30 5239 C 507.646 -3.41406 -2.5812 0
M  V30 5240 C 506.972 -3.57941 -3.97218 0
M  V30 5241 C 508.272 -4.76616 -2.13623 0
M  V30 5242 H 509.966 -2.83404 -0.965547 0
M  V30 5243 H 507.512 -1.36353 -0.463028 0
M  V30 5244 H 509.465 -2.51467 -3.38146 0
M  V30 5245 H 508.189 -1.339 -2.9789 0
M  V30 5246 H 506.848 -3.1568 -1.86391 0
M  V30 5247 H 506.496 -2.63526 -4.28443 0
M  V30 5248 H 506.196 -4.35757 -3.94195 0
M  V30 5249 H 507.72 -3.86042 -4.73079 0
M  V30 5250 H 509.134 -5.01637 -2.77549 0
M  V30 5251 H 507.531 -5.57655 -2.21677 0
M  V30 5252 H 508.601 -4.7253 -1.08829 0
M  V30 5253 N 509.944 0.496216 -1.49584 0
M  V30 5254 C 510.874 1.60576 -1.69521 0
M  V30 5255 C 511.855 1.61169 -0.543933 0
M  V30 5256 O 513.04 1.77834 -0.78031 0
M  V30 5257 C 510.17 2.99038 -1.76616 0
M  V30 5258 C 509.124 3.13312 -2.91581 0
M  V30 5259 C 508.45 4.53172 -2.83794 0
M  V30 5260 C 509.75 2.92886 -4.32452 0
M  V30 5261 H 511.444 1.44146 -2.62416 0
M  V30 5262 H 508.99 0.692024 -1.26282 0
M  V30 5263 H 510.943 3.76564 -1.8915 0
M  V30 5264 H 509.667 3.16568 -0.80324 0
M  V30 5265 H 508.326 2.38213 -2.78658 0
M  V30 5266 H 507.974 4.67585 -1.854 0
M  V30 5267 H 507.674 4.63662 -3.60958 0
M  V30 5268 H 509.198 5.32752 -2.98342 0
M  V30 5269 H 510.612 3.60178 -4.46032 0
M  V30 5270 H 509.009 3.14844 -5.10875 0
M  V30 5271 H 510.079 1.88966 -4.46565 0
M  V30 5272 N 511.423 1.38739 0.74761 0
M  V30 5273 C 512.37 1.36449 1.86146 0
M  V30 5274 C 513.34 0.226098 1.64554 0
M  V30 5275 O 514.525 0.41926 1.86137 0
M  V30 5276 C 511.665 1.2013 3.23516 0
M  V30 5277 C 510.778 2.43407 3.56899 0
M  V30 5278 C 509.913 2.19773 4.83605 0
M  V30 5279 C 508.952 3.3879 5.09792 0
M  V30 5280 N 508.089 3.14553 6.27695 0
M  V30 5281 H 512.929 2.3167 1.87438 0
M  V30 5282 H 510.466 1.15094 0.916063 0
M  V30 5283 H 512.424 1.08683 4.02795 0
M  V30 5284 H 511.054 0.285453 3.21535 0
M  V30 5285 H 510.106 2.65504 2.72418 0
M  V30 5286 H 511.418 3.32094 3.72176 0
M  V30 5287 H 510.572 2.05496 5.70838 0
M  V30 5288 H 509.311 1.28461 4.70478 0
M  V30 5289 H 508.316 3.53579 4.21025 0
M  V30 5290 H 509.541 4.30986 5.24812 0
M  V30 5291 H 507.487 2.25893 6.1588 0
M  V30 5292 H 507.404 3.96791 6.435 0
M  V30 5293 H 508.672 3.03943 7.17801 0
M  V30 5294 N 512.901 -0.976442 1.23707 0
M  V30 5295 C 514.131 -1.75087 1.09673 0
M  V30 5296 C 514.539 -1.85852 -0.354344 0
M  V30 5297 O 513.882 -1.33985 -1.25673 0
M  V30 5298 C 513.944 -3.19272 1.65245 0
M  V30 5299 C 513.608 -3.32004 3.14042 0
M  V30 5300 C 514.605 -3.18017 4.11292 0
M  V30 5301 C 512.29 -3.56525 3.53829 0
M  V30 5302 C 514.284 -3.28363 5.46312 0
M  V30 5303 C 511.971 -3.6651 4.88993 0
M  V30 5304 C 512.969 -3.52439 5.85043 0
M  V30 5305 O 512.657 -3.62063 7.1775 0
M  V30 5306 H 512.389 -0.556164 0.384262 0
M  V30 5307 H 514.943 -1.23518 1.64111 0
M  V30 5308 H 513.173 -3.72107 1.05231 0
M  V30 5309 H 514.862 -3.7849 1.46629 0
M  V30 5310 H 515.628 -2.98966 3.81896 0
M  V30 5311 H 511.507 -3.66547 2.79579 0
M  V30 5312 H 515.051 -3.17297 6.21263 0
M  V30 5313 H 510.948 -3.85072 5.18063 0
M  V30 5314 H 511.716 -3.78833 7.25553 0
M  V30 5315 N 514.379 -1.04941 -1.1758 0
M  V30 5316 C 515.342 -0.652456 -2.19717 0
M  V30 5317 C 516.342 0.294745 -1.58076 0
M  V30 5318 O 517.532 0.0789579 -1.74021 0
M  V30 5319 C 514.664 0.0420712 -3.40874 0
M  V30 5320 H 515.857 -1.55642 -2.5635 0
M  V30 5321 H 513.41 -0.842995 -1.31618 0
M  V30 5322 H 514.145 0.95943 -3.09783 0
M  V30 5323 H 513.93 -0.638844 -3.86861 0
M  V30 5324 H 515.42 0.306 -4.16477 0
M  V30 5325 N 515.857 1.33968 -0.830081 0
M  V30 5326 C 516.807 2.26845 -0.229242 0
M  V30 5327 C 517.791 1.48862 0.610659 0
M  V30 5328 O 518.983 1.70808 0.464067 0
M  V30 5329 C 516.112 3.3798 0.602057 0
M  V30 5330 C 515.198 4.23369 -0.248866 0
M  V30 5331 N 515.589 4.88182 -1.32334 0
M  V30 5332 C 513.887 4.45987 -0.0344077 0
M  V30 5333 C 514.588 5.51671 -1.84482 0
M  V30 5334 N 513.564 5.31348 -1.14762 0
M  V30 5335 H 517.366 2.74464 -1.05104 0
M  V30 5336 H 514.88 1.4777 -0.673623 0
M  V30 5337 H 516.877 4.03494 1.04873 0
M  V30 5338 H 515.537 2.9191 1.42193 0
M  V30 5339 H 516.548 4.88988 -1.70619 0
M  V30 5340 H 513.225 4.10658 0.752727 0
M  V30 5341 H 514.615 6.13308 -2.74413 0
M  V30 5342 N 517.335 0.585699 1.46312 0
M  V30 5343 C 518.268 -0.194257 2.27372 0
M  V30 5344 C 519.246 -0.894116 1.3581 0
M  V30 5345 O 520.43 -0.907402 1.65222 0
M  V30 5346 C 517.557 -1.27901 3.13622 0
M  V30 5347 C 516.603 -0.684666 4.20969 0
M  V30 5348 S 517.436 0.490745 5.33247 0
M  V30 5349 C 518.592 -0.595137 6.23064 0
M  V30 5350 H 518.825 0.493515 2.93175 0
M  V30 5351 H 516.358 0.372666 1.49835 0
M  V30 5352 H 518.316 -1.90008 3.63878 0
M  V30 5353 H 516.977 -1.93875 2.47126 0
M  V30 5354 H 516.17 -1.50015 4.81156 0
M  V30 5355 H 515.772 -0.139204 3.73741 0
M  V30 5356 H 518.064 -1.48002 6.61137 0
M  V30 5357 H 519.007 -0.0299446 7.08094 0
M  V30 5358 H 519.415 -0.900627 5.57269 0
M  V30 5359 N 518.813 -1.54241 0.323641 0
M  V30 5360 C 520.062 -1.9975 -0.279806 0
M  V30 5361 C 520.375 -1.2156 -1.5324 0
M  V30 5362 O 521.581 -1.57447 -2.21185 0
M  V30 5363 C 520.037 -3.55686 -0.549115 0
M  V30 5364 C 519.645 -4.4271 0.686432 0
M  V30 5365 C 521.389 -4.09663 -1.11251 0
M  V30 5366 C 519.296 -5.90119 0.389022 0
M  V30 5367 H 518.226 -0.746177 -0.10833 0
M  V30 5368 H 520.877 -1.78248 0.435877 0
M  V30 5369 H 519.259 -3.73176 -1.32499 0
M  V30 5370 H 520.433 -4.36996 1.46188 0
M  V30 5371 H 518.748 -3.99623 1.17005 0
M  V30 5372 H 521.345 -5.17386 -1.34965 0
M  V30 5373 H 521.688 -3.61651 -2.06191 0
M  V30 5374 H 522.221 -3.95806 -0.39782 0
M  V30 5375 H 518.96 -6.42326 1.30759 0
M  V30 5376 H 518.48 -5.98785 -0.348722 0
M  V30 5377 H 520.159 -6.47 -0.0011164 0
M  V30 5378 N 520.291 -0.0518155 -1.57515 0
M  V30 5379 C 521.239 0.940195 -2.12751 0
M  V30 5380 C 522.233 1.3218 -1.05948 0
M  V30 5381 O 523.439 1.30138 -1.24355 0
M  V30 5382 H 519.814 0.321066 -0.680015 0
M  V30 5383 H 521.785 0.449217 -2.94999 0
M  V30 5384 C 520.534 2.2055 -2.68799 0
M  V30 5385 H 519.857 1.92066 -3.50643 0
M  V30 5386 H 521.297 2.88119 -3.11068 0
M  V30 5387 C 519.756 2.95061 -1.62605 0
M  V30 5388 O 520.286 3.88025 -1.03921 0
M  V30 5389 N 518.492 2.57804 -1.34111 0
M  V30 5390 H 518.039 1.82281 -1.8202 0
M  V30 5391 H 517.997 3.07964 -0.632872 0
M  V30 5392 N 521.769 1.56035 0.221574 0
M  V30 5393 C 523.017 1.78693 0.944102 0
M  V30 5394 C 523.338 0.620317 1.8487 0
M  V30 5395 O 522.608 -0.362784 1.92512 0
M  V30 5396 H 521.188 0.659082 0.351597 0
M  V30 5397 H 523.85 1.93497 0.233435 0
M  V30 5398 H 522.946 2.70837 1.55093 0
M  V30 5399 N 523.247 -0.488276 1.49845 0
M  V30 5400 C 524.494 -1.24157 1.59973 0
M  V30 5401 C 524.822 -1.92293 0.292182 0
M  V30 5402 O 524.077 -1.81942 -0.720813 0
M  V30 5403 C 524.376 -2.32152 2.71735 0
M  V30 5404 C 524.042 -1.81387 4.12807 0
M  V30 5405 C 522.704 -1.67262 4.51195 0
M  V30 5406 C 525.056 -1.43537 5.01045 0
M  V30 5407 C 522.384 -1.13685 5.7558 0
M  V30 5408 C 524.736 -0.914081 6.25961 0
M  V30 5409 C 523.4 -0.759327 6.63167 0
M  V30 5410 H 522.67 -0.454322 0.585383 0
M  V30 5411 H 525.317 -0.540261 1.83721 0
M  V30 5412 H 523.622 -3.08122 2.42008 0
M  V30 5413 H 525.319 -2.90164 2.76778 0
M  V30 5414 H 521.909 -1.93344 3.82513 0
M  V30 5415 H 526.093 -1.53292 4.72033 0
M  V30 5416 H 521.349 -1.00426 6.03096 0
M  V30 5417 H 525.523 -0.612066 6.93705 0
M  V30 5418 H 523.15 -0.342002 7.5943 0
M  V30 5419 N 524.725 -1.39134 -0.740242 0
M  V30 5420 C 525.953 -1.39334 -1.5295 0
M  V30 5421 C 526.368 0.0135008 -1.88795 0
M  V30 5422 O 525.725 0.983524 -1.5373 0
M  V30 5423 C 525.776 -2.2614 -2.82034 0
M  V30 5424 O 525.497 -3.61345 -2.47712 0
M  V30 5425 C 526.998 -2.34666 -3.76094 0
M  V30 5426 H 524.218 -0.476103 -0.472828 0
M  V30 5427 H 526.762 -1.82883 -0.9151 0
M  V30 5428 H 524.917 -1.86018 -3.39818 0
M  V30 5429 H 525.331 -4.07194 -3.30595 0
M  V30 5430 H 526.805 -2.99663 -4.63579 0
M  V30 5431 H 527.282 -1.36426 -4.17474 0
M  V30 5432 H 527.888 -2.75236 -3.2423 0
M  V30 5433 N 526.204 0.969867 -1.24223 0
M  V30 5434 C 527.167 2.04564 -1.03373 0
M  V30 5435 C 528.167 1.60798 0.00819206 0
M  V30 5436 O 529.357 1.72641 -0.232567 0
M  V30 5437 C 526.489 3.36163 -0.566343 0
M  V30 5438 H 527.682 2.24494 -1.98853 0
M  V30 5439 H 525.235 1.1448 -1.06415 0
M  V30 5440 H 525.97 3.21925 0.391751 0
M  V30 5441 H 525.755 3.69273 -1.31834 0
M  V30 5442 H 527.245 4.1526 -0.441435 0
M  V30 5443 N 527.682 1.05563 1.17022 0
M  V30 5444 C 528.612 0.681026 2.23348 0
M  V30 5445 C 529.593 -0.322983 1.67005 0
M  V30 5446 O 530.778 -0.199746 1.9317 0
M  V30 5447 C 527.908 0.0589053 3.4725 0
M  V30 5448 C 526.862 0.988082 4.16438 0
M  V30 5449 C 526.188 0.229646 5.34207 0
M  V30 5450 C 527.488 2.31388 4.68249 0
M  V30 5451 H 529.182 1.56993 2.54938 0
M  V30 5452 H 526.728 0.756302 1.2254 0
M  V30 5453 H 528.681 -0.214982 4.20851 0
M  V30 5454 H 527.405 -0.864968 3.14938 0
M  V30 5455 H 526.064 1.24659 3.44754 0
M  V30 5456 H 525.712 -0.697111 4.98146 0
M  V30 5457 H 525.412 0.848815 5.81437 0
M  V30 5458 H 526.936 -0.0368694 6.10589 0
M  V30 5459 H 528.35 2.09964 5.33468 0
M  V30 5460 H 526.747 2.88736 5.26072 0
M  V30 5461 H 527.817 2.94982 3.84855 0
M  V30 5462 N 529.16 -1.33526 0.837174 0
M  V30 5463 C 530.123 -2.27551 0.274421 0
M  V30 5464 C 531.123 -1.50886 -0.555881 0
M  V30 5465 O 532.313 -1.70227 -0.369918 0
M  V30 5466 C 529.445 -3.35332 -0.613605 0
M  V30 5467 H 530.638 -2.78837 1.10408 0
M  V30 5468 H 528.191 -1.439 0.610126 0
M  V30 5469 H 528.926 -2.89285 -1.46577 0
M  V30 5470 H 528.711 -3.92095 -0.0195341 0
M  V30 5471 H 530.201 -4.05433 -1.00068 0
M  V30 5472 N 530.638 -0.59345 -1.46 0
M  V30 5473 C 531.568 0.121192 -2.33185 0
M  V30 5474 C 532.549 0.872977 -1.4599 0
M  V30 5475 O 533.734 0.846321 -1.74789 0
M  V30 5476 C 530.864 1.12844 -3.28456 0
M  V30 5477 C 529.818 0.4908 -4.25177 0
M  V30 5478 C 529.144 1.60529 -5.10034 0
M  V30 5479 C 530.444 -0.578949 -5.19081 0
M  V30 5480 H 532.138 -0.606767 -2.93187 0
M  V30 5481 H 529.684 -0.293242 -1.40983 0
M  V30 5482 H 531.637 1.63684 -3.88311 0
M  V30 5483 H 530.361 1.88681 -2.66584 0
M  V30 5484 H 529.02 0.00339328 -3.666 0
M  V30 5485 H 528.668 2.35359 -4.44539 0
M  V30 5486 H 528.368 1.18422 -5.75543 0
M  V30 5487 H 529.892 2.11623 -5.72755 0
M  V30 5488 H 531.306 -0.155199 -5.7309 0
M  V30 5489 H 529.703 -0.920947 -5.92991 0
M  V30 5490 H 530.773 -1.46109 -4.62364 0
M  V30 5491 N 532.116 1.54067 -0.331816 0
M  V30 5492 C 533.344 2.05131 0.269996 0
M  V30 5493 C 533.759 1.20749 1.45138 0
M  V30 5494 O 533.116 0.240069 1.80914 0
M  V30 5495 C 533.167 3.54728 0.696456 0
M  V30 5496 O 532.888 4.35906 -0.43794 0
M  V30 5497 C 534.389 4.21916 1.36021 0
M  V30 5498 H 531.609 0.668807 0.0542042 0
M  V30 5499 H 534.153 1.98777 -0.4804 0
M  V30 5500 H 532.308 3.61342 1.39681 0
M  V30 5501 H 532.722 5.24404 -0.100334 0
M  V30 5502 H 534.196 5.28015 1.60947 0
M  V30 5503 H 534.673 3.73538 2.31011 0
M  V30 5504 H 535.279 4.19463 0.702212 0
M  V30 5505 N 533.594 0.0601682 1.57485 0
M  V30 5506 C 534.541 -0.91112 2.12055 0
M  V30 5507 C 535.511 -1.30298 1.03013 0
M  V30 5508 O 536.696 -1.39087 1.30612 0
M  V30 5509 C 533.836 -2.1775 2.67729 0
M  V30 5510 C 532.949 -1.83933 3.90887 0
M  V30 5511 C 532.084 -3.05096 4.34845 0
M  V30 5512 C 531.123 -2.67241 5.5068 0
M  V30 5513 N 530.26 -3.81127 5.8965 0
M  V30 5514 H 535.1 -0.43888 2.9475 0
M  V30 5515 H 532.637 -0.204995 1.45665 0
M  V30 5516 H 534.595 -2.91866 2.98111 0
M  V30 5517 H 533.225 -2.62535 1.87816 0
M  V30 5518 H 532.277 -0.999287 3.6704 0
M  V30 5519 H 533.589 -1.52074 4.75052 0
M  V30 5520 H 532.743 -3.87502 4.66827 0
M  V30 5521 H 531.482 -3.40139 3.49509 0
M  V30 5522 H 530.487 -1.83254 5.18361 0
M  V30 5523 H 531.712 -2.3338 6.37738 0
M  V30 5524 H 529.658 -4.15954 5.07266 0
M  V30 5525 H 529.575 -3.52997 6.68528 0
M  V30 5526 H 530.843 -4.64145 6.2625 0
M  V30 5527 N 535.072 -1.5615 -0.213296 0
M  V30 5528 C 536.002 -1.96109 -1.26742 0
M  V30 5529 C 536.983 -0.830448 -1.48451 0
M  V30 5530 O 538.168 -1.09339 -1.60495 0
M  V30 5531 C 535.298 -2.28492 -2.61551 0
M  V30 5532 C 534.252 -3.44124 -2.54485 0
M  V30 5533 C 533.578 -3.62134 -3.93399 0
M  V30 5534 C 534.878 -4.78855 -2.08556 0
M  V30 5535 H 536.572 -2.84412 -0.935434 0
M  V30 5536 H 534.118 -1.36836 -0.44854 0
M  V30 5537 H 536.071 -2.55039 -3.3546 0
M  V30 5538 H 534.795 -1.37052 -2.96453 0
M  V30 5539 H 533.454 -3.17639 -1.83033 0
M  V30 5540 H 533.102 -2.68055 -4.25623 0
M  V30 5541 H 532.802 -4.39913 -3.89551 0
M  V30 5542 H 534.326 -3.91038 -4.68958 0
M  V30 5543 H 535.74 -5.04552 -2.72213 0
M  V30 5544 H 534.137 -5.59975 -2.1575 0
M  V30 5545 H 535.207 -4.73657 -1.03811 0
M  V30 5546 N 536.55 0.480323 -1.50102 0
M  V30 5547 C 537.827 1.24159 -1.51142 0
M  V30 5548 C 538.207 2.09605 -0.250818 0
M  V30 5549 O 537.555 2.15274 0.766118 0
M  V30 5550 C 537.765 2.08057 -2.80202 0
M  V30 5551 C 539.113 2.66556 -3.30504 0
M  V30 5552 O 540.137 2.18308 -2.81461 0
M  V30 5553 O 538.996 3.54442 -4.15973 0
M  V30 5554 H 536.09 0.562928 -0.605839 0
M  V30 5555 H 538.636 0.492899 -1.62384 0
M  V30 5556 H 537.408 1.45032 -3.6343 0
M  V30 5557 H 537.031 2.90079 -2.71919 0
M  V30 5558 N 538.028 1.39524 0.732853 0
M  V30 5559 C 539.277 1.36175 1.48792 0
M  V30 5560 C 539.59 -0.0388195 1.95561 0
M  V30 5561 O 540.796 -0.194899 2.708 0
M  V30 5562 C 539.252 2.39242 2.68871 0
M  V30 5563 C 538.86 3.85024 2.29042 0
M  V30 5564 C 540.604 2.44972 3.46683 0
M  V30 5565 C 538.511 4.79727 3.45856 0
M  V30 5566 H 537.441 0.506267 0.558757 0
M  V30 5567 H 540.092 1.65181 0.799226 0
M  V30 5568 H 538.474 2.0331 3.39825 0
M  V30 5569 H 539.648 4.30008 1.6562 0
M  V30 5570 H 537.963 3.82609 1.64316 0
M  V30 5571 H 540.56 3.12918 4.33574 0
M  V30 5572 H 540.903 1.4749 3.89297 0
M  V30 5573 H 541.436 2.79808 2.82759 0
M  V30 5574 H 538.175 5.78479 3.08289 0
M  V30 5575 H 537.695 4.39421 4.08251 0
M  V30 5576 H 539.374 4.98731 4.12161 0
M  V30 5577 N 539.506 -0.963266 1.24736 0
M  V30 5578 C 540.436 -2.07628 1.06832 0
M  V30 5579 C 541.417 -1.70088 -0.0200566 0
M  V30 5580 O 542.602 -1.93636 0.147854 0
M  V30 5581 C 539.732 -3.40636 0.677069 0
M  V30 5582 C 538.686 -3.9215 1.71471 0
M  V30 5583 C 538.012 -5.21553 1.1784 0
M  V30 5584 C 539.312 -4.19493 3.11164 0
M  V30 5585 H 541.006 -2.22864 1.9993 0
M  V30 5586 H 538.552 -1.07093 0.96266 0
M  V30 5587 H 540.505 -4.17941 0.538792 0
M  V30 5588 H 539.229 -3.25313 -0.289612 0
M  V30 5589 H 537.888 -3.17005 1.84128 0
M  V30 5590 H 537.536 -5.02593 0.202195 0
M  V30 5591 H 537.236 -5.56988 1.87185 0
M  V30 5592 H 538.76 -6.01463 1.05233 0
M  V30 5593 H 540.174 -4.87487 3.01711 0
M  V30 5594 H 538.571 -4.66165 3.77902 0
M  V30 5595 H 539.641 -3.26097 3.58871 0
M  V30 5596 N 540.985 -1.06182 -1.16461 0
M  V30 5597 C 542.262 -0.691364 -1.82974 0
M  V30 5598 C 542.642 0.827377 -1.9421 0
M  V30 5599 O 541.99 1.73723 -1.48434 0
M  V30 5600 C 542.2 -1.39199 -3.20038 0
M  V30 5601 C 543.548 -1.53647 -3.95825 0
M  V30 5602 O 544.572 -1.35181 -3.29552 0
M  V30 5603 O 543.431 -1.83932 -5.14618 0
M  V30 5604 H 540.525 -0.244605 -0.789998 0
M  V30 5605 H 543.071 -1.16203 -1.23673 0
M  V30 5606 H 541.843 -2.42766 -3.06888 0
M  V30 5607 H 541.466 -0.911335 -3.87015 0
M  V30 5608 N 542.463 1.3308 -0.844243 0
M  V30 5609 C 543.396 2.27075 -0.226279 0
M  V30 5610 C 544.374 1.49911 0.629716 0
M  V30 5611 O 545.558 1.79068 0.588803 0
M  V30 5612 C 542.685 3.31767 0.681782 0
M  V30 5613 C 541.731 4.26384 -0.0994565 0
M  V30 5614 S 542.564 5.15186 -1.46094 0
M  V30 5615 C 543.72 6.23405 -0.558319 0
M  V30 5616 H 543.953 2.79141 -1.02312 0
M  V30 5617 H 541.486 1.40452 -0.641292 0
M  V30 5618 H 543.444 3.92566 1.20008 0
M  V30 5619 H 542.105 2.78507 1.45234 0
M  V30 5620 H 541.298 5.00514 0.591733 0
M  V30 5621 H 540.9 3.69949 -0.548991 0
M  V30 5622 H 543.192 6.77069 0.241672 0
M  V30 5623 H 544.135 6.96619 -1.26995 0
M  V30 5624 H 544.543 5.64333 -0.13728 0
M  V30 5625 N 543.941 0.601185 1.45683 0
M  V30 5626 C 545.188 0.0938811 2.02282 0
M  V30 5627 C 545.516 -1.27315 1.47041 0
M  V30 5628 O 544.771 -1.85193 0.632623 0
M  V30 5629 C 545.07 -0.00222425 3.574 0
M  V30 5630 C 544.736 1.29963 4.31764 0
M  V30 5631 C 543.398 1.65625 4.51798 0
M  V30 5632 C 545.75 2.1603 4.74321 0
M  V30 5633 C 543.078 2.87119 5.11644 0
M  V30 5634 C 545.43 3.36766 5.3551 0
M  V30 5635 C 544.094 3.72689 5.53768 0
M  V30 5636 H 543.364 0.0343535 0.740203 0
M  V30 5637 H 546.011 0.781522 1.74827 0
M  V30 5638 H 544.316 -0.773096 3.84097 0
M  V30 5639 H 546.013 -0.410794 3.9889 0
M  V30 5640 H 542.603 1.01204 4.1648 0
M  V30 5641 H 546.787 1.89778 4.58582 0
M  V30 5642 H 542.043 3.15065 5.2397 0
M  V30 5643 H 546.217 4.03713 5.67441 0
M  V30 5644 H 543.844 4.66918 5.99909 0
M  V30 5645 N 545.419 -1.53889 0.339982 0
M  V30 5646 C 546.647 -2.05271 -0.259114 0
M  V30 5647 C 547.062 -1.21517 -1.44496 0
M  V30 5648 O 546.419 -0.24966 -1.80784 0
M  V30 5649 C 546.47 -3.55092 -0.677634 0
M  V30 5650 O 546.191 -4.35667 0.461051 0
M  V30 5651 C 547.692 -4.22631 -1.33782 0
M  V30 5652 H 544.912 -0.669085 -0.0506566 0
M  V30 5653 H 547.456 -1.9852 0.490935 0
M  V30 5654 H 545.611 -3.62077 -1.37763 0
M  V30 5655 H 546.025 -5.24343 0.128144 0
M  V30 5656 H 547.499 -5.28861 -1.58145 0
M  V30 5657 H 547.976 -3.74758 -2.29027 0
M  V30 5658 H 548.582 -4.19829 -0.679957 0
M  V30 5659 N 546.897 -0.0685191 -1.57451 0
M  V30 5660 C 547.807 0.914677 -2.16034 0
M  V30 5661 C 548.823 1.32938 -1.12265 0
M  V30 5662 O 549.999 1.40275 -1.44516 0
M  V30 5663 C 547.064 2.16519 -2.70777 0
M  V30 5664 C 546.125 1.80721 -3.89408 0
M  V30 5665 C 545.358 2.9981 -4.41531 0
M  V30 5666 O 545.581 4.13727 -3.92666 0
M  V30 5667 O 544.515 2.79817 -5.32903 0
M  V30 5668 H 548.341 0.446364 -3.00402 0
M  V30 5669 H 545.926 0.154367 -1.486 0
M  V30 5670 H 547.808 2.89856 -3.05878 0
M  V30 5671 H 546.483 2.62454 -1.89471 0
M  V30 5672 H 545.39 1.04646 -3.59166 0
M  V30 5673 H 546.723 1.39571 -4.71997 0
M  V30 5674 N 548.375 1.56261 0.205012 0
M  V30 5675 C 549.624 1.79236 0.925058 0
M  V30 5676 C 549.937 0.640011 1.84833 0
M  V30 5677 O 551.143 0.753809 2.60826 0
M  V30 5678 C 549.599 3.17475 1.69522 0
M  V30 5679 C 549.207 4.40482 0.817269 0
M  V30 5680 C 550.951 3.49766 2.4055 0
M  V30 5681 C 548.858 5.69744 1.58573 0
M  V30 5682 H 547.788 0.668287 0.349153 0
M  V30 5683 H 550.439 1.82629 0.178544 0
M  V30 5684 H 548.821 3.08304 2.48526 0
M  V30 5685 H 549.995 4.60752 0.0665988 0
M  V30 5686 H 548.31 4.15827 0.218316 0
M  V30 5687 H 550.907 4.43573 2.98575 0
M  V30 5688 H 551.25 2.73041 3.14252 0
M  V30 5689 H 551.783 3.60341 1.68522 0
M  V30 5690 H 548.522 6.49407 0.891679 0
M  V30 5691 H 548.042 5.53509 2.31059 0
M  V30 5692 H 549.721 6.1051 2.14212 0
M  V30 5693 N 549.853 -0.472356 1.50355 0
M  V30 5694 C 550.8 -1.57051 1.69126 0
M  V30 5695 C 551.77 -1.5733 0.532574 0
M  V30 5696 O 552.955 -1.7488 0.762994 0
M  V30 5697 C 550.095 -2.95033 1.79024 0
M  V30 5698 C 549.208 -3.04552 3.06386 0
M  V30 5699 C 548.343 -4.33441 3.07087 0
M  V30 5700 C 547.382 -4.36697 4.28908 0
M  V30 5701 N 546.519 -5.57056 4.27356 0
M  V30 5702 H 551.359 -1.40351 2.62879 0
M  V30 5703 H 548.896 -0.682403 1.30314 0
M  V30 5704 H 550.854 -3.75048 1.82744 0
M  V30 5705 H 549.484 -3.10371 0.887109 0
M  V30 5706 H 548.536 -2.17419 3.12143 0
M  V30 5707 H 549.848 -3.02818 3.96362 0
M  V30 5708 H 549.002 -5.21801 3.09529 0
M  V30 5709 H 547.741 -4.37782 2.14939 0
M  V30 5710 H 546.746 -3.46734 4.2668 0
M  V30 5711 H 547.971 -4.34049 5.22282 0
M  V30 5712 H 545.917 -5.62184 3.3806 0
M  V30 5713 H 545.834 -5.57058 5.111 0
M  V30 5714 H 547.102 -6.47545 4.33942 0
M  V30 5715 N 551.331 -1.39911 -0.725443 0
M  V30 5716 C 552.577 -1.37858 -1.48738 0
M  V30 5717 C 552.91 0.0224187 -1.94187 0
M  V30 5718 O 552.185 0.989204 -1.67466 0
M  V30 5719 C 552.468 -2.3594 -2.72038 0
M  V30 5720 C 552.321 -3.85023 -2.32546 0
M  V30 5721 C 553.64 -2.31704 -3.74167 0
M  V30 5722 H 550.759 -0.502074 -0.539528 0
M  V30 5723 H 553.401 -1.70974 -0.828728 0
M  V30 5724 H 551.551 -2.0783 -3.28236 0
M  V30 5725 H 553.223 -4.2392 -1.81905 0
M  V30 5726 H 551.466 -4.01334 -1.64661 0
M  V30 5727 H 552.137 -4.49152 -3.20884 0
M  V30 5728 H 554.613 -2.5658 -3.27576 0
M  V30 5729 H 553.489 -3.02395 -4.58092 0
M  V30 5730 H 553.75 -1.3253 -4.21768 0
M  V30 5731 N 552.809 0.956637 -1.25245 0
M  V30 5732 C 554.057 1.69764 -1.09657 0
M  V30 5733 C 554.378 1.91583 0.363464 0
M  V30 5734 O 553.648 1.50149 1.25825 0
M  V30 5735 H 552.228 0.629097 -0.402798 0
M  V30 5736 H 554.89 1.15026 -1.57337 0
M  V30 5737 H 553.986 2.67769 -1.60331 0
M  V30 5738 N 554.287 1.06798 1.15896 0
M  V30 5739 C 555.533 0.788934 1.86825 0
M  V30 5740 C 555.866 -0.683084 1.8179 0
M  V30 5741 O 555.141 -1.50086 1.23711 0
M  V30 5742 C 555.424 1.29065 3.36176 0
M  V30 5743 C 555.277 2.8268 3.49874 0
M  V30 5744 C 556.596 0.902655 4.30744 0
M  V30 5745 H 553.715 0.288066 0.678371 0
M  V30 5746 H 556.357 1.32479 1.36195 0
M  V30 5747 H 554.507 0.834806 3.79425 0
M  V30 5748 H 556.179 3.36511 3.15528 0
M  V30 5749 H 554.422 3.21157 2.91617 0
M  V30 5750 H 555.093 3.12852 4.54783 0
M  V30 5751 H 557.569 1.29535 3.95424 0
M  V30 5752 H 556.445 1.28111 5.3374 0
M  V30 5753 H 556.706 -0.191951 4.41683 0
M  V30 5754 N 555.766 -1.3263 0.851289 0
M  V30 5755 C 556.729 -2.27247 0.298541 0
M  V30 5756 C 557.729 -1.51467 -0.539847 0
M  V30 5757 O 558.919 -1.7061 -0.351843 0
M  V30 5758 C 556.051 -3.35964 -0.578004 0
M  V30 5759 H 557.244 -2.7765 1.13359 0
M  V30 5760 H 554.797 -1.43245 0.625354 0
M  V30 5761 H 555.532 -2.90823 -1.435 0
M  V30 5762 H 555.317 -3.92094 0.0220539 0
M  V30 5763 H 556.807 -4.06472 -0.957626 0
M  V30 5764 N 557.244 -0.608902 -1.45362 0
M  V30 5765 C 558.474 -0.110852 -2.06302 0
M  V30 5766 C 558.882 1.21062 -1.45398 0
M  V30 5767 O 558.225 1.74861 -0.562976 0
M  V30 5768 C 558.287 0.101793 -3.59356 0
M  V30 5769 C 557.951 -1.13808 -4.42602 0
M  V30 5770 C 558.948 -2.05653 -4.77496 0
M  V30 5771 C 556.633 -1.36727 -4.83333 0
M  V30 5772 C 558.627 -3.18745 -5.51978 0
M  V30 5773 C 556.314 -2.5012 -5.57569 0
M  V30 5774 C 557.312 -3.40957 -5.91809 0
M  V30 5775 O 557 -4.52376 -6.64538 0
M  V30 5776 H 556.732 -0.0666001 -0.672711 0
M  V30 5777 H 559.286 -0.836942 -1.87575 0
M  V30 5778 H 557.516 0.88279 -3.76489 0
M  V30 5779 H 559.205 0.551607 -4.02134 0
M  V30 5780 H 559.971 -1.89172 -4.46586 0
M  V30 5781 H 555.85 -0.669216 -4.56117 0
M  V30 5782 H 559.394 -3.8967 -5.78622 0
M  V30 5783 H 555.291 -2.66553 -5.87894 0
M  V30 5784 H 556.059 -4.51075 -6.82989 0
M  V30 5785 N 558.722 1.53707 -0.348139 0
M  V30 5786 C 559.669 2.25173 0.506518 0
M  V30 5787 C 560.639 1.25174 1.09182 0
M  V30 5788 O 561.824 1.53917 1.12757 0
M  V30 5789 C 558.964 3.03141 1.64923 0
M  V30 5790 C 558.077 4.18002 1.0908 0
M  V30 5791 C 557.212 4.83447 2.20119 0
M  V30 5792 C 556.251 5.90369 1.61651 0
M  V30 5793 N 555.388 6.49575 2.66451 0
M  V30 5794 H 560.228 2.97799 -0.109452 0
M  V30 5795 H 557.765 1.46953 -0.0657866 0
M  V30 5796 H 559.723 3.46607 2.32205 0
M  V30 5797 H 558.353 2.32803 2.23612 0
M  V30 5798 H 557.405 3.79145 0.308783 0
M  V30 5799 H 558.717 4.94892 0.623178 0
M  V30 5800 H 557.871 5.30008 2.95257 0
M  V30 5801 H 556.61 4.05991 2.70227 0
M  V30 5802 H 555.615 5.43186 0.850209 0
M  V30 5803 H 556.84 6.69735 1.1239 0
M  V30 5804 H 554.786 5.74981 3.15805 0
M  V30 5805 H 554.703 7.21952 2.24325 0
M  V30 5806 H 555.971 7.00789 3.41344 0
M  V30 5807 N 560.2 0.0768682 1.57412 0
M  V30 5808 C 561.13 -0.886026 2.16037 0
M  V30 5809 C 562.111 -1.30691 1.08876 0
M  V30 5810 O 563.296 -1.37705 1.36934 0
M  V30 5811 C 560.426 -2.1518 2.72608 0
M  V30 5812 C 559.38 -1.87015 3.8498 0
M  V30 5813 C 558.706 -3.20266 4.28175 0
M  V30 5814 C 560.006 -1.17143 5.08994 0
M  V30 5815 H 561.7 -0.397642 2.96748 0
M  V30 5816 H 559.246 -0.189823 1.42743 0
M  V30 5817 H 561.199 -2.82962 3.12266 0
M  V30 5818 H 559.923 -2.66269 1.89125 0
M  V30 5819 H 558.582 -1.21636 3.45833 0
M  V30 5820 H 558.23 -3.69207 3.41607 0
M  V30 5821 H 557.93 -3.0221 5.03927 0
M  V30 5822 H 559.454 -3.89237 4.70454 0
M  V30 5823 H 560.868 -1.75003 5.45937 0
M  V30 5824 H 559.265 -1.09328 5.90057 0
M  V30 5825 H 560.335 -0.151295 4.84664 0
M  V30 5826 N 561.678 -1.56367 -0.196722 0
M  V30 5827 C 562.955 -1.71359 -0.943159 0
M  V30 5828 C 563.335 -0.631192 -2.01443 0
M  V30 5829 O 562.683 0.358071 -2.25677 0
M  V30 5830 C 562.893 -3.13623 -1.53106 0
M  V30 5831 C 564.241 -3.73806 -2.01381 0
M  V30 5832 O 565.265 -3.16742 -1.62951 0
M  V30 5833 O 564.124 -4.73951 -2.7209 0
M  V30 5834 H 561.218 -0.698851 -0.442195 0
M  V30 5835 H 563.764 -1.68672 -0.186547 0
M  V30 5836 H 562.536 -3.83873 -0.758785 0
M  V30 5837 H 562.159 -3.20532 -2.35255 0
M  V30 5838 N 563.156 0.464375 -1.50603 0
M  V30 5839 C 564.404 1.21356 -1.61608 0
M  V30 5840 C 564.725 1.92329 -0.321643 0
M  V30 5841 O 563.995 1.84403 0.661232 0
M  V30 5842 H 562.575 0.45094 -0.595535 0
M  V30 5843 H 565.237 0.535046 -1.87412 0
M  V30 5844 H 564.333 1.95783 -2.43054 0
M  V30 5845 N 564.634 1.40294 0.718013 0
M  V30 5846 C 565.544 1.42678 1.86226 0
M  V30 5847 C 566.56 0.319655 1.71039 0
M  V30 5848 O 567.736 0.563852 1.93346 0
M  V30 5849 C 564.801 1.2852 3.21999 0
M  V30 5850 C 563.862 2.49354 3.49458 0
M  V30 5851 C 563.095 2.35863 4.78753 0
M  V30 5852 O 563.318 1.37114 5.53675 0
M  V30 5853 O 562.252 3.25189 5.06494 0
M  V30 5854 H 566.078 2.39167 1.87171 0
M  V30 5855 H 563.663 1.2159 0.868112 0
M  V30 5856 H 565.545 1.22824 4.03103 0
M  V30 5857 H 564.22 0.351359 3.21787 0
M  V30 5858 H 563.127 2.60628 2.68373 0
M  V30 5859 H 564.46 3.41491 3.54464 0
M  V30 5860 N 566.112 -0.949982 1.2575 0
M  V30 5861 C 567.361 -1.68956 1.10168 0
M  V30 5862 C 567.674 -1.92327 -0.356309 0
M  V30 5863 O 568.88 -2.64026 -0.632657 0
M  V30 5864 C 567.336 -3.04196 1.92336 0
M  V30 5865 C 566.944 -2.88603 3.42655 0
M  V30 5866 C 568.688 -3.81904 1.85336 0
M  V30 5867 C 566.595 -4.19262 4.17101 0
M  V30 5868 H 565.525 -0.633645 0.408668 0
M  V30 5869 H 568.176 -1.05719 1.49986 0
M  V30 5870 H 566.558 -3.68363 1.45344 0
M  V30 5871 H 567.732 -2.3334 3.97353 0
M  V30 5872 H 566.047 -2.24345 3.50796 0
M  V30 5873 H 568.644 -4.78688 2.38248 0
M  V30 5874 H 568.987 -4.08099 0.822226 0
M  V30 5875 H 569.52 -3.24495 2.30104 0
M  V30 5876 H 566.259 -3.98254 5.20648 0
M  V30 5877 H 565.779 -4.74273 3.67186 0
M  V30 5878 H 567.458 -4.87775 4.25071 0
M  V30 5879 N 567.59 -1.07411 -1.15328 0
M  V30 5880 C 568.839 -0.792643 -1.85473 0
M  V30 5881 C 569.152 0.683789 -1.83259 0
M  V30 5882 O 570.358 1.08005 -2.49093 0
M  V30 5883 C 568.814 -1.36787 -3.32892 0
M  V30 5884 C 568.422 -2.87536 -3.43551 0
M  V30 5885 C 570.166 -1.16444 -4.08217 0
M  V30 5886 C 568.073 -3.38247 -4.85122 0
M  V30 5887 H 567.003 -0.292838 -0.694811 0
M  V30 5888 H 569.654 -1.29426 -1.30082 0
M  V30 5889 H 568.036 -0.793993 -3.87958 0
M  V30 5890 H 569.21 -3.50973 -2.98588 0
M  V30 5891 H 567.525 -3.06676 -2.81672 0
M  V30 5892 H 570.122 -1.51808 -5.12697 0
M  V30 5893 H 570.465 -0.10353 -4.16171 0
M  V30 5894 H 570.998 -1.70472 -3.59422 0
M  V30 5895 H 567.737 -4.43866 -4.82351 0
M  V30 5896 H 567.257 -2.79564 -5.30664 0
M  V30 5897 H 568.936 -3.34238 -5.5398 0
M  V30 5898 N 569.068 1.32177 -0.85831 0
M  V30 5899 C 570.479 1.79381 -0.517621 0
M  V30 5900 C 570.83 1.70841 0.964769 0
M  V30 5901 O 569.955 1.26917 1.75274 0
M  V30 5902 C 570.55 3.25706 -0.932801 0
M  V30 5903 C 569.109 3.70851 -0.643953 0
M  V30 5904 C 568.256 2.53208 -1.13054 0
M  V30 5905 H 571.207 1.19424 -1.04516 0
M  V30 5906 H 571.228 3.79673 -0.250674 0
M  V30 5907 H 570.74 3.31889 -2.01174 0
M  V30 5908 H 568.841 3.70178 0.424112 0
M  V30 5909 H 568.954 4.63495 -1.21281 0
M  V30 5910 H 567.318 2.48676 -0.550679 0
M  V30 5911 H 568.101 2.62143 -2.21666 0
M  V30 5912 N 570.547 0.616602 1.45037 0
M  V30 5913 C 571.497 -0.118543 2.27692 0
M  V30 5914 C 572.481 -0.830025 1.37838 0
M  V30 5915 O 573.673 -0.718528 1.6176 0
M  V30 5916 C 570.802 -1.10924 3.24886 0
M  V30 5917 C 569.888 -0.398134 4.22227 0
M  V30 5918 N 570.279 0.565233 5.02632 0
M  V30 5919 C 568.577 -0.644506 4.41319 0
M  V30 5920 C 569.278 0.984043 5.73316 0
M  V30 5921 N 568.254 0.325879 5.42622 0
M  V30 5922 H 572.056 0.621239 2.87259 0
M  V30 5923 H 569.57 0.440968 1.56299 0
M  V30 5924 H 571.567 -1.65038 3.82842 0
M  V30 5925 H 570.227 -1.84948 2.66879 0
M  V30 5926 H 571.238 0.942395 5.09254 0
M  V30 5927 H 567.915 -1.36873 3.94426 0
M  V30 5928 H 569.305 1.77911 6.47918 0
M  V30 5929 N 572.025 -1.5352 0.356285 0
M  V30 5930 C 573.274 -2.00298 -0.237373 0
M  V30 5931 C 573.587 -1.24784 -1.50627 0
M  V30 5932 O 574.793 -1.62103 -2.17795 0
M  V30 5933 C 573.249 -3.56771 -0.473545 0
M  V30 5934 C 572.857 -4.41154 0.780183 0
M  V30 5935 C 574.601 -4.1193 -1.02537 0
M  V30 5936 C 572.508 -5.89161 0.514108 0
M  V30 5937 H 571.438 -0.748307 -0.092478 0
M  V30 5938 H 574.089 -1.77283 0.473588 0
M  V30 5939 H 572.471 -3.75902 -1.24553 0
M  V30 5940 H 573.645 -4.33797 1.55425 0
M  V30 5941 H 571.96 -3.97052 1.25455 0
M  V30 5942 H 574.557 -5.20133 -1.2396 0
M  V30 5943 H 574.9 -3.65943 -1.98473 0
M  V30 5944 H 575.433 -3.96561 -0.313775 0
M  V30 5945 H 572.172 -6.39408 1.44355 0
M  V30 5946 H 571.692 -5.9939 -0.221632 0
M  V30 5947 H 573.371 -6.46857 0.136122 0
M  V30 5948 N 573.503 -0.0852151 -1.57369 0
M  V30 5949 C 574.914 0.445428 -1.81309 0
M  V30 5950 C 575.265 1.68795 -1.00013 0
M  V30 5951 O 574.39 2.15211 -0.226573 0
M  V30 5952 C 574.985 0.814887 -3.28854 0
M  V30 5953 C 573.544 1.29032 -3.53592 0
M  V30 5954 C 572.691 0.282089 -2.75861 0
M  V30 5955 H 575.642 -0.310771 -1.55627 0
M  V30 5956 H 575.663 1.67524 -3.41637 0
M  V30 5957 H 575.175 -0.0896309 -3.87996 0
M  V30 5958 H 573.276 2.21289 -2.9977 0
M  V30 5959 H 573.389 1.25898 -4.62262 0
M  V30 5960 H 571.753 0.762182 -2.43029 0
M  V30 5961 H 572.536 -0.614936 -3.37748 0
M  V30 5962 N 574.981 1.5647 0.188427 0
M  V30 5963 C 575.944 1.9421 1.21718 0
M  V30 5964 C 576.944 0.823901 1.38089 0
M  V30 5965 O 578.134 1.09122 1.35787 0
M  V30 5966 C 575.266 2.22197 2.58537 0
M  V30 5967 H 576.459 2.86252 0.894418 0
M  V30 5968 H 574.012 1.50263 0.430211 0
M  V30 5969 H 574.747 1.32814 2.95856 0
M  V30 5970 H 574.532 3.03688 2.48025 0
M  V30 5971 H 576.022 2.52376 3.3271 0
M  V30 5972 N 576.459 -0.456382 1.50847 0
M  V30 5973 C 577.407 -1.57318 1.71329 0
M  V30 5974 C 578.401 -1.59187 0.579287 0
M  V30 5975 O 579.607 -1.6316 0.76018 0
M  V30 5976 H 575.982 -0.5223 0.541024 0
M  V30 5977 H 577.953 -1.3721 2.64983 0
M  V30 5978 C 576.702 -2.95142 1.83811 0
M  V30 5979 H 576.025 -2.94428 2.70467 0
M  V30 5980 H 577.465 -3.72702 2.02161 0
M  V30 5981 C 575.924 -3.31636 0.593224 0
M  V30 5982 O 576.454 -4.00852 -0.260898 0
M  V30 5983 N 574.66 -2.87205 0.442902 0
M  V30 5984 H 574.207 -2.31051 1.13901 0
M  V30 5985 H 574.165 -3.11986 -0.38884 0
M  V30 5986 N 577.937 -1.40673 -0.710563 0
M  V30 5987 C 578.869 -1.37256 -1.83558 0
M  V30 5988 C 579.882 -0.277133 -1.60424 0
M  V30 5989 O 581.071 -0.537831 -1.70205 0
M  V30 5990 C 578.171 -1.1144 -3.20054 0
M  V30 5991 C 577.344 -2.32734 -3.70342 0
M  V30 5992 C 576.403 -2.03002 -4.85465 0
M  V30 5993 O 575.429 -2.75912 -4.97857 0
M  V30 5994 N 576.631 -1.01105 -5.71627 0
M  V30 5995 H 579.396 -2.34215 -1.86985 0
M  V30 5996 H 576.957 -1.35091 -0.892301 0
M  V30 5997 H 578.949 -0.895265 -3.94673 0
M  V30 5998 H 577.519 -0.231307 -3.11743 0
M  V30 5999 H 576.739 -2.70446 -2.86798 0
M  V30 6000 H 578.027 -3.13584 -4.00678 0
M  V30 6001 H 577.425 -0.407303 -5.64232 0
M  V30 6002 H 575.982 -0.85182 -6.4621 0
M  V30 6003 N 579.415 0.9433 -1.26252 0
M  V30 6004 C 580.325 2.07532 -1.09397 0
M  V30 6005 C 581.341 1.73977 -0.0280449 0
M  V30 6006 O 582.517 2.00067 -0.231337 0
M  V30 6007 C 579.582 3.39002 -0.726523 0
M  V30 6008 C 578.643 3.86353 -1.87163 0
M  V30 6009 C 577.876 5.11549 -1.52162 0
M  V30 6010 O 578.099 5.68834 -0.422385 0
M  V30 6011 O 577.033 5.53889 -2.35565 0
M  V30 6012 H 580.859 2.24658 -2.04359 0
M  V30 6013 H 578.444 1.05988 -1.05295 0
M  V30 6014 H 580.326 4.18 -0.534236 0
M  V30 6015 H 579.001 3.2312 0.193721 0
M  V30 6016 H 577.908 3.0831 -2.11886 0
M  V30 6017 H 579.241 4.06752 -2.77152 0
M  V30 6018 N 580.893 1.08022 1.14757 0
M  V30 6019 C 582.139 0.808705 1.85978 0
M  V30 6020 C 582.472 -0.663764 1.82504 0
M  V30 6021 O 581.747 -1.48765 1.25296 0
M  V30 6022 C 582.03 1.32623 3.34788 0
M  V30 6023 C 581.883 2.86375 3.46856 0
M  V30 6024 C 583.202 0.948291 4.29762 0
M  V30 6025 H 580.321 0.295244 0.675278 0
M  V30 6026 H 582.963 1.33917 1.34783 0
M  V30 6027 H 581.113 0.875002 3.78518 0
M  V30 6028 H 582.785 3.39839 3.11941 0
M  V30 6029 H 581.028 3.24232 2.88194 0
M  V30 6030 H 581.699 3.17658 4.51439 0
M  V30 6031 H 584.175 1.33722 3.94028 0
M  V30 6032 H 583.051 1.33765 5.32352 0
M  V30 6033 H 583.312 -0.145094 4.41862 0
M  V30 6034 N 582.371 -1.3172 0.865308 0
M  V30 6035 C 583.301 -2.31109 0.333302 0
M  V30 6036 C 584.282 -1.60148 -0.573301 0
M  V30 6037 O 585.467 -1.87882 -0.491305 0
M  V30 6038 C 582.597 -3.44104 -0.470078 0
M  V30 6039 C 581.551 -4.26623 0.343021 0
M  V30 6040 C 580.877 -5.31482 -0.585756 0
M  V30 6041 C 582.177 -4.98001 1.57456 0
M  V30 6042 H 583.871 -2.75855 1.1638 0
M  V30 6043 H 581.417 -1.3262 0.561069 0
M  V30 6044 H 583.37 -4.12682 -0.852752 0
M  V30 6045 H 582.094 -2.98112 -1.33404 0
M  V30 6046 H 580.753 -3.59707 0.707583 0
M  V30 6047 H 580.401 -4.81741 -1.44686 0
M  V30 6048 H 580.101 -5.87582 -0.0456494 0
M  V30 6049 H 581.625 -6.0292 -0.965375 0
M  V30 6050 H 583.039 -5.59201 1.26359 0
M  V30 6051 H 581.436 -5.63876 2.05339 0
M  V30 6052 H 582.506 -4.25253 2.32997 0
M  V30 6053 N 583.85 -0.624285 -1.44708 0
M  V30 6054 C 584.798 0.0969952 -2.32398 0
M  V30 6055 C 585.792 0.842762 -1.46949 0
M  V30 6056 O 586.998 0.756436 -1.63334 0
M  V30 6057 H 583.373 0.0501306 -0.750327 0
M  V30 6058 H 585.344 -0.660767 -2.90992 0
M  V30 6059 C 584.093 1.06967 -3.30837 0
M  V30 6060 H 583.416 0.505242 -3.96595 0
M  V30 6061 H 584.856 1.54397 -3.94889 0
M  V30 6062 C 583.315 2.15153 -2.5925 0
M  V30 6063 O 583.845 3.23139 -2.3863 0
M  V30 6064 N 582.051 1.90898 -2.19103 0
M  V30 6065 H 581.598 1.03086 -2.36074 0
M  V30 6066 H 581.556 2.63485 -1.71531 0
M  V30 6067 N 585.328 1.53329 -0.364422 0
M  V30 6068 C 586.275 2.25698 0.482607 0
M  V30 6069 C 587.245 1.26325 1.07848 0
M  V30 6070 O 588.43 1.55104 1.11119 0
M  V30 6071 C 585.57 3.04873 1.61699 0
M  V30 6072 C 584.683 4.19135 1.0464 0
M  V30 6073 C 583.818 4.85754 2.14979 0
M  V30 6074 C 582.857 5.9205 1.5538 0
M  V30 6075 N 581.994 6.52365 2.59547 0
M  V30 6076 H 586.834 2.97666 -0.141032 0
M  V30 6077 H 584.371 1.46875 -0.0813692 0
M  V30 6078 H 586.329 3.49051 2.28516 0
M  V30 6079 H 584.959 2.35162 2.2113 0
M  V30 6080 H 584.011 3.79451 0.268553 0
M  V30 6081 H 585.323 4.95525 0.570653 0
M  V30 6082 H 584.477 5.3311 2.89619 0
M  V30 6083 H 583.216 4.08834 2.65906 0
M  V30 6084 H 582.221 5.44058 0.792549 0
M  V30 6085 H 583.446 6.7089 1.0528 0
M  V30 6086 H 581.392 5.78298 3.09689 0
M  V30 6087 H 581.309 7.2429 2.16655 0
M  V30 6088 H 582.577 7.0437 3.33892 0
M  V30 6089 N 586.806 0.0935595 1.57322 0
M  V30 6090 C 588.052 -0.571355 1.94585 0
M  V30 6091 C 588.385 -1.67929 0.975366 0
M  V30 6092 O 587.66 -1.94498 0.00816206 0
M  V30 6093 C 587.943 -1.12797 3.41978 0
M  V30 6094 C 587.796 -0.0251881 4.49793 0
M  V30 6095 C 589.115 -2.02682 3.90651 0
M  V30 6096 H 586.234 -0.206223 0.70756 0
M  V30 6097 H 588.876 0.163956 1.89291 0
M  V30 6098 H 587.026 -1.75461 3.4662 0
M  V30 6099 H 588.698 0.608979 4.57263 0
M  V30 6100 H 586.941 0.641399 4.29032 0
M  V30 6101 H 587.612 -0.455433 5.50118 0
M  V30 6102 H 590.088 -1.49925 3.88152 0
M  V30 6103 H 588.964 -2.38555 4.94351 0
M  V30 6104 H 589.225 -2.94362 3.29854 0
M  V30 6105 N 588.284 -1.56567 -0.180126 0
M  V30 6106 C 589.194 -1.98947 -1.24327 0
M  V30 6107 C 590.21 -0.899446 -1.4895 0
M  V30 6108 O 591.386 -1.20639 -1.61271 0
M  V30 6109 C 588.451 -2.33328 -2.56435 0
M  V30 6110 C 587.512 -3.56114 -2.39752 0
M  V30 6111 C 586.745 -3.88845 -3.65561 0
M  V30 6112 O 586.968 -3.22662 -4.70368 0
M  V30 6113 O 585.902 -4.82226 -3.60197 0
M  V30 6114 H 589.728 -2.89634 -0.913565 0
M  V30 6115 H 587.313 -1.44319 -0.386306 0
M  V30 6116 H 589.195 -2.5645 -3.34382 0
M  V30 6117 H 587.87 -1.45806 -2.89002 0
M  V30 6118 H 586.777 -3.38221 -1.59866 0
M  V30 6119 H 588.11 -4.4415 -2.12113 0
M  V30 6120 N 589.762 0.448376 -1.51087 0
M  V30 6121 C 591.008 1.20049 -1.6345 0
M  V30 6122 C 591.341 1.91121 -0.344444 0
M  V30 6123 O 590.616 1.83125 0.655396 0
M  V30 6124 C 590.899 2.22624 -2.83038 0
M  V30 6125 C 590.752 1.55708 -4.21989 0
M  V30 6126 C 592.071 3.23718 -2.98152 0
M  V30 6127 H 589.19 0.435085 -0.59487 0
M  V30 6128 H 591.832 0.491183 -1.83541 0
M  V30 6129 H 589.982 2.83117 -2.66039 0
M  V30 6130 H 591.654 0.986367 -4.50631 0
M  V30 6131 H 589.897 0.859647 -4.25197 0
M  V30 6132 H 590.568 2.30357 -5.01637 0
M  V30 6133 H 593.044 2.73269 -3.13788 0
M  V30 6134 H 591.92 3.92795 -3.83411 0
M  V30 6135 H 592.181 3.89179 -2.09743 0
M  V30 6136 N 591.24 1.41047 0.703093 0
M  V30 6137 C 592.172 1.38228 1.82827 0
M  V30 6138 C 593.185 0.285637 1.60275 0
M  V30 6139 O 594.374 0.54685 1.69917 0
M  V30 6140 C 591.474 1.13136 3.19458 0
M  V30 6141 C 590.647 2.34695 3.69103 0
M  V30 6142 C 589.706 2.05574 4.84382 0
M  V30 6143 O 588.732 2.78549 4.96386 0
M  V30 6144 N 589.934 1.04135 5.71083 0
M  V30 6145 H 592.699 2.35203 1.85741 0
M  V30 6146 H 590.26 1.35562 0.885125 0
M  V30 6147 H 592.252 0.916183 3.94193 0
M  V30 6148 H 590.822 0.247836 3.11616 0
M  V30 6149 H 590.042 2.71963 2.85359 0
M  V30 6150 H 591.33 3.15705 3.99009 0
M  V30 6151 H 590.728 0.43722 5.64008 0
M  V30 6152 H 589.285 0.886078 6.45749 0
M  V30 6153 N 592.718 -0.936591 1.26751 0
M  V30 6154 C 593.948 -1.71509 1.15188 0
M  V30 6155 C 594.356 -1.86885 -0.295037 0
M  V30 6156 O 593.699 -1.37915 -1.21347 0
M  V30 6157 C 593.761 -3.13853 1.75318 0
M  V30 6158 C 593.425 -3.21845 3.24445 0
M  V30 6159 C 594.422 -3.04771 4.21201 0
M  V30 6160 C 592.107 -3.45088 3.64992 0
M  V30 6161 C 594.101 -3.10816 5.56482 0
M  V30 6162 C 591.788 -3.50767 5.00405 0
M  V30 6163 C 592.786 -3.33648 5.9596 0
M  V30 6164 O 592.474 -3.39045 7.28906 0
M  V30 6165 H 592.206 -0.543658 0.401761 0
M  V30 6166 H 594.76 -1.18234 1.67958 0
M  V30 6167 H 592.99 -3.6857 1.17016 0
M  V30 6168 H 594.679 -3.73634 1.58596 0
M  V30 6169 H 595.445 -2.86665 3.91214 0
M  V30 6170 H 591.324 -3.57467 2.91098 0
M  V30 6171 H 594.868 -2.97372 6.31043 0
M  V30 6172 H 590.765 -3.68396 5.30052 0
M  V30 6173 H 591.533 -3.55558 7.37238 0
M  V30 6174 N 594.196 -1.08629 -1.14182 0
M  V30 6175 C 595.143 -0.718299 -2.19338 0
M  V30 6176 C 596.113 0.296587 -1.63431 0
M  V30 6177 O 597.298 0.180079 -1.89948 0
M  V30 6178 C 594.438 -0.136203 -3.44831 0
M  V30 6179 C 593.551 -1.20414 -4.14879 0
M  V30 6180 C 592.686 -0.585666 -5.27962 0
M  V30 6181 C 591.725 -1.63548 -5.89846 0
M  V30 6182 N 590.862 -1.03864 -6.94375 0
M  V30 6183 H 595.702 -1.61932 -2.50164 0
M  V30 6184 H 593.239 -0.80919 -1.22844 0
M  V30 6185 H 595.197 0.219021 -4.16625 0
M  V30 6186 H 593.827 0.728121 -3.14481 0
M  V30 6187 H 592.879 -1.67676 -3.41451 0
M  V30 6188 H 594.191 -1.99959 -4.56966 0
M  V30 6189 H 593.345 -0.178818 -6.06436 0
M  V30 6190 H 592.084 0.24142 -4.87102 0
M  V30 6191 H 591.089 -2.05197 -5.10073 0
M  V30 6192 H 592.314 -2.46509 -6.3278 0
M  V30 6193 H 590.26 -0.232687 -6.55587 0
M  V30 6194 H 590.177 -1.77116 -7.3496 0
M  V30 6195 H 591.445 -0.657724 -7.7672 0
M  V30 6196 N 595.674 1.31259 -0.872281 0
M  V30 6197 C 596.902 2.00795 -0.498907 0
M  V30 6198 C 597.317 1.65464 0.909238 0
M  V30 6199 O 596.674 0.885073 1.59602 0
M  V30 6200 C 596.725 3.55625 -0.649092 0
M  V30 6201 O 596.446 3.89692 -2.00179 0
M  V30 6202 C 597.947 4.42434 -0.277034 0
M  V30 6203 H 595.167 0.642299 -0.194145 0
M  V30 6204 H 597.711 1.67438 -1.17408 0
M  V30 6205 H 595.866 3.87394 -0.0214402 0
M  V30 6206 H 596.28 4.84407 -2.01122 0
M  V30 6207 H 597.754 5.50299 -0.433064 0
M  V30 6208 H 598.231 4.32146 0.783989 0
M  V30 6209 H 598.837 4.16086 -0.880483 0
M  V30 6210 N 597.152 0.631951 1.44375 0
M  V30 6211 C 598.082 -0.0593243 2.33425 0
M  V30 6212 C 599.063 -0.833964 1.48253 0
M  V30 6213 O 600.248 -0.799682 1.76971 0
M  V30 6214 C 597.378 -1.04096 3.31333 0
M  V30 6215 C 596.332 -0.377899 4.26328 0
M  V30 6216 C 595.658 -1.4695 5.14111 0
M  V30 6217 C 596.958 0.716371 5.17364 0
M  V30 6218 H 598.652 0.684287 2.91475 0
M  V30 6219 H 596.198 0.330518 1.40156 0
M  V30 6220 H 598.151 -1.53331 3.92514 0
M  V30 6221 H 596.875 -1.81547 2.71493 0
M  V30 6222 H 595.534 0.0938054 3.6648 0
M  V30 6223 H 595.182 -2.2349 4.50623 0
M  V30 6224 H 594.882 -1.03121 5.78481 0
M  V30 6225 H 596.406 -1.96363 5.78164 0
M  V30 6226 H 597.82 0.307089 5.72477 0
M  V30 6227 H 596.217 1.07784 5.90341 0
M  V30 6228 H 597.287 1.58316 4.58327 0
M  V30 6229 N 598.631 -1.53133 0.372548 0
M  V30 6230 C 600.042 -1.86404 -0.105155 0
M  V30 6231 C 600.393 -1.29289 -1.47576 0
M  V30 6232 O 599.518 -0.617646 -2.07398 0
M  V30 6233 C 600.113 -3.38223 -0.197588 0
M  V30 6234 C 598.672 -3.71266 -0.619556 0
M  V30 6235 C 597.819 -2.76353 0.228919 0
M  V30 6236 H 600.77 -1.47282 0.591077 0
M  V30 6237 H 600.791 -3.66577 -1.01987 0
M  V30 6238 H 600.303 -3.79763 0.800099 0
M  V30 6239 H 598.404 -3.35287 -1.62522 0
M  V30 6240 H 598.517 -4.77515 -0.389332 0
M  V30 6241 H 596.881 -2.52888 -0.303271 0
M  V30 6242 H 597.664 -3.20728 1.22428 0
M  V30 6243 N 600.109 -0.101901 -1.5727 0
M  V30 6244 C 601.357 0.559091 -1.94213 0
M  V30 6245 C 601.678 1.68297 -0.984948 0
M  V30 6246 O 600.948 1.95863 -0.0381975 0
M  V30 6247 H 599.528 0.20952 -0.717015 0
M  V30 6248 H 602.19 -0.166831 -1.94185 0
M  V30 6249 H 601.286 0.96485 -2.96811 0
M  V30 6250 N 601.587 1.56661 0.17182 0
M  V30 6251 C 602.833 1.8313 0.88516 0
M  V30 6252 C 603.188 0.682376 1.79893 0
M  V30 6253 O 602.481 -0.321215 1.88888 0
M  V30 6254 C 602.675 3.13435 1.71736 0
M  V30 6255 C 602.504 4.40892 0.885659 0
M  V30 6256 C 601.274 5.02177 0.560939 0
M  V30 6257 C 603.472 5.13797 0.227454 0
M  V30 6258 N 601.454 6.13229 -0.286953 0
M  V30 6259 C 602.825 6.18127 -0.481625 0
M  V30 6260 C 604.88 4.97687 0.145567 0
M  V30 6261 C 603.583 7.08092 -1.26482 0
M  V30 6262 C 605.609 5.88096 -0.624298 0
M  V30 6263 C 604.971 6.91888 -1.32174 0
M  V30 6264 H 601.07 0.721107 0.302536 0
M  V30 6265 H 603.654 1.94104 0.152178 0
M  V30 6266 H 601.825 3.03653 2.42176 0
M  V30 6267 H 603.557 3.27903 2.37196 0
M  V30 6268 H 600.312 4.65145 0.890902 0
M  V30 6269 H 600.736 6.73359 -0.701193 0
M  V30 6270 H 605.378 4.17451 0.670426 0
M  V30 6271 H 603.096 7.87774 -1.80103 0
M  V30 6272 H 606.682 5.77702 -0.689321 0
M  V30 6273 H 605.562 7.60637 -1.90791 0
M  V30 6274 N 603.065 -0.440357 1.51323 0
M  V30 6275 C 604.013 -1.55492 1.72988 0
M  V30 6276 C 605.007 -1.58564 0.596138 0
M  V30 6277 O 606.213 -1.62345 0.777443 0
M  V30 6278 H 602.588 -0.516532 0.546533 0
M  V30 6279 H 604.559 -1.34392 2.66423 0
M  V30 6280 C 603.308 -2.93176 1.86931 0
M  V30 6281 H 602.631 -2.91543 2.73574 0
M  V30 6282 H 604.071 -3.70537 2.06103 0
M  V30 6283 C 602.53 -3.30988 0.628365 0
M  V30 6284 O 603.06 -4.01106 -0.218367 0
M  V30 6285 N 601.266 -2.86719 0.473339 0
M  V30 6286 H 600.813 -2.2983 1.16345 0
M  V30 6287 H 600.771 -3.12381 -0.355727 0
M  V30 6288 N 604.543 -1.41418 -0.695603 0
M  V30 6289 C 605.771 -1.4413 -1.48439 0
M  V30 6290 C 606.186 -0.0465698 -1.88743 0
M  V30 6291 O 605.543 0.934117 -1.56782 0
M  V30 6292 C 605.594 -2.34998 -2.74696 0
M  V30 6293 O 605.315 -3.69043 -2.36091 0
M  V30 6294 C 606.816 -2.46513 -3.68438 0
M  V30 6295 H 604.036 -0.490905 -0.457442 0
M  V30 6296 H 606.58 -1.85702 -0.856454 0
M  V30 6297 H 604.735 -1.96735 -3.33728 0
M  V30 6298 H 605.149 -4.17505 -3.17474 0
M  V30 6299 H 606.623 -3.1426 -4.53811 0
M  V30 6300 H 607.1 -1.49638 -4.12922 0
M  V30 6301 H 607.706 -2.85412 -3.1531 0
M  V30 6302 N 606.021 0.929856 -1.27246 0
M  V30 6303 C 607.298 1.65544 -1.04186 0
M  V30 6304 C 607.678 2.06796 0.424097 0
M  V30 6305 O 607.026 1.80053 1.40688 0
M  V30 6306 C 607.236 2.85912 -2.00138 0
M  V30 6307 C 608.584 3.57305 -2.29387 0
M  V30 6308 O 609.608 2.96036 -1.98094 0
M  V30 6309 O 608.467 4.67688 -2.82719 0
M  V30 6310 H 605.561 0.725473 -0.397011 0
M  V30 6311 H 608.107 0.980583 -1.38501 0
M  V30 6312 H 606.879 2.52403 -2.99013 0
M  V30 6313 H 606.502 3.61118 -1.66371 0
M  V30 6314 N 607.499 1.09233 1.13605 0
M  V30 6315 C 608.748 0.82205 1.84188 0
M  V30 6316 C 609.061 -0.654548 1.84323 0
M  V30 6317 O 610.267 -1.04029 2.50779 0
M  V30 6318 C 608.723 1.42066 3.30674 0
M  V30 6319 C 608.331 2.92965 3.38933 0
M  V30 6320 C 610.075 1.22924 4.06313 0
M  V30 6321 C 607.982 3.45922 4.79679 0
M  V30 6322 H 606.912 0.303854 0.690064 0
M  V30 6323 H 609.563 1.31479 1.28006 0
M  V30 6324 H 607.945 0.855613 3.86646 0
M  V30 6325 H 609.119 3.55679 2.92966 0
M  V30 6326 H 607.434 3.11118 2.76757 0
M  V30 6327 H 610.031 1.59945 5.10217 0
M  V30 6328 H 610.374 0.169726 4.15954 0
M  V30 6329 H 610.907 1.76168 3.56665 0
M  V30 6330 H 607.646 4.51484 4.75229 0
M  V30 6331 H 607.166 2.87971 5.26149 0
M  V30 6332 H 608.845 3.43009 5.48592 0
M  V30 6333 N 608.977 -1.30795 0.87923 0
M  V30 6334 C 610.202 -2.01063 0.508769 0
M  V30 6335 C 610.627 -1.65508 -0.893803 0
M  V30 6336 O 609.985 -0.868616 -1.59138 0
M  V30 6337 C 610.033 -3.54054 0.683991 0
M  V30 6338 O 609.137 -4.11498 -0.272654 0
M  V30 6339 H 608.478 -0.632786 0.201191 0
M  V30 6340 H 611.008 -1.66776 1.18519 0
M  V30 6341 H 611.018 -4.03845 0.580798 0
M  V30 6342 H 609.693 -3.79271 1.70665 0
M  V30 6343 H 608.27 -3.72695 -0.12364 0
M  V30 6344 N 610.455 -0.639598 -1.44038 0
M  V30 6345 C 611.403 0.0723409 -2.32487 0
M  V30 6346 C 612.397 0.827129 -1.47834 0
M  V30 6347 O 613.603 0.73907 -1.64127 0
M  V30 6348 H 609.978 0.0421696 -0.750817 0
M  V30 6349 H 611.949 -0.691593 -2.90275 0
M  V30 6350 C 610.698 1.03452 -3.31953 0
M  V30 6351 H 610.021 0.46315 -3.97108 0
M  V30 6352 H 611.461 1.502 -3.96505 0
M  V30 6353 C 609.92 2.12392 -2.61518 0
M  V30 6354 O 610.45 3.2059 -2.42044 0
M  V30 6355 N 608.656 1.88563 -2.21116 0
M  V30 6356 H 608.203 1.00577 -2.37154 0
M  V30 6357 H 608.161 2.61651 -1.74316 0
M  V30 6358 N 611.933 1.52934 -0.380664 0
M  V30 6359 C 612.896 2.24809 0.446473 0
M  V30 6360 C 613.896 1.26133 0.997347 0
M  V30 6361 O 615.086 1.50297 0.880714 0
M  V30 6362 C 612.218 2.99649 1.62553 0
M  V30 6363 H 613.411 2.99343 -0.182677 0
M  V30 6364 H 610.964 1.55736 -0.132618 0
M  V30 6365 H 611.699 2.29395 2.29235 0
M  V30 6366 H 611.484 3.72066 1.23732 0
M  V30 6367 H 612.974 3.54246 2.21133 0
M  V30 6368 N 613.412 0.11024 1.57214 0
M  V30 6369 C 614.828 -0.24638 1.57687 0
M  V30 6370 C 615.028 -1.67344 1.12241 0
M  V30 6371 O 614.084 -2.39298 0.805783 0
M  V30 6372 C 615.397 -0.0210288 3.00693 0
M  V30 6373 C 616.945 -0.0876077 3.12877 0
M  V30 6374 C 617.42 0.10994 4.57868 0
M  V30 6375 N 618.911 0.0556135 4.63167 0
M  V30 6376 C 619.646 0.183495 5.73106 0
M  V30 6377 N 619.142 0.367058 6.91827 0
M  V30 6378 N 620.935 0.123689 5.61964 0
M  V30 6379 H 613.086 1.04246 1.85058 0
M  V30 6380 H 615.349 0.40979 0.854854 0
M  V30 6381 H 615.055 0.965203 3.38196 0
M  V30 6382 H 614.929 -0.756748 3.69531 0
M  V30 6383 H 617.316 -1.06436 2.75237 0
M  V30 6384 H 617.397 0.67985 2.466 0
M  V30 6385 H 617.041 1.08362 4.96206 0
M  V30 6386 H 616.971 -0.677397 5.22225 0
M  V30 6387 H 619.462 -0.0831062 3.77809 0
M  V30 6388 H 619.775 0.455739 7.71455 0
M  V30 6389 H 618.12 0.40292 6.93831 0
M  V30 6390 H 621.311 -0.0186928 4.68096 0
M  V30 6391 H 621.484 0.226797 6.47603 0
M  V30 6392 N 614.89 -1.56749 -0.16351 0
M  V30 6393 C 615.853 -1.96121 -1.18613 0
M  V30 6394 C 616.853 -0.845765 -1.36761 0
M  V30 6395 O 618.043 -1.11268 -1.34033 0
M  V30 6396 C 615.175 -2.26282 -2.54969 0
M  V30 6397 H 616.368 -2.87639 -0.848764 0
M  V30 6398 H 613.921 -1.50928 -0.406251 0
M  V30 6399 H 614.656 -1.37504 -2.93706 0
M  V30 6400 H 614.441 -3.07595 -2.43162 0
M  V30 6401 H 615.931 -2.57638 -3.28653 0
M  V30 6402 N 616.368 0.432326 -1.51554 0
M  V30 6403 C 617.615 1.18134 -1.64471 0
M  V30 6404 C 617.943 1.91076 -0.363349 0
M  V30 6405 O 617.198 1.84492 0.65279 0
M  V30 6406 C 617.497 2.21907 -2.80164 0
M  V30 6407 C 617.163 1.65941 -4.19255 0
M  V30 6408 C 615.825 1.50401 -4.57092 0
M  V30 6409 C 618.177 1.24843 -5.06027 0
M  V30 6410 C 615.505 0.922443 -5.79403 0
M  V30 6411 C 617.857 0.68113 -6.28922 0
M  V30 6412 C 616.521 0.512673 -6.65528 0
M  V30 6413 H 615.791 0.432283 -0.601841 0
M  V30 6414 H 618.438 0.471701 -1.856 0
M  V30 6415 H 616.743 2.98928 -2.53277 0
M  V30 6416 H 618.44 2.79691 -2.87357 0
M  V30 6417 H 615.03 1.79014 -3.89425 0
M  V30 6418 H 619.214 1.35667 -4.77397 0
M  V30 6419 H 614.47 0.779733 -6.06408 0
M  V30 6420 H 618.644 0.35418 -6.95499 0
M  V30 6421 H 616.271 0.0599084 -7.60176 0
M  V30 6422 N 617.846 1.41785 0.688094 0
M  V30 6423 C 618.793 1.44221 1.80191 0
M  V30 6424 C 619.763 0.295688 1.63447 0
M  V30 6425 O 620.948 0.49783 1.84191 0
M  V30 6426 C 618.088 1.33743 3.1813 0
M  V30 6427 C 617.201 2.58325 3.46254 0
M  V30 6428 C 616.336 2.40086 4.73848 0
M  V30 6429 C 615.375 3.60107 4.94964 0
M  V30 6430 N 614.512 3.40892 6.13789 0
M  V30 6431 H 619.352 2.39411 1.77444 0
M  V30 6432 H 616.889 1.18876 0.866423 0
M  V30 6433 H 618.847 1.25669 3.97823 0
M  V30 6434 H 617.477 0.42157 3.20035 0
M  V30 6435 H 616.529 2.7682 2.60912 0
M  V30 6436 H 617.841 3.4758 3.57756 0
M  V30 6437 H 616.995 2.29522 5.61609 0
M  V30 6438 H 615.734 1.483 4.64606 0
M  V30 6439 H 614.739 3.71118 4.05649 0
M  V30 6440 H 615.964 4.52857 5.06061 0
M  V30 6441 H 613.91 2.51812 6.05745 0
M  V30 6442 H 613.827 4.23727 6.26092 0
M  V30 6443 H 615.095 3.34114 7.04264 0
M  V30 6444 N 619.324 -0.923095 1.27737 0
M  V30 6445 C 620.234 -2.05765 1.12685 0
M  V30 6446 C 621.25 -1.73911 0.0557197 0
M  V30 6447 O 622.426 -1.99674 0.263137 0
M  V30 6448 C 619.491 -3.37804 0.780363 0
M  V30 6449 C 618.552 -3.83326 1.93286 0
M  V30 6450 C 617.785 -5.09064 1.60281 0
M  V30 6451 O 618.008 -5.6809 0.512828 0
M  V30 6452 O 616.942 -5.50071 2.44347 0
M  V30 6453 H 620.768 -2.21378 2.07907 0
M  V30 6454 H 618.353 -1.04299 1.06968 0
M  V30 6455 H 620.235 -4.17097 0.600668 0
M  V30 6456 H 618.91 -3.23387 -0.142291 0
M  V30 6457 H 617.817 -3.049 2.16764 0
M  V30 6458 H 619.15 -4.02292 2.83588 0
M  V30 6459 N 620.802 -1.09834 -1.13024 0
M  V30 6460 C 621.732 -0.763451 -2.20666 0
M  V30 6461 C 622.713 0.260778 -1.68089 0
M  V30 6462 O 623.898 0.127915 -1.93778 0
M  V30 6463 C 621.028 -0.187744 -3.46792 0
M  V30 6464 C 619.982 -1.14196 -4.12484 0
M  V30 6465 C 619.308 -0.427755 -5.32986 0
M  V30 6466 C 620.608 -2.48607 -4.59338 0
M  V30 6467 H 622.302 -1.66347 -2.48936 0
M  V30 6468 H 619.848 -0.801261 -1.19649 0
M  V30 6469 H 621.801 0.0586375 -4.21359 0
M  V30 6470 H 620.525 0.747485 -3.17931 0
M  V30 6471 H 619.184 -1.37369 -3.3989 0
M  V30 6472 H 618.832 0.511747 -5.0039 0
M  V30 6473 H 618.532 -1.06403 -5.77886 0
M  V30 6474 H 620.056 -0.189772 -6.10305 0
M  V30 6475 H 621.47 -2.29618 -5.25308 0
M  V30 6476 H 619.867 -3.08062 -5.14993 0
M  V30 6477 H 620.937 -3.09062 -3.73642 0
M  V30 6478 N 622.28 1.30327 -0.886154 0
M  V30 6479 C 623.691 1.78243 -0.555554 0
M  V30 6480 C 624.042 1.72849 0.928314 0
M  V30 6481 O 623.167 1.30607 1.72542 0
M  V30 6482 C 623.762 3.23654 -1.00168 0
M  V30 6483 C 622.321 3.69401 -0.722471 0
M  V30 6484 C 621.468 2.50753 -1.18399 0
M  V30 6485 H 624.419 1.1718 -1.07026 0
M  V30 6486 H 624.44 3.79056 -0.331152 0
M  V30 6487 H 623.952 3.27548 -2.08169 0
M  V30 6488 H 622.053 3.70995 0.345496 0
M  V30 6489 H 622.166 4.60818 -1.31085 0
M  V30 6490 H 620.53 2.47452 -0.603303 0
M  V30 6491 H 621.313 2.57383 -2.27176 0
M  V30 6492 N 623.758 0.647228 1.43697 0
M  V30 6493 C 625.004 0.158422 2.0218 0
M  V30 6494 C 625.337 -1.22233 1.50907 0
M  V30 6495 O 624.612 -1.81478 0.699702 0
M  V30 6496 C 624.895 0.1627 3.59732 0
M  V30 6497 C 624.748 1.57694 4.21251 0
M  V30 6498 C 626.067 -0.504138 4.37203 0
M  V30 6499 H 623.186 0.059042 0.734631 0
M  V30 6500 H 625.828 0.826772 1.71069 0
M  V30 6501 H 623.978 -0.406414 3.86368 0
M  V30 6502 H 625.65 2.19618 4.05667 0
M  V30 6503 H 623.893 2.12603 3.7813 0
M  V30 6504 H 624.564 1.53183 5.3032 0
M  V30 6505 H 627.04 -0.0199841 4.16095 0
M  V30 6506 H 625.916 -0.470394 5.46881 0
M  V30 6507 H 626.177 -1.57726 4.13007 0
M  V30 6508 N 625.236 -1.5273 0.388769 0
M  V30 6509 C 626.184 -2.27975 -0.461527 0
M  V30 6510 C 627.178 -1.31854 -1.06352 0
M  V30 6511 O 628.384 -1.49394 -1.00406 0
M  V30 6512 H 624.759 -0.733088 -0.16759 0
M  V30 6513 H 626.73 -2.97765 0.194579 0
M  V30 6514 C 625.479 -3.09881 -1.577 0
M  V30 6515 H 624.802 -3.83701 -1.12309 0
M  V30 6516 H 626.242 -3.6567 -2.14619 0
M  V30 6517 C 624.701 -2.22159 -2.53272 0
M  V30 6518 O 625.231 -1.84802 -3.56667 0
M  V30 6519 N 623.437 -1.8633 -2.23001 0
M  V30 6520 H 622.984 -2.16909 -1.38954 0
M  V30 6521 H 622.942 -1.27927 -2.87197 0
M  V30 6522 N 626.714 -0.118576 -1.57153 0
M  V30 6523 C 627.677 0.817464 -2.14127 0
M  V30 6524 C 628.677 1.1949 -1.07604 0
M  V30 6525 O 629.867 1.12048 -1.33382 0
M  V30 6526 C 626.999 2.10541 -2.68115 0
M  V30 6527 H 628.192 0.322339 -2.98163 0
M  V30 6528 H 625.745 0.130655 -1.55753 0
M  V30 6529 H 626.48 2.64485 -1.87665 0
M  V30 6530 H 626.265 1.84425 -3.4602 0
M  V30 6531 H 627.755 2.77453 -3.12105 0
M  V30 6532 N 628.193 1.56834 0.155195 0
M  V30 6533 C 629.125 1.94235 1.21677 0
M  V30 6534 C 630.138 0.83724 1.39621 0
M  V30 6535 O 631.327 1.11567 1.39338 0
M  V30 6536 C 628.427 2.19402 2.58294 0
M  V30 6537 C 627.6 3.50671 2.61436 0
M  V30 6538 C 626.659 3.64475 3.79532 0
M  V30 6539 O 625.685 4.36945 3.64784 0
M  V30 6540 N 626.887 3.00526 4.96653 0
M  V30 6541 H 629.652 2.85901 0.898932 0
M  V30 6542 H 627.213 1.58185 0.34483 0
M  V30 6543 H 629.205 2.25886 3.35794 0
M  V30 6544 H 627.775 1.34042 2.82403 0
M  V30 6545 H 626.995 3.55702 1.69912 0
M  V30 6546 H 628.283 4.3702 2.60559 0
M  V30 6547 H 627.681 2.41549 5.11538 0
M  V30 6548 H 626.238 3.12583 5.71958 0
M  V30 6549 N 629.671 -0.424282 1.51781 0
M  V30 6550 C 630.619 -1.53649 1.74628 0
M  V30 6551 C 631.613 -1.57923 0.612922 0
M  V30 6552 O 632.819 -1.61511 0.794618 0
M  V30 6553 H 629.194 -0.510706 0.551981 0
M  V30 6554 H 631.165 -1.31558 2.67834 0
M  V30 6555 C 629.914 -2.91177 1.9003 0
M  V30 6556 H 629.237 -2.88625 2.76651 0
M  V30 6557 H 630.677 -3.6833 2.10021 0
M  V30 6558 C 629.136 -3.30303 0.663435 0
M  V30 6559 O 629.666 -4.01315 -0.175812 0
M  V30 6560 N 627.872 -2.86201 0.503723 0
M  V30 6561 H 627.419 -2.28583 1.18776 0
M  V30 6562 H 627.377 -3.12741 -0.322575 0
M  V30 6563 N 631.149 -1.42148 -0.680565 0
M  V30 6564 C 632.379 -1.45485 -1.46689 0
M  V30 6565 C 632.787 -0.0629451 -1.89095 0
M  V30 6566 O 632.13 0.931397 -1.58337 0
M  V30 6567 C 632.192 -2.31397 -2.75129 0
M  V30 6568 C 631.856 -3.79353 -2.54834 0
M  V30 6569 C 632.853 -4.71148 -2.19808 0
M  V30 6570 C 630.538 -4.23557 -2.70008 0
M  V30 6571 C 632.532 -6.05139 -2.00215 0
M  V30 6572 C 630.219 -5.57609 -2.50031 0
M  V30 6573 C 631.217 -6.48216 -2.15187 0
M  V30 6574 O 630.905 -7.79792 -1.95397 0
M  V30 6575 H 630.637 -0.497139 -0.458071 0
M  V30 6576 H 633.191 -1.87252 -0.844139 0
M  V30 6577 H 631.421 -1.84468 -3.39865 0
M  V30 6578 H 633.11 -2.26257 -3.36991 0
M  V30 6579 H 633.876 -4.38282 -2.07686 0
M  V30 6580 H 629.755 -3.53327 -2.96109 0
M  V30 6581 H 633.299 -6.75823 -1.72941 0
M  V30 6582 H 629.196 -5.9005 -2.61748 0
M  V30 6583 H 629.964 -7.91091 -2.10042 0
M  V30 6584 N 632.627 0.916307 -1.28225 0
M  V30 6585 C 633.873 1.66765 -1.154 0
M  V30 6586 C 634.206 1.91912 0.297251 0
M  V30 6587 O 633.481 1.51766 1.21644 0
M  V30 6588 C 633.764 3.02715 -1.95028 0
M  V30 6589 C 633.617 2.84738 -3.48201 0
M  V30 6590 C 634.936 4.03215 -1.76369 0
M  V30 6591 H 632.055 0.605205 -0.42059 0
M  V30 6592 H 634.697 1.06255 -1.57512 0
M  V30 6593 H 632.847 3.54365 -1.59242 0
M  V30 6594 H 634.519 2.40118 -3.9388 0
M  V30 6595 H 632.762 2.19848 -3.73964 0
M  V30 6596 H 633.433 3.8127 -3.99171 0
M  V30 6597 H 635.909 3.60617 -2.07593 0
M  V30 6598 H 634.785 4.96306 -2.34459 0
M  V30 6599 H 635.046 4.36288 -0.71452 0
M  V30 6600 N 634.105 1.10431 1.1244 0
M  V30 6601 C 635.521 0.836096 1.35947 0
M  V30 6602 C 635.721 -0.544475 1.94004 0
M  V30 6603 O 634.777 -1.29735 2.16622 0
M  V30 6604 C 636.09 1.93575 2.30107 0
M  V30 6605 C 637.638 1.9642 2.43697 0
M  V30 6606 C 638.113 3.05559 3.41171 0
M  V30 6607 N 639.604 3.04865 3.48728 0
M  V30 6608 C 640.339 3.85954 4.24061 0
M  V30 6609 N 639.835 4.76977 5.02458 0
M  V30 6610 N 641.628 3.74172 4.19466 0
M  V30 6611 H 633.779 1.9942 0.731124 0
M  V30 6612 H 636.042 0.866607 0.384312 0
M  V30 6613 H 635.748 2.92943 1.94621 0
M  V30 6614 H 635.622 1.8229 3.30227 0
M  V30 6615 H 638.009 0.97685 2.78463 0
M  V30 6616 H 638.09 2.11782 1.43465 0
M  V30 6617 H 637.734 4.04513 3.07135 0
M  V30 6618 H 637.664 2.87438 4.41234 0
M  V30 6619 H 640.155 2.38908 2.92799 0
M  V30 6620 H 640.468 5.35409 5.57277 0
M  V30 6621 H 638.813 4.81006 5.01655 0
M  V30 6622 H 642.004 3.02412 3.57302 0
M  V30 6623 H 642.177 4.37602 4.77921 0
M  V30 6624 N 635.583 -1.29855 0.893053 0
M  V30 6625 C 636.83 -1.95826 0.515585 0
M  V30 6626 C 637.158 -1.70451 -0.936842 0
M  V30 6627 O 636.413 -1.00657 -1.67829 0
M  V30 6628 C 636.712 -3.49515 0.746588 0
M  V30 6629 C 636.378 -3.94955 2.17535 0
M  V30 6630 C 635.04 -4.07073 2.56603 0
M  V30 6631 C 637.392 -4.18536 3.10607 0
M  V30 6632 C 634.72 -4.40138 3.87938 0
M  V30 6633 C 637.072 -4.53073 4.41484 0
M  V30 6634 C 635.736 -4.634 4.80434 0
M  V30 6635 H 635.006 -0.71658 0.188666 0
M  V30 6636 H 637.653 -1.54574 1.13045 0
M  V30 6637 H 635.958 -3.9177 0.0487551 0
M  V30 6638 H 637.655 -3.98644 0.434009 0
M  V30 6639 H 634.245 -3.86035 1.86212 0
M  V30 6640 H 638.429 -4.08646 2.81641 0
M  V30 6641 H 633.685 -4.46335 4.17846 0
M  V30 6642 H 637.859 -4.70269 5.13634 0
M  V30 6643 H 635.486 -4.88775 5.82239 0
M  V30 6644 N 637.061 -0.65484 -1.43351 0
M  V30 6645 C 638.31 -0.166215 -2.01014 0
M  V30 6646 C 638.623 1.22764 -1.52278 0
M  V30 6647 O 639.829 1.81156 -2.02224 0
M  V30 6648 C 638.285 -0.246341 -3.59056 0
M  V30 6649 C 637.893 -1.64299 -4.16785 0
M  V30 6650 C 639.637 0.184597 -4.24098 0
M  V30 6651 C 637.544 -1.67695 -5.67126 0
M  V30 6652 H 636.474 -0.0583769 -0.751737 0
M  V30 6653 H 639.125 -0.817111 -1.64303 0
M  V30 6654 H 637.507 0.472092 -3.93176 0
M  V30 6655 H 638.681 -2.3869 -3.94162 0
M  V30 6656 H 636.996 -2.02004 -3.6412 0
M  V30 6657 H 639.593 0.179088 -5.344 0
M  V30 6658 H 639.936 1.21632 -3.98135 0
M  V30 6659 H 640.469 -0.482141 -3.94867 0
M  V30 6660 H 637.208 -2.68783 -5.9786 0
M  V30 6661 H 636.728 -0.976313 -5.91801 0
M  V30 6662 H 638.407 -1.42142 -6.31193 0
M  V30 6663 N 638.539 1.52521 -0.396863 0
M  V30 6664 C 639.449 2.30403 0.44178 0
M  V30 6665 C 640.465 1.37625 1.06468 0
M  V30 6666 O 641.641 1.70697 1.06886 0
M  V30 6667 C 638.706 3.1013 1.54986 0
M  V30 6668 C 637.767 4.18628 0.951279 0
M  V30 6669 C 637 4.94543 2.00655 0
M  V30 6670 O 637.223 4.70629 3.22281 0
M  V30 6671 O 636.157 5.797 1.61962 0
M  V30 6672 H 639.983 3.03087 -0.192892 0
M  V30 6673 H 637.568 1.48537 -0.16038 0
M  V30 6674 H 639.45 3.59816 2.19341 0
M  V30 6675 H 638.125 2.40251 2.16935 0
M  V30 6676 H 637.032 3.73119 0.270773 0
M  V30 6677 H 638.365 4.90763 0.375887 0
M  V30 6678 N 640.017 0.126909 1.57088 0
M  V30 6679 C 641.294 -0.573152 1.87014 0
M  V30 6680 C 641.674 -1.84297 1.02945 0
M  V30 6681 O 641.022 -2.28232 0.110573 0
M  V30 6682 C 641.232 -0.857984 3.38289 0
M  V30 6683 C 642.58 -1.20759 4.07066 0
M  V30 6684 O 643.604 -0.947992 3.43353 0
M  V30 6685 O 642.463 -1.69516 5.19545 0
M  V30 6686 H 639.557 -0.290082 0.774456 0
M  V30 6687 H 642.103 0.162008 1.68925 0
M  V30 6688 H 640.875 0.0415286 3.91278 0
M  V30 6689 H 640.498 -1.64803 3.61837 0
M  V30 6690 N 641.495 -1.56914 -0.146875 0
M  V30 6691 C 642.405 -2.0154 -1.20079 0
M  V30 6692 C 643.421 -0.930838 -1.47008 0
M  V30 6693 O 644.597 -1.24032 -1.58676 0
M  V30 6694 C 641.662 -2.38715 -2.51428 0
M  V30 6695 C 640.723 -3.6112 -2.32145 0
M  V30 6696 C 639.956 -3.96512 -3.57231 0
M  V30 6697 O 640.179 -3.32566 -4.63418 0
M  V30 6698 O 639.113 -4.89758 -3.49887 0
M  V30 6699 H 642.939 -2.91506 -0.851924 0
M  V30 6700 H 640.524 -1.45106 -0.355607 0
M  V30 6701 H 642.406 -2.63485 -3.28867 0
M  V30 6702 H 641.081 -1.51903 -2.85845 0
M  V30 6703 H 639.988 -3.41536 -1.52656 0
M  V30 6704 H 641.321 -4.48549 -2.02644 0
M  V30 6705 N 642.974 0.416227 -1.52004 0
M  V30 6706 C 643.904 1.51365 -1.77795 0
M  V30 6707 C 644.885 1.58059 -0.628601 0
M  V30 6708 O 646.07 1.73447 -0.873478 0
M  V30 6709 C 643.2 2.89256 -1.92219 0
M  V30 6710 C 642.154 2.97415 -3.0778 0
M  V30 6711 C 641.48 4.37492 -3.07417 0
M  V30 6712 C 642.78 2.69551 -4.47369 0
M  V30 6713 H 644.474 1.30033 -2.69688 0
M  V30 6714 H 642.02 0.624112 -1.29772 0
M  V30 6715 H 643.973 3.66008 -2.08845 0
M  V30 6716 H 642.697 3.11866 -0.969917 0
M  V30 6717 H 641.356 2.23107 -2.90893 0
M  V30 6718 H 641.004 4.571 -2.09925 0
M  V30 6719 H 640.704 4.43877 -3.85029 0
M  V30 6720 H 642.228 5.16188 -3.26162 0
M  V30 6721 H 643.642 3.36028 -4.64497 0
M  V30 6722 H 642.039 2.87321 -5.26846 0
M  V30 6723 H 643.109 1.65029 -4.55953 0
M  V30 6724 N 644.452 1.42507 0.673017 0
M  V30 6725 C 645.384 1.42074 1.79854 0
M  V30 6726 C 646.397 0.319569 1.59633 0
M  V30 6727 O 647.586 0.582769 1.68719 0
M  V30 6728 C 644.686 1.19886 3.16987 0
M  V30 6729 C 643.859 2.42471 3.64042 0
M  V30 6730 C 642.918 2.15802 4.79913 0
M  V30 6731 O 641.944 2.89015 4.90366 0
M  V30 6732 N 643.146 1.16225 5.68746 0
M  V30 6733 H 645.911 2.3909 1.8071 0
M  V30 6734 H 643.472 1.37409 0.856171 0
M  V30 6735 H 645.464 0.999591 3.92161 0
M  V30 6736 H 644.034 0.313879 3.1102 0
M  V30 6737 H 643.254 2.77954 2.79526 0
M  V30 6738 H 644.542 3.24097 3.92223 0
M  V30 6739 H 643.94 0.556756 5.62954 0
M  V30 6740 H 642.497 1.02285 6.43724 0
M  V30 6741 N 645.93 -0.909495 1.28709 0
M  V30 6742 C 647.179 -1.65365 1.15487 0
M  V30 6743 C 647.492 -1.93364 -0.294941 0
M  V30 6744 O 648.698 -2.65905 -0.548338 0
M  V30 6745 C 647.154 -2.97923 2.01916 0
M  V30 6746 C 646.762 -2.77556 3.51663 0
M  V30 6747 C 648.506 -3.75814 1.97393 0
M  V30 6748 C 646.413 -4.0578 4.30229 0
M  V30 6749 H 645.343 -0.620323 0.42862 0
M  V30 6750 H 647.994 -1.00894 1.53273 0
M  V30 6751 H 646.376 -3.63552 1.5699 0
M  V30 6752 H 647.55 -2.2058 4.04575 0
M  V30 6753 H 645.865 -2.13072 3.57756 0
M  V30 6754 H 648.462 -4.70866 2.53357 0
M  V30 6755 H 648.805 -4.05277 0.951643 0
M  V30 6756 H 649.338 -3.1701 2.40311 0
M  V30 6757 H 646.077 -3.81488 5.33055 0
M  V30 6758 H 645.597 -4.62351 3.82089 0
M  V30 6759 H 647.276 -4.74004 4.40374 0
M  V30 6760 N 647.408 -1.11026 -1.11852 0
M  V30 6761 C 648.819 -0.873203 -1.65021 0
M  V30 6762 C 649.17 0.595364 -1.86949 0
M  V30 6763 O 648.295 1.45645 -1.60051 0
M  V30 6764 C 648.89 -1.57859 -2.99777 0
M  V30 6765 C 647.449 -1.38807 -3.49871 0
M  V30 6766 C 646.596 -1.62403 -2.24768 0
M  V30 6767 H 649.547 -1.26712 -0.955503 0
M  V30 6768 H 649.568 -1.02111 -3.66543 0
M  V30 6769 H 649.08 -2.6474 -2.83786 0
M  V30 6770 H 647.181 -0.341163 -3.71035 0
M  V30 6771 H 647.294 -2.13421 -4.28938 0
M  V30 6772 H 645.658 -1.04714 -2.32179 0
M  V30 6773 H 646.441 -2.70549 -2.11324 0
M  V30 6774 N 648.886 1.2938 -0.899927 0
M  V30 6775 C 650.132 1.9584 -0.526742 0
M  V30 6776 C 650.465 1.70774 0.924651 0
M  V30 6777 O 649.74 1.02084 1.65557 0
M  V30 6778 C 650.023 3.50638 -0.820062 0
M  V30 6779 C 649.876 3.85161 -2.32317 0
M  V30 6780 C 651.195 4.3903 -0.30671 0
M  V30 6781 H 648.314 0.711322 -0.192848 0
M  V30 6782 H 650.956 1.52992 -1.12665 0
M  V30 6783 H 649.106 3.87265 -0.309491 0
M  V30 6784 H 650.778 3.58477 -2.9033 0
M  V30 6785 H 649.021 3.32696 -2.78381 0
M  V30 6786 H 649.692 4.93204 -2.47898 0
M  V30 6787 H 652.168 4.09396 -0.743908 0
M  V30 6788 H 651.044 5.46226 -0.541144 0
M  V30 6789 H 651.305 4.34937 0.792588 0
M  V30 6790 N 650.364 0.662433 1.43002 0
M  V30 6791 C 651.311 -0.0235324 2.30788 0
M  V30 6792 C 652.281 -0.805342 1.4527 0
M  V30 6793 O 653.466 -0.78009 1.74124 0
M  V30 6794 C 650.606 -0.977545 3.30965 0
M  V30 6795 C 649.719 -0.190865 4.31578 0
M  V30 6796 C 648.854 -1.13951 5.18834 0
M  V30 6797 C 647.893 -0.343796 6.11134 0
M  V30 6798 N 647.03 -1.2445 6.90982 0
M  V30 6799 H 651.87 0.730921 2.88897 0
M  V30 6800 H 649.407 0.372197 1.42313 0
M  V30 6801 H 651.365 -1.54437 3.87563 0
M  V30 6802 H 649.995 -1.69877 2.74484 0
M  V30 6803 H 649.047 0.492388 3.772 0
M  V30 6804 H 650.359 0.427464 4.96965 0
M  V30 6805 H 649.513 -1.77666 5.80103 0
M  V30 6806 H 648.252 -1.79174 4.53595 0
M  V30 6807 H 647.257 0.30665 5.48944 0
M  V30 6808 H 648.482 0.304161 6.78419 0
M  V30 6809 H 646.428 -1.88336 6.28383 0
M  V30 6810 H 646.345 -0.680959 7.52927 0
M  V30 6811 H 647.613 -1.86952 7.56749 0
M  V30 6812 N 651.842 -1.52309 0.404946 0
M  V30 6813 C 653.088 -2.02731 -0.164857 0
M  V30 6814 C 653.443 -1.28543 -1.43159 0
M  V30 6815 O 652.736 -0.381883 -1.87756 0
M  V30 6816 C 652.93 -3.54284 -0.470895 0
M  V30 6817 C 652.759 -4.43152 0.764625 0
M  V30 6818 C 651.529 -4.88594 1.28858 0
M  V30 6819 C 653.727 -4.874 1.64152 0
M  V30 6820 N 651.709 -5.61577 2.48001 0
M  V30 6821 C 653.08 -5.59121 2.67924 0
M  V30 6822 C 655.135 -4.69421 1.65978 0
M  V30 6823 C 653.838 -6.14772 3.73427 0
M  V30 6824 C 655.864 -5.25966 2.70396 0
M  V30 6825 C 655.226 -5.97606 3.7289 0
M  V30 6826 H 651.325 -0.78169 -0.0220025 0
M  V30 6827 H 653.909 -1.86522 0.558354 0
M  V30 6828 H 652.08 -3.70574 -1.16315 0
M  V30 6829 H 653.812 -3.91394 -1.02921 0
M  V30 6830 H 650.567 -4.6596 0.847232 0
M  V30 6831 H 650.991 -6.02712 3.08329 0
M  V30 6832 H 655.633 -4.13524 0.88079 0
M  V30 6833 H 653.351 -6.69743 4.52184 0
M  V30 6834 H 656.937 -5.13926 2.72711 0
M  V30 6835 H 655.817 -6.40577 4.52361 0
M  V30 6836 N 653.32 -0.135238 -1.57019 0
M  V30 6837 C 654.569 0.518694 -1.94917 0
M  V30 6838 C 654.882 1.66783 -1.0219 0
M  V30 6839 O 656.088 2.38561 -1.29619 0
M  V30 6840 C 654.544 0.974123 -3.46466 0
M  V30 6841 C 654.152 -0.147439 -4.47757 0
M  V30 6842 C 655.896 1.59851 -3.93253 0
M  V30 6843 C 653.803 0.325599 -5.90503 0
M  V30 6844 H 652.733 0.19754 -0.727663 0
M  V30 6845 H 655.384 -0.217698 -1.82204 0
M  V30 6846 H 653.766 1.76542 -3.5447 0
M  V30 6847 H 654.94 -0.924122 -4.51438 0
M  V30 6848 H 653.255 -0.679496 -4.10818 0
M  V30 6849 H 655.852 1.96385 -4.9733 0
M  V30 6850 H 656.195 2.48306 -3.3414 0
M  V30 6851 H 656.728 0.872323 -3.88118 0
M  V30 6852 H 653.467 -0.523295 -6.53408 0
M  V30 6853 H 652.987 1.06841 -5.90208 0
M  V30 6854 H 654.666 0.781498 -6.42263 0
M  V30 6855 N 654.798 1.5699 0.138552 0
M  V30 6856 C 656.046 1.83446 0.848053 0
M  V30 6857 C 656.367 0.71744 1.81322 0
M  V30 6858 O 655.637 -0.260228 1.94164 0
M  V30 6859 H 654.217 0.676792 0.316166 0
M  V30 6860 H 656.879 1.94462 0.130538 0
M  V30 6861 H 655.975 2.78677 1.40518 0
M  V30 6862 N 656.276 -0.40816 1.52223 0
M  V30 6863 C 657.522 -1.15673 1.66576 0
M  V30 6864 C 657.855 -1.90141 0.394996 0
M  V30 6865 O 657.13 -1.84798 -0.606613 0
M  V30 6866 C 657.413 -2.15042 2.88841 0
M  V30 6867 C 657.266 -1.44465 4.25969 0
M  V30 6868 C 658.585 -3.15699 3.0663 0
M  V30 6869 H 655.704 -0.41916 0.606196 0
M  V30 6870 H 658.346 -0.442348 1.84779 0
M  V30 6871 H 656.496 -2.75964 2.73452 0
M  V30 6872 H 658.168 -0.866544 4.53088 0
M  V30 6873 H 656.411 -0.746612 4.27327 0
M  V30 6874 H 657.082 -2.16976 5.07568 0
M  V30 6875 H 659.558 -2.64854 3.20923 0
M  V30 6876 H 658.434 -3.82491 3.9369 0
M  V30 6877 H 658.695 -3.83481 2.19987 0
M  V30 6878 N 657.755 -1.42862 -0.66545 0
M  V30 6879 C 659.003 -1.43546 -1.42264 0
M  V30 6880 C 659.324 -0.0563116 -1.94919 0
M  V30 6881 O 658.594 0.906568 -1.73661 0
M  V30 6882 H 657.174 -0.528464 -0.527953 0
M  V30 6883 H 659.836 -1.78363 -0.785665 0
M  V30 6884 H 658.932 -2.14079 -2.27105 0
M  V30 6885 N 659.233 0.902656 -1.29189 0
M  V30 6886 C 660.18 2.00643 -1.14066 0
M  V30 6887 C 661.15 1.66064 -0.0347756 0
M  V30 6888 O 662.335 1.8973 -0.201752 0
M  V30 6889 C 659.475 3.35214 -0.820104 0
M  V30 6890 C 658.588 3.82594 -2.00614 0
M  V30 6891 C 657.723 5.05727 -1.62522 0
M  V30 6892 C 656.762 5.45469 -2.77724 0
M  V30 6893 N 655.899 6.59789 -2.40048 0
M  V30 6894 H 660.739 2.1291 -2.08502 0
M  V30 6895 H 658.276 1.04271 -1.03759 0
M  V30 6896 H 660.234 4.12643 -0.614949 0
M  V30 6897 H 658.864 3.22682 0.0873452 0
M  V30 6898 H 657.916 3.01226 -2.32308 0
M  V30 6899 H 659.228 4.07999 -2.86946 0
M  V30 6900 H 658.382 5.90732 -1.38277 0
M  V30 6901 H 657.121 4.82155 -0.733333 0
M  V30 6902 H 656.126 4.59 -3.02653 0
M  V30 6903 H 657.351 5.71024 -3.67572 0
M  V30 6904 H 655.297 6.37826 -1.53343 0
M  V30 6905 H 655.214 6.84975 -3.19914 0
M  V30 6906 H 656.482 7.4807 -2.19116 0
M  V30 6907 N 660.711 1.11618 1.11262 0
M  V30 6908 C 661.936 0.889013 1.8738 0
M  V30 6909 C 662.361 -0.555884 1.79698 0
M  V30 6910 O 661.719 -1.39272 1.16073 0
M  V30 6911 C 661.767 1.35759 3.34069 0
M  V30 6912 O 660.871 0.530499 4.08974 0
M  V30 6913 H 660.212 0.320082 0.581759 0
M  V30 6914 H 662.742 1.48611 1.40627 0
M  V30 6915 H 662.752 1.35291 3.84916 0
M  V30 6916 H 661.427 2.40973 3.38976 0
M  V30 6917 H 660.004 0.601439 3.68018 0
M  V30 6918 N 662.189 -1.289 0.906776 0
M  V30 6919 C 663.605 -1.47733 0.603902 0
M  V30 6920 C 663.805 -1.82568 -0.852702 0
M  V30 6921 O 662.861 -1.92642 -1.63234 0
M  V30 6922 C 664.174 -2.58522 1.53581 0
M  V30 6923 C 665.722 -2.72394 1.54177 0
M  V30 6924 C 666.197 -3.86318 2.46013 0
M  V30 6925 N 667.688 -3.93661 2.441 0
M  V30 6926 C 668.423 -4.81177 3.11859 0
M  V30 6927 N 667.919 -5.73333 3.88923 0
M  V30 6928 N 669.712 -4.74728 3.00981 0
M  V30 6929 H 661.863 -1.04567 1.84877 0
M  V30 6930 H 664.126 -0.520118 0.792579 0
M  V30 6931 H 663.832 -2.39667 2.57396 0
M  V30 6932 H 663.706 -3.55475 1.26165 0
M  V30 6933 H 666.093 -2.90641 0.511034 0
M  V30 6934 H 666.174 -1.75993 1.85634 0
M  V30 6935 H 665.818 -3.68826 3.49185 0
M  V30 6936 H 665.748 -4.82102 2.11862 0
M  V30 6937 H 668.239 -3.27751 1.88115 0
M  V30 6938 H 668.552 -6.36923 4.37663 0
M  V30 6939 H 666.897 -5.73196 3.93029 0
M  V30 6940 H 670.088 -4.01722 2.40286 0
M  V30 6941 H 670.261 -5.42719 3.54062 0
M  V30 6942 N 663.667 -0.670007 -1.42649 0
M  V30 6943 C 664.577 0.0114788 -2.34597 0
M  V30 6944 C 665.593 0.794055 -1.54825 0
M  V30 6945 O 666.769 0.737472 -1.87412 0
M  V30 6946 C 663.834 0.954436 -3.33304 0
M  V30 6947 C 662.895 0.166925 -4.28975 0
M  V30 6948 C 662.128 1.06497 -5.22967 0
M  V30 6949 O 662.351 2.30446 -5.21777 0
M  V30 6950 O 661.285 0.528347 -5.99577 0
M  V30 6951 H 665.111 -0.745794 -2.944 0
M  V30 6952 H 662.696 -0.430228 -1.43071 0
M  V30 6953 H 664.578 1.49589 -3.93956 0
M  V30 6954 H 663.253 1.69164 -2.7598 0
M  V30 6955 H 662.16 -0.418515 -3.71752 0
M  V30 6956 H 663.493 -0.531067 -4.89327 0
M  V30 6957 N 665.145 1.52092 -0.413018 0
M  V30 6958 C 666.37 2.06756 0.163338 0
M  V30 6959 C 666.795 1.28073 1.37764 0
M  V30 6960 O 666.153 0.312015 1.78595 0
M  V30 6961 C 666.201 3.57278 0.488322 0
M  V30 6962 O 665.305 3.80986 1.57871 0
M  V30 6963 H 664.646 0.663882 0.0125068 0
M  V30 6964 H 667.176 1.95988 -0.587339 0
M  V30 6965 H 667.186 4.01125 0.745836 0
M  V30 6966 H 665.861 4.13978 -0.399327 0
M  V30 6967 H 664.438 3.49017 1.31306 0
M  V30 6968 N 666.623 0.143563 1.56945 0
M  V30 6969 C 667.556 -0.835367 2.1236 0
M  V30 6970 C 668.534 -1.24466 1.04627 0
M  V30 6971 O 669.718 -1.34138 1.32436 0
M  V30 6972 C 666.845 -2.12123 2.64048 0
M  V30 6973 C 665.891 -1.85812 3.83896 0
M  V30 6974 S 666.724 -1.05222 5.25061 0
M  V30 6975 C 667.88 -2.34935 5.80135 0
M  V30 6976 H 668.113 -0.364109 2.95062 0
M  V30 6977 H 665.646 -0.0706601 1.54238 0
M  V30 6978 H 667.604 -2.85993 2.94479 0
M  V30 6979 H 666.265 -2.56364 1.81483 0
M  V30 6980 H 665.458 -2.81151 4.18294 0
M  V30 6981 H 665.06 -1.20052 3.54208 0
M  V30 6982 H 667.352 -3.3061 5.91357 0
M  V30 6983 H 668.295 -2.05046 6.77762 0
M  V30 6984 H 668.703 -2.45426 5.08356 0
M  V30 6985 N 668.101 -1.57061 -0.130224 0
M  V30 6986 C 669.35 -1.83446 -0.838488 0
M  V30 6987 C 669.663 -0.727468 -1.81569 0
M  V30 6988 O 670.869 -0.877394 -2.56932 0
M  V30 6989 C 669.325 -3.25201 -1.54182 0
M  V30 6990 C 668.933 -4.4388 -0.606178 0
M  V30 6991 C 670.677 -3.60844 -2.23588 0
M  V30 6992 C 668.584 -5.76661 -1.31209 0
M  V30 6993 H 667.514 -0.684185 -0.316871 0
M  V30 6994 H 670.165 -1.83273 -0.0912059 0
M  V30 6995 H 668.547 -3.1981 -2.33533 0
M  V30 6996 H 669.721 -4.60545 0.153308 0
M  V30 6997 H 668.036 -4.16395 -0.0196705 0
M  V30 6998 H 670.633 -4.57313 -2.77072 0
M  V30 6999 H 670.976 -2.87724 -3.00867 0
M  V30 7000 H 671.509 -3.67971 -1.51137 0
M  V30 7001 H 668.248 -6.52922 -0.580823 0
M  V30 7002 H 667.768 -5.63902 -2.04387 0
M  V30 7003 H 669.447 -6.20035 -1.8484 0
M  V30 7004 N 669.579 0.400081 -1.52437 0
M  V30 7005 C 670.511 1.50729 -1.72666 0
M  V30 7006 C 671.524 1.51058 -0.607075 0
M  V30 7007 O 672.713 1.5516 -0.88248 0
M  V30 7008 C 669.813 2.89604 -1.76019 0
M  V30 7009 C 668.986 3.13365 -3.05157 0
M  V30 7010 C 668.045 4.32163 -3.00203 0
M  V30 7011 O 667.071 4.29004 -3.74092 0
M  V30 7012 N 668.273 5.3776 -2.18619 0
M  V30 7013 H 671.038 1.33767 -2.68191 0
M  V30 7014 H 668.599 0.58948 -1.50787 0
M  V30 7015 H 670.591 3.67159 -1.70225 0
M  V30 7016 H 669.161 2.99979 -0.879284 0
M  V30 7017 H 668.381 2.23774 -3.24529 0
M  V30 7018 H 669.669 3.26089 -3.90568 0
M  V30 7019 H 669.067 5.43177 -1.58035 0
M  V30 7020 H 667.624 6.14023 -2.18674 0
M  V30 7021 N 671.057 1.43213 0.657864 0
M  V30 7022 C 671.987 1.50815 1.78262 0
M  V30 7023 C 672.968 0.363211 1.66177 0
M  V30 7024 O 674.153 0.579806 1.85343 0
M  V30 7025 C 671.283 1.42625 3.16663 0
M  V30 7026 C 670.237 2.5532 3.43505 0
M  V30 7027 C 669.563 2.32184 4.81658 0
M  V30 7028 C 670.863 3.97583 3.38711 0
M  V30 7029 H 672.557 2.44954 1.72157 0
M  V30 7030 H 670.103 1.17896 0.82683 0
M  V30 7031 H 672.056 1.46548 3.95097 0
M  V30 7032 H 670.78 0.449877 3.23487 0
M  V30 7033 H 669.439 2.50742 2.6744 0
M  V30 7034 H 669.087 1.32801 4.85153 0
M  V30 7035 H 668.787 3.07724 5.00579 0
M  V30 7036 H 670.311 2.37883 5.62356 0
M  V30 7037 H 671.725 4.03673 4.07089 0
M  V30 7038 H 670.122 4.73112 3.69168 0
M  V30 7039 H 671.192 4.23049 2.36976 0
M  V30 7040 N 672.536 -0.895792 1.29666 0
M  V30 7041 C 673.783 -1.64664 1.17864 0
M  V30 7042 C 674.111 -1.92631 -0.26902 0
M  V30 7043 O 673.366 -1.53787 -1.21029 0
M  V30 7044 C 673.665 -3.00075 1.94139 0
M  V30 7045 C 673.331 -2.91702 3.43833 0
M  V30 7046 C 671.993 -2.89126 3.84656 0
M  V30 7047 C 674.345 -2.80622 4.39205 0
M  V30 7048 C 671.673 -2.73293 5.1916 0
M  V30 7049 C 674.025 -2.66329 5.73805 0
M  V30 7050 C 672.689 -2.62121 6.1388 0
M  V30 7051 H 671.959 -0.602549 0.431295 0
M  V30 7052 H 674.606 -1.04234 1.60648 0
M  V30 7053 H 672.911 -3.64394 1.43958 0
M  V30 7054 H 674.608 -3.57111 1.82408 0
M  V30 7055 H 671.198 -2.94511 3.11386 0
M  V30 7056 H 675.382 -2.81686 4.08615 0
M  V30 7057 H 670.638 -2.68443 5.49316 0
M  V30 7058 H 674.812 -2.56727 6.47352 0
M  V30 7059 H 672.439 -2.49611 7.18052 0
M  V30 7060 O 674.053 -1.24272 -1.03144 0
M  V30 7061 H 674.744 -1.0191 -1.64724 0
M  V30 END ATOM
M  V30 BEGIN BOND
M  V30 END BOND
M  V30 END CTAB
M  END
$$$$
