drugbank_target|P17707 S-adenosylmethionine decarboxylase proenzyme (DB00118; DB01917; DB08163)
 OpenBabel12092119243D

  0  0  0     0  0            999 V3000
M  V30 BEGIN CTAB
M  V30 COUNTS 5327 5391 0 0 0
M  V30 BEGIN ATOM
M  V30 1 H -0.908 1.98254 -0.117106 0
M  V30 2 N 0 1.576 0 0
M  V30 3 C 0.933 2.03868 1.02534 0
M  V30 4 C 1.911 0.928543 1.3348 0
M  V30 5 O 3.095 1.19667 1.45644 0
M  V30 6 C 0.222 2.43627 2.35294 0
M  V30 7 C -0.732 3.65373 2.2001 0
M  V30 8 S 0.101 5.13292 1.52614 0
M  V30 9 C 1.257 5.56322 2.86805 0
M  V30 10 H 1.49 2.90518 0.631377 0
M  V30 11 H -0.977 1.52953 0.210867 0
M  V30 12 H 0.981 2.67203 3.11629 0
M  V30 13 H -0.358 1.57376 2.7183 0
M  V30 14 H -1.165 3.90944 3.18086 0
M  V30 15 H -1.563 3.418 1.51819 0
M  V30 16 H 0.729 5.58782 3.83104 0
M  V30 17 H 1.672 6.56266 2.65933 0
M  V30 18 H 2.08 4.83886 2.90714 0
M  V30 19 N 1.4781 -0.272755 1.55222 0
M  V30 20 C 2.3881 -1.35918 1.91216 0
M  V30 21 C 3.4041 -1.54026 0.809436 0
M  V30 22 O 4.5801 -1.68148 1.10852 0
M  V30 23 C 1.6451 -2.69834 2.17693 0
M  V30 24 C 0.7061 -2.6047 3.41253 0
M  V30 25 C -0.0609 -3.88 3.66458 0
M  V30 26 O 0.1621 -4.88693 2.94169 0
M  V30 27 O -0.9039 -3.88189 4.59992 0
M  V30 28 H 2.9221 -1.0839 2.83699 0
M  V30 29 H 0.5071 -0.471301 1.41771 0
M  V30 30 H 2.3891 -3.49017 2.36147 0
M  V30 31 H 1.0641 -2.97148 1.28392 0
M  V30 32 H -0.0289 -1.79663 3.28134 0
M  V30 33 H 1.3041 -2.38106 4.30774 0
M  V30 34 N 2.9562 -1.48159 -0.537278 0
M  V30 35 C 3.9192 -1.61665 -1.62472 0
M  V30 36 C 4.9192 -0.490395 -1.5314 0
M  V30 37 O 6.1092 -0.755998 -1.5694 0
M  V30 38 C 3.2412 -1.57997 -3.02076 0
M  V30 39 H 4.4342 -2.58621 -1.51839 0
M  V30 40 H 1.9872 -1.36647 -0.758771 0
M  V30 41 H 2.7222 -0.624913 -3.18222 0
M  V30 42 H 2.5072 -2.39755 -3.10258 0
M  V30 43 H 3.9972 -1.70627 -3.81151 0
M  V30 44 N 4.4343 0.785586 -1.36625 0
M  V30 45 C 5.3973 1.87999 -1.31107 0
M  V30 46 C 6.3973 1.59316 -0.217959 0
M  V30 47 O 7.5873 1.67656 -0.472977 0
M  V30 48 C 4.7193 3.24861 -1.03334 0
M  V30 49 H 5.9123 1.94307 -2.2844 0
M  V30 50 H 3.4653 0.983813 -1.21453 0
M  V30 51 H 4.2003 3.24235 -0.0647432 0
M  V30 52 H 3.9853 3.4707 -1.82441 0
M  V30 53 H 5.4753 4.04929 -1.02088 0
M  V30 54 N 5.9124 1.20967 1.01018 0
M  V30 55 C 6.8624 0.93182 2.08089 0
M  V30 56 C 7.8464 -0.110898 1.60517 0
M  V30 57 O 9.0384 0.0973392 1.76732 0
M  V30 58 C 6.1674 0.492719 3.39746 0
M  V30 59 C 5.2534 1.56922 3.94 0
M  V30 60 N 5.6444 2.79312 4.21686 0
M  V30 61 C 3.9424 1.43688 4.2222 0
M  V30 62 C 4.6434 3.48797 4.65527 0
M  V30 63 N 3.6194 2.76224 4.68189 0
M  V30 64 H 7.4214 1.86175 2.27412 0
M  V30 65 H 4.9354 1.10463 1.19045 0
M  V30 66 H 6.9324 0.275044 4.15992 0
M  V30 67 H 5.5924 -0.430509 3.21833 0
M  V30 68 H 6.6034 3.15903 4.10397 0
M  V30 69 H 3.2804 0.578548 4.13472 0
M  V30 70 H 4.6704 4.53561 4.95714 0
M  V30 71 N 7.3905 -1.2043 1.01659 0
M  V30 72 C 8.6375 -1.89797 0.705917 0
M  V30 73 C 8.9655 -1.78848 -0.764439 0
M  V30 74 O 8.2205 -1.16694 -1.57102 0
M  V30 75 C 8.5195 -3.40464 1.08714 0
M  V30 76 C 8.1855 -3.71614 2.5537 0
M  V30 77 C 6.8475 -3.79826 2.95441 0
M  V30 78 C 9.1995 -3.85915 3.50313 0
M  V30 79 C 6.5275 -3.99797 4.29394 0
M  V30 80 C 8.8795 -4.07396 4.83954 0
M  V30 81 C 7.5435 -4.13837 5.23732 0
M  V30 82 H 6.8135 -0.694518 0.258313 0
M  V30 83 H 9.4605 -1.42691 1.27717 0
M  V30 84 H 7.7655 -3.89385 0.434309 0
M  V30 85 H 9.4625 -3.92433 0.824461 0
M  V30 86 H 6.0525 -3.65822 2.23321 0
M  V30 87 H 10.2365 -3.78926 3.20513 0
M  V30 88 H 5.4925 -4.03018 4.59768 0
M  V30 89 H 9.6665 -4.17404 5.57447 0
M  V30 90 H 7.2935 -4.29064 6.27541 0
M  V30 91 N 8.8686 -0.792821 -1.36206 0
M  V30 92 C 10.1156 -0.366786 -1.99151 0
M  V30 93 C 10.4436 1.06243 -1.62919 0
M  V30 94 O 9.6986 1.74927 -0.877442 0
M  V30 95 C 9.9976 -0.481501 -3.54142 0
M  V30 96 C 9.6636 -1.87202 -4.10203 0
M  V30 97 C 8.3256 -2.25248 -4.25226 0
M  V30 98 C 10.6776 -2.78237 -4.40719 0
M  V30 99 C 8.0056 -3.53723 -4.68078 0
M  V30 100 C 10.3576 -4.06144 -4.85005 0
M  V30 101 C 9.0216 -4.44207 -4.98234 0
M  V30 102 H 8.2916 -0.134217 -0.728743 0
M  V30 103 H 10.9386 -1.01094 -1.62641 0
M  V30 104 H 9.2436 0.246146 -3.91026 0
M  V30 105 H 10.9406 -0.132844 -4.0078 0
M  V30 106 H 7.5306 -1.56639 -3.98951 0
M  V30 107 H 11.7146 -2.50097 -4.28679 0
M  V30 108 H 6.9706 -3.8308 -4.76508 0
M  V30 109 H 11.1446 -4.76796 -5.07581 0
M  V30 110 H 8.7716 -5.43814 -5.31197 0
M  V30 111 N 10.3467 1.47872 -0.545128 0
M  V30 112 C 11.2567 2.33633 0.212746 0
M  V30 113 C 12.2727 1.4744 0.923983 0
M  V30 114 O 13.4487 1.80393 0.895572 0
M  V30 115 C 10.5137 3.23884 1.23693 0
M  V30 116 C 9.5747 4.25961 0.534417 0
M  V30 117 C 8.8077 5.11899 1.5098 0
M  V30 118 O 9.0307 5.00077 2.7437 0
M  V30 119 O 7.9647 5.92831 1.0409 0
M  V30 120 H 11.7907 2.99714 -0.490416 0
M  V30 121 H 9.3757 1.46235 -0.305871 0
M  V30 122 H 11.2577 3.79666 1.82843 0
M  V30 123 H 9.9327 2.60446 1.92222 0
M  V30 124 H 8.8397 3.73972 -0.0979679 0
M  V30 125 H 10.1727 4.92079 -0.109213 0
M  V30 126 N 11.8248 0.280983 1.55075 0
M  V30 127 C 13.0728 -0.333455 1.9933 0
M  V30 128 C 13.3938 -1.55937 1.17085 0
M  V30 129 O 12.6638 -1.94143 0.261805 0
M  V30 130 H 11.2438 -0.126197 0.736263 0
M  V30 131 H 13.9058 0.387678 1.91005 0
M  V30 132 H 13.0018 -0.619292 3.05894 0
M  V30 133 N 13.3029 -1.57598 0.00835791 0
M  V30 134 C 14.5309 -1.95214 -0.68549 0
M  V30 135 C 14.9459 -0.883706 -1.66841 0
M  V30 136 O 14.3029 0.136565 -1.81988 0
M  V30 137 C 14.3539 -3.32865 -1.41007 0
M  V30 138 O 14.0749 -4.35609 -0.466552 0
M  V30 139 C 15.5759 -3.84991 -2.19765 0
M  V30 140 H 12.7959 -0.643422 -0.190392 0
M  V30 141 H 15.3399 -2.04406 0.0619607 0
M  V30 142 H 13.4949 -3.24956 -2.10908 0
M  V30 143 H 13.9089 -5.15288 -0.978699 0
M  V30 144 H 15.3829 -4.8371 -2.65948 0
M  V30 145 H 15.8599 -3.18137 -3.02796 0
M  V30 146 H 16.4659 -3.96103 -1.54864 0
M  V30 147 N 14.781 0.264519 -1.55364 0
M  V30 148 C 15.691 1.34902 -1.91934 0
M  V30 149 C 16.707 1.53595 -0.817593 0
M  V30 150 O 17.883 1.67558 -1.11742 0
M  V30 151 C 14.948 2.68676 -2.19121 0
M  V30 152 C 14.009 2.58657 -3.4263 0
M  V30 153 C 13.242 3.86051 -3.68511 0
M  V30 154 O 13.465 4.87126 -2.96757 0
M  V30 155 O 12.399 3.85744 -4.62045 0
M  V30 156 H 16.225 1.06883 -2.8427 0
M  V30 157 H 13.81 0.463775 -1.42019 0
M  V30 158 H 15.692 3.47759 -2.37995 0
M  V30 159 H 14.367 2.96463 -1.29966 0
M  V30 160 H 13.274 1.7792 -3.29082 0
M  V30 161 H 14.607 2.35818 -4.32031 0
M  V30 162 N 16.2591 1.48442 0.529413 0
M  V30 163 C 17.2061 1.63007 1.63394 0
M  V30 164 C 18.1761 0.47212 1.59249 0
M  V30 165 O 19.3611 0.695673 1.77666 0
M  V30 166 C 16.5011 1.6763 3.01653 0
M  V30 167 C 15.6141 2.94535 3.16027 0
M  V30 168 C 14.7491 2.90316 4.44849 0
M  V30 169 C 13.7881 4.11923 4.52754 0
M  V30 170 N 12.9251 4.05777 5.72965 0
M  V30 171 H 17.7651 2.5733 1.50285 0
M  V30 172 H 15.3021 1.27613 0.731656 0
M  V30 173 H 17.2601 1.68292 3.81751 0
M  V30 174 H 15.8901 0.76797 3.13532 0
M  V30 175 H 14.9421 3.03615 2.29177 0
M  V30 176 H 16.2541 3.84512 3.17729 0
M  V30 177 H 15.4081 2.89382 5.33238 0
M  V30 178 H 14.1471 1.98068 4.45668 0
M  V30 179 H 13.1521 4.13131 3.62771 0
M  V30 180 H 14.3771 5.0533 4.53672 0
M  V30 181 H 12.3231 3.16351 5.74681 0
M  V30 182 H 12.2401 4.8946 5.76164 0
M  V30 183 H 13.5081 4.08904 6.6364 0
M  V30 184 N 17.7372 -0.778329 1.37039 0
M  V30 185 C 18.6672 -1.90546 1.34962 0
M  V30 186 C 19.6482 -1.68681 0.219274 0
M  V30 187 O 20.8332 -1.89634 0.418624 0
M  V30 188 C 17.9632 -3.27734 1.14925 0
M  V30 189 C 16.9172 -3.64147 2.24902 0
M  V30 190 C 16.2432 -4.99806 1.89996 0
M  V30 191 C 17.5432 -3.71579 3.67051 0
M  V30 192 H 19.2372 -1.92541 2.29277 0
M  V30 193 H 16.7832 -0.924948 1.10366 0
M  V30 194 H 18.7362 -4.06215 1.12104 0
M  V30 195 H 17.4602 -3.26154 0.170631 0
M  V30 196 H 16.1192 -2.8797 2.26868 0
M  V30 197 H 15.7672 -4.94759 0.906796 0
M  V30 198 H 15.4672 -5.25139 2.63634 0
M  V30 199 H 16.9912 -5.80694 1.88749 0
M  V30 200 H 18.4052 -4.40227 3.67251 0
M  V30 201 H 16.8022 -4.08405 4.39688 0
M  V30 202 H 17.8722 -2.72404 4.01154 0
M  V30 203 N 19.2153 -1.21501 -1.00376 0
M  V30 204 C 20.1453 -0.999478 -2.11028 0
M  V30 205 C 21.1263 0.0759671 -1.6993 0
M  V30 206 O 22.3113 -0.0841106 -1.94018 0
M  V30 207 C 19.4413 -0.564709 -3.42678 0
M  V30 208 C 18.3953 -1.58486 -3.97576 0
M  V30 209 C 17.7213 -1.00628 -5.25146 0
M  V30 210 C 19.0213 -2.97204 -4.29496 0
M  V30 211 H 20.7153 -1.92495 -2.29317 0
M  V30 212 H 18.2613 -0.92693 -1.102 0
M  V30 213 H 20.2143 -0.401091 -4.19487 0
M  V30 214 H 18.9383 0.396411 -3.24185 0
M  V30 215 H 17.5973 -1.73606 -3.22888 0
M  V30 216 H 17.2453 -0.0368439 -5.02987 0
M  V30 217 H 16.9453 -1.68771 -5.62841 0
M  V30 218 H 18.4693 -0.854015 -6.04598 0
M  V30 219 H 19.8833 -2.8552 -4.97143 0
M  V30 220 H 18.2803 -3.62372 -4.78338 0
M  V30 221 H 19.3503 -3.47956 -3.3772 0
M  V30 222 N 20.6934 1.19889 -1.02296 0
M  V30 223 C 21.6034 2.26571 -0.608508 0
M  V30 224 C 22.6194 1.70299 0.356964 0
M  V30 225 O 23.7954 2.00235 0.216326 0
M  V30 226 C 20.8604 3.46677 0.0402814 0
M  V30 227 C 19.9214 4.18153 -0.97194 0
M  V30 228 C 19.1544 5.32525 -0.354016 0
M  V30 229 O 19.3774 5.64112 0.844604 0
M  V30 230 O 18.3114 5.92242 -1.07391 0
M  V30 231 H 22.1374 2.64251 -1.49684 0
M  V30 232 H 19.7224 1.26629 -0.792809 0
M  V30 233 H 21.6044 4.19475 0.402324 0
M  V30 234 H 20.2794 3.10858 0.902707 0
M  V30 235 H 19.1864 3.47499 -1.38546 0
M  V30 236 H 20.5194 4.57927 -1.80454 0
M  V30 237 N 22.1715 0.800033 1.35784 0
M  V30 238 C 23.4175 0.377901 1.99248 0
M  V30 239 C 23.7505 -1.05052 1.63333 0
M  V30 240 O 23.0255 -1.72768 0.893385 0
M  V30 241 C 23.3085 0.553922 3.55814 0
M  V30 242 C 23.1615 2.0268 4.01548 0
M  V30 243 C 24.4805 -0.0244802 4.40093 0
M  V30 244 H 21.5995 0.138782 0.723815 0
M  V30 245 H 24.2415 1.00835 1.61035 0
M  V30 246 H 22.3915 0.0172398 3.88496 0
M  V30 247 H 24.0635 2.62536 3.79305 0
M  V30 248 H 22.3065 2.5256 3.52698 0
M  V30 249 H 22.9775 2.10087 5.10458 0
M  V30 250 H 25.4535 0.433775 4.13833 0
M  V30 251 H 24.3295 0.128637 5.48749 0
M  V30 252 H 24.5905 -1.11758 4.27741 0
M  V30 253 N 23.6496 -1.47581 0.552962 0
M  V30 254 C 24.8956 -2.03369 0.0355807 0
M  V30 255 C 25.2506 -1.42016 -1.29805 0
M  V30 256 O 24.5436 -0.564917 -1.83083 0
M  V30 257 C 24.7376 -3.57199 -0.119728 0
M  V30 258 C 24.5666 -4.33468 1.1973 0
M  V30 259 C 23.3366 -4.7353 1.76345 0
M  V30 260 C 25.5346 -4.68866 2.11351 0
M  V30 261 N 23.5166 -5.34426 3.02097 0
M  V30 262 C 24.8876 -5.3002 3.21681 0
M  V30 263 C 26.9426 -4.50795 2.11397 0
M  V30 264 C 25.6456 -5.75011 4.32151 0
M  V30 265 C 27.6716 -4.96782 3.20876 0
M  V30 266 C 27.0336 -5.57981 4.29926 0
M  V30 267 H 23.1326 -0.780058 0.0550806 0
M  V30 268 H 25.7166 -1.80117 0.739315 0
M  V30 269 H 23.8876 -3.80227 -0.792579 0
M  V30 270 H 25.6196 -3.99627 -0.638792 0
M  V30 271 H 22.3746 -4.55352 1.30196 0
M  V30 272 H 22.7986 -5.69421 3.66182 0
M  V30 273 H 27.4406 -4.0284 1.28372 0
M  V30 274 H 25.1586 -6.21959 5.15938 0
M  V30 275 H 28.7446 -4.84573 3.21994 0
M  V30 276 H 27.6246 -5.92918 5.13243 0
M  V30 277 N 25.1277 -0.289203 -1.54924 0
M  V30 278 C 26.3747 0.323519 -1.99899 0
M  V30 279 C 26.7027 1.54797 -1.17762 0
M  V30 280 O 25.9577 1.94237 -0.238835 0
M  V30 281 C 26.2567 0.736119 -3.49737 0
M  V30 282 C 25.9227 -0.385276 -4.49251 0
M  V30 283 C 24.5847 -0.693156 -4.76181 0
M  V30 284 C 26.9367 -1.14021 -5.08575 0
M  V30 285 C 24.2647 -1.7593 -5.59701 0
M  V30 286 C 26.6167 -2.19619 -5.93254 0
M  V30 287 C 25.2807 -2.51026 -6.185 0
M  V30 288 H 24.5507 0.118384 -0.731482 0
M  V30 289 H 27.1977 -0.405847 -1.8715 0
M  V30 290 H 25.5027 1.54539 -3.60035 0
M  V30 291 H 27.1997 1.22118 -3.81953 0
M  V30 292 H 23.7897 -0.135202 -4.28387 0
M  V30 293 H 27.9737 -0.915611 -4.87781 0
M  V30 294 H 23.2297 -2.0075 -5.77503 0
M  V30 295 H 27.4037 -2.78581 -6.38252 0
M  V30 296 H 25.0307 -3.33772 -6.83008 0
M  V30 297 N 26.6058 1.57591 -0.0167156 0
M  V30 298 C 27.8308 1.9598 0.67872 0
M  V30 299 C 28.2558 0.892546 1.65575 0
M  V30 300 O 27.6138 -0.147772 1.80697 0
M  V30 301 C 27.6618 3.33468 1.37227 0
M  V30 302 O 26.7658 3.28954 2.48722 0
M  V30 303 H 26.1068 0.639339 0.17928 0
M  V30 304 H 28.6368 2.04463 -0.0748802 0
M  V30 305 H 28.6468 3.69417 1.7319 0
M  V30 306 H 27.3218 4.10694 0.656007 0
M  V30 307 H 25.8988 3.04705 2.14963 0
M  V30 308 N 28.0839 -0.256276 1.55502 0
M  V30 309 C 29.4999 -0.604325 1.47716 0
M  V30 310 C 29.6999 -1.88763 0.705039 0
M  V30 311 O 28.7559 -2.51445 0.230613 0
M  V30 312 C 30.0689 -0.715756 2.92057 0
M  V30 313 C 31.6169 -0.808706 3.02372 0
M  V30 314 C 32.0919 -0.951777 4.48001 0
M  V30 315 N 33.5829 -1.01688 4.519 0
M  V30 316 C 34.3179 -1.14668 5.61817 0
M  V30 317 N 33.8139 -1.24261 6.81565 0
M  V30 318 N 35.6069 -1.1791 5.49594 0
M  V30 319 H 27.7579 0.586291 2.04148 0
M  V30 320 H 30.0209 0.201015 0.926443 0
M  V30 321 H 29.7269 0.157027 3.51349 0
M  V30 322 H 29.6009 -1.59071 3.42018 0
M  V30 323 H 31.9879 -1.67195 2.43166 0
M  V30 324 H 32.0689 0.0912063 2.55637 0
M  V30 325 H 31.7129 -0.0931291 5.07815 0
M  V30 326 H 31.6429 -1.86659 4.92408 0
M  V30 327 H 34.1339 -0.954468 3.65648 0
M  V30 328 H 34.4469 -1.34046 7.61086 0
M  V30 329 H 32.7919 -1.21236 6.84344 0
M  V30 330 H 35.9829 -1.10057 4.54978 0
M  V30 331 H 36.1559 -1.27681 6.35296 0
M  V30 332 N 29.562 -1.4872 -0.521534 0
M  V30 333 C 30.494 -1.59968 -1.64143 0
M  V30 334 C 31.507 -0.483463 -1.55456 0
M  V30 335 O 32.696 -0.75467 -1.61762 0
M  V30 336 C 29.796 -1.52127 -3.02838 0
M  V30 337 C 28.969 -2.78932 -3.36921 0
M  V30 338 C 28.028 -2.64428 -4.54933 0
M  V30 339 O 27.054 -3.38331 -4.57735 0
M  V30 340 N 28.256 -1.74606 -5.53618 0
M  V30 341 H 31.021 -2.56548 -1.54929 0
M  V30 342 H 28.582 -1.45551 -0.708988 0
M  V30 343 H 30.574 -1.40106 -3.79674 0
M  V30 344 H 29.144 -0.634868 -3.06085 0
M  V30 345 H 28.364 -3.05455 -2.4918 0
M  V30 346 H 29.652 -3.63041 -3.56481 0
M  V30 347 H 29.05 -1.13782 -5.54139 0
M  V30 348 H 27.607 -1.6852 -6.29638 0
M  V30 349 N 31.0401 0.771051 -1.3745 0
M  V30 350 C 31.9721 1.89352 -1.29146 0
M  V30 351 C 32.9851 1.61477 -0.207124 0
M  V30 352 O 34.1741 1.72382 -0.463324 0
M  V30 353 C 31.2741 3.24596 -0.974195 0
M  V30 354 C 30.4471 3.80111 -2.16413 0
M  V30 355 C 29.5061 4.93832 -1.81703 0
M  V30 356 O 28.5321 5.09382 -2.54006 0
M  V30 357 N 29.7341 5.75483 -0.761573 0
M  V30 358 H 32.4991 1.96991 -2.25864 0
M  V30 359 H 30.0601 0.950191 -1.31084 0
M  V30 360 H 32.0521 3.98193 -0.722828 0
M  V30 361 H 30.6221 3.12454 -0.0955527 0
M  V30 362 H 29.8421 2.98284 -2.57721 0
M  V30 363 H 31.1301 4.13932 -2.95867 0
M  V30 364 H 30.5281 5.65469 -0.161609 0
M  V30 365 H 29.0851 6.49302 -0.570064 0
M  V30 366 N 32.5182 1.22032 0.997298 0
M  V30 367 C 33.9292 1.0397 1.55071 0
M  V30 368 C 34.2802 -0.398192 1.92117 0
M  V30 369 O 33.4052 -1.28254 1.74298 0
M  V30 370 C 34.0002 1.88109 2.81781 0
M  V30 371 C 32.5592 1.74357 3.33581 0
M  V30 372 C 31.7062 1.84846 2.06706 0
M  V30 373 H 34.6572 1.35941 0.818883 0
M  V30 374 H 34.6782 1.39589 3.53971 0
M  V30 375 H 34.1902 2.92754 2.54787 0
M  V30 376 H 32.2912 0.72427 3.65493 0
M  V30 377 H 32.4042 2.56772 4.04481 0
M  V30 378 H 30.7682 1.28238 2.20062 0
M  V30 379 H 31.5512 2.91014 1.82114 0
M  V30 380 N 33.9963 -1.19345 1.0293 0
M  V30 381 C 35.2733 -1.84811 0.640642 0
M  V30 382 C 35.6533 -1.91855 -0.88062 0
M  V30 383 O 35.0013 -1.43587 -1.7775 0
M  V30 384 C 35.2113 -3.23755 1.30321 0
M  V30 385 C 36.5593 -3.99912 1.42673 0
M  V30 386 O 37.5833 -3.33155 1.26041 0
M  V30 387 O 36.4423 -5.19494 1.6967 0
M  V30 388 H 33.5363 -0.796443 0.222726 0
M  V30 389 H 36.0823 -1.26831 1.12748 0
M  V30 390 H 34.8543 -3.13466 2.34211 0
M  V30 391 H 34.4773 -3.89381 0.804261 0
M  V30 392 N 35.4744 -0.807222 -1.35358 0
M  V30 393 C 36.4374 -0.223665 -2.28106 0
M  V30 394 C 37.4374 0.589354 -1.4961 0
M  V30 395 O 38.6274 0.407745 -1.69361 0
M  V30 396 C 35.7594 0.688149 -3.33882 0
M  V30 397 H 36.9524 -1.04169 -2.81227 0
M  V30 398 H 34.5054 -0.577921 -1.45223 0
M  V30 399 H 35.2404 1.52984 -2.85948 0
M  V30 400 H 35.0254 0.10687 -3.91954 0
M  V30 401 H 36.5154 1.09075 -4.03104 0
M  V30 402 N 36.9525 1.47285 -0.560781 0
M  V30 403 C 37.9005 2.31756 0.197942 0
M  V30 404 C 38.8945 1.43146 0.905854 0
M  V30 405 O 40.1005 1.59891 0.826733 0
M  V30 406 H 36.4755 0.747438 0.0827049 0
M  V30 407 H 38.4465 2.9359 -0.533629 0
M  V30 408 C 37.1955 3.25874 1.21249 0
M  V30 409 H 36.5185 3.94023 0.67719 0
M  V30 410 H 37.9585 3.87803 1.71419 0
M  V30 411 C 36.4175 2.49651 2.26221 0
M  V30 412 O 36.9475 2.24355 3.33208 0
M  V30 413 N 35.1535 2.10597 2.00243 0
M  V30 414 H 34.7005 2.31369 1.13252 0
M  V30 415 H 34.6585 1.59913 2.70694 0
M  V30 416 N 38.4306 0.297415 1.54768 0
M  V30 417 C 39.3626 -0.613881 2.20826 0
M  V30 418 C 40.3756 -1.10032 1.19987 0
M  V30 419 O 41.5646 -1.01839 1.46598 0
M  V30 420 C 38.6646 -1.852 2.83821 0
M  V30 421 C 37.8376 -1.50865 4.10559 0
M  V30 422 C 36.8966 -2.60154 4.57391 0
M  V30 423 O 35.9226 -2.25398 5.2267 0
M  V30 424 N 37.1246 -3.90629 4.29406 0
M  V30 425 H 39.8896 -0.048389 2.99661 0
M  V30 426 H 37.4506 0.11946 1.61459 0
M  V30 427 H 39.4426 -2.57652 3.12086 0
M  V30 428 H 38.0126 -2.32597 2.08847 0
M  V30 429 H 37.2326 -0.616925 3.89343 0
M  V30 430 H 38.5206 -1.25458 4.9309 0
M  V30 431 H 37.9186 -4.21677 3.77101 0
M  V30 432 H 36.4756 -4.59391 4.62388 0
M  V30 433 N 39.9087 -1.5758 0.0250728 0
M  V30 434 C 41.1567 -1.91255 -0.653151 0
M  V30 435 C 41.4777 -0.901691 -1.729 0
M  V30 436 O 40.7477 0.0573785 -1.95816 0
M  V30 437 H 39.3277 -0.705942 -0.244243 0
M  V30 438 H 41.9897 -1.94767 0.0719209 0
M  V30 439 H 41.0857 -2.91752 -1.10847 0
M  V30 440 N 41.3868 0.248026 -1.55636 0
M  V30 441 C 42.6118 0.998028 -1.81808 0
M  V30 442 C 43.0368 1.78207 -0.601979 0
M  V30 443 O 42.3948 1.75653 0.448961 0
M  V30 444 C 42.4428 1.9125 -3.05705 0
M  V30 445 O 41.5468 3.00406 -2.82542 0
M  V30 446 H 40.8878 0.284045 -0.600179 0
M  V30 447 H 43.4178 0.269357 -2.02819 0
M  V30 448 H 43.4278 2.32737 -3.35108 0
M  V30 449 H 42.1028 1.33602 -3.93857 0
M  V30 450 H 40.6798 2.63056 -2.64303 0
M  V30 451 N 42.8649 1.48995 0.513639 0
M  V30 452 C 44.1129 1.57531 1.26604 0
M  V30 453 C 44.4339 0.258236 1.93283 0
M  V30 454 O 43.7039 -0.721502 1.8213 0
M  V30 455 H 42.2839 0.580387 0.470276 0
M  V30 456 H 44.9459 1.85552 0.596373 0
M  V30 457 H 44.0419 2.36486 2.03669 0
M  V30 458 N 44.343 -0.763751 1.37857 0
M  V30 459 C 45.62 -1.51244 1.24035 0
M  V30 460 C 46 -2.10472 -0.162649 0
M  V30 461 O 45.348 -1.96206 -1.17112 0
M  V30 462 C 45.558 -2.58694 2.34261 0
M  V30 463 C 46.906 -3.25878 2.72193 0
M  V30 464 O 47.93 -2.68993 2.33497 0
M  V30 465 O 46.789 -4.2874 3.38887 0
M  V30 466 H 43.883 -0.670243 0.484462 0
M  V30 467 H 46.429 -0.800031 1.49658 0
M  V30 468 H 45.201 -2.13105 3.2818 0
M  V30 469 H 44.824 -3.37527 2.10146 0
M  V30 470 N 45.8211 -1.22559 -0.990812 0
M  V30 471 C 46.7511 -1.0218 -2.09956 0
M  V30 472 C 47.7321 0.0579394 -1.70001 0
M  V30 473 O 48.9171 -0.104684 -1.93918 0
M  V30 474 C 46.0471 -0.601023 -3.4206 0
M  V30 475 C 45.0011 -1.62694 -3.95872 0
M  V30 476 C 44.3271 -1.06193 -5.24049 0
M  V30 477 C 45.6271 -3.01743 -4.2632 0
M  V30 478 H 47.3211 -1.94916 -2.27262 0
M  V30 479 H 44.8671 -0.938566 -1.09211 0
M  V30 480 H 46.8201 -0.445561 -4.19038 0
M  V30 481 H 45.5441 0.362005 -3.24588 0
M  V30 482 H 44.2031 -1.77021 -3.21028 0
M  V30 483 H 43.8511 -0.0901903 -5.02919 0
M  V30 484 H 43.5511 -1.74732 -5.61019 0
M  V30 485 H 45.0751 -0.918092 -6.03658 0
M  V30 486 H 46.4891 -2.90777 -4.94087 0
M  V30 487 H 44.8861 -3.67425 -4.74467 0
M  V30 488 H 45.9561 -3.51518 -3.34011 0
M  V30 489 N 47.2992 1.18797 -1.03562 0
M  V30 490 C 48.7152 1.40671 -0.753917 0
M  V30 491 C 48.9152 1.9043 0.658686 0
M  V30 492 O 47.9712 2.08538 1.42366 0
M  V30 493 C 49.2842 2.41192 -1.79574 0
M  V30 494 C 50.8322 2.54928 -1.81606 0
M  V30 495 C 51.3072 3.58709 -2.84766 0
M  V30 496 N 52.7982 3.66212 -2.83625 0
M  V30 497 C 53.5332 4.46225 -3.60098 0
M  V30 498 N 53.0292 5.29888 -4.46308 0
M  V30 499 N 54.8222 4.40939 -3.4861 0
M  V30 500 H 46.9732 0.848221 -1.94728 0
M  V30 501 H 49.2362 0.435081 -0.842264 0
M  V30 502 H 48.9422 2.11669 -2.80872 0
M  V30 503 H 48.8162 3.40467 -1.62365 0
M  V30 504 H 51.2032 2.83771 -0.809817 0
M  V30 505 H 51.2842 1.55784 -2.02891 0
M  V30 506 H 50.9282 3.30607 -3.85566 0
M  V30 507 H 50.8582 4.57519 -2.60737 0
M  V30 508 H 53.3492 3.06466 -2.21105 0
M  V30 509 H 53.6622 5.88078 -5.01382 0
M  V30 510 H 52.0072 5.29326 -4.50377 0
M  V30 511 H 55.1982 3.74624 -2.80668 0
M  V30 512 H 55.3712 5.03056 -4.08459 0
M  V30 513 N 48.7773 0.814389 1.34928 0
M  V30 514 C 50.0053 0.411136 2.02774 0
M  V30 515 C 50.4203 -0.980316 1.61354 0
M  V30 516 O 49.7773 -1.63299 0.814847 0
M  V30 517 C 49.8283 0.493865 3.58111 0
M  V30 518 O 49.5493 1.83047 3.98027 0
M  V30 519 C 51.0503 0.0844174 4.4322 0
M  V30 520 H 48.2703 0.166037 0.650133 0
M  V30 521 H 50.8143 1.10018 1.72384 0
M  V30 522 H 48.9693 -0.147006 3.87121 0
M  V30 523 H 49.3833 1.79872 4.92693 0
M  V30 524 H 50.8573 0.193404 5.51661 0
M  V30 525 H 51.3343 -0.97113 4.28329 0
M  V30 526 H 51.9403 0.69875 4.19521 0
M  V30 527 N 50.2554 -1.46986 0.568584 0
M  V30 528 C 51.5044 -2.01646 0.0465894 0
M  V30 529 C 51.8174 -1.44721 -1.31587 0
M  V30 530 O 53.0234 -1.91113 -1.92842 0
M  V30 531 C 51.4794 -3.59885 0.032752 0
M  V30 532 C 51.0874 -4.25804 1.39266 0
M  V30 533 C 52.8314 -4.22255 -0.436038 0
M  V30 534 C 50.7384 -5.76081 1.33732 0
M  V30 535 H 49.6684 -0.753876 0.013647 0
M  V30 536 H 52.3194 -1.68864 0.718131 0
M  V30 537 H 50.7014 -3.8968 -0.704669 0
M  V30 538 H 51.8754 -4.07637 2.1487 0
M  V30 539 H 50.1904 -3.7547 1.80032 0
M  V30 540 H 52.7874 -5.32394 -0.49602 0
M  V30 541 H 53.1304 -3.90212 -1.45053 0
M  V30 542 H 53.6634 -3.97033 0.246877 0
M  V30 543 H 50.4024 -6.12761 2.32817 0
M  V30 544 H 49.9224 -5.96553 0.623267 0
M  V30 545 H 51.6014 -6.38518 1.0442 0
M  V30 546 N 51.7335 -0.305618 -1.54608 0
M  V30 547 C 53.1445 0.186098 -1.8577 0
M  V30 548 C 53.4955 1.53058 -1.22751 0
M  V30 549 O 52.6205 2.09888 -0.526893 0
M  V30 550 C 53.2155 0.344449 -3.37044 0
M  V30 551 C 51.7745 0.780384 -3.68221 0
M  V30 552 C 50.9215 -0.108554 -2.77087 0
M  V30 553 H 53.8725 -0.526485 -1.49712 0
M  V30 554 H 53.8935 1.17828 -3.61796 0
M  V30 555 H 53.4055 -0.634235 -3.82883 0
M  V30 556 H 51.5065 1.76945 -3.27904 0
M  V30 557 H 51.6195 0.596572 -4.75371 0
M  V30 558 H 49.9835 0.412931 -2.5133 0
M  V30 559 H 50.7665 -1.08368 -3.25747 0
M  V30 560 N 53.2116 1.57565 -0.0334293 0
M  V30 561 C 54.6276 1.56297 0.322997 0
M  V30 562 C 54.8276 1.03945 1.7262 0
M  V30 563 O 53.8836 0.688109 2.42943 0
M  V30 564 C 55.1966 3.00232 0.167664 0
M  V30 565 C 56.7446 3.12078 0.240107 0
M  V30 566 C 57.2196 4.57859 0.113513 0
M  V30 567 N 58.7106 4.62887 0.170359 0
M  V30 568 C 59.4456 5.73319 0.0962517 0
M  V30 569 N 58.9416 6.92794 -0.0291881 0
M  V30 570 N 60.7346 5.61898 0.150551 0
M  V30 571 H 52.8856 1.89923 -0.950956 0
M  V30 572 H 55.1486 0.873824 -0.367608 0
M  V30 573 H 54.8546 3.42501 -0.799102 0
M  V30 574 H 54.7286 3.654 0.936083 0
M  V30 575 H 57.1156 2.69718 1.19733 0
M  V30 576 H 57.1966 2.49623 -0.558763 0
M  V30 577 H 56.8406 5.009 -0.840314 0
M  V30 578 H 56.7706 5.18299 0.931302 0
M  V30 579 H 59.2616 3.76954 0.26728 0
M  V30 580 H 59.5746 7.7276 -0.0789252 0
M  V30 581 H 57.9196 6.94971 -0.0640299 0
M  V30 582 H 61.1106 4.67448 0.246981 0
M  V30 583 H 61.2836 6.47938 0.0893365 0
M  V30 584 N 54.6897 -0.239769 1.55765 0
M  V30 585 C 55.9147 -0.988373 1.82335 0
M  V30 586 C 56.3397 -1.77886 0.611421 0
M  V30 587 O 55.6977 -1.75889 -0.439639 0
M  V30 588 C 55.7457 -1.89627 3.06715 0
M  V30 589 O 54.8497 -2.98904 2.84131 0
M  V30 590 H 54.1907 -0.280858 0.601677 0
M  V30 591 H 56.7207 -0.258597 2.02959 0
M  V30 592 H 56.7307 -2.30957 3.36338 0
M  V30 593 H 55.4057 -1.31511 3.9456 0
M  V30 594 H 53.9827 -2.61651 2.65694 0
M  V30 595 N 56.1678 -1.49265 -0.50573 0
M  V30 596 C 57.0778 -1.68312 -1.63427 0
M  V30 597 C 58.0938 -0.565682 -1.64548 0
M  V30 598 O 59.2698 -0.839801 -1.83055 0
M  V30 599 C 56.3348 -1.74107 -2.99813 0
M  V30 600 C 55.3958 -2.97653 -3.09356 0
M  V30 601 C 54.6288 -3.03163 -4.39236 0
M  V30 602 O 54.8518 -2.16396 -5.27758 0
M  V30 603 O 53.7858 -3.9558 -4.53652 0
M  V30 604 H 57.6118 -2.63907 -1.50289 0
M  V30 605 H 55.1968 -1.32951 -0.681502 0
M  V30 606 H 57.0788 -1.803 -3.80881 0
M  V30 607 H 55.7538 -0.816901 -3.13223 0
M  V30 608 H 54.6608 -2.96981 -2.27493 0
M  V30 609 H 55.9938 -3.89535 -3.00871 0
M  V30 610 N 57.6459 0.756429 -1.3826 0
M  V30 611 C 58.8919 1.5168 -1.35517 0
M  V30 612 C 59.2469 1.9232 0.0554451 0
M  V30 613 O 58.5399 1.62352 1.01746 0
M  V30 614 C 58.7339 2.78313 -2.24224 0
M  V30 615 C 58.5629 2.50053 -3.7377 0
M  V30 616 C 57.3329 2.43414 -4.42807 0
M  V30 617 C 59.5309 2.1702 -4.66269 0
M  V30 618 N 57.5129 2.07398 -5.77805 0
M  V30 619 C 58.8839 1.91271 -5.89759 0
M  V30 620 C 60.9389 2.03305 -4.54501 0
M  V30 621 C 59.6419 1.53192 -7.02798 0
M  V30 622 C 61.6679 1.66627 -5.67441 0
M  V30 623 C 61.0299 1.4175 -6.8999 0
M  V30 624 H 57.1289 0.554735 -0.551174 0
M  V30 625 H 59.7129 0.881106 -1.73622 0
M  V30 626 H 57.8839 3.39696 -1.88311 0
M  V30 627 H 59.6159 3.44343 -2.12627 0
M  V30 628 H 56.3709 2.59789 -3.95988 0
M  V30 629 H 56.7949 1.92044 -6.4919 0
M  V30 630 H 61.4369 2.21215 -3.60311 0
M  V30 631 H 59.1549 1.34022 -7.96909 0
M  V30 632 H 62.7409 1.56652 -5.60314 0
M  V30 633 H 61.6209 1.1379 -7.759 0
M  V30 634 N 59.124 1.23083 0.984299 0
M  V30 635 C 60.401 0.9689 1.69917 0
M  V30 636 C 60.781 -0.513604 2.04757 0
M  V30 637 O 60.129 -1.48383 1.73767 0
M  V30 638 C 60.339 1.87518 2.94343 0
M  V30 639 C 61.687 2.13636 3.6694 0
M  V30 640 O 62.711 1.85036 3.04368 0
M  V30 641 O 61.57 2.62119 4.79537 0
M  V30 642 H 58.664 0.365095 0.742048 0
M  V30 643 H 61.21 1.34107 1.03987 0
M  V30 644 H 59.982 2.87756 2.65164 0
M  V30 645 H 59.605 1.50514 3.6801 0
M  V30 646 N 60.6021 -1.18246 1.0419 0
M  V30 647 C 61.8511 -1.87588 0.741194 0
M  V30 648 C 62.1641 -1.81303 -0.734066 0
M  V30 649 O 63.3701 -2.46019 -1.14834 0
M  V30 650 C 61.8261 -3.36538 1.27555 0
M  V30 651 C 61.4341 -3.51349 2.77953 0
M  V30 652 C 63.1781 -4.11273 1.05143 0
M  V30 653 C 61.0851 -4.94265 3.2474 0
M  V30 654 H 60.0151 -0.702622 0.273565 0
M  V30 655 H 62.6661 -1.33601 1.25789 0
M  V30 656 H 61.0481 -3.9 0.686703 0
M  V30 657 H 62.2221 -3.08153 3.42605 0
M  V30 658 H 60.5371 -2.90022 2.98791 0
M  V30 659 H 63.1341 -5.16689 1.37611 0
M  V30 660 H 63.4771 -4.16298 -0.0112774 0
M  V30 661 H 64.0101 -3.63987 1.60495 0
M  V30 662 H 60.7491 -4.94408 4.30396 0
M  V30 663 H 60.2691 -5.38172 2.64823 0
M  V30 664 H 61.9481 -5.62987 3.18834 0
M  V30 665 N 62.0802 -0.821533 -1.34494 0
M  V30 666 C 63.0102 -0.257138 -2.3208 0
M  V30 667 C 63.9912 0.625645 -1.58176 0
M  V30 668 O 65.1762 0.552811 -1.86166 0
M  V30 669 C 62.3062 0.582958 -3.42372 0
M  V30 670 C 61.2602 -0.202571 -4.2752 0
M  V30 671 C 60.5862 0.760179 -5.29269 0
M  V30 672 C 61.8862 -1.40998 -5.02908 0
M  V30 673 H 63.5802 -1.07247 -2.79532 0
M  V30 674 H 61.1262 -0.517163 -1.34393 0
M  V30 675 H 63.0792 0.987972 -4.09655 0
M  V30 676 H 61.8032 1.43133 -2.93565 0
M  V30 677 H 60.4622 -0.588936 -3.61838 0
M  V30 678 H 60.1102 1.60447 -4.76724 0
M  V30 679 H 59.8102 0.238809 -5.87115 0
M  V30 680 H 61.3342 1.16308 -5.9942 0
M  V30 681 H 62.7482 -1.07905 -5.63054 0
M  V30 682 H 61.1452 -1.86689 -5.70322 0
M  V30 683 H 62.2152 -2.1889 -4.32684 0
M  V30 684 N 63.5583 1.46682 -0.576371 0
M  V30 685 C 64.4883 2.33028 0.148397 0
M  V30 686 C 65.4693 1.44961 0.889956 0
M  V30 687 O 66.6543 1.73789 0.866662 0
M  V30 688 C 63.7843 3.27117 1.1667 0
M  V30 689 C 62.7383 4.24575 0.540386 0
M  V30 690 C 62.0643 5.08126 1.6647 0
M  V30 691 C 63.3643 5.19722 -0.518331 0
M  V30 692 H 65.0583 2.93875 -0.572509 0
M  V30 693 H 62.6043 1.41315 -0.276768 0
M  V30 694 H 64.5573 3.86374 1.68204 0
M  V30 695 H 63.2813 2.64364 1.9178 0
M  V30 696 H 61.9403 3.66571 0.0461769 0
M  V30 697 H 61.5883 4.41762 2.40531 0
M  V30 698 H 61.2883 5.74122 1.25131 0
M  V30 699 H 62.8123 5.70246 2.18293 0
M  V30 700 H 64.2263 5.73232 -0.0883058 0
M  V30 701 H 62.6233 5.94026 -0.851679 0
M  V30 702 H 63.6933 4.64037 -1.40703 0
M  V30 703 N 65.0364 0.313813 1.54444 0
M  V30 704 C 65.9834 -0.55655 2.23989 0
M  V30 705 C 66.9534 -1.11943 1.22711 0
M  V30 706 O 68.1384 -1.16158 1.51367 0
M  V30 707 C 65.2784 -1.71635 2.99392 0
M  V30 708 C 64.3914 -1.18364 4.15468 0
M  V30 709 C 63.5264 -2.30834 4.78424 0
M  V30 710 C 62.5654 -1.74762 5.86622 0
M  V30 711 N 61.7024 -2.80855 6.43479 0
M  V30 712 H 66.5424 0.0430893 2.97969 0
M  V30 713 H 64.0794 0.0330359 1.47063 0
M  V30 714 H 66.0374 -2.39868 3.41349 0
M  V30 715 H 64.6674 -2.28742 2.27765 0
M  V30 716 H 63.7194 -0.393163 3.78363 0
M  V30 717 H 65.0314 -0.733262 4.93381 0
M  V30 718 H 64.1854 -3.0699 5.23299 0
M  V30 719 H 62.9244 -2.79204 3.99871 0
M  V30 720 H 61.9294 -0.970995 5.41158 0
M  V30 721 H 63.1544 -1.2728 6.67066 0
M  V30 722 H 61.1004 -3.28535 5.67804 0
M  V30 723 H 61.0174 -2.40351 7.16776 0
M  V30 724 H 62.2854 -3.5687 6.93011 0
M  V30 725 N 66.5145 -1.57545 0.0417849 0
M  V30 726 C 67.7915 -1.83642 -0.673433 0
M  V30 727 C 68.1715 -0.928298 -1.89594 0
M  V30 728 O 67.5195 0.0129955 -2.28496 0
M  V30 729 C 67.7295 -3.33155 -1.03964 0
M  V30 730 C 69.0775 -3.99941 -1.42592 0
M  V30 731 O 70.1015 -3.37725 -1.13226 0
M  V30 732 O 68.9605 -5.09619 -1.9736 0
M  V30 733 H 66.0545 -0.757638 -0.331533 0
M  V30 734 H 68.6005 -1.69554 0.070433 0
M  V30 735 H 67.3725 -3.9093 -0.170098 0
M  V30 736 H 66.9955 -3.52396 -1.84126 0
M  V30 737 N 67.9926 0.231505 -1.5589 0
M  V30 738 C 69.2386 0.95877 -1.78705 0
M  V30 739 C 69.5716 1.8438 -0.609725 0
M  V30 740 O 68.8466 1.90521 0.391426 0
M  V30 741 C 69.1296 1.8062 -3.11526 0
M  V30 742 C 68.9826 0.948328 -4.39689 0
M  V30 743 C 70.3016 2.78585 -3.40703 0
M  V30 744 H 67.4206 0.347129 -0.650131 0
M  V30 745 H 70.0626 0.228259 -1.88624 0
M  V30 746 H 68.2126 2.42902 -3.03201 0
M  V30 747 H 69.8846 0.343016 -4.60023 0
M  V30 748 H 68.1276 0.253314 -4.3306 0
M  V30 749 H 68.7986 1.57543 -5.29041 0
M  V30 750 H 71.2746 2.26439 -3.49091 0
M  V30 751 H 70.1506 3.34988 -4.34826 0
M  V30 752 H 70.4116 3.55825 -2.62375 0
M  V30 753 N 69.4707 1.49531 0.497807 0
M  V30 754 C 70.4027 1.62559 1.61578 0
M  V30 755 C 71.4157 0.508134 1.54667 0
M  V30 756 O 72.6047 0.780309 1.60541 0
M  V30 757 C 69.7047 1.56925 3.00379 0
M  V30 758 C 68.8777 2.84257 3.3244 0
M  V30 759 C 67.9367 2.71632 4.50669 0
M  V30 760 O 66.9627 3.4557 4.52294 0
M  V30 761 N 68.1647 1.83391 5.5077 0
M  V30 762 H 70.9297 2.58981 1.50828 0
M  V30 763 H 68.4907 1.4666 0.685743 0
M  V30 764 H 70.4827 1.46129 3.77397 0
M  V30 765 H 69.0527 0.683483 3.05037 0
M  V30 766 H 68.2727 3.09381 2.44289 0
M  V30 767 H 69.5607 3.68666 3.5066 0
M  V30 768 H 68.9587 1.22583 5.52259 0
M  V30 769 H 67.5157 1.78515 6.26878 0
M  V30 770 N 70.9488 -0.749086 1.3866 0
M  V30 771 C 72.1888 -1.52112 1.36534 0
M  V30 772 C 72.5528 -1.91951 -0.0432316 0
M  V30 773 O 73.7538 -2.68132 -0.189396 0
M  V30 774 C 72.0248 -2.73704 2.29828 0
M  V30 775 S 73.5838 -3.63519 2.45763 0
M  V30 776 H 70.4018 -0.520482 0.484375 0
M  V30 777 H 73.0038 -0.878963 1.74627 0
M  V30 778 H 71.7078 -2.42552 3.31054 0
M  V30 779 H 71.2388 -3.4286 1.929 0
M  V30 780 H 73.2538 -4.66712 1.68505 0
M  V30 781 N 72.4269 -1.23603 -0.977757 0
M  V30 782 C 73.6519 -1.09735 -1.75991 0
M  V30 783 C 74.0769 0.346858 -1.84874 0
M  V30 784 O 73.4349 1.25093 -1.3123 0
M  V30 785 C 73.4829 -1.73051 -3.16363 0
M  V30 786 O 72.5869 -0.994452 -4.0023 0
M  V30 787 H 71.9279 -0.384476 -0.541364 0
M  V30 788 H 74.4579 -1.6371 -1.2272 0
M  V30 789 H 74.4679 -1.78398 -3.66931 0
M  V30 790 H 73.1429 -2.78137 -3.09213 0
M  V30 791 H 71.7199 -1.01812 -3.58732 0
M  V30 792 N 73.905 1.17692 -1.04816 0
M  V30 793 C 75.154 1.87192 -0.751132 0
M  V30 794 C 75.467 1.8169 0.724441 0
M  V30 795 O 76.673 2.46625 1.13527 0
M  V30 796 C 75.129 3.35857 -1.29338 0
M  V30 797 C 74.737 3.4987 -2.79812 0
M  V30 798 C 76.481 4.10709 -1.07322 0
M  V30 799 C 74.388 4.92536 -3.27356 0
M  V30 800 H 73.318 0.701162 -0.277288 0
M  V30 801 H 75.969 1.32932 -1.26496 0
M  V30 802 H 74.351 3.89631 -0.707376 0
M  V30 803 H 75.525 3.06332 -3.44235 0
M  V30 804 H 73.84 2.88433 -3.00325 0
M  V30 805 H 76.437 5.15952 -1.4035 0
M  V30 806 H 76.78 4.16299 -0.0108001 0
M  V30 807 H 77.313 3.6313 -1.62423 0
M  V30 808 H 74.052 4.92119 -4.33012 0
M  V30 809 H 73.572 5.3676 -2.67673 0
M  V30 810 H 75.251 5.61288 -3.21815 0
M  V30 811 N 75.3831 0.828654 1.34056 0
M  V30 812 C 76.6321 0.415828 1.97367 0
M  V30 813 C 76.9451 -1.02796 1.6641 0
M  V30 814 O 78.1511 -1.54497 2.23255 0
M  V30 815 C 76.6071 0.692601 3.53173 0
M  V30 816 C 76.2151 2.15038 3.93017 0
M  V30 817 C 77.9591 0.346222 4.23086 0
M  V30 818 C 75.8661 2.37174 5.41758 0
M  V30 819 H 74.7961 0.151755 0.738571 0
M  V30 820 H 77.4471 1.01581 1.52819 0
M  V30 821 H 75.8291 0.0223764 3.95994 0
M  V30 822 H 77.0031 2.86024 3.61285 0
M  V30 823 H 75.3181 2.45875 3.36057 0
M  V30 824 H 77.9151 0.48937 5.32456 0
M  V30 825 H 78.2581 -0.709842 4.10204 0
M  V30 826 H 78.7911 0.971258 3.85761 0
M  V30 827 H 75.5301 3.41308 5.59633 0
M  V30 828 H 75.0501 1.70738 5.74986 0
M  V30 829 H 76.7291 2.19818 6.08514 0
M  V30 830 N 76.8612 -1.46375 0.584142 0
M  V30 831 C 78.0862 -2.07268 0.0740405 0
M  V30 832 C 78.5112 -1.42979 -1.22223 0
M  V30 833 O 77.8692 -0.514092 -1.73859 0
M  V30 834 C 77.9172 -3.60518 -0.0767769 0
M  V30 835 O 77.0212 -3.96533 -1.13292 0
M  V30 836 H 76.3622 -0.660961 0.0634524 0
M  V30 837 H 78.8922 -1.87991 0.807492 0
M  V30 838 H 78.9022 -4.07021 -0.282489 0
M  V30 839 H 77.5772 -4.06702 0.86986 0
M  V30 840 H 76.1542 -3.61738 -0.905553 0
M  V30 841 N 78.3393 -0.321999 -1.54275 0
M  V30 842 C 79.5853 0.281461 -2.00837 0
M  V30 843 C 79.9183 1.51909 -1.20985 0
M  V30 844 O 79.1933 1.923 -0.291733 0
M  V30 845 C 79.4763 0.617162 -3.54772 0
M  V30 846 C 79.3293 -0.631064 -4.45351 0
M  V30 847 C 80.6483 1.43542 -4.16033 0
M  V30 848 H 77.7673 0.100826 -0.730071 0
M  V30 849 H 80.4093 -0.438268 -1.84876 0
M  V30 850 H 78.5593 1.23034 -3.68504 0
M  V30 851 H 80.2313 -1.26934 -4.43492 0
M  V30 852 H 78.4743 -1.26025 -4.15091 0
M  V30 853 H 79.1453 -0.351735 -5.50878 0
M  V30 854 H 81.6213 0.917134 -4.05867 0
M  V30 855 H 80.4973 1.63907 -5.23856 0
M  V30 856 H 80.7583 2.43108 -3.69257 0
M  V30 857 N 79.8174 1.5752 -0.0501392 0
M  V30 858 C 81.0454 1.96963 0.633492 0
M  V30 859 C 81.4604 0.927631 1.6444 0
M  V30 860 O 80.8174 -0.0882665 1.82286 0
M  V30 861 C 80.8684 3.36487 1.32132 0
M  V30 862 O 80.5894 4.36693 0.350894 0
M  V30 863 C 82.0904 3.90682 2.09481 0
M  V30 864 H 79.3104 0.648244 0.173266 0
M  V30 865 H 81.8544 2.0417 -0.116134 0
M  V30 866 H 80.0094 3.30434 2.02218 0
M  V30 867 H 80.4234 5.17702 0.841735 0
M  V30 868 H 81.8974 4.90591 2.5303 0
M  V30 869 H 82.3744 3.26053 2.94255 0
M  V30 870 H 82.9804 4.00069 1.44307 0
M  V30 871 N 81.2955 -0.223234 1.56011 0
M  V30 872 C 82.2425 -1.27664 1.92277 0
M  V30 873 C 83.2125 -1.46659 0.779763 0
M  V30 874 O 84.3975 -1.60256 1.03551 0
M  V30 875 C 81.5375 -2.62234 2.24338 0
M  V30 876 C 80.6505 -2.51051 3.51564 0
M  V30 877 C 79.7855 -3.78133 3.7308 0
M  V30 878 C 78.8245 -3.61665 4.93827 0
M  V30 879 N 77.9615 -4.80693 5.11741 0
M  V30 880 H 82.8015 -0.960358 2.82101 0
M  V30 881 H 80.3385 -0.462901 1.39627 0
M  V30 882 H 82.2965 -3.40596 2.40936 0
M  V30 883 H 80.9265 -2.91961 1.3769 0
M  V30 884 H 79.9785 -1.64132 3.43169 0
M  V30 885 H 81.2905 -2.34803 4.40079 0
M  V30 886 H 80.4445 -4.64938 3.89766 0
M  V30 887 H 79.1835 -3.97304 2.82844 0
M  V30 888 H 78.1885 -2.73244 4.77093 0
M  V30 889 H 79.4135 -3.43966 5.85546 0
M  V30 890 H 77.3595 -5.00181 4.24446 0
M  V30 891 H 77.2765 -4.67165 5.94384 0
M  V30 892 H 78.5445 -5.6893 5.3286 0
M  V30 893 N 82.7736 -1.49793 -0.48987 0
M  V30 894 C 84.0016 -1.63568 -1.26701 0
M  V30 895 C 84.4166 -0.311465 -1.86213 0
M  V30 896 O 83.7736 0.704416 -1.68357 0
M  V30 897 C 83.8246 -2.71284 -2.38929 0
M  V30 898 O 83.5456 -3.9857 -1.81861 0
M  V30 899 C 85.0466 -2.95864 -3.3012 0
M  V30 900 H 82.2666 -0.550342 -0.383881 0
M  V30 901 H 84.8106 -1.95898 -0.586864 0
M  V30 902 H 82.9656 -2.417 -3.02753 0
M  V30 903 H 83.3796 -4.57993 -2.55622 0
M  V30 904 H 84.8536 -3.74941 -4.05121 0
M  V30 905 H 85.3306 -2.06206 -3.87783 0
M  V30 906 H 85.9366 -3.26907 -2.72051 0
M  V30 907 N 84.2517 0.741722 -1.39055 0
M  V30 908 C 85.5287 1.49252 -1.26425 0
M  V30 909 C 85.9087 2.10705 0.129144 0
M  V30 910 O 85.2567 1.98045 1.13976 0
M  V30 911 C 85.4667 2.54934 -2.38347 0
M  V30 912 C 86.8147 3.21506 -2.77343 0
M  V30 913 O 87.8387 2.65245 -2.37747 0
M  V30 914 O 86.6977 4.23294 -3.45665 0
M  V30 915 H 83.7917 0.662451 -0.495064 0
M  V30 916 H 86.3377 0.776121 -1.50912 0
M  V30 917 H 85.1097 2.07857 -3.31529 0
M  V30 918 H 84.7327 3.34141 -2.15489 0
M  V30 919 N 85.7298 1.2412 0.971189 0
M  V30 920 C 86.6768 1.0305 2.06517 0
M  V30 921 C 87.6468 -0.0550666 1.66009 0
M  V30 922 O 88.8318 0.0988688 1.90544 0
M  V30 923 C 85.9718 0.637653 3.39158 0
M  V30 924 C 85.0848 1.79633 3.92882 0
M  V30 925 C 84.2198 1.34939 5.13775 0
M  V30 926 C 83.2588 2.47823 5.59687 0
M  V30 927 N 82.3958 2.04022 6.71803 0
M  V30 928 H 87.2358 1.96685 2.23873 0
M  V30 929 H 84.7728 0.979694 1.09729 0
M  V30 930 H 86.7308 0.390931 4.15364 0
M  V30 931 H 85.3608 -0.261693 3.21737 0
M  V30 932 H 84.4128 2.15681 3.13346 0
M  V30 933 H 85.7248 2.64466 4.22918 0
M  V30 934 H 84.8788 1.06134 5.97345 0
M  V30 935 H 83.6178 0.471557 4.85415 0
M  V30 936 H 82.6228 2.77392 4.74693 0
M  V30 937 H 83.8478 3.36158 5.90063 0
M  V30 938 H 81.7938 1.18632 6.45184 0
M  V30 939 H 81.7108 2.82409 7.01271 0
M  V30 940 H 82.9788 1.78347 7.58823 0
M  V30 941 N 87.2079 -1.17134 1.05439 0
M  V30 942 C 88.1399 -2.2078 0.615539 0
M  V30 943 C 89.1529 -1.59584 -0.322001 0
M  V30 944 O 90.3419 -1.78133 -0.114344 0
M  V30 945 C 87.4419 -3.38691 -0.118938 0
M  V30 946 C 86.6149 -4.29454 0.829924 0
M  V30 947 C 85.6739 -5.26024 0.136258 0
M  V30 948 O 84.6999 -5.63952 0.77115 0
M  V30 949 N 85.9019 -5.69487 -1.1254 0
M  V30 950 H 88.6669 -2.59052 1.50705 0
M  V30 951 H 86.2279 -1.32058 0.936603 0
M  V30 952 H 88.2199 -4.00329 -0.593179 0
M  V30 953 H 86.7899 -2.98996 -0.91215 0
M  V30 954 H 86.0099 -3.65211 1.48373 0
M  V30 955 H 87.2979 -4.86984 1.47392 0
M  V30 956 H 86.6959 -5.4075 -1.6615 0
M  V30 957 H 85.2529 -6.33257 -1.54366 0
M  V30 958 N 88.686 -0.835752 -1.33615 0
M  V30 959 C 89.596 -0.269088 -2.33052 0
M  V30 960 C 90.612 0.603251 -1.63208 0
M  V30 961 O 91.788 0.508112 -1.94885 0
M  V30 962 C 88.853 0.549091 -3.42324 0
M  V30 963 C 87.914 -0.347156 -4.27894 0
M  V30 964 C 87.147 0.43207 -5.31948 0
M  V30 965 O 87.37 1.66409 -5.45586 0
M  V30 966 O 86.304 -0.192298 -6.01593 0
M  V30 967 H 90.13 -1.09243 -2.83372 0
M  V30 968 H 87.715 -0.598198 -1.36901 0
M  V30 969 H 89.597 1.01414 -4.09015 0
M  V30 970 H 88.272 1.34955 -2.94226 0
M  V30 971 H 87.179 -0.859979 -3.64081 0
M  V30 972 H 88.512 -1.1123 -4.79467 0
M  V30 973 N 90.1641 1.46063 -0.591896 0
M  V30 974 C 91.1271 2.28854 0.125973 0
M  V30 975 C 92.1271 1.38903 0.810107 0
M  V30 976 O 93.3171 1.61186 0.66066 0
M  V30 977 C 90.4491 3.19526 1.1881 0
M  V30 978 H 91.6421 2.93802 -0.601717 0
M  V30 979 H 89.1951 1.52325 -0.350254 0
M  V30 980 H 89.9301 2.59345 1.94707 0
M  V30 981 H 89.7151 3.85766 0.701936 0
M  V30 982 H 91.2051 3.81817 1.69132 0
M  V30 983 N 91.6422 0.330177 1.54103 0
M  V30 984 C 92.8722 -0.271784 2.04805 0
M  V30 985 C 93.2802 -1.45816 1.20559 0
M  V30 986 O 92.6232 -1.82247 0.2306 0
M  V30 987 C 92.6852 -0.763238 3.51305 0
M  V30 988 C 92.3492 0.301705 4.56003 0
M  V30 989 C 93.3462 1.13999 5.07248 0
M  V30 990 C 91.0312 0.451793 5.00264 0
M  V30 991 C 93.0252 2.11402 6.01322 0
M  V30 992 C 90.7122 1.42924 5.94151 0
M  V30 993 C 91.7102 2.25882 6.44567 0
M  V30 994 O 91.3982 3.21965 7.3661 0
M  V30 995 H 91.1302 -0.058693 0.673447 0
M  V30 996 H 93.6842 0.476395 1.99799 0
M  V30 997 H 91.9142 -1.56244 3.5373 0
M  V30 998 H 93.6032 -1.28427 3.85047 0
M  V30 999 H 94.3692 1.03505 4.73827 0
M  V30 1000 H 90.2482 -0.184044 4.60632 0
M  V30 1001 H 93.7922 2.76192 6.40596 0
M  V30 1002 H 89.6892 1.53479 6.26988 0
M  V30 1003 H 90.4572 3.17281 7.54503 0
M  V30 1004 N 93.1203 -1.57491 0.0584922 0
M  V30 1005 C 94.3663 -1.93264 -0.614558 0
M  V30 1006 C 94.6993 -0.937717 -1.7006 0
M  V30 1007 O 93.9743 0.0351652 -1.94468 0
M  V30 1008 C 94.2573 -3.3938 -1.20386 0
M  V30 1009 C 94.1103 -4.49625 -0.125375 0
M  V30 1010 C 95.4293 -3.86039 -2.11334 0
M  V30 1011 H 92.5483 -0.702791 -0.221933 0
M  V30 1012 H 95.1903 -1.8961 0.12175 0
M  V30 1013 H 93.3403 -3.42626 -1.83139 0
M  V30 1014 H 95.0123 -4.58506 0.506971 0
M  V30 1015 H 93.2553 -4.30354 0.545672 0
M  V30 1016 H 93.9263 -5.48967 -0.577861 0
M  V30 1017 H 96.4023 -3.84716 -1.58534 0
M  V30 1018 H 95.2783 -4.88914 -2.49507 0
M  V30 1019 H 95.5393 -3.23215 -3.01636 0
M  V30 1020 N 94.5984 0.214957 -1.56127 0
M  V30 1021 C 95.5284 1.2695 -1.95974 0
M  V30 1022 C 96.5094 1.48539 -0.828868 0
M  V30 1023 O 97.6944 1.60611 -1.09168 0
M  V30 1024 C 94.8244 2.61794 -2.28214 0
M  V30 1025 C 93.7784 2.54851 -3.43853 0
M  V30 1026 C 93.1044 3.93785 -3.61715 0
M  V30 1027 C 94.4044 2.09065 -4.78632 0
M  V30 1028 H 96.0984 0.93846 -2.84312 0
M  V30 1029 H 93.6444 0.449996 -1.36788 0
M  V30 1030 H 95.5974 3.35731 -2.54682 0
M  V30 1031 H 94.3214 2.96599 -1.36736 0
M  V30 1032 H 92.9804 1.8337 -3.17444 0
M  V30 1033 H 92.6284 4.25908 -2.67602 0
M  V30 1034 H 92.3284 3.90019 -4.39498 0
M  V30 1035 H 93.8524 4.69374 -3.90539 0
M  V30 1036 H 95.2664 2.7275 -5.04262 0
M  V30 1037 H 93.6634 2.16346 -5.59745 0
M  V30 1038 H 94.7334 1.04315 -4.73547 0
M  V30 1039 N 96.0765 1.50051 0.48192 0
M  V30 1040 C 97.3015 1.64508 1.26301 0
M  V30 1041 C 97.7265 0.323851 1.85291 0
M  V30 1042 O 97.0845 -0.710969 1.66778 0
M  V30 1043 C 97.1325 2.7305 2.35533 0
M  V30 1044 O 96.2365 2.3355 3.39895 0
M  V30 1045 H 95.5775 0.549978 0.372048 0
M  V30 1046 H 98.1075 1.9636 0.574786 0
M  V30 1047 H 98.1175 2.95799 2.8101 0
M  V30 1048 H 96.7925 3.68946 1.91967 0
M  V30 1049 H 95.3695 2.21205 3.00204 0
M  V30 1050 N 97.5546 -0.734337 1.39446 0
M  V30 1051 C 98.4646 -1.87879 1.40495 0
M  V30 1052 C 99.4806 -1.714 0.299672 0
M  V30 1053 O 100.657 -1.93991 0.541249 0
M  V30 1054 C 97.7216 -3.23477 1.24754 0
M  V30 1055 C 96.7826 -3.52344 2.45259 0
M  V30 1056 C 96.0156 -4.81473 2.30259 0
M  V30 1057 O 96.2386 -5.55237 1.30643 0
M  V30 1058 O 95.1726 -5.10254 3.19256 0
M  V30 1059 H 98.9986 -1.89949 2.36966 0
M  V30 1060 H 96.5836 -0.882243 1.20569 0
M  V30 1061 H 98.4656 -4.04509 1.18111 0
M  V30 1062 H 97.1406 -3.22176 0.313781 0
M  V30 1063 H 96.0476 -2.71396 2.57478 0
M  V30 1064 H 97.3806 -3.58426 3.37331 0
M  V30 1065 N 99.0327 -1.24633 -0.964593 0
M  V30 1066 C 100.258 -1.11596 -1.74818 0
M  V30 1067 C 100.683 0.32723 -1.85232 0
M  V30 1068 O 100.041 1.23695 -1.32549 0
M  V30 1069 C 100.089 -1.76397 -3.1451 0
M  V30 1070 O 99.1927 -1.03685 -3.99153 0
M  V30 1071 H 98.5337 -0.390196 -0.537255 0
M  V30 1072 H 101.064 -1.65002 -1.20977 0
M  V30 1073 H 101.074 -1.8228 -3.65018 0
M  V30 1074 H 99.7487 -2.81401 -3.06246 0
M  V30 1075 H 98.3257 -1.05611 -3.57632 0
M  V30 1076 N 100.511 1.16574 -1.06058 0
M  V30 1077 C 101.736 1.91493 -0.796562 0
M  V30 1078 C 102.161 1.76773 0.642868 0
M  V30 1079 O 101.519 1.09142 1.44768 0
M  V30 1080 C 101.567 3.40293 -1.19303 0
M  V30 1081 O 100.671 4.11074 -0.330394 0
M  V30 1082 H 100.012 0.596678 -0.291326 0
M  V30 1083 H 102.542 1.47708 -1.41575 0
M  V30 1084 H 102.552 3.91057 -1.16356 0
M  V30 1085 H 101.227 3.50326 -2.24153 0
M  V30 1086 H 99.8038 3.70513 -0.421225 0
M  V30 1087 N 101.989 0.842826 1.3317 0
M  V30 1088 C 102.922 0.223862 2.27099 0
M  V30 1089 C 103.9 -0.631311 1.49844 0
M  V30 1090 O 105.084 -0.590708 1.79005 0
M  V30 1091 C 102.211 -0.685313 3.31694 0
M  V30 1092 C 101.257 0.094919 4.26394 0
M  V30 1093 S 102.09 1.45546 5.15341 0
M  V30 1094 C 103.246 0.551685 6.23464 0
M  V30 1095 H 103.479 1.02015 2.79249 0
M  V30 1096 H 101.012 0.639797 1.4052 0
M  V30 1097 H 102.97 -1.20426 3.92438 0
M  V30 1098 H 101.631 -1.4553 2.78352 0
M  V30 1099 H 100.824 -0.597059 5.00451 0
M  V30 1100 H 100.426 0.545054 3.70007 0
M  V30 1101 H 102.718 -0.248877 6.77043 0
M  V30 1102 H 103.661 1.26253 6.96754 0
M  V30 1103 H 104.069 0.131275 5.64347 0
M  V30 1104 N 103.467 -1.45747 0.599634 0
M  V30 1105 C 104.714 -2.02292 0.0917284 0
M  V30 1106 C 105.042 -1.46906 -1.27472 0
M  V30 1107 O 104.297 -0.630652 -1.8526 0
M  V30 1108 C 104.596 -3.57399 -0.00602758 0
M  V30 1109 C 104.262 -4.31902 1.29503 0
M  V30 1110 C 102.924 -4.51974 1.65144 0
M  V30 1111 C 105.276 -4.74551 2.15525 0
M  V30 1112 C 102.604 -5.11949 2.86574 0
M  V30 1113 C 104.956 -5.35868 3.36196 0
M  V30 1114 C 103.62 -5.54165 3.72099 0
M  V30 1115 H 102.89 -0.740239 0.0335658 0
M  V30 1116 H 105.537 -1.7491 0.779661 0
M  V30 1117 H 103.842 -3.84014 -0.777183 0
M  V30 1118 H 105.539 -3.98846 -0.415038 0
M  V30 1119 H 102.129 -4.16588 1.00761 0
M  V30 1120 H 106.313 -4.58784 1.8929 0
M  V30 1121 H 101.569 -5.24305 3.14507 0
M  V30 1122 H 105.743 -5.6787 4.03109 0
M  V30 1123 H 103.37 -6.00406 4.6628 0
M  V30 1124 N 104.945 -0.338344 -1.53925 0
M  V30 1125 C 106.191 0.260143 -2.01125 0
M  V30 1126 C 106.524 1.50617 -1.22589 0
M  V30 1127 O 105.799 1.91979 -0.312113 0
M  V30 1128 C 106.082 0.579499 -3.55407 0
M  V30 1129 C 105.935 -0.678264 -4.44657 0
M  V30 1130 C 107.254 1.39122 -4.17532 0
M  V30 1131 H 104.373 0.0930772 -0.731099 0
M  V30 1132 H 107.015 -0.457852 -1.84401 0
M  V30 1133 H 105.165 1.19118 -3.69788 0
M  V30 1134 H 106.837 -1.31631 -4.42121 0
M  V30 1135 H 105.08 -1.3042 -4.13731 0
M  V30 1136 H 105.751 -0.410143 -5.50474 0
M  V30 1137 H 108.227 0.874035 -4.06817 0
M  V30 1138 H 107.103 1.58342 -5.25565 0
M  V30 1139 H 107.364 2.39178 -3.71815 0
M  V30 1140 N 106.423 1.57458 -0.0668435 0
M  V30 1141 C 107.648 1.9804 0.616027 0
M  V30 1142 C 108.073 0.944771 1.62652 0
M  V30 1143 O 107.431 -0.0902094 1.81075 0
M  V30 1144 C 107.479 3.37665 1.26549 0
M  V30 1145 O 106.583 3.36701 2.38131 0
M  V30 1146 H 105.924 0.644719 0.158849 0
M  V30 1147 H 108.454 2.04121 -0.139891 0
M  V30 1148 H 108.464 3.7474 1.6135 0
M  V30 1149 H 107.139 4.12573 0.525016 0
M  V30 1150 H 105.716 3.1139 2.0516 0
M  V30 1151 N 107.901 -0.206675 1.56239 0
M  V30 1152 C 108.848 -1.25617 1.93621 0
M  V30 1153 C 109.818 -1.45824 0.795274 0
M  V30 1154 O 111.003 -1.59148 1.05245 0
M  V30 1155 C 108.143 -2.59839 2.27107 0
M  V30 1156 C 107.256 -2.47308 3.54207 0
M  V30 1157 C 106.391 -3.74155 3.7707 0
M  V30 1158 C 105.43 -3.56407 4.97635 0
M  V30 1159 N 104.567 -4.75238 5.1681 0
M  V30 1160 H 109.407 -0.930383 2.83104 0
M  V30 1161 H 106.944 -0.448065 1.4011 0
M  V30 1162 H 108.902 -3.38021 2.44535 0
M  V30 1163 H 107.532 -2.90485 1.40778 0
M  V30 1164 H 106.584 -1.60483 3.4489 0
M  V30 1165 H 107.896 -2.30122 4.42544 0
M  V30 1166 H 107.05 -4.60778 3.94675 0
M  V30 1167 H 105.789 -3.94282 2.87042 0
M  V30 1168 H 104.794 -2.68168 4.79964 0
M  V30 1169 H 106.019 -3.37736 5.89161 0
M  V30 1170 H 103.965 -4.95651 4.29728 0
M  V30 1171 H 103.882 -4.60835 5.99306 0
M  V30 1172 H 105.15 -5.63246 5.38864 0
M  V30 1173 N 109.379 -1.50304 -0.473955 0
M  V30 1174 C 110.795 -1.37667 -0.807466 0
M  V30 1175 C 110.995 -0.430555 -1.96846 0
M  V30 1176 O 110.051 0.127874 -2.52176 0
M  V30 1177 C 111.364 -2.78974 -1.12223 0
M  V30 1178 C 112.912 -2.87868 -1.22885 0
M  V30 1179 C 113.387 -4.30003 -1.57676 0
M  V30 1180 N 114.878 -4.3294 -1.64673 0
M  V30 1181 C 115.613 -5.3991 -1.93091 0
M  V30 1182 N 115.109 -6.57092 -2.1955 0
M  V30 1183 N 116.902 -5.27351 -1.94569 0
M  V30 1184 H 109.053 -2.10394 0.291212 0
M  V30 1185 H 111.316 -0.945575 0.0677609 0
M  V30 1186 H 111.022 -3.50031 -0.342229 0
M  V30 1187 H 110.896 -3.16038 -2.05913 0
M  V30 1188 H 113.283 -2.17032 -1.99953 0
M  V30 1189 H 113.364 -2.54352 -0.271814 0
M  V30 1190 H 113.008 -5.01375 -0.81149 0
M  V30 1191 H 112.938 -4.61004 -2.54525 0
M  V30 1192 H 115.429 -3.48441 -1.46277 0
M  V30 1193 H 115.742 -7.34425 -2.405 0
M  V30 1194 H 114.087 -6.60272 -2.16948 0
M  V30 1195 H 117.278 -4.34801 -1.73394 0
M  V30 1196 H 117.451 -6.10805 -2.16381 0
M  V30 1197 N 110.857 0.726932 -1.39834 0
M  V30 1198 C 112.273 1.03354 -1.21615 0
M  V30 1199 C 112.473 2.01327 -0.08338 0
M  V30 1200 O 111.529 2.46158 0.56238 0
M  V30 1201 C 112.842 1.58811 -2.55342 0
M  V30 1202 C 114.39 1.70851 -2.62257 0
M  V30 1203 C 114.865 2.29716 -3.96225 0
M  V30 1204 N 116.356 2.37116 -3.97907 0
M  V30 1205 C 117.091 2.83619 -4.98345 0
M  V30 1206 N 116.587 3.29958 -6.09179 0
M  V30 1207 N 118.38 2.82901 -4.8572 0
M  V30 1208 H 110.531 0.0773069 -2.12259 0
M  V30 1209 H 112.794 0.0969102 -0.943034 0
M  V30 1210 H 112.5 0.942855 -3.38826 0
M  V30 1211 H 112.374 2.57502 -2.75632 0
M  V30 1212 H 114.761 2.34497 -1.79152 0
M  V30 1213 H 114.842 0.707913 -2.45809 0
M  V30 1214 H 114.486 1.66696 -4.79765 0
M  V30 1215 H 114.416 3.30469 -4.09997 0
M  V30 1216 H 116.907 2.04374 -3.17868 0
M  V30 1217 H 117.22 3.63976 -6.8172 0
M  V30 1218 H 115.565 3.27946 -6.12761 0
M  V30 1219 H 118.756 2.46027 -3.98231 0
M  V30 1220 H 118.929 3.18827 -5.6414 0
M  V30 1221 N 112.336 1.25143 0.95797 0
M  V30 1222 C 113.583 1.09692 1.70217 0
M  V30 1223 C 113.911 -0.362654 1.91089 0
M  V30 1224 O 113.166 -1.28386 1.47701 0
M  V30 1225 C 113.465 1.79272 3.09187 0
M  V30 1226 C 113.131 3.29196 3.08125 0
M  V30 1227 C 111.793 3.70096 3.07543 0
M  V30 1228 C 114.145 4.24995 3.0171 0
M  V30 1229 C 111.473 5.05213 2.9829 0
M  V30 1230 C 113.825 5.60132 2.93999 0
M  V30 1231 C 112.489 6.00365 2.9175 0
M  V30 1232 H 111.759 0.401393 0.622868 0
M  V30 1233 H 114.406 1.55372 1.11945 0
M  V30 1234 H 112.711 1.26014 3.70982 0
M  V30 1235 H 114.408 1.64773 3.65583 0
M  V30 1236 H 110.998 2.96651 3.09348 0
M  V30 1237 H 115.182 3.9439 3.01281 0
M  V30 1238 H 110.438 5.35569 2.94916 0
M  V30 1239 H 114.612 6.3406 2.87996 0
M  V30 1240 H 112.239 7.05023 2.84336 0
M  V30 1241 N 113.814 -1.1601 1.06675 0
M  V30 1242 C 115.063 -1.85973 0.780818 0
M  V30 1243 C 115.376 -1.82819 -0.695444 0
M  V30 1244 O 116.582 -2.484 -1.09589 0
M  V30 1245 C 115.038 -3.33757 1.34665 0
M  V30 1246 C 114.646 -3.45374 2.85343 0
M  V30 1247 C 116.39 -4.0895 1.13843 0
M  V30 1248 C 114.297 -4.87266 3.35151 0
M  V30 1249 H 113.227 -0.696661 0.288407 0
M  V30 1250 H 115.878 -1.30903 1.28595 0
M  V30 1251 H 114.26 -3.88456 0.769274 0
M  V30 1252 H 115.434 -3.00816 3.49065 0
M  V30 1253 H 113.749 -2.83619 3.04876 0
M  V30 1254 H 116.346 -5.13654 1.4854 0
M  V30 1255 H 116.689 -4.16229 0.0770282 0
M  V30 1256 H 117.222 -3.605 1.68179 0
M  V30 1257 H 113.961 -4.85168 4.40786 0
M  V30 1258 H 113.481 -5.32433 2.76179 0
M  V30 1259 H 115.16 -5.56097 3.30704 0
M  V30 1260 N 115.292 -0.849877 -1.32721 0
M  V30 1261 C 116.222 -0.306308 -2.31482 0
M  V30 1262 C 117.203 0.591952 -1.59468 0
M  V30 1263 O 118.388 0.513199 -1.87296 0
M  V30 1264 C 115.518 0.510204 -3.43532 0
M  V30 1265 C 114.472 -0.293209 -4.26994 0
M  V30 1266 C 113.798 0.647743 -5.30762 0
M  V30 1267 C 115.098 -1.51634 -4.99804 0
M  V30 1268 H 116.792 -1.13153 -2.77195 0
M  V30 1269 H 114.338 -0.545553 -1.33266 0
M  V30 1270 H 116.291 0.900856 -4.11658 0
M  V30 1271 H 115.015 1.36874 -2.96535 0
M  V30 1272 H 113.674 -0.665555 -3.60508 0
M  V30 1273 H 113.322 1.50299 -4.8002 0
M  V30 1274 H 113.022 0.11422 -5.87489 0
M  V30 1275 H 114.546 1.03567 -6.01753 0
M  V30 1276 H 115.96 -1.19824 -5.60638 0
M  V30 1277 H 114.357 -1.98745 -5.66234 0
M  V30 1278 H 115.427 -2.28018 -4.27943 0
M  V30 1279 N 116.77 1.45427 -0.607355 0
M  V30 1280 C 117.717 2.3053 0.111625 0
M  V30 1281 C 118.687 1.4209 0.860216 0
M  V30 1282 O 119.872 1.71019 0.845998 0
M  V30 1283 C 117.012 3.26992 1.10319 0
M  V30 1284 C 116.125 4.30535 0.355493 0
M  V30 1285 C 115.26 5.14105 1.33676 0
M  V30 1286 C 114.299 6.09376 0.576862 0
M  V30 1287 N 113.436 6.85727 1.5074 0
M  V30 1288 H 118.276 2.91477 -0.620093 0
M  V30 1289 H 115.813 1.43631 -0.317594 0
M  V30 1290 H 117.771 3.81385 1.6912 0
M  V30 1291 H 116.401 2.67799 1.80232 0
M  V30 1292 H 115.453 3.78805 -0.348023 0
M  V30 1293 H 116.765 4.98235 -0.237423 0
M  V30 1294 H 115.919 5.72897 1.99684 0
M  V30 1295 H 114.658 4.46423 1.9636 0
M  V30 1296 H 113.663 5.49715 -0.0968519 0
M  V30 1297 H 114.888 6.79085 -0.0449341 0
M  V30 1298 H 112.834 6.20735 2.12189 0
M  V30 1299 H 112.751 7.49778 0.967913 0
M  V30 1300 H 114.019 7.4906 2.15706 0
M  V30 1301 N 118.248 0.346503 1.53744 0
M  V30 1302 C 119.476 -0.25041 2.05379 0
M  V30 1303 C 119.891 -1.43979 1.22129 0
M  V30 1304 O 119.248 -1.80677 0.257321 0
M  V30 1305 C 119.299 -0.662575 3.55376 0
M  V30 1306 O 119.02 0.479515 4.35468 0
M  V30 1307 C 120.521 -1.31989 4.23195 0
M  V30 1308 H 117.741 -0.0478198 0.669294 0
M  V30 1309 H 120.285 0.499346 1.9831 0
M  V30 1310 H 118.44 -1.36227 3.62658 0
M  V30 1311 H 118.854 0.15037 5.24284 0
M  V30 1312 H 120.328 -1.55902 5.29527 0
M  V30 1313 H 120.805 -2.27436 3.75725 0
M  V30 1314 H 121.411 -0.662154 4.20114 0
M  V30 1315 N 119.726 -1.57421 0.075193 0
M  V30 1316 C 120.966 -1.95495 -0.596757 0
M  V30 1317 C 121.33 -0.954886 -1.66571 0
M  V30 1318 O 122.531 -1.22341 -2.39345 0
M  V30 1319 C 120.802 -3.382 -1.15566 0
M  V30 1320 S 122.361 -3.98254 -1.84226 0
M  V30 1321 H 119.179 -0.683649 -0.195307 0
M  V30 1322 H 121.781 -1.94925 0.149859 0
M  V30 1323 H 120.485 -4.08766 -0.36588 0
M  V30 1324 H 120.016 -3.42321 -1.93856 0
M  V30 1325 H 122.031 -3.85435 -3.12497 0
M  V30 1326 N 121.204 0.198386 -1.56346 0
M  V30 1327 C 122.452 0.91747 -1.80075 0
M  V30 1328 C 122.773 1.83929 -0.647692 0
M  V30 1329 O 122.043 1.93029 0.334166 0
M  V30 1330 H 120.623 0.341774 -0.664228 0
M  V30 1331 H 123.285 0.204684 -1.93822 0
M  V30 1332 H 122.381 1.51055 -2.7311 0
M  V30 1333 N 122.682 1.50554 0.465978 0
M  V30 1334 C 123.91 1.65563 1.24083 0
M  V30 1335 C 124.325 0.341051 1.85694 0
M  V30 1336 O 123.682 -0.677543 1.69457 0
M  V30 1337 C 123.733 2.75051 2.34583 0
M  V30 1338 O 123.454 4.01413 1.75497 0
M  V30 1339 C 124.955 3.01078 3.25372 0
M  V30 1340 H 122.175 0.55638 0.375077 0
M  V30 1341 H 124.719 1.96807 0.555624 0
M  V30 1342 H 122.874 2.46486 2.9887 0
M  V30 1343 H 123.288 4.62002 2.48303 0
M  V30 1344 H 124.762 3.81339 3.99105 0
M  V30 1345 H 125.239 2.12349 3.84453 0
M  V30 1346 H 125.845 3.31194 2.66816 0
M  V30 1347 N 124.16 -0.719506 1.40217 0
M  V30 1348 C 125.388 -1.50864 1.41589 0
M  V30 1349 C 125.803 -1.88794 0.0145275 0
M  V30 1350 O 125.16 -1.55174 -0.960594 0
M  V30 1351 C 125.211 -2.78646 2.30302 0
M  V30 1352 O 124.932 -2.42321 3.64983 0
M  V30 1353 C 126.433 -3.72569 2.40224 0
M  V30 1354 H 123.653 -0.465709 0.48307 0
M  V30 1355 H 126.197 -0.88785 1.84221 0
M  V30 1356 H 124.352 -3.37019 1.91042 0
M  V30 1357 H 124.766 -3.24514 4.12057 0
M  V30 1358 H 126.24 -4.5908 3.06512 0
M  V30 1359 H 126.717 -4.15403 1.42608 0
M  V30 1360 H 127.323 -3.20109 2.80019 0
M  V30 1361 N 125.638 -1.25649 -0.95132 0
M  V30 1362 C 126.568 -1.08808 -2.06599 0
M  V30 1363 C 127.549 0.00382547 -1.701 0
M  V30 1364 O 128.734 -0.166325 -1.93486 0
M  V30 1365 C 125.864 -0.709542 -3.39975 0
M  V30 1366 C 124.818 -1.75206 -3.90496 0
M  V30 1367 C 124.144 -1.22811 -5.20405 0
M  V30 1368 C 125.444 -3.15153 -4.16504 0
M  V30 1369 H 127.138 -2.02048 -2.20946 0
M  V30 1370 H 124.684 -0.972835 -1.06169 0
M  V30 1371 H 126.637 -0.578649 -4.17408 0
M  V30 1372 H 125.361 0.258556 -3.25575 0
M  V30 1373 H 124.02 -1.87145 -3.15234 0
M  V30 1374 H 123.668 -0.250145 -5.02378 0
M  V30 1375 H 123.368 -1.92492 -5.55176 0
M  V30 1376 H 124.892 -1.10968 -6.00432 0
M  V30 1377 H 126.306 -3.06349 -4.84586 0
M  V30 1378 H 124.703 -3.82333 -4.62538 0
M  V30 1379 H 125.773 -3.61966 -3.22658 0
M  V30 1380 N 127.117 1.15442 -1.07289 0
M  V30 1381 C 128.047 2.22312 -0.714107 0
M  V30 1382 C 129.028 1.67467 0.298155 0
M  V30 1383 O 130.213 1.93445 0.171048 0
M  V30 1384 C 127.343 3.47124 -0.110448 0
M  V30 1385 C 126.297 4.14926 -1.04979 0
M  V30 1386 C 125.623 5.33807 -0.308924 0
M  V30 1387 C 126.923 4.64762 -2.38314 0
M  V30 1388 H 128.617 2.5258 -1.6076 0
M  V30 1389 H 126.163 1.21404 -0.77441 0
M  V30 1390 H 128.116 4.21124 0.152482 0
M  V30 1391 H 126.84 3.16187 0.81812 0
M  V30 1392 H 125.499 3.42866 -1.29764 0
M  V30 1393 H 125.147 4.99126 0.623084 0
M  V30 1394 H 124.847 5.80113 -0.935036 0
M  V30 1395 H 126.371 6.10576 -0.0537771 0
M  V30 1396 H 127.785 5.30292 -2.1786 0
M  V30 1397 H 126.182 5.21728 -2.96514 0
M  V30 1398 H 127.252 3.80434 -3.00663 0
M  V30 1399 N 128.595 0.856903 1.32268 0
M  V30 1400 C 129.525 0.31858 2.31316 0
M  V30 1401 C 130.506 -0.583487 1.59779 0
M  V30 1402 O 131.691 -0.503259 1.87566 0
M  V30 1403 C 128.821 -0.491979 3.43798 0
M  V30 1404 C 127.775 0.315849 4.26833 0
M  V30 1405 C 127.101 -0.619586 5.31098 0
M  V30 1406 C 128.401 1.54282 4.98993 0
M  V30 1407 H 130.095 1.14621 2.76591 0
M  V30 1408 H 127.641 0.552613 1.32974 0
M  V30 1409 H 129.594 -0.879012 4.1213 0
M  V30 1410 H 128.318 -1.35299 2.97257 0
M  V30 1411 H 126.977 0.684664 3.6015 0
M  V30 1412 H 126.625 -1.47751 4.8081 0
M  V30 1413 H 126.325 -0.0830621 5.87541 0
M  V30 1414 H 127.849 -1.00375 6.02293 0
M  V30 1415 H 129.263 1.22796 5.59995 0
M  V30 1416 H 127.66 2.01745 5.65172 0
M  V30 1417 H 128.73 2.30285 4.26728 0
M  V30 1418 N 130.073 -1.45103 0.615059 0
M  V30 1419 C 131.02 -2.30586 -0.0993978 0
M  V30 1420 C 131.99 -1.42544 -0.852669 0
M  V30 1421 O 133.175 -1.71465 -0.836917 0
M  V30 1422 C 130.315 -3.27572 -1.08583 0
M  V30 1423 C 129.428 -4.30717 -0.332656 0
M  V30 1424 C 128.563 -5.14807 -1.30947 0
M  V30 1425 C 127.602 -6.09673 -0.544538 0
M  V30 1426 N 126.739 -6.86517 -1.47101 0
M  V30 1427 H 131.579 -2.91144 0.635542 0
M  V30 1428 H 129.116 -1.4346 0.325206 0
M  V30 1429 H 131.074 -3.82276 -1.67095 0
M  V30 1430 H 129.704 -2.68751 -1.78809 0
M  V30 1431 H 128.756 -3.78615 0.368107 0
M  V30 1432 H 130.068 -4.98102 0.263842 0
M  V30 1433 H 129.222 -5.73948 -1.96643 0
M  V30 1434 H 127.961 -4.47458 -1.9399 0
M  V30 1435 H 126.966 -5.49656 0.126003 0
M  V30 1436 H 128.191 -6.79052 0.080947 0
M  V30 1437 H 126.137 -6.21851 -2.08895 0
M  V30 1438 H 126.054 -7.50281 -0.928137 0
M  V30 1439 H 127.322 -7.50194 -2.11731 0
M  V30 1440 N 131.551 -0.354651 -1.53558 0
M  V30 1441 C 132.514 0.484566 -2.24019 0
M  V30 1442 C 133.514 1.01861 -1.24422 0
M  V30 1443 O 134.704 0.906097 -1.4878 0
M  V30 1444 C 131.836 1.67615 -2.96847 0
M  V30 1445 H 133.029 -0.131843 -2.9961 0
M  V30 1446 H 130.582 -0.106165 -1.55939 0
M  V30 1447 H 131.317 2.33095 -2.25471 0
M  V30 1448 H 131.102 1.30029 -3.69912 0
M  V30 1449 H 132.592 2.27114 -3.50441 0
M  V30 1450 N 133.029 1.57378 -0.0835403 0
M  V30 1451 C 133.959 2.1641 0.87686 0
M  V30 1452 C 134.94 1.09429 1.30228 0
M  V30 1453 O 136.125 1.37516 1.37124 0
M  V30 1454 C 133.255 2.73517 2.14022 0
M  V30 1455 C 132.209 3.85769 1.85381 0
M  V30 1456 C 131.535 4.29529 3.18448 0
M  V30 1457 C 132.835 5.09486 1.14984 0
M  V30 1458 H 134.529 2.96914 0.385059 0
M  V30 1459 H 132.075 1.42823 0.18377 0
M  V30 1460 H 134.028 3.13463 2.81636 0
M  V30 1461 H 132.752 1.90252 2.65465 0
M  V30 1462 H 131.411 3.46345 1.20169 0
M  V30 1463 H 131.059 3.43169 3.67755 0
M  V30 1464 H 130.759 5.05204 3.00071 0
M  V30 1465 H 132.283 4.72099 3.8724 0
M  V30 1466 H 133.697 5.46674 1.72687 0
M  V30 1467 H 132.094 5.90515 1.06826 0
M  V30 1468 H 133.164 4.84724 0.130749 0
M  V30 1469 N 134.507 -0.190092 1.56449 0
M  V30 1470 C 135.753 -0.911052 1.81184 0
M  V30 1471 C 136.086 -1.82699 0.658396 0
M  V30 1472 O 135.361 -1.91491 -0.340775 0
M  V30 1473 C 135.644 -1.72297 3.16205 0
M  V30 1474 C 135.497 -0.831419 4.42049 0
M  V30 1475 C 136.816 -2.69454 3.47969 0
M  V30 1476 H 133.935 -0.32977 0.659106 0
M  V30 1477 H 136.577 -0.178169 1.89163 0
M  V30 1478 H 134.727 -2.34778 3.09534 0
M  V30 1479 H 136.399 -0.220929 4.60771 0
M  V30 1480 H 134.642 -0.138406 4.33579 0
M  V30 1481 H 135.313 -1.43461 5.33032 0
M  V30 1482 H 137.789 -2.17104 3.54972 0
M  V30 1483 H 136.665 -3.23342 4.43555 0
M  V30 1484 H 136.926 -3.48744 2.71717 0
M  V30 1485 N 135.985 -1.50799 -0.457987 0
M  V30 1486 C 137.396 -1.55152 -1.0385 0
M  V30 1487 C 137.747 -0.362719 -1.92818 0
M  V30 1488 O 136.872 0.522915 -2.09987 0
M  V30 1489 C 137.467 -2.81173 -1.89017 0
M  V30 1490 C 136.026 -2.88164 -2.42154 0
M  V30 1491 C 135.173 -2.49591 -1.20829 0
M  V30 1492 H 138.124 -1.56874 -0.240068 0
M  V30 1493 H 138.145 -2.63769 -2.74238 0
M  V30 1494 H 137.657 -3.67677 -1.24238 0
M  V30 1495 H 135.758 -2.06042 -3.10447 0
M  V30 1496 H 135.871 -3.91356 -2.76364 0
M  V30 1497 H 134.235 -2.02322 -1.54719 0
M  V30 1498 H 135.018 -3.38418 -0.576927 0
M  V30 1499 N 137.463 0.71206 -1.40597 0
M  V30 1500 C 138.393 1.83889 -1.43899 0
M  V30 1501 C 139.374 1.67442 -0.299504 0
M  V30 1502 O 140.559 1.87421 -0.508624 0
M  V30 1503 C 137.689 3.21877 -1.30431 0
M  V30 1504 C 136.643 3.53002 -2.42019 0
M  V30 1505 C 135.969 4.90172 -2.13626 0
M  V30 1506 C 137.269 3.53643 -3.84362 0
M  V30 1507 H 138.963 1.81383 -2.38203 0
M  V30 1508 H 136.509 0.871237 -1.14654 0
M  V30 1509 H 138.462 4.00404 -1.31357 0
M  V30 1510 H 137.186 3.24968 -0.326049 0
M  V30 1511 H 135.845 2.76818 -2.40349 0
M  V30 1512 H 135.493 4.89869 -1.14182 0
M  V30 1513 H 135.193 5.11962 -2.88389 0
M  V30 1514 H 136.717 5.71028 -2.1624 0
M  V30 1515 H 138.131 4.22203 -3.87837 0
M  V30 1516 H 136.528 3.86961 -4.58673 0
M  V30 1517 H 137.598 2.52954 -4.13693 0
M  V30 1518 N 138.941 1.26152 0.944643 0
M  V30 1519 C 139.871 1.09902 2.06019 0
M  V30 1520 C 140.852 0.00519538 1.70099 0
M  V30 1521 O 142.037 0.176583 1.93396 0
M  V30 1522 C 139.167 0.727562 3.39594 0
M  V30 1523 C 138.121 1.77274 3.89561 0
M  V30 1524 C 137.447 1.25569 5.19747 0
M  V30 1525 C 138.747 3.17357 4.14827 0
M  V30 1526 H 140.441 2.03217 2.19871 0
M  V30 1527 H 137.987 0.978452 1.05652 0
M  V30 1528 H 139.94 0.600777 4.17095 0
M  V30 1529 H 138.664 -0.241287 3.25707 0
M  V30 1530 H 137.323 1.88814 3.14237 0
M  V30 1531 H 136.971 0.276783 5.02238 0
M  V30 1532 H 136.671 1.95433 5.54148 0
M  V30 1533 H 138.195 1.1415 5.99835 0
M  V30 1534 H 139.609 3.08914 4.82954 0
M  V30 1535 H 138.006 3.84781 4.60504 0
M  V30 1536 H 139.076 3.63673 3.20734 0
M  V30 1537 N 140.419 -1.14872 1.07899 0
M  V30 1538 C 141.366 -2.19791 0.704319 0
M  V30 1539 C 142.336 -1.63238 -0.306987 0
M  V30 1540 O 143.521 -1.8983 -0.192171 0
M  V30 1541 C 140.661 -3.44911 0.114244 0
M  V30 1542 C 139.774 -4.15637 1.1777 0
M  V30 1543 C 138.909 -5.28324 0.552037 0
M  V30 1544 C 137.948 -5.90875 1.59789 0
M  V30 1545 N 137.085 -6.95022 0.994404 0
M  V30 1546 H 141.925 -2.5119 1.60336 0
M  V30 1547 H 139.462 -1.23356 0.801352 0
M  V30 1548 H 141.42 -4.16477 -0.245544 0
M  V30 1549 H 140.05 -3.14011 -0.74813 0
M  V30 1550 H 139.102 -3.42512 1.65499 0
M  V30 1551 H 140.414 -4.5823 1.97046 0
M  V30 1552 H 139.568 -6.06538 0.1402 0
M  V30 1553 H 138.307 -4.86939 -0.272431 0
M  V30 1554 H 137.312 -5.11369 2.01945 0
M  V30 1555 H 138.537 -6.34337 2.42474 0
M  V30 1556 H 136.483 -6.55722 0.190939 0
M  V30 1557 H 136.4 -7.36073 1.72432 0
M  V30 1558 H 137.668 -7.77123 0.608253 0
M  V30 1559 N 141.898 -0.863906 -1.31812 0
M  V30 1560 C 142.828 -0.330843 -2.31144 0
M  V30 1561 C 143.809 0.575005 -1.60087 0
M  V30 1562 O 144.994 0.493304 -1.8783 0
M  V30 1563 C 142.124 0.47374 -3.44054 0
M  V30 1564 C 141.078 -0.338481 -4.26659 0
M  V30 1565 C 140.404 0.591412 -5.31419 0
M  V30 1566 C 141.704 -1.56926 -4.98168 0
M  V30 1567 H 143.398 -1.16086 -2.75979 0
M  V30 1568 H 140.944 -0.559657 -1.32679 0
M  V30 1569 H 142.897 0.857143 -4.12591 0
M  V30 1570 H 141.621 1.33721 -2.9797 0
M  V30 1571 H 140.28 -0.703754 -3.59782 0
M  V30 1572 H 139.928 1.45199 -4.81587 0
M  V30 1573 H 139.628 0.0519022 -5.87577 0
M  V30 1574 H 141.152 0.97179 -6.02817 0
M  V30 1575 H 142.566 -1.25764 -5.59336 0
M  V30 1576 H 140.963 -2.04739 -5.64094 0
M  V30 1577 H 142.033 -2.32544 -4.25501 0
M  V30 1578 N 143.376 1.44774 -0.622745 0
M  V30 1579 C 144.339 2.29069 0.0774015 0
M  V30 1580 C 145.339 1.4059 0.780461 0
M  V30 1581 O 146.529 1.62551 0.626322 0
M  V30 1582 C 143.661 3.21974 1.12006 0
M  V30 1583 H 144.854 2.92459 -0.663901 0
M  V30 1584 H 142.407 1.51548 -0.382486 0
M  V30 1585 H 143.142 2.63417 1.89162 0
M  V30 1586 H 142.927 3.87168 0.619951 0
M  V30 1587 H 144.417 3.85318 1.60995 0
M  V30 1588 N 144.854 0.36279 1.53368 0
M  V30 1589 C 146.27 0.0116182 1.59596 0
M  V30 1590 C 146.47 -1.47012 1.37803 0
M  V30 1591 O 145.526 -2.23136 1.18181 0
M  V30 1592 C 146.839 0.465052 2.97082 0
M  V30 1593 C 148.387 0.419033 3.10182 0
M  V30 1594 C 148.862 0.848235 4.50077 0
M  V30 1595 N 150.353 0.803183 4.56183 0
M  V30 1596 C 151.088 1.107 5.62613 0
M  V30 1597 N 150.584 1.47996 6.76808 0
M  V30 1598 N 152.377 1.02998 5.52583 0
M  V30 1599 H 144.528 1.32775 1.65785 0
M  V30 1600 H 146.791 0.542518 0.777417 0
M  V30 1601 H 146.497 1.49892 3.18159 0
M  V30 1602 H 146.371 -0.149786 3.76902 0
M  V30 1603 H 148.758 -0.605696 2.88817 0
M  V30 1604 H 148.839 1.06933 2.32377 0
M  V30 1605 H 148.483 1.87107 4.7218 0
M  V30 1606 H 148.413 0.175218 5.26308 0
M  V30 1607 H 150.904 0.52838 3.74188 0
M  V30 1608 H 151.217 1.69613 7.53957 0
M  V30 1609 H 149.562 1.51859 6.78206 0
M  V30 1610 H 152.753 0.737817 4.62249 0
M  V30 1611 H 152.926 1.2701 6.35431 0
M  V30 1612 N 146.332 -1.57332 0.0918853 0
M  V30 1613 C 147.609 -1.85691 -0.614668 0
M  V30 1614 C 147.989 -0.988146 -1.86545 0
M  V30 1615 O 147.337 -0.0597055 -2.28422 0
M  V30 1616 C 147.547 -3.36294 -0.933126 0
M  V30 1617 C 148.895 -4.04275 -1.29796 0
M  V30 1618 O 149.919 -3.41157 -1.02424 0
M  V30 1619 O 148.778 -5.1564 -1.81047 0
M  V30 1620 H 145.872 -0.767802 -0.307261 0
M  V30 1621 H 148.418 -1.69244 0.12434 0
M  V30 1622 H 147.19 -3.91273 -0.0456404 0
M  V30 1623 H 146.813 -3.58076 -1.72822 0
M  V30 1624 N 147.81 0.181792 -1.56548 0
M  V30 1625 C 149.04 0.914618 -1.85252 0
M  V30 1626 C 149.448 1.76791 -0.673914 0
M  V30 1627 O 148.791 1.80009 0.366416 0
M  V30 1628 C 148.853 1.85019 -3.08234 0
M  V30 1629 C 148.517 1.17754 -4.41569 0
M  V30 1630 C 149.514 0.548035 -5.17003 0
M  V30 1631 C 147.199 1.17742 -4.88305 0
M  V30 1632 C 149.193 -0.0726128 -6.37359 0
M  V30 1633 C 146.88 0.552946 -6.08593 0
M  V30 1634 C 147.878 -0.070978 -6.82963 0
M  V30 1635 O 147.566 -0.685635 -8.00971 0
M  V30 1636 H 147.298 0.271695 -0.618998 0
M  V30 1637 H 149.852 0.189944 -2.0452 0
M  V30 1638 H 148.082 2.61491 -2.84885 0
M  V30 1639 H 149.771 2.45195 -3.23472 0
M  V30 1640 H 150.537 0.540174 -4.81982 0
M  V30 1641 H 146.416 1.65246 -4.30366 0
M  V30 1642 H 149.96 -0.560213 -6.95347 0
M  V30 1643 H 145.857 0.558354 -6.43081 0
M  V30 1644 H 146.625 -0.58385 -8.16415 0
M  V30 1645 N 149.288 1.51039 0.449983 0
M  V30 1646 C 150.513 1.6715 1.22783 0
M  V30 1647 C 150.938 0.363081 1.84563 0
M  V30 1648 O 150.296 -0.675433 1.68249 0
M  V30 1649 C 150.344 2.77985 2.29689 0
M  V30 1650 O 149.448 2.40707 3.34864 0
M  V30 1651 H 148.789 0.557746 0.360299 0
M  V30 1652 H 151.319 1.97535 0.533005 0
M  V30 1653 H 151.329 3.01693 2.74673 0
M  V30 1654 H 150.004 3.72935 1.84098 0
M  V30 1655 H 148.581 2.27523 2.95445 0
M  V30 1656 N 150.766 -0.704594 1.40972 0
M  V30 1657 C 152.014 -1.46169 1.39568 0
M  V30 1658 C 152.335 -1.95 0.00253745 0
M  V30 1659 O 151.605 -1.71095 -0.954114 0
M  V30 1660 H 150.185 -0.542326 0.513704 0
M  V30 1661 H 152.847 -0.834553 1.76128 0
M  V30 1662 H 151.943 -2.32922 2.07735 0
M  V30 1663 N 152.244 -1.26651 -0.937939 0
M  V30 1664 C 153.491 -1.12387 -1.6845 0
M  V30 1665 C 153.819 0.332208 -1.91642 0
M  V30 1666 O 153.074 1.2602 -1.49725 0
M  V30 1667 C 153.373 -1.84168 -3.06295 0
M  V30 1668 C 153.039 -3.34056 -3.02849 0
M  V30 1669 C 151.701 -3.74942 -3.01616 0
M  V30 1670 C 154.053 -4.29741 -2.9491 0
M  V30 1671 C 151.381 -5.09894 -2.90215 0
M  V30 1672 C 153.733 -5.64738 -2.8505 0
M  V30 1673 C 152.397 -6.0493 -2.82162 0
M  V30 1674 H 151.667 -0.411252 -0.616403 0
M  V30 1675 H 154.314 -1.57134 -1.09459 0
M  V30 1676 H 152.619 -1.319 -3.6893 0
M  V30 1677 H 154.316 -1.70569 -3.62915 0
M  V30 1678 H 150.906 -3.01534 -3.0459 0
M  V30 1679 H 155.09 -3.99133 -2.94969 0
M  V30 1680 H 150.346 -5.40194 -2.86358 0
M  V30 1681 H 154.52 -6.38561 -2.77872 0
M  V30 1682 H 152.147 -7.09457 -2.73084 0
M  V30 1683 N 153.722 1.14298 -1.08507 0
M  V30 1684 C 154.999 1.81544 -0.728088 0
M  V30 1685 C 155.379 1.95838 0.78808 0
M  V30 1686 O 154.727 1.51904 1.70697 0
M  V30 1687 C 154.937 3.17169 -1.45619 0
M  V30 1688 C 156.285 3.9265 -1.61591 0
M  V30 1689 O 157.309 3.26762 -1.41793 0
M  V30 1690 O 156.168 5.10807 -1.94263 0
M  V30 1691 H 153.262 0.78491 -0.260471 0
M  V30 1692 H 155.808 1.21307 -1.18671 0
M  V30 1693 H 154.58 3.01934 -2.489 0
M  V30 1694 H 154.203 3.851 -0.989124 0
M  V30 1695 N 155.201 0.870884 1.31352 0
M  V30 1696 C 156.426 0.495957 2.01383 0
M  V30 1697 C 156.851 -0.904324 1.64935 0
M  V30 1698 O 156.209 -1.59687 0.858466 0
M  V30 1699 C 156.257 0.661433 3.54482 0
M  V30 1700 O 155.361 -0.298851 4.11316 0
M  V30 1701 H 154.702 0.197158 0.634054 0
M  V30 1702 H 157.232 1.17455 1.67527 0
M  V30 1703 H 157.242 0.555072 4.04207 0
M  V30 1704 H 155.917 1.68246 3.8035 0
M  V30 1705 H 154.494 -0.147368 3.72609 0
M  V30 1706 N 156.679 -1.44442 0.630414 0
M  V30 1707 C 157.928 -2.01267 0.132073 0
M  V30 1708 C 158.241 -1.50172 -1.25331 0
M  V30 1709 O 159.447 -1.9912 -1.84562 0
M  V30 1710 C 157.903 -3.59422 0.185362 0
M  V30 1711 C 157.511 -4.19514 1.57201 0
M  V30 1712 C 159.255 -4.23724 -0.256553 0
M  V30 1713 C 157.162 -5.69891 1.58045 0
M  V30 1714 H 156.092 -0.752619 0.0456092 0
M  V30 1715 H 158.743 -1.65666 0.789106 0
M  V30 1716 H 157.125 -3.92318 -0.538759 0
M  V30 1717 H 158.299 -3.98156 2.31966 0
M  V30 1718 H 156.614 -3.67496 1.95795 0
M  V30 1719 H 159.211 -5.34019 -0.269767 0
M  V30 1720 H 159.554 -3.96013 -1.28372 0
M  V30 1721 H 160.087 -3.95629 0.41505 0
M  V30 1722 H 156.826 -6.02336 2.58597 0
M  V30 1723 H 156.346 -5.93373 0.875725 0
M  V30 1724 H 158.025 -6.33515 1.31408 0
M  V30 1725 N 158.157 -0.370918 -1.53173 0
M  V30 1726 C 159.089 0.507823 -2.23503 0
M  V30 1727 C 160.102 1.04182 -1.251 0
M  V30 1728 O 161.291 0.947286 -1.5129 0
M  V30 1729 C 158.391 1.71447 -2.92334 0
M  V30 1730 C 157.564 1.31105 -4.17289 0
M  V30 1731 C 156.623 2.38035 -4.69282 0
M  V30 1732 O 155.649 2.00204 -5.32829 0
M  V30 1733 N 156.851 3.69697 -4.47554 0
M  V30 1734 H 159.616 -0.0946382 -2.99551 0
M  V30 1735 H 157.177 -0.196358 -1.60705 0
M  V30 1736 H 159.169 2.42469 -3.24023 0
M  V30 1737 H 157.739 2.22368 -2.19707 0
M  V30 1738 H 156.959 0.430462 -3.91843 0
M  V30 1739 H 158.247 1.0179 -4.98514 0
M  V30 1740 H 157.645 4.03205 -3.9679 0
M  V30 1741 H 156.202 4.36807 -4.8378 0
M  V30 1742 N 159.635 1.57281 -0.100228 0
M  V30 1743 C 160.86 1.99302 0.573881 0
M  V30 1744 C 161.285 0.979059 1.60611 0
M  V30 1745 O 160.643 -0.0517803 1.81226 0
M  V30 1746 C 160.691 3.40274 1.19358 0
M  V30 1747 O 159.795 3.41676 2.30935 0
M  V30 1748 H 159.136 0.647944 0.145138 0
M  V30 1749 H 161.666 2.03779 -0.183156 0
M  V30 1750 H 161.676 3.78078 1.53365 0
M  V30 1751 H 160.351 4.13594 0.437385 0
M  V30 1752 H 158.928 3.15672 1.98509 0
M  V30 1753 N 161.113 -0.173488 1.56642 0
M  V30 1754 C 162.36 -0.890465 1.81871 0
M  V30 1755 C 162.688 -1.82339 0.67696 0
M  V30 1756 O 161.943 -1.92795 -0.335926 0
M  V30 1757 C 162.242 -1.72069 3.13252 0
M  V30 1758 C 161.908 -0.936878 4.41059 0
M  V30 1759 C 160.57 -0.720545 4.75775 0
M  V30 1760 C 162.922 -0.386919 5.19762 0
M  V30 1761 C 160.25 0.0568829 5.86672 0
M  V30 1762 C 162.602 0.37741 6.31473 0
M  V30 1763 C 161.266 0.604563 6.64757 0
M  V30 1764 H 160.536 -0.325844 0.665512 0
M  V30 1765 H 163.183 -0.155527 1.90867 0
M  V30 1766 H 161.488 -2.52496 2.99588 0
M  V30 1767 H 163.185 -2.27844 3.29982 0
M  V30 1768 H 159.775 -1.11553 4.13828 0
M  V30 1769 H 163.959 -0.541398 4.93338 0
M  V30 1770 H 159.215 0.242635 6.10918 0
M  V30 1771 H 163.389 0.810825 6.91664 0
M  V30 1772 H 161.016 1.20885 7.50527 0
M  V30 1773 N 162.591 -1.51276 -0.441967 0
M  V30 1774 C 163.838 -1.63715 -1.19179 0
M  V30 1775 C 164.166 -0.351175 -1.91303 0
M  V30 1776 O 163.421 0.664524 -1.84072 0
M  V30 1777 C 163.72 -2.78746 -2.23686 0
M  V30 1778 C 163.386 -4.18189 -1.68607 0
M  V30 1779 C 162.048 -4.56125 -1.53308 0
M  V30 1780 C 164.4 -5.05222 -1.28062 0
M  V30 1781 C 161.728 -5.78804 -0.959317 0
M  V30 1782 C 164.08 -6.28476 -0.721162 0
M  V30 1783 C 162.744 -6.65188 -0.55504 0
M  V30 1784 H 162.014 -0.599076 -0.436106 0
M  V30 1785 H 164.661 -1.85296 -0.48351 0
M  V30 1786 H 162.966 -2.51369 -3.00535 0
M  V30 1787 H 164.663 -2.8557 -2.81515 0
M  V30 1788 H 161.253 -3.88277 -1.8149 0
M  V30 1789 H 165.437 -4.76524 -1.38704 0
M  V30 1790 H 160.693 -6.05899 -0.81833 0
M  V30 1791 H 164.867 -6.95259 -0.398458 0
M  V30 1792 H 162.494 -7.60123 -0.108311 0
M  V30 1793 N 164.069 0.697108 -1.41344 0
M  V30 1794 C 165.299 1.48377 -1.43763 0
M  V30 1795 C 165.707 1.89156 -0.0408726 0
M  V30 1796 O 165.05 1.57239 0.949812 0
M  V30 1797 C 165.112 2.7781 -2.2817 0
M  V30 1798 C 164.776 2.59244 -3.76353 0
M  V30 1799 C 165.773 2.25292 -4.68551 0
M  V30 1800 C 163.458 2.74933 -4.20378 0
M  V30 1801 C 165.452 2.07264 -6.02761 0
M  V30 1802 C 163.139 2.56521 -5.54653 0
M  V30 1803 C 164.137 2.22737 -6.4566 0
M  V30 1804 O 163.825 2.04485 -7.77458 0
M  V30 1805 H 163.557 0.463842 -0.491759 0
M  V30 1806 H 166.111 0.865934 -1.86255 0
M  V30 1807 H 164.341 3.41995 -1.8049 0
M  V30 1808 H 166.03 3.39608 -2.22309 0
M  V30 1809 H 166.796 2.12787 -4.35829 0
M  V30 1810 H 162.675 3.00213 -3.49848 0
M  V30 1811 H 166.219 1.80817 -6.73759 0
M  V30 1812 H 162.116 2.68616 -5.86955 0
M  V30 1813 H 162.884 2.1926 -7.88586 0
M  V30 1814 N 165.547 1.27147 0.931209 0
M  V30 1815 C 166.772 1.16191 1.71797 0
M  V30 1816 C 167.197 -0.278004 1.86034 0
M  V30 1817 O 166.555 -1.20137 1.35782 0
M  V30 1818 C 166.603 1.84673 3.09723 0
M  V30 1819 O 165.707 1.14231 3.96264 0
M  V30 1820 H 165.048 0.404303 0.526721 0
M  V30 1821 H 167.578 1.68152 1.1656 0
M  V30 1822 H 167.588 1.91893 3.60057 0
M  V30 1823 H 166.263 2.89421 2.98677 0
M  V30 1824 H 164.84 1.15056 3.54706 0
M  V30 1825 N 167.025 -1.13721 1.09112 0
M  V30 1826 C 168.441 -1.36914 0.820174 0
M  V30 1827 C 168.641 -1.93356 -0.567079 0
M  V30 1828 O 167.697 -2.15093 -1.32255 0
M  V30 1829 C 169.01 -2.3235 1.90877 0
M  V30 1830 C 170.558 -2.45973 1.93562 0
M  V30 1831 C 171.033 -3.44714 3.01556 0
M  V30 1832 N 172.524 -3.52263 3.00775 0
M  V30 1833 C 173.259 -4.28536 3.80978 0
M  V30 1834 N 172.755 -5.07991 4.71081 0
M  V30 1835 N 174.548 -4.23804 3.69251 0
M  V30 1836 H 166.699 -0.754348 1.98553 0
M  V30 1837 H 168.962 -0.3944 0.862063 0
M  V30 1838 H 168.668 -1.98027 2.90651 0
M  V30 1839 H 168.542 -3.32332 1.78424 0
M  V30 1840 H 170.929 -2.79584 0.944286 0
M  V30 1841 H 171.01 -1.45926 2.10093 0
M  V30 1842 H 170.654 -3.11835 4.00901 0
M  V30 1843 H 170.584 -4.44558 2.82269 0
M  V30 1844 H 173.075 -2.95567 2.35475 0
M  V30 1845 H 173.388 -5.63487 5.28869 0
M  V30 1846 H 171.733 -5.07235 4.75119 0
M  V30 1847 H 174.924 -3.60806 2.98222 0
M  V30 1848 H 175.097 -4.82995 4.31995 0
M  V30 1849 N 168.503 -0.877838 -1.30888 0
M  V30 1850 C 169.45 -0.337538 -2.28318 0
M  V30 1851 C 170.42 0.568346 -1.56074 0
M  V30 1852 O 171.605 0.498298 -1.84178 0
M  V30 1853 C 168.745 0.448142 -3.42178 0
M  V30 1854 C 167.858 -0.48615 -4.29256 0
M  V30 1855 C 166.993 0.314427 -5.30269 0
M  V30 1856 C 166.032 -0.615791 -6.08995 0
M  V30 1857 N 165.169 0.14902 -7.01942 0
M  V30 1858 H 170.009 -1.17356 -2.73919 0
M  V30 1859 H 167.546 -0.590094 -1.34745 0
M  V30 1860 H 169.504 0.919517 -4.06941 0
M  V30 1861 H 168.134 1.24879 -2.97666 0
M  V30 1862 H 167.186 -1.076 -3.64865 0
M  V30 1863 H 168.498 -1.19909 -4.84173 0
M  V30 1864 H 167.652 0.847969 -6.00745 0
M  V30 1865 H 166.391 1.06062 -4.76027 0
M  V30 1866 H 165.396 -1.16102 -5.37401 0
M  V30 1867 H 166.621 -1.36097 -6.65323 0
M  V30 1868 H 164.567 0.877884 -6.50099 0
M  V30 1869 H 164.484 -0.504433 -7.54315 0
M  V30 1870 H 165.752 0.663537 -7.76671 0
M  V30 1871 N 169.982 1.44106 -0.638065 0
M  V30 1872 C 170.93 2.3248 0.0748149 0
M  V30 1873 C 171.924 1.47746 0.828702 0
M  V30 1874 O 173.13 1.64049 0.740816 0
M  V30 1875 H 169.505 0.750771 0.0429686 0
M  V30 1876 H 171.476 2.90348 -0.688504 0
M  V30 1877 C 170.225 3.31843 1.03805 0
M  V30 1878 H 169.548 3.97059 0.467375 0
M  V30 1879 H 170.988 3.96345 1.50622 0
M  V30 1880 C 169.447 2.61291 2.1267 0
M  V30 1881 O 169.977 2.41702 3.20847 0
M  V30 1882 N 168.183 2.20915 1.88798 0
M  V30 1883 H 167.73 2.37047 1.00829 0
M  V30 1884 H 167.688 1.74038 2.61836 0
M  V30 1885 N 171.46 0.379036 1.52974 0
M  V30 1886 C 172.707 -0.206421 2.01445 0
M  V30 1887 C 173.035 -1.47668 1.26587 0
M  V30 1888 O 172.29 -1.92514 0.351675 0
M  V30 1889 C 172.589 -0.53096 3.53434 0
M  V30 1890 C 172.255 0.646546 4.46241 0
M  V30 1891 C 170.917 0.969604 4.7133 0
M  V30 1892 C 173.269 1.43479 5.01062 0
M  V30 1893 C 170.597 2.08263 5.48492 0
M  V30 1894 C 172.949 2.53834 5.7944 0
M  V30 1895 C 171.613 2.86659 6.02812 0
M  V30 1896 H 170.883 -0.0755349 0.73714 0
M  V30 1897 H 173.53 0.514271 1.84465 0
M  V30 1898 H 171.835 -1.33285 3.68432 0
M  V30 1899 H 173.532 -0.996417 3.88423 0
M  V30 1900 H 170.122 0.384734 4.2687 0
M  V30 1901 H 174.306 1.19844 4.81613 0
M  V30 1902 H 169.562 2.34078 5.64816 0
M  V30 1903 H 173.736 3.15319 6.20924 0
M  V30 1904 H 171.363 3.73026 6.62387 0
M  V30 1905 N 172.938 -1.57226 0.108567 0
M  V30 1906 C 173.871 -2.10447 -0.882464 0
M  V30 1907 C 174.849 -1.01829 -1.26766 0
M  V30 1908 O 176.033 -1.29415 -1.37054 0
M  V30 1909 C 173.16 -2.59258 -2.17952 0
M  V30 1910 C 172.206 -3.79662 -1.94318 0
M  V30 1911 S 173.039 -5.22586 -1.16892 0
M  V30 1912 C 174.195 -5.74758 -2.47799 0
M  V30 1913 H 174.428 -2.94178 -0.429745 0
M  V30 1914 H 171.961 -1.54043 -0.105 0
M  V30 1915 H 173.919 -2.88036 -2.92482 0
M  V30 1916 H 172.58 -1.75728 -2.60343 0
M  V30 1917 H 171.773 -4.11928 -2.90399 0
M  V30 1918 H 171.375 -3.51446 -1.27913 0
M  V30 1919 H 173.667 -5.83846 -3.43701 0
M  V30 1920 H 174.61 -6.73027 -2.20093 0
M  V30 1921 H 175.018 -5.02763 -2.56689 0
M  V30 1922 N 174.416 0.165178 -1.56732 0
M  V30 1923 C 175.363 1.2044 -1.96883 0
M  V30 1924 C 176.333 1.43664 -0.833657 0
M  V30 1925 O 177.518 1.56302 -1.09427 0
M  V30 1926 C 174.658 2.53727 -2.33916 0
M  V30 1927 C 173.771 2.3783 -3.6064 0
M  V30 1928 C 172.906 3.64026 -3.86857 0
M  V30 1929 C 171.945 3.43088 -5.06909 0
M  V30 1930 N 171.082 4.61369 -5.29229 0
M  V30 1931 H 175.922 0.854996 -2.85471 0
M  V30 1932 H 173.459 0.41076 -1.41249 0
M  V30 1933 H 175.417 3.31419 -2.53411 0
M  V30 1934 H 174.047 2.8665 -1.48431 0
M  V30 1935 H 173.099 1.51282 -3.49024 0
M  V30 1936 H 174.411 2.18308 -4.4849 0
M  V30 1937 H 173.565 4.50152 -4.06753 0
M  V30 1938 H 172.304 3.86533 -2.97394 0
M  V30 1939 H 171.309 2.55349 -4.86906 0
M  V30 1940 H 172.534 3.21997 -5.97909 0
M  V30 1941 H 170.48 4.84084 -4.42718 0
M  V30 1942 H 170.397 4.44783 -6.11313 0
M  V30 1943 H 171.665 5.48761 -5.53608 0
M  V30 1944 N 175.894 1.51508 0.433938 0
M  V30 1945 C 177.305 1.56784 1.01369 0
M  V30 1946 C 177.656 0.393349 1.92217 0
M  V30 1947 O 176.781 -0.489441 2.10792 0
M  V30 1948 C 177.376 2.84144 1.8452 0
M  V30 1949 C 175.935 2.9198 2.37539 0
M  V30 1950 C 175.082 2.51482 1.16843 0
M  V30 1951 H 178.033 1.57236 0.215081 0
M  V30 1952 H 178.054 2.68098 2.70007 0
M  V30 1953 H 177.566 3.69607 1.18373 0
M  V30 1954 H 175.667 2.10955 3.0713 0
M  V30 1955 H 175.78 3.95704 2.70103 0
M  V30 1956 H 174.144 2.04758 1.51481 0
M  V30 1957 H 174.927 3.39293 0.523015 0
M  V30 1958 N 177.372 -0.689602 1.41712 0
M  V30 1959 C 178.597 -1.48329 1.44959 0
M  V30 1960 C 179.022 -1.8801 0.0581283 0
M  V30 1961 O 178.38 -1.55026 -0.940035 0
M  V30 1962 C 178.428 -2.71835 2.36935 0
M  V30 1963 O 177.532 -3.69549 1.8305 0
M  V30 1964 H 176.873 -0.446199 0.491734 0
M  V30 1965 H 179.403 -0.847127 1.86239 0
M  V30 1966 H 179.413 -3.20076 2.53013 0
M  V30 1967 H 178.088 -2.42291 3.38035 0
M  V30 1968 H 176.665 -3.2851 1.76452 0
M  V30 1969 N 178.85 -1.27639 -0.924453 0
M  V30 1970 C 179.8 -1.07295 -2.01176 0
M  V30 1971 C 180.784 5.77352e-05 -1.609 0
M  V30 1972 O 181.976 -0.218855 -1.75642 0
M  V30 1973 C 179.105 -0.725592 -3.35544 0
M  V30 1974 C 178.191 -1.83691 -3.82254 0
M  V30 1975 N 178.582 -3.07697 -4.01443 0
M  V30 1976 C 176.88 -1.72433 -4.11319 0
M  V30 1977 C 177.581 -3.80037 -4.40394 0
M  V30 1978 N 176.557 -3.0782 -4.48049 0
M  V30 1979 H 180.359 -2.01399 -2.14046 0
M  V30 1980 H 177.873 -1.18401 -1.11153 0
M  V30 1981 H 179.87 -0.560959 -4.13109 0
M  V30 1982 H 178.53 0.207782 -3.24034 0
M  V30 1983 H 179.541 -3.43424 -3.8766 0
M  V30 1984 H 176.218 -0.862005 -4.08504 0
M  V30 1985 H 177.608 -4.86632 -4.63291 0
M  V30 1986 N 180.328 1.1314 -1.09713 0
M  V30 1987 C 181.26 2.18343 -0.697056 0
M  V30 1988 C 182.273 1.60669 0.262551 0
M  V30 1989 O 183.462 1.78435 0.0481527 0
M  V30 1990 C 180.562 3.38899 -0.00684728 0
M  V30 1991 C 179.735 4.26078 -0.988741 0
M  V30 1992 C 178.794 5.25155 -0.331394 0
M  V30 1993 O 177.82 5.60701 -0.979926 0
M  V30 1994 N 179.022 5.73271 0.913261 0
M  V30 1995 H 181.787 2.5328 -1.60216 0
M  V30 1996 H 179.348 1.28491 -0.984971 0
M  V30 1997 H 181.34 4.02255 0.444191 0
M  V30 1998 H 179.91 3.02175 0.800551 0
M  V30 1999 H 179.13 3.59453 -1.61826 0
M  V30 2000 H 180.418 4.81178 -1.65364 0
M  V30 2001 H 179.816 5.46544 1.45966 0
M  V30 2002 H 178.373 6.3855 1.30757 0
M  V30 2003 N 181.806 0.884767 1.30421 0
M  V30 2004 C 183.054 0.502112 1.95763 0
M  V30 2005 C 183.375 -0.951815 1.70192 0
M  V30 2006 O 182.645 -1.6692 1.0254 0
M  V30 2007 H 181.225 0.182694 0.724315 0
M  V30 2008 H 183.887 1.1278 1.58955 0
M  V30 2009 H 182.983 0.672188 3.04775 0
M  V30 2010 N 183.284 -1.43765 0.645699 0
M  V30 2011 C 184.514 -2.05953 0.163318 0
M  V30 2012 C 184.922 -1.48432 -1.17322 0
M  V30 2013 O 184.265 -0.607295 -1.73371 0
M  V30 2014 C 184.327 -3.59499 -0.0103065 0
M  V30 2015 C 183.991 -4.39563 1.25035 0
M  V30 2016 C 184.988 -4.72108 2.17739 0
M  V30 2017 C 182.673 -4.79697 1.48983 0
M  V30 2018 C 184.667 -5.43688 3.3269 0
M  V30 2019 C 182.354 -5.51023 2.64229 0
M  V30 2020 C 183.352 -5.8294 3.55908 0
M  V30 2021 O 183.04 -6.5281 4.69142 0
M  V30 2022 H 182.772 -0.670798 0.0836986 0
M  V30 2023 H 185.326 -1.85384 0.884407 0
M  V30 2024 H 183.556 -3.78613 -0.78669 0
M  V30 2025 H 185.245 -4.03408 -0.449087 0
M  V30 2026 H 186.011 -4.41627 2.00476 0
M  V30 2027 H 181.89 -4.54266 0.785078 0
M  V30 2028 H 185.434 -5.68517 4.04269 0
M  V30 2029 H 181.331 -5.8092 2.81429 0
M  V30 2030 H 182.099 -6.71288 4.6831 0
M  V30 2031 N 184.763 -0.387143 -1.52771 0
M  V30 2032 C 186.174 0.0873634 -1.86495 0
M  V30 2033 C 186.525 1.46336 -1.30691 0
M  V30 2034 O 185.65 2.068 -0.637409 0
M  V30 2035 C 186.245 0.165305 -3.38396 0
M  V30 2036 C 184.804 0.584101 -3.7184 0
M  V30 2037 C 183.951 -0.255279 -2.76122 0
M  V30 2038 H 186.902 -0.605104 -1.46711 0
M  V30 2039 H 186.923 0.984848 -3.67534 0
M  V30 2040 H 186.435 -0.836301 -3.78982 0
M  V30 2041 H 184.536 1.59315 -3.36823 0
M  V30 2042 H 184.649 0.343749 -4.77865 0
M  V30 2043 H 183.013 0.279126 -2.53166 0
M  V30 2044 H 183.796 -1.25482 -3.19545 0
M  V30 2045 N 186.241 1.57166 -0.116904 0
M  V30 2046 C 187.191 2.11756 0.845178 0
M  V30 2047 C 188.175 1.03783 1.22955 0
M  V30 2048 O 189.367 1.3002 1.20099 0
M  V30 2049 C 186.496 2.71886 2.09602 0
M  V30 2050 C 185.582 3.86937 1.7361 0
M  V30 2051 N 185.973 4.94073 1.08284 0
M  V30 2052 C 184.271 3.97082 2.03082 0
M  V30 2053 C 184.972 5.74477 0.913855 0
M  V30 2054 N 183.948 5.2423 1.43818 0
M  V30 2055 H 187.75 2.91967 0.336523 0
M  V30 2056 H 185.264 1.62174 0.0856332 0
M  V30 2057 H 187.261 3.09338 2.79492 0
M  V30 2058 H 185.921 1.93138 2.61013 0
M  V30 2059 H 186.932 5.12483 0.747067 0
M  V30 2060 H 183.609 3.29372 2.56554 0
M  V30 2061 H 184.999 6.70701 0.40125 0
M  V30 2062 N 187.719 -0.156864 1.56817 0
M  V30 2063 C 189.135 -0.50916 1.5126 0
M  V30 2064 C 189.335 -1.83897 0.823658 0
M  V30 2065 O 188.391 -2.49469 0.390055 0
M  V30 2066 C 189.704 -0.52857 2.96018 0
M  V30 2067 C 191.252 -0.614771 3.06903 0
M  V30 2068 C 191.727 -0.664938 4.53147 0
M  V30 2069 N 193.218 -0.727433 4.57452 0
M  V30 2070 C 193.953 -0.787067 5.67973 0
M  V30 2071 N 193.449 -0.806649 6.88088 0
M  V30 2072 N 195.242 -0.827195 5.5598 0
M  V30 2073 H 187.393 0.714935 2.00006 0
M  V30 2074 H 189.656 0.259526 0.911784 0
M  V30 2075 H 189.362 0.380154 3.49639 0
M  V30 2076 H 189.236 -1.36998 3.51442 0
M  V30 2077 H 191.623 -1.51392 2.53307 0
M  V30 2078 H 191.704 0.253597 2.5454 0
M  V30 2079 H 191.348 0.230011 5.07379 0
M  V30 2080 H 191.278 -1.54966 5.03282 0
M  V30 2081 H 193.769 -0.719998 3.70978 0
M  V30 2082 H 194.082 -0.853727 7.6807 0
M  V30 2083 H 192.427 -0.774687 6.90669 0
M  V30 2084 H 195.618 -0.808998 4.61056 0
M  V30 2085 H 195.791 -0.870206 6.4213 0
M  V30 2086 N 189.197 -1.51736 -0.425897 0
M  V30 2087 C 190.145 -1.74464 -1.53834 0
M  V30 2088 C 191.139 -0.611241 -1.57988 0
M  V30 2089 O 192.345 -0.792899 -1.61596 0
M  V30 2090 H 188.72 -0.551437 -0.511293 0
M  V30 2091 H 190.691 -2.67694 -1.31843 0
M  V30 2092 C 189.44 -1.8972 -2.91379 0
M  V30 2093 H 188.763 -2.76344 -2.88919 0
M  V30 2094 H 190.203 -2.09629 -3.68553 0
M  V30 2095 C 188.662 -0.65992 -3.30374 0
M  V30 2096 O 189.192 0.180083 -4.01296 0
M  V30 2097 N 187.398 -0.500677 -2.86254 0
M  V30 2098 H 186.945 -1.18532 -2.28709 0
M  V30 2099 H 186.903 0.325903 -3.12706 0
M  V30 2100 N 190.675 0.682077 -1.42076 0
M  V30 2101 C 191.922 1.44215 -1.42156 0
M  V30 2102 C 192.25 1.94468 -0.0354186 0
M  V30 2103 O 191.505 1.70816 0.955002 0
M  V30 2104 C 191.804 2.66036 -2.38662 0
M  V30 2105 C 191.47 2.34366 -3.85206 0
M  V30 2106 C 190.132 2.25439 -4.25124 0
M  V30 2107 C 192.484 2.08513 -4.77673 0
M  V30 2108 C 189.812 1.88775 -5.55501 0
M  V30 2109 C 192.164 1.73354 -6.08384 0
M  V30 2110 C 190.828 1.62933 -6.47309 0
M  V30 2111 H 190.098 0.527718 -0.520187 0
M  V30 2112 H 192.745 0.778387 -1.74967 0
M  V30 2113 H 191.05 3.3741 -1.99152 0
M  V30 2114 H 192.747 3.24205 -2.35991 0
M  V30 2115 H 189.337 2.42213 -3.53597 0
M  V30 2116 H 193.521 2.14346 -4.47626 0
M  V30 2117 H 188.777 1.7927 -5.84527 0
M  V30 2118 H 192.951 1.52373 -6.79526 0
M  V30 2119 H 190.578 1.34292 -7.48244 0
M  V30 2120 N 192.153 1.28127 0.917671 0
M  V30 2121 C 193.085 1.07517 2.02417 0
M  V30 2122 C 194.098 0.0281099 1.62776 0
M  V30 2123 O 195.287 0.270748 1.76435 0
M  V30 2124 C 192.387 0.610957 3.33347 0
M  V30 2125 C 191.56 1.73255 4.01624 0
M  V30 2126 C 190.619 1.26238 5.10833 0
M  V30 2127 O 189.645 1.96389 5.34247 0
M  V30 2128 N 190.847 0.123448 5.80369 0
M  V30 2129 H 193.612 2.02806 2.20658 0
M  V30 2130 H 191.173 1.19827 1.08871 0
M  V30 2131 H 193.165 0.280101 4.0373 0
M  V30 2132 H 191.735 -0.24898 3.11607 0
M  V30 2133 H 190.955 2.23319 3.24842 0
M  V30 2134 H 192.243 2.48503 4.43986 0
M  V30 2135 H 191.641 -0.461847 5.63812 0
M  V30 2136 H 190.198 -0.148158 6.51632 0
M  V30 2137 N 193.631 -1.12557 1.10312 0
M  V30 2138 C 194.541 -2.21841 0.763142 0
M  V30 2139 C 195.557 -1.72354 -0.238801 0
M  V30 2140 O 196.733 -2.01249 -0.0778746 0
M  V30 2141 C 193.798 -3.46131 0.198632 0
M  V30 2142 C 192.859 -4.10464 1.25769 0
M  V30 2143 C 192.092 -5.28821 0.72002 0
M  V30 2144 O 192.315 -5.6859 -0.453993 0
M  V30 2145 O 191.249 -5.83437 1.47935 0
M  V30 2146 H 195.075 -2.53312 1.67532 0
M  V30 2147 H 192.66 -1.20867 0.878157 0
M  V30 2148 H 194.542 -4.2125 -0.112401 0
M  V30 2149 H 193.217 -3.16338 -0.686419 0
M  V30 2150 H 192.124 -3.3713 1.62156 0
M  V30 2151 H 193.457 -4.44408 2.11571 0
M  V30 2152 N 195.109 -0.891671 -1.2995 0
M  V30 2153 C 196.019 -0.367691 -2.31701 0
M  V30 2154 C 197.035 0.533486 -1.6562 0
M  V30 2155 O 198.211 0.424997 -1.96865 0
M  V30 2156 C 195.276 0.403406 -3.44345 0
M  V30 2157 C 194.337 -0.528328 -4.26037 0
M  V30 2158 C 193.57 0.206063 -5.33302 0
M  V30 2159 O 193.793 1.43119 -5.52153 0
M  V30 2160 O 192.727 -0.447281 -6.00236 0
M  V30 2161 H 196.553 -1.21163 -2.78484 0
M  V30 2162 H 194.138 -0.655725 -1.34241 0
M  V30 2163 H 196.02 0.839753 -4.12948 0
M  V30 2164 H 194.695 1.22354 -2.99685 0
M  V30 2165 H 193.602 -1.01362 -3.60106 0
M  V30 2166 H 194.935 -1.31465 -4.74318 0
M  V30 2167 N 196.587 1.43421 -0.653314 0
M  V30 2168 C 197.836 2.01032 -0.164076 0
M  V30 2169 C 198.149 1.52147 1.22926 0
M  V30 2170 O 199.355 2.02031 1.81371 0
M  V30 2171 C 197.811 3.59082 -0.24252 0
M  V30 2172 C 197.419 4.1696 -1.63855 0
M  V30 2173 C 199.163 4.24079 0.18911 0
M  V30 2174 C 197.07 5.67304 -1.67092 0
M  V30 2175 H 196 0.751798 -0.0575769 0
M  V30 2176 H 198.651 1.6439 -0.815362 0
M  V30 2177 H 197.033 3.93125 0.476276 0
M  V30 2178 H 198.207 3.94416 -2.38271 0
M  V30 2179 H 196.522 3.64335 -2.01616 0
M  V30 2180 H 199.119 5.34381 0.184775 0
M  V30 2181 H 199.462 3.98005 1.22056 0
M  V30 2182 H 199.995 3.94918 -0.477938 0
M  V30 2183 H 196.734 5.98145 -2.68146 0
M  V30 2184 H 196.254 5.91904 -0.970014 0
M  V30 2185 H 197.933 6.31344 -1.4147 0
M  V30 2186 N 198.065 0.39524 1.52563 0
M  V30 2187 C 198.975 -0.444232 2.30356 0
M  V30 2188 C 199.991 -1.06615 1.37511 0
M  V30 2189 O 201.167 -1.07067 1.70583 0
M  V30 2190 C 198.232 -1.55315 3.09964 0
M  V30 2191 C 197.293 -0.955734 4.18526 0
M  V30 2192 C 196.526 -2.01181 4.9433 0
M  V30 2193 O 196.749 -3.22781 4.70285 0
M  V30 2194 O 195.683 -1.62579 5.79527 0
M  V30 2195 H 199.509 0.189667 3.03107 0
M  V30 2196 H 197.094 0.1588 1.48554 0
M  V30 2197 H 198.976 -2.19724 3.59582 0
M  V30 2198 H 197.651 -2.17191 2.4002 0
M  V30 2199 H 196.558 -0.274743 3.7309 0
M  V30 2200 H 197.891 -0.381109 4.90722 0
M  V30 2201 N 199.544 -1.57102 0.125237 0
M  V30 2202 C 200.791 -1.95407 -0.531248 0
M  V30 2203 C 201.119 -1.0089 -1.66287 0
M  V30 2204 O 200.374 -0.0339431 -1.95671 0
M  V30 2205 C 200.673 -3.40096 -1.09862 0
M  V30 2206 C 200.339 -4.50815 -0.0876989 0
M  V30 2207 C 199.001 -4.80824 0.19026 0
M  V30 2208 C 201.353 -5.17724 0.600902 0
M  V30 2209 C 198.681 -5.75058 1.163 0
M  V30 2210 C 201.033 -6.13005 1.56231 0
M  V30 2211 C 199.697 -6.41403 1.8482 0
M  V30 2212 H 198.967 -0.715046 -0.194397 0
M  V30 2213 H 201.614 -1.90373 0.207463 0
M  V30 2214 H 199.919 -3.41855 -1.91422 0
M  V30 2215 H 201.616 -3.6705 -1.61478 0
M  V30 2216 H 198.206 -4.27444 -0.314528 0
M  V30 2217 H 202.39 -4.94691 0.399333 0
M  V30 2218 H 197.646 -5.95362 1.39117 0
M  V30 2219 H 201.82 -6.63934 2.10153 0
M  V30 2220 H 199.447 -7.14229 2.60349 0
M  V30 2221 N 201.022 0.148545 -1.56898 0
M  V30 2222 C 201.952 1.18524 -2.01182 0
M  V30 2223 C 202.933 1.4489 -0.891123 0
M  V30 2224 O 204.118 1.55836 -1.15882 0
M  V30 2225 C 201.248 2.51879 -2.39112 0
M  V30 2226 C 200.202 2.40038 -3.54353 0
M  V30 2227 C 199.528 3.78089 -3.78091 0
M  V30 2228 C 200.828 1.88577 -4.87069 0
M  V30 2229 H 202.522 0.817029 -2.88036 0
M  V30 2230 H 200.068 0.391575 -1.38574 0
M  V30 2231 H 202.021 3.24627 -2.68692 0
M  V30 2232 H 200.745 2.90532 -1.49193 0
M  V30 2233 H 199.404 1.69742 -3.24936 0
M  V30 2234 H 199.052 4.14175 -2.85426 0
M  V30 2235 H 198.752 3.71028 -4.55645 0
M  V30 2236 H 200.276 4.52387 -4.10095 0
M  V30 2237 H 201.69 2.51117 -5.15377 0
M  V30 2238 H 200.087 1.9241 -5.68417 0
M  V30 2239 H 201.157 0.84136 -4.77545 0
M  V30 2240 N 202.5 1.5196 0.417844 0
M  V30 2241 C 203.448 1.75278 1.52907 0
M  V30 2242 C 204.442 0.619611 1.57662 0
M  V30 2243 O 205.648 0.801457 1.61173 0
M  V30 2244 H 202.023 0.554141 0.508362 0
M  V30 2245 H 203.994 2.68389 1.30422 0
M  V30 2246 C 202.743 1.91262 2.90369 0
M  V30 2247 H 202.066 2.77872 2.8745 0
M  V30 2248 H 203.506 2.11581 3.67436 0
M  V30 2249 C 201.965 0.677431 3.30019 0
M  V30 2250 O 202.495 -0.158799 4.01386 0
M  V30 2251 N 200.701 0.515851 2.85985 0
M  V30 2252 H 200.248 1.19744 2.28077 0
M  V30 2253 H 200.206 -0.309315 3.12875 0
M  V30 2254 N 203.978 -0.674533 1.42435 0
M  V30 2255 C 204.941 -1.76986 1.45632 0
M  V30 2256 C 205.941 -1.5708 0.343871 0
M  V30 2257 O 207.131 -1.63367 0.604709 0
M  V30 2258 C 204.263 -3.15623 1.28822 0
M  V30 2259 H 205.456 -1.75539 2.43158 0
M  V30 2260 H 203.009 -0.884189 1.28887 0
M  V30 2261 H 203.744 -3.22696 0.322193 0
M  V30 2262 H 203.529 -3.31475 2.09444 0
M  V30 2263 H 205.019 -3.95537 1.33942 0
M  V30 2264 N 205.456 -1.28612 -0.910864 0
M  V30 2265 C 206.705 -1.15311 -1.65488 0
M  V30 2266 C 207.018 0.296999 -1.93332 0
M  V30 2267 O 208.224 0.551168 -2.65847 0
M  V30 2268 C 206.68 -2.01599 -2.98137 0
M  V30 2269 C 206.288 -3.51367 -2.7793 0
M  V30 2270 C 208.032 -1.96993 -3.76024 0
M  V30 2271 C 205.939 -4.29797 -4.06237 0
M  V30 2272 H 204.869 -0.42796 -0.620779 0
M  V30 2273 H 207.52 -1.53166 -1.01057 0
M  V30 2274 H 205.902 -1.56603 -3.63719 0
M  V30 2275 H 207.076 -4.0434 -2.21011 0
M  V30 2276 H 205.391 -3.57529 -2.13452 0
M  V30 2277 H 207.988 -2.52856 -4.71135 0
M  V30 2278 H 208.331 -0.94733 -4.05378 0
M  V30 2279 H 208.864 -2.39973 -3.17266 0
M  V30 2280 H 205.603 -5.32648 -3.82055 0
M  V30 2281 H 205.123 -3.81596 -4.62757 0
M  V30 2282 H 206.802 -4.39869 -4.74473 0
M  V30 2283 N 206.934 1.1197 -1.10907 0
M  V30 2284 C 208.181 1.83588 -0.854507 0
M  V30 2285 C 208.509 1.84357 0.6199 0
M  V30 2286 O 207.764 1.28809 1.47332 0
M  V30 2287 C 208.063 3.30749 -1.35425 0
M  V30 2288 C 207.729 3.50146 -2.84093 0
M  V30 2289 C 206.391 3.55148 -3.2469 0
M  V30 2290 C 208.743 3.56857 -3.79872 0
M  V30 2291 C 206.071 3.6441 -4.59806 0
M  V30 2292 C 208.423 3.6765 -5.14797 0
M  V30 2293 C 207.087 3.7091 -5.54961 0
M  V30 2294 H 206.357 0.671795 -0.312686 0
M  V30 2295 H 209.004 1.32091 -1.38652 0
M  V30 2296 H 207.309 3.84703 -0.742361 0
M  V30 2297 H 209.006 3.8464 -1.1337 0
M  V30 2298 H 205.596 3.46919 -2.51685 0
M  V30 2299 H 209.78 3.52258 -3.49611 0
M  V30 2300 H 205.036 3.65208 -4.9034 0
M  V30 2301 H 209.21 3.71786 -5.88853 0
M  V30 2302 H 206.837 3.7784 -6.59652 0
M  V30 2303 N 208.412 0.89855 1.29475 0
M  V30 2304 C 209.823 0.572537 1.77705 0
M  V30 2305 C 210.174 -0.911778 1.73727 0
M  V30 2306 O 209.299 -1.71288 1.32247 0
M  V30 2307 C 209.894 1.03252 3.22683 0
M  V30 2308 C 208.453 0.757687 3.68695 0
M  V30 2309 C 207.6 1.20787 2.49612 0
M  V30 2310 H 210.551 1.08139 1.16153 0
M  V30 2311 H 210.572 0.367307 3.78723 0
M  V30 2312 H 210.084 2.11285 3.25546 0
M  V30 2313 H 208.185 -0.310079 3.71308 0
M  V30 2314 H 208.298 1.35476 4.59547 0
M  V30 2315 H 206.662 0.626888 2.46865 0
M  V30 2316 H 207.445 2.29622 2.55203 0
M  V30 2317 N 209.89 -1.43072 0.660911 0
M  V30 2318 C 210.838 -2.32569 -0.0378199 0
M  V30 2319 C 211.832 -1.49046 -0.805092 0
M  V30 2320 O 213.038 -1.65206 -0.714624 0
M  V30 2321 H 209.413 -0.75136 -0.031019 0
M  V30 2322 H 211.384 -2.89216 0.734609 0
M  V30 2323 C 210.133 -3.33453 -0.985124 0
M  V30 2324 H 209.456 -3.97752 -0.404147 0
M  V30 2325 H 210.896 -3.98691 -1.44297 0
M  V30 2326 C 209.355 -2.64642 -2.08486 0
M  V30 2327 O 209.885 -2.46776 -3.16961 0
M  V30 2328 N 208.091 -2.23891 -1.8526 0
M  V30 2329 H 207.638 -2.38621 -0.970449 0
M  V30 2330 H 207.596 -1.78181 -2.59034 0
M  V30 2331 N 211.368 -0.403325 -1.52352 0
M  V30 2332 C 212.616 0.174003 -2.0135 0
M  V30 2333 C 212.937 1.46139 -1.29106 0
M  V30 2334 O 212.207 1.91448 -0.415253 0
M  V30 2335 H 210.787 0.0672911 -0.743963 0
M  V30 2336 H 213.449 -0.538235 -1.87321 0
M  V30 2337 H 212.545 0.374254 -3.09848 0
M  V30 2338 N 212.846 1.57033 -0.133567 0
M  V30 2339 C 213.809 2.14897 0.796995 0
M  V30 2340 C 214.809 1.0874 1.18458 0
M  V30 2341 O 215.999 1.34446 1.1077 0
M  V30 2342 C 213.131 2.70112 2.07973 0
M  V30 2343 H 214.324 2.98457 0.293873 0
M  V30 2344 H 211.877 1.55871 0.115787 0
M  V30 2345 H 212.612 1.9018 2.62682 0
M  V30 2346 H 212.397 3.47764 1.81115 0
M  V30 2347 H 213.887 3.14738 2.74462 0
M  V30 2348 N 214.325 -0.140222 1.56975 0
M  V30 2349 C 215.288 -1.15689 1.97861 0
M  V30 2350 C 216.288 -1.3549 0.865974 0
M  V30 2351 O 217.478 -1.32367 1.13246 0
M  V30 2352 C 214.61 -2.51582 2.30042 0
M  V30 2353 H 215.803 -0.805971 2.88867 0
M  V30 2354 H 213.356 -0.383801 1.51515 0
M  V30 2355 H 214.091 -2.91632 1.41849 0
M  V30 2356 H 213.876 -2.38569 3.11171 0
M  V30 2357 H 215.366 -3.24792 2.62488 0
M  V30 2358 N 215.803 -1.52179 -0.40978 0
M  V30 2359 C 217.033 -1.69807 -1.17682 0
M  V30 2360 C 217.441 -0.406908 -1.84773 0
M  V30 2361 O 216.784 0.626863 -1.72673 0
M  V30 2362 C 216.846 -2.77712 -2.2829 0
M  V30 2363 C 216.51 -4.19481 -1.81341 0
M  V30 2364 C 217.507 -5.03345 -1.30154 0
M  V30 2365 C 215.192 -4.65713 -1.88194 0
M  V30 2366 C 217.186 -6.31511 -0.864416 0
M  V30 2367 C 214.873 -5.93869 -1.44093 0
M  V30 2368 C 215.871 -6.76597 -0.933023 0
M  V30 2369 O 215.559 -8.02354 -0.49838 0
M  V30 2370 H 215.291 -0.572372 -0.359675 0
M  V30 2371 H 217.845 -1.99511 -0.488311 0
M  V30 2372 H 216.075 -2.43383 -3.00502 0
M  V30 2373 H 217.764 -2.83946 -2.90051 0
M  V30 2374 H 218.53 -4.68819 -1.24232 0
M  V30 2375 H 214.409 -4.01424 -2.26671 0
M  V30 2376 H 217.953 -6.96033 -0.467286 0
M  V30 2377 H 213.85 -6.27903 -1.49694 0
M  V30 2378 H 214.618 -8.16135 -0.621747 0
M  V30 2379 N 217.281 0.66697 -1.42791 0
M  V30 2380 C 218.521 1.43892 -1.4517 0
M  V30 2381 C 218.885 1.91877 -0.0687551 0
M  V30 2382 O 220.086 2.6878 0.0327455 0
M  V30 2383 C 218.357 2.59839 -2.45395 0
M  V30 2384 S 219.916 3.48572 -2.66539 0
M  V30 2385 H 216.734 0.491356 -0.513897 0
M  V30 2386 H 219.336 0.775656 -1.79454 0
M  V30 2387 H 218.04 2.22838 -3.44632 0
M  V30 2388 H 217.571 3.3103 -2.12562 0
M  V30 2389 H 219.586 4.56094 -1.95429 0
M  V30 2390 N 218.759 1.29093 0.90403 0
M  V30 2391 C 219.692 1.08176 2.00931 0
M  V30 2392 C 220.67 -0.005083 1.62599 0
M  V30 2393 O 221.854 0.144765 1.87943 0
M  V30 2394 C 218.981 0.645897 3.32484 0
M  V30 2395 C 218.027 1.73081 3.89801 0
M  V30 2396 S 218.86 3.32905 4.19446 0
M  V30 2397 C 220.016 2.91176 5.54046 0
M  V30 2398 H 220.249 2.01752 2.18365 0
M  V30 2399 H 217.782 1.13191 1.0501 0
M  V30 2400 H 219.74 0.401131 4.08535 0
M  V30 2401 H 218.401 -0.270188 3.12936 0
M  V30 2402 H 217.594 1.37768 4.84805 0
M  V30 2403 H 217.196 1.92888 3.20422 0
M  V30 2404 H 219.488 2.37952 6.34338 0
M  V30 2405 H 220.431 3.85014 5.94281 0
M  V30 2406 H 220.839 2.296 5.15698 0
M  V30 2407 N 220.237 -1.11381 1.11499 0
M  V30 2408 C 221.485 -1.8277 0.862524 0
M  V30 2409 C 221.806 -1.85097 -0.613534 0
M  V30 2410 O 221.076 -1.32198 -1.4457 0
M  V30 2411 H 219.656 -0.676823 0.316101 0
M  V30 2412 H 222.318 -1.34816 1.4075 0
M  V30 2413 H 221.414 -2.86614 1.23527 0
M  V30 2414 N 221.715 -0.905404 -1.28997 0
M  V30 2415 C 223.131 -0.60233 -1.47798 0
M  V30 2416 C 223.331 0.854645 -1.82478 0
M  V30 2417 O 222.387 1.63439 -1.92468 0
M  V30 2418 C 223.7 -1.53306 -2.58685 0
M  V30 2419 C 225.248 -1.53887 -2.72558 0
M  V30 2420 C 225.723 -2.45602 -3.86579 0
M  V30 2421 N 227.214 -2.43681 -3.93921 0
M  V30 2422 C 227.949 -3.11347 -4.81509 0
M  V30 2423 N 227.445 -3.88313 -5.73746 0
M  V30 2424 N 229.238 -3.00476 -4.75048 0
M  V30 2425 H 221.389 -1.84765 -1.04764 0
M  V30 2426 H 223.652 -0.792025 -0.520961 0
M  V30 2427 H 223.358 -2.57141 -2.39941 0
M  V30 2428 H 223.232 -1.25787 -3.55609 0
M  V30 2429 H 225.619 -0.507941 -2.90696 0
M  V30 2430 H 225.7 -1.85447 -1.76191 0
M  V30 2431 H 225.344 -3.48792 -3.69197 0
M  V30 2432 H 225.274 -2.11349 -4.82327 0
M  V30 2433 H 227.765 -1.87767 -3.27951 0
M  V30 2434 H 228.078 -4.36985 -6.37389 0
M  V30 2435 H 226.423 -3.92419 -5.73614 0
M  V30 2436 H 229.614 -2.39858 -4.01977 0
M  V30 2437 H 229.787 -3.53485 -5.43095 0
M  V30 2438 N 223.193 1.4272 -0.668489 0
M  V30 2439 C 224.126 2.28111 0.0637898 0
M  V30 2440 C 225.104 1.40705 0.814912 0
M  V30 2441 O 226.288 1.70146 0.81134 0
M  V30 2442 C 223.415 3.20429 1.0974 0
M  V30 2443 C 222.461 4.24197 0.442579 0
M  V30 2444 S 223.294 5.29563 -0.795173 0
M  V30 2445 C 224.45 6.25449 0.237516 0
M  V30 2446 H 224.683 2.8987 -0.660521 0
M  V30 2447 H 222.216 1.47456 -0.457821 0
M  V30 2448 H 224.174 3.74158 1.68868 0
M  V30 2449 H 222.835 2.57818 1.79411 0
M  V30 2450 H 222.028 4.88954 1.22227 0
M  V30 2451 H 221.63 3.73925 -0.0749554 0
M  V30 2452 H 223.922 6.68524 1.09915 0
M  V30 2453 H 224.865 7.07104 -0.375421 0
M  V30 2454 H 225.273 5.61511 0.580167 0
M  V30 2455 N 224.671 0.411399 1.52136 0
M  V30 2456 C 225.619 -0.427633 2.28635 0
M  V30 2457 C 226.613 -1.04383 1.33419 0
M  V30 2458 O 227.819 -0.981772 1.50868 0
M  V30 2459 H 224.194 -0.156689 0.735495 0
M  V30 2460 H 226.165 0.238761 2.97443 0
M  V30 2461 C 224.914 -1.53082 3.12188 0
M  V30 2462 H 224.237 -1.06601 3.85326 0
M  V30 2463 H 225.677 -2.09167 3.68816 0
M  V30 2464 C 224.136 -2.49946 2.25895 0
M  V30 2465 O 224.666 -3.53884 1.90076 0
M  V30 2466 N 222.872 -2.2021 1.8962 0
M  V30 2467 H 222.419 -1.35719 2.18948 0
M  V30 2468 H 222.377 -2.85266 1.32176 0
M  V30 2469 N 226.149 -1.5696 0.141893 0
M  V30 2470 C 227.374 -2.00754 -0.520838 0
M  V30 2471 C 227.799 -1.0213 -1.57959 0
M  V30 2472 O 227.157 0.00371324 -1.813 0
M  V30 2473 C 227.205 -3.43318 -1.10294 0
M  V30 2474 O 226.309 -3.47679 -2.21795 0
M  V30 2475 H 225.65 -0.651564 -0.127908 0
M  V30 2476 H 228.18 -2.03221 0.23712 0
M  V30 2477 H 228.19 -3.82012 -1.43287 0
M  V30 2478 H 226.865 -4.14608 -0.327574 0
M  V30 2479 H 225.442 -3.20824 -1.9007 0
M  V30 2480 N 227.627 0.131896 -1.57047 0
M  V30 2481 C 228.904 0.871495 -1.75112 0
M  V30 2482 C 229.284 1.9866 -0.713949 0
M  V30 2483 O 228.632 2.26965 0.264447 0
M  V30 2484 C 228.842 1.40007 -3.19686 0
M  V30 2485 C 230.19 1.85752 -3.81813 0
M  V30 2486 O 231.214 1.49715 -3.23209 0
M  V30 2487 O 230.073 2.5226 -4.84796 0
M  V30 2488 H 227.167 0.412919 -0.716538 0
M  V30 2489 H 229.713 0.116641 -1.69299 0
M  V30 2490 H 228.485 0.599404 -3.86682 0
M  V30 2491 H 228.108 2.218 -3.29986 0
M  V30 2492 N 229.106 1.52395 0.401703 0
M  V30 2493 C 230.346 1.68498 1.15705 0
M  V30 2494 C 230.71 0.409748 1.87577 0
M  V30 2495 O 231.911 0.446983 2.65058 0
M  V30 2496 C 230.182 2.87789 2.11924 0
M  V30 2497 S 231.741 3.24415 2.95466 0
M  V30 2498 H 228.559 0.593267 0.391862 0
M  V30 2499 H 231.161 1.90408 0.443282 0
M  V30 2500 H 229.865 3.7884 1.57824 0
M  V30 2501 H 229.396 2.68175 2.87829 0
M  V30 2502 H 231.411 2.73614 4.13944 0
M  V30 2503 N 230.584 -0.659388 1.43143 0
M  V30 2504 C 231.83 -1.41984 1.45644 0
M  V30 2505 C 232.185 -1.92245 0.0771718 0
M  V30 2506 O 231.478 -1.68976 -0.903205 0
M  V30 2507 C 231.672 -2.62206 2.42864 0
M  V30 2508 C 231.501 -2.23711 3.90107 0
M  V30 2509 C 230.271 -2.12332 4.58523 0
M  V30 2510 C 232.469 -1.84384 4.80112 0
M  V30 2511 N 230.451 -1.67102 5.9072 0
M  V30 2512 C 231.822 -1.5019 6.01534 0
M  V30 2513 C 233.877 -1.71512 4.67427 0
M  V30 2514 C 232.58 -1.04414 7.11681 0
M  V30 2515 C 234.606 -1.27142 5.77572 0
M  V30 2516 C 233.968 -0.938808 6.98116 0
M  V30 2517 H 230.067 -0.515448 0.588079 0
M  V30 2518 H 232.651 -0.759409 1.79279 0
M  V30 2519 H 230.822 -3.25917 2.11265 0
M  V30 2520 H 232.554 -3.28877 2.35843 0
M  V30 2521 H 229.309 -2.31893 4.12944 0
M  V30 2522 H 229.733 -1.46866 6.60878 0
M  V30 2523 H 234.375 -1.95868 3.74694 0
M  V30 2524 H 232.093 -0.788061 8.04248 0
M  V30 2525 H 235.679 -1.17681 5.69774 0
M  V30 2526 H 234.559 -0.6007 7.81896 0
M  V30 2527 N 232.062 -1.29571 -0.897171 0
M  V30 2528 C 233.292 -1.20408 -1.67886 0
M  V30 2529 C 233.7 0.237429 -1.87704 0
M  V30 2530 O 233.043 1.17048 -1.41582 0
M  V30 2531 C 233.105 -1.84887 -3.08314 0
M  V30 2532 C 232.769 -3.34189 -3.11716 0
M  V30 2533 C 233.766 -4.30374 -2.91675 0
M  V30 2534 C 231.451 -3.75431 -3.33701 0
M  V30 2535 C 233.445 -5.65776 -2.93557 0
M  V30 2536 C 231.132 -5.10955 -3.35214 0
M  V30 2537 C 232.13 -6.05938 -3.15164 0
M  V30 2538 O 231.818 -7.38987 -3.1647 0
M  V30 2539 H 231.55 -0.418289 -0.531046 0
M  V30 2540 H 234.104 -1.71514 -1.13014 0
M  V30 2541 H 232.334 -1.28295 -3.64798 0
M  V30 2542 H 234.023 -1.70011 -3.6858 0
M  V30 2543 H 234.789 -3.99844 -2.74499 0
M  V30 2544 H 230.668 -3.01953 -3.48347 0
M  V30 2545 H 234.212 -6.39889 -2.77826 0
M  V30 2546 H 230.109 -5.4113 -3.51922 0
M  V30 2547 H 230.877 -7.47823 -3.3272 0
M  V30 2548 N 233.54 1.10788 -1.12088 0
M  V30 2549 C 234.47 2.19083 -0.807755 0
M  V30 2550 C 235.451 1.6858 0.226859 0
M  V30 2551 O 236.636 1.93997 0.0888475 0
M  V30 2552 C 233.766 3.46344 -0.257576 0
M  V30 2553 C 232.72 4.101 -1.22483 0
M  V30 2554 C 232.046 5.32016 -0.535052 0
M  V30 2555 C 233.346 4.54236 -2.57811 0
M  V30 2556 H 235.04 2.45534 -1.71328 0
M  V30 2557 H 232.586 1.1801 -0.825205 0
M  V30 2558 H 234.539 4.21392 -0.0262679 0
M  V30 2559 H 233.263 3.19373 0.683278 0
M  V30 2560 H 231.922 3.37054 -1.44189 0
M  V30 2561 H 231.57 5.01319 0.410827 0
M  V30 2562 H 231.27 5.75625 -1.18024 0
M  V30 2563 H 232.794 6.09799 -0.312695 0
M  V30 2564 H 234.208 5.20575 -2.40155 0
M  V30 2565 H 232.605 5.08682 -3.18375 0
M  V30 2566 H 233.675 3.6734 -3.16528 0
M  V30 2567 N 235.018 0.912232 1.28515 0
M  V30 2568 C 236.248 0.559604 1.98877 0
M  V30 2569 C 236.656 -0.863113 1.68366 0
M  V30 2570 O 235.999 -1.58304 0.931969 0
M  V30 2571 C 236.061 0.68703 3.52874 0
M  V30 2572 C 235.725 2.07901 4.06972 0
M  V30 2573 C 236.722 3.05157 4.20922 0
M  V30 2574 C 234.407 2.39178 4.417 0
M  V30 2575 C 236.401 4.31806 4.68852 0
M  V30 2576 C 234.088 3.66068 4.89324 0
M  V30 2577 C 235.086 4.62195 5.02856 0
M  V30 2578 O 234.774 5.86829 5.49442 0
M  V30 2579 H 234.506 0.212191 0.641834 0
M  V30 2580 H 237.06 1.22712 1.64715 0
M  V30 2581 H 235.29 -0.0375486 3.86682 0
M  V30 2582 H 236.979 0.341727 4.04459 0
M  V30 2583 H 237.745 2.82311 3.94367 0
M  V30 2584 H 233.624 1.65109 4.30418 0
M  V30 2585 H 237.168 5.06842 4.79329 0
M  V30 2586 H 233.065 3.88739 5.15318 0
M  V30 2587 H 233.833 5.89597 5.6773 0
M  V30 2588 N 236.496 -1.42363 0.676048 0
M  V30 2589 C 237.724 -2.05859 0.207268 0
M  V30 2590 C 238.139 -1.50796 -1.13605 0
M  V30 2591 O 237.496 -0.648265 -1.70598 0
M  V30 2592 C 237.547 -3.61248 0.134975 0
M  V30 2593 O 237.268 -4.1427 1.42521 0
M  V30 2594 C 238.769 -4.41859 -0.357151 0
M  V30 2595 H 235.989 -0.663431 0.100503 0
M  V30 2596 H 238.533 -1.82479 0.923136 0
M  V30 2597 H 236.688 -3.83735 -0.531588 0
M  V30 2598 H 237.102 -5.0815 1.29939 0
M  V30 2599 H 238.576 -5.50847 -0.356641 0
M  V30 2600 H 239.053 -4.16536 -1.39264 0
M  V30 2601 H 239.659 -4.24392 0.27772 0
M  V30 2602 N 237.974 -0.419461 -1.51915 0
M  V30 2603 C 238.904 0.391813 -2.30189 0
M  V30 2604 C 239.885 1.03699 -1.34836 0
M  V30 2605 O 241.07 1.04403 -1.63748 0
M  V30 2606 C 238.2 1.50312 -3.13087 0
M  V30 2607 C 237.154 0.9824 -4.16573 0
M  V30 2608 C 236.48 2.18809 -4.8788 0
M  V30 2609 C 237.78 0.0292356 -5.22292 0
M  V30 2610 H 239.474 -0.26135 -2.98257 0
M  V30 2611 H 237.02 -0.127134 -1.43438 0
M  V30 2612 H 238.973 2.07773 -3.66617 0
M  V30 2613 H 237.697 2.18431 -2.42807 0
M  V30 2614 H 236.356 0.430119 -3.64068 0
M  V30 2615 H 236.004 2.85507 -4.14119 0
M  V30 2616 H 235.704 1.84615 -5.57845 0
M  V30 2617 H 237.228 2.76858 -5.44226 0
M  V30 2618 H 238.642 0.512976 -5.71 0
M  V30 2619 H 237.039 -0.2244 -5.9968 0
M  V30 2620 H 238.109 -0.912931 -4.76228 0
M  V30 2621 N 239.452 1.56882 -0.150215 0
M  V30 2622 C 240.729 1.87844 0.545327 0
M  V30 2623 C 241.109 1.0567 1.82749 0
M  V30 2624 O 240.457 0.144442 2.28043 0
M  V30 2625 C 240.667 3.39526 0.80767 0
M  V30 2626 C 242.015 4.08814 1.14703 0
M  V30 2627 O 243.039 3.44723 0.896917 0
M  V30 2628 O 241.898 5.22004 1.61784 0
M  V30 2629 H 238.992 0.778677 0.278553 0
M  V30 2630 H 241.538 1.68666 -0.187068 0
M  V30 2631 H 240.31 3.91173 -0.0996096 0
M  V30 2632 H 239.933 3.64243 1.59413 0
M  V30 2633 N 240.93 -0.123565 1.57115 0
M  V30 2634 C 242.177 -0.832153 1.84612 0
M  V30 2635 C 242.505 -1.80093 0.734627 0
M  V30 2636 O 241.76 -1.93766 -0.27442 0
M  V30 2637 C 242.059 -1.62016 3.18568 0
M  V30 2638 C 241.725 -0.796084 4.43817 0
M  V30 2639 C 240.387 -0.568816 4.77826 0
M  V30 2640 C 242.739 -0.221364 5.2073 0
M  V30 2641 C 240.067 0.243499 5.86194 0
M  V30 2642 C 242.419 0.578117 6.29953 0
M  V30 2643 C 241.083 0.815744 6.62497 0
M  V30 2644 H 240.353 -0.304507 0.675542 0
M  V30 2645 H 243 -0.0947248 1.91266 0
M  V30 2646 H 241.305 -2.42837 3.0747 0
M  V30 2647 H 243.002 -2.17231 3.37064 0
M  V30 2648 H 239.592 -0.983307 4.17168 0
M  V30 2649 H 243.776 -0.384173 4.94811 0
M  V30 2650 H 239.032 0.436871 6.09837 0
M  V30 2651 H 243.206 1.03046 6.88734 0
M  V30 2652 H 240.833 1.44701 7.46301 0
M  V30 2653 N 242.408 -1.52605 -0.393616 0
M  V30 2654 C 243.819 -1.59417 -0.971761 0
M  V30 2655 C 244.17 -0.444173 -1.91106 0
M  V30 2656 O 243.295 0.433382 -2.12016 0
M  V30 2657 C 243.89 -2.88936 -1.76921 0
M  V30 2658 C 242.449 -2.98175 -2.29714 0
M  V30 2659 C 241.596 -2.54491 -1.10135 0
M  V30 2660 H 244.547 -1.57751 -0.173317 0
M  V30 2661 H 244.568 -2.75163 -2.62804 0
M  V30 2662 H 244.08 -3.72616 -1.08532 0
M  V30 2663 H 242.181 -2.19024 -3.01429 0
M  V30 2664 H 242.294 -4.02726 -2.59517 0
M  V30 2665 H 240.658 -2.08702 -1.45999 0
M  V30 2666 H 241.441 -3.4056 -0.432874 0
M  V30 2667 N 243.887 0.651787 -1.4349 0
M  V30 2668 C 244.797 1.79368 -1.5121 0
M  V30 2669 C 245.813 1.69361 -0.399093 0
M  V30 2670 O 246.989 1.90505 -0.653431 0
M  V30 2671 C 244.054 3.15653 -1.43401 0
M  V30 2672 C 243.115 3.37446 -2.65384 0
M  V30 2673 C 242.348 4.67229 -2.57939 0
M  V30 2674 O 242.571 5.46676 -1.62792 0
M  V30 2675 O 241.505 4.90773 -3.48462 0
M  V30 2676 H 245.331 1.7581 -2.47638 0
M  V30 2677 H 242.916 0.810447 -1.25507 0
M  V30 2678 H 244.798 3.96935 -1.41494 0
M  V30 2679 H 243.473 3.19798 -0.501085 0
M  V30 2680 H 242.38 2.55923 -2.72863 0
M  V30 2681 H 243.713 3.38148 -3.57654 0
M  V30 2682 N 245.365 1.30045 0.890287 0
M  V30 2683 C 246.59 1.21598 1.68014 0
M  V30 2684 C 247.015 -0.218678 1.86825 0
M  V30 2685 O 246.373 -1.15756 1.39536 0
M  V30 2686 C 246.421 1.94434 3.03691 0
M  V30 2687 O 245.525 1.2678 3.92429 0
M  V30 2688 H 244.866 0.420856 0.513592 0
M  V30 2689 H 247.396 1.71775 1.11151 0
M  V30 2690 H 247.406 2.03251 3.5377 0
M  V30 2691 H 246.081 2.98777 2.89318 0
M  V30 2692 H 244.658 1.26282 3.50866 0
M  V30 2693 N 246.843 -1.10192 1.12674 0
M  V30 2694 C 248.259 -1.34235 0.863317 0
M  V30 2695 C 248.459 -1.95062 -0.505277 0
M  V30 2696 O 247.515 -2.19192 -1.25345 0
M  V30 2697 C 248.828 -2.2616 1.98172 0
M  V30 2698 C 250.376 -2.3969 2.0129 0
M  V30 2699 C 250.851 -3.34946 3.1237 0
M  V30 2700 N 252.342 -3.42515 3.11829 0
M  V30 2701 C 253.077 -4.16199 3.94419 0
M  V30 2702 N 252.573 -4.92747 4.87004 0
M  V30 2703 N 254.366 -4.11843 3.82547 0
M  V30 2704 H 246.517 -0.690798 2.00853 0
M  V30 2705 H 248.78 -0.366774 0.874174 0
M  V30 2706 H 248.486 -1.8868 2.96804 0
M  V30 2707 H 248.36 -3.26488 1.88906 0
M  V30 2708 H 250.747 -2.76438 1.03276 0
M  V30 2709 H 250.828 -1.39169 2.14629 0
M  V30 2710 H 250.472 -2.98923 4.10619 0
M  V30 2711 H 250.402 -4.35353 2.96269 0
M  V30 2712 H 252.893 -2.87926 2.44759 0
M  V30 2713 H 253.206 -5.46376 5.46528 0
M  V30 2714 H 251.551 -4.91862 4.91016 0
M  V30 2715 H 254.742 -3.51136 3.0955 0
M  V30 2716 H 254.915 -4.69007 4.47142 0
M  V30 2717 N 248.321 -0.919034 -1.28029 0
M  V30 2718 C 249.567 -0.555757 -1.95036 0
M  V30 2719 C 249.9 0.899198 -1.72128 0
M  V30 2720 O 249.175 1.64023 -1.04531 0
M  V30 2721 C 249.458 -0.872024 -3.49382 0
M  V30 2722 C 249.311 -2.3801 -3.81669 0
M  V30 2723 C 250.63 -0.37185 -4.38526 0
M  V30 2724 H 247.749 -0.203386 -0.708381 0
M  V30 2725 H 250.391 -1.14924 -1.51303 0
M  V30 2726 H 248.541 -0.366946 -3.86763 0
M  V30 2727 H 250.213 -2.9562 -3.54128 0
M  V30 2728 H 248.456 -2.83289 -3.28526 0
M  V30 2729 H 249.127 -2.55192 -4.8947 0
M  V30 2730 H 251.603 -0.804602 -4.08247 0
M  V30 2731 H 250.479 -0.622173 -5.45362 0
M  V30 2732 H 250.74 0.727934 -4.36066 0
M  V30 2733 N 249.799 1.42003 -0.683588 0
M  V30 2734 C 251.048 2.00638 -0.206681 0
M  V30 2735 C 251.361 1.5472 1.19671 0
M  V30 2736 O 252.567 2.05833 1.77045 0
M  V30 2737 C 251.023 3.58487 -0.318632 0
M  V30 2738 C 250.631 4.1339 -1.72663 0
M  V30 2739 C 252.375 4.24384 0.0991141 0
M  V30 2740 C 250.282 5.63633 -1.79087 0
M  V30 2741 H 249.212 0.750408 -0.0735107 0
M  V30 2742 H 251.863 1.62624 -0.850048 0
M  V30 2743 H 250.245 3.94047 0.392781 0
M  V30 2744 H 251.419 3.89273 -2.46583 0
M  V30 2745 H 249.734 3.59976 -2.09299 0
M  V30 2746 H 252.331 5.34652 0.0713833 0
M  V30 2747 H 252.674 4.00505 1.13586 0
M  V30 2748 H 253.207 3.93816 -0.561599 0
M  V30 2749 H 249.946 5.92323 -2.80774 0
M  V30 2750 H 249.466 5.89714 -1.09535 0
M  V30 2751 H 251.145 6.28201 -1.5483 0
M  V30 2752 N 251.277 0.427512 1.51691 0
M  V30 2753 C 252.502 -0.143601 2.06902 0
M  V30 2754 C 252.927 -1.36536 1.29382 0
M  V30 2755 O 252.285 -1.78289 0.329043 0
M  V30 2756 C 252.333 -0.454207 3.57728 0
M  V30 2757 O 251.437 -1.54228 3.82475 0
M  V30 2758 H 250.778 -0.00617128 0.663971 0
M  V30 2759 H 253.308 0.606014 1.95419 0
M  V30 2760 H 253.318 -0.707525 4.01818 0
M  V30 2761 H 251.993 0.438812 4.13579 0
M  V30 2762 H 250.57 -1.2797 3.50254 0
M  V30 2763 N 252.755 -1.56801 0.158532 0
M  V30 2764 C 253.687 -2.14488 -0.807923 0
M  V30 2765 C 254.7 -1.09721 -1.20271 0
M  V30 2766 O 255.889 -1.36956 -1.14478 0
M  V30 2767 C 252.989 -2.66217 -2.09718 0
M  V30 2768 C 252.162 -3.95507 -1.86796 0
M  V30 2769 C 251.221 -4.3243 -2.99818 0
M  V30 2770 O 250.247 -5.00543 -2.71008 0
M  V30 2771 N 251.449 -3.92947 -4.27285 0
M  V30 2772 H 254.214 -2.98042 -0.314816 0
M  V30 2773 H 251.775 -1.61881 -0.0246692 0
M  V30 2774 H 253.767 -2.87924 -2.84398 0
M  V30 2775 H 252.337 -1.87324 -2.50257 0
M  V30 2776 H 251.557 -3.82309 -0.96089 0
M  V30 2777 H 252.845 -4.79972 -1.68833 0
M  V30 2778 H 252.243 -3.38087 -4.53557 0
M  V30 2779 H 250.8 -4.19681 -4.9871 0
M  V30 2780 N 254.233 0.115231 -1.57178 0
M  V30 2781 C 255.644 0.67197 -1.74188 0
M  V30 2782 C 255.995 1.80125 -0.777777 0
M  V30 2783 O 255.12 2.16346 0.0484376 0
M  V30 2784 C 255.715 1.22573 -3.1585 0
M  V30 2785 C 254.274 1.72872 -3.34353 0
M  V30 2786 C 253.421 0.629972 -2.70049 0
M  V30 2787 H 256.372 -0.110712 -1.58313 0
M  V30 2788 H 256.393 2.09535 -3.17609 0
M  V30 2789 H 255.905 0.403598 -3.85996 0
M  V30 2790 H 254.006 2.5755 -2.69256 0
M  V30 2791 H 254.119 1.83557 -4.42542 0
M  V30 2792 H 252.483 1.0645 -2.31388 0
M  V30 2793 H 253.266 -0.181241 -3.42821 0
M  V30 2794 N 255.711 1.52812 0.385517 0
M  V30 2795 C 256.988 1.5861 1.14465 0
M  V30 2796 C 257.368 0.381402 2.07626 0
M  V30 2797 O 256.716 -0.629999 2.19643 0
M  V30 2798 C 256.926 2.92664 1.90128 0
M  V30 2799 C 258.274 3.46526 2.45367 0
M  V30 2800 O 259.298 2.94562 2.0028 0
M  V30 2801 O 258.157 4.37323 3.27736 0
M  V30 2802 H 255.251 0.639855 0.523941 0
M  V30 2803 H 257.797 1.65149 0.390389 0
M  V30 2804 H 256.569 3.71788 1.22022 0
M  V30 2805 H 256.192 2.89527 2.72507 0
M  V30 2806 N 257.189 -0.644168 1.43834 0
M  V30 2807 C 258.121 -1.76955 1.45669 0
M  V30 2808 C 259.134 -1.58956 0.351666 0
M  V30 2809 O 260.323 -1.6751 0.616644 0
M  V30 2810 C 257.423 -3.14507 1.26248 0
M  V30 2811 C 256.596 -3.59083 2.49757 0
M  V30 2812 C 255.655 -4.75467 2.25427 0
M  V30 2813 O 254.681 -4.84444 2.98836 0
M  V30 2814 N 255.883 -5.66289 1.27661 0
M  V30 2815 H 258.648 -1.75856 2.42682 0
M  V30 2816 H 256.209 -0.828312 1.39106 0
M  V30 2817 H 258.201 -3.90067 1.0784 0
M  V30 2818 H 256.771 -3.10325 0.376478 0
M  V30 2819 H 255.991 -2.7387 2.8353 0
M  V30 2820 H 257.279 -3.85613 3.31934 0
M  V30 2821 H 256.677 -5.61718 0.670064 0
M  V30 2822 H 255.234 -6.41533 1.15234 0
M  V30 2823 N 258.668 -1.30515 -0.883378 0
M  V30 2824 C 259.896 -1.22359 -1.66841 0
M  V30 2825 C 260.311 0.213296 -1.87591 0
M  V30 2826 O 259.668 1.14075 -1.42454 0
M  V30 2827 C 259.719 -1.95011 -3.04389 0
M  V30 2828 O 259.44 -3.3309 -2.84575 0
M  V30 2829 C 260.941 -1.93532 -3.98824 0
M  V30 2830 H 258.161 -0.423371 -0.520575 0
M  V30 2831 H 260.705 -1.72167 -1.10357 0
M  V30 2832 H 258.86 -1.48997 -3.57601 0
M  V30 2833 H 259.274 -3.69907 -3.71846 0
M  V30 2834 H 260.748 -2.48902 -4.92699 0
M  V30 2835 H 261.225 -0.914627 -4.29571 0
M  V30 2836 H 261.831 -2.39364 -3.51547 0
M  V30 2837 N 260.146 1.09593 -1.13257 0
M  V30 2838 C 261.076 2.18214 -0.830946 0
M  V30 2839 C 262.057 1.68812 0.208966 0
M  V30 2840 O 263.242 1.9408 0.0682666 0
M  V30 2841 C 260.372 3.46051 -0.294296 0
M  V30 2842 C 259.326 4.08778 -1.26826 0
M  V30 2843 C 258.652 5.31419 -0.591449 0
M  V30 2844 C 259.952 4.51476 -2.62615 0
M  V30 2845 H 261.646 2.43703 -1.73923 0
M  V30 2846 H 259.192 1.17128 -0.837675 0
M  V30 2847 H 261.145 4.2134 -0.0709606 0
M  V30 2848 H 259.869 3.20079 0.649366 0
M  V30 2849 H 258.528 3.35505 -1.47756 0
M  V30 2850 H 258.176 5.01727 0.357633 0
M  V30 2851 H 257.876 5.74341 -1.24123 0
M  V30 2852 H 259.4 6.09433 -0.377355 0
M  V30 2853 H 260.814 5.17999 -2.45663 0
M  V30 2854 H 259.211 5.05277 -3.23752 0
M  V30 2855 H 260.281 3.63962 -3.20406 0
M  V30 2856 N 261.624 0.925811 1.2754 0
M  V30 2857 C 262.534 0.428993 2.30644 0
M  V30 2858 C 263.55 -0.489387 1.66976 0
M  V30 2859 O 264.726 -0.372653 1.97922 0
M  V30 2860 C 261.791 -0.311967 3.45294 0
M  V30 2861 C 260.852 0.641098 4.24486 0
M  V30 2862 C 260.085 -0.0645955 5.33661 0
M  V30 2863 O 260.308 -1.28429 5.55754 0
M  V30 2864 O 259.242 0.606265 5.98839 0
M  V30 2865 H 263.068 1.28504 2.75173 0
M  V30 2866 H 260.653 0.691086 1.32455 0
M  V30 2867 H 262.535 -0.729972 4.15029 0
M  V30 2868 H 261.21 -1.14365 3.02824 0
M  V30 2869 H 260.117 1.10874 3.57292 0
M  V30 2870 H 261.45 1.43995 4.70666 0
M  V30 2871 N 263.102 -1.41638 0.69111 0
M  V30 2872 C 264.351 -2.00526 0.217318 0
M  V30 2873 C 264.664 -1.55353 -1.18848 0
M  V30 2874 O 265.87 -2.06769 -1.75951 0
M  V30 2875 C 264.326 -3.58313 0.337639 0
M  V30 2876 C 263.934 -4.12469 1.74852 0
M  V30 2877 C 265.678 -4.24431 -0.0766066 0
M  V30 2878 C 263.585 -5.62675 1.82074 0
M  V30 2879 H 262.515 -0.750008 0.0774893 0
M  V30 2880 H 265.166 -1.6217 0.858661 0
M  V30 2881 H 263.548 -3.9425 -0.371879 0
M  V30 2882 H 264.722 -3.8796 2.48644 0
M  V30 2883 H 263.037 -3.58861 2.11205 0
M  V30 2884 H 265.634 -5.34683 -0.0430284 0
M  V30 2885 H 265.977 -4.01101 -1.1146 0
M  V30 2886 H 266.51 -3.93512 0.582476 0
M  V30 2887 H 263.249 -5.90826 2.83911 0
M  V30 2888 H 262.769 -5.89124 1.12661 0
M  V30 2889 H 264.448 -6.27371 1.58159 0
M  V30 2890 N 264.58 -0.43555 -1.51462 0
M  V30 2891 C 265.51 0.367376 -2.30592 0
M  V30 2892 C 266.491 1.02263 -1.35928 0
M  V30 2893 O 267.676 1.02661 -1.64847 0
M  V30 2894 C 264.806 1.46983 -3.14664 0
M  V30 2895 C 263.76 0.938161 -4.17591 0
M  V30 2896 C 263.086 2.13622 -4.90173 0
M  V30 2897 C 264.386 -0.0261621 -5.22293 0
M  V30 2898 H 266.08 -0.292969 -2.97963 0
M  V30 2899 H 263.626 -0.14234 -1.43295 0
M  V30 2900 H 265.579 2.03873 -3.688 0
M  V30 2901 H 264.303 2.15843 -2.4511 0
M  V30 2902 H 262.962 0.391481 -3.64504 0
M  V30 2903 H 262.61 2.81098 -4.17124 0
M  V30 2904 H 262.31 1.78688 -5.59772 0
M  V30 2905 H 263.834 2.7107 -5.47132 0
M  V30 2906 H 265.248 0.452384 -5.71512 0
M  V30 2907 H 263.645 -0.287992 -5.99409 0
M  V30 2908 H 264.715 -0.963391 -4.75233 0
M  V30 2909 N 266.058 1.56714 -0.166846 0
M  V30 2910 C 266.991 2.13577 0.80375 0
M  V30 2911 C 267.969 1.06464 1.22899 0
M  V30 2912 O 269.153 1.34413 1.32157 0
M  V30 2913 C 266.28 2.67168 2.0818 0
M  V30 2914 C 265.326 3.86612 1.80093 0
M  V30 2915 S 266.159 5.26565 0.97416 0
M  V30 2916 C 267.315 5.83558 2.26297 0
M  V30 2917 H 267.548 2.9557 0.320267 0
M  V30 2918 H 265.081 1.54326 0.0477555 0
M  V30 2919 H 267.039 2.98692 2.8159 0
M  V30 2920 H 265.7 1.85269 2.53642 0
M  V30 2921 H 264.893 4.22422 2.7491 0
M  V30 2922 H 264.495 3.55951 1.14781 0
M  V30 2923 H 266.787 5.962 3.21795 0
M  V30 2924 H 267.73 6.80731 1.94962 0
M  V30 2925 H 268.138 5.11944 2.37853 0
M  V30 2926 N 267.536 -0.106894 1.57237 0
M  V30 2927 C 268.761 -0.830287 1.90055 0
M  V30 2928 C 269.186 -1.72064 0.75998 0
M  V30 2929 O 268.544 -1.78982 -0.288991 0
M  V30 2930 C 268.592 -1.6295 3.21683 0
M  V30 2931 O 267.696 -2.73748 3.08441 0
M  V30 2932 H 267.037 -0.228855 0.623315 0
M  V30 2933 H 269.567 -0.085658 2.04421 0
M  V30 2934 H 269.577 -2.01621 3.54701 0
M  V30 2935 H 268.252 -0.975989 4.04286 0
M  V30 2936 H 266.829 -2.38192 2.86913 0
M  V30 2937 N 269.014 -1.53014 -0.377408 0
M  V30 2938 C 269.924 -1.81557 -1.48574 0
M  V30 2939 C 270.94 -0.703102 -1.59162 0
M  V30 2940 O 272.116 -0.99192 -1.75279 0
M  V30 2941 C 269.181 -1.9889 -2.83978 0
M  V30 2942 C 268.242 -3.22801 -2.83016 0
M  V30 2943 C 267.475 -3.39298 -4.11962 0
M  V30 2944 O 267.698 -2.60345 -5.0752 0
M  V30 2945 O 266.632 -4.32604 -4.18494 0
M  V30 2946 H 270.458 -2.75695 -1.27382 0
M  V30 2947 H 268.043 -1.38248 -0.566373 0
M  V30 2948 H 269.925 -2.11931 -3.6423 0
M  V30 2949 H 268.6 -1.07942 -3.05172 0
M  V30 2950 H 267.507 -3.15193 -2.01505 0
M  V30 2951 H 268.84 -4.13632 -2.66775 0
M  V30 2952 N 270.492 0.636531 -1.44174 0
M  V30 2953 C 271.422 1.76003 -1.53444 0
M  V30 2954 C 272.403 1.65619 -0.387841 0
M  V30 2955 O 273.588 1.84461 -0.607257 0
M  V30 2956 C 270.718 3.14511 -1.4731 0
M  V30 2957 C 269.672 3.39677 -2.60391 0
M  V30 2958 C 268.998 4.78159 -2.39308 0
M  V30 2959 C 270.298 3.32772 -4.02567 0
M  V30 2960 H 271.992 1.68501 -2.47483 0
M  V30 2961 H 269.538 0.809237 -1.19111 0
M  V30 2962 H 271.491 3.92878 -1.52397 0
M  V30 2963 H 270.215 3.22783 -0.49785 0
M  V30 2964 H 268.874 2.63688 -2.54684 0
M  V30 2965 H 268.522 4.83128 -1.39988 0
M  V30 2966 H 268.222 4.95956 -3.15122 0
M  V30 2967 H 269.746 5.58762 -2.46205 0
M  V30 2968 H 271.16 4.01051 -4.09672 0
M  V30 2969 H 269.557 3.62104 -4.7854 0
M  V30 2970 H 270.627 2.30669 -4.2652 0
M  V30 2971 N 271.97 1.30982 0.876444 0
M  V30 2972 C 273.247 1.10942 1.61094 0
M  V30 2973 C 273.627 -0.338223 2.08373 0
M  V30 2974 O 272.975 -1.33122 1.85717 0
M  V30 2975 C 273.185 2.11789 2.77392 0
M  V30 2976 C 274.533 2.43965 3.47514 0
M  V30 2977 O 275.557 2.10166 2.87591 0
M  V30 2978 O 274.416 3.01817 4.55597 0
M  V30 2979 H 271.51 0.42667 0.708436 0
M  V30 2980 H 274.056 1.42438 0.922474 0
M  V30 2981 H 272.828 3.09194 2.39823 0
M  V30 2982 H 272.451 1.81161 3.5393 0
M  V30 2983 N 273.449 -1.08991 1.13837 0
M  V30 2984 C 274.86 -1.62746 0.914917 0
M  V30 2985 C 275.211 -1.88403 -0.547594 0
M  V30 2986 O 274.336 -1.63706 -1.41525 0
M  V30 2987 C 274.931 -2.95662 1.65437 0
M  V30 2988 C 273.49 -3.46225 1.47666 0
M  V30 2989 C 272.637 -2.20562 1.6807 0
M  V30 2990 H 275.588 -0.922946 1.29102 0
M  V30 2991 H 275.609 -3.63825 1.11407 0
M  V30 2992 H 275.121 -2.76956 2.71877 0
M  V30 2993 H 273.222 -3.70046 0.435478 0
M  V30 2994 H 273.335 -4.23368 2.24268 0
M  V30 2995 H 271.699 -2.29439 1.10589 0
M  V30 2996 H 272.482 -2.0437 2.7584 0
M  V30 2997 N 274.927 -0.932562 -1.27047 0
M  V30 2998 C 275.89 -0.440064 -2.24936 0
M  V30 2999 C 276.89 0.444071 -1.54547 0
M  V30 3000 O 278.08 0.244465 -1.72476 0
M  V30 3001 C 275.212 0.36678 -3.38921 0
M  V30 3002 H 276.405 -1.305 -2.70018 0
M  V30 3003 H 273.958 -0.713707 -1.39054 0
M  V30 3004 H 274.693 1.25033 -2.99228 0
M  V30 3005 H 274.478 -0.267204 -3.91188 0
M  V30 3006 H 275.968 0.701567 -4.11665 0
M  V30 3007 N 276.405 1.4127 -0.698611 0
M  V30 3008 C 277.651 2.01478 -0.231207 0
M  V30 3009 C 277.984 1.55215 1.16713 0
M  V30 3010 O 277.259 0.764672 1.78838 0
M  V30 3011 C 277.542 3.58912 -0.292281 0
M  V30 3012 C 277.395 4.15293 -1.72778 0
M  V30 3013 C 278.714 4.38736 0.346194 0
M  V30 3014 H 275.833 0.732025 -0.0854878 0
M  V30 3015 H 278.475 1.67977 -0.887906 0
M  V30 3016 H 276.625 3.87582 0.26686 0
M  V30 3017 H 278.297 3.97486 -2.341 0
M  V30 3018 H 276.54 3.7022 -2.26096 0
M  V30 3019 H 277.211 5.24452 -1.72202 0
M  V30 3020 H 279.687 4.15897 -0.130035 0
M  V30 3021 H 278.563 5.48221 0.272932 0
M  V30 3022 H 278.824 4.18425 1.42734 0
M  V30 3023 N 277.883 0.443576 1.51229 0
M  V30 3024 C 278.816 -0.410089 2.24485 0
M  V30 3025 C 279.794 -1.01949 1.26669 0
M  V30 3026 O 280.978 -1.06075 1.55821 0
M  V30 3027 C 278.105 -1.57211 3.00004 0
M  V30 3028 C 277.151 -1.08279 4.12526 0
M  V30 3029 S 277.984 -0.0197476 5.35496 0
M  V30 3030 C 279.14 -1.18629 6.14555 0
M  V30 3031 H 279.373 0.211832 2.96544 0
M  V30 3032 H 276.906 0.228156 1.52705 0
M  V30 3033 H 278.864 -2.23825 3.44111 0
M  V30 3034 H 277.525 -2.16547 2.27522 0
M  V30 3035 H 276.718 -1.95193 4.64667 0
M  V30 3036 H 276.32 -0.494797 3.70713 0
M  V30 3037 H 278.612 -2.10344 6.4402 0
M  V30 3038 H 279.555 -0.70472 7.04584 0
M  V30 3039 H 279.963 -1.42768 5.46148 0
M  V30 3040 N 279.361 -1.56624 0.175154 0
M  V30 3041 C 280.638 -1.88688 -0.515373 0
M  V30 3042 C 281.018 -1.08564 -1.81044 0
M  V30 3043 O 280.366 -0.180703 -2.27784 0
M  V30 3044 C 280.576 -3.40768 -0.753552 0
M  V30 3045 C 281.924 -4.10587 -1.08184 0
M  V30 3046 O 282.948 -3.46106 -0.841961 0
M  V30 3047 O 281.807 -5.24512 -1.53459 0
M  V30 3048 H 278.901 -0.78301 -0.26613 0
M  V30 3049 H 281.447 -1.68347 0.213877 0
M  V30 3050 H 280.219 -3.90965 0.161829 0
M  V30 3051 H 279.842 -3.66733 -1.53598 0
M  V30 3052 N 280.839 0.0985539 -1.57292 0
M  V30 3053 C 281.771 1.14595 -1.98496 0
M  V30 3054 C 282.784 1.36512 -0.887031 0
M  V30 3055 O 283.973 1.35225 -1.16518 0
M  V30 3056 C 281.073 2.50216 -2.28572 0
M  V30 3057 C 280.246 2.48624 -3.59868 0
M  V30 3058 C 279.305 3.66146 -3.7792 0
M  V30 3059 O 278.331 3.48795 -4.49812 0
M  V30 3060 N 279.533 4.85496 -3.18235 0
M  V30 3061 H 282.298 0.795277 -2.88956 0
M  V30 3062 H 279.859 0.287579 -1.59325 0
M  V30 3063 H 281.851 3.27432 -2.37845 0
M  V30 3064 H 280.421 2.77387 -1.44136 0
M  V30 3065 H 279.641 1.56978 -3.61596 0
M  V30 3066 H 280.929 2.44635 -4.46129 0
M  V30 3067 H 280.327 5.02497 -2.59833 0
M  V30 3068 H 278.884 5.60317 -3.32999 0
M  V30 3069 N 282.317 1.53212 0.369288 0
M  V30 3070 C 283.564 1.69215 1.11232 0
M  V30 3071 C 283.892 0.442048 1.8941 0
M  V30 3072 O 283.147 -0.575944 1.87033 0
M  V30 3073 C 283.446 2.89101 2.10132 0
M  V30 3074 C 283.112 4.25758 1.48463 0
M  V30 3075 C 281.774 4.6292 1.31372 0
M  V30 3076 C 284.126 5.10757 1.03811 0
M  V30 3077 C 281.454 5.82722 0.68207 0
M  V30 3078 C 283.806 6.31201 0.420487 0
M  V30 3079 C 282.47 6.67079 0.237038 0
M  V30 3080 H 281.74 0.619201 0.407027 0
M  V30 3081 H 284.387 1.87391 0.394552 0
M  V30 3082 H 282.692 2.65421 2.88199 0
M  V30 3083 H 284.389 2.98676 2.6757 0
M  V30 3084 H 280.979 3.96494 1.62758 0
M  V30 3085 H 285.163 4.82599 1.1581 0
M  V30 3086 H 280.419 6.09113 0.528316 0
M  V30 3087 H 284.593 6.96368 0.0662874 0
M  V30 3088 H 282.22 7.59774 -0.254477 0
M  V30 3089 N 283.795 -0.628877 1.44509 0
M  V30 3090 C 285.025 -1.41349 1.50678 0
M  V30 3091 C 285.433 -1.88745 0.131075 0
M  V30 3092 O 284.776 -1.61592 -0.87371 0
M  V30 3093 C 284.838 -2.66608 2.41165 0
M  V30 3094 C 284.502 -2.40993 3.88293 0
M  V30 3095 C 285.499 -2.0268 4.78766 0
M  V30 3096 C 283.184 -2.54563 4.33016 0
M  V30 3097 C 285.178 -1.78269 6.11963 0
M  V30 3098 C 282.865 -2.29766 5.6626 0
M  V30 3099 C 283.863 -1.91678 6.55552 0
M  V30 3100 O 283.551 -1.67158 7.86329 0
M  V30 3101 H 283.283 -0.439851 0.51333 0
M  V30 3102 H 285.837 -0.776084 1.90174 0
M  V30 3103 H 284.067 -3.32994 1.96601 0
M  V30 3104 H 285.756 -3.28615 2.38259 0
M  V30 3105 H 286.522 -1.91751 4.45485 0
M  V30 3106 H 282.401 -2.83179 3.63773 0
M  V30 3107 H 285.945 -1.48465 6.81619 0
M  V30 3108 H 281.842 -2.40306 5.99102 0
M  V30 3109 H 282.61 -1.81386 7.98149 0
M  V30 3110 N 285.273 -1.31445 -0.869486 0
M  V30 3111 C 286.206 -1.13465 -1.97992 0
M  V30 3112 C 287.184 -0.0380291 -1.62556 0
M  V30 3113 O 288.368 -0.194544 -1.87493 0
M  V30 3114 C 285.495 -0.733822 -3.30655 0
M  V30 3115 C 284.541 -1.83356 -3.85075 0
M  V30 3116 S 285.374 -3.43909 -4.10472 0
M  V30 3117 C 286.53 -3.05763 -5.46132 0
M  V30 3118 H 286.763 -2.07471 -2.1294 0
M  V30 3119 H 284.296 -1.15936 -1.01972 0
M  V30 3120 H 286.254 -0.509306 -4.07328 0
M  V30 3121 H 284.915 0.187123 -3.13542 0
M  V30 3122 H 284.108 -1.50574 -4.80982 0
M  V30 3123 H 283.71 -2.01315 -3.15195 0
M  V30 3124 H 286.002 -2.54686 -6.27807 0
M  V30 3125 H 286.945 -4.00635 -5.83864 0
M  V30 3126 H 287.353 -2.43192 -5.09429 0
M  V30 3127 N 286.751 1.08385 -1.14413 0
M  V30 3128 C 287.698 2.15311 -0.831265 0
M  V30 3129 C 288.668 1.64751 0.211292 0
M  V30 3130 O 289.853 1.90627 0.0811674 0
M  V30 3131 C 286.993 3.43658 -0.315143 0
M  V30 3132 C 286.106 4.08064 -1.41802 0
M  V30 3133 C 285.241 5.24207 -0.859126 0
M  V30 3134 C 284.28 5.80554 -1.93967 0
M  V30 3135 N 283.417 6.88042 -1.39793 0
M  V30 3136 H 288.257 2.41415 -1.74708 0
M  V30 3137 H 285.794 1.18474 -0.871909 0
M  V30 3138 H 287.752 4.172 0.00230884 0
M  V30 3139 H 286.382 3.17839 0.56378 0
M  V30 3140 H 285.434 3.3228 -1.85187 0
M  V30 3141 H 286.746 4.45962 -2.23427 0
M  V30 3142 H 285.9 6.04689 -0.49359 0
M  V30 3143 H 284.639 4.87699 -0.011932 0
M  V30 3144 H 283.644 4.98725 -2.31415 0
M  V30 3145 H 284.869 6.19121 -2.79046 0
M  V30 3146 H 282.815 6.53493 -0.572919 0
M  V30 3147 H 282.732 7.24767 -2.15054 0
M  V30 3148 H 284 7.72255 -1.0603 0
M  V30 3149 N 288.23 0.939286 1.26551 0
M  V30 3150 C 289.507 0.5038 1.89001 0
M  V30 3151 C 289.887 -1.01854 1.84903 0
M  V30 3152 O 289.235 -1.87773 1.30206 0
M  V30 3153 C 289.445 1.063 3.32417 0
M  V30 3154 C 290.793 1.13051 4.09273 0
M  V30 3155 O 291.817 1.01345 3.41479 0
M  V30 3156 O 290.676 1.31233 5.30509 0
M  V30 3157 H 287.77 0.163897 0.810597 0
M  V30 3158 H 290.316 1.03173 1.34735 0
M  V30 3159 H 289.088 2.10665 3.29752 0
M  V30 3160 H 288.711 0.517408 3.94219 0
M  V30 3161 N 289.708 -1.40897 0.706093 0
M  V30 3162 C 290.956 -2.00657 0.241054 0
M  V30 3163 C 291.277 -1.56241 -1.16678 0
M  V30 3164 O 290.547 -0.79765 -1.78926 0
M  V30 3165 H 289.127 -0.742018 0.0861308 0
M  V30 3166 H 291.789 -1.72372 0.909604 0
M  V30 3167 H 290.885 -3.10958 0.266705 0
M  V30 3168 N 291.186 -0.45159 -1.50991 0
M  V30 3169 C 292.432 0.110237 -2.025 0
M  V30 3170 C 292.765 1.41109 -1.33424 0
M  V30 3171 O 292.04 1.89135 -0.453659 0
M  V30 3172 C 292.323 0.314271 -3.58726 0
M  V30 3173 C 292.176 -1.00623 -4.38401 0
M  V30 3174 C 293.495 1.07767 -4.26702 0
M  V30 3175 H 290.614 0.0385897 -0.735989 0
M  V30 3176 H 293.256 -0.593374 -1.80497 0
M  V30 3177 H 291.406 0.913601 -3.77605 0
M  V30 3178 H 293.078 -1.64064 -4.31139 0
M  V30 3179 H 291.321 -1.6075 -4.02917 0
M  V30 3180 H 291.992 -0.817341 -5.45915 0
M  V30 3181 H 294.468 0.56986 -4.12179 0
M  V30 3182 H 293.344 1.18921 -5.35863 0
M  V30 3183 H 293.605 2.10939 -3.88532 0
M  V30 3184 N 292.664 1.56529 -0.183458 0
M  V30 3185 C 293.892 2.01623 0.464285 0
M  V30 3186 C 294.307 1.06366 1.55986 0
M  V30 3187 O 293.664 0.0665398 1.82379 0
M  V30 3188 C 293.715 3.46475 1.03139 0
M  V30 3189 O 293.436 4.38095 -0.0204675 0
M  V30 3190 C 294.937 4.0703 1.75617 0
M  V30 3191 H 292.157 0.660596 0.117704 0
M  V30 3192 H 294.701 2.02451 -0.288751 0
M  V30 3193 H 292.856 3.46383 1.73486 0
M  V30 3194 H 293.27 5.22973 0.399952 0
M  V30 3195 H 294.744 5.10271 2.10542 0
M  V30 3196 H 295.221 3.49819 2.65563 0
M  V30 3197 H 295.827 4.1086 1.09882 0
M  V30 3198 N 294.142 -0.090211 1.57342 0
M  V30 3199 C 295.105 -1.09335 2.01441 0
M  V30 3200 C 296.105 -1.32666 0.908641 0
M  V30 3201 O 297.295 -1.28697 1.174 0
M  V30 3202 C 294.427 -2.44136 2.3793 0
M  V30 3203 H 295.62 -0.713662 2.91285 0
M  V30 3204 H 293.173 -0.335404 1.52659 0
M  V30 3205 H 293.908 -2.86972 1.51055 0
M  V30 3206 H 293.693 -2.28548 3.18603 0
M  V30 3207 H 295.183 -3.16277 2.72688 0
M  V30 3208 N 295.62 -1.53406 -0.361157 0
M  V30 3209 C 296.567 -1.80156 -1.44265 0
M  V30 3210 C 297.537 -0.646183 -1.53015 0
M  V30 3211 O 298.722 -0.888818 -1.68833 0
M  V30 3212 C 295.862 -2.00116 -2.81154 0
M  V30 3213 C 294.975 -3.27833 -2.81335 0
M  V30 3214 C 294.11 -3.37957 -4.09828 0
M  V30 3215 C 293.149 -4.59689 -4.04168 0
M  V30 3216 N 292.286 -4.66942 -5.24318 0
M  V30 3217 H 297.126 -2.72438 -1.20754 0
M  V30 3218 H 294.663 -1.34954 -0.585296 0
M  V30 3219 H 296.621 -2.09677 -3.60682 0
M  V30 3220 H 295.251 -1.11167 -3.03054 0
M  V30 3221 H 294.303 -3.27204 -1.94014 0
M  V30 3222 H 295.615 -4.17442 -2.73027 0
M  V30 3223 H 294.769 -3.46853 -4.97773 0
M  V30 3224 H 293.508 -2.46372 -4.20894 0
M  V30 3225 H 292.513 -4.50889 -3.14609 0
M  V30 3226 H 293.738 -5.5262 -3.947 0
M  V30 3227 H 291.684 -3.7826 -5.35962 0
M  V30 3228 H 291.601 -5.50462 -5.18197 0
M  V30 3229 H 292.869 -4.80127 -6.14084 0
M  V30 3230 N 297.098 0.621204 -1.44841 0
M  V30 3231 C 298.375 1.38 -1.38619 0
M  V30 3232 C 298.755 2.11041 -0.0498935 0
M  V30 3233 O 298.103 2.06992 0.967816 0
M  V30 3234 C 298.313 2.33817 -2.59096 0
M  V30 3235 C 299.661 2.96844 -3.03593 0
M  V30 3236 O 300.685 2.44141 -2.59371 0
M  V30 3237 O 299.544 3.92476 -3.80296 0
M  V30 3238 H 296.638 0.61811 -0.549426 0
M  V30 3239 H 299.184 0.645429 -1.56947 0
M  V30 3240 H 297.956 1.79012 -3.47952 0
M  V30 3241 H 297.579 3.14676 -2.43032 0
M  V30 3242 N 298.576 1.31904 0.862503 0
M  V30 3243 C 299.822 1.22197 1.61851 0
M  V30 3244 C 300.155 -0.217641 1.92977 0
M  V30 3245 O 299.43 -1.15264 1.56666 0
M  V30 3246 C 299.713 2.07378 2.94391 0
M  V30 3247 C 299.566 3.59678 2.70096 0
M  V30 3248 C 300.885 1.92891 3.95577 0
M  V30 3249 H 298.004 0.445255 0.587296 0
M  V30 3250 H 300.646 1.6177 0.99651 0
M  V30 3251 H 298.796 1.73758 3.47477 0
M  V30 3252 H 300.468 4.03472 2.23625 0
M  V30 3253 H 298.711 3.82735 2.04197 0
M  V30 3254 H 299.382 4.14595 3.64438 0
M  V30 3255 H 301.858 2.22327 3.51724 0
M  V30 3256 H 300.734 2.54781 4.86187 0
M  V30 3257 H 300.995 0.894315 4.3296 0
M  V30 3258 N 300.054 -1.07777 1.14986 0
M  V30 3259 C 301.282 -1.84018 0.945773 0
M  V30 3260 C 301.697 -1.81897 -0.505863 0
M  V30 3261 O 301.054 -1.22726 -1.35072 0
M  V30 3262 C 301.105 -3.31287 1.44677 0
M  V30 3263 O 300.826 -3.33449 2.84154 0
M  V30 3264 C 302.327 -4.24311 1.28355 0
M  V30 3265 H 299.547 -0.580716 0.336169 0
M  V30 3266 H 302.091 -1.36077 1.52654 0
M  V30 3267 H 300.246 -3.76594 0.908625 0
M  V30 3268 H 300.66 -4.25427 3.06777 0
M  V30 3269 H 302.134 -5.2573 1.68261 0
M  V30 3270 H 302.611 -4.38612 0.227184 0
M  V30 3271 H 303.217 -3.84836 1.81056 0
M  V30 3272 N 301.532 -0.945985 -1.26051 0
M  V30 3273 C 302.948 -0.649045 -1.45807 0
M  V30 3274 C 303.148 0.796158 -1.85104 0
M  V30 3275 O 302.204 1.57233 -1.97571 0
M  V30 3276 C 303.517 -1.61458 -2.53677 0
M  V30 3277 C 305.065 -1.62481 -2.67524 0
M  V30 3278 C 305.54 -2.57776 -3.7857 0
M  V30 3279 N 307.031 -2.5609 -3.85969 0
M  V30 3280 C 307.766 -3.26508 -4.7136 0
M  V30 3281 N 307.262 -4.0637 -5.61102 0
M  V30 3282 N 309.055 -3.15437 -4.65248 0
M  V30 3283 H 301.206 -1.88005 -0.988328 0
M  V30 3284 H 303.469 -0.808198 -0.4955 0
M  V30 3285 H 303.175 -2.64644 -2.31638 0
M  V30 3286 H 303.049 -1.37036 -3.51427 0
M  V30 3287 H 305.436 -0.600167 -2.88933 0
M  V30 3288 H 305.517 -1.90958 -1.70202 0
M  V30 3289 H 305.161 -3.60361 -3.57913 0
M  V30 3290 H 305.091 -2.26587 -4.75359 0
M  V30 3291 H 307.582 -1.98105 -3.21812 0
M  V30 3292 H 307.895 -4.57042 -6.23164 0
M  V30 3293 H 306.24 -4.10469 -5.60839 0
M  V30 3294 H 309.431 -2.52525 -3.94143 0
M  V30 3295 H 309.604 -3.70584 -5.31575 0
M  V30 3296 N 303.011 1.40521 -0.713556 0
M  V30 3297 C 303.921 2.34522 -0.0606667 0
M  V30 3298 C 304.937 1.57193 0.74607 0
M  V30 3299 O 306.113 1.89591 0.679493 0
M  V30 3300 C 303.178 3.36081 0.851491 0
M  V30 3301 C 302.239 4.29286 0.0349339 0
M  V30 3302 C 301.472 5.25994 0.903649 0
M  V30 3303 O 301.695 5.28616 2.14292 0
M  V30 3304 O 300.629 6.00918 0.343723 0
M  V30 3305 H 304.455 2.91968 -0.835972 0
M  V30 3306 H 302.04 1.41681 -0.47402 0
M  V30 3307 H 303.922 3.98369 1.37404 0
M  V30 3308 H 302.597 2.81052 1.60598 0
M  V30 3309 H 301.504 3.70289 -0.532633 0
M  V30 3310 H 302.837 4.87462 -0.681287 0
M  V30 3311 N 304.489 0.459591 1.5075 0
M  V30 3312 C 305.714 -0.0996819 2.0716 0
M  V30 3313 C 306.139 -1.33761 1.32249 0
M  V30 3314 O 305.497 -1.77551 0.366786 0
M  V30 3315 C 305.545 -0.378226 3.58611 0
M  V30 3316 O 304.649 -1.46081 3.85661 0
M  V30 3317 H 303.99 0.00791392 0.663953 0
M  V30 3318 H 306.52 0.647329 1.9409 0
M  V30 3319 H 306.53 -0.622135 4.03229 0
M  V30 3320 H 305.205 0.526439 4.12555 0
M  V30 3321 H 303.782 -1.20511 3.5289 0
M  V30 3322 N 305.967 -1.56429 0.191757 0
M  V30 3323 C 307.215 -1.97095 -0.447006 0
M  V30 3324 C 307.536 -1.07967 -1.62383 0
M  V30 3325 O 306.806 -0.150248 -1.95323 0
M  V30 3326 H 305.386 -0.727832 -0.168135 0
M  V30 3327 H 308.048 -1.92911 0.27771 0
M  V30 3328 H 307.144 -3.01848 -0.793371 0
M  V30 3329 N 307.445 0.0818655 -1.57387 0
M  V30 3330 C 308.694 0.781681 -1.85937 0
M  V30 3331 C 309.007 1.79246 -0.782957 0
M  V30 3332 O 310.213 2.54112 -0.955987 0
M  V30 3333 C 308.669 1.44109 -3.29789 0
M  V30 3334 C 308.277 0.469396 -4.45534 0
M  V30 3335 C 310.021 2.12386 -3.67549 0
M  V30 3336 C 307.928 1.13415 -5.80423 0
M  V30 3337 H 306.858 0.295682 -0.693605 0
M  V30 3338 H 309.509 0.0348051 -1.83467 0
M  V30 3339 H 307.891 2.23588 -3.2684 0
M  V30 3340 H 309.065 -0.294856 -4.59856 0
M  V30 3341 H 307.38 -0.108383 -4.16259 0
M  V30 3342 H 309.977 2.62878 -4.65617 0
M  V30 3343 H 310.32 2.91877 -2.96839 0
M  V30 3344 H 310.853 1.39751 -3.72444 0
M  V30 3345 H 307.592 0.379771 -6.54399 0
M  V30 3346 H 307.112 1.8695 -5.69921 0
M  V30 3347 H 308.791 1.65686 -6.25426 0
M  V30 3348 N 308.923 1.53595 0.353017 0
M  V30 3349 C 310.339 1.43648 0.695516 0
M  V30 3350 C 310.539 0.585617 1.92802 0
M  V30 3351 O 309.595 0.0729223 2.52395 0
M  V30 3352 C 310.908 2.8701 0.896991 0
M  V30 3353 C 312.456 2.96723 0.996209 0
M  V30 3354 C 312.931 4.41173 1.23007 0
M  V30 3355 N 314.422 4.44657 1.29749 0
M  V30 3356 C 315.157 5.53547 1.49577 0
M  V30 3357 N 314.653 6.72461 1.66639 0
M  V30 3358 N 316.446 5.41145 1.52048 0
M  V30 3359 H 308.597 2.07415 -0.457481 0
M  V30 3360 H 310.86 0.9372 -0.142687 0
M  V30 3361 H 310.566 3.51644 0.0629938 0
M  V30 3362 H 310.44 3.31401 1.80148 0
M  V30 3363 H 312.827 2.32235 1.82074 0
M  V30 3364 H 312.908 2.55707 0.0688331 0
M  V30 3365 H 312.552 5.06238 0.410505 0
M  V30 3366 H 312.482 4.79772 2.17086 0
M  V30 3367 H 314.973 3.58963 1.18126 0
M  V30 3368 H 315.286 7.51214 1.81378 0
M  V30 3369 H 313.631 6.75423 1.63794 0
M  V30 3370 H 316.822 4.47205 1.38294 0
M  V30 3371 H 316.995 6.26068 1.67159 0
M  V30 3372 N 310.401 -0.613514 1.45168 0
M  V30 3373 C 311.678 -1.37263 1.39349 0
M  V30 3374 C 312.058 -2.11012 0.0610848 0
M  V30 3375 O 311.406 -2.07502 -0.956825 0
M  V30 3376 C 311.616 -2.3244 2.60332 0
M  V30 3377 C 312.964 -2.9523 3.05163 0
M  V30 3378 O 313.988 -2.42762 2.60663 0
M  V30 3379 O 312.847 -3.90454 3.82372 0
M  V30 3380 H 309.941 -0.615188 0.552696 0
M  V30 3381 H 312.487 -0.637097 1.57287 0
M  V30 3382 H 311.259 -1.77164 3.48896 0
M  V30 3383 H 310.882 -3.13383 2.44698 0
M  V30 3384 N 311.879 -1.3236 -0.855495 0
M  V30 3385 C 312.809 -1.23833 -1.97958 0
M  V30 3386 C 313.79 -0.122361 -1.69659 0
M  V30 3387 O 314.975 -0.30939 -1.9172 0
M  V30 3388 C 312.105 -0.959772 -3.33775 0
M  V30 3389 C 311.059 -2.03689 -3.76424 0
M  V30 3390 C 310.385 -1.61075 -5.09862 0
M  V30 3391 C 311.685 -3.4518 -3.9198 0
M  V30 3392 H 313.379 -2.1788 -2.0535 0
M  V30 3393 H 310.925 -1.04891 -0.986605 0
M  V30 3394 H 312.878 -0.886678 -4.11966 0
M  V30 3395 H 311.602 0.0163404 -3.26596 0
M  V30 3396 H 310.261 -2.10012 -3.00484 0
M  V30 3397 H 309.909 -0.622107 -4.99138 0
M  V30 3398 H 309.609 -2.33143 -5.39368 0
M  V30 3399 H 311.133 -1.55201 -5.90546 0
M  V30 3400 H 312.547 -3.4145 -4.60526 0
M  V30 3401 H 310.944 -4.1559 -4.32903 0
M  V30 3402 H 312.014 -3.84903 -2.94919 0
M  V30 3403 N 313.357 1.07166 -1.15556 0
M  V30 3404 C 314.606 1.79181 -0.926132 0
M  V30 3405 C 314.919 1.87768 0.547967 0
M  V30 3406 O 316.125 2.56323 0.895036 0
M  V30 3407 C 314.581 3.22 -1.60761 0
M  V30 3408 C 314.189 3.21607 -3.11886 0
M  V30 3409 C 315.933 3.9861 -1.4598 0
M  V30 3410 C 313.84 4.59092 -3.72812 0
M  V30 3411 H 312.77 0.67154 -0.342856 0
M  V30 3412 H 315.421 1.2027 -1.3859 0
M  V30 3413 H 313.803 3.81115 -1.07553 0
M  V30 3414 H 314.977 2.72127 -3.71865 0
M  V30 3415 H 313.292 2.58495 -3.2645 0
M  V30 3416 H 315.889 5.00225 -1.88888 0
M  V30 3417 H 316.232 4.143 -0.407541 0
M  V30 3418 H 316.765 3.45996 -1.96295 0
M  V30 3419 H 313.504 4.48606 -4.77946 0
M  V30 3420 H 313.024 5.08803 -3.17616 0
M  V30 3421 H 314.703 5.28059 -3.73848 0
M  V30 3422 N 314.835 0.952656 1.25548 0
M  V30 3423 C 316.246 0.647392 1.75116 0
M  V30 3424 C 316.597 -0.837274 1.77438 0
M  V30 3425 O 315.722 -1.65525 1.39393 0
M  V30 3426 C 316.317 1.16845 3.18014 0
M  V30 3427 C 314.876 0.913382 3.6515 0
M  V30 3428 C 314.023 1.31265 2.44264 0
M  V30 3429 H 316.974 1.12968 1.11462 0
M  V30 3430 H 316.995 0.527606 3.76824 0
M  V30 3431 H 316.507 2.24902 3.16292 0
M  V30 3432 H 314.608 -0.152316 3.72289 0
M  V30 3433 H 314.721 1.54845 4.53387 0
M  V30 3434 H 313.085 0.731028 2.43984 0
M  V30 3435 H 313.868 2.40239 2.45234 0
M  V30 3436 N 316.313 -1.40141 0.720998 0
M  V30 3437 C 317.561 -2.0039 0.262323 0
M  V30 3438 C 317.882 -1.57469 -1.15015 0
M  V30 3439 O 317.152 -0.816582 -1.78069 0
M  V30 3440 H 315.732 -0.741063 0.093996 0
M  V30 3441 H 318.394 -1.71398 0.927835 0
M  V30 3442 H 317.49 -3.10658 0.299671 0
M  V30 3443 N 317.792 -0.46758 -1.50504 0
M  V30 3444 C 319.017 0.0886943 -2.0721 0
M  V30 3445 C 319.442 1.33057 -1.32956 0
M  V30 3446 O 318.8 1.77354 -0.376197 0
M  V30 3447 C 318.848 0.359202 -3.58806 0
M  V30 3448 O 317.952 1.44034 -3.8643 0
M  V30 3449 H 317.293 -0.0114349 -0.663902 0
M  V30 3450 H 319.823 -0.657613 -1.93744 0
M  V30 3451 H 319.833 0.600742 -4.03553 0
M  V30 3452 H 318.508 -0.548311 -4.1227 0
M  V30 3453 H 317.085 1.18638 -3.53524 0
M  V30 3454 N 319.27 1.56325 -0.20005 0
M  V30 3455 C 320.516 1.98012 0.438059 0
M  V30 3456 C 320.849 1.08702 1.60927 0
M  V30 3457 O 320.124 0.140064 1.93995 0
M  V30 3458 C 320.407 3.48841 0.893419 0
M  V30 3459 C 320.26 4.48928 -0.279947 0
M  V30 3460 C 321.579 4.03498 1.75719 0
M  V30 3461 H 318.698 0.719918 0.157757 0
M  V30 3462 H 321.34 1.87743 -0.291968 0
M  V30 3463 H 319.49 3.57723 1.51547 0
M  V30 3464 H 321.162 4.52079 -0.91772 0
M  V30 3465 H 319.405 4.23694 -0.930919 0
M  V30 3466 H 320.076 5.5194 0.0812601 0
M  V30 3467 H 322.552 3.97427 1.23253 0
M  V30 3468 H 321.428 5.09393 2.04476 0
M  V30 3469 H 321.689 3.4906 2.71311 0
M  V30 3470 N 320.748 -0.0735177 1.57428 0
M  V30 3471 C 321.997 -0.771809 1.86349 0
M  V30 3472 C 322.31 -1.78828 0.792452 0
M  V30 3473 O 323.516 -2.53602 0.96945 0
M  V30 3474 C 321.972 -1.42358 3.30548 0
M  V30 3475 C 321.58 -0.445761 4.45777 0
M  V30 3476 C 323.324 -2.10434 3.6867 0
M  V30 3477 C 321.231 -1.10335 5.81016 0
M  V30 3478 H 320.161 -0.291999 0.695164 0
M  V30 3479 H 322.812 -0.0250749 1.83483 0
M  V30 3480 H 321.194 -2.21852 3.28021 0
M  V30 3481 H 322.368 0.319239 4.59693 0
M  V30 3482 H 320.683 0.130457 4.16196 0
M  V30 3483 H 323.28 -2.60405 4.67004 0
M  V30 3484 H 323.623 -2.90298 2.98383 0
M  V30 3485 H 324.156 -1.37773 3.7318 0
M  V30 3486 H 320.895 -0.345061 6.54591 0
M  V30 3487 H 320.415 -1.83925 5.70904 0
M  V30 3488 H 322.094 -1.62367 6.26295 0
M  V30 3489 N 322.226 -1.5378 -0.344866 0
M  V30 3490 C 323.503 -1.61589 -1.10219 0
M  V30 3491 C 323.883 -0.436316 -2.06542 0
M  V30 3492 O 323.231 0.571543 -2.21237 0
M  V30 3493 C 323.441 -2.97602 -1.82301 0
M  V30 3494 C 324.789 -3.5291 -2.36093 0
M  V30 3495 O 325.813 -2.99768 -1.924 0
M  V30 3496 O 324.672 -4.45859 -3.16026 0
M  V30 3497 H 321.766 -0.653522 -0.506792 0
M  V30 3498 H 324.312 -1.66126 -0.346465 0
M  V30 3499 H 323.084 -3.74893 -1.12121 0
M  V30 3500 H 322.707 -2.9665 -2.64735 0
M  V30 3501 N 323.704 0.605807 -1.45491 0
M  V30 3502 C 324.667 1.69836 -1.5391 0
M  V30 3503 C 325.667 1.55261 -0.418424 0
M  V30 3504 O 326.857 1.60296 -0.681965 0
M  V30 3505 C 323.989 3.09117 -1.43734 0
M  V30 3506 H 325.182 1.63738 -2.51257 0
M  V30 3507 H 322.735 0.821689 -1.32959 0
M  V30 3508 H 323.47 3.20791 -0.475788 0
M  V30 3509 H 323.255 3.21104 -2.25021 0
M  V30 3510 H 324.745 3.88696 -1.52661 0
M  V30 3511 N 325.182 1.32811 0.848464 0
M  V30 3512 C 326.41 1.26739 1.63538 0
M  V30 3513 C 326.825 -0.163484 1.88091 0
M  V30 3514 O 326.182 -1.10258 1.45429 0
M  V30 3515 C 326.233 2.03013 2.99112 0
M  V30 3516 O 325.954 3.40518 2.75643 0
M  V30 3517 C 327.455 2.04038 3.93552 0
M  V30 3518 H 324.675 0.437024 0.509167 0
M  V30 3519 H 327.219 1.75033 1.05753 0
M  V30 3520 H 325.374 1.58426 3.53525 0
M  V30 3521 H 325.788 3.79635 3.61908 0
M  V30 3522 H 327.262 2.61877 4.85926 0
M  V30 3523 H 327.739 1.0282 4.26995 0
M  V30 3524 H 328.345 2.486 3.45077 0
M  V30 3525 N 326.66 -1.06551 1.16123 0
M  V30 3526 C 327.593 -2.13382 0.80892 0
M  V30 3527 C 328.571 -1.61128 -0.21827 0
M  V30 3528 O 329.755 -1.88219 -0.102952 0
M  V30 3529 C 326.882 -3.38083 0.204303 0
M  V30 3530 C 325.928 -4.09133 1.20469 0
M  V30 3531 S 326.761 -4.5948 2.75024 0
M  V30 3532 C 327.917 -5.87446 2.16005 0
M  V30 3533 H 328.15 -2.42937 1.71373 0
M  V30 3534 H 325.683 -1.18947 0.984428 0
M  V30 3535 H 327.641 -4.10268 -0.138081 0
M  V30 3536 H 326.302 -3.0669 -0.678234 0
M  V30 3537 H 325.495 -4.98685 0.730019 0
M  V30 3538 H 325.097 -3.4295 1.49202 0
M  V30 3539 H 327.389 -6.60065 1.5271 0
M  V30 3540 H 328.332 -6.39639 3.03756 0
M  V30 3541 H 328.74 -5.41354 1.59989 0
M  V30 3542 N 328.138 -0.959301 -1.25041 0
M  V30 3543 C 329.385 -0.616611 -1.92884 0
M  V30 3544 C 329.713 0.847036 -1.75087 0
M  V30 3545 O 328.968 1.62374 -1.09239 0
M  V30 3546 C 329.267 -0.927136 -3.45165 0
M  V30 3547 C 328.933 -2.37757 -3.83122 0
M  V30 3548 C 327.595 -2.77402 -3.93194 0
M  V30 3549 C 329.947 -3.31929 -4.01836 0
M  V30 3550 C 327.275 -4.10277 -4.19392 0
M  V30 3551 C 329.627 -4.64423 -4.29528 0
M  V30 3552 C 328.291 -5.03857 -4.37818 0
M  V30 3553 H 327.561 -0.225634 -0.705812 0
M  V30 3554 H 330.208 -1.20921 -1.48493 0
M  V30 3555 H 328.513 -0.252195 -3.90987 0
M  V30 3556 H 330.21 -0.6405 -3.95852 0
M  V30 3557 H 326.8 -2.06013 -3.75841 0
M  V30 3558 H 330.984 -3.02488 -3.93465 0
M  V30 3559 H 326.24 -4.40467 -4.24027 0
M  V30 3560 H 330.414 -5.37369 -4.42953 0
M  V30 3561 H 328.041 -6.06843 -4.57871 0
M  V30 3562 N 329.616 1.39756 -0.72842 0
M  V30 3563 C 330.564 2.32485 -0.0731849 0
M  V30 3564 C 331.558 1.52717 0.733063 0
M  V30 3565 O 332.764 1.68428 0.634988 0
M  V30 3566 H 329.139 0.751984 -0.00486469 0
M  V30 3567 H 331.11 2.85382 -0.871761 0
M  V30 3568 C 329.859 3.37773 0.824908 0
M  V30 3569 H 329.182 3.99227 0.213915 0
M  V30 3570 H 330.622 4.05121 1.25111 0
M  V30 3571 C 329.081 2.74287 1.95622 0
M  V30 3572 O 329.611 2.61618 3.04826 0
M  V30 3573 N 327.817 2.32475 1.74367 0
M  V30 3574 H 327.364 2.4298 0.855494 0
M  V30 3575 H 327.322 1.90337 2.50238 0
M  V30 3576 N 331.094 0.475555 1.50254 0
M  V30 3577 C 332.505 0.0215174 1.86688 0
M  V30 3578 C 332.856 -1.38467 1.39001 0
M  V30 3579 O 331.981 -2.02732 0.756894 0
M  V30 3580 C 332.576 0.0322715 3.38785 0
M  V30 3581 C 331.135 -0.366314 3.74613 0
M  V30 3582 C 330.282 0.415832 2.74164 0
M  V30 3583 H 333.233 0.689612 1.42934 0
M  V30 3584 H 333.254 -0.76889 3.7265 0
M  V30 3585 H 332.766 1.05584 3.73462 0
M  V30 3586 H 330.867 -1.39406 3.45538 0
M  V30 3587 H 330.98 -0.064555 4.79057 0
M  V30 3588 H 329.344 -0.131048 2.54363 0
M  V30 3589 H 330.127 1.43899 3.11686 0
M  V30 3590 N 332.573 -1.56217 0.208337 0
M  V30 3591 C 333.813 -1.99849 -0.428927 0
M  V30 3592 C 334.177 -1.09262 -1.57879 0
M  V30 3593 O 335.378 -1.42185 -2.28116 0
M  V30 3594 C 333.649 -3.46777 -0.864879 0
M  V30 3595 S 335.208 -4.12434 -1.49811 0
M  V30 3596 H 332.026 -0.697742 -0.136665 0
M  V30 3597 H 334.628 -1.92953 0.314519 0
M  V30 3598 H 333.332 -4.10396 -0.0181326 0
M  V30 3599 H 332.863 -3.57518 -1.64147 0
M  V30 3600 H 334.878 -4.10532 -2.78707 0
M  V30 3601 N 334.051 0.0651679 -1.57465 0
M  V30 3602 C 335.299 0.761555 -1.87202 0
M  V30 3603 C 335.62 1.77778 -0.801243 0
M  V30 3604 O 334.89 1.95166 0.16937 0
M  V30 3605 H 333.47 0.284251 -0.690804 0
M  V30 3606 H 336.132 0.0396827 -1.9486 0
M  V30 3607 H 335.228 1.27365 -2.84929 0
M  V30 3608 N 335.529 1.53961 0.336706 0
M  V30 3609 C 336.759 1.75229 1.09446 0
M  V30 3610 C 337.167 0.494602 1.82621 0
M  V30 3611 O 336.51 -0.543764 1.75468 0
M  V30 3612 C 336.572 2.88288 2.1478 0
M  V30 3613 C 336.236 4.27656 1.6112 0
M  V30 3614 C 337.233 5.08981 1.0599 0
M  V30 3615 C 334.918 4.74161 1.6576 0
M  V30 3616 C 336.912 6.34916 0.562129 0
M  V30 3617 C 334.599 6.00067 1.15595 0
M  V30 3618 C 335.597 6.80278 0.609147 0
M  V30 3619 O 335.285 8.03818 0.114999 0
M  V30 3620 H 335.017 0.588881 0.331956 0
M  V30 3621 H 337.571 2.01614 0.392566 0
M  V30 3622 H 335.801 2.57443 2.88548 0
M  V30 3623 H 337.49 2.97461 2.76174 0
M  V30 3624 H 338.256 4.74213 1.01722 0
M  V30 3625 H 334.135 4.11781 2.07261 0
M  V30 3626 H 337.679 6.9747 0.134668 0
M  V30 3627 H 333.576 6.3433 1.19566 0
M  V30 3628 H 334.344 8.18172 0.231651 0
M  V30 3629 N 337.007 -0.598083 1.45811 0
M  V30 3630 C 338.232 -1.3881 1.54099 0
M  V30 3631 C 338.657 -1.8726 0.177578 0
M  V30 3632 O 338.015 -1.6069 -0.839541 0
M  V30 3633 C 338.063 -2.56217 2.53743 0
M  V30 3634 O 337.167 -3.5716 2.06182 0
M  V30 3635 H 336.508 -0.414024 0.519115 0
M  V30 3636 H 339.038 -0.726971 1.91249 0
M  V30 3637 H 339.048 -3.03337 2.72856 0
M  V30 3638 H 337.723 -2.20303 3.5276 0
M  V30 3639 H 336.3 -3.16624 1.96987 0
M  V30 3640 N 338.485 -1.33259 -0.841409 0
M  V30 3641 C 339.418 -1.1764 -1.95541 0
M  V30 3642 C 340.396 -0.072501 -1.62438 0
M  V30 3643 O 341.58 -0.23427 -1.87039 0
M  V30 3644 C 338.707 -0.803794 -3.29024 0
M  V30 3645 C 337.753 -1.91482 -3.81099 0
M  V30 3646 S 338.586 -3.52538 -4.03085 0
M  V30 3647 C 339.742 -3.17279 -5.39523 0
M  V30 3648 H 339.975 -2.11941 -2.08491 0
M  V30 3649 H 337.508 -1.18072 -0.9949 0
M  V30 3650 H 339.466 -0.595592 -4.06156 0
M  V30 3651 H 338.127 0.120574 -3.13868 0
M  V30 3652 H 337.32 -1.60742 -4.7768 0
M  V30 3653 H 336.922 -2.07956 -3.10854 0
M  V30 3654 H 339.214 -2.67946 -6.22263 0
M  V30 3655 H 340.157 -4.1293 -5.75234 0
M  V30 3656 H 340.565 -2.53943 -5.04156 0
M  V30 3657 N 339.963 1.05934 -1.16686 0
M  V30 3658 C 340.911 2.15603 -0.872817 0
M  V30 3659 C 341.905 1.68647 0.159576 0
M  V30 3660 O 343.111 1.79995 0.0132125 0
M  V30 3661 H 339.486 0.703885 -0.264671 0
M  V30 3662 H 341.457 2.37613 -1.80507 0
M  V30 3663 C 340.206 3.45457 -0.394344 0
M  V30 3664 H 339.529 3.81984 -1.18019 0
M  V30 3665 H 340.969 4.2339 -0.227408 0
M  V30 3666 C 339.428 3.25021 0.88673 0
M  V30 3667 O 339.958 3.50906 1.95519 0
M  V30 3668 N 338.164 2.78437 0.831925 0
M  V30 3669 H 337.711 2.57572 -0.0377619 0
M  V30 3670 H 337.669 2.65144 1.68956 0
M  V30 3671 N 341.441 0.965919 1.2453 0
M  V30 3672 C 342.689 0.625593 1.92174 0
M  V30 3673 C 343.01 -0.841652 1.75901 0
M  V30 3674 O 342.28 -1.60061 1.12948 0
M  V30 3675 H 340.86 0.228388 0.71123 0
M  V30 3676 H 343.522 1.2266 1.51461 0
M  V30 3677 H 342.618 0.864653 2.99884 0
M  V30 3678 N 342.919 -1.39368 0.735821 0
M  V30 3679 C 343.852 -2.28155 0.0451175 0
M  V30 3680 C 344.83 -1.44433 -0.746852 0
M  V30 3681 O 346.014 -1.73823 -0.729237 0
M  V30 3682 C 343.141 -3.253 -0.943266 0
M  V30 3683 C 342.187 -4.25826 -0.239685 0
M  V30 3684 S 343.02 -5.25166 1.04693 0
M  V30 3685 C 344.176 -6.2587 0.0611639 0
M  V30 3686 H 344.409 -2.86388 0.79807 0
M  V30 3687 H 341.942 -1.45104 0.527653 0
M  V30 3688 H 343.9 -3.81789 -1.50824 0
M  V30 3689 H 342.561 -2.66085 -1.66906 0
M  V30 3690 H 341.754 -4.94229 -0.987596 0
M  V30 3691 H 341.356 -3.73141 0.253274 0
M  V30 3692 H 343.648 -6.73007 -0.778941 0
M  V30 3693 H 344.591 -7.04508 0.712362 0
M  V30 3694 H 344.999 -5.63639 -0.311602 0
M  V30 3695 N 344.397 -0.483516 -1.5 0
M  V30 3696 C 345.344 0.304164 -2.28787 0
M  V30 3697 C 346.314 0.976114 -1.34392 0
M  V30 3698 O 347.499 0.986156 -1.63339 0
M  V30 3699 C 344.639 1.37298 -3.16612 0
M  V30 3700 C 343.752 0.714561 -4.26049 0
M  V30 3701 C 342.887 1.76232 -5.01114 0
M  V30 3702 C 341.926 1.08483 -6.0241 0
M  V30 3703 N 341.063 2.076 -6.70706 0
M  V30 3704 H 345.903 -0.373981 -2.95644 0
M  V30 3705 H 343.44 -0.196275 -1.45785 0
M  V30 3706 H 345.398 2.00445 -3.65893 0
M  V30 3707 H 344.028 2.02012 -2.51776 0
M  V30 3708 H 343.08 -0.0297798 -3.80388 0
M  V30 3709 H 344.392 0.180383 -4.98474 0
M  V30 3710 H 343.546 2.46929 -5.54176 0
M  V30 3711 H 342.285 2.33033 -4.28424 0
M  V30 3712 H 341.29 0.363545 -5.48597 0
M  V30 3713 H 342.515 0.523551 -6.77079 0
M  V30 3714 H 340.461 2.63394 -6.00799 0
M  V30 3715 H 340.378 1.59201 -7.39047 0
M  V30 3716 H 341.646 2.77639 -7.2838 0
M  V30 3717 N 345.875 1.56104 -0.216619 0
M  V30 3718 C 347.1 2.0301 0.424462 0
M  V30 3719 C 347.525 1.0955 1.52907 0
M  V30 3720 O 346.883 0.0827914 1.81111 0
M  V30 3721 C 346.931 3.4819 0.937883 0
M  V30 3722 O 346.035 3.57865 2.04955 0
M  V30 3723 H 345.376 0.656925 0.0966755 0
M  V30 3724 H 347.906 2.01859 -0.33381 0
M  V30 3725 H 347.916 3.88413 1.24897 0
M  V30 3726 H 346.591 4.15699 0.129387 0
M  V30 3727 H 345.168 3.29527 1.74546 0
M  V30 3728 N 347.353 -0.0568162 1.57498 0
M  V30 3729 C 348.63 -0.786954 1.79071 0
M  V30 3730 C 349.01 -1.95028 0.80792 0
M  V30 3731 O 348.358 -2.27968 -0.155858 0
M  V30 3732 C 348.568 -1.24594 3.26002 0
M  V30 3733 C 349.916 -1.67323 3.90241 0
M  V30 3734 O 350.94 -1.34124 3.29984 0
M  V30 3735 O 349.799 -2.28842 4.9628 0
M  V30 3736 H 346.893 -0.378262 0.735423 0
M  V30 3737 H 349.439 -0.035734 1.69662 0
M  V30 3738 H 348.211 -0.41423 3.89101 0
M  V30 3739 H 347.834 -2.05803 3.40192 0
M  V30 3740 N 348.832 -1.54138 -0.328536 0
M  V30 3741 C 350.08 -1.71765 -1.06496 0
M  V30 3742 C 350.401 -0.49149 -1.88704 0
M  V30 3743 O 349.671 0.494539 -1.89555 0
M  V30 3744 H 348.251 -0.633295 -0.396164 0
M  V30 3745 H 350.913 -1.91429 -0.366176 0
M  V30 3746 H 350.009 -2.5951 -1.73381 0
M  V30 3747 N 350.31 0.590341 -1.46126 0
M  V30 3748 C 351.538 1.37504 -1.54597 0
M  V30 3749 C 351.953 1.87897 -0.184447 0
M  V30 3750 O 351.31 1.63192 0.816984 0
M  V30 3751 C 351.361 2.56779 -2.54454 0
M  V30 3752 O 351.082 2.08476 -3.85317 0
M  V30 3753 C 352.583 3.49427 -2.72792 0
M  V30 3754 H 349.803 0.420325 -0.523037 0
M  V30 3755 H 352.347 0.718383 -1.91467 0
M  V30 3756 H 350.502 3.1845 -2.20609 0
M  V30 3757 H 350.916 2.86097 -4.396 0
M  V30 3758 H 352.39 4.29619 -3.466 0
M  V30 3759 H 352.867 4.00876 -1.79429 0
M  V30 3760 H 353.473 2.93598 -3.07702 0
M  V30 3761 N 351.788 1.33704 0.83433 0
M  V30 3762 C 353.018 1.28281 1.6195 0
M  V30 3763 C 353.426 -0.147603 1.88623 0
M  V30 3764 O 352.769 -1.1016 1.47005 0
M  V30 3765 C 352.831 1.99386 2.99141 0
M  V30 3766 C 352.495 3.48681 2.95416 0
M  V30 3767 C 353.492 4.438 2.70809 0
M  V30 3768 C 351.177 3.90925 3.15409 0
M  V30 3769 C 353.171 5.79138 2.66229 0
M  V30 3770 C 350.858 5.26366 3.10454 0
M  V30 3771 C 351.856 6.20284 2.85895 0
M  V30 3772 O 351.544 7.53245 2.80852 0
M  V30 3773 H 351.276 0.44315 0.510484 0
M  V30 3774 H 353.83 1.76711 1.04702 0
M  V30 3775 H 352.06 1.45554 3.58261 0
M  V30 3776 H 353.749 1.87403 3.60049 0
M  V30 3777 H 354.515 4.12485 2.5511 0
M  V30 3778 H 350.394 3.18229 3.33543 0
M  V30 3779 H 353.938 6.52416 2.4698 0
M  V30 3780 H 349.835 5.57304 3.25703 0
M  V30 3781 H 350.603 7.62846 2.96661 0
M  V30 3782 N 353.266 -1.05314 1.17247 0
M  V30 3783 C 354.512 -1.78699 0.971513 0
M  V30 3784 C 354.867 -1.85932 -0.494692 0
M  V30 3785 O 354.16 -1.34716 -1.36243 0
M  V30 3786 C 354.354 -3.2229 1.54479 0
M  V30 3787 C 354.183 -3.29052 3.06521 0
M  V30 3788 C 352.953 -3.3841 3.75242 0
M  V30 3789 C 355.151 -3.18095 4.04129 0
M  V30 3790 N 353.133 -3.34289 5.14902 0
M  V30 3791 C 354.504 -3.21331 5.30232 0
M  V30 3792 C 356.559 -3.02049 3.95817 0
M  V30 3793 C 355.262 -3.10169 6.4899 0
M  V30 3794 C 357.288 -2.92228 5.14156 0
M  V30 3795 C 356.65 -2.96096 6.39145 0
M  V30 3796 H 352.749 -0.66628 0.409383 0
M  V30 3797 H 355.333 -1.25553 1.4881 0
M  V30 3798 H 353.504 -3.7381 1.05455 0
M  V30 3799 H 355.236 -3.83905 1.28059 0
M  V30 3800 H 351.991 -3.43621 3.25917 0
M  V30 3801 H 352.415 -3.35702 5.87906 0
M  V30 3802 H 357.057 -2.97897 3.00029 0
M  V30 3803 H 354.775 -3.13076 7.44989 0
M  V30 3804 H 358.361 -2.80885 5.09505 0
M  V30 3805 H 357.241 -2.88568 7.29176 0
M  V30 3806 N 354.744 -0.972509 -1.24016 0
M  V30 3807 C 355.972 -0.654803 -1.96265 0
M  V30 3808 C 356.387 0.776708 -1.72083 0
M  V30 3809 O 355.744 1.52171 -1.00748 0
M  V30 3810 C 355.795 -0.92592 -3.49441 0
M  V30 3811 O 355.516 -2.30116 -3.72798 0
M  V30 3812 C 357.017 -0.623068 -4.38899 0
M  V30 3813 H 354.237 -0.243907 -0.6251 0
M  V30 3814 H 356.781 -1.30175 -1.57717 0
M  V30 3815 H 354.936 -0.325108 -3.86033 0
M  V30 3816 H 355.35 -2.38483 -4.67147 0
M  V30 3817 H 356.824 -0.863189 -5.45209 0
M  V30 3818 H 357.301 0.442754 -4.36963 0
M  V30 3819 H 357.907 -1.204 -4.07902 0
M  V30 3820 N 356.222 1.38976 -0.743202 0
M  V30 3821 C 357.471 1.99581 -0.291592 0
M  V30 3822 C 357.784 1.59656 1.13001 0
M  V30 3823 O 358.99 2.13157 1.68156 0
M  V30 3824 C 357.446 3.56813 -0.470391 0
M  V30 3825 C 357.054 4.05695 -1.90041 0
M  V30 3826 C 358.798 4.24423 -0.0809709 0
M  V30 3827 C 356.705 5.5553 -2.02832 0
M  V30 3828 H 355.635 0.746615 -0.105272 0
M  V30 3829 H 358.286 1.58872 -0.918258 0
M  V30 3830 H 356.668 3.95359 0.225299 0
M  V30 3831 H 357.842 3.78464 -2.62872 0
M  V30 3832 H 356.157 3.50775 -2.24379 0
M  V30 3833 H 358.754 5.34474 -0.155445 0
M  V30 3834 H 359.097 4.04962 0.96497 0
M  V30 3835 H 359.63 3.9108 -0.728124 0
M  V30 3836 H 356.369 5.79881 -3.05643 0
M  V30 3837 H 355.889 5.84537 -1.34448 0
M  V30 3838 H 357.568 6.21069 -1.81335 0
M  V30 3839 N 357.7 0.491464 1.49741 0
M  V30 3840 C 358.65 -0.311086 2.25868 0
M  V30 3841 C 359.634 -0.943857 1.30308 0
M  V30 3842 O 360.826 -0.853035 1.55088 0
M  V30 3843 C 357.955 -1.38059 3.14316 0
M  V30 3844 C 357.041 -0.754541 4.17334 0
M  V30 3845 N 357.432 0.137216 5.05614 0
M  V30 3846 C 355.73 -1.01621 4.34269 0
M  V30 3847 C 356.431 0.494614 5.79593 0
M  V30 3848 N 355.407 -0.135169 5.43432 0
M  V30 3849 H 359.209 0.37555 2.91491 0
M  V30 3850 H 356.723 0.306917 1.59473 0
M  V30 3851 H 358.72 -1.96891 3.67477 0
M  V30 3852 H 357.38 -2.06901 2.50244 0
M  V30 3853 H 358.391 0.50741 5.15408 0
M  V30 3854 H 355.068 -1.69808 3.81407 0
M  V30 3855 H 356.458 1.2236 6.60665 0
M  V30 3856 N 359.178 -1.55987 0.224894 0
M  V30 3857 C 360.427 -1.97566 -0.406273 0
M  V30 3858 C 360.74 -1.11569 -1.6066 0
M  V30 3859 O 361.946 -1.43062 -2.3075 0
M  V30 3860 C 360.402 -3.51474 -0.774207 0
M  V30 3861 C 360.01 -4.46179 0.403496 0
M  V30 3862 C 361.754 -4.01758 -1.37079 0
M  V30 3863 C 359.661 -5.91399 0.0129412 0
M  V30 3864 H 358.591 -0.737777 -0.155565 0
M  V30 3865 H 361.242 -1.80659 0.321635 0
M  V30 3866 H 359.624 -3.63994 -1.55963 0
M  V30 3867 H 360.798 -4.45409 1.18101 0
M  V30 3868 H 359.113 -4.06255 0.913536 0
M  V30 3869 H 361.71 -5.07756 -1.67596 0
M  V30 3870 H 362.053 -3.47805 -2.28773 0
M  V30 3871 H 362.586 -3.92475 -0.648733 0
M  V30 3872 H 359.325 -6.49341 0.896451 0
M  V30 3873 H 358.845 -5.95356 -0.728821 0
M  V30 3874 H 360.524 -6.45683 -0.412582 0
M  V30 3875 N 360.656 0.0484629 -1.57525 0
M  V30 3876 C 361.884 0.755421 -1.92616 0
M  V30 3877 C 362.299 1.69919 -0.822984 0
M  V30 3878 O 361.656 1.81378 0.202085 0
M  V30 3879 C 361.707 1.52915 -3.27566 0
M  V30 3880 O 361.428 0.62329 -4.33644 0
M  V30 3881 C 362.929 2.33502 -3.76818 0
M  V30 3882 H 360.149 0.213465 -0.63614 0
M  V30 3883 H 362.693 0.0117698 -2.04497 0
M  V30 3884 H 360.848 2.22486 -3.17142 0
M  V30 3885 H 361.262 1.16383 -5.11425 0
M  V30 3886 H 362.736 2.83214 -4.73808 0
M  V30 3887 H 363.213 3.14068 -3.07014 0
M  V30 3888 H 363.819 1.69043 -3.90262 0
M  V30 3889 N 362.134 1.5431 0.320358 0
M  V30 3890 C 363.545 1.63872 0.894594 0
M  V30 3891 C 363.896 0.534847 1.88769 0
M  V30 3892 O 363.021 -0.331732 2.13842 0
M  V30 3893 C 363.616 2.97049 1.62934 0
M  V30 3894 C 362.175 3.08796 2.15226 0
M  V30 3895 C 361.322 2.59456 0.978671 0
M  V30 3896 H 364.273 1.58398 0.0978544 0
M  V30 3897 H 364.294 2.87388 2.49376 0
M  V30 3898 H 363.806 3.7737 0.906302 0
M  V30 3899 H 361.907 2.33156 2.90636 0
M  V30 3900 H 362.02 4.14649 2.40006 0
M  V30 3901 H 360.384 2.1543 1.35875 0
M  V30 3902 H 361.167 3.42237 0.269895 0
M  V30 3903 N 363.613 -0.582584 1.46437 0
M  V30 3904 C 364.523 -1.71949 1.59595 0
M  V30 3905 C 365.539 -1.67264 0.479443 0
M  V30 3906 O 366.715 -1.87171 0.743579 0
M  V30 3907 C 363.78 -3.08452 1.58298 0
M  V30 3908 C 362.841 -3.244 2.81182 0
M  V30 3909 C 362.074 -4.54391 2.79937 0
M  V30 3910 O 362.297 -5.38287 1.8869 0
M  V30 3911 O 361.231 -4.73588 3.71481 0
M  V30 3912 H 365.057 -1.63795 2.55744 0
M  V30 3913 H 362.642 -0.749643 1.29231 0
M  V30 3914 H 364.524 -3.89732 1.60271 0
M  V30 3915 H 363.199 -3.17043 0.653094 0
M  V30 3916 H 362.106 -2.42613 2.84763 0
M  V30 3917 H 363.439 -3.20699 3.7338 0
M  V30 3918 N 365.091 -1.34144 -0.827227 0
M  V30 3919 C 366.502 -1.23557 -1.39966 0
M  V30 3920 C 366.853 0.140731 -1.95695 0
M  V30 3921 O 365.978 1.04087 -1.89723 0
M  V30 3922 C 366.573 -2.23708 -2.54441 0
M  V30 3923 C 365.132 -2.16924 -3.07605 0
M  V30 3924 C 364.279 -2.10549 -1.80456 0
M  V30 3925 H 367.23 -1.45573 -0.631991 0
M  V30 3926 H 367.251 -1.85157 -3.32411 0
M  V30 3927 H 366.763 -3.23866 -2.13851 0
M  V30 3928 H 364.864 -1.20107 -3.52711 0
M  V30 3929 H 364.977 -3.07988 -3.66988 0
M  V30 3930 H 363.341 -1.56203 -2.01178 0
M  V30 3931 H 364.124 -3.12535 -1.42046 0
M  V30 3932 N 366.569 1.04691 -1.17803 0
M  V30 3933 C 367.479 2.16057 -0.914151 0
M  V30 3934 C 368.495 1.73589 0.119503 0
M  V30 3935 O 369.671 2.01308 -0.0609468 0
M  V30 3936 C 366.736 3.4394 -0.436603 0
M  V30 3937 C 365.797 4.00825 -1.53746 0
M  V30 3938 C 365.03 5.22604 -1.0826 0
M  V30 3939 O 365.253 5.70367 0.0612244 0
M  V30 3940 O 364.187 5.7186 -1.87775 0
M  V30 3941 H 368.013 2.41169 -1.84584 0
M  V30 3942 H 365.598 1.1453 -0.959334 0
M  V30 3943 H 367.48 4.21024 -0.178057 0
M  V30 3944 H 366.155 3.20316 0.466869 0
M  V30 3945 H 365.062 3.25158 -1.84995 0
M  V30 3946 H 366.395 4.28778 -2.41683 0
M  V30 3947 N 368.047 0.979072 1.23499 0
M  V30 3948 C 369.294 0.647219 1.91878 0
M  V30 3949 C 369.622 -0.819074 1.76413 0
M  V30 3950 O 368.877 -1.60616 1.11808 0
M  V30 3951 C 369.176 0.981932 3.43646 0
M  V30 3952 C 368.842 2.43822 3.79291 0
M  V30 3953 C 367.504 2.83622 3.88731 0
M  V30 3954 C 369.856 3.3828 3.96505 0
M  V30 3955 C 367.184 4.16897 4.12812 0
M  V30 3956 C 369.536 4.71197 4.22085 0
M  V30 3957 C 368.2 5.10758 4.29747 0
M  V30 3958 H 367.47 0.236834 0.702133 0
M  V30 3959 H 370.117 1.23268 1.46551 0
M  V30 3960 H 368.422 0.314365 3.90537 0
M  V30 3961 H 370.119 0.703395 3.94783 0
M  V30 3962 H 366.709 2.11966 3.72516 0
M  V30 3963 H 370.893 3.0871 3.88603 0
M  V30 3964 H 366.149 4.47157 4.16966 0
M  V30 3965 H 370.323 5.44348 4.34348 0
M  V30 3966 H 367.95 6.1405 4.48159 0
M  V30 3967 N 369.525 -1.3858 0.750561 0
M  V30 3968 C 370.75 -2.04997 0.314812 0
M  V30 3969 C 371.175 -1.56235 -1.04749 0
M  V30 3970 O 370.533 -0.712981 -1.66692 0
M  V30 3971 C 370.581 -3.58961 0.343415 0
M  V30 3972 O 369.685 -4.07025 -0.663628 0
M  V30 3973 H 369.026 -0.649081 0.139962 0
M  V30 3974 H 371.556 -1.77313 1.02084 0
M  V30 3975 H 371.566 -4.07542 0.193233 0
M  V30 3976 H 370.241 -3.93811 1.33738 0
M  V30 3977 H 368.818 -3.6982 -0.478307 0
M  V30 3978 N 371.003 -0.499398 -1.49478 0
M  V30 3979 C 372.233 0.0424839 -2.06556 0
M  V30 3980 C 372.641 1.31514 -1.36018 0
M  V30 3981 O 371.984 1.78555 -0.431718 0
M  V30 3982 C 372.046 0.368074 -3.57611 0
M  V30 3983 C 371.71 -0.806631 -4.49825 0
M  V30 3984 C 372.707 -1.69667 -4.91436 0
M  V30 3985 C 370.392 -1.00498 -4.92144 0
M  V30 3986 C 372.386 -2.76923 -5.74101 0
M  V30 3987 C 370.073 -2.08072 -5.74586 0
M  V30 3988 C 371.071 -2.96119 -6.15469 0
M  V30 3989 O 370.759 -4.01836 -6.96264 0
M  V30 3990 H 370.491 -0.0165165 -0.675798 0
M  V30 3991 H 373.045 -0.695497 -1.93267 0
M  V30 3992 H 371.275 1.15963 -3.68903 0
M  V30 3993 H 372.964 0.848381 -3.96935 0
M  V30 3994 H 373.73 -1.55524 -4.59388 0
M  V30 3995 H 369.609 -0.329036 -4.59824 0
M  V30 3996 H 373.153 -3.45676 -6.05932 0
M  V30 3997 H 369.05 -2.22211 -6.06047 0
M  V30 3998 H 369.818 -3.9917 -7.14567 0
M  V30 3999 N 372.481 1.55866 -0.233164 0
M  V30 4000 C 373.727 1.98897 0.395959 0
M  V30 4001 C 374.06 1.12091 1.58585 0
M  V30 4002 O 373.335 0.181182 1.93654 0
M  V30 4003 C 373.618 3.50658 0.819224 0
M  V30 4004 C 373.471 4.48233 -0.375109 0
M  V30 4005 C 374.79 4.07135 1.67121 0
M  V30 4006 H 371.909 0.723102 0.142451 0
M  V30 4007 H 374.551 1.87082 -0.331725 0
M  V30 4008 H 372.701 3.60857 1.43925 0
M  V30 4009 H 374.373 4.50031 -1.01341 0
M  V30 4010 H 372.616 4.21624 -1.02058 0
M  V30 4011 H 373.287 5.51988 -0.0358328 0
M  V30 4012 H 375.763 3.99952 1.14795 0
M  V30 4013 H 374.639 5.13615 1.93625 0
M  V30 4014 H 374.9 3.54736 2.63846 0
M  V30 4015 N 373.959 -0.0401083 1.57549 0
M  V30 4016 C 375.184 -0.748931 1.93406 0
M  V30 4017 C 375.609 -1.68686 0.832274 0
M  V30 4018 O 374.967 -1.80047 -0.212818 0
M  V30 4019 C 375.015 -1.4916 3.28304 0
M  V30 4020 O 374.119 -2.6042 3.19774 0
M  V30 4021 H 373.46 -0.202212 0.63246 0
M  V30 4022 H 375.99 0.00112086 2.046 0
M  V30 4023 H 376 -1.86395 3.62934 0
M  V30 4024 H 374.675 -0.80364 4.08062 0
M  V30 4025 H 373.252 -2.25808 2.96758 0
M  V30 4026 N 375.437 -1.54477 -0.31217 0
M  V30 4027 C 376.684 -1.73227 -1.04875 0
M  V30 4028 C 377.012 -0.512042 -1.87639 0
M  V30 4029 O 376.267 0.506131 -1.89042 0
M  V30 4030 C 376.566 -2.967 -1.99258 0
M  V30 4031 C 376.232 -4.30974 -1.32559 0
M  V30 4032 C 374.894 -4.67477 -1.141 0
M  V30 4033 C 377.246 -5.14258 -0.847835 0
M  V30 4034 C 374.574 -5.84852 -0.465326 0
M  V30 4035 C 376.926 -6.32327 -0.185931 0
M  V30 4036 C 375.59 -6.67499 0.0107077 0
M  V30 4037 H 374.86 -0.633881 -0.383765 0
M  V30 4038 H 377.507 -1.88727 -0.324731 0
M  V30 4039 H 375.812 -2.75935 -2.7815 0
M  V30 4040 H 377.509 -3.08401 -2.563 0
M  V30 4041 H 374.099 -4.02262 -1.4793 0
M  V30 4042 H 378.283 -4.86565 -0.978192 0
M  V30 4043 H 373.539 -6.10654 -0.301883 0
M  V30 4044 H 377.713 -6.96135 0.192211 0
M  V30 4045 H 375.34 -7.58306 0.536287 0
M  V30 4046 N 376.915 0.57481 -1.46744 0
M  V30 4047 C 377.825 1.711 -1.60505 0
M  V30 4048 C 378.841 1.67008 -0.488307 0
M  V30 4049 O 380.017 1.86774 -0.753495 0
M  V30 4050 C 377.082 3.07608 -1.59932 0
M  V30 4051 C 376.143 3.22904 -2.82898 0
M  V30 4052 C 375.376 4.529 -2.82343 0
M  V30 4053 O 375.599 5.37278 -1.91542 0
M  V30 4054 O 374.533 4.71611 -3.73987 0
M  V30 4055 H 378.359 1.62436 -2.56609 0
M  V30 4056 H 375.944 0.742779 -1.29627 0
M  V30 4057 H 377.826 3.88877 -1.62336 0
M  V30 4058 H 376.501 3.16692 -0.669898 0
M  V30 4059 H 375.408 2.41099 -2.86046 0
M  V30 4060 H 376.741 3.18715 -3.75076 0
M  V30 4061 N 378.394 1.34581 0.820102 0
M  V30 4062 C 379.622 1.3018 1.60813 0
M  V30 4063 C 380.037 -0.123551 1.88395 0
M  V30 4064 O 379.394 -1.07148 1.47735 0
M  V30 4065 C 379.445 2.09312 2.94739 0
M  V30 4066 O 379.166 3.46288 2.68358 0
M  V30 4067 C 380.667 2.1234 3.89136 0
M  V30 4068 H 377.887 0.447726 0.499782 0
M  V30 4069 H 380.431 1.77237 1.02017 0
M  V30 4070 H 378.586 1.65889 3.50085 0
M  V30 4071 H 379 3.87227 3.53774 0
M  V30 4072 H 380.474 2.72126 4.80262 0
M  V30 4073 H 380.951 1.11854 4.24718 0
M  V30 4074 H 381.557 2.55864 3.39726 0
M  V30 4075 N 379.872 -1.04064 1.18357 0
M  V30 4076 C 380.82 -2.14187 0.907007 0
M  V30 4077 C 381.814 -1.68879 -0.132725 0
M  V30 4078 O 383.02 -1.79993 0.0154248 0
M  V30 4079 H 379.395 -0.699585 0.275835 0
M  V30 4080 H 381.366 -2.34711 1.84264 0
M  V30 4081 C 380.115 -3.44785 0.449254 0
M  V30 4082 H 379.438 -3.80058 1.24081 0
M  V30 4083 H 380.878 -4.22974 0.294737 0
M  V30 4084 C 379.337 -3.26391 -0.834909 0
M  V30 4085 O 379.867 -3.53973 -1.89911 0
M  V30 4086 N 378.073 -2.79726 -0.787523 0
M  V30 4087 H 377.62 -2.5748 0.0787347 0
M  V30 4088 H 377.578 -2.67798 -1.64716 0
M  V30 4089 N 381.35 -0.985608 -1.22978 0
M  V30 4090 C 382.28 -0.549649 -2.26939 0
M  V30 4091 C 383.261 0.419803 -1.64838 0
M  V30 4092 O 384.446 0.31203 -1.91677 0
M  V30 4093 C 381.576 0.143652 -3.47003 0
M  V30 4094 C 380.53 -0.743606 -4.21491 0
M  V30 4095 C 379.856 0.0822027 -5.34637 0
M  V30 4096 C 381.156 -2.03694 -4.80943 0
M  V30 4097 H 382.85 -1.41862 -2.63658 0
M  V30 4098 H 380.396 -0.683571 -1.26741 0
M  V30 4099 H 382.349 0.459985 -4.18882 0
M  V30 4100 H 381.073 1.04711 -3.09359 0
M  V30 4101 H 379.732 -1.04347 -3.51436 0
M  V30 4102 H 379.38 0.986359 -4.93234 0
M  V30 4103 H 379.08 -0.508377 -5.85397 0
M  V30 4104 H 380.604 0.392797 -6.09335 0
M  V30 4105 H 382.018 -1.78504 -5.44802 0
M  V30 4106 H 380.415 -2.57573 -5.42011 0
M  V30 4107 H 381.485 -2.72042 -4.01399 0
M  V30 4108 N 382.828 1.3818 -0.7579 0
M  V30 4109 C 384.053 2.04827 -0.325679 0
M  V30 4110 C 384.478 1.56788 1.03919 0
M  V30 4111 O 383.836 0.721811 1.66312 0
M  V30 4112 C 383.884 3.58774 -0.362447 0
M  V30 4113 O 382.988 4.07372 0.642033 0
M  V30 4114 H 382.329 0.64833 -0.143402 0
M  V30 4115 H 384.859 1.7677 -1.03023 0
M  V30 4116 H 384.869 4.07434 -0.214844 0
M  V30 4117 H 383.544 3.93096 -1.35824 0
M  V30 4118 H 382.121 3.70068 0.458688 0
M  V30 4119 N 384.306 0.507319 1.49211 0
M  V30 4120 C 385.238 -0.304532 2.27168 0
M  V30 4121 C 386.251 -0.924956 1.33972 0
M  V30 4122 O 387.44 -0.807227 1.59205 0
M  V30 4123 C 384.54 -1.44431 3.06583 0
M  V30 4124 C 383.713 -0.930026 4.27398 0
M  V30 4125 C 382.772 -1.94817 4.88807 0
M  V30 4126 O 381.798 -1.51418 5.4869 0
M  V30 4127 N 383 -3.279 4.79022 0
M  V30 4128 H 385.765 0.36395 2.97482 0
M  V30 4129 H 383.326 0.340249 1.58284 0
M  V30 4130 H 385.318 -2.12311 3.44537 0
M  V30 4131 H 383.888 -2.01684 2.38835 0
M  V30 4132 H 383.108 -0.0759244 3.94127 0
M  V30 4133 H 384.396 -0.564932 5.05654 0
M  V30 4134 H 383.794 -3.65843 4.3148 0
M  V30 4135 H 382.351 -3.91476 5.21142 0
M  V30 4136 N 385.784 -1.5574 0.241426 0
M  V30 4137 C 387.012 -2.03208 -0.389134 0
M  V30 4138 C 387.427 -1.12082 -1.51931 0
M  V30 4139 O 386.784 -0.134183 -1.82006 0
M  V30 4140 C 386.835 -3.50064 -0.902087 0
M  V30 4141 O 386.556 -4.37717 0.18305 0
M  V30 4142 C 388.057 -4.13268 -1.60389 0
M  V30 4143 H 385.277 -0.664509 -0.0931053 0
M  V30 4144 H 387.821 -2.0124 0.36369 0
M  V30 4145 H 385.976 -3.52583 -1.60511 0
M  V30 4146 H 386.39 -5.24097 -0.205579 0
M  V30 4147 H 387.864 -5.17733 -1.91458 0
M  V30 4148 H 388.341 -3.59434 -2.52397 0
M  V30 4149 H 388.947 -4.14655 -0.945576 0
M  V30 4150 N 387.262 0.0317525 -1.57568 0
M  V30 4151 C 388.487 0.738664 -1.938 0
M  V30 4152 C 388.912 1.68242 -0.841208 0
M  V30 4153 O 388.27 1.80157 0.203267 0
M  V30 4154 C 388.318 1.47417 -3.29091 0
M  V30 4155 O 387.422 2.5872 -3.2115 0
M  V30 4156 H 386.763 0.198856 -0.633524 0
M  V30 4157 H 389.293 -0.0119713 -2.04596 0
M  V30 4158 H 389.303 1.84468 -3.63917 0
M  V30 4159 H 387.978 0.781988 -4.08482 0
M  V30 4160 H 386.555 2.24231 -2.97951 0
M  V30 4161 N 388.74 1.54641 0.303973 0
M  V30 4162 C 389.97 1.77511 1.05705 0
M  V30 4163 C 390.378 0.533228 1.81531 0
M  V30 4164 O 389.721 -0.506423 1.76582 0
M  V30 4165 C 389.783 2.92779 2.08617 0
M  V30 4166 C 389.447 4.30977 1.52013 0
M  V30 4167 C 390.444 5.11115 0.9517 0
M  V30 4168 C 388.129 4.77571 1.55665 0
M  V30 4169 C 390.123 6.35966 0.427327 0
M  V30 4170 C 387.81 6.02384 1.02841 0
M  V30 4171 C 388.808 6.81417 0.464713 0
M  V30 4172 O 388.496 8.03881 -0.0555283 0
M  V30 4173 H 388.228 0.59579 0.319391 0
M  V30 4174 H 390.782 2.02401 0.349712 0
M  V30 4175 H 389.012 2.63506 2.83022 0
M  V30 4176 H 390.701 3.03252 2.69802 0
M  V30 4177 H 391.467 4.76264 0.916407 0
M  V30 4178 H 387.346 4.16085 1.9848 0
M  V30 4179 H 390.89 6.97599 -0.0133062 0
M  V30 4180 H 386.787 6.36723 1.06084 0
M  V30 4181 H 387.555 8.18479 0.0580522 0
M  V30 4182 N 390.218 -0.567019 1.47046 0
M  V30 4183 C 391.495 -1.3276 1.43646 0
M  V30 4184 C 391.875 -2.1071 0.128186 0
M  V30 4185 O 391.223 -2.10441 -0.890326 0
M  V30 4186 C 391.433 -2.2404 2.67595 0
M  V30 4187 C 392.781 -2.85372 3.14401 0
M  V30 4188 O 393.805 -2.34346 2.68254 0
M  V30 4189 O 392.664 -3.78091 3.946 0
M  V30 4190 H 389.758 -0.597293 0.571988 0
M  V30 4191 H 392.304 -0.586735 1.59234 0
M  V30 4192 H 391.076 -1.65975 3.54356 0
M  V30 4193 H 390.699 -3.05439 2.54544 0
M  V30 4194 N 391.696 -1.35014 -0.812953 0
M  V30 4195 C 392.973 -1.18502 -1.55617 0
M  V30 4196 C 393.353 0.238421 -2.09749 0
M  V30 4197 O 392.701 1.2411 -1.91857 0
M  V30 4198 C 392.911 -2.24783 -2.66971 0
M  V30 4199 C 394.259 -2.60268 -3.35478 0
M  V30 4200 O 395.283 -2.23648 -2.77236 0
M  V30 4201 O 394.142 -3.2321 -4.40678 0
M  V30 4202 H 391.236 -0.459984 -0.687272 0
M  V30 4203 H 393.782 -1.46677 -0.853464 0
M  V30 4204 H 392.554 -3.20284 -2.24798 0
M  V30 4205 H 392.177 -1.97841 -3.44884 0
M  V30 4206 N 393.175 1.03435 -1.18907 0
M  V30 4207 C 394.105 2.13503 -0.945448 0
M  V30 4208 C 395.086 1.69682 0.119189 0
M  V30 4209 O 396.271 1.94169 -0.034707 0
M  V30 4210 C 393.401 3.44004 -0.477316 0
M  V30 4211 C 392.355 4.0148 -1.48316 0
M  V30 4212 C 391.681 5.27537 -0.872311 0
M  V30 4213 C 392.981 4.36921 -2.86177 0
M  V30 4214 H 394.675 2.34141 -1.86597 0
M  V30 4215 H 392.221 1.12523 -0.898584 0
M  V30 4216 H 394.174 4.20372 -0.294204 0
M  V30 4217 H 392.898 3.23072 0.478786 0
M  V30 4218 H 391.557 3.27201 -1.65332 0
M  V30 4219 H 391.205 5.02917 0.0911752 0
M  V30 4220 H 390.905 5.66954 -1.54393 0
M  V30 4221 H 392.429 6.06576 -0.699871 0
M  V30 4222 H 393.843 5.04248 -2.72776 0
M  V30 4223 H 392.24 4.87405 -3.50081 0
M  V30 4224 H 393.31 3.46466 -3.39248 0
M  V30 4225 N 394.653 0.992116 1.22453 0
M  V30 4226 C 395.902 0.662992 1.90492 0
M  V30 4227 C 396.215 -0.808407 1.78113 0
M  V30 4228 O 397.421 -1.24908 2.41061 0
M  V30 4229 C 395.877 1.1353 3.41524 0
M  V30 4230 C 395.485 2.63187 3.62542 0
M  V30 4231 C 397.229 0.880465 4.15269 0
M  V30 4232 C 395.136 3.04024 5.0727 0
M  V30 4233 H 394.066 0.244278 0.713333 0
M  V30 4234 H 396.717 1.20157 1.38688 0
M  V30 4235 H 395.099 0.52485 3.92506 0
M  V30 4236 H 396.273 3.2957 3.22056 0
M  V30 4237 H 394.588 2.86543 3.02129 0
M  V30 4238 H 397.185 1.16128 5.21937 0
M  V30 4239 H 397.528 -0.183408 4.15896 0
M  V30 4240 H 398.061 1.45307 3.70312 0
M  V30 4241 H 394.8 4.09584 5.11782 0
M  V30 4242 H 394.32 2.42343 5.48662 0
M  V30 4243 H 395.999 2.95282 5.75689 0
M  V30 4244 N 396.131 -1.37776 0.765217 0
M  V30 4245 C 397.547 -1.53297 0.444108 0
M  V30 4246 C 397.747 -1.72515 -1.04119 0
M  V30 4247 O 396.803 -1.74278 -1.82711 0
M  V30 4248 C 398.116 -2.73328 1.25349 0
M  V30 4249 C 399.664 -2.87185 1.24473 0
M  V30 4250 C 400.139 -4.10191 2.03733 0
M  V30 4251 N 401.63 -4.17291 2.01053 0
M  V30 4252 C 402.365 -5.11488 2.59166 0
M  V30 4253 N 401.861 -6.11285 3.26041 0
M  V30 4254 N 403.654 -5.03924 2.49032 0
M  V30 4255 H 395.805 -1.23552 1.72768 0
M  V30 4256 H 398.068 -0.601103 0.733062 0
M  V30 4257 H 397.774 -2.6557 2.30577 0
M  V30 4258 H 397.648 -3.66834 0.87823 0
M  V30 4259 H 400.035 -2.94418 0.20047 0
M  V30 4260 H 400.116 -1.94657 1.65959 0
M  V30 4261 H 399.76 -4.0372 3.08176 0
M  V30 4262 H 399.69 -5.01821 1.59633 0
M  V30 4263 H 402.181 -3.45825 1.5236 0
M  V30 4264 H 402.494 -6.79678 3.67774 0
M  V30 4265 H 400.839 -6.11583 3.30138 0
M  V30 4266 H 404.03 -4.24902 1.96407 0
M  V30 4267 H 404.203 -5.77152 2.94617 0
M  V30 4268 N 397.609 -0.515225 -1.4894 0
M  V30 4269 C 398.556 0.255567 -2.29381 0
M  V30 4270 C 399.526 0.947387 -1.36432 0
M  V30 4271 O 400.711 0.951288 -1.65394 0
M  V30 4272 C 397.851 1.30551 -3.19453 0
M  V30 4273 C 396.964 0.624029 -4.27469 0
M  V30 4274 C 396.099 1.65563 -5.0474 0
M  V30 4275 C 395.138 0.956802 -6.04576 0
M  V30 4276 N 394.275 1.93326 -6.74959 0
M  V30 4277 H 399.115 -0.436607 -2.94784 0
M  V30 4278 H 396.652 -0.227154 -1.45336 0
M  V30 4279 H 398.61 1.92639 -3.70062 0
M  V30 4280 H 397.24 1.96626 -2.56004 0
M  V30 4281 H 396.292 -0.110459 -3.8024 0
M  V30 4282 H 397.604 0.0746092 -4.98744 0
M  V30 4283 H 396.758 2.35119 -5.59289 0
M  V30 4284 H 395.497 2.23893 -4.3327 0
M  V30 4285 H 394.502 0.247097 -5.49244 0
M  V30 4286 H 395.727 0.379814 -6.78037 0
M  V30 4287 H 393.673 2.50591 -6.06251 0
M  V30 4288 H 393.59 1.43489 -7.42258 0
M  V30 4289 H 394.858 2.62126 -7.34105 0
M  V30 4290 N 399.087 1.5561 -0.249682 0
M  V30 4291 C 400.333 1.99306 0.374841 0
M  V30 4292 C 400.666 1.13767 1.57387 0
M  V30 4293 O 399.941 0.201711 1.93451 0
M  V30 4294 C 400.224 3.51507 0.781986 0
M  V30 4295 C 400.077 4.4781 -0.422629 0
M  V30 4296 C 401.396 4.08884 1.62793 0
M  V30 4297 H 398.515 0.724572 0.134773 0
M  V30 4298 H 401.157 1.86719 -0.351549 0
M  V30 4299 H 399.307 3.62363 1.4009 0
M  V30 4300 H 400.979 4.48931 -1.06108 0
M  V30 4301 H 399.222 4.20518 -1.06524 0
M  V30 4302 H 399.893 5.51919 -0.0943766 0
M  V30 4303 H 402.369 4.01147 1.10547 0
M  V30 4304 H 401.245 5.1564 1.88166 0
M  V30 4305 H 401.506 3.57515 2.60068 0
M  V30 4306 N 400.565 -0.0233959 1.57583 0
M  V30 4307 C 401.811 -0.714119 1.89811 0
M  V30 4308 C 402.144 -1.74702 0.848113 0
M  V30 4309 O 401.419 -1.94023 -0.136135 0
M  V30 4310 C 401.702 -1.37853 3.32669 0
M  V30 4311 C 401.555 -0.358764 4.48367 0
M  V30 4312 C 402.874 -2.31101 3.7454 0
M  V30 4313 H 399.993 -0.25814 0.690314 0
M  V30 4314 H 402.635 0.0230927 1.89986 0
M  V30 4315 H 400.785 -2.00689 3.3265 0
M  V30 4316 H 402.457 0.268115 4.6052 0
M  V30 4317 H 400.7 0.321387 4.32608 0
M  V30 4318 H 401.371 -0.862242 5.45224 0
M  V30 4319 H 403.847 -1.78304 3.75961 0
M  V30 4320 H 402.723 -2.74567 4.75294 0
M  V30 4321 H 402.984 -3.18018 3.0711 0
M  V30 4322 N 402.043 -1.548 -0.295768 0
M  V30 4323 C 402.953 -1.89177 -1.38742 0
M  V30 4324 C 403.969 -0.786481 -1.55211 0
M  V30 4325 O 405.145 -1.08344 -1.69775 0
M  V30 4326 C 402.21 -2.13663 -2.73036 0
M  V30 4327 C 401.271 -3.37349 -2.65508 0
M  V30 4328 C 400.504 -3.60658 -3.93398 0
M  V30 4329 O 400.727 -2.86882 -4.93006 0
M  V30 4330 O 399.661 -4.54179 -3.94975 0
M  V30 4331 H 403.487 -2.82059 -1.12589 0
M  V30 4332 H 401.072 -1.41056 -0.492295 0
M  V30 4333 H 402.954 -2.3094 -3.52484 0
M  V30 4334 H 401.629 -1.23967 -2.99022 0
M  V30 4335 H 400.536 -3.25431 -1.84514 0
M  V30 4336 H 401.869 -4.27192 -2.44474 0
M  V30 4337 N 403.521 0.559213 -1.47345 0
M  V30 4338 C 404.767 1.31843 -1.54095 0
M  V30 4339 C 405.1 1.93149 -0.201726 0
M  V30 4340 O 404.375 1.77759 0.789428 0
M  V30 4341 C 404.658 2.43006 -2.65744 0
M  V30 4342 C 404.511 1.86581 -4.09277 0
M  V30 4343 C 405.83 3.44943 -2.73318 0
M  V30 4344 H 402.949 0.478012 -0.560957 0
M  V30 4345 H 405.591 0.625977 -1.79392 0
M  V30 4346 H 403.741 3.02072 -2.44305 0
M  V30 4347 H 405.413 1.31792 -4.42073 0
M  V30 4348 H 403.656 1.17268 -4.17649 0
M  V30 4349 H 404.327 2.66933 -4.83168 0
M  V30 4350 H 406.803 2.95793 -2.92653 0
M  V30 4351 H 405.679 4.20153 -3.53218 0
M  V30 4352 H 405.94 4.03665 -1.80296 0
M  V30 4353 N 404.999 1.35443 0.805782 0
M  V30 4354 C 406.246 1.28761 1.56291 0
M  V30 4355 C 406.574 -0.137747 1.94012 0
M  V30 4356 O 405.829 -1.1032 1.61642 0
M  V30 4357 C 406.128 2.14045 2.86216 0
M  V30 4358 C 405.794 3.62826 2.67709 0
M  V30 4359 C 404.456 4.0338 2.6237 0
M  V30 4360 C 406.808 4.57227 2.50186 0
M  V30 4361 C 404.136 5.36501 2.37451 0
M  V30 4362 C 406.488 5.90547 2.26797 0
M  V30 4363 C 405.152 6.30245 2.1988 0
M  V30 4364 H 404.422 0.471171 0.571908 0
M  V30 4365 H 407.069 1.67347 0.930974 0
M  V30 4366 H 405.374 1.68342 3.53791 0
M  V30 4367 H 407.071 2.0621 3.43917 0
M  V30 4368 H 403.661 3.30644 2.72713 0
M  V30 4369 H 407.845 4.2678 2.53323 0
M  V30 4370 H 403.101 5.66259 2.30567 0
M  V30 4371 H 407.275 6.63274 2.12228 0
M  V30 4372 H 404.902 7.33328 2.00333 0
M  V30 4373 N 406.477 -1.02803 1.19454 0
M  V30 4374 C 407.424 -2.11099 0.933046 0
M  V30 4375 C 408.394 -1.65571 -0.132447 0
M  V30 4376 O 409.579 -1.90797 0.00987576 0
M  V30 4377 C 406.719 -3.41763 0.478747 0
M  V30 4378 C 405.832 -4.00833 1.6111 0
M  V30 4379 C 404.967 -5.19511 1.10825 0
M  V30 4380 C 404.006 -5.70639 2.21445 0
M  V30 4381 N 403.143 -6.80589 1.72461 0
M  V30 4382 H 407.983 -2.32804 1.86028 0
M  V30 4383 H 405.52 -1.14179 0.927441 0
M  V30 4384 H 407.478 -4.16736 0.196745 0
M  V30 4385 H 406.108 -3.20166 -0.411493 0
M  V30 4386 H 405.16 -3.23066 2.00829 0
M  V30 4387 H 406.472 -4.34794 2.4445 0
M  V30 4388 H 405.626 -6.01645 0.781533 0
M  V30 4389 H 404.365 -4.87086 0.244606 0
M  V30 4390 H 403.37 -4.87116 2.54947 0
M  V30 4391 H 404.595 -6.05102 3.08267 0
M  V30 4392 H 402.541 -6.50016 0.884056 0
M  V30 4393 H 402.458 -7.13681 2.49389 0
M  V30 4394 H 403.726 -7.66317 1.42755 0
M  V30 4395 N 407.956 -0.998596 -1.21925 0
M  V30 4396 C 409.367 -0.711939 -1.72593 0
M  V30 4397 C 409.718 0.770842 -1.80423 0
M  V30 4398 O 408.843 1.60237 -1.4544 0
M  V30 4399 C 409.438 -1.28567 -3.13458 0
M  V30 4400 C 407.997 -1.04828 -3.61508 0
M  V30 4401 C 407.144 -1.4024 -2.39224 0
M  V30 4402 H 410.095 -1.17027 -1.07193 0
M  V30 4403 H 410.116 -0.667098 -3.74607 0
M  V30 4404 H 409.628 -2.36486 -3.07727 0
M  V30 4405 H 407.729 0.0140383 -3.72597 0
M  V30 4406 H 407.842 -1.71566 -4.47328 0
M  V30 4407 H 406.206 -0.821077 -2.41103 0
M  V30 4408 H 406.989 -2.49176 -2.36149 0
M  V30 4409 N 409.434 1.37368 -0.772513 0
M  V30 4410 C 410.682 1.99279 -0.336516 0
M  V30 4411 C 411.003 1.6163 1.09091 0
M  V30 4412 O 410.273 0.882109 1.74916 0
M  V30 4413 H 408.853 0.737063 -0.121435 0
M  V30 4414 H 411.515 1.67836 -0.990809 0
M  V30 4415 H 410.611 3.09332 -0.414763 0
M  V30 4416 N 410.912 0.523116 1.48665 0
M  V30 4417 C 411.859 -0.243398 2.29513 0
M  V30 4418 C 412.829 -0.940139 1.36933 0
M  V30 4419 O 414.014 -0.942503 1.65896 0
M  V30 4420 C 411.154 -1.28855 3.20141 0
M  V30 4421 C 410.267 -0.60135 4.27794 0
M  V30 4422 C 409.402 -1.62884 5.05611 0
M  V30 4423 C 408.441 -0.924726 6.05075 0
M  V30 4424 N 407.578 -1.89744 6.75975 0
M  V30 4425 H 412.418 0.452234 2.94549 0
M  V30 4426 H 409.955 0.234858 1.45213 0
M  V30 4427 H 411.913 -1.90674 3.71079 0
M  V30 4428 H 410.543 -1.95266 2.57043 0
M  V30 4429 H 409.595 0.130623 3.80176 0
M  V30 4430 H 410.907 -0.0481585 4.98777 0
M  V30 4431 H 410.061 -2.32149 5.60528 0
M  V30 4432 H 408.8 -2.21592 4.34452 0
M  V30 4433 H 407.805 -0.217966 5.49368 0
M  V30 4434 H 409.03 -0.343851 6.78229 0
M  V30 4435 H 406.976 -2.47373 6.07571 0
M  V30 4436 H 406.893 -1.3955 7.43009 0
M  V30 4437 H 408.161 -2.58229 7.35485 0
M  V30 4438 N 412.39 -1.55475 0.257931 0
M  V30 4439 C 413.637 -1.99207 -0.363728 0
M  V30 4440 C 413.965 -1.1462 -1.57139 0
M  V30 4441 O 413.22 -0.199653 -1.94679 0
M  V30 4442 C 413.519 -3.48183 -0.806433 0
M  V30 4443 C 413.185 -4.49936 0.294684 0
M  V30 4444 C 411.847 -4.77481 0.597076 0
M  V30 4445 C 414.199 -5.10769 1.03751 0
M  V30 4446 C 411.527 -5.63132 1.64618 0
M  V30 4447 C 413.879 -5.97558 2.07622 0
M  V30 4448 C 412.543 -6.23432 2.38514 0
M  V30 4449 H 411.813 -0.728949 -0.133097 0
M  V30 4450 H 414.46 -1.8793 0.368059 0
M  V30 4451 H 412.765 -3.56848 -1.61761 0
M  V30 4452 H 414.462 -3.79415 -1.29789 0
M  V30 4453 H 411.052 -4.28572 0.0488649 0
M  V30 4454 H 415.236 -4.89527 0.817149 0
M  V30 4455 H 410.492 -5.8143 1.89074 0
M  V30 4456 H 414.666 -6.43735 2.65666 0
M  V30 4457 H 412.293 -6.89594 3.19943 0
M  V30 4458 N 413.868 0.0150385 -1.57593 0
M  V30 4459 C 415.114 0.704043 -1.90187 0
M  V30 4460 C 415.447 1.74249 -0.857366 0
M  V30 4461 O 414.722 1.94092 0.125843 0
M  V30 4462 C 415.005 1.36087 -3.33395 0
M  V30 4463 C 414.858 0.334981 -4.48551 0
M  V30 4464 C 416.177 2.29112 -3.7576 0
M  V30 4465 H 413.296 0.254475 -0.691673 0
M  V30 4466 H 415.938 -0.0331678 -1.89971 0
M  V30 4467 H 414.088 1.98922 -3.3371 0
M  V30 4468 H 415.76 -0.292534 -4.60372 0
M  V30 4469 H 414.003 -0.344325 -4.32431 0
M  V30 4470 H 414.674 0.833316 -5.45674 0
M  V30 4471 H 417.15 1.76308 -3.76902 0
M  V30 4472 H 416.026 2.72043 -4.76743 0
M  V30 4473 H 416.287 3.16385 -3.08793 0
M  V30 4474 N 415.346 1.54954 0.287554 0
M  V30 4475 C 416.574 1.78881 1.03967 0
M  V30 4476 C 416.989 0.554894 1.80462 0
M  V30 4477 O 416.346 -0.475676 1.76192 0
M  V30 4478 C 416.397 3.00488 2.0097 0
M  V30 4479 O 416.118 4.19113 1.27577 0
M  V30 4480 C 417.619 3.36907 2.88112 0
M  V30 4481 H 414.839 0.596259 0.307761 0
M  V30 4482 H 417.383 2.01937 0.322749 0
M  V30 4483 H 415.538 2.79601 2.68145 0
M  V30 4484 H 415.952 4.87765 1.92835 0
M  V30 4485 H 417.426 4.25205 3.52001 0
M  V30 4486 H 417.903 2.55659 3.57121 0
M  V30 4487 H 418.509 3.60001 2.26449 0
M  V30 4488 N 416.824 -0.551391 1.4764 0
M  V30 4489 C 418.052 -1.33357 1.58189 0
M  V30 4490 C 418.467 -1.87342 0.234199 0
M  V30 4491 O 417.824 -1.65301 -0.77343 0
M  V30 4492 C 417.875 -2.49942 2.61173 0
M  V30 4493 O 417.596 -1.98187 3.90709 0
M  V30 4494 C 419.097 -3.42072 2.8196 0
M  V30 4495 H 416.317 -0.40631 0.533998 0
M  V30 4496 H 418.861 -0.667367 1.93304 0
M  V30 4497 H 417.016 -3.12489 2.28975 0
M  V30 4498 H 417.43 -2.74342 4.47031 0
M  V30 4499 H 418.904 -4.20278 3.57869 0
M  V30 4500 H 419.381 -3.95978 1.89995 0
M  V30 4501 H 419.987 -2.85336 3.15378 0
M  V30 4502 N 418.302 -1.35869 -0.798587 0
M  V30 4503 C 419.232 -1.32118 -1.92528 0
M  V30 4504 C 420.213 -0.194209 -1.68988 0
M  V30 4505 O 421.398 -0.390426 -1.90235 0
M  V30 4506 C 418.528 -1.10047 -3.29404 0
M  V30 4507 C 417.482 -2.19471 -3.67446 0
M  V30 4508 C 416.808 -1.82555 -5.02571 0
M  V30 4509 C 418.108 -3.61495 -3.76987 0
M  V30 4510 H 419.802 -2.26394 -1.95924 0
M  V30 4511 H 417.348 -1.08981 -0.94123 0
M  V30 4512 H 419.301 -1.06061 -4.07835 0
M  V30 4513 H 418.025 -0.122195 -3.26371 0
M  V30 4514 H 416.684 -2.22568 -2.91306 0
M  V30 4515 H 416.332 -0.833249 -4.9605 0
M  V30 4516 H 416.032 -2.5581 -5.28995 0
M  V30 4517 H 417.556 -1.80108 -5.83432 0
M  V30 4518 H 418.97 -3.60676 -4.4563 0
M  V30 4519 H 417.367 -4.33577 -4.14887 0
M  V30 4520 H 418.437 -3.97065 -2.78329 0
M  V30 4521 N 419.78 1.02168 -1.19998 0
M  V30 4522 C 421.027 1.75685 -1.00702 0
M  V30 4523 C 421.355 1.88947 0.461426 0
M  V30 4524 O 420.61 1.40832 1.35885 0
M  V30 4525 C 420.909 3.18081 -1.62969 0
M  V30 4526 C 420.575 3.24809 -3.12746 0
M  V30 4527 C 419.237 3.26352 -3.53621 0
M  V30 4528 C 421.589 3.23379 -4.08749 0
M  V30 4529 C 418.917 3.2413 -4.89036 0
M  V30 4530 C 421.269 3.22698 -5.44104 0
M  V30 4531 C 419.933 3.22542 -5.84399 0
M  V30 4532 H 419.203 0.642877 -0.368496 0
M  V30 4533 H 421.85 1.19865 -1.49348 0
M  V30 4534 H 420.155 3.77027 -1.06573 0
M  V30 4535 H 421.852 3.73648 -1.45561 0
M  V30 4536 H 418.442 3.2434 -2.80181 0
M  V30 4537 H 422.626 3.21361 -3.78207 0
M  V30 4538 H 417.882 3.22338 -5.19527 0
M  V30 4539 H 422.056 3.20543 -6.18244 0
M  V30 4540 H 419.683 3.20575 -6.89301 0
M  V30 4541 N 421.258 1.00505 1.21394 0
M  V30 4542 C 422.504 0.688793 1.90745 0
M  V30 4543 C 422.837 -0.778486 1.77914 0
M  V30 4544 O 422.112 -1.56433 1.15581 0
M  V30 4545 C 422.395 1.11063 3.42545 0
M  V30 4546 C 422.248 2.63737 3.64367 0
M  V30 4547 C 423.567 0.673059 4.34923 0
M  V30 4548 H 420.686 0.251702 0.692687 0
M  V30 4549 H 423.328 1.25074 1.43026 0
M  V30 4550 H 421.478 0.632508 3.83317 0
M  V30 4551 H 423.15 3.19313 3.32922 0
M  V30 4552 H 421.393 3.05248 3.08231 0
M  V30 4553 H 422.064 2.88305 4.70727 0
M  V30 4554 H 424.54 1.08392 4.01734 0
M  V30 4555 H 423.416 0.996383 5.39781 0
M  V30 4556 H 423.677 -0.425808 4.40045 0
M  V30 4557 N 422.737 -1.36956 0.779787 0
M  V30 4558 C 423.685 -2.32053 0.15942 0
M  V30 4559 C 424.679 -1.55333 -0.675878 0
M  V30 4560 O 425.885 -1.70668 -0.57204 0
M  V30 4561 H 422.26 -0.751286 0.0327707 0
M  V30 4562 H 424.231 -2.8195 0.977078 0
M  V30 4563 C 422.98 -3.40602 -0.698977 0
M  V30 4564 H 422.303 -3.99746 -0.0655966 0
M  V30 4565 H 423.743 -4.09486 -1.09989 0
M  V30 4566 C 422.202 -2.81359 -1.85307 0
M  V30 4567 O 422.732 -2.72751 -2.94906 0
M  V30 4568 N 420.938 -2.38786 -1.65619 0
M  V30 4569 H 420.485 -2.45987 -0.764725 0
M  V30 4570 H 420.443 -1.99493 -2.43002 0
M  V30 4571 N 424.215 -0.530993 -1.48385 0
M  V30 4572 C 425.147 0.268353 -2.27624 0
M  V30 4573 C 426.16 0.903525 -1.35426 0
M  V30 4574 O 427.349 0.781796 -1.60469 0
M  V30 4575 C 424.449 1.39535 -3.08842 0
M  V30 4576 C 423.622 0.861913 -4.28824 0
M  V30 4577 C 422.681 1.87016 -4.91845 0
M  V30 4578 O 421.707 1.4267 -5.5103 0
M  V30 4579 N 422.909 3.20238 -4.84178 0
M  V30 4580 H 425.674 -0.41123 -2.96865 0
M  V30 4581 H 423.235 -0.365387 -1.57723 0
M  V30 4582 H 425.227 2.06803 -3.47871 0
M  V30 4583 H 423.797 1.97859 -2.42014 0
M  V30 4584 H 423.017 0.0132126 -3.94198 0
M  V30 4585 H 424.305 0.484415 -5.06489 0
M  V30 4586 H 423.703 3.58932 -4.37246 0
M  V30 4587 H 422.26 3.83136 -5.27305 0
M  V30 4588 N 425.693 1.55336 -0.266172 0
M  V30 4589 C 426.918 2.04258 0.359661 0
M  V30 4590 C 427.343 1.14359 1.49344 0
M  V30 4591 O 426.701 0.140369 1.80756 0
M  V30 4592 C 426.749 3.50997 0.826635 0
M  V30 4593 O 425.853 3.64204 1.93466 0
M  V30 4594 H 425.194 0.659668 0.075727 0
M  V30 4595 H 427.724 2.00694 -0.39786 0
M  V30 4596 H 427.734 3.9219 1.12477 0
M  V30 4597 H 426.409 4.159 -0.00293032 0
M  V30 4598 H 424.986 3.34913 1.63974 0
M  V30 4599 N 427.171 -0.0066808 1.57599 0
M  V30 4600 C 428.396 -0.707738 1.94951 0
M  V30 4601 C 428.821 -1.66882 0.867868 0
M  V30 4602 O 428.179 -1.80457 -0.17458 0
M  V30 4603 C 428.227 -1.42162 3.31394 0
M  V30 4604 O 427.331 -2.53578 3.25226 0
M  V30 4605 H 426.672 -0.188752 0.636607 0
M  V30 4606 H 429.202 0.0445193 2.04552 0
M  V30 4607 H 429.212 -1.78655 3.66806 0
M  V30 4608 H 427.887 -0.716903 4.09675 0
M  V30 4609 H 426.464 -2.19463 3.01481 0
M  V30 4610 N 428.649 -1.55105 -0.279332 0
M  V30 4611 C 429.596 -1.8755 -1.34513 0
M  V30 4612 C 430.566 -0.726384 -1.49375 0
M  V30 4613 O 431.751 -0.977063 -1.63884 0
M  V30 4614 C 428.891 -2.14738 -2.70151 0
M  V30 4615 C 428.004 -3.42285 -2.63562 0
M  V30 4616 C 427.139 -3.59206 -3.91337 0
M  V30 4617 C 426.178 -4.80467 -3.79233 0
M  V30 4618 N 425.315 -4.94079 -4.98829 0
M  V30 4619 H 430.155 -2.78456 -1.06143 0
M  V30 4620 H 427.692 -1.37867 -0.512936 0
M  V30 4621 H 429.65 -2.28501 -3.49061 0
M  V30 4622 H 428.28 -1.27075 -2.96735 0
M  V30 4623 H 427.332 -3.37029 -1.76397 0
M  V30 4624 H 428.644 -4.31328 -2.50515 0
M  V30 4625 H 427.798 -3.72751 -4.78687 0
M  V30 4626 H 426.537 -2.68337 -4.07243 0
M  V30 4627 H 425.542 -4.66932 -2.90266 0
M  V30 4628 H 426.767 -5.72765 -3.64852 0
M  V30 4629 H 424.713 -4.06139 -5.15158 0
M  V30 4630 H 424.63 -5.77156 -4.8829 0
M  V30 4631 H 425.898 -5.12003 -5.8777 0
M  V30 4632 N 430.127 0.543554 -1.4793 0
M  V30 4633 C 431.367 1.31072 -1.56843 0
M  V30 4634 C 431.731 1.90604 -0.231124 0
M  V30 4635 O 432.932 2.68091 -0.195165 0
M  V30 4636 C 431.203 2.38106 -2.66533 0
M  V30 4637 S 432.762 3.24729 -2.95122 0
M  V30 4638 H 429.58 0.446035 -0.553691 0
M  V30 4639 H 432.182 0.620777 -1.85382 0
M  V30 4640 H 430.886 1.92828 -3.62278 0
M  V30 4641 H 430.417 3.11824 -2.39852 0
M  V30 4642 H 432.432 4.37891 -2.3338 0
M  V30 4643 N 431.605 1.3629 0.791371 0
M  V30 4644 C 433.021 1.16661 1.08914 0
M  V30 4645 C 433.221 -0.0106266 2.01497 0
M  V30 4646 O 432.277 -0.676596 2.43266 0
M  V30 4647 C 433.59 2.47656 1.70549 0
M  V30 4648 C 435.138 2.54002 1.82899 0
M  V30 4649 C 435.613 3.85078 2.47949 0
M  V30 4650 N 437.104 3.86413 2.5542 0
M  V30 4651 C 437.839 4.84572 3.06557 0
M  V30 4652 N 437.335 5.93124 3.58016 0
M  V30 4653 N 439.128 4.71994 3.05251 0
M  V30 4654 H 431.279 2.11668 0.176238 0
M  V30 4655 H 433.542 0.937486 0.140796 0
M  V30 4656 H 433.248 3.34059 1.09989 0
M  V30 4657 H 433.122 2.63319 2.70079 0
M  V30 4658 H 435.509 1.68018 2.42598 0
M  V30 4659 H 435.59 2.42239 0.821808 0
M  V30 4660 H 435.234 4.71467 1.88895 0
M  V30 4661 H 435.164 3.94135 3.49235 0
M  V30 4662 H 437.655 3.07988 2.18979 0
M  V30 4663 H 437.968 6.63999 3.95381 0
M  V30 4664 H 436.313 5.96796 3.56173 0
M  V30 4665 H 439.504 3.86321 2.64336 0
M  V30 4666 H 439.677 5.48653 3.44796 0
M  V30 4667 N 433.083 -1.0153 1.20538 0
M  V30 4668 C 434.311 -1.78746 1.04199 0
M  V30 4669 C 434.726 -1.84323 -0.408733 0
M  V30 4670 O 434.083 -1.29714 -1.28377 0
M  V30 4671 C 434.134 -3.23152 1.62035 0
M  V30 4672 O 433.855 -3.17918 3.0143 0
M  V30 4673 C 435.356 -4.16911 1.50666 0
M  V30 4674 H 432.576 -0.56208 0.366479 0
M  V30 4675 H 435.12 -1.27794 1.59653 0
M  V30 4676 H 433.275 -3.71248 1.10697 0
M  V30 4677 H 433.689 -4.08567 3.28897 0
M  V30 4678 H 435.163 -5.16072 1.95892 0
M  V30 4679 H 435.64 -4.36791 0.459363 0
M  V30 4680 H 436.246 -3.74698 2.01201 0
M  V30 4681 N 434.561 -1.01147 -1.20859 0
M  V30 4682 C 435.807 -0.698899 -1.90377 0
M  V30 4683 C 436.14 0.76904 -1.78324 0
M  V30 4684 O 435.415 1.55817 -1.16409 0
M  V30 4685 C 435.698 -1.12878 -3.41951 0
M  V30 4686 C 435.551 -2.65665 -3.62963 0
M  V30 4687 C 436.87 -0.696114 -4.3456 0
M  V30 4688 H 433.989 -0.255372 -0.691342 0
M  V30 4689 H 436.631 -1.25831 -1.42361 0
M  V30 4690 H 434.781 -0.652827 -3.82976 0
M  V30 4691 H 436.453 -3.21074 -3.31224 0
M  V30 4692 H 434.696 -3.06878 -3.06608 0
M  V30 4693 H 435.367 -2.90797 -4.69192 0
M  V30 4694 H 437.843 -1.10521 -4.01154 0
M  V30 4695 H 436.719 -1.025 -5.39245 0
M  V30 4696 H 436.98 0.402465 -4.40264 0
M  V30 4697 N 436.039 1.36541 -0.78704 0
M  V30 4698 C 436.969 2.32659 -0.197992 0
M  V30 4699 C 437.95 1.56533 0.665697 0
M  V30 4700 O 439.135 1.84698 0.60001 0
M  V30 4701 C 436.265 3.40778 0.669901 0
M  V30 4702 C 435.219 4.27897 -0.0937039 0
M  V30 4703 C 434.545 5.27163 0.894629 0
M  V30 4704 C 435.845 5.06334 -1.28154 0
M  V30 4705 H 437.539 2.82171 -1.00099 0
M  V30 4706 H 435.085 1.35665 -0.482793 0
M  V30 4707 H 437.038 4.07008 1.09191 0
M  V30 4708 H 435.762 2.89827 1.50558 0
M  V30 4709 H 434.421 3.6322 -0.49666 0
M  V30 4710 H 434.069 4.72486 1.72527 0
M  V30 4711 H 433.769 5.86317 0.388149 0
M  V30 4712 H 435.293 5.96266 1.31525 0
M  V30 4713 H 436.707 5.65617 -0.93541 0
M  V30 4714 H 435.104 5.74888 -1.72115 0
M  V30 4715 H 436.174 4.38114 -2.07807 0
M  V30 4716 N 437.518 0.538854 1.48102 0
M  V30 4717 C 438.481 -0.208395 2.28251 0
M  V30 4718 C 439.481 -0.859656 1.35892 0
M  V30 4719 O 440.671 -0.71834 1.58699 0
M  V30 4720 C 437.803 -1.30252 3.15035 0
M  V30 4721 H 438.996 0.495407 2.9578 0
M  V30 4722 H 436.549 0.295112 1.53489 0
M  V30 4723 H 437.284 -2.0393 2.52157 0
M  V30 4724 H 437.069 -0.840551 3.82985 0
M  V30 4725 H 438.559 -1.82787 3.75471 0
M  V30 4726 N 438.996 -1.55193 0.274407 0
M  V30 4727 C 440.221 -2.04446 -0.348824 0
M  V30 4728 C 440.646 -1.15149 -1.48735 0
M  V30 4729 O 440.004 -0.149952 -1.80679 0
M  V30 4730 C 440.052 -3.51431 -0.808009 0
M  V30 4731 O 439.156 -3.65225 -1.91531 0
M  V30 4732 H 438.497 -0.66006 -0.0722276 0
M  V30 4733 H 441.027 -2.00481 0.408498 0
M  V30 4734 H 441.037 -3.92781 -1.10395 0
M  V30 4735 H 439.712 -4.15892 0.0249865 0
M  V30 4736 H 438.289 -3.35778 -1.62196 0
M  V30 4737 N 440.474 -0.00167713 -1.576 0
M  V30 4738 C 441.885 0.54091 -1.78693 0
M  V30 4739 C 442.236 1.7386 -0.909247 0
M  V30 4740 O 441.361 2.16109 -0.112176 0
M  V30 4741 C 441.956 0.98806 -3.24072 0
M  V30 4742 C 440.515 1.47594 -3.46256 0
M  V30 4743 C 439.662 0.42792 -2.73978 0
M  V30 4744 H 442.613 -0.22784 -1.57056 0
M  V30 4745 H 442.634 1.85398 -3.32277 0
M  V30 4746 H 442.146 0.116164 -3.87926 0
M  V30 4747 H 440.247 2.36868 -2.87618 0
M  V30 4748 H 440.36 1.50225 -4.54939 0
M  V30 4749 H 438.724 0.889934 -2.38647 0
M  V30 4750 H 439.507 -0.435038 -3.40532 0
M  V30 4751 N 441.952 1.55251 0.271103 0
M  V30 4752 C 442.884 1.84675 1.35749 0
M  V30 4753 C 443.897 0.731366 1.45447 0
M  V30 4754 O 445.086 1.00924 1.4723 0
M  V30 4755 C 442.186 1.99638 2.73857 0
M  V30 4756 C 441.359 3.30312 2.86727 0
M  V30 4757 C 440.418 3.35318 4.05522 0
M  V30 4758 O 439.444 4.08682 3.96191 0
M  V30 4759 N 440.646 2.62857 5.17577 0
M  V30 4760 H 443.411 2.78445 1.10853 0
M  V30 4761 H 440.972 1.55191 0.461218 0
M  V30 4762 H 442.964 2.00355 3.51625 0
M  V30 4763 H 441.534 1.12725 2.91568 0
M  V30 4764 H 440.754 3.42118 1.95829 0
M  V30 4765 H 442.042 4.16488 2.92258 0
M  V30 4766 H 441.44 2.02939 5.28046 0
M  V30 4767 H 439.997 2.69295 5.93568 0
M  V30 4768 N 443.43 -0.535701 1.48216 0
M  V30 4769 C 444.377 -1.64083 1.62312 0
M  V30 4770 C 445.347 -1.59448 0.465365 0
M  V30 4771 O 446.532 -1.77959 0.688135 0
M  V30 4772 C 443.672 -3.0236 1.66349 0
M  V30 4773 C 442.785 -3.17273 2.93193 0
M  V30 4774 C 441.92 -4.46075 2.88427 0
M  V30 4775 C 440.959 -4.54496 4.1 0
M  V30 4776 N 440.096 -5.7468 4.03345 0
M  V30 4777 H 444.936 -1.51374 2.5669 0
M  V30 4778 H 442.473 -0.737059 1.27302 0
M  V30 4779 H 444.431 -3.82461 1.66672 0
M  V30 4780 H 443.061 -3.13854 0.754672 0
M  V30 4781 H 442.113 -2.30462 3.02641 0
M  V30 4782 H 443.425 -3.19357 3.83162 0
M  V30 4783 H 442.579 -5.3446 2.87119 0
M  V30 4784 H 441.318 -4.46504 1.96177 0
M  V30 4785 H 440.323 -3.64519 4.11589 0
M  V30 4786 H 441.548 -4.5581 5.03402 0
M  V30 4787 H 439.494 -5.76017 3.13912 0
M  V30 4788 H 439.411 -5.78234 4.87013 0
M  V30 4789 H 440.679 -6.65367 4.06087 0
M  V30 4790 N 444.908 -1.36708 -0.784132 0
M  V30 4791 C 446.157 -1.30559 -1.53744 0
M  V30 4792 C 446.47 0.111374 -1.95283 0
M  V30 4793 O 447.676 0.29527 -2.6989 0
M  V30 4794 C 446.132 -2.29098 -2.77565 0
M  V30 4795 C 445.74 -3.76258 -2.43174 0
M  V30 4796 C 447.484 -2.31936 -3.55536 0
M  V30 4797 C 445.391 -4.6656 -3.63422 0
M  V30 4798 H 444.321 -0.48518 -0.577162 0
M  V30 4799 H 446.972 -1.62101 -0.859981 0
M  V30 4800 H 445.354 -1.90557 -3.47137 0
M  V30 4801 H 446.528 -4.23565 -1.81465 0
M  V30 4802 H 444.843 -3.76246 -1.78403 0
M  V30 4803 H 447.44 -2.9661 -4.44889 0
M  V30 4804 H 447.783 -1.3294 -3.94503 0
M  V30 4805 H 448.316 -2.6912 -2.92949 0
M  V30 4806 H 445.055 -5.66638 -3.29547 0
M  V30 4807 H 444.575 -4.23966 -4.24279 0
M  V30 4808 H 446.254 -4.8309 -4.30387 0
M  V30 4809 N 446.386 1.0089 -1.21074 0
M  V30 4810 C 447.296 2.13039 -0.982425 0
M  V30 4811 C 448.312 1.73881 0.0642161 0
M  V30 4812 O 449.488 2.01012 -0.12496 0
M  V30 4813 C 446.553 3.42377 -0.545803 0
M  V30 4814 C 445.614 3.95731 -1.6642 0
M  V30 4815 C 444.847 5.18896 -1.24832 0
M  V30 4816 O 445.07 5.70273 -0.120265 0
M  V30 4817 O 444.004 5.65597 -2.05873 0
M  V30 4818 H 447.83 2.35175 -1.92163 0
M  V30 4819 H 445.415 1.1142 -0.995285 0
M  V30 4820 H 447.297 4.20244 -0.311912 0
M  V30 4821 H 445.972 3.21639 0.364727 0
M  V30 4822 H 444.879 3.19108 -1.95246 0
M  V30 4823 H 446.212 4.20872 -2.55201 0
M  V30 4824 N 447.864 1.01787 1.20321 0
M  V30 4825 C 449.112 0.706538 1.89347 0
M  V30 4826 C 449.433 -0.766289 1.79313 0
M  V30 4827 O 448.703 -1.55126 1.19635 0
M  V30 4828 H 447.283 0.258348 0.700903 0
M  V30 4829 H 449.945 1.28974 1.46122 0
M  V30 4830 H 449.041 0.991066 2.95946 0
M  V30 4831 N 449.342 -1.36122 0.79427 0
M  V30 4832 C 450.589 -1.99111 0.368905 0
M  V30 4833 C 450.917 -1.63032 -1.0607 0
M  V30 4834 O 450.172 -0.879303 -1.74833 0
M  V30 4835 C 450.471 -3.5409 0.48527 0
M  V30 4836 C 450.137 -4.10003 1.87638 0
M  V30 4837 C 448.799 -4.24986 2.257 0
M  V30 4838 C 451.151 -4.40423 2.78706 0
M  V30 4839 C 448.479 -4.67701 3.54221 0
M  V30 4840 C 450.831 -4.84573 4.0666 0
M  V30 4841 C 449.495 -4.97761 4.44737 0
M  V30 4842 H 448.765 -0.7286 0.134992 0
M  V30 4843 H 451.412 -1.62534 1.01267 0
M  V30 4844 H 449.717 -3.91052 -0.241984 0
M  V30 4845 H 451.414 -4.00766 0.137109 0
M  V30 4846 H 448.004 -3.98784 1.57064 0
M  V30 4847 H 452.188 -4.28412 2.50553 0
M  V30 4848 H 447.444 -4.761 3.83587 0
M  V30 4849 H 451.618 -5.07074 4.77336 0
M  V30 4850 H 449.245 -5.30618 5.44379 0
M  V30 4851 N 450.82 -0.546701 -1.47814 0
M  V30 4852 C 451.767 0.206854 -2.29871 0
M  V30 4853 C 452.737 0.918235 -1.38411 0
M  V30 4854 O 453.922 0.915991 -1.67375 0
M  V30 4855 C 451.062 1.23746 -3.22151 0
M  V30 4856 C 450.175 0.533216 -4.28697 0
M  V30 4857 C 449.31 1.5482 -5.08138 0
M  V30 4858 C 448.349 0.828347 -6.06469 0
M  V30 4859 N 447.486 1.78966 -6.78908 0
M  V30 4860 H 452.326 -0.499037 -2.93792 0
M  V30 4861 H 449.863 -0.25793 -1.44821 0
M  V30 4862 H 451.821 1.84746 -3.74065 0
M  V30 4863 H 450.451 1.91151 -2.60117 0
M  V30 4864 H 449.503 -0.191089 -3.7992 0
M  V30 4865 H 450.815 -0.0311987 -4.9879 0
M  V30 4866 H 449.969 2.23202 -5.6415 0
M  V30 4867 H 448.708 2.14652 -4.37922 0
M  V30 4868 H 447.713 0.130539 -5.49645 0
M  V30 4869 H 448.938 0.235907 -6.7869 0
M  V30 4870 H 446.884 2.37675 -6.1143 0
M  V30 4871 H 446.801 1.27712 -7.45135 0
M  V30 4872 H 448.069 2.46496 -7.395 0
M  V30 4873 N 452.299 1.55045 -0.282633 0
M  V30 4874 C 453.715 1.59441 0.0712997 0
M  V30 4875 C 453.915 1.2998 1.53972 0
M  V30 4876 O 452.971 1.06431 2.28973 0
M  V30 4877 C 454.284 2.99097 -0.310104 0
M  V30 4878 C 455.832 3.1194 -0.257343 0
M  V30 4879 C 456.307 4.53875 -0.613297 0
M  V30 4880 N 457.798 4.5974 -0.565134 0
M  V30 4881 C 458.533 5.67603 -0.81326 0
M  V30 4882 N 458.029 6.83582 -1.1264 0
M  V30 4883 N 459.822 5.57187 -0.741553 0
M  V30 4884 H 451.973 1.72458 -1.23984 0
M  V30 4885 H 454.236 0.804549 -0.501403 0
M  V30 4886 H 453.942 3.25516 -1.33163 0
M  V30 4887 H 453.816 3.75616 0.345366 0
M  V30 4888 H 456.203 2.85281 0.754905 0
M  V30 4889 H 456.284 2.37618 -0.947178 0
M  V30 4890 H 455.928 4.81261 -1.62327 0
M  V30 4891 H 455.858 5.26508 0.09841 0
M  V30 4892 H 458.349 3.76427 -0.333294 0
M  V30 4893 H 458.662 7.6175 -1.30219 0
M  V30 4894 H 457.007 6.85179 -1.16425 0
M  V30 4895 H 460.198 4.65457 -0.496705 0
M  V30 4896 H 460.371 6.41171 -0.938306 0
M  V30 4897 N 453.777 0.010035 1.57597 0
M  V30 4898 C 454.707 -0.976857 2.12084 0
M  V30 4899 C 455.688 -1.35191 1.03235 0
M  V30 4900 O 456.873 -1.43389 1.3097 0
M  V30 4901 C 454.003 -2.26548 2.63236 0
M  V30 4902 C 452.957 -2.03175 3.76701 0
M  V30 4903 C 452.283 -3.38138 4.14206 0
M  V30 4904 C 453.583 -1.38625 5.03568 0
M  V30 4905 H 455.277 -0.523145 2.94794 0
M  V30 4906 H 452.823 -0.250195 1.4181 0
M  V30 4907 H 454.776 -2.95952 2.99984 0
M  V30 4908 H 453.5 -2.74051 1.77661 0
M  V30 4909 H 452.159 -1.36195 3.40362 0
M  V30 4910 H 451.807 -3.83363 3.25641 0
M  V30 4911 H 451.507 -3.23312 4.90656 0
M  V30 4912 H 453.031 -4.08841 4.53521 0
M  V30 4913 H 454.445 -1.98 5.38023 0
M  V30 4914 H 452.842 -1.34256 5.84889 0
M  V30 4915 H 453.912 -0.356722 4.83586 0
M  V30 4916 N 455.255 -1.55392 -0.262866 0
M  V30 4917 C 456.532 -1.67204 -1.01499 0
M  V30 4918 C 456.912 -0.545186 -2.03939 0
M  V30 4919 O 456.26 0.453467 -2.23955 0
M  V30 4920 C 456.47 -3.06847 -1.6627 0
M  V30 4921 C 457.818 -3.64928 -2.17054 0
M  V30 4922 O 458.842 -3.09545 -1.76239 0
M  V30 4923 O 457.701 -4.61984 -2.91947 0
M  V30 4924 H 454.795 -0.679467 -0.471438 0
M  V30 4925 H 457.341 -1.67729 -0.257918 0
M  V30 4926 H 456.113 -3.80309 -0.920915 0
M  V30 4927 H 455.736 -3.10266 -2.48638 0
M  V30 4928 N 456.733 0.527833 -1.48498 0
M  V30 4929 C 457.973 1.29401 -1.58224 0
M  V30 4930 C 458.337 1.90348 -0.251327 0
M  V30 4931 O 459.538 2.67868 -0.223588 0
M  V30 4932 C 457.809 2.35266 -2.69044 0
M  V30 4933 S 459.368 3.2158 -2.98549 0
M  V30 4934 H 456.186 0.440138 -0.558391 0
M  V30 4935 H 458.788 0.601079 -1.8603 0
M  V30 4936 H 457.492 1.88975 -3.64303 0
M  V30 4937 H 457.023 3.09263 -2.43146 0
M  V30 4938 H 459.038 4.35391 -2.38011 0
M  V30 4939 N 458.211 1.37122 0.776871 0
M  V30 4940 C 459.143 1.28342 1.89897 0
M  V30 4941 C 460.156 0.200277 1.61563 0
M  V30 4942 O 461.345 0.456012 1.72577 0
M  V30 4943 C 458.445 0.960427 3.25006 0
M  V30 4944 C 457.618 2.148 3.81025 0
M  V30 4945 C 456.677 1.79608 4.94598 0
M  V30 4946 O 455.703 2.51845 5.10454 0
M  V30 4947 N 456.905 0.737171 5.758 0
M  V30 4948 H 459.67 2.25027 1.97947 0
M  V30 4949 H 457.231 1.3068 0.955739 0
M  V30 4950 H 459.223 0.705942 3.98495 0
M  V30 4951 H 457.793 0.0823066 3.12492 0
M  V30 4952 H 457.013 2.56454 2.99374 0
M  V30 4953 H 458.301 2.9411 4.15183 0
M  V30 4954 H 457.699 0.137637 5.65533 0
M  V30 4955 H 456.256 0.542534 6.49538 0
M  V30 4956 N 459.689 -1.00246 1.21608 0
M  V30 4957 C 460.914 -1.78167 1.06167 0
M  V30 4958 C 461.339 -1.84138 -0.384035 0
M  V30 4959 O 460.697 -1.28683 -1.27712 0
M  V30 4960 C 460.745 -3.19786 1.66642 0
M  V30 4961 O 459.849 -4.02153 0.913613 0
M  V30 4962 H 459.19 -0.549 0.37349 0
M  V30 4963 H 461.72 -1.25994 1.61204 0
M  V30 4964 H 461.73 -3.70451 1.70969 0
M  V30 4965 H 460.405 -3.14754 2.7185 0
M  V30 4966 H 458.982 -3.60711 0.945635 0
M  V30 4967 N 461.167 -1.02423 -1.1978 0
M  V30 4968 C 462.13 -0.605703 -2.21052 0
M  V30 4969 C 463.13 0.328209 -1.57415 0
M  V30 4970 O 464.32 0.115853 -1.73814 0
M  V30 4971 C 461.452 0.114366 -3.40708 0
M  V30 4972 H 462.645 -1.5017 -2.59594 0
M  V30 4973 H 460.198 -0.814888 -1.33376 0
M  V30 4974 H 460.933 1.02492 -3.07678 0
M  V30 4975 H 460.718 -0.556641 -3.88129 0
M  V30 4976 H 462.208 0.394272 -4.15735 0
M  V30 4977 N 462.645 1.35699 -0.801477 0
M  V30 4978 C 463.578 2.2768 -0.153922 0
M  V30 4979 C 464.556 1.47832 0.67709 0
M  V30 4980 O 465.74 1.77104 0.645474 0
M  V30 4981 C 462.867 3.2943 0.786986 0
M  V30 4982 C 461.913 4.26485 0.0362447 0
M  V30 4983 S 462.746 5.19573 -1.2963 0
M  V30 4984 C 463.902 6.24866 -0.359705 0
M  V30 4985 H 464.135 2.82254 -0.9338 0
M  V30 4986 H 461.668 1.42421 -0.596283 0
M  V30 4987 H 463.626 3.8855 1.32436 0
M  V30 4988 H 462.287 2.73745 1.54021 0
M  V30 4989 H 461.48 4.98378 0.750668 0
M  V30 4990 H 461.082 3.71508 -0.431017 0
M  V30 4991 H 463.374 6.75957 0.456954 0
M  V30 4992 H 464.317 7.00307 -1.04768 0
M  V30 4993 H 464.725 5.64484 0.0423274 0
M  V30 4994 N 464.123 0.554532 1.47522 0
M  V30 4995 C 465.37 0.029479 2.02479 0
M  V30 4996 C 465.698 -1.31929 1.42916 0
M  V30 4997 O 464.953 -1.87112 0.573385 0
M  V30 4998 C 465.252 -0.115927 3.57212 0
M  V30 4999 C 464.918 1.16161 4.3568 0
M  V30 5000 C 463.58 1.51168 4.56839 0
M  V30 5001 C 465.932 2.0083 4.80954 0
M  V30 5002 C 463.26 2.70696 5.2052 0
M  V30 5003 C 465.612 3.19559 5.45953 0
M  V30 5004 C 464.276 3.54882 5.65345 0
M  V30 5005 H 463.546 0.0107871 0.740921 0
M  V30 5006 H 466.193 0.725506 1.77225 0
M  V30 5007 H 464.498 -0.894902 3.81443 0
M  V30 5008 H 466.195 -0.53749 3.97381 0
M  V30 5009 H 462.785 0.879026 4.19489 0
M  V30 5010 H 466.969 1.75093 4.64388 0
M  V30 5011 H 462.225 2.98236 5.33728 0
M  V30 5012 H 466.399 3.85456 5.79997 0
M  V30 5013 H 464.026 4.47596 6.1446 0
M  V30 5014 N 465.601 -1.54893 0.290851 0
M  V30 5015 C 466.549 -2.24579 -0.605576 0
M  V30 5016 C 467.543 -1.24824 -1.14522 0
M  V30 5017 O 468.749 -1.42706 -1.09704 0
M  V30 5018 H 465.124 -0.720946 -0.213872 0
M  V30 5019 H 467.095 -2.984 0.0048173 0
M  V30 5020 C 465.844 -2.99224 -1.77088 0
M  V30 5021 H 465.167 -3.75782 -1.36484 0
M  V30 5022 H 466.607 -3.51281 -2.3744 0
M  V30 5023 C 465.066 -2.05602 -2.66888 0
M  V30 5024 O 465.596 -1.61745 -3.67698 0
M  V30 5025 N 463.802 -1.71771 -2.34399 0
M  V30 5026 H 463.349 -2.07633 -1.52468 0
M  V30 5027 H 463.307 -1.09403 -2.94751 0
M  V30 5028 N 467.08 -0.0183926 -1.57589 0
M  V30 5029 C 468.357 0.700621 -1.82622 0
M  V30 5030 C 468.737 1.90951 -0.90005 0
M  V30 5031 O 468.085 2.28452 0.0469145 0
M  V30 5032 C 468.295 1.08899 -3.31575 0
M  V30 5033 C 469.643 1.48514 -3.9778 0
M  V30 5034 O 470.667 1.18227 -3.36007 0
M  V30 5035 O 469.526 2.04903 -5.06633 0
M  V30 5036 H 466.62 0.342743 -0.752633 0
M  V30 5037 H 469.166 -0.0452548 -1.6964 0
M  V30 5038 H 467.938 0.228113 -3.90635 0
M  V30 5039 H 467.561 1.89338 -3.49624 0
M  V30 5040 N 468.558 1.5553 0.254621 0
M  V30 5041 C 469.788 1.80784 1.00004 0
M  V30 5042 C 470.196 0.59071 1.79742 0
M  V30 5043 O 469.539 -0.449988 1.78103 0
M  V30 5044 C 469.601 2.99268 1.99196 0
M  V30 5045 C 469.265 4.35595 1.38224 0
M  V30 5046 C 470.262 5.13884 0.788611 0
M  V30 5047 C 467.947 4.82281 1.40393 0
M  V30 5048 C 469.941 6.37004 0.224783 0
M  V30 5049 C 467.628 6.05351 0.836243 0
M  V30 5050 C 468.626 6.82551 0.24769 0
M  V30 5051 O 468.314 8.03297 -0.311249 0
M  V30 5052 H 468.046 0.60565 0.300274 0
M  V30 5053 H 470.6 2.03411 0.285143 0
M  V30 5054 H 468.83 2.72377 2.74496 0
M  V30 5055 H 470.519 3.11682 2.60018 0
M  V30 5056 H 471.285 4.78938 0.764423 0
M  V30 5057 H 467.164 4.22189 1.85142 0
M  V30 5058 H 470.708 6.97203 -0.235235 0
M  V30 5059 H 466.605 6.39776 0.857733 0
M  V30 5060 H 467.373 8.1825 -0.20237 0
M  V30 5061 N 470.036 -0.519951 1.48776 0
M  V30 5062 C 470.984 -1.64443 1.64503 0
M  V30 5063 C 471.978 -1.61501 0.511248 0
M  V30 5064 O 473.184 -1.66238 0.690294 0
M  V30 5065 H 469.559 -0.544776 0.518385 0
M  V30 5066 H 471.53 -1.48325 2.58925 0
M  V30 5067 C 470.279 -3.02673 1.71127 0
M  V30 5068 H 469.602 -3.05635 2.57735 0
M  V30 5069 H 471.042 -3.80941 1.86172 0
M  V30 5070 C 469.501 -3.33854 0.452032 0
M  V30 5071 O 470.031 -3.99385 -0.430678 0
M  V30 5072 N 468.237 -2.88825 0.32069 0
M  V30 5073 H 467.784 -2.35674 1.03998 0
M  V30 5074 H 467.742 -3.10056 -0.520814 0
M  V30 5075 N 471.514 -1.37532 -0.769588 0
M  V30 5076 C 472.761 -1.3286 -1.52822 0
M  V30 5077 C 473.089 0.0862597 -1.94309 0
M  V30 5078 O 472.344 1.05995 -1.6451 0
M  V30 5079 C 472.643 -2.21558 -2.8044 0
M  V30 5080 C 472.309 -3.69796 -2.57996 0
M  V30 5081 C 470.971 -4.10194 -2.51583 0
M  V30 5082 C 473.323 -4.63699 -2.37976 0
M  V30 5083 C 470.651 -5.42608 -2.23144 0
M  V30 5084 C 473.003 -5.96353 -2.1106 0
M  V30 5085 C 471.667 -6.35853 -2.03093 0
M  V30 5086 H 470.937 -0.486168 -0.559215 0
M  V30 5087 H 473.584 -1.69757 -0.886277 0
M  V30 5088 H 471.889 -1.77663 -3.49204 0
M  V30 5089 H 473.586 -2.15256 -3.38328 0
M  V30 5090 H 470.176 -3.37759 -2.63851 0
M  V30 5091 H 474.36 -4.33346 -2.41919 0
M  V30 5092 H 469.616 -5.72173 -2.15472 0
M  V30 5093 H 473.79 -6.68667 -1.94568 0
M  V30 5094 H 471.417 -7.38382 -1.8082 0
M  V30 5095 N 472.992 0.995999 -1.22138 0
M  V30 5096 C 474.238 1.73767 -1.04561 0
M  V30 5097 C 474.571 1.89633 0.418698 0
M  V30 5098 O 473.846 1.43723 1.3105 0
M  V30 5099 C 474.129 3.14505 -1.75382 0
M  V30 5100 C 473.982 3.06306 -3.29388 0
M  V30 5101 C 475.301 4.13615 -1.50369 0
M  V30 5102 H 472.42 0.630728 -0.38125 0
M  V30 5103 H 475.062 1.16057 -1.50435 0
M  V30 5104 H 473.212 3.63775 -1.36383 0
M  V30 5105 H 474.884 2.64681 -3.77812 0
M  V30 5106 H 473.127 2.43186 -3.59226 0
M  V30 5107 H 473.798 4.05884 -3.74116 0
M  V30 5108 H 476.274 3.73089 -1.84239 0
M  V30 5109 H 475.15 5.10212 -2.02421 0
M  V30 5110 H 475.411 4.39949 -0.435611 0
M  V30 5111 N 474.47 1.03057 1.19235 0
M  V30 5112 C 475.717 0.728019 1.88961 0
M  V30 5113 C 476.045 -0.743515 1.79728 0
M  V30 5114 O 475.3 -1.55729 1.1852 0
M  V30 5115 C 475.599 1.1268 3.39172 0
M  V30 5116 C 475.265 2.5969 3.68608 0
M  V30 5117 C 473.927 2.99854 3.76352 0
M  V30 5118 C 476.279 3.54793 3.81801 0
M  V30 5119 C 473.607 4.34031 3.94758 0
M  V30 5120 C 475.959 4.88675 4.0172 0
M  V30 5121 C 474.623 5.28526 4.07697 0
M  V30 5122 H 473.893 0.266401 0.691456 0
M  V30 5123 H 476.54 1.29373 1.41191 0
M  V30 5124 H 474.845 0.479722 3.88852 0
M  V30 5125 H 476.542 0.870203 3.91444 0
M  V30 5126 H 473.132 2.27575 3.63191 0
M  V30 5127 H 477.316 3.24914 3.7516 0
M  V30 5128 H 472.572 4.6444 3.97625 0
M  V30 5129 H 476.746 5.6228 4.1087 0
M  V30 5130 H 474.373 6.32506 4.21712 0
M  V30 5131 N 475.948 -1.35272 0.808662 0
M  V30 5132 C 477.176 -2.02946 0.402537 0
M  V30 5133 C 477.591 -1.60937 -0.987147 0
M  V30 5134 O 476.948 -0.807917 -1.63643 0
M  V30 5135 C 476.999 -3.58317 0.47868 0
M  V30 5136 O 476.72 -3.98799 1.81358 0
M  V30 5137 C 478.221 -4.43251 0.0656281 0
M  V30 5138 H 475.441 -0.650831 0.163279 0
M  V30 5139 H 477.985 -1.72849 1.09286 0
M  V30 5140 H 476.14 -3.87055 -0.163415 0
M  V30 5141 H 476.554 -4.93451 1.77781 0
M  V30 5142 H 478.028 -5.51738 0.170017 0
M  V30 5143 H 478.505 -4.27913 -0.989278 0
M  V30 5144 H 479.111 -4.19813 0.68096 0
M  V30 5145 N 477.426 -0.562348 -1.47226 0
M  V30 5146 C 478.651 -0.0432632 -2.07355 0
M  V30 5147 C 479.076 1.24332 -1.41149 0
M  V30 5148 O 478.434 1.74603 -0.488226 0
M  V30 5149 C 478.482 0.130288 -3.60365 0
M  V30 5150 O 477.586 1.19166 -3.94808 0
M  V30 5151 H 476.927 -0.0536334 -0.66183 0
M  V30 5152 H 479.457 -0.779495 -1.89169 0
M  V30 5153 H 479.467 0.342881 -4.06557 0
M  V30 5154 H 478.142 -0.809389 -4.07948 0
M  V30 5155 H 476.719 0.959153 -3.60354 0
M  V30 5156 N 478.904 1.54736 -0.299062 0
M  V30 5157 C 480.151 2.00101 0.310784 0
M  V30 5158 C 480.479 1.18746 1.54045 0
M  V30 5159 O 479.734 0.251198 1.94081 0
M  V30 5160 C 480.033 3.50199 0.713835 0
M  V30 5161 C 479.699 4.48997 -0.413873 0
M  V30 5162 C 478.361 4.7573 -0.723462 0
M  V30 5163 C 480.713 5.07839 -1.17257 0
M  V30 5164 C 478.041 5.5857 -1.79491 0
M  V30 5165 C 480.393 5.91844 -2.23392 0
M  V30 5166 C 479.057 6.16889 -2.54959 0
M  V30 5167 H 478.327 0.732221 0.113724 0
M  V30 5168 H 480.974 1.86888 -0.417756 0
M  V30 5169 H 479.279 3.61012 1.52243 0
M  V30 5170 H 480.976 3.82723 1.19684 0
M  V30 5171 H 477.566 4.28292 -0.162476 0
M  V30 5172 H 481.75 4.87188 -0.946651 0
M  V30 5173 H 477.006 5.76213 -2.04423 0
M  V30 5174 H 481.18 6.36465 -2.8264 0
M  V30 5175 H 478.807 6.80869 -3.38114 0
M  V30 5176 N 480.382 0.0267497 1.57577 0
M  V30 5177 C 481.345 -0.940916 2.08996 0
M  V30 5178 C 482.345 -1.25561 1.00455 0
M  V30 5179 O 483.535 -1.19634 1.26623 0
M  V30 5180 C 480.667 -2.25814 2.55384 0
M  V30 5181 H 481.86 -0.495628 2.95776 0
M  V30 5182 H 479.413 -0.221241 1.54726 0
M  V30 5183 H 480.148 -2.74976 1.71926 0
M  V30 5184 H 479.933 -2.04285 3.34679 0
M  V30 5185 H 481.423 -2.95178 2.95398 0
M  V30 5186 N 481.861 -1.55662 -0.24637 0
M  V30 5187 C 482.808 -1.90361 -1.30504 0
M  V30 5188 C 483.778 -0.757905 -1.47801 0
M  V30 5189 O 484.963 -1.01161 -1.61775 0
M  V30 5190 C 482.103 -2.2042 -2.65535 0
M  V30 5191 C 481.216 -3.47799 -2.56242 0
M  V30 5192 C 480.351 -3.67426 -3.8363 0
M  V30 5193 C 479.39 -4.88403 -3.68956 0
M  V30 5194 N 478.527 -5.04548 -4.88237 0
M  V30 5195 H 483.367 -2.80645 -1.00213 0
M  V30 5196 H 480.904 -1.38924 -0.483577 0
M  V30 5197 H 482.862 -2.35853 -3.44135 0
M  V30 5198 H 481.492 -1.3334 -2.93973 0
M  V30 5199 H 480.544 -3.40694 -1.69208 0
M  V30 5200 H 481.856 -4.36544 -2.4131 0
M  V30 5201 H 481.01 -3.82821 -4.70673 0
M  V30 5202 H 479.749 -2.76914 -4.01459 0
M  V30 5203 H 478.754 -4.72984 -2.80296 0
M  V30 5204 H 479.979 -5.80375 -3.52621 0
M  V30 5205 H 477.925 -4.16974 -5.06427 0
M  V30 5206 H 477.842 -5.87384 -4.75937 0
M  V30 5207 H 479.11 -5.24355 -5.76777 0
M  V30 5208 N 483.339 0.512053 -1.4905 0
M  V30 5209 C 484.286 1.6148 -1.64902 0
M  V30 5210 C 485.256 1.58687 -0.490673 0
M  V30 5211 O 486.441 1.76842 -0.71636 0
M  V30 5212 C 483.581 2.99676 -1.71139 0
M  V30 5213 C 482.694 3.12568 -2.98203 0
M  V30 5214 C 481.829 4.4143 -2.95487 0
M  V30 5215 C 480.868 4.47916 -4.17179 0
M  V30 5216 N 480.005 5.68191 -4.12437 0
M  V30 5217 H 484.845 1.47271 -2.59066 0
M  V30 5218 H 482.382 0.716713 -1.28459 0
M  V30 5219 H 484.34 3.79761 -1.72736 0
M  V30 5220 H 482.97 3.12614 -0.804508 0
M  V30 5221 H 482.022 2.25618 -3.06269 0
M  V30 5222 H 483.334 3.1322 -3.88194 0
M  V30 5223 H 482.488 5.29825 -2.95585 0
M  V30 5224 H 481.227 4.43326 -2.03256 0
M  V30 5225 H 480.232 3.57925 -4.17337 0
M  V30 5226 H 481.457 4.47744 -5.1059 0
M  V30 5227 H 479.403 5.7095 -3.23036 0
M  V30 5228 H 479.32 5.70413 -4.96151 0
M  V30 5229 H 480.588 6.58823 -4.16621 0
M  V30 5230 N 484.817 1.37938 0.762283 0
M  V30 5231 C 485.749 1.30349 1.88525 0
M  V30 5232 C 486.762 0.217402 1.61342 0
M  V30 5233 O 487.951 0.474291 1.72084 0
M  V30 5234 C 485.051 0.994844 3.23969 0
M  V30 5235 C 484.224 2.18829 3.78725 0
M  V30 5236 C 483.283 1.84844 4.92665 0
M  V30 5237 O 482.309 2.57244 5.07754 0
M  V30 5238 N 483.511 0.798201 5.74986 0
M  V30 5239 H 486.276 2.27114 1.95549 0
M  V30 5240 H 483.837 1.31686 0.941825 0
M  V30 5241 H 485.829 0.748168 3.97724 0
M  V30 5242 H 484.399 0.115446 3.12387 0
M  V30 5243 H 483.619 2.59615 2.96637 0
M  V30 5244 H 484.907 2.98497 4.1204 0
M  V30 5245 H 484.305 0.197611 5.65355 0
M  V30 5246 H 482.862 0.611396 6.48926 0
M  V30 5247 N 486.295 -0.989507 1.22664 0
M  V30 5248 C 487.227 -2.0824 0.957542 0
M  V30 5249 C 488.24 -1.6267 -0.0651098 0
M  V30 5250 O 489.429 -1.77695 0.169312 0
M  V30 5251 C 486.529 -3.36298 0.419145 0
M  V30 5252 C 485.702 -4.10882 1.49982 0
M  V30 5253 C 484.761 -5.17221 0.967904 0
M  V30 5254 O 483.787 -5.44613 1.65487 0
M  V30 5255 N 484.989 -5.80124 -0.20896 0
M  V30 5256 H 487.754 -2.31904 1.89843 0
M  V30 5257 H 485.315 -1.15552 1.13399 0
M  V30 5258 H 487.307 -4.04671 0.0485451 0
M  V30 5259 H 485.877 -3.09671 -0.426937 0
M  V30 5260 H 485.097 -3.37092 2.04359 0
M  V30 5261 H 486.385 -4.57482 2.22682 0
M  V30 5262 H 485.783 -5.60244 -0.783818 0
M  V30 5263 H 484.34 -6.49715 -0.520913 0
M  V30 5264 N 487.773 -1.03688 -1.18687 0
M  V30 5265 C 488.705 -0.582696 -2.21669 0
M  V30 5266 C 489.718 0.345656 -1.59088 0
M  V30 5267 O 490.907 0.140776 -1.77944 0
M  V30 5268 C 488.007 0.169204 -3.38477 0
M  V30 5269 C 487.18 -0.766079 -4.30639 0
M  V30 5270 C 486.239 -0.0581541 -5.26168 0
M  V30 5271 O 485.265 -0.687346 -5.65035 0
M  V30 5272 N 486.467 1.20981 -5.67753 0
M  V30 5273 H 489.232 -1.46843 -2.61261 0
M  V30 5274 H 486.793 -0.916896 -1.33434 0
M  V30 5275 H 488.785 0.652543 -3.99405 0
M  V30 5276 H 487.355 0.956435 -2.97609 0
M  V30 5277 H 486.575 -1.42935 -3.67373 0
M  V30 5278 H 487.863 -1.40146 -4.89118 0
M  V30 5279 H 487.261 1.74159 -5.38224 0
M  V30 5280 H 485.818 1.6375 -6.30896 0
M  V30 5281 N 489.251 1.34841 -0.815825 0
M  V30 5282 C 490.183 2.28409 -0.190265 0
M  V30 5283 C 491.196 1.50705 0.615771 0
M  V30 5284 O 492.385 1.72822 0.446616 0
M  V30 5285 C 489.485 3.30441 0.752446 0
M  V30 5286 C 488.658 4.37399 -0.00922152 0
M  V30 5287 C 487.717 5.19234 0.853351 0
M  V30 5288 O 486.743 5.68404 0.300919 0
M  V30 5289 N 487.945 5.38248 2.17416 0
M  V30 5290 H 490.71 2.82732 -0.994114 0
M  V30 5291 H 488.271 1.47289 -0.672129 0
M  V30 5292 H 490.263 3.82084 1.33394 0
M  V30 5293 H 488.833 2.76565 1.45707 0
M  V30 5294 H 488.053 3.86567 -0.771979 0
M  V30 5295 H 489.341 5.05992 -0.533807 0
M  V30 5296 H 488.739 4.99961 2.6468 0
M  V30 5297 H 487.296 5.93035 2.70467 0
M  V30 5298 N 490.729 0.570148 1.46925 0
M  V30 5299 C 491.661 -0.207909 2.28255 0
M  V30 5300 C 492.674 -0.867301 1.37774 0
M  V30 5301 O 493.863 -0.738976 1.62485 0
M  V30 5302 C 490.963 -1.31298 3.12433 0
M  V30 5303 C 490.136 -0.747915 4.30958 0
M  V30 5304 C 489.195 -1.7391 4.9663 0
M  V30 5305 O 488.221 -1.2801 5.54619 0
M  V30 5306 N 489.423 -3.07288 4.92498 0
M  V30 5307 H 492.188 0.489794 2.95671 0
M  V30 5308 H 489.749 0.407076 1.56699 0
M  V30 5309 H 491.741 -1.97507 3.53232 0
M  V30 5310 H 490.311 -1.91373 2.47175 0
M  V30 5311 H 489.531 0.0913066 3.94094 0
M  V30 5312 H 490.819 -0.349958 5.07595 0
M  V30 5313 H 490.217 -3.47213 4.46609 0
M  V30 5314 H 488.774 -3.69021 5.37277 0
M  V30 5315 N 492.207 -1.54576 0.307264 0
M  V30 5316 C 493.432 -2.05139 -0.305379 0
M  V30 5317 C 493.857 -1.18278 -1.46259 0
M  V30 5318 O 493.215 -0.188243 -1.8032 0
M  V30 5319 C 493.263 -3.53066 -0.733283 0
M  V30 5320 O 492.367 -3.69206 -1.83741 0
M  V30 5321 H 491.708 -0.661444 -0.0582105 0
M  V30 5322 H 494.238 -1.99569 0.450931 0
M  V30 5323 H 494.248 -3.95034 -1.02039 0
M  V30 5324 H 492.923 -4.15746 0.113198 0
M  V30 5325 H 491.5 -3.39143 -1.55037 0
M  V30 5326 O 493.724 -0.174109 -1.60559 0
M  V30 5327 H 494.415 0.415114 -1.892 0
M  V30 END ATOM
M  V30 BEGIN BOND
M  V30 END BOND
M  V30 END CTAB
M  END
$$$$
