drugbank_target|Q07817 Bcl-2-like protein 1 (DB07108; DB09401; DB13044)
 OpenBabel12092120333D

  0  0  0     0  0            999 V3000
M  V30 BEGIN CTAB
M  V30 COUNTS 3583 3626 0 0 0
M  V30 BEGIN ATOM
M  V30 1 H -0.908 1.98254 -0.117106 0
M  V30 2 N 0 1.576 0 0
M  V30 3 C 0.933 2.03868 1.02534 0
M  V30 4 C 1.911 0.928543 1.3348 0
M  V30 5 O 3.095 1.19667 1.45644 0
M  V30 6 C 0.222 2.43627 2.35294 0
M  V30 7 C -0.732 3.65373 2.2001 0
M  V30 8 S 0.101 5.13292 1.52614 0
M  V30 9 C 1.257 5.56322 2.86805 0
M  V30 10 H 1.49 2.90518 0.631377 0
M  V30 11 H -0.977 1.52953 0.210867 0
M  V30 12 H 0.981 2.67203 3.11629 0
M  V30 13 H -0.358 1.57376 2.7183 0
M  V30 14 H -1.165 3.90944 3.18086 0
M  V30 15 H -1.563 3.418 1.51819 0
M  V30 16 H 0.729 5.58782 3.83104 0
M  V30 17 H 1.672 6.56266 2.65933 0
M  V30 18 H 2.08 4.83886 2.90714 0
M  V30 19 N 1.4781 -0.272755 1.55222 0
M  V30 20 C 2.7031 -1.02683 1.80197 0
M  V30 21 C 3.1281 -1.79142 0.573551 0
M  V30 22 O 2.4861 -1.74917 -0.476849 0
M  V30 23 C 2.5341 -1.9609 3.02624 0
M  V30 24 O 1.6381 -3.04863 2.77727 0
M  V30 25 H 0.9791 -0.293557 0.595584 0
M  V30 26 H 3.5091 -0.30159 2.02365 0
M  V30 27 H 3.5191 -2.38039 3.31363 0
M  V30 28 H 2.1941 -1.39851 3.91682 0
M  V30 29 H 0.7711 -2.67228 2.60084 0
M  V30 30 N 2.9562 -1.48159 -0.537278 0
M  V30 31 C 3.8882 -1.58218 -1.65831 0
M  V30 32 C 4.9012 -0.466948 -1.5596 0
M  V30 33 O 6.0902 -0.73747 -1.62553 0
M  V30 34 C 3.1902 -1.48906 -3.04434 0
M  V30 35 C 2.3632 -2.75343 -3.3986 0
M  V30 36 C 1.4222 -2.59588 -4.57712 0
M  V30 37 O 0.4482 -3.33457 -4.61297 0
M  V30 38 N 1.6502 -1.68724 -5.55439 0
M  V30 39 H 4.4152 -2.54891 -1.57641 0
M  V30 40 H 1.9762 -1.4479 -0.724386 0
M  V30 41 H 3.9682 -1.36072 -3.81139 0
M  V30 42 H 2.5382 -0.602368 -3.06741 0
M  V30 43 H 1.7582 -3.02795 -2.52406 0
M  V30 44 H 3.0462 -3.5924 -3.60311 0
M  V30 45 H 2.4442 -1.07898 -5.55315 0
M  V30 46 H 1.0012 -1.61832 -6.3139 0
M  V30 47 N 4.4343 0.785586 -1.36625 0
M  V30 48 C 5.6593 1.57963 -1.34397 0
M  V30 49 C 6.0843 1.87964 0.071526 0
M  V30 50 O 5.4423 1.48182 1.0446 0
M  V30 51 C 5.4903 2.87511 -2.17646 0
M  V30 52 O 4.5943 3.81281 -1.57158 0
M  V30 53 H 3.9353 0.479014 -0.459828 0
M  V30 54 H 6.4653 0.973411 -1.79961 0
M  V30 55 H 6.4753 3.36745 -2.30362 0
M  V30 56 H 5.1503 2.65002 -3.20541 0
M  V30 57 H 3.7273 3.39885 -1.53403 0
M  V30 58 N 5.9124 1.20967 1.01018 0
M  V30 59 C 6.8604 0.961223 2.1181 0
M  V30 60 C 7.8544 -0.0897034 1.69162 0
M  V30 61 O 9.0604 0.0612271 1.79896 0
M  V30 62 H 5.4354 0.29355 0.692338 0
M  V30 63 H 7.4064 1.90178 2.29946 0
M  V30 64 C 6.1554 0.536854 3.4353 0
M  V30 65 H 5.4784 1.33713 3.76777 0
M  V30 66 H 6.9184 0.402286 4.22087 0
M  V30 67 C 5.3774 -0.751574 3.2841 0
M  V30 68 O 5.9074 -1.80841 3.58691 0
M  V30 69 N 4.1134 -0.716079 2.81639 0
M  V30 70 H 3.6604 0.144236 2.57196 0
M  V30 71 H 3.6184 -1.57847 2.71904 0
M  V30 72 N 7.3905 -1.2043 1.01659 0
M  V30 73 C 8.8065 -1.41852 0.731442 0
M  V30 74 C 9.0065 -1.89358 -0.688898 0
M  V30 75 O 8.0625 -2.06247 -1.45666 0
M  V30 76 C 9.3755 -2.44019 1.75714 0
M  V30 77 C 10.9235 -2.57785 1.77527 0
M  V30 78 C 11.3985 -3.63194 2.79023 0
M  V30 79 N 12.8895 -3.70678 2.77763 0
M  V30 80 C 13.6245 -4.51897 3.52954 0
M  V30 81 N 13.1205 -5.36921 4.37821 0
M  V30 82 N 14.9135 -4.4643 3.41551 0
M  V30 83 H 7.0645 -0.879093 1.93354 0
M  V30 84 H 9.3275 -0.448425 0.835236 0
M  V30 85 H 9.0335 -2.1611 2.77469 0
M  V30 86 H 8.9075 -3.43007 1.56927 0
M  V30 87 H 11.2945 -2.85023 0.764569 0
M  V30 88 H 11.3755 -1.58992 2.00387 0
M  V30 89 H 11.0195 -3.36699 3.80258 0
M  V30 90 H 10.9495 -4.61609 2.53425 0
M  V30 91 H 13.4405 -3.09944 2.16201 0
M  V30 92 H 13.7535 -5.95981 4.91962 0
M  V30 93 H 12.0985 -5.36424 4.41899 0
M  V30 94 H 15.2895 -3.79042 2.74672 0
M  V30 95 H 15.4625 -5.09491 4.00404 0
M  V30 96 N 8.8686 -0.792821 -1.36206 0
M  V30 97 C 9.7786 -0.194808 -2.3379 0
M  V30 98 C 10.7946 0.654869 -1.61206 0
M  V30 99 O 11.9706 0.569856 -1.9317 0
M  V30 100 C 9.0356 0.657721 -3.40404 0
M  V30 101 C 8.0966 -0.210849 -4.28782 0
M  V30 102 C 7.3296 0.601086 -5.30304 0
M  V30 103 O 7.5526 1.83682 -5.40016 0
M  V30 104 O 6.4866 -0.000808277 -6.019 0
M  V30 105 H 10.3126 -1.00172 -2.86704 0
M  V30 106 H 7.8976 -0.554341 -1.38735 0
M  V30 107 H 9.7796 1.14375 -4.05581 0
M  V30 108 H 8.4546 1.44247 -2.89784 0
M  V30 109 H 7.3616 -0.743714 -3.66633 0
M  V30 110 H 8.6946 -0.959195 -4.82763 0
M  V30 111 N 10.3467 1.47872 -0.545128 0
M  V30 112 C 11.2767 2.32661 0.197793 0
M  V30 113 C 12.2577 1.43041 0.920504 0
M  V30 114 O 13.4427 1.71912 0.90333 0
M  V30 115 C 10.5727 3.24569 1.23582 0
M  V30 116 C 9.5267 4.23333 0.630323 0
M  V30 117 C 8.8527 5.0448 1.77211 0
M  V30 118 C 10.1527 5.20704 -0.407974 0
M  V30 119 H 11.8467 2.95024 -0.510045 0
M  V30 120 H 9.3927 1.4187 -0.246731 0
M  V30 121 H 11.3457 3.8272 1.76362 0
M  V30 122 H 10.0697 2.60236 1.97344 0
M  V30 123 H 8.7287 3.6639 0.123922 0
M  V30 124 H 8.3767 4.36561 2.49847 0
M  V30 125 H 8.0767 5.71339 1.37281 0
M  V30 126 H 9.6007 5.65487 2.3034 0
M  V30 127 H 11.0147 5.7329 0.033305 0
M  V30 128 H 9.4117 5.95699 -0.725486 0
M  V30 129 H 10.4817 4.66917 -1.30828 0
M  V30 130 N 11.8248 0.280983 1.55075 0
M  V30 131 C 13.0708 -0.33461 2.00021 0
M  V30 132 C 13.4038 -1.55063 1.16915 0
M  V30 133 O 12.6788 -1.93006 0.240646 0
M  V30 134 C 12.9618 -0.711007 3.53011 0
M  V30 135 C 12.8148 0.512766 4.46868 0
M  V30 136 C 14.1338 -1.54522 4.12081 0
M  V30 137 H 11.2528 -0.120147 0.727141 0
M  V30 138 H 13.8948 0.389097 1.85973 0
M  V30 139 H 12.0448 -1.32761 3.65112 0
M  V30 140 H 13.7168 1.15131 4.46702 0
M  V30 141 H 11.9598 1.14975 4.18286 0
M  V30 142 H 12.6308 0.205556 5.51617 0
M  V30 143 H 15.1068 -1.02442 4.03293 0
M  V30 144 H 13.9828 -1.77739 5.19327 0
M  V30 145 H 14.2438 -2.52813 3.62682 0
M  V30 146 N 13.3029 -1.57598 0.00835791 0
M  V30 147 C 14.5489 -1.91211 -0.675732 0
M  V30 148 C 14.8819 -0.883139 -1.72958 0
M  V30 149 O 14.1569 0.097016 -1.94258 0
M  V30 150 C 14.4399 -3.35379 -1.31123 0
M  V30 151 C 14.2929 -4.48999 -0.268356 0
M  V30 152 C 15.6119 -3.7912 -2.23508 0
M  V30 153 H 12.7309 -0.695374 -0.244179 0
M  V30 154 H 15.3729 -1.89901 0.0613655 0
M  V30 155 H 13.5229 -3.36626 -1.93946 0
M  V30 156 H 15.1949 -4.59887 0.360844 0
M  V30 157 H 13.4379 -4.31873 0.408482 0
M  V30 158 H 14.1089 -5.46851 -0.752218 0
M  V30 159 H 16.5849 -3.79477 -1.70693 0
M  V30 160 H 15.4609 -4.80729 -2.64936 0
M  V30 161 H 15.7219 -3.13455 -3.11766 0
M  V30 162 N 14.781 0.264519 -1.55364 0
M  V30 163 C 16.058 1.01677 -1.67096 0
M  V30 164 C 16.438 2.03996 -0.543015 0
M  V30 165 O 15.786 2.23907 0.45585 0
M  V30 166 C 15.996 1.66596 -3.0667 0
M  V30 167 C 17.344 2.17442 -3.64697 0
M  V30 168 O 18.368 1.76568 -3.09358 0
M  V30 169 O 17.227 2.92439 -4.61673 0
M  V30 170 H 14.321 0.472161 -0.678965 0
M  V30 171 H 16.867 0.259703 -1.67701 0
M  V30 172 H 15.639 0.924962 -3.80211 0
M  V30 173 H 15.262 2.48968 -3.10001 0
M  V30 174 N 16.2591 1.48442 0.529413 0
M  V30 175 C 17.5061 1.56488 1.28521 0
M  V30 176 C 17.8341 0.239042 1.93025 0
M  V30 177 O 17.0891 -0.770713 1.79885 0
M  V30 178 C 17.3881 2.6523 2.39558 0
M  V30 179 C 17.0541 4.07648 1.92702 0
M  V30 180 C 15.7161 4.46411 1.79641 0
M  V30 181 C 18.0681 4.96896 1.573 0
M  V30 182 C 15.3961 5.72226 1.29514 0
M  V30 183 C 17.7481 6.23202 1.08636 0
M  V30 184 C 16.4121 6.60821 0.941919 0
M  V30 185 H 15.6821 0.572631 0.470292 0
M  V30 186 H 18.3291 1.82161 0.59072 0
M  V30 187 H 16.6341 2.33419 3.14679 0
M  V30 188 H 18.3311 2.68671 2.97686 0
M  V30 189 H 14.9211 3.77036 2.03819 0
M  V30 190 H 19.1051 4.67626 1.66251 0
M  V30 191 H 14.3611 6.00097 1.17019 0
M  V30 192 H 18.5351 6.91753 0.803136 0
M  V30 193 H 16.1621 7.58198 0.5513 0
M  V30 194 N 17.7372 -0.778329 1.37039 0
M  V30 195 C 18.6672 -1.90546 1.34962 0
M  V30 196 C 19.6482 -1.68681 0.219274 0
M  V30 197 O 20.8332 -1.89634 0.418624 0
M  V30 198 C 17.9632 -3.27734 1.14925 0
M  V30 199 C 16.9172 -3.64147 2.24902 0
M  V30 200 C 16.2432 -4.99806 1.89996 0
M  V30 201 C 17.5432 -3.71579 3.67051 0
M  V30 202 H 19.2372 -1.92541 2.29277 0
M  V30 203 H 16.7832 -0.924948 1.10366 0
M  V30 204 H 18.7362 -4.06215 1.12104 0
M  V30 205 H 17.4602 -3.26154 0.170631 0
M  V30 206 H 16.1192 -2.8797 2.26868 0
M  V30 207 H 15.7672 -4.94759 0.906796 0
M  V30 208 H 15.4672 -5.25139 2.63634 0
M  V30 209 H 16.9912 -5.80694 1.88749 0
M  V30 210 H 18.4052 -4.40227 3.67251 0
M  V30 211 H 16.8022 -4.08405 4.39688 0
M  V30 212 H 17.8722 -2.72404 4.01154 0
M  V30 213 N 19.2153 -1.21501 -1.00376 0
M  V30 214 C 20.4403 -1.05977 -1.78279 0
M  V30 215 C 20.8653 0.385994 -1.84097 0
M  V30 216 O 20.2233 1.27849 -1.28547 0
M  V30 217 C 20.2713 -1.66302 -3.19963 0
M  V30 218 O 19.3753 -0.909333 -4.0225 0
M  V30 219 H 18.7163 -0.372906 -0.549397 0
M  V30 220 H 21.2463 -1.6107 -1.26165 0
M  V30 221 H 21.2563 -1.70574 -3.70632 0
M  V30 222 H 19.9313 -2.71515 -3.15043 0
M  V30 223 H 18.5083 -0.941795 -3.60811 0
M  V30 224 N 20.6934 1.19889 -1.02296 0
M  V30 225 C 21.9234 1.93109 -0.734332 0
M  V30 226 C 22.3314 1.75377 0.709889 0
M  V30 227 O 21.6744 1.06912 1.49384 0
M  V30 228 C 21.7364 3.45362 -0.99827 0
M  V30 229 C 21.4004 3.8686 -2.43287 0
M  V30 230 C 22.3974 3.92102 -3.41397 0
M  V30 231 C 20.0824 4.18668 -2.77529 0
M  V30 232 C 22.0764 4.28573 -4.71809 0
M  V30 233 C 19.7634 4.54813 -4.08153 0
M  V30 234 C 20.7614 4.59739 -5.05103 0
M  V30 235 O 20.4494 4.95051 -6.33388 0
M  V30 236 H 20.1814 0.620409 -0.268456 0
M  V30 237 H 22.7354 1.53144 -1.3688 0
M  V30 238 H 20.9654 3.85482 -0.306645 0
M  V30 239 H 22.6544 3.99814 -0.700234 0
M  V30 240 H 23.4204 3.67685 -3.1628 0
M  V30 241 H 19.2994 4.14021 -2.0275 0
M  V30 242 H 22.8434 4.32333 -5.4748 0
M  V30 243 H 18.7404 4.78687 -4.33047 0
M  V30 244 H 19.5084 5.1302 -6.37772 0
M  V30 245 N 22.1715 0.800033 1.35784 0
M  V30 246 C 23.1185 0.203848 2.29898 0
M  V30 247 C 24.0885 -0.658375 1.52495 0
M  V30 248 O 25.2735 -0.604832 1.8096 0
M  V30 249 C 22.4135 -0.64688 3.38983 0
M  V30 250 C 21.5265 0.235054 4.3136 0
M  V30 251 C 20.6615 -0.623054 5.27533 0
M  V30 252 C 19.7005 0.259682 6.11549 0
M  V30 253 N 18.8375 -0.558019 6.99879 0
M  V30 254 H 23.6775 1.01186 2.80295 0
M  V30 255 H 21.2145 0.51053 1.37957 0
M  V30 256 H 23.1725 -1.15521 4.00887 0
M  V30 257 H 21.8025 -1.42021 2.89879 0
M  V30 258 H 20.8545 0.861438 3.70518 0
M  V30 259 H 22.1665 0.914768 4.9034 0
M  V30 260 H 21.3205 -1.19678 5.94779 0
M  V30 261 H 20.0595 -1.33636 4.69034 0
M  V30 262 H 19.0645 0.845726 5.43256 0
M  V30 263 H 20.2895 0.970748 6.72126 0
M  V30 264 H 18.2355 -1.25542 6.43875 0
M  V30 265 H 18.1525 0.0637872 7.55973 0
M  V30 266 H 19.4205 -1.11523 7.71481 0
M  V30 267 N 23.6496 -1.47581 0.552962 0
M  V30 268 C 24.5796 -2.32762 -0.185451 0
M  V30 269 C 25.5606 -1.43527 -0.912905 0
M  V30 270 O 26.7456 -1.72388 -0.894201 0
M  V30 271 C 23.8756 -3.25219 -1.21859 0
M  V30 272 C 22.8296 -4.23661 -0.607864 0
M  V30 273 C 22.1556 -5.05413 -1.74533 0
M  V30 274 C 23.4556 -5.20481 0.435582 0
M  V30 275 H 25.1496 -2.94749 0.525684 0
M  V30 276 H 22.6956 -1.41738 0.254251 0
M  V30 277 H 24.6486 -3.8365 -1.7433 0
M  V30 278 H 23.3726 -2.61279 -1.95961 0
M  V30 279 H 22.0316 -3.66451 -0.104489 0
M  V30 280 H 21.6796 -4.3788 -2.47529 0
M  V30 281 H 21.3796 -5.72059 -1.34249 0
M  V30 282 H 22.9036 -5.66701 -2.27338 0
M  V30 283 H 24.3176 -5.733 -0.00290157 0
M  V30 284 H 22.7146 -5.95305 0.757067 0
M  V30 285 H 23.7846 -4.66217 1.33303 0
M  V30 286 N 25.1277 -0.289203 -1.54924 0
M  V30 287 C 26.3527 0.329299 -2.04769 0
M  V30 288 C 26.7777 1.4763 -1.16564 0
M  V30 289 O 26.1357 1.80527 -0.167186 0
M  V30 290 C 26.1837 0.774438 -3.52186 0
M  V30 291 O 25.2877 1.88038 -3.67036 0
M  V30 292 H 24.6287 0.0659259 -0.660719 0
M  V30 293 H 27.1587 -0.42761 -2.00082 0
M  V30 294 H 27.1687 1.06642 -3.93816 0
M  V30 295 H 25.8437 -0.0646707 -4.1585 0
M  V30 296 H 24.4207 1.58985 -3.3731 0
M  V30 297 N 26.6058 1.57591 -0.0167156 0
M  V30 298 C 27.5378 2.06343 0.997753 0
M  V30 299 C 28.5508 0.984469 1.29661 0
M  V30 300 O 29.7398 1.26093 1.26344 0
M  V30 301 C 26.8398 2.46255 2.32834 0
M  V30 302 C 26.0128 3.77083 2.21646 0
M  V30 303 C 25.0718 4.0368 3.37534 0
M  V30 304 O 24.0978 4.7411 3.14973 0
M  V30 305 N 25.2998 3.52881 4.60929 0
M  V30 306 H 28.0648 2.93997 0.581875 0
M  V30 307 H 25.6258 1.61002 0.170316 0
M  V30 308 H 27.6178 2.61149 3.09166 0
M  V30 309 H 26.1878 1.64032 2.66106 0
M  V30 310 H 25.4078 3.72106 1.30119 0
M  V30 311 H 26.6958 4.62822 2.11361 0
M  V30 312 H 26.0938 2.95878 4.82154 0
M  V30 313 H 24.6508 3.73076 5.34469 0
M  V30 314 N 28.0839 -0.256276 1.55502 0
M  V30 315 C 29.0309 -1.31714 1.89526 0
M  V30 316 C 30.0009 -1.4828 0.748479 0
M  V30 317 O 31.1859 -1.62416 1.00128 0
M  V30 318 C 28.3259 -2.66933 2.18725 0
M  V30 319 C 27.4389 -2.58452 3.4616 0
M  V30 320 C 26.5739 -3.85961 3.64976 0
M  V30 321 C 25.6129 -3.72059 4.86044 0
M  V30 322 N 24.7499 -4.9144 5.01429 0
M  V30 323 H 29.5899 -1.01998 2.80001 0
M  V30 324 H 27.1269 -0.492413 1.38613 0
M  V30 325 H 29.0849 -3.4563 2.33657 0
M  V30 326 H 27.7149 -2.94816 1.31466 0
M  V30 327 H 26.7669 -1.71374 3.3961 0
M  V30 328 H 28.0789 -2.44085 4.34999 0
M  V30 329 H 27.2329 -4.73101 3.79816 0
M  V30 330 H 25.9719 -4.03215 2.74353 0
M  V30 331 H 24.9769 -2.83302 4.7119 0
M  V30 332 H 26.2019 -3.56309 5.78118 0
M  V30 333 H 24.1479 -5.09072 4.13741 0
M  V30 334 H 24.0649 -4.79668 5.84341 0
M  V30 335 H 25.3329 -5.80104 5.20672 0
M  V30 336 N 29.562 -1.4872 -0.521534 0
M  V30 337 C 30.81 -1.56857 -1.27437 0
M  V30 338 C 31.131 -0.247982 -1.93417 0
M  V30 339 O 30.401 0.731151 -1.81744 0
M  V30 340 H 28.981 -0.577885 -0.473347 0
M  V30 341 H 31.643 -1.85233 -0.606205 0
M  V30 342 H 30.739 -2.35402 -2.0492 0
M  V30 343 N 31.0401 0.771051 -1.3745 0
M  V30 344 C 32.2701 1.55789 -1.35696 0
M  V30 345 C 32.6781 1.89107 0.0594523 0
M  V30 346 O 32.0211 1.51984 1.03183 0
M  V30 347 C 32.0831 2.89515 -2.13123 0
M  V30 348 C 31.7471 2.78829 -3.62082 0
M  V30 349 C 32.7441 2.49812 -4.5595 0
M  V30 350 C 30.4291 2.9683 -4.05213 0
M  V30 351 C 32.4231 2.38923 -5.90927 0
M  V30 352 C 30.1101 2.85562 -5.40276 0
M  V30 353 C 31.1081 2.56649 -6.32946 0
M  V30 354 O 30.7961 2.45408 -7.65526 0
M  V30 355 H 30.5281 0.489257 -0.466481 0
M  V30 356 H 33.0821 0.963446 -1.81403 0
M  V30 357 H 31.3121 3.51081 -1.62107 0
M  V30 358 H 33.0011 3.50915 -2.03994 0
M  V30 359 H 33.7671 2.3559 -4.23937 0
M  V30 360 H 29.6461 3.18335 -3.33442 0
M  V30 361 H 33.1901 2.16277 -6.63227 0
M  V30 362 H 29.0871 2.99351 -5.71891 0
M  V30 363 H 29.8551 2.60753 -7.75855 0
M  V30 364 N 32.5182 1.22032 0.997298 0
M  V30 365 C 33.7432 1.06921 1.77715 0
M  V30 366 C 34.1682 -0.376226 1.84299 0
M  V30 367 O 33.5262 -1.27165 1.29223 0
M  V30 368 C 33.5742 1.67996 3.19076 0
M  V30 369 O 32.6782 0.930653 4.01762 0
M  V30 370 H 32.0192 0.375814 0.547412 0
M  V30 371 H 34.5492 1.61737 1.25309 0
M  V30 372 H 34.5592 1.72538 3.69723 0
M  V30 373 H 33.2342 2.73182 3.13599 0
M  V30 374 H 31.8112 0.960917 3.60307 0
M  V30 375 N 33.9963 -1.19345 1.0293 0
M  V30 376 C 35.2423 -1.89585 0.736824 0
M  V30 377 C 35.5973 -1.78148 -0.726703 0
M  V30 378 O 34.8903 -1.16332 -1.52242 0
M  V30 379 C 35.0843 -3.39292 1.12319 0
M  V30 380 C 34.9133 -3.65298 2.62273 0
M  V30 381 C 33.6833 -3.83304 3.29251 0
M  V30 382 C 35.8813 -3.6682 3.60482 0
M  V30 383 N 33.8633 -3.96944 4.68304 0
M  V30 384 C 35.2343 -3.86037 4.85155 0
M  V30 385 C 37.2893 -3.49848 3.54275 0
M  V30 386 C 35.9923 -3.9004 6.04369 0
M  V30 387 C 38.0183 -3.55129 4.72903 0
M  V30 388 C 37.3803 -3.74831 5.9639 0
M  V30 389 H 33.4793 -0.712856 0.321497 0
M  V30 390 H 36.0633 -1.43427 1.31669 0
M  V30 391 H 34.2343 -3.84172 0.571524 0
M  V30 392 H 35.9663 -3.97055 0.78292 0
M  V30 393 H 32.7213 -3.82211 2.79663 0
M  V30 394 H 33.1453 -4.07613 5.40538 0
M  V30 395 H 37.7873 -3.33572 2.59788 0
M  V30 396 H 35.5053 -4.05108 6.99223 0
M  V30 397 H 39.0913 -3.43287 4.69729 0
M  V30 398 H 37.9713 -3.78792 6.86649 0
M  V30 399 N 35.4744 -0.807222 -1.35358 0
M  V30 400 C 36.6994 -0.399309 -2.0352 0
M  V30 401 C 37.1244 0.981986 -1.60433 0
M  V30 402 O 36.4824 1.63601 -0.781299 0
M  V30 403 C 36.5304 -0.491552 -3.57234 0
M  V30 404 O 35.6344 0.494754 -4.09421 0
M  V30 405 H 34.9754 -0.166682 -0.642739 0
M  V30 406 H 37.5054 -1.09328 -1.72941 0
M  V30 407 H 37.5154 -0.361588 -4.06395 0
M  V30 408 H 36.1904 -1.49907 -3.87944 0
M  V30 409 H 34.7674 0.324977 -3.71481 0
M  V30 410 N 36.9525 1.47285 -0.560781 0
M  V30 411 C 37.8845 2.28118 0.222438 0
M  V30 412 C 38.8975 1.37219 0.876056 0
M  V30 413 O 40.0865 1.62011 0.749307 0
M  V30 414 C 37.1865 3.1159 1.33285 0
M  V30 415 C 36.3595 4.30473 0.77534 0
M  V30 416 C 35.4185 4.95513 1.77069 0
M  V30 417 O 34.4445 5.53792 1.31539 0
M  V30 418 N 35.6465 4.90531 3.10418 0
M  V30 419 H 38.4115 2.95976 -0.470958 0
M  V30 420 H 35.9725 1.56955 -0.39709 0
M  V30 421 H 37.9645 3.51967 1.99752 0
M  V30 422 H 36.5345 2.45951 1.92943 0
M  V30 423 H 35.7545 3.94144 -0.0662113 0
M  V30 424 H 37.0425 5.07362 0.382272 0
M  V30 425 H 36.4405 4.44389 3.5005 0
M  V30 426 H 34.9975 5.34917 3.72434 0
M  V30 427 N 38.4306 0.297415 1.54768 0
M  V30 428 C 39.6776 -0.312913 2.00068 0
M  V30 429 C 40.0056 -1.54171 1.18582 0
M  V30 430 O 39.2606 -1.94108 0.249133 0
M  V30 431 C 39.5596 -0.717561 3.50123 0
M  V30 432 C 39.2256 0.409095 4.4904 0
M  V30 433 C 37.8876 0.718399 4.75807 0
M  V30 434 C 40.2396 1.16717 5.07963 0
M  V30 435 C 37.5676 1.78896 5.5876 0
M  V30 436 C 39.9196 2.22762 5.92081 0
M  V30 437 C 38.5836 2.54303 6.1716 0
M  V30 438 H 37.8536 -0.114503 0.7321 0
M  V30 439 H 40.5006 0.415767 1.86932 0
M  V30 440 H 38.8056 -1.52627 3.60849 0
M  V30 441 H 40.5026 -1.20091 3.82595 0
M  V30 442 H 37.0926 0.157918 4.28309 0
M  V30 443 H 41.2766 0.941466 4.87289 0
M  V30 444 H 36.5326 2.0381 5.7643 0
M  V30 445 H 40.7066 2.81962 6.36765 0
M  V30 446 H 38.3336 3.3739 6.81229 0
M  V30 447 N 39.9087 -1.5758 0.0250728 0
M  V30 448 C 41.1337 -1.96337 -0.668317 0
M  V30 449 C 41.5587 -0.901314 -1.651 0
M  V30 450 O 40.9167 0.138187 -1.80773 0
M  V30 451 C 40.9647 -3.34191 -1.35457 0
M  V30 452 O 40.0687 -3.30269 -2.46974 0
M  V30 453 H 39.4097 -0.640281 -0.175887 0
M  V30 454 H 41.9397 -2.0442 0.0857224 0
M  V30 455 H 41.9497 -3.70331 -1.71228 0
M  V30 456 H 40.6247 -4.11036 -0.634218 0
M  V30 457 H 39.2017 -3.05841 -2.13344 0
M  V30 458 N 41.3868 0.248026 -1.55636 0
M  V30 459 C 42.6638 0.998988 -1.68165 0
M  V30 460 C 43.0438 2.03409 -0.564621 0
M  V30 461 O 42.3918 2.24378 0.432076 0
M  V30 462 C 42.6018 1.63334 -3.0842 0
M  V30 463 C 43.9498 2.13562 -3.66983 0
M  V30 464 O 44.9738 1.73277 -3.11213 0
M  V30 465 O 43.8328 2.87526 -4.64749 0
M  V30 466 H 40.9268 0.464933 -0.683935 0
M  V30 467 H 43.4728 0.241902 -1.67967 0
M  V30 468 H 42.2448 0.884583 -3.8117 0
M  V30 469 H 41.8678 2.45666 -3.12624 0
M  V30 470 N 42.8649 1.48995 0.513639 0
M  V30 471 C 44.1109 1.58076 1.27042 0
M  V30 472 C 44.4439 0.261026 1.92438 0
M  V30 473 O 43.7189 -0.734393 1.80103 0
M  V30 474 C 44.0019 2.73091 2.34719 0
M  V30 475 C 43.8549 4.14821 1.73907 0
M  V30 476 C 45.1739 2.83796 3.36375 0
M  V30 477 H 42.2929 0.575391 0.460536 0
M  V30 478 H 44.9349 1.81232 0.570516 0
M  V30 479 H 43.0849 2.53479 2.94416 0
M  V30 480 H 44.7569 4.45917 1.18135 0
M  V30 481 H 42.9999 4.21058 1.0437 0
M  V30 482 H 43.6709 4.91147 2.51949 0
M  V30 483 H 46.1469 3.01611 2.86653 0
M  V30 484 H 45.0229 3.65971 4.09093 0
M  V30 485 H 45.2839 1.92624 3.9793 0
M  V30 486 N 44.343 -0.763751 1.37857 0
M  V30 487 C 45.253 -1.90817 1.36478 0
M  V30 488 C 46.269 -1.71997 0.263248 0
M  V30 489 O 47.445 -1.95095 0.499979 0
M  V30 490 C 44.51 -3.2605 1.17864 0
M  V30 491 C 43.571 -3.57467 2.3773 0
M  V30 492 C 42.804 -4.86249 2.19995 0
M  V30 493 O 43.027 -5.57884 1.18836 0
M  V30 494 O 41.961 -5.16911 3.08361 0
M  V30 495 H 45.787 -1.94933 2.32884 0
M  V30 496 H 43.372 -0.907619 1.1867 0
M  V30 497 H 45.254 -4.06924 1.09504 0
M  V30 498 H 43.929 -3.22769 0.245372 0
M  V30 499 H 42.836 -2.76796 2.51664 0
M  V30 500 H 44.169 -3.655 3.29652 0
M  V30 501 N 45.8211 -1.22559 -0.990812 0
M  V30 502 C 46.7311 -1.01394 -2.11557 0
M  V30 503 C 47.7471 0.0383962 -1.73958 0
M  V30 504 O 48.9231 -0.154787 -2.00804 0
M  V30 505 C 45.9881 -0.596569 -3.41529 0
M  V30 506 C 45.0491 -1.72276 -3.93217 0
M  V30 507 C 44.2821 -1.32521 -5.16985 0
M  V30 508 O 44.5051 -0.204909 -5.70032 0
M  V30 509 O 43.4391 -2.14247 -5.62478 0
M  V30 510 H 47.2651 -1.95633 -2.32296 0
M  V30 511 H 44.8501 -1.01172 -1.0993 0
M  V30 512 H 46.7321 -0.374263 -4.19735 0
M  V30 513 H 45.4071 0.316939 -3.22145 0
M  V30 514 H 44.3141 -1.99961 -3.16174 0
M  V30 515 H 45.6471 -2.61421 -4.17037 0
M  V30 516 N 47.2992 1.18797 -1.03562 0
M  V30 517 C 48.2472 2.24297 -0.615905 0
M  V30 518 C 49.2412 1.65643 0.354808 0
M  V30 519 O 50.4472 1.78618 0.22265 0
M  V30 520 H 46.8222 0.729909 -0.180934 0
M  V30 521 H 48.7932 2.5701 -1.5162 0
M  V30 522 C 47.5422 3.47698 0.0104735 0
M  V30 523 H 46.8652 3.93125 -0.727509 0
M  V30 524 H 48.3052 4.23159 0.266995 0
M  V30 525 C 46.7642 3.12489 1.25905 0
M  V30 526 O 47.2942 3.25761 2.35038 0
M  V30 527 N 45.5002 2.6686 1.15039 0
M  V30 528 H 45.0472 2.56261 0.262328 0
M  V30 529 H 45.0052 2.43674 1.98672 0
M  V30 530 N 48.7773 0.814389 1.34928 0
M  V30 531 C 50.1933 0.499084 1.51596 0
M  V30 532 C 50.3933 -0.978319 1.76157 0
M  V30 533 O 49.4493 -1.76309 1.80752 0
M  V30 534 C 50.7623 1.35121 2.68631 0
M  V30 535 C 52.3103 1.34746 2.82511 0
M  V30 536 C 52.7853 2.18388 4.0258 0
M  V30 537 N 54.2763 2.15966 4.09772 0
M  V30 538 C 55.0113 2.77437 5.01813 0
M  V30 539 N 54.5073 3.47866 5.99134 0
M  V30 540 N 56.3003 2.67037 4.94619 0
M  V30 541 H 48.4513 1.7711 1.17243 0
M  V30 542 H 50.7143 0.754256 0.574284 0
M  V30 543 H 50.4203 2.40001 2.57085 0
M  V30 544 H 50.2943 1.00991 3.63429 0
M  V30 545 H 52.6813 0.30648 2.93504 0
M  V30 546 H 52.7623 1.72869 1.88547 0
M  V30 547 H 52.4063 3.2253 3.92347 0
M  V30 548 H 52.3363 1.77621 4.9574 0
M  V30 549 H 54.8273 1.64729 3.40107 0
M  V30 550 H 55.1403 3.92038 6.65977 0
M  V30 551 H 53.4853 3.51972 5.99284 0
M  V30 552 H 56.6763 2.11597 4.17546 0
M  V30 553 H 56.8493 3.15232 5.66156 0
M  V30 554 N 50.2554 -1.46986 0.568584 0
M  V30 555 C 51.4834 -2.0683 0.0539956 0
M  V30 556 C 51.8984 -1.41953 -1.24478 0
M  V30 557 O 51.2554 -0.519933 -1.74937 0
M  V30 558 C 51.3064 -3.61254 -0.133362 0
M  V30 559 O 51.0274 -4.237 1.11399 0
M  V30 560 C 52.5284 -4.37992 -0.683927 0
M  V30 561 H 49.7484 -0.669058 0.0510141 0
M  V30 562 H 52.2924 -1.88824 0.785234 0
M  V30 563 H 50.4474 -3.78735 -0.81477 0
M  V30 564 H 50.8614 -5.16388 0.91888 0
M  V30 565 H 52.3354 -5.46684 -0.764263 0
M  V30 566 H 52.8124 -4.05058 -1.69778 0
M  V30 567 H 53.4184 -4.25283 -0.0378494 0
M  V30 568 N 51.7335 -0.305618 -1.54608 0
M  V30 569 C 52.6435 0.57778 -2.27374 0
M  V30 570 C 53.6595 1.14451 -1.31061 0
M  V30 571 O 54.8355 1.16831 -1.6405 0
M  V30 572 C 51.9005 1.73123 -3.00382 0
M  V30 573 C 50.9615 1.19812 -4.12242 0
M  V30 574 C 50.1945 2.2966 -4.81759 0
M  V30 575 O 50.4175 3.49651 -4.50666 0
M  V30 576 O 49.3515 1.96091 -5.69062 0
M  V30 577 H 53.1775 -0.012624 -3.03697 0
M  V30 578 H 50.7625 -0.0719184 -1.49227 0
M  V30 579 H 52.6445 2.40315 -3.4616 0
M  V30 580 H 51.3195 2.30815 -2.26949 0
M  V30 581 H 50.2265 0.491798 -3.70853 0
M  V30 582 H 51.5595 0.666566 -4.87666 0
M  V30 583 N 53.2116 1.57565 -0.0334293 0
M  V30 584 C 54.1746 2.09393 0.932048 0
M  V30 585 C 55.1746 1.00986 1.25134 0
M  V30 586 O 56.3646 1.27129 1.19096 0
M  V30 587 C 53.4966 2.56338 2.2473 0
M  V30 588 H 54.6896 2.95984 0.483085 0
M  V30 589 H 52.2426 1.54819 0.21468 0
M  V30 590 H 52.9776 1.7309 2.74245 0
M  V30 591 H 52.7626 3.35542 2.02865 0
M  V30 592 H 54.2526 2.96646 2.93923 0
M  V30 593 N 54.6897 -0.239769 1.55765 0
M  V30 594 C 56.1007 -0.808263 1.68297 0
M  V30 595 C 56.4517 -1.85736 0.632181 0
M  V30 596 O 55.5767 -2.15277 -0.220204 0
M  V30 597 C 56.1717 -1.47284 3.05111 0
M  V30 598 C 54.7307 -1.98895 3.19559 0
M  V30 599 C 53.8777 -0.842575 2.64189 0
M  V30 600 H 56.8287 -0.0154422 1.58692 0
M  V30 601 H 56.8497 -2.34111 2.99954 0
M  V30 602 H 56.3617 -0.709053 3.81568 0
M  V30 603 H 54.4627 -2.78132 2.47938 0
M  V30 604 H 54.5757 -2.18143 4.26556 0
M  V30 605 H 52.9397 -1.24501 2.22197 0
M  V30 606 H 53.7227 -0.0917552 3.43177 0
M  V30 607 N 56.1678 -1.49265 -0.50573 0
M  V30 608 C 57.0778 -1.68312 -1.63427 0
M  V30 609 C 58.0938 -0.565682 -1.64548 0
M  V30 610 O 59.2698 -0.839801 -1.83055 0
M  V30 611 C 56.3348 -1.74107 -2.99813 0
M  V30 612 C 55.3958 -2.97653 -3.09356 0
M  V30 613 C 54.6288 -3.03163 -4.39236 0
M  V30 614 O 54.8518 -2.16396 -5.27758 0
M  V30 615 O 53.7858 -3.9558 -4.53652 0
M  V30 616 H 57.6118 -2.63907 -1.50289 0
M  V30 617 H 55.1968 -1.32951 -0.681502 0
M  V30 618 H 57.0788 -1.803 -3.80881 0
M  V30 619 H 55.7538 -0.816901 -3.13223 0
M  V30 620 H 54.6608 -2.96981 -2.27493 0
M  V30 621 H 55.9938 -3.89535 -3.00871 0
M  V30 622 N 57.6459 0.756429 -1.3826 0
M  V30 623 C 58.8939 1.51248 -1.34047 0
M  V30 624 C 59.2149 1.94875 0.0698372 0
M  V30 625 O 58.4849 1.67436 1.01696 0
M  V30 626 H 57.0649 0.561018 -0.493222 0
M  V30 627 H 59.7269 0.899347 -1.7291 0
M  V30 628 H 58.8229 2.40472 -1.98947 0
M  V30 629 N 59.124 1.23083 0.984299 0
M  V30 630 C 60.352 1.08714 1.76037 0
M  V30 631 C 60.767 -0.361691 1.85303 0
M  V30 632 O 60.124 -1.25034 1.32939 0
M  V30 633 C 60.175 1.70206 3.18923 0
M  V30 634 O 59.896 3.09423 3.10144 0
M  V30 635 C 61.397 1.61227 4.12941 0
M  V30 636 H 58.617 0.380664 0.552572 0
M  V30 637 H 61.161 1.62853 1.23689 0
M  V30 638 H 59.316 1.20109 3.6831 0
M  V30 639 H 59.73 3.39188 4.00065 0
M  V30 640 H 61.204 2.08962 5.10919 0
M  V30 641 H 61.681 0.570375 4.35481 0
M  V30 642 H 62.287 2.10671 3.69456 0
M  V30 643 N 60.6021 -1.18246 1.0419 0
M  V30 644 C 61.5121 -2.25574 0.644476 0
M  V30 645 C 62.5281 -1.70845 -0.329826 0
M  V30 646 O 63.7041 -2.00554 -0.184443 0
M  V30 647 C 60.7691 -3.46697 0.014877 0
M  V30 648 C 59.8301 -4.16554 1.03834 0
M  V30 649 C 59.0631 -5.31894 0.438692 0
M  V30 650 O 59.2861 -5.65385 -0.754752 0
M  V30 651 O 58.2201 -5.90459 1.168 0
M  V30 652 H 62.0461 -2.61836 1.53869 0
M  V30 653 H 59.6311 -1.25352 0.812854 0
M  V30 654 H 61.5131 -4.20062 -0.335538 0
M  V30 655 H 60.1881 -3.12255 -0.853138 0
M  V30 656 H 59.0951 -3.45251 1.44057 0
M  V30 657 H 60.4281 -4.54998 1.87716 0
M  V30 658 N 62.0802 -0.821533 -1.34494 0
M  V30 659 C 63.3052 -0.420873 -2.03085 0
M  V30 660 C 63.7302 0.964915 -1.61465 0
M  V30 661 O 63.0882 1.62763 -0.798607 0
M  V30 662 C 63.1362 -0.529414 -3.56693 0
M  V30 663 O 62.2402 0.451302 -4.09923 0
M  V30 664 H 61.5812 -0.173489 -0.640935 0
M  V30 665 H 64.1112 -1.11157 -1.71771 0
M  V30 666 H 64.1212 -0.404671 -4.05988 0
M  V30 667 H 62.7962 -1.54014 -3.86332 0
M  V30 668 H 61.3732 0.285558 -3.71805 0
M  V30 669 N 63.5583 1.46682 -0.576371 0
M  V30 670 C 64.4683 2.34032 0.163141 0
M  V30 671 C 65.4843 1.49367 0.892501 0
M  V30 672 O 66.6603 1.82252 0.857106 0
M  V30 673 C 63.7253 3.26435 1.16795 0
M  V30 674 C 62.7863 4.26998 0.443944 0
M  V30 675 C 62.0193 5.14986 1.40088 0
M  V30 676 O 62.2423 5.05785 2.637 0
M  V30 677 O 61.1763 5.94906 0.914917 0
M  V30 678 H 65.0023 2.98607 -0.55388 0
M  V30 679 H 62.5873 1.45554 -0.336821 0
M  V30 680 H 64.4693 3.83459 1.74748 0
M  V30 681 H 63.1443 2.64465 1.86655 0
M  V30 682 H 62.0513 3.7368 -0.177271 0
M  V30 683 H 63.3843 4.91736 -0.213566 0
M  V30 684 N 65.0364 0.313813 1.54444 0
M  V30 685 C 65.9694 -0.598866 2.20202 0
M  V30 686 C 66.9474 -1.12318 1.17573 0
M  V30 687 O 68.1314 -1.18899 1.46271 0
M  V30 688 C 65.2584 -1.82071 2.85601 0
M  V30 689 C 64.3044 -1.42851 4.01865 0
M  V30 690 S 65.1374 -0.473512 5.33402 0
M  V30 691 C 66.2934 -1.70286 6.0229 0
M  V30 692 H 66.5264 -0.0402532 2.97273 0
M  V30 693 H 64.0594 0.0979165 1.54089 0
M  V30 694 H 66.0174 -2.52184 3.23904 0
M  V30 695 H 64.6784 -2.3505 2.08351 0
M  V30 696 H 63.8714 -2.33871 4.46453 0
M  V30 697 H 63.4734 -0.807198 3.65185 0
M  V30 698 H 65.7654 -2.64168 6.23876 0
M  V30 699 H 66.7084 -1.29932 6.96077 0
M  V30 700 H 67.1164 -1.88541 5.32083 0
M  V30 701 N 66.5145 -1.57545 0.0417849 0
M  V30 702 C 67.4245 -2.14451 -0.951213 0
M  V30 703 C 68.4405 -1.09992 -1.34825 0
M  V30 704 O 69.6165 -1.42114 -1.42708 0
M  V30 705 C 66.6815 -2.67063 -2.21084 0
M  V30 706 C 65.7425 -3.86284 -1.87304 0
M  V30 707 C 64.9755 -4.36378 -3.07261 0
M  V30 708 O 65.1985 -3.85587 -4.20332 0
M  V30 709 O 64.1325 -5.28077 -2.88822 0
M  V30 710 H 67.9585 -2.99601 -0.497287 0
M  V30 711 H 65.5435 -1.48317 -0.179567 0
M  V30 712 H 67.4255 -3.00914 -2.95006 0
M  V30 713 H 66.1005 -1.84989 -2.65633 0
M  V30 714 H 65.0075 -3.57338 -1.10727 0
M  V30 715 H 66.3405 -4.6956 -1.47562 0
M  V30 716 N 67.9926 0.231505 -1.5589 0
M  V30 717 C 69.2206 0.974505 -1.82513 0
M  V30 718 C 69.6356 1.78344 -0.619591 0
M  V30 719 O 68.9926 1.77792 0.411848 0
M  V30 720 C 69.0436 1.90007 -3.07538 0
M  V30 721 O 68.7646 1.12385 -4.2344 0
M  V30 722 C 70.2656 2.75779 -3.47075 0
M  V30 723 H 67.4856 0.286065 -0.606966 0
M  V30 724 H 70.0296 0.249739 -2.02969 0
M  V30 725 H 68.1846 2.57891 -2.89086 0
M  V30 726 H 68.5986 1.75125 -4.944 0
M  V30 727 H 70.0726 3.36443 -4.37619 0
M  V30 728 H 70.5496 3.47672 -2.68367 0
M  V30 729 H 71.1556 2.13323 -3.67931 0
M  V30 730 N 69.4707 1.49531 0.497807 0
M  V30 731 C 70.8817 1.52344 1.07927 0
M  V30 732 C 71.2327 0.311469 1.93712 0
M  V30 733 O 70.3577 -0.578405 2.08527 0
M  V30 734 C 70.9527 2.76062 1.96405 0
M  V30 735 C 69.5117 2.81643 2.49709 0
M  V30 736 C 68.6587 2.46299 1.27404 0
M  V30 737 H 71.6097 1.56182 0.281576 0
M  V30 738 H 71.6307 2.56405 2.81135 0
M  V30 739 H 71.1427 3.64254 1.33943 0
M  V30 740 H 69.2437 1.97739 3.15801 0
M  V30 741 H 69.3567 3.83891 2.86643 0
M  V30 742 H 67.7207 1.98148 1.60029 0
M  V30 743 H 68.5037 3.36769 0.66645 0
M  V30 744 N 70.9488 -0.749086 1.3866 0
M  V30 745 C 72.1738 -1.54344 1.38538 0
M  V30 746 C 72.5988 -1.88088 -0.0216655 0
M  V30 747 O 71.9568 -1.50899 -1.00494 0
M  V30 748 C 72.0048 -2.8164 2.25192 0
M  V30 749 O 71.1088 -3.7698 1.67212 0
M  V30 750 H 70.4498 -0.466654 0.472367 0
M  V30 751 H 72.9798 -0.925355 1.82478 0
M  V30 752 H 72.9898 -3.30519 2.3921 0
M  V30 753 H 71.6648 -2.56411 3.27454 0
M  V30 754 H 70.2418 -3.35699 1.6236 0
M  V30 755 N 72.4269 -1.23603 -0.977757 0
M  V30 756 C 73.3899 -1.02069 -2.05218 0
M  V30 757 C 74.3899 0.0184305 -1.60789 0
M  V30 758 O 75.5799 -0.221569 -1.72785 0
M  V30 759 C 72.7119 -0.544926 -3.36517 0
M  V30 760 H 73.9049 -1.9742 -2.25755 0
M  V30 761 H 71.4579 -1.05684 -1.15155 0
M  V30 762 H 72.1929 0.412241 -3.21669 0
M  V30 763 H 71.9779 -1.2948 -3.70105 0
M  V30 764 H 73.4679 -0.414985 -4.15533 0
M  V30 765 N 73.905 1.17692 -1.04816 0
M  V30 766 C 75.154 1.87192 -0.751132 0
M  V30 767 C 75.467 1.8169 0.724441 0
M  V30 768 O 76.673 2.46625 1.13527 0
M  V30 769 C 75.129 3.35857 -1.29338 0
M  V30 770 C 74.737 3.4987 -2.79812 0
M  V30 771 C 76.481 4.10709 -1.07322 0
M  V30 772 C 74.388 4.92536 -3.27356 0
M  V30 773 H 73.318 0.701162 -0.277288 0
M  V30 774 H 75.969 1.32932 -1.26496 0
M  V30 775 H 74.351 3.89631 -0.707376 0
M  V30 776 H 75.525 3.06332 -3.44235 0
M  V30 777 H 73.84 2.88433 -3.00325 0
M  V30 778 H 76.437 5.15952 -1.4035 0
M  V30 779 H 76.78 4.16299 -0.0108001 0
M  V30 780 H 77.313 3.6313 -1.62423 0
M  V30 781 H 74.052 4.92119 -4.33012 0
M  V30 782 H 73.572 5.3676 -2.67673 0
M  V30 783 H 75.251 5.61288 -3.21815 0
M  V30 784 N 75.3831 0.828654 1.34056 0
M  V30 785 C 76.3311 0.242973 2.31327 0
M  V30 786 C 77.3251 -0.61944 1.57668 0
M  V30 787 O 78.5311 -0.51014 1.7262 0
M  V30 788 H 74.9061 0.059834 0.749616 0
M  V30 789 H 76.8771 1.07809 2.78244 0
M  V30 790 C 75.6261 -0.575733 3.429 0
M  V30 791 H 74.9491 0.0785582 3.99723 0
M  V30 792 H 76.3891 -0.951547 4.13185 0
M  V30 793 C 74.8481 -1.75044 2.87856 0
M  V30 794 O 75.3781 -2.84882 2.83205 0
M  V30 795 N 73.5841 -1.56903 2.44602 0
M  V30 796 H 73.1311 -0.675547 2.48584 0
M  V30 797 H 73.0891 -2.35652 2.08124 0
M  V30 798 N 76.8612 -1.46375 0.584142 0
M  V30 799 C 78.1092 -2.01978 0.0701287 0
M  V30 800 C 78.4302 -1.4579 -1.295 0
M  V30 801 O 77.7002 -0.64314 -1.85042 0
M  V30 802 H 76.2802 -0.746648 0.0229345 0
M  V30 803 H 78.9422 -1.79461 0.760245 0
M  V30 804 H 78.0382 -3.121 0.0022064 0
M  V30 805 N 78.3393 -0.321999 -1.54275 0
M  V30 806 C 79.2873 0.560206 -2.25753 0
M  V30 807 C 80.2813 1.11984 -1.27106 0
M  V30 808 O 81.4873 1.06806 -1.44888 0
M  V30 809 H 77.8623 0.199304 -0.725108 0
M  V30 810 H 79.8333 -0.0649365 -2.98329 0
M  V30 811 C 78.5823 1.71023 -3.02731 0
M  V30 812 H 77.9053 1.28885 -3.78456 0
M  V30 813 H 79.3453 2.30314 -3.55993 0
M  V30 814 C 77.8043 2.62692 -2.10938 0
M  V30 815 O 78.3343 3.64364 -1.6912 0
M  V30 816 N 76.5403 2.30891 -1.76459 0
M  V30 817 H 76.0873 1.48253 -2.10663 0
M  V30 818 H 76.0453 2.92487 -1.1532 0
M  V30 819 N 79.8174 1.5752 -0.0501392 0
M  V30 820 C 81.2284 1.80271 0.485705 0
M  V30 821 C 81.5794 0.96228 1.70981 0
M  V30 822 O 80.7044 0.178578 2.15662 0
M  V30 823 C 81.2994 3.26957 0.887938 0
M  V30 824 C 79.8584 3.5063 1.36877 0
M  V30 825 C 79.0054 2.75165 0.343468 0
M  V30 826 H 81.9564 1.56281 -0.276028 0
M  V30 827 H 81.9774 3.37821 1.75093 0
M  V30 828 H 81.4894 3.881 -0.0031809 0
M  V30 829 H 79.5904 2.94766 2.27911 0
M  V30 830 H 79.7034 4.59343 1.36164 0
M  V30 831 H 78.0674 2.4127 0.816128 0
M  V30 832 H 78.8504 3.39034 -0.539548 0
M  V30 833 N 81.2955 -0.223234 1.56011 0
M  V30 834 C 82.5205 -0.968978 1.83373 0
M  V30 835 C 82.9455 -1.77227 0.630254 0
M  V30 836 O 82.3035 -1.76345 -0.420959 0
M  V30 837 C 82.3515 -1.86363 3.08709 0
M  V30 838 O 81.4555 -2.95873 2.87285 0
M  V30 839 H 80.7965 -0.274461 0.604622 0
M  V30 840 H 83.3265 -0.237056 2.03222 0
M  V30 841 H 83.3365 -2.27376 3.38768 0
M  V30 842 H 82.0115 -1.27319 3.95933 0
M  V30 843 H 80.5885 -2.58818 2.68454 0
M  V30 844 N 82.7736 -1.49793 -0.48987 0
M  V30 845 C 84.0196 -1.61049 -1.24236 0
M  V30 846 C 84.3746 -0.298412 -1.90072 0
M  V30 847 O 83.6676 0.702262 -1.78266 0
M  V30 848 C 83.8616 -2.71488 -2.32441 0
M  V30 849 C 83.6906 -4.13308 -1.77218 0
M  V30 850 C 82.4606 -4.79955 -1.58023 0
M  V30 851 C 84.6586 -4.98176 -1.27772 0
M  V30 852 N 82.6406 -6.06052 -0.978465 0
M  V30 853 C 84.0116 -6.14843 -0.798 0
M  V30 854 C 86.0666 -4.84091 -1.16449 0
M  V30 855 C 84.7696 -7.18975 -0.216245 0
M  V30 856 C 86.7956 -5.88382 -0.596698 0
M  V30 857 C 86.1576 -7.04285 -0.127262 0
M  V30 858 H 82.2566 -0.643611 -0.444172 0
M  V30 859 H 84.8406 -1.86842 -0.54754 0
M  V30 860 H 83.0116 -2.47449 -2.99372 0
M  V30 861 H 84.7436 -2.72205 -2.99477 0
M  V30 862 H 81.4986 -4.36936 -1.82712 0
M  V30 863 H 81.9226 -6.73407 -0.696534 0
M  V30 864 H 86.5646 -3.94786 -1.5134 0
M  V30 865 H 84.2826 -8.0797 0.144903 0
M  V30 866 H 87.8686 -5.79545 -0.511716 0
M  V30 867 H 86.7486 -7.83606 0.30523 0
M  V30 868 N 84.2517 0.741722 -1.39055 0
M  V30 869 C 85.2017 1.84661 -1.33732 0
M  V30 870 C 86.1857 1.59397 -0.219401 0
M  V30 871 O 87.3777 1.71015 -0.456375 0
M  V30 872 C 84.5067 3.22512 -1.17647 0
M  V30 873 C 83.5927 3.53628 -2.34112 0
M  V30 874 N 83.9837 3.55723 -3.59576 0
M  V30 875 C 82.2817 3.83956 -2.26923 0
M  V30 876 C 82.9827 3.84443 -4.36553 0
M  V30 877 N 81.9587 4.01877 -3.66055 0
M  V30 878 H 85.7607 1.84576 -2.28711 0
M  V30 879 H 83.2747 0.939647 -1.32455 0
M  V30 880 H 85.2717 4.01597 -1.11917 0
M  V30 881 H 83.9317 3.2384 -0.236124 0
M  V30 882 H 84.9427 3.37196 -3.93089 0
M  V30 883 H 81.6197 3.92929 -1.41113 0
M  V30 884 H 83.0097 3.92588 -5.45274 0
M  V30 885 N 85.7298 1.2412 0.971189 0
M  V30 886 C 86.6598 1.05508 2.08304 0
M  V30 887 C 87.6408 -0.0308864 1.70072 0
M  V30 888 O 88.8258 0.135521 1.93727 0
M  V30 889 C 85.9558 0.655365 3.4106 0
M  V30 890 C 84.9098 1.68971 3.93234 0
M  V30 891 C 84.2358 1.14516 5.22293 0
M  V30 892 C 85.5358 3.08487 4.21465 0
M  V30 893 H 87.2298 1.98507 2.24132 0
M  V30 894 H 84.7758 0.955821 1.07704 0
M  V30 895 H 86.7288 0.51217 4.18276 0
M  V30 896 H 85.4528 -0.31032 3.25122 0
M  V30 897 H 84.1118 1.82106 3.18171 0
M  V30 898 H 83.7598 0.170189 5.02712 0
M  V30 899 H 83.4598 1.83635 5.58168 0
M  V30 900 H 84.9838 1.01401 6.02121 0
M  V30 901 H 86.3978 2.98601 4.89398 0
M  V30 902 H 84.7948 3.74926 4.68562 0
M  V30 903 H 85.8648 3.56787 3.28376 0
M  V30 904 N 87.2079 -1.17134 1.05439 0
M  V30 905 C 88.1709 -2.19439 0.661764 0
M  V30 906 C 89.1709 -1.58199 -0.288042 0
M  V30 907 O 90.3609 -1.74053 -0.0715803 0
M  V30 908 C 87.4929 -3.40889 -0.0276209 0
M  V30 909 H 88.6859 -2.55688 1.56728 0
M  V30 910 H 86.2389 -1.31259 0.848567 0
M  V30 911 H 86.9739 -3.10187 -0.94629 0
M  V30 912 H 86.7589 -3.86586 0.655238 0
M  V30 913 H 88.2489 -4.16603 -0.288342 0
M  V30 914 N 88.686 -0.835752 -1.33615 0
M  V30 915 C 89.963 -0.352017 -1.92406 0
M  V30 916 C 90.343 1.16225 -1.76224 0
M  V30 917 O 89.691 1.97526 -1.14873 0
M  V30 918 C 89.901 -0.795485 -3.39813 0
M  V30 919 C 91.249 -0.801703 -4.16963 0
M  V30 920 O 92.273 -0.738889 -3.48452 0
M  V30 921 O 91.132 -0.886607 -5.3926 0
M  V30 922 H 88.226 -0.0989641 -0.821057 0
M  V30 923 H 90.772 -0.921397 -1.42507 0
M  V30 924 H 89.544 -1.83795 -3.45449 0
M  V30 925 H 89.167 -0.202505 -3.97084 0
M  V30 926 N 90.1641 1.46063 -0.591896 0
M  V30 927 C 91.3891 2.07226 -0.0850314 0
M  V30 928 C 91.8141 1.43625 1.21463 0
M  V30 929 O 91.1721 0.523305 1.73583 0
M  V30 930 C 91.2201 3.60554 0.0576567 0
M  V30 931 O 90.3241 3.97128 1.11188 0
M  V30 932 H 89.6651 0.660615 -0.0669568 0
M  V30 933 H 92.1951 1.8756 -0.81745 0
M  V30 934 H 92.2051 4.07165 0.2609 0
M  V30 935 H 90.8801 4.06235 -0.891416 0
M  V30 936 H 89.4571 3.62213 0.886356 0
M  V30 937 N 91.6422 0.330177 1.54103 0
M  V30 938 C 93.0532 -0.15652 1.86043 0
M  V30 939 C 93.4042 -1.51086 1.2517 0
M  V30 940 O 92.5292 -2.09023 0.560217 0
M  V30 941 C 93.1242 -0.290784 3.3755 0
M  V30 942 C 91.6832 -0.721705 3.69416 0
M  V30 943 C 90.8302 0.152622 2.7688 0
M  V30 944 H 93.7812 0.550237 1.48856 0
M  V30 945 H 93.8022 -1.12058 3.63625 0
M  V30 946 H 93.3142 0.695068 3.81825 0
M  V30 947 H 91.4152 -1.71706 3.30678 0
M  V30 948 H 91.5282 -0.520869 4.7626 0
M  V30 949 H 89.8922 -0.372894 2.51956 0
M  V30 950 H 90.6752 1.13536 3.23982 0
M  V30 951 N 93.1203 -1.57491 0.0584922 0
M  V30 952 C 94.0833 -2.1085 -0.898617 0
M  V30 953 C 95.0833 -1.02964 -1.23511 0
M  V30 954 O 96.2733 -1.29007 -1.17059 0
M  V30 955 C 93.4053 -2.59881 -2.20623 0
M  V30 956 H 94.5983 -2.96715 -0.435936 0
M  V30 957 H 92.1513 -1.55141 -0.190023 0
M  V30 958 H 92.8863 -1.77431 -2.71457 0
M  V30 959 H 92.6713 -3.38727 -1.97501 0
M  V30 960 H 94.1613 -3.01285 -2.89166 0
M  V30 961 N 94.5984 0.214957 -1.56127 0
M  V30 962 C 95.8444 0.939762 -1.79712 0
M  V30 963 C 96.1774 1.83723 -0.629247 0
M  V30 964 O 95.4524 1.90925 0.371197 0
M  V30 965 C 95.7354 1.77306 -3.13424 0
M  V30 966 C 95.5884 0.90164 -4.40671 0
M  V30 967 C 96.9074 2.74956 -3.43638 0
M  V30 968 H 94.0264 0.340214 -0.653776 0
M  V30 969 H 96.6684 0.20824 -1.88855 0
M  V30 970 H 94.8184 2.39673 -3.0576 0
M  V30 971 H 96.4904 0.294206 -4.60361 0
M  V30 972 H 94.7334 0.207368 -4.33304 0
M  V30 973 H 95.4044 1.51923 -5.30682 0
M  V30 974 H 97.8804 2.22724 -3.51473 0
M  V30 975 H 96.7564 3.30358 -4.38355 0
M  V30 976 H 97.0174 3.53023 -2.66134 0
M  V30 977 N 96.0765 1.50051 0.48192 0
M  V30 978 C 97.0245 1.68635 1.60203 0
M  V30 979 C 98.0185 0.552184 1.60148 0
M  V30 980 O 99.2245 0.732377 1.64427 0
M  V30 981 H 95.5995 0.532081 0.531407 0
M  V30 982 H 97.5705 2.62616 1.41688 0
M  V30 983 C 96.3195 1.78775 2.9822 0
M  V30 984 H 95.6425 2.6543 2.98976 0
M  V30 985 H 97.0825 1.95806 3.7608 0
M  V30 986 C 95.5415 0.536849 3.32595 0
M  V30 987 O 96.0715 -0.328897 4.00351 0
M  V30 988 N 94.2775 0.394091 2.87915 0
M  V30 989 H 93.8245 1.09962 2.32951 0
M  V30 990 H 93.7825 -0.441737 3.11281 0
M  V30 991 N 97.5546 -0.734337 1.39446 0
M  V30 992 C 98.8026 -1.49096 1.36436 0
M  V30 993 C 99.1236 -1.94961 -0.0388255 0
M  V30 994 O 98.3936 -1.69033 -0.990191 0
M  V30 995 H 96.9736 -0.5531 0.502085 0
M  V30 996 H 99.6356 -0.871725 1.74319 0
M  V30 997 H 98.7316 -2.37276 2.02747 0
M  V30 998 N 99.0327 -1.24633 -0.964593 0
M  V30 999 C 99.9957 -1.0424 -2.04124 0
M  V30 1000 C 100.996 0.00137563 -1.608 0
M  V30 1001 O 102.186 -0.239883 -1.7254 0
M  V30 1002 C 99.3177 -0.580588 -3.3592 0
M  V30 1003 H 100.511 -1.99803 -2.23649 0
M  V30 1004 H 98.0637 -1.06899 -1.14027 0
M  V30 1005 H 98.7987 0.3781 -3.22088 0
M  V30 1006 H 98.5837 -1.33398 -3.6871 0
M  V30 1007 H 100.074 -0.459034 -4.15069 0
M  V30 1008 N 100.511 1.16574 -1.06058 0
M  V30 1009 C 101.739 1.90952 -0.796552 0
M  V30 1010 C 102.154 1.77302 0.648808 0
M  V30 1011 O 101.511 1.11605 1.44397 0
M  V30 1012 C 101.562 3.41736 -1.17894 0
M  V30 1013 O 101.283 3.54975 -2.56758 0
M  V30 1014 C 102.784 4.33169 -0.942308 0
M  V30 1015 H 100.004 0.605594 -0.288959 0
M  V30 1016 H 102.548 1.47777 -1.41358 0
M  V30 1017 H 100.703 3.82623 -0.606491 0
M  V30 1018 H 101.117 4.4846 -2.72 0
M  V30 1019 H 102.591 5.37439 -1.25952 0
M  V30 1020 H 103.068 4.3903 0.122078 0
M  V30 1021 H 103.674 3.98007 -1.49902 0
M  V30 1022 N 101.989 0.842826 1.3317 0
M  V30 1023 C 103.237 0.439577 1.97262 0
M  V30 1024 C 103.558 -1.00548 1.67078 0
M  V30 1025 O 102.828 -1.70098 0.971779 0
M  V30 1026 H 101.408 0.159558 0.72976 0
M  V30 1027 H 104.07 1.07665 1.62463 0
M  V30 1028 H 103.166 0.574886 3.0676 0
M  V30 1029 N 103.467 -1.45747 0.599634 0
M  V30 1030 C 104.417 -2.27538 -0.145107 0
M  V30 1031 C 105.401 -1.3686 -0.846055 0
M  V30 1032 O 106.593 -1.6091 -0.737357 0
M  V30 1033 C 103.722 -3.23569 -1.14708 0
M  V30 1034 C 102.808 -4.21734 -0.447383 0
M  V30 1035 N 103.199 -5.03257 0.506535 0
M  V30 1036 C 101.497 -4.40536 -0.695966 0
M  V30 1037 C 102.198 -5.74426 0.917068 0
M  V30 1038 N 101.174 -5.42966 0.26253 0
M  V30 1039 H 104.976 -2.87965 0.587672 0
M  V30 1040 H 102.49 -1.56803 0.422697 0
M  V30 1041 H 104.487 -3.8089 -1.69495 0
M  V30 1042 H 103.147 -2.64702 -1.8805 0
M  V30 1043 H 104.158 -5.10319 0.882899 0
M  V30 1044 H 100.835 -3.92802 -1.41467 0
M  V30 1045 H 102.225 -6.4995 1.70338 0
M  V30 1046 N 104.945 -0.338344 -1.53925 0
M  V30 1047 C 106.17 0.263987 -2.05713 0
M  V30 1048 C 106.595 1.43847 -1.21201 0
M  V30 1049 O 105.953 1.79904 -0.224535 0
M  V30 1050 C 106.001 0.662 -3.54471 0
M  V30 1051 O 105.105 1.76265 -3.72833 0
M  V30 1052 H 104.446 0.0448722 -0.662482 0
M  V30 1053 H 106.976 -0.491048 -1.9862 0
M  V30 1054 H 106.986 0.940594 -3.9701 0
M  V30 1055 H 105.661 -0.196937 -4.15433 0
M  V30 1056 H 104.238 1.48173 -3.42198 0
M  V30 1057 N 106.423 1.57458 -0.0668435 0
M  V30 1058 C 107.648 1.9804 0.616027 0
M  V30 1059 C 108.073 0.944771 1.62652 0
M  V30 1060 O 107.431 -0.0902094 1.81075 0
M  V30 1061 C 107.479 3.37665 1.26549 0
M  V30 1062 O 106.583 3.36701 2.38131 0
M  V30 1063 H 105.924 0.644719 0.158849 0
M  V30 1064 H 108.454 2.04121 -0.139891 0
M  V30 1065 H 108.464 3.7474 1.6135 0
M  V30 1066 H 107.139 4.12573 0.525016 0
M  V30 1067 H 105.716 3.1139 2.0516 0
M  V30 1068 N 107.901 -0.206675 1.56239 0
M  V30 1069 C 109.126 -0.949474 1.8439 0
M  V30 1070 C 109.551 -1.76549 0.649016 0
M  V30 1071 O 108.909 -1.76782 -0.402231 0
M  V30 1072 C 108.957 -1.83078 3.10668 0
M  V30 1073 O 108.061 -2.9281 2.90407 0
M  V30 1074 H 107.402 -0.268033 0.607499 0
M  V30 1075 H 109.932 -0.215488 2.03462 0
M  V30 1076 H 109.942 -2.2377 3.41161 0
M  V30 1077 H 108.617 -1.23112 3.97261 0
M  V30 1078 H 107.194 -2.55956 2.71184 0
M  V30 1079 N 109.379 -1.50304 -0.473955 0
M  V30 1080 C 110.309 -1.71886 -1.58042 0
M  V30 1081 C 111.29 -0.567799 -1.60344 0
M  V30 1082 O 112.475 -0.806623 -1.76656 0
M  V30 1083 C 109.605 -1.81036 -2.96384 0
M  V30 1084 C 108.559 -2.962 -3.08949 0
M  V30 1085 C 107.885 -2.9049 -4.48909 0
M  V30 1086 C 109.185 -4.36752 -2.86434 0
M  V30 1087 H 110.879 -2.64527 -1.40234 0
M  V30 1088 H 108.425 -1.27295 -0.673201 0
M  V30 1089 H 110.378 -1.94719 -3.73714 0
M  V30 1090 H 109.102 -0.850147 -3.15341 0
M  V30 1091 H 107.761 -2.82164 -2.3405 0
M  V30 1092 H 107.409 -1.92321 -4.64781 0
M  V30 1093 H 107.109 -3.67802 -4.58253 0
M  V30 1094 H 108.633 -3.06218 -5.28264 0
M  V30 1095 H 110.047 -4.5133 -3.53517 0
M  V30 1096 H 108.444 -5.15493 -3.07225 0
M  V30 1097 H 109.514 -4.49321 -1.82316 0
M  V30 1098 N 110.857 0.726932 -1.39834 0
M  V30 1099 C 112.134 1.47902 -1.28001 0
M  V30 1100 C 112.514 2.1083 0.106789 0
M  V30 1101 O 111.862 1.99242 1.11869 0
M  V30 1102 C 112.072 2.52392 -2.41038 0
M  V30 1103 C 113.42 3.18546 -2.80737 0
M  V30 1104 O 114.444 2.62708 -2.40547 0
M  V30 1105 O 113.303 4.19604 -3.50135 0
M  V30 1106 H 110.397 0.657163 -0.502062 0
M  V30 1107 H 112.943 0.760071 -1.51727 0
M  V30 1108 H 111.715 2.04329 -3.33715 0
M  V30 1109 H 111.338 3.31837 -2.19021 0
M  V30 1110 N 112.336 1.25143 0.95797 0
M  V30 1111 C 113.299 1.05321 2.03569 0
M  V30 1112 C 114.299 0.007152 1.60798 0
M  V30 1113 O 115.489 0.24903 1.72411 0
M  V30 1114 C 112.621 0.598394 3.35607 0
M  V30 1115 H 113.814 2.00986 2.22586 0
M  V30 1116 H 111.367 1.07502 1.13459 0
M  V30 1117 H 112.102 -0.361014 3.22284 0
M  V30 1118 H 111.887 1.35351 3.67998 0
M  V30 1119 H 113.377 0.48104 4.1482 0
M  V30 1120 N 113.814 -1.1601 1.06675 0
M  V30 1121 C 115.23 -1.38622 0.790948 0
M  V30 1122 C 115.43 -1.92109 -0.607965 0
M  V30 1123 O 114.486 -2.12239 -1.36787 0
M  V30 1124 C 115.799 -2.36347 1.85905 0
M  V30 1125 C 117.347 -2.50023 1.88301 0
M  V30 1126 C 117.822 -3.51033 2.94176 0
M  V30 1127 N 119.313 -3.58563 2.93235 0
M  V30 1128 C 120.048 -4.36521 3.71803 0
M  V30 1129 N 119.544 -5.17869 4.602 0
M  V30 1130 N 121.337 -4.31541 3.60178 0
M  V30 1131 H 113.488 -0.796294 1.96908 0
M  V30 1132 H 115.751 -0.412597 0.853503 0
M  V30 1133 H 115.457 -2.04147 2.86386 0
M  V30 1134 H 115.331 -3.36042 1.71334 0
M  V30 1135 H 117.718 -2.81524 0.884769 0
M  V30 1136 H 117.799 -1.5035 2.06951 0
M  V30 1137 H 117.443 -3.20268 3.94196 0
M  V30 1138 H 117.373 -4.50445 2.72776 0
M  V30 1139 H 119.864 -3.00496 2.29152 0
M  V30 1140 H 120.177 -5.74578 5.16797 0
M  V30 1141 H 118.522 -5.17199 4.64253 0
M  V30 1142 H 121.713 -3.67051 2.90502 0
M  V30 1143 H 121.886 -4.9205 4.21653 0
M  V30 1144 N 115.292 -0.849877 -1.32721 0
M  V30 1145 C 116.202 -0.293791 -2.32753 0
M  V30 1146 C 117.218 0.585906 -1.63839 0
M  V30 1147 O 118.394 0.487413 -1.95413 0
M  V30 1148 C 115.459 0.512752 -3.42887 0
M  V30 1149 C 114.52 -0.39252 -4.27502 0
M  V30 1150 C 113.753 0.375625 -5.32377 0
M  V30 1151 O 113.976 1.60613 -5.4732 0
M  V30 1152 O 112.91 -0.256094 -6.01355 0
M  V30 1153 H 116.736 -1.12242 -2.82197 0
M  V30 1154 H 114.321 -0.612685 -1.36259 0
M  V30 1155 H 116.203 0.970704 -4.10067 0
M  V30 1156 H 114.878 1.31826 -2.95641 0
M  V30 1157 H 113.785 -0.898547 -3.63149 0
M  V30 1158 H 115.118 -1.16309 -4.7826 0
M  V30 1159 N 116.77 1.45427 -0.607355 0
M  V30 1160 C 118.016 2.0254 -0.102607 0
M  V30 1161 C 118.349 1.47478 1.26348 0
M  V30 1162 O 117.624 0.64939 1.83339 0
M  V30 1163 C 117.907 3.60044 -0.0634347 0
M  V30 1164 C 117.76 4.2544 -1.46017 0
M  V30 1165 C 119.079 4.35646 0.624514 0
M  V30 1166 H 116.198 0.73598 -0.0387607 0
M  V30 1167 H 118.84 1.73284 -0.779282 0
M  V30 1168 H 116.99 3.85101 0.512808 0
M  V30 1169 H 118.662 4.11569 -2.08347 0
M  V30 1170 H 116.905 3.83849 -2.02094 0
M  V30 1171 H 117.576 5.34342 -1.385 0
M  V30 1172 H 120.052 4.15882 0.134723 0
M  V30 1173 H 118.928 5.45376 0.621028 0
M  V30 1174 H 119.189 4.08501 1.69055 0
M  V30 1175 N 118.248 0.346503 1.53744 0
M  V30 1176 C 119.497 -0.250122 2.00143 0
M  V30 1177 C 119.81 -1.51418 1.23822 0
M  V30 1178 O 121.016 -2.18823 1.60713 0
M  V30 1179 C 119.472 -0.496252 3.56462 0
M  V30 1180 C 119.08 0.752077 4.41642 0
M  V30 1181 C 120.824 -1.05157 4.11269 0
M  V30 1182 C 118.731 0.476583 5.89477 0
M  V30 1183 H 117.661 -0.0972409 0.747703 0
M  V30 1184 H 120.312 0.46229 1.77581 0
M  V30 1185 H 118.694 -1.26944 3.75102 0
M  V30 1186 H 119.868 1.5266 4.34778 0
M  V30 1187 H 118.183 1.22925 3.97842 0
M  V30 1188 H 120.78 -1.27269 5.19333 0
M  V30 1189 H 121.123 -2.00799 3.64672 0
M  V30 1190 H 121.656 -0.339019 3.96353 0
M  V30 1191 H 118.395 1.4028 6.40314 0
M  V30 1192 H 117.915 -0.259794 5.99237 0
M  V30 1193 H 119.594 0.0949315 6.4693 0
M  V30 1194 N 119.726 -1.57421 0.075193 0
M  V30 1195 C 121.137 -1.81021 -0.456964 0
M  V30 1196 C 121.488 -0.98936 -1.69429 0
M  V30 1197 O 120.613 -0.212865 -2.15351 0
M  V30 1198 C 121.208 -3.28329 -0.83581 0
M  V30 1199 C 119.767 -3.52764 -1.31281 0
M  V30 1200 C 118.914 -2.75676 -0.299648 0
M  V30 1201 H 121.865 -1.55822 0.300856 0
M  V30 1202 H 121.886 -3.40564 -1.69696 0
M  V30 1203 H 121.398 -3.88046 0.0649238 0
M  V30 1204 H 119.499 -2.98355 -2.23193 0
M  V30 1205 H 119.612 -4.61451 -1.28839 0
M  V30 1206 H 117.976 -2.42538 -0.777641 0
M  V30 1207 H 118.759 -3.38132 0.593417 0
M  V30 1208 N 121.204 0.198386 -1.56346 0
M  V30 1209 C 122.137 1.27381 -1.89339 0
M  V30 1210 C 123.115 1.44106 -0.753134 0
M  V30 1211 O 124.299 1.59549 -1.00381 0
M  V30 1212 C 121.426 2.6409 -2.12071 0
M  V30 1213 C 120.472 2.64253 -3.34772 0
M  V30 1214 S 121.305 2.16013 -4.89999 0
M  V30 1215 C 122.461 3.54553 -5.15794 0
M  V30 1216 H 122.694 0.992058 -2.8026 0
M  V30 1217 H 120.227 0.401726 -1.49082 0
M  V30 1218 H 122.185 3.42786 -2.2585 0
M  V30 1219 H 120.846 2.89478 -1.21906 0
M  V30 1220 H 120.039 3.64768 -3.47794 0
M  V30 1221 H 119.641 1.93637 -3.1997 0
M  V30 1222 H 121.933 4.50396 -5.06112 0
M  V30 1223 H 122.876 3.46428 -6.1757 0
M  V30 1224 H 123.284 3.49313 -4.43442 0
M  V30 1225 N 122.682 1.50554 0.465978 0
M  V30 1226 C 123.645 1.69233 1.54574 0
M  V30 1227 C 124.645 0.562901 1.50626 0
M  V30 1228 O 125.835 0.830016 1.53155 0
M  V30 1229 C 122.967 1.7223 2.94193 0
M  V30 1230 H 124.16 2.65571 1.39327 0
M  V30 1231 H 121.713 1.40111 0.692711 0
M  V30 1232 H 122.448 0.77603 3.14878 0
M  V30 1233 H 122.233 2.54285 2.98466 0
M  V30 1234 H 123.723 1.88618 3.72576 0
M  V30 1235 N 124.16 -0.719506 1.40217 0
M  V30 1236 C 125.123 -1.8153 1.39927 0
M  V30 1237 C 126.123 -1.58095 0.293723 0
M  V30 1238 O 127.313 -1.65209 0.552429 0
M  V30 1239 C 124.445 -3.19561 1.18716 0
M  V30 1240 H 125.638 -1.83186 2.37451 0
M  V30 1241 H 123.191 -0.924746 1.26008 0
M  V30 1242 H 123.926 -3.23557 0.219366 0
M  V30 1243 H 123.711 -3.3797 1.98793 0
M  V30 1244 H 125.201 -3.99598 1.21291 0
M  V30 1245 N 125.638 -1.25649 -0.95132 0
M  V30 1246 C 126.884 -1.10757 -1.69884 0
M  V30 1247 C 127.217 0.350061 -1.91019 0
M  V30 1248 O 126.492 1.25783 -1.48354 0
M  V30 1249 C 126.775 -1.86606 -3.07978 0
M  V30 1250 C 126.628 -3.40217 -2.94232 0
M  V30 1251 C 127.947 -1.65182 -4.07925 0
M  V30 1252 H 125.066 -0.40374 -0.616574 0
M  V30 1253 H 127.708 -1.54521 -1.10558 0
M  V30 1254 H 125.858 -1.49409 -3.58621 0
M  V30 1255 H 127.53 -3.87108 -2.50889 0
M  V30 1256 H 125.773 -3.67759 -2.30078 0
M  V30 1257 H 126.444 -3.88505 -3.92133 0
M  V30 1258 H 128.92 -1.9757 -3.66204 0
M  V30 1259 H 127.796 -2.20683 -5.02583 0
M  V30 1260 H 128.057 -0.593933 -4.38092 0
M  V30 1261 N 127.117 1.15442 -1.07289 0
M  V30 1262 C 128.064 2.20161 -0.692653 0
M  V30 1263 C 129.034 1.63073 0.31564 0
M  V30 1264 O 130.219 1.89725 0.202235 0
M  V30 1265 C 127.359 3.44967 -0.0959509 0
M  V30 1266 C 126.472 4.16256 -1.15564 0
M  V30 1267 C 125.607 5.28609 -0.524011 0
M  V30 1268 C 124.646 5.91715 -1.56653 0
M  V30 1269 N 123.783 6.9554 -0.957531 0
M  V30 1270 H 128.623 2.52037 -1.59002 0
M  V30 1271 H 126.16 1.2378 -0.794798 0
M  V30 1272 H 128.118 4.16341 0.267628 0
M  V30 1273 H 126.748 3.1361 0.764772 0
M  V30 1274 H 125.8 3.43385 -1.6368 0
M  V30 1275 H 127.112 4.59268 -1.94613 0
M  V30 1276 H 126.266 6.06604 -0.108032 0
M  V30 1277 H 125.005 4.86787 0.29825 0
M  V30 1278 H 124.01 5.12433 -1.9923 0
M  V30 1279 H 125.235 6.35614 -2.39107 0
M  V30 1280 H 123.181 6.55814 -0.156162 0
M  V30 1281 H 123.098 7.36977 -1.68526 0
M  V30 1282 H 124.366 7.77435 -0.567032 0
M  V30 1283 N 128.595 0.856903 1.32268 0
M  V30 1284 C 129.527 0.260412 2.27716 0
M  V30 1285 C 130.54 -0.569137 1.52528 0
M  V30 1286 O 131.729 -0.39326 1.74114 0
M  V30 1287 C 128.829 -0.650477 3.32599 0
M  V30 1288 C 128.002 0.14372 4.37164 0
M  V30 1289 C 127.061 -0.69328 5.21613 0
M  V30 1290 O 126.087 -0.12599 5.69061 0
M  V30 1291 N 127.289 -2.00761 5.44679 0
M  V30 1292 H 130.054 1.08059 2.79541 0
M  V30 1293 H 127.615 0.717103 1.45152 0
M  V30 1294 H 129.607 -1.21581 3.86005 0
M  V30 1295 H 128.177 -1.37133 2.80915 0
M  V30 1296 H 127.397 0.890486 3.8401 0
M  V30 1297 H 128.685 0.68915 5.04111 0
M  V30 1298 H 128.083 -2.49181 5.07863 0
M  V30 1299 H 126.64 -2.52103 6.01072 0
M  V30 1300 N 130.073 -1.45103 0.615059 0
M  V30 1301 C 131.036 -2.29025 -0.0895485 0
M  V30 1302 C 132.036 -1.40174 -0.787906 0
M  V30 1303 O 133.226 -1.62217 -0.634933 0
M  V30 1304 C 130.358 -3.21376 -1.13711 0
M  V30 1305 H 131.551 -2.92807 0.648382 0
M  V30 1306 H 129.104 -1.51749 0.374444 0
M  V30 1307 H 129.839 -2.6241 -1.90556 0
M  V30 1308 H 129.624 -3.86834 -0.640475 0
M  V30 1309 H 131.114 -3.84459 -1.63036 0
M  V30 1310 N 131.551 -0.354651 -1.53558 0
M  V30 1311 C 132.481 0.489091 -2.2832 0
M  V30 1312 C 133.462 1.09324 -1.30316 0
M  V30 1313 O 134.647 1.11255 -1.59173 0
M  V30 1314 C 131.777 1.63456 -3.0643 0
M  V30 1315 C 130.731 1.1582 -4.12031 0
M  V30 1316 C 130.057 2.39305 -4.7816 0
M  V30 1317 C 131.357 0.250731 -5.21698 0
M  V30 1318 H 133.051 -0.134614 -2.99097 0
M  V30 1319 H 130.597 -0.0661826 -1.43848 0
M  V30 1320 H 132.55 2.23136 -3.57475 0
M  V30 1321 H 131.274 2.28533 -2.33325 0
M  V30 1322 H 129.933 0.584146 -3.61916 0
M  V30 1323 H 129.581 3.02814 -4.01637 0
M  V30 1324 H 129.281 2.08109 -5.49513 0
M  V30 1325 H 130.805 2.99691 -5.31994 0
M  V30 1326 H 132.219 0.754695 -5.68311 0
M  V30 1327 H 130.616 0.0301468 -6.00092 0
M  V30 1328 H 131.686 -0.710125 -4.79672 0
M  V30 1329 N 133.029 1.57378 -0.0835403 0
M  V30 1330 C 134.445 1.57246 0.273109 0
M  V30 1331 C 134.645 1.09385 1.69225 0
M  V30 1332 O 133.701 0.765051 2.40631 0
M  V30 1333 C 135.014 3.00614 0.0720628 0
M  V30 1334 C 136.562 3.12684 0.1407 0
M  V30 1335 C 137.037 4.57989 -0.0322094 0
M  V30 1336 N 138.528 4.63194 0.0230085 0
M  V30 1337 C 139.263 5.73335 -0.0861941 0
M  V30 1338 N 138.759 6.9235 -0.24958 0
M  V30 1339 N 140.552 5.62093 -0.0282886 0
M  V30 1340 H 132.703 1.86801 -1.0109 0
M  V30 1341 H 134.966 0.861687 -0.395222 0
M  V30 1342 H 134.672 3.39786 -0.907662 0
M  V30 1343 H 134.546 3.68193 0.81936 0
M  V30 1344 H 136.933 2.73391 1.11092 0
M  V30 1345 H 137.014 2.47719 -0.637896 0
M  V30 1346 H 136.658 4.97973 -0.999247 0
M  V30 1347 H 136.588 5.21 0.765937 0
M  V30 1348 H 139.079 3.77613 0.14722 0
M  V30 1349 H 139.392 7.72117 -0.324733 0
M  V30 1350 H 137.737 6.94415 -0.285097 0
M  V30 1351 H 140.928 4.67997 0.0981408 0
M  V30 1352 H 141.101 6.47895 -0.116845 0
M  V30 1353 N 134.507 -0.190092 1.56449 0
M  V30 1354 C 135.417 -1.25591 1.98152 0
M  V30 1355 C 136.433 -1.49519 0.889944 0
M  V30 1356 O 137.609 -1.62036 1.19609 0
M  V30 1357 C 134.674 -2.57916 2.3169 0
M  V30 1358 C 133.735 -2.42015 3.5458 0
M  V30 1359 C 132.968 -3.6803 3.8651 0
M  V30 1360 O 133.191 -4.72413 3.1966 0
M  V30 1361 O 132.125 -3.6326 4.79923 0
M  V30 1362 H 135.951 -0.931988 2.89046 0
M  V30 1363 H 133.536 -0.395488 1.4407 0
M  V30 1364 H 135.418 -3.36008 2.54316 0
M  V30 1365 H 134.093 -2.89925 1.43963 0
M  V30 1366 H 133 -1.62017 3.37196 0
M  V30 1367 H 134.333 -2.14937 4.4279 0
M  V30 1368 N 135.985 -1.50799 -0.457987 0
M  V30 1369 C 136.948 -1.7005 -1.53674 0
M  V30 1370 C 137.948 -0.570881 -1.50325 0
M  V30 1371 O 139.138 -0.838126 -1.52712 0
M  V30 1372 C 136.27 -1.73788 -2.93276 0
M  V30 1373 H 137.463 -2.66306 -1.37917 0
M  V30 1374 H 135.016 -1.40477 -0.685271 0
M  V30 1375 H 135.751 -0.792717 -3.14462 0
M  V30 1376 H 135.536 -2.55864 -2.97113 0
M  V30 1377 H 137.026 -1.90591 -3.71571 0
M  V30 1378 N 137.463 0.71206 -1.40597 0
M  V30 1379 C 138.711 1.46907 -1.38791 0
M  V30 1380 C 139.032 1.94998 0.00780391 0
M  V30 1381 O 138.302 1.70587 0.963174 0
M  V30 1382 H 136.882 0.545043 -0.51082 0
M  V30 1383 H 139.544 0.843882 -1.75683 0
M  V30 1384 H 138.64 2.34021 -2.06496 0
M  V30 1385 N 138.941 1.26152 0.944643 0
M  V30 1386 C 140.218 1.02247 1.66748 0
M  V30 1387 C 140.598 -0.448202 2.06287 0
M  V30 1388 O 139.946 -1.42779 1.78399 0
M  V30 1389 C 140.156 1.96788 2.88228 0
M  V30 1390 C 141.504 2.25201 3.59958 0
M  V30 1391 O 142.528 1.94626 2.98327 0
M  V30 1392 O 141.387 2.77242 4.70956 0
M  V30 1393 H 138.481 0.388517 0.730057 0
M  V30 1394 H 141.027 1.37348 0.99668 0
M  V30 1395 H 139.799 2.96047 2.55875 0
M  V30 1396 H 139.422 1.62145 3.63035 0
M  V30 1397 N 140.419 -1.14872 1.07899 0
M  V30 1398 C 141.329 -2.2341 0.715915 0
M  V30 1399 C 142.345 -1.71808 -0.275306 0
M  V30 1400 O 143.521 -2.01039 -0.120545 0
M  V30 1401 C 140.586 -3.46474 0.125168 0
M  V30 1402 C 139.647 -4.13039 1.17034 0
M  V30 1403 C 138.88 -5.30229 0.607688 0
M  V30 1404 O 139.103 -5.675 -0.574497 0
M  V30 1405 O 138.037 -5.86444 1.35526 0
M  V30 1406 H 141.863 -2.56808 1.62121 0
M  V30 1407 H 139.448 -1.22702 0.852322 0
M  V30 1408 H 141.33 -4.20917 -0.201729 0
M  V30 1409 H 140.005 -3.14811 -0.753364 0
M  V30 1410 H 138.912 -3.40493 1.54968 0
M  V30 1411 H 140.245 -4.48796 2.02097 0
M  V30 1412 N 141.898 -0.863906 -1.31812 0
M  V30 1413 C 143.145 -0.471836 -1.96926 0
M  V30 1414 C 143.473 0.974578 -1.68322 0
M  V30 1415 O 142.728 1.7003 -0.968933 0
M  V30 1416 C 143.027 -0.668547 -3.51091 0
M  V30 1417 C 142.693 -2.08683 -3.99703 0
M  V30 1418 C 141.355 -2.47471 -4.12688 0
M  V30 1419 C 143.707 -3.01207 -4.25351 0
M  V30 1420 C 141.035 -3.78037 -4.4867 0
M  V30 1421 C 143.387 -4.31282 -4.62794 0
M  V30 1422 C 142.051 -4.69992 -4.73987 0
M  V30 1423 H 141.321 -0.172657 -0.720604 0
M  V30 1424 H 143.968 -1.09573 -1.57054 0
M  V30 1425 H 142.273 0.0385252 -3.91781 0
M  V30 1426 H 143.97 -0.345102 -3.99512 0
M  V30 1427 H 140.56 -1.77566 -3.90087 0
M  V30 1428 H 144.744 -2.72469 -4.14819 0
M  V30 1429 H 140 -4.078 -4.55532 0
M  V30 1430 H 144.174 -5.03031 -4.81594 0
M  V30 1431 H 141.801 -5.71207 -5.01624 0
M  V30 1432 N 143.376 1.44774 -0.622745 0
M  V30 1433 C 144.286 2.34433 0.0886031 0
M  V30 1434 C 145.302 1.52131 0.844529 0
M  V30 1435 O 146.478 1.84886 0.798691 0
M  V30 1436 C 143.543 3.29986 1.0635 0
M  V30 1437 C 142.604 4.28195 0.307873 0
M  V30 1438 C 141.837 5.19183 1.23633 0
M  V30 1439 O 142.06 5.13918 2.47476 0
M  V30 1440 O 140.994 5.97515 0.725189 0
M  V30 1441 H 144.82 2.96693 -0.648599 0
M  V30 1442 H 142.405 1.44408 -0.382957 0
M  V30 1443 H 144.287 3.88825 1.6246 0
M  V30 1444 H 142.962 2.70269 1.78146 0
M  V30 1445 H 141.869 3.72927 -0.296064 0
M  V30 1446 H 143.202 4.90808 -0.3699 0
M  V30 1447 N 144.854 0.36279 1.53368 0
M  V30 1448 C 145.784 -0.476976 2.28576 0
M  V30 1449 C 146.765 -1.08631 1.30894 0
M  V30 1450 O 147.95 -1.10409 1.59761 0
M  V30 1451 C 145.08 -1.61828 3.07293 0
M  V30 1452 C 144.034 -1.13633 4.1264 0
M  V30 1453 C 143.36 -2.36766 4.79423 0
M  V30 1454 C 144.66 -0.223061 5.21823 0
M  V30 1455 H 146.354 0.150474 2.99022 0
M  V30 1456 H 143.9 0.0738103 1.43811 0
M  V30 1457 H 145.853 -2.21237 3.58653 0
M  V30 1458 H 144.577 -2.27292 2.34533 0
M  V30 1459 H 143.236 -0.564945 3.62221 0
M  V30 1460 H 142.884 -3.0068 4.03238 0
M  V30 1461 H 142.584 -2.05192 5.50609 0
M  V30 1462 H 144.108 -2.96865 5.33576 0
M  V30 1463 H 145.522 -0.724545 5.68703 0
M  V30 1464 H 143.919 0.001678 6.001 0
M  V30 1465 H 144.989 0.735553 4.79289 0
M  V30 1466 N 146.332 -1.57332 0.0918853 0
M  V30 1467 C 147.748 -1.57389 -0.264766 0
M  V30 1468 C 147.948 -1.10281 -1.68643 0
M  V30 1469 O 147.004 -0.777801 -2.40222 0
M  V30 1470 C 148.317 -3.00648 -0.0561195 0
M  V30 1471 C 149.865 -3.12754 -0.124116 0
M  V30 1472 C 150.34 -4.57965 0.0564972 0
M  V30 1473 N 151.831 -4.632 0.00155611 0
M  V30 1474 C 152.566 -5.73281 0.116598 0
M  V30 1475 N 152.062 -6.92208 0.286294 0
M  V30 1476 N 153.855 -5.6207 0.0580973 0
M  V30 1477 H 146.006 -1.86262 1.02079 0
M  V30 1478 H 148.269 -0.859579 0.399786 0
M  V30 1479 H 147.975 -3.393 0.925669 0
M  V30 1480 H 147.849 -3.68623 -0.799823 0
M  V30 1481 H 150.236 -2.73976 -1.09641 0
M  V30 1482 H 150.317 -2.47377 0.651024 0
M  V30 1483 H 149.961 -4.97436 1.02564 0
M  V30 1484 H 149.891 -5.21399 -0.738297 0
M  V30 1485 H 152.382 -3.77686 -0.127192 0
M  V30 1486 H 152.695 -7.71934 0.365676 0
M  V30 1487 H 151.04 -6.94254 0.32192 0
M  V30 1488 H 154.231 -4.68043 -0.0733204 0
M  V30 1489 H 154.404 -6.47824 0.151203 0
M  V30 1490 N 147.81 0.181792 -1.56548 0
M  V30 1491 C 149.04 0.914618 -1.85252 0
M  V30 1492 C 149.448 1.76791 -0.673914 0
M  V30 1493 O 148.791 1.80009 0.366416 0
M  V30 1494 C 148.853 1.85019 -3.08234 0
M  V30 1495 C 148.517 1.17754 -4.41569 0
M  V30 1496 C 149.514 0.548035 -5.17003 0
M  V30 1497 C 147.199 1.17742 -4.88305 0
M  V30 1498 C 149.193 -0.0726128 -6.37359 0
M  V30 1499 C 146.88 0.552946 -6.08593 0
M  V30 1500 C 147.878 -0.070978 -6.82963 0
M  V30 1501 O 147.566 -0.685635 -8.00971 0
M  V30 1502 H 147.298 0.271695 -0.618998 0
M  V30 1503 H 149.852 0.189944 -2.0452 0
M  V30 1504 H 148.082 2.61491 -2.84885 0
M  V30 1505 H 149.771 2.45195 -3.23472 0
M  V30 1506 H 150.537 0.540174 -4.81982 0
M  V30 1507 H 146.416 1.65246 -4.30366 0
M  V30 1508 H 149.96 -0.560213 -6.95347 0
M  V30 1509 H 145.857 0.558354 -6.43081 0
M  V30 1510 H 146.625 -0.58385 -8.16415 0
M  V30 1511 N 149.288 1.51039 0.449983 0
M  V30 1512 C 150.704 1.38934 0.785462 0
M  V30 1513 C 150.904 0.461817 1.96136 0
M  V30 1514 O 149.96 -0.0877389 2.52348 0
M  V30 1515 C 151.273 2.80724 1.0777 0
M  V30 1516 C 152.821 2.89787 1.1829 0
M  V30 1517 C 153.296 4.32457 1.50815 0
M  V30 1518 N 154.787 4.35505 1.57764 0
M  V30 1519 C 155.522 5.42914 1.84477 0
M  V30 1520 N 155.018 6.60502 2.09068 0
M  V30 1521 N 156.811 5.3038 1.86155 0
M  V30 1522 H 148.962 2.09904 -0.324647 0
M  V30 1523 H 151.225 0.944378 -0.0827957 0
M  V30 1524 H 150.931 3.50531 0.286498 0
M  V30 1525 H 150.805 3.19273 2.00859 0
M  V30 1526 H 153.192 2.20186 1.96474 0
M  V30 1527 H 153.273 2.54752 0.231314 0
M  V30 1528 H 152.917 5.02603 0.731622 0
M  V30 1529 H 152.847 4.64995 2.47158 0
M  V30 1530 H 155.338 3.50724 1.40715 0
M  V30 1531 H 155.651 7.38158 2.28785 0
M  V30 1532 H 153.996 6.63639 2.06416 0
M  V30 1533 H 157.187 4.37505 1.66454 0
M  V30 1534 H 157.36 6.1417 2.06637 0
M  V30 1535 N 150.766 -0.704594 1.40972 0
M  V30 1536 C 152.182 -1.01406 1.23244 0
M  V30 1537 C 152.382 -2.01169 0.115399 0
M  V30 1538 O 151.438 -2.47021 -0.523147 0
M  V30 1539 C 152.751 -1.54728 2.57836 0
M  V30 1540 C 154.299 -1.66658 2.64942 0
M  V30 1541 C 154.774 -2.23383 3.9983 0
M  V30 1542 N 156.265 -2.30756 4.01629 0
M  V30 1543 C 157 -2.75655 5.02794 0
M  V30 1544 N 156.496 -3.20225 6.14352 0
M  V30 1545 N 158.289 -2.75138 4.90159 0
M  V30 1546 H 150.44 -0.0435285 2.12355 0
M  V30 1547 H 152.703 -0.0818951 0.944456 0
M  V30 1548 H 152.409 -0.888832 3.40283 0
M  V30 1549 H 152.283 -2.53084 2.79693 0
M  V30 1550 H 154.67 -2.31617 1.8286 0
M  V30 1551 H 154.751 -0.668717 2.46904 0
M  V30 1552 H 154.395 -1.59043 4.82357 0
M  V30 1553 H 154.325 -3.23904 4.15203 0
M  V30 1554 H 156.816 -1.99291 3.21079 0
M  V30 1555 H 157.129 -3.53084 6.87424 0
M  V30 1556 H 155.474 -3.18156 6.17901 0
M  V30 1557 H 158.665 -2.39661 4.02095 0
M  V30 1558 H 158.838 -3.09812 5.6914 0
M  V30 1559 N 152.244 -1.26651 -0.937939 0
M  V30 1560 C 153.207 -1.08546 -2.01867 0
M  V30 1561 C 154.207 -0.0327327 -1.60767 0
M  V30 1562 O 155.397 -0.276427 -1.71993 0
M  V30 1563 C 152.529 -0.651711 -3.34613 0
M  V30 1564 H 153.722 -2.04502 -2.1936 0
M  V30 1565 H 151.275 -1.09294 -1.11734 0
M  V30 1566 H 152.01 0.309696 -3.22818 0
M  V30 1567 H 151.795 -1.41189 -3.65798 0
M  V30 1568 H 153.285 -0.546973 -4.14002 0
M  V30 1569 N 153.722 1.14298 -1.08507 0
M  V30 1570 C 154.969 1.85359 -0.815373 0
M  V30 1571 C 155.297 1.83001 0.658865 0
M  V30 1572 O 154.552 1.25655 1.50031 0
M  V30 1573 C 154.851 3.33547 -1.28379 0
M  V30 1574 C 154.517 3.56093 -2.76602 0
M  V30 1575 C 153.179 3.61955 -3.17084 0
M  V30 1576 C 155.531 3.64834 -3.72217 0
M  V30 1577 C 152.859 3.74082 -4.51973 0
M  V30 1578 C 155.211 3.78487 -5.06883 0
M  V30 1579 C 153.875 3.82598 -5.46969 0
M  V30 1580 H 153.145 0.678276 -0.298366 0
M  V30 1581 H 155.792 1.35002 -1.35819 0
M  V30 1582 H 154.097 3.86191 -0.660593 0
M  V30 1583 H 155.794 3.86959 -1.05186 0
M  V30 1584 H 152.384 3.52179 -2.4427 0
M  V30 1585 H 156.568 3.59595 -3.42061 0
M  V30 1586 H 151.824 3.75527 -4.82483 0
M  V30 1587 H 155.998 3.84193 -5.80834 0
M  V30 1588 H 153.625 3.91747 -6.51489 0
M  V30 1589 N 155.201 0.870884 1.31352 0
M  V30 1590 C 156.426 0.495957 2.01383 0
M  V30 1591 C 156.851 -0.904324 1.64935 0
M  V30 1592 O 156.209 -1.59687 0.858466 0
M  V30 1593 C 156.257 0.661433 3.54482 0
M  V30 1594 O 155.361 -0.298851 4.11316 0
M  V30 1595 H 154.702 0.197158 0.634054 0
M  V30 1596 H 157.232 1.17455 1.67527 0
M  V30 1597 H 157.242 0.555072 4.04207 0
M  V30 1598 H 155.917 1.68246 3.8035 0
M  V30 1599 H 154.494 -0.147368 3.72609 0
M  V30 1600 N 156.679 -1.44442 0.630414 0
M  V30 1601 C 157.956 -1.9549 0.0655657 0
M  V30 1602 C 158.336 -1.5724 -1.40851 0
M  V30 1603 O 157.684 -0.846116 -2.12257 0
M  V30 1604 C 157.894 -3.47812 0.287691 0
M  V30 1605 C 159.242 -4.24216 0.180513 0
M  V30 1606 O 160.266 -3.55526 0.219019 0
M  V30 1607 O 159.125 -5.46434 0.0848493 0
M  V30 1608 H 156.219 -0.826688 -0.0227177 0
M  V30 1609 H 158.765 -1.54496 0.702068 0
M  V30 1610 H 157.537 -3.687 1.31056 0
M  V30 1611 H 157.16 -3.95751 -0.382984 0
M  V30 1612 N 158.157 -0.370918 -1.53173 0
M  V30 1613 C 159.087 0.464847 -2.28826 0
M  V30 1614 C 160.068 1.07936 -1.31468 0
M  V30 1615 O 161.253 1.0956 -1.60344 0
M  V30 1616 C 158.383 1.60196 -3.08147 0
M  V30 1617 C 157.337 1.11443 -4.13237 0
M  V30 1618 C 156.663 2.3422 -4.80672 0
M  V30 1619 C 157.963 0.195384 -5.21934 0
M  V30 1620 H 159.657 -0.166329 -2.98938 0
M  V30 1621 H 157.203 -0.0814359 -1.4377 0
M  V30 1622 H 159.156 2.19332 -3.59822 0
M  V30 1623 H 157.88 2.26045 -2.35735 0
M  V30 1624 H 156.539 0.545727 -3.62515 0
M  V30 1625 H 156.187 2.98537 -4.04827 0
M  V30 1626 H 155.887 2.02269 -5.51689 0
M  V30 1627 H 157.411 2.94032 -5.35143 0
M  V30 1628 H 158.825 0.694375 -5.69079 0
M  V30 1629 H 157.222 -0.0335027 -6.00091 0
M  V30 1630 H 158.292 -0.760961 -4.78892 0
M  V30 1631 N 159.635 1.57281 -0.100228 0
M  V30 1632 C 160.863 1.98879 0.570509 0
M  V30 1633 C 161.278 0.979476 1.61405 0
M  V30 1634 O 160.635 -0.0302288 1.82475 0
M  V30 1635 C 160.686 3.4052 1.2136 0
M  V30 1636 O 160.407 4.37588 0.211786 0
M  V30 1637 C 161.908 3.97149 1.96945 0
M  V30 1638 H 159.128 0.653428 0.152555 0
M  V30 1639 H 161.672 2.03697 -0.18103 0
M  V30 1640 H 159.827 3.367 1.91603 0
M  V30 1641 H 160.241 5.20118 0.676607 0
M  V30 1642 H 161.715 4.98393 2.37294 0
M  V30 1643 H 162.192 3.3525 2.83733 0
M  V30 1644 H 162.798 4.04458 1.31506 0
M  V30 1645 N 161.113 -0.173488 1.56642 0
M  V30 1646 C 162.338 -0.910149 1.86363 0
M  V30 1647 C 162.763 -1.75132 0.686318 0
M  V30 1648 O 162.121 -1.77595 -0.364643 0
M  V30 1649 C 162.169 -1.76447 3.14482 0
M  V30 1650 O 161.273 -2.86584 2.96553 0
M  V30 1651 H 160.614 -0.255086 0.613047 0
M  V30 1652 H 163.144 -0.172283 2.03873 0
M  V30 1653 H 163.154 -2.16483 3.45831 0
M  V30 1654 H 161.829 -1.14658 3.99783 0
M  V30 1655 H 160.406 -2.50146 2.76553 0
M  V30 1656 N 162.591 -1.51276 -0.441967 0
M  V30 1657 C 163.523 -1.68444 -1.55433 0
M  V30 1658 C 164.536 -0.565187 -1.52674 0
M  V30 1659 O 165.725 -0.839356 -1.57534 0
M  V30 1660 C 162.825 -1.67966 -2.94348 0
M  V30 1661 C 161.998 -2.964 -3.21661 0
M  V30 1662 C 161.057 -2.88171 -4.40277 0
M  V30 1663 O 160.083 -3.62119 -4.39157 0
M  V30 1664 N 161.285 -2.03706 -5.43584 0
M  V30 1665 H 164.05 -2.644 -1.41112 0
M  V30 1666 H 161.611 -1.49104 -0.630838 0
M  V30 1667 H 163.603 -1.60035 -3.71713 0
M  V30 1668 H 162.173 -0.796225 -3.0229 0
M  V30 1669 H 161.393 -3.18234 -2.32638 0
M  V30 1670 H 162.681 -3.81427 -3.36736 0
M  V30 1671 H 162.079 -1.42995 -5.47329 0
M  V30 1672 H 160.636 -2.01658 -6.1982 0
M  V30 1673 N 164.069 0.697108 -1.41344 0
M  V30 1674 C 164.999 1.82353 -1.45841 0
M  V30 1675 C 165.98 1.67115 -0.317247 0
M  V30 1676 O 167.165 1.86871 -0.528474 0
M  V30 1677 C 164.295 3.20476 -1.33838 0
M  V30 1678 C 163.249 3.50415 -2.4575 0
M  V30 1679 C 162.575 4.87878 -2.18813 0
M  V30 1680 C 163.875 3.49546 -3.88091 0
M  V30 1681 H 165.569 1.78846 -2.40113 0
M  V30 1682 H 163.115 0.859028 -1.15571 0
M  V30 1683 H 165.068 3.98988 -1.35596 0
M  V30 1684 H 163.792 3.24604 -0.360498 0
M  V30 1685 H 162.451 2.74253 -2.43271 0
M  V30 1686 H 162.099 4.8863 -1.19371 0
M  V30 1687 H 161.799 5.08875 -2.93803 0
M  V30 1688 H 163.323 5.68702 -2.22284 0
M  V30 1689 H 164.737 4.18066 -3.92293 0
M  V30 1690 H 163.134 3.82075 -4.62751 0
M  V30 1691 H 164.204 2.48552 -4.16353 0
M  V30 1692 N 165.547 1.27147 0.931209 0
M  V30 1693 C 166.497 1.06227 2.01742 0
M  V30 1694 C 167.481 -0.00859065 1.60898 0
M  V30 1695 O 168.673 0.209537 1.75755 0
M  V30 1696 C 165.802 0.707787 3.35924 0
M  V30 1697 C 164.888 1.81661 3.83223 0
M  V30 1698 N 165.279 3.05564 4.03069 0
M  V30 1699 C 163.577 1.70249 4.12227 0
M  V30 1700 C 164.278 3.77697 4.42403 0
M  V30 1701 N 163.254 3.0544 4.49675 0
M  V30 1702 H 167.056 2.00261 2.15111 0
M  V30 1703 H 164.57 1.1781 1.11779 0
M  V30 1704 H 166.567 0.539043 4.134 0
M  V30 1705 H 165.227 -0.224964 3.2392 0
M  V30 1706 H 166.238 3.41363 3.89476 0
M  V30 1707 H 162.915 0.840329 4.08956 0
M  V30 1708 H 164.305 4.84168 4.65866 0
M  V30 1709 N 167.025 -1.13721 1.09112 0
M  V30 1710 C 168.274 -1.84275 0.82009 0
M  V30 1711 C 168.587 -1.84253 -0.656509 0
M  V30 1712 O 169.793 -2.50668 -1.04296 0
M  V30 1713 C 168.249 -3.30825 1.41714 0
M  V30 1714 C 167.857 -3.39244 2.92605 0
M  V30 1715 C 169.601 -4.06443 1.22492 0
M  V30 1716 C 167.508 -4.80047 3.45411 0
M  V30 1717 H 166.438 -0.690387 0.30312 0
M  V30 1718 H 169.089 -1.28146 1.31343 0
M  V30 1719 H 167.471 -3.86737 0.851498 0
M  V30 1720 H 168.645 -2.93344 3.55367 0
M  V30 1721 H 166.96 -2.77088 3.10823 0
M  V30 1722 H 169.557 -5.10387 1.59402 0
M  V30 1723 H 169.9 -4.15972 0.165299 0
M  V30 1724 H 170.433 -3.56852 1.75788 0
M  V30 1725 H 167.172 -4.75709 4.50978 0
M  V30 1726 H 166.692 -5.26455 2.87411 0
M  V30 1727 H 168.371 -5.48957 3.42425 0
M  V30 1728 N 168.503 -0.877838 -1.30888 0
M  V30 1729 C 169.731 -0.507414 -2.00581 0
M  V30 1730 C 170.146 0.902216 -1.65848 0
M  V30 1731 O 169.503 1.59225 -0.891831 0
M  V30 1732 C 169.554 -0.664162 -3.55347 0
M  V30 1733 O 169.275 -2.01829 -3.8884 0
M  V30 1734 C 170.776 -0.295787 -4.42312 0
M  V30 1735 H 167.996 -0.196866 -0.641471 0
M  V30 1736 H 170.54 -1.18117 -1.66939 0
M  V30 1737 H 168.695 -0.0378619 -3.87381 0
M  V30 1738 H 169.109 -2.03174 -4.8355 0
M  V30 1739 H 170.583 -0.456388 -5.5011 0
M  V30 1740 H 171.06 0.765663 -4.32475 0
M  V30 1741 H 171.666 -0.898113 -4.15709 0
M  V30 1742 N 169.982 1.44106 -0.638065 0
M  V30 1743 C 171.393 1.85316 -0.226894 0
M  V30 1744 C 171.744 1.53399 1.22324 0
M  V30 1745 O 170.869 0.975463 1.93167 0
M  V30 1746 C 171.464 3.3637 -0.405013 0
M  V30 1747 C 170.023 3.76369 -0.0482902 0
M  V30 1748 C 169.17 2.67921 -0.715108 0
M  V30 1749 H 172.121 1.34474 -0.842764 0
M  V30 1750 H 172.142 3.7885 0.354 0
M  V30 1751 H 171.654 3.59569 -1.46053 0
M  V30 1752 H 169.755 3.58784 1.00522 0
M  V30 1753 H 169.868 4.76856 -0.463187 0
M  V30 1754 H 168.232 2.54259 -0.149753 0
M  V30 1755 H 169.015 2.93951 -1.77335 0
M  V30 1756 N 171.46 0.379036 1.52974 0
M  V30 1757 C 172.708 -0.206014 2.01047 0
M  V30 1758 C 173.029 -1.48175 1.26765 0
M  V30 1759 O 172.299 -1.92085 0.384743 0
M  V30 1760 H 170.879 -0.0791184 0.742798 0
M  V30 1761 H 173.541 0.508366 1.88153 0
M  V30 1762 H 172.637 -0.423501 3.09213 0
M  V30 1763 N 172.938 -1.57226 0.108567 0
M  V30 1764 C 174.166 -1.99179 -0.559954 0
M  V30 1765 C 174.581 -0.988022 -1.60884 0
M  V30 1766 O 173.938 0.0205512 -1.82488 0
M  V30 1767 C 173.989 -3.41159 -1.19552 0
M  V30 1768 O 173.71 -4.37694 -0.188577 0
M  V30 1769 C 175.211 -3.98188 -1.94837 0
M  V30 1770 H 172.431 -0.654228 -0.149088 0
M  V30 1771 H 174.975 -2.03598 0.19183 0
M  V30 1772 H 173.13 -3.37711 -1.89815 0
M  V30 1773 H 173.544 -5.20469 -0.649014 0
M  V30 1774 H 175.018 -4.99644 -2.34648 0
M  V30 1775 H 175.495 -3.3675 -2.81951 0
M  V30 1776 H 176.101 -4.0515 -1.2936 0
M  V30 1777 N 174.416 0.165178 -1.56732 0
M  V30 1778 C 175.379 1.18822 -1.95995 0
M  V30 1779 C 176.379 1.3685 -0.84431 0
M  V30 1780 O 177.569 1.34152 -1.11126 0
M  V30 1781 C 174.701 2.5521 -2.26011 0
M  V30 1782 H 175.894 0.851825 -2.87548 0
M  V30 1783 H 173.447 0.407857 -1.50885 0
M  V30 1784 H 174.182 2.93852 -1.37191 0
M  V30 1785 H 173.967 2.43489 -3.07336 0
M  V30 1786 H 175.457 3.28927 -2.57288 0
M  V30 1787 N 175.894 1.51508 0.433938 0
M  V30 1788 C 177.124 1.67914 1.20369 0
M  V30 1789 C 177.532 0.377461 1.85397 0
M  V30 1790 O 176.875 -0.654255 1.71654 0
M  V30 1791 C 176.937 2.74045 2.32679 0
M  V30 1792 C 176.601 4.16543 1.87991 0
M  V30 1793 C 177.598 5.01211 1.38145 0
M  V30 1794 C 175.283 4.6266 1.95579 0
M  V30 1795 C 177.277 6.30056 0.964774 0
M  V30 1796 C 174.964 5.91501 1.53523 0
M  V30 1797 C 175.962 6.75027 1.04055 0
M  V30 1798 O 175.65 8.01459 0.625964 0
M  V30 1799 H 175.382 0.566578 0.368735 0
M  V30 1800 H 177.936 1.98709 0.51999 0
M  V30 1801 H 176.166 2.38572 3.04336 0
M  V30 1802 H 177.855 2.79295 2.94532 0
M  V30 1803 H 178.621 4.66783 1.31675 0
M  V30 1804 H 174.5 3.97767 2.33029 0
M  V30 1805 H 178.044 6.95202 0.57796 0
M  V30 1806 H 173.941 6.25442 1.59665 0
M  V30 1807 H 174.709 8.15043 0.751509 0
M  V30 1808 N 177.372 -0.689602 1.41712 0
M  V30 1809 C 178.304 -1.815 1.39966 0
M  V30 1810 C 179.317 -1.59995 0.300917 0
M  V30 1811 O 180.506 -1.69387 0.563039 0
M  V30 1812 C 177.606 -3.18364 1.16179 0
M  V30 1813 C 176.779 -3.66847 2.38206 0
M  V30 1814 C 175.838 -4.82398 2.10186 0
M  V30 1815 O 174.864 -4.93706 2.83272 0
M  V30 1816 N 176.066 -5.70064 1.0958 0
M  V30 1817 H 178.831 -1.83488 2.36965 0
M  V30 1818 H 176.392 -0.872149 1.36401 0
M  V30 1819 H 178.384 -3.93301 0.953756 0
M  V30 1820 H 176.954 -3.11365 0.27756 0
M  V30 1821 H 176.174 -2.82751 2.74673 0
M  V30 1822 H 177.462 -3.95978 3.19498 0
M  V30 1823 H 176.86 -5.63565 0.491019 0
M  V30 1824 H 175.417 -6.44874 0.947656 0
M  V30 1825 N 178.85 -1.27639 -0.924453 0
M  V30 1826 C 180.075 -1.17101 -1.71179 0
M  V30 1827 C 180.5 0.268134 -1.86179 0
M  V30 1828 O 179.858 1.19415 -1.36418 0
M  V30 1829 C 179.906 -1.86313 -3.08739 0
M  V30 1830 O 179.01 -1.16331 -3.95652 0
M  V30 1831 H 178.351 -0.407091 -0.524569 0
M  V30 1832 H 180.881 -1.68767 -1.15666 0
M  V30 1833 H 180.891 -1.938 -3.59034 0
M  V30 1834 H 179.566 -2.91001 -2.97138 0
M  V30 1835 H 178.143 -1.16935 -3.54091 0
M  V30 1836 N 180.328 1.1314 -1.09713 0
M  V30 1837 C 181.575 1.84484 -0.834987 0
M  V30 1838 C 181.903 1.83689 0.639418 0
M  V30 1839 O 181.158 1.2724 1.4869 0
M  V30 1840 C 181.457 3.32167 -1.3191 0
M  V30 1841 C 181.123 3.53139 -2.80363 0
M  V30 1842 C 179.785 3.58571 -3.20905 0
M  V30 1843 C 182.137 3.60866 -3.76065 0
M  V30 1844 C 179.465 3.69267 -4.55916 0
M  V30 1845 C 181.817 3.73089 -5.10869 0
M  V30 1846 C 180.481 3.76775 -5.50996 0
M  V30 1847 H 179.751 0.675073 -0.305544 0
M  V30 1848 H 182.398 1.33554 -1.37243 0
M  V30 1849 H 180.703 3.85469 -0.701517 0
M  V30 1850 H 182.4 3.85821 -1.09284 0
M  V30 1851 H 178.99 3.49569 -2.47991 0
M  V30 1852 H 183.174 3.55946 -3.45855 0
M  V30 1853 H 178.43 3.70388 -4.86438 0
M  V30 1854 H 182.604 3.78011 -5.84877 0
M  V30 1855 H 180.231 3.84815 -6.55608 0
M  V30 1856 N 181.806 0.884767 1.30421 0
M  V30 1857 C 182.716 0.355398 2.31892 0
M  V30 1858 C 183.732 -0.542261 1.65335 0
M  V30 1859 O 184.908 -0.435432 1.96637 0
M  V30 1860 C 181.973 -0.421661 3.44126 0
M  V30 1861 C 181.034 0.505727 4.26311 0
M  V30 1862 C 180.267 -0.234343 5.33185 0
M  V30 1863 O 180.49 -1.46045 5.51386 0
M  V30 1864 O 179.424 0.415443 6.00465 0
M  V30 1865 H 183.25 1.19685 2.79122 0
M  V30 1866 H 180.835 0.648596 1.34587 0
M  V30 1867 H 182.717 -0.861641 4.12497 0
M  V30 1868 H 181.392 -1.23942 2.99032 0
M  V30 1869 H 180.299 0.994513 3.60639 0
M  V30 1870 H 181.632 1.28948 4.75009 0
M  V30 1871 N 183.284 -1.43765 0.645699 0
M  V30 1872 C 184.216 -2.29027 -0.0890605 0
M  V30 1873 C 185.229 -1.42093 -0.794563 0
M  V30 1874 O 186.418 -1.66104 -0.653575 0
M  V30 1875 C 183.518 -3.18831 -1.14891 0
M  V30 1876 C 182.691 -4.34261 -0.523043 0
M  V30 1877 C 181.75 -5.04994 -1.47878 0
M  V30 1878 O 180.776 -5.6052 -0.990277 0
M  V30 1879 N 181.978 -5.07795 -2.81291 0
M  V30 1880 H 184.743 -2.92727 0.64272 0
M  V30 1881 H 182.304 -1.54373 0.487924 0
M  V30 1882 H 184.296 -3.63015 -1.78892 0
M  V30 1883 H 182.866 -2.56782 -1.78275 0
M  V30 1884 H 182.086 -3.93088 0.295896 0
M  V30 1885 H 183.374 -5.08728 -0.0858147 0
M  V30 1886 H 182.772 -4.64042 -3.23546 0
M  V30 1887 H 181.329 -5.55721 -3.40614 0
M  V30 1888 N 184.763 -0.387143 -1.52771 0
M  V30 1889 C 186.009 0.196025 -2.0185 0
M  V30 1890 C 186.342 1.46641 -1.27319 0
M  V30 1891 O 185.617 1.90889 -0.373032 0
M  V30 1892 C 185.9 0.466136 -3.5707 0
M  V30 1893 C 185.753 -0.819385 -4.42274 0
M  V30 1894 C 187.072 1.25768 -4.21747 0
M  V30 1895 H 184.191 0.0697708 -0.73369 0
M  V30 1896 H 186.833 -0.516286 -1.82851 0
M  V30 1897 H 184.983 1.07293 -3.7339 0
M  V30 1898 H 186.655 -1.4563 -4.37709 0
M  V30 1899 H 184.898 -1.43517 -4.09372 0
M  V30 1900 H 185.569 -0.585065 -5.48891 0
M  V30 1901 H 188.045 0.744167 -4.09391 0
M  V30 1902 H 186.921 1.41541 -5.30337 0
M  V30 1903 H 187.182 2.27228 -3.79236 0
M  V30 1904 N 186.241 1.57166 -0.116904 0
M  V30 1905 C 187.487 1.95412 0.542405 0
M  V30 1906 C 187.82 1.00019 1.66463 0
M  V30 1907 O 187.095 0.0370346 1.94465 0
M  V30 1908 C 187.378 3.43615 1.07708 0
M  V30 1909 C 187.231 4.49781 -0.0415868 0
M  V30 1910 C 188.55 3.93616 1.96861 0
M  V30 1911 H 185.669 0.710543 0.195696 0
M  V30 1912 H 188.311 1.89027 -0.192038 0
M  V30 1913 H 186.461 3.49187 1.70296 0
M  V30 1914 H 188.133 4.56308 -0.676793 0
M  V30 1915 H 186.376 4.28033 -0.705019 0
M  V30 1916 H 187.047 5.50733 0.373717 0
M  V30 1917 H 189.523 3.90335 1.44146 0
M  V30 1918 H 188.399 4.97838 2.3119 0
M  V30 1919 H 188.66 3.34188 2.89432 0
M  V30 1920 N 187.719 -0.156864 1.56817 0
M  V30 1921 C 188.667 -1.21319 1.98455 0
M  V30 1922 C 189.661 -1.45025 0.875444 0
M  V30 1923 O 190.867 -1.45435 1.0606 0
M  V30 1924 H 187.242 -0.408142 0.631605 0
M  V30 1925 H 189.213 -0.835244 2.86472 0
M  V30 1926 C 187.962 -2.54148 2.37285 0
M  V30 1927 H 187.285 -2.36733 3.22176 0
M  V30 1928 H 188.725 -3.26712 2.70251 0
M  V30 1929 C 187.184 -3.13967 1.22173 0
M  V30 1930 O 187.714 -3.98357 0.517149 0
M  V30 1931 N 185.92 -2.7327 0.988536 0
M  V30 1932 H 185.467 -2.04744 1.56326 0
M  V30 1933 H 185.425 -3.13628 0.220209 0
M  V30 1934 N 189.197 -1.51736 -0.425897 0
M  V30 1935 C 190.107 -1.76738 -1.54275 0
M  V30 1936 C 191.123 -0.65211 -1.61318 0
M  V30 1937 O 192.299 -0.935654 -1.78346 0
M  V30 1938 C 189.364 -1.89755 -2.90162 0
M  V30 1939 C 188.425 -3.13633 -2.93143 0
M  V30 1940 C 187.658 -3.2602 -4.22548 0
M  V30 1941 O 187.881 -2.44067 -5.15546 0
M  V30 1942 O 186.815 -4.19071 -4.32046 0
M  V30 1943 H 190.641 -2.71502 -1.36089 0
M  V30 1944 H 188.226 -1.36376 -0.610069 0
M  V30 1945 H 190.108 -2.00236 -3.70788 0
M  V30 1946 H 188.783 -0.981785 -3.08452 0
M  V30 1947 H 187.69 -3.08622 -2.11431 0
M  V30 1948 H 189.023 -4.04936 -2.798 0
M  V30 1949 N 190.675 0.682077 -1.42076 0
M  V30 1950 C 191.605 1.80796 -1.47767 0
M  V30 1951 C 192.586 1.6677 -0.334954 0
M  V30 1952 O 193.771 1.863 -0.548264 0
M  V30 1953 C 190.901 3.19038 -1.37229 0
M  V30 1954 C 189.855 3.47789 -2.49453 0
M  V30 1955 C 189.181 4.8553 -2.23975 0
M  V30 1956 C 190.481 3.45411 -3.91776 0
M  V30 1957 H 192.175 1.7629 -2.41997 0
M  V30 1958 H 189.721 0.846721 -1.16476 0
M  V30 1959 H 191.674 3.97528 -1.39821 0
M  V30 1960 H 190.398 3.24204 -0.394907 0
M  V30 1961 H 189.057 2.71657 -2.46166 0
M  V30 1962 H 188.705 4.87337 -1.24547 0
M  V30 1963 H 188.405 5.0573 -2.99184 0
M  V30 1964 H 189.929 5.66312 -2.28304 0
M  V30 1965 H 191.343 4.13882 -3.96705 0
M  V30 1966 H 189.74 3.77145 -4.66778 0
M  V30 1967 H 190.81 2.44122 -4.18966 0
M  V30 1968 N 192.153 1.28127 0.917671 0
M  V30 1969 C 193.4 1.15052 1.66641 0
M  V30 1970 C 193.728 -0.301677 1.92146 0
M  V30 1971 O 192.983 -1.23622 1.51711 0
M  V30 1972 C 193.282 1.89018 3.03327 0
M  V30 1973 C 192.948 3.38832 2.97496 0
M  V30 1974 C 191.61 3.79693 2.95613 0
M  V30 1975 C 193.962 4.34378 2.88036 0
M  V30 1976 C 191.29 5.14447 2.82066 0
M  V30 1977 C 193.642 5.69201 2.7603 0
M  V30 1978 C 192.306 6.09343 2.72502 0
M  V30 1979 H 191.576 0.421006 0.609783 0
M  V30 1980 H 194.223 1.58855 1.06945 0
M  V30 1981 H 192.528 1.37752 3.66785 0
M  V30 1982 H 194.225 1.76321 3.60156 0
M  V30 1983 H 190.815 3.06342 2.99754 0
M  V30 1984 H 194.999 4.03775 2.88581 0
M  V30 1985 H 190.255 5.44681 2.77728 0
M  V30 1986 H 194.429 6.42901 2.67678 0
M  V30 1987 H 192.056 7.13712 2.61762 0
M  V30 1988 N 193.631 -1.12557 1.10312 0
M  V30 1989 C 195.047 -1.36036 0.834649 0
M  V30 1990 C 195.247 -1.93946 -0.546539 0
M  V30 1991 O 194.303 -2.16484 -1.29966 0
M  V30 1992 C 195.616 -2.30312 1.9333 0
M  V30 1993 C 197.164 -2.43906 1.9616 0
M  V30 1994 C 197.639 -3.41496 3.05195 0
M  V30 1995 N 199.13 -3.49053 3.04494 0
M  V30 1996 C 199.865 -4.24471 3.85502 0
M  V30 1997 N 199.361 -5.02966 4.76442 0
M  V30 1998 N 201.154 -4.19864 3.73725 0
M  V30 1999 H 193.305 -0.733246 1.99342 0
M  V30 2000 H 195.568 -0.385234 0.866198 0
M  V30 2001 H 195.274 -1.94933 2.92735 0
M  V30 2002 H 195.148 -3.30421 1.81939 0
M  V30 2003 H 197.535 -2.78567 0.973886 0
M  V30 2004 H 197.616 -1.4369 2.11629 0
M  V30 2005 H 197.26 -3.07565 4.04186 0
M  V30 2006 H 197.19 -4.41539 2.86968 0
M  V30 2007 H 199.681 -2.93053 2.38596 0
M  V30 2008 H 199.994 -5.57846 5.34815 0
M  V30 2009 H 198.339 -5.02167 4.80472 0
M  V30 2010 H 201.53 -3.57623 3.02032 0
M  V30 2011 H 201.703 -4.78386 4.37093 0
M  V30 2012 N 195.109 -0.891671 -1.2995 0
M  V30 2013 C 196.386 -0.433307 -1.9074 0
M  V30 2014 C 196.766 1.08646 -1.80995 0
M  V30 2015 O 196.114 1.92476 -1.23147 0
M  V30 2016 C 196.324 -0.938895 -3.36134 0
M  V30 2017 C 197.672 -0.977829 -4.13187 0
M  V30 2018 O 198.696 -0.886015 -3.45005 0
M  V30 2019 O 197.555 -1.11453 -5.35015 0
M  V30 2020 H 194.649 -0.133699 -0.816121 0
M  V30 2021 H 197.195 -0.981011 -1.38471 0
M  V30 2022 H 195.967 -1.98281 -3.37343 0
M  V30 2023 H 195.59 -0.37074 -3.95868 0
M  V30 2024 N 196.587 1.43421 -0.653314 0
M  V30 2025 C 197.835 2.01414 -0.166415 0
M  V30 2026 C 198.156 1.51803 1.22397 0
M  V30 2027 O 197.426 0.730693 1.81763 0
M  V30 2028 H 196.006 0.744703 -0.0585319 0
M  V30 2029 H 198.668 1.75629 -0.845003 0
M  V30 2030 H 197.764 3.11734 -0.151111 0
M  V30 2031 N 198.065 0.39524 1.52563 0
M  V30 2032 C 199.311 -0.185318 2.01952 0
M  V30 2033 C 199.644 -1.45964 1.28095 0
M  V30 2034 O 198.919 -1.90689 0.38315 0
M  V30 2035 C 199.202 -0.447193 3.57312 0
M  V30 2036 C 199.055 0.842828 4.41833 0
M  V30 2037 C 200.374 -1.23529 4.22408 0
M  V30 2038 H 197.493 -0.0658788 0.73405 0
M  V30 2039 H 200.135 0.525975 1.82575 0
M  V30 2040 H 198.285 -1.05312 3.73954 0
M  V30 2041 H 199.957 1.4795 4.36931 0
M  V30 2042 H 198.2 1.45686 4.08605 0
M  V30 2043 H 198.871 0.614165 5.48573 0
M  V30 2044 H 201.347 -0.722445 4.0978 0
M  V30 2045 H 200.223 -1.38727 5.3108 0
M  V30 2046 H 200.484 -2.25213 3.80436 0
M  V30 2047 N 199.544 -1.57102 0.125237 0
M  V30 2048 C 200.492 -2.16905 -0.839927 0
M  V30 2049 C 201.486 -1.11998 -1.27094 0
M  V30 2050 O 202.692 -1.3029 -1.24195 0
M  V30 2051 H 199.067 -0.694252 -0.288995 0
M  V30 2052 H 201.038 -2.96774 -0.311115 0
M  V30 2053 C 199.787 -2.78795 -2.07771 0
M  V30 2054 H 199.11 -3.59221 -1.755 0
M  V30 2055 H 200.55 -3.2417 -2.73295 0
M  V30 2056 C 199.009 -1.76193 -2.87155 0
M  V30 2057 O 199.539 -1.21909 -3.82755 0
M  V30 2058 N 197.745 -1.45991 -2.51267 0
M  V30 2059 H 197.292 -1.90325 -1.73592 0
M  V30 2060 H 197.25 -0.775844 -3.04677 0
M  V30 2061 N 201.022 0.148545 -1.56898 0
M  V30 2062 C 202.268 0.857877 -1.84424 0
M  V30 2063 C 202.623 1.7886 -0.709006 0
M  V30 2064 O 201.916 1.89344 0.293139 0
M  V30 2065 C 202.11 1.67064 -3.1595 0
M  V30 2066 C 201.939 0.82011 -4.42159 0
M  V30 2067 C 200.709 0.486328 -5.02954 0
M  V30 2068 C 202.907 0.151155 -5.14078 0
M  V30 2069 N 200.889 -0.377956 -6.12735 0
M  V30 2070 C 202.26 -0.573333 -6.17343 0
M  V30 2071 C 204.315 0.0716685 -4.97848 0
M  V30 2072 C 203.018 -1.3698 -7.06137 0
M  V30 2073 C 205.044 -0.711532 -5.87104 0
M  V30 2074 C 204.406 -1.42431 -6.8985 0
M  V30 2075 H 200.505 0.291798 -0.725519 0
M  V30 2076 H 203.089 0.123347 -1.94309 0
M  V30 2077 H 201.26 2.37642 -3.07215 0
M  V30 2078 H 202.992 2.32302 -3.31388 0
M  V30 2079 H 199.747 0.821753 -4.66416 0
M  V30 2080 H 200.171 -0.801077 -6.72244 0
M  V30 2081 H 204.813 0.608381 -4.184 0
M  V30 2082 H 202.531 -1.91778 -7.85014 0
M  V30 2083 H 206.117 -0.775005 -5.76615 0
M  V30 2084 H 204.997 -2.02061 -7.57721 0
M  V30 2085 N 202.5 1.5196 0.417844 0
M  V30 2086 C 203.748 1.65263 1.16329 0
M  V30 2087 C 204.069 0.380634 1.91249 0
M  V30 2088 O 203.339 -0.604214 1.86349 0
M  V30 2089 H 201.919 0.60912 0.432414 0
M  V30 2090 H 204.581 1.88969 0.477162 0
M  V30 2091 H 203.677 2.4896 1.88217 0
M  V30 2092 N 203.978 -0.674533 1.42435 0
M  V30 2093 C 205.394 -0.98769 1.25367 0
M  V30 2094 C 205.594 -2.00879 0.158044 0
M  V30 2095 O 204.65 -2.48075 -0.470633 0
M  V30 2096 C 205.963 -1.49224 2.6106 0
M  V30 2097 C 207.511 -1.61 2.68417 0
M  V30 2098 C 207.986 -2.14852 4.04478 0
M  V30 2099 N 209.477 -2.22185 4.06434 0
M  V30 2100 C 210.212 -2.64928 5.08528 0
M  V30 2101 N 209.708 -3.07121 6.21006 0
M  V30 2102 N 211.501 -2.64679 4.95885 0
M  V30 2103 H 203.652 0.00152503 2.124 0
M  V30 2104 H 205.915 -0.0618434 0.945981 0
M  V30 2105 H 205.621 -0.816453 3.42092 0
M  V30 2106 H 205.495 -2.47094 2.84999 0
M  V30 2107 H 207.882 -2.27686 1.87732 0
M  V30 2108 H 207.963 -0.616195 2.48267 0
M  V30 2109 H 207.607 -1.48775 4.85622 0
M  V30 2110 H 207.537 -3.15024 4.2198 0
M  V30 2111 H 210.028 -1.92435 3.25234 0
M  V30 2112 H 210.341 -3.38423 6.94759 0
M  V30 2113 H 208.686 -3.04978 6.24511 0
M  V30 2114 H 211.877 -2.31078 4.07088 0
M  V30 2115 H 212.05 -2.9767 5.75584 0
M  V30 2116 N 205.456 -1.28612 -0.910864 0
M  V30 2117 C 206.705 -1.15311 -1.65488 0
M  V30 2118 C 207.018 0.296999 -1.93332 0
M  V30 2119 O 208.224 0.551168 -2.65847 0
M  V30 2120 C 206.68 -2.01599 -2.98137 0
M  V30 2121 C 206.288 -3.51367 -2.7793 0
M  V30 2122 C 208.032 -1.96993 -3.76024 0
M  V30 2123 C 205.939 -4.29797 -4.06237 0
M  V30 2124 H 204.869 -0.42796 -0.620779 0
M  V30 2125 H 207.52 -1.53166 -1.01057 0
M  V30 2126 H 205.902 -1.56603 -3.63719 0
M  V30 2127 H 207.076 -4.0434 -2.21011 0
M  V30 2128 H 205.391 -3.57529 -2.13452 0
M  V30 2129 H 207.988 -2.52856 -4.71135 0
M  V30 2130 H 208.331 -0.94733 -4.05378 0
M  V30 2131 H 208.864 -2.39973 -3.17266 0
M  V30 2132 H 205.603 -5.32648 -3.82055 0
M  V30 2133 H 205.123 -3.81596 -4.62757 0
M  V30 2134 H 206.802 -4.39869 -4.74473 0
M  V30 2135 N 206.934 1.1197 -1.10907 0
M  V30 2136 C 208.18 1.8386 -0.855773 0
M  V30 2137 C 208.513 1.84134 0.617103 0
M  V30 2138 O 207.788 1.29041 1.45529 0
M  V30 2139 C 208.071 3.31305 -1.411 0
M  V30 2140 C 207.924 3.39456 -2.9511 0
M  V30 2141 C 209.243 4.2721 -1.05736 0
M  V30 2142 H 206.362 0.667545 -0.312334 0
M  V30 2143 H 209.004 1.31331 -1.37303 0
M  V30 2144 H 207.154 3.76169 -0.97105 0
M  V30 2145 H 208.826 3.03191 -3.47668 0
M  V30 2146 H 207.069 2.79849 -3.31462 0
M  V30 2147 H 207.74 4.43209 -3.29044 0
M  V30 2148 H 210.216 3.90497 -1.43706 0
M  V30 2149 H 209.092 5.28775 -1.47269 0
M  V30 2150 H 209.353 4.42088 0.0325958 0
M  V30 2151 N 208.412 0.89855 1.29475 0
M  V30 2152 C 209.375 0.380272 2.26023 0
M  V30 2153 C 210.375 -0.484891 1.53315 0
M  V30 2154 O 211.565 -0.290108 1.71767 0
M  V30 2155 C 208.697 -0.45651 3.3783 0
M  V30 2156 H 209.89 1.23295 2.73383 0
M  V30 2157 H 207.443 0.676589 1.40897 0
M  V30 2158 H 208.178 -1.32922 2.95808 0
M  V30 2159 H 207.963 0.163393 3.91759 0
M  V30 2160 H 209.453 -0.810466 4.0966 0
M  V30 2161 N 209.89 -1.43072 0.660911 0
M  V30 2162 C 211.137 -2.01721 0.177445 0
M  V30 2163 C 211.465 -1.5218 -1.21126 0
M  V30 2164 O 210.72 -0.708659 -1.82419 0
M  V30 2165 C 211.019 -3.57103 0.145563 0
M  V30 2166 C 210.685 -4.26021 1.47705 0
M  V30 2167 C 209.347 -4.44563 1.84165 0
M  V30 2168 C 211.699 -4.64983 2.35458 0
M  V30 2169 C 209.027 -4.99334 3.0803 0
M  V30 2170 C 211.379 -5.21127 3.58622 0
M  V30 2171 C 210.043 -5.37884 3.95268 0
M  V30 2172 H 209.313 -0.73815 0.0649317 0
M  V30 2173 H 211.96 -1.71446 0.853144 0
M  V30 2174 H 210.265 -3.86965 -0.61361 0
M  V30 2175 H 211.962 -4.00248 -0.2455 0
M  V30 2176 H 208.552 -4.11939 1.18339 0
M  V30 2177 H 212.736 -4.50343 2.08579 0
M  V30 2178 H 207.992 -5.10493 3.36462 0
M  V30 2179 H 212.166 -5.50262 4.26831 0
M  V30 2180 H 209.793 -5.80089 4.91325 0
M  V30 2181 N 211.368 -0.403325 -1.52352 0
M  V30 2182 C 212.615 0.174347 -2.01748 0
M  V30 2183 C 212.943 1.45636 -1.2892 0
M  V30 2184 O 212.198 1.9193 -0.382258 0
M  V30 2185 C 212.497 0.474665 -3.54234 0
M  V30 2186 C 212.163 -0.717458 -4.45155 0
M  V30 2187 C 210.825 -1.04447 -4.69728 0
M  V30 2188 C 213.177 -1.51432 -4.98716 0
M  V30 2189 C 210.505 -2.16963 -5.45109 0
M  V30 2190 C 212.857 -2.6302 -5.75329 0
M  V30 2191 C 211.521 -2.96213 -5.98175 0
M  V30 2192 H 210.791 0.0637981 -0.738248 0
M  V30 2193 H 213.438 -0.543553 -1.83624 0
M  V30 2194 H 211.743 1.27406 -3.70506 0
M  V30 2195 H 213.44 0.934496 -3.89959 0
M  V30 2196 H 210.03 -0.452596 -4.26204 0
M  V30 2197 H 214.214 -1.27491 -4.79645 0
M  V30 2198 H 209.47 -2.43034 -5.61021 0
M  V30 2199 H 213.644 -3.25158 -6.15829 0
M  V30 2200 H 211.271 -3.83516 -6.56368 0
M  V30 2201 N 212.846 1.57033 -0.133567 0
M  V30 2202 C 214.071 2.00475 0.531477 0
M  V30 2203 C 214.496 1.01291 1.58499 0
M  V30 2204 O 213.854 -0.0133279 1.81295 0
M  V30 2205 C 213.902 3.42729 1.12113 0
M  V30 2206 O 213.006 3.46498 2.23636 0
M  V30 2207 H 212.347 0.650876 0.131362 0
M  V30 2208 H 214.877 2.03344 -0.22634 0
M  V30 2209 H 214.887 3.81246 1.4531 0
M  V30 2210 H 213.562 4.14428 0.349557 0
M  V30 2211 H 212.139 3.19811 1.91769 0
M  V30 2212 N 214.325 -0.140222 1.56975 0
M  V30 2213 C 215.572 -0.851687 1.83719 0
M  V30 2214 C 215.9 -1.80862 0.715485 0
M  V30 2215 O 215.155 -1.93464 -0.294956 0
M  V30 2216 C 215.454 -1.65386 3.16832 0
M  V30 2217 C 215.12 -0.843112 4.42947 0
M  V30 2218 C 213.782 -0.619464 4.77196 0
M  V30 2219 C 216.134 -0.276582 5.20466 0
M  V30 2220 C 213.462 0.181312 5.8642 0
M  V30 2221 C 215.814 0.51127 6.30531 0
M  V30 2222 C 214.478 0.745432 6.63325 0
M  V30 2223 H 213.748 -0.311654 0.672274 0
M  V30 2224 H 216.395 -0.115006 1.91154 0
M  V30 2225 H 214.7 -2.46084 3.04877 0
M  V30 2226 H 216.397 -2.20793 3.34741 0
M  V30 2227 H 212.987 -1.0275 4.16101 0
M  V30 2228 H 217.171 -0.436632 4.94376 0
M  V30 2229 H 212.427 0.372165 6.10266 0
M  V30 2230 H 216.601 0.957354 6.89788 0
M  V30 2231 H 214.228 1.36778 7.47794 0
M  V30 2232 N 215.803 -1.52179 -0.40978 0
M  V30 2233 C 217.051 -1.65878 -1.15451 0
M  V30 2234 C 217.372 -0.390771 -1.91044 0
M  V30 2235 O 216.642 0.594323 -1.86667 0
M  V30 2236 H 215.222 -0.611405 -0.429177 0
M  V30 2237 H 217.884 -1.89219 -0.467134 0
M  V30 2238 H 216.98 -2.49954 -1.86894 0
M  V30 2239 N 217.281 0.66697 -1.42791 0
M  V30 2240 C 218.529 1.42417 -1.43394 0
M  V30 2241 C 218.85 1.94925 -0.0542373 0
M  V30 2242 O 218.12 1.73564 0.908415 0
M  V30 2243 H 216.7 0.528515 -0.527902 0
M  V30 2244 H 219.362 0.787562 -1.78279 0
M  V30 2245 H 218.458 2.27333 -2.13837 0
M  V30 2246 N 218.759 1.29093 0.90403 0
M  V30 2247 C 219.722 1.1386 1.98919 0
M  V30 2248 C 220.722 0.0753457 1.60623 0
M  V30 2249 O 221.912 0.321931 1.71199 0
M  V30 2250 C 219.044 0.740198 3.32767 0
M  V30 2251 H 220.237 2.10246 2.13861 0
M  V30 2252 H 217.79 1.12218 1.08797 0
M  V30 2253 H 218.525 -0.223997 3.23525 0
M  V30 2254 H 218.31 1.50838 3.61926 0
M  V30 2255 H 219.8 0.656546 4.12407 0
M  V30 2256 N 220.237 -1.11381 1.11499 0
M  V30 2257 C 221.167 -2.19509 0.796125 0
M  V30 2258 C 222.148 -1.68458 -0.235796 0
M  V30 2259 O 223.333 -1.93947 -0.0991344 0
M  V30 2260 C 220.463 -3.46475 0.239205 0
M  V30 2261 C 219.417 -4.10744 1.20307 0
M  V30 2262 C 218.743 -5.32293 0.50683 0
M  V30 2263 C 220.043 -4.55597 2.55399 0
M  V30 2264 H 221.737 -2.46439 1.70024 0
M  V30 2265 H 219.283 -1.18446 0.818935 0
M  V30 2266 H 221.236 -4.214 0.00392006 0
M  V30 2267 H 219.96 -3.19006 -0.700206 0
M  V30 2268 H 218.619 -3.37813 1.42399 0
M  V30 2269 H 218.267 -5.01095 -0.437408 0
M  V30 2270 H 217.967 -5.76243 1.1497 0
M  V30 2271 H 219.491 -6.09956 0.280351 0
M  V30 2272 H 220.905 -5.21841 2.37391 0
M  V30 2273 H 219.302 -5.10363 3.15673 0
M  V30 2274 H 220.372 -3.69013 3.14575 0
M  V30 2275 N 221.715 -0.905404 -1.28997 0
M  V30 2276 C 222.955 -0.541232 -1.97104 0
M  V30 2277 C 223.319 0.896841 -1.69767 0
M  V30 2278 O 224.52 1.36817 -2.31375 0
M  V30 2279 C 222.791 -0.832134 -3.47578 0
M  V30 2280 S 224.35 -0.573127 -4.35041 0
M  V30 2281 H 221.168 -0.200576 -0.682122 0
M  V30 2282 H 223.77 -1.16906 -1.56694 0
M  V30 2283 H 222.474 -1.87687 -3.64968 0
M  V30 2284 H 222.005 -0.192636 -3.92928 0
M  V30 2285 H 224.02 0.579297 -4.92807 0
M  V30 2286 N 223.193 1.4272 -0.668489 0
M  V30 2287 C 224.439 2.01923 -0.188419 0
M  V30 2288 C 224.772 1.52704 1.19979 0
M  V30 2289 O 224.047 0.726566 1.8042 0
M  V30 2290 C 224.33 3.59451 -0.216085 0
M  V30 2291 C 224.183 4.18864 -1.6393 0
M  V30 2292 C 225.502 4.37903 0.439179 0
M  V30 2293 H 222.621 0.733674 -0.0699412 0
M  V30 2294 H 225.263 1.69822 -0.852076 0
M  V30 2295 H 223.413 3.86929 0.349012 0
M  V30 2296 H 225.085 4.02362 -2.25616 0
M  V30 2297 H 223.328 3.74933 -2.18193 0
M  V30 2298 H 223.999 5.27987 -1.61039 0
M  V30 2299 H 226.475 4.16079 -0.0417878 0
M  V30 2300 H 225.351 5.47519 0.389157 0
M  V30 2301 H 225.612 4.15303 1.51577 0
M  V30 2302 N 224.671 0.411399 1.52136 0
M  V30 2303 C 225.581 -0.419774 2.30814 0
M  V30 2304 C 226.597 -1.0515 1.38634 0
M  V30 2305 O 227.773 -1.05252 1.71709 0
M  V30 2306 C 224.838 -1.52019 3.11594 0
M  V30 2307 C 223.899 -0.91129 4.19516 0
M  V30 2308 C 223.132 -1.95927 4.96436 0
M  V30 2309 O 223.355 -3.17775 4.73683 0
M  V30 2310 O 222.289 -1.56423 5.81219 0
M  V30 2311 H 226.115 0.221805 3.02889 0
M  V30 2312 H 223.7 0.174547 1.48377 0
M  V30 2313 H 225.582 -2.15898 3.61892 0
M  V30 2314 H 224.257 -2.14633 2.42311 0
M  V30 2315 H 223.164 -0.235157 3.7336 0
M  V30 2316 H 224.497 -0.32904 4.91099 0
M  V30 2317 N 226.149 -1.5696 0.141893 0
M  V30 2318 C 227.374 -2.00754 -0.520838 0
M  V30 2319 C 227.799 -1.0213 -1.57959 0
M  V30 2320 O 227.157 0.00371324 -1.813 0
M  V30 2321 C 227.205 -3.43318 -1.10294 0
M  V30 2322 O 226.309 -3.47679 -2.21795 0
M  V30 2323 H 225.65 -0.651564 -0.127908 0
M  V30 2324 H 228.18 -2.03221 0.23712 0
M  V30 2325 H 228.19 -3.82012 -1.43287 0
M  V30 2326 H 226.865 -4.14608 -0.327574 0
M  V30 2327 H 225.442 -3.20824 -1.9007 0
M  V30 2328 N 227.627 0.131896 -1.57047 0
M  V30 2329 C 228.873 0.843179 -1.84441 0
M  V30 2330 C 229.206 1.80129 -0.725749 0
M  V30 2331 O 228.481 1.92624 0.269469 0
M  V30 2332 C 228.764 1.60442 -3.22382 0
M  V30 2333 C 228.617 0.666782 -4.4483 0
M  V30 2334 C 229.936 2.56354 -3.5773 0
M  V30 2335 H 227.055 0.305081 -0.670891 0
M  V30 2336 H 229.697 0.107839 -1.89694 0
M  V30 2337 H 227.847 2.23128 -3.18035 0
M  V30 2338 H 229.519 0.0497646 -4.61273 0
M  V30 2339 H 227.762 -0.022609 -4.33794 0
M  V30 2340 H 228.433 1.23579 -5.37989 0
M  V30 2341 H 230.909 2.0378 -3.62785 0
M  V30 2342 H 229.785 3.06657 -4.5525 0
M  V30 2343 H 230.046 3.38419 -2.84473 0
M  V30 2344 N 229.106 1.52395 0.401703 0
M  V30 2345 C 230.383 1.57387 1.16141 0
M  V30 2346 C 230.763 0.359359 2.08019 0
M  V30 2347 O 230.111 -0.65326 2.18963 0
M  V30 2348 C 230.321 2.90631 1.93221 0
M  V30 2349 C 231.669 3.43904 2.49028 0
M  V30 2350 O 232.693 2.92421 2.03393 0
M  V30 2351 O 231.552 4.33823 3.32356 0
M  V30 2352 H 228.646 0.634262 0.530698 0
M  V30 2353 H 231.192 1.64725 0.407883 0
M  V30 2354 H 229.964 3.70473 1.25958 0
M  V30 2355 H 229.587 2.8662 2.75563 0
M  V30 2356 N 230.584 -0.659388 1.43143 0
M  V30 2357 C 231.531 -1.77249 1.47822 0
M  V30 2358 C 232.501 -1.62818 0.328558 0
M  V30 2359 O 233.686 -1.83151 0.534838 0
M  V30 2360 C 230.826 -3.15371 1.40126 0
M  V30 2361 C 229.939 -3.4098 2.65249 0
M  V30 2362 C 229.074 -4.68915 2.49584 0
M  V30 2363 C 228.113 -4.87608 3.70006 0
M  V30 2364 N 227.25 -6.06796 3.53189 0
M  V30 2365 H 232.09 -1.72584 2.42938 0
M  V30 2366 H 229.627 -0.842297 1.20598 0
M  V30 2367 H 231.585 -3.9521 1.33659 0
M  V30 2368 H 230.215 -3.19121 0.485964 0
M  V30 2369 H 229.267 -2.55282 2.8202 0
M  V30 2370 H 230.579 -3.50681 3.54717 0
M  V30 2371 H 229.733 -5.56871 2.4079 0
M  V30 2372 H 228.472 -4.61524 1.5763 0
M  V30 2373 H 227.477 -3.9809 3.79215 0
M  V30 2374 H 228.702 -4.96834 4.62961 0
M  V30 2375 H 226.648 -6.00549 2.63965 0
M  V30 2376 H 226.565 -6.17428 4.36255 0
M  V30 2377 H 227.833 -6.9739 3.48236 0
M  V30 2378 N 232.062 -1.29571 -0.897171 0
M  V30 2379 C 232.972 -1.16808 -2.03453 0
M  V30 2380 C 233.988 -0.0907471 -1.73763 0
M  V30 2381 O 235.164 -0.303312 -1.99103 0
M  V30 2382 C 232.229 -0.848264 -3.36163 0
M  V30 2383 C 231.29 -2.0097 -3.79354 0
M  V30 2384 C 230.523 -1.70505 -5.05731 0
M  V30 2385 O 230.746 -0.62718 -5.66941 0
M  V30 2386 O 229.68 -2.5538 -5.45036 0
M  V30 2387 H 233.506 -2.12325 -2.17144 0
M  V30 2388 H 231.091 -1.09047 -1.02123 0
M  V30 2389 H 232.973 -0.684581 -4.15802 0
M  V30 2390 H 231.648 0.0771071 -3.23608 0
M  V30 2391 H 230.555 -2.22863 -3.00471 0
M  V30 2392 H 231.888 -2.91636 -3.96496 0
M  V30 2393 N 233.54 1.10788 -1.12088 0
M  V30 2394 C 234.473 2.16237 -0.729168 0
M  V30 2395 C 235.451 1.60207 0.277921 0
M  V30 2396 O 236.635 1.87707 0.172737 0
M  V30 2397 C 233.762 3.38609 -0.0786848 0
M  V30 2398 C 232.808 4.13322 -1.05201 0
M  V30 2399 S 233.641 4.69371 -2.57781 0
M  V30 2400 C 234.797 5.95058 -1.94053 0
M  V30 2401 H 235.03 2.4913 -1.62239 0
M  V30 2402 H 232.563 1.22519 -0.939603 0
M  V30 2403 H 234.521 4.09473 0.290254 0
M  V30 2404 H 233.182 3.03962 0.791593 0
M  V30 2405 H 232.375 5.01051 -0.544433 0
M  V30 2406 H 231.977 3.48251 -1.36371 0
M  V30 2407 H 234.269 6.65278 -1.28107 0
M  V30 2408 H 235.212 6.50472 -2.79807 0
M  V30 2409 H 235.62 5.46918 -1.39787 0
M  V30 2410 N 235.018 0.912232 1.28515 0
M  V30 2411 C 235.95 0.35676 2.26406 0
M  V30 2412 C 236.963 -0.503933 1.54804 0
M  V30 2413 O 238.152 -0.319059 1.75625 0
M  V30 2414 C 235.252 -0.508825 3.35058 0
M  V30 2415 C 234.425 0.329007 4.36161 0
M  V30 2416 C 233.484 -0.471422 5.24084 0
M  V30 2417 O 232.51 0.115482 5.69083 0
M  V30 2418 N 233.712 -1.77479 5.52704 0
M  V30 2419 H 236.477 1.19818 2.74707 0
M  V30 2420 H 234.038 0.778022 1.4198 0
M  V30 2421 H 236.03 -1.051 3.90815 0
M  V30 2422 H 234.6 -1.25095 2.86478 0
M  V30 2423 H 233.82 1.05256 3.79888 0
M  V30 2424 H 235.108 0.90234 5.00735 0
M  V30 2425 H 234.506 -2.27417 5.17975 0
M  V30 2426 H 233.063 -2.26382 6.11224 0
M  V30 2427 N 236.496 -1.42363 0.676048 0
M  V30 2428 C 237.742 -2.0182 0.199125 0
M  V30 2429 C 238.075 -1.53339 -1.19168 0
M  V30 2430 O 237.35 -0.736124 -1.80032 0
M  V30 2431 C 237.633 -3.59331 0.235144 0
M  V30 2432 C 237.486 -4.17989 1.66149 0
M  V30 2433 C 238.805 -4.3813 -0.41595 0
M  V30 2434 H 235.924 -0.733293 0.0738311 0
M  V30 2435 H 238.566 -1.69368 0.86107 0
M  V30 2436 H 236.716 -3.87109 -0.328487 0
M  V30 2437 H 238.388 -4.0116 2.27747 0
M  V30 2438 H 236.631 -3.7377 2.20178 0
M  V30 2439 H 237.302 -5.27126 1.63837 0
M  V30 2440 H 239.778 -4.16051 0.0638529 0
M  V30 2441 H 238.654 -5.47717 -0.360115 0
M  V30 2442 H 238.915 -4.16101 -1.49373 0
M  V30 2443 N 237.974 -0.419461 -1.51915 0
M  V30 2444 C 238.904 0.391813 -2.30189 0
M  V30 2445 C 239.885 1.03699 -1.34836 0
M  V30 2446 O 241.07 1.04403 -1.63748 0
M  V30 2447 C 238.2 1.50312 -3.13087 0
M  V30 2448 C 237.154 0.9824 -4.16573 0
M  V30 2449 C 236.48 2.18809 -4.8788 0
M  V30 2450 C 237.78 0.0292356 -5.22292 0
M  V30 2451 H 239.474 -0.26135 -2.98257 0
M  V30 2452 H 237.02 -0.127134 -1.43438 0
M  V30 2453 H 238.973 2.07773 -3.66617 0
M  V30 2454 H 237.697 2.18431 -2.42807 0
M  V30 2455 H 236.356 0.430119 -3.64068 0
M  V30 2456 H 236.004 2.85507 -4.14119 0
M  V30 2457 H 235.704 1.84615 -5.57845 0
M  V30 2458 H 237.228 2.76858 -5.44226 0
M  V30 2459 H 238.642 0.512976 -5.71 0
M  V30 2460 H 237.039 -0.2244 -5.9968 0
M  V30 2461 H 238.109 -0.912931 -4.76228 0
M  V30 2462 N 239.452 1.56882 -0.150215 0
M  V30 2463 C 240.698 1.96518 0.500834 0
M  V30 2464 C 241.031 1.03527 1.64304 0
M  V30 2465 O 240.306 0.0782751 1.94342 0
M  V30 2466 C 240.589 3.45822 1.00395 0
M  V30 2467 C 240.442 4.49591 -0.136983 0
M  V30 2468 C 241.761 3.97704 1.88467 0
M  V30 2469 H 238.88 0.714535 0.18058 0
M  V30 2470 H 241.522 1.88577 -0.232091 0
M  V30 2471 H 239.672 3.5272 1.62851 0
M  V30 2472 H 241.344 4.5477 -0.77343 0
M  V30 2473 H 239.587 4.26441 -0.795652 0
M  V30 2474 H 240.258 5.51402 0.256815 0
M  V30 2475 H 242.734 3.93304 1.35834 0
M  V30 2476 H 241.61 5.0263 2.20578 0
M  V30 2477 H 241.871 3.40252 2.82279 0
M  V30 2478 N 240.93 -0.123565 1.57115 0
M  V30 2479 C 242.155 -0.850398 1.89164 0
M  V30 2480 C 242.58 -1.7286 0.741688 0
M  V30 2481 O 241.938 -1.78665 -0.307958 0
M  V30 2482 C 241.986 -1.66353 3.19936 0
M  V30 2483 O 241.09 -2.77004 3.0552 0
M  V30 2484 H 240.431 -0.235454 0.620852 0
M  V30 2485 H 242.961 -0.107335 2.04318 0
M  V30 2486 H 242.971 -2.05372 3.52543 0
M  V30 2487 H 241.646 -1.01881 4.03228 0
M  V30 2488 H 240.223 -2.41221 2.84371 0
M  V30 2489 N 242.408 -1.52605 -0.393616 0
M  V30 2490 C 243.824 -1.41753 -0.733357 0
M  V30 2491 C 244.024 -0.534293 -1.94287 0
M  V30 2492 O 243.08 -0.0059787 -2.52499 0
M  V30 2493 C 244.393 -2.84531 -0.972772 0
M  V30 2494 C 245.941 -2.93978 -1.07453 0
M  V30 2495 C 246.416 -4.37756 -1.3466 0
M  V30 2496 N 247.907 -4.4106 -1.41492 0
M  V30 2497 C 248.642 -5.49387 -1.642 0
M  V30 2498 N 248.138 -6.67806 -1.8441 0
M  V30 2499 N 249.931 -5.36923 -1.66342 0
M  V30 2500 H 242.082 -2.08555 0.402328 0
M  V30 2501 H 244.345 -0.940654 0.117789 0
M  V30 2502 H 244.051 -3.51353 -0.156204 0
M  V30 2503 H 243.925 -3.26508 -1.88871 0
M  V30 2504 H 246.312 -2.27326 -1.88167 0
M  V30 2505 H 246.393 -2.55435 -0.136605 0
M  V30 2506 H 246.037 -5.04972 -0.544581 0
M  V30 2507 H 245.967 -4.73848 -2.2973 0
M  V30 2508 H 248.458 -3.55705 -1.27601 0
M  V30 2509 H 248.771 -7.46141 -2.01231 0
M  V30 2510 H 247.116 -6.70843 -1.81644 0
M  V30 2511 H 250.307 -4.43381 -1.50102 0
M  V30 2512 H 250.48 -6.21416 -1.837 0
M  V30 2513 N 243.887 0.651787 -1.4349 0
M  V30 2514 C 245.136 1.40754 -1.44469 0
M  V30 2515 C 245.449 1.95463 -0.0731845 0
M  V30 2516 O 246.655 2.71471 0.0395721 0
M  V30 2517 C 245.111 2.54735 -2.5424 0
M  V30 2518 C 244.719 2.06628 -3.97504 0
M  V30 2519 C 246.463 3.32092 -2.64414 0
M  V30 2520 C 244.37 3.17829 -4.98737 0
M  V30 2521 H 243.3 0.528862 -0.53742 0
M  V30 2522 H 245.951 0.703365 -1.69485 0
M  V30 2523 H 244.333 3.2763 -2.22428 0
M  V30 2524 H 245.507 1.40734 -4.38783 0
M  V30 2525 H 243.822 1.42146 -3.91387 0
M  V30 2526 H 246.419 4.14952 -3.37223 0
M  V30 2527 H 246.762 3.80217 -1.69532 0
M  V30 2528 H 247.295 2.66279 -2.95534 0
M  V30 2529 H 244.034 2.74671 -5.95177 0
M  V30 2530 H 243.554 3.82429 -4.62069 0
M  V30 2531 H 245.233 3.82937 -5.21505 0
M  V30 2532 N 245.365 1.30045 0.890287 0
M  V30 2533 C 246.328 1.15963 1.977 0
M  V30 2534 C 247.328 0.0923777 1.60534 0
M  V30 2535 O 248.518 0.340071 1.70848 0
M  V30 2536 C 245.65 0.775451 3.31963 0
M  V30 2537 H 246.843 2.12502 2.11619 0
M  V30 2538 H 244.396 1.13366 1.07601 0
M  V30 2539 H 245.131 -0.189671 3.23745 0
M  V30 2540 H 244.916 1.54668 3.60306 0
M  V30 2541 H 246.406 0.700251 4.11687 0
M  V30 2542 N 246.843 -1.10192 1.12674 0
M  V30 2543 C 247.806 -2.14786 0.799979 0
M  V30 2544 C 248.806 -1.59711 -0.18685 0
M  V30 2545 O 249.996 -1.74156 0.0392558 0
M  V30 2546 C 247.128 -3.40374 0.189228 0
M  V30 2547 H 248.321 -2.45203 1.72671 0
M  V30 2548 H 245.874 -1.25597 0.930326 0
M  V30 2549 H 246.609 -3.15577 -0.747107 0
M  V30 2550 H 246.394 -3.81637 0.899766 0
M  V30 2551 H 247.884 -4.17594 -0.0228143 0
M  V30 2552 N 248.321 -0.919034 -1.28029 0
M  V30 2553 C 249.567 -0.565221 -1.95389 0
M  V30 2554 C 249.922 0.882325 -1.70976 0
M  V30 2555 O 249.215 1.61988 -1.02325 0
M  V30 2556 C 249.409 -0.816855 -3.4794 0
M  V30 2557 C 249.238 -2.28731 -3.87185 0
M  V30 2558 C 248.008 -2.93841 -4.11079 0
M  V30 2559 C 250.206 -3.26415 -3.97439 0
M  V30 2560 N 248.188 -4.31129 -4.37037 0
M  V30 2561 C 249.559 -4.48884 -4.27672 0
M  V30 2562 C 251.614 -3.21742 -3.79982 0
M  V30 2563 C 250.317 -5.67268 -4.42266 0
M  V30 2564 C 252.343 -4.39431 -3.95796 0
M  V30 2565 C 251.705 -5.60675 -4.26407 0
M  V30 2566 H 247.804 -0.256797 -0.738633 0
M  V30 2567 H 250.388 -1.18386 -1.54573 0
M  V30 2568 H 248.559 -0.227445 -3.87733 0
M  V30 2569 H 250.291 -0.426542 -4.02446 0
M  V30 2570 H 247.046 -2.44547 -4.05578 0
M  V30 2571 H 247.47 -5.02127 -4.5409 0
M  V30 2572 H 252.112 -2.29079 -3.55363 0
M  V30 2573 H 249.83 -6.60406 -4.65714 0
M  V30 2574 H 253.416 -4.37323 -3.83719 0
M  V30 2575 H 252.296 -6.50223 -4.38383 0
M  V30 2576 N 249.799 1.42003 -0.683588 0
M  V30 2577 C 250.732 2.28166 0.039592 0
M  V30 2578 C 251.71 1.41562 0.799942 0
M  V30 2579 O 252.894 1.70997 0.793248 0
M  V30 2580 C 250.021 3.21575 1.06335 0
M  V30 2581 C 249.067 4.24643 0.397562 0
M  V30 2582 S 249.9 5.2869 -0.851296 0
M  V30 2583 C 251.056 6.25666 0.171166 0
M  V30 2584 H 251.289 2.89153 -0.691229 0
M  V30 2585 H 248.822 1.46962 -0.473435 0
M  V30 2586 H 250.78 3.75928 1.6489 0
M  V30 2587 H 249.441 2.59707 1.76667 0
M  V30 2588 H 248.634 4.90223 1.17035 0
M  V30 2589 H 248.236 3.73824 -0.114611 0
M  V30 2590 H 250.528 6.69653 1.02819 0
M  V30 2591 H 251.471 7.06666 -0.450397 0
M  V30 2592 H 251.879 5.62095 0.520578 0
M  V30 2593 N 251.277 0.427512 1.51691 0
M  V30 2594 C 252.24 -0.377132 2.26076 0
M  V30 2595 C 253.24 -0.958089 1.29141 0
M  V30 2596 O 254.43 -0.83408 1.52934 0
M  V30 2597 C 251.562 -1.53262 3.04506 0
M  V30 2598 H 252.755 0.27464 2.9864 0
M  V30 2599 H 250.308 0.180445 1.55255 0
M  V30 2600 H 251.043 -2.22072 2.36335 0
M  V30 2601 H 250.828 -1.12232 3.75694 0
M  V30 2602 H 252.318 -2.10135 3.60878 0
M  V30 2603 N 252.755 -1.56801 0.158532 0
M  V30 2604 C 253.983 -2.00859 -0.496303 0
M  V30 2605 C 254.398 -1.03871 -1.57659 0
M  V30 2606 O 253.755 -0.0375165 -1.82461 0
M  V30 2607 C 253.806 -3.4479 -1.08638 0
M  V30 2608 O 253.527 -4.38072 -0.0492322 0
M  V30 2609 C 255.028 -4.04185 -1.8207 0
M  V30 2610 H 252.248 -0.65864 -0.128199 0
M  V30 2611 H 254.792 -2.02885 0.256506 0
M  V30 2612 H 252.947 -3.43579 -1.78975 0
M  V30 2613 H 253.361 -5.2227 -0.483102 0
M  V30 2614 H 254.835 -5.06857 -2.18633 0
M  V30 2615 H 255.312 -3.45549 -2.71095 0
M  V30 2616 H 255.918 -4.0906 -1.16405 0
M  V30 2617 N 254.233 0.115231 -1.57178 0
M  V30 2618 C 255.463 0.835224 -1.88964 0
M  V30 2619 C 255.871 1.73774 -0.74829 0
M  V30 2620 O 255.214 1.81401 0.289739 0
M  V30 2621 C 255.276 1.7178 -3.15804 0
M  V30 2622 C 254.94 0.989198 -4.46166 0
M  V30 2623 C 255.937 0.328263 -5.18863 0
M  V30 2624 C 253.622 0.969256 -4.9286 0
M  V30 2625 C 255.616 -0.342873 -6.36477 0
M  V30 2626 C 253.303 0.294324 -6.10391 0
M  V30 2627 C 254.301 -0.360582 -6.82048 0
M  V30 2628 O 253.989 -1.02474 -7.97342 0
M  V30 2629 H 253.721 0.245197 -0.629964 0
M  V30 2630 H 256.275 0.10303 -2.05141 0
M  V30 2631 H 254.505 2.49173 -2.95719 0
M  V30 2632 H 256.194 2.31255 -3.33581 0
M  V30 2633 H 256.96 0.335263 -4.8384 0
M  V30 2634 H 252.839 1.46844 -4.36987 0
M  V30 2635 H 256.383 -0.854629 -6.92345 0
M  V30 2636 H 252.28 0.285099 -6.4487 0
M  V30 2637 H 253.048 -0.929594 -8.13204 0
M  V30 2638 N 255.711 1.52812 0.385517 0
M  V30 2639 C 256.641 1.80808 1.47752 0
M  V30 2640 C 257.622 0.660318 1.5676 0
M  V30 2641 O 258.807 0.908246 1.71652 0
M  V30 2642 C 255.937 1.98008 2.85324 0
M  V30 2643 C 254.891 3.13709 2.91154 0
M  V30 2644 C 254.217 3.16169 4.31209 0
M  V30 2645 C 255.517 4.52709 2.60483 0
M  V30 2646 H 257.211 2.72253 1.24573 0
M  V30 2647 H 254.757 1.31003 0.597839 0
M  V30 2648 H 256.71 2.16176 3.61726 0
M  V30 2649 H 255.434 1.03255 3.09848 0
M  V30 2650 H 254.093 2.95329 2.17201 0
M  V30 2651 H 253.741 2.19092 4.52778 0
M  V30 2652 H 253.441 3.93894 4.36029 0
M  V30 2653 H 254.965 3.36496 5.09512 0
M  V30 2654 H 256.379 4.71173 3.26602 0
M  V30 2655 H 254.776 5.32528 2.76648 0
M  V30 2656 H 255.846 4.59186 1.55809 0
M  V30 2657 N 257.189 -0.644168 1.43834 0
M  V30 2658 C 258.137 -1.77793 1.49974 0
M  V30 2659 C 259.131 -1.65253 0.372536 0
M  V30 2660 O 260.337 -1.7149 0.546924 0
M  V30 2661 H 256.712 -0.58675 0.47035 0
M  V30 2662 H 258.683 -1.69736 2.45423 0
M  V30 2663 C 257.432 -3.16087 1.4486 0
M  V30 2664 H 256.755 -3.26378 2.30905 0
M  V30 2665 H 258.195 -3.95349 1.53217 0
M  V30 2666 C 256.654 -3.36484 0.167463 0
M  V30 2667 O 257.184 -3.94298 -0.767609 0
M  V30 2668 N 255.39 -2.90504 0.0747556 0
M  V30 2669 H 254.937 -2.4364 0.836507 0
M  V30 2670 H 254.895 -3.04527 -0.781714 0
M  V30 2671 N 258.668 -1.30515 -0.883378 0
M  V30 2672 C 259.945 -1.10086 -1.6168 0
M  V30 2673 C 260.325 0.349269 -2.08191 0
M  V30 2674 O 259.673 1.34105 -1.85008 0
M  V30 2675 C 259.883 -2.10315 -2.78511 0
M  V30 2676 C 261.231 -2.42119 -3.48803 0
M  V30 2677 O 262.255 -2.08638 -2.88702 0
M  V30 2678 O 261.114 -2.99396 -4.57192 0
M  V30 2679 H 258.208 -0.422907 -0.710689 0
M  V30 2680 H 260.754 -1.41947 -0.930015 0
M  V30 2681 H 259.526 -3.07917 -2.41459 0
M  V30 2682 H 259.149 -1.79282 -3.54886 0
M  V30 2683 N 260.146 1.09593 -1.13257 0
M  V30 2684 C 261.096 2.14345 -0.777179 0
M  V30 2685 C 262.08 1.59277 0.227966 0
M  V30 2686 O 263.272 1.76971 0.0321413 0
M  V30 2687 C 260.401 3.42439 -0.242991 0
M  V30 2688 C 259.487 4.04419 -1.27694 0
M  V30 2689 N 259.878 4.40979 -2.47732 0
M  V30 2690 C 258.176 4.31596 -1.12432 0
M  V30 2691 C 258.877 4.89784 -3.13826 0
M  V30 2692 N 257.853 4.87133 -2.41252 0
M  V30 2693 H 261.655 2.40415 -1.69049 0
M  V30 2694 H 259.169 1.26803 -1.01463 0
M  V30 2695 H 261.166 4.16889 0.0298496 0
M  V30 2696 H 259.826 3.17824 0.66467 0
M  V30 2697 H 260.837 4.32396 -2.85051 0
M  V30 2698 H 257.514 4.16595 -0.274684 0
M  V30 2699 H 258.904 5.2755 -4.16102 0
M  V30 2700 N 261.624 0.925811 1.2754 0
M  V30 2701 C 262.554 0.440748 2.29303 0
M  V30 2702 C 263.535 -0.497971 1.62648 0
M  V30 2703 O 264.72 -0.403126 1.8997 0
M  V30 2704 C 261.85 -0.309048 3.45922 0
M  V30 2705 C 260.804 0.54166 4.24559 0
M  V30 2706 C 260.13 -0.337191 5.33636 0
M  V30 2707 C 261.43 1.80516 4.90114 0
M  V30 2708 H 263.124 1.29121 2.70126 0
M  V30 2709 H 260.67 0.622323 1.29858 0
M  V30 2710 H 262.623 -0.659315 4.1621 0
M  V30 2711 H 261.347 -1.19352 3.04011 0
M  V30 2712 H 260.006 0.874609 3.56014 0
M  V30 2713 H 259.654 -1.22056 4.87966 0
M  V30 2714 H 259.354 0.228497 5.87156 0
M  V30 2715 H 260.878 -0.683072 6.06767 0
M  V30 2716 H 262.292 1.52307 5.52698 0
M  V30 2717 H 260.689 2.3142 5.53683 0
M  V30 2718 H 261.759 2.52581 4.13921 0
M  V30 2719 N 263.102 -1.41638 0.69111 0
M  V30 2720 C 264.012 -2.34588 0.0233487 0
M  V30 2721 C 265.028 -1.55987 -0.770984 0
M  V30 2722 O 266.204 -1.88486 -0.709569 0
M  V30 2723 C 263.269 -3.34684 -0.904851 0
M  V30 2724 C 262.33 -4.29176 -0.103225 0
M  V30 2725 C 261.563 -5.2449 -0.987216 0
M  V30 2726 O 261.786 -5.2514 -2.22674 0
M  V30 2727 O 260.72 -6.00295 -0.439281 0
M  V30 2728 H 264.546 -2.93261 0.789416 0
M  V30 2729 H 262.131 -1.42417 0.45142 0
M  V30 2730 H 264.013 -3.96133 -1.43724 0
M  V30 2731 H 262.688 -2.78461 -1.65049 0
M  V30 2732 H 261.595 -3.71089 0.473655 0
M  V30 2733 H 262.928 -4.88484 0.60365 0
M  V30 2734 N 264.58 -0.43555 -1.51462 0
M  V30 2735 C 265.991 0.0279871 -1.86679 0
M  V30 2736 C 266.342 1.42104 -1.35281 0
M  V30 2737 O 265.467 2.04667 -0.702878 0
M  V30 2738 C 266.062 0.0575626 -3.38751 0
M  V30 2739 C 264.621 0.465507 -3.7351 0
M  V30 2740 C 263.768 -0.342996 -2.75171 0
M  V30 2741 H 266.719 -0.651473 -1.44712 0
M  V30 2742 H 266.74 0.867421 -3.70481 0
M  V30 2743 H 266.252 -0.956448 -3.7613 0
M  V30 2744 H 264.353 1.48519 -3.41721 0
M  V30 2745 H 264.466 0.191546 -4.78717 0
M  V30 2746 H 262.83 0.198442 -2.53926 0
M  V30 2747 H 263.613 -1.35585 -3.15391 0
M  V30 2748 N 266.058 1.56714 -0.166846 0
M  V30 2749 C 267.304 1.97813 0.473473 0
M  V30 2750 C 267.659 1.05095 1.61161 0
M  V30 2751 O 266.952 0.0897541 1.9139 0
M  V30 2752 C 267.146 3.42889 1.00806 0
M  V30 2753 C 266.975 4.49635 -0.0767392 0
M  V30 2754 C 265.745 5.02566 -0.524894 0
M  V30 2755 C 267.943 5.06793 -0.875504 0
M  V30 2756 N 265.925 5.9294 -1.59047 0
M  V30 2757 C 267.296 5.93565 -1.79111 0
M  V30 2758 C 269.351 4.89306 -0.921083 0
M  V30 2759 C 268.054 6.64721 -2.74843 0
M  V30 2760 C 270.08 5.61179 -1.86633 0
M  V30 2761 C 269.442 6.47675 -2.76942 0
M  V30 2762 H 265.541 0.769093 0.141489 0
M  V30 2763 H 268.125 1.92874 -0.266031 0
M  V30 2764 H 266.296 3.48382 1.7171 0
M  V30 2765 H 268.028 3.71008 1.61664 0
M  V30 2766 H 264.783 4.73439 -0.123432 0
M  V30 2767 H 265.207 6.42831 -2.12361 0
M  V30 2768 H 269.849 4.22136 -0.23692 0
M  V30 2769 H 267.567 7.31107 -3.44249 0
M  V30 2770 H 271.153 5.49636 -1.90764 0
M  V30 2771 H 270.033 7.02313 -3.48893 0
M  V30 2772 N 267.536 -0.106894 1.57237 0
M  V30 2773 C 268.785 -0.811163 1.8467 0
M  V30 2774 C 269.098 -1.80469 0.754342 0
M  V30 2775 O 270.304 -2.55601 0.915439 0
M  V30 2776 C 268.76 -1.49337 3.27454 0
M  V30 2777 C 268.368 -0.540217 4.44731 0
M  V30 2778 C 270.112 -2.18206 3.64124 0
M  V30 2779 C 268.019 -1.22634 5.78545 0
M  V30 2780 H 266.949 -0.306679 0.688813 0
M  V30 2781 H 269.6 -0.0639887 1.83388 0
M  V30 2782 H 267.982 -2.2876 3.23241 0
M  V30 2783 H 269.156 0.221659 4.60267 0
M  V30 2784 H 267.471 0.042146 4.16379 0
M  V30 2785 H 270.068 -2.70253 4.61376 0
M  V30 2786 H 270.411 -2.96562 2.92158 0
M  V30 2787 H 270.944 -1.45658 3.70174 0
M  V30 2788 H 267.683 -0.483832 6.53712 0
M  V30 2789 H 267.203 -1.95993 5.66874 0
M  V30 2790 H 268.882 -1.75615 6.2271 0
M  V30 2791 N 269.014 -1.53014 -0.377408 0
M  V30 2792 C 269.946 -1.74884 -1.48149 0
M  V30 2793 C 270.959 -0.629433 -1.5014 0
M  V30 2794 O 272.148 -0.905416 -1.53833 0
M  V30 2795 C 269.248 -1.80299 -2.86959 0
M  V30 2796 C 268.421 -3.09776 -3.08801 0
M  V30 2797 C 267.48 -3.06586 -4.27658 0
M  V30 2798 O 266.506 -3.80419 -4.23403 0
M  V30 2799 N 267.708 -2.26578 -5.34455 0
M  V30 2800 H 270.473 -2.70147 -1.29771 0
M  V30 2801 H 268.034 -1.51646 -0.56703 0
M  V30 2802 H 270.026 -1.75657 -3.64591 0
M  V30 2803 H 268.596 -0.92372 -2.98641 0
M  V30 2804 H 267.816 -3.27815 -2.18931 0
M  V30 2805 H 269.104 -3.95366 -3.20255 0
M  V30 2806 H 268.502 -1.66081 -5.40771 0
M  V30 2807 H 267.059 -2.27766 -6.10709 0
M  V30 2808 N 270.492 0.636531 -1.44174 0
M  V30 2809 C 271.402 1.77754 -1.53103 0
M  V30 2810 C 272.418 1.68928 -0.417034 0
M  V30 2811 O 273.594 1.89801 -0.6736 0
M  V30 2812 C 270.659 3.14115 -1.46741 0
M  V30 2813 C 269.72 3.34612 -2.68948 0
M  V30 2814 C 268.953 4.64467 -2.6288 0
M  V30 2815 O 269.176 5.44919 -1.68581 0
M  V30 2816 O 268.11 4.87049 -3.53648 0
M  V30 2817 H 271.936 1.73174 -2.49489 0
M  V30 2818 H 269.521 0.79709 -1.2636 0
M  V30 2819 H 271.403 3.95412 -1.45696 0
M  V30 2820 H 270.078 3.19249 -0.534975 0
M  V30 2821 H 268.985 2.53014 -2.75562 0
M  V30 2822 H 270.318 3.34336 -3.61221 0
M  V30 2823 N 271.97 1.30982 0.876444 0
M  V30 2824 C 272.918 1.18006 2.00443 0
M  V30 2825 C 273.912 0.0898871 1.69161 0
M  V30 2826 O 275.118 0.251333 1.78237 0
M  V30 2827 H 271.493 0.365196 0.65737 0
M  V30 2828 H 273.464 2.13453 2.0852 0
M  V30 2829 C 272.213 0.897521 3.35916 0
M  V30 2830 H 271.536 1.7285 3.60504 0
M  V30 2831 H 272.976 0.846874 4.15456 0
M  V30 2832 C 271.435 -0.399674 3.34521 0
M  V30 2833 O 271.965 -1.41852 3.7582 0
M  V30 2834 N 270.171 -0.413893 2.87637 0
M  V30 2835 H 269.718 0.41571 2.54224 0
M  V30 2836 H 269.676 -1.28175 2.87086 0
M  V30 2837 N 273.449 -1.08991 1.13837 0
M  V30 2838 C 274.697 -1.80899 0.901098 0
M  V30 2839 C 275.018 -1.86356 -0.574134 0
M  V30 2840 O 274.288 -1.35235 -1.41733 0
M  V30 2841 H 272.868 -0.669966 0.330386 0
M  V30 2842 H 275.53 -1.318 1.43578 0
M  V30 2843 H 274.626 -2.83929 1.29578 0
M  V30 2844 N 274.927 -0.932562 -1.27047 0
M  V30 2845 C 276.175 -0.574422 -1.93765 0
M  V30 2846 C 276.496 0.887993 -1.73608 0
M  V30 2847 O 275.766 1.62999 -1.08665 0
M  V30 2848 H 274.346 -0.209451 -0.717035 0
M  V30 2849 H 277.008 -1.18601 -1.5466 0
M  V30 2850 H 276.104 -0.784841 -3.02071 0
M  V30 2851 N 276.405 1.4127 -0.698611 0
M  V30 2852 C 277.651 2.01979 -0.239972 0
M  V30 2853 C 278.006 1.54353 1.14861 0
M  V30 2854 O 277.299 0.746218 1.76471 0
M  V30 2855 C 277.493 3.56592 -0.240192 0
M  V30 2856 C 277.322 4.19226 -1.62726 0
M  V30 2857 C 276.092 4.53389 -2.23084 0
M  V30 2858 C 278.29 4.45228 -2.57443 0
M  V30 2859 N 276.272 5.01327 -3.54323 0
M  V30 2860 C 277.643 4.94973 -3.73365 0
M  V30 2861 C 279.698 4.27243 -2.55671 0
M  V30 2862 C 278.401 5.28624 -4.878 0
M  V30 2863 C 280.427 4.61985 -3.69221 0
M  V30 2864 C 279.789 5.11904 -4.83873 0
M  V30 2865 H 275.888 0.770561 -0.133269 0
M  V30 2866 H 278.472 1.71767 -0.916748 0
M  V30 2867 H 276.643 3.86271 0.406082 0
M  V30 2868 H 278.375 4.04025 0.23356 0
M  V30 2869 H 275.13 4.39946 -1.75341 0
M  V30 2870 H 275.554 5.29697 -4.21604 0
M  V30 2871 H 280.196 3.87884 -1.68243 0
M  V30 2872 H 277.914 5.66905 -5.75885 0
M  V30 2873 H 281.5 4.49725 -3.69105 0
M  V30 2874 H 280.38 5.38282 -5.70282 0
M  V30 2875 N 277.883 0.443576 1.51229 0
M  V30 2876 C 279.16 -0.181038 1.9476 0
M  V30 2877 C 279.54 -1.59523 1.38259 0
M  V30 2878 O 278.888 -2.2122 0.572198 0
M  V30 2879 C 279.098 -0.152422 3.48667 0
M  V30 2880 C 280.446 -0.354923 4.23114 0
M  V30 2881 O 281.47 -0.230257 3.55455 0
M  V30 2882 O 280.329 -0.603674 5.43156 0
M  V30 2883 H 277.423 -0.1266 0.817252 0
M  V30 2884 H 279.969 0.502004 1.62105 0
M  V30 2885 H 278.741 0.836022 3.82265 0
M  V30 2886 H 278.364 -0.878107 3.87782 0
M  V30 2887 N 279.361 -1.56624 0.175154 0
M  V30 2888 C 280.589 -2.01374 -0.474971 0
M  V30 2889 C 281.004 -1.05537 -1.56548 0
M  V30 2890 O 280.361 -0.0568668 -1.82411 0
M  V30 2891 C 280.412 -3.45923 -1.04975 0
M  V30 2892 O 280.133 -4.381 -0.00276605 0
M  V30 2893 C 281.634 -4.06093 -1.77773 0
M  V30 2894 H 278.854 -0.659962 -0.121206 0
M  V30 2895 H 281.398 -2.02601 0.27801 0
M  V30 2896 H 279.553 -3.45458 -1.75321 0
M  V30 2897 H 279.967 -5.22753 -0.427681 0
M  V30 2898 H 281.441 -5.09147 -2.13245 0
M  V30 2899 H 281.918 -3.48405 -2.67414 0
M  V30 2900 H 282.524 -4.10272 -1.12059 0
M  V30 2901 N 280.839 0.0985539 -1.57292 0
M  V30 2902 C 282.086 0.802678 -1.85912 0
M  V30 2903 C 282.414 1.78901 -0.763186 0
M  V30 2904 O 281.669 1.94178 0.243559 0
M  V30 2905 C 281.968 1.56927 -3.21105 0
M  V30 2906 C 281.634 0.725376 -4.45027 0
M  V30 2907 C 280.296 0.492726 -4.78671 0
M  V30 2908 C 282.648 0.138493 -5.21016 0
M  V30 2909 C 279.976 -0.336727 -5.85733 0
M  V30 2910 C 282.328 -0.678264 -6.28953 0
M  V30 2911 C 280.992 -0.921039 -6.61115 0
M  V30 2912 H 280.262 0.293721 -0.680301 0
M  V30 2913 H 282.909 0.0642841 -1.91392 0
M  V30 2914 H 281.214 2.37914 -3.11294 0
M  V30 2915 H 282.911 2.11841 -3.40477 0
M  V30 2916 H 279.501 0.916815 -4.18679 0
M  V30 2917 H 283.685 0.305404 -4.95359 0
M  V30 2918 H 278.941 -0.533836 -6.09065 0
M  V30 2919 H 283.115 -1.1399 -6.87007 0
M  V30 2920 H 280.742 -1.56556 -7.43905 0
M  V30 2921 N 282.317 1.53212 0.369288 0
M  V30 2922 C 283.563 1.69466 1.11397 0
M  V30 2923 C 283.896 0.443257 1.89074 0
M  V30 2924 O 283.171 -0.559386 1.86282 0
M  V30 2925 C 283.454 2.9422 2.07621 0
M  V30 2926 C 283.307 4.29508 1.33577 0
M  V30 2927 C 284.626 3.14565 3.07794 0
M  V30 2928 H 281.745 0.616667 0.403597 0
M  V30 2929 H 284.387 1.85845 0.395179 0
M  V30 2930 H 282.537 2.80387 2.68916 0
M  V30 2931 H 284.209 4.55147 0.750955 0
M  V30 2932 H 282.452 4.29088 0.637618 0
M  V30 2933 H 283.123 5.12926 2.03989 0
M  V30 2934 H 285.599 3.2756 2.56601 0
M  V30 2935 H 284.475 4.03297 3.72348 0
M  V30 2936 H 284.736 2.29675 3.77759 0
M  V30 2937 N 283.795 -0.628877 1.44509 0
M  V30 2938 C 284.705 -1.7694 1.54044 0
M  V30 2939 C 285.721 -1.68705 0.425987 0
M  V30 2940 O 286.897 -1.89442 0.683656 0
M  V30 2941 C 283.962 -3.13332 1.48405 0
M  V30 2942 C 283.023 -3.33181 2.70719 0
M  V30 2943 C 282.256 -4.63067 2.6534 0
M  V30 2944 O 282.479 -5.44017 1.71469 0
M  V30 2945 O 281.413 -4.85167 3.56226 0
M  V30 2946 H 285.239 -1.71848 2.50403 0
M  V30 2947 H 282.824 -0.790378 1.26781 0
M  V30 2948 H 284.706 -3.94634 1.47791 0
M  V30 2949 H 283.381 -3.1896 0.551898 0
M  V30 2950 H 282.288 -2.51549 2.769 0
M  V30 2951 H 283.621 -3.32416 3.62988 0
M  V30 2952 N 285.273 -1.31445 -0.869486 0
M  V30 2953 C 286.203 -1.21727 -1.99261 0
M  V30 2954 C 287.184 -0.104359 -1.6978 0
M  V30 2955 O 288.369 -0.289038 -1.92037 0
M  V30 2956 C 285.499 -0.924317 -3.34774 0
M  V30 2957 C 284.453 -1.99685 -3.78563 0
M  V30 2958 C 283.779 -1.55658 -5.11541 0
M  V30 2959 C 285.079 -3.41003 -3.95619 0
M  V30 2960 H 286.773 -2.1569 -2.07649 0
M  V30 2961 H 284.319 -1.03839 -0.997675 0
M  V30 2962 H 286.272 -0.842934 -4.12883 0
M  V30 2963 H 284.996 0.0509793 -3.2656 0
M  V30 2964 H 283.655 -2.06813 -3.02694 0
M  V30 2965 H 283.303 -0.569132 -4.9977 0
M  V30 2966 H 283.003 -2.27409 -5.41811 0
M  V30 2967 H 284.527 -1.48928 -5.92159 0
M  V30 2968 H 285.941 -3.36547 -4.64122 0
M  V30 2969 H 284.338 -4.10975 -4.37286 0
M  V30 2970 H 285.408 -3.81754 -2.98985 0
M  V30 2971 N 286.751 1.08385 -1.14413 0
M  V30 2972 C 287.981 1.8425 -0.934644 0
M  V30 2973 C 288.389 1.81907 0.520234 0
M  V30 2974 O 287.732 1.22126 1.37226 0
M  V30 2975 C 287.794 3.32853 -1.35828 0
M  V30 2976 C 287.458 3.5893 -2.82875 0
M  V30 2977 C 288.455 3.53756 -3.80989 0
M  V30 2978 C 286.14 3.86934 -3.20293 0
M  V30 2979 C 288.134 3.76216 -5.14529 0
M  V30 2980 C 285.821 4.09047 -4.54008 0
M  V30 2981 C 286.819 4.03682 -5.50936 0
M  V30 2982 O 286.507 4.25214 -6.82238 0
M  V30 2983 H 286.239 0.588502 -0.332628 0
M  V30 2984 H 288.793 1.37792 -1.52324 0
M  V30 2985 H 287.023 3.8007 -0.713019 0
M  V30 2986 H 288.712 3.90154 -1.11957 0
M  V30 2987 H 289.478 3.32135 -3.53428 0
M  V30 2988 H 285.357 3.9023 -2.45442 0
M  V30 2989 H 288.901 3.71943 -5.90173 0
M  V30 2990 H 284.798 4.30151 -4.8129 0
M  V30 2991 H 285.566 4.42619 -6.88499 0
M  V30 2992 N 288.23 0.939286 1.26551 0
M  V30 2993 C 289.478 0.58469 1.93457 0
M  V30 2994 C 289.799 -0.878774 1.74076 0
M  V30 2995 O 289.069 -1.62421 1.09528 0
M  V30 2996 H 287.649 0.21325 0.715914 0
M  V30 2997 H 290.311 1.1942 1.54029 0
M  V30 2998 H 289.407 0.800849 3.0165 0
M  V30 2999 N 289.708 -1.40897 0.706093 0
M  V30 3000 C 290.656 -2.32572 0.0361893 0
M  V30 3001 C 291.65 -1.51532 -0.757266 0
M  V30 3002 O 292.856 -1.67396 -0.661703 0
M  V30 3003 H 289.231 -0.751966 -0.00709935 0
M  V30 3004 H 291.202 -2.86733 0.826249 0
M  V30 3005 C 289.951 -3.36418 -0.87854 0
M  V30 3006 H 289.274 -3.98836 -0.277401 0
M  V30 3007 H 290.714 -4.0308 -1.3154 0
M  V30 3008 C 289.173 -2.71141 -1.99961 0
M  V30 3009 O 289.703 -2.56735 -3.0895 0
M  V30 3010 N 287.909 -2.29671 -1.78043 0
M  V30 3011 H 287.456 -2.41588 -0.894042 0
M  V30 3012 H 287.414 -1.86332 -2.53235 0
M  V30 3013 N 291.186 -0.45159 -1.50991 0
M  V30 3014 C 292.134 0.366864 -2.29689 0
M  V30 3015 C 293.128 1.00809 -1.36139 0
M  V30 3016 O 294.334 0.941427 -1.53418 0
M  V30 3017 H 290.709 0.137133 -0.739391 0
M  V30 3018 H 292.68 -0.317538 -2.96706 0
M  V30 3019 C 291.429 1.44751 -3.16137 0
M  V30 3020 H 290.752 0.963473 -3.88017 0
M  V30 3021 H 292.192 1.99315 -3.74232 0
M  V30 3022 C 290.651 2.43869 -2.32442 0
M  V30 3023 O 291.181 3.4872 -1.99392 0
M  V30 3024 N 289.387 2.15105 -1.95392 0
M  V30 3025 H 288.934 1.29866 -2.22469 0
M  V30 3026 H 288.892 2.81661 -1.39693 0
M  V30 3027 N 292.664 1.56529 -0.183458 0
M  V30 3028 C 293.627 2.17324 0.728223 0
M  V30 3029 C 294.627 1.12453 1.14939 0
M  V30 3030 O 295.817 1.37902 1.06437 0
M  V30 3031 C 292.949 2.76591 1.99274 0
M  V30 3032 H 294.142 2.99241 0.198772 0
M  V30 3033 H 291.695 1.5616 0.0661391 0
M  V30 3034 H 292.43 1.98441 2.56499 0
M  V30 3035 H 292.215 3.5335 1.69959 0
M  V30 3036 H 293.705 3.23311 2.6431 0
M  V30 3037 N 294.142 -0.090211 1.57342 0
M  V30 3038 C 295.105 -1.09335 2.01441 0
M  V30 3039 C 296.105 -1.32666 0.908641 0
M  V30 3040 O 297.295 -1.28697 1.174 0
M  V30 3041 C 294.427 -2.44136 2.3793 0
M  V30 3042 H 295.62 -0.713662 2.91285 0
M  V30 3043 H 293.173 -0.335404 1.52659 0
M  V30 3044 H 293.908 -2.86972 1.51055 0
M  V30 3045 H 293.693 -2.28548 3.18603 0
M  V30 3046 H 295.183 -3.16277 2.72688 0
M  V30 3047 N 295.62 -1.53406 -0.361157 0
M  V30 3048 C 296.583 -1.79479 -1.42548 0
M  V30 3049 C 297.583 -0.665327 -1.4639 0
M  V30 3050 O 298.773 -0.933549 -1.47073 0
M  V30 3051 C 295.905 -1.92087 -2.8163 0
M  V30 3052 H 297.098 -2.74538 -1.20701 0
M  V30 3053 H 294.651 -1.4455 -0.594546 0
M  V30 3054 H 295.386 -0.991099 -3.08784 0
M  V30 3055 H 295.171 -2.74241 -2.80239 0
M  V30 3056 H 296.661 -2.13836 -3.58697 0
M  V30 3057 N 297.098 0.621204 -1.44841 0
M  V30 3058 C 298.008 1.7612 -1.5498 0
M  V30 3059 C 299.024 1.68477 -0.434927 0
M  V30 3060 O 300.2 1.89076 -0.693693 0
M  V30 3061 C 297.265 3.1254 -1.50065 0
M  V30 3062 C 296.326 3.31741 -2.72482 0
M  V30 3063 C 295.559 4.61653 -2.67792 0
M  V30 3064 O 295.782 5.431 -1.74352 0
M  V30 3065 O 294.716 4.83271 -3.58794 0
M  V30 3066 H 298.542 1.70518 -2.51311 0
M  V30 3067 H 296.127 0.783643 -1.27198 0
M  V30 3068 H 298.009 3.93844 -1.49882 0
M  V30 3069 H 296.684 3.18663 -0.568806 0
M  V30 3070 H 295.591 2.50077 -2.7823 0
M  V30 3071 H 296.924 3.30486 -3.64746 0
M  V30 3072 N 298.576 1.31904 0.862503 0
M  V30 3073 C 299.801 1.25135 1.65397 0
M  V30 3074 C 300.226 -0.179 1.87246 0
M  V30 3075 O 299.584 -1.1277 1.4196 0
M  V30 3076 C 299.632 2.00832 2.99498 0
M  V30 3077 O 298.736 1.35075 3.89652 0
M  V30 3078 H 298.077 0.431655 0.504549 0
M  V30 3079 H 300.607 1.74094 1.07483 0
M  V30 3080 H 300.617 2.10709 3.49379 0
M  V30 3081 H 299.292 3.04847 2.82916 0
M  V30 3082 H 297.869 1.33696 3.48109 0
M  V30 3083 N 300.054 -1.07777 1.14986 0
M  V30 3084 C 301.47 -1.32373 0.891596 0
M  V30 3085 C 301.67 -1.9609 -0.463788 0
M  V30 3086 O 300.726 -2.21801 -1.20667 0
M  V30 3087 C 302.039 -2.21905 2.02925 0
M  V30 3088 C 303.587 -2.35367 2.06329 0
M  V30 3089 C 304.062 -3.28245 3.19405 0
M  V30 3090 N 305.553 -3.35824 3.19024 0
M  V30 3091 C 306.288 -4.07739 4.03158 0
M  V30 3092 N 305.784 -4.82306 4.97346 0
M  V30 3093 N 307.577 -4.03635 3.91197 0
M  V30 3094 H 299.728 -0.648039 2.02273 0
M  V30 3095 H 301.991 -0.348149 0.881757 0
M  V30 3096 H 301.697 -1.82342 3.0074 0
M  V30 3097 H 301.571 -3.22407 1.95789 0
M  V30 3098 H 303.958 -2.74186 1.09116 0
M  V30 3099 H 304.039 -1.34585 2.17533 0
M  V30 3100 H 303.683 -2.90146 4.16867 0
M  V30 3101 H 303.613 -4.28971 3.05437 0
M  V30 3102 H 306.104 -2.8267 2.50811 0
M  V30 3103 H 306.417 -5.34661 5.57994 0
M  V30 3104 H 304.762 -4.81337 5.01338 0
M  V30 3105 H 307.953 -3.44491 3.16928 0
M  V30 3106 H 308.126 -4.59417 4.5699 0
M  V30 3107 N 301.532 -0.945985 -1.26051 0
M  V30 3108 C 302.479 -0.45809 -2.26208 0
M  V30 3109 C 303.449 0.484816 -1.58867 0
M  V30 3110 O 304.634 0.399969 -1.86561 0
M  V30 3111 C 301.774 0.266131 -3.44072 0
M  V30 3112 C 300.887 -0.713005 -4.26075 0
M  V30 3113 C 300.022 0.0329013 -5.3119 0
M  V30 3114 C 299.061 -0.93774 -6.04874 0
M  V30 3115 N 298.198 -0.223274 -7.01745 0
M  V30 3116 H 303.038 -1.3171 -2.67313 0
M  V30 3117 H 300.575 -0.66069 -1.31428 0
M  V30 3118 H 302.533 0.702514 -4.11243 0
M  V30 3119 H 301.163 1.08925 -3.03867 0
M  V30 3120 H 300.215 -1.26789 -3.58648 0
M  V30 3121 H 301.527 -1.45406 -4.77136 0
M  V30 3122 H 300.681 0.528335 -6.04395 0
M  V30 3123 H 299.42 0.806801 -4.8098 0
M  V30 3124 H 298.425 -1.44425 -5.30492 0
M  V30 3125 H 299.65 -1.71172 -6.57173 0
M  V30 3126 H 297.596 0.532046 -6.53839 0
M  V30 3127 H 297.513 -0.90357 -7.50581 0
M  V30 3128 H 298.781 0.250907 -7.79096 0
M  V30 3129 N 303.011 1.40521 -0.713556 0
M  V30 3130 C 304.259 2.00527 -0.251692 0
M  V30 3131 C 304.58 1.56857 1.15848 0
M  V30 3132 O 303.85 0.807127 1.785 0
M  V30 3133 H 302.43 0.741551 -0.0900646 0
M  V30 3134 H 305.092 1.71887 -0.918733 0
M  V30 3135 H 304.188 3.10813 -0.283192 0
M  V30 3136 N 304.489 0.459591 1.5075 0
M  V30 3137 C 305.421 -0.37665 2.26084 0
M  V30 3138 C 306.434 -0.967109 1.30961 0
M  V30 3139 O 307.623 -0.857468 1.56556 0
M  V30 3140 C 304.723 -1.54112 3.01832 0
M  V30 3141 C 303.896 -1.06553 4.24223 0
M  V30 3142 C 302.955 -2.1027 4.82362 0
M  V30 3143 O 301.981 -1.68798 5.43595 0
M  V30 3144 N 303.183 -3.42974 4.68347 0
M  V30 3145 H 305.948 0.269124 2.98489 0
M  V30 3146 H 303.509 0.28972 1.59287 0
M  V30 3147 H 305.501 -2.23165 3.37608 0
M  V30 3148 H 304.071 -2.0918 2.32298 0
M  V30 3149 H 303.291 -0.201274 3.93686 0
M  V30 3150 H 304.579 -0.725516 5.03601 0
M  V30 3151 H 303.977 -3.79385 4.19623 0
M  V30 3152 H 302.534 -4.07858 5.08424 0
M  V30 3153 N 305.967 -1.56429 0.191757 0
M  V30 3154 C 306.877 -2.22541 -0.742481 0
M  V30 3155 C 307.893 -1.22342 -1.23727 0
M  V30 3156 O 309.069 -1.55069 -1.28513 0
M  V30 3157 C 306.134 -2.8692 -1.94623 0
M  V30 3158 C 305.195 -4.02378 -1.49633 0
M  V30 3159 C 304.428 -4.63678 -2.6427 0
M  V30 3160 O 304.651 -4.23895 -3.81666 0
M  V30 3161 O 303.585 -5.53202 -2.37174 0
M  V30 3162 H 307.411 -3.02977 -0.209462 0
M  V30 3163 H 304.996 -1.49353 -0.0373832 0
M  V30 3164 H 306.878 -3.27663 -2.64982 0
M  V30 3165 H 305.553 -2.09466 -2.46791 0
M  V30 3166 H 304.46 -3.66265 -0.761636 0
M  V30 3167 H 305.793 -4.81487 -1.02134 0
M  V30 3168 N 307.445 0.0818655 -1.57387 0
M  V30 3169 C 308.861 0.436412 -1.53517 0
M  V30 3170 C 309.061 1.79758 -0.910459 0
M  V30 3171 O 308.117 2.47324 -0.508636 0
M  V30 3172 C 309.43 0.386734 -2.98203 0
M  V30 3173 C 310.978 0.467644 -3.09487 0
M  V30 3174 C 311.453 0.447978 -4.55804 0
M  V30 3175 N 312.944 0.508348 -4.60402 0
M  V30 3176 C 313.679 0.515184 -5.71081 0
M  V30 3177 N 313.175 0.477435 -6.91153 0
M  V30 3178 N 314.968 0.560988 -5.59294 0
M  V30 3179 H 307.119 -0.809546 -1.96367 0
M  V30 3180 H 309.382 -0.302733 -0.898363 0
M  V30 3181 H 309.088 -0.546539 -3.47427 0
M  V30 3182 H 308.962 1.20075 -3.57578 0
M  V30 3183 H 311.349 1.39134 -2.60242 0
M  V30 3184 H 311.43 -0.374753 -2.5304 0
M  V30 3185 H 311.074 -0.471826 -5.05704 0
M  V30 3186 H 311.004 1.30777 -5.10103 0
M  V30 3187 H 313.495 0.54218 -3.7399 0
M  V30 3188 H 313.808 0.486299 -7.71268 0
M  V30 3189 H 312.153 0.444278 -6.93579 0
M  V30 3190 H 315.344 0.5881 -4.64391 0
M  V30 3191 H 315.517 0.562846 -6.45551 0
M  V30 3192 N 308.923 1.53595 0.353017 0
M  V30 3193 C 310.17 1.70385 1.09431 0
M  V30 3194 C 310.498 0.462113 1.88931 0
M  V30 3195 O 309.753 -0.556074 1.87633 0
M  V30 3196 C 310.052 2.91313 2.07054 0
M  V30 3197 C 309.718 4.27308 1.43939 0
M  V30 3198 C 308.38 4.64287 1.26454 0
M  V30 3199 C 310.732 5.11829 0.983883 0
M  V30 3200 C 308.06 5.83412 0.620226 0
M  V30 3201 C 310.412 6.31611 0.353516 0
M  V30 3202 C 309.076 6.67293 0.166272 0
M  V30 3203 H 308.346 0.623484 0.400436 0
M  V30 3204 H 310.993 1.87799 0.374655 0
M  V30 3205 H 309.298 2.68463 2.85368 0
M  V30 3206 H 310.995 3.01497 2.64387 0
M  V30 3207 H 307.585 3.98198 1.58543 0
M  V30 3208 H 311.769 4.838 1.10685 0
M  V30 3209 H 307.025 6.09639 0.463681 0
M  V30 3210 H 311.199 6.964 -0.00757555 0
M  V30 3211 H 308.826 7.59461 -0.335047 0
M  V30 3212 N 310.401 -0.613514 1.45168 0
M  V30 3213 C 311.349 -1.74572 1.53712 0
M  V30 3214 C 312.343 -1.64426 0.407505 0
M  V30 3215 O 313.549 -1.70291 0.583176 0
M  V30 3216 H 309.924 -0.576641 0.48269 0
M  V30 3217 H 311.895 -1.64492 2.48968 0
M  V30 3218 C 310.644 -3.12943 1.51532 0
M  V30 3219 H 309.967 -3.21407 2.37776 0
M  V30 3220 H 311.407 -3.9201 1.61569 0
M  V30 3221 C 309.866 -3.36053 0.238798 0
M  V30 3222 O 310.396 -3.95837 -0.6838 0
M  V30 3223 N 308.602 -2.9028 0.136359 0
M  V30 3224 H 308.149 -2.41811 0.887999 0
M  V30 3225 H 308.107 -3.06116 -0.716944 0
M  V30 3226 N 311.879 -1.3236 -0.855495 0
M  V30 3227 C 313.295 -1.11332 -1.14356 0
M  V30 3228 C 313.495 0.106751 -2.01217 0
M  V30 3229 O 312.551 0.791891 -2.39761 0
M  V30 3230 C 313.864 -2.39237 -1.82171 0
M  V30 3231 C 315.412 -2.44986 -1.9481 0
M  V30 3232 C 315.887 -3.7281 -2.66039 0
M  V30 3233 N 317.378 -3.73787 -2.73565 0
M  V30 3234 C 318.113 -4.69394 -3.29327 0
M  V30 3235 N 317.609 -5.75367 -3.85907 0
M  V30 3236 N 319.402 -4.56893 -3.27423 0
M  V30 3237 H 311.553 -2.10586 -0.277027 0
M  V30 3238 H 313.816 -0.929701 -0.185364 0
M  V30 3239 H 313.522 -3.28431 -1.25802 0
M  V30 3240 H 313.396 -2.50134 -2.82335 0
M  V30 3241 H 315.783 -1.56252 -2.50338 0
M  V30 3242 H 315.864 -2.38043 -0.936448 0
M  V30 3243 H 315.508 -4.61918 -2.11174 0
M  V30 3244 H 315.438 -3.77024 -3.67642 0
M  V30 3245 H 317.929 -2.97189 -2.33424 0
M  V30 3246 H 318.242 -6.44378 -4.26611 0
M  V30 3247 H 316.587 -5.79123 -3.84242 0
M  V30 3248 H 319.778 -3.73269 -2.82467 0
M  V30 3249 H 319.951 -5.31577 -3.7058 0
M  V30 3250 N 313.357 1.07166 -1.15556 0
M  V30 3251 C 314.603 1.80222 -0.942961 0
M  V30 3252 C 314.958 1.85121 0.524209 0
M  V30 3253 O 314.251 1.32531 1.38369 0
M  V30 3254 C 314.445 3.24707 -1.49332 0
M  V30 3255 C 314.274 3.33887 -3.01247 0
M  V30 3256 C 313.044 3.44337 -3.69811 0
M  V30 3257 C 315.242 3.24484 -3.99017 0
M  V30 3258 N 313.224 3.42439 -5.09518 0
M  V30 3259 C 314.595 3.29726 -5.25053 0
M  V30 3260 C 316.65 3.08307 -3.90962 0
M  V30 3261 C 315.353 3.20455 -6.43973 0
M  V30 3262 C 317.379 3.00371 -5.09442 0
M  V30 3263 C 316.741 3.06227 -6.34354 0
M  V30 3264 H 312.84 0.672709 -0.398731 0
M  V30 3265 H 315.424 1.27905 -1.46794 0
M  V30 3266 H 313.595 3.7544 -0.994946 0
M  V30 3267 H 315.327 3.85894 -1.21935 0
M  V30 3268 H 312.082 3.48762 -3.20409 0
M  V30 3269 H 312.506 3.45013 -5.8249 0
M  V30 3270 H 317.148 3.02633 -2.95251 0
M  V30 3271 H 314.866 3.24888 -7.39914 0
M  V30 3272 H 318.452 2.88955 -5.04971 0
M  V30 3273 H 317.332 3.00132 -7.24493 0
M  V30 3274 N 314.835 0.952656 1.25548 0
M  V30 3275 C 316.082 0.606373 1.93208 0
M  V30 3276 C 316.41 -0.85631 1.74636 0
M  V30 3277 O 315.665 -1.62951 1.08376 0
M  V30 3278 C 315.964 0.908818 3.45652 0
M  V30 3279 C 315.63 2.35722 3.84378 0
M  V30 3280 C 314.292 2.75312 3.9466 0
M  V30 3281 C 316.644 3.29793 4.03591 0
M  V30 3282 C 313.972 4.08047 4.21562 0
M  V30 3283 C 316.324 4.62138 4.31985 0
M  V30 3284 C 314.988 5.01528 4.40484 0
M  V30 3285 H 314.258 0.221888 0.706998 0
M  V30 3286 H 316.905 1.20132 1.49133 0
M  V30 3287 H 315.21 0.231456 3.91116 0
M  V30 3288 H 316.907 0.619498 3.96186 0
M  V30 3289 H 313.497 2.04017 3.76928 0
M  V30 3290 H 317.681 3.00397 3.95064 0
M  V30 3291 H 312.937 4.38212 4.26357 0
M  V30 3292 H 317.111 5.35012 4.45797 0
M  V30 3293 H 314.738 6.04406 4.61083 0
M  V30 3294 N 316.313 -1.40141 0.720998 0
M  V30 3295 C 317.243 -2.33339 0.0867621 0
M  V30 3296 C 318.224 -1.53178 -0.739622 0
M  V30 3297 O 319.409 -1.81625 -0.687449 0
M  V30 3298 C 316.539 -3.37194 -0.831728 0
M  V30 3299 C 315.493 -4.27857 -0.110558 0
M  V30 3300 C 314.819 -5.22294 -1.14513 0
M  V30 3301 C 316.119 -5.11872 1.0385 0
M  V30 3302 H 317.813 -2.86626 0.865219 0
M  V30 3303 H 315.359 -1.37814 0.417516 0
M  V30 3304 H 317.312 -4.01335 -1.28485 0
M  V30 3305 H 316.036 -2.82314 -1.64214 0
M  V30 3306 H 314.695 -3.65176 0.322797 0
M  V30 3307 H 314.343 -4.63717 -1.94874 0
M  V30 3308 H 314.043 -5.83797 -0.667446 0
M  V30 3309 H 315.567 -5.89312 -1.59824 0
M  V30 3310 H 316.981 -5.69436 0.664482 0
M  V30 3311 H 315.378 -5.82445 1.4449 0
M  V30 3312 H 316.448 -4.4753 1.86668 0
M  V30 3313 N 317.792 -0.46758 -1.50504 0
M  V30 3314 C 319.02 0.0864133 -2.06719 0
M  V30 3315 C 319.435 1.33819 -1.33184 0
M  V30 3316 O 318.792 1.78061 -0.400083 0
M  V30 3317 C 318.843 0.378079 -3.59517 0
M  V30 3318 O 318.564 -0.824044 -4.3028 0
M  V30 3319 C 320.065 0.979426 -4.32345 0
M  V30 3320 H 317.285 -0.00551697 -0.670977 0
M  V30 3321 H 319.829 -0.655354 -1.93715 0
M  V30 3322 H 317.984 1.06977 -3.72337 0
M  V30 3323 H 318.398 -0.566518 -5.21432 0
M  V30 3324 H 319.872 1.1333 -5.40241 0
M  V30 3325 H 320.349 1.9686 -3.9261 0
M  V30 3326 H 320.955 0.326216 -4.24047 0
M  V30 3327 N 319.27 1.56325 -0.20005 0
M  V30 3328 C 320.518 1.97329 0.436547 0
M  V30 3329 C 320.839 1.08826 1.61808 0
M  V30 3330 O 320.109 0.160604 1.95241 0
M  V30 3331 H 318.689 0.728714 0.164272 0
M  V30 3332 H 321.351 1.92761 -0.287937 0
M  V30 3333 H 320.447 3.02264 0.777353 0
M  V30 3334 N 320.748 -0.0735177 1.57428 0
M  V30 3335 C 321.681 -1.11932 1.98863 0
M  V30 3336 C 322.659 -1.37666 0.865266 0
M  V30 3337 O 323.843 -1.51068 1.12742 0
M  V30 3338 C 320.97 -2.46403 2.32386 0
M  V30 3339 C 320.016 -2.36815 3.54713 0
M  V30 3340 S 320.849 -1.76392 5.05614 0
M  V30 3341 C 322.005 -3.12444 5.42337 0
M  V30 3342 H 322.238 -0.766212 2.87257 0
M  V30 3343 H 319.771 -0.281987 1.51803 0
M  V30 3344 H 321.729 -3.23755 2.52375 0
M  V30 3345 H 320.39 -2.78876 1.44524 0
M  V30 3346 H 319.583 -3.35977 3.7568 0
M  V30 3347 H 319.185 -1.67598 3.34345 0
M  V30 3348 H 321.477 -4.08753 5.40303 0
M  V30 3349 H 322.42 -2.96258 6.43146 0
M  V30 3350 H 322.828 -3.1297 4.69798 0
M  V30 3351 N 322.226 -1.5378 -0.344866 0
M  V30 3352 C 323.454 -1.74899 -1.10534 0
M  V30 3353 C 323.869 -0.487534 -1.82397 0
M  V30 3354 O 323.226 0.540741 -1.74305 0
M  V30 3355 C 323.277 -2.92822 -2.11984 0
M  V30 3356 O 322.998 -4.14089 -1.43044 0
M  V30 3357 C 324.499 -3.25982 -3.00417 0
M  V30 3358 H 321.719 -0.584426 -0.329678 0
M  V30 3359 H 324.263 -2.006 -0.397474 0
M  V30 3360 H 322.418 -2.69457 -2.78338 0
M  V30 3361 H 322.832 -4.80272 -2.10805 0
M  V30 3362 H 324.306 -4.11848 -3.67539 0
M  V30 3363 H 324.783 -2.42228 -3.66363 0
M  V30 3364 H 325.389 -3.51349 -2.39654 0
M  V30 3365 N 323.704 0.605807 -1.45491 0
M  V30 3366 C 324.95 1.36679 -1.49823 0
M  V30 3367 C 325.283 1.93693 -0.140175 0
M  V30 3368 O 324.558 1.75158 0.845581 0
M  V30 3369 C 324.841 2.51337 -2.57879 0
M  V30 3370 C 324.694 1.99508 -4.03134 0
M  V30 3371 C 326.013 3.53463 -2.62205 0
M  V30 3372 H 323.132 0.495617 -0.545466 0
M  V30 3373 H 325.774 0.682732 -1.7731 0
M  V30 3374 H 323.924 3.09691 -2.34571 0
M  V30 3375 H 325.596 1.45789 -4.37656 0
M  V30 3376 H 323.839 1.30496 -4.13707 0
M  V30 3377 H 324.51 2.82169 -4.74431 0
M  V30 3378 H 326.986 3.04953 -2.83095 0
M  V30 3379 H 325.862 4.31178 -3.39672 0
M  V30 3380 H 326.123 4.09197 -1.67363 0
M  V30 3381 N 325.182 1.32811 0.848464 0
M  V30 3382 C 326.145 1.22194 1.9391 0
M  V30 3383 C 327.145 0.143404 1.60159 0
M  V30 3384 O 328.335 0.394253 1.6968 0
M  V30 3385 C 325.467 0.88067 3.29328 0
M  V30 3386 H 326.66 2.19127 2.04752 0
M  V30 3387 H 324.213 1.16731 1.0394 0
M  V30 3388 H 324.948 -0.0865776 3.24184 0
M  V30 3389 H 324.733 1.66052 3.55203 0
M  V30 3390 H 326.223 0.830871 4.09251 0
M  V30 3391 N 326.66 -1.06551 1.16123 0
M  V30 3392 C 327.908 -1.78947 0.939267 0
M  V30 3393 C 328.229 -1.87532 -0.534476 0
M  V30 3394 O 327.499 -1.38211 -1.38833 0
M  V30 3395 H 326.079 -0.662807 0.344523 0
M  V30 3396 H 328.741 -1.28725 1.46342 0
M  V30 3397 H 327.837 -2.81117 1.35572 0
M  V30 3398 N 328.138 -0.959301 -1.25041 0
M  V30 3399 C 329.384 -0.617525 -1.9317 0
M  V30 3400 C 329.717 0.843981 -1.74902 0
M  V30 3401 O 328.992 1.60615 -1.09696 0
M  V30 3402 C 329.275 -0.982736 -3.46431 0
M  V30 3403 C 329.128 -2.50032 -3.73904 0
M  V30 3404 C 330.447 -0.511176 -4.37121 0
M  V30 3405 H 327.566 -0.22582 -0.701552 0
M  V30 3406 H 330.208 -1.19679 -1.4757 0
M  V30 3407 H 328.358 -0.489806 -3.854 0
M  V30 3408 H 330.03 -3.06737 -3.44544 0
M  V30 3409 H 328.273 -2.93598 -3.19348 0
M  V30 3410 H 328.944 -2.70635 -4.81103 0
M  V30 3411 H 331.42 -0.934075 -4.0548 0
M  V30 3412 H 330.296 -0.795361 -5.43107 0
M  V30 3413 H 330.557 0.588834 -4.38161 0
M  V30 3414 N 329.616 1.39756 -0.72842 0
M  V30 3415 C 330.862 2.00942 -0.273892 0
M  V30 3416 C 331.195 1.57656 1.13394 0
M  V30 3417 O 330.47 0.802434 1.77176 0
M  V30 3418 C 330.753 3.58211 -0.368346 0
M  V30 3419 C 330.606 4.11534 -1.81548 0
M  V30 3420 C 331.925 4.39372 0.253054 0
M  V30 3421 H 329.044 0.730047 -0.100996 0
M  V30 3422 H 331.686 1.66056 -0.923337 0
M  V30 3423 H 329.836 3.88061 0.184588 0
M  V30 3424 H 331.508 3.92431 -2.42478 0
M  V30 3425 H 329.751 3.65341 -2.33898 0
M  V30 3426 H 330.422 5.20682 -1.83288 0
M  V30 3427 H 332.898 4.15527 -0.218224 0
M  V30 3428 H 331.774 5.48677 0.156585 0
M  V30 3429 H 332.035 4.21358 1.33826 0
M  V30 3430 N 331.094 0.475555 1.50254 0
M  V30 3431 C 332.024 -0.30611 2.31485 0
M  V30 3432 C 333.005 -0.986228 1.38591 0
M  V30 3433 O 334.19 -0.982541 1.67511 0
M  V30 3434 C 331.32 -1.38588 3.1845 0
M  V30 3435 C 330.274 -0.827115 4.19932 0
M  V30 3436 C 329.6 -2.00551 4.95665 0
M  V30 3437 C 330.9 0.16463 5.2204 0
M  V30 3438 H 332.594 0.371866 2.97082 0
M  V30 3439 H 330.14 0.180282 1.42867 0
M  V30 3440 H 332.093 -1.94023 3.74076 0
M  V30 3441 H 330.817 -2.09269 2.50747 0
M  V30 3442 H 329.476 -0.294702 3.65414 0
M  V30 3443 H 329.124 -2.6994 4.2443 0
M  V30 3444 H 328.824 -1.63784 5.64313 0
M  V30 3445 H 330.348 -2.56468 5.54127 0
M  V30 3446 H 331.762 -0.300699 5.72511 0
M  V30 3447 H 330.159 0.446813 5.98434 0
M  V30 3448 H 331.229 1.08905 4.72512 0
M  V30 3449 N 332.573 -1.56217 0.208337 0
M  V30 3450 C 333.503 -2.22694 -0.702116 0
M  V30 3451 C 334.484 -1.19432 -1.2112 0
M  V30 3452 O 335.669 -1.47978 -1.25762 0
M  V30 3453 C 332.799 -2.8966 -1.9161 0
M  V30 3454 C 331.753 -3.9928 -1.5414 0
M  V30 3455 C 331.079 -4.53476 -2.83308 0
M  V30 3456 C 332.379 -5.17012 -0.741339 0
M  V30 3457 H 334.073 -2.99034 -0.147898 0
M  V30 3458 H 331.619 -1.43831 -0.0696951 0
M  V30 3459 H 333.572 -3.34852 -2.55836 0
M  V30 3460 H 332.296 -2.10746 -2.49507 0
M  V30 3461 H 330.955 -3.54799 -0.922668 0
M  V30 3462 H 330.603 -3.71308 -3.39322 0
M  V30 3463 H 330.303 -5.27451 -2.58976 0
M  V30 3464 H 331.827 -5.01378 -3.485 0
M  V30 3465 H 333.241 -5.58667 -1.28699 0
M  V30 3466 H 331.638 -5.97137 -0.595627 0
M  V30 3467 H 332.708 -4.8423 0.254851 0
M  V30 3468 N 334.051 0.0651679 -1.57465 0
M  V30 3469 C 335.299 0.761555 -1.87202 0
M  V30 3470 C 335.62 1.77778 -0.801243 0
M  V30 3471 O 334.89 1.95166 0.16937 0
M  V30 3472 H 333.47 0.284251 -0.690804 0
M  V30 3473 H 336.132 0.0396827 -1.9486 0
M  V30 3474 H 335.228 1.27365 -2.84929 0
M  V30 3475 N 335.529 1.53961 0.336706 0
M  V30 3476 C 336.754 1.75797 1.10046 0
M  V30 3477 C 337.179 0.498985 1.81361 0
M  V30 3478 O 336.537 -0.548769 1.72795 0
M  V30 3479 C 336.585 2.94257 2.08436 0
M  V30 3480 O 335.689 2.64883 3.16087 0
M  V30 3481 H 335.03 0.582936 0.317934 0
M  V30 3482 H 337.56 2.00945 0.38501 0
M  V30 3483 H 337.57 3.21237 2.51537 0
M  V30 3484 H 336.245 3.85564 1.55927 0
M  V30 3485 H 334.822 2.48812 2.77753 0
M  V30 3486 N 337.007 -0.598083 1.45811 0
M  V30 3487 C 337.937 -1.71873 1.58057 0
M  V30 3488 C 338.918 -1.64533 0.431615 0
M  V30 3489 O 340.103 -1.82787 0.65595 0
M  V30 3490 C 337.233 -3.10495 1.55597 0
M  V30 3491 C 336.187 -3.32654 2.69305 0
M  V30 3492 C 335.513 -4.71646 2.51902 0
M  V30 3493 C 336.813 -3.21981 4.11248 0
M  V30 3494 H 338.507 -1.61881 2.51863 0
M  V30 3495 H 336.053 -0.777372 1.21214 0
M  V30 3496 H 338.006 -3.88699 1.6276 0
M  V30 3497 H 336.73 -3.2135 0.583255 0
M  V30 3498 H 335.389 -2.56843 2.61586 0
M  V30 3499 H 335.037 -4.79246 1.52748 0
M  V30 3500 H 334.737 -4.87426 3.2816 0
M  V30 3501 H 336.261 -5.52038 2.60933 0
M  V30 3502 H 337.675 -3.90049 4.20161 0
M  V30 3503 H 336.072 -3.49289 4.87972 0
M  V30 3504 H 337.142 -2.1928 4.32486 0
M  V30 3505 N 338.485 -1.33259 -0.841409 0
M  V30 3506 C 339.732 -1.24572 -1.5965 0
M  V30 3507 C 340.06 0.189137 -1.93578 0
M  V30 3508 O 339.315 1.14566 -1.5866 0
M  V30 3509 C 339.614 -2.06381 -2.9179 0
M  V30 3510 C 339.28 -3.556 -2.77235 0
M  V30 3511 C 337.942 -3.96282 -2.72973 0
M  V30 3512 C 340.294 -4.50433 -2.62221 0
M  V30 3513 C 337.622 -5.30017 -2.51592 0
M  V30 3514 C 339.974 -5.84327 -2.42374 0
M  V30 3515 C 338.638 -6.24194 -2.36512 0
M  V30 3516 H 337.908 -0.455842 -0.5842 0
M  V30 3517 H 340.555 -1.6482 -0.975016 0
M  V30 3518 H 338.86 -1.58903 -3.5813 0
M  V30 3519 H 340.557 -1.97019 -3.49263 0
M  V30 3520 H 337.147 -3.23298 -2.81384 0
M  V30 3521 H 341.331 -4.19914 -2.64549 0
M  V30 3522 H 336.587 -5.59947 -2.45499 0
M  V30 3523 H 340.761 -6.57414 -2.29739 0
M  V30 3524 H 338.388 -7.27759 -2.19706 0
M  V30 3525 N 339.963 1.05934 -1.16686 0
M  V30 3526 C 341.188 1.83029 -0.975455 0
M  V30 3527 C 341.613 1.82096 0.471452 0
M  V30 3528 O 340.971 1.22443 1.33706 0
M  V30 3529 C 341.019 3.27372 -1.51195 0
M  V30 3530 O 340.123 4.06054 -0.720701 0
M  V30 3531 H 339.464 0.566194 -0.346872 0
M  V30 3532 H 341.994 1.33541 -1.55009 0
M  V30 3533 H 342.004 3.78186 -1.53099 0
M  V30 3534 H 340.679 3.27366 -2.56523 0
M  V30 3535 H 339.256 3.64812 -0.772458 0
M  V30 3536 N 341.441 0.965919 1.2453 0
M  V30 3537 C 342.857 0.67216 1.44756 0
M  V30 3538 C 343.057 -0.766609 1.86347 0
M  V30 3539 O 342.113 -1.5407 2.00047 0
M  V30 3540 C 343.426 1.65473 2.51076 0
M  V30 3541 C 344.974 1.66716 2.64905 0
M  V30 3542 C 345.449 2.63766 3.74421 0
M  V30 3543 N 346.94 2.62198 3.81846 0
M  V30 3544 C 347.675 3.33966 4.66106 0
M  V30 3545 N 347.171 4.15245 5.54566 0
M  V30 3546 N 348.964 3.22799 4.60171 0
M  V30 3547 H 341.115 1.89553 0.958293 0
M  V30 3548 H 343.378 0.815979 0.482579 0
M  V30 3549 H 343.084 2.68296 2.27399 0
M  V30 3550 H 342.958 1.4261 3.49202 0
M  V30 3551 H 345.345 0.646057 2.87941 0
M  V30 3552 H 345.426 1.93642 1.67142 0
M  V30 3553 H 345.07 3.6601 3.52135 0
M  V30 3554 H 345 2.34121 4.71694 0
M  V30 3555 H 347.491 2.032 3.18619 0
M  V30 3556 H 347.804 4.66898 6.15814 0
M  V30 3557 H 346.149 4.1934 5.54237 0
M  V30 3558 H 349.34 2.58764 3.90075 0
M  V30 3559 H 349.513 3.78994 5.25612 0
M  V30 3560 N 342.919 -1.39368 0.735821 0
M  V30 3561 C 343.866 -2.30599 0.0963825 0
M  V30 3562 C 344.836 -1.49257 -0.728794 0
M  V30 3563 O 346.021 -1.77941 -0.688588 0
M  V30 3564 C 343.161 -3.35596 -0.804305 0
M  V30 3565 C 342.274 -4.31987 0.0335761 0
M  V30 3566 C 341.409 -5.24053 -0.868461 0
M  V30 3567 C 340.448 -6.12095 -0.0258776 0
M  V30 3568 N 339.585 -6.96514 -0.883893 0
M  V30 3569 H 344.425 -2.8471 0.880002 0
M  V30 3570 H 341.962 -1.40188 0.445619 0
M  V30 3571 H 343.92 -3.95062 -1.34096 0
M  V30 3572 H 342.55 -2.82938 -1.55389 0
M  V30 3573 H 341.602 -3.74133 0.68766 0
M  V30 3574 H 342.914 -4.94074 0.685036 0
M  V30 3575 H 342.068 -5.88549 -1.47293 0
M  V30 3576 H 340.807 -4.62289 -1.5537 0
M  V30 3577 H 339.812 -5.4661 0.591386 0
M  V30 3578 H 341.037 -6.75923 0.656156 0
M  V30 3579 H 338.983 -6.37318 -1.55441 0
M  V30 3580 H 338.9 -7.55448 -0.288931 0
M  V30 3581 H 340.168 -7.65439 -1.4739 0
M  V30 3582 O 344.436 -0.625292 -1.48904 0
M  V30 3583 H 345.127 -0.142374 -1.93176 0
M  V30 END ATOM
M  V30 BEGIN BOND
M  V30 END BOND
M  V30 END CTAB
M  END
$$$$
