drugbank_target|Q8WWG9 Potassium voltage-gated channel subfamily E member 4 (DB00228; DB01069; DB01110)
 OpenBabel12092121213D

  0  0  0     0  0            999 V3000
M  V30 BEGIN CTAB
M  V30 COUNTS 3298 3325 0 0 0
M  V30 BEGIN ATOM
M  V30 1 H -0.908 1.98254 -0.117106 0
M  V30 2 N 0 1.576 0 0
M  V30 3 C 0.933 2.03868 1.02534 0
M  V30 4 C 1.911 0.928543 1.3348 0
M  V30 5 O 3.095 1.19667 1.45644 0
M  V30 6 C 0.222 2.43627 2.35294 0
M  V30 7 C -0.732 3.65373 2.2001 0
M  V30 8 S 0.101 5.13292 1.52614 0
M  V30 9 C 1.257 5.56322 2.86805 0
M  V30 10 H 1.49 2.90518 0.631377 0
M  V30 11 H -0.977 1.52953 0.210867 0
M  V30 12 H 0.981 2.67203 3.11629 0
M  V30 13 H -0.358 1.57376 2.7183 0
M  V30 14 H -1.165 3.90944 3.18086 0
M  V30 15 H -1.563 3.418 1.51819 0
M  V30 16 H 0.729 5.58782 3.83104 0
M  V30 17 H 1.672 6.56266 2.65933 0
M  V30 18 H 2.08 4.83886 2.90714 0
M  V30 19 N 1.4781 -0.272755 1.55222 0
M  V30 20 C 2.4281 -1.33946 1.84506 0
M  V30 21 C 3.4121 -1.44682 0.70399 0
M  V30 22 O 4.6041 -1.48358 0.965338 0
M  V30 23 C 1.7331 -2.69968 2.12067 0
M  V30 24 C 0.8191 -2.63341 3.32434 0
M  V30 25 N 1.2101 -2.26335 4.52334 0
M  V30 26 C -0.4919 -2.94402 3.35028 0
M  V30 27 C 0.2091 -2.29705 5.34425 0
M  V30 28 N -0.8149 -2.68188 4.72838 0
M  V30 29 H 2.9871 -1.04343 2.74754 0
M  V30 30 H 0.5011 -0.481389 1.55101 0
M  V30 31 H 2.4981 -3.46916 2.31202 0
M  V30 32 H 1.1581 -3.00459 1.23103 0
M  V30 33 H 2.1691 -1.98309 4.78429 0
M  V30 34 H -1.1539 -3.29603 2.56257 0
M  V30 35 H 0.2361 -2.03653 6.40293 0
M  V30 36 N 2.9562 -1.48159 -0.537278 0
M  V30 37 C 4.2032 -1.55804 -1.29349 0
M  V30 38 C 4.5312 -0.228802 -1.9315 0
M  V30 39 O 3.7862 0.780242 -1.79473 0
M  V30 40 C 4.0852 -2.63956 -2.40961 0
M  V30 41 C 3.7512 -4.0662 -1.94861 0
M  V30 42 C 2.4132 -4.45452 -1.82006 0
M  V30 43 C 4.7652 -4.96055 -1.59933 0
M  V30 44 C 2.0932 -5.71531 -1.32547 0
M  V30 45 C 4.4452 -6.22617 -1.11939 0
M  V30 46 C 3.1092 -6.60312 -0.976951 0
M  V30 47 H 2.3792 -0.570129 -0.473322 0
M  V30 48 H 5.0262 -1.81845 -0.600372 0
M  V30 49 H 3.3312 -2.31747 -3.15912 0
M  V30 50 H 5.0282 -2.67089 -2.99107 0
M  V30 51 H 1.6182 -3.75949 -2.05815 0
M  V30 52 H 5.8022 -4.66738 -1.68728 0
M  V30 53 H 1.0582 -5.99468 -1.202 0
M  V30 54 H 5.2322 -6.91318 -0.839811 0
M  V30 55 H 2.8592 -7.57895 -0.591501 0
M  V30 56 N 4.4343 0.785586 -1.36625 0
M  V30 57 C 5.3643 1.91259 -1.33949 0
M  V30 58 C 6.3453 1.68795 -0.210325 0
M  V30 59 O 7.5303 1.89854 -0.408561 0
M  V30 60 C 4.6603 3.28339 -1.13186 0
M  V30 61 C 3.6143 3.65335 -2.22967 0
M  V30 62 C 2.9403 5.00806 -1.87342 0
M  V30 63 C 4.2403 3.7352 -3.65075 0
M  V30 64 H 5.9343 1.93755 -2.28253 0
M  V30 65 H 3.4803 0.930788 -1.09874 0
M  V30 66 H 5.4333 4.06804 -1.09948 0
M  V30 67 H 4.1573 3.2624 -0.153332 0
M  V30 68 H 2.8163 2.89169 -2.25337 0
M  V30 69 H 2.4643 4.95233 -0.880545 0
M  V30 70 H 2.1643 5.26529 -2.60846 0
M  V30 71 H 3.6883 5.81687 -1.85667 0
M  V30 72 H 5.1023 4.42168 -3.64911 0
M  V30 73 H 3.4993 4.10731 -4.37516 0
M  V30 74 H 4.5693 2.74527 -3.99703 0
M  V30 75 N 5.9124 1.20967 1.01018 0
M  V30 76 C 7.1404 1.04956 1.78303 0
M  V30 77 C 7.5554 -0.400915 1.84494 0
M  V30 78 O 6.9124 -1.27826 1.30257 0
M  V30 79 C 6.9634 1.63403 3.22462 0
M  V30 80 O 6.6844 3.02775 3.16637 0
M  V30 81 C 8.1854 1.52432 4.16268 0
M  V30 82 H 5.4054 0.368858 0.560522 0
M  V30 83 H 7.9494 1.60193 1.27116 0
M  V30 84 H 6.1044 1.1227 3.70775 0
M  V30 85 H 6.5184 3.30626 4.07169 0
M  V30 86 H 7.9924 1.98078 5.15237 0
M  V30 87 H 8.4694 0.477875 4.36592 0
M  V30 88 H 9.0754 2.02787 3.73841 0
M  V30 89 N 7.3905 -1.2043 1.01659 0
M  V30 90 C 8.6395 -1.89118 0.701237 0
M  V30 91 C 8.9525 -1.79705 -0.772358 0
M  V30 92 O 10.1585 -2.43528 -1.20026 0
M  V30 93 C 8.6145 -3.39168 1.20388 0
M  V30 94 C 8.2225 -3.57166 2.70438 0
M  V30 95 C 9.9665 -4.1341 0.963953 0
M  V30 96 C 7.8735 -5.01042 3.14183 0
M  V30 97 H 6.8035 -0.708267 0.2586 0
M  V30 98 H 9.4545 -1.36239 1.22927 0
M  V30 99 H 7.8365 -3.91369 0.603824 0
M  V30 100 H 9.0105 -3.15351 3.35992 0
M  V30 101 H 7.3255 -2.96294 2.92572 0
M  V30 102 H 9.9225 -5.19491 1.26621 0
M  V30 103 H 10.2655 -4.16181 -0.099578 0
M  V30 104 H 10.7985 -3.67309 1.52738 0
M  V30 105 H 7.5375 -5.03426 4.19812 0
M  V30 106 H 7.0575 -5.43668 2.53348 0
M  V30 107 H 8.7365 -5.69623 3.0682 0
M  V30 108 N 8.8686 -0.792821 -1.36206 0
M  V30 109 C 10.0986 -0.378275 -2.03107 0
M  V30 110 C 10.5066 1.01119 -1.59911 0
M  V30 111 O 9.8496 1.66052 -0.785658 0
M  V30 112 C 9.9116 -0.366535 -3.57627 0
M  V30 113 C 9.5756 -1.70416 -4.24037 0
M  V30 114 C 10.5726 -2.6602 -4.46687 0
M  V30 115 C 8.2576 -1.98439 -4.6144 0
M  V30 116 C 10.2516 -3.8784 -5.05825 0
M  V30 117 C 7.9386 -3.20525 -5.20295 0
M  V30 118 C 8.9366 -4.15044 -5.42427 0
M  V30 119 O 8.6246 -5.34978 -6.00045 0
M  V30 120 H 8.3566 -0.153543 -0.658332 0
M  V30 121 H 10.9106 -1.07383 -1.75094 0
M  V30 122 H 9.1406 0.385539 -3.84773 0
M  V30 123 H 10.8296 0.0238088 -4.05893 0
M  V30 124 H 11.5956 -2.45658 -4.18183 0
M  V30 125 H 7.4746 -1.25686 -4.43536 0
M  V30 126 H 11.0186 -4.61628 -5.23015 0
M  V30 127 H 6.9156 -3.40764 -5.48225 0
M  V30 128 H 7.6836 -5.36088 -6.18508 0
M  V30 129 N 10.3467 1.47872 -0.545128 0
M  V30 130 C 11.7577 1.86384 -0.108581 0
M  V30 131 C 12.1087 1.45309 1.31832 0
M  V30 132 O 11.2337 0.850641 1.9898 0
M  V30 133 C 11.8287 3.38265 -0.190274 0
M  V30 134 C 10.3877 3.75914 0.191164 0
M  V30 135 C 9.5347 2.71926 -0.543273 0
M  V30 136 H 12.4857 1.39561 -0.755537 0
M  V30 137 H 12.5067 3.75831 0.594217 0
M  V30 138 H 12.0187 3.6813 -1.2289 0
M  V30 139 H 10.1197 3.51665 1.23136 0
M  V30 140 H 10.2327 4.78836 -0.158987 0
M  V30 141 H 8.5967 2.54697 0.0122495 0
M  V30 142 H 9.3797 3.04634 -1.58282 0
M  V30 143 N 11.8248 0.280983 1.55075 0
M  V30 144 C 12.7728 -0.619864 2.24188 0
M  V30 145 C 13.7668 -1.15315 1.24092 0
M  V30 146 O 14.9728 -1.1061 1.42005 0
M  V30 147 H 11.3478 -0.218459 0.719569 0
M  V30 148 H 13.3188 -0.0141831 2.98397 0
M  V30 149 C 12.0678 -1.7899 2.98091 0
M  V30 150 H 11.3908 -1.38874 3.74905 0
M  V30 151 H 12.8308 -2.39672 3.49762 0
M  V30 152 C 11.2898 -2.68192 2.03899 0
M  V30 153 O 11.8198 -3.6872 1.594 0
M  V30 154 N 10.0258 -2.35488 1.70275 0
M  V30 155 H 9.5728 -1.53787 2.06658 0
M  V30 156 H 9.5308 -2.95442 1.07524 0
M  V30 157 N 13.3029 -1.57598 0.00835791 0
M  V30 158 C 14.5429 -1.92788 -0.679136 0
M  V30 159 C 14.9069 -0.883378 -1.70471 0
M  V30 160 O 16.1079 -1.12079 -2.44319 0
M  V30 161 C 14.3789 -3.32994 -1.29807 0
M  V30 162 S 15.9379 -3.90082 -2.00952 0
M  V30 163 H 12.7559 -0.67475 -0.224127 0
M  V30 164 H 15.3579 -1.95385 0.0670497 0
M  V30 165 H 14.0619 -4.06846 -0.538922 0
M  V30 166 H 13.5929 -3.33791 -2.082 0
M  V30 167 H 15.6079 -3.71834 -3.28563 0
M  V30 168 N 14.781 0.264519 -1.55364 0
M  V30 169 C 16.006 1.01726 -1.80739 0
M  V30 170 C 16.431 1.78836 -0.583044 0
M  V30 171 O 15.789 1.75167 0.467566 0
M  V30 172 C 15.837 1.94482 -3.03659 0
M  V30 173 O 14.941 3.03386 -2.7934 0
M  V30 174 H 14.282 0.290395 -0.597132 0
M  V30 175 H 16.812 0.290854 -2.02522 0
M  V30 176 H 16.822 2.36278 -3.32621 0
M  V30 177 H 15.497 1.37772 -3.92418 0
M  V30 178 H 14.074 2.65844 -2.61498 0
M  V30 179 N 16.2591 1.48442 0.529413 0
M  V30 180 C 17.4841 1.60406 1.31471 0
M  V30 181 C 17.9091 0.264738 1.86228 0
M  V30 182 O 17.2671 -0.763668 1.64432 0
M  V30 183 C 17.3151 2.65419 2.44101 0
M  V30 184 O 16.4191 2.22618 3.47153 0
M  V30 185 H 15.7601 0.537863 0.389357 0
M  V30 186 H 18.2901 1.94432 0.636965 0
M  V30 187 H 18.3001 2.86709 2.90279 0
M  V30 188 H 16.9751 3.62652 2.03608 0
M  V30 189 H 15.5521 2.11543 3.0709 0
M  V30 190 N 17.7372 -0.778329 1.37039 0
M  V30 191 C 18.9852 -1.53361 1.31623 0
M  V30 192 C 19.3062 -1.94739 -0.100831 0
M  V30 193 O 18.5762 -1.65797 -1.04347 0
M  V30 194 H 17.1562 -0.568794 0.484234 0
M  V30 195 H 19.8182 -0.926742 1.71457 0
M  V30 196 H 18.9142 -2.43606 1.95096 0
M  V30 197 N 19.2153 -1.21501 -1.00376 0
M  V30 198 C 20.4613 -1.03452 -1.74429 0
M  V30 199 C 20.7943 0.430764 -1.89362 0
M  V30 200 O 20.0693 1.31962 -1.42886 0
M  V30 201 C 20.3523 -1.73375 -3.15615 0
M  V30 202 C 20.2053 -3.27431 -3.08397 0
M  V30 203 C 21.5243 -1.47732 -4.14564 0
M  V30 204 H 18.6433 -0.377226 -0.633143 0
M  V30 205 H 21.2853 -1.49693 -1.17013 0
M  V30 206 H 19.4353 -1.34064 -3.64636 0
M  V30 207 H 21.1073 -3.76119 -2.67081 0
M  V30 208 H 19.3503 -3.5767 -2.45468 0
M  V30 209 H 20.0213 -3.71524 -4.08258 0
M  V30 210 H 22.4973 -1.8186 -3.74254 0
M  V30 211 H 21.3733 -1.99169 -5.11491 0
M  V30 212 H 21.6343 -0.407589 -4.40217 0
M  V30 213 N 20.6934 1.19889 -1.02296 0
M  V30 214 C 21.9394 1.89701 -0.717033 0
M  V30 215 C 22.2724 1.7905 0.751989 0
M  V30 216 O 21.5474 1.17891 1.547 0
M  V30 217 C 21.8304 3.40858 -1.16136 0
M  V30 218 C 21.6834 3.60411 -2.69117 0
M  V30 219 C 23.0024 4.33876 -0.737549 0
M  V30 220 H 20.1214 0.688874 -0.261957 0
M  V30 221 H 22.7634 1.41154 -1.27183 0
M  V30 222 H 20.9134 3.82335 -0.689342 0
M  V30 223 H 22.5854 3.28145 -3.2422 0
M  V30 224 H 20.8284 3.03665 -3.0979 0
M  V30 225 H 21.4994 4.66396 -2.95261 0
M  V30 226 H 23.9754 4.00081 -1.14344 0
M  V30 227 H 22.8514 5.38242 -1.0764 0
M  V30 228 H 23.1124 4.40628 0.360436 0
M  V30 229 N 22.1715 0.800033 1.35784 0
M  V30 230 C 23.5875 0.482977 1.52117 0
M  V30 231 C 23.7875 -0.996948 1.75109 0
M  V30 232 O 22.8435 -1.78216 1.78872 0
M  V30 233 C 24.1565 1.32264 2.70049 0
M  V30 234 C 25.7045 1.31742 2.83924 0
M  V30 235 C 26.1795 2.14106 4.04874 0
M  V30 236 N 27.6705 2.11607 4.12039 0
M  V30 237 C 28.4055 2.72099 5.04727 0
M  V30 238 N 27.9015 3.41492 6.02789 0
M  V30 239 N 29.6945 2.61776 4.97423 0
M  V30 240 H 21.8455 1.75856 1.19115 0
M  V30 241 H 24.1085 0.748122 0.582252 0
M  V30 242 H 23.8145 2.37261 2.59616 0
M  V30 243 H 23.6885 0.971303 3.6448 0
M  V30 244 H 26.0755 0.275333 2.93813 0
M  V30 245 H 26.1565 1.70859 1.9037 0
M  V30 246 H 25.8005 3.18351 3.95746 0
M  V30 247 H 25.7305 1.72353 4.97596 0
M  V30 248 H 28.2215 1.61112 3.41835 0
M  V30 249 H 28.5345 3.84953 6.70098 0
M  V30 250 H 26.8795 3.45596 6.02983 0
M  V30 251 H 30.0705 2.07157 4.19766 0
M  V30 252 H 30.2435 3.0921 5.69468 0
M  V30 253 N 23.6496 -1.47581 0.552962 0
M  V30 254 C 24.6126 -2.28439 -0.186605 0
M  V30 255 C 25.6126 -1.36706 -0.84665 0
M  V30 256 O 26.8026 -1.59378 -0.703164 0
M  V30 257 C 23.9346 -3.16264 -1.2724 0
M  V30 258 H 25.1276 -2.95294 0.523609 0
M  V30 259 H 22.6806 -1.532 0.309745 0
M  V30 260 H 23.4156 -2.54091 -2.01514 0
M  V30 261 H 23.2006 -3.83769 -0.803968 0
M  V30 262 H 24.6906 -3.77198 -1.79196 0
M  V30 263 N 25.1277 -0.289203 -1.54924 0
M  V30 264 C 26.0597 0.625583 -2.20497 0
M  V30 265 C 27.0727 1.10667 -1.19402 0
M  V30 266 O 28.2617 1.02615 -1.46056 0
M  V30 267 C 25.3617 1.86702 -2.82835 0
M  V30 268 C 24.5347 1.5304 -4.09753 0
M  V30 269 C 23.5937 2.62576 -4.56005 0
M  V30 270 O 22.6197 2.28167 -5.21468 0
M  V30 271 N 23.8217 3.92901 -4.27328 0
M  V30 272 H 26.5867 0.0642801 -2.99631 0
M  V30 273 H 24.1477 -0.110896 -1.6152 0
M  V30 274 H 26.1397 2.59304 -3.10715 0
M  V30 275 H 24.7097 2.33702 -2.07611 0
M  V30 276 H 23.9297 0.637564 -3.8901 0
M  V30 277 H 25.2177 1.28072 -4.92418 0
M  V30 278 H 24.6157 4.23671 -3.74859 0
M  V30 279 H 23.1727 4.61837 -4.59946 0
M  V30 280 N 26.6058 1.57591 -0.0167156 0
M  V30 281 C 27.8308 1.9598 0.67872 0
M  V30 282 C 28.2558 0.892546 1.65575 0
M  V30 283 O 27.6138 -0.147772 1.80697 0
M  V30 284 C 27.6618 3.33468 1.37227 0
M  V30 285 O 26.7658 3.28954 2.48722 0
M  V30 286 H 26.1068 0.639339 0.17928 0
M  V30 287 H 28.6368 2.04463 -0.0748802 0
M  V30 288 H 28.6468 3.69417 1.7319 0
M  V30 289 H 27.3218 4.10694 0.656007 0
M  V30 290 H 25.8988 3.04705 2.14963 0
M  V30 291 N 28.0839 -0.256276 1.55502 0
M  V30 292 C 29.4999 -0.604325 1.47716 0
M  V30 293 C 29.6999 -1.88763 0.705039 0
M  V30 294 O 28.7559 -2.51445 0.230613 0
M  V30 295 C 30.0689 -0.715756 2.92057 0
M  V30 296 C 31.6169 -0.808706 3.02372 0
M  V30 297 C 32.0919 -0.951777 4.48001 0
M  V30 298 N 33.5829 -1.01688 4.519 0
M  V30 299 C 34.3179 -1.14668 5.61817 0
M  V30 300 N 33.8139 -1.24261 6.81565 0
M  V30 301 N 35.6069 -1.1791 5.49594 0
M  V30 302 H 27.7579 0.586291 2.04148 0
M  V30 303 H 30.0209 0.201015 0.926443 0
M  V30 304 H 29.7269 0.157027 3.51349 0
M  V30 305 H 29.6009 -1.59071 3.42018 0
M  V30 306 H 31.9879 -1.67195 2.43166 0
M  V30 307 H 32.0689 0.0912063 2.55637 0
M  V30 308 H 31.7129 -0.0931291 5.07815 0
M  V30 309 H 31.6429 -1.86659 4.92408 0
M  V30 310 H 34.1339 -0.954468 3.65648 0
M  V30 311 H 34.4469 -1.34046 7.61086 0
M  V30 312 H 32.7919 -1.21236 6.84344 0
M  V30 313 H 35.9829 -1.10057 4.54978 0
M  V30 314 H 36.1559 -1.27681 6.35296 0
M  V30 315 N 29.562 -1.4872 -0.521534 0
M  V30 316 C 30.79 -1.60843 -1.30142 0
M  V30 317 C 31.205 -0.271897 -1.86832 0
M  V30 318 O 30.562 0.739969 -1.66825 0
M  V30 319 C 30.613 -2.66155 -2.4463 0
M  V30 320 O 30.334 -3.94623 -1.90275 0
M  V30 321 C 31.835 -2.88795 -3.36322 0
M  V30 322 H 29.055 -0.542075 -0.395468 0
M  V30 323 H 31.599 -1.94609 -0.628285 0
M  V30 324 H 29.754 -2.35224 -3.07812 0
M  V30 325 H 30.168 -4.52468 -2.65279 0
M  V30 326 H 31.642 -3.66264 -4.12983 0
M  V30 327 H 32.119 -1.97934 -3.9207 0
M  V30 328 H 32.725 -3.21063 -2.78924 0
M  V30 329 N 31.0401 0.771051 -1.3745 0
M  V30 330 C 31.9501 1.91538 -1.35464 0
M  V30 331 C 32.9661 1.72134 -0.254123 0
M  V30 332 O 34.1421 1.95358 -0.489626 0
M  V30 333 C 31.2071 3.26671 -1.16134 0
M  V30 334 C 30.2681 3.58723 -2.35831 0
M  V30 335 C 29.5011 4.87409 -2.17413 0
M  V30 336 O 29.7241 5.58506 -1.15876 0
M  V30 337 O 28.6581 5.18539 -3.05615 0
M  V30 338 H 32.4841 1.96165 -2.31847 0
M  V30 339 H 30.0691 0.9139 -1.18187 0
M  V30 340 H 31.9511 4.07499 -1.07345 0
M  V30 341 H 30.6261 3.22894 -0.228251 0
M  V30 342 H 29.5331 2.78127 -2.50192 0
M  V30 343 H 30.8661 3.67243 -3.27709 0
M  V30 344 N 32.5182 1.22032 0.997298 0
M  V30 345 C 33.4502 0.944263 2.08845 0
M  V30 346 C 34.4632 -0.0754663 1.62625 0
M  V30 347 O 35.6522 0.157994 1.77799 0
M  V30 348 C 32.7522 0.397723 3.36558 0
M  V30 349 C 31.9252 1.47362 4.11829 0
M  V30 350 C 30.9842 0.934951 5.17827 0
M  V30 351 O 30.0102 1.62016 5.45655 0
M  V30 352 N 31.2122 -0.245895 5.79979 0
M  V30 353 H 33.9772 1.88363 2.33109 0
M  V30 354 H 31.5382 1.12661 1.16272 0
M  V30 355 H 33.5302 0.0227771 4.04694 0
M  V30 356 H 32.1002 -0.446646 3.09393 0
M  V30 357 H 31.3202 2.02208 3.38386 0
M  V30 358 H 32.6082 2.19764 4.58891 0
M  V30 359 H 32.0062 -0.819475 5.59733 0
M  V30 360 H 30.5632 -0.562272 6.4937 0
M  V30 361 N 33.9963 -1.19345 1.0293 0
M  V30 362 C 34.9433 -2.2258 0.610464 0
M  V30 363 C 35.9133 -1.6179 -0.375946 0
M  V30 364 O 37.0983 -1.88844 -0.272511 0
M  V30 365 C 34.2383 -3.45085 -0.0321473 0
M  V30 366 C 33.3513 -4.20258 1.00035 0
M  V30 367 C 32.4863 -5.3019 0.32746 0
M  V30 368 C 31.5253 -5.97121 1.34584 0
M  V30 369 N 30.6623 -6.98615 0.698726 0
M  V30 370 H 35.5023 -2.57764 1.49538 0
M  V30 371 H 33.0393 -1.26644 0.748311 0
M  V30 372 H 34.9973 -4.15061 -0.421966 0
M  V30 373 H 33.6273 -3.10555 -0.88064 0
M  V30 374 H 32.6793 -3.49223 1.50823 0
M  V30 375 H 33.9913 -4.66175 1.77433 0
M  V30 376 H 33.1453 -6.06587 -0.11718 0
M  V30 377 H 31.8843 -4.85345 -0.478713 0
M  V30 378 H 30.8893 -5.19474 1.80074 0
M  V30 379 H 32.1143 -6.4405 2.15352 0
M  V30 380 H 30.0603 -6.55942 -0.0873471 0
M  V30 381 H 29.9773 -7.42724 1.41058 0
M  V30 382 H 31.2453 -7.79004 0.278102 0
M  V30 383 N 35.4744 -0.807222 -1.35358 0
M  V30 384 C 36.4224 -0.20614 -2.31685 0
M  V30 385 C 37.4164 0.644445 -1.56663 0
M  V30 386 O 38.6224 0.537538 -1.71786 0
M  V30 387 H 34.9974 -0.0479006 -0.750473 0
M  V30 388 H 36.9684 -1.03369 -2.79924 0
M  V30 389 C 35.7174 0.630212 -3.41941 0
M  V30 390 H 35.0404 -0.0149558 -3.99797 0
M  V30 391 H 36.4804 1.01716 -4.11619 0
M  V30 392 C 34.9394 1.79601 -2.85035 0
M  V30 393 O 35.4694 2.89351 -2.78637 0
M  V30 394 N 33.6754 1.60774 -2.42074 0
M  V30 395 H 33.2224 0.715009 -2.47478 0
M  V30 396 H 33.1804 2.38933 -2.04349 0
M  V30 397 N 36.9525 1.47285 -0.560781 0
M  V30 398 C 38.3635 1.86258 -0.128343 0
M  V30 399 C 38.7145 1.46699 1.30284 0
M  V30 400 O 37.8395 0.871698 1.98067 0
M  V30 401 C 38.4345 3.38044 -0.22614 0
M  V30 402 C 36.9935 3.76096 0.151283 0
M  V30 403 C 36.1405 2.71335 -0.572084 0
M  V30 404 H 39.0915 1.38752 -0.770297 0
M  V30 405 H 39.1125 3.76441 0.554322 0
M  V30 406 H 38.6245 3.66806 -1.26788 0
M  V30 407 H 36.7255 3.52951 1.19399 0
M  V30 408 H 36.8385 4.78641 -0.209765 0
M  V30 409 H 35.2025 2.54696 -0.0147653 0
M  V30 410 H 35.9855 3.02938 -1.61504 0
M  V30 411 N 38.4306 0.297415 1.54768 0
M  V30 412 C 39.3606 -0.573494 2.26348 0
M  V30 413 C 40.3416 -1.14085 1.26169 0
M  V30 414 O 41.5266 -1.17086 1.54934 0
M  V30 415 C 38.6566 -1.74716 3.00153 0
M  V30 416 C 37.6106 -1.31032 4.07449 0
M  V30 417 C 36.9366 -2.56887 4.68949 0
M  V30 418 C 38.2366 -0.444183 5.20408 0
M  V30 419 H 39.9306 0.0235131 2.99391 0
M  V30 420 H 37.4766 0.0127488 1.43994 0
M  V30 421 H 39.4296 -2.3625 3.48947 0
M  V30 422 H 38.1536 -2.37035 2.24682 0
M  V30 423 H 36.8126 -0.718066 3.59499 0
M  V30 424 H 36.4606 -3.17512 3.90122 0
M  V30 425 H 36.1606 -2.2836 5.41411 0
M  V30 426 H 37.6846 -3.19229 5.20505 0
M  V30 427 H 39.0986 -0.9651 5.65118 0
M  V30 428 H 37.4956 -0.252846 5.99567 0
M  V30 429 H 38.5656 0.531609 4.81977 0
M  V30 430 N 39.9087 -1.5758 0.0250728 0
M  V30 431 C 41.1567 -1.91255 -0.653151 0
M  V30 432 C 41.4777 -0.901691 -1.729 0
M  V30 433 O 40.7477 0.0573785 -1.95816 0
M  V30 434 H 39.3277 -0.705942 -0.244243 0
M  V30 435 H 41.9897 -1.94767 0.0719209 0
M  V30 436 H 41.0857 -2.91752 -1.10847 0
M  V30 437 N 41.3868 0.248026 -1.55636 0
M  V30 438 C 42.3168 1.31079 -1.93237 0
M  V30 439 C 43.2978 1.50264 -0.797174 0
M  V30 440 O 44.4828 1.62891 -1.05737 0
M  V30 441 C 41.6128 2.66575 -2.22609 0
M  V30 442 C 40.5668 2.62087 -3.3837 0
M  V30 443 C 39.8928 4.01369 -3.53281 0
M  V30 444 C 41.1928 2.19171 -4.7409 0
M  V30 445 H 42.8868 0.998556 -2.82257 0
M  V30 446 H 40.4328 0.47891 -1.35803 0
M  V30 447 H 42.3858 3.41057 -2.47503 0
M  V30 448 H 41.1098 2.99432 -1.30414 0
M  V30 449 H 39.7688 1.90063 -3.13483 0
M  V30 450 H 39.4168 4.31489 -2.58508 0
M  V30 451 H 39.1168 3.99254 -4.31127 0
M  V30 452 H 40.6408 4.77552 -3.80495 0
M  V30 453 H 42.0548 2.83384 -4.98363 0
M  V30 454 H 40.4518 2.2817 -5.5503 0
M  V30 455 H 41.5218 1.14336 -4.71227 0
M  V30 456 N 42.8649 1.48995 0.513639 0
M  V30 457 C 44.1419 1.48338 1.27495 0
M  V30 458 C 44.5219 0.204065 2.10111 0
M  V30 459 O 43.8699 -0.813881 2.13514 0
M  V30 460 C 44.0799 2.75498 2.14247 0
M  V30 461 C 45.4279 3.24484 2.73852 0
M  V30 462 O 46.4519 2.76528 2.24523 0
M  V30 463 O 45.3109 4.07974 3.6362 0
M  V30 464 H 42.4049 0.593149 0.576284 0
M  V30 465 H 44.9509 1.61246 0.528948 0
M  V30 466 H 43.7229 3.60109 1.53092 0
M  V30 467 H 43.3459 2.6539 2.96064 0
M  V30 468 N 44.343 -0.763751 1.37857 0
M  V30 469 C 45.62 -1.51244 1.24035 0
M  V30 470 C 46 -2.10472 -0.162649 0
M  V30 471 O 45.348 -1.96206 -1.17112 0
M  V30 472 C 45.558 -2.58694 2.34261 0
M  V30 473 C 46.906 -3.25878 2.72193 0
M  V30 474 O 47.93 -2.68993 2.33497 0
M  V30 475 O 46.789 -4.2874 3.38887 0
M  V30 476 H 43.883 -0.670243 0.484462 0
M  V30 477 H 46.429 -0.800031 1.49658 0
M  V30 478 H 45.201 -2.13105 3.2818 0
M  V30 479 H 44.824 -3.37527 2.10146 0
M  V30 480 N 45.8211 -1.22559 -0.990812 0
M  V30 481 C 46.7511 -1.0218 -2.09956 0
M  V30 482 C 47.7321 0.0579394 -1.70001 0
M  V30 483 O 48.9171 -0.104684 -1.93918 0
M  V30 484 C 46.0471 -0.601023 -3.4206 0
M  V30 485 C 45.0011 -1.62694 -3.95872 0
M  V30 486 C 44.3271 -1.06193 -5.24049 0
M  V30 487 C 45.6271 -3.01743 -4.2632 0
M  V30 488 H 47.3211 -1.94916 -2.27262 0
M  V30 489 H 44.8671 -0.938566 -1.09211 0
M  V30 490 H 46.8201 -0.445561 -4.19038 0
M  V30 491 H 45.5441 0.362005 -3.24588 0
M  V30 492 H 44.2031 -1.77021 -3.21028 0
M  V30 493 H 43.8511 -0.0901903 -5.02919 0
M  V30 494 H 43.5511 -1.74732 -5.61019 0
M  V30 495 H 45.0751 -0.918092 -6.03658 0
M  V30 496 H 46.4891 -2.90777 -4.94087 0
M  V30 497 H 44.8861 -3.67425 -4.74467 0
M  V30 498 H 45.9561 -3.51518 -3.34011 0
M  V30 499 N 47.2992 1.18797 -1.03562 0
M  V30 500 C 48.5472 1.88278 -0.734569 0
M  V30 501 C 48.8682 1.8043 0.739586 0
M  V30 502 O 48.1382 1.21925 1.53333 0
M  V30 503 H 46.7182 0.696991 -0.268725 0
M  V30 504 H 49.3802 1.44192 -1.31129 0
M  V30 505 H 48.4762 2.94443 -1.03489 0
M  V30 506 N 48.7773 0.814389 1.34928 0
M  V30 507 C 50.0263 0.394871 1.97797 0
M  V30 508 C 50.3393 -1.04555 1.65311 0
M  V30 509 O 51.5453 -1.56856 2.21604 0
M  V30 510 C 50.0013 0.655103 3.53888 0
M  V30 511 C 49.6093 2.10858 3.95276 0
M  V30 512 C 51.3533 0.301329 4.23429 0
M  V30 513 C 49.2603 2.31415 5.44244 0
M  V30 514 H 48.1903 0.143913 0.740139 0
M  V30 515 H 50.8413 0.999544 1.53888 0
M  V30 516 H 49.2233 -0.0196253 3.95995 0
M  V30 517 H 50.3973 2.82176 3.64298 0
M  V30 518 H 48.7123 2.42297 3.38646 0
M  V30 519 H 51.3093 0.432869 5.32945 0
M  V30 520 H 51.6523 -0.75331 4.09428 0
M  V30 521 H 52.1853 0.930288 3.86769 0
M  V30 522 H 48.9243 3.35353 5.63222 0
M  V30 523 H 48.4443 1.6463 5.76764 0
M  V30 524 H 50.1233 2.13352 6.10811 0
M  V30 525 N 50.2554 -1.46986 0.568584 0
M  V30 526 C 51.1874 -2.28233 -0.210337 0
M  V30 527 C 52.2004 -1.37682 -0.868767 0
M  V30 528 O 53.3894 -1.62406 -0.740705 0
M  V30 529 C 50.4894 -3.12293 -1.3163 0
M  V30 530 C 49.6624 -4.30878 -0.7525 0
M  V30 531 C 48.7214 -4.96445 -1.74439 0
M  V30 532 O 47.7474 -5.54482 -1.286 0
M  V30 533 N 48.9494 -4.92171 -3.07812 0
M  V30 534 H 51.7144 -2.95723 0.486648 0
M  V30 535 H 49.2754 -1.56742 0.405409 0
M  V30 536 H 51.2674 -3.53022 -1.97883 0
M  V30 537 H 49.8374 -2.46971 -1.91636 0
M  V30 538 H 49.0574 -3.94104 0.0871128 0
M  V30 539 H 50.3454 -5.07558 -0.35536 0
M  V30 540 H 49.7434 -4.46239 -3.47688 0
M  V30 541 H 48.3004 -5.36884 -3.69592 0
M  V30 542 N 51.7335 -0.305618 -1.54608 0
M  V30 543 C 52.6815 0.584119 -2.25146 0
M  V30 544 C 53.6755 1.13326 -1.25911 0
M  V30 545 O 54.8815 1.08337 -1.43747 0
M  V30 546 H 51.2565 0.206983 -0.722954 0
M  V30 547 H 53.2275 -0.033291 -2.98381 0
M  V30 548 C 51.9765 1.74225 -3.009 0
M  V30 549 H 51.2995 1.32892 -3.77067 0
M  V30 550 H 52.7395 2.34077 -3.53531 0
M  V30 551 C 51.1985 2.64914 -2.0814 0
M  V30 552 O 51.7285 3.66137 -1.65246 0
M  V30 553 N 49.9345 2.3275 -1.74 0
M  V30 554 H 49.4815 1.50479 -2.09078 0
M  V30 555 H 49.4395 2.93694 -1.12211 0
M  V30 556 N 53.2116 1.57565 -0.0334293 0
M  V30 557 C 54.1416 2.13511 0.945265 0
M  V30 558 C 55.1226 1.05231 1.33643 0
M  V30 559 O 56.3076 1.33084 1.41429 0
M  V30 560 C 53.4376 2.6657 2.22616 0
M  V30 561 C 52.3916 3.79676 1.97561 0
M  V30 562 C 51.7176 4.1918 3.31952 0
M  V30 563 C 53.0176 5.0557 1.31135 0
M  V30 564 H 54.7116 2.95538 0.479325 0
M  V30 565 H 52.2576 1.42166 0.229115 0
M  V30 566 H 54.2106 3.04344 2.91466 0
M  V30 567 H 52.9346 1.8171 2.71384 0
M  V30 568 H 51.5936 3.42347 1.31127 0
M  V30 569 H 51.2416 3.31296 3.78487 0
M  V30 570 H 50.9416 4.95402 3.15992 0
M  V30 571 H 52.4656 4.59541 4.02063 0
M  V30 572 H 53.8796 5.40903 1.89992 0
M  V30 573 H 52.2766 5.86818 1.25559 0
M  V30 574 H 53.3466 4.84062 0.284894 0
M  V30 575 N 54.6897 -0.239769 1.55765 0
M  V30 576 C 55.9377 -0.964892 1.77579 0
M  V30 577 C 56.2587 -1.85582 0.598699 0
M  V30 578 O 55.5287 -1.92075 -0.385226 0
M  V30 579 H 54.1087 -0.359265 0.654933 0
M  V30 580 H 56.7707 -0.256001 1.93211 0
M  V30 581 H 55.8667 -1.58243 2.69009 0
M  V30 582 N 56.1678 -1.49265 -0.50573 0
M  V30 583 C 57.0998 -1.617 -1.62437 0
M  V30 584 C 58.1128 -0.499924 -1.54934 0
M  V30 585 O 59.3018 -0.771785 -1.60953 0
M  V30 586 C 56.4018 -1.5533 -3.01207 0
M  V30 587 C 55.5748 -2.8249 -3.33943 0
M  V30 588 C 54.6338 -2.69238 -4.52103 0
M  V30 589 O 53.6598 -3.43167 -4.5412 0
M  V30 590 N 54.8618 -1.80468 -5.51735 0
M  V30 591 H 57.6268 -2.58177 -1.52199 0
M  V30 592 H 55.1878 -1.46294 -0.693511 0
M  V30 593 H 57.1798 -1.44125 -3.78167 0
M  V30 594 H 55.7498 -0.667297 -3.05395 0
M  V30 595 H 54.9698 -3.08081 -2.45926 0
M  V30 596 H 56.2578 -3.66802 -3.5261 0
M  V30 597 H 55.6558 -1.19653 -5.52901 0
M  V30 598 H 54.2128 -1.75188 -6.27816 0
M  V30 599 N 57.6459 0.756429 -1.3826 0
M  V30 600 C 58.8739 1.54565 -1.3754 0
M  V30 601 C 59.2889 1.88767 0.0355331 0
M  V30 602 O 58.6459 1.52572 1.0014 0
M  V30 603 C 58.6969 2.84654 -2.22833 0
M  V30 604 O 58.4179 2.51912 -3.5843 0
M  V30 605 C 59.9189 3.78807 -2.30261 0
M  V30 606 H 57.1389 0.478353 -0.470553 0
M  V30 607 H 59.6829 0.936381 -1.81803 0
M  V30 608 H 57.8379 3.41965 -1.8204 0
M  V30 609 H 58.2519 3.35325 -4.03308 0
M  V30 610 H 59.7259 4.67045 -2.94233 0
M  V30 611 H 60.2029 4.19038 -1.31545 0
M  V30 612 H 60.8089 3.2742 -2.71433 0
M  V30 613 N 59.124 1.23083 0.984299 0
M  V30 614 C 60.37 1.06214 1.72761 0
M  V30 615 C 60.703 -0.400584 1.90024 0
M  V30 616 O 59.978 -1.29672 1.44967 0
M  V30 617 C 60.261 1.78375 3.12817 0
M  V30 618 C 60.114 3.32296 3.03149 0
M  V30 619 C 61.433 1.54309 4.12161 0
M  V30 620 H 58.552 0.387251 0.627061 0
M  V30 621 H 61.194 1.51536 1.14616 0
M  V30 622 H 59.344 1.39848 3.62457 0
M  V30 623 H 61.016 3.8032 2.61064 0
M  V30 624 H 59.259 3.6153 2.39747 0
M  V30 625 H 59.93 3.77972 4.02295 0
M  V30 626 H 62.406 1.87791 3.71314 0
M  V30 627 H 61.282 2.07281 5.08258 0
M  V30 628 H 61.543 0.477572 4.39513 0
M  V30 629 N 60.6021 -1.18246 1.0419 0
M  V30 630 C 61.8271 -1.92736 0.765996 0
M  V30 631 C 62.2521 -1.75728 -0.67091 0
M  V30 632 O 61.6101 -1.06825 -1.46486 0
M  V30 633 C 61.6581 -3.42148 1.13875 0
M  V30 634 O 60.7621 -4.11548 0.264954 0
M  V30 635 H 60.1031 -0.601238 0.281797 0
M  V30 636 H 62.6331 -1.49942 1.39207 0
M  V30 637 H 62.6431 -3.92858 1.1012 0
M  V30 638 H 61.3181 -3.53848 2.18551 0
M  V30 639 H 59.8951 -3.71137 0.362226 0
M  V30 640 N 62.0802 -0.821533 -1.34494 0
M  V30 641 C 63.0102 -0.257138 -2.3208 0
M  V30 642 C 63.9912 0.625645 -1.58176 0
M  V30 643 O 65.1762 0.552811 -1.86166 0
M  V30 644 C 62.3062 0.582958 -3.42372 0
M  V30 645 C 61.2602 -0.202571 -4.2752 0
M  V30 646 C 60.5862 0.760179 -5.29269 0
M  V30 647 C 61.8862 -1.40998 -5.02908 0
M  V30 648 H 63.5802 -1.07247 -2.79532 0
M  V30 649 H 61.1262 -0.517163 -1.34393 0
M  V30 650 H 63.0792 0.987972 -4.09655 0
M  V30 651 H 61.8032 1.43133 -2.93565 0
M  V30 652 H 60.4622 -0.588936 -3.61838 0
M  V30 653 H 60.1102 1.60447 -4.76724 0
M  V30 654 H 59.8102 0.238809 -5.87115 0
M  V30 655 H 61.3342 1.16308 -5.9942 0
M  V30 656 H 62.7482 -1.07905 -5.63054 0
M  V30 657 H 61.1452 -1.86689 -5.70322 0
M  V30 658 H 62.2152 -2.1889 -4.32684 0
M  V30 659 N 63.5583 1.46682 -0.576371 0
M  V30 660 C 64.5213 2.28707 0.150239 0
M  V30 661 C 65.5213 1.38035 0.824794 0
M  V30 662 O 66.7113 1.60476 0.677719 0
M  V30 663 C 63.8433 3.18248 1.22192 0
M  V30 664 H 65.0363 2.94423 -0.570521 0
M  V30 665 H 62.5893 1.52688 -0.334078 0
M  V30 666 H 63.3243 2.57265 1.97447 0
M  V30 667 H 63.1093 3.85 0.742812 0
M  V30 668 H 64.5993 3.80001 1.73172 0
M  V30 669 N 65.0364 0.313813 1.54444 0
M  V30 670 C 66.4474 -0.176243 1.85866 0
M  V30 671 C 66.7984 -1.52405 1.23561 0
M  V30 672 O 65.9234 -2.09605 0.538016 0
M  V30 673 C 66.5184 -0.32657 3.37222 0
M  V30 674 C 65.0774 -0.760846 3.6863 0
M  V30 675 C 64.2244 0.123247 2.77026 0
M  V30 676 H 67.1754 0.534418 1.49431 0
M  V30 677 H 67.1964 -1.15908 3.62416 0
M  V30 678 H 66.7084 0.654531 3.82541 0
M  V30 679 H 64.8094 -1.75204 3.28838 0
M  V30 680 H 64.9224 -0.571353 4.75681 0
M  V30 681 H 63.2864 -0.399597 2.51546 0
M  V30 682 H 64.0694 1.10094 3.25168 0
M  V30 683 N 66.5145 -1.57545 0.0417849 0
M  V30 684 C 67.4775 -2.09885 -0.92093 0
M  V30 685 C 68.4775 -1.01648 -1.24596 0
M  V30 686 O 69.6675 -1.27759 -1.1842 0
M  V30 687 C 66.7995 -2.57527 -2.23367 0
M  V30 688 H 67.9925 -2.96236 -0.467382 0
M  V30 689 H 65.5455 -1.5493 -0.206467 0
M  V30 690 H 66.2805 -1.74542 -2.73323 0
M  V30 691 H 66.0655 -3.36613 -2.01083 0
M  V30 692 H 67.5555 -2.98201 -2.92346 0
M  V30 693 N 67.9926 0.231505 -1.5589 0
M  V30 694 C 69.2386 0.95877 -1.78705 0
M  V30 695 C 69.5716 1.8438 -0.609725 0
M  V30 696 O 68.8466 1.90521 0.391426 0
M  V30 697 C 69.1296 1.8062 -3.11526 0
M  V30 698 C 68.9826 0.948328 -4.39689 0
M  V30 699 C 70.3016 2.78585 -3.40703 0
M  V30 700 H 67.4206 0.347129 -0.650131 0
M  V30 701 H 70.0626 0.228259 -1.88624 0
M  V30 702 H 68.2126 2.42902 -3.03201 0
M  V30 703 H 69.8846 0.343016 -4.60023 0
M  V30 704 H 68.1276 0.253314 -4.3306 0
M  V30 705 H 68.7986 1.57543 -5.29041 0
M  V30 706 H 71.2746 2.26439 -3.49091 0
M  V30 707 H 70.1506 3.34988 -4.34826 0
M  V30 708 H 70.4116 3.55825 -2.62375 0
M  V30 709 N 69.4707 1.49531 0.497807 0
M  V30 710 C 70.3807 1.69176 1.62532 0
M  V30 711 C 71.3967 0.5744 1.64246 0
M  V30 712 O 72.5727 0.849497 1.82608 0
M  V30 713 C 69.6377 1.75695 2.98885 0
M  V30 714 C 68.6987 2.9929 3.07773 0
M  V30 715 C 67.9317 3.05488 4.37622 0
M  V30 716 O 68.1547 2.19192 5.26603 0
M  V30 717 O 67.0887 3.9798 4.51548 0
M  V30 718 H 70.9147 2.647 1.48887 0
M  V30 719 H 68.4997 1.3331 0.674441 0
M  V30 720 H 70.3817 1.82317 3.79919 0
M  V30 721 H 69.0567 0.8335 3.12785 0
M  V30 722 H 67.9637 2.98183 2.25915 0
M  V30 723 H 69.2967 3.91125 2.98801 0
M  V30 724 N 70.9488 -0.749086 1.3866 0
M  V30 725 C 71.9118 -1.84457 1.36045 0
M  V30 726 C 72.9118 -1.58682 0.260122 0
M  V30 727 O 74.1018 -1.66343 0.517261 0
M  V30 728 C 71.2338 -3.22008 1.11911 0
M  V30 729 H 72.4268 -1.88182 2.33512 0
M  V30 730 H 69.9798 -0.951266 1.24019 0
M  V30 731 H 70.7148 -3.2395 0.150686 0
M  V30 732 H 70.4998 -3.42111 1.91579 0
M  V30 733 H 71.9898 -4.0208 1.12788 0
M  V30 734 N 72.4269 -1.23603 -0.977757 0
M  V30 735 C 73.3899 -1.02069 -2.05218 0
M  V30 736 C 74.3899 0.0184305 -1.60789 0
M  V30 737 O 75.5799 -0.221569 -1.72785 0
M  V30 738 C 72.7119 -0.544926 -3.36517 0
M  V30 739 H 73.9049 -1.9742 -2.25755 0
M  V30 740 H 71.4579 -1.05684 -1.15155 0
M  V30 741 H 72.1929 0.412241 -3.21669 0
M  V30 742 H 71.9779 -1.2948 -3.70105 0
M  V30 743 H 73.4679 -0.414985 -4.15533 0
M  V30 744 N 73.905 1.17692 -1.04816 0
M  V30 745 C 75.13 1.92327 -0.776207 0
M  V30 746 C 75.555 1.76082 0.661581 0
M  V30 747 O 74.913 1.076 1.45917 0
M  V30 748 C 74.961 3.41539 -1.15687 0
M  V30 749 O 74.065 4.11402 -0.286775 0
M  V30 750 H 73.406 0.599735 -0.284981 0
M  V30 751 H 75.936 1.49201 -1.4 0
M  V30 752 H 75.946 3.92269 -1.12202 0
M  V30 753 H 74.621 3.52684 -2.20425 0
M  V30 754 H 73.198 3.70939 -0.381903 0
M  V30 755 N 75.3831 0.828654 1.34056 0
M  V30 756 C 76.3161 0.199763 2.27324 0
M  V30 757 C 77.2941 -0.647168 1.49166 0
M  V30 758 O 78.4781 -0.609661 1.78369 0
M  V30 759 C 75.6051 -0.720455 3.30949 0
M  V30 760 C 74.6511 0.0496888 4.26471 0
M  V30 761 S 75.4841 1.40072 5.16856 0
M  V30 762 C 76.6401 0.485527 6.24014 0
M  V30 763 H 76.8731 0.990478 2.80316 0
M  V30 764 H 74.4061 0.624857 1.41191 0
M  V30 765 H 76.3641 -1.24581 3.91139 0
M  V30 766 H 75.0251 -1.48474 2.76793 0
M  V30 767 H 74.2181 -0.650104 4.9979 0
M  V30 768 H 73.8201 0.505779 3.70564 0
M  V30 769 H 76.1121 -0.320672 6.76741 0
M  V30 770 H 77.0551 1.18856 6.98054 0
M  V30 771 H 77.4631 0.0714109 5.64455 0
M  V30 772 N 76.8612 -1.46375 0.584142 0
M  V30 773 C 77.7912 -2.33103 -0.136037 0
M  V30 774 C 78.7722 -1.45431 -0.882255 0
M  V30 775 O 79.9572 -1.74246 -0.857434 0
M  V30 776 C 77.0872 -3.27731 -1.14933 0
M  V30 777 C 76.0412 -4.24855 -0.517862 0
M  V30 778 C 75.3672 -5.09001 -1.63773 0
M  V30 779 C 76.6672 -5.19439 0.545886 0
M  V30 780 H 78.3612 -2.93568 0.588086 0
M  V30 781 H 75.9072 -1.41166 0.284259 0
M  V30 782 H 77.8602 -3.87261 -1.66153 0
M  V30 783 H 76.5842 -2.65377 -1.90375 0
M  V30 784 H 75.2432 -3.6659 -0.0267361 0
M  V30 785 H 74.8912 -4.43031 -2.38185 0
M  V30 786 H 74.5912 -5.74777 -1.22085 0
M  V30 787 H 76.1152 -5.71396 -2.15266 0
M  V30 788 H 77.5292 -5.73177 0.118704 0
M  V30 789 H 75.9262 -5.93566 0.88317 0
M  V30 790 H 76.9962 -4.63285 1.43162 0
M  V30 791 N 78.3393 -0.321999 -1.54275 0
M  V30 792 C 79.2863 0.544664 -2.24281 0
M  V30 793 C 80.2563 1.1129 -1.23303 0
M  V30 794 O 81.4413 1.15354 -1.51981 0
M  V30 795 C 78.5813 1.70045 -3.00298 0
M  V30 796 C 77.6943 1.16159 -4.1609 0
M  V30 797 C 76.8293 2.28293 -4.79641 0
M  V30 798 C 75.8683 1.71648 -5.8754 0
M  V30 799 N 75.0053 2.77438 -6.44959 0
M  V30 800 H 79.8453 -0.0588907 -2.97942 0
M  V30 801 H 77.3823 -0.0408345 -1.47043 0
M  V30 802 H 79.3403 2.38054 -3.42616 0
M  V30 803 H 77.9703 2.27531 -2.28975 0
M  V30 804 H 77.0223 0.373092 -3.78566 0
M  V30 805 H 78.3343 0.707087 -4.93763 0
M  V30 806 H 77.4883 3.0421 -5.2492 0
M  V30 807 H 76.2273 2.77079 -4.01346 0
M  V30 808 H 75.2323 0.942282 -5.41665 0
M  V30 809 H 76.4573 1.23741 -6.67731 0
M  V30 810 H 74.4033 3.25519 -5.69538 0
M  V30 811 H 74.3203 2.36547 -7.1804 0
M  V30 812 H 75.5883 3.53189 -6.94894 0
M  V30 813 N 79.8174 1.5752 -0.0501392 0
M  V30 814 C 80.7504 2.07026 0.959962 0
M  V30 815 C 81.7284 0.970539 1.30458 0
M  V30 816 O 82.9124 1.2424 1.41763 0
M  V30 817 C 80.0394 2.5099 2.27424 0
M  V30 818 C 79.0854 3.72188 2.08275 0
M  V30 819 S 79.9184 5.17888 1.36207 0
M  V30 820 C 81.0744 5.65165 2.6896 0
M  V30 821 H 81.3074 2.9238 0.538631 0
M  V30 822 H 78.8404 1.53547 0.162099 0
M  V30 823 H 80.7984 2.76982 3.02971 0
M  V30 824 H 79.4594 1.65944 2.66686 0
M  V30 825 H 78.6524 4.00866 3.05487 0
M  V30 826 H 78.2544 3.46457 1.40868 0
M  V30 827 H 80.5464 5.70687 3.65133 0
M  V30 828 H 81.4894 6.64394 2.4492 0
M  V30 829 H 81.8974 4.9289 2.75172 0
M  V30 830 N 81.2955 -0.223234 1.56011 0
M  V30 831 C 82.2055 -1.29766 1.95443 0
M  V30 832 C 83.2215 -1.51373 0.858028 0
M  V30 833 O 84.3975 -1.64536 1.16146 0
M  V30 834 C 81.4625 -2.62772 2.26167 0
M  V30 835 C 80.5235 -2.49482 3.49367 0
M  V30 836 C 79.7565 -3.76145 3.78616 0
M  V30 837 O 79.9795 -4.79087 3.09568 0
M  V30 838 O 78.9135 -3.73358 4.72109 0
M  V30 839 H 82.7395 -0.99309 2.87004 0
M  V30 840 H 80.3245 -0.425958 1.43199 0
M  V30 841 H 82.2065 -3.41327 2.47131 0
M  V30 842 H 80.8815 -2.92913 1.37781 0
M  V30 843 H 79.7885 -1.69133 3.33684 0
M  V30 844 H 81.1215 -2.2428 4.38131 0
M  V30 845 N 82.7736 -1.49793 -0.48987 0
M  V30 846 C 84.1846 -1.52914 -1.07118 0
M  V30 847 C 84.5356 -0.321738 -1.93544 0
M  V30 848 O 83.6606 0.567338 -2.08831 0
M  V30 849 C 84.2556 -2.771 -1.94938 0
M  V30 850 C 82.8146 -2.82963 -2.48212 0
M  V30 851 C 81.9616 -2.46972 -1.26096 0
M  V30 852 H 84.9126 -1.56329 -0.273289 0
M  V30 853 H 84.9336 -2.57892 -2.79771 0
M  V30 854 H 84.4456 -3.64959 -1.32009 0
M  V30 855 H 82.5466 -1.99411 -3.14748 0
M  V30 856 H 82.6596 -3.85406 -2.84603 0
M  V30 857 H 81.0236 -1.98994 -1.58976 0
M  V30 858 H 81.8066 -3.37118 -0.648581 0
M  V30 859 N 84.2517 0.741722 -1.39055 0
M  V30 860 C 85.1817 1.869 -1.39966 0
M  V30 861 C 86.1627 1.6804 -0.26392 0
M  V30 862 O 87.3477 1.88458 -0.468755 0
M  V30 863 C 84.4777 3.24572 -1.23574 0
M  V30 864 C 83.4317 3.58056 -2.34477 0
M  V30 865 C 82.7577 4.94593 -2.0318 0
M  V30 866 C 84.0577 3.61716 -3.76774 0
M  V30 867 H 85.7517 1.86395 -2.34302 0
M  V30 868 H 83.2977 0.895361 -1.1278 0
M  V30 869 H 85.2507 4.031 -1.22834 0
M  V30 870 H 83.9747 3.25587 -0.257045 0
M  V30 871 H 82.6337 2.81854 -2.34423 0
M  V30 872 H 82.2817 4.92181 -1.03765 0
M  V30 873 H 81.9817 5.17964 -2.77465 0
M  V30 874 H 83.5057 5.75486 -2.04079 0
M  V30 875 H 84.9197 4.30335 -3.78794 0
M  V30 876 H 83.3167 3.96603 -4.50362 0
M  V30 877 H 84.3867 2.61672 -4.08235 0
M  V30 878 N 85.7298 1.2412 0.971189 0
M  V30 879 C 86.6778 1.02812 2.08644 0
M  V30 880 C 87.6718 -0.0358403 1.69362 0
M  V30 881 O 88.8778 0.118429 1.7961 0
M  V30 882 H 85.2528 0.315428 0.682649 0
M  V30 883 H 87.2238 1.97397 2.23779 0
M  V30 884 C 85.9728 0.645874 3.41649 0
M  V30 885 H 85.2958 1.45632 3.72332 0
M  V30 886 H 86.7358 0.536366 4.20594 0
M  V30 887 C 85.1948 -0.646713 3.30635 0
M  V30 888 O 85.7248 -1.69338 3.64263 0
M  V30 889 N 83.9308 -0.626115 2.83775 0
M  V30 890 H 83.4778 0.225988 2.56607 0
M  V30 891 H 83.4358 -1.49117 2.76788 0
M  V30 892 N 87.2079 -1.17134 1.05439 0
M  V30 893 C 88.4329 -1.91913 0.786396 0
M  V30 894 C 88.8579 -1.7643 -0.652234 0
M  V30 895 O 88.2159 -1.08372 -1.45345 0
M  V30 896 C 88.2639 -3.40921 1.17497 0
M  V30 897 O 87.3679 -4.11244 0.308589 0
M  V30 898 H 86.7089 -0.598215 0.288158 0
M  V30 899 H 89.2389 -1.48457 1.4079 0
M  V30 900 H 89.2489 -3.91668 1.14281 0
M  V30 901 H 87.9239 -3.5151 2.22292 0
M  V30 902 H 86.5009 -3.70731 0.40157 0
M  V30 903 N 88.686 -0.835752 -1.33615 0
M  V30 904 C 89.914 -0.443344 -2.02094 0
M  V30 905 C 90.329 0.954522 -1.62894 0
M  V30 906 O 89.686 1.61982 -0.840723 0
M  V30 907 C 89.737 -0.550775 -3.5728 0
M  V30 908 O 89.458 -1.89356 -3.95065 0
M  V30 909 C 90.959 -0.154919 -4.43029 0
M  V30 910 H 88.179 -0.176359 -0.647409 0
M  V30 911 H 90.723 -1.12746 -1.70612 0
M  V30 912 H 88.878 0.0853997 -3.87306 0
M  V30 913 H 89.292 -1.87687 -4.89769 0
M  V30 914 H 90.766 -0.281144 -5.51284 0
M  V30 915 H 91.243 0.902863 -4.2982 0
M  V30 916 H 91.849 -0.765404 -4.18356 0
M  V30 917 N 90.1641 1.46063 -0.591896 0
M  V30 918 C 91.1141 2.27458 0.157172 0
M  V30 919 C 92.0981 1.3641 0.853301 0
M  V30 920 O 93.2901 1.60517 0.74588 0
M  V30 921 C 90.4191 3.22956 1.16423 0
M  V30 922 C 89.5051 4.2149 0.469742 0
M  V30 923 N 89.8961 5.03519 -0.479839 0
M  V30 924 C 88.1941 4.40161 0.719319 0
M  V30 925 C 88.8951 5.74904 -0.886591 0
M  V30 926 N 87.8711 5.43097 -0.233731 0
M  V30 927 H 91.6731 2.88272 -0.572392 0
M  V30 928 H 89.1871 1.57024 -0.414375 0
M  V30 929 H 91.1841 3.79986 1.71513 0
M  V30 930 H 89.8441 2.63701 1.89451 0
M  V30 931 H 90.8551 5.1078 -0.855823 0
M  V30 932 H 87.5321 3.92046 1.43548 0
M  V30 933 H 88.9221 6.50844 -1.66888 0
M  V30 934 N 91.6422 0.330177 1.54103 0
M  V30 935 C 93.0532 -0.15652 1.86043 0
M  V30 936 C 93.4042 -1.51086 1.2517 0
M  V30 937 O 92.5292 -2.09023 0.560217 0
M  V30 938 C 93.1242 -0.290784 3.3755 0
M  V30 939 C 91.6832 -0.721705 3.69416 0
M  V30 940 C 90.8302 0.152622 2.7688 0
M  V30 941 H 93.7812 0.550237 1.48856 0
M  V30 942 H 93.8022 -1.12058 3.63625 0
M  V30 943 H 93.3142 0.695068 3.81825 0
M  V30 944 H 91.4152 -1.71706 3.30678 0
M  V30 945 H 91.5282 -0.520869 4.7626 0
M  V30 946 H 89.8922 -0.372894 2.51956 0
M  V30 947 H 90.6752 1.13536 3.23982 0
M  V30 948 N 93.1203 -1.57491 0.0584922 0
M  V30 949 C 94.3683 -1.92597 -0.612436 0
M  V30 950 C 94.6893 -0.938162 -1.70949 0
M  V30 951 O 93.9593 0.0158301 -1.95894 0
M  V30 952 H 92.5393 -0.710964 -0.229214 0
M  V30 953 H 95.2013 -1.94571 0.113218 0
M  V30 954 H 94.2973 -2.94038 -1.04633 0
M  V30 955 N 94.5984 0.214957 -1.56127 0
M  V30 956 C 95.8264 0.955092 -1.83536 0
M  V30 957 C 96.2414 1.77677 -0.638472 0
M  V30 958 O 95.5984 1.78219 0.392968 0
M  V30 959 C 95.6494 1.86734 -3.09536 0
M  V30 960 O 95.3704 1.07887 -4.24608 0
M  V30 961 C 96.8714 2.72082 -3.4998 0
M  V30 962 H 94.0914 0.279611 -0.609966 0
M  V30 963 H 96.6354 0.228197 -2.03223 0
M  V30 964 H 94.7904 2.5481 -2.91806 0
M  V30 965 H 95.2044 1.69872 -4.9623 0
M  V30 966 H 96.6784 3.31782 -4.41163 0
M  V30 967 H 97.1554 3.44806 -2.7204 0
M  V30 968 H 97.7614 2.09409 -3.70173 0
M  V30 969 N 96.0765 1.50051 0.48192 0
M  V30 970 C 97.0395 1.67584 1.5636 0
M  V30 971 C 98.0395 0.546894 1.51214 0
M  V30 972 O 99.2295 0.813725 1.54026 0
M  V30 973 C 96.3615 1.691 2.96003 0
M  V30 974 H 97.5545 2.64078 1.42136 0
M  V30 975 H 95.1075 1.39369 0.707533 0
M  V30 976 H 95.8425 0.742589 3.15684 0
M  V30 977 H 95.6275 2.51105 3.01146 0
M  V30 978 H 97.1175 1.84656 3.74556 0
M  V30 979 N 97.5546 -0.734337 1.39446 0
M  V30 980 C 98.5176 -1.83004 1.37994 0
M  V30 981 C 99.5176 -1.58397 0.276938 0
M  V30 982 O 100.708 -1.65785 0.534875 0
M  V30 983 C 97.8396 -3.20802 1.1532 0
M  V30 984 H 99.0326 -1.85694 2.35494 0
M  V30 985 H 96.5856 -0.938059 1.25021 0
M  V30 986 H 97.3206 -3.23772 0.185036 0
M  V30 987 H 97.1056 -3.4006 1.95197 0
M  V30 988 H 98.5956 -4.00862 1.17046 0
M  V30 989 N 99.0327 -1.24633 -0.964593 0
M  V30 990 C 100.258 -1.11596 -1.74818 0
M  V30 991 C 100.683 0.32723 -1.85232 0
M  V30 992 O 100.041 1.23695 -1.32549 0
M  V30 993 C 100.089 -1.76397 -3.1451 0
M  V30 994 O 99.1927 -1.03685 -3.99153 0
M  V30 995 H 98.5337 -0.390196 -0.537255 0
M  V30 996 H 101.064 -1.65002 -1.20977 0
M  V30 997 H 101.074 -1.8228 -3.65018 0
M  V30 998 H 99.7487 -2.81401 -3.06246 0
M  V30 999 H 98.3257 -1.05611 -3.57632 0
M  V30 1000 N 100.511 1.16574 -1.06058 0
M  V30 1001 C 101.736 1.91493 -0.796562 0
M  V30 1002 C 102.161 1.76773 0.642868 0
M  V30 1003 O 101.519 1.09142 1.44768 0
M  V30 1004 C 101.567 3.40293 -1.19303 0
M  V30 1005 O 100.671 4.11074 -0.330394 0
M  V30 1006 H 100.012 0.596678 -0.291326 0
M  V30 1007 H 102.542 1.47708 -1.41575 0
M  V30 1008 H 102.552 3.91057 -1.16356 0
M  V30 1009 H 101.227 3.50326 -2.24153 0
M  V30 1010 H 99.8038 3.70513 -0.421225 0
M  V30 1011 N 101.989 0.842826 1.3317 0
M  V30 1012 C 103.214 0.453129 2.02389 0
M  V30 1013 C 103.639 -0.939105 1.6298 0
M  V30 1014 O 102.997 -1.61472 0.8244 0
M  V30 1015 C 103.045 0.586094 3.55805 0
M  V30 1016 O 102.149 -0.386029 4.10589 0
M  V30 1017 H 101.49 0.183664 0.638094 0
M  V30 1018 H 104.02 1.13875 1.69981 0
M  V30 1019 H 104.03 0.469209 4.05293 0
M  V30 1020 H 102.705 1.6014 3.83833 0
M  V30 1021 H 101.282 -0.226371 3.72212 0
M  V30 1022 N 103.467 -1.45747 0.599634 0
M  V30 1023 C 104.878 -1.85853 0.177681 0
M  V30 1024 C 105.229 -1.50102 -1.26348 0
M  V30 1025 O 104.354 -0.923905 -1.95686 0
M  V30 1026 C 104.949 -3.37326 0.315688 0
M  V30 1027 C 103.508 -3.76365 -0.0515144 0
M  V30 1028 C 102.655 -2.69722 0.643822 0
M  V30 1029 H 105.606 -1.36661 0.806814 0
M  V30 1030 H 105.627 -3.77778 -0.454321 0
M  V30 1031 H 105.139 -3.63315 1.36468 0
M  V30 1032 H 103.24 -3.55993 -1.09999 0
M  V30 1033 H 103.353 -4.77916 0.336594 0
M  V30 1034 H 101.717 -2.54567 0.0822881 0
M  V30 1035 H 102.5 -2.98549 1.6948 0
M  V30 1036 N 104.945 -0.338344 -1.53925 0
M  V30 1037 C 105.875 0.51328 -2.27789 0
M  V30 1038 C 106.856 1.107 -1.29149 0
M  V30 1039 O 108.041 1.12937 -1.57984 0
M  V30 1040 C 105.171 1.66697 -3.04679 0
M  V30 1041 C 104.125 1.20183 -4.1078 0
M  V30 1042 C 103.451 2.44363 -4.75595 0
M  V30 1043 C 104.751 0.30605 -5.21403 0
M  V30 1044 H 106.445 -0.102883 -2.99223 0
M  V30 1045 H 103.991 -0.0509219 -1.4391 0
M  V30 1046 H 105.944 2.26915 -3.55088 0
M  V30 1047 H 104.668 2.30995 -2.30887 0
M  V30 1048 H 103.327 0.622499 -3.61276 0
M  V30 1049 H 102.975 3.07057 -3.98403 0
M  V30 1050 H 102.675 2.13925 -5.47275 0
M  V30 1051 H 104.199 3.05317 -5.28786 0
M  V30 1052 H 105.613 0.814929 -5.67478 0
M  V30 1053 H 104.01 0.0937929 -6.00027 0
M  V30 1054 H 105.08 -0.65921 -4.80398 0
M  V30 1055 N 106.423 1.57458 -0.0668435 0
M  V30 1056 C 107.333 2.15937 0.916975 0
M  V30 1057 C 108.349 1.12123 1.33058 0
M  V30 1058 O 109.525 1.44366 1.40429 0
M  V30 1059 C 106.59 2.70547 2.16807 0
M  V30 1060 C 105.651 3.89215 1.81135 0
M  V30 1061 C 104.884 4.41211 3.0028 0
M  V30 1062 O 105.107 3.92225 4.14144 0
M  V30 1063 O 104.041 5.32605 2.80384 0
M  V30 1064 H 107.867 3.00354 0.449561 0
M  V30 1065 H 105.452 1.48584 0.155949 0
M  V30 1066 H 107.334 3.0557 2.90181 0
M  V30 1067 H 106.009 1.89192 2.62656 0
M  V30 1068 H 104.916 3.59054 1.05028 0
M  V30 1069 H 106.249 4.71848 1.40073 0
M  V30 1070 N 107.901 -0.206675 1.56239 0
M  V30 1071 C 109.126 -0.949474 1.8439 0
M  V30 1072 C 109.551 -1.76549 0.649016 0
M  V30 1073 O 108.909 -1.76782 -0.402231 0
M  V30 1074 C 108.957 -1.83078 3.10668 0
M  V30 1075 O 108.061 -2.9281 2.90407 0
M  V30 1076 H 107.402 -0.268033 0.607499 0
M  V30 1077 H 109.932 -0.215488 2.03462 0
M  V30 1078 H 109.942 -2.2377 3.41161 0
M  V30 1079 H 108.617 -1.23112 3.97261 0
M  V30 1080 H 107.194 -2.55956 2.71184 0
M  V30 1081 N 109.379 -1.50304 -0.473955 0
M  V30 1082 C 110.795 -1.37667 -0.807466 0
M  V30 1083 C 110.995 -0.430555 -1.96846 0
M  V30 1084 O 110.051 0.127874 -2.52176 0
M  V30 1085 C 111.364 -2.78974 -1.12223 0
M  V30 1086 C 112.912 -2.87868 -1.22885 0
M  V30 1087 C 113.387 -4.30003 -1.57676 0
M  V30 1088 N 114.878 -4.3294 -1.64673 0
M  V30 1089 C 115.613 -5.3991 -1.93091 0
M  V30 1090 N 115.109 -6.57092 -2.1955 0
M  V30 1091 N 116.902 -5.27351 -1.94569 0
M  V30 1092 H 109.053 -2.10394 0.291212 0
M  V30 1093 H 111.316 -0.945575 0.0677609 0
M  V30 1094 H 111.022 -3.50031 -0.342229 0
M  V30 1095 H 110.896 -3.16038 -2.05913 0
M  V30 1096 H 113.283 -2.17032 -1.99953 0
M  V30 1097 H 113.364 -2.54352 -0.271814 0
M  V30 1098 H 113.008 -5.01375 -0.81149 0
M  V30 1099 H 112.938 -4.61004 -2.54525 0
M  V30 1100 H 115.429 -3.48441 -1.46277 0
M  V30 1101 H 115.742 -7.34425 -2.405 0
M  V30 1102 H 114.087 -6.60272 -2.16948 0
M  V30 1103 H 117.278 -4.34801 -1.73394 0
M  V30 1104 H 117.451 -6.10805 -2.16381 0
M  V30 1105 N 110.857 0.726932 -1.39834 0
M  V30 1106 C 111.82 1.82269 -1.38962 0
M  V30 1107 C 112.82 1.58248 -0.285334 0
M  V30 1108 O 114.01 1.65499 -0.54366 0
M  V30 1109 C 111.142 3.20186 -1.17019 0
M  V30 1110 H 112.335 1.84443 -2.36476 0
M  V30 1111 H 109.888 0.931416 -1.25516 0
M  V30 1112 H 110.623 3.23669 -0.202204 0
M  V30 1113 H 110.408 3.3902 -1.96998 0
M  V30 1114 H 111.898 4.00235 -1.1917 0
M  V30 1115 N 112.336 1.25143 0.95797 0
M  V30 1116 C 113.299 1.05321 2.03569 0
M  V30 1117 C 114.299 0.007152 1.60798 0
M  V30 1118 O 115.489 0.24903 1.72411 0
M  V30 1119 C 112.621 0.598394 3.35607 0
M  V30 1120 H 113.814 2.00986 2.22586 0
M  V30 1121 H 111.367 1.07502 1.13459 0
M  V30 1122 H 112.102 -0.361014 3.22284 0
M  V30 1123 H 111.887 1.35351 3.67998 0
M  V30 1124 H 113.377 0.48104 4.1482 0
M  V30 1125 N 113.814 -1.1601 1.06675 0
M  V30 1126 C 115.062 -1.86264 0.784229 0
M  V30 1127 C 115.383 -1.82328 -0.691488 0
M  V30 1128 O 114.653 -1.25947 -1.50047 0
M  V30 1129 H 113.233 -0.689621 0.28711 0
M  V30 1130 H 115.895 -1.40664 1.34906 0
M  V30 1131 H 114.991 -2.91595 1.11259 0
M  V30 1132 N 115.292 -0.849877 -1.32721 0
M  V30 1133 C 116.54 -0.450032 -1.97026 0
M  V30 1134 C 116.861 0.996604 -1.67609 0
M  V30 1135 O 116.131 1.6958 -0.980786 0
M  V30 1136 H 114.711 -0.163426 -0.728904 0
M  V30 1137 H 117.373 -1.08526 -1.6189 0
M  V30 1138 H 116.469 -0.591146 -3.0645 0
M  V30 1139 N 116.77 1.45427 -0.607355 0
M  V30 1140 C 118.018 2.01841 -0.102253 0
M  V30 1141 C 118.339 1.47832 1.27164 0
M  V30 1142 O 117.609 0.672497 1.83995 0
M  V30 1143 H 116.189 0.746188 -0.0348101 0
M  V30 1144 H 118.851 1.78229 -0.7887 0
M  V30 1145 H 117.947 3.12057 -0.0518585 0
M  V30 1146 N 118.248 0.346503 1.53744 0
M  V30 1147 C 119.473 -0.253074 2.0585 0
M  V30 1148 C 119.898 -1.43202 1.21962 0
M  V30 1149 O 119.256 -1.79783 0.234073 0
M  V30 1150 C 119.304 -0.643193 3.54817 0
M  V30 1151 O 118.408 -1.74286 3.73762 0
M  V30 1152 H 117.749 -0.0413583 0.662711 0
M  V30 1153 H 120.279 0.501574 1.98357 0
M  V30 1154 H 120.289 -0.919526 3.97503 0
M  V30 1155 H 118.964 0.218966 4.15323 0
M  V30 1156 H 117.541 -1.46356 3.42979 0
M  V30 1157 N 119.726 -1.57421 0.075193 0
M  V30 1158 C 120.974 -1.93236 -0.591974 0
M  V30 1159 C 121.295 -0.956241 -1.69944 0
M  V30 1160 O 120.565 -0.00494792 -1.95899 0
M  V30 1161 H 119.145 -0.713355 -0.22166 0
M  V30 1162 H 121.807 -1.9444 0.133848 0
M  V30 1163 H 120.903 -2.95131 -1.01509 0
M  V30 1164 N 121.204 0.198386 -1.56346 0
M  V30 1165 C 122.152 1.26538 -1.95169 0
M  V30 1166 C 123.146 1.47295 -0.836685 0
M  V30 1167 O 124.352 1.48195 -1.02167 0
M  V30 1168 H 120.727 0.424744 -0.620561 0
M  V30 1169 H 122.698 0.910904 -2.84157 0
M  V30 1170 C 121.447 2.6035 -2.30463 0
M  V30 1171 H 120.77 2.45192 -3.15786 0
M  V30 1172 H 122.21 3.33762 -2.61494 0
M  V30 1173 C 120.669 3.17096 -1.13806 0
M  V30 1174 O 121.199 3.99588 -0.41135 0
M  V30 1175 N 119.405 2.75795 -0.915736 0
M  V30 1176 H 118.952 2.08816 -1.50843 0
M  V30 1177 H 118.91 3.14101 -0.136979 0
M  V30 1178 N 122.682 1.50554 0.465978 0
M  V30 1179 C 123.93 1.61479 1.21528 0
M  V30 1180 C 124.251 0.319596 1.92363 0
M  V30 1181 O 123.521 -0.663194 1.84333 0
M  V30 1182 H 122.101 0.595055 0.451573 0
M  V30 1183 H 124.763 1.87355 0.53704 0
M  V30 1184 H 123.859 2.42846 1.96042 0
M  V30 1185 N 124.16 -0.719506 1.40217 0
M  V30 1186 C 125.108 -1.85493 1.40339 0
M  V30 1187 C 126.102 -1.66995 0.284415 0
M  V30 1188 O 127.308 -1.74148 0.455252 0
M  V30 1189 H 123.683 -0.610857 0.438586 0
M  V30 1190 H 125.654 -1.82506 2.36081 0
M  V30 1191 C 124.403 -3.23321 1.27901 0
M  V30 1192 H 123.726 -3.38159 2.1328 0
M  V30 1193 H 125.166 -4.02914 1.32045 0
M  V30 1194 C 123.625 -3.36898 -0.0111355 0
M  V30 1195 O 124.155 -3.89674 -0.975538 0
M  V30 1196 N 122.361 -2.90492 -0.0793393 0
M  V30 1197 H 121.908 -2.47731 0.706183 0
M  V30 1198 H 121.866 -2.99955 -0.942038 0
M  V30 1199 N 125.638 -1.25649 -0.95132 0
M  V30 1200 C 126.548 -1.08073 -2.08224 0
M  V30 1201 C 127.564 -0.0169666 -1.73992 0
M  V30 1202 O 128.74 -0.218593 -2.0021 0
M  V30 1203 C 125.805 -0.704922 -3.39458 0
M  V30 1204 C 124.866 -1.84699 -3.87537 0
M  V30 1205 C 124.099 -1.48902 -5.12508 0
M  V30 1206 O 124.322 -0.386156 -5.69091 0
M  V30 1207 O 123.256 -2.32033 -5.55378 0
M  V30 1208 H 127.082 -2.02924 -2.25954 0
M  V30 1209 H 124.667 -1.04618 -1.06656 0
M  V30 1210 H 126.549 -0.507609 -4.18332 0
M  V30 1211 H 125.224 0.214291 -3.2299 0
M  V30 1212 H 124.131 -2.09919 -3.09653 0
M  V30 1213 H 125.464 -2.74557 -4.08509 0
M  V30 1214 N 127.117 1.15442 -1.07289 0
M  V30 1215 C 128.347 1.89821 -0.815576 0
M  V30 1216 C 128.755 1.7823 0.634867 0
M  V30 1217 O 128.098 1.13152 1.44715 0
M  V30 1218 C 128.16 3.40817 -1.14385 0
M  V30 1219 C 127.824 3.76193 -2.59476 0
M  V30 1220 C 128.821 3.77269 -3.57721 0
M  V30 1221 C 126.506 4.0652 -2.95037 0
M  V30 1222 C 128.5 4.08176 -4.89562 0
M  V30 1223 C 126.187 4.37092 -4.27076 0
M  V30 1224 C 127.185 4.37902 -5.24148 0
M  V30 1225 O 126.873 4.67741 -6.53815 0
M  V30 1226 H 126.605 0.608465 -0.294528 0
M  V30 1227 H 129.159 1.472 -1.43252 0
M  V30 1228 H 127.389 3.83835 -0.469865 0
M  V30 1229 H 129.078 3.96485 -0.869179 0
M  V30 1230 H 129.844 3.5394 -3.3159 0
M  V30 1231 H 125.723 4.05049 -2.20128 0
M  V30 1232 H 129.267 4.08723 -5.65324 0
M  V30 1233 H 125.164 4.59889 -4.5296 0
M  V30 1234 H 125.932 4.85509 -6.58957 0
M  V30 1235 N 128.595 0.856903 1.32268 0
M  V30 1236 C 129.842 0.461386 1.97174 0
M  V30 1237 C 130.17 -0.983491 1.67803 0
M  V30 1238 O 129.425 -1.70541 0.959903 0
M  V30 1239 C 129.724 0.649919 3.51441 0
M  V30 1240 C 129.39 2.0656 4.00804 0
M  V30 1241 C 128.052 2.45279 4.13995 0
M  V30 1242 C 130.404 2.98947 4.26943 0
M  V30 1243 C 127.732 3.75653 4.50668 0
M  V30 1244 C 130.084 4.28822 4.65075 0
M  V30 1245 C 128.748 4.67472 4.76472 0
M  V30 1246 H 128.018 0.168833 0.72151 0
M  V30 1247 H 130.665 1.08739 1.57633 0
M  V30 1248 H 128.97 -0.0593018 3.91755 0
M  V30 1249 H 130.667 0.32391 3.9969 0
M  V30 1250 H 127.257 1.75495 3.91024 0
M  V30 1251 H 131.441 2.70265 4.16258 0
M  V30 1252 H 126.697 4.05379 4.57688 0
M  V30 1253 H 130.871 5.0047 4.84255 0
M  V30 1254 H 128.498 5.68539 5.04646 0
M  V30 1255 N 130.073 -1.45103 0.615059 0
M  V30 1256 C 131.303 -2.06254 0.119596 0
M  V30 1257 C 131.711 -1.4591 -1.20445 0
M  V30 1258 O 131.054 -0.570384 -1.7462 0
M  V30 1259 C 131.116 -3.59396 -0.0865591 0
M  V30 1260 C 130.78 -4.42116 1.15683 0
M  V30 1261 C 131.777 -4.7662 2.07676 0
M  V30 1262 C 129.462 -4.82749 1.38775 0
M  V30 1263 C 131.456 -5.50622 3.21082 0
M  V30 1264 C 129.143 -5.56504 2.52481 0
M  V30 1265 C 130.141 -5.90358 3.43463 0
M  V30 1266 O 129.829 -6.62615 4.55189 0
M  V30 1267 H 129.561 -0.672423 0.0694512 0
M  V30 1268 H 132.115 -1.87219 0.844885 0
M  V30 1269 H 130.345 -3.76859 -0.866823 0
M  V30 1270 H 132.034 -4.02365 -0.534555 0
M  V30 1271 H 132.8 -4.4578 1.91063 0
M  V30 1272 H 128.679 -4.55829 0.688545 0
M  V30 1273 H 132.223 -5.76965 3.92119 0
M  V30 1274 H 128.12 -5.86759 2.69043 0
M  V30 1275 H 128.888 -6.81071 4.53966 0
M  V30 1276 N 131.551 -0.354651 -1.53558 0
M  V30 1277 C 132.8 0.239504 -2.00273 0
M  V30 1278 C 133.113 1.50759 -1.24623 0
M  V30 1279 O 134.319 2.17968 -1.61871 0
M  V30 1280 C 132.775 0.477341 -3.5672 0
M  V30 1281 C 132.383 -0.775488 -4.41237 0
M  V30 1282 C 134.127 1.02975 -4.11821 0
M  V30 1283 C 132.034 -0.507838 -5.89216 0
M  V30 1284 H 130.964 0.0932743 -0.748208 0
M  V30 1285 H 133.615 -0.471701 -1.77334 0
M  V30 1286 H 131.997 1.24953 -3.7577 0
M  V30 1287 H 133.171 -1.54963 -4.33962 0
M  V30 1288 H 131.486 -1.25033 -3.97185 0
M  V30 1289 H 134.083 1.24513 -5.2 0
M  V30 1290 H 134.426 1.98862 -3.65731 0
M  V30 1291 H 134.959 0.317994 -3.96527 0
M  V30 1292 H 131.698 -1.43674 -6.39561 0
M  V30 1293 H 131.218 0.228011 -5.99366 0
M  V30 1294 H 132.897 -0.129238 -6.46871 0
M  V30 1295 N 133.029 1.57378 -0.0835403 0
M  V30 1296 C 133.959 2.1641 0.87686 0
M  V30 1297 C 134.94 1.09429 1.30228 0
M  V30 1298 O 136.125 1.37516 1.37124 0
M  V30 1299 C 133.255 2.73517 2.14022 0
M  V30 1300 C 132.209 3.85769 1.85381 0
M  V30 1301 C 131.535 4.29529 3.18448 0
M  V30 1302 C 132.835 5.09486 1.14984 0
M  V30 1303 H 134.529 2.96914 0.385059 0
M  V30 1304 H 132.075 1.42823 0.18377 0
M  V30 1305 H 134.028 3.13463 2.81636 0
M  V30 1306 H 132.752 1.90252 2.65465 0
M  V30 1307 H 131.411 3.46345 1.20169 0
M  V30 1308 H 131.059 3.43169 3.67755 0
M  V30 1309 H 130.759 5.05204 3.00071 0
M  V30 1310 H 132.283 4.72099 3.8724 0
M  V30 1311 H 133.697 5.46674 1.72687 0
M  V30 1312 H 132.094 5.90515 1.06826 0
M  V30 1313 H 133.164 4.84724 0.130749 0
M  V30 1314 N 134.507 -0.190092 1.56449 0
M  V30 1315 C 135.753 -0.911052 1.81184 0
M  V30 1316 C 136.086 -1.82699 0.658396 0
M  V30 1317 O 135.361 -1.91491 -0.340775 0
M  V30 1318 C 135.644 -1.72297 3.16205 0
M  V30 1319 C 135.497 -0.831419 4.42049 0
M  V30 1320 C 136.816 -2.69454 3.47969 0
M  V30 1321 H 133.935 -0.32977 0.659106 0
M  V30 1322 H 136.577 -0.178169 1.89163 0
M  V30 1323 H 134.727 -2.34778 3.09534 0
M  V30 1324 H 136.399 -0.220929 4.60771 0
M  V30 1325 H 134.642 -0.138406 4.33579 0
M  V30 1326 H 135.313 -1.43461 5.33032 0
M  V30 1327 H 137.789 -2.17104 3.54972 0
M  V30 1328 H 136.665 -3.23342 4.43555 0
M  V30 1329 H 136.926 -3.48744 2.71717 0
M  V30 1330 N 135.985 -1.50799 -0.457987 0
M  V30 1331 C 137.231 -1.62683 -1.21088 0
M  V30 1332 C 137.564 -0.332268 -1.91336 0
M  V30 1333 O 136.839 0.667043 -1.82704 0
M  V30 1334 C 137.122 -2.81615 -2.24422 0
M  V30 1335 C 136.975 -4.20989 -1.58392 0
M  V30 1336 C 138.294 -2.96085 -3.2561 0
M  V30 1337 H 135.413 -0.592087 -0.438864 0
M  V30 1338 H 138.055 -1.83225 -0.50286 0
M  V30 1339 H 136.205 -2.64231 -2.84806 0
M  V30 1340 H 137.877 -4.49994 -1.01504 0
M  V30 1341 H 136.12 -4.24641 -0.886704 0
M  V30 1342 H 136.791 -5.0016 -2.33547 0
M  V30 1343 H 139.267 -3.12042 -2.75262 0
M  V30 1344 H 138.143 -3.80902 -3.95228 0
M  V30 1345 H 138.404 -2.0726 -3.90507 0
M  V30 1346 N 137.463 0.71206 -1.40597 0
M  V30 1347 C 138.396 1.83582 -1.35546 0
M  V30 1348 C 139.374 1.61032 -0.225284 0
M  V30 1349 O 140.558 1.83998 -0.409519 0
M  V30 1350 C 137.685 3.19983 -1.11034 0
M  V30 1351 C 136.731 3.61355 -2.2655 0
M  V30 1352 S 137.564 3.68062 -3.88961 0
M  V30 1353 C 138.72 5.07216 -3.66719 0
M  V30 1354 H 138.953 1.87586 -2.30648 0
M  V30 1355 H 136.486 0.879182 -1.26924 0
M  V30 1356 H 138.444 3.98734 -0.975761 0
M  V30 1357 H 137.105 3.13608 -0.175798 0
M  V30 1358 H 136.298 4.60403 -2.0505 0
M  V30 1359 H 135.9 2.8987 -2.36329 0
M  V30 1360 H 138.192 5.94238 -3.25404 0
M  V30 1361 H 139.135 5.33753 -4.6531 0
M  V30 1362 H 139.543 4.77976 -3.00332 0
M  V30 1363 N 138.941 1.26152 0.944643 0
M  V30 1364 C 140.166 1.14363 1.7302 0
M  V30 1365 C 140.591 -0.29772 1.85729 0
M  V30 1366 O 139.949 -1.2157 1.34501 0
M  V30 1367 C 139.997 1.81378 3.11664 0
M  V30 1368 O 139.101 1.10022 3.97453 0
M  V30 1369 H 138.442 0.398694 0.53098 0
M  V30 1370 H 140.972 1.66906 1.18337 0
M  V30 1371 H 140.982 1.88064 3.62072 0
M  V30 1372 H 139.657 2.86237 3.0173 0
M  V30 1373 H 138.234 1.11287 3.55907 0
M  V30 1374 N 140.419 -1.14872 1.07899 0
M  V30 1375 C 141.666 -1.85789 0.805532 0
M  V30 1376 C 141.994 -1.82649 -0.668561 0
M  V30 1377 O 141.249 -1.24858 -1.50695 0
M  V30 1378 C 141.548 -3.34223 1.26609 0
M  V30 1379 C 141.214 -3.57555 2.74709 0
M  V30 1380 C 139.876 -3.63631 3.1516 0
M  V30 1381 C 142.228 -3.66803 3.70277 0
M  V30 1382 C 139.556 -3.76473 4.49983 0
M  V30 1383 C 141.908 -3.8117 5.04869 0
M  V30 1384 C 140.572 -3.85494 5.44932 0
M  V30 1385 H 139.842 -0.679849 0.294765 0
M  V30 1386 H 142.489 -1.3572 1.35101 0
M  V30 1387 H 140.794 -3.86536 0.640103 0
M  V30 1388 H 142.491 -3.87511 1.03132 0
M  V30 1389 H 139.081 -3.5347 2.42398 0
M  V30 1390 H 143.265 -3.61404 3.40149 0
M  V30 1391 H 138.521 -3.7808 4.80484 0
M  V30 1392 H 142.695 -3.87268 5.78789 0
M  V30 1393 H 140.322 -3.95197 6.49403 0
M  V30 1394 N 141.898 -0.863906 -1.31812 0
M  V30 1395 C 143.128 -0.485406 -2.00817 0
M  V30 1396 C 143.536 0.925007 -1.65046 0
M  V30 1397 O 142.879 1.61653 -0.872574 0
M  V30 1398 C 142.941 -0.555589 -3.55181 0
M  V30 1399 C 142.605 -1.92654 -4.14407 0
M  V30 1400 C 143.602 -2.89324 -4.31958 0
M  V30 1401 C 141.287 -2.2262 -4.50273 0
M  V30 1402 C 143.281 -4.14108 -4.84555 0
M  V30 1403 C 140.968 -3.47654 -5.02573 0
M  V30 1404 C 141.966 -4.43214 -5.19664 0
M  V30 1405 O 141.654 -5.66033 -5.70843 0
M  V30 1406 H 141.386 -0.188224 -0.649267 0
M  V30 1407 H 143.94 -1.16514 -1.69156 0
M  V30 1408 H 142.17 0.181037 -3.86276 0
M  V30 1409 H 143.859 -0.19138 -4.05449 0
M  V30 1410 H 144.625 -2.6748 -4.04573 0
M  V30 1411 H 140.504 -1.4902 -4.3625 0
M  V30 1412 H 144.048 -4.88703 -4.9781 0
M  V30 1413 H 139.945 -3.69345 -5.29391 0
M  V30 1414 H 140.713 -5.6812 -5.89222 0
M  V30 1415 N 143.376 1.44774 -0.622745 0
M  V30 1416 C 144.624 2.01721 -0.123655 0
M  V30 1417 C 144.945 1.49172 1.25589 0
M  V30 1418 O 144.215 0.691974 1.83272 0
M  V30 1419 H 142.795 0.745777 -0.0427225 0
M  V30 1420 H 145.457 1.77382 -0.807559 0
M  V30 1421 H 144.553 3.11984 -0.0849534 0
M  V30 1422 N 144.854 0.36279 1.53368 0
M  V30 1423 C 146.103 -0.22888 2.00397 0
M  V30 1424 C 146.416 -1.50096 1.25421 0
M  V30 1425 O 147.622 -2.17106 1.63025 0
M  V30 1426 C 146.078 -0.458417 3.56969 0
M  V30 1427 C 145.686 0.798877 4.4082 0
M  V30 1428 C 147.43 -1.00789 4.12361 0
M  V30 1429 C 145.337 0.539078 5.88938 0
M  V30 1430 H 144.267 -0.089305 0.748693 0
M  V30 1431 H 146.918 0.481099 1.77081 0
M  V30 1432 H 145.3 -1.22959 3.76427 0
M  V30 1433 H 146.474 1.57262 4.33134 0
M  V30 1434 H 144.789 1.27137 3.96516 0
M  V30 1435 H 147.386 -1.21754 5.20653 0
M  V30 1436 H 147.729 -1.9692 3.66781 0
M  V30 1437 H 148.262 -0.296961 3.9669 0
M  V30 1438 H 145.001 1.47064 6.3879 0
M  V30 1439 H 144.521 -0.196222 5.99479 0
M  V30 1440 H 146.2 0.163542 6.46793 0
M  V30 1441 N 146.332 -1.57332 0.0918853 0
M  V30 1442 C 147.579 -1.94236 -0.572577 0
M  V30 1443 C 147.907 -0.973398 -1.6839 0
M  V30 1444 O 147.162 0.00756912 -1.95699 0
M  V30 1445 C 147.461 -3.37689 -1.17051 0
M  V30 1446 C 147.127 -4.50527 -0.183304 0
M  V30 1447 C 145.789 -4.81119 0.0882276 0
M  V30 1448 C 148.141 -5.18883 0.49095 0
M  V30 1449 C 145.469 -5.77395 1.04076 0
M  V30 1450 C 147.821 -6.1618 1.43193 0
M  V30 1451 C 146.485 -6.45179 1.71173 0
M  V30 1452 H 145.755 -0.710762 -0.209521 0
M  V30 1453 H 148.402 -1.9077 0.167036 0
M  V30 1454 H 146.707 -3.37718 -1.9863 0
M  V30 1455 H 148.404 -3.63543 -1.69227 0
M  V30 1456 H 144.994 -4.26681 -0.405124 0
M  V30 1457 H 149.178 -4.95427 0.294312 0
M  V30 1458 H 144.434 -5.98179 1.26457 0
M  V30 1459 H 148.608 -6.68243 1.96023 0
M  V30 1460 H 146.235 -7.1959 2.4514 0
M  V30 1461 N 147.81 0.181792 -1.56548 0
M  V30 1462 C 148.74 1.22765 -1.98623 0
M  V30 1463 C 149.721 1.46747 -0.860189 0
M  V30 1464 O 150.906 1.58259 -1.12551 0
M  V30 1465 C 148.036 2.56894 -2.33715 0
M  V30 1466 C 146.99 2.475 -3.49182 0
M  V30 1467 C 146.316 3.86023 -3.69986 0
M  V30 1468 C 147.616 1.98866 -4.82959 0
M  V30 1469 H 149.31 0.877942 -2.86239 0
M  V30 1470 H 146.856 0.42088 -1.37712 0
M  V30 1471 H 148.809 3.30253 -2.61746 0
M  V30 1472 H 147.533 2.93632 -1.42997 0
M  V30 1473 H 146.192 1.76596 -3.21262 0
M  V30 1474 H 145.84 4.20136 -2.76576 0
M  V30 1475 H 145.54 3.80609 -4.47672 0
M  V30 1476 H 147.064 4.60984 -4.00407 0
M  V30 1477 H 148.478 2.61992 -5.09934 0
M  V30 1478 H 146.875 2.04424 -5.64208 0
M  V30 1479 H 147.945 0.942465 -4.75653 0
M  V30 1480 N 149.288 1.51039 0.449983 0
M  V30 1481 C 150.537 1.62317 1.19733 0
M  V30 1482 C 150.85 0.339101 1.92638 0
M  V30 1483 O 152.056 0.331069 2.69474 0
M  V30 1484 C 150.512 2.86608 2.17678 0
M  V30 1485 C 150.12 4.21972 1.50479 0
M  V30 1486 C 151.864 3.07239 2.92924 0
M  V30 1487 C 149.771 5.37426 2.46834 0
M  V30 1488 H 148.701 0.604532 0.450619 0
M  V30 1489 H 151.352 1.77494 0.465625 0
M  V30 1490 H 149.734 2.65037 2.94231 0
M  V30 1491 H 150.908 4.53878 0.795716 0
M  V30 1492 H 149.223 4.07117 0.874344 0
M  V30 1493 H 151.82 3.90668 3.65079 0
M  V30 1494 H 152.163 2.19807 3.5354 0
M  V30 1495 H 152.696 3.29091 2.23481 0
M  V30 1496 H 149.435 6.27079 1.90926 0
M  V30 1497 H 148.955 5.09912 3.15832 0
M  V30 1498 H 150.634 5.68862 3.08228 0
M  V30 1499 N 150.766 -0.704594 1.40972 0
M  V30 1500 C 152.014 -1.46169 1.39568 0
M  V30 1501 C 152.335 -1.95 0.00253745 0
M  V30 1502 O 151.605 -1.71095 -0.954114 0
M  V30 1503 H 150.185 -0.542326 0.513704 0
M  V30 1504 H 152.847 -0.834553 1.76128 0
M  V30 1505 H 151.943 -2.32922 2.07735 0
M  V30 1506 N 152.244 -1.26651 -0.937939 0
M  V30 1507 C 153.493 -1.11775 -1.67897 0
M  V30 1508 C 153.806 0.33794 -1.92659 0
M  V30 1509 O 155.012 0.607434 -2.64618 0
M  V30 1510 C 153.468 -1.9523 -3.02346 0
M  V30 1511 C 153.076 -3.45393 -2.8532 0
M  V30 1512 C 154.82 -1.88972 -3.80118 0
M  V30 1513 C 152.727 -4.21083 -4.15263 0
M  V30 1514 H 151.657 -0.414696 -0.629717 0
M  V30 1515 H 154.308 -1.50988 -1.04283 0
M  V30 1516 H 152.69 -1.48853 -3.66959 0
M  V30 1517 H 153.864 -3.99561 -2.29537 0
M  V30 1518 H 152.179 -3.52921 -2.20988 0
M  V30 1519 H 154.776 -2.42805 -4.76392 0
M  V30 1520 H 155.119 -0.86113 -4.07296 0
M  V30 1521 H 155.652 -2.33189 -3.22285 0
M  V30 1522 H 152.391 -5.24425 -3.93267 0
M  V30 1523 H 151.911 -3.71695 -4.70747 0
M  V30 1524 H 153.59 -4.29706 -4.83696 0
M  V30 1525 N 153.722 1.14298 -1.08507 0
M  V30 1526 C 154.655 2.18447 -0.660004 0
M  V30 1527 C 155.633 1.59242 0.328749 0
M  V30 1528 O 156.817 1.87062 0.232367 0
M  V30 1529 C 153.944 3.38688 0.0290807 0
M  V30 1530 C 152.99 4.1646 -0.919982 0
M  V30 1531 S 153.823 4.77334 -2.42718 0
M  V30 1532 C 154.979 6.00931 -1.75024 0
M  V30 1533 H 155.212 2.54166 -1.54231 0
M  V30 1534 H 152.745 1.25446 -0.900149 0
M  V30 1535 H 154.703 4.08342 0.420378 0
M  V30 1536 H 153.364 3.01289 0.887895 0
M  V30 1537 H 152.557 5.02529 -0.384751 0
M  V30 1538 H 152.159 3.52414 -1.25223 0
M  V30 1539 H 154.451 6.69017 -1.06877 0
M  V30 1540 H 155.394 6.59044 -2.58971 0
M  V30 1541 H 155.802 5.51089 -1.22317 0
M  V30 1542 N 155.201 0.870884 1.31352 0
M  V30 1543 C 156.131 0.343096 2.30966 0
M  V30 1544 C 157.112 -0.566507 1.60389 0
M  V30 1545 O 158.297 -0.483336 1.88089 0
M  V30 1546 C 155.427 -0.455487 3.443 0
M  V30 1547 C 154.381 0.361103 4.26474 0
M  V30 1548 C 153.707 -0.563221 5.31725 0
M  V30 1549 C 155.007 1.59566 4.97329 0
M  V30 1550 H 156.701 1.17548 2.75359 0
M  V30 1551 H 154.247 0.566686 1.32381 0
M  V30 1552 H 156.2 -0.83525 4.13039 0
M  V30 1553 H 154.924 -1.32139 2.98675 0
M  V30 1554 H 153.583 0.722825 3.59403 0
M  V30 1555 H 153.231 -1.42643 4.82351 0
M  V30 1556 H 152.931 -0.0207409 5.87596 0
M  V30 1557 H 154.455 -0.939808 6.03324 0
M  V30 1558 H 155.869 1.28728 5.58661 0
M  V30 1559 H 154.266 2.07728 5.63 0
M  V30 1560 H 155.336 2.34798 4.24262 0
M  V30 1561 N 156.679 -1.44442 0.630414 0
M  V30 1562 C 157.927 -2.01653 0.134351 0
M  V30 1563 C 158.248 -1.49836 -1.24796 0
M  V30 1564 O 157.518 -0.701684 -1.82902 0
M  V30 1565 H 156.098 -0.74554 0.0466769 0
M  V30 1566 H 158.76 -1.76952 0.816955 0
M  V30 1567 H 157.856 -3.11935 0.101498 0
M  V30 1568 N 158.157 -0.370918 -1.53173 0
M  V30 1569 C 159.387 0.217389 -2.05453 0
M  V30 1570 C 159.795 1.42568 -1.24382 0
M  V30 1571 O 159.138 1.81571 -0.278839 0
M  V30 1572 C 159.2 0.669827 -3.53205 0
M  V30 1573 C 158.864 -0.4225 -4.55043 0
M  V30 1574 C 159.861 -1.27407 -5.04047 0
M  V30 1575 C 157.546 -0.58427 -4.9889 0
M  V30 1576 C 159.54 -2.27271 -5.95505 0
M  V30 1577 C 157.227 -1.58627 -5.90153 0
M  V30 1578 C 158.225 -2.42892 -6.38351 0
M  V30 1579 O 157.913 -3.41382 -7.27814 0
M  V30 1580 H 157.645 0.0408171 -0.674767 0
M  V30 1581 H 160.199 -0.5292 -1.98466 0
M  V30 1582 H 158.429 1.4681 -3.57748 0
M  V30 1583 H 160.118 1.18173 -3.88317 0
M  V30 1584 H 160.884 -1.16031 -4.70916 0
M  V30 1585 H 156.763 0.061851 -4.60959 0
M  V30 1586 H 160.307 -2.93079 -6.33049 0
M  V30 1587 H 156.204 -1.70048 -6.22699 0
M  V30 1588 H 156.972 -3.37173 -7.45826 0
M  V30 1589 N 159.635 1.57281 -0.100228 0
M  V30 1590 C 160.568 2.09976 0.893612 0
M  V30 1591 C 161.546 1.01155 1.27304 0
M  V30 1592 O 162.73 1.28687 1.37739 0
M  V30 1593 C 159.857 2.58098 2.19324 0
M  V30 1594 C 158.903 3.78626 1.96328 0
M  V30 1595 S 159.736 5.21959 1.19662 0
M  V30 1596 C 160.892 5.73435 2.50844 0
M  V30 1597 H 161.125 2.93946 0.44534 0
M  V30 1598 H 158.658 1.53985 0.113167 0
M  V30 1599 H 160.616 2.8648 2.94005 0
M  V30 1600 H 159.277 1.74344 2.61272 0
M  V30 1601 H 158.47 4.10382 2.92579 0
M  V30 1602 H 158.072 3.50763 1.29775 0
M  V30 1603 H 160.364 5.82015 3.46792 0
M  V30 1604 H 161.307 6.7185 2.23659 0
M  V30 1605 H 161.715 5.01395 2.59352 0
M  V30 1606 N 161.113 -0.173488 1.56642 0
M  V30 1607 C 162.06 -1.21482 1.96242 0
M  V30 1608 C 163.03 -1.44104 0.826027 0
M  V30 1609 O 164.215 -1.5688 1.08597 0
M  V30 1610 C 161.355 -2.54964 2.32567 0
M  V30 1611 C 160.468 -2.39739 3.59373 0
M  V30 1612 C 159.603 -3.66072 3.84921 0
M  V30 1613 C 158.642 -3.45771 5.05083 0
M  V30 1614 N 157.779 -4.64169 5.26775 0
M  V30 1615 H 162.619 -0.870123 2.85014 0
M  V30 1616 H 160.156 -0.418245 1.41029 0
M  V30 1617 H 162.114 -3.32758 2.5165 0
M  V30 1618 H 160.744 -2.87433 1.46908 0
M  V30 1619 H 159.796 -1.53131 3.48217 0
M  V30 1620 H 161.108 -2.20683 4.47326 0
M  V30 1621 H 160.262 -4.52303 4.0436 0
M  V30 1622 H 159.001 -3.88105 2.9534 0
M  V30 1623 H 158.006 -2.57927 4.85545 0
M  V30 1624 H 159.231 -3.25163 5.96193 0
M  V30 1625 H 157.177 -4.86425 4.40144 0
M  V30 1626 H 157.094 -4.48019 6.08946 0
M  V30 1627 H 158.362 -5.51689 5.5069 0
M  V30 1628 N 162.591 -1.51276 -0.441967 0
M  V30 1629 C 163.816 -1.67799 -1.21895 0
M  V30 1630 C 164.241 -0.372864 -1.84367 0
M  V30 1631 O 163.599 0.666501 -1.68604 0
M  V30 1632 C 163.647 -2.79199 -2.28211 0
M  V30 1633 O 162.751 -2.42479 -3.33583 0
M  V30 1634 H 162.092 -0.559649 -0.357336 0
M  V30 1635 H 164.622 -1.97815 -0.522522 0
M  V30 1636 H 164.632 -3.03146 -2.73069 0
M  V30 1637 H 163.307 -3.73906 -1.82118 0
M  V30 1638 H 161.884 -2.29087 -2.94234 0
M  V30 1639 N 164.069 0.697108 -1.41344 0
M  V30 1640 C 165.016 1.81106 -1.43071 0
M  V30 1641 C 165.986 1.63632 -0.285275 0
M  V30 1642 O 167.171 1.84504 -0.486091 0
M  V30 1643 C 164.311 3.18975 -1.31715 0
M  V30 1644 C 163.424 3.47892 -2.56115 0
M  V30 1645 C 162.559 4.75367 -2.37064 0
M  V30 1646 C 161.598 4.97247 -3.56948 0
M  V30 1647 N 160.735 6.15947 -3.36977 0
M  V30 1648 H 165.575 1.78965 -2.38276 0
M  V30 1649 H 163.112 0.873975 -1.18322 0
M  V30 1650 H 165.07 3.98615 -1.23133 0
M  V30 1651 H 163.7 3.20297 -0.401183 0
M  V30 1652 H 162.752 2.62669 -2.75153 0
M  V30 1653 H 164.064 3.59962 -3.45295 0
M  V30 1654 H 163.218 5.63059 -2.25941 0
M  V30 1655 H 161.957 4.65541 -1.45338 0
M  V30 1656 H 160.962 4.08004 -3.68527 0
M  V30 1657 H 162.187 5.08934 -4.49626 0
M  V30 1658 H 160.133 6.07336 -2.47949 0
M  V30 1659 H 160.05 6.28777 -4.19732 0
M  V30 1660 H 161.318 7.06377 -3.29623 0
M  V30 1661 N 165.547 1.27147 0.931209 0
M  V30 1662 C 166.963 1.04475 1.20653 0
M  V30 1663 C 167.163 -0.223885 2.00252 0
M  V30 1664 O 166.219 -0.930332 2.34736 0
M  V30 1665 C 167.532 2.28209 1.95809 0
M  V30 1666 C 169.08 2.33211 2.08762 0
M  V30 1667 C 169.555 3.56665 2.87323 0
M  V30 1668 N 171.046 3.57201 2.94892 0
M  V30 1669 C 171.781 4.49395 3.56134 0
M  V30 1670 N 171.277 5.51889 4.18796 0
M  V30 1671 N 173.07 4.37026 3.53504 0
M  V30 1672 H 165.221 2.08612 0.399333 0
M  V30 1673 H 167.484 0.917312 0.239253 0
M  V30 1674 H 167.19 3.20538 1.44736 0
M  V30 1675 H 167.064 2.33247 2.96438 0
M  V30 1676 H 169.451 1.41391 2.59023 0
M  V30 1677 H 169.532 2.32178 1.07364 0
M  V30 1678 H 169.176 4.4882 2.37746 0
M  V30 1679 H 169.106 3.54948 3.88998 0
M  V30 1680 H 171.597 2.83074 2.50354 0
M  V30 1681 H 171.91 6.18409 4.63454 0
M  V30 1682 H 170.255 5.55735 4.17353 0
M  V30 1683 H 173.446 3.56166 3.03749 0
M  V30 1684 H 173.619 5.09067 4.00942 0
M  V30 1685 N 167.025 -1.13721 1.09112 0
M  V30 1686 C 168.441 -1.36914 0.820174 0
M  V30 1687 C 168.641 -1.93356 -0.567079 0
M  V30 1688 O 167.697 -2.15093 -1.32255 0
M  V30 1689 C 169.01 -2.3235 1.90877 0
M  V30 1690 C 170.558 -2.45973 1.93562 0
M  V30 1691 C 171.033 -3.44714 3.01556 0
M  V30 1692 N 172.524 -3.52263 3.00775 0
M  V30 1693 C 173.259 -4.28536 3.80978 0
M  V30 1694 N 172.755 -5.07991 4.71081 0
M  V30 1695 N 174.548 -4.23804 3.69251 0
M  V30 1696 H 166.699 -0.754348 1.98553 0
M  V30 1697 H 168.962 -0.3944 0.862063 0
M  V30 1698 H 168.668 -1.98027 2.90651 0
M  V30 1699 H 168.542 -3.32332 1.78424 0
M  V30 1700 H 170.929 -2.79584 0.944286 0
M  V30 1701 H 171.01 -1.45926 2.10093 0
M  V30 1702 H 170.654 -3.11835 4.00901 0
M  V30 1703 H 170.584 -4.44558 2.82269 0
M  V30 1704 H 173.075 -2.95567 2.35475 0
M  V30 1705 H 173.388 -5.63487 5.28869 0
M  V30 1706 H 171.733 -5.07235 4.75119 0
M  V30 1707 H 174.924 -3.60806 2.98222 0
M  V30 1708 H 175.097 -4.82995 4.31995 0
M  V30 1709 N 168.503 -0.877838 -1.30888 0
M  V30 1710 C 169.413 -0.343096 -2.32078 0
M  V30 1711 C 170.429 0.551022 -1.65045 0
M  V30 1712 O 171.605 0.445854 -1.96403 0
M  V30 1713 C 168.67 0.439905 -3.43898 0
M  V30 1714 C 167.731 -0.483111 -4.26573 0
M  V30 1715 C 166.964 0.262616 -5.33053 0
M  V30 1716 O 167.187 1.48967 -5.50604 0
M  V30 1717 O 166.121 -0.383593 -6.00676 0
M  V30 1718 H 169.947 -1.18203 -2.79753 0
M  V30 1719 H 167.532 -0.64145 -1.34929 0
M  V30 1720 H 169.414 0.883504 -4.12034 0
M  V30 1721 H 168.089 1.25526 -2.98371 0
M  V30 1722 H 166.996 -0.975374 -3.61161 0
M  V30 1723 H 168.329 -1.26427 -4.75686 0
M  V30 1724 N 169.982 1.44106 -0.638065 0
M  V30 1725 C 170.929 2.30715 0.062701 0
M  V30 1726 C 171.899 1.43882 0.829883 0
M  V30 1727 O 173.084 1.72775 0.809532 0
M  V30 1728 C 170.224 3.29258 1.03358 0
M  V30 1729 C 169.337 4.31192 0.26409 0
M  V30 1730 C 168.472 5.16825 1.22741 0
M  V30 1731 C 167.511 6.10462 0.447475 0
M  V30 1732 N 166.648 6.8877 1.36161 0
M  V30 1733 H 171.488 2.90096 -0.681781 0
M  V30 1734 H 169.025 1.42925 -0.347988 0
M  V30 1735 H 170.983 3.84886 1.60992 0
M  V30 1736 H 169.613 2.71562 1.74511 0
M  V30 1737 H 168.665 3.77981 -0.428295 0
M  V30 1738 H 169.977 4.97619 -0.343052 0
M  V30 1739 H 169.131 5.77004 1.87487 0
M  V30 1740 H 167.87 4.50488 1.86847 0
M  V30 1741 H 166.875 5.49386 -0.213433 0
M  V30 1742 H 168.1 6.78837 -0.188968 0
M  V30 1743 H 166.046 6.25096 1.98975 0
M  V30 1744 H 165.963 7.51663 0.808656 0
M  V30 1745 H 167.231 7.53467 1.99769 0
M  V30 1746 N 171.46 0.379036 1.52974 0
M  V30 1747 C 172.407 -0.461048 2.26148 0
M  V30 1748 C 173.377 -1.06637 1.27349 0
M  V30 1749 O 174.562 -1.09633 1.56157 0
M  V30 1750 C 171.702 -1.58782 3.06402 0
M  V30 1751 C 170.815 -1.00636 4.20115 0
M  V30 1752 C 169.95 -2.10334 4.87784 0
M  V30 1753 C 168.989 -1.49724 5.93506 0
M  V30 1754 N 168.126 -2.5331 6.54812 0
M  V30 1755 H 172.966 0.169429 2.97518 0
M  V30 1756 H 170.503 0.0953806 1.4679 0
M  V30 1757 H 172.461 -2.25174 3.51215 0
M  V30 1758 H 171.091 -2.18876 2.37261 0
M  V30 1759 H 170.143 -0.232332 3.7969 0
M  V30 1760 H 171.455 -0.523343 4.96047 0
M  V30 1761 H 170.609 -2.84519 5.35849 0
M  V30 1762 H 169.348 -2.61992 4.11353 0
M  V30 1763 H 168.353 -0.740598 5.44789 0
M  V30 1764 H 169.578 -0.988732 6.71864 0
M  V30 1765 H 167.524 -3.04156 5.81227 0
M  V30 1766 H 167.441 -2.09734 7.26325 0
M  V30 1767 H 168.709 -3.27155 7.07524 0
M  V30 1768 N 172.938 -1.57226 0.108567 0
M  V30 1769 C 174.163 -1.99604 -0.563303 0
M  V30 1770 C 174.588 -0.987563 -1.6009 0
M  V30 1771 O 173.946 0.0421687 -1.81251 0
M  V30 1772 C 173.994 -3.40902 -1.17552 0
M  V30 1773 O 173.098 -3.42896 -2.2912 0
M  V30 1774 H 172.439 -0.648704 -0.1417 0
M  V30 1775 H 174.969 -2.03679 0.193961 0
M  V30 1776 H 174.979 -3.78886 -1.51357 0
M  V30 1777 H 173.654 -4.1382 -0.415445 0
M  V30 1778 H 172.231 -3.1672 -1.96832 0
M  V30 1779 N 174.416 0.165178 -1.56732 0
M  V30 1780 C 175.641 0.900253 -1.86843 0
M  V30 1781 C 176.066 1.74766 -0.695596 0
M  V30 1782 O 175.424 1.77786 0.35522 0
M  V30 1783 C 175.472 1.74777 -3.15413 0
M  V30 1784 O 174.576 2.85007 -2.98068 0
M  V30 1785 H 173.917 0.251832 -0.614391 0
M  V30 1786 H 176.447 0.161468 -2.03962 0
M  V30 1787 H 176.457 2.14646 -3.46974 0
M  V30 1788 H 175.132 1.12537 -4.00385 0
M  V30 1789 H 173.709 2.48676 -2.77875 0
M  V30 1790 N 175.894 1.51508 0.433938 0
M  V30 1791 C 176.824 1.76016 1.53429 0
M  V30 1792 C 177.805 0.610112 1.58782 0
M  V30 1793 O 178.99 0.853177 1.74455 0
M  V30 1794 C 176.12 1.88831 2.9148 0
M  V30 1795 C 175.074 3.04288 3.00987 0
M  V30 1796 C 174.4 3.0229 4.4105 0
M  V30 1797 C 175.7 4.44193 2.74754 0
M  V30 1798 H 177.394 2.68152 1.33171 0
M  V30 1799 H 174.94 1.29035 0.639214 0
M  V30 1800 H 176.893 2.04559 3.6842 0
M  V30 1801 H 175.617 0.933455 3.12976 0
M  V30 1802 H 174.276 2.8827 2.26486 0
M  V30 1803 H 173.924 2.04576 4.59519 0
M  V30 1804 H 173.624 3.79822 4.4834 0
M  V30 1805 H 175.148 3.20116 5.1996 0
M  V30 1806 H 176.562 4.60544 3.41426 0
M  V30 1807 H 174.959 5.23457 2.9345 0
M  V30 1808 H 176.029 4.53996 1.70339 0
M  V30 1809 N 177.372 -0.689602 1.41712 0
M  V30 1810 C 178.302 -1.81577 1.46806 0
M  V30 1811 C 179.283 -1.66945 0.326105 0
M  V30 1812 O 180.468 -1.86588 0.538377 0
M  V30 1813 C 177.598 -3.19762 1.35535 0
M  V30 1814 C 176.552 -3.49107 2.47605 0
M  V30 1815 C 175.878 -4.86711 2.21397 0
M  V30 1816 C 177.178 -3.47483 3.89939 0
M  V30 1817 H 178.872 -1.7757 2.41058 0
M  V30 1818 H 176.418 -0.852887 1.16025 0
M  V30 1819 H 178.371 -3.98263 1.3771 0
M  V30 1820 H 177.095 -3.24409 0.377708 0
M  V30 1821 H 175.754 -2.72959 2.44722 0
M  V30 1822 H 175.402 -4.8799 1.21961 0
M  V30 1823 H 175.102 -5.0731 2.96497 0
M  V30 1824 H 176.626 -5.67515 2.25297 0
M  V30 1825 H 178.04 -4.1598 3.94505 0
M  V30 1826 H 176.437 -3.79615 4.64771 0
M  V30 1827 H 177.507 -2.46341 4.17665 0
M  V30 1828 N 178.85 -1.27639 -0.924453 0
M  V30 1829 C 179.78 -1.13166 -2.04244 0
M  V30 1830 C 180.761 -0.032256 -1.70069 0
M  V30 1831 O 181.946 -0.207328 -1.9309 0
M  V30 1832 C 179.076 -0.781496 -3.38393 0
M  V30 1833 C 178.03 -1.83449 -3.86692 0
M  V30 1834 C 177.356 -1.33822 -5.17683 0
M  V30 1835 C 178.656 -3.23917 -4.09726 0
M  V30 1836 H 180.35 -2.06689 -2.1661 0
M  V30 1837 H 177.896 -0.995136 -1.04082 0
M  V30 1838 H 179.849 -0.667057 -4.16087 0
M  V30 1839 H 178.573 0.189439 -3.2605 0
M  V30 1840 H 177.232 -1.93789 -3.11193 0
M  V30 1841 H 176.88 -0.35665 -5.01734 0
M  V30 1842 H 176.58 -2.04224 -5.50968 0
M  V30 1843 H 178.104 -1.23679 -5.97943 0
M  V30 1844 H 179.518 -3.16559 -4.77978 0
M  V30 1845 H 177.915 -3.92059 -4.54324 0
M  V30 1846 H 178.985 -3.68729 -3.14908 0
M  V30 1847 N 180.328 1.1314 -1.09713 0
M  V30 1848 C 181.258 2.20748 -0.761102 0
M  V30 1849 C 182.239 1.68061 0.262566 0
M  V30 1850 O 183.424 1.93765 0.129977 0
M  V30 1851 C 180.554 3.46812 -0.184054 0
M  V30 1852 C 179.508 4.12606 -1.13757 0
M  V30 1853 C 178.834 5.33031 -0.422083 0
M  V30 1854 C 180.134 4.59603 -2.48118 0
M  V30 1855 H 181.828 2.49113 -1.66082 0
M  V30 1856 H 179.374 1.19734 -0.799987 0
M  V30 1857 H 181.327 4.21353 0.0631215 0
M  V30 1858 H 180.051 3.17851 0.750868 0
M  V30 1859 H 178.71 3.40036 -1.37007 0
M  V30 1860 H 178.358 5.00335 0.517072 0
M  V30 1861 H 178.058 5.77999 -1.05788 0
M  V30 1862 H 179.582 6.10325 -0.183277 0
M  V30 1863 H 180.996 5.25552 -2.29059 0
M  V30 1864 H 179.393 5.15321 -3.07514 0
M  V30 1865 H 180.463 3.73971 -3.08665 0
M  V30 1866 N 181.806 0.884767 1.30421 0
M  V30 1867 C 183.036 0.517293 2.00019 0
M  V30 1868 C 183.444 -0.898632 1.66497 0
M  V30 1869 O 182.787 -1.60245 0.898181 0
M  V30 1870 C 182.849 0.612025 3.54252 0
M  V30 1871 C 182.513 1.99222 4.1129 0
M  V30 1872 C 183.51 2.9616 4.273 0
M  V30 1873 C 181.195 2.29755 4.46674 0
M  V30 1874 C 183.189 4.21764 4.77906 0
M  V30 1875 C 180.876 3.55606 4.96979 0
M  V30 1876 C 181.874 4.51425 5.12547 0
M  V30 1877 O 181.562 5.75043 5.61766 0
M  V30 1878 H 181.294 0.198529 0.64619 0
M  V30 1879 H 183.848 1.1919 1.67281 0
M  V30 1880 H 182.078 -0.119561 3.86515 0
M  V30 1881 H 183.767 0.255859 4.05093 0
M  V30 1882 H 184.533 2.73882 4.00267 0
M  V30 1883 H 180.412 1.55942 4.33824 0
M  V30 1884 H 183.956 4.96561 4.89972 0
M  V30 1885 H 179.853 3.7772 5.23448 0
M  V30 1886 H 180.621 5.77422 5.80109 0
M  V30 1887 N 183.284 -1.43765 0.645699 0
M  V30 1888 C 184.231 -2.30745 -0.0504648 0
M  V30 1889 C 185.201 -1.4432 -0.822241 0
M  V30 1890 O 186.386 -1.73202 -0.800358 0
M  V30 1891 C 183.526 -3.29802 -1.0161 0
M  V30 1892 C 182.639 -4.31326 -0.241219 0
M  V30 1893 C 181.774 -5.17469 -1.19998 0
M  V30 1894 C 180.813 -6.10691 -0.415094 0
M  V30 1895 N 179.95 -6.89483 -1.32506 0
M  V30 1896 H 184.79 -2.8973 0.697155 0
M  V30 1897 H 182.327 -1.42738 0.355563 0
M  V30 1898 H 184.285 -3.85734 -1.58949 0
M  V30 1899 H 182.915 -2.72483 -1.73069 0
M  V30 1900 H 181.967 -3.77749 0.448334 0
M  V30 1901 H 183.279 -4.9743 0.369437 0
M  V30 1902 H 182.433 -5.7799 -1.84424 0
M  V30 1903 H 181.172 -4.51473 -1.84455 0
M  V30 1904 H 180.177 -5.49265 0.242565 0
M  V30 1905 H 181.402 -6.78727 0.224966 0
M  V30 1906 H 179.348 -6.26142 -1.95657 0
M  V30 1907 H 179.265 -7.52081 -0.768783 0
M  V30 1908 H 180.533 -7.54516 -1.9577 0
M  V30 1909 N 184.763 -0.387143 -1.52771 0
M  V30 1910 C 186.04 0.253197 -1.93954 0
M  V30 1911 C 186.42 1.64545 -1.32243 0
M  V30 1912 O 185.768 2.23191 -0.489699 0
M  V30 1913 C 185.978 0.281722 -3.47861 0
M  V30 1914 C 187.326 0.511715 -4.21505 0
M  V30 1915 O 188.35 0.362023 -3.54356 0
M  V30 1916 O 187.209 0.804847 -5.40541 0
M  V30 1917 H 184.303 0.156845 -0.811991 0
M  V30 1918 H 186.849 -0.441494 -1.63856 0
M  V30 1919 H 185.621 -0.693571 -3.85104 0
M  V30 1920 H 185.244 1.02142 -3.84256 0
M  V30 1921 N 186.241 1.57166 -0.116904 0
M  V30 1922 C 187.151 2.18745 0.847812 0
M  V30 1923 C 188.167 1.163 1.29423 0
M  V30 1924 O 189.343 1.48761 1.35765 0
M  V30 1925 C 186.408 2.77307 2.0809 0
M  V30 1926 C 185.469 3.94781 1.68661 0
M  V30 1927 C 184.702 4.50541 2.86091 0
M  V30 1928 O 184.925 4.05202 4.01456 0
M  V30 1929 O 183.859 5.41256 2.63298 0
M  V30 1930 H 187.685 3.01632 0.353778 0
M  V30 1931 H 185.27 1.49005 0.108599 0
M  V30 1932 H 187.152 3.14647 2.80313 0
M  V30 1933 H 185.827 1.97452 2.56504 0
M  V30 1934 H 184.734 3.62214 0.935518 0
M  V30 1935 H 186.067 4.76065 1.24991 0
M  V30 1936 N 187.719 -0.156864 1.56817 0
M  V30 1937 C 188.629 -1.2136 2.00771 0
M  V30 1938 C 189.645 -1.47598 0.921459 0
M  V30 1939 O 190.821 -1.59462 1.2302 0
M  V30 1940 C 187.886 -2.52943 2.37109 0
M  V30 1941 C 186.947 -2.34439 3.59634 0
M  V30 1942 C 186.18 -3.59748 3.94229 0
M  V30 1943 O 186.403 -4.65526 3.29609 0
M  V30 1944 O 185.337 -3.52998 4.8752 0
M  V30 1945 H 189.163 -0.870468 2.90958 0
M  V30 1946 H 186.748 -0.36484 1.44877 0
M  V30 1947 H 188.63 -3.30538 2.61386 0
M  V30 1948 H 187.305 -2.86806 1.5008 0
M  V30 1949 H 186.212 -1.54828 3.40557 0
M  V30 1950 H 187.545 -2.05496 4.4725 0
M  V30 1951 N 189.197 -1.51736 -0.425897 0
M  V30 1952 C 190.613 -1.40166 -0.76326 0
M  V30 1953 C 190.813 -0.492962 -1.95377 0
M  V30 1954 O 189.869 0.0475815 -2.52455 0
M  V30 1955 C 191.182 -2.82403 -1.03291 0
M  V30 1956 C 192.73 -2.91632 -1.13665 0
M  V30 1957 C 193.205 -4.34801 -1.43916 0
M  V30 1958 N 194.696 -4.3796 -1.50816 0
M  V30 1959 C 195.431 -5.4578 -1.75817 0
M  V30 1960 N 194.927 -6.63744 -1.98534 0
M  V30 1961 N 196.72 -5.33274 -1.77694 0
M  V30 1962 H 188.871 -2.09361 0.358 0
M  V30 1963 H 191.134 -0.942941 0.0978094 0
M  V30 1964 H 190.84 -3.50943 -0.230696 0
M  V30 1965 H 190.714 -3.22428 -1.95754 0
M  V30 1966 H 193.101 -2.23284 -1.92947 0
M  V30 1967 H 193.182 -2.55088 -0.190756 0
M  V30 1968 H 192.826 -5.03703 -0.65157 0
M  V30 1969 H 192.756 -4.68868 -2.39729 0
M  V30 1970 H 195.247 -3.52919 -1.35118 0
M  V30 1971 H 195.56 -7.41704 -2.17013 0
M  V30 1972 H 193.905 -6.66839 -1.95832 0
M  V30 1973 H 197.096 -4.40098 -1.59473 0
M  V30 1974 H 197.269 -6.1738 -1.9684 0
M  V30 1975 N 190.675 0.682077 -1.42076 0
M  V30 1976 C 191.605 1.80796 -1.47767 0
M  V30 1977 C 192.586 1.6677 -0.334954 0
M  V30 1978 O 193.771 1.863 -0.548264 0
M  V30 1979 C 190.901 3.19038 -1.37229 0
M  V30 1980 C 189.855 3.47789 -2.49453 0
M  V30 1981 C 189.181 4.8553 -2.23975 0
M  V30 1982 C 190.481 3.45411 -3.91776 0
M  V30 1983 H 192.175 1.7629 -2.41997 0
M  V30 1984 H 189.721 0.846721 -1.16476 0
M  V30 1985 H 191.674 3.97528 -1.39821 0
M  V30 1986 H 190.398 3.24204 -0.394907 0
M  V30 1987 H 189.057 2.71657 -2.46166 0
M  V30 1988 H 188.705 4.87337 -1.24547 0
M  V30 1989 H 188.405 5.0573 -2.99184 0
M  V30 1990 H 189.929 5.66312 -2.28304 0
M  V30 1991 H 191.343 4.13882 -3.96705 0
M  V30 1992 H 189.74 3.77145 -4.66778 0
M  V30 1993 H 190.81 2.44122 -4.18966 0
M  V30 1994 N 192.153 1.28127 0.917671 0
M  V30 1995 C 193.399 1.16232 1.66918 0
M  V30 1996 C 193.754 -0.28701 1.90247 0
M  V30 1997 O 193.047 -1.20586 1.48895 0
M  V30 1998 C 193.241 1.89018 3.03327 0
M  V30 1999 C 193.07 3.4088 2.9331 0
M  V30 2000 C 191.84 4.10214 2.95047 0
M  V30 2001 C 194.038 4.36689 2.71675 0
M  V30 2002 N 192.02 5.48571 2.75577 0
M  V30 2003 C 193.391 5.62382 2.6101 0
M  V30 2004 C 195.446 4.26661 2.56641 0
M  V30 2005 C 194.149 6.79189 2.36843 0
M  V30 2006 C 196.175 5.432 2.33853 0
M  V30 2007 C 195.537 6.67855 2.23939 0
M  V30 2008 H 191.636 0.48024 0.617166 0
M  V30 2009 H 194.22 1.61727 1.08409 0
M  V30 2010 H 192.391 1.45963 3.59929 0
M  V30 2011 H 194.123 1.69541 3.67475 0
M  V30 2012 H 190.878 3.61762 3.05655 0
M  V30 2013 H 191.302 6.21287 2.68945 0
M  V30 2014 H 195.944 3.30998 2.63059 0
M  V30 2015 H 193.662 7.74926 2.29164 0
M  V30 2016 H 197.248 5.37328 2.23091 0
M  V30 2017 H 196.128 7.56511 2.06546 0
M  V30 2018 N 193.631 -1.12557 1.10312 0
M  V30 2019 C 194.879 -1.83675 0.843091 0
M  V30 2020 C 195.2 -1.84435 -0.633131 0
M  V30 2021 O 194.47 -1.30657 -1.45964 0
M  V30 2022 H 193.05 -0.680138 0.308904 0
M  V30 2023 H 195.712 -1.36301 1.39313 0
M  V30 2024 H 194.808 -2.87908 1.2048 0
M  V30 2025 N 195.109 -0.891671 -1.2995 0
M  V30 2026 C 196.019 -0.367691 -2.31701 0
M  V30 2027 C 197.035 0.533486 -1.6562 0
M  V30 2028 O 198.211 0.424997 -1.96865 0
M  V30 2029 C 195.276 0.403406 -3.44345 0
M  V30 2030 C 194.337 -0.528328 -4.26037 0
M  V30 2031 C 193.57 0.206063 -5.33302 0
M  V30 2032 O 193.793 1.43119 -5.52153 0
M  V30 2033 O 192.727 -0.447281 -6.00236 0
M  V30 2034 H 196.553 -1.21163 -2.78484 0
M  V30 2035 H 194.138 -0.655725 -1.34241 0
M  V30 2036 H 196.02 0.839753 -4.12948 0
M  V30 2037 H 194.695 1.22354 -2.99685 0
M  V30 2038 H 193.602 -1.01362 -3.60106 0
M  V30 2039 H 194.935 -1.31465 -4.74318 0
M  V30 2040 N 196.587 1.43421 -0.653314 0
M  V30 2041 C 197.55 2.29182 0.0287951 0
M  V30 2042 C 198.55 1.42213 0.750465 0
M  V30 2043 O 199.74 1.63843 0.591701 0
M  V30 2044 C 196.872 3.24278 1.05151 0
M  V30 2045 H 198.065 2.90985 -0.725786 0
M  V30 2046 H 195.618 1.50702 -0.414545 0
M  V30 2047 H 196.353 2.6737 1.83532 0
M  V30 2048 H 196.138 3.88396 0.537687 0
M  V30 2049 H 197.628 3.88647 1.52786 0
M  V30 2050 N 198.065 0.39524 1.52563 0
M  V30 2051 C 198.998 -0.4813 2.23067 0
M  V30 2052 C 199.976 -1.05927 1.23362 0
M  V30 2053 O 201.16 -1.10979 1.52368 0
M  V30 2054 C 198.287 -1.66676 2.9485 0
M  V30 2055 C 197.333 -1.21348 4.08873 0
M  V30 2056 S 198.166 -0.190102 5.35162 0
M  V30 2057 C 199.322 -1.38121 6.1047 0
M  V30 2058 H 199.555 0.117381 2.97068 0
M  V30 2059 H 197.088 0.179458 1.53354 0
M  V30 2060 H 199.046 -2.3466 3.36816 0
M  V30 2061 H 197.707 -2.23676 2.20518 0
M  V30 2062 H 196.9 -2.09877 4.58222 0
M  V30 2063 H 196.502 -0.612486 3.68951 0
M  V30 2064 H 198.794 -2.30726 6.37002 0
M  V30 2065 H 199.737 -0.928521 7.01986 0
M  V30 2066 H 200.145 -1.60071 5.41329 0
M  V30 2067 N 199.544 -1.57102 0.125237 0
M  V30 2068 C 200.491 -2.15641 -0.822655 0
M  V30 2069 C 201.461 -1.08313 -1.25927 0
M  V30 2070 O 202.646 -1.36251 -1.33567 0
M  V30 2071 C 199.786 -2.76504 -2.06494 0
M  V30 2072 C 198.899 -3.98158 -1.67612 0
M  V30 2073 C 198.034 -4.47088 -2.86854 0
M  V30 2074 C 197.073 -5.6126 -2.44242 0
M  V30 2075 N 196.21 -6.04905 -3.56419 0
M  V30 2076 H 201.05 -2.96313 -0.316625 0
M  V30 2077 H 198.587 -1.46388 -0.144588 0
M  V30 2078 H 200.545 -3.09925 -2.79289 0
M  V30 2079 H 199.175 -1.98512 -2.54545 0
M  V30 2080 H 198.227 -3.70858 -0.846661 0
M  V30 2081 H 199.539 -4.80934 -1.32301 0
M  V30 2082 H 198.693 -4.82451 -3.67867 0
M  V30 2083 H 197.432 -3.63275 -3.25396 0
M  V30 2084 H 196.437 -5.25495 -1.61663 0
M  V30 2085 H 197.662 -6.46843 -2.0681 0
M  V30 2086 H 195.608 -5.24032 -3.94623 0
M  V30 2087 H 195.525 -6.82552 -3.25051 0
M  V30 2088 H 196.793 -6.44907 -4.37853 0
M  V30 2089 N 201.022 0.148545 -1.56898 0
M  V30 2090 C 202.433 0.708766 -1.72723 0
M  V30 2091 C 202.784 1.81734 -0.739395 0
M  V30 2092 O 201.909 2.16194 0.0943169 0
M  V30 2093 C 202.504 1.29245 -3.13179 0
M  V30 2094 C 201.063 1.79925 -3.30611 0
M  V30 2095 C 200.21 0.687111 -2.68652 0
M  V30 2096 H 203.161 -0.0771063 -1.58513 0
M  V30 2097 H 203.182 2.16224 -3.13093 0
M  V30 2098 H 202.694 0.485382 -3.85053 0
M  V30 2099 H 200.795 2.63203 -2.63732 0
M  V30 2100 H 200.908 1.92903 -4.38549 0
M  V30 2101 H 199.272 1.11335 -2.29078 0
M  V30 2102 H 200.055 -0.108483 -3.43129 0
M  V30 2103 N 202.5 1.5196 0.417844 0
M  V30 2104 C 203.43 1.77634 1.51554 0
M  V30 2105 C 204.411 0.626918 1.58126 0
M  V30 2106 O 205.596 0.871632 1.7354 0
M  V30 2107 C 202.726 1.91911 2.8946 0
M  V30 2108 C 201.68 3.07463 2.97743 0
M  V30 2109 C 201.006 3.06951 4.37819 0
M  V30 2110 C 202.306 4.47082 2.70027 0
M  V30 2111 H 204 2.6955 1.3032 0
M  V30 2112 H 201.546 1.29706 0.625492 0
M  V30 2113 H 203.499 2.08455 3.6623 0
M  V30 2114 H 202.223 0.966598 3.11969 0
M  V30 2115 H 200.882 2.90656 2.23416 0
M  V30 2116 H 200.53 2.09438 4.57323 0
M  V30 2117 H 200.23 3.84556 4.44286 0
M  V30 2118 H 201.754 3.25613 5.16535 0
M  V30 2119 H 203.168 4.6414 3.36522 0
M  V30 2120 H 201.565 5.2654 2.87881 0
M  V30 2121 H 202.635 4.55777 1.65514 0
M  V30 2122 N 203.978 -0.674533 1.42435 0
M  V30 2123 C 205.389 -1.25514 1.38214 0
M  V30 2124 C 205.74 -1.96055 0.0755464 0
M  V30 2125 O 204.865 -2.00028 -0.8257 0
M  V30 2126 C 205.46 -2.28269 2.50357 0
M  V30 2127 C 204.019 -2.81856 2.49467 0
M  V30 2128 C 203.166 -1.56182 2.29134 0
M  V30 2129 H 206.117 -0.467902 1.51646 0
M  V30 2130 H 206.138 -3.10009 2.20624 0
M  V30 2131 H 205.65 -1.769 3.45439 0
M  V30 2132 H 203.751 -3.37346 1.58204 0
M  V30 2133 H 203.864 -3.30854 3.46515 0
M  V30 2134 H 202.228 -1.82761 1.774 0
M  V30 2135 H 203.011 -1.06778 3.26272 0
M  V30 2136 N 205.456 -1.28612 -0.910864 0
M  V30 2137 C 206.702 -1.16106 -1.66274 0
M  V30 2138 C 207.035 0.289113 -1.92036 0
M  V30 2139 O 206.31 1.21 -1.52281 0
M  V30 2140 C 206.593 -1.96309 -3.01885 0
M  V30 2141 C 206.446 -3.49405 -2.8326 0
M  V30 2142 C 207.765 -1.78076 -4.02463 0
M  V30 2143 H 204.884 -0.423152 -0.603417 0
M  V30 2144 H 207.526 -1.57961 -1.05586 0
M  V30 2145 H 205.676 -1.60742 -3.53687 0
M  V30 2146 H 207.348 -3.94894 -2.38446 0
M  V30 2147 H 205.591 -3.74893 -2.18261 0
M  V30 2148 H 206.262 -4.00784 -3.79574 0
M  V30 2149 H 208.738 -2.0912 -3.59733 0
M  V30 2150 H 207.614 -2.36561 -4.95308 0
M  V30 2151 H 207.875 -0.733008 -4.35981 0
M  V30 2152 N 206.934 1.1197 -1.10907 0
M  V30 2153 C 208.18 1.8386 -0.855773 0
M  V30 2154 C 208.513 1.84134 0.617103 0
M  V30 2155 O 207.788 1.29041 1.45529 0
M  V30 2156 C 208.071 3.31305 -1.411 0
M  V30 2157 C 207.924 3.39456 -2.9511 0
M  V30 2158 C 209.243 4.2721 -1.05736 0
M  V30 2159 H 206.362 0.667545 -0.312334 0
M  V30 2160 H 209.004 1.31331 -1.37303 0
M  V30 2161 H 207.154 3.76169 -0.97105 0
M  V30 2162 H 208.826 3.03191 -3.47668 0
M  V30 2163 H 207.069 2.79849 -3.31462 0
M  V30 2164 H 207.74 4.43209 -3.29044 0
M  V30 2165 H 210.216 3.90497 -1.43706 0
M  V30 2166 H 209.092 5.28775 -1.47269 0
M  V30 2167 H 209.353 4.42088 0.0325958 0
M  V30 2168 N 208.412 0.89855 1.29475 0
M  V30 2169 C 209.637 0.538561 2.00285 0
M  V30 2170 C 210.062 -0.869135 1.66816 0
M  V30 2171 O 209.42 -1.57831 0.892145 0
M  V30 2172 C 209.468 0.736475 3.52999 0
M  V30 2173 O 208.572 -0.211537 4.11857 0
M  V30 2174 H 207.913 0.210563 0.62973 0
M  V30 2175 H 210.443 1.20982 1.64998 0
M  V30 2176 H 210.453 0.640685 4.02938 0
M  V30 2177 H 209.128 1.76276 3.76696 0
M  V30 2178 H 207.705 -0.0682991 3.72837 0
M  V30 2179 N 209.89 -1.43072 0.660911 0
M  V30 2180 C 211.138 -2.01323 0.177094 0
M  V30 2181 C 211.459 -1.5245 -1.2159 0
M  V30 2182 O 210.729 -0.740322 -1.81373 0
M  V30 2183 H 209.309 -0.744382 0.0624804 0
M  V30 2184 H 211.971 -1.75179 0.854305 0
M  V30 2185 H 211.067 -3.11649 0.167641 0
M  V30 2186 N 211.368 -0.403325 -1.52352 0
M  V30 2187 C 212.298 0.416205 -2.29761 0
M  V30 2188 C 213.279 1.05123 -1.33728 0
M  V30 2189 O 214.464 1.06134 -1.62632 0
M  V30 2190 C 211.594 1.53624 -3.11475 0
M  V30 2191 C 210.548 1.02653 -4.15507 0
M  V30 2192 C 209.874 2.23971 -4.85532 0
M  V30 2193 C 211.174 0.08463 -5.22231 0
M  V30 2194 H 212.868 -0.229701 -2.98518 0
M  V30 2195 H 210.414 -0.111913 -1.43564 0
M  V30 2196 H 212.367 2.1165 -3.64393 0
M  V30 2197 H 211.091 2.20994 -2.40477 0
M  V30 2198 H 209.75 0.46871 -3.63591 0
M  V30 2199 H 209.398 2.89883 -4.11068 0
M  V30 2200 H 209.098 1.90521 -5.55856 0
M  V30 2201 H 210.622 2.82614 -5.41259 0
M  V30 2202 H 212.036 0.573509 -5.70424 0
M  V30 2203 H 210.433 -0.160783 -5.99885 0
M  V30 2204 H 211.503 -0.86237 -4.7717 0
M  V30 2205 N 212.846 1.57033 -0.133567 0
M  V30 2206 C 214.262 1.58035 0.222944 0
M  V30 2207 C 214.462 1.14713 1.6566 0
M  V30 2208 O 213.518 0.841218 2.38075 0
M  V30 2209 C 214.831 3.00691 -0.0236116 0
M  V30 2210 C 216.379 3.12973 0.0411512 0
M  V30 2211 C 216.854 4.57654 -0.177899 0
M  V30 2212 N 218.345 4.63033 -0.124365 0
M  V30 2213 C 219.08 5.72771 -0.268553 0
M  V30 2214 N 218.576 6.91206 -0.46972 0
M  V30 2215 N 220.369 5.61718 -0.2071 0
M  V30 2216 H 212.52 1.8349 -1.06981 0
M  V30 2217 H 214.783 0.848677 -0.422436 0
M  V30 2218 H 214.489 3.36726 -1.0153 0
M  V30 2219 H 214.363 3.70614 0.701808 0
M  V30 2220 H 216.75 2.76787 1.02338 0
M  V30 2221 H 216.831 2.45564 -0.716383 0
M  V30 2222 H 216.475 4.94542 -1.15717 0
M  V30 2223 H 216.405 5.23173 0.599797 0
M  V30 2224 H 218.896 3.7789 0.027011 0
M  V30 2225 H 219.209 7.70693 -0.570212 0
M  V30 2226 H 217.554 6.93156 -0.505876 0
M  V30 2227 H 220.745 4.68072 -0.0507986 0
M  V30 2228 H 220.918 6.47195 -0.322909 0
M  V30 2229 N 214.325 -0.140222 1.56975 0
M  V30 2230 C 215.55 -0.870414 1.88251 0
M  V30 2231 C 215.975 -1.73637 0.723312 0
M  V30 2232 O 215.333 -1.78329 -0.32689 0
M  V30 2233 C 215.381 -1.69737 3.18154 0
M  V30 2234 O 214.485 -2.80229 3.02565 0
M  V30 2235 H 213.826 -0.242025 0.61832 0
M  V30 2236 H 216.356 -0.128999 2.04193 0
M  V30 2237 H 216.366 -2.09099 3.50345 0
M  V30 2238 H 215.041 -1.06152 4.02125 0
M  V30 2239 H 213.618 -2.44224 2.81796 0
M  V30 2240 N 215.803 -1.52179 -0.40978 0
M  V30 2241 C 217.049 -1.66453 -1.15851 0
M  V30 2242 C 217.382 -0.392972 -1.90182 0
M  V30 2243 O 216.657 0.608579 -1.84734 0
M  V30 2244 C 216.94 -2.88612 -2.15349 0
M  V30 2245 C 216.793 -4.25815 -1.44918 0
M  V30 2246 C 218.112 -3.06294 -3.16026 0
M  V30 2247 H 215.231 -0.60575 -0.419805 0
M  V30 2248 H 217.873 -1.84732 -0.444314 0
M  V30 2249 H 216.023 -2.73158 -2.76255 0
M  V30 2250 H 217.695 -4.52995 -0.871365 0
M  V30 2251 H 215.938 -4.27247 -0.751159 0
M  V30 2252 H 216.609 -5.07337 -2.17516 0
M  V30 2253 H 219.085 -3.20641 -2.65195 0
M  V30 2254 H 217.961 -3.93283 -3.8291 0
M  V30 2255 H 218.222 -2.19579 -3.83715 0
M  V30 2256 N 217.281 0.66697 -1.42791 0
M  V30 2257 C 218.213 1.7925 -1.42836 0
M  V30 2258 C 219.226 1.59496 -0.326333 0
M  V30 2259 O 220.415 1.6847 -0.589916 0
M  V30 2260 C 217.515 3.16476 -1.21229 0
M  V30 2261 C 216.688 3.63011 -2.44013 0
M  V30 2262 C 215.747 4.78993 -2.17834 0
M  V30 2263 O 214.773 4.89137 -2.91091 0
M  V30 2264 N 215.975 5.68248 -1.18635 0
M  V30 2265 H 218.74 1.79695 -2.39854 0
M  V30 2266 H 216.301 0.850338 -1.37771 0
M  V30 2267 H 218.293 3.91734 -1.01621 0
M  V30 2268 H 216.863 3.10884 -0.32706 0
M  V30 2269 H 216.083 2.78346 -2.79137 0
M  V30 2270 H 217.371 3.90845 -3.25757 0
M  V30 2271 H 216.769 5.62712 -0.580615 0
M  V30 2272 H 215.326 6.43285 -1.05013 0
M  V30 2273 N 218.759 1.29093 0.90403 0
M  V30 2274 C 220.005 1.16986 1.65656 0
M  V30 2275 C 220.338 -0.278925 1.92186 0
M  V30 2276 O 219.613 -1.2019 1.5292 0
M  V30 2277 C 219.896 1.97908 3.0084 0
M  V30 2278 C 219.749 3.50903 2.81403 0
M  V30 2279 C 221.068 1.80208 4.01513 0
M  V30 2280 H 218.187 0.426346 0.601164 0
M  V30 2281 H 220.829 1.58518 1.04747 0
M  V30 2282 H 218.979 1.62616 3.52829 0
M  V30 2283 H 220.651 3.96153 2.36348 0
M  V30 2284 H 218.894 3.76045 2.1627 0
M  V30 2285 H 219.565 4.02791 3.77443 0
M  V30 2286 H 222.041 2.11025 3.58619 0
M  V30 2287 H 220.917 2.39184 4.94047 0
M  V30 2288 H 221.178 0.756119 4.35586 0
M  V30 2289 N 220.237 -1.11381 1.11499 0
M  V30 2290 C 221.648 -1.6465 0.880191 0
M  V30 2291 C 221.999 -1.87199 -0.587434 0
M  V30 2292 O 221.124 -1.60667 -1.44966 0
M  V30 2293 C 221.719 -2.99105 1.59128 0
M  V30 2294 C 220.278 -3.49279 1.40289 0
M  V30 2295 C 219.425 -2.24077 1.63354 0
M  V30 2296 H 222.376 -0.950123 1.27116 0
M  V30 2297 H 222.397 -3.66107 1.03664 0
M  V30 2298 H 221.909 -2.82661 2.65941 0
M  V30 2299 H 220.01 -3.70887 0.356888 0
M  V30 2300 H 220.123 -4.2803 2.15238 0
M  V30 2301 H 218.487 -2.31733 1.05698 0
M  V30 2302 H 219.27 -2.10175 2.71443 0
M  V30 2303 N 221.715 -0.905404 -1.28997 0
M  V30 2304 C 222.645 -0.404212 -2.29975 0
M  V30 2305 C 223.626 0.523784 -1.61835 0
M  V30 2306 O 224.811 0.433298 -1.89304 0
M  V30 2307 C 221.941 0.364042 -3.45387 0
M  V30 2308 C 220.895 -0.474048 -4.25367 0
M  V30 2309 C 220.221 0.422045 -5.33032 0
M  V30 2310 C 221.521 -1.72696 -4.92923 0
M  V30 2311 H 223.215 -1.24807 -2.72146 0
M  V30 2312 H 220.761 -0.601585 -1.30832 0
M  V30 2313 H 222.714 0.725447 -4.15109 0
M  V30 2314 H 221.438 1.24174 -3.02074 0
M  V30 2315 H 220.097 -0.81786 -3.57361 0
M  V30 2316 H 219.745 1.29804 -4.85963 0
M  V30 2317 H 219.445 -0.135057 -5.87445 0
M  V30 2318 H 220.969 0.779517 -6.05604 0
M  V30 2319 H 222.383 -1.43495 -5.55051 0
M  V30 2320 H 220.78 -2.22582 -5.57295 0
M  V30 2321 H 221.85 -2.45964 -4.17887 0
M  V30 2322 N 223.193 1.4272 -0.668489 0
M  V30 2323 C 224.126 2.28111 0.0637898 0
M  V30 2324 C 225.104 1.40705 0.814912 0
M  V30 2325 O 226.288 1.70146 0.81134 0
M  V30 2326 C 223.415 3.20429 1.0974 0
M  V30 2327 C 222.461 4.24197 0.442579 0
M  V30 2328 S 223.294 5.29563 -0.795173 0
M  V30 2329 C 224.45 6.25449 0.237516 0
M  V30 2330 H 224.683 2.8987 -0.660521 0
M  V30 2331 H 222.216 1.47456 -0.457821 0
M  V30 2332 H 224.174 3.74158 1.68868 0
M  V30 2333 H 222.835 2.57818 1.79411 0
M  V30 2334 H 222.028 4.88954 1.22227 0
M  V30 2335 H 221.63 3.73925 -0.0749554 0
M  V30 2336 H 223.922 6.68524 1.09915 0
M  V30 2337 H 224.865 7.07104 -0.375421 0
M  V30 2338 H 225.273 5.61511 0.580167 0
M  V30 2339 N 224.671 0.411399 1.52136 0
M  V30 2340 C 225.601 -0.404015 2.29978 0
M  V30 2341 C 226.582 -1.04412 1.34284 0
M  V30 2342 O 227.767 -1.0527 1.63192 0
M  V30 2343 C 224.897 -1.5197 3.12286 0
M  V30 2344 C 223.851 -1.00448 4.16046 0
M  V30 2345 C 223.177 -2.21393 4.86712 0
M  V30 2346 C 224.477 -0.0569336 5.22269 0
M  V30 2347 H 226.171 0.245529 2.98392 0
M  V30 2348 H 223.717 0.119525 1.43503 0
M  V30 2349 H 225.67 -2.09715 3.6551 0
M  V30 2350 H 224.394 -2.19716 2.41646 0
M  V30 2351 H 223.053 -0.449421 3.63835 0
M  V30 2352 H 222.701 -2.87699 4.12599 0
M  V30 2353 H 222.401 -1.87571 5.56858 0
M  V30 2354 H 223.925 -2.7974 5.4275 0
M  V30 2355 H 225.339 -0.54325 5.7072 0
M  V30 2356 H 223.736 0.192594 5.99791 0
M  V30 2357 H 224.806 0.887663 4.76706 0
M  V30 2358 N 226.149 -1.5696 0.141893 0
M  V30 2359 C 227.097 -2.17784 -0.816874 0
M  V30 2360 C 228.091 -1.1334 -1.25899 0
M  V30 2361 O 229.297 -1.316 -1.22806 0
M  V30 2362 H 225.672 -0.697278 -0.281615 0
M  V30 2363 H 227.643 -2.97087 -0.279621 0
M  V30 2364 C 226.392 -2.80983 -2.04802 0
M  V30 2365 H 225.715 -3.61062 -1.7168 0
M  V30 2366 H 227.155 -3.2705 -2.69841 0
M  V30 2367 C 225.614 -1.79228 -2.8527 0
M  V30 2368 O 226.144 -1.25962 -3.8144 0
M  V30 2369 N 224.35 -1.48647 -2.49704 0
M  V30 2370 H 223.897 -1.92155 -1.71564 0
M  V30 2371 H 223.855 -0.808115 -3.03837 0
M  V30 2372 N 227.627 0.131896 -1.57047 0
M  V30 2373 C 228.56 1.19236 -1.94571 0
M  V30 2374 C 229.538 1.40782 -0.813576 0
M  V30 2375 O 230.722 1.55148 -1.07058 0
M  V30 2376 C 227.849 2.54858 -2.23081 0
M  V30 2377 C 226.895 2.49817 -3.45679 0
M  V30 2378 S 227.728 1.95036 -4.98719 0
M  V30 2379 C 228.884 3.32357 -5.30367 0
M  V30 2380 H 229.117 0.872297 -2.84215 0
M  V30 2381 H 226.65 0.338134 -1.50652 0
M  V30 2382 H 228.608 3.32898 -2.40185 0
M  V30 2383 H 227.269 2.84047 -1.34074 0
M  V30 2384 H 226.462 3.49688 -3.62952 0
M  V30 2385 H 226.064 1.79892 -3.27895 0
M  V30 2386 H 228.356 4.28525 -5.2476 0
M  V30 2387 H 229.299 3.19923 -6.31708 0
M  V30 2388 H 229.707 3.3019 -4.57859 0
M  V30 2389 N 229.106 1.52395 0.401703 0
M  V30 2390 C 230.036 1.79231 1.49661 0
M  V30 2391 C 231.017 0.643654 1.57452 0
M  V30 2392 O 232.202 0.889989 1.72606 0
M  V30 2393 C 229.332 1.94971 2.87409 0
M  V30 2394 C 228.286 3.10604 2.94465 0
M  V30 2395 C 227.612 3.11577 4.34538 0
M  V30 2396 C 228.912 4.49921 2.6527 0
M  V30 2397 H 230.606 2.70917 1.27454 0
M  V30 2398 H 228.152 1.30362 0.6117 0
M  V30 2399 H 230.105 2.12328 3.63999 0
M  V30 2400 H 228.829 0.999632 3.10926 0
M  V30 2401 H 227.488 2.93009 2.20321 0
M  V30 2402 H 227.136 2.14277 4.55076 0
M  V30 2403 H 226.836 3.89247 4.40183 0
M  V30 2404 H 228.36 3.31073 5.13053 0
M  V30 2405 H 229.774 4.67683 3.31581 0
M  V30 2406 H 228.171 5.29564 2.82281 0
M  V30 2407 H 229.241 4.57507 1.60671 0
M  V30 2408 N 230.584 -0.659388 1.43143 0
M  V30 2409 C 231.516 -1.7849 1.43784 0
M  V30 2410 C 232.529 -1.5932 0.334787 0
M  V30 2411 O 233.718 -1.68155 0.598842 0
M  V30 2412 C 230.818 -3.15828 1.22906 0
M  V30 2413 C 229.991 -3.61711 2.45934 0
M  V30 2414 C 229.05 -4.77831 2.20371 0
M  V30 2415 O 228.076 -4.87586 2.93681 0
M  V30 2416 N 229.278 -5.67611 1.21647 0
M  V30 2417 H 232.043 -1.7842 2.40803 0
M  V30 2418 H 229.604 -0.84302 1.3822 0
M  V30 2419 H 231.596 -3.91189 1.03697 0
M  V30 2420 H 230.166 -3.10707 0.343542 0
M  V30 2421 H 229.386 -2.76861 2.80609 0
M  V30 2422 H 230.674 -3.89112 3.27825 0
M  V30 2423 H 230.072 -5.62397 0.610449 0
M  V30 2424 H 228.629 -6.42719 1.08423 0
M  V30 2425 N 232.062 -1.29571 -0.897171 0
M  V30 2426 C 232.972 -1.16808 -2.03453 0
M  V30 2427 C 233.988 -0.0907471 -1.73763 0
M  V30 2428 O 235.164 -0.303312 -1.99103 0
M  V30 2429 C 232.229 -0.848264 -3.36163 0
M  V30 2430 C 231.29 -2.0097 -3.79354 0
M  V30 2431 C 230.523 -1.70505 -5.05731 0
M  V30 2432 O 230.746 -0.62718 -5.66941 0
M  V30 2433 O 229.68 -2.5538 -5.45036 0
M  V30 2434 H 233.506 -2.12325 -2.17144 0
M  V30 2435 H 231.091 -1.09047 -1.02123 0
M  V30 2436 H 232.973 -0.684581 -4.15802 0
M  V30 2437 H 231.648 0.0771071 -3.23608 0
M  V30 2438 H 230.555 -2.22863 -3.00471 0
M  V30 2439 H 231.888 -2.91636 -3.96496 0
M  V30 2440 N 233.54 1.10788 -1.12088 0
M  V30 2441 C 234.765 1.87002 -0.896949 0
M  V30 2442 C 235.19 1.79933 0.548261 0
M  V30 2443 O 234.548 1.16662 1.38779 0
M  V30 2444 C 234.596 3.3349 -1.37174 0
M  V30 2445 O 233.7 4.08745 -0.547831 0
M  V30 2446 H 233.041 0.580397 -0.322545 0
M  V30 2447 H 235.571 1.39996 -1.49206 0
M  V30 2448 H 235.581 3.84339 -1.36922 0
M  V30 2449 H 234.256 3.37951 -2.42408 0
M  V30 2450 H 232.833 3.6776 -0.617034 0
M  V30 2451 N 235.018 0.912232 1.28515 0
M  V30 2452 C 236.264 0.545405 1.95328 0
M  V30 2453 C 236.597 -0.908313 1.71649 0
M  V30 2454 O 235.872 -1.64575 1.03659 0
M  V30 2455 C 236.155 0.853483 3.4984 0
M  V30 2456 C 236.008 2.35982 3.82926 0
M  V30 2457 C 237.327 0.348589 4.38717 0
M  V30 2458 H 234.446 0.199626 0.709449 0
M  V30 2459 H 237.088 1.1412 1.5191 0
M  V30 2460 H 235.238 0.34643 3.86952 0
M  V30 2461 H 236.91 2.93738 3.55691 0
M  V30 2462 H 235.153 2.81543 3.30024 0
M  V30 2463 H 235.824 2.52593 4.90816 0
M  V30 2464 H 238.3 0.78294 4.08668 0
M  V30 2465 H 237.176 0.593242 5.45685 0
M  V30 2466 H 237.437 -0.751049 4.35674 0
M  V30 2467 N 236.496 -1.42363 0.676048 0
M  V30 2468 C 237.459 -2.29199 0.00766941 0
M  V30 2469 C 238.459 -1.43389 -0.727745 0
M  V30 2470 O 239.649 -1.64764 -0.56556 0
M  V30 2471 C 236.781 -3.2591 -0.999785 0
M  V30 2472 H 237.974 -2.89794 0.771988 0
M  V30 2473 H 235.527 -1.50024 0.438468 0
M  V30 2474 H 236.262 -2.70256 -1.79255 0
M  V30 2475 H 236.047 -3.89202 -0.475829 0
M  V30 2476 H 237.537 -3.91028 -1.46583 0
M  V30 2477 N 237.974 -0.419461 -1.51915 0
M  V30 2478 C 239.385 0.0477853 -1.86639 0
M  V30 2479 C 239.736 1.43531 -1.33766 0
M  V30 2480 O 238.861 2.05401 -0.68113 0
M  V30 2481 C 239.456 0.0934885 -3.38671 0
M  V30 2482 C 238.015 0.505097 -3.72996 0
M  V30 2483 C 237.162 -0.313792 -2.75519 0
M  V30 2484 H 240.113 -0.636088 -1.45395 0
M  V30 2485 H 240.134 0.906667 -3.6954 0
M  V30 2486 H 239.646 -0.916501 -3.77123 0
M  V30 2487 H 237.747 1.52135 -3.40126 0
M  V30 2488 H 237.86 0.242309 -4.78487 0
M  V30 2489 H 236.224 0.225363 -2.53701 0
M  V30 2490 H 237.007 -1.32232 -3.16812 0
M  V30 2491 N 239.452 1.56882 -0.150215 0
M  V30 2492 C 240.415 2.1573 0.774157 0
M  V30 2493 C 241.415 1.0999 1.17298 0
M  V30 2494 O 242.605 1.35613 1.09338 0
M  V30 2495 C 239.737 2.72302 2.05096 0
M  V30 2496 H 240.93 2.98752 0.262201 0
M  V30 2497 H 238.483 1.55985 0.099248 0
M  V30 2498 H 239.218 1.92956 2.6065 0
M  V30 2499 H 239.003 3.49665 1.77416 0
M  V30 2500 H 240.493 3.17632 2.71109 0
M  V30 2501 N 240.93 -0.123565 1.57115 0
M  V30 2502 C 241.86 -1.15309 2.03042 0
M  V30 2503 C 242.841 -1.43454 0.914061 0
M  V30 2504 O 244.026 -1.53973 1.18347 0
M  V30 2505 C 241.156 -2.48043 2.43089 0
M  V30 2506 C 240.11 -2.3437 3.58127 0
M  V30 2507 C 239.436 -3.72026 3.84059 0
M  V30 2508 C 240.736 -1.80804 4.90007 0
M  V30 2509 H 242.43 -0.771102 2.893 0
M  V30 2510 H 239.976 -0.369479 1.39179 0
M  V30 2511 H 241.929 -3.20311 2.73823 0
M  V30 2512 H 240.653 -2.88122 1.53796 0
M  V30 2513 H 239.312 -1.64551 3.27595 0
M  V30 2514 H 238.96 -4.09582 2.91979 0
M  V30 2515 H 238.66 -3.63732 4.6149 0
M  V30 2516 H 240.184 -4.45806 4.1724 0
M  V30 2517 H 241.598 -2.42886 5.19307 0
M  V30 2518 H 239.995 -1.83343 5.71407 0
M  V30 2519 H 241.065 -0.76528 4.78823 0
M  V30 2520 N 242.408 -1.52605 -0.393616 0
M  V30 2521 C 243.633 -1.71592 -1.16495 0
M  V30 2522 C 244.058 -0.43133 -1.83088 0
M  V30 2523 O 243.416 0.612523 -1.7064 0
M  V30 2524 C 243.464 -2.86318 -2.19213 0
M  V30 2525 O 242.568 -2.52969 -3.257 0
M  V30 2526 H 241.909 -0.570734 -0.33935 0
M  V30 2527 H 244.439 -1.99377 -0.459324 0
M  V30 2528 H 244.449 -3.1168 -2.63286 0
M  V30 2529 H 243.124 -3.79511 -1.7013 0
M  V30 2530 H 241.701 -2.38332 -2.86797 0
M  V30 2531 N 243.887 0.651787 -1.4349 0
M  V30 2532 C 245.127 1.42345 -1.46688 0
M  V30 2533 C 245.491 1.91793 -0.0891023 0
M  V30 2534 O 246.692 2.688 0.00423594 0
M  V30 2535 C 244.963 2.57221 -2.48137 0
M  V30 2536 S 246.522 3.45725 -2.70221 0
M  V30 2537 H 243.34 0.485878 -0.51908 0
M  V30 2538 H 245.942 0.756578 -1.80267 0
M  V30 2539 H 244.646 2.1917 -3.46976 0
M  V30 2540 H 244.177 3.28757 -2.16061 0
M  V30 2541 H 246.192 4.53996 -2.00255 0
M  V30 2542 N 245.365 1.30045 0.890287 0
M  V30 2543 C 246.593 1.21472 1.67487 0
M  V30 2544 C 247.008 -0.223241 1.87476 0
M  V30 2545 O 246.365 -1.14828 1.41847 0
M  V30 2546 C 246.416 1.93394 3.05419 0
M  V30 2547 O 246.137 3.31576 2.86337 0
M  V30 2548 C 247.638 1.91414 3.99844 0
M  V30 2549 H 244.858 0.420604 0.522813 0
M  V30 2550 H 247.402 1.7158 1.11268 0
M  V30 2551 H 245.557 1.47099 3.58386 0
M  V30 2552 H 245.971 3.67929 3.73802 0
M  V30 2553 H 247.445 2.46285 4.94012 0
M  V30 2554 H 247.922 0.891833 4.3005 0
M  V30 2555 H 248.528 2.37496 3.52811 0
M  V30 2556 N 246.843 -1.10192 1.12674 0
M  V30 2557 C 247.773 -2.18652 0.819362 0
M  V30 2558 C 248.754 -1.68698 -0.217915 0
M  V30 2559 O 249.939 -1.94041 -0.0785581 0
M  V30 2560 C 247.069 -3.46202 0.27594 0
M  V30 2561 C 246.023 -4.09444 1.24656 0
M  V30 2562 C 245.349 -5.31725 0.563258 0
M  V30 2563 C 246.649 -4.52863 2.60217 0
M  V30 2564 H 248.343 -2.44622 1.72628 0
M  V30 2565 H 245.889 -1.17571 0.831451 0
M  V30 2566 H 247.842 -4.21372 0.0486149 0
M  V30 2567 H 246.566 -3.1973 -0.666331 0
M  V30 2568 H 245.225 -3.36284 1.45974 0
M  V30 2569 H 244.873 -5.0153 -0.384235 0
M  V30 2570 H 244.573 -5.74991 1.21075 0
M  V30 2571 H 246.097 -6.09624 0.34503 0
M  V30 2572 H 247.511 -5.19294 2.42913 0
M  V30 2573 H 245.908 -5.06986 3.21068 0
M  V30 2574 H 246.978 -3.65656 3.18471 0
M  V30 2575 N 248.321 -0.919034 -1.28029 0
M  V30 2576 C 249.561 -0.562107 -1.96519 0
M  V30 2577 C 249.925 0.878784 -1.70708 0
M  V30 2578 O 251.126 1.34355 -2.32813 0
M  V30 2579 C 249.397 -0.868953 -3.46676 0
M  V30 2580 S 250.956 -0.619237 -4.34409 0
M  V30 2581 H 247.774 -0.2078 -0.679956 0
M  V30 2582 H 250.376 -1.18562 -1.55446 0
M  V30 2583 H 249.08 -1.91547 -3.62957 0
M  V30 2584 H 248.611 -0.234301 -3.92702 0
M  V30 2585 H 250.626 0.526995 -4.93394 0
M  V30 2586 N 249.799 1.42003 -0.683588 0
M  V30 2587 C 251.024 2.06265 -0.216647 0
M  V30 2588 C 251.449 1.51059 1.12083 0
M  V30 2589 O 250.807 0.632638 1.69904 0
M  V30 2590 C 250.855 3.60191 -0.171759 0
M  V30 2591 O 249.959 4.03396 0.857069 0
M  V30 2592 H 249.3 0.65502 -0.108834 0
M  V30 2593 H 251.83 1.81982 -0.935077 0
M  V30 2594 H 251.84 4.08 0.0014303 0
M  V30 2595 H 250.515 3.99743 -1.14796 0
M  V30 2596 H 249.092 3.67117 0.654208 0
M  V30 2597 N 251.277 0.427512 1.51691 0
M  V30 2598 C 252.21 -0.433876 2.24037 0
M  V30 2599 C 253.188 -1.03287 1.25581 0
M  V30 2600 O 254.372 -1.07722 1.54688 0
M  V30 2601 C 251.499 -1.60385 2.98319 0
M  V30 2602 C 250.545 -1.12648 4.11355 0
M  V30 2603 S 251.378 -0.076543 5.35445 0
M  V30 2604 C 252.534 -1.25141 6.13262 0
M  V30 2605 H 252.767 0.180367 2.96752 0
M  V30 2606 H 250.3 0.211946 1.52938 0
M  V30 2607 H 252.258 -2.27462 3.41718 0
M  V30 2608 H 250.919 -2.18948 2.25213 0
M  V30 2609 H 250.112 -2.0011 4.62571 0
M  V30 2610 H 249.714 -0.534088 3.70167 0
M  V30 2611 H 252.006 -2.17162 6.41753 0
M  V30 2612 H 252.949 -0.779411 7.03797 0
M  V30 2613 H 253.357 -1.48553 5.44603 0
M  V30 2614 N 252.755 -1.56801 0.158532 0
M  V30 2615 C 253.665 -2.20916 -0.789518 0
M  V30 2616 C 254.681 -1.1969 -1.26294 0
M  V30 2617 O 255.857 -1.52308 -1.31773 0
M  V30 2618 C 252.922 -2.82727 -2.00665 0
M  V30 2619 C 251.983 -3.99114 -1.58134 0
M  V30 2620 C 251.216 -4.57968 -2.74045 0
M  V30 2621 O 251.439 -4.15704 -3.90572 0
M  V30 2622 O 250.373 -5.48047 -2.48855 0
M  V30 2623 H 254.199 -3.02464 -0.273681 0
M  V30 2624 H 251.784 -1.4924 -0.0690548 0
M  V30 2625 H 253.666 -3.21968 -2.71872 0
M  V30 2626 H 252.341 -2.04184 -2.51179 0
M  V30 2627 H 251.248 -3.64567 -0.839155 0
M  V30 2628 H 252.581 -4.79212 -1.12325 0
M  V30 2629 N 254.233 0.115231 -1.57178 0
M  V30 2630 C 255.481 0.820727 -1.84685 0
M  V30 2631 C 255.802 1.80237 -0.744279 0
M  V30 2632 O 255.072 1.94529 0.231375 0
M  V30 2633 H 253.652 0.306084 -0.681411 0
M  V30 2634 H 256.314 0.101656 -1.94635 0
M  V30 2635 H 255.41 1.36366 -2.80733 0
M  V30 2636 N 255.711 1.52812 0.385517 0
M  V30 2637 C 256.988 1.5861 1.14465 0
M  V30 2638 C 257.368 0.381402 2.07626 0
M  V30 2639 O 256.716 -0.629999 2.19643 0
M  V30 2640 C 256.926 2.92664 1.90128 0
M  V30 2641 C 258.274 3.46526 2.45367 0
M  V30 2642 O 259.298 2.94562 2.0028 0
M  V30 2643 O 258.157 4.37323 3.27736 0
M  V30 2644 H 255.251 0.639855 0.523941 0
M  V30 2645 H 257.797 1.65149 0.390389 0
M  V30 2646 H 256.569 3.71788 1.22022 0
M  V30 2647 H 256.192 2.89527 2.72507 0
M  V30 2648 N 257.189 -0.644168 1.43834 0
M  V30 2649 C 258.414 -1.43642 1.49605 0
M  V30 2650 C 258.839 -1.8773 0.117913 0
M  V30 2651 O 258.197 -1.57938 -0.890239 0
M  V30 2652 C 258.245 -2.6416 2.45463 0
M  V30 2653 O 257.349 -3.63538 1.94714 0
M  V30 2654 H 256.69 -0.430329 0.50568 0
M  V30 2655 H 259.22 -0.787448 1.8884 0
M  V30 2656 H 259.23 -3.11864 2.63068 0
M  V30 2657 H 257.905 -2.31414 3.45572 0
M  V30 2658 H 256.482 -3.2273 1.86814 0
M  V30 2659 N 258.668 -1.30515 -0.883378 0
M  V30 2660 C 259.914 -1.19607 -1.63774 0
M  V30 2661 C 260.247 0.248314 -1.92606 0
M  V30 2662 O 259.522 1.17742 -1.54813 0
M  V30 2663 C 259.805 -2.02669 -2.97653 0
M  V30 2664 C 259.658 -3.55335 -2.75784 0
M  V30 2665 C 260.977 -1.86573 -3.98596 0
M  V30 2666 H 258.096 -0.435856 -0.594305 0
M  V30 2667 H 260.738 -1.60165 -1.02212 0
M  V30 2668 H 258.888 -1.68208 -3.50197 0
M  V30 2669 H 260.56 -3.99863 -2.30016 0
M  V30 2670 H 258.803 -3.79438 -2.1026 0
M  V30 2671 H 259.474 -4.08745 -3.70988 0
M  V30 2672 H 261.95 -2.16703 -3.55217 0
M  V30 2673 H 260.826 -2.47014 -4.90179 0
M  V30 2674 H 261.087 -0.825321 -4.34328 0
M  V30 2675 N 260.146 1.09593 -1.13257 0
M  V30 2676 C 261.371 1.8604 -0.916732 0
M  V30 2677 C 261.796 1.80504 0.529146 0
M  V30 2678 O 261.154 1.18127 1.37534 0
M  V30 2679 C 261.202 3.32017 -1.40703 0
M  V30 2680 O 260.306 4.08141 -0.591153 0
M  V30 2681 H 259.647 0.576943 -0.328683 0
M  V30 2682 H 262.177 1.38405 -1.50682 0
M  V30 2683 H 262.187 3.82865 -1.4099 0
M  V30 2684 H 260.862 3.35361 -2.45979 0
M  V30 2685 H 259.439 3.67084 -0.656005 0
M  V30 2686 N 261.624 0.925811 1.2754 0
M  V30 2687 C 262.849 0.580924 1.99098 0
M  V30 2688 C 263.274 -0.833555 1.68622 0
M  V30 2689 O 262.632 -1.55903 0.925422 0
M  V30 2690 C 262.68 0.811186 3.51358 0
M  V30 2691 O 261.784 -0.124129 4.12213 0
M  V30 2692 H 261.125 0.223873 0.625122 0
M  V30 2693 H 263.655 1.24455 1.62395 0
M  V30 2694 H 263.665 0.72601 4.01489 0
M  V30 2695 H 262.34 1.84227 3.72872 0
M  V30 2696 H 260.917 0.0108006 3.72898 0
M  V30 2697 N 263.102 -1.41638 0.69111 0
M  V30 2698 C 264.012 -2.34588 0.0233487 0
M  V30 2699 C 265.028 -1.55987 -0.770984 0
M  V30 2700 O 266.204 -1.88486 -0.709569 0
M  V30 2701 C 263.269 -3.34684 -0.904851 0
M  V30 2702 C 262.33 -4.29176 -0.103225 0
M  V30 2703 C 261.563 -5.2449 -0.987216 0
M  V30 2704 O 261.786 -5.2514 -2.22674 0
M  V30 2705 O 260.72 -6.00295 -0.439281 0
M  V30 2706 H 264.546 -2.93261 0.789416 0
M  V30 2707 H 262.131 -1.42417 0.45142 0
M  V30 2708 H 264.013 -3.96133 -1.43724 0
M  V30 2709 H 262.688 -2.78461 -1.65049 0
M  V30 2710 H 261.595 -3.71089 0.473655 0
M  V30 2711 H 262.928 -4.88484 0.60365 0
M  V30 2712 N 264.58 -0.43555 -1.51462 0
M  V30 2713 C 265.805 0.132627 -2.06976 0
M  V30 2714 C 266.23 1.35848 -1.30104 0
M  V30 2715 O 265.588 1.78112 -0.338493 0
M  V30 2716 C 265.636 0.43523 -3.57964 0
M  V30 2717 O 264.74 1.52198 -3.83288 0
M  V30 2718 H 264.081 0.00265 -0.663995 0
M  V30 2719 H 266.611 -0.616369 -1.95095 0
M  V30 2720 H 266.621 0.686206 -4.02188 0
M  V30 2721 H 265.296 -0.460739 -4.1334 0
M  V30 2722 H 263.873 1.2611 -3.50928 0
M  V30 2723 N 266.058 1.56714 -0.166846 0
M  V30 2724 C 267.283 2.01557 0.488833 0
M  V30 2725 C 267.708 1.0463 1.56314 0
M  V30 2726 O 267.066 0.0251304 1.81283 0
M  V30 2727 C 267.114 3.4503 1.04818 0
M  V30 2728 O 266.218 3.51163 2.16236 0
M  V30 2729 H 265.559 0.653516 0.117526 0
M  V30 2730 H 268.089 2.02818 -0.269421 0
M  V30 2731 H 268.099 3.84243 1.37191 0
M  V30 2732 H 266.774 4.15077 0.261572 0
M  V30 2733 H 265.351 3.23807 1.84942 0
M  V30 2734 N 267.536 -0.106894 1.57237 0
M  V30 2735 C 268.761 -0.830287 1.90055 0
M  V30 2736 C 269.186 -1.72064 0.75998 0
M  V30 2737 O 268.544 -1.78982 -0.288991 0
M  V30 2738 C 268.592 -1.6295 3.21683 0
M  V30 2739 O 267.696 -2.73748 3.08441 0
M  V30 2740 H 267.037 -0.228855 0.623315 0
M  V30 2741 H 269.567 -0.085658 2.04421 0
M  V30 2742 H 269.577 -2.01621 3.54701 0
M  V30 2743 H 268.252 -0.975989 4.04286 0
M  V30 2744 H 266.829 -2.38192 2.86913 0
M  V30 2745 N 269.014 -1.53014 -0.377408 0
M  V30 2746 C 270.425 -1.60438 -0.954798 0
M  V30 2747 C 270.776 -0.464418 -1.90624 0
M  V30 2748 O 269.901 0.41087 -2.12464 0
M  V30 2749 C 270.496 -2.90797 -1.73847 0
M  V30 2750 C 269.055 -3.00595 -2.26538 0
M  V30 2751 C 268.202 -2.55645 -1.07429 0
M  V30 2752 H 271.153 -1.57926 -0.156575 0
M  V30 2753 H 271.174 -2.77935 -2.5987 0
M  V30 2754 H 270.686 -3.73746 -1.04574 0
M  V30 2755 H 268.787 -2.22208 -2.99089 0
M  V30 2756 H 268.9 -4.05456 -2.5523 0
M  V30 2757 H 267.264 -2.10239 -1.43777 0
M  V30 2758 H 268.047 -3.41 -0.396728 0
M  V30 2759 N 270.492 0.636531 -1.44174 0
M  V30 2760 C 271.769 1.39463 -1.37148 0
M  V30 2761 C 272.149 2.11082 -0.027507 0
M  V30 2762 O 271.497 2.05954 0.989716 0
M  V30 2763 C 271.707 2.36552 -2.56601 0
M  V30 2764 C 273.055 3.00048 -3.00427 0
M  V30 2765 O 274.079 2.46878 -2.56767 0
M  V30 2766 O 272.938 3.96488 -3.76111 0
M  V30 2767 H 270.032 0.623903 -0.542839 0
M  V30 2768 H 272.578 0.662039 -1.56253 0
M  V30 2769 H 271.35 1.82692 -3.46034 0
M  V30 2770 H 270.973 3.17236 -2.39681 0
M  V30 2771 N 271.97 1.30982 0.876444 0
M  V30 2772 C 273.216 1.20474 1.63138 0
M  V30 2773 C 273.549 -0.238096 1.92735 0
M  V30 2774 O 272.824 -1.1692 1.55435 0
M  V30 2775 C 273.107 2.04244 2.96574 0
M  V30 2776 C 272.96 3.56793 2.73896 0
M  V30 2777 C 274.279 1.88684 3.97601 0
M  V30 2778 H 271.398 0.439001 0.591985 0
M  V30 2779 H 274.04 1.60704 1.01361 0
M  V30 2780 H 272.19 1.70063 3.493 0
M  V30 2781 H 273.862 4.01077 2.27892 0
M  V30 2782 H 272.105 3.80548 2.08245 0
M  V30 2783 H 272.776 4.10706 3.68815 0
M  V30 2784 H 275.252 2.18584 3.54062 0
M  V30 2785 H 274.128 2.4961 4.88862 0
M  V30 2786 H 274.389 0.848343 4.33884 0
M  V30 2787 N 273.449 -1.08991 1.13837 0
M  V30 2788 C 274.399 -2.1393 0.788535 0
M  V30 2789 C 275.383 -1.59396 -0.219516 0
M  V30 2790 O 276.575 -1.76985 -0.0227557 0
M  V30 2791 C 273.704 -3.42305 0.261147 0
M  V30 2792 C 272.79 -4.03736 1.29837 0
M  V30 2793 N 273.181 -4.39659 2.50067 0
M  V30 2794 C 271.479 -4.30993 1.1472 0
M  V30 2795 C 272.18 -4.88113 3.16419 0
M  V30 2796 N 271.156 -4.85846 2.43832 0
M  V30 2797 H 274.958 -2.39516 1.70322 0
M  V30 2798 H 272.472 -1.26263 1.02134 0
M  V30 2799 H 274.469 -4.16899 -0.0077405 0
M  V30 2800 H 273.129 -3.18172 -0.647805 0
M  V30 2801 H 274.14 -4.30878 2.8734 0
M  V30 2802 H 270.817 -4.16444 0.296773 0
M  V30 2803 H 272.207 -5.25336 4.18894 0
M  V30 2804 N 274.927 -0.932562 -1.27047 0
M  V30 2805 C 275.857 -0.452902 -2.29066 0
M  V30 2806 C 276.838 0.489338 -1.62909 0
M  V30 2807 O 278.023 0.393046 -1.90181 0
M  V30 2808 C 275.153 0.290698 -3.46081 0
M  V30 2809 C 274.107 -0.564168 -4.24265 0
M  V30 2810 C 273.433 0.308886 -5.33807 0
M  V30 2811 C 274.733 -1.83112 -4.89149 0
M  V30 2812 H 276.427 -1.30552 -2.69437 0
M  V30 2813 H 273.973 -0.629201 -1.29526 0
M  V30 2814 H 275.926 0.637233 -4.16554 0
M  V30 2815 H 274.65 1.17738 -3.0464 0
M  V30 2816 H 273.309 -0.893477 -3.55545 0
M  V30 2817 H 272.957 1.19467 -4.88607 0
M  V30 2818 H 272.657 -0.259633 -5.87026 0
M  V30 2819 H 274.181 0.650884 -6.07121 0
M  V30 2820 H 275.595 -1.55236 -5.51883 0
M  V30 2821 H 273.992 -2.34353 -5.52448 0
M  V30 2822 H 275.062 -2.54772 -4.12576 0
M  V30 2823 N 276.405 1.4127 -0.698611 0
M  V30 2824 C 277.633 2.05503 -0.239992 0
M  V30 2825 C 278.048 1.52584 1.11191 0
M  V30 2826 O 277.405 0.675323 1.69545 0
M  V30 2827 C 277.456 3.60987 -0.192429 0
M  V30 2828 O 277.177 4.1195 -1.49094 0
M  V30 2829 C 278.678 4.42371 0.28681 0
M  V30 2830 H 275.898 0.661748 -0.111045 0
M  V30 2831 H 278.442 1.80987 -0.95205 0
M  V30 2832 H 276.597 3.84533 0.470472 0
M  V30 2833 H 277.011 5.06018 -1.38007 0
M  V30 2834 H 278.485 5.51344 0.26896 0
M  V30 2835 H 278.962 4.18699 1.32619 0
M  V30 2836 H 279.568 4.23897 -0.345201 0
M  V30 2837 N 277.883 0.443576 1.51229 0
M  V30 2838 C 279.132 -0.122332 2.01329 0
M  V30 2839 C 279.445 -1.43237 1.33201 0
M  V30 2840 O 280.651 -2.0816 1.74304 0
M  V30 2841 C 279.107 -0.268551 3.58897 0
M  V30 2842 C 278.715 1.03142 4.35965 0
M  V30 2843 C 280.459 -0.787894 4.17124 0
M  V30 2844 C 278.366 0.850504 5.85252 0
M  V30 2845 H 277.296 -0.0494929 0.752374 0
M  V30 2846 H 279.947 0.574289 1.74282 0
M  V30 2847 H 278.329 -1.02832 3.82415 0
M  V30 2848 H 279.503 1.80001 4.24189 0
M  V30 2849 H 277.818 1.47977 3.89219 0
M  V30 2850 H 280.415 -0.939841 5.26375 0
M  V30 2851 H 280.758 -1.77201 3.76703 0
M  V30 2852 H 281.291 -0.0862669 3.97706 0
M  V30 2853 H 278.03 1.80718 6.30096 0
M  V30 2854 H 277.55 0.121825 5.99676 0
M  V30 2855 H 279.229 0.506163 6.45017 0
M  V30 2856 N 279.361 -1.56624 0.175154 0
M  V30 2857 C 280.293 -2.15333 -0.785128 0
M  V30 2858 C 281.306 -1.1099 -1.19101 0
M  V30 2859 O 282.495 -1.38162 -1.13019 0
M  V30 2860 C 279.595 -2.68427 -2.06882 0
M  V30 2861 C 278.768 -3.97466 -1.8259 0
M  V30 2862 C 277.827 -4.35585 -2.95215 0
M  V30 2863 O 276.853 -5.03389 -2.65684 0
M  V30 2864 N 278.055 -3.97457 -4.23094 0
M  V30 2865 H 280.82 -2.98359 -0.283187 0
M  V30 2866 H 278.381 -1.61898 -0.00749817 0
M  V30 2867 H 280.373 -2.90924 -2.81328 0
M  V30 2868 H 278.943 -1.89968 -2.48256 0
M  V30 2869 H 278.163 -3.83307 -0.920287 0
M  V30 2870 H 279.451 -4.81736 -1.63733 0
M  V30 2871 H 278.849 -3.42878 -4.49945 0
M  V30 2872 H 277.406 -4.24947 -4.9423 0
M  V30 2873 N 280.839 0.0985539 -1.57292 0
M  V30 2874 C 281.749 1.13824 -2.05137 0
M  V30 2875 C 282.765 1.44076 -0.975604 0
M  V30 2876 O 283.941 1.54786 -1.28853 0
M  V30 2877 C 281.006 2.43969 -2.46333 0
M  V30 2878 C 280.067 2.2093 -3.68087 0
M  V30 2879 C 279.3 3.44869 -4.0731 0
M  V30 2880 O 279.523 4.52972 -3.46659 0
M  V30 2881 O 278.457 3.34661 -5.00285 0
M  V30 2882 H 282.283 0.761881 -2.93988 0
M  V30 2883 H 279.868 0.310818 -1.46131 0
M  V30 2884 H 281.75 3.20609 -2.73473 0
M  V30 2885 H 280.425 2.81038 -1.60621 0
M  V30 2886 H 279.332 1.42081 -3.46069 0
M  V30 2887 H 280.665 1.88755 -4.54568 0
M  V30 2888 N 282.317 1.53212 0.369288 0
M  V30 2889 C 283.227 1.82342 1.47609 0
M  V30 2890 C 284.243 0.711532 1.58787 0
M  V30 2891 O 285.419 1.0012 1.74751 0
M  V30 2892 C 282.484 2.00393 2.8292 0
M  V30 2893 C 281.545 3.24297 2.81301 0
M  V30 2894 C 280.778 3.41478 4.10157 0
M  V30 2895 O 281.001 2.63033 5.06132 0
M  V30 2896 O 279.935 4.34817 4.16194 0
M  V30 2897 H 283.761 2.76366 1.25918 0
M  V30 2898 H 281.346 1.38547 0.559034 0
M  V30 2899 H 283.228 2.13859 3.63101 0
M  V30 2900 H 281.903 1.09559 3.04596 0
M  V30 2901 H 280.81 3.16257 1.99831 0
M  V30 2902 H 282.143 4.15041 2.64578 0
M  V30 2903 N 283.795 -0.628877 1.44509 0
M  V30 2904 C 285.043 -1.38565 1.4712 0
M  V30 2905 C 285.364 -1.94712 0.105899 0
M  V30 2906 O 284.634 -1.75912 -0.862079 0
M  V30 2907 H 283.214 -0.514333 0.541729 0
M  V30 2908 H 285.876 -0.740018 1.80305 0
M  V30 2909 H 284.972 -2.21583 2.19789 0
M  V30 2910 N 285.273 -1.31445 -0.869486 0
M  V30 2911 C 286.236 -1.19094 -1.9583 0
M  V30 2912 C 287.236 -0.117906 -1.60367 0
M  V30 2913 O 288.426 -0.367208 -1.70286 0
M  V30 2914 C 285.558 -0.828165 -3.30688 0
M  V30 2915 H 286.751 -2.15842 -2.08212 0
M  V30 2916 H 284.304 -1.15063 -1.05784 0
M  V30 2917 H 285.039 0.138142 -3.24006 0
M  V30 2918 H 284.824 -1.6038 -3.578 0
M  V30 2919 H 286.314 -0.765658 -4.10521 0
M  V30 2920 N 286.751 1.08385 -1.14413 0
M  V30 2921 C 288.028 1.77429 -0.823297 0
M  V30 2922 C 288.408 1.9974 0.683163 0
M  V30 2923 O 287.756 1.60739 1.62405 0
M  V30 2924 C 287.966 3.09004 -1.62227 0
M  V30 2925 C 289.314 3.83532 -1.82177 0
M  V30 2926 O 290.338 3.18786 -1.58915 0
M  V30 2927 O 289.197 4.99792 -2.21067 0
M  V30 2928 H 286.291 0.769999 -0.301712 0
M  V30 2929 H 288.837 1.14846 -1.24934 0
M  V30 2930 H 287.609 2.88316 -2.64555 0
M  V30 2931 H 287.232 3.79316 -1.19187 0
M  V30 2932 N 288.23 0.939286 1.26551 0
M  V30 2933 C 289.507 0.5038 1.89001 0
M  V30 2934 C 289.887 -1.01854 1.84903 0
M  V30 2935 O 289.235 -1.87773 1.30206 0
M  V30 2936 C 289.445 1.063 3.32417 0
M  V30 2937 C 290.793 1.13051 4.09273 0
M  V30 2938 O 291.817 1.01345 3.41479 0
M  V30 2939 O 290.676 1.31233 5.30509 0
M  V30 2940 H 287.77 0.163897 0.810597 0
M  V30 2941 H 290.316 1.03173 1.34735 0
M  V30 2942 H 289.088 2.10665 3.29752 0
M  V30 2943 H 288.711 0.517408 3.94219 0
M  V30 2944 N 289.708 -1.40897 0.706093 0
M  V30 2945 C 290.618 -2.3455 0.0482286 0
M  V30 2946 C 291.634 -1.56796 -0.754396 0
M  V30 2947 O 292.81 -1.89228 -0.689538 0
M  V30 2948 C 289.875 -3.35625 -0.869303 0
M  V30 2949 C 288.936 -4.29261 -0.0576994 0
M  V30 2950 C 288.169 -5.25508 -0.931531 0
M  V30 2951 O 288.392 -5.27472 -2.17092 0
M  V30 2952 O 287.326 -6.00727 -0.375587 0
M  V30 2953 H 291.152 -2.92407 0.820476 0
M  V30 2954 H 288.737 -1.4193 0.4665 0
M  V30 2955 H 290.619 -3.97635 -1.39514 0
M  V30 2956 H 289.294 -2.80196 -1.62086 0
M  V30 2957 H 288.201 -3.70566 0.512988 0
M  V30 2958 H 289.534 -4.87817 0.655426 0
M  V30 2959 N 291.186 -0.45159 -1.50991 0
M  V30 2960 C 292.116 0.342898 -2.30969 0
M  V30 2961 C 293.097 1.00815 -1.37005 0
M  V30 2962 O 294.282 1.00907 -1.65926 0
M  V30 2963 C 291.412 1.43637 -3.16205 0
M  V30 2964 C 290.366 0.893818 -4.18563 0
M  V30 2965 C 289.692 2.08411 -4.92411 0
M  V30 2966 C 290.992 -0.0815568 -5.22236 0
M  V30 2967 H 292.686 -0.324556 -2.97636 0
M  V30 2968 H 290.232 -0.157531 -1.43136 0
M  V30 2969 H 292.185 1.9995 -3.70942 0
M  V30 2970 H 290.909 2.13232 -2.47386 0
M  V30 2971 H 289.568 0.352798 -3.64898 0
M  V30 2972 H 289.216 2.76658 -4.20082 0
M  V30 2973 H 288.916 1.72741 -5.61636 0
M  V30 2974 H 290.44 2.65251 -5.49976 0
M  V30 2975 H 291.854 0.391742 -5.7196 0
M  V30 2976 H 290.251 -0.351551 -5.99069 0
M  V30 2977 H 291.321 -1.01374 -4.74185 0
M  V30 2978 N 292.664 1.56529 -0.183458 0
M  V30 2979 C 293.574 2.22144 0.754272 0
M  V30 2980 C 294.59 1.21684 1.24374 0
M  V30 2981 O 295.766 1.54385 1.29333 0
M  V30 2982 C 292.831 2.85884 1.96141 0
M  V30 2983 C 291.892 4.01579 1.51765 0
M  V30 2984 C 291.125 4.6227 2.66725 0
M  V30 2985 O 291.348 4.21865 3.83909 0
M  V30 2986 O 290.282 5.51936 2.40104 0
M  V30 2987 H 294.108 3.02861 0.225527 0
M  V30 2988 H 291.693 1.49331 0.0453032 0
M  V30 2989 H 293.575 3.26253 2.66715 0
M  V30 2990 H 292.25 2.08154 2.47899 0
M  V30 2991 H 291.157 3.65856 0.781049 0
M  V30 2992 H 292.49 4.80938 1.04686 0
M  V30 2993 N 294.142 -0.090211 1.57342 0
M  V30 2994 C 295.052 -1.12735 2.05738 0
M  V30 2995 C 296.068 -1.43557 0.983231 0
M  V30 2996 O 297.244 -1.54101 1.29672 0
M  V30 2997 C 294.309 -2.42659 2.47624 0
M  V30 2998 C 293.37 -2.18975 3.69254 0
M  V30 2999 C 292.603 -3.42704 4.09133 0
M  V30 3000 O 292.826 -4.51127 3.49057 0
M  V30 3001 O 291.76 -3.32003 5.02053 0
M  V30 3002 H 295.586 -0.746279 2.94388 0
M  V30 3003 H 293.171 -0.303064 1.46294 0
M  V30 3004 H 295.053 -3.19155 2.7517 0
M  V30 3005 H 293.728 -2.80182 1.62109 0
M  V30 3006 H 292.635 -1.40244 3.46818 0
M  V30 3007 H 293.968 -1.86342 4.55563 0
M  V30 3008 N 295.62 -1.53406 -0.361157 0
M  V30 3009 C 296.848 -1.73717 -1.12383 0
M  V30 3010 C 297.263 -0.468161 -1.82904 0
M  V30 3011 O 296.62 0.559198 -1.73722 0
M  V30 3012 C 296.671 -2.90558 -2.15078 0
M  V30 3013 O 296.392 -4.12549 -1.47428 0
M  V30 3014 C 297.893 -3.22777 -3.03858 0
M  V30 3015 H 295.113 -0.580896 -0.335858 0
M  V30 3016 H 297.657 -2.00167 -0.418728 0
M  V30 3017 H 295.812 -2.66489 -2.8118 0
M  V30 3018 H 296.226 -4.78009 -2.15887 0
M  V30 3019 H 297.7 -4.07927 -3.71887 0
M  V30 3020 H 298.177 -2.38329 -3.68912 0
M  V30 3021 H 298.783 -3.48787 -2.43367 0
M  V30 3022 N 297.098 0.621204 -1.44841 0
M  V30 3023 C 298.323 1.41244 -1.51871 0
M  V30 3024 C 298.748 1.87519 -0.147764 0
M  V30 3025 O 298.106 1.59334 0.865 0
M  V30 3026 C 298.154 2.60221 -2.49634 0
M  V30 3027 O 297.258 3.60395 -2.00473 0
M  V30 3028 H 296.599 0.42223 -0.512463 0
M  V30 3029 H 299.129 0.757305 -1.90069 0
M  V30 3030 H 299.139 3.0764 -2.67996 0
M  V30 3031 H 297.814 2.25887 -3.4921 0
M  V30 3032 H 296.391 3.19717 -1.91925 0
M  V30 3033 N 298.576 1.31904 0.862503 0
M  V30 3034 C 299.486 1.22161 2.00285 0
M  V30 3035 C 300.502 0.136785 1.73462 0
M  V30 3036 O 301.678 0.355994 1.98229 0
M  V30 3037 C 298.743 0.937093 3.33796 0
M  V30 3038 C 297.804 2.10957 3.73893 0
M  V30 3039 C 297.037 1.83853 5.01033 0
M  V30 3040 O 297.26 0.777274 5.65079 0
M  V30 3041 O 296.194 2.69741 5.38074 0
M  V30 3042 H 300.02 2.18008 2.11439 0
M  V30 3043 H 297.605 1.11716 0.991957 0
M  V30 3044 H 299.487 0.794583 4.13841 0
M  V30 3045 H 298.162 0.00871894 3.23699 0
M  V30 3046 H 297.069 2.30752 2.94456 0
M  V30 3047 H 298.402 3.02046 3.88625 0
M  V30 3048 N 300.054 -1.07777 1.14986 0
M  V30 3049 C 301.282 -1.84018 0.945773 0
M  V30 3050 C 301.697 -1.81897 -0.505863 0
M  V30 3051 O 301.054 -1.22726 -1.35072 0
M  V30 3052 C 301.105 -3.31287 1.44677 0
M  V30 3053 O 300.826 -3.33449 2.84154 0
M  V30 3054 C 302.327 -4.24311 1.28355 0
M  V30 3055 H 299.547 -0.580716 0.336169 0
M  V30 3056 H 302.091 -1.36077 1.52654 0
M  V30 3057 H 300.246 -3.76594 0.908625 0
M  V30 3058 H 300.66 -4.25427 3.06777 0
M  V30 3059 H 302.134 -5.2573 1.68261 0
M  V30 3060 H 302.611 -4.38612 0.227184 0
M  V30 3061 H 303.217 -3.84836 1.81056 0
M  V30 3062 N 301.532 -0.945985 -1.26051 0
M  V30 3063 C 302.943 -0.638096 -1.75457 0
M  V30 3064 C 303.294 0.846672 -1.76991 0
M  V30 3065 O 302.419 1.66262 -1.38513 0
M  V30 3066 C 303.014 -1.15157 -3.18629 0
M  V30 3067 C 301.573 -0.894004 -3.65629 0
M  V30 3068 C 300.72 -1.29967 -2.44957 0
M  V30 3069 H 303.671 -1.12376 -1.1206 0
M  V30 3070 H 303.692 -0.507615 -3.77099 0
M  V30 3071 H 303.204 -2.23222 -3.1748 0
M  V30 3072 H 301.305 0.172057 -3.72203 0
M  V30 3073 H 301.418 -1.52439 -4.54202 0
M  V30 3074 H 299.782 -0.718078 -2.44368 0
M  V30 3075 H 300.565 -2.38935 -2.46505 0
M  V30 3076 N 303.011 1.40521 -0.713556 0
M  V30 3077 C 303.941 2.33381 -0.0743864 0
M  V30 3078 C 304.922 1.52784 0.747735 0
M  V30 3079 O 306.107 1.81258 0.697071 0
M  V30 3080 C 303.237 3.36748 0.849598 0
M  V30 3081 C 302.191 4.27793 0.133247 0
M  V30 3082 C 301.517 5.21679 1.17281 0
M  V30 3083 C 302.817 5.12415 -1.01134 0
M  V30 3084 H 304.511 2.87081 -0.850007 0
M  V30 3085 H 302.057 1.38034 -0.410201 0
M  V30 3086 H 304.01 4.00648 1.30612 0
M  V30 3087 H 302.734 2.81439 1.65709 0
M  V30 3088 H 301.393 3.65342 -0.303426 0
M  V30 3089 H 301.041 4.62677 1.9733 0
M  V30 3090 H 300.741 5.83435 0.698397 0
M  V30 3091 H 302.265 5.88456 1.62947 0
M  V30 3092 H 303.679 5.69781 -0.634274 0
M  V30 3093 H 302.076 5.83203 -1.41399 0
M  V30 3094 H 303.146 4.48514 -1.84292 0
M  V30 3095 N 304.489 0.459591 1.5075 0
M  V30 3096 C 305.437 -0.354678 2.2988 0
M  V30 3097 C 306.431 -1.00086 1.36672 0
M  V30 3098 O 307.637 -0.933277 1.53915 0
M  V30 3099 H 304.012 -0.13321 0.740107 0
M  V30 3100 H 305.983 0.333269 2.96533 0
M  V30 3101 C 304.732 -1.43073 3.169 0
M  V30 3102 H 304.055 -0.942882 3.88523 0
M  V30 3103 H 305.495 -1.97328 3.75284 0
M  V30 3104 C 303.954 -2.42633 2.33732 0
M  V30 3105 O 304.484 -3.47658 2.01238 0
M  V30 3106 N 302.69 -2.14066 1.9653 0
M  V30 3107 H 302.237 -1.28685 2.23155 0
M  V30 3108 H 302.195 -2.80917 1.41185 0
M  V30 3109 N 305.967 -1.56429 0.191757 0
M  V30 3110 C 306.877 -2.22541 -0.742481 0
M  V30 3111 C 307.893 -1.22342 -1.23727 0
M  V30 3112 O 309.069 -1.55069 -1.28513 0
M  V30 3113 C 306.134 -2.8692 -1.94623 0
M  V30 3114 C 305.195 -4.02378 -1.49633 0
M  V30 3115 C 304.428 -4.63678 -2.6427 0
M  V30 3116 O 304.651 -4.23895 -3.81666 0
M  V30 3117 O 303.585 -5.53202 -2.37174 0
M  V30 3118 H 307.411 -3.02977 -0.209462 0
M  V30 3119 H 304.996 -1.49353 -0.0373832 0
M  V30 3120 H 306.878 -3.27663 -2.64982 0
M  V30 3121 H 305.553 -2.09466 -2.46791 0
M  V30 3122 H 304.46 -3.66265 -0.761636 0
M  V30 3123 H 305.793 -4.81487 -1.02134 0
M  V30 3124 N 307.445 0.0818655 -1.57387 0
M  V30 3125 C 308.67 0.799946 -1.91352 0
M  V30 3126 C 309.095 1.70833 -0.787258 0
M  V30 3127 O 308.453 1.79419 0.26048 0
M  V30 3128 C 308.501 1.57812 -3.24234 0
M  V30 3129 O 307.605 2.68806 -3.12757 0
M  V30 3130 H 306.946 0.21891 -0.626877 0
M  V30 3131 H 309.476 0.0531256 -2.04531 0
M  V30 3132 H 309.486 1.95952 -3.57864 0
M  V30 3133 H 308.161 0.911548 -4.05788 0
M  V30 3134 H 306.738 2.33597 -2.90666 0
M  V30 3135 N 308.923 1.53595 0.353017 0
M  V30 3136 C 310.148 1.7462 1.11904 0
M  V30 3137 C 310.573 0.479721 1.8188 0
M  V30 3138 O 309.931 -0.567066 1.72204 0
M  V30 3139 C 309.979 2.92029 2.11545 0
M  V30 3140 O 309.083 2.61516 3.18878 0
M  V30 3141 H 308.424 0.579531 0.324099 0
M  V30 3142 H 310.954 2.00525 0.406301 0
M  V30 3143 H 310.964 3.18551 2.5493 0
M  V30 3144 H 309.639 3.83888 1.60008 0
M  V30 3145 H 308.216 2.45852 2.80377 0
M  V30 3146 N 310.401 -0.613514 1.45168 0
M  V30 3147 C 311.311 -1.75296 1.55912 0
M  V30 3148 C 312.327 -1.68244 0.443856 0
M  V30 3149 O 313.503 -1.88706 0.70371 0
M  V30 3150 C 310.568 -3.1174 1.5172 0
M  V30 3151 C 309.629 -3.30291 2.74238 0
M  V30 3152 C 308.862 -4.60226 2.70236 0
M  V30 3153 O 309.085 -5.42168 1.77229 0
M  V30 3154 O 308.019 -4.81361 3.61352 0
M  V30 3155 H 311.845 -1.69183 2.52212 0
M  V30 3156 H 309.43 -0.776886 1.27612 0
M  V30 3157 H 311.312 -3.93044 1.51968 0
M  V30 3158 H 309.987 -3.18357 0.585697 0
M  V30 3159 H 308.894 -2.48598 2.79553 0
M  V30 3160 H 310.227 -3.28547 3.66494 0
M  V30 3161 N 311.879 -1.3236 -0.855495 0
M  V30 3162 C 313.127 -1.22629 -1.60644 0
M  V30 3163 C 313.448 0.212136 -1.93843 0
M  V30 3164 O 312.718 1.13666 -1.59552 0
M  V30 3165 H 311.298 -0.450882 -0.595579 0
M  V30 3166 H 313.96 -1.65871 -1.02337 0
M  V30 3167 H 313.056 -1.80832 -2.54374 0
M  V30 3168 N 313.357 1.07166 -1.15556 0
M  V30 3169 C 314.582 1.84053 -0.955988 0
M  V30 3170 C 315.007 1.81586 0.490739 0
M  V30 3171 O 314.365 1.21018 1.34997 0
M  V30 3172 C 314.413 3.28957 -1.47714 0
M  V30 3173 O 313.517 4.06795 -0.677593 0
M  V30 3174 H 312.858 0.569842 -0.340847 0
M  V30 3175 H 315.388 1.35178 -1.53584 0
M  V30 3176 H 315.398 3.79788 -1.4908 0
M  V30 3177 H 314.073 3.30068 -2.53037 0
M  V30 3178 H 312.65 3.6561 -0.733721 0
M  V30 3179 N 314.835 0.952656 1.25548 0
M  V30 3180 C 316.06 0.623025 1.97821 0
M  V30 3181 C 316.485 -0.7976 1.70352 0
M  V30 3182 O 315.843 -1.53905 0.958283 0
M  V30 3183 C 315.891 0.885532 3.49558 0
M  V30 3184 O 314.995 -0.0366641 4.12384 0
M  V30 3185 H 314.336 0.237082 0.620232 0
M  V30 3186 H 316.866 1.27871 1.59719 0
M  V30 3187 H 316.876 0.811009 3.99858 0
M  V30 3188 H 315.551 1.92094 3.6888 0
M  V30 3189 H 314.128 0.0898954 3.72792 0
M  V30 3190 N 316.313 -1.40141 0.720998 0
M  V30 3191 C 317.223 -2.34486 0.0731031 0
M  V30 3192 C 318.239 -1.57587 -0.737723 0
M  V30 3193 O 319.415 -1.89949 -0.669429 0
M  V30 3194 C 316.48 -3.36528 -0.833656 0
M  V30 3195 C 315.541 -4.29298 -0.0121673 0
M  V30 3196 C 314.774 -5.26466 -0.875742 0
M  V30 3197 O 314.997 -5.29745 -2.11485 0
M  V30 3198 O 313.931 -6.01092 -0.31185 0
M  V30 3199 H 317.757 -2.9152 0.851444 0
M  V30 3200 H 315.342 -1.41427 0.481527 0
M  V30 3201 H 317.224 -3.99093 -1.35289 0
M  V30 3202 H 315.899 -2.81899 -1.59105 0
M  V30 3203 H 314.806 -3.70001 0.552262 0
M  V30 3204 H 316.139 -4.87094 0.707129 0
M  V30 3205 N 317.792 -0.46758 -1.50504 0
M  V30 3206 C 318.74 0.342482 -2.30065 0
M  V30 3207 C 319.734 0.993596 -1.37201 0
M  V30 3208 O 320.94 0.925102 -1.54408 0
M  V30 3209 H 317.315 0.129283 -0.740803 0
M  V30 3210 H 319.286 -0.34899 -2.96352 0
M  V30 3211 C 318.035 1.4139 -3.17654 0
M  V30 3212 H 317.358 0.922264 -3.89017 0
M  V30 3213 H 318.798 1.95335 -3.76325 0
M  V30 3214 C 317.257 2.4139 -2.35016 0
M  V30 3215 O 317.787 3.46586 -2.03079 0
M  V30 3216 N 315.993 2.13021 -1.97662 0
M  V30 3217 H 315.54 1.27499 -2.23834 0
M  V30 3218 H 315.498 2.80164 -1.42673 0
M  V30 3219 N 319.27 1.56325 -0.20005 0
M  V30 3220 C 320.519 1.96895 0.437652 0
M  V30 3221 C 320.832 1.08999 1.62415 0
M  V30 3222 O 322.038 1.39372 2.32997 0
M  V30 3223 C 320.494 3.50198 0.830025 0
M  V30 3224 C 320.102 4.46765 -0.332461 0
M  V30 3225 C 321.846 3.99526 1.43453 0
M  V30 3226 C 319.753 5.91344 0.0811468 0
M  V30 3227 H 318.683 0.735209 0.167282 0
M  V30 3228 H 321.334 1.81148 -0.292853 0
M  V30 3229 H 319.716 3.61467 1.61734 0
M  V30 3230 H 320.89 4.47231 -1.11 0
M  V30 3231 H 319.205 4.07657 -0.848789 0
M  V30 3232 H 321.802 5.05025 1.75652 0
M  V30 3233 H 322.145 3.44122 2.34277 0
M  V30 3234 H 322.678 3.91393 0.71109 0
M  V30 3235 H 319.417 6.50685 -0.793033 0
M  V30 3236 H 318.937 5.94121 0.823445 0
M  V30 3237 H 320.616 6.44945 0.515252 0
M  V30 3238 N 320.748 -0.0735177 1.57428 0
M  V30 3239 C 321.698 -1.09442 2.00016 0
M  V30 3240 C 322.682 -1.34575 0.881947 0
M  V30 3241 O 323.874 -1.34905 1.14585 0
M  V30 3242 C 321.003 -2.40865 2.4462 0
M  V30 3243 C 320.089 -2.19014 3.63172 0
M  V30 3244 N 320.48 -1.67087 4.77405 0
M  V30 3245 C 318.778 -2.49494 3.69688 0
M  V30 3246 C 319.479 -1.6001 5.5926 0
M  V30 3247 N 318.455 -2.05999 5.03056 0
M  V30 3248 H 322.257 -0.686227 2.85776 0
M  V30 3249 H 319.771 -0.280617 1.59957 0
M  V30 3250 H 321.768 -3.14763 2.73368 0
M  V30 3251 H 320.428 -2.82403 1.60246 0
M  V30 3252 H 321.439 -1.35975 4.99731 0
M  V30 3253 H 318.116 -2.94409 2.96023 0
M  V30 3254 H 319.506 -1.2073 6.60964 0
M  V30 3255 N 322.226 -1.5378 -0.344866 0
M  V30 3256 C 323.158 -1.77988 -1.44406 0
M  V30 3257 C 324.171 -0.661138 -1.48771 0
M  V30 3258 O 325.36 -0.937842 -1.51877 0
M  V30 3259 C 322.46 -1.86345 -2.8307 0
M  V30 3260 C 321.633 -3.16256 -3.0216 0
M  V30 3261 C 320.692 -3.15588 -4.21059 0
M  V30 3262 O 319.718 -3.89314 -4.15239 0
M  V30 3263 N 320.92 -2.37864 -5.29529 0
M  V30 3264 H 323.685 -2.72839 -1.24012 0
M  V30 3265 H 321.246 -1.52814 -0.534737 0
M  V30 3266 H 323.238 -1.83351 -3.60783 0
M  V30 3267 H 321.808 -0.986858 -2.96614 0
M  V30 3268 H 321.028 -3.32385 -2.11929 0
M  V30 3269 H 322.316 -4.0207 -3.11797 0
M  V30 3270 H 321.714 -1.77514 -5.37127 0
M  V30 3271 H 320.271 -2.40668 -6.05741 0
M  V30 3272 N 323.704 0.605807 -1.45491 0
M  V30 3273 C 324.652 1.73754 -1.54636 0
M  V30 3274 C 325.646 1.64207 -0.416219 0
M  V30 3275 O 326.852 1.69979 -0.592199 0
M  V30 3276 H 323.227 0.574073 -0.485741 0
M  V30 3277 H 325.198 1.63169 -2.49837 0
M  V30 3278 C 323.947 3.12135 -1.53189 0
M  V30 3279 H 323.27 3.20141 -2.39478 0
M  V30 3280 H 324.71 3.91147 -1.63645 0
M  V30 3281 C 323.169 3.35921 -0.256616 0
M  V30 3282 O 323.699 3.96194 0.662798 0
M  V30 3283 N 321.905 2.90204 -0.151751 0
M  V30 3284 H 321.452 2.41336 -0.90081 0
M  V30 3285 H 321.41 3.06492 0.700699 0
M  V30 3286 N 325.182 1.32811 0.848464 0
M  V30 3287 C 326.407 1.26882 1.6406 0
M  V30 3288 C 326.832 -0.15913 1.87426 0
M  V30 3289 O 326.19 -1.11258 1.43148 0
M  V30 3290 C 326.238 2.03997 2.97351 0
M  V30 3291 O 325.342 1.39201 3.88197 0
M  V30 3292 H 324.683 0.436982 0.499943 0
M  V30 3293 H 327.213 1.75224 1.0563 0
M  V30 3294 H 327.223 2.14403 3.47124 0
M  V30 3295 H 325.898 3.0783 2.79666 0
M  V30 3296 H 324.475 1.37381 3.46671 0
M  V30 3297 O 326.699 -0.985968 1.2791 0
M  V30 3298 H 327.39 -1.60943 1.07783 0
M  V30 END ATOM
M  V30 BEGIN BOND
M  V30 END BOND
M  V30 END CTAB
M  END
$$$$
