33887
  -OEChem-10051719353D

 64 67  0     0  0  0  0  0  0999 V2000
   -6.0540   -4.1235    2.0313 F   0  0  0  0  0  0  0  0  0  0  0  0
   -5.4568    4.7230   -0.9762 F   0  0  0  0  0  0  0  0  0  0  0  0
   -1.5335   -0.1944   -0.0865 N   0  0  0  0  0  0  0  0  0  0  0  0
    1.3199   -0.0809   -0.1540 N   0  0  0  0  0  0  0  0  0  0  0  0
    3.3682   -1.1974   -0.2380 N   0  0  0  0  0  0  0  0  0  0  0  0
    3.2655    1.1601    0.1975 N   0  0  0  0  0  0  0  0  0  0  0  0
    5.3892    0.0463    0.1178 N   0  0  0  0  0  0  0  0  0  0  0  0
    5.4580   -2.2581   -0.3108 N   0  0  0  0  0  0  0  0  0  0  0  0
    5.2574    2.3490    0.5401 N   0  0  0  0  0  0  0  0  0  0  0  0
   -0.7503   -1.3943   -0.4067 C   0  0  0  0  0  0  0  0  0  0  0  0
   -0.8490    0.9996   -0.5971 C   0  0  0  0  0  0  0  0  0  0  0  0
   -2.8792   -0.2949   -0.6503 C   0  0  0  0  0  0  0  0  0  0  0  0
    0.6415   -1.3264    0.2262 C   0  0  0  0  0  0  0  0  0  0  0  0
    0.5402    1.1472    0.0284 C   0  0  0  0  0  0  0  0  0  0  0  0
   -3.7345   -1.3256    0.0718 C   0  0  0  0  0  0  0  0  0  0  0  0
   -3.5736    1.0562   -0.7380 C   0  0  0  0  0  0  0  0  0  0  0  0
    2.7155   -0.0374   -0.0605 C   0  0  0  0  0  0  0  0  0  0  0  0
   -4.7332   -2.0111   -0.6198 C   0  0  0  0  0  0  0  0  0  0  0  0
   -4.3440    1.5153    0.3305 C   0  0  0  0  0  0  0  0  0  0  0  0
   -3.5192   -1.5852    1.4252 C   0  0  0  0  0  0  0  0  0  0  0  0
   -3.4395    1.8358   -1.8868 C   0  0  0  0  0  0  0  0  0  0  0  0
   -5.5167   -2.9563    0.0421 C   0  0  0  0  0  0  0  0  0  0  0  0
   -4.9801    2.7540    0.2500 C   0  0  0  0  0  0  0  0  0  0  0  0
   -4.3028   -2.5305    2.0872 C   0  0  0  0  0  0  0  0  0  0  0  0
   -4.0756    3.0745   -1.9674 C   0  0  0  0  0  0  0  0  0  0  0  0
   -5.3016   -3.2159    1.3957 C   0  0  0  0  0  0  0  0  0  0  0  0
   -4.8459    3.5335   -0.8989 C   0  0  0  0  0  0  0  0  0  0  0  0
    4.7018   -1.0792   -0.1349 C   0  0  0  0  0  0  0  0  0  0  0  0
    4.6057    1.1257    0.2723 C   0  0  0  0  0  0  0  0  0  0  0  0
    4.8619   -3.5280   -0.5859 C   0  0  0  0  0  0  0  0  0  0  0  0
    4.5524    3.5785    0.7267 C   0  0  0  0  0  0  0  0  0  0  0  0
    5.9435   -4.5527   -0.7081 C   0  0  0  0  0  0  0  0  0  0  0  0
    5.5426    4.6682    0.9852 C   0  0  0  0  0  0  0  0  0  0  0  0
    6.1601   -5.2824   -1.8084 C   0  0  0  0  0  0  0  0  0  0  0  0
    5.5659    5.4070    2.1004 C   0  0  0  0  0  0  0  0  0  0  0  0
   -1.2327   -2.3060   -0.0377 H   0  0  0  0  0  0  0  0  0  0  0  0
   -0.6431   -1.5072   -1.4947 H   0  0  0  0  0  0  0  0  0  0  0  0
   -1.3578    1.9274   -0.3180 H   0  0  0  0  0  0  0  0  0  0  0  0
   -0.7416    0.9616   -1.6893 H   0  0  0  0  0  0  0  0  0  0  0  0
   -2.7872   -0.6538   -1.6882 H   0  0  0  0  0  0  0  0  0  0  0  0
    1.1933   -2.2126   -0.1089 H   0  0  0  0  0  0  0  0  0  0  0  0
    0.5653   -1.3800    1.3198 H   0  0  0  0  0  0  0  0  0  0  0  0
    0.4561    1.3721    1.0995 H   0  0  0  0  0  0  0  0  0  0  0  0
    1.0295    2.0018   -0.4554 H   0  0  0  0  0  0  0  0  0  0  0  0
   -4.9122   -1.8176   -1.6740 H   0  0  0  0  0  0  0  0  0  0  0  0
   -4.4578    0.9535    1.2511 H   0  0  0  0  0  0  0  0  0  0  0  0
   -2.7615   -1.0583    1.9984 H   0  0  0  0  0  0  0  0  0  0  0  0
   -2.8553    1.4891   -2.7349 H   0  0  0  0  0  0  0  0  0  0  0  0
   -6.2947   -3.4900   -0.4958 H   0  0  0  0  0  0  0  0  0  0  0  0
   -5.5760    3.1145    1.0832 H   0  0  0  0  0  0  0  0  0  0  0  0
   -4.1383   -2.7305    3.1418 H   0  0  0  0  0  0  0  0  0  0  0  0
   -3.9739    3.6804   -2.8627 H   0  0  0  0  0  0  0  0  0  0  0  0
    6.4643   -2.1588   -0.2343 H   0  0  0  0  0  0  0  0  0  0  0  0
    6.2692    2.3128    0.5974 H   0  0  0  0  0  0  0  0  0  0  0  0
    4.2652   -3.4803   -1.5047 H   0  0  0  0  0  0  0  0  0  0  0  0
    4.1941   -3.8236    0.2318 H   0  0  0  0  0  0  0  0  0  0  0  0
    3.8434    3.4913    1.5587 H   0  0  0  0  0  0  0  0  0  0  0  0
    3.9817    3.8341   -0.1737 H   0  0  0  0  0  0  0  0  0  0  0  0
    6.5771   -4.7226    0.1591 H   0  0  0  0  0  0  0  0  0  0  0  0
    6.2737    4.8797    0.2085 H   0  0  0  0  0  0  0  0  0  0  0  0
    6.9569   -6.0178   -1.8315 H   0  0  0  0  0  0  0  0  0  0  0  0
    5.5534   -5.1611   -2.6989 H   0  0  0  0  0  0  0  0  0  0  0  0
    4.8553    5.2458    2.9034 H   0  0  0  0  0  0  0  0  0  0  0  0
    6.3054    6.1905    2.2245 H   0  0  0  0  0  0  0  0  0  0  0  0
  1 26  1  0  0  0  0
  2 27  1  0  0  0  0
  3 10  1  0  0  0  0
  3 11  1  0  0  0  0
  3 12  1  0  0  0  0
  4 13  1  0  0  0  0
  4 14  1  0  0  0  0
  4 17  1  0  0  0  0
  5 17  2  0  0  0  0
  5 28  1  0  0  0  0
  6 17  1  0  0  0  0
  6 29  2  0  0  0  0
  7 28  2  0  0  0  0
  7 29  1  0  0  0  0
  8 28  1  0  0  0  0
  8 30  1  0  0  0  0
  8 53  1  0  0  0  0
  9 29  1  0  0  0  0
  9 31  1  0  0  0  0
  9 54  1  0  0  0  0
 10 13  1  0  0  0  0
 10 36  1  0  0  0  0
 10 37  1  0  0  0  0
 11 14  1  0  0  0  0
 11 38  1  0  0  0  0
 11 39  1  0  0  0  0
 12 15  1  0  0  0  0
 12 16  1  0  0  0  0
 12 40  1  0  0  0  0
 13 41  1  0  0  0  0
 13 42  1  0  0  0  0
 14 43  1  0  0  0  0
 14 44  1  0  0  0  0
 15 18  2  0  0  0  0
 15 20  1  0  0  0  0
 16 19  2  0  0  0  0
 16 21  1  0  0  0  0
 18 22  1  0  0  0  0
 18 45  1  0  0  0  0
 19 23  1  0  0  0  0
 19 46  1  0  0  0  0
 20 24  2  0  0  0  0
 20 47  1  0  0  0  0
 21 25  2  0  0  0  0
 21 48  1  0  0  0  0
 22 26  2  0  0  0  0
 22 49  1  0  0  0  0
 23 27  2  0  0  0  0
 23 50  1  0  0  0  0
 24 26  1  0  0  0  0
 24 51  1  0  0  0  0
 25 27  1  0  0  0  0
 25 52  1  0  0  0  0
 30 32  1  0  0  0  0
 30 55  1  0  0  0  0
 30 56  1  0  0  0  0
 31 33  1  0  0  0  0
 31 57  1  0  0  0  0
 31 58  1  0  0  0  0
 32 34  2  0  0  0  0
 32 59  1  0  0  0  0
 33 35  2  0  0  0  0
 33 60  1  0  0  0  0
 34 61  1  0  0  0  0
 34 62  1  0  0  0  0
 35 63  1  0  0  0  0
 35 64  1  0  0  0  0
M  END
> <DATABASE_ID>
DB01430

> <DATABASE_NAME>
drugbank

> <ORIGINAL_SOURCE>
PUBCHEM

> <ORIGINAL_SOURCE_URL>
https://pubchem.ncbi.nlm.nih.gov/rest/pug/compound/inchikey/OBDOVFRMEYHSQB-UHFFFAOYSA-N/SDF?record_type=3d

> <SMILES>
FC1=CC=C(C=C1)C(N1CCN(CC1)C1=NC(NCC=C)=NC(NCC=C)=N1)C1=CC=C(F)C=C1

> <INCHI_IDENTIFIER>
InChI=1S/C26H29F2N7/c1-3-13-29-24-31-25(30-14-4-2)33-26(32-24)35-17-15-34(16-18-35)23(19-5-9-21(27)10-6-19)20-7-11-22(28)12-8-20/h3-12,23H,1-2,13-18H2,(H2,29,30,31,32,33)

> <INCHI_KEY>
OBDOVFRMEYHSQB-UHFFFAOYSA-N

> <FORMULA>
C26H29F2N7

> <MOLECULAR_WEIGHT>
477.5522

> <EXACT_MASS>
477.245250373

> <JCHEM_ACCEPTOR_COUNT>
7

> <JCHEM_AVERAGE_POLARIZABILITY>
51.11810844586185

> <JCHEM_BIOAVAILABILITY>
1

> <JCHEM_DONOR_COUNT>
2

> <JCHEM_FORMAL_CHARGE>
0

> <JCHEM_GHOSE_FILTER>
0

> <JCHEM_IUPAC>
6-{4-[bis(4-fluorophenyl)methyl]piperazin-1-yl}-N2,N4-bis(prop-2-en-1-yl)-1,3,5-triazine-2,4-diamine

> <ALOGPS_LOGP>
4.90

> <JCHEM_LOGP>
6.049426599333333

> <ALOGPS_LOGS>
-4.52

> <JCHEM_MDDR_LIKE_RULE>
1

> <JCHEM_NUMBER_OF_RINGS>
4

> <JCHEM_PHYSIOLOGICAL_CHARGE>
1

> <JCHEM_PKA>
15.470427450461393

> <JCHEM_PKA_STRONGEST_ACIDIC>
14.271289183992575

> <JCHEM_PKA_STRONGEST_BASIC>
7.49438698925879

> <JCHEM_POLAR_SURFACE_AREA>
69.21000000000001

> <JCHEM_REFRACTIVITY>
140.8795

> <JCHEM_ROTATABLE_BOND_COUNT>
10

> <JCHEM_RULE_OF_FIVE>
0

> <ALOGPS_SOLUBILITY>
1.44e-02 g/l

> <JCHEM_TRADITIONAL_IUPAC>
almitrine

> <JCHEM_VEBER_RULE>
0

> <DRUGBANK_ID>
DB01430

> <DRUG_GROUPS>
approved

> <GENERIC_NAME>
Almitrine

> <SYNONYMS>
2,4-Bis(allylamino)-6-(4-(bis(p-fluorophenyl)methyl)-1-piperazinyl)-s-triazine; Almitrina; Almitrine; Almitrinum

> <INTERNATIONAL_BRANDS>
Duxil; Vectarion

> <SALTS>
Almitrine mesylate

$$$$