drugbank_target|Q96Q40 Cyclin-dependent kinase 15 (DB00171; DB06486; DB12010)
 OpenBabel12092119323D

  0  0  0     0  0            999 V3000
M  V30 BEGIN CTAB
M  V30 COUNTS 6853 6948 0 0 0
M  V30 BEGIN ATOM
M  V30 1 H -0.908 1.98254 -0.117106 0
M  V30 2 N 0 1.576 0 0
M  V30 3 C 0.933 2.03868 1.02534 0
M  V30 4 C 1.911 0.928543 1.3348 0
M  V30 5 O 3.095 1.19667 1.45644 0
M  V30 6 C 0.222 2.43627 2.35294 0
M  V30 7 C -0.732 3.65373 2.2001 0
M  V30 8 S 0.101 5.13292 1.52614 0
M  V30 9 C 1.257 5.56322 2.86805 0
M  V30 10 H 1.49 2.90518 0.631377 0
M  V30 11 H -0.977 1.52953 0.210867 0
M  V30 12 H 0.981 2.67203 3.11629 0
M  V30 13 H -0.358 1.57376 2.7183 0
M  V30 14 H -1.165 3.90944 3.18086 0
M  V30 15 H -1.563 3.418 1.51819 0
M  V30 16 H 0.729 5.58782 3.83104 0
M  V30 17 H 1.672 6.56266 2.65933 0
M  V30 18 H 2.08 4.83886 2.90714 0
M  V30 19 N 1.4781 -0.272755 1.55222 0
M  V30 20 C 2.7261 -1.00234 1.75492 0
M  V30 21 C 3.0471 -1.8681 0.5592 0
M  V30 22 O 2.3171 -1.91215 -0.425882 0
M  V30 23 H 0.8971 -0.373076 0.647166 0
M  V30 24 H 3.5591 -0.296926 1.92625 0
M  V30 25 H 2.6551 -1.63913 2.65592 0
M  V30 26 N 2.9562 -1.48159 -0.537278 0
M  V30 27 C 3.8882 -1.58218 -1.65831 0
M  V30 28 C 4.9012 -0.466948 -1.5596 0
M  V30 29 O 6.0902 -0.73747 -1.62553 0
M  V30 30 C 3.1902 -1.48906 -3.04434 0
M  V30 31 C 2.3632 -2.75343 -3.3986 0
M  V30 32 C 1.4222 -2.59588 -4.57712 0
M  V30 33 O 0.4482 -3.33457 -4.61297 0
M  V30 34 N 1.6502 -1.68724 -5.55439 0
M  V30 35 H 4.4152 -2.54891 -1.57641 0
M  V30 36 H 1.9762 -1.4479 -0.724386 0
M  V30 37 H 3.9682 -1.36072 -3.81139 0
M  V30 38 H 2.5382 -0.602368 -3.06741 0
M  V30 39 H 1.7582 -3.02795 -2.52406 0
M  V30 40 H 3.0462 -3.5924 -3.60311 0
M  V30 41 H 2.4442 -1.07898 -5.55315 0
M  V30 42 H 1.0012 -1.61832 -6.3139 0
M  V30 43 N 4.4343 0.785586 -1.36625 0
M  V30 44 C 5.3443 1.92964 -1.33425 0
M  V30 45 C 6.3603 1.72394 -0.235851 0
M  V30 46 O 7.5363 1.95866 -0.468878 0
M  V30 47 C 4.6013 3.27884 -1.12662 0
M  V30 48 C 3.6623 3.61204 -2.32013 0
M  V30 49 C 2.8953 4.89687 -2.12231 0
M  V30 50 O 3.1183 5.59704 -1.09945 0
M  V30 51 O 2.0523 5.21752 -3.00098 0
M  V30 52 H 5.8783 1.98613 -2.29753 0
M  V30 53 H 3.4633 0.926384 -1.17211 0
M  V30 54 H 5.3453 4.08614 -1.03016 0
M  V30 55 H 4.0203 3.23118 -0.193991 0
M  V30 56 H 2.9273 2.80765 -2.47228 0
M  V30 57 H 4.2603 3.70698 -3.23796 0
M  V30 58 N 5.9124 1.20967 1.01018 0
M  V30 59 C 6.8424 0.988272 2.11555 0
M  V30 60 C 7.8234 -0.0849778 1.69888 0
M  V30 61 O 9.0084 0.0738202 1.9406 0
M  V30 62 C 6.1384 0.546528 3.42973 0
M  V30 63 C 5.0924 1.56375 3.9841 0
M  V30 64 C 4.4184 0.97842 5.25672 0
M  V30 65 C 5.7184 2.94922 4.31066 0
M  V30 66 H 7.4124 1.91276 2.30334 0
M  V30 67 H 4.9584 0.921073 1.1069 0
M  V30 68 H 6.9114 0.378839 4.19694 0
M  V30 69 H 5.6354 -0.413598 3.23971 0
M  V30 70 H 4.2944 1.71891 3.23804 0
M  V30 71 H 3.9424 0.0101688 5.02999 0
M  V30 72 H 3.6424 1.65784 5.63728 0
M  V30 73 H 5.1664 0.821939 6.05043 0
M  V30 74 H 6.5804 2.8288 4.9865 0
M  V30 75 H 4.9774 3.5983 4.80253 0
M  V30 76 H 6.0474 3.4616 3.39561 0
M  V30 77 N 7.3905 -1.2043 1.01659 0
M  V30 78 C 8.6305 -1.91507 0.714456 0
M  V30 79 C 8.9945 -1.77073 -0.742237 0
M  V30 80 O 10.1955 -2.42631 -1.15688 0
M  V30 81 C 8.4665 -3.38795 1.13809 0
M  V30 82 S 10.0255 -4.28216 0.957925 0
M  V30 83 H 6.8435 -0.661571 0.260471 0
M  V30 84 H 9.4455 -1.45671 1.30384 0
M  V30 85 H 8.1495 -3.46822 2.19415 0
M  V30 86 H 7.6805 -3.89656 0.541474 0
M  V30 87 H 9.6955 -4.96007 -0.138531 0
M  V30 88 N 8.8686 -0.792821 -1.36206 0
M  V30 89 C 9.8316 -0.199459 -2.2833 0
M  V30 90 C 10.8316 0.605189 -1.48977 0
M  V30 91 O 12.0216 0.425685 -1.68919 0
M  V30 92 C 9.1536 0.723523 -3.33134 0
M  V30 93 H 10.3466 -1.01181 -2.82316 0
M  V30 94 H 7.8996 -0.562485 -1.45828 0
M  V30 95 H 8.6346 1.56008 -2.84309 0
M  V30 96 H 8.4196 0.148436 -3.91819 0
M  V30 97 H 9.9096 1.13344 -4.01924 0
M  V30 98 N 10.3467 1.47872 -0.545128 0
M  V30 99 C 11.2937 2.29849 0.2093 0
M  V30 100 C 12.2637 1.38313 0.919707 0
M  V30 101 O 13.4487 1.67277 0.917772 0
M  V30 102 C 10.5887 3.22019 1.24088 0
M  V30 103 C 9.7017 4.2864 0.537778 0
M  V30 104 C 8.8367 5.07973 1.5536 0
M  V30 105 C 7.8757 6.06381 0.8348 0
M  V30 106 N 7.0127 6.78717 1.79688 0
M  V30 107 H 11.8527 2.93845 -0.49591 0
M  V30 108 H 9.3897 1.44848 -0.256389 0
M  V30 109 H 11.3477 3.73868 1.85144 0
M  V30 110 H 9.9777 2.59914 1.91428 0
M  V30 111 H 9.0297 3.7994 -0.187046 0
M  V30 112 H 10.3417 4.98793 -0.0258907 0
M  V30 113 H 9.4957 5.63912 2.23803 0
M  V30 114 H 8.2347 4.37693 2.15118 0
M  V30 115 H 7.2397 5.49631 0.136388 0
M  V30 116 H 8.4647 6.78665 0.24313 0
M  V30 117 H 6.4107 6.11177 2.38326 0
M  V30 118 H 6.3277 7.44998 1.28505 0
M  V30 119 H 7.5957 7.39237 2.47282 0
M  V30 120 N 11.8248 0.280983 1.55075 0
M  V30 121 C 13.0528 -0.337293 2.04132 0
M  V30 122 C 13.4678 -1.4903 1.15912 0
M  V30 123 O 12.8248 -1.81606 0.180459 0
M  V30 124 C 12.8758 -0.812706 3.52246 0
M  V30 125 O 12.5968 0.294387 4.3711 0
M  V30 126 C 14.0978 -1.4982 4.17216 0
M  V30 127 H 11.3178 -0.0761638 0.666663 0
M  V30 128 H 13.8618 0.414787 2.00249 0
M  V30 129 H 12.0168 -1.51486 3.56554 0
M  V30 130 H 12.4308 -0.0721325 5.2445 0
M  V30 131 H 13.9048 -1.7822 5.22438 0
M  V30 132 H 14.3818 -2.43168 3.65741 0
M  V30 133 H 14.9878 -0.839742 4.16927 0
M  V30 134 N 13.3029 -1.57598 0.00835791 0
M  V30 135 C 14.5489 -1.91211 -0.675732 0
M  V30 136 C 14.8819 -0.883139 -1.72958 0
M  V30 137 O 14.1569 0.097016 -1.94258 0
M  V30 138 C 14.4399 -3.35379 -1.31123 0
M  V30 139 C 14.2929 -4.48999 -0.268356 0
M  V30 140 C 15.6119 -3.7912 -2.23508 0
M  V30 141 H 12.7309 -0.695374 -0.244179 0
M  V30 142 H 15.3729 -1.89901 0.0613655 0
M  V30 143 H 13.5229 -3.36626 -1.93946 0
M  V30 144 H 15.1949 -4.59887 0.360844 0
M  V30 145 H 13.4379 -4.31873 0.408482 0
M  V30 146 H 14.1089 -5.46851 -0.752218 0
M  V30 147 H 16.5849 -3.79477 -1.70693 0
M  V30 148 H 15.4609 -4.80729 -2.64936 0
M  V30 149 H 15.7219 -3.13455 -3.11766 0
M  V30 150 N 14.781 0.264519 -1.55364 0
M  V30 151 C 15.713 1.34965 -1.85248 0
M  V30 152 C 16.726 1.45136 -0.737525 0
M  V30 153 O 17.915 1.46801 -1.01547 0
M  V30 154 C 15.015 2.73008 -2.00797 0
M  V30 155 C 14.188 2.85324 -3.31525 0
M  V30 156 C 13.247 4.04097 -3.37034 0
M  V30 157 O 12.273 3.94455 -4.10358 0
M  V30 158 N 13.475 5.16458 -2.65049 0
M  V30 159 H 16.24 1.09672 -2.78913 0
M  V30 160 H 13.801 0.454635 -1.55386 0
M  V30 161 H 15.793 3.50772 -2.01844 0
M  V30 162 H 14.363 2.91087 -1.1396 0
M  V30 163 H 13.583 1.94377 -3.42945 0
M  V30 164 H 14.871 2.9049 -4.17724 0
M  V30 165 H 14.269 5.27181 -2.05175 0
M  V30 166 H 12.826 5.92422 -2.71809 0
M  V30 167 N 16.2591 1.48442 0.529413 0
M  V30 168 C 17.6701 1.5002 1.11134 0
M  V30 169 C 18.0211 0.27031 1.94329 0
M  V30 170 O 17.1461 -0.622507 2.07253 0
M  V30 171 C 17.7411 2.71834 2.02217 0
M  V30 172 C 16.3001 2.76283 2.55627 0
M  V30 173 C 15.4471 2.43542 1.326 0
M  V30 174 H 18.3981 1.5555 0.314641 0
M  V30 175 H 18.4191 2.50384 2.8651 0
M  V30 176 H 17.9311 3.61331 1.41639 0
M  V30 177 H 16.0321 1.90995 3.19924 0
M  V30 178 H 16.1451 3.77725 2.94721 0
M  V30 179 H 14.5091 1.94709 1.64196 0
M  V30 180 H 15.2921 3.3528 0.737734 0
M  V30 181 N 17.7372 -0.778329 1.37039 0
M  V30 182 C 18.9852 -1.53361 1.31623 0
M  V30 183 C 19.3062 -1.94739 -0.100831 0
M  V30 184 O 18.5762 -1.65797 -1.04347 0
M  V30 185 H 17.1562 -0.568794 0.484234 0
M  V30 186 H 19.8182 -0.926742 1.71457 0
M  V30 187 H 18.9142 -2.43606 1.95096 0
M  V30 188 N 19.2153 -1.21501 -1.00376 0
M  V30 189 C 20.4553 -1.04444 -1.75701 0
M  V30 190 C 20.8193 0.414644 -1.87469 0
M  V30 191 O 22.0203 0.705763 -2.59369 0
M  V30 192 C 20.2913 -1.72389 -3.13077 0
M  V30 193 S 21.8503 -1.70604 -4.04277 0
M  V30 194 H 18.6683 -0.374249 -0.604532 0
M  V30 195 H 21.2703 -1.54267 -1.20091 0
M  V30 196 H 19.9743 -2.77734 -3.02146 0
M  V30 197 H 19.5053 -1.22751 -3.73759 0
M  V30 198 H 21.5203 -0.748012 -4.9053 0
M  V30 199 N 20.6934 1.19889 -1.02296 0
M  V30 200 C 21.9184 1.9393 -0.735237 0
M  V30 201 C 22.3434 1.74639 0.698782 0
M  V30 202 O 21.7014 1.04481 1.48167 0
M  V30 203 C 21.7494 3.43916 -1.08417 0
M  V30 204 O 20.8534 4.11917 -0.199446 0
M  V30 205 H 20.1944 0.605645 -0.272196 0
M  V30 206 H 22.7244 1.52137 -1.36804 0
M  V30 207 H 22.7344 3.9456 -1.03856 0
M  V30 208 H 21.4094 3.5728 -2.12894 0
M  V30 209 H 19.9864 3.71666 -0.303136 0
M  V30 210 N 22.1715 0.800033 1.35784 0
M  V30 211 C 23.4115 0.382891 2.00782 0
M  V30 212 C 23.7755 -1.02891 1.62103 0
M  V30 213 O 24.9765 -1.54771 2.19771 0
M  V30 214 C 23.2475 0.553299 3.53091 0
M  V30 215 S 24.8065 0.225608 4.3822 0
M  V30 216 H 21.6245 0.145737 0.695904 0
M  V30 217 H 24.2265 1.04085 1.65489 0
M  V30 218 H 22.9305 1.58091 3.78729 0
M  V30 219 H 22.4615 -0.120214 3.93216 0
M  V30 220 H 24.4765 -0.969074 4.86645 0
M  V30 221 N 23.6496 -1.47581 0.552962 0
M  V30 222 C 24.8796 -2.06575 0.0320091 0
M  V30 223 C 25.2876 -1.4067 -1.26525 0
M  V30 224 O 24.6306 -0.495808 -1.76883 0
M  V30 225 C 24.6926 -3.58705 -0.238913 0
M  V30 226 C 24.3566 -4.46625 0.968272 0
M  V30 227 C 25.3536 -4.85 1.87274 0
M  V30 228 C 23.0386 -4.88201 1.18175 0
M  V30 229 C 25.0326 -5.63745 2.9744 0
M  V30 230 C 22.7196 -5.66712 2.28651 0
M  V30 231 C 23.7176 -6.04394 3.18114 0
M  V30 232 O 23.4056 -6.81324 4.26676 0
M  V30 233 H 23.1376 -0.674763 0.0408689 0
M  V30 234 H 25.6916 -1.90634 0.764719 0
M  V30 235 H 23.9216 -3.72844 -1.02588 0
M  V30 236 H 25.6106 -3.99735 -0.704731 0
M  V30 237 H 26.3766 -4.53482 1.71984 0
M  V30 238 H 22.2556 -4.58339 0.494593 0
M  V30 239 H 25.7996 -5.93077 3.67296 0
M  V30 240 H 21.6966 -5.97642 2.43915 0
M  V30 241 H 22.4646 -6.99712 4.24671 0
M  V30 242 N 25.1277 -0.289203 -1.54924 0
M  V30 243 C 26.0777 0.606939 -2.19773 0
M  V30 244 C 27.0617 1.10783 -1.16687 0
M  V30 245 O 28.2537 1.05057 -1.4245 0
M  V30 246 C 25.3827 1.78398 -2.93307 0
M  V30 247 C 24.4687 1.29961 -4.03697 0
M  V30 248 N 24.8597 0.532377 -5.0299 0
M  V30 249 C 23.1577 1.58136 -4.17024 0
M  V30 250 C 23.8587 0.275912 -5.81045 0
M  V30 251 N 22.8347 0.852365 -5.36876 0
M  V30 252 H 26.6367 0.0130779 -2.93897 0
M  V30 253 H 24.1507 -0.09341 -1.62131 0
M  V30 254 H 26.1477 2.43741 -3.38225 0
M  V30 255 H 24.8077 2.38166 -2.20697 0
M  V30 256 H 25.8187 0.17838 -5.17593 0
M  V30 257 H 22.4957 2.18738 -3.55612 0
M  V30 258 H 23.8857 -0.339502 -6.71042 0
M  V30 259 N 26.6058 1.57591 -0.0167156 0
M  V30 260 C 27.8458 1.93145 0.668902 0
M  V30 261 C 28.2098 0.892406 1.7 0
M  V30 262 O 29.4108 1.13373 2.43721 0
M  V30 263 C 27.6818 3.33678 1.28039 0
M  V30 264 S 29.2408 3.91142 1.9888 0
M  V30 265 H 26.0588 0.67593 0.220545 0
M  V30 266 H 28.6608 1.95347 -0.0774105 0
M  V30 267 H 27.3648 4.07126 0.517339 0
M  V30 268 H 26.8958 3.3489 2.06427 0
M  V30 269 H 28.9108 3.73571 3.26587 0
M  V30 270 N 28.0839 -0.256276 1.55502 0
M  V30 271 C 29.3089 -1.00766 1.81276 0
M  V30 272 C 29.7339 -1.78524 0.59252 0
M  V30 273 O 29.0919 -1.75413 -0.45827 0
M  V30 274 C 29.1399 -1.92869 3.04687 0
M  V30 275 O 28.2439 -3.019 2.80945 0
M  V30 276 H 27.5849 -0.287224 0.598664 0
M  V30 277 H 30.1149 -0.280109 2.02674 0
M  V30 278 H 30.1249 -2.34511 3.33869 0
M  V30 279 H 28.7999 -1.35689 3.93143 0
M  V30 280 H 27.3769 -2.64454 2.62904 0
M  V30 281 N 29.562 -1.4872 -0.521534 0
M  V30 282 C 30.472 -1.66569 -1.65203 0
M  V30 283 C 31.488 -0.548197 -1.65139 0
M  V30 284 O 32.664 -0.820339 -1.83936 0
M  V30 285 C 29.729 -1.70917 -3.01642 0
M  V30 286 C 28.79 -2.94356 -3.12495 0
M  V30 287 C 28.023 -2.98487 -4.42426 0
M  V30 288 O 28.246 -2.10786 -5.30024 0
M  V30 289 O 27.18 -3.90746 -4.57822 0
M  V30 290 H 31.006 -2.62298 -1.5308 0
M  V30 291 H 28.591 -1.3222 -0.695565 0
M  V30 292 H 30.473 -1.7625 -3.82771 0
M  V30 293 H 29.148 -0.783633 -3.14071 0
M  V30 294 H 28.055 -2.94552 -2.3063 0
M  V30 295 H 29.388 -3.86322 -3.04986 0
M  V30 296 N 31.0401 0.771051 -1.3745 0
M  V30 297 C 32.2881 1.52661 -1.32435 0
M  V30 298 C 32.6091 1.9479 0.0905024 0
M  V30 299 O 31.8791 1.66348 1.03466 0
M  V30 300 H 30.4591 0.566218 -0.487244 0
M  V30 301 H 33.1211 0.917636 -1.71946 0
M  V30 302 H 32.2171 2.42568 -1.96385 0
M  V30 303 N 32.5182 1.22032 0.997298 0
M  V30 304 C 33.7662 1.04016 1.73278 0
M  V30 305 C 34.0872 -0.426255 1.90284 0
M  V30 306 O 33.3572 -1.30694 1.45931 0
M  V30 307 H 31.9372 0.381897 0.642 0
M  V30 308 H 34.5992 1.5347 1.20137 0
M  V30 309 H 33.6952 1.51441 2.72896 0
M  V30 310 N 33.9963 -1.19345 1.0293 0
M  V30 311 C 34.9063 -2.26245 0.620515 0
M  V30 312 C 35.9223 -1.70486 -0.347928 0
M  V30 313 O 37.0983 -2.00347 -0.205704 0
M  V30 314 C 34.1633 -3.46693 -0.0218957 0
M  V30 315 C 33.2243 -4.17632 0.994102 0
M  V30 316 C 32.4573 -5.32329 0.382253 0
M  V30 317 O 32.6803 -5.64552 -0.814676 0
M  V30 318 O 31.6143 -5.91664 1.10531 0
M  V30 319 H 35.4403 -2.63453 1.51083 0
M  V30 320 H 33.0253 -1.26207 0.799513 0
M  V30 321 H 34.9073 -4.19683 -0.380072 0
M  V30 322 H 33.5823 -3.11333 -0.886209 0
M  V30 323 H 32.4893 -3.4676 1.40387 0
M  V30 324 H 33.8223 -4.56964 1.8288 0
M  V30 325 N 35.4744 -0.807222 -1.35358 0
M  V30 326 C 36.4374 -0.223665 -2.28106 0
M  V30 327 C 37.4374 0.589354 -1.4961 0
M  V30 328 O 38.6274 0.407745 -1.69361 0
M  V30 329 C 35.7594 0.688149 -3.33882 0
M  V30 330 H 36.9524 -1.04169 -2.81227 0
M  V30 331 H 34.5054 -0.577921 -1.45223 0
M  V30 332 H 35.2404 1.52984 -2.85948 0
M  V30 333 H 35.0254 0.10687 -3.91954 0
M  V30 334 H 36.5154 1.09075 -4.03104 0
M  V30 335 N 36.9525 1.47285 -0.560781 0
M  V30 336 C 37.9025 2.27073 0.205384 0
M  V30 337 C 38.8865 1.34569 0.882044 0
M  V30 338 O 40.0785 1.58899 0.77976 0
M  V30 339 C 37.2075 3.20414 1.23247 0
M  V30 340 C 36.2935 4.20399 0.559041 0
M  V30 341 N 36.6845 5.04423 -0.372927 0
M  V30 342 C 34.9825 4.38536 0.812522 0
M  V30 343 C 35.6835 5.76655 -0.764446 0
M  V30 344 N 34.6595 5.43471 -0.11848 0
M  V30 345 H 38.4615 2.89422 -0.511117 0
M  V30 346 H 35.9755 1.57868 -0.380975 0
M  V30 347 H 37.9725 3.76262 1.79534 0
M  V30 348 H 36.6325 2.59623 1.95002 0
M  V30 349 H 37.6435 5.1248 -0.747287 0
M  V30 350 H 34.3205 3.88913 1.51832 0
M  V30 351 H 35.7105 6.54238 -1.53045 0
M  V30 352 N 38.4306 0.297415 1.54768 0
M  V30 353 C 39.6556 -0.318435 2.04941 0
M  V30 354 C 40.0806 -1.4701 1.17345 0
M  V30 355 O 39.4386 -1.80436 0.176758 0
M  V30 356 C 39.4866 -0.755749 3.52592 0
M  V30 357 O 38.5906 -1.86088 3.68028 0
M  V30 358 H 37.9316 -0.062421 0.661059 0
M  V30 359 H 40.4616 0.438215 1.99852 0
M  V30 360 H 40.4716 -1.04552 3.94376 0
M  V30 361 H 39.1466 0.0867233 4.1581 0
M  V30 362 H 37.7236 -1.57193 3.38149 0
M  V30 363 N 39.9087 -1.5758 0.0250728 0
M  V30 364 C 41.1487 -1.93497 -0.65865 0
M  V30 365 C 41.5127 -0.901409 -1.69525 0
M  V30 366 O 42.7137 -1.14664 -2.43116 0
M  V30 367 C 40.9847 -3.34352 -1.26267 0
M  V30 368 S 42.5437 -3.92191 -1.96803 0
M  V30 369 H 39.3617 -0.67709 -0.216958 0
M  V30 370 H 41.9637 -1.95303 0.0877692 0
M  V30 371 H 40.6677 -4.07395 -0.495741 0
M  V30 372 H 40.1987 -3.3598 -2.04648 0
M  V30 373 H 42.2137 -3.75298 -3.24601 0
M  V30 374 N 41.3868 0.248026 -1.55636 0
M  V30 375 C 42.8028 0.596483 -1.48035 0
M  V30 376 C 43.0028 1.88386 -0.715039 0
M  V30 377 O 42.0588 2.51319 -0.243944 0
M  V30 378 C 43.3718 0.700258 -2.92433 0
M  V30 379 C 44.9198 0.792659 -3.02797 0
M  V30 380 C 45.3948 0.928005 -4.485 0
M  V30 381 N 46.8858 0.992903 -4.52433 0
M  V30 382 C 47.6208 1.11687 -5.62418 0
M  V30 383 N 47.1168 1.20645 -6.82214 0
M  V30 384 N 48.9098 1.14994 -5.50212 0
M  V30 385 H 41.0608 -0.597109 -2.03834 0
M  V30 386 H 43.3238 -0.205925 -0.925364 0
M  V30 387 H 43.0298 -0.175658 -3.51261 0
M  V30 388 H 42.9038 1.57255 -3.42857 0
M  V30 389 H 45.2908 1.65903 -2.4405 0
M  V30 390 H 45.3718 -0.104762 -2.55585 0
M  V30 391 H 45.0158 0.0661971 -5.07857 0
M  V30 392 H 44.9458 1.84045 -4.93391 0
M  V30 393 H 47.4368 0.935064 -3.66149 0
M  V30 394 H 47.7498 1.30008 -7.61786 0
M  V30 395 H 46.0948 1.17605 -6.84977 0
M  V30 396 H 49.2858 1.07643 -4.55555 0
M  V30 397 H 49.4588 1.24311 -6.35965 0
M  V30 398 N 42.8649 1.48995 0.513639 0
M  V30 399 C 44.2809 1.35478 0.843682 0
M  V30 400 C 44.4809 0.378213 1.97919 0
M  V30 401 O 43.5369 -0.194689 2.51748 0
M  V30 402 C 44.8499 2.75901 1.1958 0
M  V30 403 C 46.3979 2.84509 1.30474 0
M  V30 404 C 46.8729 4.25671 1.69021 0
M  V30 405 N 48.3639 4.28422 1.76094 0
M  V30 406 C 49.0989 5.34601 2.07338 0
M  V30 407 N 48.5949 6.5104 2.36894 0
M  V30 408 N 50.3879 5.22007 2.08483 0
M  V30 409 H 42.5389 2.11092 -0.235328 0
M  V30 410 H 44.8019 0.947039 -0.0426669 0
M  V30 411 H 44.5079 3.49001 0.434913 0
M  V30 412 H 44.3819 3.10467 2.1422 0
M  V30 413 H 46.7689 2.11655 2.05637 0
M  V30 414 H 46.8499 2.53542 0.339155 0
M  V30 415 H 46.4939 4.99048 0.944135 0
M  V30 416 H 46.4239 4.54094 2.66658 0
M  V30 417 H 48.9149 3.44441 1.55464 0
M  V30 418 H 49.2279 7.2779 2.59887 0
M  V30 419 H 47.5729 6.54287 2.34378 0
M  V30 420 H 50.7639 4.30051 1.84861 0
M  V30 421 H 50.9369 6.04854 2.325 0
M  V30 422 N 44.343 -0.763751 1.37857 0
M  V30 423 C 45.568 -1.55805 1.36893 0
M  V30 424 C 45.993 -1.88054 -0.0416135 0
M  V30 425 O 45.351 -1.49825 -1.02089 0
M  V30 426 C 45.399 -2.84012 2.22192 0
M  V30 427 O 44.503 -3.78732 1.63204 0
M  V30 428 H 43.844 -0.471638 0.46739 0
M  V30 429 H 46.374 -0.944657 1.81487 0
M  V30 430 H 46.384 -3.33037 2.35691 0
M  V30 431 H 45.059 -2.59869 3.24716 0
M  V30 432 H 43.636 -3.37402 1.58791 0
M  V30 433 N 45.8211 -1.22559 -0.990812 0
M  V30 434 C 46.7531 -0.955325 -2.08342 0
M  V30 435 C 47.7661 0.0668408 -1.62663 0
M  V30 436 O 48.9551 -0.167421 -1.77713 0
M  V30 437 C 46.0551 -0.415566 -3.36342 0
M  V30 438 C 45.2281 -1.49544 -4.11042 0
M  V30 439 C 44.2871 -0.962399 -5.17324 0
M  V30 440 O 43.3131 -1.64907 -5.44788 0
M  V30 441 N 44.5151 0.215134 -5.80101 0
M  V30 442 H 47.2801 -1.89596 -2.32106 0
M  V30 443 H 44.8411 -1.13276 -1.15673 0
M  V30 444 H 46.8331 -0.0442386 -4.04676 0
M  V30 445 H 45.4031 0.430232 -3.09625 0
M  V30 446 H 44.6231 -2.04 -3.37309 0
M  V30 447 H 45.9111 -2.22195 -4.57719 0
M  V30 448 H 45.3091 0.789779 -5.6016 0
M  V30 449 H 43.8661 0.527826 -6.49659 0
M  V30 450 N 47.2992 1.18797 -1.03562 0
M  V30 451 C 48.7102 1.70322 -0.764676 0
M  V30 452 C 49.0612 1.82708 0.714996 0
M  V30 453 O 48.1862 1.50299 1.55689 0
M  V30 454 C 48.7812 3.09356 -1.38145 0
M  V30 455 C 47.3402 3.58114 -1.15895 0
M  V30 456 C 46.4872 2.34798 -1.4753 0
M  V30 457 H 49.4382 1.03543 -1.20268 0
M  V30 458 H 49.4592 3.72378 -0.781977 0
M  V30 459 H 48.9712 3.00309 -2.45837 0
M  V30 460 H 47.0722 3.72464 -0.100544 0
M  V30 461 H 47.1852 4.4184 -1.8524 0
M  V30 462 H 45.5492 2.38464 -0.894829 0
M  V30 463 H 46.3322 2.28375 -2.56319 0
M  V30 464 N 48.7773 0.814389 1.34928 0
M  V30 465 C 49.6873 0.231978 2.3345 0
M  V30 466 C 50.7033 -0.629139 1.62228 0
M  V30 467 O 51.8793 -0.539052 1.94052 0
M  V30 468 C 48.9443 -0.603482 3.41407 0
M  V30 469 C 48.0053 0.279037 4.28392 0
M  V30 470 C 47.2383 -0.516643 5.31193 0
M  V30 471 O 47.4613 -1.75068 5.4287 0
M  V30 472 O 46.3953 0.0965652 6.01823 0
M  V30 473 H 50.2213 1.04721 2.85074 0
M  V30 474 H 47.8063 0.576343 1.37836 0
M  V30 475 H 49.6883 -1.07908 4.0735 0
M  V30 476 H 48.3633 -1.39618 2.92042 0
M  V30 477 H 47.2703 0.801948 3.65403 0
M  V30 478 H 48.6033 1.03588 4.81176 0
M  V30 479 N 50.2554 -1.46986 0.568584 0
M  V30 480 C 51.4834 -2.0683 0.0539956 0
M  V30 481 C 51.8984 -1.41953 -1.24478 0
M  V30 482 O 51.2554 -0.519933 -1.74937 0
M  V30 483 C 51.3064 -3.61254 -0.133362 0
M  V30 484 O 51.0274 -4.237 1.11399 0
M  V30 485 C 52.5284 -4.37992 -0.683927 0
M  V30 486 H 49.7484 -0.669058 0.0510141 0
M  V30 487 H 52.2924 -1.88824 0.785234 0
M  V30 488 H 50.4474 -3.78735 -0.81477 0
M  V30 489 H 50.8614 -5.16388 0.91888 0
M  V30 490 H 52.3354 -5.46684 -0.764263 0
M  V30 491 H 52.8124 -4.05058 -1.69778 0
M  V30 492 H 53.4184 -4.25283 -0.0378494 0
M  V30 493 N 51.7335 -0.305618 -1.54608 0
M  V30 494 C 52.9615 0.304775 -2.04643 0
M  V30 495 C 53.3765 1.47167 -1.18268 0
M  V30 496 O 52.7335 1.81296 -0.209328 0
M  V30 497 C 52.7845 0.756564 -3.53495 0
M  V30 498 O 52.5055 -0.36389 -4.36586 0
M  V30 499 C 54.0065 1.43163 -4.19546 0
M  V30 500 H 51.2265 0.0655481 -0.667791 0
M  V30 501 H 53.7705 -0.446592 -1.99564 0
M  V30 502 H 51.9255 1.45794 -3.58919 0
M  V30 503 H 52.3395 -0.0113121 -5.24499 0
M  V30 504 H 53.8135 1.69886 -5.25207 0
M  V30 505 H 54.2905 2.37318 -3.69563 0
M  V30 506 H 54.8965 0.773307 -4.18211 0
M  V30 507 N 53.2116 1.57565 -0.0334293 0
M  V30 508 C 54.1216 2.13943 0.962572 0
M  V30 509 C 55.1376 1.09276 1.35406 0
M  V30 510 O 56.3136 1.41355 1.4346 0
M  V30 511 C 53.3786 2.65887 2.22497 0
M  V30 512 C 52.4396 3.85286 1.8935 0
M  V30 513 C 51.6726 4.34743 3.09571 0
M  V30 514 O 51.8956 3.83352 4.22371 0
M  V30 515 O 50.8296 5.26538 2.91618 0
M  V30 516 H 54.6556 2.99333 0.513169 0
M  V30 517 H 52.2406 1.4822 0.18743 0
M  V30 518 H 54.1226 2.99346 2.96598 0
M  V30 519 H 52.7976 1.83578 2.6661 0
M  V30 520 H 51.7046 3.56746 1.1262 0
M  V30 521 H 53.0376 4.68771 1.5005 0
M  V30 522 N 54.6897 -0.239769 1.55765 0
M  V30 523 C 55.6527 -1.28038 1.90103 0
M  V30 524 C 56.6527 -1.40723 0.778055 0
M  V30 525 O 57.8427 -1.39301 1.04599 0
M  V30 526 C 54.9747 -2.65702 2.13577 0
M  V30 527 H 56.1677 -0.988048 2.83157 0
M  V30 528 H 53.7207 -0.479382 1.48767 0
M  V30 529 H 54.4557 -3.00063 1.23015 0
M  V30 530 H 54.2407 -2.57875 2.95369 0
M  V30 531 H 55.7307 -3.40828 2.41301 0
M  V30 532 N 56.1678 -1.49265 -0.50573 0
M  V30 533 C 57.1308 -1.65075 -1.59006 0
M  V30 534 C 58.1308 -0.522768 -1.52065 0
M  V30 535 O 59.3208 -0.789117 -1.55302 0
M  V30 536 C 56.4528 -1.64369 -2.98656 0
M  V30 537 H 57.6458 -2.61784 -1.46319 0
M  V30 538 H 55.1988 -1.38226 -0.729616 0
M  V30 539 H 55.9338 -0.692272 -3.16825 0
M  V30 540 H 55.7188 -2.46282 -3.05103 0
M  V30 541 H 57.2088 -1.78674 -3.77446 0
M  V30 542 N 57.6459 0.756429 -1.3826 0
M  V30 543 C 58.8929 1.51547 -1.34312 0
M  V30 544 C 59.2209 1.94382 0.0677144 0
M  V30 545 O 58.4759 1.65514 1.04421 0
M  V30 546 C 58.7749 2.78313 -2.24224 0
M  V30 547 C 58.4409 2.54455 -3.72241 0
M  V30 548 C 57.1029 2.47657 -4.12576 0
M  V30 549 C 59.4549 2.3354 -4.65949 0
M  V30 550 C 56.7829 2.17956 -5.44713 0
M  V30 551 C 59.1349 2.05359 -5.9834 0
M  V30 552 C 57.7989 1.97016 -6.37762 0
M  V30 553 H 57.0689 0.55455 -0.491482 0
M  V30 554 H 59.7159 0.870039 -1.70595 0
M  V30 555 H 58.0209 3.47492 -1.80987 0
M  V30 556 H 59.7179 3.36259 -2.18474 0
M  V30 557 H 56.3079 2.60616 -3.40261 0
M  V30 558 H 60.4919 2.37772 -4.35635 0
M  V30 559 H 55.7479 2.10003 -5.74203 0
M  V30 560 H 59.9219 1.88179 -6.70494 0
M  V30 561 H 57.5489 1.73766 -7.40074 0
M  V30 562 N 59.124 1.23083 0.984299 0
M  V30 563 C 60.071 1.00854 2.07598 0
M  V30 564 C 61.041 -0.0726709 1.65941 0
M  V30 565 O 62.226 0.0786535 1.90638 0
M  V30 566 C 59.366 0.601645 3.39815 0
M  V30 567 C 58.479 1.75456 3.94765 0
M  V30 568 C 57.614 1.29482 5.15177 0
M  V30 569 C 56.653 2.41873 5.62284 0
M  V30 570 N 55.79 1.96885 6.73929 0
M  V30 571 H 60.63 1.943 2.25946 0
M  V30 572 H 58.167 0.968001 1.10762 0
M  V30 573 H 60.125 0.346854 4.15756 0
M  V30 574 H 58.755 -0.295803 3.21442 0
M  V30 575 H 57.807 2.12346 3.15616 0
M  V30 576 H 59.119 2.59965 4.25699 0
M  V30 577 H 58.273 0.997923 5.98437 0
M  V30 578 H 57.012 0.420046 4.85888 0
M  V30 579 H 56.017 2.72342 4.77608 0
M  V30 580 H 57.242 3.29881 5.93595 0
M  V30 581 H 55.188 1.11782 6.46406 0
M  V30 582 H 55.105 2.74956 7.04227 0
M  V30 583 H 56.373 1.70289 7.60672 0
M  V30 584 N 60.6021 -1.18246 1.0419 0
M  V30 585 C 61.5321 -2.24127 0.654914 0
M  V30 586 C 62.5131 -1.66617 -0.342451 0
M  V30 587 O 63.6981 -1.92924 -0.222277 0
M  V30 588 C 60.8281 -3.47295 0.0183757 0
M  V30 589 C 59.7821 -4.17563 0.939414 0
M  V30 590 C 59.1081 -5.34438 0.167286 0
M  V30 591 C 60.4081 -4.70917 2.25908 0
M  V30 592 H 62.1021 -2.56753 1.54007 0
M  V30 593 H 59.6481 -1.23414 0.74195 0
M  V30 594 H 61.6011 -4.20572 -0.264082 0
M  V30 595 H 60.3251 -3.13907 -0.901664 0
M  V30 596 H 58.9841 -3.46186 1.20628 0
M  V30 597 H 58.6321 -4.97298 -0.7552 0
M  V30 598 H 58.3321 -5.82388 0.780901 0
M  V30 599 H 59.8561 -6.10504 -0.108125 0
M  V30 600 H 61.2701 -5.35882 2.03724 0
M  V30 601 H 59.6671 -5.29406 2.82577 0
M  V30 602 H 60.7371 -3.88272 2.9047 0
M  V30 603 N 62.0802 -0.821533 -1.34494 0
M  V30 604 C 63.3082 -0.421884 -2.02553 0
M  V30 605 C 63.7232 0.971745 -1.61872 0
M  V30 606 O 63.0802 1.62864 -0.823496 0
M  V30 607 C 63.1312 -0.51285 -3.57844 0
M  V30 608 O 62.8522 -1.85155 -3.97051 0
M  V30 609 C 64.3532 -0.107921 -4.43169 0
M  V30 610 H 61.5732 -0.169482 -0.649243 0
M  V30 611 H 64.1172 -1.1093 -1.71798 0
M  V30 612 H 62.2722 0.126474 -3.87193 0
M  V30 613 H 62.6862 -1.82482 -4.91732 0
M  V30 614 H 64.1602 -0.222657 -5.51551 0
M  V30 615 H 64.6372 0.948401 -4.28838 0
M  V30 616 H 65.2432 -0.720989 -4.19144 0
M  V30 617 N 63.5583 1.46682 -0.576371 0
M  V30 618 C 64.8353 1.95599 0.00703437 0
M  V30 619 C 65.2153 1.51904 1.46589 0
M  V30 620 O 64.5633 0.766755 2.15251 0
M  V30 621 C 64.7733 3.4864 -0.158404 0
M  V30 622 C 66.1213 4.24594 -0.0229439 0
M  V30 623 O 67.1453 3.56094 -0.0869173 0
M  V30 624 O 66.0043 5.46373 0.118015 0
M  V30 625 H 63.0983 0.825275 0.053384 0
M  V30 626 H 65.6443 1.56996 -0.644244 0
M  V30 627 H 64.4163 3.7331 -1.17282 0
M  V30 628 H 64.0393 3.94057 0.5296 0
M  V30 629 N 65.0364 0.313813 1.54444 0
M  V30 630 C 65.9664 -0.549454 2.26943 0
M  V30 631 C 66.9474 -1.12741 1.27372 0
M  V30 632 O 68.1324 -1.15436 1.56167 0
M  V30 633 C 65.2624 -1.71523 3.01989 0
M  V30 634 C 64.2164 -1.26703 4.08816 0
M  V30 635 C 63.5424 -2.51898 4.71647 0
M  V30 636 C 64.8424 -0.388962 5.2085 0
M  V30 637 H 66.5364 0.0552661 2.99349 0
M  V30 638 H 64.0824 0.0280207 1.43973 0
M  V30 639 H 66.0354 -2.32535 3.51433 0
M  V30 640 H 64.7594 -2.34639 2.27183 0
M  V30 641 H 63.4184 -0.679896 3.6024 0
M  V30 642 H 63.0664 -3.13356 3.93468 0
M  V30 643 H 62.7664 -2.22605 5.43802 0
M  V30 644 H 64.2904 -3.1369 5.23861 0
M  V30 645 H 65.7044 -0.905107 5.6611 0
M  V30 646 H 64.1014 -0.18924 5.99802 0
M  V30 647 H 65.1714 0.582699 4.81386 0
M  V30 648 N 66.5145 -1.57545 0.0417849 0
M  V30 649 C 67.4615 -2.10977 -0.935805 0
M  V30 650 C 68.4315 -1.01486 -1.31491 0
M  V30 651 O 69.6165 -1.2898 -1.40602 0
M  V30 652 C 66.7565 -2.65169 -2.2086 0
M  V30 653 C 65.8695 -3.88714 -1.88482 0
M  V30 654 C 65.0045 -4.31254 -3.1015 0
M  V30 655 C 64.0435 -5.47524 -2.7365 0
M  V30 656 N 63.1805 -5.85162 -3.87982 0
M  V30 657 H 68.0205 -2.94218 -0.473249 0
M  V30 658 H 65.5575 -1.45415 -0.221981 0
M  V30 659 H 67.5155 -2.94685 -2.95325 0
M  V30 660 H 66.1455 -1.8474 -2.64709 0
M  V30 661 H 65.1975 -3.65849 -1.04205 0
M  V30 662 H 66.5095 -4.73245 -1.57608 0
M  V30 663 H 65.6635 -4.62273 -3.92923 0
M  V30 664 H 64.4025 -3.45516 -3.44195 0
M  V30 665 H 63.4075 -5.16187 -1.89291 0
M  V30 666 H 64.6325 -6.34971 -2.40807 0
M  V30 667 H 62.5785 -5.02377 -4.21846 0
M  V30 668 H 62.4955 -6.64362 -3.60775 0
M  V30 669 H 63.7635 -6.20791 -4.71422 0
M  V30 670 N 67.9926 0.231505 -1.5589 0
M  V30 671 C 68.9026 1.308 -1.94752 0
M  V30 672 C 69.9186 1.51826 -0.849989 0
M  V30 673 O 71.0946 1.6515 -1.15271 0
M  V30 674 C 68.1596 2.63968 -2.24771 0
M  V30 675 C 67.2206 2.51331 -3.48039 0
M  V30 676 C 66.4536 3.78148 -3.76616 0
M  V30 677 O 66.6766 4.80722 -3.07022 0
M  V30 678 O 65.6106 3.75857 -4.70123 0
M  V30 679 H 69.4366 1.0083 -2.86474 0
M  V30 680 H 67.0216 0.433547 -1.42971 0
M  V30 681 H 68.9036 3.42633 -2.45318 0
M  V30 682 H 67.5786 2.9364 -1.36225 0
M  V30 683 H 66.4856 1.709 -3.32782 0
M  V30 684 H 67.8186 2.26601 -4.36936 0
M  V30 685 N 69.4707 1.49531 0.497807 0
M  V30 686 C 70.4337 1.65916 1.58128 0
M  V30 687 C 71.4337 0.530825 1.51786 0
M  V30 688 O 72.6237 0.797342 1.54881 0
M  V30 689 C 69.7557 1.65951 2.9778 0
M  V30 690 H 70.9487 2.62556 1.44929 0
M  V30 691 H 68.5017 1.38611 0.722275 0
M  V30 692 H 69.2367 0.709065 3.16453 0
M  V30 693 H 69.0217 2.47897 3.03792 0
M  V30 694 H 70.5117 1.80673 3.76493 0
M  V30 695 N 70.9488 -0.749086 1.3866 0
M  V30 696 C 72.1738 -1.54344 1.38538 0
M  V30 697 C 72.5988 -1.88088 -0.0216655 0
M  V30 698 O 71.9568 -1.50899 -1.00494 0
M  V30 699 C 72.0048 -2.8164 2.25192 0
M  V30 700 O 71.1088 -3.7698 1.67212 0
M  V30 701 H 70.4498 -0.466654 0.472367 0
M  V30 702 H 72.9798 -0.925355 1.82478 0
M  V30 703 H 72.9898 -3.30519 2.3921 0
M  V30 704 H 71.6648 -2.56411 3.27454 0
M  V30 705 H 70.2418 -3.35699 1.6236 0
M  V30 706 N 72.4269 -1.23603 -0.977757 0
M  V30 707 C 73.6669 -1.08148 -1.73446 0
M  V30 708 C 74.0309 0.374785 -1.88307 0
M  V30 709 O 75.2319 0.650588 -2.60808 0
M  V30 710 C 73.5029 -1.78991 -3.0935 0
M  V30 711 S 75.0619 -1.79141 -4.00567 0
M  V30 712 H 71.8799 -0.386987 -0.596458 0
M  V30 713 H 74.4819 -1.5678 -1.16792 0
M  V30 714 H 73.1859 -2.8408 -2.96187 0
M  V30 715 H 72.7169 -1.30651 -3.71071 0
M  V30 716 H 74.7319 -0.851892 -4.88833 0
M  V30 717 N 73.905 1.17692 -1.04816 0
M  V30 718 C 75.13 1.92327 -0.776207 0
M  V30 719 C 75.555 1.76082 0.661581 0
M  V30 720 O 74.913 1.076 1.45917 0
M  V30 721 C 74.961 3.41539 -1.15687 0
M  V30 722 O 74.065 4.11402 -0.286775 0
M  V30 723 H 73.406 0.599735 -0.284981 0
M  V30 724 H 75.936 1.49201 -1.4 0
M  V30 725 H 75.946 3.92269 -1.12202 0
M  V30 726 H 74.621 3.52684 -2.20425 0
M  V30 727 H 73.198 3.70939 -0.381903 0
M  V30 728 N 75.3831 0.828654 1.34056 0
M  V30 729 C 76.3161 0.199763 2.27324 0
M  V30 730 C 77.2941 -0.647168 1.49166 0
M  V30 731 O 78.4781 -0.609661 1.78369 0
M  V30 732 C 75.6051 -0.720455 3.30949 0
M  V30 733 C 74.6511 0.0496888 4.26471 0
M  V30 734 S 75.4841 1.40072 5.16856 0
M  V30 735 C 76.6401 0.485527 6.24014 0
M  V30 736 H 76.8731 0.990478 2.80316 0
M  V30 737 H 74.4061 0.624857 1.41191 0
M  V30 738 H 76.3641 -1.24581 3.91139 0
M  V30 739 H 75.0251 -1.48474 2.76793 0
M  V30 740 H 74.2181 -0.650104 4.9979 0
M  V30 741 H 73.8201 0.505779 3.70564 0
M  V30 742 H 76.1121 -0.320672 6.76741 0
M  V30 743 H 77.0551 1.18856 6.98054 0
M  V30 744 H 77.4631 0.0714109 5.64455 0
M  V30 745 N 76.8612 -1.46375 0.584142 0
M  V30 746 C 78.0892 -2.06761 0.0759296 0
M  V30 747 C 78.5042 -1.43266 -1.22965 0
M  V30 748 O 77.8612 -0.538458 -1.74376 0
M  V30 749 C 77.9122 -3.61375 -0.0950384 0
M  V30 750 O 77.6332 -4.22495 1.15887 0
M  V30 751 C 79.1342 -4.38693 -0.637434 0
M  V30 752 H 76.3542 -0.668479 0.0581075 0
M  V30 753 H 78.8982 -1.8798 0.805218 0
M  V30 754 H 77.0532 -3.79578 -0.774554 0
M  V30 755 H 77.4672 -5.15385 0.973598 0
M  V30 756 H 78.9412 -5.47464 -0.706237 0
M  V30 757 H 79.4182 -4.06836 -1.65472 0
M  V30 758 H 80.0242 -4.25299 0.00725967 0
M  V30 759 N 78.3393 -0.321999 -1.54275 0
M  V30 760 C 79.5643 0.285791 -2.05422 0
M  V30 761 C 79.9893 1.45124 -1.19669 0
M  V30 762 O 79.3473 1.80132 -0.205441 0
M  V30 763 C 79.3953 0.69956 -3.53749 0
M  V30 764 O 78.4993 1.8021 -3.70942 0
M  V30 765 H 77.8403 0.0518962 -0.661969 0
M  V30 766 H 80.3703 -0.469954 -1.9913 0
M  V30 767 H 80.3803 0.982649 -3.9599 0
M  V30 768 H 79.0553 -0.152864 -4.15619 0
M  V30 769 H 77.6323 1.51794 -3.40607 0
M  V30 770 N 79.8174 1.5752 -0.0501392 0
M  V30 771 C 81.0644 1.9265 0.623874 0
M  V30 772 C 81.3924 0.928411 1.70912 0
M  V30 773 O 80.6474 -0.0594525 1.9561 0
M  V30 774 C 80.9464 3.34467 1.25963 0
M  V30 775 C 80.6124 4.49883 0.302689 0
M  V30 776 C 79.2744 4.81184 0.0393636 0
M  V30 777 C 81.6264 5.20002 -0.353205 0
M  V30 778 C 78.9544 5.79951 -0.887308 0
M  V30 779 C 81.3064 6.1976 -1.26806 0
M  V30 780 C 79.9704 6.49491 -1.54007 0
M  V30 781 H 79.2404 0.704957 0.228292 0
M  V30 782 H 81.8874 1.91146 -0.116398 0
M  V30 783 H 80.1924 3.32333 2.07514 0
M  V30 784 H 81.8894 3.58928 1.78806 0
M  V30 785 H 78.4794 4.25457 0.518109 0
M  V30 786 H 82.6634 4.96033 -0.162854 0
M  V30 787 H 77.9194 6.01322 -1.10553 0
M  V30 788 H 82.0934 6.73205 -1.78236 0
M  V30 789 H 79.7204 7.25837 -2.25976 0
M  V30 790 N 81.2955 -0.223234 1.56011 0
M  V30 791 C 82.2455 -1.28008 1.88674 0
M  V30 792 C 83.2295 -1.42369 0.749663 0
M  V30 793 O 84.4215 -1.45212 1.01205 0
M  V30 794 C 81.5505 -2.63084 2.20548 0
M  V30 795 C 80.6365 -2.52632 3.40643 0
M  V30 796 N 81.0275 -2.11829 4.59306 0
M  V30 797 C 79.3255 -2.83594 3.44224 0
M  V30 798 C 80.0265 -2.12587 5.41463 0
M  V30 799 N 79.0025 -2.5301 4.81131 0
M  V30 800 H 82.8045 -0.955487 2.77935 0
M  V30 801 H 80.3185 -0.431801 1.56554 0
M  V30 802 H 82.3155 -3.39385 2.42122 0
M  V30 803 H 80.9755 -2.96391 1.32599 0
M  V30 804 H 81.9865 -1.82988 4.84496 0
M  V30 805 H 78.6635 -3.21284 2.66614 0
M  V30 806 H 80.0535 -1.83179 6.46448 0
M  V30 807 N 82.7736 -1.49793 -0.48987 0
M  V30 808 C 84.1846 -1.52914 -1.07118 0
M  V30 809 C 84.5356 -0.321738 -1.93544 0
M  V30 810 O 83.6606 0.567338 -2.08831 0
M  V30 811 C 84.2556 -2.771 -1.94938 0
M  V30 812 C 82.8146 -2.82963 -2.48212 0
M  V30 813 C 81.9616 -2.46972 -1.26096 0
M  V30 814 H 84.9126 -1.56329 -0.273289 0
M  V30 815 H 84.9336 -2.57892 -2.79771 0
M  V30 816 H 84.4456 -3.64959 -1.32009 0
M  V30 817 H 82.5466 -1.99411 -3.14748 0
M  V30 818 H 82.6596 -3.85406 -2.84603 0
M  V30 819 H 81.0236 -1.98994 -1.58976 0
M  V30 820 H 81.8066 -3.37118 -0.648581 0
M  V30 821 N 84.2517 0.741722 -1.39055 0
M  V30 822 C 85.6677 1.04638 -1.20512 0
M  V30 823 C 85.8677 2.01405 -0.0620218 0
M  V30 824 O 84.9237 2.45547 0.588457 0
M  V30 825 C 86.2367 1.6151 -2.53643 0
M  V30 826 C 87.7847 1.73623 -2.6043 0
M  V30 827 C 88.2597 2.33906 -3.93767 0
M  V30 828 N 89.7507 2.41323 -3.9537 0
M  V30 829 C 90.4857 2.88888 -4.95309 0
M  V30 830 N 89.9817 3.36401 -6.05645 0
M  V30 831 N 91.7747 2.88037 -4.82692 0
M  V30 832 H 83.9257 0.0998155 -2.12165 0
M  V30 833 H 86.1887 0.106907 -0.941953 0
M  V30 834 H 85.8947 0.978739 -3.37807 0
M  V30 835 H 85.7687 2.60411 -2.72885 0
M  V30 836 H 88.1557 2.36384 -1.76655 0
M  V30 837 H 88.2367 0.733945 -2.45045 0
M  V30 838 H 87.8807 1.71776 -4.7797 0
M  V30 839 H 87.8107 3.34799 -4.06469 0
M  V30 840 H 90.3017 2.07734 -3.15682 0
M  V30 841 H 90.6147 3.71186 -6.77821 0
M  V30 842 H 88.9597 3.34427 -6.09248 0
M  V30 843 H 92.1507 2.50237 -3.95599 0
M  V30 844 H 92.3237 3.24792 -5.60726 0
M  V30 845 N 85.7298 1.2412 0.971189 0
M  V30 846 C 86.9778 1.07668 1.71032 0
M  V30 847 C 87.2988 -0.385797 1.91146 0
M  V30 848 O 86.5688 -1.27569 1.4867 0
M  V30 849 H 85.1488 0.395429 0.633755 0
M  V30 850 H 87.8108 1.55984 1.16855 0
M  V30 851 H 86.9068 1.57195 2.69622 0
M  V30 852 N 87.2079 -1.17134 1.05439 0
M  V30 853 C 88.1379 -2.2342 0.678649 0
M  V30 854 C 89.1189 -1.66971 -0.32476 0
M  V30 855 O 90.3039 -1.93149 -0.201802 0
M  V30 856 C 87.4339 -3.47256 0.0552099 0
M  V30 857 C 86.3879 -4.16543 0.98365 0
M  V30 858 C 85.7139 -5.34231 0.223961 0
M  V30 859 C 87.0139 -4.68495 2.3089 0
M  V30 860 H 88.7079 -2.55105 1.56722 0
M  V30 861 H 86.2539 -1.2262 0.754998 0
M  V30 862 H 88.2069 -4.20828 -0.21946 0
M  V30 863 H 86.9309 -3.14846 -0.868319 0
M  V30 864 H 85.5899 -3.44887 1.24293 0
M  V30 865 H 85.2379 -4.98071 -0.702412 0
M  V30 866 H 84.9379 -5.81527 0.842627 0
M  V30 867 H 86.4619 -6.10585 -0.0433671 0
M  V30 868 H 87.8759 -5.33691 2.09396 0
M  V30 869 H 86.2729 -5.26379 2.88176 0
M  V30 870 H 87.3429 -3.85169 2.94572 0
M  V30 871 N 88.686 -0.835752 -1.33615 0
M  V30 872 C 89.618 -0.224151 -2.28101 0
M  V30 873 C 90.631 0.593331 -1.51603 0
M  V30 874 O 91.82 0.420911 -1.73466 0
M  V30 875 C 88.92 0.703309 -3.31522 0
M  V30 876 C 88.093 -0.0741528 -4.37337 0
M  V30 877 C 87.152 0.776176 -5.20444 0
M  V30 878 O 86.178 0.216506 -5.68788 0
M  V30 879 N 87.38 2.09401 -5.41416 0
M  V30 880 H 90.145 -1.03598 -2.81225 0
M  V30 881 H 87.706 -0.69392 -1.46275 0
M  V30 882 H 89.698 1.27707 -3.84022 0
M  V30 883 H 88.268 1.41585 -2.78698 0
M  V30 884 H 87.488 -0.82928 -3.85378 0
M  V30 885 H 88.776 -0.608863 -5.05144 0
M  V30 886 H 88.174 2.57229 -5.03835 0
M  V30 887 H 86.731 2.61633 -5.96985 0
M  V30 888 N 90.1641 1.46063 -0.591896 0
M  V30 889 C 91.1271 2.28854 0.125973 0
M  V30 890 C 92.1271 1.38903 0.810107 0
M  V30 891 O 93.3171 1.61186 0.66066 0
M  V30 892 C 90.4491 3.19526 1.1881 0
M  V30 893 H 91.6421 2.93802 -0.601717 0
M  V30 894 H 89.1951 1.52325 -0.350254 0
M  V30 895 H 89.9301 2.59345 1.94707 0
M  V30 896 H 89.7151 3.85766 0.701936 0
M  V30 897 H 91.2051 3.81817 1.69132 0
M  V30 898 N 91.6422 0.330177 1.54103 0
M  V30 899 C 92.6052 -0.520144 2.2322 0
M  V30 900 C 93.6052 -1.03828 1.22786 0
M  V30 901 O 94.7952 -0.929652 1.4732 0
M  V30 902 C 91.9272 -1.72317 2.94142 0
M  V30 903 H 93.1202 0.0841605 2.99782 0
M  V30 904 H 90.6732 0.0813433 1.56088 0
M  V30 905 H 91.4082 -2.36653 2.21734 0
M  V30 906 H 91.1932 -1.35898 3.67796 0
M  V30 907 H 92.6832 -2.3266 3.46784 0
M  V30 908 N 93.1203 -1.57491 0.0584922 0
M  V30 909 C 94.5363 -1.56792 -0.298091 0
M  V30 910 C 94.7363 -1.06679 -1.70944 0
M  V30 911 O 93.7923 -0.726672 -2.41818 0
M  V30 912 C 95.1053 -3.00461 -0.119879 0
M  V30 913 C 96.6533 -3.1242 -0.190428 0
M  V30 914 C 97.1283 -4.57982 -0.0406567 0
M  V30 915 N 98.6193 -4.63099 -0.0966958 0
M  V30 916 C 99.3543 -5.734 -0.00502943 0
M  V30 917 N 98.8503 -6.9266 0.139402 0
M  V30 918 N 100.643 -5.62067 -0.0611391 0
M  V30 919 H 92.7943 -1.88386 0.98105 0
M  V30 920 H 95.0573 -0.867865 0.381463 0
M  V30 921 H 94.7633 -3.41187 0.85349 0
M  V30 922 H 94.6373 -3.66843 -0.877833 0
M  V30 923 H 97.0243 -2.71589 -1.15427 0
M  V30 924 H 97.1053 -2.48702 0.598405 0
M  V30 925 H 96.7493 -4.995 0.919897 0
M  V30 926 H 96.6793 -5.19715 -0.848727 0
M  V30 927 H 99.1703 -3.77331 -0.207277 0
M  V30 928 H 99.4833 -7.72536 0.201855 0
M  V30 929 H 97.8283 -6.94781 0.174586 0
M  V30 930 H 101.019 -4.67782 -0.172583 0
M  V30 931 H 101.192 -6.47999 0.0137562 0
M  V30 932 N 94.5984 0.214957 -1.56127 0
M  V30 933 C 95.5614 1.24997 -1.92116 0
M  V30 934 C 96.5614 1.39467 -0.800344 0
M  V30 935 O 97.7514 1.37619 -1.06802 0
M  V30 936 C 94.8834 2.62271 -2.17777 0
M  V30 937 H 96.0764 0.942875 -2.84693 0
M  V30 938 H 93.6294 0.455654 -1.49511 0
M  V30 939 H 94.3644 2.98068 -1.27773 0
M  V30 940 H 94.1494 2.53143 -2.99434 0
M  V30 941 H 95.6394 3.36946 -2.46693 0
M  V30 942 N 96.0765 1.50051 0.48192 0
M  V30 943 C 97.0085 1.64263 1.59844 0
M  V30 944 C 98.0215 0.52451 1.54119 0
M  V30 945 O 99.2105 0.797293 1.59704 0
M  V30 946 C 96.3105 1.60102 2.98698 0
M  V30 947 C 95.4835 2.87767 3.29407 0
M  V30 948 C 94.5425 2.76397 4.47762 0
M  V30 949 O 93.5685 3.50348 4.48603 0
M  V30 950 N 94.7705 1.89222 5.48794 0
M  V30 951 H 97.5355 2.60566 1.48073 0
M  V30 952 H 95.0965 1.47379 0.670149 0
M  V30 953 H 97.0885 1.50123 3.75826 0
M  V30 954 H 95.6585 0.715798 3.04294 0
M  V30 955 H 94.8785 3.11954 2.40994 0
M  V30 956 H 96.1665 3.72365 3.4673 0
M  V30 957 H 95.5645 1.28434 5.50928 0
M  V30 958 H 94.1215 1.85154 6.24949 0
M  V30 959 N 97.5546 -0.734337 1.39446 0
M  V30 960 C 98.5016 -1.84835 1.38219 0
M  V30 961 C 99.4716 -1.64331 0.24179 0
M  V30 962 O 100.657 -1.85728 0.437002 0
M  V30 963 C 97.7966 -3.22355 1.23212 0
M  V30 964 C 96.9096 -3.5456 2.46801 0
M  V30 965 C 96.0446 -4.81485 2.24377 0
M  V30 966 C 95.0836 -5.06536 3.43639 0
M  V30 967 N 94.2206 -6.24665 3.20528 0
M  V30 968 H 99.0606 -1.85219 2.33448 0
M  V30 969 H 96.5976 -0.905039 1.15963 0
M  V30 970 H 98.5556 -4.0174 1.12522 0
M  V30 971 H 97.1856 -3.21248 0.316121 0
M  V30 972 H 96.2376 -2.69872 2.68092 0
M  V30 973 H 97.5496 -3.6899 3.3563 0
M  V30 974 H 96.7036 -5.68852 2.10933 0
M  V30 975 H 95.4426 -4.6923 1.32944 0
M  V30 976 H 94.4476 -4.17632 3.5758 0
M  V30 977 H 95.6726 -5.20676 4.35974 0
M  V30 978 H 93.6186 -6.13696 2.3176 0
M  V30 979 H 93.5356 -6.39685 4.02913 0
M  V30 980 H 94.8036 -7.14868 3.10779 0
M  V30 981 N 99.0327 -1.24633 -0.964593 0
M  V30 982 C 100.28 -1.08788 -1.70796 0
M  V30 983 C 100.608 0.372783 -1.90894 0
M  V30 984 O 99.8627 1.29167 -1.47018 0
M  V30 985 C 100.162 -1.7763 -3.10133 0
M  V30 986 C 99.8277 -3.27557 -3.09866 0
M  V30 987 C 98.4897 -3.6846 -3.09501 0
M  V30 988 C 100.842 -4.23389 -3.03959 0
M  V30 989 C 98.1697 -5.03624 -3.00965 0
M  V30 990 C 100.522 -5.58565 -2.96965 0
M  V30 991 C 99.1857 -5.98809 -2.9493 0
M  V30 992 H 98.4557 -0.398084 -0.624988 0
M  V30 993 H 101.103 -1.54777 -1.12767 0
M  V30 994 H 99.4077 -1.24044 -3.71645 0
M  V30 995 H 101.105 -1.62832 -3.66451 0
M  V30 996 H 97.6947 -2.95006 -3.10917 0
M  V30 997 H 101.879 -3.92787 -3.03368 0
M  V30 998 H 97.1347 -5.33998 -2.97752 0
M  V30 999 H 101.309 -6.32523 -2.91354 0
M  V30 1000 H 98.9357 -7.03505 -2.88071 0
M  V30 1001 N 100.511 1.16574 -1.06058 0
M  V30 1002 C 101.458 2.20883 -0.669263 0
M  V30 1003 C 102.428 1.62729 0.332918 0
M  V30 1004 O 103.613 1.895 0.222346 0
M  V30 1005 C 100.753 3.45049 -0.0593572 0
M  V30 1006 C 99.8658 4.17458 -1.11143 0
M  V30 1007 C 99.0008 5.29135 -0.467916 0
M  V30 1008 C 98.0398 5.93343 -1.50369 0
M  V30 1009 N 97.1768 6.96516 -0.883706 0
M  V30 1010 H 102.017 2.53709 -1.5632 0
M  V30 1011 H 99.5538 1.24616 -0.781625 0
M  V30 1012 H 101.512 4.16033 0.311771 0
M  V30 1013 H 100.142 3.12781 0.797992 0
M  V30 1014 H 99.1938 3.45101 -1.60029 0
M  V30 1015 H 100.506 4.61307 -1.89731 0
M  V30 1016 H 99.6598 6.06684 -0.0436871 0
M  V30 1017 H 98.3988 4.86443 0.349864 0
M  V30 1018 H 97.4038 5.14517 -1.93784 0
M  V30 1019 H 98.6288 6.38114 -2.32352 0
M  V30 1020 H 96.5748 6.55943 -0.086595 0
M  V30 1021 H 96.4918 7.38723 -1.607 0
M  V30 1022 H 97.7598 7.77993 -0.484543 0
M  V30 1023 N 101.989 0.842826 1.3317 0
M  V30 1024 C 103.214 0.453129 2.02389 0
M  V30 1025 C 103.639 -0.939105 1.6298 0
M  V30 1026 O 102.997 -1.61472 0.8244 0
M  V30 1027 C 103.045 0.586094 3.55805 0
M  V30 1028 O 102.149 -0.386029 4.10589 0
M  V30 1029 H 101.49 0.183664 0.638094 0
M  V30 1030 H 104.02 1.13875 1.69981 0
M  V30 1031 H 104.03 0.469209 4.05293 0
M  V30 1032 H 102.705 1.6014 3.83833 0
M  V30 1033 H 101.282 -0.226371 3.72212 0
M  V30 1034 N 103.467 -1.45747 0.599634 0
M  V30 1035 C 104.414 -2.30467 -0.123849 0
M  V30 1036 C 105.384 -1.41632 -0.86774 0
M  V30 1037 O 106.569 -1.70568 -0.855056 0
M  V30 1038 C 103.709 -3.26402 -1.12051 0
M  V30 1039 C 102.822 -4.3034 -0.37832 0
M  V30 1040 C 101.957 -5.13389 -1.364 0
M  V30 1041 C 100.996 -6.09061 -0.609171 0
M  V30 1042 N 100.133 -6.84918 -1.54374 0
M  V30 1043 H 104.973 -2.91802 0.604627 0
M  V30 1044 H 102.51 -1.43797 0.309972 0
M  V30 1045 H 104.468 -3.80482 -1.7114 0
M  V30 1046 H 103.098 -2.66839 -1.8165 0
M  V30 1047 H 102.15 -3.78984 0.327929 0
M  V30 1048 H 103.462 -4.98354 0.210997 0
M  V30 1049 H 102.616 -5.7183 -2.02719 0
M  V30 1050 H 101.355 -4.45376 -1.98725 0
M  V30 1051 H 100.36 -5.49758 0.0676979 0
M  V30 1052 H 101.585 -6.79099 0.00891991 0
M  V30 1053 H 99.531 -6.19601 -2.15478 0
M  V30 1054 H 99.448 -7.49254 -1.00766 0
M  V30 1055 H 100.716 -7.47906 -2.19676 0
M  V30 1056 N 104.945 -0.338344 -1.53925 0
M  V30 1057 C 106.361 0.0137736 -1.59594 0
M  V30 1058 C 106.561 1.49186 -1.35447 0
M  V30 1059 O 105.617 2.24987 -1.14616 0
M  V30 1060 C 106.93 -0.41773 -2.97784 0
M  V30 1061 C 108.478 -0.369633 -3.1081 0
M  V30 1062 C 108.953 -0.776524 -4.51369 0
M  V30 1063 N 110.444 -0.730506 -4.57403 0
M  V30 1064 C 111.179 -1.01736 -5.64303 0
M  V30 1065 N 110.675 -1.3721 -6.79077 0
M  V30 1066 N 112.468 -0.941942 -5.54151 0
M  V30 1067 H 104.619 -1.3012 -1.67876 0
M  V30 1068 H 106.882 -0.530082 -0.78595 0
M  V30 1069 H 106.588 -1.44811 -3.20504 0
M  V30 1070 H 106.462 0.209729 -3.76616 0
M  V30 1071 H 108.849 0.651568 -2.87817 0
M  V30 1072 H 108.93 -1.03223 -2.34049 0
M  V30 1073 H 108.574 -1.79571 -4.75096 0
M  V30 1074 H 108.504 -0.0914649 -5.26521 0
M  V30 1075 H 110.995 -0.468783 -3.74981 0
M  V30 1076 H 111.308 -1.57597 -7.5656 0
M  V30 1077 H 109.653 -1.4105 -6.80536 0
M  V30 1078 H 112.844 -0.664184 -4.63364 0
M  V30 1079 H 113.017 -1.16884 -6.37371 0
M  V30 1080 N 106.423 1.57458 -0.0668435 0
M  V30 1081 C 107.834 1.80776 0.466558 0
M  V30 1082 C 108.185 0.980361 1.69951 0
M  V30 1083 O 107.31 0.201441 2.1546 0
M  V30 1084 C 107.905 3.27881 0.85321 0
M  V30 1085 C 106.464 3.52062 1.3315 0
M  V30 1086 C 105.611 2.75513 0.314264 0
M  V30 1087 H 108.562 1.5598 -0.292588 0
M  V30 1088 H 108.583 3.39659 1.715 0
M  V30 1089 H 108.095 3.88075 -0.0443439 0
M  V30 1090 H 106.196 2.97167 2.24772 0
M  V30 1091 H 106.309 4.60762 1.31285 0
M  V30 1092 H 104.673 2.42123 0.790492 0
M  V30 1093 H 105.456 3.38442 -0.575477 0
M  V30 1094 N 107.901 -0.206675 1.56239 0
M  V30 1095 C 109.317 -0.557025 1.49564 0
M  V30 1096 C 109.517 -1.86424 0.764735 0
M  V30 1097 O 108.573 -2.50584 0.310491 0
M  V30 1098 C 109.886 -0.622478 2.94186 0
M  V30 1099 C 111.434 -0.712099 3.04792 0
M  V30 1100 C 111.909 -0.808767 4.50803 0
M  V30 1101 N 113.4 -0.8726 4.54907 0
M  V30 1102 C 114.135 -0.967365 5.65181 0
M  V30 1103 N 113.631 -1.02515 6.85173 0
M  V30 1104 N 115.424 -1.00366 5.53067 0
M  V30 1105 H 107.575 0.650943 2.02179 0
M  V30 1106 H 109.838 0.230387 0.919579 0
M  V30 1107 H 109.544 0.268727 3.50672 0
M  V30 1108 H 109.418 -1.4811 3.46905 0
M  V30 1109 H 111.805 -1.59374 2.48363 0
M  V30 1110 H 111.886 0.172489 2.55218 0
M  V30 1111 H 111.53 0.0684754 5.07854 0
M  V30 1112 H 111.46 -1.70899 4.98098 0
M  V30 1113 H 113.951 -0.837657 3.68499 0
M  V30 1114 H 114.264 -1.09765 7.64965 0
M  V30 1115 H 112.609 -0.994026 6.87855 0
M  V30 1116 H 115.8 -0.95527 4.58249 0
M  V30 1117 H 115.973 -1.07405 6.39037 0
M  V30 1118 N 109.379 -1.50304 -0.473955 0
M  V30 1119 C 110.604 -1.65175 -1.25427 0
M  V30 1120 C 111.029 -0.333673 -1.85117 0
M  V30 1121 O 110.387 0.702114 -1.67153 0
M  V30 1122 C 110.435 -2.74295 -2.34082 0
M  V30 1123 O 109.539 -2.35349 -3.38651 0
M  V30 1124 H 108.88 -0.551944 -0.369126 0
M  V30 1125 H 111.41 -1.96662 -0.564364 0
M  V30 1126 H 111.42 -2.97285 -2.79438 0
M  V30 1127 H 110.095 -3.69959 -1.90008 0
M  V30 1128 H 108.672 -2.22794 -2.99027 0
M  V30 1129 N 110.857 0.726932 -1.39834 0
M  V30 1130 C 111.805 1.86235 -1.39353 0
M  V30 1131 C 112.799 1.67144 -0.275555 0
M  V30 1132 O 114.005 1.74387 -0.44601 0
M  V30 1133 H 110.38 0.613174 -0.43534 0
M  V30 1134 H 112.351 1.83756 -2.35109 0
M  V30 1135 C 111.1 3.23995 -1.26185 0
M  V30 1136 H 110.423 3.39285 -2.11484 0
M  V30 1137 H 111.863 4.03609 -1.29907 0
M  V30 1138 C 110.322 3.36888 0.0290018 0
M  V30 1139 O 110.852 3.89152 0.99619 0
M  V30 1140 N 109.058 2.90446 0.0947437 0
M  V30 1141 H 108.605 2.48102 -0.693035 0
M  V30 1142 H 108.563 2.99451 0.957932 0
M  V30 1143 N 112.336 1.25143 0.95797 0
M  V30 1144 C 113.561 1.12521 1.74223 0
M  V30 1145 C 113.986 -0.317402 1.85403 0
M  V30 1146 O 113.344 -1.2299 1.33204 0
M  V30 1147 C 113.392 1.78062 3.1357 0
M  V30 1148 O 112.496 1.058 3.98598 0
M  V30 1149 H 111.837 0.39304 0.535178 0
M  V30 1150 H 114.367 1.65641 1.201 0
M  V30 1151 H 114.377 1.84213 3.64046 0
M  V30 1152 H 113.052 2.83021 3.04749 0
M  V30 1153 H 111.629 1.07506 3.57067 0
M  V30 1154 N 113.814 -1.1601 1.06675 0
M  V30 1155 C 115.091 -1.82679 0.699114 0
M  V30 1156 C 115.471 -1.94559 -0.819137 0
M  V30 1157 O 114.819 -1.49169 -1.73092 0
M  V30 1158 C 115.029 -3.19445 1.40555 0
M  V30 1159 C 116.377 -3.95171 1.55323 0
M  V30 1160 O 117.401 -3.28976 1.36577 0
M  V30 1161 O 116.26 -5.13833 1.86112 0
M  V30 1162 H 113.354 -0.788954 0.247951 0
M  V30 1163 H 115.9 -1.23179 1.16726 0
M  V30 1164 H 114.672 -3.05856 2.44065 0
M  V30 1165 H 114.295 -3.86625 0.927733 0
M  V30 1166 N 115.292 -0.849877 -1.32721 0
M  V30 1167 C 116.532 -0.457146 -1.99222 0
M  V30 1168 C 116.896 0.968038 -1.6581 0
M  V30 1169 O 118.097 1.46507 -2.25364 0
M  V30 1170 C 116.368 -0.683966 -3.50794 0
M  V30 1171 S 117.927 -0.388095 -4.3708 0
M  V30 1172 H 114.745 -0.171464 -0.690015 0
M  V30 1173 H 117.347 -1.10155 -1.61512 0
M  V30 1174 H 116.051 -1.72038 -3.726 0
M  V30 1175 H 115.582 -0.0258086 -3.93392 0
M  V30 1176 H 117.597 0.787791 -4.89906 0
M  V30 1177 N 116.77 1.45427 -0.607355 0
M  V30 1178 C 118.017 2.02241 -0.102455 0
M  V30 1179 C 118.345 1.4758 1.26691 0
M  V30 1180 O 117.6 0.640468 1.84923 0
M  V30 1181 C 117.899 3.57398 -0.0129263 0
M  V30 1182 C 117.565 4.3121 -1.31792 0
M  V30 1183 C 116.227 4.51092 -1.67539 0
M  V30 1184 C 118.579 4.73401 -2.18039 0
M  V30 1185 C 115.907 5.10422 -2.89285 0
M  V30 1186 C 118.259 5.34078 -3.39034 0
M  V30 1187 C 116.923 5.52184 -3.75033 0
M  V30 1188 H 116.193 0.740051 -0.037491 0
M  V30 1189 H 118.84 1.74494 -0.788926 0
M  V30 1190 H 117.145 3.84421 0.756806 0
M  V30 1191 H 118.842 3.99061 0.393881 0
M  V30 1192 H 115.432 4.16047 -1.02968 0
M  V30 1193 H 119.616 4.57774 -1.91721 0
M  V30 1194 H 114.872 5.22629 -3.17283 0
M  V30 1195 H 119.046 5.65724 -4.06115 0
M  V30 1196 H 116.673 5.97925 -4.69457 0
M  V30 1197 N 118.248 0.346503 1.53744 0
M  V30 1198 C 119.18 -0.543316 2.22667 0
M  V30 1199 C 120.193 -1.06159 1.23427 0
M  V30 1200 O 121.382 -0.971235 1.49764 0
M  V30 1201 C 118.482 -1.76076 2.89569 0
M  V30 1202 C 117.655 -1.37727 4.15151 0
M  V30 1203 C 116.714 -2.45471 4.65436 0
M  V30 1204 O 115.74 -2.08655 5.29577 0
M  V30 1205 N 116.942 -3.7677 4.41616 0
M  V30 1206 H 119.707 0.0469703 2.99663 0
M  V30 1207 H 117.268 0.170766 1.60997 0
M  V30 1208 H 119.26 -2.47593 3.20125 0
M  V30 1209 H 117.83 -2.25835 2.16142 0
M  V30 1210 H 117.05 -0.492746 3.91108 0
M  V30 1211 H 118.338 -1.09708 4.96832 0
M  V30 1212 H 117.736 -4.09467 3.90325 0
M  V30 1213 H 116.293 -4.44448 4.7677 0
M  V30 1214 N 119.726 -1.57421 0.075193 0
M  V30 1215 C 120.636 -2.1642 -0.905511 0
M  V30 1216 C 121.652 -1.12828 -1.32461 0
M  V30 1217 O 122.828 -1.45109 -1.39661 0
M  V30 1218 C 119.893 -2.71693 -2.15369 0
M  V30 1219 C 118.954 -3.90171 -1.79068 0
M  V30 1220 C 118.187 -4.42798 -2.97936 0
M  V30 1221 O 118.41 -3.94416 -4.12058 0
M  V30 1222 O 117.344 -5.34085 -2.77555 0
M  V30 1223 H 121.17 -3.00588 -0.433626 0
M  V30 1224 H 118.755 -1.48664 -0.148067 0
M  V30 1225 H 120.637 -3.07104 -2.88557 0
M  V30 1226 H 119.312 -1.90582 -2.61649 0
M  V30 1227 H 118.219 -3.59606 -1.03122 0
M  V30 1228 H 119.552 -4.72584 -1.37569 0
M  V30 1229 N 121.204 0.198386 -1.56346 0
M  V30 1230 C 122.114 1.2664 -1.97483 0
M  V30 1231 C 123.13 1.49989 -0.882002 0
M  V30 1232 O 124.306 1.62668 -1.18748 0
M  V30 1233 C 121.371 2.59141 -2.30319 0
M  V30 1234 C 120.432 2.43892 -3.53292 0
M  V30 1235 C 119.665 3.70074 -3.84553 0
M  V30 1236 O 119.888 4.74101 -3.1715 0
M  V30 1237 O 118.822 3.658 -4.7799 0
M  V30 1238 H 122.648 0.947304 -2.88548 0
M  V30 1239 H 120.233 0.403123 -1.43859 0
M  V30 1240 H 122.115 3.37352 -2.5253 0
M  V30 1241 H 120.79 2.90684 -1.42423 0
M  V30 1242 H 119.697 1.63803 -3.36332 0
M  V30 1243 H 121.03 2.17282 -4.41644 0
M  V30 1244 N 122.682 1.50554 0.465978 0
M  V30 1245 C 123.959 1.5232 1.22712 0
M  V30 1246 C 124.339 0.270807 2.09356 0
M  V30 1247 O 123.687 -0.745541 2.15995 0
M  V30 1248 C 123.897 2.82175 2.05374 0
M  V30 1249 C 125.245 3.33033 2.6339 0
M  V30 1250 O 126.269 2.83531 2.15612 0
M  V30 1251 O 125.128 4.19336 3.50456 0
M  V30 1252 H 122.222 0.611183 0.557122 0
M  V30 1253 H 124.768 1.62847 0.477381 0
M  V30 1254 H 123.54 3.64797 1.41558 0
M  V30 1255 H 123.163 2.74675 2.87471 0
M  V30 1256 N 124.16 -0.719506 1.40217 0
M  V30 1257 C 125.09 -1.8465 1.42922 0
M  V30 1258 C 126.071 -1.67599 0.29062 0
M  V30 1259 O 127.256 -1.87688 0.498677 0
M  V30 1260 C 124.386 -3.22565 1.28722 0
M  V30 1261 C 123.34 -3.54281 2.40144 0
M  V30 1262 C 122.666 -4.91298 2.11023 0
M  V30 1263 C 123.966 -3.55676 3.82481 0
M  V30 1264 H 125.66 -1.82644 2.37237 0
M  V30 1265 H 123.206 -0.877305 1.1419 0
M  V30 1266 H 125.159 -4.01095 1.29232 0
M  V30 1267 H 123.883 -3.25137 0.308811 0
M  V30 1268 H 122.542 -2.78088 2.38877 0
M  V30 1269 H 122.19 -4.90468 1.11582 0
M  V30 1270 H 121.89 -5.13485 2.8567 0
M  V30 1271 H 123.414 -5.72166 2.13209 0
M  V30 1272 H 124.828 -4.24254 3.85592 0
M  V30 1273 H 123.225 -3.89388 4.56614 0
M  V30 1274 H 124.295 -2.55144 4.12346 0
M  V30 1275 N 125.638 -1.25649 -0.95132 0
M  V30 1276 C 127.054 -1.02542 -1.223 0
M  V30 1277 C 127.254 0.255715 -1.99871 0
M  V30 1278 O 126.31 0.967558 -2.33226 0
M  V30 1279 C 127.623 -2.25065 -1.99415 0
M  V30 1280 C 129.171 -2.29861 -2.12446 0
M  V30 1281 C 129.646 -3.52048 -2.92961 0
M  V30 1282 N 131.137 -3.52465 -3.00538 0
M  V30 1283 C 131.872 -4.43672 -3.63239 0
M  V30 1284 N 131.368 -5.45157 -4.27523 0
M  V30 1285 N 133.161 -4.31346 -3.60412 0
M  V30 1286 H 125.312 -2.07951 -0.432471 0
M  V30 1287 H 127.575 -0.91339 -0.253816 0
M  V30 1288 H 127.281 -3.18194 -1.49817 0
M  V30 1289 H 127.155 -2.28502 -3.00111 0
M  V30 1290 H 129.542 -1.37252 -2.61239 0
M  V30 1291 H 129.623 -2.3044 -1.11044 0
M  V30 1292 H 129.267 -4.44981 -2.44856 0
M  V30 1293 H 129.197 -3.48715 -3.94596 0
M  V30 1294 H 131.688 -2.79056 -2.54826 0
M  V30 1295 H 132.001 -6.10958 -4.73234 0
M  V30 1296 H 130.346 -5.49025 -4.26141 0
M  V30 1297 H 133.537 -3.51288 -3.09377 0
M  V30 1298 H 133.71 -5.02624 -4.0899 0
M  V30 1299 N 127.117 1.15442 -1.07289 0
M  V30 1300 C 128.049 2.19773 -0.650585 0
M  V30 1301 C 129.062 1.60076 0.296572 0
M  V30 1302 O 130.251 1.78293 0.0859905 0
M  V30 1303 C 127.351 3.38838 0.0650398 0
M  V30 1304 C 126.524 4.2808 -0.898141 0
M  V30 1305 C 125.583 5.2574 -0.219926 0
M  V30 1306 O 124.609 5.62654 -0.860773 0
M  V30 1307 N 125.811 5.71205 1.03466 0
M  V30 1308 H 128.576 2.56622 -1.54808 0
M  V30 1309 H 126.137 1.30551 -0.957494 0
M  V30 1310 H 128.129 4.01222 0.529415 0
M  V30 1311 H 126.699 3.00409 0.864466 0
M  V30 1312 H 125.919 3.62804 -1.54165 0
M  V30 1313 H 127.207 4.84577 -1.5512 0
M  V30 1314 H 126.605 5.43325 1.57526 0
M  V30 1315 H 125.162 6.35633 1.44272 0
M  V30 1316 N 128.595 0.856903 1.32268 0
M  V30 1317 C 129.843 0.460474 1.96784 0
M  V30 1318 C 130.164 -0.987701 1.68135 0
M  V30 1319 O 129.434 -1.69058 0.989765 0
M  V30 1320 H 128.014 0.167289 0.728027 0
M  V30 1321 H 130.676 1.09383 1.61312 0
M  V30 1322 H 129.772 0.60739 3.06133 0
M  V30 1323 N 130.073 -1.45103 0.615059 0
M  V30 1324 C 131.32 -2.02183 0.113179 0
M  V30 1325 C 131.648 -1.48249 -1.25906 0
M  V30 1326 O 130.903 -0.650265 -1.84581 0
M  V30 1327 C 131.202 -3.57386 0.0318797 0
M  V30 1328 C 130.868 -4.30505 1.34077 0
M  V30 1329 C 129.53 -4.50197 1.69929 0
M  V30 1330 C 131.882 -4.72238 2.20546 0
M  V30 1331 C 129.21 -5.08881 2.91988 0
M  V30 1332 C 131.562 -5.32272 3.41861 0
M  V30 1333 C 130.226 -5.50187 3.77956 0
M  V30 1334 H 129.496 -0.739842 0.0414151 0
M  V30 1335 H 132.143 -1.74073 0.798168 0
M  V30 1336 H 130.448 -3.84817 -0.736409 0
M  V30 1337 H 132.145 -3.99264 -0.372712 0
M  V30 1338 H 128.735 -4.15496 1.05173 0
M  V30 1339 H 132.919 -4.56751 1.94146 0
M  V30 1340 H 128.175 -5.20939 3.2005 0
M  V30 1341 H 132.349 -5.63563 4.09109 0
M  V30 1342 H 129.976 -5.95427 4.72622 0
M  V30 1343 N 131.551 -0.354651 -1.53558 0
M  V30 1344 C 132.483 0.5315 -2.22952 0
M  V30 1345 C 133.496 1.05503 -1.23988 0
M  V30 1346 O 134.685 0.963279 -1.50277 0
M  V30 1347 C 131.785 1.74538 -2.90499 0
M  V30 1348 C 130.958 1.35524 -4.15875 0
M  V30 1349 C 130.017 2.42999 -4.66731 0
M  V30 1350 O 129.043 2.05844 -5.30676 0
M  V30 1351 N 130.245 3.74423 -4.43608 0
M  V30 1352 H 133.01 -0.0628615 -2.99634 0
M  V30 1353 H 130.571 -0.179302 -1.60904 0
M  V30 1354 H 132.563 2.45892 -3.21433 0
M  V30 1355 H 131.133 2.24686 -2.17336 0
M  V30 1356 H 130.353 0.471998 -3.91364 0
M  V30 1357 H 131.641 1.07071 -4.97406 0
M  V30 1358 H 131.039 4.07391 -3.92491 0
M  V30 1359 H 129.596 4.41913 -4.7912 0
M  V30 1360 N 133.029 1.57378 -0.0835403 0
M  V30 1361 C 134.275 1.95025 0.577664 0
M  V30 1362 C 134.63 0.964049 1.66505 0
M  V30 1363 O 133.923 -0.0118235 1.91596 0
M  V30 1364 C 134.117 3.37063 1.1884 0
M  V30 1365 C 133.946 4.49409 0.16171 0
M  V30 1366 C 132.716 5.04642 -0.257756 0
M  V30 1367 C 134.914 5.10722 -0.605634 0
M  V30 1368 N 132.896 6.00537 -1.27393 0
M  V30 1369 C 134.267 6.02225 -1.47395 0
M  V30 1370 C 136.322 4.93501 -0.660418 0
M  V30 1371 C 135.025 6.78355 -2.39221 0
M  V30 1372 C 137.051 5.70283 -1.56623 0
M  V30 1373 C 136.413 6.61444 -2.4222 0
M  V30 1374 H 132.512 0.760512 0.182058 0
M  V30 1375 H 135.096 1.94013 -0.163419 0
M  V30 1376 H 133.267 3.3879 1.89936 0
M  V30 1377 H 134.999 3.61917 1.81103 0
M  V30 1378 H 131.754 4.73428 0.127702 0
M  V30 1379 H 132.178 6.53184 -1.77987 0
M  V30 1380 H 136.82 4.22798 -0.0128221 0
M  V30 1381 H 134.538 7.48327 -3.05011 0
M  V30 1382 H 138.124 5.58976 -1.61361 0
M  V30 1383 H 137.004 7.1982 -3.11174 0
M  V30 1384 N 134.507 -0.190092 1.56449 0
M  V30 1385 C 135.923 -0.54113 1.50146 0
M  V30 1386 C 136.123 -1.85603 0.784465 0
M  V30 1387 O 135.179 -2.5024 0.337051 0
M  V30 1388 C 136.492 -0.591241 2.9483 0
M  V30 1389 C 138.04 -0.679732 3.0553 0
M  V30 1390 C 138.515 -0.760908 4.51635 0
M  V30 1391 N 140.006 -0.824302 4.55806 0
M  V30 1392 C 140.741 -0.907365 5.66175 0
M  V30 1393 N 140.237 -0.952422 6.86222 0
M  V30 1394 N 142.03 -0.94494 5.541 0
M  V30 1395 H 134.181 0.67235 2.01478 0
M  V30 1396 H 136.444 0.240127 0.917084 0
M  V30 1397 H 136.15 0.305905 3.50367 0
M  V30 1398 H 136.024 -1.44422 3.48457 0
M  V30 1399 H 138.411 -1.56731 2.50039 0
M  V30 1400 H 138.492 0.199549 2.5502 0
M  V30 1401 H 138.136 0.122336 5.07753 0
M  V30 1402 H 138.066 -1.65606 4.99882 0
M  V30 1403 H 140.557 -0.798526 3.69367 0
M  V30 1404 H 140.87 -1.01645 7.66086 0
M  V30 1405 H 139.215 -0.921014 6.8887 0
M  V30 1406 H 142.406 -0.906612 4.59236 0
M  V30 1407 H 142.579 -1.00622 6.4014 0
M  V30 1408 N 135.985 -1.50799 -0.457987 0
M  V30 1409 C 136.932 -1.70617 -1.5543 0
M  V30 1410 C 137.902 -0.547562 -1.56815 0
M  V30 1411 O 139.087 -0.779647 -1.74144 0
M  V30 1412 C 136.227 -1.81831 -2.93311 0
M  V30 1413 C 135.34 -3.09278 -3.01615 0
M  V30 1414 C 134.475 -3.11209 -4.30491 0
M  V30 1415 C 133.514 -4.33055 -4.32585 0
M  V30 1416 N 132.651 -4.32652 -5.52952 0
M  V30 1417 H 137.491 -2.64207 -1.37836 0
M  V30 1418 H 135.028 -1.30959 -0.669937 0
M  V30 1419 H 136.986 -1.86314 -3.73287 0
M  V30 1420 H 135.616 -0.916685 -3.0951 0
M  V30 1421 H 134.668 -3.14203 -2.1443 0
M  V30 1422 H 135.98 -3.99233 -2.99022 0
M  V30 1423 H 135.134 -3.14494 -5.18824 0
M  V30 1424 H 133.873 -2.19106 -4.35711 0
M  V30 1425 H 132.878 -4.29969 -3.42647 0
M  V30 1426 H 134.103 -5.264 -4.29046 0
M  V30 1427 H 132.049 -3.43409 -5.58933 0
M  V30 1428 H 131.966 -5.16392 -5.52155 0
M  V30 1429 H 133.234 -4.40101 -6.43375 0
M  V30 1430 N 137.463 0.71206 -1.40597 0
M  V30 1431 C 138.688 1.50617 -1.42581 0
M  V30 1432 C 139.113 1.88079 -0.0282102 0
M  V30 1433 O 138.471 1.53511 0.964579 0
M  V30 1434 C 138.519 2.7557 -2.3258 0
M  V30 1435 O 137.623 3.72414 -1.77148 0
M  V30 1436 H 136.964 0.453966 -0.484573 0
M  V30 1437 H 139.494 0.876649 -1.84868 0
M  V30 1438 H 139.504 3.2406 -2.47889 0
M  V30 1439 H 138.179 2.47639 -3.34138 0
M  V30 1440 H 136.756 3.31276 -1.71204 0
M  V30 1441 N 138.941 1.26152 0.944643 0
M  V30 1442 C 139.871 1.09902 2.06019 0
M  V30 1443 C 140.852 0.00519538 1.70099 0
M  V30 1444 O 142.037 0.176583 1.93396 0
M  V30 1445 C 139.167 0.727562 3.39594 0
M  V30 1446 C 138.121 1.77274 3.89561 0
M  V30 1447 C 137.447 1.25569 5.19747 0
M  V30 1448 C 138.747 3.17357 4.14827 0
M  V30 1449 H 140.441 2.03217 2.19871 0
M  V30 1450 H 137.987 0.978452 1.05652 0
M  V30 1451 H 139.94 0.600777 4.17095 0
M  V30 1452 H 138.664 -0.241287 3.25707 0
M  V30 1453 H 137.323 1.88814 3.14237 0
M  V30 1454 H 136.971 0.276783 5.02238 0
M  V30 1455 H 136.671 1.95433 5.54148 0
M  V30 1456 H 138.195 1.1415 5.99835 0
M  V30 1457 H 139.609 3.08914 4.82954 0
M  V30 1458 H 138.006 3.84781 4.60504 0
M  V30 1459 H 139.076 3.63673 3.20734 0
M  V30 1460 N 140.419 -1.14872 1.07899 0
M  V30 1461 C 141.83 -1.67367 0.827363 0
M  V30 1462 C 142.181 -1.85236 -0.646693 0
M  V30 1463 O 141.306 -1.55974 -1.50004 0
M  V30 1464 C 141.901 -3.04016 1.49532 0
M  V30 1465 C 140.46 -3.53566 1.29106 0
M  V30 1466 C 139.607 -2.29161 1.56143 0
M  V30 1467 H 142.558 -0.990083 1.24028 0
M  V30 1468 H 142.579 -3.69219 0.919643 0
M  V30 1469 H 142.091 -2.90978 2.56814 0
M  V30 1470 H 140.192 -3.71835 0.238713 0
M  V30 1471 H 140.305 -4.34661 2.01511 0
M  V30 1472 H 138.669 -2.34978 0.982717 0
M  V30 1473 H 139.452 -2.18705 2.64619 0
M  V30 1474 N 141.898 -0.863906 -1.31812 0
M  V30 1475 C 143.145 -0.471836 -1.96926 0
M  V30 1476 C 143.473 0.974578 -1.68322 0
M  V30 1477 O 142.728 1.7003 -0.968933 0
M  V30 1478 C 143.027 -0.668547 -3.51091 0
M  V30 1479 C 142.693 -2.08683 -3.99703 0
M  V30 1480 C 141.355 -2.47471 -4.12688 0
M  V30 1481 C 143.707 -3.01207 -4.25351 0
M  V30 1482 C 141.035 -3.78037 -4.4867 0
M  V30 1483 C 143.387 -4.31282 -4.62794 0
M  V30 1484 C 142.051 -4.69992 -4.73987 0
M  V30 1485 H 141.321 -0.172657 -0.720604 0
M  V30 1486 H 143.968 -1.09573 -1.57054 0
M  V30 1487 H 142.273 0.0385252 -3.91781 0
M  V30 1488 H 143.97 -0.345102 -3.99512 0
M  V30 1489 H 140.56 -1.77566 -3.90087 0
M  V30 1490 H 144.744 -2.72469 -4.14819 0
M  V30 1491 H 140 -4.078 -4.55532 0
M  V30 1492 H 144.174 -5.03031 -4.81594 0
M  V30 1493 H 141.801 -5.71207 -5.01624 0
M  V30 1494 N 143.376 1.44774 -0.622745 0
M  V30 1495 C 144.624 2.01721 -0.123655 0
M  V30 1496 C 144.945 1.49172 1.25589 0
M  V30 1497 O 144.215 0.691974 1.83272 0
M  V30 1498 H 142.795 0.745777 -0.0427225 0
M  V30 1499 H 145.457 1.77382 -0.807559 0
M  V30 1500 H 144.553 3.11984 -0.0849534 0
M  V30 1501 N 144.854 0.36279 1.53368 0
M  V30 1502 C 145.817 -0.472679 2.24273 0
M  V30 1503 C 146.817 -1.012 1.24961 0
M  V30 1504 O 148.007 -0.898194 1.49259 0
M  V30 1505 C 145.139 -1.66039 2.97731 0
M  V30 1506 H 146.332 0.14773 2.99536 0
M  V30 1507 H 143.885 0.114434 1.55881 0
M  V30 1508 H 144.62 -2.31896 2.26704 0
M  V30 1509 H 144.405 -1.28066 3.70596 0
M  V30 1510 H 145.895 -2.25252 3.51641 0
M  V30 1511 N 146.332 -1.57332 0.0918853 0
M  V30 1512 C 147.295 -2.12708 -0.85369 0
M  V30 1513 C 148.295 -1.05561 -1.213 0
M  V30 1514 O 149.485 -1.31461 -1.14296 0
M  V30 1515 C 146.617 -2.64503 -2.15061 0
M  V30 1516 H 147.81 -2.97573 -0.3729 0
M  V30 1517 H 145.363 -1.55509 -0.157072 0
M  V30 1518 H 146.098 -1.83149 -2.67632 0
M  V30 1519 H 145.883 -3.4284 -1.90272 0
M  V30 1520 H 147.373 -3.07351 -2.82711 0
M  V30 1521 N 147.81 0.181792 -1.56548 0
M  V30 1522 C 149.035 0.920019 -1.85877 0
M  V30 1523 C 149.46 1.75494 -0.677021 0
M  V30 1524 O 148.818 1.77399 0.374056 0
M  V30 1525 C 148.866 1.78112 -3.13542 0
M  V30 1526 O 147.97 2.88152 -2.95029 0
M  V30 1527 H 147.311 0.258334 -0.611686 0
M  V30 1528 H 149.841 0.183092 -2.03779 0
M  V30 1529 H 149.851 2.18314 -3.44678 0
M  V30 1530 H 148.526 1.16777 -3.99169 0
M  V30 1531 H 147.103 2.51609 -2.75222 0
M  V30 1532 N 149.288 1.51039 0.449983 0
M  V30 1533 C 150.513 1.6715 1.22783 0
M  V30 1534 C 150.938 0.363081 1.84563 0
M  V30 1535 O 150.296 -0.675433 1.68249 0
M  V30 1536 C 150.344 2.77985 2.29689 0
M  V30 1537 O 149.448 2.40707 3.34864 0
M  V30 1538 H 148.789 0.557746 0.360299 0
M  V30 1539 H 151.319 1.97535 0.533005 0
M  V30 1540 H 151.329 3.01693 2.74673 0
M  V30 1541 H 150.004 3.72935 1.84098 0
M  V30 1542 H 148.581 2.27523 2.95445 0
M  V30 1543 N 150.766 -0.704594 1.40972 0
M  V30 1544 C 151.996 -1.49138 1.42974 0
M  V30 1545 C 152.404 -1.89175 0.0308406 0
M  V30 1546 O 151.747 -1.56734 -0.958138 0
M  V30 1547 C 151.809 -2.79016 2.26694 0
M  V30 1548 C 151.473 -2.61236 3.74973 0
M  V30 1549 C 152.47 -2.27773 4.67349 0
M  V30 1550 C 150.155 -2.77158 4.18914 0
M  V30 1551 C 152.149 -2.10457 6.01653 0
M  V30 1552 C 149.836 -2.59459 5.53285 0
M  V30 1553 C 150.834 -2.26158 6.4447 0
M  V30 1554 O 150.522 -2.08605 7.76363 0
M  V30 1555 H 150.254 -0.466443 0.489292 0
M  V30 1556 H 152.808 -0.8758 1.85793 0
M  V30 1557 H 151.038 -3.42947 1.78673 0
M  V30 1558 H 152.727 -3.40782 2.20504 0
M  V30 1559 H 153.493 -2.15095 4.34694 0
M  V30 1560 H 149.372 -3.02064 3.48251 0
M  V30 1561 H 152.916 -1.84387 6.72791 0
M  V30 1562 H 148.813 -2.71725 5.85522 0
M  V30 1563 H 149.581 -2.23439 7.87412 0
M  V30 1564 N 152.244 -1.26651 -0.937939 0
M  V30 1565 C 153.174 -1.10993 -2.05433 0
M  V30 1566 C 154.155 -0.0142161 -1.70094 0
M  V30 1567 O 155.34 -0.186837 -1.93299 0
M  V30 1568 C 152.47 -0.745561 -3.39203 0
M  V30 1569 C 151.424 -1.79337 -3.88616 0
M  V30 1570 C 150.75 -1.28324 -5.19073 0
M  V30 1571 C 152.05 -3.19553 -4.13138 0
M  V30 1572 H 153.744 -2.0438 -2.1879 0
M  V30 1573 H 151.29 -0.984041 -1.05131 0
M  V30 1574 H 153.243 -0.622888 -4.16771 0
M  V30 1575 H 151.967 0.22401 -3.25831 0
M  V30 1576 H 150.626 -1.90477 -3.13231 0
M  V30 1577 H 150.274 -0.303414 -5.02084 0
M  V30 1578 H 149.974 -1.98369 -5.53103 0
M  V30 1579 H 151.498 -1.1733 -5.99221 0
M  V30 1580 H 152.912 -3.11471 -4.81309 0
M  V30 1581 H 151.309 -3.87218 -4.58457 0
M  V30 1582 H 152.379 -3.65368 -3.18801 0
M  V30 1583 N 153.722 1.14298 -1.08507 0
M  V30 1584 C 154.67 2.21483 -0.710483 0
M  V30 1585 C 155.664 1.66998 0.284234 0
M  V30 1586 O 156.87 1.79401 0.146692 0
M  V30 1587 H 153.245 0.721578 -0.211729 0
M  V30 1588 H 155.216 2.50348 -1.62384 0
M  V30 1589 C 153.965 3.4743 -0.137007 0
M  V30 1590 H 153.288 3.89686 -0.893592 0
M  V30 1591 H 154.728 4.2391 0.0872789 0
M  V30 1592 C 153.187 3.17548 1.12538 0
M  V30 1593 O 153.717 3.35437 2.21009 0
M  V30 1594 N 151.923 2.71499 1.03617 0
M  V30 1595 H 151.47 2.57143 0.153403 0
M  V30 1596 H 151.428 2.51881 1.88158 0
M  V30 1597 N 155.201 0.870884 1.31352 0
M  V30 1598 C 156.131 0.343096 2.30966 0
M  V30 1599 C 157.112 -0.566507 1.60389 0
M  V30 1600 O 158.297 -0.483336 1.88089 0
M  V30 1601 C 155.427 -0.455487 3.443 0
M  V30 1602 C 154.381 0.361103 4.26474 0
M  V30 1603 C 153.707 -0.563221 5.31725 0
M  V30 1604 C 155.007 1.59566 4.97329 0
M  V30 1605 H 156.701 1.17548 2.75359 0
M  V30 1606 H 154.247 0.566686 1.32381 0
M  V30 1607 H 156.2 -0.83525 4.13039 0
M  V30 1608 H 154.924 -1.32139 2.98675 0
M  V30 1609 H 153.583 0.722825 3.59403 0
M  V30 1610 H 153.231 -1.42643 4.82351 0
M  V30 1611 H 152.931 -0.0207409 5.87596 0
M  V30 1612 H 154.455 -0.939808 6.03324 0
M  V30 1613 H 155.869 1.28728 5.58661 0
M  V30 1614 H 154.266 2.07728 5.63 0
M  V30 1615 H 155.336 2.34798 4.24262 0
M  V30 1616 N 156.679 -1.44442 0.630414 0
M  V30 1617 C 157.589 -2.34476 -0.0761693 0
M  V30 1618 C 158.605 -1.52576 -0.836449 0
M  V30 1619 O 159.781 -1.85307 -0.788874 0
M  V30 1620 C 156.846 -3.30545 -1.04599 0
M  V30 1621 C 155.907 -4.28352 -0.28516 0
M  V30 1622 C 155.14 -5.19831 -1.20878 0
M  V30 1623 O 155.363 -5.15223 -2.44747 0
M  V30 1624 O 154.297 -5.97892 -0.693491 0
M  V30 1625 H 158.123 -2.96345 0.664324 0
M  V30 1626 H 155.708 -1.44203 0.39061 0
M  V30 1627 H 157.59 -3.89681 -1.60396 0
M  V30 1628 H 156.265 -2.7121 -1.76711 0
M  V30 1629 H 155.172 -3.72764 0.315837 0
M  V30 1630 H 156.505 -4.90605 0.395924 0
M  V30 1631 N 158.157 -0.370918 -1.53173 0
M  V30 1632 C 159.104 0.473035 -2.259 0
M  V30 1633 C 160.074 1.07311 -1.26781 0
M  V30 1634 O 161.259 1.1046 -1.55574 0
M  V30 1635 C 158.399 1.60405 -3.05556 0
M  V30 1636 C 157.512 1.02863 -4.19575 0
M  V30 1637 C 156.647 2.12918 -4.86661 0
M  V30 1638 C 155.686 1.52869 -5.92704 0
M  V30 1639 N 154.823 2.56779 -6.53459 0
M  V30 1640 H 159.663 -0.153649 -2.97604 0
M  V30 1641 H 157.2 -0.0875946 -1.46839 0
M  V30 1642 H 159.158 2.27034 -3.50016 0
M  V30 1643 H 157.788 2.20131 -2.36097 0
M  V30 1644 H 156.84 0.252465 -3.79561 0
M  V30 1645 H 158.152 0.549642 -4.95762 0
M  V30 1646 H 157.306 2.87356 -5.34333 0
M  V30 1647 H 156.045 2.6417 -4.09958 0
M  V30 1648 H 155.05 0.769479 -5.44389 0
M  V30 1649 H 156.275 1.02435 -6.7133 0
M  V30 1650 H 154.221 3.07235 -5.79606 0
M  V30 1651 H 154.138 2.13583 -7.25202 0
M  V30 1652 H 155.406 3.30903 -7.05779 0
M  V30 1653 N 159.635 1.57281 -0.100228 0
M  V30 1654 C 160.565 2.17328 0.853857 0
M  V30 1655 C 161.546 1.10804 1.2906 0
M  V30 1656 O 162.731 1.38963 1.35657 0
M  V30 1657 C 159.861 2.75772 2.11109 0
M  V30 1658 C 158.815 3.87713 1.81279 0
M  V30 1659 C 158.141 4.32882 3.13874 0
M  V30 1660 C 159.441 5.10677 1.09574 0
M  V30 1661 H 161.135 2.97305 0.353545 0
M  V30 1662 H 158.681 1.43009 0.168612 0
M  V30 1663 H 160.634 3.16433 2.78296 0
M  V30 1664 H 159.358 1.93057 2.63432 0
M  V30 1665 H 158.017 3.476 1.16489 0
M  V30 1666 H 157.665 3.47051 3.64095 0
M  V30 1667 H 157.365 5.08358 2.94696 0
M  V30 1668 H 158.889 4.7618 3.82211 0
M  V30 1669 H 160.303 5.48474 1.66879 0
M  V30 1670 H 158.7 5.91615 1.00557 0
M  V30 1671 H 159.77 4.84835 0.0793299 0
M  V30 1672 N 161.113 -0.173488 1.56642 0
M  V30 1673 C 162.361 -0.888706 1.81512 0
M  V30 1674 C 162.682 -1.82875 0.676872 0
M  V30 1675 O 161.952 -1.93536 -0.303414 0
M  V30 1676 H 160.532 -0.331164 0.669582 0
M  V30 1677 H 163.194 -0.173823 1.94123 0
M  V30 1678 H 162.29 -1.46691 2.75478 0
M  V30 1679 N 162.591 -1.51276 -0.441967 0
M  V30 1680 C 163.501 -1.75092 -1.56141 0
M  V30 1681 C 164.517 -0.634963 -1.62001 0
M  V30 1682 O 165.693 -0.916686 -1.79329 0
M  V30 1683 C 162.758 -1.86666 -2.92158 0
M  V30 1684 C 161.819 -3.10506 -2.96453 0
M  V30 1685 C 161.052 -3.21519 -4.25982 0
M  V30 1686 O 161.275 -2.38586 -5.18105 0
M  V30 1687 O 160.209 -4.14465 -4.36466 0
M  V30 1688 H 164.035 -2.70044 -1.38961 0
M  V30 1689 H 161.62 -1.35722 -0.624499 0
M  V30 1690 H 163.502 -1.96292 -3.72891 0
M  V30 1691 H 162.177 -0.949014 -3.09476 0
M  V30 1692 H 161.084 -3.06363 -2.14692 0
M  V30 1693 H 162.417 -4.01945 -2.84079 0
M  V30 1694 N 164.069 0.697108 -1.41344 0
M  V30 1695 C 165.317 1.45426 -1.40341 0
M  V30 1696 C 165.638 1.94996 -0.0128787 0
M  V30 1697 O 164.908 1.71599 0.945027 0
M  V30 1698 H 163.488 0.539594 -0.516573 0
M  V30 1699 H 166.15 0.825201 -1.76569 0
M  V30 1700 H 165.246 2.31817 -2.08967 0
M  V30 1701 N 165.547 1.27147 0.931209 0
M  V30 1702 C 166.772 1.16191 1.71797 0
M  V30 1703 C 167.197 -0.278004 1.86034 0
M  V30 1704 O 166.555 -1.20137 1.35782 0
M  V30 1705 C 166.603 1.84673 3.09723 0
M  V30 1706 O 165.707 1.14231 3.96264 0
M  V30 1707 H 165.048 0.404303 0.526721 0
M  V30 1708 H 167.578 1.68152 1.1656 0
M  V30 1709 H 167.588 1.91893 3.60057 0
M  V30 1710 H 166.263 2.89421 2.98677 0
M  V30 1711 H 164.84 1.15056 3.54706 0
M  V30 1712 N 167.025 -1.13721 1.09112 0
M  V30 1713 C 168.255 -1.88499 0.845671 0
M  V30 1714 C 168.663 -1.79218 -0.606432 0
M  V30 1715 O 168.006 -1.1544 -1.42896 0
M  V30 1716 C 168.068 -3.38954 1.19793 0
M  V30 1717 C 167.732 -3.72018 2.65428 0
M  V30 1718 C 168.729 -3.7153 3.63677 0
M  V30 1719 C 166.414 -4.01775 3.01467 0
M  V30 1720 C 168.408 -4.00336 4.95994 0
M  V30 1721 C 166.095 -4.30243 4.33975 0
M  V30 1722 C 167.093 -4.29508 5.31048 0
M  V30 1723 O 166.781 -4.5728 6.61173 0
M  V30 1724 H 166.513 -0.603702 0.304171 0
M  V30 1725 H 169.067 -1.44903 1.45576 0
M  V30 1726 H 167.297 -3.83039 0.530871 0
M  V30 1727 H 168.986 -3.95052 0.932146 0
M  V30 1728 H 169.752 -3.4862 3.37179 0
M  V30 1729 H 165.631 -4.01496 2.26544 0
M  V30 1730 H 169.175 -3.99678 5.71755 0
M  V30 1731 H 165.072 -4.52625 4.60219 0
M  V30 1732 H 165.84 -4.74964 6.66597 0
M  V30 1733 N 168.503 -0.877838 -1.30888 0
M  V30 1734 C 169.466 -0.344265 -2.266 0
M  V30 1735 C 170.466 0.50922 -1.52524 0
M  V30 1736 O 171.656 0.317398 -1.71284 0
M  V30 1737 C 168.788 0.510198 -3.37061 0
M  V30 1738 H 169.981 -1.1893 -2.7531 0
M  V30 1739 H 167.534 -0.654088 -1.41956 0
M  V30 1740 H 168.269 1.37612 -2.93655 0
M  V30 1741 H 168.054 -0.101047 -3.9197 0
M  V30 1742 H 169.544 0.875537 -4.08319 0
M  V30 1743 N 169.982 1.44106 -0.638065 0
M  V30 1744 C 171.21 2.06336 -0.152615 0
M  V30 1745 C 171.625 1.47731 1.17563 0
M  V30 1746 O 170.982 0.602806 1.72257 0
M  V30 1747 C 171.033 3.61479 -0.0391491 0
M  V30 1748 O 170.754 4.17903 -1.31487 0
M  V30 1749 C 172.255 4.40757 0.474176 0
M  V30 1750 H 169.475 0.665862 -0.0828776 0
M  V30 1751 H 172.019 1.84862 -0.87443 0
M  V30 1752 H 170.174 3.82191 0.633142 0
M  V30 1753 H 170.588 5.11416 -1.16421 0
M  V30 1754 H 172.062 5.49707 0.502562 0
M  V30 1755 H 172.539 4.12697 1.50258 0
M  V30 1756 H 173.145 4.24979 -0.165102 0
M  V30 1757 N 171.46 0.379036 1.52974 0
M  V30 1758 C 172.706 -0.206727 2.01744 0
M  V30 1759 C 173.039 -1.47314 1.26539 0
M  V30 1760 O 172.314 -1.91084 0.362903 0
M  V30 1761 C 172.597 -0.485066 3.56818 0
M  V30 1762 C 172.45 0.795919 4.42702 0
M  V30 1763 C 173.769 -1.28003 4.21074 0
M  V30 1764 H 170.888 -0.0736607 0.73331 0
M  V30 1765 H 173.53 0.506581 1.83122 0
M  V30 1766 H 171.68 -1.09272 3.72816 0
M  V30 1767 H 173.352 1.43307 4.38476 0
M  V30 1768 H 171.595 1.41344 4.10127 0
M  V30 1769 H 172.266 0.555947 5.49193 0
M  V30 1770 H 174.742 -0.765867 4.08991 0
M  V30 1771 H 173.618 -1.44352 5.29579 0
M  V30 1772 H 173.879 -2.29236 3.78026 0
M  V30 1773 N 172.938 -1.57226 0.108567 0
M  V30 1774 C 174.168 -1.9889 -0.559142 0
M  V30 1775 C 174.576 -0.986889 -1.61422 0
M  V30 1776 O 173.919 0.0298705 -1.83676 0
M  V30 1777 C 173.981 -3.36952 -1.25315 0
M  V30 1778 C 173.645 -4.55679 -0.347248 0
M  V30 1779 C 174.642 -5.18281 0.409996 0
M  V30 1780 C 172.327 -5.0162 -0.261367 0
M  V30 1781 C 174.321 -6.25203 1.24096 0
M  V30 1782 C 172.008 -6.08405 0.573238 0
M  V30 1783 C 173.006 -6.70063 1.32304 0
M  V30 1784 O 172.694 -7.74788 2.14381 0
M  V30 1785 H 172.426 -0.658343 -0.153492 0
M  V30 1786 H 174.98 -2.04532 0.188584 0
M  V30 1787 H 173.21 -3.28032 -2.04773 0
M  V30 1788 H 174.899 -3.62974 -1.81673 0
M  V30 1789 H 175.665 -4.8371 0.353457 0
M  V30 1790 H 171.544 -4.53381 -0.834656 0
M  V30 1791 H 175.088 -6.73259 1.82669 0
M  V30 1792 H 170.985 -6.42406 0.631208 0
M  V30 1793 H 171.753 -7.91837 2.07209 0
M  V30 1794 N 174.416 0.165178 -1.56732 0
M  V30 1795 C 175.363 1.2044 -1.96883 0
M  V30 1796 C 176.333 1.43664 -0.833657 0
M  V30 1797 O 177.518 1.56302 -1.09427 0
M  V30 1798 C 174.658 2.53727 -2.33916 0
M  V30 1799 C 173.771 2.3783 -3.6064 0
M  V30 1800 C 172.906 3.64026 -3.86857 0
M  V30 1801 C 171.945 3.43088 -5.06909 0
M  V30 1802 N 171.082 4.61369 -5.29229 0
M  V30 1803 H 175.922 0.854996 -2.85471 0
M  V30 1804 H 173.459 0.41076 -1.41249 0
M  V30 1805 H 175.417 3.31419 -2.53411 0
M  V30 1806 H 174.047 2.8665 -1.48431 0
M  V30 1807 H 173.099 1.51282 -3.49024 0
M  V30 1808 H 174.411 2.18308 -4.4849 0
M  V30 1809 H 173.565 4.50152 -4.06753 0
M  V30 1810 H 172.304 3.86533 -2.97394 0
M  V30 1811 H 171.309 2.55349 -4.86906 0
M  V30 1812 H 172.534 3.21997 -5.97909 0
M  V30 1813 H 170.48 4.84084 -4.42718 0
M  V30 1814 H 170.397 4.44783 -6.11313 0
M  V30 1815 H 171.665 5.48761 -5.53608 0
M  V30 1816 N 175.894 1.51508 0.433938 0
M  V30 1817 C 177.142 1.6402 1.18075 0
M  V30 1818 C 177.463 0.360328 1.91642 0
M  V30 1819 O 176.733 -0.623945 1.85698 0
M  V30 1820 H 175.313 0.6045 0.43885 0
M  V30 1821 H 177.975 1.88452 0.497178 0
M  V30 1822 H 177.071 2.46949 1.90847 0
M  V30 1823 N 177.372 -0.689602 1.41712 0
M  V30 1824 C 178.621 -1.44534 1.40686 0
M  V30 1825 C 178.934 -1.95588 0.0213352 0
M  V30 1826 O 180.14 -2.71271 -0.111534 0
M  V30 1827 C 178.596 -2.61387 2.47396 0
M  V30 1828 C 178.204 -2.17094 3.91885 0
M  V30 1829 C 179.948 -3.38986 2.55517 0
M  V30 1830 C 177.855 -3.3094 4.90135 0
M  V30 1831 H 176.785 -0.542925 0.52321 0
M  V30 1832 H 179.436 -0.748054 1.6756 0
M  V30 1833 H 177.818 -3.33412 2.13664 0
M  V30 1834 H 178.992 -1.52318 4.34897 0
M  V30 1835 H 177.307 -1.52473 3.8748 0
M  V30 1836 H 179.904 -4.23747 3.26102 0
M  V30 1837 H 180.247 -3.84578 1.59391 0
M  V30 1838 H 180.78 -2.74021 2.8837 0
M  V30 1839 H 177.519 -2.90355 5.87685 0
M  V30 1840 H 177.039 -3.94546 4.51767 0
M  V30 1841 H 178.718 -3.9663 5.11169 0
M  V30 1842 N 178.85 -1.27639 -0.924453 0
M  V30 1843 C 180.075 -1.17101 -1.71179 0
M  V30 1844 C 180.5 0.268134 -1.86179 0
M  V30 1845 O 179.858 1.19415 -1.36418 0
M  V30 1846 C 179.906 -1.86313 -3.08739 0
M  V30 1847 O 179.01 -1.16331 -3.95652 0
M  V30 1848 H 178.351 -0.407091 -0.524569 0
M  V30 1849 H 180.881 -1.68767 -1.15666 0
M  V30 1850 H 180.891 -1.938 -3.59034 0
M  V30 1851 H 179.566 -2.91001 -2.97138 0
M  V30 1852 H 178.143 -1.16935 -3.54091 0
M  V30 1853 N 180.328 1.1314 -1.09713 0
M  V30 1854 C 181.744 1.36477 -0.827423 0
M  V30 1855 C 181.944 1.93654 0.556817 0
M  V30 1856 O 181 2.15791 1.31112 0
M  V30 1857 C 182.313 2.31334 -1.92106 0
M  V30 1858 C 183.861 2.44943 -1.94864 0
M  V30 1859 C 184.336 3.4311 -3.0338 0
M  V30 1860 N 185.827 3.50662 -3.02639 0
M  V30 1861 C 186.562 4.2651 -3.83246 0
M  V30 1862 N 186.058 5.05485 -4.73768 0
M  V30 1863 N 187.851 4.2184 -3.71493 0
M  V30 1864 H 180.002 0.743807 -1.9895 0
M  V30 1865 H 182.265 0.389823 -0.864143 0
M  V30 1866 H 181.971 1.96483 -2.91698 0
M  V30 1867 H 181.845 3.31381 -1.80184 0
M  V30 1868 H 184.232 2.79079 -0.959099 0
M  V30 1869 H 184.313 1.4481 -2.10864 0
M  V30 1870 H 183.957 3.09704 -4.02549 0
M  V30 1871 H 183.887 4.43055 -2.84622 0
M  V30 1872 H 186.378 2.94315 -2.37039 0
M  V30 1873 H 186.691 5.60675 -5.3185 0
M  V30 1874 H 185.036 5.04708 -4.77802 0
M  V30 1875 H 188.227 3.5922 -3.00131 0
M  V30 1876 H 188.4 4.80697 -4.3455 0
M  V30 1877 N 181.806 0.884767 1.30421 0
M  V30 1878 C 183.055 0.499164 1.95426 0
M  V30 1879 C 183.368 -0.95645 1.70621 0
M  V30 1880 O 184.574 -1.44889 2.29607 0
M  V30 1881 C 183.03 0.84177 3.49917 0
M  V30 1882 C 182.638 2.31514 3.83543 0
M  V30 1883 C 184.382 0.525355 4.21237 0
M  V30 1884 C 182.289 2.59939 5.31212 0
M  V30 1885 H 181.219 0.182944 0.73147 0
M  V30 1886 H 183.87 1.07971 1.48373 0
M  V30 1887 H 182.252 0.190311 3.95542 0
M  V30 1888 H 183.426 3.0109 3.48829 0
M  V30 1889 H 181.741 2.59907 3.25326 0
M  V30 1890 H 184.338 0.714762 5.29901 0
M  V30 1891 H 184.681 -0.535222 4.12845 0
M  V30 1892 H 185.214 1.134 3.81294 0
M  V30 1893 H 181.953 3.64736 5.44654 0
M  V30 1894 H 181.473 1.94972 5.67227 0
M  V30 1895 H 183.152 2.45429 5.98643 0
M  V30 1896 N 183.284 -1.43765 0.645699 0
M  V30 1897 C 184.232 -2.32516 -0.0624849 0
M  V30 1898 C 185.226 -1.48183 -0.820855 0
M  V30 1899 O 186.432 -1.64439 -0.732106 0
M  V30 1900 H 182.807 -0.750989 -0.0389864 0
M  V30 1901 H 184.778 -2.89979 0.703892 0
M  V30 1902 C 183.527 -3.32389 -1.02044 0
M  V30 1903 H 182.85 -3.97301 -0.446312 0
M  V30 1904 H 184.29 -3.97138 -1.48517 0
M  V30 1905 C 182.749 -2.62416 -2.11281 0
M  V30 1906 O 183.279 -2.434 -3.19561 0
M  V30 1907 N 181.485 -2.21913 -1.87624 0
M  V30 1908 H 181.032 -2.37578 -0.995703 0
M  V30 1909 H 180.99 -1.75424 -2.6091 0
M  V30 1910 N 184.763 -0.387143 -1.52771 0
M  V30 1911 C 186.011 0.195349 -2.01154 0
M  V30 1912 C 186.332 1.475 -1.27549 0
M  V30 1913 O 185.602 1.91878 -0.394924 0
M  V30 1914 H 184.182 0.075178 -0.743207 0
M  V30 1915 H 186.844 -0.518337 -1.87881 0
M  V30 1916 H 185.94 0.407096 -3.09434 0
M  V30 1917 N 186.241 1.57166 -0.116904 0
M  V30 1918 C 187.173 2.12271 0.864507 0
M  V30 1919 C 188.186 1.06494 1.23138 0
M  V30 1920 O 189.375 1.33873 1.18069 0
M  V30 1921 C 186.475 2.60564 2.16702 0
M  V30 1922 C 185.648 3.90416 1.97216 0
M  V30 1923 C 184.707 4.24329 3.11178 0
M  V30 1924 O 183.733 4.93182 2.84184 0
M  V30 1925 N 184.935 3.8148 4.37554 0
M  V30 1926 H 187.7 2.97102 0.393726 0
M  V30 1927 H 185.261 1.61759 0.0675805 0
M  V30 1928 H 187.253 2.80282 2.91932 0
M  V30 1929 H 185.823 1.80623 2.55135 0
M  V30 1930 H 185.043 3.79627 1.06192 0
M  V30 1931 H 186.331 4.75327 1.81499 0
M  V30 1932 H 185.729 3.25943 4.62361 0
M  V30 1933 H 184.286 4.06311 5.09661 0
M  V30 1934 N 187.719 -0.156864 1.56817 0
M  V30 1935 C 188.649 -1.19589 2.00551 0
M  V30 1936 C 189.63 -1.4536 0.883426 0
M  V30 1937 O 190.815 -1.56449 1.15054 0
M  V30 1938 C 187.945 -2.53143 2.37773 0
M  V30 1939 C 186.899 -2.41913 3.53075 0
M  V30 1940 C 186.225 -3.80088 3.76081 0
M  V30 1941 C 187.525 -1.91157 4.86062 0
M  V30 1942 H 189.219 -0.832293 2.87599 0
M  V30 1943 H 186.765 -0.398918 1.38364 0
M  V30 1944 H 188.718 -3.26047 2.66967 0
M  V30 1945 H 187.442 -2.91319 1.4765 0
M  V30 1946 H 186.101 -1.71462 3.24031 0
M  V30 1947 H 185.749 -4.15683 2.83225 0
M  V30 1948 H 185.449 -3.73439 4.53671 0
M  V30 1949 H 186.973 -4.54556 4.0769 0
M  V30 1950 H 188.387 -2.53846 5.14038 0
M  V30 1951 H 186.784 -1.95422 5.67389 0
M  V30 1952 H 187.854 -0.866673 4.77092 0
M  V30 1953 N 189.197 -1.51736 -0.425897 0
M  V30 1954 C 190.443 -1.65214 -1.1761 0
M  V30 1955 C 190.776 -0.372778 -1.90589 0
M  V30 1956 O 190.051 0.628139 -1.84078 0
M  V30 1957 C 190.334 -2.86312 -2.18398 0
M  V30 1958 C 190.187 -4.24254 -1.49426 0
M  V30 1959 C 191.506 -3.02925 -3.19256 0
M  V30 1960 H 188.625 -0.601263 -0.426206 0
M  V30 1961 H 191.267 -1.8425 -0.463882 0
M  V30 1962 H 189.417 -2.70213 -2.79137 0
M  V30 1963 H 191.089 -4.52046 -0.919362 0
M  V30 1964 H 189.332 -4.26426 -0.796432 0
M  V30 1965 H 190.003 -5.05001 -2.22885 0
M  V30 1966 H 192.479 -3.1781 -2.68581 0
M  V30 1967 H 191.355 -3.89199 -3.8706 0
M  V30 1968 H 191.616 -2.15497 -3.86023 0
M  V30 1969 N 190.675 0.682077 -1.42076 0
M  V30 1970 C 191.638 1.77756 -1.44691 0
M  V30 1971 C 192.638 1.5726 -0.335535 0
M  V30 1972 O 193.828 1.63686 -0.596037 0
M  V30 1973 C 190.96 3.16301 -1.27146 0
M  V30 1974 H 192.153 1.76826 -2.42224 0
M  V30 1975 H 189.706 0.891012 -1.28416 0
M  V30 1976 H 190.441 3.22862 -0.305075 0
M  V30 1977 H 190.226 3.32581 -2.07683 0
M  V30 1978 H 191.716 3.96241 -1.31843 0
M  V30 1979 N 192.153 1.28127 0.917671 0
M  V30 1980 C 193.083 1.14248 2.03641 0
M  V30 1981 C 194.064 0.0412748 1.7005 0
M  V30 1982 O 195.249 0.217566 1.92977 0
M  V30 1983 C 192.379 0.799431 3.37974 0
M  V30 1984 C 191.333 1.85497 3.85713 0
M  V30 1985 C 190.659 1.36565 5.16966 0
M  V30 1986 C 191.959 3.26085 4.08002 0
M  V30 1987 H 193.653 2.07835 2.15511 0
M  V30 1988 H 191.199 1.00064 1.03553 0
M  V30 1989 H 193.152 0.689114 4.15727 0
M  V30 1990 H 191.876 -0.172145 3.26146 0
M  V30 1991 H 190.535 1.95437 3.10161 0
M  V30 1992 H 190.183 0.383253 5.01538 0
M  V30 1993 H 189.883 2.07143 5.49878 0
M  V30 1994 H 191.407 1.26848 5.97279 0
M  V30 1995 H 192.821 3.19089 4.76293 0
M  V30 1996 H 191.218 3.94462 4.52238 0
M  V30 1997 H 192.288 3.70394 3.12948 0
M  V30 1998 N 193.631 -1.12557 1.10312 0
M  V30 1999 C 194.578 -2.18247 0.750781 0
M  V30 2000 C 195.548 -1.63853 -0.272293 0
M  V30 2001 O 196.733 -1.90195 -0.151862 0
M  V30 2002 C 193.873 -3.44591 0.187379 0
M  V30 2003 C 192.986 -4.13046 1.2656 0
M  V30 2004 C 192.121 -5.27034 0.663978 0
M  V30 2005 C 191.16 -5.87353 1.72287 0
M  V30 2006 N 190.297 -6.92757 1.1416 0
M  V30 2007 H 195.137 -2.47732 1.65628 0
M  V30 2008 H 192.674 -1.21629 0.827337 0
M  V30 2009 H 194.632 -4.16904 -0.157148 0
M  V30 2010 H 193.262 -3.15527 -0.681355 0
M  V30 2011 H 192.314 -3.38924 1.72727 0
M  V30 2012 H 193.626 -4.53947 2.06721 0
M  V30 2013 H 192.78 -6.06104 0.268824 0
M  V30 2014 H 191.519 -4.87407 -0.169082 0
M  V30 2015 H 190.524 -5.06971 2.12746 0
M  V30 2016 H 191.749 -6.29051 2.55875 0
M  V30 2017 H 189.695 -6.5517 0.329984 0
M  V30 2018 H 189.612 -7.3225 1.88007 0
M  V30 2019 H 190.88 -7.75658 0.772956 0
M  V30 2020 N 195.109 -0.891671 -1.2995 0
M  V30 2021 C 196.355 -0.514261 -1.96171 0
M  V30 2022 C 196.688 0.935506 -1.70182 0
M  V30 2023 O 195.963 1.66204 -1.01028 0
M  V30 2024 C 196.246 -0.797719 -3.51153 0
M  V30 2025 C 196.099 -2.2986 -3.86632 0
M  V30 2026 C 197.418 -0.278749 -4.39216 0
M  V30 2027 H 194.537 -0.188314 -0.712535 0
M  V30 2028 H 197.179 -1.11689 -1.53706 0
M  V30 2029 H 195.329 -0.284826 -3.87455 0
M  V30 2030 H 197.001 -2.88042 -3.60319 0
M  V30 2031 H 195.244 -2.76257 -3.34462 0
M  V30 2032 H 195.915 -2.44753 -4.94773 0
M  V30 2033 H 198.391 -0.717825 -4.09862 0
M  V30 2034 H 197.267 -0.506353 -5.46559 0
M  V30 2035 H 197.528 0.820266 -4.34424 0
M  V30 2036 N 196.587 1.43421 -0.653314 0
M  V30 2037 C 197.836 2.01032 -0.164076 0
M  V30 2038 C 198.149 1.52147 1.22926 0
M  V30 2039 O 199.355 2.02031 1.81371 0
M  V30 2040 C 197.811 3.59082 -0.24252 0
M  V30 2041 C 197.419 4.1696 -1.63855 0
M  V30 2042 C 199.163 4.24079 0.18911 0
M  V30 2043 C 197.07 5.67304 -1.67092 0
M  V30 2044 H 196 0.751798 -0.0575769 0
M  V30 2045 H 198.651 1.6439 -0.815362 0
M  V30 2046 H 197.033 3.93125 0.476276 0
M  V30 2047 H 198.207 3.94416 -2.38271 0
M  V30 2048 H 196.522 3.64335 -2.01616 0
M  V30 2049 H 199.119 5.34381 0.184775 0
M  V30 2050 H 199.462 3.98005 1.22056 0
M  V30 2051 H 199.995 3.94918 -0.477938 0
M  V30 2052 H 196.734 5.98145 -2.68146 0
M  V30 2053 H 196.254 5.91904 -0.970014 0
M  V30 2054 H 197.933 6.31344 -1.4147 0
M  V30 2055 N 198.065 0.39524 1.52563 0
M  V30 2056 C 199.29 -0.187456 2.06551 0
M  V30 2057 C 199.715 -1.39249 1.26457 0
M  V30 2058 O 199.073 -1.78947 0.291151 0
M  V30 2059 C 199.121 -0.529985 3.56684 0
M  V30 2060 O 198.225 -1.62307 3.79118 0
M  V30 2061 H 197.566 -0.0202537 0.663691 0
M  V30 2062 H 200.096 0.564426 1.96661 0
M  V30 2063 H 200.106 -0.792598 4.00227 0
M  V30 2064 H 198.781 0.350987 4.14416 0
M  V30 2065 H 197.358 -1.3537 3.47461 0
M  V30 2066 N 199.544 -1.57102 0.125237 0
M  V30 2067 C 200.477 -2.11371 -0.860094 0
M  V30 2068 C 201.455 -1.03168 -1.25679 0
M  V30 2069 O 202.639 -1.30862 -1.35674 0
M  V30 2070 C 199.766 -2.61555 -2.1519 0
M  V30 2071 C 198.812 -3.81701 -1.9028 0
M  V30 2072 S 199.645 -5.23797 -1.11343 0
M  V30 2073 C 200.801 -5.77353 -2.41689 0
M  V30 2074 H 201.034 -2.94617 -0.39852 0
M  V30 2075 H 198.567 -1.54145 -0.0886555 0
M  V30 2076 H 200.525 -2.91122 -2.89411 0
M  V30 2077 H 199.186 -1.78479 -2.58465 0
M  V30 2078 H 198.379 -4.14985 -2.86014 0
M  V30 2079 H 197.981 -3.52783 -1.24178 0
M  V30 2080 H 200.273 -5.87458 -3.37489 0
M  V30 2081 H 201.216 -6.75323 -2.12942 0
M  V30 2082 H 201.624 -5.05457 -2.51342 0
M  V30 2083 N 201.022 0.148545 -1.56898 0
M  V30 2084 C 201.97 1.20265 -1.99096 0
M  V30 2085 C 202.964 1.44559 -0.883123 0
M  V30 2086 O 204.17 1.4487 -1.0683 0
M  V30 2087 H 200.545 0.404786 -0.63376 0
M  V30 2088 H 202.516 0.82004 -2.86911 0
M  V30 2089 C 201.265 2.52886 -2.3863 0
M  V30 2090 H 200.588 2.35021 -3.23427 0
M  V30 2091 H 202.028 3.25274 -2.7198 0
M  V30 2092 C 200.487 3.13315 -1.23837 0
M  V30 2093 O 201.017 3.98077 -0.538268 0
M  V30 2094 N 199.223 2.72742 -1.00301 0
M  V30 2095 H 198.77 2.03912 -1.5741 0
M  V30 2096 H 198.728 3.13507 -0.236838 0
M  V30 2097 N 202.5 1.5196 0.417844 0
M  V30 2098 C 203.463 1.74065 1.49111 0
M  V30 2099 C 204.463 0.610537 1.48758 0
M  V30 2100 O 205.653 0.87832 1.50437 0
M  V30 2101 C 202.785 1.81502 2.88565 0
M  V30 2102 H 203.978 2.69869 1.30807 0
M  V30 2103 H 201.531 1.42244 0.647785 0
M  V30 2104 H 202.266 0.875813 3.1225 0
M  V30 2105 H 202.051 2.63651 2.90225 0
M  V30 2106 H 203.541 2.00376 3.66387 0
M  V30 2107 N 203.978 -0.674533 1.42435 0
M  V30 2108 C 204.888 -1.81751 1.48337 0
M  V30 2109 C 205.904 -1.69975 0.372099 0
M  V30 2110 O 207.08 -1.91521 0.62304 0
M  V30 2111 C 204.145 -3.17895 1.38361 0
M  V30 2112 C 203.206 -3.41625 2.59982 0
M  V30 2113 C 202.439 -4.71274 2.50473 0
M  V30 2114 O 202.662 -5.49197 1.54075 0
M  V30 2115 O 201.596 -4.96254 3.4061 0
M  V30 2116 H 205.422 -1.79728 2.44809 0
M  V30 2117 H 203.007 -0.830312 1.24202 0
M  V30 2118 H 204.889 -3.99136 1.35161 0
M  V30 2119 H 203.564 -3.20555 0.450144 0
M  V30 2120 H 202.471 -2.60231 2.68757 0
M  V30 2121 H 203.804 -3.43796 3.52229 0
M  V30 2122 N 205.456 -1.28612 -0.910864 0
M  V30 2123 C 206.366 -1.14643 -2.0468 0
M  V30 2124 C 207.382 -0.0723121 -1.7385 0
M  V30 2125 O 208.558 -0.282178 -1.99413 0
M  V30 2126 C 205.623 -0.812561 -3.37044 0
M  V30 2127 C 204.684 -1.96935 -3.81465 0
M  V30 2128 C 203.917 -1.65131 -5.07511 0
M  V30 2129 O 204.14 -0.567013 -5.67575 0
M  V30 2130 O 203.074 -2.49585 -5.47714 0
M  V30 2131 H 206.9 -2.1001 -2.19384 0
M  V30 2132 H 204.485 -1.07958 -1.03274 0
M  V30 2133 H 206.367 -0.640441 -4.16505 0
M  V30 2134 H 205.042 0.111426 -3.23508 0
M  V30 2135 H 203.949 -2.19664 -3.02818 0
M  V30 2136 H 205.282 -2.87414 -3.99567 0
M  V30 2137 N 206.934 1.1197 -1.10907 0
M  V30 2138 C 208.182 1.83225 -0.852819 0
M  V30 2139 C 208.503 1.84769 0.623341 0
M  V30 2140 O 207.773 1.3143 1.45269 0
M  V30 2141 H 206.353 0.67849 -0.312507 0
M  V30 2142 H 209.015 1.3556 -1.40033 0
M  V30 2143 H 208.111 2.87265 -1.22005 0
M  V30 2144 N 208.412 0.89855 1.29475 0
M  V30 2145 C 209.658 0.524658 1.95896 0
M  V30 2146 C 209.991 -0.926468 1.70676 0
M  V30 2147 O 209.266 -1.65665 1.01908 0
M  V30 2148 C 209.549 0.81633 3.50725 0
M  V30 2149 C 209.402 2.31907 3.85408 0
M  V30 2150 C 210.721 0.302038 4.39062 0
M  V30 2151 H 207.84 0.19209 0.711527 0
M  V30 2152 H 210.482 1.12502 1.53112 0
M  V30 2153 H 208.632 0.305369 3.87298 0
M  V30 2154 H 210.304 2.89949 3.58786 0
M  V30 2155 H 208.547 2.78027 3.32992 0
M  V30 2156 H 209.218 2.47373 4.93468 0
M  V30 2157 H 211.694 0.739551 4.09475 0
M  V30 2158 H 210.57 0.535331 5.46283 0
M  V30 2159 H 210.831 -0.797216 4.34853 0
M  V30 2160 N 209.89 -1.43072 0.660911 0
M  V30 2161 C 211.301 -1.84932 0.256348 0
M  V30 2162 C 211.652 -1.55325 -1.19868 0
M  V30 2163 O 210.777 -1.00607 -1.91591 0
M  V30 2164 C 211.372 -3.35684 0.458475 0
M  V30 2165 C 209.931 -3.76245 0.108161 0
M  V30 2166 C 209.078 -2.66749 0.757641 0
M  V30 2167 H 212.029 -1.33116 0.864051 0
M  V30 2168 H 212.05 -3.79365 -0.293683 0
M  V30 2169 H 211.562 -3.572 1.51755 0
M  V30 2170 H 209.663 -3.60338 -0.948014 0
M  V30 2171 H 209.776 -4.76058 0.538992 0
M  V30 2172 H 208.14 -2.53989 0.190185 0
M  V30 2173 H 208.923 -2.91092 1.81989 0
M  V30 2174 N 211.368 -0.403325 -1.52352 0
M  V30 2175 C 212.615 0.174347 -2.01748 0
M  V30 2176 C 212.943 1.45636 -1.2892 0
M  V30 2177 O 212.198 1.9193 -0.382258 0
M  V30 2178 C 212.497 0.474665 -3.54234 0
M  V30 2179 C 212.163 -0.717458 -4.45155 0
M  V30 2180 C 210.825 -1.04447 -4.69728 0
M  V30 2181 C 213.177 -1.51432 -4.98716 0
M  V30 2182 C 210.505 -2.16963 -5.45109 0
M  V30 2183 C 212.857 -2.6302 -5.75329 0
M  V30 2184 C 211.521 -2.96213 -5.98175 0
M  V30 2185 H 210.791 0.0637981 -0.738248 0
M  V30 2186 H 213.438 -0.543553 -1.83624 0
M  V30 2187 H 211.743 1.27406 -3.70506 0
M  V30 2188 H 213.44 0.934496 -3.89959 0
M  V30 2189 H 210.03 -0.452596 -4.26204 0
M  V30 2190 H 214.214 -1.27491 -4.79645 0
M  V30 2191 H 209.47 -2.43034 -5.61021 0
M  V30 2192 H 213.644 -3.25158 -6.15829 0
M  V30 2193 H 211.271 -3.83516 -6.56368 0
M  V30 2194 N 212.846 1.57033 -0.133567 0
M  V30 2195 C 214.074 2.00044 0.528195 0
M  V30 2196 C 214.489 1.01349 1.59291 0
M  V30 2197 O 213.846 0.00848369 1.82498 0
M  V30 2198 C 213.897 3.43018 1.1411 0
M  V30 2199 O 213.618 4.37939 0.11892 0
M  V30 2200 C 215.119 4.01237 1.88477 0
M  V30 2201 H 212.339 0.656517 0.138661 0
M  V30 2202 H 214.883 2.03267 -0.224196 0
M  V30 2203 H 213.038 3.40688 1.84418 0
M  V30 2204 H 213.452 5.21436 0.56613 0
M  V30 2205 H 214.926 5.03314 2.26669 0
M  V30 2206 H 215.403 3.41193 2.76558 0
M  V30 2207 H 216.009 4.07156 1.22898 0
M  V30 2208 N 214.325 -0.140222 1.56975 0
M  V30 2209 C 215.288 -1.15689 1.97861 0
M  V30 2210 C 216.288 -1.3549 0.865974 0
M  V30 2211 O 217.478 -1.32367 1.13246 0
M  V30 2212 C 214.61 -2.51582 2.30042 0
M  V30 2213 H 215.803 -0.805971 2.88867 0
M  V30 2214 H 213.356 -0.383801 1.51515 0
M  V30 2215 H 214.091 -2.91632 1.41849 0
M  V30 2216 H 213.876 -2.38569 3.11171 0
M  V30 2217 H 215.366 -3.24792 2.62488 0
M  V30 2218 N 215.803 -1.52179 -0.40978 0
M  V30 2219 C 217.052 -1.65434 -1.15388 0
M  V30 2220 C 217.365 -0.390056 -1.91671 0
M  V30 2221 O 218.571 -0.402399 -2.68501 0
M  V30 2222 C 217.027 -2.92279 -2.10003 0
M  V30 2223 C 216.635 -4.25813 -1.39239 0
M  V30 2224 C 218.379 -3.14897 -2.84675 0
M  V30 2225 C 216.286 -5.43782 -2.32498 0
M  V30 2226 H 215.216 -0.616267 -0.434432 0
M  V30 2227 H 217.867 -1.78666 -0.418401 0
M  V30 2228 H 216.249 -2.72744 -2.871 0
M  V30 2229 H 217.423 -4.55828 -0.675099 0
M  V30 2230 H 215.738 -4.09292 -0.766097 0
M  V30 2231 H 218.335 -4.0021 -3.54593 0
M  V30 2232 H 218.678 -2.29103 -3.47588 0
M  V30 2233 H 219.211 -3.34901 -2.14677 0
M  V30 2234 H 215.95 -6.3192 -1.74233 0
M  V30 2235 H 215.47 -5.18106 -3.02201 0
M  V30 2236 H 217.149 -5.76834 -2.93038 0
M  V30 2237 N 217.281 0.66697 -1.42791 0
M  V30 2238 C 218.697 0.981027 -1.25889 0
M  V30 2239 C 218.897 2.00793 -0.168695 0
M  V30 2240 O 217.953 2.48321 0.45747 0
M  V30 2241 C 219.266 1.47838 -2.61848 0
M  V30 2242 C 220.814 1.59575 -2.69267 0
M  V30 2243 C 221.289 2.12704 -4.05612 0
M  V30 2244 N 222.78 2.20026 -4.07606 0
M  V30 2245 C 223.515 2.62227 -5.09926 0
M  V30 2246 N 223.011 3.03824 -6.22626 0
M  V30 2247 N 224.804 2.62045 -4.97281 0
M  V30 2248 H 216.955 -0.0127891 -2.12396 0
M  V30 2249 H 219.218 0.0568258 -0.946295 0
M  V30 2250 H 218.924 0.798299 -3.4252 0
M  V30 2251 H 218.798 2.45579 -2.86305 0
M  V30 2252 H 221.185 2.26687 -1.88936 0
M  V30 2253 H 221.266 0.60302 -2.48591 0
M  V30 2254 H 220.91 1.46198 -4.86404 0
M  V30 2255 H 220.84 3.12782 -4.23645 0
M  V30 2256 H 223.331 1.90708 -3.2625 0
M  V30 2257 H 223.644 3.34734 -6.96544 0
M  V30 2258 H 221.989 3.01662 -6.26119 0
M  V30 2259 H 225.18 2.28916 -4.08308 0
M  V30 2260 H 225.353 2.94613 -5.77154 0
M  V30 2261 N 218.759 1.29093 0.90403 0
M  V30 2262 C 219.669 1.15727 2.0407 0
M  V30 2263 C 220.685 0.0815308 1.73809 0
M  V30 2264 O 221.861 0.292749 1.99261 0
M  V30 2265 C 218.926 0.830424 3.36608 0
M  V30 2266 C 217.987 1.98955 3.80415 0
M  V30 2267 C 217.22 1.6782 5.06628 0
M  V30 2268 O 217.443 0.597105 5.67266 0
M  V30 2269 O 216.377 2.52486 5.46383 0
M  V30 2270 H 220.203 2.11171 2.18267 0
M  V30 2271 H 217.788 1.08504 1.027 0
M  V30 2272 H 219.67 0.662521 4.16159 0
M  V30 2273 H 218.345 -0.0942678 3.23563 0
M  V30 2274 H 217.252 2.21267 3.01648 0
M  V30 2275 H 218.585 2.89529 3.98037 0
M  V30 2276 N 220.237 -1.11381 1.11499 0
M  V30 2277 C 221.2 -2.15622 0.777153 0
M  V30 2278 C 222.2 -1.59504 -0.203779 0
M  V30 2279 O 223.39 -1.74188 0.020782 0
M  V30 2280 C 220.522 -3.40556 0.153116 0
M  V30 2281 H 221.715 -2.47021 1.70061 0
M  V30 2282 H 219.268 -1.26577 0.916952 0
M  V30 2283 H 220.003 -3.14767 -0.780536 0
M  V30 2284 H 219.788 -3.8257 0.859238 0
M  V30 2285 H 221.278 -4.17546 -0.0671044 0
M  V30 2286 N 221.715 -0.905404 -1.28997 0
M  V30 2287 C 222.94 -0.549175 -1.99997 0
M  V30 2288 C 223.365 0.860276 -1.67275 0
M  V30 2289 O 222.723 1.57355 -0.900502 0
M  V30 2290 C 222.771 -0.755185 -3.52604 0
M  V30 2291 O 221.875 0.189692 -4.11964 0
M  V30 2292 H 221.216 -0.213899 -0.628604 0
M  V30 2293 H 223.746 -1.21856 -1.64354 0
M  V30 2294 H 223.756 -0.662045 -4.02593 0
M  V30 2295 H 222.431 -1.78271 -3.75755 0
M  V30 2296 H 221.008 0.0485257 -3.72868 0
M  V30 2297 N 223.193 1.4272 -0.668489 0
M  V30 2298 C 224.123 2.335 -0.000100175 0
M  V30 2299 C 225.104 1.50328 0.795964 0
M  V30 2300 O 226.289 1.78949 0.754385 0
M  V30 2301 C 223.419 3.33874 0.956302 0
M  V30 2302 C 222.373 4.27152 0.269278 0
M  V30 2303 C 221.699 5.17684 1.33818 0
M  V30 2304 C 222.999 5.15373 -0.847805 0
M  V30 2305 H 224.693 2.89639 -0.758244 0
M  V30 2306 H 222.239 1.39269 -0.366079 0
M  V30 2307 H 224.192 3.9629 1.43292 0
M  V30 2308 H 222.916 2.76025 1.74579 0
M  V30 2309 H 221.575 3.66123 -0.187042 0
M  V30 2310 H 221.223 4.56165 2.1195 0
M  V30 2311 H 220.923 5.80918 0.883659 0
M  V30 2312 H 222.447 5.82974 1.81586 0
M  V30 2313 H 223.861 5.7151 -0.452681 0
M  V30 2314 H 222.258 5.87407 -1.22773 0
M  V30 2315 H 223.328 4.5415 -1.69929 0
M  V30 2316 N 224.671 0.411399 1.52136 0
M  V30 2317 C 225.601 -0.404015 2.29978 0
M  V30 2318 C 226.582 -1.04412 1.34284 0
M  V30 2319 O 227.767 -1.0527 1.63192 0
M  V30 2320 C 224.897 -1.5197 3.12286 0
M  V30 2321 C 223.851 -1.00448 4.16046 0
M  V30 2322 C 223.177 -2.21393 4.86712 0
M  V30 2323 C 224.477 -0.0569336 5.22269 0
M  V30 2324 H 226.171 0.245529 2.98392 0
M  V30 2325 H 223.717 0.119525 1.43503 0
M  V30 2326 H 225.67 -2.09715 3.6551 0
M  V30 2327 H 224.394 -2.19716 2.41646 0
M  V30 2328 H 223.053 -0.449421 3.63835 0
M  V30 2329 H 222.701 -2.87699 4.12599 0
M  V30 2330 H 222.401 -1.87571 5.56858 0
M  V30 2331 H 223.925 -2.7974 5.4275 0
M  V30 2332 H 225.339 -0.54325 5.7072 0
M  V30 2333 H 223.736 0.192594 5.99791 0
M  V30 2334 H 224.806 0.887663 4.76706 0
M  V30 2335 N 226.149 -1.5696 0.141893 0
M  V30 2336 C 227.096 -2.16501 -0.799737 0
M  V30 2337 C 228.066 -1.09643 -1.24771 0
M  V30 2338 O 229.251 -1.3766 -1.32115 0
M  V30 2339 C 226.391 -2.78679 -2.03549 0
M  V30 2340 C 225.504 -3.99914 -1.6338 0
M  V30 2341 C 224.639 -4.50106 -2.82096 0
M  V30 2342 C 223.678 -5.63819 -2.38275 0
M  V30 2343 N 222.815 -6.08651 -3.49983 0
M  V30 2344 H 227.655 -2.96632 -0.285179 0
M  V30 2345 H 225.192 -1.46533 -0.129053 0
M  V30 2346 H 227.15 -3.1287 -2.75986 0
M  V30 2347 H 225.78 -2.012 -2.52425 0
M  V30 2348 H 224.832 -3.71735 -0.807279 0
M  V30 2349 H 226.144 -4.82311 -1.27192 0
M  V30 2350 H 225.298 -4.86325 -3.62729 0
M  V30 2351 H 224.037 -3.66706 -3.21525 0
M  V30 2352 H 223.042 -5.2718 -1.56081 0
M  V30 2353 H 224.267 -6.49 -1.99938 0
M  V30 2354 H 222.213 -5.28188 -3.89042 0
M  V30 2355 H 222.13 -6.85961 -3.17794 0
M  V30 2356 H 223.398 -6.49515 -4.30988 0
M  V30 2357 N 227.627 0.131896 -1.57047 0
M  V30 2358 C 228.875 0.840269 -1.83804 0
M  V30 2359 C 229.196 1.81017 -0.72512 0
M  V30 2360 O 228.466 1.94272 0.251995 0
M  V30 2361 H 227.046 0.313294 -0.678127 0
M  V30 2362 H 229.708 0.122294 -1.94516 0
M  V30 2363 H 228.804 1.39335 -2.79271 0
M  V30 2364 N 229.106 1.52395 0.401703 0
M  V30 2365 C 230.036 1.79231 1.49661 0
M  V30 2366 C 231.017 0.643654 1.57452 0
M  V30 2367 O 232.202 0.889989 1.72606 0
M  V30 2368 C 229.332 1.94971 2.87409 0
M  V30 2369 C 228.286 3.10604 2.94465 0
M  V30 2370 C 227.612 3.11577 4.34538 0
M  V30 2371 C 228.912 4.49921 2.6527 0
M  V30 2372 H 230.606 2.70917 1.27454 0
M  V30 2373 H 228.152 1.30362 0.6117 0
M  V30 2374 H 230.105 2.12328 3.63999 0
M  V30 2375 H 228.829 0.999632 3.10926 0
M  V30 2376 H 227.488 2.93009 2.20321 0
M  V30 2377 H 227.136 2.14277 4.55076 0
M  V30 2378 H 226.836 3.89247 4.40183 0
M  V30 2379 H 228.36 3.31073 5.13053 0
M  V30 2380 H 229.774 4.67683 3.31581 0
M  V30 2381 H 228.171 5.29564 2.82281 0
M  V30 2382 H 229.241 4.57507 1.60671 0
M  V30 2383 N 230.584 -0.659388 1.43143 0
M  V30 2384 C 231.531 -1.77249 1.47822 0
M  V30 2385 C 232.501 -1.62818 0.328558 0
M  V30 2386 O 233.686 -1.83151 0.534838 0
M  V30 2387 C 230.826 -3.15371 1.40126 0
M  V30 2388 C 229.939 -3.4098 2.65249 0
M  V30 2389 C 229.074 -4.68915 2.49584 0
M  V30 2390 C 228.113 -4.87608 3.70006 0
M  V30 2391 N 227.25 -6.06796 3.53189 0
M  V30 2392 H 232.09 -1.72584 2.42938 0
M  V30 2393 H 229.627 -0.842297 1.20598 0
M  V30 2394 H 231.585 -3.9521 1.33659 0
M  V30 2395 H 230.215 -3.19121 0.485964 0
M  V30 2396 H 229.267 -2.55282 2.8202 0
M  V30 2397 H 230.579 -3.50681 3.54717 0
M  V30 2398 H 229.733 -5.56871 2.4079 0
M  V30 2399 H 228.472 -4.61524 1.5763 0
M  V30 2400 H 227.477 -3.9809 3.79215 0
M  V30 2401 H 228.702 -4.96834 4.62961 0
M  V30 2402 H 226.648 -6.00549 2.63965 0
M  V30 2403 H 226.565 -6.17428 4.36255 0
M  V30 2404 H 227.833 -6.9739 3.48236 0
M  V30 2405 N 232.062 -1.29571 -0.897171 0
M  V30 2406 C 233.012 -1.11539 -1.98855 0
M  V30 2407 C 233.996 -0.0340716 -1.60864 0
M  V30 2408 O 235.188 -0.256062 -1.75138 0
M  V30 2409 C 232.317 -0.796603 -3.3393 0
M  V30 2410 C 231.403 -1.91758 -3.78272 0
M  V30 2411 N 231.794 -3.16143 -3.94826 0
M  V30 2412 C 230.092 -1.81119 -4.07568 0
M  V30 2413 C 230.793 -3.89293 -4.32233 0
M  V30 2414 N 229.769 -3.17255 -4.41419 0
M  V30 2415 H 233.571 -2.05894 -2.09726 0
M  V30 2416 H 231.085 -1.20732 -1.08616 0
M  V30 2417 H 233.082 -0.648459 -4.11826 0
M  V30 2418 H 231.742 0.139003 -3.24402 0
M  V30 2419 H 232.753 -3.5157 -3.80288 0
M  V30 2420 H 229.43 -0.948461 -4.06584 0
M  V30 2421 H 230.82 -4.9635 -4.52865 0
M  V30 2422 N 233.54 1.10788 -1.12088 0
M  V30 2423 C 234.503 2.15207 -0.788577 0
M  V30 2424 C 235.503 1.59609 0.195317 0
M  V30 2425 O 236.693 1.74174 -0.0300193 0
M  V30 2426 C 233.825 3.4047 -0.171174 0
M  V30 2427 H 235.018 2.46116 -1.71368 0
M  V30 2428 H 232.571 1.26089 -0.923652 0
M  V30 2429 H 233.306 3.15176 0.763832 0
M  V30 2430 H 233.091 3.82109 -0.879514 0
M  V30 2431 H 234.581 4.17576 0.04496 0
M  V30 2432 N 235.018 0.912232 1.28515 0
M  V30 2433 C 235.966 0.389597 2.29314 0
M  V30 2434 C 236.96 -0.517915 1.61289 0
M  V30 2435 O 238.166 -0.399328 1.75515 0
M  V30 2436 H 234.541 0.107386 0.744293 0
M  V30 2437 H 236.512 1.25286 2.70825 0
M  V30 2438 C 235.261 -0.356496 3.45868 0
M  V30 2439 H 234.584 0.332608 3.98414 0
M  V30 2440 H 236.024 -0.686851 4.184 0
M  V30 2441 C 234.483 -1.56383 2.98406 0
M  V30 2442 O 235.013 -2.66294 3.00749 0
M  V30 2443 N 233.219 -1.41029 2.54085 0
M  V30 2444 H 232.766 -0.516089 2.52377 0
M  V30 2445 H 232.724 -2.21939 2.22689 0
M  V30 2446 N 236.496 -1.42363 0.676048 0
M  V30 2447 C 237.745 -2.00745 0.196037 0
M  V30 2448 C 238.058 -1.54083 -1.20489 0
M  V30 2449 O 239.264 -2.04891 -1.78134 0
M  V30 2450 C 237.72 -3.58651 0.299616 0
M  V30 2451 C 237.328 -4.143 1.70468 0
M  V30 2452 C 239.072 -4.24326 -0.121619 0
M  V30 2453 C 236.979 -5.64574 1.76096 0
M  V30 2454 H 235.909 -0.750787 0.0695301 0
M  V30 2455 H 238.56 -1.63072 0.841412 0
M  V30 2456 H 236.942 -3.93833 -0.413673 0
M  V30 2457 H 238.116 -3.90575 2.44515 0
M  V30 2458 H 236.431 -3.61081 2.07387 0
M  V30 2459 H 239.028 -5.34607 -0.0997362 0
M  V30 2460 H 239.371 -3.99897 -1.15708 0
M  V30 2461 H 239.904 -3.94108 0.540706 0
M  V30 2462 H 236.643 -5.93804 2.77628 0
M  V30 2463 H 236.163 -5.90286 1.06406 0
M  V30 2464 H 237.842 -6.29013 1.51496 0
M  V30 2465 N 237.974 -0.419461 -1.51915 0
M  V30 2466 C 239.22 0.153166 -2.02221 0
M  V30 2467 C 239.553 1.43907 -1.30401 0
M  V30 2468 O 238.828 1.90055 -0.413438 0
M  V30 2469 C 239.111 0.390291 -3.57979 0
M  V30 2470 C 238.964 -0.913014 -4.40436 0
M  V30 2471 C 240.283 1.16794 -4.2432 0
M  V30 2472 H 237.402 0.0541924 -0.735005 0
M  V30 2473 H 240.044 -0.554955 -1.81715 0
M  V30 2474 H 238.194 0.993491 -3.75582 0
M  V30 2475 H 239.866 -1.54882 -4.34522 0
M  V30 2476 H 238.109 -1.52168 -4.06236 0
M  V30 2477 H 238.78 -0.701361 -5.47526 0
M  V30 2478 H 241.256 0.657161 -4.10878 0
M  V30 2479 H 240.132 1.3026 -5.3322 0
M  V30 2480 H 240.393 2.19132 -3.83971 0
M  V30 2481 N 239.452 1.56882 -0.150215 0
M  V30 2482 C 240.382 2.19935 0.784284 0
M  V30 2483 C 241.363 1.14854 1.25469 0
M  V30 2484 O 242.548 1.43209 1.31168 0
M  V30 2485 C 239.678 2.82349 2.02229 0
M  V30 2486 C 238.632 3.93285 1.68853 0
M  V30 2487 C 237.958 4.42649 2.99944 0
M  V30 2488 C 239.258 5.13904 0.932714 0
M  V30 2489 H 240.952 2.9828 0.258781 0
M  V30 2490 H 238.498 1.43473 0.123029 0
M  V30 2491 H 240.451 3.25126 2.68088 0
M  V30 2492 H 239.175 2.0134 2.57157 0
M  V30 2493 H 237.834 3.5113 1.05371 0
M  V30 2494 H 237.482 3.58458 3.52869 0
M  V30 2495 H 237.182 5.17476 2.78374 0
M  V30 2496 H 238.706 4.88099 3.66868 0
M  V30 2497 H 240.12 5.53506 1.49345 0
M  V30 2498 H 238.517 5.94515 0.81684 0
M  V30 2499 H 239.587 4.84842 -0.0749568 0
M  V30 2500 N 240.93 -0.123565 1.57115 0
M  V30 2501 C 241.86 -1.15309 2.03042 0
M  V30 2502 C 242.841 -1.43454 0.914061 0
M  V30 2503 O 244.026 -1.53973 1.18347 0
M  V30 2504 C 241.156 -2.48043 2.43089 0
M  V30 2505 C 240.11 -2.3437 3.58127 0
M  V30 2506 C 239.436 -3.72026 3.84059 0
M  V30 2507 C 240.736 -1.80804 4.90007 0
M  V30 2508 H 242.43 -0.771102 2.893 0
M  V30 2509 H 239.976 -0.369479 1.39179 0
M  V30 2510 H 241.929 -3.20311 2.73823 0
M  V30 2511 H 240.653 -2.88122 1.53796 0
M  V30 2512 H 239.312 -1.64551 3.27595 0
M  V30 2513 H 238.96 -4.09582 2.91979 0
M  V30 2514 H 238.66 -3.63732 4.6149 0
M  V30 2515 H 240.184 -4.45806 4.1724 0
M  V30 2516 H 241.598 -2.42886 5.19307 0
M  V30 2517 H 239.995 -1.83343 5.71407 0
M  V30 2518 H 241.065 -0.76528 4.78823 0
M  V30 2519 N 242.408 -1.52605 -0.393616 0
M  V30 2520 C 243.358 -1.73436 -1.48 0
M  V30 2521 C 244.342 -0.588386 -1.49756 0
M  V30 2522 O 245.534 -0.846047 -1.5547 0
M  V30 2523 C 242.663 -1.90247 -2.85764 0
M  V30 2524 C 241.749 -3.10763 -2.88595 0
M  V30 2525 N 242.14 -4.33196 -2.61103 0
M  V30 2526 C 240.438 -3.10914 -3.19763 0
M  V30 2527 C 241.139 -5.1477 -2.70899 0
M  V30 2528 N 240.115 -4.50356 -3.04435 0
M  V30 2529 H 243.917 -2.65727 -1.25563 0
M  V30 2530 H 241.431 -1.5085 -0.601513 0
M  V30 2531 H 243.428 -2.03291 -3.63976 0
M  V30 2532 H 242.088 -0.991663 -3.09186 0
M  V30 2533 H 243.099 -4.61408 -2.35209 0
M  V30 2534 H 239.776 -2.29626 -3.4868 0
M  V30 2535 H 241.166 -6.22355 -2.53227 0
M  V30 2536 N 243.887 0.651787 -1.4349 0
M  V30 2537 C 245.164 1.40909 -1.35661 0
M  V30 2538 C 245.544 2.11099 -0.00511733 0
M  V30 2539 O 244.892 2.04892 1.0115 0
M  V30 2540 C 245.102 2.3926 -2.54078 0
M  V30 2541 C 246.45 3.03217 -2.97228 0
M  V30 2542 O 247.474 2.49588 -2.54135 0
M  V30 2543 O 246.333 4.00455 -3.71885 0
M  V30 2544 H 243.427 0.629625 -0.536191 0
M  V30 2545 H 245.973 0.678575 -1.55542 0
M  V30 2546 H 244.745 1.86352 -3.44076 0
M  V30 2547 H 244.368 3.1976 -2.36303 0
M  V30 2548 N 245.365 1.30045 0.890287 0
M  V30 2549 C 246.614 1.17929 1.63633 0
M  V30 2550 C 246.927 -0.266204 1.9378 0
M  V30 2551 O 248.133 -0.508804 2.6669 0
M  V30 2552 C 246.589 2.06317 2.94892 0
M  V30 2553 C 246.197 3.55745 2.72305 0
M  V30 2554 C 247.941 2.0295 3.72843 0
M  V30 2555 C 245.848 4.36205 3.99348 0
M  V30 2556 H 244.778 0.437782 0.613892 0
M  V30 2557 H 247.429 1.54754 0.986075 0
M  V30 2558 H 245.811 1.6237 3.61182 0
M  V30 2559 H 246.985 4.07805 2.1455 0
M  V30 2560 H 245.3 3.6088 2.07737 0
M  V30 2561 H 247.897 2.60319 4.67053 0
M  V30 2562 H 248.24 1.0117 4.0382 0
M  V30 2563 H 248.773 2.4499 3.13408 0
M  V30 2564 H 245.512 5.38659 3.73533 0
M  V30 2565 H 245.032 3.8891 4.56628 0
M  V30 2566 H 246.711 4.47362 4.67415 0
M  V30 2567 N 246.843 -1.10192 1.12674 0
M  V30 2568 C 248.092 -1.81573 0.8783 0
M  V30 2569 C 248.405 -1.86249 -0.597557 0
M  V30 2570 O 249.611 -2.5386 -0.962681 0
M  V30 2571 C 248.067 -3.26149 1.52167 0
M  V30 2572 C 247.675 -3.29763 3.03249 0
M  V30 2573 C 249.419 -4.0234 1.3536 0
M  V30 2574 C 247.326 -4.68815 3.60508 0
M  V30 2575 H 246.256 -0.680394 0.324931 0
M  V30 2576 H 248.907 -1.23902 1.35353 0
M  V30 2577 H 247.289 -3.83832 0.974104 0
M  V30 2578 H 248.463 -2.8189 3.6452 0
M  V30 2579 H 246.778 -2.67059 3.19481 0
M  V30 2580 H 249.375 -5.05058 1.75559 0
M  V30 2581 H 249.718 -4.15235 0.297554 0
M  V30 2582 H 250.251 -3.51079 1.87052 0
M  V30 2583 H 246.99 -4.61121 4.65884 0
M  V30 2584 H 246.51 -5.17045 3.04014 0
M  V30 2585 H 248.189 -5.37785 3.59717 0
M  V30 2586 N 248.321 -0.919034 -1.28029 0
M  V30 2587 C 249.271 -0.382574 -2.24767 0
M  V30 2588 C 250.255 0.508286 -1.52661 0
M  V30 2589 O 251.447 0.347145 -1.73562 0
M  V30 2590 C 248.576 0.371432 -3.41285 0
M  V30 2591 C 247.662 -0.535449 -4.20706 0
M  V30 2592 N 248.053 -1.65141 -4.78082 0
M  V30 2593 C 246.351 -0.336824 -4.44726 0
M  V30 2594 C 247.052 -2.21475 -5.37888 0
M  V30 2595 N 246.028 -1.50537 -5.22341 0
M  V30 2596 H 249.83 -1.23477 -2.66703 0
M  V30 2597 H 247.344 -0.772299 -1.42861 0
M  V30 2598 H 249.341 0.772638 -4.09678 0
M  V30 2599 H 248.001 1.22066 -3.00882 0
M  V30 2600 H 249.012 -2.03392 -4.7629 0
M  V30 2601 H 245.689 0.47246 -4.14818 0
M  V30 2602 H 247.079 -3.15379 -5.93284 0
M  V30 2603 N 249.799 1.42003 -0.683588 0
M  V30 2604 C 251.027 2.05746 -0.218182 0
M  V30 2605 C 251.442 1.51396 1.12804 0
M  V30 2606 O 250.799 0.657303 1.70252 0
M  V30 2607 C 250.85 3.61171 -0.154131 0
M  V30 2608 O 250.571 4.13508 -1.44716 0
M  V30 2609 C 252.072 4.42042 0.333713 0
M  V30 2610 H 249.292 0.662888 -0.10402 0
M  V30 2611 H 251.836 1.81987 -0.9328 0
M  V30 2612 H 249.991 3.84012 0.511231 0
M  V30 2613 H 250.405 5.07453 -1.32632 0
M  V30 2614 H 251.879 5.51028 0.327423 0
M  V30 2615 H 252.356 4.17269 1.37053 0
M  V30 2616 H 252.962 4.24239 -0.300222 0
M  V30 2617 N 251.277 0.427512 1.51691 0
M  V30 2618 C 252.224 -0.388867 2.275 0
M  V30 2619 C 253.194 -1.02532 1.30677 0
M  V30 2620 O 254.379 -1.0461 1.59566 0
M  V30 2621 C 251.519 -1.48954 3.11298 0
M  V30 2622 C 250.632 -0.872194 4.23104 0
M  V30 2623 C 249.767 -1.94709 4.94228 0
M  V30 2624 C 248.806 -1.30766 5.97969 0
M  V30 2625 N 247.943 -2.32349 6.62539 0
M  V30 2626 H 252.783 0.263997 2.96828 0
M  V30 2627 H 250.32 0.142033 1.46413 0
M  V30 2628 H 252.278 -2.13887 3.58201 0
M  V30 2629 H 250.908 -2.11217 2.44105 0
M  V30 2630 H 249.96 -0.111419 3.80237 0
M  V30 2631 H 251.272 -0.365264 4.97461 0
M  V30 2632 H 250.426 -2.67327 5.44629 0
M  V30 2633 H 249.165 -2.48773 4.1948 0
M  V30 2634 H 248.17 -0.566902 5.4687 0
M  V30 2635 H 249.395 -0.774483 6.74669 0
M  V30 2636 H 247.341 -2.85511 5.90609 0
M  V30 2637 H 247.258 -1.8652 7.3263 0
M  V30 2638 H 248.526 -3.04481 7.17574 0
M  V30 2639 N 252.755 -1.56801 0.158532 0
M  V30 2640 C 253.665 -2.20916 -0.789518 0
M  V30 2641 C 254.681 -1.1969 -1.26294 0
M  V30 2642 O 255.857 -1.52308 -1.31773 0
M  V30 2643 C 252.922 -2.82727 -2.00665 0
M  V30 2644 C 251.983 -3.99114 -1.58134 0
M  V30 2645 C 251.216 -4.57968 -2.74045 0
M  V30 2646 O 251.439 -4.15704 -3.90572 0
M  V30 2647 O 250.373 -5.48047 -2.48855 0
M  V30 2648 H 254.199 -3.02464 -0.273681 0
M  V30 2649 H 251.784 -1.4924 -0.0690548 0
M  V30 2650 H 253.666 -3.21968 -2.71872 0
M  V30 2651 H 252.341 -2.04184 -2.51179 0
M  V30 2652 H 251.248 -3.64567 -0.839155 0
M  V30 2653 H 252.581 -4.79212 -1.12325 0
M  V30 2654 N 254.233 0.115231 -1.57178 0
M  V30 2655 C 255.461 0.836437 -1.89239 0
M  V30 2656 C 255.876 1.73256 -0.750175 0
M  V30 2657 O 255.233 1.80357 0.278832 0
M  V30 2658 C 255.284 1.66671 -3.20785 0
M  V30 2659 O 255.005 0.806652 -4.3061 0
M  V30 2660 C 256.506 2.49274 -3.66575 0
M  V30 2661 H 253.726 0.240253 -0.626514 0
M  V30 2662 H 256.27 0.0984932 -2.04263 0
M  V30 2663 H 254.425 2.35737 -3.0742 0
M  V30 2664 H 254.839 1.37969 -5.06028 0
M  V30 2665 H 256.313 3.03055 -4.6137 0
M  V30 2666 H 256.79 3.26807 -2.93417 0
M  V30 2667 H 257.396 1.85443 -3.82741 0
M  V30 2668 N 255.711 1.52812 0.385517 0
M  V30 2669 C 256.641 1.80808 1.47752 0
M  V30 2670 C 257.622 0.660318 1.5676 0
M  V30 2671 O 258.807 0.908246 1.71652 0
M  V30 2672 C 255.937 1.98008 2.85324 0
M  V30 2673 C 254.891 3.13709 2.91154 0
M  V30 2674 C 254.217 3.16169 4.31209 0
M  V30 2675 C 255.517 4.52709 2.60483 0
M  V30 2676 H 257.211 2.72253 1.24573 0
M  V30 2677 H 254.757 1.31003 0.597839 0
M  V30 2678 H 256.71 2.16176 3.61726 0
M  V30 2679 H 255.434 1.03255 3.09848 0
M  V30 2680 H 254.093 2.95329 2.17201 0
M  V30 2681 H 253.741 2.19092 4.52778 0
M  V30 2682 H 253.441 3.93894 4.36029 0
M  V30 2683 H 254.965 3.36496 5.09512 0
M  V30 2684 H 256.379 4.71173 3.26602 0
M  V30 2685 H 254.776 5.32528 2.76648 0
M  V30 2686 H 255.846 4.59186 1.55809 0
M  V30 2687 N 257.189 -0.644168 1.43834 0
M  V30 2688 C 258.417 -1.43147 1.49387 0
M  V30 2689 C 258.832 -1.88452 0.114583 0
M  V30 2690 O 258.189 -1.60047 -0.876989 0
M  V30 2691 C 258.24 -2.66046 2.44748 0
M  V30 2692 O 257.961 -2.22633 3.77314 0
M  V30 2693 C 259.462 -3.59311 2.59635 0
M  V30 2694 H 256.682 -0.439447 0.507077 0
M  V30 2695 H 259.226 -0.78895 1.88669 0
M  V30 2696 H 257.381 -3.26418 2.08638 0
M  V30 2697 H 257.795 -3.02216 4.28679 0
M  V30 2698 H 259.269 -4.42187 3.30416 0
M  V30 2699 H 259.746 -4.07259 1.64427 0
M  V30 2700 H 260.352 -3.04816 2.96593 0
M  V30 2701 N 258.668 -1.30515 -0.883378 0
M  V30 2702 C 259.915 -1.1943 -1.63532 0
M  V30 2703 C 260.243 0.250627 -1.92878 0
M  V30 2704 O 259.498 1.19556 -1.54935 0
M  V30 2705 C 259.797 -1.96994 -2.98209 0
M  V30 2706 C 259.463 -3.466 -2.88408 0
M  V30 2707 C 258.125 -3.87397 -2.85442 0
M  V30 2708 C 260.477 -4.41863 -2.76418 0
M  V30 2709 C 257.805 -5.21745 -2.68327 0
M  V30 2710 C 260.157 -5.7632 -2.60841 0
M  V30 2711 C 258.821 -6.16354 -2.56251 0
M  V30 2712 H 258.091 -0.437025 -0.598406 0
M  V30 2713 H 260.738 -1.61635 -1.02696 0
M  V30 2714 H 259.043 -1.47429 -3.63004 0
M  V30 2715 H 260.74 -1.85808 -3.55354 0
M  V30 2716 H 257.33 -3.14182 -2.91527 0
M  V30 2717 H 261.514 -4.11285 -2.77775 0
M  V30 2718 H 256.77 -5.51853 -2.63189 0
M  V30 2719 H 260.944 -6.49772 -2.50538 0
M  V30 2720 H 258.571 -7.20401 -2.42748 0
M  V30 2721 N 260.146 1.09593 -1.13257 0
M  V30 2722 C 261.392 1.82003 -0.89458 0
M  V30 2723 C 261.725 1.85402 0.577906 0
M  V30 2724 O 261 1.32099 1.42759 0
M  V30 2725 C 261.283 3.28237 -1.48096 0
M  V30 2726 C 261.136 3.3312 -3.02244 0
M  V30 2727 C 262.455 4.24871 -1.14774 0
M  V30 2728 H 259.574 0.66077 -0.326424 0
M  V30 2729 H 262.216 1.28389 -1.40058 0
M  V30 2730 H 260.366 3.74024 -1.05062 0
M  V30 2731 H 262.038 2.95748 -3.54021 0
M  V30 2732 H 260.281 2.72756 -3.37323 0
M  V30 2733 H 260.952 4.3613 -3.38371 0
M  V30 2734 H 263.428 3.87361 -1.51957 0
M  V30 2735 H 262.304 5.25532 -1.58452 0
M  V30 2736 H 262.565 4.42058 -0.0611849 0
M  V30 2737 N 261.624 0.925811 1.2754 0
M  V30 2738 C 262.871 0.565255 1.94451 0
M  V30 2739 C 263.199 -0.89316 1.7278 0
M  V30 2740 O 262.454 -1.65213 1.04895 0
M  V30 2741 C 262.753 0.835296 3.47502 0
M  V30 2742 C 262.419 2.27515 3.89291 0
M  V30 2743 C 261.081 2.66879 4.00411 0
M  V30 2744 C 263.433 3.21158 4.10496 0
M  V30 2745 C 260.761 3.99014 4.30122 0
M  V30 2746 C 263.113 4.52871 4.4169 0
M  V30 2747 C 261.777 4.92072 4.51023 0
M  V30 2748 H 261.047 0.206841 0.711546 0
M  V30 2749 H 263.694 1.16942 1.51647 0
M  V30 2750 H 261.999 0.148442 3.91519 0
M  V30 2751 H 263.696 0.535322 3.97411 0
M  V30 2752 H 260.286 1.95976 3.81171 0
M  V30 2753 H 264.47 2.9195 4.01346 0
M  V30 2754 H 259.726 4.2907 4.35556 0
M  V30 2755 H 263.9 5.25436 4.57045 0
M  V30 2756 H 261.527 5.9449 4.738 0
M  V30 2757 N 263.102 -1.41638 0.69111 0
M  V30 2758 C 264.012 -2.34588 0.0233487 0
M  V30 2759 C 265.028 -1.55987 -0.770984 0
M  V30 2760 O 266.204 -1.88486 -0.709569 0
M  V30 2761 C 263.269 -3.34684 -0.904851 0
M  V30 2762 C 262.33 -4.29176 -0.103225 0
M  V30 2763 C 261.563 -5.2449 -0.987216 0
M  V30 2764 O 261.786 -5.2514 -2.22674 0
M  V30 2765 O 260.72 -6.00295 -0.439281 0
M  V30 2766 H 264.546 -2.93261 0.789416 0
M  V30 2767 H 262.131 -1.42417 0.45142 0
M  V30 2768 H 264.013 -3.96133 -1.43724 0
M  V30 2769 H 262.688 -2.78461 -1.65049 0
M  V30 2770 H 261.595 -3.71089 0.473655 0
M  V30 2771 H 262.928 -4.88484 0.60365 0
M  V30 2772 N 264.58 -0.43555 -1.51462 0
M  V30 2773 C 265.81 0.130053 -2.0619 0
M  V30 2774 C 266.218 1.37164 -1.30317 0
M  V30 2775 O 265.561 1.80225 -0.355598 0
M  V30 2776 C 265.623 0.519418 -3.55728 0
M  V30 2777 C 265.287 -0.615119 -4.52841 0
M  V30 2778 C 266.284 -1.48671 -4.9819 0
M  V30 2779 C 263.969 -0.795341 -4.95963 0
M  V30 2780 C 265.963 -2.52324 -5.8533 0
M  V30 2781 C 263.65 -1.83514 -5.82894 0
M  V30 2782 C 264.648 -2.69748 -6.27475 0
M  V30 2783 O 264.336 -3.71944 -7.1268 0
M  V30 2784 H 264.068 0.0121612 -0.675891 0
M  V30 2785 H 266.622 -0.6129 -1.96043 0
M  V30 2786 H 264.852 1.31505 -3.63653 0
M  V30 2787 H 266.541 1.01597 -3.92979 0
M  V30 2788 H 267.307 -1.359 -4.65571 0
M  V30 2789 H 263.186 -0.133713 -4.60806 0
M  V30 2790 H 266.73 -3.19665 -6.20048 0
M  V30 2791 H 262.627 -1.96306 -6.14926 0
M  V30 2792 H 263.395 -3.68503 -7.30854 0
M  V30 2793 N 266.058 1.56714 -0.166846 0
M  V30 2794 C 266.991 2.13577 0.80375 0
M  V30 2795 C 267.969 1.06464 1.22899 0
M  V30 2796 O 269.153 1.34413 1.32157 0
M  V30 2797 C 266.28 2.67168 2.0818 0
M  V30 2798 C 265.326 3.86612 1.80093 0
M  V30 2799 S 266.159 5.26565 0.97416 0
M  V30 2800 C 267.315 5.83558 2.26297 0
M  V30 2801 H 267.548 2.9557 0.320267 0
M  V30 2802 H 265.081 1.54326 0.0477555 0
M  V30 2803 H 267.039 2.98692 2.8159 0
M  V30 2804 H 265.7 1.85269 2.53642 0
M  V30 2805 H 264.893 4.22422 2.7491 0
M  V30 2806 H 264.495 3.55951 1.14781 0
M  V30 2807 H 266.787 5.962 3.21795 0
M  V30 2808 H 267.73 6.80731 1.94962 0
M  V30 2809 H 268.138 5.11944 2.37853 0
M  V30 2810 N 267.536 -0.106894 1.57237 0
M  V30 2811 C 268.486 -1.1366 1.9765 0
M  V30 2812 C 269.47 -1.36416 0.853203 0
M  V30 2813 O 270.662 -1.37305 1.11697 0
M  V30 2814 C 267.791 -2.46 2.39455 0
M  V30 2815 C 266.877 -2.26668 3.58445 0
M  V30 2816 N 267.268 -1.77176 4.73754 0
M  V30 2817 C 265.566 -2.57279 3.64312 0
M  V30 2818 C 266.267 -1.71836 5.5574 0
M  V30 2819 N 265.243 -2.16623 4.98573 0
M  V30 2820 H 269.045 -0.74669 2.84256 0
M  V30 2821 H 266.559 -0.314483 1.59326 0
M  V30 2822 H 268.556 -3.2049 2.6663 0
M  V30 2823 H 267.216 -2.85738 1.54219 0
M  V30 2824 H 268.227 -1.46545 4.96734 0
M  V30 2825 H 264.904 -3.00622 2.89711 0
M  V30 2826 H 266.294 -1.34723 6.58255 0
M  V30 2827 N 269.014 -1.53014 -0.377408 0
M  V30 2828 C 270.242 -1.72515 -1.14219 0
M  V30 2829 C 270.657 -0.448735 -1.8339 0
M  V30 2830 O 270.014 0.577592 -1.73119 0
M  V30 2831 C 270.065 -2.8826 -2.18148 0
M  V30 2832 O 269.786 -4.10962 -1.51795 0
M  V30 2833 C 271.287 -3.19536 -3.07264 0
M  V30 2834 H 268.507 -0.577301 -0.342001 0
M  V30 2835 H 271.051 -1.99712 -0.439935 0
M  V30 2836 H 269.206 -2.63492 -2.83991 0
M  V30 2837 H 269.62 -4.75693 -2.20945 0
M  V30 2838 H 271.094 -4.03959 -3.76193 0
M  V30 2839 H 271.571 -2.34403 -3.71419 0
M  V30 2840 H 272.177 -3.46186 -2.47053 0
M  V30 2841 N 270.492 0.636531 -1.44174 0
M  V30 2842 C 271.769 1.39463 -1.37148 0
M  V30 2843 C 272.149 2.11082 -0.027507 0
M  V30 2844 O 271.497 2.05954 0.989716 0
M  V30 2845 C 271.707 2.36552 -2.56601 0
M  V30 2846 C 273.055 3.00048 -3.00427 0
M  V30 2847 O 274.079 2.46878 -2.56767 0
M  V30 2848 O 272.938 3.96488 -3.76111 0
M  V30 2849 H 270.032 0.623903 -0.542839 0
M  V30 2850 H 272.578 0.662039 -1.56253 0
M  V30 2851 H 271.35 1.82692 -3.46034 0
M  V30 2852 H 270.973 3.17236 -2.39681 0
M  V30 2853 N 271.97 1.30982 0.876444 0
M  V30 2854 C 272.9 1.20668 1.99903 0
M  V30 2855 C 273.881 0.095354 1.69833 0
M  V30 2856 O 275.066 0.27885 1.92188 0
M  V30 2857 C 272.196 0.90655 3.3526 0
M  V30 2858 C 271.15 1.97675 3.79617 0
M  V30 2859 C 270.476 1.52943 5.1236 0
M  V30 2860 C 271.776 3.389 3.97422 0
M  V30 2861 H 273.47 2.14586 2.0879 0
M  V30 2862 H 271.016 1.03308 1.00317 0
M  V30 2863 H 272.969 0.821025 4.13324 0
M  V30 2864 H 271.693 -0.0682969 3.26529 0
M  V30 2865 H 270.352 2.05205 3.03787 0
M  V30 2866 H 270 0.54262 5.00065 0
M  V30 2867 H 269.7 2.24532 5.43009 0
M  V30 2868 H 271.224 1.45786 5.92941 0
M  V30 2869 H 272.638 3.34081 4.659 0
M  V30 2870 H 271.035 4.0865 4.3946 0
M  V30 2871 H 272.105 3.80163 3.01006 0
M  V30 2872 N 273.449 -1.08991 1.13837 0
M  V30 2873 C 274.412 -2.13925 0.822715 0
M  V30 2874 C 275.412 -1.599 -0.1699 0
M  V30 2875 O 276.602 -1.74104 0.0577251 0
M  V30 2876 C 273.734 -3.40155 0.225318 0
M  V30 2877 H 274.927 -2.43358 1.75262 0
M  V30 2878 H 272.48 -1.24603 0.943594 0
M  V30 2879 H 273.215 -3.16352 -0.713594 0
M  V30 2880 H 273 -3.80661 0.940193 0
M  V30 2881 H 274.49 -4.17594 0.0214784 0
M  V30 2882 N 274.927 -0.932562 -1.27047 0
M  V30 2883 C 275.859 -0.392734 -2.2581 0
M  V30 2884 C 276.872 0.479241 -1.55586 0
M  V30 2885 O 278.061 0.291078 -1.76111 0
M  V30 2886 C 275.161 0.455456 -3.35826 0
M  V30 2887 C 274.334 -0.398355 -4.35582 0
M  V30 2888 C 273.393 0.387985 -5.24768 0
M  V30 2889 O 272.419 -0.206003 -5.68827 0
M  V30 2890 N 273.621 1.68664 -5.55457 0
M  V30 2891 H 276.386 -1.24173 -2.72766 0
M  V30 2892 H 273.947 -0.800511 -1.40725 0
M  V30 2893 H 275.939 0.988692 -3.92437 0
M  V30 2894 H 274.509 1.20522 -2.88432 0
M  V30 2895 H 273.729 -1.11286 -3.78165 0
M  V30 2896 H 275.017 -0.981889 -4.99236 0
M  V30 2897 H 274.415 2.19147 -5.21528 0
M  V30 2898 H 272.972 2.1663 -6.14748 0
M  V30 2899 N 276.405 1.4127 -0.698611 0
M  V30 2900 C 277.635 2.05205 -0.239644 0
M  V30 2901 C 278.043 1.52684 1.11733 0
M  V30 2902 O 277.386 0.671222 1.70998 0
M  V30 2903 C 277.448 3.59289 -0.123126 0
M  V30 2904 C 277.112 4.34619 -1.41263 0
M  V30 2905 C 278.109 4.63701 -2.35111 0
M  V30 2906 C 275.794 4.73837 -1.66684 0
M  V30 2907 C 277.788 5.30966 -3.52639 0
M  V30 2908 C 275.475 5.40837 -2.84498 0
M  V30 2909 C 276.473 5.69329 -3.77298 0
M  V30 2910 O 276.161 6.34949 -4.93047 0
M  V30 2911 H 275.893 0.66723 -0.108537 0
M  V30 2912 H 278.447 1.81974 -0.952602 0
M  V30 2913 H 276.677 3.81272 0.645628 0
M  V30 2914 H 278.366 4.04797 0.299056 0
M  V30 2915 H 279.132 4.33882 -2.16729 0
M  V30 2916 H 275.011 4.51039 -0.953135 0
M  V30 2917 H 278.555 5.53121 -4.25091 0
M  V30 2918 H 274.452 5.70075 -3.02795 0
M  V30 2919 H 275.22 6.53445 -4.92902 0
M  V30 2920 N 277.883 0.443576 1.51229 0
M  V30 2921 C 278.816 -0.410089 2.24485 0
M  V30 2922 C 279.794 -1.01949 1.26669 0
M  V30 2923 O 280.978 -1.06075 1.55821 0
M  V30 2924 C 278.105 -1.57211 3.00004 0
M  V30 2925 C 277.151 -1.08279 4.12526 0
M  V30 2926 S 277.984 -0.0197476 5.35496 0
M  V30 2927 C 279.14 -1.18629 6.14555 0
M  V30 2928 H 279.373 0.211832 2.96544 0
M  V30 2929 H 276.906 0.228156 1.52705 0
M  V30 2930 H 278.864 -2.23825 3.44111 0
M  V30 2931 H 277.525 -2.16547 2.27522 0
M  V30 2932 H 276.718 -1.95193 4.64667 0
M  V30 2933 H 276.32 -0.494797 3.70713 0
M  V30 2934 H 278.612 -2.10344 6.4402 0
M  V30 2935 H 279.555 -0.70472 7.04584 0
M  V30 2936 H 279.963 -1.42768 5.46148 0
M  V30 2937 N 279.361 -1.56624 0.175154 0
M  V30 2938 C 280.586 -2.01813 -0.478137 0
M  V30 2939 C 281.011 -1.05457 -1.55757 0
M  V30 2940 O 280.369 -0.0347439 -1.81267 0
M  V30 2941 C 280.417 -3.45581 -1.02987 0
M  V30 2942 O 279.521 -3.52305 -2.14371 0
M  V30 2943 H 278.862 -0.65413 -0.114059 0
M  V30 2944 H 281.392 -2.02673 0.280173 0
M  V30 2945 H 281.402 -3.84965 -1.35151 0
M  V30 2946 H 280.077 -4.1521 -0.239556 0
M  V30 2947 H 278.654 -3.24783 -1.83222 0
M  V30 2948 N 280.839 0.0985539 -1.57292 0
M  V30 2949 C 281.771 1.14595 -1.98496 0
M  V30 2950 C 282.784 1.36512 -0.887031 0
M  V30 2951 O 283.973 1.35225 -1.16518 0
M  V30 2952 C 281.073 2.50216 -2.28572 0
M  V30 2953 C 280.246 2.48624 -3.59868 0
M  V30 2954 C 279.305 3.66146 -3.7792 0
M  V30 2955 O 278.331 3.48795 -4.49812 0
M  V30 2956 N 279.533 4.85496 -3.18235 0
M  V30 2957 H 282.298 0.795277 -2.88956 0
M  V30 2958 H 279.859 0.287579 -1.59325 0
M  V30 2959 H 281.851 3.27432 -2.37845 0
M  V30 2960 H 280.421 2.77387 -1.44136 0
M  V30 2961 H 279.641 1.56978 -3.61596 0
M  V30 2962 H 280.929 2.44635 -4.46129 0
M  V30 2963 H 280.327 5.02497 -2.59833 0
M  V30 2964 H 278.884 5.60317 -3.32999 0
M  V30 2965 N 282.317 1.53212 0.369288 0
M  V30 2966 C 283.267 1.75769 1.45222 0
M  V30 2967 C 284.251 0.612136 1.48801 0
M  V30 2968 O 285.443 0.870674 1.54105 0
M  V30 2969 C 282.572 1.94769 2.82701 0
M  V30 2970 C 281.658 3.15315 2.83615 0
M  V30 2971 N 282.049 4.37295 2.54178 0
M  V30 2972 C 280.347 3.15962 3.14776 0
M  V30 2973 C 281.048 5.19015 2.62675 0
M  V30 2974 N 280.024 4.55142 2.97232 0
M  V30 2975 H 283.826 2.67691 1.2132 0
M  V30 2976 H 281.34 1.51787 0.577438 0
M  V30 2977 H 283.337 2.09056 3.60696 0
M  V30 2978 H 281.997 1.04073 3.07569 0
M  V30 2979 H 283.008 4.65091 2.27839 0
M  V30 2980 H 279.685 2.35144 3.44983 0
M  V30 2981 H 281.075 6.26305 2.43294 0
M  V30 2982 N 283.795 -0.628877 1.44509 0
M  V30 2983 C 285.206 -1.21054 1.42137 0
M  V30 2984 C 285.557 -1.95715 0.137881 0
M  V30 2985 O 284.682 -2.02554 -0.761645 0
M  V30 2986 C 285.277 -2.20189 2.57493 0
M  V30 2987 C 283.836 -2.73777 2.58308 0
M  V30 2988 C 282.983 -1.48813 2.33987 0
M  V30 2989 H 285.934 -0.41942 1.53057 0
M  V30 2990 H 285.955 -3.02833 2.30375 0
M  V30 2991 H 285.467 -1.6582 3.50892 0
M  V30 2992 H 283.568 -3.32142 1.68856 0
M  V30 2993 H 283.681 -3.19662 3.56865 0
M  V30 2994 H 282.045 -1.77024 1.83124 0
M  V30 2995 H 282.828 -0.963442 3.29504 0
M  V30 2996 N 285.273 -1.31445 -0.869486 0
M  V30 2997 C 286.521 -1.20918 -1.61936 0
M  V30 2998 C 286.842 0.232683 -1.93607 0
M  V30 2999 O 286.112 1.15352 -1.58338 0
M  V30 3000 H 284.692 -0.44454 -0.600328 0
M  V30 3001 H 287.354 -1.64776 -1.0409 0
M  V30 3002 H 286.45 -1.78124 -2.56278 0
M  V30 3003 N 286.751 1.08385 -1.14413 0
M  V30 3004 C 287.999 1.80419 -0.910679 0
M  V30 3005 C 288.32 1.86658 0.564243 0
M  V30 3006 O 287.59 1.35985 1.41014 0
M  V30 3007 H 286.17 0.668204 -0.333934 0
M  V30 3008 H 288.832 1.31037 -1.44275 0
M  V30 3009 H 287.928 2.83238 -1.31082 0
M  V30 3010 N 288.23 0.939286 1.26551 0
M  V30 3011 C 289.16 0.465044 2.28822 0
M  V30 3012 C 290.141 -0.480692 1.63167 0
M  V30 3013 O 291.326 -0.382955 1.90387 0
M  V30 3014 C 288.456 -0.27234 3.46231 0
M  V30 3015 C 287.41 0.58666 4.2396 0
M  V30 3016 C 286.736 -0.280573 5.33963 0
M  V30 3017 C 288.036 1.85704 4.88171 0
M  V30 3018 H 289.73 1.31979 2.68741 0
M  V30 3019 H 287.276 0.636061 1.29191 0
M  V30 3020 H 289.229 -0.615133 4.16886 0
M  V30 3021 H 287.953 -1.16121 3.0526 0
M  V30 3022 H 286.612 0.91232 3.55067 0
M  V30 3023 H 286.26 -1.16874 4.89234 0
M  V30 3024 H 285.96 0.29076 5.8688 0
M  V30 3025 H 287.484 -0.618678 6.07458 0
M  V30 3026 H 288.898 1.58161 5.51052 0
M  V30 3027 H 287.295 2.37279 5.51197 0
M  V30 3028 H 288.365 2.56957 4.11219 0
M  V30 3029 N 289.708 -1.40897 0.706093 0
M  V30 3030 C 290.658 -2.27987 0.0240746 0
M  V30 3031 C 291.642 -1.42759 -0.742204 0
M  V30 3032 O 292.834 -1.65936 -0.615966 0
M  V30 3033 C 289.963 -3.31186 -0.903907 0
M  V30 3034 C 289.049 -4.2389 -0.133318 0
M  V30 3035 N 289.44 -4.98113 0.878444 0
M  V30 3036 C 287.738 -4.44485 -0.367269 0
M  V30 3037 C 288.439 -5.6604 1.34064 0
M  V30 3038 N 287.415 -5.39522 0.664565 0
M  V30 3039 H 291.217 -2.82812 0.799658 0
M  V30 3040 H 288.731 -1.53235 0.537845 0
M  V30 3041 H 290.728 -3.92413 -1.40775 0
M  V30 3042 H 289.388 -2.77922 -1.67897 0
M  V30 3043 H 290.399 -5.02364 1.25901 0
M  V30 3044 H 287.076 -4.02213 -1.1194 0
M  V30 3045 H 288.466 -6.35524 2.1808 0
M  V30 3046 N 291.186 -0.45159 -1.50991 0
M  V30 3047 C 292.597 0.00818571 -1.86698 0
M  V30 3048 C 292.948 1.40661 -1.3678 0
M  V30 3049 O 292.073 2.0391 -0.724546 0
M  V30 3050 C 292.668 0.0216303 -3.38793 0
M  V30 3051 C 291.227 0.425865 -3.73983 0
M  V30 3052 C 290.374 -0.372163 -2.74791 0
M  V30 3053 H 293.325 -0.666785 -1.44013 0
M  V30 3054 H 293.346 0.828078 -3.7138 0
M  V30 3055 H 292.858 -0.996288 -3.75094 0
M  V30 3056 H 290.959 1.44886 -3.43277 0
M  V30 3057 H 291.072 0.140761 -4.78893 0
M  V30 3058 H 289.436 0.171498 -2.54122 0
M  V30 3059 H 290.219 -1.38922 -3.13935 0
M  V30 3060 N 292.664 1.56529 -0.183458 0
M  V30 3061 C 293.614 2.1515 0.754605 0
M  V30 3062 C 294.598 1.08904 1.18443 0
M  V30 3063 O 295.79 1.34997 1.14476 0
M  V30 3064 C 292.919 2.80531 1.97881 0
M  V30 3065 C 292.005 3.93952 1.57043 0
M  V30 3066 N 292.396 4.98221 0.87231 0
M  V30 3067 C 290.694 4.05338 1.86057 0
M  V30 3068 C 291.395 5.77836 0.669377 0
M  V30 3069 N 290.371 5.29858 1.21454 0
M  V30 3070 H 294.173 2.93132 0.212387 0
M  V30 3071 H 291.687 1.62391 0.0167725 0
M  V30 3072 H 293.684 3.20914 2.6612 0
M  V30 3073 H 292.344 2.04035 2.52586 0
M  V30 3074 H 293.355 5.15191 0.529033 0
M  V30 3075 H 290.032 3.39957 2.42354 0
M  V30 3076 H 291.422 6.71799 0.116422 0
M  V30 3077 N 294.142 -0.090211 1.57342 0
M  V30 3078 C 295.09 -1.12792 2.03422 0
M  V30 3079 C 296.084 -1.41182 0.936166 0
M  V30 3080 O 297.29 -1.40805 1.12133 0
M  V30 3081 H 293.665 -0.380986 0.648347 0
M  V30 3082 H 295.636 -0.71299 2.89757 0
M  V30 3083 C 294.385 -2.43855 2.47851 0
M  V30 3084 H 293.708 -2.22855 3.31927 0
M  V30 3085 H 295.148 -3.14955 2.83865 0
M  V30 3086 C 293.607 -3.08503 1.3538 0
M  V30 3087 O 294.137 -3.95805 0.685641 0
M  V30 3088 N 292.343 -2.68831 1.10355 0
M  V30 3089 H 291.89 -1.97929 1.64869 0
M  V30 3090 H 291.848 -3.12412 0.353031 0
M  V30 3091 N 295.62 -1.53406 -0.361157 0
M  V30 3092 C 296.866 -1.70054 -1.10496 0
M  V30 3093 C 297.199 -0.453278 -1.88836 0
M  V30 3094 O 296.474 0.5495 -1.86576 0
M  V30 3095 C 296.757 -2.95317 -2.06058 0
M  V30 3096 C 296.61 -4.3021 -1.31298 0
M  V30 3097 C 297.929 -3.16193 -3.06121 0
M  V30 3098 H 295.048 -0.618799 -0.400321 0
M  V30 3099 H 297.69 -1.86052 -0.385318 0
M  V30 3100 H 295.84 -2.81809 -2.67425 0
M  V30 3101 H 297.512 -4.55538 -0.726807 0
M  V30 3102 H 295.755 -4.29421 -0.614853 0
M  V30 3103 H 296.426 -5.14 -2.01265 0
M  V30 3104 H 298.902 -3.28916 -2.5486 0
M  V30 3105 H 297.778 -4.05266 -3.70204 0
M  V30 3106 H 298.039 -2.31676 -3.76535 0
M  V30 3107 N 297.098 0.621204 -1.44841 0
M  V30 3108 C 298.514 0.94048 -1.28946 0
M  V30 3109 C 298.714 2.00154 -0.23249 0
M  V30 3110 O 297.77 2.49651 0.378237 0
M  V30 3111 C 299.083 1.39433 -2.66419 0
M  V30 3112 C 300.631 1.50927 -2.74208 0
M  V30 3113 C 301.106 1.99692 -4.12174 0
M  V30 3114 N 302.597 2.06947 -4.144 0
M  V30 3115 C 303.332 2.45871 -5.1801 0
M  V30 3116 N 302.828 2.83862 -6.31977 0
M  V30 3117 N 304.621 2.46092 -5.05366 0
M  V30 3118 H 296.772 -0.0803548 -2.12248 0
M  V30 3119 H 299.035 0.0266913 -0.947624 0
M  V30 3120 H 298.741 0.688925 -3.44887 0
M  V30 3121 H 298.615 2.36347 -2.93973 0
M  V30 3122 H 301.002 2.20561 -1.96053 0
M  V30 3123 H 301.083 0.523627 -2.50383 0
M  V30 3124 H 300.727 1.30649 -4.90809 0
M  V30 3125 H 300.657 2.99146 -4.33381 0
M  V30 3126 H 303.148 1.80232 -3.32152 0
M  V30 3127 H 303.461 3.12405 -7.0684 0
M  V30 3128 H 301.806 2.8159 -6.35399 0
M  V30 3129 H 304.997 2.1581 -4.15384 0
M  V30 3130 H 305.17 2.76102 -5.86235 0
M  V30 3131 N 298.576 1.31904 0.862503 0
M  V30 3132 C 299.506 1.22782 1.98612 0
M  V30 3133 C 300.487 0.113362 1.69722 0
M  V30 3134 O 301.672 0.299218 1.91881 0
M  V30 3135 C 298.802 0.942058 3.34279 0
M  V30 3136 C 297.756 2.0169 3.77499 0
M  V30 3137 C 297.082 1.58369 5.10709 0
M  V30 3138 C 298.382 3.43096 3.93805 0
M  V30 3139 H 300.076 2.16788 2.06502 0
M  V30 3140 H 297.622 1.04366 0.992154 0
M  V30 3141 H 299.575 0.864818 4.1243 0
M  V30 3142 H 298.299 -0.0336603 3.26583 0
M  V30 3143 H 296.958 2.08416 3.01593 0
M  V30 3144 H 296.606 0.595628 4.99461 0
M  V30 3145 H 296.306 2.30279 5.40597 0
M  V30 3146 H 297.83 1.52067 5.91361 0
M  V30 3147 H 299.244 3.39003 4.62331 0
M  V30 3148 H 297.641 4.13288 4.35101 0
M  V30 3149 H 298.711 3.83334 2.96957 0
M  V30 3150 N 300.054 -1.07777 1.14986 0
M  V30 3151 C 301.301 -1.8029 0.922056 0
M  V30 3152 C 301.629 -1.86531 -0.55105 0
M  V30 3153 O 300.884 -1.34189 -1.42449 0
M  V30 3154 C 301.183 -3.25495 1.47608 0
M  V30 3155 C 300.849 -3.39361 2.96893 0
M  V30 3156 C 299.511 -3.42852 3.37647 0
M  V30 3157 C 301.863 -3.42512 3.92854 0
M  V30 3158 C 299.191 -3.47094 4.73015 0
M  V30 3159 C 301.543 -3.4829 5.28088 0
M  V30 3160 C 300.207 -3.50058 5.68345 0
M  V30 3161 H 299.477 -0.659727 0.337404 0
M  V30 3162 H 302.124 -1.26854 1.43459 0
M  V30 3163 H 300.429 -3.81683 0.88463 0
M  V30 3164 H 302.126 -3.80168 1.27568 0
M  V30 3165 H 298.716 -3.37339 2.64387 0
M  V30 3166 H 302.9 -3.3904 3.62444 0
M  V30 3167 H 298.156 -3.46758 5.03556 0
M  V30 3168 H 302.33 -3.49675 6.02246 0
M  V30 3169 H 299.957 -3.53097 6.73221 0
M  V30 3170 N 301.532 -0.945985 -1.26051 0
M  V30 3171 C 302.465 -0.403619 -2.24602 0
M  V30 3172 C 303.443 0.510241 -1.54387 0
M  V30 3173 O 304.627 0.446593 -1.83133 0
M  V30 3174 C 301.754 0.419564 -3.36091 0
M  V30 3175 C 300.8 -0.433454 -4.24292 0
M  V30 3176 S 301.633 -1.86037 -5.02146 0
M  V30 3177 C 302.789 -1.04538 -6.17108 0
M  V30 3178 H 303.022 -1.23883 -2.7026 0
M  V30 3179 H 300.555 -0.749438 -1.34992 0
M  V30 3180 H 302.513 0.888595 -4.00767 0
M  V30 3181 H 301.174 1.22951 -2.89036 0
M  V30 3182 H 300.367 0.197486 -5.03613 0
M  V30 3183 H 299.969 -0.837357 -3.64506 0
M  V30 3184 H 302.261 -0.289923 -6.76879 0
M  V30 3185 H 303.204 -1.81222 -6.84518 0
M  V30 3186 H 303.612 -0.579319 -5.61519 0
M  V30 3187 N 303.011 1.40521 -0.713556 0
M  V30 3188 C 304.258 2.00923 -0.25219 0
M  V30 3189 C 304.586 1.56571 1.15395 0
M  V30 3190 O 303.841 0.775874 1.79663 0
M  V30 3191 C 304.14 3.56317 -0.278 0
M  V30 3192 C 303.806 4.20246 -1.63415 0
M  V30 3193 C 302.468 4.37422 -2.00538 0
M  V30 3194 C 304.82 4.55923 -2.52554 0
M  V30 3195 C 302.148 4.87558 -3.2635 0
M  V30 3196 C 304.5 5.07458 -3.77716 0
M  V30 3197 C 303.164 5.22843 -4.14959 0
M  V30 3198 H 302.434 0.735231 -0.0922829 0
M  V30 3199 H 305.081 1.68161 -0.916188 0
M  V30 3200 H 303.386 3.88976 0.469567 0
M  V30 3201 H 305.083 4.00883 0.0967819 0
M  V30 3202 H 301.673 4.07263 -1.33546 0
M  V30 3203 H 305.857 4.42291 -2.25149 0
M  V30 3204 H 301.113 4.97654 -3.55176 0
M  V30 3205 H 305.287 5.34041 -4.4696 0
M  V30 3206 H 302.914 5.61454 -5.12516 0
M  V30 3207 N 304.489 0.459591 1.5075 0
M  V30 3208 C 305.421 -0.37665 2.26084 0
M  V30 3209 C 306.434 -0.967109 1.30961 0
M  V30 3210 O 307.623 -0.857468 1.56556 0
M  V30 3211 C 304.723 -1.54112 3.01832 0
M  V30 3212 C 303.896 -1.06553 4.24223 0
M  V30 3213 C 302.955 -2.1027 4.82362 0
M  V30 3214 O 301.981 -1.68798 5.43595 0
M  V30 3215 N 303.183 -3.42974 4.68347 0
M  V30 3216 H 305.948 0.269124 2.98489 0
M  V30 3217 H 303.509 0.28972 1.59287 0
M  V30 3218 H 305.501 -2.23165 3.37608 0
M  V30 3219 H 304.071 -2.0918 2.32298 0
M  V30 3220 H 303.291 -0.201274 3.93686 0
M  V30 3221 H 304.579 -0.725516 5.03601 0
M  V30 3222 H 303.977 -3.79385 4.19623 0
M  V30 3223 H 302.534 -4.07858 5.08424 0
M  V30 3224 N 305.967 -1.56429 0.191757 0
M  V30 3225 C 306.897 -2.21937 -0.725696 0
M  V30 3226 C 307.878 -1.1814 -1.2238 0
M  V30 3227 O 309.063 -1.46636 -1.27325 0
M  V30 3228 C 306.193 -2.87611 -1.94672 0
M  V30 3229 C 305.147 -3.97623 -1.58366 0
M  V30 3230 C 304.473 -4.50446 -2.88102 0
M  V30 3231 C 305.773 -5.16197 -0.796133 0
M  V30 3232 H 307.467 -2.98861 -0.179606 0
M  V30 3233 H 305.013 -1.43749 -0.0849464 0
M  V30 3234 H 306.966 -3.3212 -2.59373 0
M  V30 3235 H 305.69 -2.08087 -2.51728 0
M  V30 3236 H 304.349 -3.53801 -0.960247 0
M  V30 3237 H 303.997 -3.67688 -3.43241 0
M  V30 3238 H 303.697 -5.24675 -2.64556 0
M  V30 3239 H 305.221 -4.97654 -3.53798 0
M  V30 3240 H 306.635 -5.57271 -1.34618 0
M  V30 3241 H 305.032 -5.96471 -0.658928 0
M  V30 3242 H 306.102 -4.84473 0.203478 0
M  V30 3243 N 307.445 0.0818655 -1.57387 0
M  V30 3244 C 308.375 1.09885 -2.06028 0
M  V30 3245 C 309.356 1.4098 -0.951774 0
M  V30 3246 O 310.541 1.50781 -1.22387 0
M  V30 3247 C 307.671 2.4151 -2.4958 0
M  V30 3248 C 306.625 2.24792 -3.64215 0
M  V30 3249 C 305.951 3.61712 -3.93787 0
M  V30 3250 C 307.251 1.67749 -4.94629 0
M  V30 3251 H 308.945 0.694128 -2.91243 0
M  V30 3252 H 306.491 0.332448 -1.4011 0
M  V30 3253 H 308.444 3.12939 -2.82219 0
M  V30 3254 H 307.168 2.83943 -1.61381 0
M  V30 3255 H 305.827 1.55807 -3.31843 0
M  V30 3256 H 305.475 4.01697 -3.02735 0
M  V30 3257 H 305.175 3.51368 -4.70971 0
M  V30 3258 H 306.699 4.34587 -4.28913 0
M  V30 3259 H 308.113 2.29032 -5.25564 0
M  V30 3260 H 306.51 1.68128 -5.76067 0
M  V30 3261 H 307.58 0.638059 -4.80684 0
M  V30 3262 N 308.923 1.53595 0.353017 0
M  V30 3263 C 310.339 1.43648 0.695516 0
M  V30 3264 C 310.539 0.585617 1.92802 0
M  V30 3265 O 309.595 0.0729223 2.52395 0
M  V30 3266 C 310.908 2.8701 0.896991 0
M  V30 3267 C 312.456 2.96723 0.996209 0
M  V30 3268 C 312.931 4.41173 1.23007 0
M  V30 3269 N 314.422 4.44657 1.29749 0
M  V30 3270 C 315.157 5.53547 1.49577 0
M  V30 3271 N 314.653 6.72461 1.66639 0
M  V30 3272 N 316.446 5.41145 1.52048 0
M  V30 3273 H 308.597 2.07415 -0.457481 0
M  V30 3274 H 310.86 0.9372 -0.142687 0
M  V30 3275 H 310.566 3.51644 0.0629938 0
M  V30 3276 H 310.44 3.31401 1.80148 0
M  V30 3277 H 312.827 2.32235 1.82074 0
M  V30 3278 H 312.908 2.55707 0.0688331 0
M  V30 3279 H 312.552 5.06238 0.410505 0
M  V30 3280 H 312.482 4.79772 2.17086 0
M  V30 3281 H 314.973 3.58963 1.18126 0
M  V30 3282 H 315.286 7.51214 1.81378 0
M  V30 3283 H 313.631 6.75423 1.63794 0
M  V30 3284 H 316.822 4.47205 1.38294 0
M  V30 3285 H 316.995 6.26068 1.67159 0
M  V30 3286 N 310.401 -0.613514 1.45168 0
M  V30 3287 C 311.649 -1.36997 1.48581 0
M  V30 3288 C 311.97 -1.94589 0.126545 0
M  V30 3289 O 311.24 -1.76816 -0.843372 0
M  V30 3290 H 309.82 -0.508558 0.547154 0
M  V30 3291 H 312.482 -0.720853 1.81079 0
M  V30 3292 H 311.578 -2.1924 2.22127 0
M  V30 3293 N 311.879 -1.3236 -0.855495 0
M  V30 3294 C 312.809 -1.23833 -1.97958 0
M  V30 3295 C 313.79 -0.122361 -1.69659 0
M  V30 3296 O 314.975 -0.30939 -1.9172 0
M  V30 3297 C 312.105 -0.959772 -3.33775 0
M  V30 3298 C 311.059 -2.03689 -3.76424 0
M  V30 3299 C 310.385 -1.61075 -5.09862 0
M  V30 3300 C 311.685 -3.4518 -3.9198 0
M  V30 3301 H 313.379 -2.1788 -2.0535 0
M  V30 3302 H 310.925 -1.04891 -0.986605 0
M  V30 3303 H 312.878 -0.886678 -4.11966 0
M  V30 3304 H 311.602 0.0163404 -3.26596 0
M  V30 3305 H 310.261 -2.10012 -3.00484 0
M  V30 3306 H 309.909 -0.622107 -4.99138 0
M  V30 3307 H 309.609 -2.33143 -5.39368 0
M  V30 3308 H 311.133 -1.55201 -5.90546 0
M  V30 3309 H 312.547 -3.4145 -4.60526 0
M  V30 3310 H 310.944 -4.1559 -4.32903 0
M  V30 3311 H 312.014 -3.84903 -2.94919 0
M  V30 3312 N 313.357 1.07166 -1.15556 0
M  V30 3313 C 314.32 2.12589 -0.856644 0
M  V30 3314 C 315.32 1.6015 0.14444 0
M  V30 3315 O 316.51 1.7399 -0.0854163 0
M  V30 3316 C 313.642 3.39753 -0.279405 0
M  V30 3317 H 314.835 2.40539 -1.79112 0
M  V30 3318 H 312.388 1.23086 -0.963298 0
M  V30 3319 H 313.123 3.17447 0.663174 0
M  V30 3320 H 312.908 3.79117 -1.00063 0
M  V30 3321 H 314.398 4.17507 -0.0879113 0
M  V30 3322 N 314.835 0.952656 1.25548 0
M  V30 3323 C 316.065 0.622592 1.96996 0
M  V30 3324 C 316.473 -0.809112 1.71026 0
M  V30 3325 O 315.816 -1.55258 0.981861 0
M  V30 3326 C 315.878 0.798946 3.5051 0
M  V30 3327 C 315.542 2.20744 4.00151 0
M  V30 3328 C 316.539 3.18394 4.11001 0
M  V30 3329 C 314.224 2.5311 4.33867 0
M  V30 3330 C 316.218 4.46504 4.54877 0
M  V30 3331 C 313.905 3.8145 4.7743 0
M  V30 3332 C 314.903 4.77959 4.87897 0
M  V30 3333 O 314.591 6.04012 5.30494 0
M  V30 3334 H 314.323 0.232503 0.634758 0
M  V30 3335 H 316.877 1.2789 1.60728 0
M  V30 3336 H 315.107 0.0854903 3.86605 0
M  V30 3337 H 316.796 0.47023 4.03167 0
M  V30 3338 H 317.562 2.94715 3.85186 0
M  V30 3339 H 313.441 1.78719 4.24948 0
M  V30 3340 H 316.985 5.21835 4.62962 0
M  V30 3341 H 312.882 4.04936 5.0269 0
M  V30 3342 H 313.65 6.0736 5.48685 0
M  V30 3343 N 316.313 -1.40141 0.720998 0
M  V30 3344 C 317.562 -2.0002 0.259804 0
M  V30 3345 C 317.875 -1.57839 -1.15526 0
M  V30 3346 O 319.081 -2.10455 -1.71525 0
M  V30 3347 C 317.537 -3.57516 0.413566 0
M  V30 3348 C 317.145 -4.08667 1.83562 0
M  V30 3349 C 318.889 -4.24498 0.0134387 0
M  V30 3350 C 316.796 -5.58686 1.93968 0
M  V30 3351 H 315.726 -0.748195 0.0933806 0
M  V30 3352 H 318.377 -1.60313 0.892866 0
M  V30 3353 H 316.759 -3.9495 -0.288169 0
M  V30 3354 H 317.933 -3.82598 2.56817 0
M  V30 3355 H 316.248 -3.543 2.1877 0
M  V30 3356 H 318.845 -5.34654 0.0703954 0
M  V30 3357 H 319.188 -4.03375 -1.02927 0
M  V30 3358 H 319.721 -3.92188 0.665815 0
M  V30 3359 H 316.46 -5.8467 2.96379 0
M  V30 3360 H 315.98 -5.86602 1.25131 0
M  V30 3361 H 317.659 -6.23875 1.71431 0
M  V30 3362 N 317.792 -0.46758 -1.50504 0
M  V30 3363 C 318.742 0.34698 -2.25344 0
M  V30 3364 C 319.726 0.964469 -1.2879 0
M  V30 3365 O 320.918 0.8776 -1.53711 0
M  V30 3366 C 318.047 1.43042 -3.1208 0
M  V30 3367 C 317.133 0.82084 -4.16081 0
M  V30 3368 N 317.524 -0.0567602 -5.05768 0
M  V30 3369 C 315.822 1.08517 -4.32597 0
M  V30 3370 C 316.523 -0.402343 -5.80307 0
M  V30 3371 N 315.499 0.221607 -5.43148 0
M  V30 3372 H 319.301 -0.329129 -2.92051 0
M  V30 3373 H 316.815 -0.281508 -1.59942 0
M  V30 3374 H 318.812 2.02712 -3.64299 0
M  V30 3375 H 317.472 2.10856 -2.46921 0
M  V30 3376 H 318.483 -0.425349 -5.1615 0
M  V30 3377 H 315.16 1.75855 -3.78657 0
M  V30 3378 H 316.55 -1.11834 -6.62528 0
M  V30 3379 N 319.27 1.56325 -0.20005 0
M  V30 3380 C 320.22 2.15939 0.731743 0
M  V30 3381 C 321.204 1.10154 1.17281 0
M  V30 3382 O 322.396 1.36203 1.13038 0
M  V30 3383 C 319.525 2.82614 1.94895 0
M  V30 3384 C 318.611 3.95596 1.52855 0
M  V30 3385 N 319.002 4.99118 0.819418 0
M  V30 3386 C 317.3 4.07288 1.81748 0
M  V30 3387 C 318.001 5.78513 0.608053 0
M  V30 3388 N 316.977 5.31117 1.15828 0
M  V30 3389 H 320.779 2.9334 0.181285 0
M  V30 3390 H 318.293 1.624 -0.000452172 0
M  V30 3391 H 320.29 3.23718 2.62702 0
M  V30 3392 H 318.95 2.06702 2.50408 0
M  V30 3393 H 319.961 5.15723 0.47436 0
M  V30 3394 H 316.638 3.42509 2.38734 0
M  V30 3395 H 318.028 6.71885 0.0451619 0
M  V30 3396 N 320.748 -0.0735177 1.57428 0
M  V30 3397 C 321.68 -1.11423 2.00294 0
M  V30 3398 C 322.693 -1.35084 0.908637 0
M  V30 3399 O 323.882 -1.33355 1.18654 0
M  V30 3400 C 320.982 -2.46548 2.32523 0
M  V30 3401 C 320.155 -2.42867 3.63778 0
M  V30 3402 C 319.214 -3.60087 3.83697 0
M  V30 3403 O 318.24 -3.41595 4.55304 0
M  V30 3404 N 319.442 -4.80372 3.25919 0
M  V30 3405 H 322.207 -0.749206 2.90184 0
M  V30 3406 H 319.768 -0.262195 1.59763 0
M  V30 3407 H 321.76 -3.23607 2.43024 0
M  V30 3408 H 320.33 -2.75059 1.48531 0
M  V30 3409 H 319.55 -1.51206 3.64047 0
M  V30 3410 H 320.838 -2.37506 4.49965 0
M  V30 3411 H 320.236 -4.983 2.67795 0
M  V30 3412 H 318.793 -5.54948 3.41871 0
M  V30 3413 N 322.226 -1.5378 -0.344866 0
M  V30 3414 C 323.176 -1.78057 -1.42407 0
M  V30 3415 C 324.16 -0.635732 -1.47808 0
M  V30 3416 O 325.352 -0.89508 -1.527 0
M  V30 3417 C 322.481 -1.99242 -2.79566 0
M  V30 3418 C 321.567 -3.19787 -2.78562 0
M  V30 3419 N 321.958 -4.41284 -2.47189 0
M  V30 3420 C 320.256 -3.2093 -3.0971 0
M  V30 3421 C 320.957 -5.23128 -2.54385 0
M  V30 3422 N 319.933 -4.59813 -2.89953 0
M  V30 3423 H 323.735 -2.69588 -1.17046 0
M  V30 3424 H 321.249 -1.52687 -0.553217 0
M  V30 3425 H 323.246 -2.14768 -3.57324 0
M  V30 3426 H 321.906 -1.08953 -3.05875 0
M  V30 3427 H 322.917 -4.68657 -2.20411 0
M  V30 3428 H 319.594 -2.40603 -3.41199 0
M  V30 3429 H 320.984 -6.30096 -2.333 0
M  V30 3430 N 323.704 0.605807 -1.45491 0
M  V30 3431 C 324.95 1.36679 -1.49823 0
M  V30 3432 C 325.283 1.93693 -0.140175 0
M  V30 3433 O 324.558 1.75158 0.845581 0
M  V30 3434 C 324.841 2.51337 -2.57879 0
M  V30 3435 C 324.694 1.99508 -4.03134 0
M  V30 3436 C 326.013 3.53463 -2.62205 0
M  V30 3437 H 323.132 0.495617 -0.545466 0
M  V30 3438 H 325.774 0.682732 -1.7731 0
M  V30 3439 H 323.924 3.09691 -2.34571 0
M  V30 3440 H 325.596 1.45789 -4.37656 0
M  V30 3441 H 323.839 1.30496 -4.13707 0
M  V30 3442 H 324.51 2.82169 -4.74431 0
M  V30 3443 H 326.986 3.04953 -2.83095 0
M  V30 3444 H 325.862 4.31178 -3.39672 0
M  V30 3445 H 326.123 4.09197 -1.67363 0
M  V30 3446 N 325.182 1.32811 0.848464 0
M  V30 3447 C 326.112 1.24882 1.97299 0
M  V30 3448 C 327.093 0.131357 1.69592 0
M  V30 3449 O 328.278 0.319553 1.91553 0
M  V30 3450 C 325.408 0.97746 3.33261 0
M  V30 3451 C 324.362 2.05682 3.75338 0
M  V30 3452 C 323.688 1.63777 5.09 0
M  V30 3453 C 324.988 3.47254 3.90144 0
M  V30 3454 H 326.682 2.18966 2.04191 0
M  V30 3455 H 324.228 1.05413 0.981029 0
M  V30 3456 H 326.181 0.908513 4.1149 0
M  V30 3457 H 324.905 0.000980011 3.266 0
M  V30 3458 H 323.564 2.11603 2.99366 0
M  V30 3459 H 323.212 0.648569 4.98801 0
M  V30 3460 H 322.912 2.36 5.38124 0
M  V30 3461 H 324.436 1.5833 5.89715 0
M  V30 3462 H 325.85 3.43888 4.58709 0
M  V30 3463 H 324.247 4.1788 4.30693 0
M  V30 3464 H 325.317 3.86462 2.92874 0
M  V30 3465 N 326.66 -1.06551 1.16123 0
M  V30 3466 C 327.61 -2.12209 0.833736 0
M  V30 3467 C 328.594 -1.59825 -0.185656 0
M  V30 3468 O 329.786 -1.76994 0.0147906 0
M  V30 3469 C 326.915 -3.41674 0.333697 0
M  V30 3470 C 326.001 -4.00892 1.38372 0
M  V30 3471 N 326.392 -4.34256 2.59337 0
M  V30 3472 C 324.69 -4.28463 1.23836 0
M  V30 3473 C 325.391 -4.81291 3.26701 0
M  V30 3474 N 324.367 -4.80565 2.54083 0
M  V30 3475 H 328.169 -2.35849 1.75364 0
M  V30 3476 H 325.683 -1.24068 1.04789 0
M  V30 3477 H 327.68 -4.16822 0.0806918 0
M  V30 3478 H 326.34 -3.19475 -0.58017 0
M  V30 3479 H 327.351 -4.24687 2.96415 0
M  V30 3480 H 324.028 -4.15721 0.38504 0
M  V30 3481 H 325.418 -5.16332 4.29943 0
M  V30 3482 N 328.138 -0.959301 -1.25041 0
M  V30 3483 C 329.554 -0.664474 -1.4511 0
M  V30 3484 C 329.754 0.776481 -1.85938 0
M  V30 3485 O 328.81 1.55128 -1.99227 0
M  V30 3486 C 330.123 -1.64139 -2.5195 0
M  V30 3487 C 331.671 -1.65309 -2.65786 0
M  V30 3488 C 332.146 -2.61777 -3.75815 0
M  V30 3489 N 333.637 -2.60169 -3.83231 0
M  V30 3490 C 334.372 -3.31489 -4.6787 0
M  V30 3491 N 333.868 -4.12298 -5.56761 0
M  V30 3492 N 335.661 -3.20354 -4.61876 0
M  V30 3493 H 327.812 -1.89043 -0.968332 0
M  V30 3494 H 330.075 -0.813408 -0.4869 0
M  V30 3495 H 329.781 -2.67086 -2.28819 0
M  V30 3496 H 329.655 -1.40756 -3.49954 0
M  V30 3497 H 332.042 -0.630778 -2.8828 0
M  V30 3498 H 332.123 -1.92753 -1.68167 0
M  V30 3499 H 331.767 -3.64137 -3.54071 0
M  V30 3500 H 331.697 -2.31616 -4.72929 0
M  V30 3501 H 334.188 -2.01507 -3.19692 0
M  V30 3502 H 334.501 -4.63625 -6.18281 0
M  V30 3503 H 332.846 -4.16395 -5.56454 0
M  V30 3504 H 336.037 -2.56692 -3.91442 0
M  V30 3505 H 336.21 -3.76201 -5.27614 0
M  V30 3506 N 329.616 1.39756 -0.72842 0
M  V30 3507 C 330.893 1.94574 -0.200079 0
M  V30 3508 C 331.273 1.66569 1.29684 0
M  V30 3509 O 330.621 0.990326 2.05924 0
M  V30 3510 C 330.831 3.45004 -0.526608 0
M  V30 3511 C 332.179 4.21965 -0.472318 0
M  V30 3512 O 333.203 3.53173 -0.463413 0
M  V30 3513 O 332.062 5.44552 -0.461075 0
M  V30 3514 H 329.156 0.826289 -0.0342851 0
M  V30 3515 H 331.702 1.49293 -0.806829 0
M  V30 3516 H 330.474 3.58796 -1.56144 0
M  V30 3517 H 330.097 3.97449 0.109449 0
M  V30 3518 N 331.094 0.475555 1.50254 0
M  V30 3519 C 332.024 -0.30611 2.31485 0
M  V30 3520 C 333.005 -0.986228 1.38591 0
M  V30 3521 O 334.19 -0.982541 1.67511 0
M  V30 3522 C 331.32 -1.38588 3.1845 0
M  V30 3523 C 330.274 -0.827115 4.19932 0
M  V30 3524 C 329.6 -2.00551 4.95665 0
M  V30 3525 C 330.9 0.16463 5.2204 0
M  V30 3526 H 332.594 0.371866 2.97082 0
M  V30 3527 H 330.14 0.180282 1.42867 0
M  V30 3528 H 332.093 -1.94023 3.74076 0
M  V30 3529 H 330.817 -2.09269 2.50747 0
M  V30 3530 H 329.476 -0.294702 3.65414 0
M  V30 3531 H 329.124 -2.6994 4.2443 0
M  V30 3532 H 328.824 -1.63784 5.64313 0
M  V30 3533 H 330.348 -2.56468 5.54127 0
M  V30 3534 H 331.762 -0.300699 5.72511 0
M  V30 3535 H 330.159 0.446813 5.98434 0
M  V30 3536 H 331.229 1.08905 4.72512 0
M  V30 3537 N 332.573 -1.56217 0.208337 0
M  V30 3538 C 333.52 -2.19699 -0.707192 0
M  V30 3539 C 334.49 -1.14836 -1.20008 0
M  V30 3540 O 335.675 -1.4314 -1.26157 0
M  V30 3541 C 332.815 -2.87061 -1.91546 0
M  V30 3542 C 331.928 -4.06483 -1.46271 0
M  V30 3543 C 331.063 -4.61665 -2.62752 0
M  V30 3544 C 330.102 -5.73417 -2.14147 0
M  V30 3545 N 329.239 -6.22948 -3.23853 0
M  V30 3546 H 334.079 -2.97575 -0.159111 0
M  V30 3547 H 331.616 -1.46948 -0.0667874 0
M  V30 3548 H 333.574 -3.24294 -2.62468 0
M  V30 3549 H 332.204 -2.11725 -2.43664 0
M  V30 3550 H 331.256 -3.74825 -0.648886 0
M  V30 3551 H 332.568 -4.87271 -1.06622 0
M  V30 3552 H 331.722 -5.01272 -3.41776 0
M  V30 3553 H 330.461 -3.80013 -3.05682 0
M  V30 3554 H 329.466 -5.33326 -1.33581 0
M  V30 3555 H 330.691 -6.56897 -1.72232 0
M  V30 3556 H 328.637 -5.44213 -3.6629 0
M  V30 3557 H 328.554 -6.98823 -2.88414 0
M  V30 3558 H 329.822 -6.6721 -4.03052 0
M  V30 3559 N 334.051 0.0651679 -1.57465 0
M  V30 3560 C 335.462 0.616213 -1.76238 0
M  V30 3561 C 335.813 1.7756 -0.834689 0
M  V30 3562 O 334.938 2.1639 -0.0204156 0
M  V30 3563 C 335.533 1.12462 -3.1959 0
M  V30 3564 C 334.092 1.62147 -3.39684 0
M  V30 3565 C 333.239 0.543739 -2.71917 0
M  V30 3566 H 336.19 -0.161022 -1.57881 0
M  V30 3567 H 336.211 1.99324 -3.24114 0
M  V30 3568 H 335.723 0.280592 -3.87084 0
M  V30 3569 H 333.824 2.48854 -2.77313 0
M  V30 3570 H 333.937 1.69385 -4.48158 0
M  V30 3571 H 332.301 0.990352 -2.34657 0
M  V30 3572 H 333.084 -0.290216 -3.42071 0
M  V30 3573 N 335.529 1.53961 0.336706 0
M  V30 3574 C 336.461 1.78751 1.4346 0
M  V30 3575 C 337.474 0.669019 1.48418 0
M  V30 3576 O 338.663 0.945884 1.51378 0
M  V30 3577 C 335.763 1.87844 2.82078 0
M  V30 3578 C 334.936 3.17854 3.00479 0
M  V30 3579 C 333.995 3.17816 4.19379 0
M  V30 3580 O 333.021 3.91511 4.13168 0
M  V30 3581 N 334.223 2.40669 5.2826 0
M  V30 3582 H 336.988 2.73493 1.22563 0
M  V30 3583 H 334.549 1.53096 0.526625 0
M  V30 3584 H 336.541 1.85261 3.59806 0
M  V30 3585 H 335.111 1.00257 2.96086 0
M  V30 3586 H 334.331 3.33504 2.10163 0
M  V30 3587 H 335.619 4.03718 3.0966 0
M  V30 3588 H 335.017 1.8036 5.36178 0
M  V30 3589 H 333.574 2.43877 6.04456 0
M  V30 3590 N 337.007 -0.598083 1.45811 0
M  V30 3591 C 337.955 -1.72932 1.55555 0
M  V30 3592 C 338.949 -1.63984 0.424921 0
M  V30 3593 O 340.155 -1.69663 0.601205 0
M  V30 3594 H 336.53 -0.571489 0.488779 0
M  V30 3595 H 338.501 -1.61842 2.50699 0
M  V30 3596 C 337.25 -3.11318 1.54843 0
M  V30 3597 H 336.573 -3.18867 2.41172 0
M  V30 3598 H 338.013 -3.90274 1.65717 0
M  V30 3599 C 336.472 -3.3578 0.274427 0
M  V30 3600 O 337.002 -3.9654 -0.641778 0
M  V30 3601 N 335.208 -2.90119 0.167139 0
M  V30 3602 H 334.755 -2.40855 0.913596 0
M  V30 3603 H 334.713 -3.0686 -0.684435 0
M  V30 3604 N 338.485 -1.33259 -0.841409 0
M  V30 3605 C 339.415 -1.25926 -1.96634 0
M  V30 3606 C 340.396 -0.140349 -1.6952 0
M  V30 3607 O 341.581 -0.329707 -1.91381 0
M  V30 3608 C 338.711 -0.99512 -3.32738 0
M  V30 3609 C 337.665 -2.0767 -3.74242 0
M  V30 3610 C 336.991 -1.66474 -5.08125 0
M  V30 3611 C 338.291 -3.49318 -3.88297 0
M  V30 3612 H 339.985 -2.20046 -2.03027 0
M  V30 3613 H 337.531 -1.05931 -0.975425 0
M  V30 3614 H 339.484 -0.930323 -4.11002 0
M  V30 3615 H 338.208 -0.0183004 -3.26595 0
M  V30 3616 H 336.867 -2.13187 -2.98239 0
M  V30 3617 H 336.515 -0.675012 -4.9845 0
M  V30 3618 H 336.215 -2.3885 -5.36865 0
M  V30 3619 H 337.739 -1.61455 -5.88867 0
M  V30 3620 H 339.153 -3.46316 -4.56879 0
M  V30 3621 H 337.55 -4.20158 -4.28471 0
M  V30 3622 H 338.62 -3.8801 -2.9082 0
M  V30 3623 N 339.963 1.05934 -1.16686 0
M  V30 3624 C 340.893 2.1546 -0.899949 0
M  V30 3625 C 341.874 1.69391 0.155154 0
M  V30 3626 O 343.059 1.94199 0.00648693 0
M  V30 3627 C 340.189 3.44939 -0.404241 0
M  V30 3628 C 339.143 4.04536 -1.39767 0
M  V30 3629 C 338.469 5.29268 -0.760216 0
M  V30 3630 C 339.769 4.42893 -2.76845 0
M  V30 3631 H 341.463 2.38046 -1.81588 0
M  V30 3632 H 339.009 1.14404 -0.874514 0
M  V30 3633 H 340.962 4.20901 -0.204971 0
M  V30 3634 H 339.686 3.21983 0.547206 0
M  V30 3635 H 338.345 3.30635 -1.58355 0
M  V30 3636 H 337.993 5.02611 0.197831 0
M  V30 3637 H 337.693 5.70101 -1.42332 0
M  V30 3638 H 339.217 6.07924 -0.57105 0
M  V30 3639 H 340.631 5.09921 -2.62019 0
M  V30 3640 H 339.028 4.94721 -3.39663 0
M  V30 3641 H 340.098 3.53584 -3.31823 0
M  V30 3642 N 341.441 0.965919 1.2453 0
M  V30 3643 C 342.69 0.622437 1.91856 0
M  V30 3644 C 343.003 -0.846006 1.76358 0
M  V30 3645 O 344.209 -1.29993 2.38357 0
M  V30 3646 C 342.665 1.0626 3.43856 0
M  V30 3647 C 342.273 2.55437 3.68043 0
M  V30 3648 C 344.017 0.792183 4.17043 0
M  V30 3649 C 341.924 2.93196 5.13605 0
M  V30 3650 H 340.854 0.229092 0.718354 0
M  V30 3651 H 343.505 1.17189 1.41206 0
M  V30 3652 H 341.887 0.441476 3.93531 0
M  V30 3653 H 343.061 3.22665 3.28974 0
M  V30 3654 H 341.376 2.8007 3.08139 0
M  V30 3655 H 343.973 1.05031 5.24283 0
M  V30 3656 H 344.316 -0.271584 4.15413 0
M  V30 3657 H 344.849 1.37419 3.73311 0
M  V30 3658 H 341.588 3.98636 5.20355 0
M  V30 3659 H 341.108 2.30651 5.53679 0
M  V30 3660 H 342.787 2.83004 5.81823 0
M  V30 3661 N 342.919 -1.39368 0.735821 0
M  V30 3662 C 344.144 -2.05319 0.293052 0
M  V30 3663 C 344.569 -1.55115 -1.064 0
M  V30 3664 O 343.927 -0.695261 -1.67439 0
M  V30 3665 C 343.975 -3.59305 0.305323 0
M  V30 3666 O 343.079 -4.06299 -0.706761 0
M  V30 3667 H 342.42 -0.650529 0.13307 0
M  V30 3668 H 344.95 -1.78386 1.00197 0
M  V30 3669 H 344.96 -4.07724 0.149997 0
M  V30 3670 H 343.635 -3.95207 1.29553 0
M  V30 3671 H 342.212 -3.69292 -0.517504 0
M  V30 3672 N 344.397 -0.483516 -1.5 0
M  V30 3673 C 345.347 0.32306 -2.257 0
M  V30 3674 C 346.331 0.950755 -1.29805 0
M  V30 3675 O 347.523 0.861247 -1.54634 0
M  V30 3676 C 344.652 1.39724 -3.13579 0
M  V30 3677 C 343.738 0.776663 -4.16928 0
M  V30 3678 N 344.129 -0.1104 -5.0568 0
M  V30 3679 C 342.427 1.03922 -4.33724 0
M  V30 3680 C 343.128 -0.46387 -5.79848 0
M  V30 3681 N 342.104 0.163987 -5.43353 0
M  V30 3682 H 345.906 -0.360086 -2.91686 0
M  V30 3683 H 343.42 -0.298456 -1.59634 0
M  V30 3684 H 345.417 1.98837 -3.66428 0
M  V30 3685 H 344.077 2.08225 -2.49143 0
M  V30 3686 H 345.088 -0.480069 -5.1567 0
M  V30 3687 H 341.765 1.71829 -3.80501 0
M  V30 3688 H 343.155 -1.18854 -6.61304 0
M  V30 3689 N 345.875 1.56104 -0.216619 0
M  V30 3690 C 346.805 2.23063 0.690296 0
M  V30 3691 C 347.786 1.20072 1.20485 0
M  V30 3692 O 348.971 1.48643 1.24976 0
M  V30 3693 C 346.101 2.90672 1.90072 0
M  V30 3694 C 345.055 4.00092 1.5202 0
M  V30 3695 C 344.381 4.54972 2.80899 0
M  V30 3696 C 345.681 5.17398 0.71391 0
M  V30 3697 H 347.375 2.99109 0.132038 0
M  V30 3698 H 344.921 1.43866 0.0620664 0
M  V30 3699 H 346.874 3.36204 2.54057 0
M  V30 3700 H 345.598 2.12066 2.48386 0
M  V30 3701 H 344.257 3.55283 0.903839 0
M  V30 3702 H 343.905 3.73102 3.37348 0
M  V30 3703 H 343.605 5.28817 2.56176 0
M  V30 3704 H 345.129 5.0322 3.45836 0
M  V30 3705 H 346.543 5.59342 1.25735 0
M  V30 3706 H 344.94 5.97444 0.563951 0
M  V30 3707 H 346.01 4.84088 -0.280527 0
M  V30 3708 N 347.353 -0.0568162 1.57498 0
M  V30 3709 C 348.601 -0.751617 1.87604 0
M  V30 3710 C 348.922 -1.77351 0.81066 0
M  V30 3711 O 348.192 -1.95254 -0.159018 0
M  V30 3712 H 346.772 -0.280583 0.692302 0
M  V30 3713 H 349.434 -0.0293483 1.94878 0
M  V30 3714 H 348.53 -1.25852 2.856 0
M  V30 3715 N 348.832 -1.54138 -0.328536 0
M  V30 3716 C 349.742 -1.86192 -1.42723 0
M  V30 3717 C 350.758 -0.753382 -1.56844 0
M  V30 3718 O 351.934 -1.04718 -1.72035 0
M  V30 3719 C 348.999 -2.07824 -2.77507 0
M  V30 3720 C 348.06 -3.31641 -2.72603 0
M  V30 3721 C 347.293 -3.52232 -4.00959 0
M  V30 3722 O 347.516 -2.7636 -4.9898 0
M  V30 3723 O 346.45 -4.45699 -4.0452 0
M  V30 3724 H 350.276 -2.79608 -1.18547 0
M  V30 3725 H 347.861 -1.3998 -0.522104 0
M  V30 3726 H 349.743 -2.23411 -3.57303 0
M  V30 3727 H 348.418 -1.17596 -3.01584 0
M  V30 3728 H 347.325 -3.21444 -1.91376 0
M  V30 3729 H 348.658 -4.2191 -2.53481 0
M  V30 3730 N 350.31 0.590341 -1.46126 0
M  V30 3731 C 351.24 1.71032 -1.58966 0
M  V30 3732 C 352.221 1.64302 -0.440335 0
M  V30 3733 O 353.406 1.82436 -0.665634 0
M  V30 3734 C 350.536 3.09665 -1.57241 0
M  V30 3735 C 349.49 3.31221 -2.71066 0
M  V30 3736 C 348.816 4.70303 -2.54399 0
M  V30 3737 C 350.116 3.19796 -4.1295 0
M  V30 3738 H 351.81 1.60543 -2.52718 0
M  V30 3739 H 349.356 0.770933 -1.21625 0
M  V30 3740 H 351.309 3.87831 -1.64819 0
M  V30 3741 H 350.033 3.21036 -0.600289 0
M  V30 3742 H 348.692 2.55452 -2.62944 0
M  V30 3743 H 348.34 4.78429 -1.55288 0
M  V30 3744 H 348.04 4.85679 -3.30741 0
M  V30 3745 H 349.564 5.50647 -2.63857 0
M  V30 3746 H 350.978 3.87815 -4.22223 0
M  V30 3747 H 349.375 3.46696 -4.89818 0
M  V30 3748 H 350.445 2.16983 -4.33643 0
M  V30 3749 N 351.788 1.33704 0.83433 0
M  V30 3750 C 352.735 1.24335 1.94447 0
M  V30 3751 C 353.705 0.120991 1.65659 0
M  V30 3752 O 354.89 0.300035 1.88426 0
M  V30 3753 C 352.03 0.993124 3.30501 0
M  V30 3754 C 351.143 2.20217 3.71657 0
M  V30 3755 C 350.278 1.88572 4.96602 0
M  V30 3756 C 349.317 3.05683 5.30306 0
M  V30 3757 N 348.454 2.73997 6.46429 0
M  V30 3758 H 353.294 2.1928 2.01792 0
M  V30 3759 H 350.831 1.09035 0.987404 0
M  V30 3760 H 352.789 0.828467 4.08892 0
M  V30 3761 H 351.419 0.0803902 3.227 0
M  V30 3762 H 350.471 2.47642 2.88752 0
M  V30 3763 H 351.783 3.07752 3.92543 0
M  V30 3764 H 350.937 1.68776 5.82752 0
M  V30 3765 H 349.676 0.982799 4.77695 0
M  V30 3766 H 348.681 3.26088 4.42659 0
M  V30 3767 H 349.906 3.96737 5.51159 0
M  V30 3768 H 347.852 1.86268 6.28999 0
M  V30 3769 H 347.769 3.55064 6.67432 0
M  V30 3770 H 349.037 2.57679 7.35678 0
M  V30 3771 N 353.266 -1.05314 1.17247 0
M  V30 3772 C 354.196 -2.1498 0.911362 0
M  V30 3773 C 355.177 -1.69471 -0.146169 0
M  V30 3774 O 356.362 -1.942 0.003812 0
M  V30 3775 C 353.492 -3.4472 0.422528 0
M  V30 3776 C 352.446 -4.03789 1.4191 0
M  V30 3777 C 351.772 -5.28858 0.788274 0
M  V30 3778 C 353.072 -4.41418 2.7919 0
M  V30 3779 H 354.766 -2.3708 1.82848 0
M  V30 3780 H 352.312 -1.13938 0.880569 0
M  V30 3781 H 354.265 -4.20787 0.227289 0
M  V30 3782 H 352.989 -3.22269 -0.530123 0
M  V30 3783 H 351.648 -3.2979 1.60106 0
M  V30 3784 H 351.296 -5.02709 -0.171173 0
M  V30 3785 H 350.996 -5.69338 1.45353 0
M  V30 3786 H 352.52 -6.07612 0.603282 0
M  V30 3787 H 353.934 -5.08524 2.64719 0
M  V30 3788 H 352.331 -4.92913 3.42282 0
M  V30 3789 H 353.401 -3.51819 3.33693 0
M  V30 3790 N 354.744 -0.972509 -1.24016 0
M  V30 3791 C 355.707 -0.511403 -2.23422 0
M  V30 3792 C 356.707 0.394679 -1.55881 0
M  V30 3793 O 357.897 0.189469 -1.73167 0
M  V30 3794 C 355.029 0.258769 -3.39916 0
M  V30 3795 H 356.222 -1.39024 -2.6573 0
M  V30 3796 H 353.775 -0.757585 -1.36713 0
M  V30 3797 H 354.51 1.1545 -3.03054 0
M  V30 3798 H 354.295 -0.391522 -3.9014 0
M  V30 3799 H 355.785 0.570244 -4.13688 0
M  V30 3800 N 356.222 1.38976 -0.743202 0
M  V30 3801 C 357.499 1.94351 -0.220705 0
M  V30 3802 C 357.879 1.67935 1.2791 0
M  V30 3803 O 357.227 1.01211 2.04862 0
M  V30 3804 C 357.437 3.44426 -0.563171 0
M  V30 3805 C 358.785 4.2144 -0.517046 0
M  V30 3806 O 359.809 3.52661 -0.500846 0
M  V30 3807 O 358.668 5.44032 -0.518806 0
M  V30 3808 H 355.762 0.825879 -0.043047 0
M  V30 3809 H 358.308 1.48429 -0.822618 0
M  V30 3810 H 357.08 3.5712 -1.59941 0
M  V30 3811 H 356.703 3.97543 0.0672883 0
M  V30 3812 N 357.7 0.491464 1.49741 0
M  V30 3813 C 358.947 -0.0564256 2.02421 0
M  V30 3814 C 359.275 -1.37872 1.37192 0
M  V30 3815 O 358.53 -1.89375 0.493508 0
M  V30 3816 C 358.829 -0.267329 3.56399 0
M  V30 3817 C 358.495 0.975775 4.40215 0
M  V30 3818 C 357.157 1.31655 4.62839 0
M  V30 3819 C 359.509 1.80251 4.89039 0
M  V30 3820 C 356.837 2.48375 5.31532 0
M  V30 3821 C 359.189 2.96116 5.59015 0
M  V30 3822 C 357.853 3.30585 5.79888 0
M  V30 3823 H 357.123 -0.0206476 0.740712 0
M  V30 3824 H 359.77 0.649686 1.80143 0
M  V30 3825 H 358.075 -1.05588 3.77304 0
M  V30 3826 H 359.772 -0.705549 3.94744 0
M  V30 3827 H 356.362 0.700315 4.2284 0
M  V30 3828 H 360.546 1.55239 4.71396 0
M  V30 3829 H 355.802 2.7533 5.45897 0
M  V30 3830 H 359.976 3.60509 5.95824 0
M  V30 3831 H 357.603 4.21132 6.32892 0
M  V30 3832 N 359.178 -1.55987 0.224894 0
M  V30 3833 C 360.426 -1.97998 -0.405099 0
M  V30 3834 C 360.747 -1.11387 -1.60056 0
M  V30 3835 O 360.017 -0.191645 -1.9496 0
M  V30 3836 H 358.597 -0.731235 -0.152658 0
M  V30 3837 H 361.259 -1.92279 0.318567 0
M  V30 3838 H 360.355 -3.03463 -0.729167 0
M  V30 3839 N 360.656 0.0484629 -1.57525 0
M  V30 3840 C 361.586 1.0549 -2.08313 0
M  V30 3841 C 362.567 1.38929 -0.981463 0
M  V30 3842 O 363.752 1.48151 -1.25558 0
M  V30 3843 C 360.882 2.36162 -2.54646 0
M  V30 3844 C 359.836 2.17016 -3.68901 0
M  V30 3845 C 359.162 3.53278 -4.01371 0
M  V30 3846 C 360.462 1.57219 -4.98076 0
M  V30 3847 H 362.156 0.632195 -2.92649 0
M  V30 3848 H 359.702 0.302654 -1.40784 0
M  V30 3849 H 361.655 3.06882 -2.88793 0
M  V30 3850 H 360.379 2.80456 -1.67368 0
M  V30 3851 H 359.038 1.48733 -3.35073 0
M  V30 3852 H 358.686 3.95185 -3.11188 0
M  V30 3853 H 358.386 3.41299 -4.78318 0
M  V30 3854 H 359.91 4.25391 -4.38035 0
M  V30 3855 H 361.324 2.17832 -5.30304 0
M  V30 3856 H 359.721 1.55871 -5.79503 0
M  V30 3857 H 360.791 0.535956 -4.81929 0
M  V30 3858 N 362.134 1.5431 0.320358 0
M  V30 3859 C 363.097 1.83195 1.3774 0
M  V30 3860 C 364.097 0.703906 1.44575 0
M  V30 3861 O 365.287 0.972214 1.44546 0
M  V30 3862 C 362.419 1.99487 2.76438 0
M  V30 3863 H 363.612 2.77642 1.1338 0
M  V30 3864 H 361.165 1.46076 0.556012 0
M  V30 3865 H 361.9 1.07262 3.06048 0
M  V30 3866 H 361.685 2.81575 2.7287 0
M  V30 3867 H 363.175 2.23271 3.52902 0
M  V30 3868 N 363.613 -0.582584 1.46437 0
M  V30 3869 C 365.029 -0.905962 1.31394 0
M  V30 3870 C 365.229 -1.99468 0.285476 0
M  V30 3871 O 364.285 -2.50566 -0.311914 0
M  V30 3872 C 365.598 -1.3232 2.70022 0
M  V30 3873 C 367.146 -1.43604 2.78113 0
M  V30 3874 C 367.621 -1.88694 4.17323 0
M  V30 3875 N 369.112 -1.95887 4.19741 0
M  V30 3876 C 369.847 -2.32051 5.24347 0
M  V30 3877 N 369.343 -2.67006 6.39281 0
M  V30 3878 N 371.136 -2.32606 5.11713 0
M  V30 3879 H 363.287 0.1366 2.1196 0
M  V30 3880 H 365.55 -0.00155736 0.947999 0
M  V30 3881 H 365.256 -0.597242 3.46592 0
M  V30 3882 H 365.13 -2.28469 3.00136 0
M  V30 3883 H 367.517 -2.15286 2.01832 0
M  V30 3884 H 367.598 -0.457059 2.51684 0
M  V30 3885 H 367.242 -1.1759 4.941 0
M  V30 3886 H 367.172 -2.8755 4.4116 0
M  V30 3887 H 369.663 -1.71362 3.36814 0
M  V30 3888 H 369.976 -2.93554 7.14875 0
M  V30 3889 H 368.321 -2.64644 6.42642 0
M  V30 3890 H 371.512 -2.04721 4.2096 0
M  V30 3891 H 371.685 -2.60462 5.93349 0
M  V30 3892 N 365.091 -1.34144 -0.827227 0
M  V30 3893 C 366.054 -1.25264 -1.91942 0
M  V30 3894 C 367.054 -0.168866 -1.59911 0
M  V30 3895 O 368.244 -0.421198 -1.69031 0
M  V30 3896 C 365.376 -0.932952 -3.27885 0
M  V30 3897 H 366.569 -2.22357 -2.0124 0
M  V30 3898 H 364.122 -1.1837 -1.0207 0
M  V30 3899 H 364.857 0.0349917 -3.24281 0
M  V30 3900 H 364.642 -1.71682 -3.52516 0
M  V30 3901 H 366.132 -0.895874 -4.07877 0
M  V30 3902 N 366.569 1.04691 -1.17803 0
M  V30 3903 C 367.516 2.12557 -0.899343 0
M  V30 3904 C 368.486 1.65339 0.158771 0
M  V30 3905 O 369.671 1.90789 0.0204797 0
M  V30 3906 C 366.811 3.42481 -0.424315 0
M  V30 3907 C 365.924 4.03346 -1.54713 0
M  V30 3908 C 365.059 5.21208 -1.02546 0
M  V30 3909 C 364.098 5.74089 -2.12339 0
M  V30 3910 N 363.235 6.83247 -1.61612 0
M  V30 3911 H 368.075 2.35734 -1.823 0
M  V30 3912 H 365.612 1.1564 -0.909159 0
M  V30 3913 H 367.57 4.16996 -0.130421 0
M  V30 3914 H 366.2 3.19471 0.462377 0
M  V30 3915 H 365.252 3.2622 -1.95664 0
M  V30 3916 H 366.564 4.38628 -2.37501 0
M  V30 3917 H 365.718 6.02812 -0.685718 0
M  V30 3918 H 364.457 4.87414 -0.167084 0
M  V30 3919 H 363.462 4.91111 -2.47165 0
M  V30 3920 H 364.687 6.0993 -2.98601 0
M  V30 3921 H 362.633 6.5134 -0.780533 0
M  V30 3922 H 362.55 7.17559 -2.38003 0
M  V30 3923 H 363.818 7.68491 -1.30545 0
M  V30 3924 N 368.047 0.979072 1.23499 0
M  V30 3925 C 369.272 0.664845 1.96455 0
M  V30 3926 C 369.697 -0.761287 1.72006 0
M  V30 3927 O 369.055 -1.51837 0.990713 0
M  V30 3928 C 369.103 0.959479 3.47601 0
M  V30 3929 O 368.207 0.0508168 4.12369 0
M  V30 3930 H 367.548 0.250185 0.615064 0
M  V30 3931 H 370.078 1.31231 1.5697 0
M  V30 3932 H 370.088 0.895642 3.98048 0
M  V30 3933 H 368.763 1.99876 3.64723 0
M  V30 3934 H 367.34 0.16895 3.72517 0
M  V30 3935 N 369.525 -1.3858 0.750561 0
M  V30 3936 C 370.774 -1.99424 0.302172 0
M  V30 3937 C 371.087 -1.60254 -1.12152 0
M  V30 3938 O 372.293 -2.14046 -1.67023 0
M  V30 3939 C 370.749 -3.56558 0.489307 0
M  V30 3940 C 370.357 -4.04682 1.92189 0
M  V30 3941 C 372.101 -4.24374 0.103478 0
M  V30 3942 C 370.008 -5.54446 2.05775 0
M  V30 3943 H 368.938 -0.746046 0.10923 0
M  V30 3944 H 371.589 -1.58383 0.92667 0
M  V30 3945 H 369.971 -3.95472 -0.204329 0
M  V30 3946 H 371.145 -3.77065 2.64875 0
M  V30 3947 H 369.46 -3.4958 2.26236 0
M  V30 3948 H 372.057 -5.34384 0.183787 0
M  V30 3949 H 372.4 -4.05468 -0.943481 0
M  V30 3950 H 372.933 -3.90688 0.748854 0
M  V30 3951 H 369.672 -5.78252 3.08714 0
M  V30 3952 H 369.192 -5.83816 1.37546 0
M  V30 3953 H 370.871 -6.20099 1.84626 0
M  V30 3954 N 371.003 -0.499398 -1.49478 0
M  V30 3955 C 372.414 -0.051215 -1.8663 0
M  V30 3956 C 372.765 1.36238 -1.41186 0
M  V30 3957 O 371.89 2.01502 -0.789051 0
M  V30 3958 C 372.485 -0.0861651 -3.3869 0
M  V30 3959 C 371.044 0.30667 -3.75149 0
M  V30 3960 C 370.191 -0.459397 -2.73468 0
M  V30 3961 H 373.142 -0.712264 -1.41818 0
M  V30 3962 H 373.163 0.709507 -3.73826 0
M  V30 3963 H 372.675 -1.11512 -3.71735 0
M  V30 3964 H 370.776 1.33892 -3.47712 0
M  V30 3965 H 370.889 -0.0116669 -4.79099 0
M  V30 3966 H 369.253 0.0905645 -2.54539 0
M  V30 3967 H 370.036 -1.4884 -3.09357 0
M  V30 3968 N 372.481 1.55866 -0.233164 0
M  V30 3969 C 373.706 2.03449 0.402906 0
M  V30 3970 C 374.131 1.11166 1.51736 0
M  V30 3971 O 373.489 0.101996 1.81013 0
M  V30 3972 C 373.537 3.49165 0.9009 0
M  V30 3973 O 372.641 3.60019 2.01147 0
M  V30 3974 H 371.982 0.657913 0.0897025 0
M  V30 3975 H 374.512 2.01493 -0.355201 0
M  V30 3976 H 374.522 3.89716 1.2077 0
M  V30 3977 H 373.197 4.15813 0.0852889 0
M  V30 3978 H 371.774 3.3136 1.71042 0
M  V30 3979 N 373.959 -0.0401083 1.57549 0
M  V30 3980 C 374.891 -1.07149 2.02612 0
M  V30 3981 C 375.904 -1.33126 0.937085 0
M  V30 3982 O 377.093 -1.30808 1.21456 0
M  V30 3983 C 374.193 -2.41561 2.37701 0
M  V30 3984 C 373.366 -2.35096 3.68848 0
M  V30 3985 C 372.425 -3.51867 3.91249 0
M  V30 3986 O 371.451 -3.3186 4.62447 0
M  V30 3987 N 372.653 -4.73351 3.36035 0
M  V30 3988 H 375.418 -0.687485 2.91708 0
M  V30 3989 H 372.979 -0.228248 1.60283 0
M  V30 3990 H 374.971 -3.18379 2.49833 0
M  V30 3991 H 373.541 -2.71846 1.54332 0
M  V30 3992 H 372.761 -1.4345 3.67173 0
M  V30 3993 H 374.049 -2.27908 4.54901 0
M  V30 3994 H 373.447 -4.92507 2.78304 0
M  V30 3995 H 372.004 -5.47572 3.53565 0
M  V30 3996 N 375.437 -1.54477 -0.31217 0
M  V30 3997 C 376.665 -1.77205 -1.068 0
M  V30 3998 C 377.08 -0.526114 -1.81321 0
M  V30 3999 O 376.437 0.503647 -1.75413 0
M  V30 4000 C 376.488 -2.97253 -2.05725 0
M  V30 4001 O 376.209 -4.1703 -1.34228 0
M  V30 4002 C 377.71 -3.32281 -2.93435 0
M  V30 4003 H 374.93 -0.591287 -0.317208 0
M  V30 4004 H 377.474 -2.01398 -0.354834 0
M  V30 4005 H 375.629 -2.753 -2.72559 0
M  V30 4006 H 376.043 -4.84636 -2.00571 0
M  V30 4007 H 377.517 -4.19551 -3.58721 0
M  V30 4008 H 377.994 -2.49945 -3.61143 0
M  V30 4009 H 378.6 -3.56353 -2.32147 0
M  V30 4010 N 376.915 0.57481 -1.46744 0
M  V30 4011 C 378.145 1.35659 -1.55821 0
M  V30 4012 C 378.553 1.88129 -0.201036 0
M  V30 4013 O 377.896 1.64723 0.813134 0
M  V30 4014 C 377.958 2.57473 -2.50894 0
M  V30 4015 C 377.622 2.26415 -3.9697 0
M  V30 4016 C 378.619 1.84771 -4.85958 0
M  V30 4017 C 376.304 2.38316 -4.42166 0
M  V30 4018 C 378.298 1.55434 -6.18158 0
M  V30 4019 C 375.985 2.08591 -5.74398 0
M  V30 4020 C 376.983 1.67216 -6.62214 0
M  V30 4021 O 376.671 1.37859 -7.91991 0
M  V30 4022 H 376.403 0.420496 -0.529301 0
M  V30 4023 H 378.957 0.704967 -1.92923 0
M  V30 4024 H 377.187 3.25468 -2.08824 0
M  V30 4025 H 378.876 3.19546 -2.50291 0
M  V30 4026 H 379.642 1.75085 -4.52295 0
M  V30 4027 H 375.521 2.69483 -3.74032 0
M  V30 4028 H 379.065 1.23065 -6.86659 0
M  V30 4029 H 374.962 2.17905 -6.07608 0
M  V30 4030 H 375.73 1.51638 -8.04331 0
M  V30 4031 N 378.394 1.34581 0.820102 0
M  V30 4032 C 379.619 1.30333 1.61332 0
M  V30 4033 C 380.044 -0.119339 1.87721 0
M  V30 4034 O 379.402 -1.08197 1.45475 0
M  V30 4035 C 379.45 2.10258 2.92957 0
M  V30 4036 O 378.554 1.47404 3.85157 0
M  V30 4037 H 377.895 0.447488 0.490561 0
M  V30 4038 H 380.425 1.77425 1.01889 0
M  V30 4039 H 380.435 2.21718 3.42498 0
M  V30 4040 H 379.11 3.13693 2.73074 0
M  V30 4041 H 377.687 1.44703 3.43679 0
M  V30 4042 N 379.872 -1.04064 1.18357 0
M  V30 4043 C 381.097 -1.81454 1.00445 0
M  V30 4044 C 381.522 -1.82823 -0.442423 0
M  V30 4045 O 380.88 -1.24555 -1.31741 0
M  V30 4046 C 380.928 -3.24925 1.56384 0
M  V30 4047 O 380.032 -4.04856 0.785209 0
M  V30 4048 H 379.373 -0.560604 0.355835 0
M  V30 4049 H 381.903 -1.31059 1.57114 0
M  V30 4050 H 381.913 -3.75702 1.59097 0
M  V30 4051 H 380.588 -3.23244 2.61699 0
M  V30 4052 H 379.165 -3.63537 0.830399 0
M  V30 4053 N 381.35 -0.985608 -1.22978 0
M  V30 4054 C 382.26 -0.538548 -2.28335 0
M  V30 4055 C 383.276 0.409163 -1.69121 0
M  V30 4056 O 384.452 0.277797 -1.99475 0
M  V30 4057 C 381.517 0.146867 -3.46389 0
M  V30 4058 C 380.578 -0.842896 -4.20944 0
M  V30 4059 C 379.811 -0.190095 -5.33361 0
M  V30 4060 O 380.034 1.01767 -5.61248 0
M  V30 4061 O 378.968 -0.891289 -5.95264 0
M  V30 4062 H 382.794 -1.41487 -2.68729 0
M  V30 4063 H 380.379 -0.753495 -1.29007 0
M  V30 4064 H 382.261 0.531125 -4.1804 0
M  V30 4065 H 380.936 0.997871 -3.07935 0
M  V30 4066 H 379.843 -1.27795 -3.51595 0
M  V30 4067 H 381.176 -1.66287 -4.6326 0
M  V30 4068 N 382.828 1.3818 -0.7579 0
M  V30 4069 C 384.074 2.00316 -0.316453 0
M  V30 4070 C 384.407 1.60026 1.10025 0
M  V30 4071 O 383.682 0.839835 1.75434 0
M  V30 4072 C 383.965 3.57349 -0.444245 0
M  V30 4073 C 383.818 4.07591 -1.90236 0
M  V30 4074 C 385.137 4.3981 0.1598 0
M  V30 4075 H 382.256 0.727741 -0.116459 0
M  V30 4076 H 384.898 1.6406 -0.958352 0
M  V30 4077 H 383.048 3.88365 0.102233 0
M  V30 4078 H 384.72 3.87199 -2.50748 0
M  V30 4079 H 382.963 3.60297 -2.41595 0
M  V30 4080 H 383.634 5.16677 -1.94291 0
M  V30 4081 H 386.11 4.14971 -0.306314 0
M  V30 4082 H 384.986 5.48885 0.0401675 0
M  V30 4083 H 385.247 4.24102 1.24859 0
M  V30 4084 N 384.306 0.507319 1.49211 0
M  V30 4085 C 385.552 -0.0350047 2.0277 0
M  V30 4086 C 385.885 -1.3606 1.38569 0
M  V30 4087 O 385.16 -1.87321 0.523542 0
M  V30 4088 C 385.443 -0.180916 3.59645 0
M  V30 4089 C 385.296 1.16825 4.34364 0
M  V30 4090 C 386.615 -0.918558 4.30407 0
M  V30 4091 H 383.734 -0.0112473 0.736914 0
M  V30 4092 H 386.376 0.659956 1.7817 0
M  V30 4093 H 384.526 -0.772826 3.80736 0
M  V30 4094 H 386.198 1.79952 4.24753 0
M  V30 4095 H 384.441 1.75594 3.96673 0
M  V30 4096 H 385.112 1.01939 5.42506 0
M  V30 4097 H 387.588 -0.41649 4.1401 0
M  V30 4098 H 386.464 -0.989505 5.39907 0
M  V30 4099 H 386.725 -1.96373 3.96093 0
M  V30 4100 N 385.784 -1.5574 0.241426 0
M  V30 4101 C 387.012 -2.03208 -0.389134 0
M  V30 4102 C 387.427 -1.12082 -1.51931 0
M  V30 4103 O 386.784 -0.134183 -1.82006 0
M  V30 4104 C 386.835 -3.50064 -0.902087 0
M  V30 4105 O 386.556 -4.37717 0.18305 0
M  V30 4106 C 388.057 -4.13268 -1.60389 0
M  V30 4107 H 385.277 -0.664509 -0.0931053 0
M  V30 4108 H 387.821 -2.0124 0.36369 0
M  V30 4109 H 385.976 -3.52583 -1.60511 0
M  V30 4110 H 386.39 -5.24097 -0.205579 0
M  V30 4111 H 387.864 -5.17733 -1.91458 0
M  V30 4112 H 388.341 -3.59434 -2.52397 0
M  V30 4113 H 388.947 -4.14655 -0.945576 0
M  V30 4114 N 387.262 0.0317525 -1.57568 0
M  V30 4115 C 388.192 1.03274 -2.0942 0
M  V30 4116 C 389.173 1.3788 -0.996143 0
M  V30 4117 O 390.358 1.46811 -1.27122 0
M  V30 4118 C 387.488 2.33448 -2.57137 0
M  V30 4119 C 386.442 2.13091 -3.71182 0
M  V30 4120 C 385.768 3.49001 -4.05095 0
M  V30 4121 C 387.068 1.51928 -4.99715 0
M  V30 4122 H 388.762 0.60112 -2.93303 0
M  V30 4123 H 386.308 0.287705 -1.41097 0
M  V30 4124 H 388.261 3.03802 -2.92032 0
M  V30 4125 H 386.985 2.78665 -1.70333 0
M  V30 4126 H 385.644 1.45171 -3.36632 0
M  V30 4127 H 385.292 3.91862 -3.15362 0
M  V30 4128 H 384.992 3.36207 -4.81911 0
M  V30 4129 H 386.516 4.20721 -4.42522 0
M  V30 4130 H 387.93 2.12196 -5.32584 0
M  V30 4131 H 386.327 1.49716 -5.81124 0
M  V30 4132 H 387.397 0.484811 -4.8247 0
M  V30 4133 N 388.74 1.54641 0.303973 0
M  V30 4134 C 389.986 1.74969 1.03718 0
M  V30 4135 C 390.341 0.527461 1.85029 0
M  V30 4136 O 389.634 -0.480143 1.85486 0
M  V30 4137 C 389.828 2.97753 1.97681 0
M  V30 4138 C 389.657 4.318 1.25613 0
M  V30 4139 C 388.427 4.95616 0.984518 0
M  V30 4140 C 390.625 5.10021 0.662081 0
M  V30 4141 N 388.607 6.13455 0.233794 0
M  V30 4142 C 389.978 6.19984 0.0439736 0
M  V30 4143 C 392.033 4.94663 0.566835 0
M  V30 4144 C 390.736 7.16264 -0.66016 0
M  V30 4145 C 392.762 5.91271 -0.123637 0
M  V30 4146 C 392.124 7.00601 -0.730608 0
M  V30 4147 H 388.223 0.692873 0.362562 0
M  V30 4148 H 390.807 1.92116 0.316135 0
M  V30 4149 H 388.978 2.82036 2.6704 0
M  V30 4150 H 390.71 3.06621 2.64132 0
M  V30 4151 H 387.465 4.55921 1.28191 0
M  V30 4152 H 387.889 6.76879 -0.127996 0
M  V30 4153 H 392.531 4.10267 1.02181 0
M  V30 4154 H 390.249 8.00204 -1.12691 0
M  V30 4155 H 393.835 5.81466 -0.197236 0
M  V30 4156 H 392.715 7.7407 -1.2564 0
M  V30 4157 N 390.218 -0.567019 1.47046 0
M  V30 4158 C 391.448 -1.34831 1.56538 0
M  V30 4159 C 391.856 -1.8802 0.21101 0
M  V30 4160 O 391.199 -1.65152 -0.804387 0
M  V30 4161 C 391.261 -2.56139 2.52256 0
M  V30 4162 C 390.925 -2.24307 3.98165 0
M  V30 4163 C 391.922 -1.82192 4.86931 0
M  V30 4164 C 389.607 -2.35968 4.43423 0
M  V30 4165 C 391.601 -1.52153 6.18973 0
M  V30 4166 C 389.288 -2.05542 5.75496 0
M  V30 4167 C 390.286 -1.63701 6.63092 0
M  V30 4168 O 389.974 -1.33657 7.92711 0
M  V30 4169 H 389.706 -0.417683 0.531523 0
M  V30 4170 H 392.26 -0.694726 1.93294 0
M  V30 4171 H 390.49 -3.24356 2.10548 0
M  V30 4172 H 392.179 -3.18214 2.51982 0
M  V30 4173 H 392.945 -1.72684 4.53217 0
M  V30 4174 H 388.824 -2.67495 3.75456 0
M  V30 4175 H 392.368 -1.19421 6.87302 0
M  V30 4176 H 388.265 -2.14679 6.08755 0
M  V30 4177 H 389.033 -1.4737 8.05124 0
M  V30 4178 N 391.696 -1.35014 -0.812953 0
M  V30 4179 C 393.112 -1.14914 -1.10757 0
M  V30 4180 C 393.312 0.0426818 -2.01455 0
M  V30 4181 O 392.368 0.715212 -2.42159 0
M  V30 4182 C 393.681 -2.44911 -1.74468 0
M  V30 4183 C 395.229 -2.5106 -1.86917 0
M  V30 4184 C 395.704 -3.81085 -2.54044 0
M  V30 4185 N 397.195 -3.82301 -2.61535 0
M  V30 4186 C 397.93 -4.79634 -3.14227 0
M  V30 4187 N 397.426 -5.87353 -3.67407 0
M  V30 4188 N 399.219 -4.67078 -3.12721 0
M  V30 4189 H 391.37 -2.1136 -0.20989 0
M  V30 4190 H 393.633 -0.935128 -0.155692 0
M  V30 4191 H 393.339 -3.32267 -1.15289 0
M  V30 4192 H 393.213 -2.58989 -2.74234 0
M  V30 4193 H 395.6 -1.64137 -2.45241 0
M  V30 4194 H 395.681 -2.40901 -0.860242 0
M  V30 4195 H 395.325 -4.68402 -1.96372 0
M  V30 4196 H 395.255 -3.88529 -3.55461 0
M  V30 4197 H 397.746 -3.04465 -2.23851 0
M  V30 4198 H 398.059 -6.57624 -4.05894 0
M  V30 4199 H 396.404 -5.91054 -3.65623 0
M  V30 4200 H 399.595 -3.82067 -2.70449 0
M  V30 4201 H 399.768 -5.43098 -3.53481 0
M  V30 4202 N 393.175 1.03435 -1.18907 0
M  V30 4203 C 394.586 1.58195 -0.991523 0
M  V30 4204 C 394.937 1.90801 0.457081 0
M  V30 4205 O 394.062 1.70272 1.33553 0
M  V30 4206 C 394.657 2.87432 -1.79355 0
M  V30 4207 C 393.216 3.38785 -1.64017 0
M  V30 4208 C 392.363 2.12292 -1.78402 0
M  V30 4209 H 395.314 0.860299 -1.33359 0
M  V30 4210 H 395.335 3.58096 -1.28638 0
M  V30 4211 H 394.847 2.63669 -2.84781 0
M  V30 4212 H 392.948 3.67547 -0.611536 0
M  V30 4213 H 393.061 4.12186 -2.44212 0
M  V30 4214 H 391.425 2.23901 -1.2141 0
M  V30 4215 H 392.208 1.90977 -2.85277 0
M  V30 4216 N 394.653 0.992116 1.22453 0
M  V30 4217 C 396.064 0.702776 1.72968 0
M  V30 4218 C 396.415 -0.780399 1.80012 0
M  V30 4219 O 395.54 -1.61007 1.44589 0
M  V30 4220 C 396.135 1.26903 3.14135 0
M  V30 4221 C 394.694 1.02909 3.62059 0
M  V30 4222 C 393.841 1.38969 2.39964 0
M  V30 4223 H 396.792 1.16457 1.07812 0
M  V30 4224 H 396.813 0.647223 3.74955 0
M  V30 4225 H 396.325 2.34851 3.08977 0
M  V30 4226 H 394.426 -0.0337979 3.72585 0
M  V30 4227 H 394.539 1.69191 4.48231 0
M  V30 4228 H 392.903 0.808279 2.41535 0
M  V30 4229 H 393.686 2.4792 2.37467 0
M  V30 4230 N 396.131 -1.37776 0.765217 0
M  V30 4231 C 397.408 -1.93975 0.251596 0
M  V30 4232 C 397.788 -1.69949 -1.25222 0
M  V30 4233 O 397.136 -1.04457 -2.03226 0
M  V30 4234 C 397.346 -3.43487 0.617895 0
M  V30 4235 C 398.694 -4.20564 0.584029 0
M  V30 4236 O 399.718 -3.5182 0.556888 0
M  V30 4237 O 398.577 -5.43138 0.605291 0
M  V30 4238 H 395.671 -0.82509 0.0561806 0
M  V30 4239 H 398.217 -1.47101 0.846128 0
M  V30 4240 H 396.989 -3.5453 1.65602 0
M  V30 4241 H 396.612 -3.976 -0.00403411 0
M  V30 4242 N 397.609 -0.515225 -1.4894 0
M  V30 4243 C 398.572 0.244681 -2.2789 0
M  V30 4244 C 399.572 0.881166 -1.34507 0
M  V30 4245 O 400.762 0.743497 -1.57537 0
M  V30 4246 C 397.894 1.35247 -3.12923 0
M  V30 4247 H 399.087 -0.448289 -2.96531 0
M  V30 4248 H 396.64 -0.270656 -1.53939 0
M  V30 4249 H 397.375 2.07916 -2.48881 0
M  V30 4250 H 397.16 0.901374 -3.81599 0
M  V30 4251 H 398.65 1.88737 -3.72516 0
M  V30 4252 N 399.087 1.5561 -0.249682 0
M  V30 4253 C 400.017 2.24477 0.642826 0
M  V30 4254 C 400.998 1.22601 1.17911 0
M  V30 4255 O 402.183 1.5126 1.21795 0
M  V30 4256 C 399.313 2.94638 1.83863 0
M  V30 4257 C 398.267 4.03227 1.435 0
M  V30 4258 C 397.593 4.60828 2.71186 0
M  V30 4259 C 398.893 5.18796 0.604002 0
M  V30 4260 H 400.587 2.99321 0.0685625 0
M  V30 4261 H 398.133 1.43965 0.0315363 0
M  V30 4262 H 400.086 3.41517 2.46868 0
M  V30 4263 H 398.81 2.17287 2.43832 0
M  V30 4264 H 397.469 3.57121 0.828275 0
M  V30 4265 H 397.117 3.80174 3.29358 0
M  V30 4266 H 396.817 5.34132 2.44901 0
M  V30 4267 H 398.341 5.10442 3.35084 0
M  V30 4268 H 399.755 5.61883 1.13842 0
M  V30 4269 H 398.152 5.98506 0.437097 0
M  V30 4270 H 399.222 4.83384 -0.383147 0
M  V30 4271 N 400.565 -0.0233959 1.57583 0
M  V30 4272 C 401.495 -1.02162 2.09965 0
M  V30 4273 C 402.476 -1.3735 1.00344 0
M  V30 4274 O 403.661 -1.46135 1.27899 0
M  V30 4275 C 400.791 -2.32081 2.58371 0
M  V30 4276 C 399.745 -2.1112 3.72307 0
M  V30 4277 C 399.071 -3.46848 4.06941 0
M  V30 4278 C 400.371 -1.49276 5.00514 0
M  V30 4279 H 402.065 -0.585557 2.93618 0
M  V30 4280 H 399.611 -0.280218 1.41247 0
M  V30 4281 H 401.564 -3.02249 2.93639 0
M  V30 4282 H 400.288 -2.77758 1.71808 0
M  V30 4283 H 398.947 -1.43384 3.37397 0
M  V30 4284 H 398.595 -3.90184 3.17436 0
M  V30 4285 H 398.295 -3.33646 4.83688 0
M  V30 4286 H 399.819 -4.18369 4.44747 0
M  V30 4287 H 401.233 -2.09368 5.33702 0
M  V30 4288 H 399.63 -1.46632 5.8191 0
M  V30 4289 H 400.7 -0.459217 4.82721 0
M  V30 4290 N 402.043 -1.548 -0.295768 0
M  V30 4291 C 403.291 -1.73985 -1.02828 0
M  V30 4292 C 403.612 -0.531406 -1.87619 0
M  V30 4293 O 402.882 0.454221 -1.90561 0
M  V30 4294 H 401.462 -0.641556 -0.382642 0
M  V30 4295 H 404.124 -1.92163 -0.325489 0
M  V30 4296 H 403.22 -2.63129 -1.67838 0
M  V30 4297 N 403.521 0.559213 -1.47345 0
M  V30 4298 C 404.484 1.64854 -1.59235 0
M  V30 4299 C 405.484 1.53851 -0.467607 0
M  V30 4300 O 406.674 1.58045 -0.732617 0
M  V30 4301 C 403.806 3.04388 -1.53496 0
M  V30 4302 H 404.999 1.55662 -2.56339 0
M  V30 4303 H 402.552 0.778973 -1.35505 0
M  V30 4304 H 403.287 3.19115 -0.577604 0
M  V30 4305 H 403.072 3.13783 -2.35123 0
M  V30 4306 H 404.562 3.83642 -1.6495 0
M  V30 4307 N 404.999 1.35443 0.805782 0
M  V30 4308 C 406.227 1.31878 1.59423 0
M  V30 4309 C 406.642 -0.103562 1.88516 0
M  V30 4310 O 405.999 -1.05575 1.48863 0
M  V30 4311 C 406.05 2.12426 2.92502 0
M  V30 4312 O 405.771 3.49115 2.6467 0
M  V30 4313 C 407.272 2.16455 3.86862 0
M  V30 4314 H 404.492 0.453002 0.495005 0
M  V30 4315 H 407.036 1.78309 1.00131 0
M  V30 4316 H 405.191 1.69593 3.48306 0
M  V30 4317 H 405.605 3.90957 3.49647 0
M  V30 4318 H 407.079 2.77204 4.77349 0
M  V30 4319 H 407.556 1.16352 4.23508 0
M  V30 4320 H 408.162 2.59453 3.36993 0
M  V30 4321 N 406.477 -1.02803 1.19454 0
M  V30 4322 C 407.387 -2.14575 0.948408 0
M  V30 4323 C 408.403 -1.73757 -0.091871 0
M  V30 4324 O 409.579 -2.01185 0.0929654 0
M  V30 4325 C 406.644 -3.43202 0.491265 0
M  V30 4326 C 405.705 -3.98328 1.60103 0
M  V30 4327 C 404.938 -5.20816 1.16561 0
M  V30 4328 O 405.161 -5.70392 0.0295238 0
M  V30 4329 O 404.095 -5.68801 1.96849 0
M  V30 4330 H 407.921 -2.38202 1.88397 0
M  V30 4331 H 405.506 -1.12989 0.977433 0
M  V30 4332 H 407.388 -4.20687 0.245015 0
M  V30 4333 H 406.063 -3.21018 -0.415851 0
M  V30 4334 H 404.97 -3.22174 1.90144 0
M  V30 4335 H 406.303 -4.24879 2.48473 0
M  V30 4336 N 407.956 -0.998596 -1.21925 0
M  V30 4337 C 409.186 -0.695276 -1.94549 0
M  V30 4338 C 409.594 0.745079 -1.73911 0
M  V30 4339 O 408.937 1.51507 -1.03881 0
M  V30 4340 C 408.999 -0.928485 -3.47303 0
M  V30 4341 C 408.663 -2.35443 -3.91683 0
M  V30 4342 C 409.66 -3.33428 -3.98901 0
M  V30 4343 C 407.345 -2.69038 -4.24174 0
M  V30 4344 C 409.339 -4.63079 -4.37992 0
M  V30 4345 C 407.026 -3.98906 -4.62944 0
M  V30 4346 C 408.024 -4.95738 -4.69822 0
M  V30 4347 O 407.712 -6.23285 -5.07711 0
M  V30 4348 H 407.444 -0.255902 -0.625692 0
M  V30 4349 H 409.998 -1.33767 -1.5587 0
M  V30 4350 H 408.228 -0.228917 -3.86022 0
M  V30 4351 H 409.917 -0.619539 -4.01144 0
M  V30 4352 H 410.683 -3.08807 -3.73983 0
M  V30 4353 H 406.562 -1.94367 -4.18022 0
M  V30 4354 H 410.106 -5.38658 -4.43275 0
M  V30 4355 H 406.003 -4.23314 -4.87314 0
M  V30 4356 H 406.771 -6.27306 -5.25766 0
M  V30 4357 N 409.434 1.37368 -0.772513 0
M  V30 4358 C 410.659 2.0447 -0.347386 0
M  V30 4359 C 411.084 1.57882 1.0225 0
M  V30 4360 O 410.442 0.73941 1.65537 0
M  V30 4361 C 410.49 3.58369 -0.400479 0
M  V30 4362 O 409.594 4.0803 0.598789 0
M  V30 4363 H 408.935 0.646773 -0.15027 0
M  V30 4364 H 411.465 1.75667 -1.04892 0
M  V30 4365 H 411.475 4.07183 -0.258045 0
M  V30 4366 H 410.15 3.91633 -1.39986 0
M  V30 4367 H 408.727 3.70534 0.419411 0
M  V30 4368 N 410.912 0.523116 1.48665 0
M  V30 4369 C 412.137 -0.0117284 2.07397 0
M  V30 4370 C 412.562 -1.28031 1.37803 0
M  V30 4371 O 411.92 -1.75836 0.441762 0
M  V30 4372 C 411.968 -0.225786 3.59892 0
M  V30 4373 O 411.072 -1.29592 3.91509 0
M  V30 4374 H 410.413 0.0360673 0.66302 0
M  V30 4375 H 412.943 0.729066 1.9117 0
M  V30 4376 H 412.953 -0.450552 4.05505 0
M  V30 4377 H 411.628 0.700944 4.09951 0
M  V30 4378 H 410.205 -1.05436 3.57684 0
M  V30 4379 N 412.39 -1.55475 0.257931 0
M  V30 4380 C 413.3 -2.2549 -0.647425 0
M  V30 4381 C 414.316 -1.2748 -1.18427 0
M  V30 4382 O 415.492 -1.6038 -1.2182 0
M  V30 4383 C 412.557 -2.94916 -1.82278 0
M  V30 4384 C 411.618 -4.08363 -1.32432 0
M  V30 4385 C 410.851 -4.74469 -2.44366 0
M  V30 4386 O 411.074 -4.39701 -3.63344 0
M  V30 4387 O 410.008 -5.62763 -2.13497 0
M  V30 4388 H 413.834 -3.03593 -0.0807707 0
M  V30 4389 H 411.419 -1.49377 0.0259962 0
M  V30 4390 H 413.301 -3.38606 -2.50846 0
M  V30 4391 H 411.976 -2.19744 -2.37685 0
M  V30 4392 H 410.883 -3.69166 -0.605605 0
M  V30 4393 H 412.216 -4.85385 -0.816211 0
M  V30 4394 N 413.868 0.0150385 -1.57593 0
M  V30 4395 C 414.798 1.01047 -2.10503 0
M  V30 4396 C 415.779 1.36816 -1.01071 0
M  V30 4397 O 416.964 1.45455 -1.28672 0
M  V30 4398 C 414.094 2.30708 -2.59598 0
M  V30 4399 C 413.048 2.09142 -3.73421 0
M  V30 4400 C 412.374 3.44685 -4.08774 0
M  V30 4401 C 413.674 1.46619 -5.01298 0
M  V30 4402 H 415.368 0.569978 -2.93925 0
M  V30 4403 H 412.914 0.272724 -1.41394 0
M  V30 4404 H 414.867 3.00687 -2.95238 0
M  V30 4405 H 413.591 2.76843 -1.73279 0
M  V30 4406 H 412.25 1.41592 -3.38153 0
M  V30 4407 H 411.898 3.88495 -3.195 0
M  V30 4408 H 411.598 3.31077 -4.8545 0
M  V30 4409 H 413.122 4.16004 -4.4696 0
M  V30 4410 H 414.536 2.06535 -5.34805 0
M  V30 4411 H 412.933 1.43544 -5.82679 0
M  V30 4412 H 414.003 0.433611 -4.82957 0
M  V30 4413 N 415.346 1.54954 0.287554 0
M  V30 4414 C 416.623 1.65569 1.04146 0
M  V30 4415 C 417.003 0.512672 2.0478 0
M  V30 4416 O 416.351 -0.489038 2.23205 0
M  V30 4417 C 416.561 3.04163 1.71131 0
M  V30 4418 C 417.909 3.61429 2.22832 0
M  V30 4419 O 418.933 3.06702 1.81141 0
M  V30 4420 O 417.792 4.57281 2.9926 0
M  V30 4421 H 414.886 0.671881 0.482188 0
M  V30 4422 H 417.432 1.67297 0.28457 0
M  V30 4423 H 416.204 3.78796 0.981303 0
M  V30 4424 H 415.827 3.06271 2.53543 0
M  V30 4425 N 416.824 -0.551391 1.4764 0
M  V30 4426 C 418.073 -1.30467 1.53822 0
M  V30 4427 C 418.386 -1.94495 0.207661 0
M  V30 4428 O 419.592 -2.71099 0.147533 0
M  V30 4429 C 418.048 -2.36616 2.71184 0
M  V30 4430 C 417.656 -1.78754 4.10793 0
M  V30 4431 C 419.4 -3.13088 2.86663 0
M  V30 4432 C 417.307 -2.82717 5.19447 0
M  V30 4433 H 416.237 -0.490584 0.572576 0
M  V30 4434 H 418.888 -0.58494 1.73927 0
M  V30 4435 H 417.27 -3.11529 2.4447 0
M  V30 4436 H 418.444 -1.10173 4.47435 0
M  V30 4437 H 416.759 -1.14846 4.00249 0
M  V30 4438 H 419.356 -3.90736 3.65007 0
M  V30 4439 H 419.699 -3.67635 1.95321 0
M  V30 4440 H 420.232 -2.45288 3.13175 0
M  V30 4441 H 416.971 -2.33018 6.12685 0
M  V30 4442 H 416.491 -3.4969 4.87316 0
M  V30 4443 H 418.17 -3.46102 5.46646 0
M  V30 4444 N 418.302 -1.35869 -0.798587 0
M  V30 4445 C 419.548 -1.30788 -1.55775 0
M  V30 4446 C 419.903 0.114558 -1.92059 0
M  V30 4447 O 419.196 1.06691 -1.59147 0
M  V30 4448 C 419.39 -2.1556 -2.85077 0
M  V30 4449 C 419.219 -3.65904 -2.61428 0
M  V30 4450 C 417.989 -4.35112 -2.56915 0
M  V30 4451 C 420.187 -4.59375 -2.31255 0
M  V30 4452 N 418.169 -5.71155 -2.25068 0
M  V30 4453 C 419.54 -5.83598 -2.09316 0
M  V30 4454 C 421.595 -4.48035 -2.17185 0
M  V30 4455 C 420.298 -6.97755 -1.74731 0
M  V30 4456 C 422.324 -5.62049 -1.83998 0
M  V30 4457 C 421.686 -6.85305 -1.629 0
M  V30 4458 H 417.785 -0.533855 -0.571422 0
M  V30 4459 H 420.369 -1.7083 -0.934079 0
M  V30 4460 H 418.54 -1.77776 -3.45326 0
M  V30 4461 H 420.272 -2.01938 -3.50718 0
M  V30 4462 H 417.027 -3.87812 -2.71843 0
M  V30 4463 H 417.451 -6.42978 -2.11916 0
M  V30 4464 H 422.093 -3.53338 -2.3219 0
M  V30 4465 H 419.811 -7.92411 -1.58464 0
M  V30 4466 H 423.397 -5.55232 -1.73808 0
M  V30 4467 H 422.277 -7.72034 -1.37596 0
M  V30 4468 N 419.78 1.02168 -1.19998 0
M  V30 4469 C 421.028 1.75338 -1.00504 0
M  V30 4470 C 421.349 1.89387 0.464506 0
M  V30 4471 O 420.619 1.43268 1.33608 0
M  V30 4472 H 419.199 0.649564 -0.368885 0
M  V30 4473 H 421.861 1.23205 -1.51018 0
M  V30 4474 H 420.957 2.75892 -1.45912 0
M  V30 4475 N 421.258 1.00505 1.21394 0
M  V30 4476 C 422.221 0.570459 2.21987 0
M  V30 4477 C 423.221 -0.353211 1.56873 0
M  V30 4478 O 424.411 -0.14349 1.73608 0
M  V30 4479 C 421.543 -0.168555 3.40483 0
M  V30 4480 H 422.736 1.46021 2.6195 0
M  V30 4481 H 420.289 0.793565 1.34656 0
M  V30 4482 H 421.024 -1.07374 3.06009 0
M  V30 4483 H 420.809 0.494823 3.88965 0
M  V30 4484 H 422.299 -0.460362 4.15055 0
M  V30 4485 N 422.737 -1.36956 0.779787 0
M  V30 4486 C 423.985 -1.99097 0.347079 0
M  V30 4487 C 424.306 -1.62206 -1.08232 0
M  V30 4488 O 423.576 -0.891373 -1.74446 0
M  V30 4489 H 422.156 -0.736409 0.125342 0
M  V30 4490 H 424.818 -1.67308 0.999696 0
M  V30 4491 H 423.914 -3.09107 0.431162 0
M  V30 4492 N 424.215 -0.530993 -1.48385 0
M  V30 4493 C 425.455 0.000718982 -2.044 0
M  V30 4494 C 425.819 1.31485 -1.39913 0
M  V30 4495 O 427.02 1.93265 -1.86821 0
M  V30 4496 C 425.291 0.119177 -3.57201 0
M  V30 4497 S 426.85 0.600806 -4.34667 0
M  V30 4498 H 423.668 -0.0125473 -0.710889 0
M  V30 4499 H 426.27 -0.711783 -1.82082 0
M  V30 4500 H 424.974 -0.842061 -4.01668 0
M  V30 4501 H 424.505 0.856026 -3.83974 0
M  V30 4502 H 426.52 1.86514 -4.59812 0
M  V30 4503 N 425.693 1.55336 -0.266172 0
M  V30 4504 C 426.942 1.98574 0.353749 0
M  V30 4505 C 427.255 1.15789 1.57646 0
M  V30 4506 O 428.461 1.49129 2.26876 0
M  V30 4507 C 426.917 3.53403 0.680747 0
M  V30 4508 C 426.525 4.44953 -0.52165 0
M  V30 4509 C 428.269 4.05251 1.26379 0
M  V30 4510 C 426.176 5.91156 -0.169736 0
M  V30 4511 H 425.106 0.741643 0.135949 0
M  V30 4512 H 427.757 1.79743 -0.369421 0
M  V30 4513 H 426.139 3.68001 1.46257 0
M  V30 4514 H 427.313 4.42121 -1.29869 0
M  V30 4515 H 425.628 4.03691 -1.02093 0
M  V30 4516 H 428.225 5.12021 1.54074 0
M  V30 4517 H 428.568 3.53749 2.19471 0
M  V30 4518 H 429.101 3.94057 0.544447 0
M  V30 4519 H 425.84 6.46736 -1.0683 0
M  V30 4520 H 425.36 5.97079 0.570717 0
M  V30 4521 H 427.039 6.4655 0.241245 0
M  V30 4522 N 427.171 -0.0066808 1.57599 0
M  V30 4523 C 428.418 -0.69292 1.90276 0
M  V30 4524 C 428.746 -1.74148 0.866192 0
M  V30 4525 O 428.001 -1.95268 -0.129933 0
M  V30 4526 C 428.3 -1.37939 3.29708 0
M  V30 4527 C 427.966 -0.464679 4.48499 0
M  V30 4528 C 426.628 -0.212809 4.80729 0
M  V30 4529 C 428.98 0.16551 5.20937 0
M  V30 4530 C 426.308 0.677653 5.82773 0
M  V30 4531 C 428.66 1.04381 6.23929 0
M  V30 4532 C 427.324 1.30492 6.54621 0
M  V30 4533 H 426.594 -0.253558 0.696268 0
M  V30 4534 H 429.241 0.0474123 1.91441 0
M  V30 4535 H 427.546 -2.1936 3.24636 0
M  V30 4536 H 429.243 -1.9163 3.52249 0
M  V30 4537 H 425.833 -0.671153 4.23313 0
M  V30 4538 H 430.017 -0.0160756 4.96297 0
M  V30 4539 H 425.273 0.88803 6.04917 0
M  V30 4540 H 429.447 1.53851 6.79193 0
M  V30 4541 H 427.074 1.99662 7.33512 0
M  V30 4542 N 428.649 -1.55105 -0.279332 0
M  V30 4543 C 429.898 -1.74618 -1.00952 0
M  V30 4544 C 430.211 -0.551096 -1.87676 0
M  V30 4545 O 431.417 -0.628507 -2.64125 0
M  V30 4546 C 429.873 -3.09025 -1.84476 0
M  V30 4547 C 429.481 -4.36081 -1.0265 0
M  V30 4548 C 431.225 -3.37891 -2.56963 0
M  V30 4549 C 429.132 -5.6153 -1.85576 0
M  V30 4550 H 428.062 -0.650868 -0.38064 0
M  V30 4551 H 430.713 -1.81569 -0.265475 0
M  V30 4552 H 429.095 -2.96095 -2.62952 0
M  V30 4553 H 430.269 -4.59909 -0.286354 0
M  V30 4554 H 428.584 -4.14312 -0.416464 0
M  V30 4555 H 431.181 -4.28822 -3.19399 0
M  V30 4556 H 431.524 -2.57737 -3.26921 0
M  V30 4557 H 432.057 -3.5189 -1.85522 0
M  V30 4558 H 428.796 -6.44413 -1.2005 0
M  V30 4559 H 428.316 -5.41854 -2.57204 0
M  V30 4560 H 429.995 -5.99594 -2.43096 0
M  V30 4561 N 430.127 0.543554 -1.4793 0
M  V30 4562 C 431.037 1.67657 -1.64098 0
M  V30 4563 C 432.053 1.65934 -0.523622 0
M  V30 4564 O 433.229 1.85133 -0.792943 0
M  V30 4565 C 430.294 3.04146 -1.66421 0
M  V30 4566 C 429.355 3.16831 -2.89684 0
M  V30 4567 C 428.588 4.46809 -2.91886 0
M  V30 4568 O 428.811 5.33095 -2.02895 0
M  V30 4569 O 427.745 4.63573 -3.83906 0
M  V30 4570 H 431.571 1.56957 -2.59997 0
M  V30 4571 H 429.156 0.715116 -1.31173 0
M  V30 4572 H 431.038 3.85346 -1.70548 0
M  V30 4573 H 429.713 3.152 -0.736923 0
M  V30 4574 H 428.62 2.34977 -2.91095 0
M  V30 4575 H 429.953 3.10687 -3.81752 0
M  V30 4576 N 431.605 1.3629 0.791371 0
M  V30 4577 C 432.538 1.24816 1.9104 0
M  V30 4578 C 433.516 0.132739 1.62057 0
M  V30 4579 O 434.7 0.303527 1.8604 0
M  V30 4580 C 431.827 0.925355 3.25814 0
M  V30 4581 C 430.873 2.05495 3.7373 0
M  V30 4582 S 431.706 3.67255 3.89723 0
M  V30 4583 C 432.862 3.37084 5.27376 0
M  V30 4584 H 433.095 2.19533 2.00481 0
M  V30 4585 H 430.628 1.21684 0.950393 0
M  V30 4586 H 432.586 0.745924 4.03666 0
M  V30 4587 H 431.247 -0.00400098 3.141 0
M  V30 4588 H 430.44 1.7836 4.71385 0
M  V30 4589 H 430.042 2.1935 3.02922 0
M  V30 4590 H 432.334 2.90856 6.1189 0
M  V30 4591 H 433.277 4.33995 5.59512 0
M  V30 4592 H 433.685 2.7248 4.94383 0
M  V30 4593 N 433.083 -1.0153 1.20538 0
M  V30 4594 C 434.33 -1.75149 1.01633 0
M  V30 4595 C 434.658 -1.89189 -0.451399 0
M  V30 4596 O 433.913 -1.41551 -1.35136 0
M  V30 4597 C 434.212 -3.17213 1.64654 0
M  V30 4598 C 433.878 -3.23146 3.14464 0
M  V30 4599 C 432.54 -3.24472 3.55347 0
M  V30 4600 C 434.892 -3.21207 4.10458 0
M  V30 4601 C 432.22 -3.21532 4.90748 0
M  V30 4602 C 434.572 -3.19808 5.45807 0
M  V30 4603 C 433.236 -3.19439 5.86102 0
M  V30 4604 H 432.506 -0.640914 0.3719 0
M  V30 4605 H 435.153 -1.19071 1.49981 0
M  V30 4606 H 433.458 -3.76457 1.08571 0
M  V30 4607 H 435.155 -3.72871 1.4754 0
M  V30 4608 H 431.745 -3.2285 2.81897 0
M  V30 4609 H 435.929 -3.19351 3.79906 0
M  V30 4610 H 431.185 -3.19578 5.21229 0
M  V30 4611 H 435.359 -3.1726 6.19935 0
M  V30 4612 H 432.986 -3.16915 6.90991 0
M  V30 4613 N 434.561 -1.01147 -1.20859 0
M  V30 4614 C 435.493 -0.535546 -2.22855 0
M  V30 4615 C 436.506 0.379323 -1.58319 0
M  V30 4616 O 437.695 0.178489 -1.77605 0
M  V30 4617 C 434.795 0.240962 -3.38042 0
M  V30 4618 C 433.968 -0.674562 -4.32167 0
M  V30 4619 C 433.027 0.053467 -5.26173 0
M  V30 4620 O 432.053 -0.567339 -5.66366 0
M  V30 4621 N 433.255 1.32997 -5.65059 0
M  V30 4622 H 436.02 -1.41268 -2.64317 0
M  V30 4623 H 433.581 -0.888386 -1.35349 0
M  V30 4624 H 435.573 0.737115 -3.97931 0
M  V30 4625 H 434.143 1.01935 -2.95513 0
M  V30 4626 H 433.363 -1.35111 -3.70322 0
M  V30 4627 H 434.651 -1.2974 -4.91981 0
M  V30 4628 H 434.049 1.85536 -5.34409 0
M  V30 4629 H 432.606 1.77095 -6.2728 0
M  V30 4630 N 436.039 1.36541 -0.78704 0
M  V30 4631 C 437.287 1.98911 -0.357633 0
M  V30 4632 C 437.608 1.62778 1.07371 0
M  V30 4633 O 436.878 0.900612 1.73971 0
M  V30 4634 H 435.458 0.735734 -0.129246 0
M  V30 4635 H 438.12 1.66776 -1.00855 0
M  V30 4636 H 437.216 3.08874 -0.447549 0
M  V30 4637 N 437.518 0.538854 1.48102 0
M  V30 4638 C 438.45 -0.256278 2.27763 0
M  V30 4639 C 439.463 -0.89633 1.35904 0
M  V30 4640 O 440.652 -0.773275 1.60881 0
M  V30 4641 C 437.752 -1.37896 3.09577 0
M  V30 4642 C 436.925 -0.839159 4.29275 0
M  V30 4643 C 435.984 -1.84405 4.9283 0
M  V30 4644 O 435.01 -1.39746 5.51779 0
M  V30 4645 N 436.212 -3.17666 4.85869 0
M  V30 4646 H 438.977 0.426968 2.96643 0
M  V30 4647 H 436.538 0.373747 1.57527 0
M  V30 4648 H 438.53 -2.04955 3.48963 0
M  V30 4649 H 437.1 -1.96572 2.4306 0
M  V30 4650 H 436.32 0.00769287 3.94199 0
M  V30 4651 H 437.608 -0.457548 5.06739 0
M  V30 4652 H 437.006 -3.56609 4.39143 0
M  V30 4653 H 435.563 -3.80334 5.29329 0
M  V30 4654 N 438.996 -1.55193 0.274407 0
M  V30 4655 C 440.407 -1.85358 -0.223488 0
M  V30 4656 C 440.758 -1.19642 -1.555 0
M  V30 4657 O 439.883 -0.484498 -2.10907 0
M  V30 4658 C 440.478 -3.36282 -0.412285 0
M  V30 4659 C 439.037 -3.66574 -0.854413 0
M  V30 4660 C 438.184 -2.7725 0.0527056 0
M  V30 4661 H 441.135 -1.50743 0.496215 0
M  V30 4662 H 441.156 -3.59349 -1.25094 0
M  V30 4663 H 440.668 -3.84083 0.556965 0
M  V30 4664 H 438.769 -3.24273 -1.83516 0
M  V30 4665 H 438.882 -4.74073 -0.692226 0
M  V30 4666 H 437.246 -2.50447 -0.463484 0
M  V30 4667 H 438.029 -3.27865 1.01783 0
M  V30 4668 N 440.474 -0.00167713 -1.576 0
M  V30 4669 C 441.404 0.988091 -2.11563 0
M  V30 4670 C 442.385 1.35736 -1.02517 0
M  V30 4671 O 443.57 1.44082 -1.30208 0
M  V30 4672 C 440.7 2.27941 -2.62031 0
M  V30 4673 C 439.654 2.0517 -3.75619 0
M  V30 4674 C 438.98 3.4033 -4.12407 0
M  V30 4675 C 440.28 1.41294 -5.02825 0
M  V30 4676 H 441.974 0.538771 -2.94513 0
M  V30 4677 H 439.52 0.257712 -1.41675 0
M  V30 4678 H 441.473 2.97539 -2.9841 0
M  V30 4679 H 440.197 2.74989 -1.76205 0
M  V30 4680 H 438.856 1.37998 -3.39635 0
M  V30 4681 H 438.504 3.85085 -3.23603 0
M  V30 4682 H 438.204 3.25909 -4.88935 0
M  V30 4683 H 439.728 4.1124 -4.51347 0
M  V30 4684 H 441.142 2.00851 -5.36965 0
M  V30 4685 H 439.539 1.37356 -5.84169 0
M  V30 4686 H 440.609 0.382362 -4.8339 0
M  V30 4687 N 441.952 1.55251 0.271103 0
M  V30 4688 C 443.199 1.75946 1.00245 0
M  V30 4689 C 443.527 0.561611 1.86215 0
M  V30 4690 O 442.782 -0.455832 1.90317 0
M  V30 4691 C 443.081 3.01879 1.91321 0
M  V30 4692 C 442.747 4.34337 1.21086 0
M  V30 4693 C 441.409 4.70338 1.01666 0
M  V30 4694 C 443.761 5.16325 0.71119 0
M  V30 4695 C 441.089 5.8588 0.310099 0
M  V30 4696 C 443.441 6.32597 0.0182157 0
M  V30 4697 C 442.105 6.67236 -0.18768 0
M  V30 4698 H 441.375 0.643833 0.366824 0
M  V30 4699 H 444.022 1.89521 0.27458 0
M  V30 4700 H 442.327 2.83212 2.70736 0
M  V30 4701 H 444.024 3.15088 2.48033 0
M  V30 4702 H 440.614 4.06043 1.37213 0
M  V30 4703 H 444.798 4.88987 0.848844 0
M  V30 4704 H 440.054 6.1124 0.139873 0
M  V30 4705 H 444.228 6.9538 -0.376711 0
M  V30 4706 H 441.855 7.56618 -0.73715 0
M  V30 4707 N 443.43 -0.535701 1.48216 0
M  V30 4708 C 444.841 -1.11769 1.49548 0
M  V30 4709 C 445.192 -1.94442 0.26207 0
M  V30 4710 O 444.317 -2.06987 -0.631287 0
M  V30 4711 C 444.912 -2.03367 2.70975 0
M  V30 4712 C 443.471 -2.56795 2.75196 0
M  V30 4713 C 442.618 -1.33631 2.42977 0
M  V30 4714 H 445.569 -0.321232 1.55415 0
M  V30 4715 H 445.59 -2.87569 2.49167 0
M  V30 4716 H 445.102 -1.43169 3.60727 0
M  V30 4717 H 443.203 -3.20731 1.89638 0
M  V30 4718 H 443.316 -2.9632 3.76472 0
M  V30 4719 H 441.68 -1.6502 1.94012 0
M  V30 4720 H 442.463 -0.75194 3.34964 0
M  V30 4721 N 444.908 -1.36708 -0.784132 0
M  V30 4722 C 446.156 -1.30972 -1.53918 0
M  V30 4723 C 446.477 0.109086 -1.94695 0
M  V30 4724 O 445.747 1.05048 -1.65353 0
M  V30 4725 H 444.327 -0.481819 -0.570841 0
M  V30 4726 H 446.989 -1.71063 -0.934002 0
M  V30 4727 H 446.085 -1.94061 -2.44431 0
M  V30 4728 N 446.386 1.0089 -1.21074 0
M  V30 4729 C 447.632 1.74866 -1.02712 0
M  V30 4730 C 447.965 1.89178 0.438787 0
M  V30 4731 O 447.24 1.42325 1.32567 0
M  V30 4732 C 447.523 3.16347 -1.72036 0
M  V30 4733 C 447.376 3.09782 -3.26121 0
M  V30 4734 C 448.695 4.15187 -1.45973 0
M  V30 4735 H 445.814 0.634736 -0.374539 0
M  V30 4736 H 448.456 1.17646 -1.49196 0
M  V30 4737 H 446.606 3.65201 -1.32517 0
M  V30 4738 H 448.278 2.68673 -3.74983 0
M  V30 4739 H 446.521 2.46982 -3.56626 0
M  V30 4740 H 447.192 4.09829 -3.6979 0
M  V30 4741 H 449.668 3.75022 -1.80272 0
M  V30 4742 H 448.544 5.12331 -1.96999 0
M  V30 4743 H 448.805 4.40386 -0.388924 0
M  V30 4744 N 447.864 1.01787 1.20321 0
M  V30 4745 C 449.089 0.727009 1.9424 0
M  V30 4746 C 449.514 -0.706179 1.74341 0
M  V30 4747 O 448.872 -1.48609 1.03852 0
M  V30 4748 C 448.92 1.06958 3.44372 0
M  V30 4749 O 448.024 0.181983 4.11998 0
M  V30 4750 H 447.365 0.269626 0.606793 0
M  V30 4751 H 449.895 1.36158 1.52716 0
M  V30 4752 H 449.905 1.02182 3.94997 0
M  V30 4753 H 448.58 2.11378 3.58179 0
M  V30 4754 H 447.157 0.287378 3.71791 0
M  V30 4755 N 449.342 -1.36122 0.79427 0
M  V30 4756 C 450.29 -2.31871 0.184023 0
M  V30 4757 C 451.284 -1.56041 -0.659365 0
M  V30 4758 O 452.49 -1.71266 -0.553906 0
M  V30 4759 H 448.865 -0.750896 0.0407373 0
M  V30 4760 H 450.836 -2.80898 1.00693 0
M  V30 4761 C 449.585 -3.41324 -0.662813 0
M  V30 4762 H 448.908 -3.99793 -0.0231944 0
M  V30 4763 H 450.348 -4.10629 -1.05639 0
M  V30 4764 C 448.807 -2.83308 -1.82313 0
M  V30 4765 O 449.337 -2.75863 -2.91997 0
M  V30 4766 N 447.543 -2.40529 -1.63077 0
M  V30 4767 H 447.09 -2.46785 -0.738591 0
M  V30 4768 H 447.048 -2.02059 -2.40872 0
M  V30 4769 N 450.82 -0.546701 -1.47814 0
M  V30 4770 C 452.069 -0.0166497 -2.01693 0
M  V30 4771 C 452.382 1.33721 -1.42752 0
M  V30 4772 O 453.588 1.95658 -1.8823 0
M  V30 4773 C 452.044 0.0206769 -3.59894 0
M  V30 4774 C 451.652 -1.3293 -4.27824 0
M  V30 4775 C 453.396 0.498674 -4.21561 0
M  V30 4776 C 451.303 -1.25165 -5.78003 0
M  V30 4777 H 450.233 -0.0024541 -0.753996 0
M  V30 4778 H 452.884 -0.692984 -1.69912 0
M  V30 4779 H 451.266 0.76244 -3.88591 0
M  V30 4780 H 452.44 -2.08795 -4.10781 0
M  V30 4781 H 450.755 -1.74438 -3.78101 0
M  V30 4782 H 453.352 0.575 -5.31599 0
M  V30 4783 H 453.695 1.5083 -3.88016 0
M  V30 4784 H 454.228 -0.18791 -3.97356 0
M  V30 4785 H 450.967 -2.23695 -6.1615 0
M  V30 4786 H 450.487 -0.53464 -5.97412 0
M  V30 4787 H 452.166 -0.949299 -6.39998 0
M  V30 4788 N 452.299 1.55045 -0.282633 0
M  V30 4789 C 453.229 2.2579 0.595066 0
M  V30 4790 C 454.21 1.25074 1.15284 0
M  V30 4791 O 455.395 1.5381 1.18559 0
M  V30 4792 C 452.525 2.98472 1.77572 0
M  V30 4793 C 451.479 4.0618 1.34914 0
M  V30 4794 C 450.805 4.66477 2.6135 0
M  V30 4795 C 452.105 5.1996 0.493821 0
M  V30 4796 H 453.799 2.994 0.00505653 0
M  V30 4797 H 451.345 1.44 0.000992001 0
M  V30 4798 H 453.298 3.46677 2.39568 0
M  V30 4799 H 452.022 2.2241 2.39168 0
M  V30 4800 H 450.681 3.58797 0.752338 0
M  V30 4801 H 450.329 3.87074 3.2122 0
M  V30 4802 H 450.029 5.39207 2.33516 0
M  V30 4803 H 451.553 5.17435 3.24181 0
M  V30 4804 H 452.967 5.64172 1.01898 0
M  V30 4805 H 451.364 5.99299 0.310047 0
M  V30 4806 H 452.434 4.82462 -0.485593 0
M  V30 4807 N 453.777 0.010035 1.57597 0
M  V30 4808 C 454.687 -0.994226 2.12491 0
M  V30 4809 C 455.703 -1.37013 1.07254 0
M  V30 4810 O 456.879 -1.45542 1.3921 0
M  V30 4811 C 453.944 -2.2642 2.62555 0
M  V30 4812 C 453.005 -1.95049 3.82432 0
M  V30 4813 C 452.238 -3.15991 4.30099 0
M  V30 4814 O 452.461 -4.28015 3.7704 0
M  V30 4815 O 451.395 -2.99403 5.22151 0
M  V30 4816 H 455.221 -0.557549 2.98538 0
M  V30 4817 H 452.806 -0.209413 1.47925 0
M  V30 4818 H 454.688 -3.01009 2.9491 0
M  V30 4819 H 453.363 -2.69306 1.796 0
M  V30 4820 H 452.27 -1.17904 3.55034 0
M  V30 4821 H 453.603 -1.56992 4.66491 0
M  V30 4822 N 455.255 -1.55392 -0.262866 0
M  V30 4823 C 456.187 -1.85392 -1.34768 0
M  V30 4824 C 457.2 -0.739069 -1.45057 0
M  V30 4825 O 458.389 -1.01703 -1.46693 0
M  V30 4826 C 455.489 -2.01088 -2.72795 0
M  V30 4827 C 454.662 -3.31828 -2.84972 0
M  V30 4828 C 453.721 -3.37464 -4.03738 0
M  V30 4829 O 452.747 -4.10778 -3.94018 0
M  V30 4830 N 453.949 -2.65599 -5.16176 0
M  V30 4831 H 456.714 -2.79029 -1.09375 0
M  V30 4832 H 454.275 -1.55434 -0.452981 0
M  V30 4833 H 456.267 -2.02217 -3.50557 0
M  V30 4834 H 454.837 -1.1427 -2.90966 0
M  V30 4835 H 454.057 -3.43152 -1.94012 0
M  V30 4836 H 455.345 -4.18032 -2.90045 0
M  V30 4837 H 454.743 -2.05736 -5.26962 0
M  V30 4838 H 453.3 -2.72439 -5.92132 0
M  V30 4839 N 456.733 0.527833 -1.48498 0
M  V30 4840 C 457.663 1.64136 -1.66077 0
M  V30 4841 C 458.644 1.62286 -0.509625 0
M  V30 4842 O 459.829 1.79449 -0.742413 0
M  V30 4843 C 456.959 3.02717 -1.70234 0
M  V30 4844 C 455.913 3.19426 -2.8487 0
M  V30 4845 C 455.239 4.5909 -2.74118 0
M  V30 4846 C 456.539 3.01993 -4.26142 0
M  V30 4847 H 458.233 1.4968 -2.593 0
M  V30 4848 H 455.779 0.718654 -1.24785 0
M  V30 4849 H 457.732 3.80491 -1.8112 0
M  V30 4850 H 456.456 3.18201 -0.735911 0
M  V30 4851 H 455.115 2.4407 -2.73542 0
M  V30 4852 H 454.763 4.71413 -1.7544 0
M  V30 4853 H 454.463 4.71214 -3.51042 0
M  V30 4854 H 455.987 5.3896 -2.86974 0
M  V30 4855 H 457.401 3.69558 -4.38292 0
M  V30 4856 H 455.798 3.2561 -5.04082 0
M  V30 4857 H 456.868 1.98396 -4.42456 0
M  V30 4858 N 458.211 1.37122 0.776871 0
M  V30 4859 C 459.121 1.34651 1.9211 0
M  V30 4860 C 460.137 0.246824 1.7224 0
M  V30 4861 O 461.313 0.48134 1.95563 0
M  V30 4862 C 458.378 1.14748 3.2716 0
M  V30 4863 C 457.439 2.34308 3.5972 0
M  V30 4864 C 456.672 2.15345 4.88326 0
M  V30 4865 O 456.895 1.13507 5.58992 0
M  V30 4866 O 455.829 3.03414 5.1983 0
M  V30 4867 H 459.655 2.31013 1.97146 0
M  V30 4868 H 457.24 1.17799 0.918901 0
M  V30 4869 H 459.122 1.05616 4.0795 0
M  V30 4870 H 457.797 0.214562 3.22988 0
M  V30 4871 H 456.704 2.49011 2.79185 0
M  V30 4872 H 458.037 3.26149 3.68629 0
M  V30 4873 N 459.689 -1.00246 1.21608 0
M  V30 4874 C 460.636 -2.09073 0.977613 0
M  V30 4875 C 461.606 -1.65815 -0.097297 0
M  V30 4876 O 462.791 -1.90734 0.0503445 0
M  V30 4877 C 459.931 -3.40671 0.551133 0
M  V30 4878 C 459.044 -3.97326 1.69576 0
M  V30 4879 C 458.179 -5.17043 1.2182 0
M  V30 4880 C 457.218 -5.65813 2.335 0
M  V30 4881 N 456.355 -6.76778 1.86859 0
M  V30 4882 H 461.195 -2.28806 1.90924 0
M  V30 4883 H 458.732 -1.12186 0.951452 0
M  V30 4884 H 460.69 -4.16225 0.285097 0
M  V30 4885 H 459.32 -3.20967 -0.343489 0
M  V30 4886 H 458.372 -3.18734 2.07637 0
M  V30 4887 H 459.684 -4.29511 2.53617 0
M  V30 4888 H 458.838 -5.99852 0.908975 0
M  V30 4889 H 457.577 -4.86458 0.347869 0
M  V30 4890 H 456.582 -4.81599 2.65222 0
M  V30 4891 H 457.807 -5.98427 3.21033 0
M  V30 4892 H 455.753 -6.47994 1.02174 0
M  V30 4893 H 455.67 -7.08231 2.64471 0
M  V30 4894 H 456.938 -7.63116 1.58978 0
M  V30 4895 N 461.167 -1.02423 -1.1978 0
M  V30 4896 C 462.416 -0.713265 -1.88667 0
M  V30 4897 C 462.729 0.7609 -1.80193 0
M  V30 4898 O 463.935 1.18473 -2.44288 0
M  V30 4899 C 462.391 -1.22545 -3.38394 0
M  V30 4900 C 461.999 -2.72706 -3.55437 0
M  V30 4901 C 463.743 -0.990257 -4.12788 0
M  V30 4902 C 461.65 -3.17367 -4.99031 0
M  V30 4903 H 460.58 -0.263105 -0.706606 0
M  V30 4904 H 463.231 -1.23792 -1.35454 0
M  V30 4905 H 461.613 -0.628732 -3.90977 0
M  V30 4906 H 462.787 -3.37993 -3.13205 0
M  V30 4907 H 461.102 -2.94453 -2.94425 0
M  V30 4908 H 463.699 -1.29926 -5.18675 0
M  V30 4909 H 464.042 0.0730761 -4.16236 0
M  V30 4910 H 464.575 -1.55074 -3.66329 0
M  V30 4911 H 461.314 -4.23009 -5.00743 0
M  V30 4912 H 460.834 -2.56805 -5.42044 0
M  V30 4913 H 462.513 -3.10441 -5.67658 0
M  V30 4914 N 462.645 1.35699 -0.801477 0
M  V30 4915 C 463.891 1.99643 -0.389135 0
M  V30 4916 C 464.246 1.62447 1.03095 0
M  V30 4917 O 463.539 0.875064 1.7045 0
M  V30 4918 C 463.733 3.53828 -0.504041 0
M  V30 4919 C 463.562 4.06 -1.93375 0
M  V30 4920 C 462.332 4.35592 -2.561 0
M  V30 4921 C 464.53 4.24905 -2.89759 0
M  V30 4922 N 462.512 4.73663 -3.90534 0
M  V30 4923 C 463.883 4.65914 -4.09052 0
M  V30 4924 C 465.938 4.07101 -2.86658 0
M  V30 4925 C 464.641 4.90984 -5.25669 0
M  V30 4926 C 466.667 4.33324 -4.02472 0
M  V30 4927 C 466.029 4.74601 -5.20512 0
M  V30 4928 H 462.128 0.758552 -0.19006 0
M  V30 4929 H 464.712 1.64493 -1.04164 0
M  V30 4930 H 462.883 3.88219 0.118437 0
M  V30 4931 H 464.615 4.04645 -0.0667794 0
M  V30 4932 H 461.37 4.25728 -2.07492 0
M  V30 4933 H 461.794 4.96965 -4.59734 0
M  V30 4934 H 466.436 3.74335 -1.96552 0
M  V30 4935 H 464.154 5.22626 -6.1635 0
M  V30 4936 H 467.74 4.21107 -4.01447 0
M  V30 4937 H 466.62 4.94497 -6.08639 0
M  V30 4938 N 464.123 0.554532 1.47522 0
M  V30 4939 C 465.033 -0.197865 2.33764 0
M  V30 4940 C 466.049 -0.914576 1.48025 0
M  V30 4941 O 467.225 -0.884067 1.80959 0
M  V30 4942 C 464.29 -1.21628 3.24665 0
M  V30 4943 C 463.351 -0.507283 4.26292 0
M  V30 4944 C 462.584 -1.47718 5.1285 0
M  V30 4945 O 462.807 -2.7118 5.01814 0
M  V30 4946 O 461.741 -1.00313 5.93482 0
M  V30 4947 H 465.567 0.50949 2.99396 0
M  V30 4948 H 463.152 0.315176 1.46038 0
M  V30 4949 H 465.034 -1.80421 3.80823 0
M  V30 4950 H 463.709 -1.9056 2.61665 0
M  V30 4951 H 462.616 0.121778 3.73902 0
M  V30 4952 H 463.949 0.140544 4.91999 0
M  V30 4953 N 465.601 -1.54893 0.290851 0
M  V30 4954 C 466.847 -2.0023 -0.321867 0
M  V30 4955 C 467.18 -1.179 -1.54316 0
M  V30 4956 O 466.455 -0.25293 -1.92848 0
M  V30 4957 C 466.738 -3.53456 -0.688515 0
M  V30 4958 C 466.591 -4.46532 0.541209 0
M  V30 4959 C 467.91 -4.13057 -1.51895 0
M  V30 4960 H 465.029 -0.727891 -0.115515 0
M  V30 4961 H 467.671 -1.85722 0.400931 0
M  V30 4962 H 465.821 -3.6595 -1.30433 0
M  V30 4963 H 467.493 -4.4596 1.17973 0
M  V30 4964 H 465.736 -4.17545 1.17636 0
M  V30 4965 H 466.407 -5.51475 0.240675 0
M  V30 4966 H 468.883 -4.03937 -0.99872 0
M  V30 4967 H 467.759 -5.20448 -1.74429 0
M  V30 4968 H 468.02 -3.64284 -2.50498 0
M  V30 4969 N 467.08 -0.0183926 -1.57589 0
M  V30 4970 C 468.01 0.965596 -2.12599 0
M  V30 4971 C 468.991 1.34641 -1.0395 0
M  V30 4972 O 470.176 1.42693 -1.31729 0
M  V30 4973 C 467.306 2.25149 -2.64434 0
M  V30 4974 C 466.26 2.01175 -3.77773 0
M  V30 4975 C 465.586 3.35937 -4.15994 0
M  V30 4976 C 466.886 1.35953 -5.04296 0
M  V30 4977 H 468.58 0.507504 -2.95067 0
M  V30 4978 H 466.126 0.242671 -1.41941 0
M  V30 4979 H 468.079 2.94357 -3.01549 0
M  V30 4980 H 466.803 2.73105 -1.79112 0
M  V30 4981 H 465.462 1.34388 -3.4108 0
M  V30 4982 H 465.11 3.81631 -3.27669 0
M  V30 4983 H 464.81 3.20705 -4.92364 0
M  V30 4984 H 466.334 4.0643 -4.55683 0
M  V30 4985 H 467.748 1.95144 -5.39065 0
M  V30 4986 H 466.145 1.31152 -5.85593 0
M  V30 4987 H 467.215 0.331071 -4.83768 0
M  V30 4988 N 468.558 1.5553 0.254621 0
M  V30 4989 C 469.806 1.7665 0.981793 0
M  V30 4990 C 470.127 0.580963 1.86145 0
M  V30 4991 O 469.397 -0.403537 1.91699 0
M  V30 4992 H 467.977 0.651475 0.365498 0
M  V30 4993 H 470.639 1.92958 0.274426 0
M  V30 4994 H 469.735 2.67486 1.60802 0
M  V30 4995 N 470.036 -0.519951 1.48776 0
M  V30 4996 C 471.282 -1.27711 1.57536 0
M  V30 4997 C 471.615 -1.92547 0.252866 0
M  V30 4998 O 470.89 -1.7979 -0.742021 0
M  V30 4999 C 471.173 -2.35875 2.72094 0
M  V30 5000 C 471.026 -1.75664 4.1408 0
M  V30 5001 C 472.345 -3.37575 2.82367 0
M  V30 5002 H 469.464 -0.462971 0.573434 0
M  V30 5003 H 472.106 -0.578194 1.80989 0
M  V30 5004 H 470.256 -2.95488 2.52228 0
M  V30 5005 H 471.928 -1.20025 4.45412 0
M  V30 5006 H 470.171 -1.06154 4.20611 0
M  V30 5007 H 470.842 -2.54029 4.90075 0
M  V30 5008 H 473.318 -2.87929 3.00393 0
M  V30 5009 H 472.194 -4.1064 3.64233 0
M  V30 5010 H 472.455 -3.98743 1.90936 0
M  V30 5011 N 471.514 -1.37532 -0.769588 0
M  V30 5012 C 472.925 -1.29382 -1.346 0
M  V30 5013 C 473.276 0.0576039 -1.96115 0
M  V30 5014 O 472.401 0.95947 -1.93967 0
M  V30 5015 C 472.996 -2.34298 -2.44724 0
M  V30 5016 C 471.555 -2.29776 -2.98128 0
M  V30 5017 C 470.702 -2.18013 -1.71364 0
M  V30 5018 H 473.653 -1.48123 -0.56968 0
M  V30 5019 H 473.674 -1.99089 -3.24259 0
M  V30 5020 H 473.186 -3.32645 -1.99922 0
M  V30 5021 H 471.287 -1.34959 -3.47299 0
M  V30 5022 H 471.4 -3.23276 -3.53595 0
M  V30 5023 H 469.764 -1.64595 -1.94372 0
M  V30 5024 H 470.547 -3.18278 -1.28662 0
M  V30 5025 N 472.992 0.995999 -1.22138 0
M  V30 5026 C 474.22 1.77066 -1.07029 0
M  V30 5027 C 474.635 1.8495 0.379357 0
M  V30 5028 O 473.992 1.3174 1.26297 0
M  V30 5029 C 474.043 3.20533 -1.67155 0
M  V30 5030 O 473.764 3.13082 -3.06449 0
M  V30 5031 C 475.265 4.14461 -1.5728 0
M  V30 5032 H 472.485 0.556179 -0.375374 0
M  V30 5033 H 475.029 1.25238 -1.61666 0
M  V30 5034 H 473.184 3.6944 -1.16589 0
M  V30 5035 H 473.598 4.03283 -3.35355 0
M  V30 5036 H 475.072 5.1289 -2.04078 0
M  V30 5037 H 475.549 4.36005 -0.528795 0
M  V30 5038 H 476.155 3.71449 -2.07136 0
M  V30 5039 N 474.47 1.03057 1.19235 0
M  V30 5040 C 475.38 0.622922 2.26179 0
M  V30 5041 C 476.396 -0.346113 1.70523 0
M  V30 5042 O 477.572 -0.203572 2.00369 0
M  V30 5043 C 474.637 -0.0182063 3.46695 0
M  V30 5044 C 473.698 0.998546 4.17526 0
M  V30 5045 C 472.931 0.387917 5.32288 0
M  V30 5046 O 473.154 -0.808668 5.64639 0
M  V30 5047 O 472.088 1.1116 5.91546 0
M  V30 5048 H 475.914 1.51363 2.63292 0
M  V30 5049 H 473.499 0.800856 1.26122 0
M  V30 5050 H 475.381 -0.375606 4.19723 0
M  V30 5051 H 474.056 -0.882895 3.11427 0
M  V30 5052 H 472.963 1.40756 3.4661 0
M  V30 5053 H 474.296 1.83366 4.56769 0
M  V30 5054 N 475.948 -1.35272 0.808662 0
M  V30 5055 C 477.225 -1.93077 0.313181 0
M  V30 5056 C 477.605 -1.73847 -1.19752 0
M  V30 5057 O 476.953 -1.1087 -1.998 0
M  V30 5058 C 477.163 -3.41347 0.726859 0
M  V30 5059 C 478.511 -4.18493 0.717532 0
M  V30 5060 O 479.535 -3.4987 0.668535 0
M  V30 5061 O 478.394 -5.40937 0.777779 0
M  V30 5062 H 475.488 -0.822885 0.0824018 0
M  V30 5063 H 478.034 -1.44335 0.892499 0
M  V30 5064 H 476.806 -3.49082 1.76797 0
M  V30 5065 H 476.429 -3.97411 0.122461 0
M  V30 5066 N 477.426 -0.562348 -1.47226 0
M  V30 5067 C 478.654 -0.0452275 -2.06851 0
M  V30 5068 C 479.069 1.25078 -1.41424 0
M  V30 5069 O 478.426 1.75156 -0.512513 0
M  V30 5070 C 478.477 0.148674 -3.61194 0
M  V30 5071 O 478.198 -1.09602 -4.24169 0
M  V30 5072 C 479.699 0.702488 -4.37699 0
M  V30 5073 H 476.919 -0.0481775 -0.669268 0
M  V30 5074 H 479.463 -0.777223 -1.89155 0
M  V30 5075 H 477.618 0.830817 -3.78386 0
M  V30 5076 H 478.032 -0.896982 -5.16773 0
M  V30 5077 H 479.506 0.78743 -5.46355 0
M  V30 5078 H 479.983 1.71493 -4.04335 0
M  V30 5079 H 480.589 0.0558772 -4.25263 0
M  V30 5080 N 478.904 1.54736 -0.299062 0
M  V30 5081 C 480.15 2.01114 0.304123 0
M  V30 5082 C 480.505 1.18376 1.51674 0
M  V30 5083 O 479.798 0.251635 1.8994 0
M  V30 5084 C 479.992 3.50199 0.713835 0
M  V30 5085 C 479.821 4.47366 -0.457531 0
M  V30 5086 C 478.591 4.9631 -0.948933 0
M  V30 5087 C 480.789 4.9755 -1.30186 0
M  V30 5088 N 478.771 5.77327 -2.08726 0
M  V30 5089 C 480.142 5.7625 -2.28771 0
M  V30 5090 C 482.197 4.79739 -1.33246 0
M  V30 5091 C 480.9 6.39036 -3.3019 0
M  V30 5092 C 482.926 5.43343 -2.33521 0
M  V30 5093 C 482.288 6.21874 -3.30836 0
M  V30 5094 H 478.387 0.778318 0.0757992 0
M  V30 5095 H 480.971 1.89925 -0.428536 0
M  V30 5096 H 479.142 3.61681 1.41567 0
M  V30 5097 H 480.874 3.83374 1.29639 0
M  V30 5098 H 477.629 4.7069 -0.52423 0
M  V30 5099 H 478.053 6.22521 -2.66077 0
M  V30 5100 H 482.695 4.18609 -0.59383 0
M  V30 5101 H 480.413 6.99302 -4.04973 0
M  V30 5102 H 483.999 5.31492 -2.3666 0
M  V30 5103 H 482.879 6.70217 -4.07159 0
M  V30 5104 N 480.382 0.0267497 1.57577 0
M  V30 5105 C 481.793 -0.512413 1.79531 0
M  V30 5106 C 482.144 -1.72391 0.936791 0
M  V30 5107 O 481.269 -2.15903 0.146543 0
M  V30 5108 C 481.864 -0.936378 3.25603 0
M  V30 5109 C 480.423 -1.42067 3.4856 0
M  V30 5110 C 479.57 -0.384278 2.74624 0
M  V30 5111 H 482.521 0.252797 1.56674 0
M  V30 5112 H 482.542 -1.80088 3.35184 0
M  V30 5113 H 482.054 -0.0544332 3.88062 0
M  V30 5114 H 480.155 -2.32262 2.9135 0
M  V30 5115 H 480.268 -1.42968 4.57271 0
M  V30 5116 H 478.632 -0.851855 2.40032 0
M  V30 5117 H 479.415 0.489159 3.39797 0
M  V30 5118 N 481.861 -1.55662 -0.24637 0
M  V30 5119 C 483.109 -1.77168 -0.972411 0
M  V30 5120 C 483.43 -0.590827 -1.85834 0
M  V30 5121 O 482.7 0.393365 -1.9191 0
M  V30 5122 H 481.28 -0.653405 -0.362038 0
M  V30 5123 H 483.942 -1.93101 -0.264189 0
M  V30 5124 H 483.038 -2.68335 -1.59382 0
M  V30 5125 N 483.339 0.512053 -1.4905 0
M  V30 5126 C 484.585 1.26874 -1.58212 0
M  V30 5127 C 484.918 1.9241 -0.263073 0
M  V30 5128 O 484.193 1.80181 0.732476 0
M  V30 5129 C 484.476 2.34428 -2.73341 0
M  V30 5130 C 484.329 1.73466 -4.15006 0
M  V30 5131 C 485.648 3.36073 -2.84154 0
M  V30 5132 H 482.767 0.459924 -0.575881 0
M  V30 5133 H 485.409 0.568587 -1.81293 0
M  V30 5134 H 483.559 2.94146 -2.53792 0
M  V30 5135 H 485.231 1.17661 -4.46042 0
M  V30 5136 H 483.474 1.03921 -4.21168 0
M  V30 5137 H 484.145 2.51426 -4.91415 0
M  V30 5138 H 486.621 2.86332 -3.01916 0
M  V30 5139 H 485.497 4.08703 -3.66406 0
M  V30 5140 H 485.758 3.97725 -1.93048 0
M  V30 5141 N 484.817 1.37938 0.762283 0
M  V30 5142 C 486.042 1.37059 1.55659 0
M  V30 5143 C 486.467 -0.0396123 1.88058 0
M  V30 5144 O 485.825 -1.01929 1.49934 0
M  V30 5145 C 485.873 2.22494 2.83776 0
M  V30 5146 O 484.977 1.63607 3.78559 0
M  V30 5147 H 484.318 0.467892 0.47114 0
M  V30 5148 H 486.848 1.81587 0.942725 0
M  V30 5149 H 486.858 2.36045 3.32786 0
M  V30 5150 H 485.533 3.24993 2.59524 0
M  V30 5151 H 484.11 1.5915 3.37233 0
M  V30 5152 N 486.295 -0.989507 1.22664 0
M  V30 5153 C 487.242 -2.08024 0.999733 0
M  V30 5154 C 488.212 -1.65909 -0.0797047 0
M  V30 5155 O 489.397 -1.90669 0.0705715 0
M  V30 5156 C 486.537 -3.40067 0.587234 0
M  V30 5157 C 485.65 -3.95505 1.73781 0
M  V30 5158 C 484.785 -5.15722 1.27297 0
M  V30 5159 C 483.824 -5.63305 2.39488 0
M  V30 5160 N 482.961 -6.74758 1.94026 0
M  V30 5161 H 487.801 -2.26768 1.9334 0
M  V30 5162 H 485.338 -1.11171 0.963297 0
M  V30 5163 H 487.296 -4.15899 0.329227 0
M  V30 5164 H 485.926 -3.21314 -0.309426 0
M  V30 5165 H 484.978 -3.16513 2.11006 0
M  V30 5166 H 486.29 -4.26797 2.58158 0
M  V30 5167 H 485.444 -5.98854 0.972546 0
M  V30 5168 H 484.183 -4.86061 0.399445 0
M  V30 5169 H 483.188 -4.78759 2.70315 0
M  V30 5170 H 484.413 -5.94988 3.27362 0
M  V30 5171 H 482.359 -6.46874 1.09041 0
M  V30 5172 H 482.276 -7.05386 2.71968 0
M  V30 5173 H 483.544 -7.61387 1.67062 0
M  V30 5174 N 487.773 -1.03688 -1.18687 0
M  V30 5175 C 488.703 -0.645407 -2.24403 0
M  V30 5176 C 489.684 0.349511 -1.66471 0
M  V30 5177 O 490.869 0.230453 -1.92828 0
M  V30 5178 C 487.999 -0.00365337 -3.473 0
M  V30 5179 C 486.953 -0.921705 -4.17958 0
M  V30 5180 C 486.279 -0.144629 -5.34504 0
M  V30 5181 C 487.579 -2.23909 -4.71871 0
M  V30 5182 H 489.273 -1.52917 -2.57404 0
M  V30 5183 H 486.819 -0.736711 -1.23728 0
M  V30 5184 H 488.772 0.281908 -4.20456 0
M  V30 5185 H 487.496 0.914963 -3.13522 0
M  V30 5186 H 486.155 -1.19159 -3.46694 0
M  V30 5187 H 485.803 0.776274 -4.96974 0
M  V30 5188 H 485.503 -0.756206 -5.82714 0
M  V30 5189 H 487.027 0.134004 -6.10453 0
M  V30 5190 H 488.441 -2.0145 -5.36741 0
M  V30 5191 H 486.838 -2.8033 -5.30599 0
M  V30 5192 H 487.908 -2.88822 -3.895 0
M  V30 5193 N 489.251 1.34841 -0.815825 0
M  V30 5194 C 490.662 1.80937 -0.46029 0
M  V30 5195 C 491.013 1.67685 1.01863 0
M  V30 5196 O 490.138 1.21277 1.79223 0
M  V30 5197 C 490.733 3.28509 -0.828708 0
M  V30 5198 C 489.292 3.72712 -0.525644 0
M  V30 5199 C 488.439 2.56676 -1.04941 0
M  V30 5200 H 491.39 1.22688 -1.00664 0
M  V30 5201 H 491.411 3.80279 -0.129757 0
M  V30 5202 H 490.923 3.38122 -1.90513 0
M  V30 5203 H 489.024 3.68642 0.541666 0
M  V30 5204 H 489.137 4.67119 -1.06474 0
M  V30 5205 H 487.501 2.50302 -0.471286 0
M  V30 5206 H 488.284 2.69063 -2.13214 0
M  V30 5207 N 490.729 0.570148 1.46925 0
M  V30 5208 C 491.677 -0.183181 2.31878 0
M  V30 5209 C 492.671 -0.896721 1.43719 0
M  V30 5210 O 493.877 -0.816536 1.60414 0
M  V30 5211 H 490.252 -0.077944 0.74795 0
M  V30 5212 H 492.223 0.552312 2.93244 0
M  V30 5213 C 490.972 -1.19172 3.2664 0
M  V30 5214 H 490.295 -0.652088 3.94446 0
M  V30 5215 H 491.735 -1.68946 3.88887 0
M  V30 5216 C 490.194 -2.24627 2.51086 0
M  V30 5217 O 490.724 -3.31773 2.26472 0
M  V30 5218 N 488.93 -1.98898 2.11867 0
M  V30 5219 H 488.477 -1.11777 2.32086 0
M  V30 5220 H 488.435 -2.6967 1.61634 0
M  V30 5221 N 492.207 -1.54576 0.307264 0
M  V30 5222 C 493.437 -2.04378 -0.302158 0
M  V30 5223 C 493.845 -1.18381 -1.47589 0
M  V30 5224 O 493.188 -0.20352 -1.82569 0
M  V30 5225 C 493.25 -3.50133 -0.815305 0
M  V30 5226 C 492.914 -4.56401 0.233977 0
M  V30 5227 C 493.911 -5.08884 1.06456 0
M  V30 5228 C 491.596 -5.0088 0.377478 0
M  V30 5229 C 493.59 -6.04394 2.02452 0
M  V30 5230 C 491.277 -5.96208 1.34088 0
M  V30 5231 C 492.275 -6.47849 2.16288 0
M  V30 5232 O 491.963 -7.41308 3.10994 0
M  V30 5233 H 491.695 -0.672502 -0.0686839 0
M  V30 5234 H 494.249 -2.00484 0.446682 0
M  V30 5235 H 492.479 -3.51371 -1.61478 0
M  V30 5236 H 494.168 -3.83098 -1.34129 0
M  V30 5237 H 494.934 -4.75311 0.964596 0
M  V30 5238 H 490.813 -4.60309 -0.252405 0
M  V30 5239 H 494.357 -6.44626 2.66652 0
M  V30 5240 H 490.254 -6.29198 1.44154 0
M  V30 5241 H 491.022 -7.5913 3.06045 0
M  V30 5242 N 493.685 -0.035106 -1.57561 0
M  V30 5243 C 494.633 0.962707 -2.11742 0
M  V30 5244 C 495.627 1.33296 -1.0454 0
M  V30 5245 O 496.833 1.31449 -1.22968 0
M  V30 5246 H 493.208 0.32826 -0.676572 0
M  V30 5247 H 495.179 0.48048 -2.94506 0
M  V30 5248 C 493.928 2.23388 -2.66445 0
M  V30 5249 H 493.251 1.95774 -3.48587 0
M  V30 5250 H 494.691 2.91402 -3.07995 0
M  V30 5251 C 493.15 2.96769 -1.59467 0
M  V30 5252 O 493.68 3.89105 -0.998 0
M  V30 5253 N 491.886 2.59212 -1.31369 0
M  V30 5254 H 491.433 1.84202 -1.80076 0
M  V30 5255 H 491.391 3.08618 -0.600173 0
M  V30 5256 N 495.163 1.55791 0.238111 0
M  V30 5257 C 496.574 1.68383 0.806472 0
M  V30 5258 C 496.925 0.634157 1.85669 0
M  V30 5259 O 496.05 -0.217913 2.153 0
M  V30 5260 C 496.645 3.05268 1.46959 0
M  V30 5261 C 495.204 3.1977 1.98555 0
M  V30 5262 C 494.351 2.64279 0.839763 0
M  V30 5263 H 497.302 1.58694 0.0137535 0
M  V30 5264 H 497.323 3.00203 2.33792 0
M  V30 5265 H 496.835 3.81643 0.704993 0
M  V30 5266 H 494.936 2.48234 2.77868 0
M  V30 5267 H 495.049 4.26788 2.17689 0
M  V30 5268 H 493.413 2.22329 1.24265 0
M  V30 5269 H 494.196 3.43187 0.0881032 0
M  V30 5270 N 496.642 -0.504142 1.49319 0
M  V30 5271 C 497.552 -1.63248 1.68486 0
M  V30 5272 C 498.568 -1.64488 0.567432 0
M  V30 5273 O 499.744 -1.82966 0.841749 0
M  V30 5274 C 496.809 -2.99627 1.74426 0
M  V30 5275 C 495.87 -3.09039 2.97982 0
M  V30 5276 C 495.103 -4.38913 3.0363 0
M  V30 5277 O 495.326 -5.27528 2.16958 0
M  V30 5278 O 494.26 -4.53231 3.96062 0
M  V30 5279 H 498.086 -1.50008 2.64067 0
M  V30 5280 H 495.671 -0.680086 1.33023 0
M  V30 5281 H 497.553 -3.80689 1.80705 0
M  V30 5282 H 496.228 -3.13136 0.820233 0
M  V30 5283 H 495.135 -2.27177 2.97223 0
M  V30 5284 H 496.468 -3.00456 3.89855 0
M  V30 5285 N 498.12 -1.38341 -0.754957 0
M  V30 5286 C 499.366 -1.35678 -1.51536 0
M  V30 5287 C 499.721 0.0533985 -1.92326 0
M  V30 5288 O 499.014 1.01573 -1.6246 0
M  V30 5289 C 499.208 -2.2452 -2.78075 0
M  V30 5290 C 499.037 -3.74035 -2.49655 0
M  V30 5291 C 497.807 -4.43066 -2.42942 0
M  V30 5292 C 500.005 -4.665 -2.16523 0
M  V30 5293 N 497.987 -5.78026 -2.06783 0
M  V30 5294 C 499.358 -5.89962 -1.90644 0
M  V30 5295 C 501.413 -4.54718 -2.02821 0
M  V30 5296 C 500.116 -7.0296 -1.52444 0
M  V30 5297 C 502.142 -5.67618 -1.66023 0
M  V30 5298 C 501.504 -6.90141 -1.41015 0
M  V30 5299 H 497.603 -0.551764 -0.554148 0
M  V30 5300 H 500.187 -1.73716 -0.879258 0
M  V30 5301 H 498.358 -1.88673 -3.39496 0
M  V30 5302 H 500.09 -2.12993 -3.44116 0
M  V30 5303 H 496.845 -3.96264 -2.59367 0
M  V30 5304 H 497.269 -6.49394 -1.91353 0
M  V30 5305 H 501.911 -3.60546 -2.20831 0
M  V30 5306 H 499.629 -7.97051 -1.33174 0
M  V30 5307 H 503.215 -5.6048 -1.56055 0
M  V30 5308 H 502.095 -7.76021 -1.12965 0
M  V30 5309 N 499.598 0.982988 -1.23187 0
M  V30 5310 C 500.845 1.72392 -1.06241 0
M  V30 5311 C 501.173 1.9032 0.40108 0
M  V30 5312 O 500.428 1.45084 1.31336 0
M  V30 5313 C 500.727 3.12736 -1.73006 0
M  V30 5314 C 500.393 3.14695 -3.22921 0
M  V30 5315 C 499.055 3.14937 -3.63824 0
M  V30 5316 C 501.407 3.10211 -4.1883 0
M  V30 5317 C 498.735 3.08408 -4.99101 0
M  V30 5318 C 501.087 3.05224 -5.54095 0
M  V30 5319 C 499.751 3.03787 -5.94365 0
M  V30 5320 H 499.021 0.630829 -0.388762 0
M  V30 5321 H 501.668 1.15053 -1.53085 0
M  V30 5322 H 499.973 3.73446 -1.18514 0
M  V30 5323 H 501.67 3.68828 -1.57374 0
M  V30 5324 H 498.26 3.15262 -2.90358 0
M  V30 5325 H 502.444 3.09166 -3.8824 0
M  V30 5326 H 497.7 3.05646 -5.29519 0
M  V30 5327 H 501.874 3.00712 -6.28128 0
M  V30 5328 H 499.501 2.98483 -6.99151 0
M  V30 5329 N 501.076 1.04316 1.18135 0
M  V30 5330 C 502.487 0.775505 1.69832 0
M  V30 5331 C 502.838 -0.703348 1.8316 0
M  V30 5332 O 501.963 -1.54729 1.51287 0
M  V30 5333 C 502.558 1.40112 3.0847 0
M  V30 5334 C 501.117 1.18172 3.57368 0
M  V30 5335 C 500.264 1.49022 2.33854 0
M  V30 5336 H 503.215 1.20925 1.02775 0
M  V30 5337 H 503.236 0.805672 3.71873 0
M  V30 5338 H 502.748 2.47744 2.98738 0
M  V30 5339 H 500.849 0.124258 3.72393 0
M  V30 5340 H 500.962 1.8805 4.40652 0
M  V30 5341 H 499.326 0.909995 2.37889 0
M  V30 5342 H 500.109 2.57768 2.26738 0
M  V30 5343 N 502.554 -1.34406 0.822964 0
M  V30 5344 C 503.484 -2.32052 0.259608 0
M  V30 5345 C 504.465 -1.58243 -0.623961 0
M  V30 5346 O 505.65 -1.86224 -0.55083 0
M  V30 5347 C 502.78 -3.42434 -0.579314 0
M  V30 5348 C 501.734 -4.27499 0.20712 0
M  V30 5349 C 501.06 -5.29349 -0.754547 0
M  V30 5350 C 502.36 -5.02758 1.41533 0
M  V30 5351 H 504.054 -2.79418 1.07545 0
M  V30 5352 H 501.6 -1.34338 0.518593 0
M  V30 5353 H 503.553 -4.0976 -0.983612 0
M  V30 5354 H 502.277 -2.93717 -1.4282 0
M  V30 5355 H 500.936 -3.61776 0.592787 0
M  V30 5356 H 500.584 -4.76895 -1.59939 0
M  V30 5357 H 500.284 -5.8714 -0.232561 0
M  V30 5358 H 501.808 -5.99544 -1.1567 0
M  V30 5359 H 503.222 -5.62938 1.08504 0
M  V30 5360 H 501.619 -5.70123 1.87296 0
M  V30 5361 H 502.689 -4.32451 2.1935 0
M  V30 5362 N 504.032 -0.577932 -1.46621 0
M  V30 5363 C 505.443 -0.150071 -1.86096 0
M  V30 5364 C 505.794 1.28563 -1.48209 0
M  V30 5365 O 504.919 1.97036 -0.894754 0
M  V30 5366 C 505.514 -0.265576 -3.37758 0
M  V30 5367 C 504.073 0.10738 -3.76247 0
M  V30 5368 C 503.22 -0.603711 -2.70649 0
M  V30 5369 H 506.171 -0.786438 -1.37844 0
M  V30 5370 H 506.192 0.510352 -3.77062 0
M  V30 5371 H 505.704 -1.3106 -3.65301 0
M  V30 5372 H 503.805 1.15272 -3.54321 0
M  V30 5373 H 503.918 -0.26561 -4.78363 0
M  V30 5374 H 502.282 -0.0444884 -2.54661 0
M  V30 5375 H 503.065 -1.65029 -3.01032 0
M  V30 5376 N 505.51 1.54411 -0.315457 0
M  V30 5377 C 506.738 2.04833 0.291738 0
M  V30 5378 C 507.153 1.19203 1.46411 0
M  V30 5379 O 506.51 0.220867 1.81159 0
M  V30 5380 C 506.561 3.53969 0.73404 0
M  V30 5381 O 506.282 4.36346 -0.391682 0
M  V30 5382 C 507.783 4.2045 1.40489 0
M  V30 5383 H 505.003 0.668195 0.0612947 0
M  V30 5384 H 507.547 1.99276 -0.45929 0
M  V30 5385 H 505.702 3.5984 1.43506 0
M  V30 5386 H 506.116 5.24481 -0.0447088 0
M  V30 5387 H 507.59 5.26278 1.66539 0
M  V30 5388 H 508.067 3.71067 2.3496 0
M  V30 5389 H 508.673 4.18694 0.746662 0
M  V30 5390 N 506.988 0.0434614 1.5754 0
M  V30 5391 C 508.399 -0.493343 1.80064 0
M  V30 5392 C 508.75 -1.71388 0.955023 0
M  V30 5393 O 507.875 -2.15736 0.169434 0
M  V30 5394 C 508.47 -0.90179 3.26578 0
M  V30 5395 C 507.029 -1.38362 3.50047 0
M  V30 5396 C 506.176 -0.355129 2.75017 0
M  V30 5397 H 509.127 0.2694 1.56397 0
M  V30 5398 H 509.148 -1.76523 3.37075 0
M  V30 5399 H 508.66 -0.013271 3.88098 0
M  V30 5400 H 506.761 -2.29159 2.93798 0
M  V30 5401 H 506.874 -1.3811 4.58762 0
M  V30 5402 H 505.238 -0.826348 2.40922 0
M  V30 5403 H 506.021 0.525172 3.39259 0
M  V30 5404 N 508.466 -1.55915 -0.229846 0
M  V30 5405 C 509.882 -1.48721 -0.579166 0
M  V30 5406 C 510.082 -0.736976 -1.87539 0
M  V30 5407 O 509.138 -0.273258 -2.51017 0
M  V30 5408 C 510.451 -2.9323 -0.666082 0
M  V30 5409 C 511.999 -3.03701 -0.757267 0
M  V30 5410 C 512.474 -4.49552 -0.8756 0
M  V30 5411 N 513.965 -4.53561 -0.940035 0
M  V30 5412 C 514.7 -5.63683 -1.05116 0
M  V30 5413 N 514.196 -6.83576 -1.12675 0
M  V30 5414 N 515.989 -5.51516 -1.08565 0
M  V30 5415 H 508.14 -2.03123 0.620857 0
M  V30 5416 H 510.403 -0.922898 0.21671 0
M  V30 5417 H 510.109 -3.51032 0.21664 0
M  V30 5418 H 509.983 -3.44668 -1.53243 0
M  V30 5419 H 512.37 -2.45969 -1.63043 0
M  V30 5420 H 512.451 -2.55446 0.134583 0
M  V30 5421 H 512.095 -5.079 -0.00692351 0
M  V30 5422 H 512.025 -4.95506 -1.78274 0
M  V30 5423 H 514.516 -3.67215 -0.892269 0
M  V30 5424 H 514.829 -7.63251 -1.21109 0
M  V30 5425 H 513.174 -6.86303 -1.09603 0
M  V30 5426 H 516.365 -4.5678 -1.02319 0
M  V30 5427 H 516.538 -6.37372 -1.1688 0
M  V30 5428 N 509.944 0.496216 -1.49584 0
M  V30 5429 C 511.169 1.27865 -1.63295 0
M  V30 5430 C 511.594 1.85592 -0.306156 0
M  V30 5431 O 510.952 1.66092 0.726851 0
M  V30 5432 C 511 2.38128 -2.7079 0
M  V30 5433 O 510.104 3.42108 -2.30296 0
M  V30 5434 H 509.445 0.377279 -0.546403 0
M  V30 5435 H 511.975 0.593497 -1.95803 0
M  V30 5436 H 511.985 2.8382 -2.93104 0
M  V30 5437 H 510.66 1.95479 -3.67098 0
M  V30 5438 H 509.237 3.02301 -2.18331 0
M  V30 5439 N 511.423 1.38739 0.74761 0
M  V30 5440 C 512.353 1.39173 1.87492 0
M  V30 5441 C 513.334 0.256794 1.6815 0
M  V30 5442 O 514.519 0.460762 1.88655 0
M  V30 5443 C 511.649 1.22197 3.25093 0
M  V30 5444 C 510.603 2.32957 3.59047 0
M  V30 5445 C 509.929 2.01082 4.95449 0
M  V30 5446 C 511.229 3.75237 3.6331 0
M  V30 5447 H 512.923 2.3351 1.87386 0
M  V30 5448 H 510.469 1.12399 0.900134 0
M  V30 5449 H 512.422 1.21124 4.03617 0
M  V30 5450 H 511.146 0.243241 3.25693 0
M  V30 5451 H 509.805 2.33226 2.82845 0
M  V30 5452 H 509.453 1.01678 4.92616 0
M  V30 5453 H 509.153 2.75267 5.19136 0
M  V30 5454 H 510.677 2.01638 5.76346 0
M  V30 5455 H 512.091 3.76966 4.31937 0
M  V30 5456 H 510.488 4.48677 3.98509 0
M  V30 5457 H 511.558 4.07122 2.634 0
M  V30 5458 N 512.901 -0.976442 1.23707 0
M  V30 5459 C 513.851 -2.0544 0.988851 0
M  V30 5460 C 514.835 -1.60762 -0.0665901 0
M  V30 5461 O 516.027 -1.76396 0.14604 0
M  V30 5462 C 513.156 -3.38258 0.586223 0
M  V30 5463 C 512.242 -3.89523 1.67728 0
M  V30 5464 N 512.633 -4.13823 2.90834 0
M  V30 5465 C 510.931 -4.18097 1.55277 0
M  V30 5466 C 511.632 -4.55731 3.61502 0
M  V30 5467 N 510.608 -4.60394 2.8903 0
M  V30 5468 H 514.41 -2.22191 1.92376 0
M  V30 5469 H 511.924 -1.15954 1.13704 0
M  V30 5470 H 513.921 -4.15075 0.389658 0
M  V30 5471 H 512.581 -3.22898 -0.341594 0
M  V30 5472 H 513.592 -4.01529 3.271 0
M  V30 5473 H 510.269 -4.11719 0.692351 0
M  V30 5474 H 511.659 -4.83018 4.67059 0
M  V30 5475 N 514.379 -1.04941 -1.1758 0
M  V30 5476 C 515.625 -0.759112 -1.88057 0
M  V30 5477 C 515.958 0.711918 -1.8068 0
M  V30 5478 O 515.233 1.52035 -1.21308 0
M  V30 5479 C 515.516 -1.237 -3.38187 0
M  V30 5480 C 515.369 -2.77078 -3.54327 0
M  V30 5481 C 516.688 -0.834014 -4.32125 0
M  V30 5482 H 513.807 -0.277237 -0.682868 0
M  V30 5483 H 516.449 -1.30296 -1.38286 0
M  V30 5484 H 514.599 -0.774337 -3.80705 0
M  V30 5485 H 516.271 -3.31449 -3.20842 0
M  V30 5486 H 514.514 -3.16477 -2.96689 0
M  V30 5487 H 515.185 -3.05577 -4.59703 0
M  V30 5488 H 517.661 -1.23228 -3.97434 0
M  V30 5489 H 516.537 -1.19603 -5.35711 0
M  V30 5490 H 516.798 0.262195 -4.41322 0
M  V30 5491 N 515.857 1.33968 -0.830081 0
M  V30 5492 C 517.103 1.98357 -0.422191 0
M  V30 5493 C 517.436 1.65633 1.01387 0
M  V30 5494 O 516.711 0.931648 1.70735 0
M  V30 5495 C 516.994 3.54492 -0.633043 0
M  V30 5496 C 516.847 3.96934 -2.11574 0
M  V30 5497 C 518.166 4.40039 -0.0735584 0
M  V30 5498 H 515.285 0.720544 -0.154871 0
M  V30 5499 H 517.927 1.58749 -1.04397 0
M  V30 5500 H 516.077 3.88361 -0.103775 0
M  V30 5501 H 517.749 3.73363 -2.7092 0
M  V30 5502 H 515.992 3.46984 -2.60354 0
M  V30 5503 H 516.663 5.05651 -2.21406 0
M  V30 5504 H 519.139 4.12764 -0.52585 0
M  V30 5505 H 518.015 5.48327 -0.250841 0
M  V30 5506 H 518.276 4.30124 1.02202 0
M  V30 5507 N 517.335 0.585699 1.46312 0
M  V30 5508 C 518.581 0.0808731 2.03239 0
M  V30 5509 C 518.936 -1.26609 1.44872 0
M  V30 5510 O 518.229 -1.81779 0.60556 0
M  V30 5511 C 518.423 -0.0401312 3.57377 0
M  V30 5512 C 518.252 1.29356 4.30694 0
M  V30 5513 C 517.022 1.86849 4.69484 0
M  V30 5514 C 519.22 2.21742 4.64042 0
M  V30 5515 N 517.202 3.13926 5.27564 0
M  V30 5516 C 518.573 3.33408 5.22723 0
M  V30 5517 C 520.628 2.21386 4.45974 0
M  V30 5518 C 519.331 4.44852 5.65242 0
M  V30 5519 C 521.357 3.31862 4.89511 0
M  V30 5520 C 520.719 4.42248 5.48266 0
M  V30 5521 H 516.818 0.072443 0.778637 0
M  V30 5522 H 519.402 0.779254 1.78426 0
M  V30 5523 H 517.573 -0.707686 3.81898 0
M  V30 5524 H 519.305 -0.549615 4.00951 0
M  V30 5525 H 516.06 1.40307 4.52339 0
M  V30 5526 H 516.484 3.78775 5.61122 0
M  V30 5527 H 521.126 1.37314 3.99881 0
M  V30 5528 H 518.844 5.29665 6.10312 0
M  V30 5529 H 522.43 3.32708 4.7728 0
M  V30 5530 H 521.31 5.26323 5.81338 0
M  V30 5531 N 518.813 -1.54241 0.323641 0
M  V30 5532 C 519.761 -2.25813 -0.557804 0
M  V30 5533 C 520.755 -1.27225 -1.11849 0
M  V30 5534 O 521.961 -1.45001 -1.06652 0
M  V30 5535 H 518.336 -0.72532 -0.198532 0
M  V30 5536 H 520.307 -2.98322 0.0681112 0
M  V30 5537 C 519.056 -3.02913 -1.70701 0
M  V30 5538 H 518.379 -3.78593 -1.28482 0
M  V30 5539 H 519.819 -3.56238 -2.29935 0
M  V30 5540 C 518.278 -2.11217 -2.62467 0
M  V30 5541 O 518.808 -1.69508 -3.64184 0
M  V30 5542 N 517.014 -1.76704 -2.30703 0
M  V30 5543 H 516.561 -2.1082 -1.48029 0
M  V30 5544 H 516.519 -1.15631 -2.92364 0
M  V30 5545 N 520.291 -0.0518155 -1.57515 0
M  V30 5546 C 521.707 0.304735 -1.56664 0
M  V30 5547 C 521.907 1.71395 -1.05953 0
M  V30 5548 O 520.963 2.42123 -0.716414 0
M  V30 5549 C 522.276 0.132614 -3.00407 0
M  V30 5550 C 523.824 0.20367 -3.12337 0
M  V30 5551 C 524.299 0.0600706 -4.57961 0
M  V30 5552 N 525.79 0.116326 -4.63054 0
M  V30 5553 C 526.525 0.0293363 -5.73392 0
M  V30 5554 N 526.021 -0.110038 -6.92713 0
M  V30 5555 N 527.814 0.0849651 -5.62036 0
M  V30 5556 H 519.965 -0.973056 -1.888 0
M  V30 5557 H 522.228 -0.377781 -0.869474 0
M  V30 5558 H 521.934 -0.839019 -3.41546 0
M  V30 5559 H 521.808 0.893376 -3.66468 0
M  V30 5560 H 524.195 1.16578 -2.71097 0
M  V30 5561 H 524.276 -0.587857 -2.48954 0
M  V30 5562 H 523.92 -0.898715 -4.99886 0
M  V30 5563 H 523.85 0.87075 -5.19351 0
M  V30 5564 H 526.341 0.22327 -3.7724 0
M  V30 5565 H 526.654 -0.169104 -7.72615 0
M  V30 5566 H 524.999 -0.145132 -6.94848 0
M  V30 5567 H 528.19 0.192411 -4.67704 0
M  V30 5568 H 528.363 0.0137131 -6.47999 0
M  V30 5569 N 521.769 1.56035 0.221574 0
M  V30 5570 C 522.699 1.95434 1.2778 0
M  V30 5571 C 523.68 0.822564 1.48889 0
M  V30 5572 O 524.865 1.08486 1.61072 0
M  V30 5573 C 521.995 2.27102 2.62759 0
M  V30 5574 C 520.949 3.4277 2.56306 0
M  V30 5575 C 520.275 3.60043 3.95314 0
M  V30 5576 C 521.575 4.77742 2.11093 0
M  V30 5577 H 523.269 2.83912 0.950504 0
M  V30 5578 H 520.815 1.36596 0.455791 0
M  V30 5579 H 522.768 2.53256 3.36807 0
M  V30 5580 H 521.492 1.35478 2.97176 0
M  V30 5581 H 520.151 3.16664 1.84715 0
M  V30 5582 H 519.799 2.65794 4.27039 0
M  V30 5583 H 519.499 4.37841 3.91879 0
M  V30 5584 H 521.023 3.88545 4.71025 0
M  V30 5585 H 522.437 5.03102 2.74885 0
M  V30 5586 H 520.834 5.58823 2.18716 0
M  V30 5587 H 521.904 4.731 1.06321 0
M  V30 5588 N 523.247 -0.488276 1.49845 0
M  V30 5589 C 524.495 -1.23911 1.59657 0
M  V30 5590 C 524.816 -1.92816 0.291005 0
M  V30 5591 O 524.086 -1.83328 -0.690485 0
M  V30 5592 H 522.666 -0.460357 0.588286 0
M  V30 5593 H 525.328 -0.564794 1.86537 0
M  V30 5594 H 524.424 -1.99625 2.39909 0
M  V30 5595 N 524.725 -1.39134 -0.740242 0
M  V30 5596 C 526.141 -1.20623 -1.0451 0
M  V30 5597 C 526.341 -0.0641651 -2.01398 0
M  V30 5598 O 525.397 0.585843 -2.4561 0
M  V30 5599 C 526.71 -2.53815 -1.6124 0
M  V30 5600 C 528.258 -2.60615 -1.73346 0
M  V30 5601 C 528.733 -3.94015 -2.33486 0
M  V30 5602 N 530.224 -3.95627 -2.40902 0
M  V30 5603 C 530.959 -4.95616 -2.88361 0
M  V30 5604 N 530.455 -6.06003 -3.35756 0
M  V30 5605 N 532.248 -4.82998 -2.87523 0
M  V30 5606 H 524.399 -2.12176 -0.0975576 0
M  V30 5607 H 526.662 -0.942066 -0.105904 0
M  V30 5608 H 526.368 -3.37911 -0.975144 0
M  V30 5609 H 526.242 -2.73162 -2.6012 0
M  V30 5610 H 528.629 -1.76906 -2.36195 0
M  V30 5611 H 528.71 -2.45123 -0.731336 0
M  V30 5612 H 528.354 -4.78153 -1.71267 0
M  V30 5613 H 528.284 -4.06825 -3.34366 0
M  V30 5614 H 530.775 -3.15903 -2.07398 0
M  V30 5615 H 531.088 -6.78215 -3.70464 0
M  V30 5616 H 529.433 -6.09604 -3.33778 0
M  V30 5617 H 532.624 -3.95866 -2.49816 0
M  V30 5618 H 532.797 -5.61072 -3.24196 0
M  V30 5619 N 526.204 0.969867 -1.24223 0
M  V30 5620 C 527.45 1.7151 -1.08223 0
M  V30 5621 C 527.783 1.90478 0.37838 0
M  V30 5622 O 527.058 1.4647 1.27971 0
M  V30 5623 C 527.341 3.10714 -1.82013 0
M  V30 5624 C 527.194 2.9925 -3.35811 0
M  V30 5625 C 528.513 4.10332 -1.59108 0
M  V30 5626 H 525.632 0.622499 -0.394543 0
M  V30 5627 H 528.274 1.1284 -1.52863 0
M  V30 5628 H 526.424 3.608 -1.44068 0
M  V30 5629 H 528.096 2.56608 -3.83341 0
M  V30 5630 H 526.339 2.35512 -3.64303 0
M  V30 5631 H 527.01 3.97857 -3.82641 0
M  V30 5632 H 529.486 3.69097 -1.92111 0
M  V30 5633 H 528.362 5.05804 -2.13198 0
M  V30 5634 H 528.623 4.38926 -0.528832 0
M  V30 5635 N 527.682 1.05563 1.17022 0
M  V30 5636 C 529.093 0.793475 1.69 0
M  V30 5637 C 529.444 -0.683882 1.83895 0
M  V30 5638 O 528.569 -1.53116 1.5292 0
M  V30 5639 C 529.164 1.43376 3.06967 0
M  V30 5640 C 527.723 1.21956 3.56095 0
M  V30 5641 C 526.87 1.51494 2.3226 0
M  V30 5642 H 529.821 1.22008 1.01487 0
M  V30 5643 H 529.842 0.845068 3.70997 0
M  V30 5644 H 529.354 2.50899 2.96093 0
M  V30 5645 H 527.455 0.163749 3.7224 0
M  V30 5646 H 527.568 1.92713 4.38633 0
M  V30 5647 H 525.932 0.935175 2.3691 0
M  V30 5648 H 526.715 2.60159 2.23992 0
M  V30 5649 N 529.16 -1.33526 0.837174 0
M  V30 5650 C 530.07 -2.33023 0.271568 0
M  V30 5651 C 531.086 -1.63272 -0.601514 0
M  V30 5652 O 532.262 -1.94939 -0.506038 0
M  V30 5653 C 529.327 -3.42382 -0.545448 0
M  V30 5654 C 528.388 -4.27857 0.351709 0
M  V30 5655 C 527.621 -5.31994 -0.426409 0
M  V30 5656 O 527.844 -5.45763 -1.65828 0
M  V30 5657 O 526.778 -6.01572 0.1987 0
M  V30 5658 H 530.604 -2.83256 1.09545 0
M  V30 5659 H 528.189 -1.36837 0.599655 0
M  V30 5660 H 530.071 -4.09122 -1.00979 0
M  V30 5661 H 528.746 -2.94369 -1.34641 0
M  V30 5662 H 527.653 -3.6399 0.863853 0
M  V30 5663 H 528.986 -4.79349 1.1174 0
M  V30 5664 N 530.638 -0.59345 -1.46 0
M  V30 5665 C 531.601 0.123538 -2.28867 0
M  V30 5666 C 532.601 0.808628 -1.38989 0
M  V30 5667 O 533.791 0.658945 -1.61256 0
M  V30 5668 C 530.923 1.1847 -3.19653 0
M  V30 5669 H 532.116 -0.604843 -2.93737 0
M  V30 5670 H 529.669 -0.351875 -1.52288 0
M  V30 5671 H 530.404 1.94431 -2.59552 0
M  V30 5672 H 530.189 0.69783 -3.8584 0
M  V30 5673 H 531.679 1.68726 -3.81997 0
M  V30 5674 N 532.116 1.54067 -0.331816 0
M  V30 5675 C 533.026 2.28322 0.539104 0
M  V30 5676 C 534.042 1.32985 1.1221 0
M  V30 5677 O 535.218 1.6601 1.1403 0
M  V30 5678 C 532.283 3.03277 1.68 0
M  V30 5679 C 531.344 4.14216 1.12798 0
M  V30 5680 C 530.577 4.85588 2.2145 0
M  V30 5681 O 530.8 4.56536 3.41952 0
M  V30 5682 O 529.734 5.72309 1.86404 0
M  V30 5683 H 533.56 3.03632 -0.0641692 0
M  V30 5684 H 531.145 1.49083 -0.0972365 0
M  V30 5685 H 533.027 3.50189 2.34405 0
M  V30 5686 H 531.702 2.30834 2.2693 0
M  V30 5687 H 530.609 3.71635 0.428782 0
M  V30 5688 H 531.942 4.88727 0.583698 0
M  V30 5689 N 533.594 0.0601682 1.57485 0
M  V30 5690 C 534.871 -0.651956 1.84415 0
M  V30 5691 C 535.251 -1.88498 0.950361 0
M  V30 5692 O 534.599 -2.28496 0.0136719 0
M  V30 5693 C 534.809 -1.00069 3.34346 0
M  V30 5694 C 536.157 -1.37915 4.01578 0
M  V30 5695 O 537.181 -1.09277 3.39024 0
M  V30 5696 O 536.04 -1.91399 5.11887 0
M  V30 5697 H 533.134 -0.322668 0.761455 0
M  V30 5698 H 535.68 0.0902159 1.6946 0
M  V30 5699 H 534.452 -0.124463 3.91102 0
M  V30 5700 H 534.075 -1.80001 3.54521 0
M  V30 5701 N 535.072 -1.5615 -0.213296 0
M  V30 5702 C 536.002 -1.96109 -1.26742 0
M  V30 5703 C 536.983 -0.830448 -1.48451 0
M  V30 5704 O 538.168 -1.09339 -1.60495 0
M  V30 5705 C 535.298 -2.28492 -2.61551 0
M  V30 5706 C 534.252 -3.44124 -2.54485 0
M  V30 5707 C 533.578 -3.62134 -3.93399 0
M  V30 5708 C 534.878 -4.78855 -2.08556 0
M  V30 5709 H 536.572 -2.84412 -0.935434 0
M  V30 5710 H 534.118 -1.36836 -0.44854 0
M  V30 5711 H 536.071 -2.55039 -3.3546 0
M  V30 5712 H 534.795 -1.37052 -2.96453 0
M  V30 5713 H 533.454 -3.17639 -1.83033 0
M  V30 5714 H 533.102 -2.68055 -4.25623 0
M  V30 5715 H 532.802 -4.39913 -3.89551 0
M  V30 5716 H 534.326 -3.91038 -4.68958 0
M  V30 5717 H 535.74 -5.04552 -2.72213 0
M  V30 5718 H 534.137 -5.59975 -2.1575 0
M  V30 5719 H 535.207 -4.73657 -1.03811 0
M  V30 5720 N 536.55 0.480323 -1.50102 0
M  V30 5721 C 537.513 1.56181 -1.6775 0
M  V30 5722 C 538.513 1.51156 -0.548503 0
M  V30 5723 O 539.703 1.5394 -0.815363 0
M  V30 5724 C 536.835 2.95823 -1.69415 0
M  V30 5725 H 538.028 1.41855 -2.6423 0
M  V30 5726 H 535.581 0.70605 -1.39444 0
M  V30 5727 H 536.316 3.15604 -0.745948 0
M  V30 5728 H 536.101 3.00878 -2.51425 0
M  V30 5729 H 537.591 3.74359 -1.85054 0
M  V30 5730 N 538.028 1.39524 0.732853 0
M  V30 5731 C 539.253 1.40329 1.52717 0
M  V30 5732 C 539.678 0.000286574 1.881 0
M  V30 5733 O 539.036 -0.987262 1.52062 0
M  V30 5734 C 539.084 2.28464 2.78992 0
M  V30 5735 O 538.188 1.716 3.75003 0
M  V30 5736 H 537.529 0.47778 0.461109 0
M  V30 5737 H 540.059 1.83546 0.903996 0
M  V30 5738 H 540.069 2.43051 3.27705 0
M  V30 5739 H 538.744 3.30425 2.52572 0
M  V30 5740 H 537.321 1.66267 3.33781 0
M  V30 5741 N 539.506 -0.963266 1.24736 0
M  V30 5742 C 540.438 -2.06162 1.0015 0
M  V30 5743 C 541.451 -1.62771 -0.0305905 0
M  V30 5744 O 542.64 -1.77296 0.206966 0
M  V30 5745 C 539.74 -3.35333 0.490385 0
M  V30 5746 C 538.913 -4.07609 1.58663 0
M  V30 5747 C 537.972 -5.15052 1.0774 0
M  V30 5748 O 536.998 -5.4098 1.77002 0
M  V30 5749 N 538.2 -5.80436 -0.0858605 0
M  V30 5750 H 540.965 -2.27825 1.94719 0
M  V30 5751 H 538.526 -1.13121 1.15825 0
M  V30 5752 H 540.518 -4.04477 0.134371 0
M  V30 5753 H 539.088 -3.10507 -0.361155 0
M  V30 5754 H 538.308 -3.32681 2.11463 0
M  V30 5755 H 539.596 -4.52656 2.32336 0
M  V30 5756 H 538.994 -5.6178 -0.664806 0
M  V30 5757 H 537.551 -6.50674 -0.382981 0
M  V30 5758 N 540.985 -1.06182 -1.16461 0
M  V30 5759 C 541.918 -0.615859 -2.19733 0
M  V30 5760 C 542.896 0.360766 -1.58547 0
M  V30 5761 O 544.08 0.270009 -1.86556 0
M  V30 5762 C 541.207 0.097312 -3.3856 0
M  V30 5763 C 540.253 -0.835889 -4.18229 0
M  V30 5764 S 541.086 -2.33052 -4.82128 0
M  V30 5765 C 542.242 -1.62881 -6.04335 0
M  V30 5766 H 542.475 -1.49079 -2.57221 0
M  V30 5767 H 540.008 -0.874692 -1.27234 0
M  V30 5768 H 541.966 0.502563 -4.07412 0
M  V30 5769 H 540.627 0.948418 -2.99439 0
M  V30 5770 H 539.82 -0.283426 -5.03202 0
M  V30 5771 H 539.422 -1.18097 -3.54865 0
M  V30 5772 H 541.714 -0.933764 -6.71034 0
M  V30 5773 H 542.657 -2.45641 -6.64128 0
M  V30 5774 H 543.065 -1.11189 -5.53441 0
M  V30 5775 N 542.463 1.3308 -0.844243 0
M  V30 5776 C 543.393 2.3161 -0.296493 0
M  V30 5777 C 544.374 1.59215 0.598707 0
M  V30 5778 O 545.559 1.87077 0.521134 0
M  V30 5779 C 542.689 3.43313 0.524762 0
M  V30 5780 C 541.643 4.27115 -0.275106 0
M  V30 5781 C 540.969 5.30483 0.670236 0
M  V30 5782 C 542.269 5.00443 -1.49514 0
M  V30 5783 H 543.963 2.77672 -1.11976 0
M  V30 5784 H 541.509 1.33496 -0.539899 0
M  V30 5785 H 543.462 4.11273 0.918298 0
M  V30 5786 H 542.186 2.95952 1.3813 0
M  V30 5787 H 540.845 3.60787 -0.650267 0
M  V30 5788 H 540.493 4.79379 1.52332 0
M  V30 5789 H 540.193 5.87435 0.139123 0
M  V30 5790 H 541.717 6.01308 1.06117 0
M  V30 5791 H 543.131 5.61141 -1.17447 0
M  V30 5792 H 541.528 5.67071 -1.96343 0
M  V30 5793 H 542.598 4.28906 -2.26202 0
M  V30 5794 N 543.941 0.601185 1.45683 0
M  V30 5795 C 544.888 -0.121396 2.30481 0
M  V30 5796 C 545.858 -0.866232 1.41724 0
M  V30 5797 O 547.043 -0.85324 1.70659 0
M  V30 5798 C 544.183 -1.11704 3.26521 0
M  V30 5799 C 543.296 -0.373741 4.3038 0
M  V30 5800 C 542.431 -1.35854 5.13534 0
M  V30 5801 C 541.47 -0.602689 6.09126 0
M  V30 5802 N 540.607 -1.53645 6.85082 0
M  V30 5803 H 545.447 0.607732 2.91737 0
M  V30 5804 H 542.984 0.311502 1.43764 0
M  V30 5805 H 544.942 -1.70735 3.80664 0
M  V30 5806 H 543.572 -1.81366 2.67032 0
M  V30 5807 H 542.624 0.331962 3.78949 0
M  V30 5808 H 543.936 0.2163 4.98331 0
M  V30 5809 H 543.09 -2.02111 5.72046 0
M  V30 5810 H 541.829 -1.98251 4.45587 0
M  V30 5811 H 540.834 0.0735482 5.49751 0
M  V30 5812 H 542.059 0.0161467 6.79098 0
M  V30 5813 H 540.005 -2.14819 6.1983 0
M  V30 5814 H 539.922 -0.999688 7.49361 0
M  V30 5815 H 541.19 -2.1888 7.48139 0
M  V30 5816 N 545.419 -1.53889 0.339982 0
M  V30 5817 C 546.667 -2.00458 -0.257112 0
M  V30 5818 C 546.988 -1.22953 -1.51353 0
M  V30 5819 O 546.258 -0.335734 -1.93002 0
M  V30 5820 H 544.838 -0.740544 -0.0979965 0
M  V30 5821 H 547.5 -1.89386 0.460317 0
M  V30 5822 H 546.596 -3.08035 -0.502057 0
M  V30 5823 N 546.897 -0.0685191 -1.57451 0
M  V30 5824 C 548.144 0.601348 -1.93365 0
M  V30 5825 C 548.472 1.69816 -0.948294 0
M  V30 5826 O 547.727 1.95666 0.0366199 0
M  V30 5827 C 548.026 1.22051 -3.35914 0
M  V30 5828 C 547.692 0.250165 -4.50205 0
M  V30 5829 C 546.354 -0.0167954 -4.81197 0
M  V30 5830 C 548.706 -0.413867 -5.19554 0
M  V30 5831 C 546.034 -0.95493 -5.78876 0
M  V30 5832 C 548.386 -1.3403 -6.18238 0
M  V30 5833 C 547.05 -1.61576 -6.47649 0
M  V30 5834 H 546.32 0.220049 -0.707573 0
M  V30 5835 H 548.967 -0.138697 -1.90997 0
M  V30 5836 H 547.272 2.03622 -3.34732 0
M  V30 5837 H 548.969 1.74605 -3.6099 0
M  V30 5838 H 545.559 0.468421 -4.26033 0
M  V30 5839 H 549.743 -0.220733 -4.95809 0
M  V30 5840 H 544.999 -1.17563 -5.99991 0
M  V30 5841 H 549.173 -1.86081 -6.71079 0
M  V30 5842 H 546.8 -2.34431 -7.2315 0
M  V30 5843 N 548.375 1.56261 0.205012 0
M  V30 5844 C 549.786 1.70056 0.770574 0
M  V30 5845 C 550.137 0.673398 1.84282 0
M  V30 5846 O 549.262 -0.172196 2.15714 0
M  V30 5847 C 549.857 3.08316 1.40451 0
M  V30 5848 C 548.416 3.2391 1.91727 0
M  V30 5849 C 547.563 2.66001 0.783516 0
M  V30 5850 H 550.514 1.58688 -0.019911 0
M  V30 5851 H 550.535 3.05094 2.27371 0
M  V30 5852 H 550.047 3.83053 0.623882 0
M  V30 5853 H 548.148 2.54072 2.7254 0
M  V30 5854 H 548.261 4.3131 2.08588 0
M  V30 5855 H 546.625 2.24915 1.19521 0
M  V30 5856 H 547.408 3.43297 0.0152883 0
M  V30 5857 N 549.853 -0.472356 1.50355 0
M  V30 5858 C 551.269 -0.806001 1.37753 0
M  V30 5859 C 551.469 -1.968 0.432649 0
M  V30 5860 O 550.525 -2.52189 -0.12519 0
M  V30 5861 C 551.838 -1.11926 2.79093 0
M  V30 5862 C 553.386 -1.22579 2.87999 0
M  V30 5863 C 553.861 -1.57218 4.3017 0
M  V30 5864 N 555.352 -1.64212 4.33115 0
M  V30 5865 C 556.087 -1.92517 5.40116 0
M  V30 5866 N 555.583 -2.1885 6.57325 0
M  V30 5867 N 557.376 -1.94008 5.27558 0
M  V30 5868 H 549.527 0.293451 2.10363 0
M  V30 5869 H 551.79 0.0687672 0.945503 0
M  V30 5870 H 551.496 -0.338504 3.50067 0
M  V30 5871 H 551.37 -2.05577 3.16256 0
M  V30 5872 H 553.757 -1.99722 2.17245 0
M  V30 5873 H 553.838 -0.269107 2.54381 0
M  V30 5874 H 553.482 -0.806154 5.01461 0
M  V30 5875 H 553.412 -2.54034 4.61275 0
M  V30 5876 H 555.903 -1.45906 3.48597 0
M  V30 5877 H 556.216 -2.39718 7.3468 0
M  V30 5878 H 554.561 -2.16245 6.60502 0
M  V30 5879 H 557.752 -1.72931 4.34986 0
M  V30 5880 H 557.925 -2.15731 6.11035 0
M  V30 5881 N 551.331 -1.39911 -0.725443 0
M  V30 5882 C 552.608 -1.28158 -1.47766 0
M  V30 5883 C 552.988 0.104545 -2.10841 0
M  V30 5884 O 552.336 1.11657 -1.99361 0
M  V30 5885 C 552.546 -2.41306 -2.52135 0
M  V30 5886 C 553.894 -2.81076 -3.18247 0
M  V30 5887 O 554.918 -2.40827 -2.62452 0
M  V30 5888 O 553.777 -3.50581 -4.19231 0
M  V30 5889 H 550.871 -0.502761 -0.656628 0
M  V30 5890 H 553.417 -1.51808 -0.758456 0
M  V30 5891 H 552.189 -3.33932 -2.03974 0
M  V30 5892 H 551.812 -2.19374 -3.31603 0
M  V30 5893 N 552.809 0.956637 -1.25245 0
M  V30 5894 C 554.225 1.22733 -1.02023 0
M  V30 5895 C 554.425 1.99761 0.264186 0
M  V30 5896 O 553.481 2.32814 0.977436 0
M  V30 5897 C 554.794 2.00367 -2.24217 0
M  V30 5898 C 556.342 2.13418 -2.28958 0
M  V30 5899 C 556.817 2.9445 -3.50803 0
M  V30 5900 N 558.308 3.02029 -3.51187 0
M  V30 5901 C 559.043 3.65116 -4.42129 0
M  V30 5902 N 558.539 4.2983 -5.43339 0
M  V30 5903 N 560.332 3.62237 -4.29815 0
M  V30 5904 H 552.483 0.441282 -2.07765 0
M  V30 5905 H 554.746 0.257686 -0.912306 0
M  V30 5906 H 554.452 1.51165 -3.17556 0
M  V30 5907 H 554.326 3.01077 -2.27228 0
M  V30 5908 H 556.713 2.61819 -1.36143 0
M  V30 5909 H 556.794 1.1202 -2.29968 0
M  V30 5910 H 556.438 2.46741 -4.43939 0
M  V30 5911 H 556.368 3.9607 -3.47039 0
M  V30 5912 H 558.859 2.56007 -2.77973 0
M  V30 5913 H 559.172 4.75819 -6.08947 0
M  V30 5914 H 557.517 4.28465 -5.47214 0
M  V30 5915 H 560.708 3.10863 -3.49974 0
M  V30 5916 H 560.881 4.11117 -5.00886 0
M  V30 5917 N 554.287 1.06798 1.15896 0
M  V30 5918 C 555.533 0.788934 1.86825 0
M  V30 5919 C 555.866 -0.683084 1.8179 0
M  V30 5920 O 555.141 -1.50086 1.23711 0
M  V30 5921 C 555.424 1.29065 3.36176 0
M  V30 5922 C 555.277 2.8268 3.49874 0
M  V30 5923 C 556.596 0.902655 4.30744 0
M  V30 5924 H 553.715 0.288066 0.678371 0
M  V30 5925 H 556.357 1.32479 1.36195 0
M  V30 5926 H 554.507 0.834806 3.79425 0
M  V30 5927 H 556.179 3.36511 3.15528 0
M  V30 5928 H 554.422 3.21157 2.91617 0
M  V30 5929 H 555.093 3.12852 4.54783 0
M  V30 5930 H 557.569 1.29535 3.95424 0
M  V30 5931 H 556.445 1.28111 5.3374 0
M  V30 5932 H 556.706 -0.191951 4.41683 0
M  V30 5933 N 555.766 -1.3263 0.851289 0
M  V30 5934 C 556.991 -2.02097 0.466006 0
M  V30 5935 C 557.416 -1.63574 -0.928709 0
M  V30 5936 O 556.774 -0.834665 -1.60944 0
M  V30 5937 C 556.822 -3.55425 0.608737 0
M  V30 5938 O 555.926 -4.10827 -0.359878 0
M  V30 5939 H 555.267 -0.636911 0.187724 0
M  V30 5940 H 557.797 -1.69253 1.14955 0
M  V30 5941 H 557.807 -4.04986 0.495006 0
M  V30 5942 H 556.482 -3.82806 1.62581 0
M  V30 5943 H 555.059 -3.72349 -0.202666 0
M  V30 5944 N 557.244 -0.608902 -1.45362 0
M  V30 5945 C 558.207 0.0992563 -2.28985 0
M  V30 5946 C 559.207 0.793841 -1.39838 0
M  V30 5947 O 560.397 0.641804 -1.61946 0
M  V30 5948 C 557.529 1.15073 -3.20891 0
M  V30 5949 H 558.722 -0.635964 -2.93079 0
M  V30 5950 H 556.275 -0.368007 -1.51906 0
M  V30 5951 H 557.01 1.91667 -2.616 0
M  V30 5952 H 556.795 0.656867 -3.86559 0
M  V30 5953 H 558.285 1.64665 -3.83765 0
M  V30 5954 N 558.722 1.53707 -0.348139 0
M  V30 5955 C 559.654 2.22725 0.540946 0
M  V30 5956 C 560.667 1.2354 1.06027 0
M  V30 5957 O 561.856 1.49867 0.96964 0
M  V30 5958 C 558.956 2.89756 1.75768 0
M  V30 5959 C 558.129 4.15297 1.37285 0
M  V30 5960 C 557.188 4.65697 2.44976 0
M  V30 5961 O 556.214 5.29798 2.08092 0
M  V30 5962 N 557.416 4.42017 3.763 0
M  V30 5963 H 560.181 2.99658 -0.0501592 0
M  V30 5964 H 557.742 1.60979 -0.17248 0
M  V30 5965 H 559.734 3.20388 2.47252 0
M  V30 5966 H 558.304 2.16382 2.25605 0
M  V30 5967 H 557.524 3.9116 0.488584 0
M  V30 5968 H 558.812 4.96948 1.09179 0
M  V30 5969 H 558.21 3.9076 4.09051 0
M  V30 5970 H 556.767 4.77242 4.4394 0
M  V30 5971 N 560.2 0.0768682 1.57412 0
M  V30 5972 C 561.11 -0.903207 2.16516 0
M  V30 5973 C 562.126 -1.32341 1.12968 0
M  V30 5974 O 563.302 -1.39507 1.45258 0
M  V30 5975 C 560.367 -2.1508 2.71922 0
M  V30 5976 C 559.428 -1.78653 3.90361 0
M  V30 5977 C 558.661 -2.97465 4.43114 0
M  V30 5978 O 558.884 -4.11638 3.94854 0
M  V30 5979 O 557.818 -2.76987 5.3438 0
M  V30 5980 H 561.644 -0.430427 3.00634 0
M  V30 5981 H 559.229 -0.146485 1.4868 0
M  V30 5982 H 561.111 -2.8823 3.07411 0
M  V30 5983 H 559.786 -2.61446 1.9086 0
M  V30 5984 H 558.693 -1.0274 3.59716 0
M  V30 5985 H 560.026 -1.37066 4.7273 0
M  V30 5986 N 561.678 -1.56367 -0.196722 0
M  V30 5987 C 562.641 -1.93561 -1.22746 0
M  V30 5988 C 563.641 -0.816566 -1.38524 0
M  V30 5989 O 564.831 -1.084 -1.36363 0
M  V30 5990 C 561.963 -2.20823 -2.59712 0
M  V30 5991 H 563.156 -2.85774 -0.909586 0
M  V30 5992 H 560.709 -1.50032 -0.438174 0
M  V30 5993 H 561.444 -1.31243 -2.96557 0
M  V30 5994 H 561.229 -3.02368 -2.49632 0
M  V30 5995 H 562.719 -2.50608 -3.34044 0
M  V30 5996 N 563.156 0.464375 -1.50603 0
M  V30 5997 C 564.086 1.56944 -1.72889 0
M  V30 5998 C 565.067 1.59979 -0.577997 0
M  V30 5999 O 566.252 1.76138 -0.817855 0
M  V30 6000 C 563.382 2.95225 -1.8292 0
M  V30 6001 C 562.336 3.07056 -2.98162 0
M  V30 6002 C 561.662 4.47051 -2.93343 0
M  V30 6003 C 562.962 2.83648 -4.38567 0
M  V30 6004 H 564.656 1.38547 -2.65415 0
M  V30 6005 H 562.202 0.665082 -1.27721 0
M  V30 6006 H 564.155 3.72467 -1.97095 0
M  V30 6007 H 562.879 3.14793 -0.870209 0
M  V30 6008 H 561.538 2.32248 -2.83648 0
M  V30 6009 H 561.186 4.63547 -1.95276 0
M  V30 6010 H 560.886 4.55902 -3.70712 0
M  V30 6011 H 562.41 5.26304 -3.09575 0
M  V30 6012 H 563.824 3.50636 -4.53572 0
M  V30 6013 H 562.221 3.03937 -5.17438 0
M  V30 6014 H 563.291 1.79451 -4.50472 0
M  V30 6015 N 564.634 1.40294 0.718013 0
M  V30 6016 C 565.88 1.38645 1.48005 0
M  V30 6017 C 566.213 -0.0121202 1.94196 0
M  V30 6018 O 565.488 -0.980309 1.67989 0
M  V30 6019 C 565.771 2.37379 2.70782 0
M  V30 6020 C 565.624 3.8625 2.30501 0
M  V30 6021 C 566.943 2.33685 3.72933 0
M  V30 6022 H 564.062 0.504928 0.536858 0
M  V30 6023 H 566.704 1.71411 0.819649 0
M  V30 6024 H 564.854 2.09568 3.27129 0
M  V30 6025 H 566.526 4.24879 1.79655 0
M  V30 6026 H 564.769 4.02202 1.6253 0
M  V30 6027 H 565.44 4.50847 3.18498 0
M  V30 6028 H 567.916 2.58314 3.2621 0
M  V30 6029 H 566.792 3.0482 4.56482 0
M  V30 6030 H 567.053 1.34765 4.21059 0
M  V30 6031 N 566.112 -0.949982 1.2575 0
M  V30 6032 C 567.062 -2.03297 1.03221 0
M  V30 6033 C 568.046 -1.60867 -0.0324751 0
M  V30 6034 O 569.238 -1.76047 0.183423 0
M  V30 6035 C 566.367 -3.36938 0.657841 0
M  V30 6036 C 565.453 -3.85878 1.75952 0
M  V30 6037 N 565.844 -4.0756 2.99547 0
M  V30 6038 C 564.142 -4.14709 1.64111 0
M  V30 6039 C 564.843 -4.47961 3.71087 0
M  V30 6040 N 563.819 -4.5416 2.98731 0
M  V30 6041 H 567.621 -2.1806 1.97045 0
M  V30 6042 H 565.135 -1.13516 1.16138 0
M  V30 6043 H 567.132 -4.14155 0.477614 0
M  V30 6044 H 565.792 -3.2355 -0.273025 0
M  V30 6045 H 566.803 -3.94501 3.35544 0
M  V30 6046 H 563.48 -4.10158 0.779527 0
M  V30 6047 H 564.87 -4.73002 4.77199 0
M  V30 6048 N 567.59 -1.07411 -1.15328 0
M  V30 6049 C 568.867 -0.710732 -1.82231 0
M  V30 6050 C 569.247 0.806732 -1.95077 0
M  V30 6051 O 568.595 1.72139 -1.50268 0
M  V30 6052 C 568.805 -1.42586 -3.18544 0
M  V30 6053 C 570.153 -1.57836 -3.94174 0
M  V30 6054 O 571.177 -1.38669 -3.281 0
M  V30 6055 O 570.036 -1.8938 -5.12638 0
M  V30 6056 H 567.13 -0.25297 -0.78736 0
M  V30 6057 H 569.676 -1.17508 -1.22434 0
M  V30 6058 H 568.448 -2.46008 -3.04296 0
M  V30 6059 H 568.071 -0.952332 -3.86026 0
M  V30 6060 N 569.068 1.32177 -0.85831 0
M  V30 6061 C 570.298 2.01021 -0.476889 0
M  V30 6062 C 570.706 1.64653 0.931995 0
M  V30 6063 O 570.049 0.865713 1.62022 0
M  V30 6064 C 570.111 3.55413 -0.540528 0
M  V30 6065 C 569.775 4.1522 -1.90895 0
M  V30 6066 C 570.772 4.3318 -2.87491 0
M  V30 6067 C 568.457 4.51212 -2.20709 0
M  V30 6068 C 570.451 4.86306 -4.1205 0
M  V30 6069 C 568.138 5.04042 -3.45521 0
M  V30 6070 C 569.136 5.21538 -4.41007 0
M  V30 6071 O 568.824 5.73238 -5.63608 0
M  V30 6072 H 568.556 0.650059 -0.18547 0
M  V30 6073 H 571.11 1.69648 -1.15796 0
M  V30 6074 H 569.34 3.86196 0.19741 0
M  V30 6075 H 571.029 4.05526 -0.174191 0
M  V30 6076 H 571.795 4.05704 -2.65762 0
M  V30 6077 H 567.674 4.36878 -1.4717 0
M  V30 6078 H 571.218 4.99877 -4.86589 0
M  V30 6079 H 567.115 5.30952 -3.67098 0
M  V30 6080 H 567.883 5.91625 -5.65617 0
M  V30 6081 N 570.547 0.616602 1.45037 0
M  V30 6082 C 571.794 0.115331 2.02171 0
M  V30 6083 C 572.122 -1.25748 1.48383 0
M  V30 6084 O 571.377 -1.84511 0.652229 0
M  V30 6085 C 571.676 0.0356829 3.57382 0
M  V30 6086 C 571.342 1.34535 4.30362 0
M  V30 6087 C 570.004 1.70408 4.50016 0
M  V30 6088 C 572.356 2.21049 4.72003 0
M  V30 6089 C 569.684 2.92529 5.0857 0
M  V30 6090 C 572.036 3.42427 5.31908 0
M  V30 6091 C 570.7 3.78541 5.49784 0
M  V30 6092 H 569.97 0.0422024 0.739797 0
M  V30 6093 H 572.617 0.80002 1.73988 0
M  V30 6094 H 570.922 -0.732314 3.84895 0
M  V30 6095 H 572.619 -0.368463 3.99304 0
M  V30 6096 H 569.209 1.05615 4.15383 0
M  V30 6097 H 573.393 1.94632 4.56544 0
M  V30 6098 H 568.649 3.20605 5.20598 0
M  V30 6099 H 572.823 4.09709 5.63127 0
M  V30 6100 H 570.45 4.73255 5.94923 0
M  V30 6101 N 572.025 -1.5352 0.356285 0
M  V30 6102 C 573.25 -2.06007 -0.239961 0
M  V30 6103 C 573.675 -1.22872 -1.42422 0
M  V30 6104 O 573.033 -0.245516 -1.7963 0
M  V30 6105 C 573.081 -3.5522 -0.620587 0
M  V30 6106 O 572.185 -3.74864 -1.71902 0
M  V30 6107 H 571.526 -0.662961 -0.0371377 0
M  V30 6108 H 574.056 -1.98033 0.514194 0
M  V30 6109 H 574.066 -3.98081 -0.894197 0
M  V30 6110 H 572.741 -4.15175 0.245407 0
M  V30 6111 H 571.318 -3.43904 -1.44169 0
M  V30 6112 N 573.503 -0.0852151 -1.57369 0
M  V30 6113 C 574.466 0.8627 -2.12344 0
M  V30 6114 C 575.466 1.21746 -1.05046 0
M  V30 6115 O 576.656 1.14852 -1.30976 0
M  V30 6116 C 573.788 2.1618 -2.63589 0
M  V30 6117 H 574.981 0.385511 -2.97412 0
M  V30 6118 H 572.534 0.163663 -1.55441 0
M  V30 6119 H 573.269 2.68406 -1.82013 0
M  V30 6120 H 573.054 1.91723 -3.4203 0
M  V30 6121 H 574.544 2.84011 -3.06149 0
M  V30 6122 N 574.981 1.5647 0.188427 0
M  V30 6123 C 575.911 1.98101 1.23606 0
M  V30 6124 C 576.892 0.853961 1.47111 0
M  V30 6125 O 578.077 1.11879 1.58735 0
M  V30 6126 C 575.207 2.32624 2.57882 0
M  V30 6127 C 574.161 3.48129 2.48978 0
M  V30 6128 C 573.487 3.68347 3.87588 0
M  V30 6129 C 574.787 4.82112 2.00911 0
M  V30 6130 H 576.481 2.85864 0.890068 0
M  V30 6131 H 574.027 1.37532 0.426714 0
M  V30 6132 H 575.98 2.60343 3.3136 0
M  V30 6133 H 574.704 1.41751 2.94235 0
M  V30 6134 H 573.363 3.20511 1.77956 0
M  V30 6135 H 573.011 2.74793 4.21305 0
M  V30 6136 H 572.711 4.46055 3.82503 0
M  V30 6137 H 574.235 3.98449 4.62678 0
M  V30 6138 H 575.649 5.08819 2.64151 0
M  V30 6139 H 574.046 5.63337 2.06814 0
M  V30 6140 H 575.116 4.75249 0.96262 0
M  V30 6141 N 576.459 -0.456382 1.50847 0
M  V30 6142 C 577.87 -1.03685 1.55262 0
M  V30 6143 C 578.221 -1.92779 0.364771 0
M  V30 6144 O 577.346 -2.10043 -0.52068 0
M  V30 6145 C 577.941 -1.88718 2.81374 0
M  V30 6146 C 576.5 -2.41847 2.88422 0
M  V30 6147 C 575.647 -1.20564 2.49719 0
M  V30 6148 H 578.598 -0.238399 1.56899 0
M  V30 6149 H 578.619 -2.73957 2.6406 0
M  V30 6150 H 578.131 -1.23847 3.67809 0
M  V30 6151 H 576.232 -3.10228 2.06372 0
M  V30 6152 H 576.345 -2.75947 3.9165 0
M  V30 6153 H 574.709 -1.54504 2.02486 0
M  V30 6154 H 575.492 -0.573326 3.38479 0
M  V30 6155 N 577.937 -1.40673 -0.710563 0
M  V30 6156 C 579.162 -1.42741 -1.50465 0
M  V30 6157 C 579.587 -0.0302116 -1.88076 0
M  V30 6158 O 578.945 0.962945 -1.53613 0
M  V30 6159 C 578.993 -2.32873 -2.75322 0
M  V30 6160 O 578.097 -1.77544 -3.72226 0
M  V30 6161 H 577.438 -0.485056 -0.45345 0
M  V30 6162 H 579.968 -1.84961 -0.874681 0
M  V30 6163 H 579.978 -2.48233 -3.23797 0
M  V30 6164 H 578.653 -3.34401 -2.47283 0
M  V30 6165 H 577.23 -1.71556 -3.31093 0
M  V30 6166 N 579.415 0.9433 -1.26252 0
M  V30 6167 C 580.347 2.04542 -1.03417 0
M  V30 6168 C 581.36 1.62799 0.0046911 0
M  V30 6169 O 582.549 1.76944 -0.235146 0
M  V30 6170 C 579.649 3.34511 -0.543671 0
M  V30 6171 C 578.822 4.05033 -1.65128 0
M  V30 6172 C 577.881 5.13273 -1.1592 0
M  V30 6173 O 576.907 5.38095 -1.85586 0
M  V30 6174 N 578.109 5.805 -0.00649279 0
M  V30 6175 H 580.874 2.24699 -1.98319 0
M  V30 6176 H 578.435 1.11264 -1.1761 0
M  V30 6177 H 580.427 4.04212 -0.198703 0
M  V30 6178 H 578.997 3.11042 0.311711 0
M  V30 6179 H 578.217 3.29275 -2.16729 0
M  V30 6180 H 579.505 4.48903 -2.39508 0
M  V30 6181 H 578.903 5.62767 0.575347 0
M  V30 6182 H 577.46 6.51201 0.279416 0
M  V30 6183 N 580.893 1.08022 1.14757 0
M  V30 6184 C 581.823 0.728248 2.21853 0
M  V30 6185 C 582.804 -0.287486 1.67653 0
M  V30 6186 O 583.989 -0.158727 1.9355 0
M  V30 6187 C 581.119 0.132549 3.47047 0
M  V30 6188 C 580.073 1.07619 4.14249 0
M  V30 6189 C 579.399 0.342907 5.33599 0
M  V30 6190 C 580.699 2.41268 4.63235 0
M  V30 6191 H 582.393 1.62365 2.51551 0
M  V30 6192 H 579.939 0.782125 1.20908 0
M  V30 6193 H 581.892 -0.125665 4.21213 0
M  V30 6194 H 580.616 -0.797971 3.16702 0
M  V30 6195 H 579.275 1.31944 3.42033 0
M  V30 6196 H 578.923 -0.59129 4.99513 0
M  V30 6197 H 578.623 0.971955 5.79506 0
M  V30 6198 H 580.147 0.0926538 6.1053 0
M  V30 6199 H 581.561 2.21232 5.28894 0
M  V30 6200 H 579.958 2.9983 5.19829 0
M  V30 6201 H 581.028 3.03079 3.78512 0
M  V30 6202 N 582.371 -1.3172 0.865308 0
M  V30 6203 C 583.601 -2.00765 0.487543 0
M  V30 6204 C 584.009 -1.65145 -0.92325 0
M  V30 6205 O 583.352 -0.874294 -1.61561 0
M  V30 6206 C 583.414 -3.55122 0.559369 0
M  V30 6207 C 583.078 -4.14202 1.93095 0
M  V30 6208 C 584.075 -4.3165 2.89784 0
M  V30 6209 C 581.76 -4.50036 2.23099 0
M  V30 6210 C 583.754 -4.84114 4.14623 0
M  V30 6211 C 581.441 -5.02203 3.48189 0
M  V30 6212 C 582.439 -5.19192 4.43767 0
M  V30 6213 O 582.127 -5.70241 5.6664 0
M  V30 6214 H 581.859 -0.649066 0.188915 0
M  V30 6215 H 584.413 -1.69032 1.16694 0
M  V30 6216 H 582.643 -3.86295 -0.176926 0
M  V30 6217 H 584.332 -4.05428 0.195694 0
M  V30 6218 H 585.098 -4.04288 2.6791 0
M  V30 6219 H 580.977 -4.36091 1.49485 0
M  V30 6220 H 584.521 -4.9729 4.89233 0
M  V30 6221 H 580.418 -5.28997 3.69908 0
M  V30 6222 H 581.186 -5.88617 5.68746 0
M  V30 6223 N 583.85 -0.624285 -1.44708 0
M  V30 6224 C 584.782 0.12305 -2.28869 0
M  V30 6225 C 585.795 0.81557 -1.40898 0
M  V30 6226 O 586.984 0.678162 -1.65116 0
M  V30 6227 C 584.084 1.19612 -3.1709 0
M  V30 6228 C 583.257 0.587452 -4.33437 0
M  V30 6229 C 582.316 1.55358 -5.02743 0
M  V30 6230 O 581.341 1.07338 -5.58988 0
M  V30 6231 N 582.543 2.88798 -5.03563 0
M  V30 6232 H 585.308 -0.599193 -2.93649 0
M  V30 6233 H 582.87 -0.464954 -1.5508 0
M  V30 6234 H 584.861 1.84261 -3.60319 0
M  V30 6235 H 583.432 1.82067 -2.54107 0
M  V30 6236 H 582.652 -0.237509 -3.93484 0
M  V30 6237 H 583.94 0.161326 -5.08544 0
M  V30 6238 H 583.338 3.30399 -4.59188 0
M  V30 6239 H 581.894 3.48826 -5.50603 0
M  V30 6240 N 585.328 1.53329 -0.364422 0
M  V30 6241 C 586.258 2.28627 0.474543 0
M  V30 6242 C 587.239 1.31009 1.08492 0
M  V30 6243 O 588.424 1.59878 1.10239 0
M  V30 6244 C 585.554 3.07465 1.61501 0
M  V30 6245 C 584.508 4.1276 1.13194 0
M  V30 6246 C 583.834 4.79674 2.36255 0
M  V30 6247 C 585.134 5.21847 0.217507 0
M  V30 6248 H 586.828 2.99005 -0.153656 0
M  V30 6249 H 584.374 1.43803 -0.0753406 0
M  V30 6250 H 586.327 3.58889 2.20855 0
M  V30 6251 H 585.051 2.34775 2.27042 0
M  V30 6252 H 583.71 3.62281 0.56109 0
M  V30 6253 H 583.358 4.03557 3.00251 0
M  V30 6254 H 583.058 5.50827 2.04606 0
M  V30 6255 H 584.582 5.33892 2.96297 0
M  V30 6256 H 585.996 5.6878 0.718493 0
M  V30 6257 H 584.393 6.00099 -0.00806408 0
M  V30 6258 H 585.463 4.7921 -0.740653 0
M  V30 6259 N 586.806 0.0935595 1.57322 0
M  V30 6260 C 588.217 -0.435807 1.81542 0
M  V30 6261 C 588.568 -1.68263 1.00907 0
M  V30 6262 O 587.693 -2.15087 0.237983 0
M  V30 6263 C 588.288 -0.797436 3.29282 0
M  V30 6264 C 586.847 -1.27155 3.54272 0
M  V30 6265 C 585.994 -0.267455 2.76007 0
M  V30 6266 H 588.945 0.31902 1.5546 0
M  V30 6267 H 588.966 -1.6571 3.42521 0
M  V30 6268 H 588.478 0.110206 3.87943 0
M  V30 6269 H 586.579 -2.19696 3.00939 0
M  V30 6270 H 586.692 -1.23445 4.62923 0
M  V30 6271 H 585.056 -0.749282 2.43429 0
M  V30 6272 H 585.839 0.632839 3.37417 0
M  V30 6273 N 588.284 -1.56567 -0.180126 0
M  V30 6274 C 589.561 -1.7235 -0.924931 0
M  V30 6275 C 589.941 -0.652523 -2.00762 0
M  V30 6276 O 589.289 0.334115 -2.26044 0
M  V30 6277 C 589.499 -3.1523 -1.49771 0
M  V30 6278 C 590.847 -3.75921 -1.97405 0
M  V30 6279 O 591.871 -3.18452 -1.59583 0
M  V30 6280 O 590.73 -4.7681 -2.67048 0
M  V30 6281 H 587.824 -0.703502 -0.434758 0
M  V30 6282 H 590.37 -1.6886 -0.168647 0
M  V30 6283 H 589.142 -3.84656 -0.718027 0
M  V30 6284 H 588.765 -3.23009 -2.31842 0
M  V30 6285 N 589.762 0.448376 -1.51087 0
M  V30 6286 C 590.672 1.56882 -1.74428 0
M  V30 6287 C 591.688 1.62268 -0.62809 0
M  V30 6288 O 592.864 1.79716 -0.909075 0
M  V30 6289 C 589.929 2.92947 -1.85426 0
M  V30 6290 C 588.99 2.97766 -3.09247 0
M  V30 6291 C 588.223 4.27341 -3.19711 0
M  V30 6292 O 588.446 5.19112 -2.36387 0
M  V30 6293 O 587.38 4.38219 -4.12611 0
M  V30 6294 H 591.206 1.40104 -2.69452 0
M  V30 6295 H 588.791 0.630247 -1.35456 0
M  V30 6296 H 590.673 3.73719 -1.94709 0
M  V30 6297 H 589.348 3.09876 -0.935887 0
M  V30 6298 H 588.255 2.15989 -3.0545 0
M  V30 6299 H 589.588 2.8578 -4.00738 0
M  V30 6300 N 591.24 1.41047 0.703093 0
M  V30 6301 C 592.15 1.44645 1.84703 0
M  V30 6302 C 593.166 0.337778 1.7069 0
M  V30 6303 O 594.342 0.584327 1.92737 0
M  V30 6304 C 591.407 1.31928 3.20618 0
M  V30 6305 C 590.468 2.53047 3.46794 0
M  V30 6306 C 589.701 2.40927 4.76224 0
M  V30 6307 O 589.924 1.42978 5.5219 0
M  V30 6308 O 588.858 3.30543 5.03016 0
M  V30 6309 H 592.684 2.41139 1.84624 0
M  V30 6310 H 590.269 1.22504 0.855167 0
M  V30 6311 H 592.151 1.27092 4.01778 0
M  V30 6312 H 590.826 0.385469 3.21397 0
M  V30 6313 H 589.733 2.6346 2.65593 0
M  V30 6314 H 591.066 3.45231 3.50822 0
M  V30 6315 N 592.718 -0.936591 1.26751 0
M  V30 6316 C 593.943 -1.72288 1.15462 0
M  V30 6317 C 594.368 -1.85915 -0.285887 0
M  V30 6318 O 593.726 -1.35272 -1.20711 0
M  V30 6319 C 593.774 -3.10503 1.83359 0
M  V30 6320 O 592.878 -3.96745 1.1255 0
M  V30 6321 H 592.219 -0.52843 0.402067 0
M  V30 6322 H 594.749 -1.17271 1.67656 0
M  V30 6323 H 594.759 -3.60867 1.90365 0
M  V30 6324 H 593.434 -2.99901 2.88153 0
M  V30 6325 H 592.011 -3.55191 1.13551 0
M  V30 6326 N 594.196 -1.08629 -1.14182 0
M  V30 6327 C 595.126 -0.740003 -2.21464 0
M  V30 6328 C 596.107 0.278591 -1.67803 0
M  V30 6329 O 597.292 0.148461 -1.93632 0
M  V30 6330 C 594.422 -0.150952 -3.46972 0
M  V30 6331 C 593.376 -1.09815 -4.13672 0
M  V30 6332 C 592.702 -0.3712 -5.3341 0
M  V30 6333 C 594.002 -2.43722 -4.61949 0
M  V30 6334 H 595.696 -1.63697 -2.50686 0
M  V30 6335 H 593.242 -0.788526 -1.20492 0
M  V30 6336 H 595.195 0.103325 -4.21273 0
M  V30 6337 H 593.919 0.781164 -3.1712 0
M  V30 6338 H 592.578 -1.33756 -3.41328 0
M  V30 6339 H 592.226 0.564792 -4.99819 0
M  V30 6340 H 591.926 -1.00267 -5.78982 0
M  V30 6341 H 593.45 -0.12503 -6.10472 0
M  V30 6342 H 594.864 -2.24034 -5.27714 0
M  V30 6343 H 593.261 -3.02582 -5.18232 0
M  V30 6344 H 594.331 -3.05082 -3.76899 0
M  V30 6345 N 595.674 1.31259 -0.872281 0
M  V30 6346 C 596.921 1.96622 -0.484365 0
M  V30 6347 C 597.249 1.68939 0.963841 0
M  V30 6348 O 596.504 0.97974 1.6941 0
M  V30 6349 C 596.803 3.50659 -0.690889 0
M  V30 6350 C 596.469 3.98366 -2.11224 0
M  V30 6351 C 595.131 4.11104 -2.50094 0
M  V30 6352 C 597.483 4.23425 -3.0391 0
M  V30 6353 C 594.811 4.46254 -3.80887 0
M  V30 6354 C 597.163 4.60039 -4.3422 0
M  V30 6355 C 595.827 4.70984 -4.73001 0
M  V30 6356 H 595.097 0.71949 -0.177242 0
M  V30 6357 H 597.744 1.56353 -1.10571 0
M  V30 6358 H 596.049 3.91798 0.0135782 0
M  V30 6359 H 597.746 3.99284 -0.370534 0
M  V30 6360 H 594.336 3.88949 -1.80047 0
M  V30 6361 H 598.52 4.13075 -2.75104 0
M  V30 6362 H 593.776 4.52926 -4.10692 0
M  V30 6363 H 597.95 4.78381 -5.06088 0
M  V30 6364 H 595.577 4.97977 -5.7439 0
M  V30 6365 N 597.152 0.631951 1.44375 0
M  V30 6366 C 598.38 0.143867 2.06399 0
M  V30 6367 C 598.795 -1.18188 1.47231 0
M  V30 6368 O 598.152 -1.72511 0.595498 0
M  V30 6369 C 598.203 0.0238253 3.61492 0
M  V30 6370 O 597.924 1.29715 4.18456 0
M  V30 6371 C 599.425 -0.492856 4.40552 0
M  V30 6372 H 596.645 0.0800542 0.666207 0
M  V30 6373 H 599.189 0.866586 1.85231 0
M  V30 6374 H 597.344 -0.649338 3.81919 0
M  V30 6375 H 597.758 1.14252 5.11905 0
M  V30 6376 H 599.232 -0.525861 5.49489 0
M  V30 6377 H 599.709 -1.52006 4.12057 0
M  V30 6378 H 600.315 0.147085 4.25046 0
M  V30 6379 N 598.631 -1.53133 0.372548 0
M  V30 6380 C 599.877 -2.01654 -0.215277 0
M  V30 6381 C 600.21 -1.25914 -1.47849 0
M  V30 6382 O 599.485 -0.3548 -1.91237 0
M  V30 6383 C 599.768 -3.56609 -0.500187 0
M  V30 6384 C 599.621 -4.43036 0.777145 0
M  V30 6385 C 600.94 -4.20528 -1.29786 0
M  V30 6386 H 598.059 -0.732991 -0.0767686 0
M  V30 6387 H 600.701 -1.83335 0.498814 0
M  V30 6388 H 598.851 -3.7235 -1.10852 0
M  V30 6389 H 600.523 -4.39079 1.41447 0
M  V30 6390 H 598.766 -4.10723 1.39604 0
M  V30 6391 H 599.437 -5.49424 0.532662 0
M  V30 6392 H 601.913 -4.08663 -0.783198 0
M  V30 6393 H 600.789 -5.28962 -1.46596 0
M  V30 6394 H 601.05 -3.77051 -2.30836 0
M  V30 6395 N 600.109 -0.101901 -1.5727 0
M  V30 6396 C 601.334 0.571759 -1.99363 0
M  V30 6397 C 601.759 1.60507 -0.980768 0
M  V30 6398 O 601.117 1.81231 0.0498517 0
M  V30 6399 C 601.165 1.18996 -3.404 0
M  V30 6400 O 600.269 2.30572 -3.41922 0
M  V30 6401 H 599.61 0.144449 -0.648098 0
M  V30 6402 H 602.14 -0.185325 -2.03759 0
M  V30 6403 H 602.15 1.52962 -3.78241 0
M  V30 6404 H 600.825 0.432984 -4.1364 0
M  V30 6405 H 599.402 1.98173 -3.15883 0
M  V30 6406 N 601.587 1.56661 0.17182 0
M  V30 6407 C 602.835 1.81606 0.886774 0
M  V30 6408 C 603.156 0.678818 1.82803 0
M  V30 6409 O 602.426 -0.301354 1.93568 0
M  V30 6410 H 601.006 0.669934 0.330451 0
M  V30 6411 H 603.668 1.94142 0.171757 0
M  V30 6412 H 602.764 2.75634 1.46398 0
M  V30 6413 N 603.065 -0.440357 1.51323 0
M  V30 6414 C 604.311 -1.19181 1.64085 0
M  V30 6415 C 604.644 -1.90936 0.354575 0
M  V30 6416 O 603.919 -1.8347 -0.645675 0
M  V30 6417 C 604.202 -2.2112 2.84215 0
M  V30 6418 C 604.055 -1.53468 4.22809 0
M  V30 6419 C 605.374 -3.22133 2.99864 0
M  V30 6420 H 602.493 -0.431924 0.597169 0
M  V30 6421 H 605.135 -0.481443 1.83799 0
M  V30 6422 H 603.285 -2.81703 2.67537 0
M  V30 6423 H 604.957 -0.962455 4.51148 0
M  V30 6424 H 603.2 -0.837086 4.25647 0
M  V30 6425 H 603.871 -2.27694 5.02852 0
M  V30 6426 H 606.347 -2.71601 3.15233 0
M  V30 6427 H 605.223 -3.90756 3.85488 0
M  V30 6428 H 605.484 -3.88061 2.11804 0
M  V30 6429 N 604.543 -1.41418 -0.695603 0
M  V30 6430 C 605.959 -1.23887 -1.00619 0
M  V30 6431 C 606.159 -0.128206 -2.01092 0
M  V30 6432 O 605.215 0.507408 -2.47349 0
M  V30 6433 C 606.528 -2.58816 -1.53083 0
M  V30 6434 C 608.076 -2.65998 -1.64967 0
M  V30 6435 C 608.551 -4.01244 -2.20833 0
M  V30 6436 N 610.042 -4.0309 -2.28194 0
M  V30 6437 C 610.777 -5.04539 -2.72448 0
M  V30 6438 N 610.273 -6.16378 -3.16306 0
M  V30 6439 N 612.066 -4.91901 -2.72011 0
M  V30 6440 H 604.217 -2.12379 -0.0300061 0
M  V30 6441 H 606.48 -0.944958 -0.0758797 0
M  V30 6442 H 606.186 -3.40842 -0.867147 0
M  V30 6443 H 606.06 -2.81299 -2.51298 0
M  V30 6444 H 608.447 -1.84331 -2.30448 0
M  V30 6445 H 608.528 -2.47325 -0.652982 0
M  V30 6446 H 608.172 -4.83359 -1.55968 0
M  V30 6447 H 608.102 -4.17257 -3.21254 0
M  V30 6448 H 610.593 -3.22341 -1.97242 0
M  V30 6449 H 610.906 -6.89658 -3.487 0
M  V30 6450 H 609.251 -6.19914 -3.14215 0
M  V30 6451 H 612.442 -4.03613 -2.37095 0
M  V30 6452 H 612.615 -5.71102 -3.06181 0
M  V30 6453 N 606.021 0.929856 -1.27246 0
M  V30 6454 C 606.951 2.04722 -1.12299 0
M  V30 6455 C 607.932 1.70082 -0.0250464 0
M  V30 6456 O 609.117 1.93176 -0.199141 0
M  V30 6457 C 606.247 3.38721 -0.767145 0
M  V30 6458 C 605.201 3.87466 -1.81808 0
M  V30 6459 C 604.527 5.18246 -1.31626 0
M  V30 6460 C 605.827 4.11095 -3.22177 0
M  V30 6461 H 607.521 2.17485 -2.05769 0
M  V30 6462 H 605.067 1.04503 -0.990715 0
M  V30 6463 H 607.02 4.16366 -0.649413 0
M  V30 6464 H 605.744 3.25967 0.203259 0
M  V30 6465 H 604.403 3.12012 -1.92468 0
M  V30 6466 H 604.051 5.01881 -0.335378 0
M  V30 6467 H 603.751 5.51829 -2.01887 0
M  V30 6468 H 605.275 5.98462 -1.21143 0
M  V30 6469 H 606.689 4.79316 -3.1453 0
M  V30 6470 H 605.086 4.55982 -3.90129 0
M  V30 6471 H 606.156 3.16468 -3.67391 0
M  V30 6472 N 607.499 1.09233 1.13605 0
M  V30 6473 C 608.446 0.729921 2.18954 0
M  V30 6474 C 609.416 -0.287916 1.63586 0
M  V30 6475 O 610.601 -0.170003 1.90041 0
M  V30 6476 C 607.741 0.154489 3.44754 0
M  V30 6477 C 606.854 1.22613 4.14234 0
M  V30 6478 C 605.989 0.613657 5.27644 0
M  V30 6479 C 605.028 1.66674 5.8897 0
M  V30 6480 N 604.165 1.07545 6.93814 0
M  V30 6481 H 609.005 1.63257 2.49302 0
M  V30 6482 H 606.542 0.815693 1.22413 0
M  V30 6483 H 608.5 -0.196923 4.16735 0
M  V30 6484 H 607.13 -0.711433 3.14863 0
M  V30 6485 H 606.182 1.69485 3.40557 0
M  V30 6486 H 607.494 2.0238 4.55899 0
M  V30 6487 H 606.648 0.210976 6.06333 0
M  V30 6488 H 605.387 -0.215584 4.87223 0
M  V30 6489 H 604.392 2.07899 5.08978 0
M  V30 6490 H 605.617 2.49861 6.31464 0
M  V30 6491 H 603.563 0.267451 6.55455 0
M  V30 6492 H 603.48 1.81011 7.3401 0
M  V30 6493 H 604.748 0.698906 7.7636 0
M  V30 6494 N 608.977 -1.30795 0.87923 0
M  V30 6495 C 610.388 -1.78535 0.546093 0
M  V30 6496 C 610.739 -1.72354 -0.937467 0
M  V30 6497 O 609.864 -1.2969 -1.73233 0
M  V30 6498 C 610.459 -3.24181 0.9845 0
M  V30 6499 C 609.018 -3.69779 0.702871 0
M  V30 6500 C 608.165 -2.51377 1.17068 0
M  V30 6501 H 611.116 -1.17746 1.06403 0
M  V30 6502 H 611.137 -3.79227 0.311045 0
M  V30 6503 H 610.649 -3.28647 2.06429 0
M  V30 6504 H 608.75 -3.70806 -0.365166 0
M  V30 6505 H 608.863 -4.61507 1.28639 0
M  V30 6506 H 607.227 -2.47768 0.590172 0
M  V30 6507 H 608.01 -2.58584 2.25808 0
M  V30 6508 N 610.455 -0.639598 -1.44038 0
M  V30 6509 C 611.365 0.0612377 -2.3452 0
M  V30 6510 C 612.381 0.826717 -1.53106 0
M  V30 6511 O 613.557 0.777059 -1.85806 0
M  V30 6512 C 610.622 1.02492 -3.31204 0
M  V30 6513 C 609.683 0.25788 -4.28525 0
M  V30 6514 C 608.916 1.17566 -5.2059 0
M  V30 6515 O 609.139 2.41461 -5.16771 0
M  V30 6516 O 608.073 0.655407 -5.98321 0
M  V30 6517 H 611.899 -0.68318 -2.95916 0
M  V30 6518 H 609.484 -0.399784 -1.43952 0
M  V30 6519 H 611.366 1.57911 -3.90694 0
M  V30 6520 H 610.041 1.7498 -2.7233 0
M  V30 6521 H 608.948 -0.339566 -3.72556 0
M  V30 6522 H 610.281 -0.427154 -4.90343 0
M  V30 6523 N 611.933 1.52934 -0.380664 0
M  V30 6524 C 612.866 2.22597 0.502564 0
M  V30 6525 C 613.844 1.22345 1.071 0
M  V30 6526 O 615.028 1.51302 1.12428 0
M  V30 6527 C 612.155 2.93246 1.69482 0
M  V30 6528 C 611.201 4.07696 1.25244 0
M  V30 6529 S 612.034 5.34957 0.241159 0
M  V30 6530 C 613.19 6.09124 1.4394 0
M  V30 6531 H 613.423 2.97167 -0.089029 0
M  V30 6532 H 610.956 1.53518 -0.164817 0
M  V30 6533 H 612.914 3.34562 2.37863 0
M  V30 6534 H 611.575 2.18373 2.2577 0
M  V30 6535 H 610.768 4.56199 2.1424 0
M  V30 6536 H 610.37 3.68349 0.647664 0
M  V30 6537 H 612.662 6.34771 2.36794 0
M  V30 6538 H 613.605 7.01068 0.995464 0
M  V30 6539 H 614.013 5.39777 1.65229 0
M  V30 6540 N 613.412 0.11024 1.57214 0
M  V30 6541 C 614.652 -0.553061 1.96775 0
M  V30 6542 C 615.016 -1.64403 0.991753 0
M  V30 6543 O 616.217 -2.36561 1.27642 0
M  V30 6544 C 614.488 -1.08004 3.4069 0
M  V30 6545 S 616.047 -1.75309 4.02259 0
M  V30 6546 H 612.865 -0.18003 0.68783 0
M  V30 6547 H 615.467 0.193242 1.94543 0
M  V30 6548 H 614.171 -0.274735 4.09479 0
M  V30 6549 H 613.702 -1.86182 3.46554 0
M  V30 6550 H 615.717 -3.03834 3.923 0
M  V30 6551 N 614.89 -1.56749 -0.16351 0
M  V30 6552 C 616.167 -1.73321 -0.906599 0
M  V30 6553 C 616.547 -0.673779 -2.00059 0
M  V30 6554 O 615.895 0.310121 -2.26386 0
M  V30 6555 C 616.105 -3.168 -1.46419 0
M  V30 6556 C 617.453 -3.77993 -1.93407 0
M  V30 6557 O 618.477 -3.20127 -1.56196 0
M  V30 6558 O 617.336 -4.79615 -2.61976 0
M  V30 6559 H 614.43 -0.708073 -0.427272 0
M  V30 6560 H 616.976 -1.69029 -0.150727 0
M  V30 6561 H 615.748 -3.85396 -0.677189 0
M  V30 6562 H 615.371 -3.2545 -2.28403 0
M  V30 6563 N 616.368 0.432326 -1.51554 0
M  V30 6564 C 617.298 1.53242 -1.76179 0
M  V30 6565 C 618.279 1.58717 -0.611801 0
M  V30 6566 O 619.464 1.74364 -0.855033 0
M  V30 6567 C 616.594 2.91278 -1.89141 0
M  V30 6568 C 615.548 3.00663 -3.04608 0
M  V30 6569 C 614.874 4.40728 -3.02759 0
M  V30 6570 C 616.174 2.74281 -4.44485 0
M  V30 6571 H 617.868 1.32886 -2.68294 0
M  V30 6572 H 615.414 0.637841 -1.29103 0
M  V30 6573 H 617.367 3.68203 -2.04951 0
M  V30 6574 H 616.091 3.12877 -0.936785 0
M  V30 6575 H 614.75 2.26179 -2.88511 0
M  V30 6576 H 614.398 4.59301 -2.05065 0
M  V30 6577 H 614.098 4.47936 -3.80299 0
M  V30 6578 H 615.622 5.19619 -3.20669 0
M  V30 6579 H 617.036 3.40936 -4.60907 0
M  V30 6580 H 615.433 2.92893 -5.23769 0
M  V30 6581 H 616.503 1.69856 -4.54177 0
M  V30 6582 N 617.846 1.41785 0.688094 0
M  V30 6583 C 618.776 1.47 1.8142 0
M  V30 6584 C 619.757 0.327881 1.6691 0
M  V30 6585 O 620.942 0.540362 1.86531 0
M  V30 6586 C 618.072 1.35876 3.19617 0
M  V30 6587 C 617.026 2.47976 3.48844 0
M  V30 6588 C 616.352 2.21915 4.86475 0
M  V30 6589 C 617.652 3.90309 3.47068 0
M  V30 6590 H 619.346 2.41247 1.77314 0
M  V30 6591 H 616.892 1.16116 0.851651 0
M  V30 6592 H 618.845 1.38134 3.98117 0
M  V30 6593 H 617.569 0.38116 3.24368 0
M  V30 6594 H 616.228 2.45013 2.72698 0
M  V30 6595 H 615.876 1.2248 4.8786 0
M  V30 6596 H 615.576 2.97037 5.06994 0
M  V30 6597 H 617.1 2.25901 5.67275 0
M  V30 6598 H 618.514 3.94947 4.1556 0
M  V30 6599 H 616.911 4.65175 3.7912 0
M  V30 6600 H 617.981 4.17927 2.45896 0
M  V30 6601 N 619.324 -0.923095 1.27737 0
M  V30 6602 C 620.287 -2.00587 1.10894 0
M  V30 6603 C 621.287 -1.60718 0.0514927 0
M  V30 6604 O 622.477 -1.71658 0.296481 0
M  V30 6605 C 619.609 -3.33829 0.690717 0
M  V30 6606 H 620.802 -2.16959 2.07048 0
M  V30 6607 H 618.355 -1.10451 1.1059 0
M  V30 6608 H 619.09 -3.23157 -0.272 0
M  V30 6609 H 618.875 -3.64125 1.45448 0
M  V30 6610 H 620.365 -4.13336 0.595252 0
M  V30 6611 N 620.802 -1.09834 -1.13024 0
M  V30 6612 C 622.027 -0.85909 -1.88771 0
M  V30 6613 C 622.452 0.584402 -1.78791 0
M  V30 6614 O 621.81 1.41101 -1.13842 0
M  V30 6615 C 621.858 -1.30427 -3.36186 0
M  V30 6616 O 620.962 -0.465368 -4.09766 0
M  V30 6617 H 620.303 -0.310786 -0.586778 0
M  V30 6618 H 622.833 -1.46355 -1.42973 0
M  V30 6619 H 622.843 -1.2915 -3.8702 0
M  V30 6620 H 621.518 -2.3555 -3.42767 0
M  V30 6621 H 620.095 -0.542814 -3.68928 0
M  V30 6622 N 622.28 1.30327 -0.886154 0
M  V30 6623 C 623.51 1.99964 -0.519421 0
M  V30 6624 C 623.918 1.66593 0.89686 0
M  V30 6625 O 623.261 0.899886 1.60149 0
M  V30 6626 C 623.323 3.54187 -0.615795 0
M  V30 6627 C 622.987 4.11078 -1.9966 0
M  V30 6628 C 623.984 4.26985 -2.96614 0
M  V30 6629 C 621.669 4.46429 -2.30231 0
M  V30 6630 C 623.663 4.77456 -4.22273 0
M  V30 6631 C 621.35 4.966 -3.56135 0
M  V30 6632 C 622.348 5.12066 -4.5197 0
M  V30 6633 O 622.036 5.61154 -5.7564 0
M  V30 6634 H 621.768 0.645979 -0.199217 0
M  V30 6635 H 624.322 1.67154 -1.19368 0
M  V30 6636 H 622.552 3.86528 0.115448 0
M  V30 6637 H 624.241 4.05065 -0.26017 0
M  V30 6638 H 625.007 3.99975 -2.74308 0
M  V30 6639 H 620.886 4.33658 -1.56404 0
M  V30 6640 H 624.43 4.89444 -4.97082 0
M  V30 6641 H 620.327 5.23045 -3.78277 0
M  V30 6642 H 621.095 5.79494 -5.78039 0
M  V30 6643 N 623.758 0.647228 1.43697 0
M  V30 6644 C 624.69 -0.0866232 2.29036 0
M  V30 6645 C 625.703 -0.793051 1.42178 0
M  V30 6646 O 626.892 -0.651807 1.66174 0
M  V30 6647 C 623.992 -1.14552 3.18953 0
M  V30 6648 C 623.165 -0.518422 4.34317 0
M  V30 6649 C 622.224 -1.4734 5.05151 0
M  V30 6650 O 621.25 -0.984312 5.60625 0
M  V30 6651 N 622.452 -2.8075 5.08094 0
M  V30 6652 H 625.217 0.645834 2.92659 0
M  V30 6653 H 622.778 0.489567 1.54321 0
M  V30 6654 H 624.77 -1.78505 3.63205 0
M  V30 6655 H 623.34 -1.78001 2.56971 0
M  V30 6656 H 622.56 0.300079 3.93056 0
M  V30 6657 H 623.848 -0.080401 5.08736 0
M  V30 6658 H 623.246 -3.23052 4.64386 0
M  V30 6659 H 621.803 -3.40022 5.56083 0
M  V30 6660 N 625.236 -1.5273 0.388769 0
M  V30 6661 C 626.183 -2.26437 -0.446639 0
M  V30 6662 C 627.153 -1.28025 -1.05824 0
M  V30 6663 O 628.338 -1.56852 -1.08637 0
M  V30 6664 C 625.478 -3.07407 -1.56828 0
M  V30 6665 C 624.591 -4.20747 -0.979589 0
M  V30 6666 C 623.726 -4.89113 -2.07224 0
M  V30 6667 C 622.765 -5.94447 -1.45942 0
M  V30 6668 N 621.902 -6.56411 -2.49135 0
M  V30 6669 H 626.742 -2.97404 0.18837 0
M  V30 6670 H 624.279 -1.46727 0.104725 0
M  V30 6671 H 626.237 -3.52642 -2.22934 0
M  V30 6672 H 624.867 -2.3865 -2.17361 0
M  V30 6673 H 623.919 -3.7983 -0.208151 0
M  V30 6674 H 625.231 -4.9637 -0.491747 0
M  V30 6675 H 624.385 -5.3765 -2.81101 0
M  V30 6676 H 623.124 -4.13013 -2.59368 0
M  V30 6677 H 622.129 -5.4525 -0.705894 0
M  V30 6678 H 623.354 -6.7248 -0.945932 0
M  V30 6679 H 621.3 -5.83152 -3.00449 0
M  V30 6680 H 621.217 -7.27645 -2.05105 0
M  V30 6681 H 622.485 -7.09592 -3.22644 0
M  V30 6682 N 626.714 -0.118576 -1.57153 0
M  V30 6683 C 627.962 0.538461 -1.94795 0
M  V30 6684 C 628.283 1.67243 -1.00274 0
M  V30 6685 O 627.553 1.95811 -0.0589692 0
M  V30 6686 H 626.133 0.201904 -0.719197 0
M  V30 6687 H 628.795 -0.187418 -1.93997 0
M  V30 6688 H 627.891 0.933315 -2.97818 0
M  V30 6689 N 628.193 1.56834 0.155195 0
M  V30 6690 C 629.143 1.94061 1.19684 0
M  V30 6691 C 630.127 0.810851 1.38975 0
M  V30 6692 O 631.319 1.07422 1.40675 0
M  V30 6693 C 628.448 2.31778 2.53247 0
M  V30 6694 C 627.534 3.51305 2.37583 0
M  V30 6695 N 627.925 4.68081 1.9166 0
M  V30 6696 C 626.223 3.56228 2.6836 0
M  V30 6697 C 626.924 5.50193 1.88845 0
M  V30 6698 N 625.9 4.91676 2.31852 0
M  V30 6699 H 629.702 2.81826 0.833747 0
M  V30 6700 H 627.216 1.58284 0.363328 0
M  V30 6701 H 629.213 2.56649 3.28538 0
M  V30 6702 H 627.873 1.4536 2.90346 0
M  V30 6703 H 628.884 4.91993 1.6175 0
M  V30 6704 H 625.561 2.8033 3.09389 0
M  V30 6705 H 626.951 6.53801 1.54901 0
M  V30 6706 N 629.671 -0.424282 1.51781 0
M  V30 6707 C 630.621 -1.51464 1.70419 0
M  V30 6708 C 631.605 -1.50911 0.558094 0
M  V30 6709 O 632.797 -1.57143 0.814552 0
M  V30 6710 C 629.926 -2.89539 1.84451 0
M  V30 6711 C 629.012 -2.94798 3.04886 0
M  V30 6712 N 629.403 -2.69778 4.27848 0
M  V30 6713 C 627.701 -3.25962 3.04408 0
M  V30 6714 C 628.402 -2.81216 5.09208 0
M  V30 6715 N 627.378 -3.13447 4.44131 0
M  V30 6716 H 631.18 -1.30892 2.63144 0
M  V30 6717 H 628.694 -0.631783 1.49607 0
M  V30 6718 H 630.691 -3.67998 1.95917 0
M  V30 6719 H 629.351 -3.11121 0.929168 0
M  V30 6720 H 630.362 -2.44458 4.56575 0
M  V30 6721 H 627.039 -3.53236 2.22555 0
M  V30 6722 H 628.429 -2.65715 6.17127 0
M  V30 6723 N 631.149 -1.42148 -0.680565 0
M  V30 6724 C 632.56 -1.3768 -1.26099 0
M  V30 6725 C 632.911 -0.0672348 -1.96085 0
M  V30 6726 O 632.036 0.834172 -1.99676 0
M  V30 6727 C 632.631 -2.49387 -2.29328 0
M  V30 6728 C 631.19 -2.4827 -2.82911 0
M  V30 6729 C 630.337 -2.2847 -1.57152 0
M  V30 6730 H 633.288 -1.51446 -0.474326 0
M  V30 6731 H 633.309 -2.19307 -3.10941 0
M  V30 6732 H 632.821 -3.44686 -1.78363 0
M  V30 6733 H 630.922 -1.56773 -3.38013 0
M  V30 6734 H 631.035 -3.45109 -3.3232 0
M  V30 6735 H 629.399 -1.76623 -1.83511 0
M  V30 6736 H 630.182 -3.25816 -1.0816 0
M  V30 6737 N 632.627 0.916307 -1.28225 0
M  V30 6738 C 633.59 1.99996 -1.11957 0
M  V30 6739 C 634.59 1.60688 -0.0600152 0
M  V30 6740 O 635.78 1.71499 -0.30558 0
M  V30 6741 C 632.912 3.33458 -0.708411 0
M  V30 6742 H 634.105 2.15858 -2.08196 0
M  V30 6743 H 631.658 1.09863 -1.11175 0
M  V30 6744 H 632.393 3.23297 0.254859 0
M  V30 6745 H 632.178 3.63349 -1.47377 0
M  V30 6746 H 633.668 4.13014 -0.617164 0
M  V30 6747 N 634.105 1.10431 1.1244 0
M  V30 6748 C 635.037 0.710945 2.17895 0
M  V30 6749 C 636.05 -0.252315 1.60833 0
M  V30 6750 O 637.239 -0.03679 1.78462 0
M  V30 6751 C 634.339 0.0284262 3.38888 0
M  V30 6752 C 633.512 1.01585 4.2544 0
M  V30 6753 C 632.571 0.364826 5.24934 0
M  V30 6754 O 631.597 1.01561 5.60066 0
M  V30 6755 N 632.799 -0.87674 5.73841 0
M  V30 6756 H 635.564 1.61826 2.52255 0
M  V30 6757 H 633.125 0.993132 1.27861 0
M  V30 6758 H 635.117 -0.418568 4.0253 0
M  V30 6759 H 633.687 -0.781294 3.02679 0
M  V30 6760 H 632.907 1.64111 3.58415 0
M  V30 6761 H 634.195 1.68425 4.80115 0
M  V30 6762 H 633.593 -1.42483 5.47462 0
M  V30 6763 H 632.15 -1.26688 6.39369 0
M  V30 6764 N 635.583 -1.29855 0.893053 0
M  V30 6765 C 636.83 -1.95826 0.515585 0
M  V30 6766 C 637.158 -1.70451 -0.936842 0
M  V30 6767 O 636.413 -1.00657 -1.67829 0
M  V30 6768 C 636.712 -3.49515 0.746588 0
M  V30 6769 C 636.378 -3.94955 2.17535 0
M  V30 6770 C 635.04 -4.07073 2.56603 0
M  V30 6771 C 637.392 -4.18536 3.10607 0
M  V30 6772 C 634.72 -4.40138 3.87938 0
M  V30 6773 C 637.072 -4.53073 4.41484 0
M  V30 6774 C 635.736 -4.634 4.80434 0
M  V30 6775 H 635.006 -0.71658 0.188666 0
M  V30 6776 H 637.653 -1.54574 1.13045 0
M  V30 6777 H 635.958 -3.9177 0.0487551 0
M  V30 6778 H 637.655 -3.98644 0.434009 0
M  V30 6779 H 634.245 -3.86035 1.86212 0
M  V30 6780 H 638.429 -4.08646 2.81641 0
M  V30 6781 H 633.685 -4.46335 4.17846 0
M  V30 6782 H 637.859 -4.70269 5.13634 0
M  V30 6783 H 635.486 -4.88775 5.82239 0
M  V30 6784 N 637.061 -0.65484 -1.43351 0
M  V30 6785 C 638.286 -0.175046 -2.0666 0
M  V30 6786 C 638.711 1.15104 -1.4877 0
M  V30 6787 O 638.069 1.71144 -0.598279 0
M  V30 6788 C 638.117 -0.0991544 -3.60464 0
M  V30 6789 O 637.221 0.938169 -4.01587 0
M  V30 6790 H 636.562 -0.0956148 -0.65708 0
M  V30 6791 H 639.092 -0.898222 -1.83829 0
M  V30 6792 H 639.102 0.083632 -4.07914 0
M  V30 6793 H 637.777 -1.06719 -4.01975 0
M  V30 6794 H 636.354 0.72804 -3.65724 0
M  V30 6795 N 638.539 1.52521 -0.396863 0
M  V30 6796 C 639.486 2.26671 0.434624 0
M  V30 6797 C 640.456 1.28584 1.05144 0
M  V30 6798 O 641.641 1.57426 1.07804 0
M  V30 6799 C 638.781 3.08234 1.55196 0
M  V30 6800 C 637.894 4.21261 0.957262 0
M  V30 6801 C 637.029 4.90205 2.04627 0
M  V30 6802 C 636.068 5.95213 1.42787 0
M  V30 6803 N 635.205 6.57723 2.45651 0
M  V30 6804 H 640.045 2.973 -0.204139 0
M  V30 6805 H 637.582 1.46669 -0.112505 0
M  V30 6806 H 639.54 3.53819 2.2106 0
M  V30 6807 H 638.17 2.398 2.16092 0
M  V30 6808 H 637.222 3.79935 0.188005 0
M  V30 6809 H 638.534 4.96624 0.465416 0
M  V30 6810 H 637.688 5.39133 2.78246 0
M  V30 6811 H 636.427 4.14383 2.57174 0
M  V30 6812 H 635.432 5.45616 0.676968 0
M  V30 6813 H 636.657 6.72972 0.910255 0
M  V30 6814 H 634.603 5.84737 2.97353 0
M  V30 6815 H 634.52 7.28723 2.01243 0
M  V30 6816 H 635.788 7.11293 3.18876 0
M  V30 6817 N 640.017 0.126909 1.57088 0
M  V30 6818 C 641.257 -0.53216 1.97351 0
M  V30 6819 C 641.621 -1.63342 1.00913 0
M  V30 6820 O 642.822 -2.35194 1.30144 0
M  V30 6821 C 641.093 -1.04385 3.41817 0
M  V30 6822 S 642.652 -1.71033 4.04095 0
M  V30 6823 H 639.47 -0.172724 0.689701 0
M  V30 6824 H 642.072 0.213865 1.94327 0
M  V30 6825 H 640.776 -0.231289 4.09748 0
M  V30 6826 H 640.307 -1.82496 3.48509 0
M  V30 6827 H 642.322 -2.99656 3.95501 0
M  V30 6828 N 641.495 -1.56914 -0.146875 0
M  V30 6829 C 642.741 -1.84515 -0.855914 0
M  V30 6830 C 643.096 -0.710909 -1.78784 0
M  V30 6831 O 642.389 0.291123 -1.89375 0
M  V30 6832 C 642.583 -3.16128 -1.66727 0
M  V30 6833 C 642.412 -4.42246 -0.815405 0
M  V30 6834 C 641.182 -5.03006 -0.480976 0
M  V30 6835 C 643.38 -5.14094 -0.145684 0
M  V30 6836 N 641.362 -6.12695 0.384476 0
M  V30 6837 C 642.733 -6.17282 0.579902 0
M  V30 6838 C 644.788 -4.97856 -0.0663705 0
M  V30 6839 C 643.491 -7.0599 1.37731 0
M  V30 6840 C 645.517 -5.87028 0.71778 0
M  V30 6841 C 644.879 -6.89698 1.43165 0
M  V30 6842 H 640.978 -0.725829 -0.291026 0
M  V30 6843 H 643.562 -1.94322 -0.121279 0
M  V30 6844 H 641.733 -3.07468 -2.37315 0
M  V30 6845 H 643.465 -3.31635 -2.31949 0
M  V30 6846 H 640.22 -4.66504 -0.816789 0
M  V30 6847 H 640.644 -6.72158 0.80823 0
M  V30 6848 H 645.286 -4.18465 -0.603929 0
M  V30 6849 H 643.004 -7.84809 1.92613 0
M  V30 6850 H 646.59 -5.76532 0.781141 0
M  V30 6851 H 645.47 -7.57505 2.02868 0
M  V30 6852 O 643.012 0.29157 -1.58846 0
M  V30 6853 H 643.703 0.93804 -1.69471 0
M  V30 END ATOM
M  V30 BEGIN BOND
M  V30 END BOND
M  V30 END CTAB
M  END
$$$$
