drugbank_target|P26572 Alpha-1,3-mannosyl-glycoprotein 2-beta-N-acetylglucosaminyltransferase (DB03397)
 OpenBabel12092120543D

  0  0  0     0  0            999 V3000
M  V30 BEGIN CTAB
M  V30 COUNTS 7177 7283 0 0 0
M  V30 BEGIN ATOM
M  V30 1 H -0.908 1.98254 -0.117106 0
M  V30 2 N 0 1.576 0 0
M  V30 3 C 0.933 2.03868 1.02534 0
M  V30 4 C 1.911 0.928543 1.3348 0
M  V30 5 O 3.095 1.19667 1.45644 0
M  V30 6 C 0.222 2.43627 2.35294 0
M  V30 7 C -0.732 3.65373 2.2001 0
M  V30 8 S 0.101 5.13292 1.52614 0
M  V30 9 C 1.257 5.56322 2.86805 0
M  V30 10 H 1.49 2.90518 0.631377 0
M  V30 11 H -0.977 1.52953 0.210867 0
M  V30 12 H 0.981 2.67203 3.11629 0
M  V30 13 H -0.358 1.57376 2.7183 0
M  V30 14 H -1.165 3.90944 3.18086 0
M  V30 15 H -1.563 3.418 1.51819 0
M  V30 16 H 0.729 5.58782 3.83104 0
M  V30 17 H 1.672 6.56266 2.65933 0
M  V30 18 H 2.08 4.83886 2.90714 0
M  V30 19 N 1.4781 -0.272755 1.55222 0
M  V30 20 C 2.4081 -1.34136 1.91127 0
M  V30 21 C 3.3891 -1.51513 0.773168 0
M  V30 22 O 4.5741 -1.64552 1.03132 0
M  V30 23 C 1.7041 -2.70083 2.1834 0
M  V30 24 C 0.6581 -2.67437 3.34158 0
M  V30 25 C -0.0159 -4.06938 3.46851 0
M  V30 26 C 1.2841 -2.26686 4.70543 0
M  V30 27 H 2.9781 -1.04333 2.80633 0
M  V30 28 H 0.5241 -0.500454 1.35024 0
M  V30 29 H 2.4771 -3.44952 2.42046 0
M  V30 30 H 1.2011 -3.01469 1.25634 0
M  V30 31 H -0.1399 -1.95026 3.1042 0
M  V30 32 H -0.4919 -4.35547 2.51611 0
M  V30 33 H -0.7919 -4.06062 4.2472 0
M  V30 34 H 0.7321 -4.83545 3.72849 0
M  V30 35 H 2.1461 -2.91277 4.93792 0
M  V30 36 H 0.5431 -2.36971 5.5133 0
M  V30 37 H 1.6131 -1.21818 4.69349 0
M  V30 38 N 2.9562 -1.48159 -0.537278 0
M  V30 39 C 3.9032 -1.62138 -1.64256 0
M  V30 40 C 4.8732 -0.463668 -1.59497 0
M  V30 41 O 6.0582 -0.686241 -1.78032 0
M  V30 42 C 3.1982 -1.66028 -3.02537 0
M  V30 43 C 2.3112 -2.92855 -3.17585 0
M  V30 44 C 1.4462 -2.87952 -4.46382 0
M  V30 45 C 0.4852 -4.09516 -4.54932 0
M  V30 46 N -0.3778 -4.02733 -5.75109 0
M  V30 47 H 4.4622 -2.56529 -1.51647 0
M  V30 48 H 1.9992 -1.27224 -0.738414 0
M  V30 49 H 3.9572 -1.66265 -3.82638 0
M  V30 50 H 2.5872 -0.751331 -3.13934 0
M  V30 51 H 1.6392 -3.02395 -2.30784 0
M  V30 52 H 2.9512 -3.82822 -3.19764 0
M  V30 53 H 2.1052 -2.8655 -5.34765 0
M  V30 54 H 0.8442 -1.95702 -4.46712 0
M  V30 55 H -0.1508 -4.11201 -3.64957 0
M  V30 56 H 1.0742 -5.02917 -4.56346 0
M  V30 57 H -0.9798 -3.13299 -5.76351 0
M  V30 58 H -1.0628 -4.86397 -5.78752 0
M  V30 59 H 0.2052 -4.05379 -6.65799 0
M  V30 60 N 4.4343 0.785586 -1.36625 0
M  V30 61 C 5.3813 1.89838 -1.31264 0
M  V30 62 C 6.3513 1.65115 -0.180633 0
M  V30 63 O 7.5363 1.87222 -0.36777 0
M  V30 64 C 4.6763 3.26706 -1.11163 0
M  V30 65 C 3.7893 3.63476 -2.33472 0
M  V30 66 C 2.9243 4.89481 -2.06353 0
M  V30 67 C 1.9633 5.18941 -3.24602 0
M  V30 68 N 1.1003 6.36131 -2.97123 0
M  V30 69 H 5.9403 1.93756 -2.26413 0
M  V30 70 H 3.4773 0.947454 -1.12524 0
M  V30 71 H 5.4353 4.05639 -0.975337 0
M  V30 72 H 4.0653 3.222 -0.196674 0
M  V30 73 H 3.1173 2.79636 -2.57891 0
M  V30 74 H 4.4293 3.81193 -3.21704 0
M  V30 75 H 3.5833 5.76288 -1.89675 0
M  V30 76 H 2.3223 4.73841 -1.15437 0
M  V30 77 H 1.3273 4.30615 -3.41834 0
M  V30 78 H 2.5523 5.36498 -4.16349 0
M  V30 79 H 0.4983 6.21875 -2.08823 0
M  V30 80 H 0.4153 6.54198 -3.78894 0
M  V30 81 H 1.6833 7.2591 -2.84033 0
M  V30 82 N 5.9124 1.20967 1.01018 0
M  V30 83 C 6.8444 0.922059 2.09835 0
M  V30 84 C 7.8574 -0.0927106 1.62536 0
M  V30 85 O 9.0464 0.139127 1.77957 0
M  V30 86 C 6.1464 0.362004 3.36961 0
M  V30 87 C 5.3194 1.42986 4.13369 0
M  V30 88 C 4.3784 0.879976 5.1879 0
M  V30 89 O 3.4044 1.56219 5.47343 0
M  V30 90 N 4.6064 -0.307396 5.79686 0
M  V30 91 H 7.3714 1.8588 2.35093 0
M  V30 92 H 4.9324 1.11422 1.1746 0
M  V30 93 H 6.9244 -0.0201474 4.04695 0
M  V30 94 H 5.4944 -0.479437 3.08902 0
M  V30 95 H 4.7144 1.98608 3.40512 0
M  V30 96 H 6.0024 2.14885 4.61196 0
M  V30 97 H 5.4004 -0.878796 5.58832 0
M  V30 98 H 3.9574 -0.631115 6.48737 0
M  V30 99 N 7.3905 -1.2043 1.01659 0
M  V30 100 C 8.6155 -1.94318 0.724942 0
M  V30 101 C 9.0405 -1.74266 -0.708034 0
M  V30 102 O 8.3985 -1.03694 -1.48719 0
M  V30 103 C 8.4465 -3.44486 1.06591 0
M  V30 104 O 7.5505 -4.12017 0.177599 0
M  V30 105 H 6.8915 -0.60708 0.26898 0
M  V30 106 H 9.4215 -1.52861 1.35995 0
M  V30 107 H 9.4315 -3.95106 1.01762 0
M  V30 108 H 8.1065 -3.58404 2.10997 0
M  V30 109 H 6.6835 -3.71821 0.283421 0
M  V30 110 N 8.8686 -0.792821 -1.36206 0
M  V30 111 C 9.8316 -0.199459 -2.2833 0
M  V30 112 C 10.8316 0.605189 -1.48977 0
M  V30 113 O 12.0216 0.425685 -1.68919 0
M  V30 114 C 9.1536 0.723523 -3.33134 0
M  V30 115 H 10.3466 -1.01181 -2.82316 0
M  V30 116 H 7.8996 -0.562485 -1.45828 0
M  V30 117 H 8.6346 1.56008 -2.84309 0
M  V30 118 H 8.4196 0.148436 -3.91819 0
M  V30 119 H 9.9096 1.13344 -4.01924 0
M  V30 120 N 10.3467 1.47872 -0.545128 0
M  V30 121 C 11.5947 2.02093 -0.016553 0
M  V30 122 C 11.9157 1.42305 1.3332 0
M  V30 123 O 11.1857 0.593853 1.86682 0
M  V30 124 H 9.7657 0.746993 -0.00313038 0
M  V30 125 H 12.4277 1.81414 -0.712397 0
M  V30 126 H 11.5237 3.11996 0.0805422 0
M  V30 127 N 11.8248 0.280983 1.55075 0
M  V30 128 C 12.7548 -0.597469 2.25727 0
M  V30 129 C 13.7358 -1.15417 1.24952 0
M  V30 130 O 14.9208 -1.18722 1.53684 0
M  V30 131 C 12.0508 -1.7789 2.98283 0
M  V30 132 C 11.0048 -1.35347 4.06036 0
M  V30 133 C 10.3308 -2.61846 4.66198 0
M  V30 134 C 11.6308 -0.499354 5.19907 0
M  V30 135 H 13.3248 -0.00824265 2.99399 0
M  V30 136 H 10.8708 -0.0025244 1.44 0
M  V30 137 H 12.8238 -2.39937 3.46422 0
M  V30 138 H 11.5478 -2.39405 2.22155 0
M  V30 139 H 10.2068 -0.756156 3.58717 0
M  V30 140 H 9.8548 -3.21632 3.86732 0
M  V30 141 H 9.5548 -2.3409 5.38958 0
M  V30 142 H 11.0788 -3.24732 5.1709 0
M  V30 143 H 12.4928 -1.02498 5.64063 0
M  V30 144 H 10.8898 -0.316424 5.99265 0
M  V30 145 H 11.9598 0.480459 4.82514 0
M  V30 146 N 13.3029 -1.57598 0.00835791 0
M  V30 147 C 14.5489 -1.91211 -0.675732 0
M  V30 148 C 14.8819 -0.883139 -1.72958 0
M  V30 149 O 14.1569 0.097016 -1.94258 0
M  V30 150 C 14.4399 -3.35379 -1.31123 0
M  V30 151 C 14.2929 -4.48999 -0.268356 0
M  V30 152 C 15.6119 -3.7912 -2.23508 0
M  V30 153 H 12.7309 -0.695374 -0.244179 0
M  V30 154 H 15.3729 -1.89901 0.0613655 0
M  V30 155 H 13.5229 -3.36626 -1.93946 0
M  V30 156 H 15.1949 -4.59887 0.360844 0
M  V30 157 H 13.4379 -4.31873 0.408482 0
M  V30 158 H 14.1089 -5.46851 -0.752218 0
M  V30 159 H 16.5849 -3.79477 -1.70693 0
M  V30 160 H 15.4609 -4.80729 -2.64936 0
M  V30 161 H 15.7219 -3.13455 -3.11766 0
M  V30 162 N 14.781 0.264519 -1.55364 0
M  V30 163 C 15.711 1.33121 -1.91836 0
M  V30 164 C 16.692 1.51101 -0.781192 0
M  V30 165 O 17.877 1.64003 -1.04003 0
M  V30 166 C 15.007 2.68921 -2.19769 0
M  V30 167 C 13.961 2.65661 -3.35571 0
M  V30 168 C 13.287 4.05093 -3.49004 0
M  V30 169 C 14.587 2.24187 -4.71739 0
M  V30 170 H 16.281 1.02844 -2.81182 0
M  V30 171 H 13.827 0.493286 -1.35287 0
M  V30 172 H 15.78 3.43663 -2.43872 0
M  V30 173 H 14.504 3.00799 -1.27231 0
M  V30 174 H 13.163 1.93377 -3.1145 0
M  V30 175 H 12.811 4.34206 -2.53917 0
M  V30 176 H 12.511 4.03804 -4.26868 0
M  V30 177 H 14.035 4.81561 -3.75408 0
M  V30 178 H 15.449 2.88654 -4.9533 0
M  V30 179 H 13.846 2.34044 -5.52579 0
M  V30 180 H 14.916 1.19327 -4.69988 0
M  V30 181 N 16.2591 1.48442 0.529413 0
M  V30 182 C 17.5051 1.57699 1.28463 0
M  V30 183 C 17.8601 0.247913 1.90796 0
M  V30 184 O 17.1531 -0.749279 1.76342 0
M  V30 185 C 17.3471 2.6523 2.39558 0
M  V30 186 C 17.1761 4.08464 1.88114 0
M  V30 187 C 15.9461 4.75596 1.70693 0
M  V30 188 C 18.1441 4.94613 1.40935 0
M  V30 189 N 16.1261 6.03245 1.13881 0
M  V30 190 C 17.4971 6.12511 0.960734 0
M  V30 191 C 19.5521 4.80833 1.29243 0
M  V30 192 C 18.2551 7.18149 0.406792 0
M  V30 193 C 20.2811 5.86593 0.752487 0
M  V30 194 C 19.6431 7.037 0.313946 0
M  V30 195 H 15.7421 0.631608 0.46108 0
M  V30 196 H 18.3261 1.85325 0.596886 0
M  V30 197 H 16.4971 2.39425 3.05827 0
M  V30 198 H 18.2291 2.64169 3.06589 0
M  V30 199 H 14.9841 4.31938 1.94232 0
M  V30 200 H 15.4081 6.71324 0.874831 0
M  V30 201 H 20.0501 3.90635 1.61754 0
M  V30 202 H 17.7681 8.0807 0.0693671 0
M  V30 203 H 21.3541 5.77985 0.665192 0
M  V30 204 H 20.2341 7.8414 -0.0973632 0
M  V30 205 N 17.7372 -0.778329 1.37039 0
M  V30 206 C 18.9852 -1.53361 1.31623 0
M  V30 207 C 19.3062 -1.94739 -0.100831 0
M  V30 208 O 18.5762 -1.65797 -1.04347 0
M  V30 209 H 17.1562 -0.568794 0.484234 0
M  V30 210 H 19.8182 -0.926742 1.71457 0
M  V30 211 H 18.9142 -2.43606 1.95096 0
M  V30 212 N 19.2153 -1.21501 -1.00376 0
M  V30 213 C 20.1783 -0.976927 -2.07337 0
M  V30 214 C 21.1783 0.0525322 -1.60714 0
M  V30 215 O 22.3683 -0.184869 -1.73216 0
M  V30 216 C 19.5003 -0.473423 -3.37597 0
M  V30 217 H 20.6933 -1.92587 -2.29892 0
M  V30 218 H 18.2463 -1.03217 -1.17371 0
M  V30 219 H 18.9813 0.480379 -3.20722 0
M  V30 220 H 18.7663 -1.216 -3.72768 0
M  V30 221 H 20.2563 -0.32675 -4.1632 0
M  V30 222 N 20.6934 1.19889 -1.02296 0
M  V30 223 C 21.9424 1.88743 -0.711257 0
M  V30 224 C 22.2554 1.80112 0.762817 0
M  V30 225 O 23.4614 2.44161 1.18733 0
M  V30 226 C 21.9174 3.38525 -1.22185 0
M  V30 227 C 21.5254 3.55727 -2.72328 0
M  V30 228 C 23.2694 4.12893 -0.985864 0
M  V30 229 C 21.1764 4.99369 -3.16835 0
M  V30 230 H 20.1064 0.706885 -0.262353 0
M  V30 231 H 22.7574 1.35586 -1.23648 0
M  V30 232 H 21.1394 3.91044 -0.624571 0
M  V30 233 H 22.3134 3.13564 -3.3766 0
M  V30 234 H 20.6284 2.94739 -2.9414 0
M  V30 235 H 23.2254 5.18813 -1.29374 0
M  V30 236 H 23.5684 4.16228 0.0775055 0
M  V30 237 H 24.1014 3.66494 -1.54684 0
M  V30 238 H 20.8404 5.01193 -4.22476 0
M  V30 239 H 20.3604 5.42317 -2.56228 0
M  V30 240 H 22.0394 5.67988 -3.09837 0
M  V30 241 N 22.1715 0.800033 1.35784 0
M  V30 242 C 23.1015 0.220184 2.3246 0
M  V30 243 C 24.0825 -0.65073 1.57161 0
M  V30 244 O 25.2675 -0.582359 1.85263 0
M  V30 245 C 22.3975 -0.637353 3.41402 0
M  V30 246 C 21.3515 0.134531 4.27789 0
M  V30 247 C 20.6775 -0.844285 5.27992 0
M  V30 248 C 21.9775 1.32979 5.05088 0
M  V30 249 H 23.6715 1.02787 2.81203 0
M  V30 250 H 21.2175 0.495717 1.35199 0
M  V30 251 H 23.1705 -1.05302 4.08031 0
M  V30 252 H 21.8945 -1.47785 2.91251 0
M  V30 253 H 20.5535 0.531296 3.6273 0
M  V30 254 H 20.2015 -1.68011 4.74111 0
M  V30 255 H 19.9015 -0.332184 5.8666 0
M  V30 256 H 21.4255 -1.2583 5.97494 0
M  V30 257 H 22.8395 0.98934 5.64699 0
M  V30 258 H 21.2365 1.77593 5.7322 0
M  V30 259 H 22.3065 2.11978 4.36111 0
M  V30 260 N 23.6496 -1.47581 0.552962 0
M  V30 261 C 24.8966 -2.02482 0.0273243 0
M  V30 262 C 25.2246 -1.42776 -1.32081 0
M  V30 263 O 24.4796 -0.571393 -1.87173 0
M  V30 264 C 24.7786 -3.57199 -0.119728 0
M  V30 265 C 24.4446 -4.35804 1.15697 0
M  V30 266 C 23.1066 -4.57 1.50681 0
M  V30 267 C 25.4586 -4.81167 2.00319 0
M  V30 268 C 22.7866 -5.20807 2.70142 0
M  V30 269 C 25.1386 -5.46293 3.18978 0
M  V30 270 C 23.8026 -5.65722 3.54281 0
M  V30 271 H 23.0726 -0.740933 0.00999866 0
M  V30 272 H 25.7196 -1.77302 0.72362 0
M  V30 273 H 24.0246 -3.81348 -0.89896 0
M  V30 274 H 25.7216 -3.97324 -0.541718 0
M  V30 275 H 22.3116 -4.19582 0.874561 0
M  V30 276 H 26.4956 -4.64574 1.74599 0
M  V30 277 H 21.7516 -5.34045 2.97668 0
M  V30 278 H 25.9256 -5.80407 3.84838 0
M  V30 279 H 23.5526 -6.14936 4.46942 0
M  V30 280 N 25.1277 -0.289203 -1.54924 0
M  V30 281 C 26.3737 0.323998 -2.00195 0
M  V30 282 C 26.7067 1.54441 -1.17735 0
M  V30 283 O 25.9817 1.92875 -0.250878 0
M  V30 284 C 26.2647 0.692276 -3.53383 0
M  V30 285 C 26.1177 -0.536457 -4.46589 0
M  V30 286 C 27.4367 1.52335 -4.12895 0
M  V30 287 H 24.5557 0.116289 -0.727768 0
M  V30 288 H 27.1977 -0.398954 -1.85764 0
M  V30 289 H 25.3477 1.30822 -3.65811 0
M  V30 290 H 27.0197 -1.17499 -4.46085 0
M  V30 291 H 25.2627 -1.17192 -4.1767 0
M  V30 292 H 25.9337 -0.234806 -5.515 0
M  V30 293 H 28.4097 1.00302 -4.0383 0
M  V30 294 H 27.2857 1.74982 -5.20262 0
M  V30 295 H 27.5467 2.50886 -3.64018 0
M  V30 296 N 26.6058 1.57591 -0.0167156 0
M  V30 297 C 27.5688 2.08393 0.954204 0
M  V30 298 C 28.5688 0.996531 1.26198 0
M  V30 299 O 29.7588 1.25858 1.20438 0
M  V30 300 C 26.8908 2.5394 2.27436 0
M  V30 301 H 28.0838 2.95455 0.514451 0
M  V30 302 H 25.6368 1.54582 0.231089 0
M  V30 303 H 26.3718 1.70171 2.76066 0
M  V30 304 H 26.1568 3.33371 2.06412 0
M  V30 305 H 27.6468 2.93512 2.97053 0
M  V30 306 N 28.0839 -0.256276 1.55502 0
M  V30 307 C 29.3299 -0.982884 1.78076 0
M  V30 308 C 29.6849 -1.83319 0.584109 0
M  V30 309 O 28.9779 -1.86875 -0.422877 0
M  V30 310 C 29.1719 -1.88432 3.03691 0
M  V30 311 C 29.0009 -1.12276 4.35459 0
M  V30 312 C 27.7709 -0.831647 4.98409 0
M  V30 313 C 29.9689 -0.504933 5.11815 0
M  V30 314 N 27.9509 -0.0450423 6.13883 0
M  V30 315 C 29.3219 0.146696 6.19826 0
M  V30 316 C 31.3769 -0.414455 4.96172 0
M  V30 317 C 30.0799 0.880103 7.13895 0
M  V30 318 C 32.1059 0.305398 5.90611 0
M  V30 319 C 31.4679 0.945701 6.98023 0
M  V30 320 H 27.5669 -0.341084 0.703694 0
M  V30 321 H 30.1509 -0.256909 1.92998 0
M  V30 322 H 28.3219 -2.58241 2.90114 0
M  V30 323 H 30.0539 -2.54579 3.14598 0
M  V30 324 H 26.8089 -1.14111 4.59647 0
M  V30 325 H 27.2329 0.336079 6.76165 0
M  V30 326 H 31.8749 -0.895163 4.13215 0
M  V30 327 H 29.5929 1.37244 7.9636 0
M  V30 328 H 33.1789 0.375946 5.80584 0
M  V30 329 H 32.0589 1.49383 7.6984 0
M  V30 330 N 29.562 -1.4872 -0.521534 0
M  V30 331 C 30.51 -1.64328 -1.64618 0
M  V30 332 C 31.504 -0.50953 -1.61555 0
M  V30 333 O 32.71 -0.688525 -1.66311 0
M  V30 334 H 29.085 -0.517805 -0.545328 0
M  V30 335 H 31.056 -2.58767 -1.48601 0
M  V30 336 C 29.805 -1.70805 -3.02855 0
M  V30 337 H 29.128 -2.5741 -3.05909 0
M  V30 338 H 30.568 -1.85766 -3.81139 0
M  V30 339 C 29.027 -0.448479 -3.33902 0
M  V30 340 O 29.557 0.434928 -3.99339 0
M  V30 341 N 27.763 -0.317616 -2.88859 0
M  V30 342 H 27.31 -1.03748 -2.35784 0
M  V30 343 H 27.268 0.524113 -3.10001 0
M  V30 344 N 31.0401 0.771051 -1.3745 0
M  V30 345 C 32.0031 1.86598 -1.33093 0
M  V30 346 C 33.0031 1.59076 -0.234845 0
M  V30 347 O 34.1931 1.67145 -0.490732 0
M  V30 348 C 31.3251 3.23747 -1.06773 0
M  V30 349 H 32.5181 1.91873 -2.30488 0
M  V30 350 H 30.0711 0.970876 -1.2249 0
M  V30 351 H 30.8061 3.24148 -0.099129 0
M  V30 352 H 30.5911 3.45115 -1.86112 0
M  V30 353 H 32.0811 4.03824 -1.06377 0
M  V30 354 N 32.5182 1.22032 0.997298 0
M  V30 355 C 33.4482 1.01065 2.10495 0
M  V30 356 C 34.4292 -0.0669542 1.69968 0
M  V30 357 O 35.6142 0.0943987 1.9397 0
M  V30 358 C 32.7442 0.582874 3.42374 0
M  V30 359 C 31.6982 1.60592 3.96729 0
M  V30 360 C 31.0242 1.03412 5.24605 0
M  V30 361 C 32.3242 2.99478 4.27914 0
M  V30 362 H 34.0182 1.93708 2.28292 0
M  V30 363 H 31.5642 0.932761 1.09707 0
M  V30 364 H 33.5172 0.423332 4.19268 0
M  V30 365 H 32.2412 -0.379213 3.24391 0
M  V30 366 H 30.9002 1.75316 3.21963 0
M  V30 367 H 30.5482 0.063518 5.0296 0
M  V30 368 H 30.2482 1.71754 5.61938 0
M  V30 369 H 31.7722 0.886066 6.04137 0
M  V30 370 H 33.1862 2.88153 4.95622 0
M  V30 371 H 31.5832 3.64903 4.76409 0
M  V30 372 H 32.6532 3.49742 3.3587 0
M  V30 373 N 33.9963 -1.19345 1.0293 0
M  V30 374 C 34.9263 -2.2481 0.631105 0
M  V30 375 C 35.9073 -1.66245 -0.360104 0
M  V30 376 O 37.0923 -1.92677 -0.242726 0
M  V30 377 C 34.2223 -3.47295 -0.0184607 0
M  V30 378 C 33.1763 -4.18536 0.895073 0
M  V30 379 C 32.5023 -5.34586 0.110592 0
M  V30 380 C 33.8023 -4.73287 2.209 0
M  V30 381 H 35.4963 -2.58372 1.51275 0
M  V30 382 H 33.0423 -1.24194 0.728818 0
M  V30 383 H 34.9953 -4.20268 -0.308675 0
M  V30 384 H 33.7193 -3.12933 -0.934907 0
M  V30 385 H 32.3783 -3.47446 1.16949 0
M  V30 386 H 32.0263 -4.96469 -0.807902 0
M  V30 387 H 31.7263 -5.83183 0.719087 0
M  V30 388 H 33.2503 -6.10355 -0.172871 0
M  V30 389 H 34.6643 -5.38013 1.98028 0
M  V30 390 H 33.0613 -5.32373 2.76946 0
M  V30 391 H 34.1313 -3.91331 2.86336 0
M  V30 392 N 35.4744 -0.807222 -1.35358 0
M  V30 393 C 36.4044 -0.232509 -2.3234 0
M  V30 394 C 37.3854 0.642386 -1.57504 0
M  V30 395 O 38.5704 0.572526 -1.85569 0
M  V30 396 C 35.7004 0.619238 -3.41735 0
M  V30 397 C 34.6544 -0.157215 -4.27711 0
M  V30 398 C 33.9804 0.816273 -5.28433 0
M  V30 399 C 35.2804 -1.35656 -5.04376 0
M  V30 400 H 36.9744 -1.04276 -2.80654 0
M  V30 401 H 34.5204 -0.50288 -1.34934 0
M  V30 402 H 36.4734 1.03137 -4.08584 0
M  V30 403 H 35.1974 1.46239 -2.92031 0
M  V30 404 H 33.8564 -0.550525 -3.62443 0
M  V30 405 H 33.5044 1.65494 -4.74996 0
M  V30 406 H 33.2044 0.301067 -5.86828 0
M  V30 407 H 34.7284 1.22659 -5.98153 0
M  V30 408 H 36.1424 -1.01927 -5.64166 0
M  V30 409 H 34.5394 -1.8063 -5.7227 0
M  V30 410 H 35.6094 -2.14288 -4.34981 0
M  V30 411 N 36.9525 1.47285 -0.560781 0
M  V30 412 C 37.8825 2.32857 0.173105 0
M  V30 413 C 38.8635 1.44009 0.905281 0
M  V30 414 O 40.0485 1.7286 0.885046 0
M  V30 415 C 37.1785 3.25861 1.20133 0
M  V30 416 C 36.1325 4.23978 0.585388 0
M  V30 417 C 35.4585 5.06332 1.7185 0
M  V30 418 C 36.7585 5.20242 -0.463178 0
M  V30 419 H 38.4525 2.94466 -0.541307 0
M  V30 420 H 35.9985 1.41601 -0.261764 0
M  V30 421 H 37.9515 3.84569 1.72293 0
M  V30 422 H 36.6755 2.62315 1.94573 0
M  V30 423 H 35.3345 3.66501 0.085054 0
M  V30 424 H 34.9825 4.39186 2.45203 0
M  V30 425 H 34.6825 5.72762 1.31213 0
M  V30 426 H 36.2065 5.67899 2.24329 0
M  V30 427 H 37.6205 5.73293 -0.027502 0
M  V30 428 H 36.0175 5.94896 -0.788627 0
M  V30 429 H 37.0875 4.65504 -1.35773 0
M  V30 430 N 38.4306 0.297415 1.54768 0
M  V30 431 C 39.6776 -0.312913 2.00068 0
M  V30 432 C 40.0056 -1.54171 1.18582 0
M  V30 433 O 39.2606 -1.94108 0.249133 0
M  V30 434 C 39.5596 -0.717561 3.50123 0
M  V30 435 C 39.2256 0.409095 4.4904 0
M  V30 436 C 37.8876 0.718399 4.75807 0
M  V30 437 C 40.2396 1.16717 5.07963 0
M  V30 438 C 37.5676 1.78896 5.5876 0
M  V30 439 C 39.9196 2.22762 5.92081 0
M  V30 440 C 38.5836 2.54303 6.1716 0
M  V30 441 H 37.8536 -0.114503 0.7321 0
M  V30 442 H 40.5006 0.415767 1.86932 0
M  V30 443 H 38.8056 -1.52627 3.60849 0
M  V30 444 H 40.5026 -1.20091 3.82595 0
M  V30 445 H 37.0926 0.157918 4.28309 0
M  V30 446 H 41.2766 0.941466 4.87289 0
M  V30 447 H 36.5326 2.0381 5.7643 0
M  V30 448 H 40.7066 2.81962 6.36765 0
M  V30 449 H 38.3336 3.3739 6.81229 0
M  V30 450 N 39.9087 -1.5758 0.0250728 0
M  V30 451 C 41.1557 -1.91633 -0.654444 0
M  V30 452 C 41.4837 -0.901103 -1.72367 0
M  V30 453 O 40.7387 0.0905647 -1.9549 0
M  V30 454 C 41.0377 -3.32421 -1.31268 0
M  V30 455 C 40.7037 -4.49344 -0.374223 0
M  V30 456 C 39.3657 -4.8106 -0.115911 0
M  V30 457 C 41.7177 -5.20498 0.270432 0
M  V30 458 C 39.0457 -5.8129 0.79493 0
M  V30 459 C 41.3977 -6.21699 1.1693 0
M  V30 460 C 40.0617 -6.51859 1.43655 0
M  V30 461 H 39.3317 -0.701236 -0.239478 0
M  V30 462 H 41.9787 -1.91307 0.0859734 0
M  V30 463 H 40.2837 -3.28989 -2.12775 0
M  V30 464 H 41.9807 -3.56038 -1.84494 0
M  V30 465 H 38.5707 -4.24579 -0.58573 0
M  V30 466 H 42.7547 -4.96229 0.0839194 0
M  V30 467 H 38.0107 -6.03005 1.00973 0
M  V30 468 H 42.1847 -6.75955 1.67504 0
M  V30 469 H 39.8117 -7.2934 2.144 0
M  V30 470 N 41.3868 0.248026 -1.55636 0
M  V30 471 C 42.6328 0.973427 -1.78594 0
M  V30 472 C 42.9878 1.83007 -0.593823 0
M  V30 473 O 42.2808 1.87097 0.412961 0
M  V30 474 C 42.4748 1.86819 -3.04686 0
M  V30 475 C 42.3038 1.09965 -4.36048 0
M  V30 476 C 41.0738 0.805204 -4.98843 0
M  V30 477 C 43.2718 0.477783 -5.12076 0
M  V30 478 N 41.2538 0.0124859 -6.13899 0
M  V30 479 C 42.6248 -0.179565 -6.1974 0
M  V30 480 C 44.6798 0.388136 -4.96385 0
M  V30 481 C 43.3828 -0.91795 -7.13419 0
M  V30 482 C 45.4088 -0.336716 -5.90441 0
M  V30 483 C 44.7708 -0.982705 -6.97511 0
M  V30 484 H 40.8698 0.337348 -0.705493 0
M  V30 485 H 43.4538 0.24667 -1.93131 0
M  V30 486 H 41.6248 2.56698 -2.9148 0
M  V30 487 H 43.3568 2.52907 -3.15944 0
M  V30 488 H 40.1118 1.11671 -4.60246 0
M  V30 489 H 40.5358 -0.371933 -6.75978 0
M  V30 490 H 45.1778 0.873237 -4.13684 0
M  V30 491 H 42.8958 -1.41466 -7.95621 0
M  V30 492 H 46.4818 -0.406731 -5.80377 0
M  V30 493 H 45.3618 -1.53464 -7.69037 0
M  V30 494 N 42.8649 1.48995 0.513639 0
M  V30 495 C 44.0929 1.61531 1.29288 0
M  V30 496 C 44.5079 0.281801 1.86685 0
M  V30 497 O 43.8649 -0.731111 1.67215 0
M  V30 498 C 43.9159 2.67449 2.43215 0
M  V30 499 O 43.6369 3.95626 1.88179 0
M  V30 500 C 45.1379 2.90575 3.34785 0
M  V30 501 H 42.3579 0.544165 0.392588 0
M  V30 502 H 44.9019 1.9494 0.617956 0
M  V30 503 H 43.0569 2.36853 3.0656 0
M  V30 504 H 43.4709 4.53868 2.62876 0
M  V30 505 H 44.9449 3.68449 4.11035 0
M  V30 506 H 45.4219 2.00011 3.91015 0
M  V30 507 H 46.0279 3.22538 2.77218 0
M  V30 508 N 44.343 -0.763751 1.37857 0
M  V30 509 C 45.759 -1.06542 1.18832 0
M  V30 510 C 45.959 -2.01478 0.0299722 0
M  V30 511 O 45.015 -2.4458 -0.627447 0
M  V30 512 C 46.328 -1.65525 2.51042 0
M  V30 513 C 47.876 -1.77745 2.57635 0
M  V30 514 C 48.351 -2.4014 3.89996 0
M  V30 515 N 49.842 -2.47582 3.91481 0
M  V30 516 C 50.577 -2.96732 4.9065 0
M  V30 517 N 50.073 -3.45993 6.00217 0
M  V30 518 N 51.866 -2.95679 4.78048 0
M  V30 519 H 44.017 -0.133556 2.1198 0
M  V30 520 H 46.28 -0.121879 0.940133 0
M  V30 521 H 45.986 -1.03236 3.36207 0
M  V30 522 H 45.86 -2.64719 2.68707 0
M  V30 523 H 48.247 -2.39164 1.72872 0
M  V30 524 H 48.328 -0.772836 2.43846 0
M  V30 525 H 47.972 -1.79358 4.75177 0
M  V30 526 H 47.902 -3.41223 4.01092 0
M  V30 527 H 50.393 -2.1273 3.12337 0
M  V30 528 H 50.706 -3.81922 6.7183 0
M  V30 529 H 49.051 -3.44077 6.03851 0
M  V30 530 H 52.242 -2.56499 3.91568 0
M  V30 531 H 52.415 -3.33672 5.55488 0
M  V30 532 N 45.8211 -1.22559 -0.990812 0
M  V30 533 C 47.2321 -1.04791 -1.54518 0
M  V30 534 C 47.5831 0.387998 -1.92325 0
M  V30 535 O 46.7081 1.27328 -1.74976 0
M  V30 536 C 47.3031 -1.896 -2.80779 0
M  V30 537 C 45.8621 -1.76124 -3.32652 0
M  V30 538 C 45.0091 -1.8594 -2.05722 0
M  V30 539 H 47.9601 -1.36374 -0.811662 0
M  V30 540 H 47.9811 -1.41464 -3.53225 0
M  V30 541 H 47.4931 -2.94101 -2.53231 0
M  V30 542 H 45.5941 -0.743643 -3.65104 0
M  V30 543 H 45.7071 -2.58913 -4.03114 0
M  V30 544 H 44.0711 -1.29403 -2.19379 0
M  V30 545 H 44.8541 -2.91976 -1.80568 0
M  V30 546 N 47.2992 1.18797 -1.03562 0
M  V30 547 C 48.2622 2.20464 -0.626769 0
M  V30 548 C 49.2622 1.57721 0.313173 0
M  V30 549 O 50.4522 1.73917 0.0992615 0
M  V30 550 C 47.5842 3.40802 0.0818498 0
M  V30 551 H 48.7772 2.58149 -1.5264 0
M  V30 552 H 46.3302 1.32593 -0.827578 0
M  V30 553 H 47.0652 3.08642 0.995518 0
M  V30 554 H 46.8502 3.8758 -0.593652 0
M  V30 555 H 48.3402 4.16092 0.354584 0
M  V30 556 N 48.7773 0.814389 1.34928 0
M  V30 557 C 50.1883 0.458364 1.80986 0
M  V30 558 C 50.5393 -1.02042 1.67577 0
M  V30 559 O 49.6643 -1.79352 1.21086 0
M  V30 560 C 50.2593 0.825212 3.28597 0
M  V30 561 C 48.8183 0.521677 3.72767 0
M  V30 562 C 47.9653 1.04668 2.56788 0
M  V30 563 H 50.9163 1.00533 1.22795 0
M  V30 564 H 50.9373 0.12571 3.80292 0
M  V30 565 H 50.4493 1.90154 3.38324 0
M  V30 566 H 48.5503 -0.545589 3.68584 0
M  V30 567 H 48.6633 1.05977 4.67232 0
M  V30 568 H 47.0273 0.468622 2.50352 0
M  V30 569 H 47.8103 2.12927 2.6929 0
M  V30 570 N 50.2554 -1.46986 0.568584 0
M  V30 571 C 51.5034 -2.02041 0.0487022 0
M  V30 572 C 51.8244 -1.44408 -1.31039 0
M  V30 573 O 51.0944 -0.623477 -1.85714 0
M  V30 574 H 49.6744 -0.746849 0.015014 0
M  V30 575 H 52.3364 -1.80257 0.741168 0
M  V30 576 H 51.4324 -3.12085 -0.0308961 0
M  V30 577 N 51.7335 -0.305618 -1.54608 0
M  V30 578 C 53.1495 0.0476228 -1.59529 0
M  V30 579 C 53.3495 1.52025 -1.32252 0
M  V30 580 O 52.4055 2.27368 -1.09818 0
M  V30 581 C 53.7185 -0.354471 -2.98603 0
M  V30 582 C 55.2665 -0.303622 -3.11524 0
M  V30 583 C 55.7415 -0.680608 -4.52915 0
M  V30 584 N 57.2325 -0.63332 -4.5885 0
M  V30 585 C 57.9675 -0.897432 -5.66334 0
M  V30 586 N 57.4635 -1.22775 -6.81834 0
M  V30 587 N 59.2565 -0.824186 -5.56025 0
M  V30 588 H 51.4075 -1.2653 -1.70599 0
M  V30 589 H 53.6705 -0.513291 -0.797017 0
M  V30 590 H 53.3765 -1.3798 -3.23503 0
M  V30 591 H 53.2505 0.289568 -3.76087 0
M  V30 592 H 55.6375 0.712472 -2.8637 0
M  V30 593 H 55.7185 -0.982348 -2.36185 0
M  V30 594 H 55.3625 -1.69453 -4.78799 0
M  V30 595 H 55.2925 0.0202385 -5.26596 0
M  V30 596 H 57.7835 -0.389138 -3.75891 0
M  V30 597 H 58.0965 -1.41513 -7.59733 0
M  V30 598 H 56.4415 -1.26583 -6.83375 0
M  V30 599 H 59.6325 -0.565748 -4.64669 0
M  V30 600 H 59.8055 -1.03338 -6.39707 0
M  V30 601 N 53.2116 1.57565 -0.0334293 0
M  V30 602 C 54.6226 1.79746 0.504798 0
M  V30 603 C 54.9736 0.944091 1.71992 0
M  V30 604 O 54.0986 0.155694 2.15839 0
M  V30 605 C 54.6936 3.25997 0.922567 0
M  V30 606 C 53.2526 3.49159 1.40588 0
M  V30 607 C 52.3996 2.74785 0.372633 0
M  V30 608 H 55.3506 1.56565 -0.259436 0
M  V30 609 H 55.3716 3.35945 1.78666 0
M  V30 610 H 54.8836 3.88081 0.0379825 0
M  V30 611 H 52.9846 2.92332 2.31025 0
M  V30 612 H 53.0976 4.57873 1.41028 0
M  V30 613 H 51.4616 2.40391 0.841672 0
M  V30 614 H 52.2446 3.39587 -0.503559 0
M  V30 615 N 54.6897 -0.239769 1.55765 0
M  V30 616 C 56.1007 -0.808263 1.68297 0
M  V30 617 C 56.4517 -1.85736 0.632181 0
M  V30 618 O 55.5767 -2.15277 -0.220204 0
M  V30 619 C 56.1717 -1.47284 3.05111 0
M  V30 620 C 54.7307 -1.98895 3.19559 0
M  V30 621 C 53.8777 -0.842575 2.64189 0
M  V30 622 H 56.8287 -0.0154422 1.58692 0
M  V30 623 H 56.8497 -2.34111 2.99954 0
M  V30 624 H 56.3617 -0.709053 3.81568 0
M  V30 625 H 54.4627 -2.78132 2.47938 0
M  V30 626 H 54.5757 -2.18143 4.26556 0
M  V30 627 H 52.9397 -1.24501 2.22197 0
M  V30 628 H 53.7227 -0.0917552 3.43177 0
M  V30 629 N 56.1678 -1.49265 -0.50573 0
M  V30 630 C 57.3928 -1.62478 -1.28902 0
M  V30 631 C 57.8178 -0.294332 -1.85783 0
M  V30 632 O 57.1758 0.737412 -1.65626 0
M  V30 633 C 57.2238 -2.69268 -2.39848 0
M  V30 634 O 56.3278 -2.28113 -3.43567 0
M  V30 635 H 55.6688 -0.54399 -0.380751 0
M  V30 636 H 58.1988 -1.95421 -0.605952 0
M  V30 637 H 58.2088 -2.91291 -2.85681 0
M  V30 638 H 56.8838 -3.65846 -1.97812 0
M  V30 639 H 55.4608 -2.16401 -3.03685 0
M  V30 640 N 57.6459 0.756429 -1.3826 0
M  V30 641 C 58.8919 1.51772 -1.34511 0
M  V30 642 C 59.2249 1.94089 0.0656691 0
M  V30 643 O 58.4999 1.65221 1.02626 0
M  V30 644 C 58.7829 2.77226 -2.29821 0
M  V30 645 C 58.6359 2.41065 -3.79747 0
M  V30 646 C 59.9549 3.79236 -2.23312 0
M  V30 647 H 57.0739 0.550578 -0.489931 0
M  V30 648 H 59.7159 0.866607 -1.69086 0
M  V30 649 H 57.8659 3.32784 -2.00467 0
M  V30 650 H 59.5379 1.91303 -4.19763 0
M  V30 651 H 57.7809 1.7356 -3.97567 0
M  V30 652 H 58.4519 3.3081 -4.41892 0
M  V30 653 H 60.9279 3.3321 -2.49219 0
M  V30 654 H 59.8039 4.64714 -2.92116 0
M  V30 655 H 60.0649 4.24615 -1.23102 0
M  V30 656 N 59.124 1.23083 0.984299 0
M  V30 657 C 60.349 1.088 1.76571 0
M  V30 658 C 60.774 -0.356657 1.84688 0
M  V30 659 O 60.132 -1.25788 1.30565 0
M  V30 660 C 60.18 1.71371 3.17277 0
M  V30 661 O 59.284 0.973213 4.00752 0
M  V30 662 H 58.625 0.381599 0.543395 0
M  V30 663 H 61.155 1.63057 1.23587 0
M  V30 664 H 61.165 1.76449 3.67872 0
M  V30 665 H 59.84 2.76493 3.10684 0
M  V30 666 H 58.417 0.999078 3.59267 0
M  V30 667 N 60.6021 -1.18246 1.0419 0
M  V30 668 C 61.5651 -2.20128 0.638452 0
M  V30 669 C 62.5651 -1.57885 -0.304805 0
M  V30 670 O 63.7551 -1.73967 -0.0900369 0
M  V30 671 C 60.8871 -3.4084 -0.0637751 0
M  V30 672 H 62.0801 -2.57336 1.54007 0
M  V30 673 H 59.6331 -1.32152 0.834598 0
M  V30 674 H 60.3681 -3.09166 -0.979136 0
M  V30 675 H 60.1531 -3.8726 0.614198 0
M  V30 676 H 61.6431 -4.16274 -0.332512 0
M  V30 677 N 62.0802 -0.821533 -1.34494 0
M  V30 678 C 63.0102 -0.257138 -2.3208 0
M  V30 679 C 63.9912 0.625645 -1.58176 0
M  V30 680 O 65.1762 0.552811 -1.86166 0
M  V30 681 C 62.3062 0.582958 -3.42372 0
M  V30 682 C 61.2602 -0.202571 -4.2752 0
M  V30 683 C 60.5862 0.760179 -5.29269 0
M  V30 684 C 61.8862 -1.40998 -5.02908 0
M  V30 685 H 63.5802 -1.07247 -2.79532 0
M  V30 686 H 61.1262 -0.517163 -1.34393 0
M  V30 687 H 63.0792 0.987972 -4.09655 0
M  V30 688 H 61.8032 1.43133 -2.93565 0
M  V30 689 H 60.4622 -0.588936 -3.61838 0
M  V30 690 H 60.1102 1.60447 -4.76724 0
M  V30 691 H 59.8102 0.238809 -5.87115 0
M  V30 692 H 61.3342 1.16308 -5.9942 0
M  V30 693 H 62.7482 -1.07905 -5.63054 0
M  V30 694 H 61.1452 -1.86689 -5.70322 0
M  V30 695 H 62.2152 -2.1889 -4.32684 0
M  V30 696 N 63.5583 1.46682 -0.576371 0
M  V30 697 C 64.8353 1.95599 0.00703437 0
M  V30 698 C 65.2153 1.51904 1.46589 0
M  V30 699 O 64.5633 0.766755 2.15251 0
M  V30 700 C 64.7733 3.4864 -0.158404 0
M  V30 701 C 66.1213 4.24594 -0.0229439 0
M  V30 702 O 67.1453 3.56094 -0.0869173 0
M  V30 703 O 66.0043 5.46373 0.118015 0
M  V30 704 H 63.0983 0.825275 0.053384 0
M  V30 705 H 65.6443 1.56996 -0.644244 0
M  V30 706 H 64.4163 3.7331 -1.17282 0
M  V30 707 H 64.0393 3.94057 0.5296 0
M  V30 708 N 65.0364 0.313813 1.54444 0
M  V30 709 C 66.2844 -0.291099 1.99993 0
M  V30 710 C 66.6054 -1.53418 1.20366 0
M  V30 711 O 65.8754 -1.93544 0.302927 0
M  V30 712 H 64.4554 -0.110552 0.738774 0
M  V30 713 H 67.1174 0.428106 1.9014 0
M  V30 714 H 66.2134 -0.554268 3.07139 0
M  V30 715 N 66.5145 -1.57545 0.0417849 0
M  V30 716 C 67.7915 -1.83642 -0.673433 0
M  V30 717 C 68.1715 -0.928298 -1.89594 0
M  V30 718 O 67.5195 0.0129955 -2.28496 0
M  V30 719 C 67.7295 -3.33155 -1.03964 0
M  V30 720 C 69.0775 -3.99941 -1.42592 0
M  V30 721 O 70.1015 -3.37725 -1.13226 0
M  V30 722 O 68.9605 -5.09619 -1.9736 0
M  V30 723 H 66.0545 -0.757638 -0.331533 0
M  V30 724 H 68.6005 -1.69554 0.070433 0
M  V30 725 H 67.3725 -3.9093 -0.170098 0
M  V30 726 H 66.9955 -3.52396 -1.84126 0
M  V30 727 N 67.9926 0.231505 -1.5589 0
M  V30 728 C 69.4036 0.799327 -1.68724 0
M  V30 729 C 69.7546 1.85398 -0.642022 0
M  V30 730 O 68.8796 2.1539 0.208784 0
M  V30 731 C 69.4746 1.45664 -3.05888 0
M  V30 732 C 68.0336 1.97197 -3.20609 0
M  V30 733 C 67.1806 0.828552 -2.64632 0
M  V30 734 H 70.1316 0.00702616 -1.58698 0
M  V30 735 H 70.1526 2.32517 -3.01191 0
M  V30 736 H 69.6646 0.688808 -3.81939 0
M  V30 737 H 67.7656 2.76813 -2.4941 0
M  V30 738 H 67.8786 2.15878 -4.27707 0
M  V30 739 H 66.2426 1.23321 -2.22854 0
M  V30 740 H 67.0256 0.0735544 -3.43221 0
M  V30 741 N 69.4707 1.49531 0.497807 0
M  V30 742 C 70.4337 1.65916 1.58128 0
M  V30 743 C 71.4337 0.530825 1.51786 0
M  V30 744 O 72.6237 0.797342 1.54881 0
M  V30 745 C 69.7557 1.65951 2.9778 0
M  V30 746 H 70.9487 2.62556 1.44929 0
M  V30 747 H 68.5017 1.38611 0.722275 0
M  V30 748 H 69.2367 0.709065 3.16453 0
M  V30 749 H 69.0217 2.47897 3.03792 0
M  V30 750 H 70.5117 1.80673 3.76493 0
M  V30 751 N 70.9488 -0.749086 1.3866 0
M  V30 752 C 72.1738 -1.54344 1.38538 0
M  V30 753 C 72.5988 -1.88088 -0.0216655 0
M  V30 754 O 71.9568 -1.50899 -1.00494 0
M  V30 755 C 72.0048 -2.8164 2.25192 0
M  V30 756 O 71.1088 -3.7698 1.67212 0
M  V30 757 H 70.4498 -0.466654 0.472367 0
M  V30 758 H 72.9798 -0.925355 1.82478 0
M  V30 759 H 72.9898 -3.30519 2.3921 0
M  V30 760 H 71.6648 -2.56411 3.27454 0
M  V30 761 H 70.2418 -3.35699 1.6236 0
M  V30 762 N 72.4269 -1.23603 -0.977757 0
M  V30 763 C 73.3569 -1.04401 -2.0886 0
M  V30 764 C 74.3379 0.0399052 -1.70053 0
M  V30 765 O 75.5229 -0.125246 -1.93796 0
M  V30 766 C 72.6529 -0.637269 -3.41403 0
M  V30 767 C 71.6069 -1.66883 -3.94124 0
M  V30 768 C 70.9329 -1.11745 -5.22893 0
M  V30 769 C 72.2329 -3.06247 -4.23096 0
M  V30 770 H 73.9269 -1.97316 -2.25182 0
M  V30 771 H 71.4729 -0.950096 -1.08209 0
M  V30 772 H 73.4259 -0.48998 -4.18542 0
M  V30 773 H 72.1499 0.327557 -3.24953 0
M  V30 774 H 70.8089 -1.80416 -3.19133 0
M  V30 775 H 70.4569 -0.143527 -5.02795 0
M  V30 776 H 70.1569 -1.80672 -5.59134 0
M  V30 777 H 71.6809 -0.982067 -6.02651 0
M  V30 778 H 73.0949 -2.96001 -4.90975 0
M  V30 779 H 71.4919 -3.72436 -4.70544 0
M  V30 780 H 72.5619 -3.55041 -3.30263 0
M  V30 781 N 73.905 1.17692 -1.04816 0
M  V30 782 C 75.133 1.91786 -0.776254 0
M  V30 783 C 75.548 1.76604 0.667577 0
M  V30 784 O 74.905 1.10067 1.45573 0
M  V30 785 C 74.956 3.42967 -1.14263 0
M  V30 786 O 74.677 3.57678 -2.52978 0
M  V30 787 C 76.178 4.34144 -0.896311 0
M  V30 788 H 73.398 0.608624 -0.282519 0
M  V30 789 H 75.942 1.49268 -1.39783 0
M  V30 790 H 74.097 3.83245 -0.565874 0
M  V30 791 H 74.511 4.51319 -2.67229 0
M  V30 792 H 75.985 5.38744 -1.20244 0
M  V30 793 H 76.462 4.38876 0.168636 0
M  V30 794 H 77.068 3.99574 -1.45672 0
M  V30 795 N 75.3831 0.828654 1.34056 0
M  V30 796 C 76.7991 0.515135 1.51058 0
M  V30 797 C 76.9991 -0.959581 1.77184 0
M  V30 798 O 76.0551 -1.74382 1.82612 0
M  V30 799 C 77.3681 1.37963 2.67183 0
M  V30 800 C 78.9161 1.37735 2.81066 0
M  V30 801 C 79.3911 2.22645 4.00241 0
M  V30 802 N 80.8821 2.203 4.07458 0
M  V30 803 C 81.6171 2.82744 4.98842 0
M  V30 804 N 81.1131 3.54201 5.9541 0
M  V30 805 N 82.9061 2.72268 4.91759 0
M  V30 806 H 75.0571 1.78343 1.15358 0
M  V30 807 H 77.3201 0.760304 0.566252 0
M  V30 808 H 77.0261 2.42714 2.54525 0
M  V30 809 H 76.9001 1.0484 3.62338 0
M  V30 810 H 79.2871 0.337593 2.93163 0
M  V30 811 H 79.3681 1.74859 1.86703 0
M  V30 812 H 79.0121 3.26674 3.88905 0
M  V30 813 H 78.9421 1.82869 4.93829 0
M  V30 814 H 81.4331 1.68327 3.38341 0
M  V30 815 H 81.7461 3.9908 6.61782 0
M  V30 816 H 80.0911 3.58308 5.95517 0
M  V30 817 H 83.2821 2.16014 4.15278 0
M  V30 818 H 83.4551 3.21219 5.62781 0
M  V30 819 N 76.8612 -1.46375 0.584142 0
M  V30 820 C 77.7712 -2.34115 -0.150728 0
M  V30 821 C 78.7872 -1.49838 -0.884567 0
M  V30 822 O 79.9632 -1.82704 -0.847429 0
M  V30 823 C 77.0282 -3.2705 -1.15062 0
M  V30 824 C 76.0892 -4.27228 -0.421293 0
M  V30 825 C 75.3222 -5.15722 -1.37355 0
M  V30 826 O 75.5452 -5.07176 -2.61014 0
M  V30 827 O 74.4792 -5.95383 -0.883355 0
M  V30 828 H 78.3052 -2.98309 0.569708 0
M  V30 829 H 75.8902 -1.45373 0.344535 0
M  V30 830 H 77.7722 -3.84381 -1.72712 0
M  V30 831 H 76.4472 -2.65451 -1.8525 0
M  V30 832 H 75.3542 -3.7358 0.197085 0
M  V30 833 H 76.6872 -4.91616 0.239641 0
M  V30 834 N 78.3393 -0.321999 -1.54275 0
M  V30 835 C 79.5853 0.281461 -2.00837 0
M  V30 836 C 79.9183 1.51909 -1.20985 0
M  V30 837 O 79.1933 1.923 -0.291733 0
M  V30 838 C 79.4763 0.617162 -3.54772 0
M  V30 839 C 79.3293 -0.631064 -4.45351 0
M  V30 840 C 80.6483 1.43542 -4.16033 0
M  V30 841 H 77.7673 0.100826 -0.730071 0
M  V30 842 H 80.4093 -0.438268 -1.84876 0
M  V30 843 H 78.5593 1.23034 -3.68504 0
M  V30 844 H 80.2313 -1.26934 -4.43492 0
M  V30 845 H 78.4743 -1.26025 -4.15091 0
M  V30 846 H 79.1453 -0.351735 -5.50878 0
M  V30 847 H 81.6213 0.917134 -4.05867 0
M  V30 848 H 80.4973 1.63907 -5.23856 0
M  V30 849 H 80.7583 2.43108 -3.69257 0
M  V30 850 N 79.8174 1.5752 -0.0501392 0
M  V30 851 C 81.0664 1.91827 0.623328 0
M  V30 852 C 81.3794 0.930222 1.72065 0
M  V30 853 O 82.5854 1.1653 2.4522 0
M  V30 854 C 81.0414 3.40692 1.16003 0
M  V30 855 C 80.6494 4.479 0.0948811 0
M  V30 856 C 82.3934 3.84034 1.80881 0
M  V30 857 C 80.3004 5.87879 0.644411 0
M  V30 858 H 79.2304 0.715918 0.236596 0
M  V30 859 H 81.8814 1.83115 -0.118861 0
M  V30 860 H 80.2634 3.44405 1.9545 0
M  V30 861 H 81.4374 4.55775 -0.678675 0
M  V30 862 H 79.7524 4.13892 -0.45637 0
M  V30 863 H 82.3494 4.85984 2.22988 0
M  V30 864 H 82.6924 3.20225 2.6601 0
M  V30 865 H 83.2254 3.82833 1.0809 0
M  V30 866 H 79.9644 6.55282 -0.169229 0
M  V30 867 H 79.4844 5.83567 1.38598 0
M  V30 868 H 81.1634 6.37098 1.12763 0
M  V30 869 N 81.2955 -0.223234 1.56011 0
M  V30 870 C 82.7115 -0.572856 1.48965 0
M  V30 871 C 82.9115 -1.87225 0.74492 0
M  V30 872 O 81.9675 -2.50899 0.283896 0
M  V30 873 C 83.2805 -0.653646 2.9351 0
M  V30 874 C 84.8285 -0.744386 3.0402 0
M  V30 875 C 85.3035 -0.856535 4.49919 0
M  V30 876 N 86.7945 -0.9208 4.53955 0
M  V30 877 C 87.5295 -1.02726 5.64123 0
M  V30 878 N 87.0255 -1.09777 6.84047 0
M  V30 879 N 88.8185 -1.06226 5.51971 0
M  V30 880 H 80.9695 0.629462 2.02858 0
M  V30 881 H 83.2325 0.220621 0.921971 0
M  V30 882 H 82.9385 0.231518 3.50937 0
M  V30 883 H 82.8125 -1.51781 3.45315 0
M  V30 884 H 85.1995 -1.61999 2.46658 0
M  V30 885 H 85.2805 0.14541 2.55386 0
M  V30 886 H 84.9245 0.0146069 5.07898 0
M  V30 887 H 84.8545 -1.76172 4.96257 0
M  V30 888 H 87.3455 -0.876694 3.6759 0
M  V30 889 H 87.6585 -1.17872 7.63758 0
M  V30 890 H 86.0035 -1.06693 6.86762 0
M  V30 891 H 89.1945 -1.00382 4.5721 0
M  V30 892 H 89.3675 -1.14177 6.37862 0
M  V30 893 N 82.7736 -1.49793 -0.48987 0
M  V30 894 C 83.7036 -1.70201 -1.59856 0
M  V30 895 C 84.6846 -0.55076 -1.60937 0
M  V30 896 O 85.8696 -0.787841 -1.77501 0
M  V30 897 C 82.9996 -1.77882 -2.98287 0
M  V30 898 C 81.9536 -2.92907 -3.12073 0
M  V30 899 C 81.2796 -2.85712 -4.51965 0
M  V30 900 C 82.5796 -4.3369 -2.91051 0
M  V30 901 H 84.2736 -2.63025 -1.43032 0
M  V30 902 H 81.8196 -1.26574 -0.686664 0
M  V30 903 H 83.7726 -1.90744 -3.75759 0
M  V30 904 H 82.4966 -0.816653 -3.16225 0
M  V30 905 H 81.1556 -2.79665 -2.37029 0
M  V30 906 H 80.8036 -1.8738 -4.66795 0
M  V30 907 H 80.5036 -3.62921 -4.62128 0
M  V30 908 H 82.0276 -3.00598 -5.31482 0
M  V30 909 H 83.4416 -4.47555 -3.58284 0
M  V30 910 H 81.8386 -5.12205 -3.12675 0
M  V30 911 H 82.9086 -4.47362 -1.87071 0
M  V30 912 N 84.2517 0.741722 -1.39055 0
M  V30 913 C 85.2147 1.83733 -1.37021 0
M  V30 914 C 86.2147 1.58542 -0.268534 0
M  V30 915 O 87.4047 1.66067 -0.526076 0
M  V30 916 C 84.5367 3.2141 -1.13617 0
M  V30 917 H 85.7297 1.86941 -2.34506 0
M  V30 918 H 83.2827 0.944676 -1.24521 0
M  V30 919 H 84.0177 3.23865 -0.167863 0
M  V30 920 H 83.8027 3.4109 -1.93391 0
M  V30 921 H 85.2927 4.01477 -1.14918 0
M  V30 922 N 85.7298 1.2412 0.971189 0
M  V30 923 C 86.6618 0.988349 2.06795 0
M  V30 924 C 87.6748 -0.0409541 1.62748 0
M  V30 925 O 88.8638 0.195673 1.77424 0
M  V30 926 C 85.9638 0.469023 3.35639 0
M  V30 927 C 85.1368 1.56065 4.08611 0
M  V30 928 C 84.1958 1.04458 5.15728 0
M  V30 929 O 83.2218 1.73553 5.42096 0
M  V30 930 N 84.4238 -0.122817 5.8037 0
M  V30 931 H 87.1888 1.93265 2.29061 0
M  V30 932 H 84.7498 1.15102 1.13856 0
M  V30 933 H 86.7418 0.108613 4.04554 0
M  V30 934 H 85.3118 -0.380919 3.1027 0
M  V30 935 H 84.5318 2.09341 3.34021 0
M  V30 936 H 85.8198 2.29449 4.54126 0
M  V30 937 H 85.2178 -0.700563 5.61345 0
M  V30 938 H 83.7748 -0.424404 6.50417 0
M  V30 939 N 87.2079 -1.17134 1.05439 0
M  V30 940 C 88.4849 -1.83411 0.679699 0
M  V30 941 C 88.8649 -1.9368 -0.839726 0
M  V30 942 O 88.2129 -1.47325 -1.74664 0
M  V30 943 C 88.4229 -3.20918 1.37159 0
M  V30 944 C 89.7709 -3.96796 1.51123 0
M  V30 945 O 90.7949 -3.30406 1.3308 0
M  V30 946 O 89.6539 -5.15778 1.80651 0
M  V30 947 H 86.7479 -0.79154 0.239569 0
M  V30 948 H 89.2939 -1.24411 1.15413 0
M  V30 949 H 88.0659 -3.08428 2.40807 0
M  V30 950 H 87.6889 -3.87587 0.886674 0
M  V30 951 N 88.686 -0.835752 -1.33615 0
M  V30 952 C 89.649 -0.272 -2.2758 0
M  V30 953 C 90.649 0.557487 -1.50827 0
M  V30 954 O 91.839 0.37173 -1.70188 0
M  V30 955 C 88.971 0.617173 -3.35267 0
M  V30 956 H 90.164 -1.10111 -2.78954 0
M  V30 957 H 87.717 -0.608594 -1.43965 0
M  V30 958 H 88.452 1.46884 -2.89129 0
M  V30 959 H 88.237 0.0237066 -3.92093 0
M  V30 960 H 89.727 1.005 -4.05326 0
M  V30 961 N 90.1641 1.46063 -0.591896 0
M  V30 962 C 91.0741 2.34192 0.13831 0
M  V30 963 C 92.0901 1.50305 0.876608 0
M  V30 964 O 93.2661 1.8315 0.837728 0
M  V30 965 C 90.3311 3.27656 1.13326 0
M  V30 966 C 89.3921 4.27445 0.39863 0
M  V30 967 C 88.6251 5.16443 1.34618 0
M  V30 968 O 88.8481 5.08553 2.58321 0
M  V30 969 O 87.7821 5.95843 0.851768 0
M  V30 970 H 91.6081 2.98002 -0.58552 0
M  V30 971 H 89.1931 1.45188 -0.352239 0
M  V30 972 H 91.0751 3.85291 1.70671 0
M  V30 973 H 89.7501 2.6643 1.83839 0
M  V30 974 H 88.6571 3.73471 -0.216895 0
M  V30 975 H 89.9901 4.91482 -0.265709 0
M  V30 976 N 91.6422 0.330177 1.54103 0
M  V30 977 C 92.8882 -0.270806 2.00984 0
M  V30 978 C 93.2212 -1.51265 1.21789 0
M  V30 979 O 92.4962 -1.92142 0.301927 0
M  V30 980 C 92.7792 -0.598339 3.55094 0
M  V30 981 C 92.6322 0.654674 4.4501 0
M  V30 982 C 93.9512 -1.41334 4.16789 0
M  V30 983 H 91.0702 -0.0969531 0.730595 0
M  V30 984 H 93.7122 0.448066 1.84641 0
M  V30 985 H 91.8622 -1.21078 3.69151 0
M  V30 986 H 93.5342 1.29285 4.42813 0
M  V30 987 H 91.7772 1.28224 4.14416 0
M  V30 988 H 92.4482 0.380944 5.50684 0
M  V30 989 H 94.9242 -0.895597 4.06347 0
M  V30 990 H 93.8002 -1.61127 5.24718 0
M  V30 991 H 94.0612 -2.41146 3.70541 0
M  V30 992 N 93.1203 -1.57491 0.0584922 0
M  V30 993 C 94.0303 -2.15448 -0.928414 0
M  V30 994 C 95.0463 -1.11416 -1.3365 0
M  V30 995 O 96.2223 -1.4362 -1.41193 0
M  V30 996 C 93.2873 -2.69393 -2.18239 0
M  V30 997 C 92.3483 -3.88249 -1.83196 0
M  V30 998 C 91.5813 -4.39613 -3.02616 0
M  V30 999 O 91.8043 -3.90023 -4.16219 0
M  V30 1000 O 90.7383 -5.31111 -2.83204 0
M  V30 1001 H 94.5643 -3.00112 -0.465483 0
M  V30 1002 H 92.1493 -1.48499 -0.163826 0
M  V30 1003 H 94.0313 -3.04026 -2.91798 0
M  V30 1004 H 92.7063 -1.87796 -2.63656 0
M  V30 1005 H 91.6133 -3.58492 -1.06931 0
M  V30 1006 H 92.9463 -4.71098 -1.42573 0
M  V30 1007 N 94.5984 0.214957 -1.56127 0
M  V30 1008 C 95.5284 1.2695 -1.95974 0
M  V30 1009 C 96.5094 1.48539 -0.828868 0
M  V30 1010 O 97.6944 1.60611 -1.09168 0
M  V30 1011 C 94.8244 2.61794 -2.28214 0
M  V30 1012 C 93.7784 2.54851 -3.43853 0
M  V30 1013 C 93.1044 3.93785 -3.61715 0
M  V30 1014 C 94.4044 2.09065 -4.78632 0
M  V30 1015 H 96.0984 0.93846 -2.84312 0
M  V30 1016 H 93.6444 0.449996 -1.36788 0
M  V30 1017 H 95.5974 3.35731 -2.54682 0
M  V30 1018 H 94.3214 2.96599 -1.36736 0
M  V30 1019 H 92.9804 1.8337 -3.17444 0
M  V30 1020 H 92.6284 4.25908 -2.67602 0
M  V30 1021 H 92.3284 3.90019 -4.39498 0
M  V30 1022 H 93.8524 4.69374 -3.90539 0
M  V30 1023 H 95.2664 2.7275 -5.04262 0
M  V30 1024 H 93.6634 2.16346 -5.59745 0
M  V30 1025 H 94.7334 1.04315 -4.73547 0
M  V30 1026 N 96.0765 1.50051 0.48192 0
M  V30 1027 C 96.9865 1.7089 1.60728 0
M  V30 1028 C 98.0025 0.591788 1.63627 0
M  V30 1029 O 99.1785 0.868817 1.81696 0
M  V30 1030 C 96.2435 1.78855 2.97005 0
M  V30 1031 C 95.3045 3.02537 3.04581 0
M  V30 1032 C 94.5375 3.10112 4.34357 0
M  V30 1033 O 94.7605 2.24765 5.24249 0
M  V30 1034 O 93.6945 4.02747 4.47301 0
M  V30 1035 H 97.5205 2.66264 1.46072 0
M  V30 1036 H 95.1055 1.34018 0.660264 0
M  V30 1037 H 96.9875 1.86336 3.77964 0
M  V30 1038 H 95.6625 0.866628 3.11883 0
M  V30 1039 H 94.5695 3.00563 2.22739 0
M  V30 1040 H 95.9025 3.94272 2.94636 0
M  V30 1041 N 97.5546 -0.734337 1.39446 0
M  V30 1042 C 98.9706 -1.03997 1.21065 0
M  V30 1043 C 99.1706 -2.01369 0.0727019 0
M  V30 1044 O 98.2266 -2.45856 -0.575426 0
M  V30 1045 C 99.5396 -1.60163 2.54496 0
M  V30 1046 C 101.088 -1.7224 2.61347 0
M  V30 1047 C 101.563 -2.31814 3.95002 0
M  V30 1048 N 103.054 -2.39223 3.96644 0
M  V30 1049 C 103.789 -2.86258 4.96834 0
M  V30 1050 N 103.285 -3.33184 6.07421 0
M  V30 1051 N 105.078 -2.85473 4.84213 0
M  V30 1052 H 97.2286 -0.0885624 2.12215 0
M  V30 1053 H 99.4916 -0.10191 0.942506 0
M  V30 1054 H 99.1976 -0.960811 3.38321 0
M  V30 1055 H 99.0716 -2.5896 2.74262 0
M  V30 1056 H 101.459 -2.35443 1.77906 0
M  V30 1057 H 101.54 -0.720939 2.4543 0
M  V30 1058 H 101.184 -1.69238 4.78875 0
M  V30 1059 H 101.114 -3.32638 4.08239 0
M  V30 1060 H 103.605 -2.06057 3.16779 0
M  V30 1061 H 103.918 -3.67586 6.7978 0
M  V30 1062 H 102.263 -3.31191 6.11013 0
M  V30 1063 H 105.454 -2.48136 3.96921 0
M  V30 1064 H 105.627 -3.21814 5.62441 0
M  V30 1065 N 99.0327 -1.24633 -0.964593 0
M  V30 1066 C 99.9647 -0.999302 -2.06268 0
M  V30 1067 C 100.978 0.0323226 -1.62768 0
M  V30 1068 O 102.167 -0.205079 -1.77318 0
M  V30 1069 C 99.2667 -0.486816 -3.35385 0
M  V30 1070 C 98.4397 -1.5823 -4.07777 0
M  V30 1071 C 97.4987 -1.07191 -5.15166 0
M  V30 1072 O 96.5247 -1.76426 -5.41168 0
M  V30 1073 N 97.7267 0.0920373 -5.80427 0
M  V30 1074 H 100.492 -1.94477 -2.28033 0
M  V30 1075 H 98.0527 -1.15704 -1.13244 0
M  V30 1076 H 100.045 -0.130066 -4.04491 0
M  V30 1077 H 98.6147 0.364459 -3.10468 0
M  V30 1078 H 97.8347 -2.11109 -3.32906 0
M  V30 1079 H 99.1227 -2.31854 -4.52903 0
M  V30 1080 H 98.5207 0.670784 -5.61709 0
M  V30 1081 H 97.0777 0.389905 -6.50633 0
M  V30 1082 N 100.511 1.16574 -1.06058 0
M  V30 1083 C 101.927 1.3904 -0.783585 0
M  V30 1084 C 102.127 1.91784 0.618145 0
M  V30 1085 O 101.183 2.11511 1.37911 0
M  V30 1086 C 102.496 2.37329 -1.84649 0
M  V30 1087 C 104.044 2.51018 -1.86973 0
M  V30 1088 C 104.519 3.52588 -2.92311 0
M  V30 1089 N 106.01 3.60113 -2.91329 0
M  V30 1090 C 106.745 4.38486 -3.69482 0
M  V30 1091 N 106.241 5.20302 -4.57447 0
M  V30 1092 N 108.034 4.33446 -3.57885 0
M  V30 1093 H 100.185 0.806725 -1.96483 0
M  V30 1094 H 102.448 0.417117 -0.851303 0
M  V30 1095 H 102.154 2.05663 -2.85299 0
M  V30 1096 H 102.028 3.36946 -1.6955 0
M  V30 1097 H 104.415 2.81989 -0.869827 0
M  V30 1098 H 104.496 1.51445 -2.0615 0
M  V30 1099 H 104.14 3.22354 -3.92492 0
M  V30 1100 H 104.07 4.51886 -2.70383 0
M  V30 1101 H 106.561 3.01707 -2.27555 0
M  V30 1102 H 106.874 5.77311 -5.13743 0
M  V30 1103 H 105.219 5.19653 -4.61503 0
M  V30 1104 H 108.41 3.68586 -2.88551 0
M  V30 1105 H 108.583 4.94279 -4.19037 0
M  V30 1106 N 101.989 0.842826 1.3317 0
M  V30 1107 C 103.237 0.439577 1.97262 0
M  V30 1108 C 103.558 -1.00548 1.67078 0
M  V30 1109 O 102.828 -1.70098 0.971779 0
M  V30 1110 H 101.408 0.159558 0.72976 0
M  V30 1111 H 104.07 1.07665 1.62463 0
M  V30 1112 H 103.166 0.574886 3.0676 0
M  V30 1113 N 103.467 -1.45747 0.599634 0
M  V30 1114 C 104.397 -2.33235 -0.111306 0
M  V30 1115 C 105.378 -1.46359 -0.866781 0
M  V30 1116 O 106.563 -1.75146 -0.838904 0
M  V30 1117 C 103.693 -3.28932 -1.11451 0
M  V30 1118 C 102.647 -4.25381 -0.472772 0
M  V30 1119 C 101.973 -5.1071 -1.58365 0
M  V30 1120 C 103.273 -5.18831 0.600948 0
M  V30 1121 H 104.967 -2.92927 0.61919 0
M  V30 1122 H 102.513 -1.40857 0.299215 0
M  V30 1123 H 104.466 -3.89002 -1.62036 0
M  V30 1124 H 103.19 -2.67381 -1.8755 0
M  V30 1125 H 101.849 -3.66598 0.0121472 0
M  V30 1126 H 101.497 -4.45533 -2.33473 0
M  V30 1127 H 101.197 -5.7604 -1.15982 0
M  V30 1128 H 102.721 -5.73647 -2.09194 0
M  V30 1129 H 104.135 -5.73019 0.179491 0
M  V30 1130 H 102.532 -5.92595 0.946076 0
M  V30 1131 H 103.602 -4.6174 1.48068 0
M  V30 1132 N 104.945 -0.338344 -1.53925 0
M  V30 1133 C 105.875 0.51328 -2.27789 0
M  V30 1134 C 106.856 1.107 -1.29149 0
M  V30 1135 O 108.041 1.12937 -1.57984 0
M  V30 1136 C 105.171 1.66697 -3.04679 0
M  V30 1137 C 104.125 1.20183 -4.1078 0
M  V30 1138 C 103.451 2.44363 -4.75595 0
M  V30 1139 C 104.751 0.30605 -5.21403 0
M  V30 1140 H 106.445 -0.102883 -2.99223 0
M  V30 1141 H 103.991 -0.0509219 -1.4391 0
M  V30 1142 H 105.944 2.26915 -3.55088 0
M  V30 1143 H 104.668 2.30995 -2.30887 0
M  V30 1144 H 103.327 0.622499 -3.61276 0
M  V30 1145 H 102.975 3.07057 -3.98403 0
M  V30 1146 H 102.675 2.13925 -5.47275 0
M  V30 1147 H 104.199 3.05317 -5.28786 0
M  V30 1148 H 105.613 0.814929 -5.67478 0
M  V30 1149 H 104.01 0.0937929 -6.00027 0
M  V30 1150 H 105.08 -0.65921 -4.80398 0
M  V30 1151 N 106.423 1.57458 -0.0668435 0
M  V30 1152 C 107.355 2.09413 0.931601 0
M  V30 1153 C 108.368 1.02522 1.26464 0
M  V30 1154 O 109.557 1.30049 1.22269 0
M  V30 1155 C 106.657 2.53537 2.24882 0
M  V30 1156 C 105.83 3.83944 2.09537 0
M  V30 1157 C 104.889 4.14214 3.2452 0
M  V30 1158 O 103.915 4.83891 2.9973 0
M  V30 1159 N 105.117 3.67367 4.49469 0
M  V30 1160 H 107.882 2.95699 0.488048 0
M  V30 1161 H 105.443 1.61462 0.119009 0
M  V30 1162 H 107.435 2.70853 3.00701 0
M  V30 1163 H 106.005 1.72415 2.60753 0
M  V30 1164 H 105.225 3.76057 1.18215 0
M  V30 1165 H 106.513 4.69312 1.96529 0
M  V30 1166 H 105.911 3.11068 4.72497 0
M  V30 1167 H 104.468 3.89891 5.2233 0
M  V30 1168 N 107.901 -0.206675 1.56239 0
M  V30 1169 C 108.833 -1.27997 1.9013 0
M  V30 1170 C 109.846 -1.42299 0.790883 0
M  V30 1171 O 111.035 -1.42931 1.06925 0
M  V30 1172 C 108.135 -2.65368 2.10792 0
M  V30 1173 C 107.308 -2.72824 3.41886 0
M  V30 1174 C 106.367 -3.9131 3.51799 0
M  V30 1175 O 105.393 -3.78953 4.24716 0
M  V30 1176 N 106.595 -5.06265 2.84035 0
M  V30 1177 H 109.36 -0.992444 2.82791 0
M  V30 1178 H 106.921 -0.396652 1.56966 0
M  V30 1179 H 108.913 -3.43039 2.14724 0
M  V30 1180 H 107.483 -2.86657 1.24685 0
M  V30 1181 H 106.703 -1.81515 3.49923 0
M  V30 1182 H 107.991 -2.74786 4.28217 0
M  V30 1183 H 107.389 -5.19203 2.246 0
M  V30 1184 H 105.946 -5.81925 2.93609 0
M  V30 1185 N 109.379 -1.50304 -0.473955 0
M  V30 1186 C 110.628 -1.60392 -1.22301 0
M  V30 1187 C 110.941 -0.308411 -1.93153 0
M  V30 1188 O 112.147 -0.288156 -2.69966 0
M  V30 1189 C 110.603 -2.83109 -2.2221 0
M  V30 1190 C 110.211 -4.19524 -1.57173 0
M  V30 1191 C 111.955 -3.0254 -2.97775 0
M  V30 1192 C 109.862 -5.33431 -2.55353 0
M  V30 1193 H 108.792 -0.597286 -0.460179 0
M  V30 1194 H 111.443 -1.76731 -0.493803 0
M  V30 1195 H 109.825 -2.60322 -2.9841 0
M  V30 1196 H 110.999 -4.52554 -0.867824 0
M  V30 1197 H 109.314 -4.05674 -0.939002 0
M  V30 1198 H 111.911 -3.84811 -3.71248 0
M  V30 1199 H 112.254 -2.14154 -3.56992 0
M  V30 1200 H 112.787 -3.25494 -2.28688 0
M  V30 1201 H 109.526 -6.23962 -2.00878 0
M  V30 1202 H 109.046 -5.04823 -3.23904 0
M  V30 1203 H 110.725 -5.63887 -3.17239 0
M  V30 1204 N 110.857 0.726932 -1.39834 0
M  V30 1205 C 112.105 1.4837 -1.37225 0
M  V30 1206 C 112.426 1.94979 0.0284857 0
M  V30 1207 O 111.696 1.69555 0.981213 0
M  V30 1208 H 110.276 0.55043 -0.505011 0
M  V30 1209 H 112.938 0.862468 -1.74778 0
M  V30 1210 H 112.034 2.36198 -2.04003 0
M  V30 1211 N 112.336 1.25143 0.95797 0
M  V30 1212 C 113.613 1.00472 1.67823 0
M  V30 1213 C 113.993 -0.470056 2.058 0
M  V30 1214 O 113.341 -1.44663 1.76875 0
M  V30 1215 C 113.551 1.9372 2.90299 0
M  V30 1216 C 114.899 2.21371 3.62326 0
M  V30 1217 O 115.923 1.91451 3.00375 0
M  V30 1218 O 114.782 2.72231 4.7387 0
M  V30 1219 H 111.876 0.380752 0.734137 0
M  V30 1220 H 114.422 1.36283 1.01119 0
M  V30 1221 H 113.194 2.93316 2.59001 0
M  V30 1222 H 112.817 1.58286 3.64735 0
M  V30 1223 N 113.814 -1.1601 1.06675 0
M  V30 1224 C 114.777 -2.18724 0.685001 0
M  V30 1225 C 115.777 -1.58496 -0.271246 0
M  V30 1226 O 116.967 -1.74119 -0.0531156 0
M  V30 1227 C 114.099 -3.40899 0.00853648 0
M  V30 1228 H 115.292 -2.54011 1.59431 0
M  V30 1229 H 112.845 -1.30352 0.862441 0
M  V30 1230 H 113.58 -3.11173 -0.913337 0
M  V30 1231 H 113.365 -3.8587 0.696204 0
M  V30 1232 H 114.855 -4.16886 -0.24414 0
M  V30 1233 N 115.292 -0.849877 -1.32721 0
M  V30 1234 C 116.222 -0.306308 -2.31482 0
M  V30 1235 C 117.203 0.591952 -1.59468 0
M  V30 1236 O 118.388 0.513199 -1.87296 0
M  V30 1237 C 115.518 0.510204 -3.43532 0
M  V30 1238 C 114.472 -0.293209 -4.26994 0
M  V30 1239 C 113.798 0.647743 -5.30762 0
M  V30 1240 C 115.098 -1.51634 -4.99804 0
M  V30 1241 H 116.792 -1.13153 -2.77195 0
M  V30 1242 H 114.338 -0.545553 -1.33266 0
M  V30 1243 H 116.291 0.900856 -4.11658 0
M  V30 1244 H 115.015 1.36874 -2.96535 0
M  V30 1245 H 113.674 -0.665555 -3.60508 0
M  V30 1246 H 113.322 1.50299 -4.8002 0
M  V30 1247 H 113.022 0.11422 -5.87489 0
M  V30 1248 H 114.546 1.03567 -6.01753 0
M  V30 1249 H 115.96 -1.19824 -5.60638 0
M  V30 1250 H 114.357 -1.98745 -5.66234 0
M  V30 1251 H 115.427 -2.28018 -4.27943 0
M  V30 1252 N 116.77 1.45427 -0.607355 0
M  V30 1253 C 117.995 2.07124 -0.107006 0
M  V30 1254 C 118.42 1.44906 1.19933 0
M  V30 1255 O 117.778 0.541687 1.73019 0
M  V30 1256 C 117.826 3.60595 0.0194119 0
M  V30 1257 O 116.93 3.98285 1.0697 0
M  V30 1258 H 116.271 0.659868 -0.0739597 0
M  V30 1259 H 118.801 1.86683 -0.837297 0
M  V30 1260 H 118.811 4.07419 0.2177 0
M  V30 1261 H 117.486 4.05266 -0.934453 0
M  V30 1262 H 116.063 3.63133 0.847889 0
M  V30 1263 N 118.248 0.346503 1.53744 0
M  V30 1264 C 119.473 -0.253074 2.0585 0
M  V30 1265 C 119.898 -1.43202 1.21962 0
M  V30 1266 O 119.256 -1.79783 0.234073 0
M  V30 1267 C 119.304 -0.643193 3.54817 0
M  V30 1268 O 118.408 -1.74286 3.73762 0
M  V30 1269 H 117.749 -0.0413583 0.662711 0
M  V30 1270 H 120.279 0.501574 1.98357 0
M  V30 1271 H 120.289 -0.919526 3.97503 0
M  V30 1272 H 118.964 0.218966 4.15323 0
M  V30 1273 H 117.541 -1.46356 3.42979 0
M  V30 1274 N 119.726 -1.57421 0.075193 0
M  V30 1275 C 120.658 -2.09904 -0.920483 0
M  V30 1276 C 121.671 -1.03191 -1.25918 0
M  V30 1277 O 122.86 -1.30695 -1.21577 0
M  V30 1278 C 119.96 -2.54726 -2.23534 0
M  V30 1279 C 119.133 -3.8505 -2.07498 0
M  V30 1280 C 118.192 -4.15929 -3.22319 0
M  V30 1281 O 117.218 -4.85474 -2.9716 0
M  V30 1282 N 118.42 -3.69745 -4.47514 0
M  V30 1283 H 121.185 -2.95954 -0.472359 0
M  V30 1284 H 118.746 -1.61523 -0.110444 0
M  V30 1285 H 120.738 -2.72443 -2.9926 0
M  V30 1286 H 119.308 -1.73795 -2.59835 0
M  V30 1287 H 118.528 -3.76679 -1.16219 0
M  V30 1288 H 119.816 -4.70348 -1.94038 0
M  V30 1289 H 119.214 -3.13569 -4.7084 0
M  V30 1290 H 117.771 -3.92655 -5.20255 0
M  V30 1291 N 121.204 0.198386 -1.56346 0
M  V30 1292 C 122.62 0.549085 -1.49857 0
M  V30 1293 C 122.82 1.86016 -0.774611 0
M  V30 1294 O 121.876 2.50416 -0.323776 0
M  V30 1295 C 123.189 0.606868 -2.94512 0
M  V30 1296 C 124.737 0.695925 -3.05165 0
M  V30 1297 C 125.212 0.784848 -4.51225 0
M  V30 1298 N 126.703 0.848463 -4.55363 0
M  V30 1299 C 127.438 0.937378 -5.65686 0
M  V30 1300 N 126.934 0.9888 -6.85707 0
M  V30 1301 N 128.727 0.974312 -5.53592 0
M  V30 1302 H 120.878 -0.661655 -2.01831 0
M  V30 1303 H 123.141 -0.235261 -0.918344 0
M  V30 1304 H 122.847 -0.28732 -3.50524 0
M  V30 1305 H 122.721 1.46268 -3.47686 0
M  V30 1306 H 125.108 1.58055 -2.49204 0
M  V30 1307 H 125.189 -0.186022 -2.55123 0
M  V30 1308 H 124.833 -0.0954072 -5.0781 0
M  V30 1309 H 124.763 1.68255 -4.98997 0
M  V30 1310 H 127.254 0.818103 -3.68938 0
M  V30 1311 H 127.567 1.05707 -7.65536 0
M  V30 1312 H 125.912 0.957534 -6.88372 0
M  V30 1313 H 129.103 0.930954 -4.58749 0
M  V30 1314 H 129.276 1.04015 -6.39597 0
M  V30 1315 N 122.682 1.50554 0.465978 0
M  V30 1316 C 123.93 1.61479 1.21528 0
M  V30 1317 C 124.251 0.319596 1.92363 0
M  V30 1318 O 123.521 -0.663194 1.84333 0
M  V30 1319 H 122.101 0.595055 0.451573 0
M  V30 1320 H 124.763 1.87355 0.53704 0
M  V30 1321 H 123.859 2.42846 1.96042 0
M  V30 1322 N 124.16 -0.719506 1.40217 0
M  V30 1323 C 125.576 -1.02707 1.22161 0
M  V30 1324 C 125.776 -2.0128 0.0940557 0
M  V30 1325 O 124.832 -2.46452 -0.549318 0
M  V30 1326 C 126.145 -1.57454 2.56181 0
M  V30 1327 C 127.693 -1.69458 2.63159 0
M  V30 1328 C 128.168 -2.27611 3.97438 0
M  V30 1329 N 129.659 -2.35002 3.99159 0
M  V30 1330 C 130.394 -2.80972 4.99842 0
M  V30 1331 N 129.89 -3.26723 6.10921 0
M  V30 1332 N 131.683 -2.80321 4.87213 0
M  V30 1333 H 123.834 -0.0660492 2.12297 0
M  V30 1334 H 126.097 -0.0919077 0.943534 0
M  V30 1335 H 125.803 -0.924873 3.39321 0
M  V30 1336 H 125.677 -2.56036 2.76993 0
M  V30 1337 H 128.064 -2.33543 1.80393 0
M  V30 1338 H 128.145 -0.694867 2.46181 0
M  V30 1339 H 127.789 -1.6415 4.80643 0
M  V30 1340 H 127.719 -3.2829 4.11744 0
M  V30 1341 H 130.21 -2.02685 3.18947 0
M  V30 1342 H 130.523 -3.60355 6.8364 0
M  V30 1343 H 128.868 -3.24692 6.14492 0
M  V30 1344 H 132.059 -2.43912 3.9953 0
M  V30 1345 H 132.232 -3.15831 5.65822 0
M  V30 1346 N 125.638 -1.25649 -0.95132 0
M  V30 1347 C 126.884 -1.10757 -1.69884 0
M  V30 1348 C 127.217 0.350061 -1.91019 0
M  V30 1349 O 126.492 1.25783 -1.48354 0
M  V30 1350 C 126.775 -1.86606 -3.07978 0
M  V30 1351 C 126.628 -3.40217 -2.94232 0
M  V30 1352 C 127.947 -1.65182 -4.07925 0
M  V30 1353 H 125.066 -0.40374 -0.616574 0
M  V30 1354 H 127.708 -1.54521 -1.10558 0
M  V30 1355 H 125.858 -1.49409 -3.58621 0
M  V30 1356 H 127.53 -3.87108 -2.50889 0
M  V30 1357 H 125.773 -3.67759 -2.30078 0
M  V30 1358 H 126.444 -3.88505 -3.92133 0
M  V30 1359 H 128.92 -1.9757 -3.66204 0
M  V30 1360 H 127.796 -2.20683 -5.02583 0
M  V30 1361 H 128.057 -0.593933 -4.38092 0
M  V30 1362 N 127.117 1.15442 -1.07289 0
M  V30 1363 C 128.528 1.67803 -0.818475 0
M  V30 1364 C 128.879 1.8489 0.656507 0
M  V30 1365 O 128.004 1.55176 1.50829 0
M  V30 1366 C 128.599 3.04805 -1.47917 0
M  V30 1367 C 127.158 3.54245 -1.27229 0
M  V30 1368 C 126.305 2.29986 -1.54925 0
M  V30 1369 H 129.256 0.996646 -1.23502 0
M  V30 1370 H 129.277 3.69702 -0.90005 0
M  V30 1371 H 128.789 2.92336 -2.55267 0
M  V30 1372 H 126.89 3.71956 -0.21899 0
M  V30 1373 H 127.003 4.35723 -1.99203 0
M  V30 1374 H 125.367 2.35496 -0.970242 0
M  V30 1375 H 126.15 2.20105 -2.63455 0
M  V30 1376 N 128.595 0.856903 1.32268 0
M  V30 1377 C 129.823 0.475439 2.01363 0
M  V30 1378 C 130.238 -0.928486 1.64392 0
M  V30 1379 O 129.595 -1.60624 0.866387 0
M  V30 1380 C 129.646 0.607545 3.56358 0
M  V30 1381 O 129.367 1.95617 3.92002 0
M  V30 1382 C 130.868 0.225382 4.42727 0
M  V30 1383 H 128.088 0.186636 0.644521 0
M  V30 1384 H 130.632 1.15446 1.68797 0
M  V30 1385 H 128.787 -0.0237719 3.87393 0
M  V30 1386 H 129.201 1.95455 4.86721 0
M  V30 1387 H 130.675 0.368813 5.50767 0
M  V30 1388 H 131.152 -0.834369 4.31202 0
M  V30 1389 H 131.758 0.831864 4.17085 0
M  V30 1390 N 130.073 -1.45103 0.615059 0
M  V30 1391 C 131.036 -2.29025 -0.0895485 0
M  V30 1392 C 132.036 -1.40174 -0.787906 0
M  V30 1393 O 133.226 -1.62217 -0.634933 0
M  V30 1394 C 130.358 -3.21376 -1.13711 0
M  V30 1395 H 131.551 -2.92807 0.648382 0
M  V30 1396 H 129.104 -1.51749 0.374444 0
M  V30 1397 H 129.839 -2.6241 -1.90556 0
M  V30 1398 H 129.624 -3.86834 -0.640475 0
M  V30 1399 H 131.114 -3.84459 -1.63036 0
M  V30 1400 N 131.551 -0.354651 -1.53558 0
M  V30 1401 C 132.514 0.484566 -2.24019 0
M  V30 1402 C 133.514 1.01861 -1.24422 0
M  V30 1403 O 134.704 0.906097 -1.4878 0
M  V30 1404 C 131.836 1.67615 -2.96847 0
M  V30 1405 H 133.029 -0.131843 -2.9961 0
M  V30 1406 H 130.582 -0.106165 -1.55939 0
M  V30 1407 H 131.317 2.33095 -2.25471 0
M  V30 1408 H 131.102 1.30029 -3.69912 0
M  V30 1409 H 132.592 2.27114 -3.50441 0
M  V30 1410 N 133.029 1.57378 -0.0835403 0
M  V30 1411 C 134.44 1.81261 0.447358 0
M  V30 1412 C 134.791 0.998331 1.68902 0
M  V30 1413 O 133.916 0.224282 2.15235 0
M  V30 1414 C 134.511 3.28767 0.818386 0
M  V30 1415 C 133.07 3.53455 1.29409 0
M  V30 1416 C 132.217 2.75831 0.285024 0
M  V30 1417 H 135.168 1.5566 -0.309115 0
M  V30 1418 H 135.189 3.41459 1.67887 0
M  V30 1419 H 134.701 3.88006 -0.0855019 0
M  V30 1420 H 132.802 2.99534 2.21608 0
M  V30 1421 H 132.915 4.62128 1.2639 0
M  V30 1422 H 131.279 2.42947 0.764767 0
M  V30 1423 H 132.062 3.37813 -0.611341 0
M  V30 1424 N 134.507 -0.190092 1.56449 0
M  V30 1425 C 135.918 -0.754312 1.70784 0
M  V30 1426 C 136.269 -1.83631 0.690951 0
M  V30 1427 O 135.394 -2.15868 -0.151604 0
M  V30 1428 C 135.989 -1.37503 3.09642 0
M  V30 1429 C 134.548 -1.88628 3.25725 0
M  V30 1430 C 133.695 -0.758098 2.66736 0
M  V30 1431 H 136.646 0.0350524 1.58661 0
M  V30 1432 H 136.667 -2.2445 3.0725 0
M  V30 1433 H 136.179 -0.587302 3.83631 0
M  V30 1434 H 134.28 -2.70103 2.56661 0
M  V30 1435 H 134.393 -2.04462 4.3328 0
M  V30 1436 H 132.757 -1.17369 2.26046 0
M  V30 1437 H 133.54 0.0174705 3.43296 0
M  V30 1438 N 135.985 -1.50799 -0.457987 0
M  V30 1439 C 136.948 -1.7005 -1.53674 0
M  V30 1440 C 137.948 -0.570881 -1.50325 0
M  V30 1441 O 139.138 -0.838126 -1.52712 0
M  V30 1442 C 136.27 -1.73788 -2.93276 0
M  V30 1443 H 137.463 -2.66306 -1.37917 0
M  V30 1444 H 135.016 -1.40477 -0.685271 0
M  V30 1445 H 135.751 -0.792717 -3.14462 0
M  V30 1446 H 135.536 -2.55864 -2.97113 0
M  V30 1447 H 137.026 -1.90591 -3.71571 0
M  V30 1448 N 137.463 0.71206 -1.40597 0
M  V30 1449 C 138.395 1.83704 -1.37061 0
M  V30 1450 C 139.408 1.60453 -0.275426 0
M  V30 1451 O 140.597 1.70262 -0.53602 0
M  V30 1452 C 137.697 3.20172 -1.11099 0
M  V30 1453 C 136.87 3.7059 -2.3234 0
M  V30 1454 C 135.929 4.85681 -2.02485 0
M  V30 1455 O 134.955 4.9815 -2.75382 0
M  V30 1456 N 136.157 5.71735 -1.00497 0
M  V30 1457 H 138.922 1.87235 -2.34016 0
M  V30 1458 H 136.483 0.893739 -1.34996 0
M  V30 1459 H 138.475 3.94768 -0.891064 0
M  V30 1460 H 137.045 3.11767 -0.227989 0
M  V30 1461 H 136.265 2.87085 -2.7014 0
M  V30 1462 H 137.553 4.01011 -3.13157 0
M  V30 1463 H 136.951 5.64275 -0.401298 0
M  V30 1464 H 135.508 6.463 -0.844942 0
M  V30 1465 N 138.941 1.26152 0.944643 0
M  V30 1466 C 140.352 1.10454 1.50522 0
M  V30 1467 C 140.703 -0.31635 1.93633 0
M  V30 1468 O 139.828 -1.20746 1.79581 0
M  V30 1469 C 140.423 1.99891 2.73549 0
M  V30 1470 C 138.982 1.88348 3.25886 0
M  V30 1471 C 138.129 1.93447 1.9868 0
M  V30 1472 H 141.08 1.39292 0.760489 0
M  V30 1473 H 141.101 1.54477 3.47732 0
M  V30 1474 H 140.613 3.03297 2.42141 0
M  V30 1475 H 138.714 0.878636 3.62092 0
M  V30 1476 H 138.827 2.73696 3.93227 0
M  V30 1477 H 137.191 1.37456 2.14425 0
M  V30 1478 H 137.974 2.98476 1.69607 0
M  V30 1479 N 140.419 -1.14872 1.07899 0
M  V30 1480 C 141.835 -1.37776 0.805606 0
M  V30 1481 C 142.035 -1.92743 -0.587555 0
M  V30 1482 O 141.091 -2.13678 -1.34528 0
M  V30 1483 C 142.404 -2.34361 1.88402 0
M  V30 1484 C 143.952 -2.48012 1.90942 0
M  V30 1485 C 144.427 -3.47893 2.97883 0
M  V30 1486 N 145.918 -3.55433 2.97021 0
M  V30 1487 C 146.653 -4.32553 3.76412 0
M  V30 1488 N 146.149 -5.12959 4.65666 0
M  V30 1489 N 147.942 -4.27697 3.64735 0
M  V30 1490 H 140.093 -0.775365 1.97742 0
M  V30 1491 H 142.356 -0.403521 0.857831 0
M  V30 1492 H 142.062 -2.01098 2.88535 0
M  V30 1493 H 141.936 -3.34206 1.74889 0
M  V30 1494 H 144.323 -2.8057 0.914579 0
M  V30 1495 H 144.404 -1.48147 2.08534 0
M  V30 1496 H 144.048 -3.16069 3.97571 0
M  V30 1497 H 143.978 -4.47527 2.77538 0
M  V30 1498 H 146.469 -2.98048 2.32326 0
M  V30 1499 H 146.782 -5.69065 5.22862 0
M  V30 1500 H 145.127 -5.12245 4.69712 0
M  V30 1501 H 148.318 -3.63949 2.94378 0
M  V30 1502 H 148.491 -4.8755 4.26848 0
M  V30 1503 N 141.898 -0.863906 -1.31812 0
M  V30 1504 C 143.144 -0.472535 -1.97218 0
M  V30 1505 C 143.477 0.971394 -1.68159 0
M  V30 1506 O 142.752 1.68309 -0.974798 0
M  V30 1507 C 143.035 -0.723054 -3.52766 0
M  V30 1508 C 142.888 -2.21608 -3.91421 0
M  V30 1509 C 144.207 -0.185522 -4.39709 0
M  V30 1510 H 141.326 -0.173158 -0.71637 0
M  V30 1511 H 143.968 -1.08403 -1.56041 0
M  V30 1512 H 142.118 -0.202577 -3.87971 0
M  V30 1513 H 143.79 -2.80334 -3.66347 0
M  V30 1514 H 142.033 -2.691 -3.40246 0
M  V30 1515 H 142.704 -2.34203 -4.99853 0
M  V30 1516 H 145.18 -0.630726 -4.11292 0
M  V30 1517 H 144.056 -0.390306 -5.47511 0
M  V30 1518 H 144.317 0.912229 -4.32586 0
M  V30 1519 N 143.376 1.44774 -0.622745 0
M  V30 1520 C 144.787 1.85546 -0.207226 0
M  V30 1521 C 145.138 1.52093 1.23944 0
M  V30 1522 O 144.263 0.95492 1.94191 0
M  V30 1523 C 144.858 3.36781 -0.369313 0
M  V30 1524 C 143.417 3.76399 -0.00836847 0
M  V30 1525 C 142.564 2.68664 -0.686651 0
M  V30 1526 H 145.515 1.3536 -0.828454 0
M  V30 1527 H 145.536 3.78453 0.394162 0
M  V30 1528 H 145.048 3.61098 -1.42231 0
M  V30 1529 H 143.149 3.57698 1.04322 0
M  V30 1530 H 143.262 4.7732 -0.412584 0
M  V30 1531 H 141.626 2.54404 -0.122777 0
M  V30 1532 H 142.409 2.95815 -1.74208 0
M  V30 1533 N 144.854 0.36279 1.53368 0
M  V30 1534 C 146.1 -0.228113 2.01513 0
M  V30 1535 C 146.433 -1.48648 1.2497 0
M  V30 1536 O 145.708 -1.91459 0.342616 0
M  V30 1537 C 145.991 -0.522884 3.56284 0
M  V30 1538 C 145.844 0.74892 4.43521 0
M  V30 1539 C 147.163 -1.32461 4.19693 0
M  V30 1540 H 144.282 -0.0814343 0.732487 0
M  V30 1541 H 146.924 0.48713 1.83649 0
M  V30 1542 H 145.074 -1.1322 3.71636 0
M  V30 1543 H 146.746 1.38648 4.39971 0
M  V30 1544 H 144.989 1.36986 4.11603 0
M  V30 1545 H 145.66 0.497667 5.49752 0
M  V30 1546 H 148.136 -0.809203 4.08156 0
M  V30 1547 H 147.012 -1.49961 5.28018 0
M  V30 1548 H 147.273 -2.33232 3.75573 0
M  V30 1549 N 146.332 -1.57332 0.0918853 0
M  V30 1550 C 147.56 -1.98574 -0.581048 0
M  V30 1551 C 147.975 -0.970903 -1.61923 0
M  V30 1552 O 147.332 0.0399054 -1.82456 0
M  V30 1553 C 147.383 -3.39872 -1.23164 0
M  V30 1554 O 147.104 -4.37469 -0.234989 0
M  V30 1555 C 148.605 -3.96099 -1.99049 0
M  V30 1556 H 145.825 -0.65261 -0.156018 0
M  V30 1557 H 148.369 -2.0379 0.170225 0
M  V30 1558 H 146.524 -3.35679 -1.93386 0
M  V30 1559 H 146.938 -5.19751 -0.70418 0
M  V30 1560 H 148.412 -4.97127 -2.39934 0
M  V30 1561 H 148.889 -3.3374 -2.85507 0
M  V30 1562 H 149.495 -4.03755 -1.3365 0
M  V30 1563 N 147.81 0.181792 -1.56548 0
M  V30 1564 C 149.221 0.745244 -1.71181 0
M  V30 1565 C 149.572 1.83262 -0.70068 0
M  V30 1566 O 148.697 2.15946 0.140154 0
M  V30 1567 C 149.292 1.35859 -3.10367 0
M  V30 1568 C 147.851 1.86898 -3.2672 0
M  V30 1569 C 146.998 0.743942 -2.67134 0
M  V30 1570 H 149.949 -0.0434661 -1.5864 0
M  V30 1571 H 149.97 2.22817 -3.08436 0
M  V30 1572 H 149.482 0.566948 -3.83937 0
M  V30 1573 H 147.583 2.68738 -2.5809 0
M  V30 1574 H 147.696 2.02162 -4.34359 0
M  V30 1575 H 146.06 1.16169 -2.26665 0
M  V30 1576 H 146.843 -0.035676 -3.43281 0
M  V30 1577 N 149.288 1.51039 0.449983 0
M  V30 1578 C 150.251 1.70863 1.5277 0
M  V30 1579 C 151.251 0.578846 1.5002 0
M  V30 1580 O 152.441 0.846213 1.52266 0
M  V30 1581 C 149.573 1.75341 2.9235 0
M  V30 1582 H 150.766 2.67034 1.36502 0
M  V30 1583 H 148.319 1.40838 0.677812 0
M  V30 1584 H 149.054 0.809383 3.14037 0
M  V30 1585 H 148.839 2.57436 2.95752 0
M  V30 1586 H 150.329 1.92559 3.70555 0
M  V30 1587 N 150.766 -0.704594 1.40972 0
M  V30 1588 C 152.177 -1.28418 1.3552 0
M  V30 1589 C 152.528 -1.96171 0.0339434 0
M  V30 1590 O 151.653 -1.98231 -0.867944 0
M  V30 1591 C 152.248 -2.33528 2.45459 0
M  V30 1592 C 150.807 -2.87085 2.43433 0
M  V30 1593 C 149.954 -1.61007 2.2577 0
M  V30 1594 H 152.905 -0.499963 1.50619 0
M  V30 1595 H 152.926 -3.14619 2.13998 0
M  V30 1596 H 152.438 -1.84187 3.41609 0
M  V30 1597 H 150.539 -3.40626 1.51013 0
M  V30 1598 H 150.652 -3.3813 3.39419 0
M  V30 1599 H 149.016 -1.86482 1.73483 0
M  V30 1600 H 149.799 -1.13675 3.23933 0
M  V30 1601 N 152.244 -1.26651 -0.937939 0
M  V30 1602 C 153.207 -1.08546 -2.01867 0
M  V30 1603 C 154.207 -0.0327327 -1.60767 0
M  V30 1604 O 155.397 -0.276427 -1.71993 0
M  V30 1605 C 152.529 -0.651711 -3.34613 0
M  V30 1606 H 153.722 -2.04502 -2.1936 0
M  V30 1607 H 151.275 -1.09294 -1.11734 0
M  V30 1608 H 152.01 0.309696 -3.22818 0
M  V30 1609 H 151.795 -1.41189 -3.65798 0
M  V30 1610 H 153.285 -0.546973 -4.14002 0
M  V30 1611 N 153.722 1.14298 -1.08507 0
M  V30 1612 C 154.968 1.85633 -0.816581 0
M  V30 1613 C 155.301 1.82784 0.656021 0
M  V30 1614 O 154.576 1.25926 1.48233 0
M  V30 1615 C 154.859 3.34223 -1.34041 0
M  V30 1616 C 154.712 3.45639 -2.87843 0
M  V30 1617 C 156.031 4.29356 -0.9665 0
M  V30 1618 H 153.15 0.67402 -0.298104 0
M  V30 1619 H 155.792 1.34214 -1.34487 0
M  V30 1620 H 153.942 3.78144 -0.89104 0
M  V30 1621 H 155.614 3.10498 -3.41158 0
M  V30 1622 H 153.857 2.86817 -3.25451 0
M  V30 1623 H 154.528 4.50089 -3.19569 0
M  V30 1624 H 157.004 3.93457 -1.35391 0
M  V30 1625 H 155.88 5.3178 -1.3602 0
M  V30 1626 H 156.141 4.41919 0.126362 0
M  V30 1627 N 155.201 0.870884 1.31352 0
M  V30 1628 C 156.45 0.478408 1.95944 0
M  V30 1629 C 156.763 -0.974493 1.69597 0
M  V30 1630 O 157.969 -1.47316 2.28058 0
M  V30 1631 C 156.425 0.804609 3.50791 0
M  V30 1632 C 156.033 2.27433 3.85977 0
M  V30 1633 C 157.777 0.480648 4.2177 0
M  V30 1634 C 155.684 2.5429 5.33939 0
M  V30 1635 H 154.614 0.175175 0.733369 0
M  V30 1636 H 157.265 1.06391 1.4951 0
M  V30 1637 H 155.647 0.148347 3.95722 0
M  V30 1638 H 156.821 2.97373 3.52002 0
M  V30 1639 H 155.136 2.56442 3.28065 0
M  V30 1640 H 157.733 0.658519 5.30629 0
M  V30 1641 H 158.076 -0.578979 4.12254 0
M  V30 1642 H 158.609 1.09349 3.82476 0
M  V30 1643 H 155.348 3.58939 5.48491 0
M  V30 1644 H 154.868 1.88945 5.69263 0
M  V30 1645 H 156.547 2.39066 6.01212 0
M  V30 1646 N 156.679 -1.44442 0.630414 0
M  V30 1647 C 158.09 -1.85434 0.217063 0
M  V30 1648 C 158.441 -1.52748 -1.23136 0
M  V30 1649 O 157.566 -0.965205 -1.93682 0
M  V30 1650 C 158.161 -3.36581 0.387168 0
M  V30 1651 C 156.72 -3.76389 0.0283297 0
M  V30 1652 C 155.867 -2.68296 0.700889 0
M  V30 1653 H 158.818 -1.34919 0.83562 0
M  V30 1654 H 158.839 -3.78657 -0.374086 0
M  V30 1655 H 158.351 -3.60339 1.44144 0
M  V30 1656 H 156.452 -3.58246 -1.02423 0
M  V30 1657 H 156.565 -4.77095 0.437892 0
M  V30 1658 H 154.929 -2.54335 0.136267 0
M  V30 1659 H 155.712 -2.94887 1.75774 0
M  V30 1660 N 158.157 -0.370918 -1.53173 0
M  V30 1661 C 159.406 0.218249 -2.00516 0
M  V30 1662 C 159.719 1.49429 -1.26215 0
M  V30 1663 O 160.925 2.16239 -1.64174 0
M  V30 1664 C 159.381 0.43948 -3.57207 0
M  V30 1665 C 158.989 -0.822244 -4.4039 0
M  V30 1666 C 160.733 0.986012 -4.1289 0
M  V30 1667 C 158.64 -0.570304 -5.88644 0
M  V30 1668 H 157.57 0.0853333 -0.749156 0
M  V30 1669 H 160.221 -0.490483 -1.76823 0
M  V30 1670 H 158.603 1.20961 -3.77074 0
M  V30 1671 H 159.777 -1.59557 -4.32294 0
M  V30 1672 H 158.092 -1.29238 -3.95836 0
M  V30 1673 H 160.689 1.18991 -5.21292 0
M  V30 1674 H 161.032 1.94972 -3.6782 0
M  V30 1675 H 161.565 0.27592 -3.96842 0
M  V30 1676 H 158.304 -1.50449 -6.38001 0
M  V30 1677 H 157.824 0.164427 -5.99575 0
M  V30 1678 H 159.503 -0.19784 -6.46697 0
M  V30 1679 N 159.635 1.57281 -0.100228 0
M  V30 1680 C 160.565 2.17328 0.853857 0
M  V30 1681 C 161.546 1.10804 1.2906 0
M  V30 1682 O 162.731 1.38963 1.35657 0
M  V30 1683 C 159.861 2.75772 2.11109 0
M  V30 1684 C 158.815 3.87713 1.81279 0
M  V30 1685 C 158.141 4.32882 3.13874 0
M  V30 1686 C 159.441 5.10677 1.09574 0
M  V30 1687 H 161.135 2.97305 0.353545 0
M  V30 1688 H 158.681 1.43009 0.168612 0
M  V30 1689 H 160.634 3.16433 2.78296 0
M  V30 1690 H 159.358 1.93057 2.63432 0
M  V30 1691 H 158.017 3.476 1.16489 0
M  V30 1692 H 157.665 3.47051 3.64095 0
M  V30 1693 H 157.365 5.08358 2.94696 0
M  V30 1694 H 158.889 4.7618 3.82211 0
M  V30 1695 H 160.303 5.48474 1.66879 0
M  V30 1696 H 158.7 5.91615 1.00557 0
M  V30 1697 H 159.77 4.84835 0.0793299 0
M  V30 1698 N 161.113 -0.173488 1.56642 0
M  V30 1699 C 162.359 -0.891784 1.8214 0
M  V30 1700 C 162.692 -1.8199 0.677736 0
M  V30 1701 O 161.967 -1.91842 -0.320446 0
M  V30 1702 C 162.25 -1.68933 3.18015 0
M  V30 1703 C 162.103 -0.784487 4.42906 0
M  V30 1704 C 163.422 -2.65748 3.50808 0
M  V30 1705 H 160.541 -0.322761 0.662567 0
M  V30 1706 H 163.183 -0.158095 1.89341 0
M  V30 1707 H 161.333 -2.31482 3.12007 0
M  V30 1708 H 163.005 -0.172046 4.60979 0
M  V30 1709 H 161.248 -0.0924117 4.33702 0
M  V30 1710 H 161.919 -1.37799 5.34524 0
M  V30 1711 H 164.395 -2.13327 3.57255 0
M  V30 1712 H 163.271 -3.18619 4.4696 0
M  V30 1713 H 163.532 -3.45842 2.75401 0
M  V30 1714 N 162.591 -1.51276 -0.441967 0
M  V30 1715 C 163.84 -1.6295 -1.18871 0
M  V30 1716 C 164.153 -0.349312 -1.92456 0
M  V30 1717 O 165.359 -0.345355 -2.69295 0
M  V30 1718 C 163.815 -2.87759 -2.16155 0
M  V30 1719 C 163.423 -4.22764 -1.48239 0
M  V30 1720 C 165.167 -3.08788 -2.91291 0
M  V30 1721 C 163.074 -5.38728 -2.4398 0
M  V30 1722 H 162.004 -0.606913 -0.447406 0
M  V30 1723 H 164.655 -1.77739 -0.456205 0
M  V30 1724 H 163.037 -2.66593 -2.92821 0
M  V30 1725 H 164.211 -4.54293 -0.771635 0
M  V30 1726 H 162.526 -4.07575 -0.852741 0
M  V30 1727 H 165.123 -3.92599 -3.63002 0
M  V30 1728 H 165.466 -2.21679 -3.5237 0
M  V30 1729 H 165.999 -3.30272 -2.21733 0
M  V30 1730 H 162.738 -6.28082 -1.87598 0
M  V30 1731 H 162.258 -5.1158 -3.13123 0
M  V30 1732 H 163.937 -5.70489 -3.05207 0
M  V30 1733 N 164.069 0.697108 -1.41344 0
M  V30 1734 C 165.032 1.79281 -1.42797 0
M  V30 1735 C 166.032 1.57607 -0.318837 0
M  V30 1736 O 167.222 1.64309 -0.578642 0
M  V30 1737 C 164.354 3.17632 -1.23785 0
M  V30 1738 H 165.547 1.79385 -2.40335 0
M  V30 1739 H 163.1 0.904582 -1.27464 0
M  V30 1740 H 163.835 3.23167 -0.270814 0
M  V30 1741 H 163.62 3.34765 -2.04144 0
M  V30 1742 H 165.11 3.97617 -1.27633 0
M  V30 1743 N 165.547 1.27147 0.931209 0
M  V30 1744 C 166.787 1.14511 1.69312 0
M  V30 1745 C 167.151 -0.304638 1.89568 0
M  V30 1746 O 168.352 -0.553343 2.63043 0
M  V30 1747 C 166.623 1.90349 3.02493 0
M  V30 1748 S 168.182 1.93884 3.93642 0
M  V30 1749 H 165 0.408858 0.581684 0
M  V30 1750 H 167.602 1.61006 1.10893 0
M  V30 1751 H 166.306 2.94877 2.85439 0
M  V30 1752 H 165.837 1.44333 3.65966 0
M  V30 1753 H 167.852 1.03273 4.85334 0
M  V30 1754 N 167.025 -1.13721 1.09112 0
M  V30 1755 C 168.302 -1.81155 0.737706 0
M  V30 1756 C 168.682 -1.96253 -0.777683 0
M  V30 1757 O 168.03 -1.52807 -1.69889 0
M  V30 1758 C 168.24 -3.16392 1.47299 0
M  V30 1759 C 169.588 -3.91787 1.63671 0
M  V30 1760 O 170.612 -3.26005 1.43524 0
M  V30 1761 O 169.471 -5.0977 1.96969 0
M  V30 1762 H 166.565 -0.783518 0.26463 0
M  V30 1763 H 169.111 -1.20676 1.19312 0
M  V30 1764 H 167.883 -3.0061 2.50498 0
M  V30 1765 H 167.506 -3.8457 1.00953 0
M  V30 1766 N 168.503 -0.877838 -1.30888 0
M  V30 1767 C 169.919 -0.570844 -1.49042 0
M  V30 1768 C 170.119 0.893159 -1.80624 0
M  V30 1769 O 169.175 1.67485 -1.88958 0
M  V30 1770 C 170.488 -1.47784 -2.61878 0
M  V30 1771 C 172.036 -1.48071 -2.75761 0
M  V30 1772 C 172.511 -2.37347 -3.91702 0
M  V30 1773 N 174.002 -2.35271 -3.99001 0
M  V30 1774 C 174.737 -3.01063 -4.88004 0
M  V30 1775 N 174.233 -3.76055 -5.81854 0
M  V30 1776 N 176.026 -2.90332 -4.81315 0
M  V30 1777 H 168.177 -1.82502 -1.0866 0
M  V30 1778 H 170.44 -0.780797 -0.537644 0
M  V30 1779 H 170.146 -2.51993 -2.45341 0
M  V30 1780 H 170.02 -1.18215 -3.58197 0
M  V30 1781 H 172.407 -0.446166 -2.91708 0
M  V30 1782 H 172.488 -1.81668 -1.80085 0
M  V30 1783 H 172.132 -3.40883 -3.76512 0
M  V30 1784 H 172.062 -2.01071 -4.86701 0
M  V30 1785 H 174.553 -1.80768 -3.3186 0
M  V30 1786 H 174.866 -4.23366 -6.46514 0
M  V30 1787 H 173.211 -3.80163 -5.81808 0
M  V30 1788 H 176.402 -2.31278 -4.06974 0
M  V30 1789 H 176.575 -3.41885 -5.50471 0
M  V30 1790 N 169.982 1.44106 -0.638065 0
M  V30 1791 C 171.207 2.0685 -0.150916 0
M  V30 1792 C 171.632 1.47417 1.16833 0
M  V30 1793 O 170.99 0.578264 1.71831 0
M  V30 1794 C 171.038 3.60555 -0.05708 0
M  V30 1795 O 170.142 4.00465 0.984972 0
M  V30 1796 H 169.483 0.658151 -0.0879399 0
M  V30 1797 H 172.013 1.84865 -0.876707 0
M  V30 1798 H 172.023 4.07789 0.131232 0
M  V30 1799 H 170.698 4.03193 -1.02021 0
M  V30 1800 H 169.275 3.64849 0.770672 0
M  V30 1801 N 171.46 0.379036 1.52974 0
M  V30 1802 C 172.688 -0.20679 2.05864 0
M  V30 1803 C 173.103 -1.41356 1.25155 0
M  V30 1804 O 172.46 -1.8009 0.295588 0
M  V30 1805 C 172.511 -0.587045 3.56702 0
M  V30 1806 O 172.232 0.571776 4.34353 0
M  V30 1807 C 173.733 -1.22983 4.25899 0
M  V30 1808 H 170.953 -0.0336123 0.670158 0
M  V30 1809 H 173.497 0.541298 1.97206 0
M  V30 1810 H 171.652 -1.28504 3.65466 0
M  V30 1811 H 172.066 0.261544 5.23847 0
M  V30 1812 H 173.54 -1.44635 5.32715 0
M  V30 1813 H 174.017 -2.19416 3.80465 0
M  V30 1814 H 174.623 -0.572892 4.21424 0
M  V30 1815 N 172.938 -1.57226 0.108567 0
M  V30 1816 C 174.184 -1.95121 -0.552761 0
M  V30 1817 C 174.517 -0.991345 -1.66991 0
M  V30 1818 O 173.792 -0.0267211 -1.94482 0
M  V30 1819 C 174.075 -3.43039 -1.09528 0
M  V30 1820 C 173.928 -4.49797 0.0177332 0
M  V30 1821 C 175.247 -3.92567 -1.98945 0
M  V30 1822 H 172.366 -0.709496 -0.199461 0
M  V30 1823 H 175.008 -1.89126 0.182011 0
M  V30 1824 H 173.158 -3.48279 -1.72146 0
M  V30 1825 H 174.83 -4.56661 0.652584 0
M  V30 1826 H 173.073 -4.284 0.682309 0
M  V30 1827 H 173.744 -5.50528 -0.402919 0
M  V30 1828 H 176.22 -3.89565 -1.46214 0
M  V30 1829 H 175.096 -4.96605 -2.33827 0
M  V30 1830 H 175.357 -3.32648 -2.91201 0
M  V30 1831 N 174.416 0.165178 -1.56732 0
M  V30 1832 C 175.832 0.517174 -1.50988 0
M  V30 1833 C 176.032 1.84331 -0.813894 0
M  V30 1834 O 175.088 2.49672 -0.37682 0
M  V30 1835 C 176.401 0.544261 -2.95733 0
M  V30 1836 C 177.949 0.631039 -3.06573 0
M  V30 1837 C 178.424 0.68896 -4.52788 0
M  V30 1838 N 179.915 0.751683 -4.5706 0
M  V30 1839 C 180.65 0.817177 -5.67547 0
M  V30 1840 N 180.146 0.843129 -6.8765 0
M  V30 1841 N 181.939 0.856668 -5.55534 0
M  V30 1842 H 174.09 -0.704318 -2.00382 0
M  V30 1843 H 176.353 -0.254687 -0.913148 0
M  V30 1844 H 176.059 -0.361607 -3.49836 0
M  V30 1845 H 175.933 1.3886 -3.5071 0
M  V30 1846 H 178.32 1.52733 -2.52501 0
M  V30 1847 H 178.401 -0.240095 -2.54671 0
M  V30 1848 H 178.045 -0.2031 -5.07494 0
M  V30 1849 H 177.975 1.57633 -5.02454 0
M  V30 1850 H 180.466 0.739661 -3.70591 0
M  V30 1851 H 180.779 0.894448 -7.67606 0
M  V30 1852 H 179.124 0.811304 -6.90248 0
M  V30 1853 H 182.315 0.833437 -4.60621 0
M  V30 1854 H 182.488 0.904247 -6.4166 0
M  V30 1855 N 175.894 1.51508 0.433938 0
M  V30 1856 C 177.31 1.39759 0.770682 0
M  V30 1857 C 177.51 0.482594 1.95636 0
M  V30 1858 O 176.566 -0.0609691 2.52426 0
M  V30 1859 C 177.879 2.81851 1.04787 0
M  V30 1860 C 179.427 2.91025 1.1521 0
M  V30 1861 C 179.902 4.34032 1.46219 0
M  V30 1862 N 181.393 4.37154 1.53136 0
M  V30 1863 C 182.128 5.4484 1.78709 0
M  V30 1864 N 181.624 6.62682 2.02051 0
M  V30 1865 N 183.417 5.32324 1.80519 0
M  V30 1866 H 175.568 2.09548 -0.346892 0
M  V30 1867 H 177.831 0.943446 -0.0928074 0
M  V30 1868 H 177.537 3.50815 0.249304 0
M  V30 1869 H 177.411 3.21386 1.97461 0
M  V30 1870 H 179.798 2.22257 1.94128 0
M  V30 1871 H 179.879 2.54983 0.204281 0
M  V30 1872 H 179.523 5.03351 0.678274 0
M  V30 1873 H 179.453 4.6759 2.42212 0
M  V30 1874 H 181.944 3.52197 1.36987 0
M  V30 1875 H 182.257 7.40543 2.20943 0
M  V30 1876 H 180.602 6.65791 1.99366 0
M  V30 1877 H 183.793 4.39246 1.61805 0
M  V30 1878 H 183.966 6.16328 2.00111 0
M  V30 1879 N 177.372 -0.689602 1.41712 0
M  V30 1880 C 178.612 -1.46184 1.42862 0
M  V30 1881 C 178.976 -1.91962 0.0382204 0
M  V30 1882 O 180.177 -2.68694 -0.0755019 0
M  V30 1883 C 178.448 -2.6371 2.4123 0
M  V30 1884 S 180.007 -3.52768 2.6096 0
M  V30 1885 H 176.825 -0.49947 0.506015 0
M  V30 1886 H 179.427 -0.804107 1.78198 0
M  V30 1887 H 178.131 -2.28293 3.41044 0
M  V30 1888 H 177.662 -3.3437 2.07269 0
M  V30 1889 H 179.677 -4.59146 1.88148 0
M  V30 1890 N 178.85 -1.27639 -0.924453 0
M  V30 1891 C 179.78 -1.13166 -2.04244 0
M  V30 1892 C 180.761 -0.032256 -1.70069 0
M  V30 1893 O 181.946 -0.207328 -1.9309 0
M  V30 1894 C 179.076 -0.781496 -3.38393 0
M  V30 1895 C 178.03 -1.83449 -3.86692 0
M  V30 1896 C 177.356 -1.33822 -5.17683 0
M  V30 1897 C 178.656 -3.23917 -4.09726 0
M  V30 1898 H 180.35 -2.06689 -2.1661 0
M  V30 1899 H 177.896 -0.995136 -1.04082 0
M  V30 1900 H 179.849 -0.667057 -4.16087 0
M  V30 1901 H 178.573 0.189439 -3.2605 0
M  V30 1902 H 177.232 -1.93789 -3.11193 0
M  V30 1903 H 176.88 -0.35665 -5.01734 0
M  V30 1904 H 176.58 -2.04224 -5.50968 0
M  V30 1905 H 178.104 -1.23679 -5.97943 0
M  V30 1906 H 179.518 -3.16559 -4.77978 0
M  V30 1907 H 177.915 -3.92059 -4.54324 0
M  V30 1908 H 178.985 -3.68729 -3.14908 0
M  V30 1909 N 180.328 1.1314 -1.09713 0
M  V30 1910 C 181.605 1.80762 -0.747302 0
M  V30 1911 C 181.985 1.96663 0.767265 0
M  V30 1912 O 181.333 1.53706 1.69076 0
M  V30 1913 C 181.543 3.15606 -1.48975 0
M  V30 1914 C 182.891 3.90914 -1.65746 0
M  V30 1915 O 183.915 3.25239 -1.45251 0
M  V30 1916 O 182.774 5.08718 -1.9967 0
M  V30 1917 H 179.868 0.782103 -0.268782 0
M  V30 1918 H 182.414 1.20041 -1.19951 0
M  V30 1919 H 181.186 2.99278 -2.52088 0
M  V30 1920 H 180.809 3.84029 -1.02991 0
M  V30 1921 N 181.806 0.884767 1.30421 0
M  V30 1922 C 182.753 0.349642 2.28136 0
M  V30 1923 C 183.723 -0.560061 1.56373 0
M  V30 1924 O 184.908 -0.488524 1.8444 0
M  V30 1925 C 182.048 -0.42999 3.42411 0
M  V30 1926 C 181.161 0.508907 4.28992 0
M  V30 1927 C 180.296 -0.286301 5.30428 0
M  V30 1928 C 179.335 0.648079 6.08659 0
M  V30 1929 N 178.472 -0.111792 7.02011 0
M  V30 1930 H 183.312 1.18807 2.73293 0
M  V30 1931 H 180.849 0.597231 1.3443 0
M  V30 1932 H 182.807 -0.897923 4.07423 0
M  V30 1933 H 181.437 -1.23299 2.98324 0
M  V30 1934 H 180.489 1.09533 3.64289 0
M  V30 1935 H 181.801 1.22475 4.8353 0
M  V30 1936 H 180.955 -0.816098 6.01186 0
M  V30 1937 H 179.694 -1.03536 4.76583 0
M  V30 1938 H 178.699 1.18951 5.36778 0
M  V30 1939 H 179.924 1.39623 6.64592 0
M  V30 1940 H 177.87 -0.843395 6.50556 0
M  V30 1941 H 177.787 0.544429 7.54037 0
M  V30 1942 H 179.055 -0.622339 7.77012 0
M  V30 1943 N 183.284 -1.43765 0.645699 0
M  V30 1944 C 184.214 -2.33471 -0.0370477 0
M  V30 1945 C 185.195 -1.49042 -0.819779 0
M  V30 1946 O 186.38 -1.77726 -0.782758 0
M  V30 1947 C 183.51 -3.32311 -1.0093 0
M  V30 1948 C 182.464 -4.2667 -0.337201 0
M  V30 1949 C 181.79 -5.1549 -1.42037 0
M  V30 1950 C 183.09 -5.16657 0.765706 0
M  V30 1951 H 184.784 -2.90809 0.712069 0
M  V30 1952 H 182.33 -1.39834 0.343876 0
M  V30 1953 H 184.283 -3.9396 -1.49578 0
M  V30 1954 H 183.007 -2.73213 -1.78948 0
M  V30 1955 H 181.666 -3.66374 0.128771 0
M  V30 1956 H 181.314 -4.52735 -2.1918 0
M  V30 1957 H 181.014 -5.79438 -0.975966 0
M  V30 1958 H 182.538 -5.80012 -1.90838 0
M  V30 1959 H 183.952 -5.72158 0.361702 0
M  V30 1960 H 182.349 -5.89286 1.13413 0
M  V30 1961 H 183.419 -4.56796 1.62683 0
M  V30 1962 N 184.763 -0.387143 -1.52771 0
M  V30 1963 C 185.693 0.440551 -2.29306 0
M  V30 1964 C 186.674 1.06535 -1.32606 0
M  V30 1965 O 187.859 1.07853 -1.61497 0
M  V30 1966 C 184.989 1.56919 -3.09829 0
M  V30 1967 C 183.943 1.07054 -4.14395 0
M  V30 1968 C 183.269 2.29109 -4.83129 0
M  V30 1969 C 184.569 0.140015 -5.22112 0
M  V30 1970 H 186.263 -0.198026 -2.98744 0
M  V30 1971 H 183.809 -0.09668 -1.43675 0
M  V30 1972 H 185.762 2.15503 -3.62128 0
M  V30 1973 H 184.486 2.23532 -2.3812 0
M  V30 1974 H 183.145 0.507247 -3.63074 0
M  V30 1975 H 182.793 2.94227 -4.0797 0
M  V30 1976 H 182.493 1.96406 -5.53804 0
M  V30 1977 H 184.017 2.88339 -5.38231 0
M  V30 1978 H 185.431 0.633978 -5.69784 0
M  V30 1979 H 183.828 -0.0971485 -6.00021 0
M  V30 1980 H 184.898 -0.811711 -4.78058 0
M  V30 1981 N 186.241 1.57166 -0.116904 0
M  V30 1982 C 187.191 2.11756 0.845178 0
M  V30 1983 C 188.175 1.03783 1.22955 0
M  V30 1984 O 189.367 1.3002 1.20099 0
M  V30 1985 C 186.496 2.71886 2.09602 0
M  V30 1986 C 185.582 3.86937 1.7361 0
M  V30 1987 N 185.973 4.94073 1.08284 0
M  V30 1988 C 184.271 3.97082 2.03082 0
M  V30 1989 C 184.972 5.74477 0.913855 0
M  V30 1990 N 183.948 5.2423 1.43818 0
M  V30 1991 H 187.75 2.91967 0.336523 0
M  V30 1992 H 185.264 1.62174 0.0856332 0
M  V30 1993 H 187.261 3.09338 2.79492 0
M  V30 1994 H 185.921 1.93138 2.61013 0
M  V30 1995 H 186.932 5.12483 0.747067 0
M  V30 1996 H 183.609 3.29372 2.56554 0
M  V30 1997 H 184.999 6.70701 0.40125 0
M  V30 1998 N 187.719 -0.156864 1.56817 0
M  V30 1999 C 188.949 -0.885031 1.86684 0
M  V30 2000 C 189.357 -1.75696 0.701954 0
M  V30 2001 O 188.7 -1.80569 -0.337732 0
M  V30 2002 C 188.762 -1.80092 3.11138 0
M  V30 2003 C 188.426 -1.10714 4.43386 0
M  V30 2004 C 189.423 -0.465714 5.1781 0
M  V30 2005 C 187.108 -1.09959 4.90117 0
M  V30 2006 C 189.102 0.174002 6.37162 0
M  V30 2007 C 186.789 -0.456055 6.09396 0
M  V30 2008 C 187.787 0.179622 6.82764 0
M  V30 2009 O 187.475 0.812975 7.99779 0
M  V30 2010 H 187.207 -0.261813 0.623242 0
M  V30 2011 H 189.761 -0.157383 2.04796 0
M  V30 2012 H 187.991 -2.56926 2.89009 0
M  V30 2013 H 189.68 -2.40018 3.27332 0
M  V30 2014 H 190.446 -0.463427 4.82781 0
M  V30 2015 H 186.325 -1.58378 4.3294 0
M  V30 2016 H 189.869 0.670765 6.94368 0
M  V30 2017 H 185.766 -0.455975 6.43888 0
M  V30 2018 H 186.534 0.71366 8.15383 0
M  V30 2019 N 189.197 -1.51736 -0.425897 0
M  V30 2020 C 190.613 -1.40166 -0.76326 0
M  V30 2021 C 190.813 -0.492962 -1.95377 0
M  V30 2022 O 189.869 0.0475815 -2.52455 0
M  V30 2023 C 191.182 -2.82403 -1.03291 0
M  V30 2024 C 192.73 -2.91632 -1.13665 0
M  V30 2025 C 193.205 -4.34801 -1.43916 0
M  V30 2026 N 194.696 -4.3796 -1.50816 0
M  V30 2027 C 195.431 -5.4578 -1.75817 0
M  V30 2028 N 194.927 -6.63744 -1.98534 0
M  V30 2029 N 196.72 -5.33274 -1.77694 0
M  V30 2030 H 188.871 -2.09361 0.358 0
M  V30 2031 H 191.134 -0.942941 0.0978094 0
M  V30 2032 H 190.84 -3.50943 -0.230696 0
M  V30 2033 H 190.714 -3.22428 -1.95754 0
M  V30 2034 H 193.101 -2.23284 -1.92947 0
M  V30 2035 H 193.182 -2.55088 -0.190756 0
M  V30 2036 H 192.826 -5.03703 -0.65157 0
M  V30 2037 H 192.756 -4.68868 -2.39729 0
M  V30 2038 H 195.247 -3.52919 -1.35118 0
M  V30 2039 H 195.56 -7.41704 -2.17013 0
M  V30 2040 H 193.905 -6.66839 -1.95832 0
M  V30 2041 H 197.096 -4.40098 -1.59473 0
M  V30 2042 H 197.269 -6.1738 -1.9684 0
M  V30 2043 N 190.675 0.682077 -1.42076 0
M  V30 2044 C 192.086 1.26246 -1.37546 0
M  V30 2045 C 192.437 1.96092 -0.0651481 0
M  V30 2046 O 191.562 1.99587 0.836297 0
M  V30 2047 C 192.157 2.29594 -2.49143 0
M  V30 2048 C 190.716 2.83175 -2.47969 0
M  V30 2049 C 189.863 1.57395 -2.28303 0
M  V30 2050 H 192.814 0.475937 -1.51395 0
M  V30 2051 H 192.835 3.11175 -2.18976 0
M  V30 2052 H 192.347 1.78729 -3.44496 0
M  V30 2053 H 190.448 3.3818 -1.56413 0
M  V30 2054 H 190.561 3.32687 -3.44755 0
M  V30 2055 H 188.925 1.83699 -1.76428 0
M  V30 2056 H 189.708 1.08507 -3.25701 0
M  V30 2057 N 192.153 1.28127 0.917671 0
M  V30 2058 C 193.378 1.18007 1.70555 0
M  V30 2059 C 193.803 -0.258257 1.86319 0
M  V30 2060 O 193.161 -1.1869 1.37049 0
M  V30 2061 C 193.209 1.87948 3.07746 0
M  V30 2062 O 192.313 1.18427 3.9503 0
M  V30 2063 H 191.654 0.409867 0.522403 0
M  V30 2064 H 194.184 1.69379 1.1477 0
M  V30 2065 H 194.194 1.95701 3.58001 0
M  V30 2066 H 192.869 2.92573 2.95591 0
M  V30 2067 H 191.446 1.18811 3.53466 0
M  V30 2068 N 193.631 -1.12557 1.10312 0
M  V30 2069 C 194.594 -2.16434 0.75424 0
M  V30 2070 C 195.594 -1.59278 -0.220685 0
M  V30 2071 O 196.784 -1.742 0.00230591 0
M  V30 2072 C 193.916 -3.40699 0.116987 0
M  V30 2073 H 195.109 -2.48811 1.67431 0
M  V30 2074 H 192.662 -1.27542 0.903475 0
M  V30 2075 H 193.397 -3.13921 -0.813877 0
M  V30 2076 H 193.182 -3.83459 0.818613 0
M  V30 2077 H 194.672 -4.17451 -0.111387 0
M  V30 2078 N 195.109 -0.891671 -1.2995 0
M  V30 2079 C 196.019 -0.367691 -2.31701 0
M  V30 2080 C 197.035 0.533486 -1.6562 0
M  V30 2081 O 198.211 0.424997 -1.96865 0
M  V30 2082 C 195.276 0.403406 -3.44345 0
M  V30 2083 C 194.337 -0.528328 -4.26037 0
M  V30 2084 C 193.57 0.206063 -5.33302 0
M  V30 2085 O 193.793 1.43119 -5.52153 0
M  V30 2086 O 192.727 -0.447281 -6.00236 0
M  V30 2087 H 196.553 -1.21163 -2.78484 0
M  V30 2088 H 194.138 -0.655725 -1.34241 0
M  V30 2089 H 196.02 0.839753 -4.12948 0
M  V30 2090 H 194.695 1.22354 -2.99685 0
M  V30 2091 H 193.602 -1.01362 -3.60106 0
M  V30 2092 H 194.935 -1.31465 -4.74318 0
M  V30 2093 N 196.587 1.43421 -0.653314 0
M  V30 2094 C 197.517 2.33487 0.0246656 0
M  V30 2095 C 198.498 1.49475 0.811863 0
M  V30 2096 O 199.683 1.78139 0.773322 0
M  V30 2097 C 196.813 3.32841 0.99166 0
M  V30 2098 C 195.767 4.26842 0.314568 0
M  V30 2099 C 195.093 5.16236 1.39302 0
M  V30 2100 C 196.393 5.16243 -0.793095 0
M  V30 2101 H 198.087 2.90427 -0.727481 0
M  V30 2102 H 195.633 1.39649 -0.351287 0
M  V30 2103 H 197.586 3.94747 1.47487 0
M  V30 2104 H 196.31 2.74158 1.77497 0
M  V30 2105 H 194.969 3.663 -0.148199 0
M  V30 2106 H 194.617 4.53891 2.16776 0
M  V30 2107 H 194.317 5.79948 0.945223 0
M  V30 2108 H 195.841 5.81015 1.87759 0
M  V30 2109 H 197.255 5.71958 -0.392039 0
M  V30 2110 H 195.652 5.88676 -1.16536 0
M  V30 2111 H 196.722 4.55927 -1.65103 0
M  V30 2112 N 198.065 0.39524 1.52563 0
M  V30 2113 C 199.312 -0.185044 2.01653 0
M  V30 2114 C 199.64 -1.46317 1.28146 0
M  V30 2115 O 198.895 -1.9213 0.372074 0
M  V30 2116 C 199.194 -0.493444 3.53977 0
M  V30 2117 C 198.86 0.69384 4.4553 0
M  V30 2118 C 197.522 1.01954 4.70275 0
M  V30 2119 C 199.874 1.48785 4.99512 0
M  V30 2120 C 197.202 2.14069 5.46252 0
M  V30 2121 C 199.554 2.59965 5.76716 0
M  V30 2122 C 198.218 2.93037 5.99738 0
M  V30 2123 H 197.488 -0.0677123 0.7379 0
M  V30 2124 H 200.135 0.533807 1.8391 0
M  V30 2125 H 198.44 -1.29369 3.69825 0
M  V30 2126 H 200.137 -0.955163 3.89458 0
M  V30 2127 H 196.727 0.429987 4.26438 0
M  V30 2128 H 200.911 1.24946 4.80315 0
M  V30 2129 H 196.167 2.40056 5.62302 0
M  V30 2130 H 200.341 3.21887 6.17545 0
M  V30 2131 H 197.968 3.8003 6.58393 0
M  V30 2132 N 199.544 -1.57102 0.125237 0
M  V30 2133 C 200.955 -1.82384 -0.399142 0
M  V30 2134 C 201.306 -1.04276 -1.66195 0
M  V30 2135 O 200.431 -0.281269 -2.14564 0
M  V30 2136 C 201.026 -3.30821 -0.730932 0
M  V30 2137 C 199.585 -3.56762 -1.19992 0
M  V30 2138 C 198.732 -2.7649 -0.211792 0
M  V30 2139 H 201.683 -1.54786 0.350277 0
M  V30 2140 H 201.704 -3.4579 -1.58775 0
M  V30 2141 H 201.216 -3.87643 0.188345 0
M  V30 2142 H 199.317 -3.05305 -2.13588 0
M  V30 2143 H 199.43 -4.65317 -1.14093 0
M  V30 2144 H 197.794 -2.4489 -0.700085 0
M  V30 2145 H 198.577 -3.36073 0.700691 0
M  V30 2146 N 201.022 0.148545 -1.56898 0
M  V30 2147 C 202.271 0.85984 -1.82454 0
M  V30 2148 C 202.584 1.82406 -0.706229 0
M  V30 2149 O 203.79 2.57938 -0.847349 0
M  V30 2150 C 202.246 1.57967 -3.2338 0
M  V30 2151 C 201.854 0.65794 -4.43142 0
M  V30 2152 C 203.598 2.27784 -3.58211 0
M  V30 2153 C 201.505 1.3793 -5.75091 0
M  V30 2154 H 200.435 0.324834 -0.68044 0
M  V30 2155 H 203.086 0.112588 -1.83154 0
M  V30 2156 H 201.468 2.37249 -3.17063 0
M  V30 2157 H 202.642 -0.0995497 -4.60692 0
M  V30 2158 H 200.957 0.0682643 -4.16344 0
M  V30 2159 H 203.554 2.8239 -4.54048 0
M  V30 2160 H 203.897 3.04204 -2.84193 0
M  V30 2161 H 204.43 1.55421 -3.66182 0
M  V30 2162 H 201.169 0.656982 -6.52199 0
M  V30 2163 H 200.689 2.10954 -5.61479 0
M  V30 2164 H 202.368 1.92063 -6.17835 0
M  V30 2165 N 202.5 1.5196 0.417844 0
M  V30 2166 C 203.749 1.6482 1.16264 0
M  V30 2167 C 204.062 0.379886 1.91876 0
M  V30 2168 O 205.268 0.388154 2.68711 0
M  V30 2169 C 203.724 2.91161 2.1155 0
M  V30 2170 C 203.332 4.25068 1.41495 0
M  V30 2171 C 205.076 3.13383 2.86341 0
M  V30 2172 C 202.983 5.42541 2.35379 0
M  V30 2173 H 201.913 0.613954 0.437694 0
M  V30 2174 H 204.564 1.78442 0.427871 0
M  V30 2175 H 202.946 2.71218 2.88543 0
M  V30 2176 H 204.12 4.55463 0.699263 0
M  V30 2177 H 202.435 4.0888 0.787792 0
M  V30 2178 H 205.032 3.98324 3.5671 0
M  V30 2179 H 205.375 2.27256 3.48798 0
M  V30 2180 H 205.908 3.33757 2.1645 0
M  V30 2181 H 202.647 6.30987 1.77582 0
M  V30 2182 H 202.167 5.16497 3.04945 0
M  V30 2183 H 203.846 5.75272 2.96093 0
M  V30 2184 N 203.978 -0.674533 1.42435 0
M  V30 2185 C 205.224 -1.43671 1.43131 0
M  V30 2186 C 205.557 -1.94142 0.0476021 0
M  V30 2187 O 204.832 -1.70924 -0.928188 0
M  V30 2188 C 205.115 -2.63355 2.45594 0
M  V30 2189 C 204.968 -2.18514 3.93156 0
M  V30 2190 C 206.287 -3.65571 2.45043 0
M  V30 2191 H 203.406 -0.521077 0.521198 0
M  V30 2192 H 206.048 -0.766551 1.7385 0
M  V30 2193 H 204.198 -3.2053 2.19528 0
M  V30 2194 H 205.87 -1.66504 4.30202 0
M  V30 2195 H 204.113 -1.50086 4.07009 0
M  V30 2196 H 204.784 -3.04484 4.60428 0
M  V30 2197 H 207.26 -3.18113 2.68223 0
M  V30 2198 H 206.136 -4.46893 3.18713 0
M  V30 2199 H 206.397 -4.16716 1.47649 0
M  V30 2200 N 205.456 -1.28612 -0.910864 0
M  V30 2201 C 206.681 -1.1891 -1.69927 0
M  V30 2202 C 207.106 0.248372 -1.86453 0
M  V30 2203 O 206.464 1.17961 -1.37676 0
M  V30 2204 C 206.512 -1.89578 -3.06745 0
M  V30 2205 O 205.616 -1.20521 -3.94396 0
M  V30 2206 H 204.957 -0.412632 -0.520222 0
M  V30 2207 H 207.487 -1.69985 -1.1387 0
M  V30 2208 H 207.497 -1.97597 -3.56958 0
M  V30 2209 H 206.172 -2.94136 -2.94035 0
M  V30 2210 H 204.749 -1.20684 -3.52831 0
M  V30 2211 N 206.934 1.1197 -1.10907 0
M  V30 2212 C 207.866 2.17592 -0.720175 0
M  V30 2213 C 208.879 1.60938 0.245495 0
M  V30 2214 O 210.068 1.78476 0.0292245 0
M  V30 2215 C 207.168 3.38873 -0.0427917 0
M  V30 2216 C 206.341 4.25006 -1.03388 0
M  V30 2217 C 205.4 5.24774 -0.387075 0
M  V30 2218 O 204.426 5.59631 -1.03934 0
M  V30 2219 N 205.628 5.74208 0.852407 0
M  V30 2220 H 208.393 2.51567 -1.62893 0
M  V30 2221 H 205.954 1.27439 -0.998543 0
M  V30 2222 H 207.946 4.02703 0.401501 0
M  V30 2223 H 206.516 3.03007 0.768456 0
M  V30 2224 H 205.736 3.57716 -1.65629 0
M  V30 2225 H 207.024 4.79397 -1.70458 0
M  V30 2226 H 206.422 5.48062 1.40161 0
M  V30 2227 H 204.979 6.39901 1.23977 0
M  V30 2228 N 208.412 0.89855 1.29475 0
M  V30 2229 C 209.689 0.443416 1.90508 0
M  V30 2230 C 210.069 -1.07685 1.81569 0
M  V30 2231 O 209.417 -1.9182 1.24166 0
M  V30 2232 C 209.627 0.956708 3.35631 0
M  V30 2233 C 210.975 0.999728 4.12663 0
M  V30 2234 O 211.999 0.904299 3.4453 0
M  V30 2235 O 210.858 1.14289 5.34416 0
M  V30 2236 H 207.952 0.138025 0.815401 0
M  V30 2237 H 210.498 0.98834 1.37949 0
M  V30 2238 H 209.27 2.00067 3.36287 0
M  V30 2239 H 208.893 0.391728 3.95666 0
M  V30 2240 N 209.89 -1.43072 0.660911 0
M  V30 2241 C 211.13 -2.03596 0.181146 0
M  V30 2242 C 211.494 -1.51057 -1.18515 0
M  V30 2243 O 212.695 -2.03275 -1.75877 0
M  V30 2244 C 210.966 -3.56845 0.19911 0
M  V30 2245 S 212.525 -4.38289 -0.211684 0
M  V30 2246 H 209.343 -0.706954 0.0757479 0
M  V30 2247 H 211.945 -1.75027 0.870965 0
M  V30 2248 H 210.649 -3.92583 1.1961 0
M  V30 2249 H 210.18 -3.90067 -0.510996 0
M  V30 2250 H 212.195 -4.74583 -1.44863 0
M  V30 2251 N 211.368 -0.403325 -1.52352 0
M  V30 2252 C 212.616 0.174003 -2.0135 0
M  V30 2253 C 212.937 1.46139 -1.29106 0
M  V30 2254 O 212.207 1.91448 -0.415253 0
M  V30 2255 H 210.787 0.0672911 -0.743963 0
M  V30 2256 H 213.449 -0.538235 -1.87321 0
M  V30 2257 H 212.545 0.374254 -3.09848 0
M  V30 2258 N 212.846 1.57033 -0.133567 0
M  V30 2259 C 213.796 2.12641 0.822671 0
M  V30 2260 C 214.78 1.05081 1.21847 0
M  V30 2261 O 215.972 1.31287 1.18713 0
M  V30 2262 C 213.101 2.74094 2.06706 0
M  V30 2263 C 212.187 3.88757 1.69497 0
M  V30 2264 N 212.578 4.95194 1.03037 0
M  V30 2265 C 210.876 3.99213 1.98859 0
M  V30 2266 C 211.577 5.75414 0.852873 0
M  V30 2267 N 210.553 5.25726 1.3825 0
M  V30 2268 H 214.355 2.92308 0.305537 0
M  V30 2269 H 211.869 1.62256 0.0684276 0
M  V30 2270 H 213.866 3.12285 2.76195 0
M  V30 2271 H 212.526 1.95896 2.5895 0
M  V30 2272 H 213.537 5.13247 0.692669 0
M  V30 2273 H 210.214 3.32075 2.53047 0
M  V30 2274 H 211.604 6.71089 0.330091 0
M  V30 2275 N 214.325 -0.140222 1.56975 0
M  V30 2276 C 215.235 -1.19223 2.02047 0
M  V30 2277 C 216.251 -1.46612 0.937062 0
M  V30 2278 O 217.427 -1.58148 1.24704 0
M  V30 2279 C 214.492 -2.50414 2.39778 0
M  V30 2280 C 213.553 -2.30612 3.621 0
M  V30 2281 C 212.786 -3.55547 3.98023 0
M  V30 2282 O 213.009 -4.62004 3.34528 0
M  V30 2283 O 211.943 -3.47808 4.91237 0
M  V30 2284 H 215.769 -0.839559 2.91865 0
M  V30 2285 H 213.354 -0.349453 1.45256 0
M  V30 2286 H 215.236 -3.27747 2.64877 0
M  V30 2287 H 213.911 -2.85198 1.53114 0
M  V30 2288 H 212.818 -1.51207 3.4218 0
M  V30 2289 H 214.151 -2.00741 4.49404 0
M  V30 2290 N 215.803 -1.52179 -0.40978 0
M  V30 2291 C 216.713 -1.78364 -1.52392 0
M  V30 2292 C 217.729 -0.669183 -1.60617 0
M  V30 2293 O 218.905 -0.954518 -1.77344 0
M  V30 2294 C 215.97 -1.92822 -2.88133 0
M  V30 2295 C 215.031 -3.16725 -2.898 0
M  V30 2296 C 214.264 -3.30483 -4.19067 0
M  V30 2297 O 214.487 -2.49522 -5.12928 0
M  V30 2298 O 213.421 -4.2363 -4.27576 0
M  V30 2299 H 217.247 -2.72931 -1.33201 0
M  V30 2300 H 214.832 -1.37016 -0.59557 0
M  V30 2301 H 216.714 -2.04157 -3.68643 0
M  V30 2302 H 215.389 -1.01444 -3.07393 0
M  V30 2303 H 214.296 -3.10848 -2.08146 0
M  V30 2304 H 215.629 -4.07881 -2.75489 0
M  V30 2305 N 217.281 0.66697 -1.42791 0
M  V30 2306 C 218.509 1.45505 -1.47091 0
M  V30 2307 C 218.924 1.8861 -0.0845873 0
M  V30 2308 O 218.281 1.58632 0.90234 0
M  V30 2309 C 218.332 2.69906 -2.40485 0
M  V30 2310 O 218.053 2.28608 -3.73725 0
M  V30 2311 C 219.554 3.63396 -2.53886 0
M  V30 2312 H 216.774 0.447459 -0.500022 0
M  V30 2313 H 219.318 0.818866 -1.8739 0
M  V30 2314 H 217.473 3.29696 -2.03419 0
M  V30 2315 H 217.887 3.08997 -4.23817 0
M  V30 2316 H 219.361 4.47387 -3.2334 0
M  V30 2317 H 219.838 4.09824 -1.57927 0
M  V30 2318 H 220.444 3.09495 -2.91706 0
M  V30 2319 N 218.759 1.29093 0.90403 0
M  V30 2320 C 219.722 1.1386 1.98919 0
M  V30 2321 C 220.722 0.0753457 1.60623 0
M  V30 2322 O 221.912 0.321931 1.71199 0
M  V30 2323 C 219.044 0.740198 3.32767 0
M  V30 2324 H 220.237 2.10246 2.13861 0
M  V30 2325 H 217.79 1.12218 1.08797 0
M  V30 2326 H 218.525 -0.223997 3.23525 0
M  V30 2327 H 218.31 1.50838 3.61926 0
M  V30 2328 H 219.8 0.656546 4.12407 0
M  V30 2329 N 220.237 -1.11381 1.11499 0
M  V30 2330 C 221.169 -2.17207 0.731704 0
M  V30 2331 C 222.182 -1.61066 -0.236957 0
M  V30 2332 O 223.371 -1.78489 -0.0197591 0
M  V30 2333 C 220.471 -3.38846 0.0607624 0
M  V30 2334 C 219.644 -4.24451 1.0564 0
M  V30 2335 C 218.703 -5.24562 0.4149 0
M  V30 2336 O 217.729 -5.59071 1.069 0
M  V30 2337 N 218.931 -5.74651 -0.821943 0
M  V30 2338 H 221.696 -2.50699 1.64225 0
M  V30 2339 H 219.257 -1.26908 1.00529 0
M  V30 2340 H 221.249 -4.02911 -0.380139 0
M  V30 2341 H 219.819 -3.03411 -0.752376 0
M  V30 2342 H 219.039 -3.56833 1.67524 0
M  V30 2343 H 220.327 -4.78486 1.72998 0
M  V30 2344 H 219.725 -5.48797 -1.37252 0
M  V30 2345 H 218.282 -6.40549 -1.20582 0
M  V30 2346 N 221.715 -0.905404 -1.28997 0
M  V30 2347 C 222.678 -0.392253 -2.25819 0
M  V30 2348 C 223.678 0.476753 -1.5357 0
M  V30 2349 O 224.868 0.280994 -1.71919 0
M  V30 2350 C 222 0.438588 -3.38067 0
M  V30 2351 H 223.193 -1.24743 -2.72725 0
M  V30 2352 H 220.746 -0.684051 -1.40536 0
M  V30 2353 H 221.481 1.31352 -2.96508 0
M  V30 2354 H 221.266 -0.184167 -3.91667 0
M  V30 2355 H 222.756 0.78873 -4.10084 0
M  V30 2356 N 223.193 1.4272 -0.668489 0
M  V30 2357 C 224.442 2.00846 -0.185389 0
M  V30 2358 C 224.755 1.53442 1.21305 0
M  V30 2359 O 225.961 2.03944 1.79218 0
M  V30 2360 C 224.417 3.58805 -0.280591 0
M  V30 2361 C 224.025 4.15198 -1.68268 0
M  V30 2362 C 225.769 4.24255 0.14412 0
M  V30 2363 C 223.676 5.655 -1.73099 0
M  V30 2364 H 222.606 0.751145 -0.0655475 0
M  V30 2365 H 225.257 1.63516 -0.832752 0
M  V30 2366 H 223.639 3.93608 0.434553 0
M  V30 2367 H 224.813 3.91866 -2.42441 0
M  V30 2368 H 223.128 3.62176 -2.05469 0
M  V30 2369 H 225.725 5.34547 0.128086 0
M  V30 2370 H 226.068 3.99277 1.17827 0
M  V30 2371 H 226.601 3.94389 -0.519798 0
M  V30 2372 H 223.34 5.95268 -2.74475 0
M  V30 2373 H 222.86 5.90842 -1.03274 0
M  V30 2374 H 224.539 6.29808 -1.48158 0
M  V30 2375 N 224.671 0.411399 1.52136 0
M  V30 2376 C 225.634 -0.401089 2.25663 0
M  V30 2377 C 226.634 -0.971732 1.28117 0
M  V30 2378 O 227.824 -0.850254 1.52041 0
M  V30 2379 C 224.956 -1.56483 3.02863 0
M  V30 2380 H 226.149 0.24295 2.98914 0
M  V30 2381 H 223.702 0.163968 1.55438 0
M  V30 2382 H 224.437 -2.24567 2.33967 0
M  V30 2383 H 224.222 -1.16211 3.74483 0
M  V30 2384 H 225.712 -2.13951 3.58629 0
M  V30 2385 N 226.149 -1.5696 0.141893 0
M  V30 2386 C 227.374 -2.00754 -0.520838 0
M  V30 2387 C 227.799 -1.0213 -1.57959 0
M  V30 2388 O 227.157 0.00371324 -1.813 0
M  V30 2389 C 227.205 -3.43318 -1.10294 0
M  V30 2390 O 226.309 -3.47679 -2.21795 0
M  V30 2391 H 225.65 -0.651564 -0.127908 0
M  V30 2392 H 228.18 -2.03221 0.23712 0
M  V30 2393 H 228.19 -3.82012 -1.43287 0
M  V30 2394 H 226.865 -4.14608 -0.327574 0
M  V30 2395 H 225.442 -3.20824 -1.9007 0
M  V30 2396 N 227.627 0.131896 -1.57047 0
M  V30 2397 C 228.857 0.855219 -1.88068 0
M  V30 2398 C 229.265 1.74557 -0.729817 0
M  V30 2399 O 228.608 1.81083 0.308962 0
M  V30 2400 C 228.67 1.75119 -3.13964 0
M  V30 2401 C 228.334 1.03646 -4.45091 0
M  V30 2402 C 229.331 0.383276 -5.18485 0
M  V30 2403 C 227.016 1.02148 -4.91804 0
M  V30 2404 C 229.01 -0.275347 -6.36805 0
M  V30 2405 C 226.697 0.359047 -6.10044 0
M  V30 2406 C 227.695 -0.288222 -6.82392 0
M  V30 2407 O 227.383 -0.94011 -7.98384 0
M  V30 2408 H 227.115 0.251864 -0.627328 0
M  V30 2409 H 229.669 0.124782 -2.05021 0
M  V30 2410 H 227.899 2.52295 -2.9306 0
M  V30 2411 H 229.588 2.3478 -3.31109 0
M  V30 2412 H 230.354 0.386562 -4.83457 0
M  V30 2413 H 226.233 1.5147 -4.35405 0
M  V30 2414 H 229.777 -0.781148 -6.93213 0
M  V30 2415 H 225.674 0.35348 -6.44531 0
M  V30 2416 H 226.442 -0.84329 -8.14144 0
M  V30 2417 N 229.106 1.52395 0.401703 0
M  V30 2418 C 230.354 1.66488 1.14569 0
M  V30 2419 C 230.675 0.400897 1.90835 0
M  V30 2420 O 229.945 -0.584415 1.8698 0
M  V30 2421 H 228.525 0.613672 0.425929 0
M  V30 2422 H 231.187 1.89464 0.457093 0
M  V30 2423 H 230.283 2.50942 1.85566 0
M  V30 2424 N 230.584 -0.659388 1.43143 0
M  V30 2425 C 231.809 -1.45221 1.48073 0
M  V30 2426 C 232.234 -1.87845 0.097995 0
M  V30 2427 O 231.592 -1.56985 -0.90694 0
M  V30 2428 C 231.64 -2.66748 2.42647 0
M  V30 2429 O 230.744 -3.65583 1.90848 0
M  V30 2430 H 230.085 -0.435669 0.501088 0
M  V30 2431 H 232.615 -0.807432 1.87994 0
M  V30 2432 H 232.625 -3.14637 2.59745 0
M  V30 2433 H 231.3 -2.35067 3.43098 0
M  V30 2434 H 229.877 -3.24693 1.83381 0
M  V30 2435 N 232.062 -1.29571 -0.897171 0
M  V30 2436 C 233.025 -1.14913 -1.98312 0
M  V30 2437 C 234.025 -0.0838629 -1.60581 0
M  V30 2438 O 235.215 -0.331006 -1.71026 0
M  V30 2439 C 232.347 -0.757835 -3.3237 0
M  V30 2440 H 233.54 -2.11377 -2.12743 0
M  V30 2441 H 231.093 -1.12793 -1.08201 0
M  V30 2442 H 231.828 0.206837 -3.2364 0
M  V30 2443 H 231.613 -1.52755 -3.61121 0
M  V30 2444 H 233.103 -0.678408 -4.12053 0
M  V30 2445 N 233.54 1.10788 -1.12088 0
M  V30 2446 C 234.786 1.82942 -0.875226 0
M  V30 2447 C 235.119 1.84779 0.597538 0
M  V30 2448 O 234.394 1.30578 1.44152 0
M  V30 2449 C 234.677 3.29789 -1.44606 0
M  V30 2450 C 234.53 3.36307 -2.98693 0
M  V30 2451 C 235.849 4.26064 -1.10261 0
M  V30 2452 H 232.968 0.664195 -0.319397 0
M  V30 2453 H 235.61 1.29867 -1.38689 0
M  V30 2454 H 233.76 3.75118 -1.01089 0
M  V30 2455 H 235.432 2.99487 -3.50864 0
M  V30 2456 H 233.675 2.76318 -3.34411 0
M  V30 2457 H 234.346 4.39694 -3.33726 0
M  V30 2458 H 236.822 3.88951 -1.4784 0
M  V30 2459 H 235.698 5.27183 -1.52869 0
M  V30 2460 H 235.959 4.42098 -0.0142953 0
M  V30 2461 N 235.018 0.912232 1.28515 0
M  V30 2462 C 236.246 0.560416 1.99166 0
M  V30 2463 C 236.661 -0.857927 1.68182 0
M  V30 2464 O 236.018 -1.56805 0.933733 0
M  V30 2465 C 236.069 0.758142 3.53461 0
M  V30 2466 O 235.79 2.12067 3.83352 0
M  V30 2467 C 237.291 0.412954 4.41372 0
M  V30 2468 H 234.511 0.213805 0.636026 0
M  V30 2469 H 237.055 1.22502 1.63749 0
M  V30 2470 H 235.21 0.140556 3.87145 0
M  V30 2471 H 235.624 2.15923 4.77993 0
M  V30 2472 H 237.098 0.60208 5.48707 0
M  V30 2473 H 237.575 -0.65073 4.34353 0
M  V30 2474 H 238.181 1.00802 4.13182 0
M  V30 2475 N 236.496 -1.42363 0.676048 0
M  V30 2476 C 237.446 -2.27987 -0.0242903 0
M  V30 2477 C 238.43 -1.41153 -0.772319 0
M  V30 2478 O 239.622 -1.64592 -0.651025 0
M  V30 2479 C 236.751 -3.29195 -0.973953 0
M  V30 2480 C 235.837 -4.23512 -0.223202 0
M  V30 2481 N 236.228 -4.99865 0.772589 0
M  V30 2482 C 234.526 -4.43606 -0.461469 0
M  V30 2483 C 235.227 -5.68757 1.22027 0
M  V30 2484 N 234.203 -5.40811 0.549975 0
M  V30 2485 H 238.005 -2.84445 0.73949 0
M  V30 2486 H 235.519 -1.54341 0.50522 0
M  V30 2487 H 237.516 -3.89339 -1.49067 0
M  V30 2488 H 236.176 -2.74298 -1.73755 0
M  V30 2489 H 237.187 -5.04921 1.15217 0
M  V30 2490 H 233.864 -3.99749 -1.20446 0
M  V30 2491 H 235.254 -6.40007 2.0455 0
M  V30 2492 N 237.974 -0.419461 -1.51915 0
M  V30 2493 C 239.223 0.154346 -2.01109 0
M  V30 2494 C 239.536 1.45338 -1.30905 0
M  V30 2495 O 240.742 2.10906 -1.7097 0
M  V30 2496 C 239.198 0.325615 -3.58424 0
M  V30 2497 C 238.806 -0.961934 -4.37551 0
M  V30 2498 C 240.55 0.854155 -4.15818 0
M  V30 2499 C 238.457 -0.757287 -5.86531 0
M  V30 2500 H 237.387 0.0614563 -0.751491 0
M  V30 2501 H 240.038 -0.54649 -1.75173 0
M  V30 2502 H 238.42 1.08903 -3.80731 0
M  V30 2503 H 239.594 -1.7323 -4.26999 0
M  V30 2504 H 237.909 -1.41766 -3.91524 0
M  V30 2505 H 240.506 1.02346 -5.24814 0
M  V30 2506 H 240.849 1.83172 -3.73837 0
M  V30 2507 H 241.382 0.149528 -3.97519 0
M  V30 2508 H 238.121 -1.70671 -6.32892 0
M  V30 2509 H 237.641 -0.0264061 -5.99794 0
M  V30 2510 H 239.32 -0.403482 -6.45741 0
M  V30 2511 N 239.452 1.56882 -0.150215 0
M  V30 2512 C 240.868 1.58263 0.20617 0
M  V30 2513 C 241.068 1.16464 1.64434 0
M  V30 2514 O 240.124 0.866422 2.3717 0
M  V30 2515 C 241.437 3.00649 -0.0555025 0
M  V30 2516 C 242.985 3.12999 0.00795388 0
M  V30 2517 C 243.46 4.5744 -0.226429 0
M  V30 2518 N 244.951 4.62875 -0.173469 0
M  V30 2519 C 245.686 5.72454 -0.329288 0
M  V30 2520 N 245.182 6.90669 -0.543005 0
M  V30 2521 N 246.975 5.61467 -0.266666 0
M  V30 2522 H 239.126 1.82345 -1.08922 0
M  V30 2523 H 241.389 0.844149 -0.431413 0
M  V30 2524 H 241.095 3.3563 -1.05096 0
M  V30 2525 H 240.969 3.71337 0.66246 0
M  V30 2526 H 243.356 2.77857 0.993966 0
M  V30 2527 H 243.437 2.4479 -0.742388 0
M  V30 2528 H 243.081 4.93287 -1.20956 0
M  V30 2529 H 243.011 5.2378 0.544274 0
M  V30 2530 H 245.502 3.77898 -0.0130709 0
M  V30 2531 H 245.815 7.70045 -0.651922 0
M  V30 2532 H 244.16 6.92581 -0.579366 0
M  V30 2533 H 247.351 4.67992 -0.100441 0
M  V30 2534 H 247.524 6.46816 -0.391535 0
M  V30 2535 N 240.93 -0.123565 1.57115 0
M  V30 2536 C 241.862 -1.17739 1.96648 0
M  V30 2537 C 242.875 -1.37906 0.865201 0
M  V30 2538 O 244.064 -1.37062 1.14351 0
M  V30 2539 C 241.164 -2.53821 2.24562 0
M  V30 2540 C 240.337 -2.54317 3.55867 0
M  V30 2541 C 239.396 -3.72112 3.72047 0
M  V30 2542 O 238.422 -3.55907 4.44206 0
M  V30 2543 N 239.624 -4.90498 3.10471 0
M  V30 2544 H 242.389 -0.841147 2.87654 0
M  V30 2545 H 239.95 -0.31289 1.58848 0
M  V30 2546 H 241.942 -3.31175 2.32606 0
M  V30 2547 H 240.512 -2.79645 1.39705 0
M  V30 2548 H 239.732 -1.62711 3.59053 0
M  V30 2549 H 241.02 -2.51701 4.42181 0
M  V30 2550 H 240.418 -5.06567 2.51806 0
M  V30 2551 H 238.975 -5.65544 3.24043 0
M  V30 2552 N 242.408 -1.52605 -0.393616 0
M  V30 2553 C 243.819 -1.59417 -0.971761 0
M  V30 2554 C 244.17 -0.444173 -1.91106 0
M  V30 2555 O 243.295 0.433382 -2.12016 0
M  V30 2556 C 243.89 -2.88936 -1.76921 0
M  V30 2557 C 242.449 -2.98175 -2.29714 0
M  V30 2558 C 241.596 -2.54491 -1.10135 0
M  V30 2559 H 244.547 -1.57751 -0.173317 0
M  V30 2560 H 244.568 -2.75163 -2.62804 0
M  V30 2561 H 244.08 -3.72616 -1.08532 0
M  V30 2562 H 242.181 -2.19024 -3.01429 0
M  V30 2563 H 242.294 -4.02726 -2.59517 0
M  V30 2564 H 240.658 -2.08702 -1.45999 0
M  V30 2565 H 241.441 -3.4056 -0.432874 0
M  V30 2566 N 243.887 0.651787 -1.4349 0
M  V30 2567 C 245.164 1.40909 -1.35661 0
M  V30 2568 C 245.544 2.11099 -0.00511733 0
M  V30 2569 O 244.892 2.04892 1.0115 0
M  V30 2570 C 245.102 2.3926 -2.54078 0
M  V30 2571 C 246.45 3.03217 -2.97228 0
M  V30 2572 O 247.474 2.49588 -2.54135 0
M  V30 2573 O 246.333 4.00455 -3.71885 0
M  V30 2574 H 243.427 0.629625 -0.536191 0
M  V30 2575 H 245.973 0.678575 -1.55542 0
M  V30 2576 H 244.745 1.86352 -3.44076 0
M  V30 2577 H 244.368 3.1976 -2.36303 0
M  V30 2578 N 245.365 1.30045 0.890287 0
M  V30 2579 C 246.295 1.18541 2.01172 0
M  V30 2580 C 247.276 0.0773356 1.69924 0
M  V30 2581 O 248.461 0.25845 1.92473 0
M  V30 2582 C 245.591 0.870941 3.36202 0
M  V30 2583 C 244.545 1.93637 3.81692 0
M  V30 2584 C 243.871 1.475 5.13953 0
M  V30 2585 C 245.171 3.34666 4.00994 0
M  V30 2586 H 246.865 2.12359 2.11054 0
M  V30 2587 H 244.411 1.02238 1.01407 0
M  V30 2588 H 246.364 0.777141 4.14172 0
M  V30 2589 H 245.088 -0.102926 3.26438 0
M  V30 2590 H 243.747 2.01972 3.05946 0
M  V30 2591 H 243.395 0.489551 5.00612 0
M  V30 2592 H 243.095 2.1876 5.4536 0
M  V30 2593 H 244.619 1.39489 5.94454 0
M  V30 2594 H 246.033 3.2912 4.69417 0
M  V30 2595 H 244.43 4.03966 4.43769 0
M  V30 2596 H 245.5 3.76949 3.05021 0
M  V30 2597 N 246.843 -1.10192 1.12674 0
M  V30 2598 C 248.068 -1.86523 0.906853 0
M  V30 2599 C 248.493 -1.80221 -0.538711 0
M  V30 2600 O 247.851 -1.17396 -1.38158 0
M  V30 2601 C 247.899 -3.32758 1.3894 0
M  V30 2602 O 247.003 -4.08449 0.5695 0
M  V30 2603 H 246.344 -0.578678 0.325619 0
M  V30 2604 H 248.874 -1.39203 1.49946 0
M  V30 2605 H 248.884 -3.83608 1.38958 0
M  V30 2606 H 247.559 -3.36661 2.44197 0
M  V30 2607 H 246.136 -3.67427 0.636528 0
M  V30 2608 N 248.321 -0.919034 -1.28029 0
M  V30 2609 C 249.546 -0.570357 -1.99403 0
M  V30 2610 C 249.971 0.842486 -1.68178 0
M  V30 2611 O 249.329 1.56391 -0.917141 0
M  V30 2612 C 249.377 -0.792541 -3.51783 0
M  V30 2613 O 248.481 0.145988 -4.12142 0
M  V30 2614 H 247.822 -0.220555 -0.6263 0
M  V30 2615 H 250.352 -1.23592 -1.63053 0
M  V30 2616 H 250.362 -0.704708 -4.01868 0
M  V30 2617 H 249.037 -1.82247 -3.73844 0
M  V30 2618 H 247.614 0.00897528 -3.72899 0
M  V30 2619 N 249.799 1.42003 -0.683588 0
M  V30 2620 C 251.048 2.00638 -0.206681 0
M  V30 2621 C 251.361 1.5472 1.19671 0
M  V30 2622 O 252.567 2.05833 1.77045 0
M  V30 2623 C 251.023 3.58487 -0.318632 0
M  V30 2624 C 250.631 4.1339 -1.72663 0
M  V30 2625 C 252.375 4.24384 0.0991141 0
M  V30 2626 C 250.282 5.63633 -1.79087 0
M  V30 2627 H 249.212 0.750408 -0.0735107 0
M  V30 2628 H 251.863 1.62624 -0.850048 0
M  V30 2629 H 250.245 3.94047 0.392781 0
M  V30 2630 H 251.419 3.89273 -2.46583 0
M  V30 2631 H 249.734 3.59976 -2.09299 0
M  V30 2632 H 252.331 5.34652 0.0713833 0
M  V30 2633 H 252.674 4.00505 1.13586 0
M  V30 2634 H 253.207 3.93816 -0.561599 0
M  V30 2635 H 249.946 5.92323 -2.80774 0
M  V30 2636 H 249.466 5.89714 -1.09535 0
M  V30 2637 H 251.145 6.28201 -1.5483 0
M  V30 2638 N 251.277 0.427512 1.51691 0
M  V30 2639 C 252.24 -0.377132 2.26076 0
M  V30 2640 C 253.24 -0.958089 1.29141 0
M  V30 2641 O 254.43 -0.83408 1.52934 0
M  V30 2642 C 251.562 -1.53262 3.04506 0
M  V30 2643 H 252.755 0.27464 2.9864 0
M  V30 2644 H 250.308 0.180445 1.55255 0
M  V30 2645 H 251.043 -2.22072 2.36335 0
M  V30 2646 H 250.828 -1.12232 3.75694 0
M  V30 2647 H 252.318 -2.10135 3.60878 0
M  V30 2648 N 252.755 -1.56801 0.158532 0
M  V30 2649 C 254.001 -1.96781 -0.490405 0
M  V30 2650 C 254.334 -1.04397 -1.63753 0
M  V30 2651 O 253.609 -0.0885805 -1.94298 0
M  V30 2652 C 253.892 -3.4635 -0.985594 0
M  V30 2653 C 253.745 -4.49512 0.160824 0
M  V30 2654 C 255.064 -3.98697 -1.86355 0
M  V30 2655 H 252.183 -0.715482 -0.176788 0
M  V30 2656 H 254.825 -1.88451 0.242088 0
M  V30 2657 H 252.975 -3.53579 -1.60978 0
M  V30 2658 H 254.647 -4.54353 0.797537 0
M  V30 2659 H 252.89 -4.26013 0.818256 0
M  V30 2660 H 253.561 -5.51531 -0.227569 0
M  V30 2661 H 256.037 -3.94019 -1.33746 0
M  V30 2662 H 254.913 -5.03792 -2.17909 0
M  V30 2663 H 255.174 -3.41744 -2.8047 0
M  V30 2664 N 254.233 0.115231 -1.57178 0
M  V30 2665 C 255.644 0.67197 -1.74188 0
M  V30 2666 C 255.995 1.80125 -0.777777 0
M  V30 2667 O 255.12 2.16346 0.0484376 0
M  V30 2668 C 255.715 1.22573 -3.1585 0
M  V30 2669 C 254.274 1.72872 -3.34353 0
M  V30 2670 C 253.421 0.629972 -2.70049 0
M  V30 2671 H 256.372 -0.110712 -1.58313 0
M  V30 2672 H 256.393 2.09535 -3.17609 0
M  V30 2673 H 255.905 0.403598 -3.85996 0
M  V30 2674 H 254.006 2.5755 -2.69256 0
M  V30 2675 H 254.119 1.83557 -4.42542 0
M  V30 2676 H 252.483 1.0645 -2.31388 0
M  V30 2677 H 253.266 -0.181241 -3.42821 0
M  V30 2678 N 255.711 1.52812 0.385517 0
M  V30 2679 C 257.122 1.5993 0.963293 0
M  V30 2680 C 257.473 0.454302 1.90868 0
M  V30 2681 O 256.598 -0.422132 2.12243 0
M  V30 2682 C 257.193 2.89871 1.75387 0
M  V30 2683 C 255.752 2.99389 2.28129 0
M  V30 2684 C 254.899 2.55071 1.08783 0
M  V30 2685 H 257.85 1.5784 0.164948 0
M  V30 2686 H 257.871 2.76553 2.61341 0
M  V30 2687 H 257.383 3.73186 1.06554 0
M  V30 2688 H 255.484 2.20619 3.00263 0
M  V30 2689 H 255.597 4.04096 2.57377 0
M  V30 2690 H 253.961 2.09473 1.4489 0
M  V30 2691 H 254.744 3.40785 0.414807 0
M  V30 2692 N 257.189 -0.644168 1.43834 0
M  V30 2693 C 258.466 -1.40188 1.36406 0
M  V30 2694 C 258.846 -2.11094 0.0163124 0
M  V30 2695 O 258.194 -2.05426 -1.00062 0
M  V30 2696 C 258.404 -2.3791 2.55343 0
M  V30 2697 C 259.752 -3.01637 2.98832 0
M  V30 2698 O 260.776 -2.48237 2.55455 0
M  V30 2699 O 259.635 -3.98477 3.74003 0
M  V30 2700 H 256.729 -0.626773 0.539523 0
M  V30 2701 H 259.275 -0.670317 1.559 0
M  V30 2702 H 258.047 -1.84525 3.4506 0
M  V30 2703 H 257.67 -3.18503 2.37995 0
M  V30 2704 N 258.668 -1.30515 -0.883378 0
M  V30 2705 C 259.618 -1.13641 -1.9766 0
M  V30 2706 C 260.602 -0.0511314 -1.60819 0
M  V30 2707 O 261.794 -0.274623 -1.74857 0
M  V30 2708 C 258.923 -0.831976 -3.33066 0
M  V30 2709 C 258.009 -1.95759 -3.76217 0
M  V30 2710 N 258.4 -3.20313 -3.9145 0
M  V30 2711 C 256.698 -1.85431 -4.05625 0
M  V30 2712 C 257.399 -3.93856 -4.2808 0
M  V30 2713 N 256.375 -3.21919 -4.38029 0
M  V30 2714 H 260.177 -2.08106 -2.07531 0
M  V30 2715 H 257.691 -1.21877 -1.0733 0
M  V30 2716 H 259.688 -0.692102 -4.11115 0
M  V30 2717 H 258.348 0.104588 -3.24532 0
M  V30 2718 H 259.359 -3.55583 -3.76538 0
M  V30 2719 H 256.036 -0.991531 -4.05555 0
M  V30 2720 H 257.426 -5.01125 -4.47575 0
M  V30 2721 N 260.146 1.09593 -1.13257 0
M  V30 2722 C 261.562 1.33775 -0.870423 0
M  V30 2723 C 261.762 1.95327 0.494926 0
M  V30 2724 O 260.818 2.19853 1.2418 0
M  V30 2725 C 262.131 2.25106 -1.99369 0
M  V30 2726 C 263.679 2.3862 -2.02558 0
M  V30 2727 C 264.154 3.33285 -3.14142 0
M  V30 2728 N 265.645 3.40857 -3.13641 0
M  V30 2729 C 266.38 4.14101 -3.96621 0
M  V30 2730 N 265.876 4.90157 -4.8961 0
M  V30 2731 N 267.669 4.09808 -3.84726 0
M  V30 2732 H 259.82 0.680136 -2.01216 0
M  V30 2733 H 262.083 0.362133 -0.876107 0
M  V30 2734 H 261.789 1.87103 -2.97801 0
M  V30 2735 H 261.663 3.25481 -1.90635 0
M  V30 2736 H 264.05 2.75887 -1.0474 0
M  V30 2737 H 264.131 1.38028 -2.15364 0
M  V30 2738 H 263.775 2.96741 -4.12198 0
M  V30 2739 H 263.705 4.33776 -2.98574 0
M  V30 2740 H 266.196 2.86624 -2.46282 0
M  V30 2741 H 266.509 5.4347 -5.49418 0
M  V30 2742 H 264.854 4.89251 -4.93617 0
M  V30 2743 H 268.045 3.4949 -3.11408 0
M  V30 2744 H 268.218 4.66629 -4.49623 0
M  V30 2745 N 261.624 0.925811 1.2754 0
M  V30 2746 C 262.571 0.422045 2.26908 0
M  V30 2747 C 263.541 -0.510029 1.58076 0
M  V30 2748 O 264.726 -0.429599 1.85901 0
M  V30 2749 C 261.866 -0.320837 3.43605 0
M  V30 2750 C 260.979 0.64513 4.27156 0
M  V30 2751 C 260.114 -0.117405 5.3107 0
M  V30 2752 C 259.153 0.841391 6.0629 0
M  V30 2753 N 258.29 0.111604 7.02011 0
M  V30 2754 H 263.13 1.27441 2.69375 0
M  V30 2755 H 260.667 0.639697 1.32462 0
M  V30 2756 H 262.625 -0.76785 4.10073 0
M  V30 2757 H 261.255 -1.13745 3.02096 0
M  V30 2758 H 260.307 1.21067 3.6062 0
M  V30 2759 H 261.619 1.37797 4.79389 0
M  V30 2760 H 260.773 -0.624422 6.03478 0
M  V30 2761 H 259.512 -0.883219 4.79636 0
M  V30 2762 H 258.517 1.35967 5.32722 0
M  V30 2763 H 259.742 1.60696 6.59813 0
M  V30 2764 H 257.688 -0.635999 6.5291 0
M  V30 2765 H 257.605 0.784044 7.51923 0
M  V30 2766 H 258.873 -0.374823 7.78598 0
M  V30 2767 N 263.102 -1.41638 0.69111 0
M  V30 2768 C 264.349 -2.01299 0.220193 0
M  V30 2769 C 264.677 -1.54715 -1.17871 0
M  V30 2770 O 263.932 -0.747193 -1.80874 0
M  V30 2771 C 264.231 -3.56714 0.221277 0
M  V30 2772 C 263.897 -4.22792 1.56709 0
M  V30 2773 C 262.559 -4.40557 1.93554 0
M  V30 2774 C 264.911 -4.59883 2.45268 0
M  V30 2775 C 262.239 -4.92688 3.18552 0
M  V30 2776 C 264.591 -5.13403 3.69595 0
M  V30 2777 C 263.255 -5.29379 4.06589 0
M  V30 2778 H 262.525 -0.736606 0.0805743 0
M  V30 2779 H 265.172 -1.69598 0.889319 0
M  V30 2780 H 263.477 -3.8818 -0.531391 0
M  V30 2781 H 265.174 -4.00678 -0.160547 0
M  V30 2782 H 261.764 -4.09336 1.2705 0
M  V30 2783 H 265.948 -4.45817 2.18084 0
M  V30 2784 H 261.204 -5.03242 3.47214 0
M  V30 2785 H 265.378 -5.41084 4.38407 0
M  V30 2786 H 263.005 -5.69537 5.03519 0
M  V30 2787 N 264.58 -0.43555 -1.51462 0
M  V30 2788 C 265.512 0.41257 -2.25456 0
M  V30 2789 C 266.525 0.987822 -1.29406 0
M  V30 2790 O 267.714 0.882266 -1.55172 0
M  V30 2791 C 264.814 1.58894 -2.99342 0
M  V30 2792 C 263.987 1.13288 -4.22474 0
M  V30 2793 C 263.046 2.17917 -4.78956 0
M  V30 2794 O 262.072 1.77425 -5.40841 0
M  V30 2795 N 263.274 3.50382 -4.62832 0
M  V30 2796 H 266.039 -0.221603 -2.9888 0
M  V30 2797 H 263.6 -0.264342 -1.59727 0
M  V30 2798 H 265.592 2.28508 -3.34015 0
M  V30 2799 H 264.162 2.12849 -2.28941 0
M  V30 2800 H 263.382 0.263881 -3.93316 0
M  V30 2801 H 264.67 0.805542 -5.02383 0
M  V30 2802 H 264.068 3.86013 -4.13534 0
M  V30 2803 H 262.625 4.15895 -5.01871 0
M  V30 2804 N 266.058 1.56714 -0.166846 0
M  V30 2805 C 267.306 1.96358 0.478305 0
M  V30 2806 C 267.627 1.0537 1.6408 0
M  V30 2807 O 266.897 0.119154 1.95537 0
M  V30 2808 H 265.477 0.725065 0.179692 0
M  V30 2809 H 268.139 1.93329 -0.246985 0
M  V30 2810 H 267.235 3.00547 0.841292 0
M  V30 2811 N 267.536 -0.106894 1.57237 0
M  V30 2812 C 268.766 -0.825191 1.89405 0
M  V30 2813 C 269.174 -1.73374 0.757496 0
M  V30 2814 O 268.517 -1.81552 -0.280115 0
M  V30 2815 C 268.579 -1.70102 3.1671 0
M  V30 2816 C 268.243 -0.965523 4.46684 0
M  V30 2817 C 269.24 -0.300741 5.19029 0
M  V30 2818 C 266.925 -0.943105 4.93367 0
M  V30 2819 C 268.919 0.376622 6.36286 0
M  V30 2820 C 266.606 -0.261949 6.10538 0
M  V30 2821 C 267.604 0.396748 6.81847 0
M  V30 2822 O 267.292 1.06701 7.96787 0
M  V30 2823 H 267.024 -0.241852 0.631255 0
M  V30 2824 H 269.578 -0.0921491 2.05193 0
M  V30 2825 H 267.808 -2.47601 2.97036 0
M  V30 2826 H 269.497 -2.29483 3.34802 0
M  V30 2827 H 270.263 -0.309599 4.84011 0
M  V30 2828 H 266.142 -1.44524 4.3776 0
M  V30 2829 H 269.686 0.891334 6.91882 0
M  V30 2830 H 265.583 -0.250896 6.45012 0
M  V30 2831 H 266.351 0.972707 8.127 0
M  V30 2832 N 269.014 -1.53014 -0.377408 0
M  V30 2833 C 270.244 -1.72265 -1.14054 0
M  V30 2834 C 270.652 -0.44601 -1.83868 0
M  V30 2835 O 269.995 0.590095 -1.73964 0
M  V30 2836 C 270.057 -2.82492 -2.22348 0
M  V30 2837 C 269.721 -4.23233 -1.72402 0
M  V30 2838 C 270.718 -5.05992 -1.19448 0
M  V30 2839 C 268.403 -4.696 -1.78273 0
M  V30 2840 C 270.397 -6.33203 -0.730268 0
M  V30 2841 C 268.084 -5.96792 -1.31464 0
M  V30 2842 C 269.082 -6.78424 -0.789297 0
M  V30 2843 O 268.77 -8.0323 -0.328077 0
M  V30 2844 H 268.502 -0.579873 -0.347453 0
M  V30 2845 H 271.056 -2.00502 -0.445882 0
M  V30 2846 H 269.286 -2.49702 -2.95272 0
M  V30 2847 H 270.975 -2.90034 -2.83963 0
M  V30 2848 H 271.741 -4.71349 -1.14259 0
M  V30 2849 H 267.62 -4.06142 -2.18106 0
M  V30 2850 H 271.164 -6.96868 -0.319542 0
M  V30 2851 H 267.061 -6.30937 -1.36342 0
M  V30 2852 H 267.829 -8.1727 -0.448493 0
M  V30 2853 N 270.492 0.636531 -1.44174 0
M  V30 2854 C 271.439 1.74875 -1.50624 0
M  V30 2855 C 272.409 1.62275 -0.35442 0
M  V30 2856 O 273.594 1.82276 -0.563908 0
M  V30 2857 C 270.734 3.13102 -1.45125 0
M  V30 2858 C 269.847 3.36717 -2.7064 0
M  V30 2859 C 268.982 4.64885 -2.57013 0
M  V30 2860 C 268.021 4.8166 -3.77717 0
M  V30 2861 N 267.158 6.01101 -3.62798 0
M  V30 2862 H 271.998 1.68697 -2.45653 0
M  V30 2863 H 269.535 0.823004 -1.21922 0
M  V30 2864 H 271.493 3.93034 -1.39929 0
M  V30 2865 H 270.123 3.18308 -0.536671 0
M  V30 2866 H 269.175 2.50763 -2.86046 0
M  V30 2867 H 270.487 3.44993 -3.60252 0
M  V30 2868 H 269.641 5.52969 -2.49619 0
M  V30 2869 H 268.38 4.58957 -1.64953 0
M  V30 2870 H 267.385 3.92007 -3.85501 0
M  V30 2871 H 268.61 4.89406 -4.70807 0
M  V30 2872 H 266.556 5.96273 -2.73486 0
M  V30 2873 H 266.473 6.10409 -4.46023 0
M  V30 2874 H 267.741 6.91761 -3.59286 0
M  V30 2875 N 271.97 1.30982 0.876444 0
M  V30 2876 C 273.219 1.19658 1.62373 0
M  V30 2877 C 273.532 -0.245636 1.94052 0
M  V30 2878 O 274.738 -0.48049 2.67214 0
M  V30 2879 C 273.194 2.09433 2.92687 0
M  V30 2880 C 272.802 3.58613 2.68516 0
M  V30 2881 C 274.546 2.06893 3.70669 0
M  V30 2882 C 272.453 4.40416 3.94699 0
M  V30 2883 H 271.383 0.444268 0.609214 0
M  V30 2884 H 274.034 1.55791 0.969605 0
M  V30 2885 H 272.416 1.66191 3.59439 0
M  V30 2886 H 273.59 4.10058 2.10212 0
M  V30 2887 H 271.905 3.63063 2.03898 0
M  V30 2888 H 274.502 2.65258 4.64265 0
M  V30 2889 H 274.845 1.05448 4.02724 0
M  V30 2890 H 275.378 2.48301 3.10792 0
M  V30 2891 H 272.117 5.42591 3.67798 0
M  V30 2892 H 271.637 3.93731 4.52477 0
M  V30 2893 H 273.316 4.52294 4.62644 0
M  V30 2894 N 273.449 -1.08991 1.13837 0
M  V30 2895 C 274.412 -2.13925 0.822715 0
M  V30 2896 C 275.412 -1.599 -0.1699 0
M  V30 2897 O 276.602 -1.74104 0.0577251 0
M  V30 2898 C 273.734 -3.40155 0.225318 0
M  V30 2899 H 274.927 -2.43358 1.75262 0
M  V30 2900 H 272.48 -1.24603 0.943594 0
M  V30 2901 H 273.215 -3.16352 -0.713594 0
M  V30 2902 H 273 -3.80661 0.940193 0
M  V30 2903 H 274.49 -4.17594 0.0214784 0
M  V30 2904 N 274.927 -0.932562 -1.27047 0
M  V30 2905 C 276.343 -0.633544 -1.46487 0
M  V30 2906 C 276.543 0.815746 -1.84249 0
M  V30 2907 O 275.599 1.59319 -1.95892 0
M  V30 2908 C 276.912 -1.58758 -2.55375 0
M  V30 2909 C 278.46 -1.59634 -2.69232 0
M  V30 2910 C 278.935 -2.53747 -3.81283 0
M  V30 2911 N 280.426 -2.51982 -3.88664 0
M  V30 2912 C 281.161 -3.21491 -4.74796 0
M  V30 2913 N 280.657 -4.00395 -5.65381 0
M  V30 2914 N 282.45 -3.10485 -4.68568 0
M  V30 2915 H 274.601 -1.86946 -1.00821 0
M  V30 2916 H 276.864 -0.802897 -0.504044 0
M  V30 2917 H 276.57 -2.62172 -2.34432 0
M  V30 2918 H 276.444 -1.33301 -3.52861 0
M  V30 2919 H 278.831 -0.569488 -2.89553 0
M  V30 2920 H 278.912 -1.89142 -1.72218 0
M  V30 2921 H 278.556 -3.56545 -3.61715 0
M  V30 2922 H 278.486 -2.21532 -4.77735 0
M  V30 2923 H 280.977 -1.94681 -3.23895 0
M  V30 2924 H 281.29 -4.50406 -6.27976 0
M  V30 2925 H 279.635 -4.04498 -5.65161 0
M  V30 2926 H 282.826 -2.48331 -3.96799 0
M  V30 2927 H 282.999 -3.64925 -5.35475 0
M  V30 2928 N 276.405 1.4127 -0.698611 0
M  V30 2929 C 277.355 2.27997 -0.0119836 0
M  V30 2930 C 278.339 1.42363 0.749765 0
M  V30 2931 O 279.531 1.65607 0.624758 0
M  V30 2932 C 276.66 3.30702 0.921458 0
M  V30 2933 C 275.746 4.23814 0.155796 0
M  V30 2934 N 276.137 4.98572 -0.852015 0
M  V30 2935 C 274.435 4.44284 0.390836 0
M  V30 2936 C 275.136 5.66744 -1.3106 0
M  V30 2937 N 274.112 5.39867 -0.635944 0
M  V30 2938 H 277.914 2.83232 -0.784649 0
M  V30 2939 H 275.428 1.53518 -0.529711 0
M  V30 2940 H 277.425 3.91661 1.42854 0
M  V30 2941 H 276.085 2.77028 1.69369 0
M  V30 2942 H 277.096 5.03024 -1.23235 0
M  V30 2943 H 273.773 4.01614 1.14071 0
M  V30 2944 H 275.163 6.36672 -2.14707 0
M  V30 2945 N 277.883 0.443576 1.51229 0
M  V30 2946 C 279.113 -0.119117 2.06256 0
M  V30 2947 C 279.521 -1.36471 1.31043 0
M  V30 2948 O 278.864 -1.80034 0.365151 0
M  V30 2949 C 278.926 -0.500546 3.55998 0
M  V30 2950 C 278.59 0.639125 4.52509 0
M  V30 2951 C 279.587 1.51311 4.97394 0
M  V30 2952 C 277.272 0.821632 4.95535 0
M  V30 2953 C 279.266 2.55425 5.83984 0
M  V30 2954 C 276.953 1.86603 5.81913 0
M  V30 2955 C 277.951 2.73072 6.26036 0
M  V30 2956 O 277.639 3.75718 7.10698 0
M  V30 2957 H 277.371 -0.00857665 0.675946 0
M  V30 2958 H 279.925 0.623288 1.95715 0
M  V30 2959 H 278.155 -1.29575 3.64345 0
M  V30 2960 H 279.844 -0.995116 3.93513 0
M  V30 2961 H 280.61 1.38367 4.64844 0
M  V30 2962 H 276.489 0.158149 4.60729 0
M  V30 2963 H 280.033 3.22949 6.18344 0
M  V30 2964 H 275.93 1.99564 6.13876 0
M  V30 2965 H 276.698 3.72374 7.2889 0
M  V30 2966 N 279.361 -1.56624 0.175154 0
M  V30 2967 C 280.777 -1.58571 -0.180966 0
M  V30 2968 C 280.977 -1.19065 -1.6256 0
M  V30 2969 O 280.033 -0.904044 -2.35761 0
M  V30 2970 C 281.346 -3.00522 0.103326 0
M  V30 2971 C 282.894 -3.12972 0.0418426 0
M  V30 2972 C 283.369 -4.57022 0.299175 0
M  V30 2973 N 284.86 -4.62541 0.247086 0
M  V30 2974 C 285.595 -5.71857 0.420318 0
M  V30 2975 N 285.091 -6.89717 0.652816 0
M  V30 2976 N 286.884 -5.60972 0.355957 0
M  V30 2977 H 279.035 -1.80589 1.11809 0
M  V30 2978 H 281.298 -0.837178 0.444788 0
M  V30 2979 H 281.004 -3.33916 1.10422 0
M  V30 2980 H 280.878 -3.72344 -0.603299 0
M  V30 2981 H 283.265 -2.79403 -0.949636 0
M  V30 2982 H 283.346 -2.43578 0.781238 0
M  V30 2983 H 282.99 -4.913 1.28788 0
M  V30 2984 H 282.92 -5.24579 -0.460876 0
M  V30 2985 H 285.411 -3.77829 0.0731895 0
M  V30 2986 H 285.724 -7.68911 0.774347 0
M  V30 2987 H 284.069 -6.91572 0.689476 0
M  V30 2988 H 287.26 -4.67773 0.174882 0
M  V30 2989 H 287.433 -6.46111 0.494388 0
M  V30 2990 N 280.839 0.0985539 -1.57292 0
M  V30 2991 C 282.085 0.798769 -1.87059 0
M  V30 2992 C 282.44 1.76514 -0.76555 0
M  V30 2993 O 281.733 1.90181 0.232752 0
M  V30 2994 C 281.927 1.56927 -3.21105 0
M  V30 2995 C 281.756 0.679026 -4.44544 0
M  V30 2996 C 280.526 0.326071 -5.04247 0
M  V30 2997 C 282.724 -0.0124715 -5.14298 0
M  V30 2998 N 280.706 -0.572702 -6.11223 0
M  V30 2999 C 282.077 -0.769446 -6.15207 0
M  V30 3000 C 284.132 -0.0867545 -4.97824 0
M  V30 3001 C 282.835 -1.59376 -7.01421 0
M  V30 3002 C 284.861 -0.897955 -5.84543 0
M  V30 3003 C 284.223 -1.64306 -6.84969 0
M  V30 3004 H 280.322 0.268568 -0.734435 0
M  V30 3005 H 282.906 0.0614664 -1.94603 0
M  V30 3006 H 281.077 2.27748 -3.1462 0
M  V30 3007 H 282.809 2.21641 -3.38611 0
M  V30 3008 H 279.564 0.67295 -4.68795 0
M  V30 3009 H 279.988 -1.01454 -6.69355 0
M  V30 3010 H 284.63 0.474963 -4.20124 0
M  V30 3011 H 282.348 -2.16655 -7.78515 0
M  V30 3012 H 285.934 -0.958059 -5.73858 0
M  V30 3013 H 284.814 -2.26065 -7.50909 0
M  V30 3014 N 282.317 1.53212 0.369288 0
M  V30 3015 C 283.28 1.7872 1.43498 0
M  V30 3016 C 284.28 0.657554 1.46741 0
M  V30 3017 O 285.47 0.925736 1.47566 0
M  V30 3018 C 282.602 1.90591 2.82645 0
M  V30 3019 H 283.795 2.73894 1.22156 0
M  V30 3020 H 281.348 1.44233 0.602203 0
M  V30 3021 H 282.083 0.974709 3.09306 0
M  V30 3022 H 281.868 2.72751 2.8169 0
M  V30 3023 H 283.358 2.11931 3.59826 0
M  V30 3024 N 283.795 -0.628877 1.44509 0
M  V30 3025 C 284.725 -1.75187 1.54376 0
M  V30 3026 C 285.706 -1.65411 0.396618 0
M  V30 3027 O 286.891 -1.84137 0.617031 0
M  V30 3028 C 284.021 -3.13725 1.48976 0
M  V30 3029 C 282.975 -3.38291 2.62189 0
M  V30 3030 C 282.301 -4.76883 2.41841 0
M  V30 3031 C 283.601 -3.30632 4.04326 0
M  V30 3032 H 285.295 -1.67187 2.48373 0
M  V30 3033 H 282.841 -0.802909 1.19538 0
M  V30 3034 H 284.794 -3.92064 1.54478 0
M  V30 3035 H 283.518 -3.22515 0.514961 0
M  V30 3036 H 282.177 -2.62334 2.56079 0
M  V30 3037 H 281.825 -4.82378 1.42548 0
M  V30 3038 H 281.525 -4.94278 3.17747 0
M  V30 3039 H 283.049 -5.57449 2.49165 0
M  V30 3040 H 284.463 -3.98873 4.11793 0
M  V30 3041 H 282.86 -3.59561 4.80454 0
M  V30 3042 H 283.93 -2.28404 4.27738 0
M  V30 3043 N 285.273 -1.31445 -0.869486 0
M  V30 3044 C 286.521 -1.20918 -1.61936 0
M  V30 3045 C 286.842 0.232683 -1.93607 0
M  V30 3046 O 286.112 1.15352 -1.58338 0
M  V30 3047 H 284.692 -0.44454 -0.600328 0
M  V30 3048 H 287.354 -1.64776 -1.0409 0
M  V30 3049 H 286.45 -1.78124 -2.56278 0
M  V30 3050 N 286.751 1.08385 -1.14413 0
M  V30 3051 C 287.683 2.1519 -0.789036 0
M  V30 3052 C 288.696 1.61638 0.19417 0
M  V30 3053 O 289.885 1.78479 -0.0275711 0
M  V30 3054 C 286.985 3.38565 -0.15058 0
M  V30 3055 C 286.158 4.21501 -1.16857 0
M  V30 3056 C 285.217 5.23277 -0.553832 0
M  V30 3057 O 284.243 5.56041 -1.21686 0
M  V30 3058 N 285.445 5.76629 0.669296 0
M  V30 3059 H 288.21 2.46257 -1.70814 0
M  V30 3060 H 285.771 1.24198 -1.03858 0
M  V30 3061 H 287.763 4.03777 0.273181 0
M  V30 3062 H 286.333 3.05299 0.671667 0
M  V30 3063 H 285.553 3.52265 -1.76926 0
M  V30 3064 H 286.841 4.73731 -1.85624 0
M  V30 3065 H 286.239 5.52243 1.22654 0
M  V30 3066 H 284.796 6.43521 1.03556 0
M  V30 3067 N 288.23 0.939286 1.26551 0
M  V30 3068 C 289.476 0.586715 1.94128 0
M  V30 3069 C 289.809 -0.8717 1.73537 0
M  V30 3070 O 289.084 -1.62339 1.07127 0
M  V30 3071 C 289.367 0.927497 3.4795 0
M  V30 3072 C 289.22 2.44052 3.77834 0
M  V30 3073 C 290.539 0.441569 4.37879 0
M  V30 3074 H 287.658 0.21463 0.705055 0
M  V30 3075 H 290.3 1.17316 1.49455 0
M  V30 3076 H 288.45 0.428431 3.8613 0
M  V30 3077 H 290.122 3.01216 3.4938 0
M  V30 3078 H 288.365 2.8848 3.23978 0
M  V30 3079 H 289.036 2.62947 4.85348 0
M  V30 3080 H 291.512 0.869448 4.06915 0
M  V30 3081 H 290.388 0.708856 5.44304 0
M  V30 3082 H 290.649 -0.658467 4.37169 0
M  V30 3083 N 289.708 -1.40897 0.706093 0
M  V30 3084 C 290.955 -2.01054 0.241531 0
M  V30 3085 C 291.283 -1.55956 -1.16223 0
M  V30 3086 O 290.538 -0.766336 -1.80072 0
M  V30 3087 C 290.837 -3.5646 0.259099 0
M  V30 3088 C 290.503 -4.21106 1.61184 0
M  V30 3089 C 289.165 -4.38479 1.98216 0
M  V30 3090 C 291.517 -4.57256 2.50132 0
M  V30 3091 C 288.845 -4.89282 3.2376 0
M  V30 3092 C 291.197 -5.09454 3.7502 0
M  V30 3093 C 289.861 -5.25037 4.12181 0
M  V30 3094 H 289.131 -0.73571 0.0883825 0
M  V30 3095 H 291.778 -1.68645 0.907257 0
M  V30 3096 H 290.083 -3.88721 -0.490189 0
M  V30 3097 H 291.78 -4.00826 -0.11804 0
M  V30 3098 H 288.37 -4.07966 1.31384 0
M  V30 3099 H 292.554 -4.43479 2.228 0
M  V30 3100 H 287.81 -4.99531 3.52532 0
M  V30 3101 H 291.984 -5.36404 4.44121 0
M  V30 3102 H 289.611 -5.64164 5.09532 0
M  V30 3103 N 291.186 -0.45159 -1.50991 0
M  V30 3104 C 292.602 -0.104647 -1.59257 0
M  V30 3105 C 292.802 1.38728 -1.4614 0
M  V30 3106 O 291.858 2.15866 -1.30989 0
M  V30 3107 C 293.171 -0.637468 -2.93865 0
M  V30 3108 C 294.719 -0.599166 -3.07212 0
M  V30 3109 C 295.194 -1.1092 -4.44366 0
M  V30 3110 N 296.685 -1.06778 -4.50725 0
M  V30 3111 C 297.42 -1.43314 -5.55201 0
M  V30 3112 N 296.916 -1.87204 -6.67028 0
M  V30 3113 N 298.709 -1.3504 -5.45638 0
M  V30 3114 H 290.86 -1.42214 -1.57762 0
M  V30 3115 H 293.123 -0.586921 -0.744465 0
M  V30 3116 H 292.829 -1.68187 -3.08879 0
M  V30 3117 H 292.703 -0.0702139 -3.77135 0
M  V30 3118 H 295.09 0.436277 -2.91857 0
M  V30 3119 H 295.171 -1.20299 -2.25747 0
M  V30 3120 H 294.815 -2.14318 -4.60467 0
M  V30 3121 H 294.745 -0.481773 -5.24392 0
M  V30 3122 H 297.236 -0.745643 -3.70471 0
M  V30 3123 H 297.549 -2.13282 -7.42786 0
M  V30 3124 H 295.894 -1.91142 -6.68199 0
M  V30 3125 H 299.085 -1.00607 -4.57161 0
M  V30 3126 H 299.258 -1.63841 -6.26945 0
M  V30 3127 N 292.664 1.56529 -0.183458 0
M  V30 3128 C 293.596 2.15747 0.773697 0
M  V30 3129 C 294.609 1.1162 1.1851 0
M  V30 3130 O 295.798 1.3876 1.12285 0
M  V30 3131 C 292.898 2.6952 2.05456 0
M  V30 3132 C 292.071 3.98429 1.8048 0
M  V30 3133 C 291.13 4.37145 2.92901 0
M  V30 3134 O 290.156 5.04791 2.6301 0
M  V30 3135 N 291.358 3.99695 4.2098 0
M  V30 3136 H 294.123 2.98505 0.26736 0
M  V30 3137 H 291.684 1.619 -0.0010878 0
M  V30 3138 H 293.676 2.92412 2.79781 0
M  V30 3139 H 292.246 1.91282 2.47245 0
M  V30 3140 H 291.466 3.8379 0.899947 0
M  V30 3141 H 292.754 4.82597 1.61175 0
M  V30 3142 H 292.152 3.4526 4.48121 0
M  V30 3143 H 290.709 4.27562 4.9197 0
M  V30 3144 N 294.142 -0.090211 1.57342 0
M  V30 3145 C 295.389 -0.792807 1.86335 0
M  V30 3146 C 295.717 -1.78494 0.772662 0
M  V30 3147 O 294.972 -1.94305 -0.233258 0
M  V30 3148 C 295.271 -1.55222 3.21933 0
M  V30 3149 C 294.937 -0.701765 4.45406 0
M  V30 3150 C 293.599 -0.467334 4.78925 0
M  V30 3151 C 295.951 -0.11086 5.21082 0
M  V30 3152 C 293.279 0.367785 5.85546 0
M  V30 3153 C 295.631 0.711609 6.28585 0
M  V30 3154 C 294.295 0.956086 6.60617 0
M  V30 3155 H 293.565 -0.290109 0.681849 0
M  V30 3156 H 296.212 -0.0541332 1.91423 0
M  V30 3157 H 294.517 -2.3626 3.12551 0
M  V30 3158 H 296.214 -2.10032 3.41595 0
M  V30 3159 H 292.804 -0.894598 4.1916 0
M  V30 3160 H 296.988 -0.279129 4.95514 0
M  V30 3161 H 292.244 0.566128 6.08773 0
M  V30 3162 H 296.418 1.17632 6.86393 0
M  V30 3163 H 294.045 1.60499 7.43064 0
M  V30 3164 N 295.62 -1.53406 -0.361157 0
M  V30 3165 C 297.036 -1.43277 -0.703124 0
M  V30 3166 C 297.236 -0.575384 -1.9311 0
M  V30 3167 O 296.292 -0.0595362 -2.5243 0
M  V30 3168 C 297.605 -2.8653 -0.9122 0
M  V30 3169 C 299.153 -2.96191 -1.01193 0
M  V30 3170 C 299.628 -4.40514 -1.25345 0
M  V30 3171 N 301.119 -4.43962 -1.32105 0
M  V30 3172 C 301.854 -5.52746 -1.5251 0
M  V30 3173 N 301.35 -6.71567 -1.70203 0
M  V30 3174 N 303.143 -5.40331 -1.54916 0
M  V30 3175 H 295.294 -2.07654 0.446475 0
M  V30 3176 H 297.557 -0.937944 0.137715 0
M  V30 3177 H 297.263 -3.51605 -0.0816414 0
M  V30 3178 H 297.137 -3.30441 -1.81903 0
M  V30 3179 H 299.524 -2.31266 -1.83303 0
M  V30 3180 H 299.605 -2.55667 -0.0823929 0
M  V30 3181 H 299.249 -5.06014 -0.437346 0
M  V30 3182 H 299.179 -4.78614 -2.19627 0
M  V30 3183 H 301.67 -3.58332 -1.20028 0
M  V30 3184 H 301.983 -7.50241 -1.85359 0
M  V30 3185 H 300.328 -6.74545 -1.67373 0
M  V30 3186 H 303.519 -4.46465 -1.40663 0
M  V30 3187 H 303.692 -6.25173 -1.70477 0
M  V30 3188 N 297.098 0.621204 -1.44841 0
M  V30 3189 C 298.345 1.38055 -1.48145 0
M  V30 3190 C 298.673 1.94143 -0.117867 0
M  V30 3191 O 297.928 1.74713 0.881694 0
M  V30 3192 C 298.227 2.55675 -2.4973 0
M  V30 3193 C 297.893 2.17817 -3.94799 0
M  V30 3194 C 296.555 2.07205 -4.34303 0
M  V30 3195 C 298.907 1.88065 -4.86087 0
M  V30 3196 C 296.235 1.65045 -5.63007 0
M  V30 3197 C 298.587 1.47394 -6.15189 0
M  V30 3198 C 297.251 1.35331 -6.53637 0
M  V30 3199 H 296.521 0.505181 -0.542101 0
M  V30 3200 H 299.168 0.703477 -1.78111 0
M  V30 3201 H 297.473 3.2866 -2.13284 0
M  V30 3202 H 299.17 3.13904 -2.4953 0
M  V30 3203 H 295.76 2.26998 -3.63552 0
M  V30 3204 H 299.944 1.95168 -4.56315 0
M  V30 3205 H 295.2 1.54317 -5.91605 0
M  V30 3206 H 299.374 1.23415 -6.85377 0
M  V30 3207 H 297.001 1.02435 -7.53267 0
M  V30 3208 N 298.576 1.31904 0.862503 0
M  V30 3209 C 299.987 1.19803 1.43193 0
M  V30 3210 C 300.338 -0.192567 1.95253 0
M  V30 3211 O 299.463 -1.09081 1.86896 0
M  V30 3212 C 300.058 2.16883 2.60283 0
M  V30 3213 C 298.617 2.08692 3.13248 0
M  V30 3214 C 297.764 2.05691 1.85975 0
M  V30 3215 H 300.715 1.43846 0.670365 0
M  V30 3216 H 300.736 1.76278 3.37204 0
M  V30 3217 H 300.248 3.18083 2.22363 0
M  V30 3218 H 298.349 1.10713 3.55771 0
M  V30 3219 H 298.462 2.9815 3.75025 0
M  V30 3220 H 296.826 1.50814 2.05249 0
M  V30 3221 H 297.609 3.08659 1.50282 0
M  V30 3222 N 300.054 -1.07777 1.14986 0
M  V30 3223 C 301.017 -2.13041 0.845358 0
M  V30 3224 C 302.017 -1.60071 -0.152931 0
M  V30 3225 O 303.207 -1.74033 0.0761879 0
M  V30 3226 C 300.339 -3.39896 0.261383 0
M  V30 3227 H 301.532 -2.41485 1.77834 0
M  V30 3228 H 299.085 -1.23595 0.956757 0
M  V30 3229 H 299.82 -3.17091 -0.68 0
M  V30 3230 H 299.605 -3.79642 0.980514 0
M  V30 3231 H 301.095 -4.17548 0.0657687 0
M  V30 3232 N 301.532 -0.945985 -1.26051 0
M  V30 3233 C 302.495 -0.463897 -2.24456 0
M  V30 3234 C 303.495 0.427655 -1.55009 0
M  V30 3235 O 304.685 0.226157 -1.72726 0
M  V30 3236 C 301.817 0.330812 -3.39291 0
M  V30 3237 H 303.01 -1.33357 -2.68619 0
M  V30 3238 H 300.563 -0.728416 -1.38289 0
M  V30 3239 H 301.298 1.21852 -3.00537 0
M  V30 3240 H 301.083 -0.308679 -3.90883 0
M  V30 3241 H 302.573 0.657865 -4.12386 0
M  V30 3242 N 303.011 1.40521 -0.713556 0
M  V30 3243 C 304.257 2.01221 -0.252564 0
M  V30 3244 C 304.59 1.56444 1.1506 0
M  V30 3245 O 303.865 0.783597 1.78017 0
M  V30 3246 C 304.148 3.58582 -0.330332 0
M  V30 3247 C 304.001 4.13437 -1.77173 0
M  V30 3248 C 305.32 4.39079 0.299641 0
M  V30 3249 H 302.439 0.731077 -0.0932471 0
M  V30 3250 H 305.081 1.67026 -0.905673 0
M  V30 3251 H 303.231 3.87844 0.225737 0
M  V30 3252 H 304.903 3.9498 -2.38303 0
M  V30 3253 H 303.146 3.67801 -2.3001 0
M  V30 3254 H 303.817 5.22597 -1.77755 0
M  V30 3255 H 306.293 4.15735 -0.174139 0
M  V30 3256 H 305.169 5.4848 0.214771 0
M  V30 3257 H 305.43 4.19915 1.38288 0
M  V30 3258 N 304.489 0.459591 1.5075 0
M  V30 3259 C 305.735 -0.0994966 2.02556 0
M  V30 3260 C 306.068 -1.40399 1.3417 0
M  V30 3261 O 305.343 -1.88892 0.463683 0
M  V30 3262 C 305.626 -0.295242 3.58888 0
M  V30 3263 C 305.479 1.02947 4.37861 0
M  V30 3264 C 306.798 -1.05502 4.27267 0
M  V30 3265 H 303.917 -0.034686 0.736183 0
M  V30 3266 H 306.559 0.602938 1.8018 0
M  V30 3267 H 304.709 -0.893563 3.78084 0
M  V30 3268 H 306.381 1.66348 4.30263 0
M  V30 3269 H 304.624 1.62885 4.02058 0
M  V30 3270 H 305.295 0.846281 5.45474 0
M  V30 3271 H 307.771 -0.547993 4.12476 0
M  V30 3272 H 306.647 -1.16077 5.36486 0
M  V30 3273 H 306.908 -2.08875 3.89645 0
M  V30 3274 N 305.967 -1.56429 0.191757 0
M  V30 3275 C 307.213 -1.97777 -0.448554 0
M  V30 3276 C 307.546 -1.07847 -1.61501 0
M  V30 3277 O 306.821 -0.129774 -1.94067 0
M  V30 3278 C 307.104 -3.48362 -0.911906 0
M  V30 3279 C 306.957 -4.4907 0.256136 0
M  V30 3280 C 308.276 -4.02561 -1.77857 0
M  V30 3281 H 305.395 -0.719071 -0.161572 0
M  V30 3282 H 308.037 -1.87896 0.282007 0
M  V30 3283 H 306.187 -3.56914 -1.53442 0
M  V30 3284 H 307.859 -4.5256 0.893733 0
M  V30 3285 H 306.102 -4.24181 0.908436 0
M  V30 3286 H 306.773 -5.51889 -0.11053 0
M  V30 3287 H 309.249 -3.96767 -1.25359 0
M  V30 3288 H 308.125 -5.08301 -2.07174 0
M  V30 3289 H 308.386 -3.47616 -2.73158 0
M  V30 3290 N 307.445 0.0818655 -1.57387 0
M  V30 3291 C 308.355 1.11642 -2.06333 0
M  V30 3292 C 309.371 1.43033 -0.99083 0
M  V30 3293 O 310.547 1.53411 -1.30488 0
M  V30 3294 C 307.612 2.41342 -2.48907 0
M  V30 3295 C 306.673 2.17014 -3.7041 0
M  V30 3296 C 305.906 3.4053 -4.10944 0
M  V30 3297 O 306.129 4.4927 -3.51444 0
M  V30 3298 O 305.063 3.29336 -5.03807 0
M  V30 3299 H 308.889 0.730657 -2.9478 0
M  V30 3300 H 306.474 0.295301 -1.46452 0
M  V30 3301 H 308.356 3.17691 -2.76858 0
M  V30 3302 H 307.031 2.79319 -1.63593 0
M  V30 3303 H 305.938 1.38403 -3.47556 0
M  V30 3304 H 307.271 1.83923 -4.56545 0
M  V30 3305 N 308.923 1.53595 0.353017 0
M  V30 3306 C 310.2 1.61002 1.11075 0
M  V30 3307 C 310.58 0.425356 2.0677 0
M  V30 3308 O 309.928 -0.583267 2.2093 0
M  V30 3309 C 310.138 2.96631 1.83877 0
M  V30 3310 C 311.486 3.51653 2.37961 0
M  V30 3311 O 312.51 2.98743 1.93987 0
M  V30 3312 O 311.369 4.44177 3.18386 0
M  V30 3313 H 308.463 0.650825 0.510251 0
M  V30 3314 H 311.009 1.6594 0.35527 0
M  V30 3315 H 309.781 3.74293 1.14108 0
M  V30 3316 H 309.404 2.95242 2.66304 0
M  V30 3317 N 310.401 -0.613514 1.45168 0
M  V30 3318 C 311.678 -1.37263 1.39349 0
M  V30 3319 C 312.058 -2.11012 0.0610848 0
M  V30 3320 O 311.406 -2.07502 -0.956825 0
M  V30 3321 C 311.616 -2.3244 2.60332 0
M  V30 3322 C 312.964 -2.9523 3.05163 0
M  V30 3323 O 313.988 -2.42762 2.60663 0
M  V30 3324 O 312.847 -3.90454 3.82372 0
M  V30 3325 H 309.941 -0.615188 0.552696 0
M  V30 3326 H 312.487 -0.637097 1.57287 0
M  V30 3327 H 311.259 -1.77164 3.48896 0
M  V30 3328 H 310.882 -3.13383 2.44698 0
M  V30 3329 N 311.879 -1.3236 -0.855495 0
M  V30 3330 C 312.809 -1.23833 -1.97958 0
M  V30 3331 C 313.79 -0.122361 -1.69659 0
M  V30 3332 O 314.975 -0.30939 -1.9172 0
M  V30 3333 C 312.105 -0.959772 -3.33775 0
M  V30 3334 C 311.059 -2.03689 -3.76424 0
M  V30 3335 C 310.385 -1.61075 -5.09862 0
M  V30 3336 C 311.685 -3.4518 -3.9198 0
M  V30 3337 H 313.379 -2.1788 -2.0535 0
M  V30 3338 H 310.925 -1.04891 -0.986605 0
M  V30 3339 H 312.878 -0.886678 -4.11966 0
M  V30 3340 H 311.602 0.0163404 -3.26596 0
M  V30 3341 H 310.261 -2.10012 -3.00484 0
M  V30 3342 H 309.909 -0.622107 -4.99138 0
M  V30 3343 H 309.609 -2.33143 -5.39368 0
M  V30 3344 H 311.133 -1.55201 -5.90546 0
M  V30 3345 H 312.547 -3.4145 -4.60526 0
M  V30 3346 H 310.944 -4.1559 -4.32903 0
M  V30 3347 H 312.014 -3.84903 -2.94919 0
M  V30 3348 N 313.357 1.07166 -1.15556 0
M  V30 3349 C 314.267 2.17947 -0.868116 0
M  V30 3350 C 315.283 1.73297 0.156297 0
M  V30 3351 O 316.459 2.01392 -0.0182327 0
M  V30 3352 C 313.524 3.44789 -0.36355 0
M  V30 3353 C 312.585 4.03996 -1.45209 0
M  V30 3354 C 311.818 5.24783 -0.971508 0
M  V30 3355 O 312.041 5.70109 0.182194 0
M  V30 3356 O 310.975 5.75715 -1.75603 0
M  V30 3357 H 314.801 2.4503 -1.79427 0
M  V30 3358 H 312.386 1.16539 -0.934824 0
M  V30 3359 H 314.268 4.21307 -0.0887113 0
M  V30 3360 H 312.943 3.19253 0.534708 0
M  V30 3361 H 311.85 3.29009 -1.78056 0
M  V30 3362 H 313.183 4.33808 -2.32533 0
M  V30 3363 N 314.835 0.952656 1.25548 0
M  V30 3364 C 316.081 0.607272 1.93494 0
M  V30 3365 C 316.414 -0.853245 1.74452 0
M  V30 3366 O 315.689 -1.61194 1.08843 0
M  V30 3367 C 315.972 0.96435 3.46947 0
M  V30 3368 C 315.825 2.48045 3.75225 0
M  V30 3369 C 317.144 0.487987 4.37386 0
M  V30 3370 H 314.263 0.222096 0.702739 0
M  V30 3371 H 316.905 1.18895 1.48203 0
M  V30 3372 H 315.055 0.469361 3.85654 0
M  V30 3373 H 316.727 3.04905 3.46166 0
M  V30 3374 H 314.97 2.919 3.209 0
M  V30 3375 H 315.641 2.6808 4.82532 0
M  V30 3376 H 318.117 0.912558 4.0597 0
M  V30 3377 H 316.993 0.766547 5.43521 0
M  V30 3378 H 317.254 -0.612063 4.37843 0
M  V30 3379 N 316.313 -1.40141 0.720998 0
M  V30 3380 C 317.276 -2.29058 0.0805834 0
M  V30 3381 C 318.276 -1.45632 -0.681758 0
M  V30 3382 O 319.466 -1.6648 -0.512856 0
M  V30 3383 C 316.598 -3.28925 -0.895593 0
M  V30 3384 H 317.791 -2.87191 0.863793 0
M  V30 3385 H 315.344 -1.48553 0.485975 0
M  V30 3386 H 316.079 -2.75822 -1.70566 0
M  V30 3387 H 315.864 -3.90519 -0.351766 0
M  V30 3388 H 317.354 -3.95494 -1.34069 0
M  V30 3389 N 317.792 -0.46758 -1.50504 0
M  V30 3390 C 319.203 -0.0116166 -1.86696 0
M  V30 3391 C 319.554 1.39202 -1.38265 0
M  V30 3392 O 318.679 2.0313 -0.746132 0
M  V30 3393 C 319.274 -0.0143044 -3.38797 0
M  V30 3394 C 317.833 0.386175 -3.74414 0
M  V30 3395 C 316.98 -0.401287 -2.74381 0
M  V30 3396 H 319.931 -0.682022 -1.43297 0
M  V30 3397 H 319.952 0.788641 -3.72237 0
M  V30 3398 H 319.464 -1.03602 -3.74016 0
M  V30 3399 H 317.565 1.41237 -3.44794 0
M  V30 3400 H 317.678 0.0899596 -4.79016 0
M  V30 3401 H 316.042 0.144536 -2.5429 0
M  V30 3402 H 316.825 -1.42244 -3.12444 0
M  V30 3403 N 319.27 1.56325 -0.20005 0
M  V30 3404 C 320.547 1.89484 0.48529 0
M  V30 3405 C 320.927 1.1143 1.79294 0
M  V30 3406 O 320.275 0.216919 2.27468 0
M  V30 3407 C 320.485 3.41923 0.699243 0
M  V30 3408 C 321.833 4.12256 1.01638 0
M  V30 3409 O 322.857 3.47402 0.786792 0
M  V30 3410 O 321.716 5.26887 1.45095 0
M  V30 3411 H 318.81 0.787144 0.253639 0
M  V30 3412 H 321.356 1.67985 -0.240633 0
M  V30 3413 H 320.128 3.90658 -0.224008 0
M  V30 3414 H 319.751 3.69131 1.47744 0
M  V30 3415 N 320.748 -0.0735177 1.57428 0
M  V30 3416 C 321.995 -0.772999 1.87166 0
M  V30 3417 C 322.323 -1.77665 0.791551 0
M  V30 3418 O 321.578 -1.94541 -0.212636 0
M  V30 3419 C 321.877 -1.51799 3.23561 0
M  V30 3420 C 321.543 -0.654484 4.46125 0
M  V30 3421 C 320.205 -0.416511 4.79394 0
M  V30 3422 C 322.557 -0.0555862 5.2117 0
M  V30 3423 C 319.885 0.429869 5.85123 0
M  V30 3424 C 322.237 0.778239 6.27795 0
M  V30 3425 C 320.901 1.0261 6.59566 0
M  V30 3426 H 320.171 -0.282861 0.684888 0
M  V30 3427 H 322.818 -0.0338272 1.9147 0
M  V30 3428 H 321.123 -2.32932 3.1504 0
M  V30 3429 H 322.82 -2.06397 3.43804 0
M  V30 3430 H 319.41 -0.850091 4.20085 0
M  V30 3431 H 323.594 -0.226558 4.95783 0
M  V30 3432 H 318.85 0.630665 6.08139 0
M  V30 3433 H 323.024 1.24906 6.85107 0
M  V30 3434 H 320.651 1.68371 7.4132 0
M  V30 3435 N 322.226 -1.5378 -0.344866 0
M  V30 3436 C 323.473 -1.70963 -1.08526 0
M  V30 3437 C 323.801 -0.472126 -1.88683 0
M  V30 3438 O 323.056 0.546116 -1.87926 0
M  V30 3439 C 323.355 -2.92407 -2.05506 0
M  V30 3440 C 323.021 -4.28066 -1.41671 0
M  V30 3441 C 321.683 -4.64951 -1.2399 0
M  V30 3442 C 324.035 -5.12344 -0.956726 0
M  V30 3443 C 321.363 -5.83733 -0.589277 0
M  V30 3444 C 323.715 -6.3179 -0.320015 0
M  V30 3445 C 322.379 -6.67372 -0.130881 0
M  V30 3446 H 321.649 -0.625598 -0.397124 0
M  V30 3447 H 324.296 -1.87995 -0.36469 0
M  V30 3448 H 322.601 -2.69973 -2.8394 0
M  V30 3449 H 324.298 -3.02895 -2.62784 0
M  V30 3450 H 320.888 -3.99034 -1.56429 0
M  V30 3451 H 325.072 -4.8438 -1.08118 0
M  V30 3452 H 320.328 -6.09877 -0.431344 0
M  V30 3453 H 324.502 -6.96386 0.0445072 0
M  V30 3454 H 322.129 -7.59273 0.375318 0
M  V30 3455 N 323.704 0.605807 -1.45491 0
M  V30 3456 C 324.614 1.74466 -1.56839 0
M  V30 3457 C 325.63 1.68006 -0.452772 0
M  V30 3458 O 326.806 1.8833 -0.713708 0
M  V30 3459 C 323.871 3.10931 -1.53371 0
M  V30 3460 C 322.932 3.28832 -2.75986 0
M  V30 3461 C 322.165 4.58787 -2.72673 0
M  V30 3462 O 322.388 5.4122 -1.80102 0
M  V30 3463 O 321.322 4.79438 -3.63899 0
M  V30 3464 H 325.148 1.67843 -2.53106 0
M  V30 3465 H 322.733 0.770108 -1.28022 0
M  V30 3466 H 324.615 3.92233 -1.54051 0
M  V30 3467 H 323.29 3.18042 -0.602572 0
M  V30 3468 H 322.197 2.47112 -2.80867 0
M  V30 3469 H 323.53 3.26599 -3.68231 0
M  V30 3470 N 325.182 1.32811 0.848464 0
M  V30 3471 C 326.412 1.26556 1.63301 0
M  V30 3472 C 326.82 -0.1676 1.88456 0
M  V30 3473 O 326.163 -1.11713 1.45828 0
M  V30 3474 C 326.225 1.96202 3.01239 0
M  V30 3475 C 325.889 3.45528 2.99098 0
M  V30 3476 C 326.886 4.40903 2.75501 0
M  V30 3477 C 324.571 3.87558 3.19537 0
M  V30 3478 C 326.565 5.76282 2.72356 0
M  V30 3479 C 324.252 5.23044 3.16019 0
M  V30 3480 C 325.25 6.17217 2.92458 0
M  V30 3481 O 324.938 7.50223 2.88825 0
M  V30 3482 H 324.67 0.43771 0.515156 0
M  V30 3483 H 327.224 1.7559 1.0657 0
M  V30 3484 H 325.454 1.41746 3.59785 0
M  V30 3485 H 327.143 1.83573 3.62016 0
M  V30 3486 H 327.909 4.09756 2.5947 0
M  V30 3487 H 323.788 3.14674 3.369 0
M  V30 3488 H 327.332 6.4976 2.53886 0
M  V30 3489 H 323.229 5.53818 3.31596 0
M  V30 3490 H 323.997 7.59657 3.04735 0
M  V30 3491 N 326.66 -1.06551 1.16123 0
M  V30 3492 C 327.907 -1.79302 0.941126 0
M  V30 3493 C 328.235 -1.87105 -0.531235 0
M  V30 3494 O 327.49 -1.35692 -1.41018 0
M  V30 3495 C 327.789 -3.23911 1.51052 0
M  V30 3496 C 327.455 -3.36193 3.00475 0
M  V30 3497 C 326.117 -3.39252 3.41265 0
M  V30 3498 C 328.469 -3.38326 3.96465 0
M  V30 3499 C 325.797 -3.42057 4.76669 0
M  V30 3500 C 328.149 -3.4267 5.31752 0
M  V30 3501 C 326.813 -3.4401 5.72026 0
M  V30 3502 H 326.083 -0.656111 0.344382 0
M  V30 3503 H 328.73 -1.25325 1.44796 0
M  V30 3504 H 327.035 -3.80723 0.925063 0
M  V30 3505 H 328.732 -3.78793 1.31593 0
M  V30 3506 H 325.322 -3.34516 2.6795 0
M  V30 3507 H 329.506 -3.35176 3.6602 0
M  V30 3508 H 324.762 -3.41398 5.07206 0
M  V30 3509 H 328.936 -3.43268 6.05921 0
M  V30 3510 H 326.563 -3.45937 6.76928 0
M  V30 3511 N 328.138 -0.959301 -1.25041 0
M  V30 3512 C 329.554 -0.664474 -1.4511 0
M  V30 3513 C 329.754 0.776481 -1.85938 0
M  V30 3514 O 328.81 1.55128 -1.99227 0
M  V30 3515 C 330.123 -1.64139 -2.5195 0
M  V30 3516 C 331.671 -1.65309 -2.65786 0
M  V30 3517 C 332.146 -2.61777 -3.75815 0
M  V30 3518 N 333.637 -2.60169 -3.83231 0
M  V30 3519 C 334.372 -3.31489 -4.6787 0
M  V30 3520 N 333.868 -4.12298 -5.56761 0
M  V30 3521 N 335.661 -3.20354 -4.61876 0
M  V30 3522 H 327.812 -1.89043 -0.968332 0
M  V30 3523 H 330.075 -0.813408 -0.4869 0
M  V30 3524 H 329.781 -2.67086 -2.28819 0
M  V30 3525 H 329.655 -1.40756 -3.49954 0
M  V30 3526 H 332.042 -0.630778 -2.8828 0
M  V30 3527 H 332.123 -1.92753 -1.68167 0
M  V30 3528 H 331.767 -3.64137 -3.54071 0
M  V30 3529 H 331.697 -2.31616 -4.72929 0
M  V30 3530 H 334.188 -2.01507 -3.19692 0
M  V30 3531 H 334.501 -4.63625 -6.18281 0
M  V30 3532 H 332.846 -4.16395 -5.56454 0
M  V30 3533 H 336.037 -2.56692 -3.91442 0
M  V30 3534 H 336.21 -3.76201 -5.27614 0
M  V30 3535 N 329.616 1.39756 -0.72842 0
M  V30 3536 C 330.579 2.29012 -0.0927297 0
M  V30 3537 C 331.579 1.45992 0.674025 0
M  V30 3538 O 332.769 1.66749 0.50402 0
M  V30 3539 C 329.901 3.29396 0.878137 0
M  V30 3540 H 331.094 2.86729 -0.879011 0
M  V30 3541 H 328.647 1.48293 -0.493847 0
M  V30 3542 H 329.382 2.76722 1.69101 0
M  V30 3543 H 329.167 3.907 0.331051 0
M  V30 3544 H 330.657 3.96199 1.3197 0
M  V30 3545 N 331.094 0.475555 1.50254 0
M  V30 3546 C 332.322 -0.0754493 2.06762 0
M  V30 3547 C 332.737 -1.33111 1.33891 0
M  V30 3548 O 332.094 -1.77846 0.40952 0
M  V30 3549 C 332.145 -0.359008 3.59713 0
M  V30 3550 O 331.866 0.846851 4.29837 0
M  V30 3551 C 333.367 -0.956484 4.32858 0
M  V30 3552 H 330.587 0.00907525 0.670939 0
M  V30 3553 H 333.131 0.665618 1.93364 0
M  V30 3554 H 331.286 -1.05001 3.72899 0
M  V30 3555 H 331.7 0.594162 5.21124 0
M  V30 3556 H 333.174 -1.10463 5.40834 0
M  V30 3557 H 333.651 -1.94775 3.93649 0
M  V30 3558 H 334.257 -0.303723 4.24214 0
M  V30 3559 N 332.573 -1.56217 0.208337 0
M  V30 3560 C 333.803 -2.02043 -0.431523 0
M  V30 3561 C 334.211 -1.08755 -1.54819 0
M  V30 3562 O 333.554 -0.0870009 -1.83494 0
M  V30 3563 C 333.616 -3.44239 -1.03633 0
M  V30 3564 C 333.28 -4.56965 -0.0567502 0
M  V30 3565 C 334.277 -5.14624 0.738773 0
M  V30 3566 C 331.962 -5.02266 0.0581736 0
M  V30 3567 C 333.956 -6.16045 1.63605 0
M  V30 3568 C 331.643 -6.03528 0.959001 0
M  V30 3569 C 332.641 -6.60293 1.7465 0
M  V30 3570 O 332.329 -7.59586 2.6322 0
M  V30 3571 H 332.061 -0.666772 -0.111313 0
M  V30 3572 H 334.615 -2.02919 0.318277 0
M  V30 3573 H 332.845 -3.40391 -1.83497 0
M  V30 3574 H 334.534 -3.73793 -1.58221 0
M  V30 3575 H 335.3 -4.80483 0.660364 0
M  V30 3576 H 331.179 -4.57771 -0.544633 0
M  V30 3577 H 334.723 -6.60279 2.25116 0
M  V30 3578 H 330.62 -6.37092 1.03848 0
M  V30 3579 H 331.388 -7.77057 2.57148 0
M  V30 3580 N 334.051 0.0651679 -1.57465 0
M  V30 3581 C 335.462 0.616213 -1.76238 0
M  V30 3582 C 335.813 1.7756 -0.834689 0
M  V30 3583 O 334.938 2.1639 -0.0204156 0
M  V30 3584 C 335.533 1.12462 -3.1959 0
M  V30 3585 C 334.092 1.62147 -3.39684 0
M  V30 3586 C 333.239 0.543739 -2.71917 0
M  V30 3587 H 336.19 -0.161022 -1.57881 0
M  V30 3588 H 336.211 1.99324 -3.24114 0
M  V30 3589 H 335.723 0.280592 -3.87084 0
M  V30 3590 H 333.824 2.48854 -2.77313 0
M  V30 3591 H 333.937 1.69385 -4.48158 0
M  V30 3592 H 332.301 0.990352 -2.34657 0
M  V30 3593 H 333.084 -0.290216 -3.42071 0
M  V30 3594 N 335.529 1.53961 0.336706 0
M  V30 3595 C 336.459 1.85417 1.41925 0
M  V30 3596 C 337.44 0.709856 1.5458 0
M  V30 3597 O 338.625 0.962396 1.68676 0
M  V30 3598 C 335.755 2.06985 2.78881 0
M  V30 3599 C 334.709 3.22813 2.81026 0
M  V30 3600 C 334.035 3.29727 4.20932 0
M  V30 3601 C 335.335 4.60767 2.45949 0
M  V30 3602 H 337.029 2.76079 1.15848 0
M  V30 3603 H 334.575 1.32839 0.555859 0
M  V30 3604 H 336.528 2.27575 3.54665 0
M  V30 3605 H 335.252 1.13061 3.06406 0
M  V30 3606 H 333.911 3.0209 2.07695 0
M  V30 3607 H 333.559 2.33385 4.45579 0
M  V30 3608 H 333.259 4.07566 4.23277 0
M  V30 3609 H 334.783 3.52536 4.98549 0
M  V30 3610 H 336.197 4.81325 3.11446 0
M  V30 3611 H 334.594 5.4106 2.59566 0
M  V30 3612 H 335.664 4.6391 1.41122 0
M  V30 3613 N 337.007 -0.598083 1.45811 0
M  V30 3614 C 337.937 -1.71873 1.58057 0
M  V30 3615 C 338.918 -1.64533 0.431615 0
M  V30 3616 O 340.103 -1.82787 0.65595 0
M  V30 3617 C 337.233 -3.10495 1.55597 0
M  V30 3618 C 336.187 -3.32654 2.69305 0
M  V30 3619 C 335.513 -4.71646 2.51902 0
M  V30 3620 C 336.813 -3.21981 4.11248 0
M  V30 3621 H 338.507 -1.61881 2.51863 0
M  V30 3622 H 336.053 -0.777372 1.21214 0
M  V30 3623 H 338.006 -3.88699 1.6276 0
M  V30 3624 H 336.73 -3.2135 0.583255 0
M  V30 3625 H 335.389 -2.56843 2.61586 0
M  V30 3626 H 335.037 -4.79246 1.52748 0
M  V30 3627 H 334.737 -4.87426 3.2816 0
M  V30 3628 H 336.261 -5.52038 2.60933 0
M  V30 3629 H 337.675 -3.90049 4.20161 0
M  V30 3630 H 336.072 -3.49289 4.87972 0
M  V30 3631 H 337.142 -2.1928 4.32486 0
M  V30 3632 N 338.485 -1.33259 -0.841409 0
M  V30 3633 C 339.432 -1.23302 -1.95103 0
M  V30 3634 C 340.402 -0.112204 -1.65721 0
M  V30 3635 O 341.587 -0.290038 -1.88583 0
M  V30 3636 C 338.727 -0.975583 -3.31023 0
M  V30 3637 C 337.84 -2.18243 -3.72819 0
M  V30 3638 C 336.975 -1.85936 -4.97595 0
M  V30 3639 C 336.014 -3.02866 -5.3192 0
M  V30 3640 N 335.151 -2.70565 -6.47873 0
M  V30 3641 H 339.991 -2.18207 -2.02952 0
M  V30 3642 H 337.528 -1.0851 -0.993173 0
M  V30 3643 H 339.486 -0.80677 -4.09325 0
M  V30 3644 H 338.116 -0.0632755 -3.22738 0
M  V30 3645 H 337.168 -2.46107 -2.90061 0
M  V30 3646 H 338.48 -3.05666 -3.94169 0
M  V30 3647 H 337.634 -1.65684 -5.83638 0
M  V30 3648 H 336.373 -0.957452 -4.78209 0
M  V30 3649 H 335.378 -3.23736 -4.44382 0
M  V30 3650 H 336.603 -3.93809 -5.53255 0
M  V30 3651 H 334.549 -1.8293 -6.29978 0
M  V30 3652 H 334.466 -3.51519 -6.69306 0
M  V30 3653 H 335.734 -2.53774 -7.37034 0
M  V30 3654 N 339.963 1.05934 -1.16686 0
M  V30 3655 C 340.926 2.11669 -0.879144 0
M  V30 3656 C 341.926 1.60294 0.127445 0
M  V30 3657 O 343.116 1.7389 -0.103865 0
M  V30 3658 C 340.248 3.39438 -0.315425 0
M  V30 3659 H 341.441 2.38626 -1.81653 0
M  V30 3660 H 338.994 1.22058 -0.976299 0
M  V30 3661 H 339.729 3.18132 0.629468 0
M  V30 3662 H 339.514 3.78034 -1.04079 0
M  V30 3663 H 341.004 4.17391 -0.132189 0
M  V30 3664 N 341.441 0.965919 1.2453 0
M  V30 3665 C 342.718 0.543777 1.87889 0
M  V30 3666 C 343.098 -0.97909 1.87021 0
M  V30 3667 O 342.446 -1.84969 1.3416 0
M  V30 3668 C 342.656 1.13327 3.30088 0
M  V30 3669 C 344.004 1.21707 4.06783 0
M  V30 3670 O 345.028 1.08566 3.39252 0
M  V30 3671 O 343.887 1.42456 5.27606 0
M  V30 3672 H 340.981 0.181054 0.806938 0
M  V30 3673 H 343.527 1.06007 1.32516 0
M  V30 3674 H 342.299 2.17612 3.25209 0
M  V30 3675 H 341.922 0.600911 3.93033 0
M  V30 3676 N 342.919 -1.39368 0.735821 0
M  V30 3677 C 344.33 -1.83313 0.354015 0
M  V30 3678 C 344.681 -1.61461 -1.11466 0
M  V30 3679 O 343.806 -1.10621 -1.85989 0
M  V30 3680 C 344.401 -3.32781 0.635769 0
M  V30 3681 C 342.96 -3.75142 0.307448 0
M  V30 3682 C 342.107 -2.62358 0.897974 0
M  V30 3683 H 345.058 -1.28349 0.933398 0
M  V30 3684 H 345.079 -3.80388 -0.0921773 0
M  V30 3685 H 344.591 -3.48654 1.70476 0
M  V30 3686 H 342.692 -3.64857 -0.755674 0
M  V30 3687 H 342.805 -4.72532 0.790583 0
M  V30 3688 H 341.169 -2.52624 0.324551 0
M  V30 3689 H 341.952 -2.81036 1.97164 0
M  V30 3690 N 344.397 -0.483516 -1.5 0
M  V30 3691 C 345.622 0.0667119 -2.07293 0
M  V30 3692 C 346.047 1.3164 -1.3436 0
M  V30 3693 O 345.405 1.76945 -0.394987 0
M  V30 3694 C 345.453 0.321126 -3.59167 0
M  V30 3695 O 344.557 1.39927 -3.87936 0
M  V30 3696 H 343.898 -0.0184758 -0.663743 0
M  V30 3697 H 346.428 -0.678125 -1.93035 0
M  V30 3698 H 346.438 0.557906 -4.04168 0
M  V30 3699 H 345.113 -0.592007 -4.11665 0
M  V30 3700 H 343.69 1.14882 -3.54763 0
M  V30 3701 N 345.875 1.56104 -0.216619 0
M  V30 3702 C 346.805 2.23063 0.690296 0
M  V30 3703 C 347.786 1.20072 1.20485 0
M  V30 3704 O 348.971 1.48643 1.24976 0
M  V30 3705 C 346.101 2.90672 1.90072 0
M  V30 3706 C 345.055 4.00092 1.5202 0
M  V30 3707 C 344.381 4.54972 2.80899 0
M  V30 3708 C 345.681 5.17398 0.71391 0
M  V30 3709 H 347.375 2.99109 0.132038 0
M  V30 3710 H 344.921 1.43866 0.0620664 0
M  V30 3711 H 346.874 3.36204 2.54057 0
M  V30 3712 H 345.598 2.12066 2.48386 0
M  V30 3713 H 344.257 3.55283 0.903839 0
M  V30 3714 H 343.905 3.73102 3.37348 0
M  V30 3715 H 343.605 5.28817 2.56176 0
M  V30 3716 H 345.129 5.0322 3.45836 0
M  V30 3717 H 346.543 5.59342 1.25735 0
M  V30 3718 H 344.94 5.97444 0.563951 0
M  V30 3719 H 346.01 4.84088 -0.280527 0
M  V30 3720 N 347.353 -0.0568162 1.57498 0
M  V30 3721 C 348.599 -0.748893 1.89111 0
M  V30 3722 C 348.954 -1.74422 0.81208 0
M  V30 3723 O 348.247 -1.90731 -0.182247 0
M  V30 3724 C 348.441 -1.48359 3.25153 0
M  V30 3725 C 348.27 -0.560924 4.46188 0
M  V30 3726 C 347.04 -0.192264 5.04934 0
M  V30 3727 C 349.238 0.148824 5.14085 0
M  V30 3728 N 347.22 0.734555 6.0949 0
M  V30 3729 C 348.591 0.932286 6.12951 0
M  V30 3730 C 350.646 0.218713 4.97419 0
M  V30 3731 C 349.349 1.77917 6.96949 0
M  V30 3732 C 351.375 1.05262 5.81957 0
M  V30 3733 C 350.737 1.82409 6.80372 0
M  V30 3734 H 346.836 -0.249002 0.741298 0
M  V30 3735 H 349.42 -0.00984926 1.94698 0
M  V30 3736 H 347.591 -2.19326 3.20547 0
M  V30 3737 H 349.323 -2.12586 3.44368 0
M  V30 3738 H 346.078 -0.548421 4.70414 0
M  V30 3739 H 346.502 1.19165 6.6643 0
M  V30 3740 H 351.144 -0.363407 4.21235 0
M  V30 3741 H 348.862 2.3722 7.72497 0
M  V30 3742 H 352.448 1.10987 5.71116 0
M  V30 3743 H 351.328 2.45895 7.44651 0
M  V30 3744 N 348.832 -1.54138 -0.328536 0
M  V30 3745 C 350.072 -1.73827 -1.07534 0
M  V30 3746 C 350.436 -0.498777 -1.85408 0
M  V30 3747 O 351.637 -0.572937 -2.62623 0
M  V30 3748 C 349.908 -2.97573 -1.97952 0
M  V30 3749 S 351.467 -3.38143 -2.79652 0
M  V30 3750 H 348.285 -0.611287 -0.36311 0
M  V30 3751 H 350.887 -1.92306 -0.351931 0
M  V30 3752 H 349.591 -3.85939 -1.39569 0
M  V30 3753 H 349.122 -2.81603 -2.74706 0
M  V30 3754 H 351.137 -2.93052 -4.00418 0
M  V30 3755 N 350.31 0.590341 -1.46126 0
M  V30 3756 C 351.556 1.35082 -1.51264 0
M  V30 3757 C 351.889 1.93534 -0.160711 0
M  V30 3758 O 351.164 1.76045 0.826956 0
M  V30 3759 C 351.447 2.48588 -2.6053 0
M  V30 3760 C 351.3 1.95221 -4.05227 0
M  V30 3761 C 352.619 3.50662 -2.6594 0
M  V30 3762 H 349.738 0.489803 -0.550692 0
M  V30 3763 H 352.38 0.663887 -1.78024 0
M  V30 3764 H 350.53 3.07186 -2.37843 0
M  V30 3765 H 352.202 1.41139 -4.39178 0
M  V30 3766 H 350.445 1.26101 -4.15068 0
M  V30 3767 H 351.116 2.77121 -4.77397 0
M  V30 3768 H 353.592 3.01934 -2.86313 0
M  V30 3769 H 352.468 4.27551 -3.44226 0
M  V30 3770 H 352.729 4.07399 -1.71694 0
M  V30 3771 N 351.788 1.33704 0.83433 0
M  V30 3772 C 353.013 1.28615 1.62705 0
M  V30 3773 C 353.438 -0.139242 1.87584 0
M  V30 3774 O 352.796 -1.09734 1.4432 0
M  V30 3775 C 352.844 2.07139 2.95171 0
M  V30 3776 O 351.948 1.4331 3.86699 0
M  V30 3777 H 351.289 0.44226 0.49528 0
M  V30 3778 H 353.819 1.76335 1.03766 0
M  V30 3779 H 353.829 2.18073 3.44831 0
M  V30 3780 H 352.504 3.10779 2.76386 0
M  V30 3781 H 351.081 1.4105 3.45195 0
M  V30 3782 N 353.266 -1.05314 1.17247 0
M  V30 3783 C 354.229 -2.112 0.890357 0
M  V30 3784 C 355.229 -1.60359 -0.118943 0
M  V30 3785 O 356.419 -1.73833 0.113086 0
M  V30 3786 C 353.551 -3.39266 0.333422 0
M  V30 3787 H 354.744 -2.37659 1.82916 0
M  V30 3788 H 352.297 -1.21538 0.982758 0
M  V30 3789 H 353.032 -3.18462 -0.612587 0
M  V30 3790 H 352.817 -3.77477 1.06082 0
M  V30 3791 H 354.307 -4.17315 0.154322 0
M  V30 3792 N 354.744 -0.972509 -1.24016 0
M  V30 3793 C 355.99 -0.647583 -1.92816 0
M  V30 3794 C 356.345 0.809015 -1.74564 0
M  V30 3795 O 355.638 1.57502 -1.09103 0
M  V30 3796 C 355.832 -0.963694 -3.44162 0
M  V30 3797 C 355.661 -2.44947 -3.77135 0
M  V30 3798 C 354.431 -3.11012 -3.98246 0
M  V30 3799 C 356.629 -3.42978 -3.83237 0
M  V30 3800 N 354.611 -4.49277 -4.18358 0
M  V30 3801 C 355.982 -4.66619 -4.08248 0
M  V30 3802 C 358.037 -3.37569 -3.65994 0
M  V30 3803 C 356.74 -5.85516 -4.17808 0
M  V30 3804 C 358.766 -4.55822 -3.76802 0
M  V30 3805 C 358.128 -5.78256 -4.02243 0
M  V30 3806 H 354.227 -0.287894 -0.727077 0
M  V30 3807 H 356.811 -1.24835 -1.49413 0
M  V30 3808 H 354.982 -0.391692 -3.8642 0
M  V30 3809 H 356.714 -0.596849 -4.00275 0
M  V30 3810 H 353.469 -2.61529 -3.94841 0
M  V30 3811 H 353.893 -5.20935 -4.32384 0
M  V30 3812 H 358.535 -2.43945 -3.45327 0
M  V30 3813 H 356.253 -6.79564 -4.37285 0
M  V30 3814 H 359.839 -4.53204 -3.64825 0
M  V30 3815 H 358.719 -6.68231 -4.10411 0
M  V30 3816 N 356.222 1.38976 -0.743202 0
M  V30 3817 C 357.17 2.32394 -0.0978389 0
M  V30 3818 C 358.164 1.53486 0.716824 0
M  V30 3819 O 359.37 1.69092 0.617088 0
M  V30 3820 H 355.745 0.75189 -0.0128402 0
M  V30 3821 H 357.716 2.84441 -0.901981 0
M  V30 3822 C 356.465 3.38629 0.789036 0
M  V30 3823 H 355.788 3.99432 0.171559 0
M  V30 3824 H 357.228 4.06426 1.20807 0
M  V30 3825 C 355.687 2.76347 1.92702 0
M  V30 3826 O 356.217 2.64836 3.02034 0
M  V30 3827 N 354.423 2.34311 1.71891 0
M  V30 3828 H 353.97 2.43873 0.829675 0
M  V30 3829 H 353.928 1.9298 2.48205 0
M  V30 3830 N 357.7 0.491464 1.49741 0
M  V30 3831 C 358.977 -0.118984 1.95238 0
M  V30 3832 C 359.357 -1.55044 1.43264 0
M  V30 3833 O 358.705 -2.19287 0.642287 0
M  V30 3834 C 358.915 -0.0414187 3.48975 0
M  V30 3835 C 360.263 -0.220133 4.24029 0
M  V30 3836 O 361.287 -0.117055 3.56008 0
M  V30 3837 O 360.146 -0.430567 5.44801 0
M  V30 3838 H 357.24 -0.100536 0.820866 0
M  V30 3839 H 359.786 0.553322 1.60426 0
M  V30 3840 H 358.558 0.957214 3.79412 0
M  V30 3841 H 358.181 -0.754292 3.9038 0
M  V30 3842 N 359.178 -1.55987 0.224894 0
M  V30 3843 C 360.126 -2.21808 -0.700283 0
M  V30 3844 C 361.12 -1.19854 -1.19714 0
M  V30 3845 O 362.326 -1.37925 -1.15658 0
M  V30 3846 H 358.701 -0.711226 -0.244258 0
M  V30 3847 H 360.672 -2.98152 -0.121749 0
M  V30 3848 C 359.421 -2.91444 -1.8962 0
M  V30 3849 H 358.744 -3.69655 -1.52299 0
M  V30 3850 H 360.184 -3.40894 -2.52125 0
M  V30 3851 C 358.643 -1.94098 -2.75368 0
M  V30 3852 O 359.173 -1.46004 -3.74227 0
M  V30 3853 N 357.379 -1.61675 -2.41474 0
M  V30 3854 H 356.926 -2.00979 -1.61137 0
M  V30 3855 H 356.884 -0.968036 -2.99126 0
M  V30 3856 N 360.656 0.0484629 -1.57525 0
M  V30 3857 C 361.904 0.741657 -1.88 0
M  V30 3858 C 362.225 1.76918 -0.820054 0
M  V30 3859 O 361.495 1.95335 0.148661 0
M  V30 3860 H 360.075 0.276908 -0.69378 0
M  V30 3861 H 362.737 0.019013 -1.94891 0
M  V30 3862 H 361.833 1.24336 -2.86264 0
M  V30 3863 N 362.134 1.5431 0.320358 0
M  V30 3864 C 363.081 1.83918 1.39438 0
M  V30 3865 C 364.051 0.686525 1.51248 0
M  V30 3866 O 365.236 0.933269 1.66417 0
M  V30 3867 C 362.376 2.075 2.75749 0
M  V30 3868 C 361.489 3.35177 2.72544 0
M  V30 3869 C 360.624 3.48704 4.00723 0
M  V30 3870 C 359.663 4.70244 3.91838 0
M  V30 3871 N 358.8 4.80679 5.11754 0
M  V30 3872 H 363.64 2.75544 1.13489 0
M  V30 3873 H 361.177 1.36459 0.549309 0
M  V30 3874 H 363.135 2.19166 3.54996 0
M  V30 3875 H 361.765 1.19163 3 0
M  V30 3876 H 360.817 3.32233 1.85271 0
M  V30 3877 H 362.129 4.24534 2.61863 0
M  V30 3878 H 361.283 3.59928 4.88402 0
M  V30 3879 H 360.022 2.57445 4.14214 0
M  V30 3880 H 359.027 4.59072 3.02544 0
M  V30 3881 H 360.252 5.6289 3.7991 0
M  V30 3882 H 358.198 3.92337 5.25745 0
M  V30 3883 H 358.115 5.64007 5.0342 0
M  V30 3884 H 359.383 4.96239 6.01138 0
M  V30 3885 N 363.613 -0.582584 1.46437 0
M  V30 3886 C 364.523 -1.71949 1.59595 0
M  V30 3887 C 365.539 -1.67264 0.479443 0
M  V30 3888 O 366.715 -1.87171 0.743579 0
M  V30 3889 C 363.78 -3.08452 1.58298 0
M  V30 3890 C 362.841 -3.244 2.81182 0
M  V30 3891 C 362.074 -4.54391 2.79937 0
M  V30 3892 O 362.297 -5.38287 1.8869 0
M  V30 3893 O 361.231 -4.73588 3.71481 0
M  V30 3894 H 365.057 -1.63795 2.55744 0
M  V30 3895 H 362.642 -0.749643 1.29231 0
M  V30 3896 H 364.524 -3.89732 1.60271 0
M  V30 3897 H 363.199 -3.17043 0.653094 0
M  V30 3898 H 362.106 -2.42613 2.84763 0
M  V30 3899 H 363.439 -3.20699 3.7338 0
M  V30 3900 N 365.091 -1.34144 -0.827227 0
M  V30 3901 C 366.023 -1.21206 -1.9453 0
M  V30 3902 C 367.036 -0.140176 -1.62195 0
M  V30 3903 O 368.225 -0.391647 -1.7415 0
M  V30 3904 C 365.325 -0.839141 -3.28347 0
M  V30 3905 C 364.498 -2.0051 -3.88734 0
M  V30 3906 C 363.557 -1.61128 -5.00923 0
M  V30 3907 O 362.583 -2.32726 -5.19449 0
M  V30 3908 N 363.785 -0.522958 -5.7814 0
M  V30 3909 H 366.55 -2.17525 -2.06162 0
M  V30 3910 H 364.111 -1.27043 -1.00358 0
M  V30 3911 H 366.103 -0.557556 -4.00841 0
M  V30 3912 H 364.673 0.0337293 -3.12582 0
M  V30 3913 H 363.893 -2.45166 -3.08686 0
M  V30 3914 H 365.181 -2.78498 -4.25812 0
M  V30 3915 H 364.579 0.0723518 -5.65654 0
M  V30 3916 H 363.136 -0.301089 -6.51104 0
M  V30 3917 N 366.569 1.04691 -1.17803 0
M  V30 3918 C 367.502 2.12068 -0.842765 0
M  V30 3919 C 368.48 1.61455 0.192608 0
M  V30 3920 O 369.664 1.88359 0.072995 0
M  V30 3921 C 366.791 3.37715 -0.258063 0
M  V30 3922 C 365.837 4.07164 -1.26962 0
M  V30 3923 S 366.67 4.55047 -2.82299 0
M  V30 3924 C 367.826 5.83935 -2.25323 0
M  V30 3925 H 368.059 2.4018 -1.75217 0
M  V30 3926 H 365.592 1.17366 -1.00323 0
M  V30 3927 H 367.55 4.10435 0.0727935 0
M  V30 3928 H 366.211 3.0773 0.629357 0
M  V30 3929 H 365.404 4.9746 -0.809263 0
M  V30 3930 H 365.006 3.40533 -1.54639 0
M  V30 3931 H 367.298 6.57552 -1.63192 0
M  V30 3932 H 368.241 6.34725 -3.13894 0
M  V30 3933 H 368.649 5.3874 -1.68582 0
M  V30 3934 N 368.047 0.979072 1.23499 0
M  V30 3935 C 369.293 0.648178 1.92163 0
M  V30 3936 C 369.626 -0.816049 1.76222 0
M  V30 3937 O 368.901 -1.58849 1.12237 0
M  V30 3938 C 369.184 1.03773 3.44824 0
M  V30 3939 C 369.037 2.55948 3.69879 0
M  V30 3940 C 370.356 0.580653 4.36253 0
M  V30 3941 H 367.475 0.236952 0.69787 0
M  V30 3942 H 370.117 1.22012 1.45647 0
M  V30 3943 H 368.267 0.551058 3.84572 0
M  V30 3944 H 369.939 3.12179 3.3962 0
M  V30 3945 H 368.182 2.98641 3.14636 0
M  V30 3946 H 368.853 2.78255 4.76737 0
M  V30 3947 H 371.329 0.998465 4.03943 0
M  V30 3948 H 370.205 0.881663 5.41773 0
M  V30 3949 H 370.466 -0.519052 4.39042 0
M  V30 3950 N 369.525 -1.3858 0.750561 0
M  V30 3951 C 370.802 -1.94231 0.231009 0
M  V30 3952 C 371.182 -1.68611 -1.27018 0
M  V30 3953 O 370.53 -1.02296 -2.04323 0
M  V30 3954 C 370.74 -3.44123 0.581428 0
M  V30 3955 C 372.088 -4.2116 0.539389 0
M  V30 3956 O 373.112 -3.52391 0.519541 0
M  V30 3957 O 371.971 -5.43749 0.54765 0
M  V30 3958 H 369.065 -0.825639 0.0474263 0
M  V30 3959 H 371.611 -1.4799 0.830478 0
M  V30 3960 H 370.383 -3.56267 1.61833 0
M  V30 3961 H 370.006 -3.97573 -0.0462047 0
M  V30 3962 N 371.003 -0.499398 -1.49478 0
M  V30 3963 C 371.966 0.268838 -2.27618 0
M  V30 3964 C 372.966 0.895383 -1.33565 0
M  V30 3965 O 374.156 0.760164 -1.56739 0
M  V30 3966 C 371.288 1.38559 -3.11471 0
M  V30 3967 H 372.481 -0.416812 -2.96989 0
M  V30 3968 H 370.034 -0.254313 -1.54217 0
M  V30 3969 H 370.769 2.10544 -2.46661 0
M  V30 3970 H 370.554 0.941797 -3.80621 0
M  V30 3971 H 372.044 1.92678 -3.70493 0
M  V30 3972 N 372.481 1.55866 -0.233164 0
M  V30 3973 C 373.706 2.03449 0.402906 0
M  V30 3974 C 374.131 1.11166 1.51736 0
M  V30 3975 O 373.489 0.101996 1.81013 0
M  V30 3976 C 373.537 3.49165 0.9009 0
M  V30 3977 O 372.641 3.60019 2.01147 0
M  V30 3978 H 371.982 0.657913 0.0897025 0
M  V30 3979 H 374.512 2.01493 -0.355201 0
M  V30 3980 H 374.522 3.89716 1.2077 0
M  V30 3981 H 373.197 4.15813 0.0852889 0
M  V30 3982 H 371.774 3.3136 1.71042 0
M  V30 3983 N 373.959 -0.0401083 1.57549 0
M  V30 3984 C 375.375 -0.395556 1.54621 0
M  V30 3985 C 375.575 -1.77281 0.957799 0
M  V30 3986 O 374.631 -2.45888 0.574031 0
M  V30 3987 C 375.944 -0.307535 2.99123 0
M  V30 3988 C 377.492 -0.385425 3.10618 0
M  V30 3989 C 377.967 -0.326973 4.56831 0
M  V30 3990 N 379.458 -0.386102 4.61588 0
M  V30 3991 C 380.193 -0.363591 5.72246 0
M  V30 3992 N 379.689 -0.29402 6.92176 0
M  V30 3993 N 381.482 -0.412503 5.60584 0
M  V30 3994 H 373.633 0.861325 1.94152 0
M  V30 3995 H 375.896 0.326445 0.890021 0
M  V30 3996 H 375.602 0.638461 3.45856 0
M  V30 3997 H 375.476 -1.10552 3.60636 0
M  V30 3998 H 377.863 -1.32185 2.63839 0
M  V30 3999 H 377.944 0.44171 2.51957 0
M  V30 4000 H 377.588 0.605738 5.04275 0
M  V30 4001 H 377.518 -1.17207 5.13391 0
M  V30 4002 H 380.009 -0.442832 3.75296 0
M  V30 4003 H 380.322 -0.28164 7.72287 0
M  V30 4004 H 378.667 -0.260232 6.94513 0
M  V30 4005 H 381.858 -0.464769 4.65787 0
M  V30 4006 H 382.031 -0.391492 6.46816 0
M  V30 4007 N 375.437 -1.54477 -0.31217 0
M  V30 4008 C 376.848 -1.64344 -0.885891 0
M  V30 4009 C 377.199 -0.54485 -1.88483 0
M  V30 4010 O 376.324 0.320387 -2.14015 0
M  V30 4011 C 376.919 -2.97908 -1.61357 0
M  V30 4012 C 375.478 -3.09933 -2.13585 0
M  V30 4013 C 374.625 -2.59971 -0.964897 0
M  V30 4014 H 377.576 -1.58448 -0.0894528 0
M  V30 4015 H 377.597 -2.88706 -2.47848 0
M  V30 4016 H 377.109 -3.77845 -0.886277 0
M  V30 4017 H 375.21 -2.34694 -2.89395 0
M  V30 4018 H 375.323 -4.15916 -2.37804 0
M  V30 4019 H 373.687 -2.16147 -1.34731 0
M  V30 4020 H 374.47 -3.42376 -0.251742 0
M  V30 4021 N 376.915 0.57481 -1.46744 0
M  V30 4022 C 377.825 1.711 -1.60505 0
M  V30 4023 C 378.841 1.67008 -0.488307 0
M  V30 4024 O 380.017 1.86774 -0.753495 0
M  V30 4025 C 377.082 3.07608 -1.59932 0
M  V30 4026 C 376.143 3.22904 -2.82898 0
M  V30 4027 C 375.376 4.529 -2.82343 0
M  V30 4028 O 375.599 5.37278 -1.91542 0
M  V30 4029 O 374.533 4.71611 -3.73987 0
M  V30 4030 H 378.359 1.62436 -2.56609 0
M  V30 4031 H 375.944 0.742779 -1.29627 0
M  V30 4032 H 377.826 3.88877 -1.62336 0
M  V30 4033 H 376.501 3.16692 -0.669898 0
M  V30 4034 H 375.408 2.41099 -2.86046 0
M  V30 4035 H 376.741 3.18715 -3.75076 0
M  V30 4036 N 378.394 1.34581 0.820102 0
M  V30 4037 C 379.324 1.29038 1.94606 0
M  V30 4038 C 380.305 0.1673 1.69275 0
M  V30 4039 O 381.49 0.360112 1.90832 0
M  V30 4040 C 378.62 1.04793 3.31113 0
M  V30 4041 C 377.574 2.13597 3.70891 0
M  V30 4042 C 376.9 1.74537 5.05412 0
M  V30 4043 C 378.2 3.55451 3.8269 0
M  V30 4044 H 379.894 2.23248 1.99501 0
M  V30 4045 H 377.44 1.0747 0.958449 0
M  V30 4046 H 379.393 0.995592 4.0947 0
M  V30 4047 H 378.117 0.0702565 3.26524 0
M  V30 4048 H 376.776 2.17905 2.9481 0
M  V30 4049 H 376.424 0.754226 4.97313 0
M  V30 4050 H 376.124 2.47361 5.32997 0
M  V30 4051 H 377.648 1.70803 5.86224 0
M  V30 4052 H 379.062 3.5354 4.51312 0
M  V30 4053 H 377.459 4.26922 4.21732 0
M  V30 4054 H 378.529 3.92587 2.84611 0
M  V30 4055 N 379.872 -1.04064 1.18357 0
M  V30 4056 C 380.802 -2.14001 0.934113 0
M  V30 4057 C 381.783 -1.69616 -0.128186 0
M  V30 4058 O 382.968 -1.94185 0.0244093 0
M  V30 4059 C 380.098 -3.44253 0.459066 0
M  V30 4060 C 379.052 -4.02261 1.46185 0
M  V30 4061 C 378.378 -5.27992 0.844322 0
M  V30 4062 C 379.678 -4.38432 2.83856 0
M  V30 4063 H 381.372 -2.35127 1.85352 0
M  V30 4064 H 378.918 -1.12998 0.892604 0
M  V30 4065 H 380.871 -4.20522 0.271907 0
M  V30 4066 H 379.595 -3.22813 -0.495912 0
M  V30 4067 H 378.254 -3.28074 1.63595 0
M  V30 4068 H 377.902 -5.02862 -0.117845 0
M  V30 4069 H 377.602 -5.67765 1.51384 0
M  V30 4070 H 379.126 -6.06938 0.667693 0
M  V30 4071 H 380.54 -5.05688 2.70098 0
M  V30 4072 H 378.937 -4.89254 3.47491 0
M  V30 4073 H 380.007 -3.4826 3.37406 0
M  V30 4074 N 381.35 -0.985608 -1.22978 0
M  V30 4075 C 382.58 -0.674603 -1.95276 0
M  V30 4076 C 382.988 0.763483 -1.73111 0
M  V30 4077 O 382.331 1.52601 -1.02268 0
M  V30 4078 C 382.393 -0.891597 -3.48268 0
M  V30 4079 C 382.057 -2.31275 -3.94158 0
M  V30 4080 C 383.054 -3.29179 -4.02415 0
M  V30 4081 C 380.739 -2.64524 -4.27004 0
M  V30 4082 C 382.733 -4.58407 -4.42879 0
M  V30 4083 C 380.42 -3.93974 -4.67149 0
M  V30 4084 C 381.418 -4.90727 -4.75053 0
M  V30 4085 O 381.106 -6.17865 -5.14294 0
M  V30 4086 H 380.838 -0.249251 -0.628371 0
M  V30 4087 H 383.392 -1.32106 -1.5728 0
M  V30 4088 H 381.622 -0.187962 -3.86243 0
M  V30 4089 H 383.311 -0.576957 -4.01779 0
M  V30 4090 H 384.077 -3.04823 -3.77237 0
M  V30 4091 H 379.956 -1.89923 -4.2006 0
M  V30 4092 H 383.5 -5.33926 -4.48964 0
M  V30 4093 H 379.397 -4.18122 -4.91777 0
M  V30 4094 H 380.165 -6.21694 -5.32389 0
M  V30 4095 N 382.828 1.3818 -0.7579 0
M  V30 4096 C 384.244 1.5353 -0.435972 0
M  V30 4097 C 384.444 1.71961 1.05032 0
M  V30 4098 O 383.5 1.73307 1.83633 0
M  V30 4099 C 384.813 2.73989 -1.23898 0
M  V30 4100 C 386.361 2.87841 -1.22949 0
M  V30 4101 C 386.836 4.11266 -2.01554 0
M  V30 4102 N 388.327 4.18352 -1.98837 0
M  V30 4103 C 389.062 5.12856 -2.5645 0
M  V30 4104 N 388.558 6.13005 -3.22794 0
M  V30 4105 N 390.351 5.05238 -2.46356 0
M  V30 4106 H 382.502 1.24467 -1.7211 0
M  V30 4107 H 384.765 0.604982 -0.729864 0
M  V30 4108 H 384.471 2.66789 -2.29165 0
M  V30 4109 H 384.345 3.67294 -0.858764 0
M  V30 4110 H 386.732 2.9452 -0.184854 0
M  V30 4111 H 386.813 1.95534 -1.64924 0
M  V30 4112 H 386.457 4.05349 -3.06031 0
M  V30 4113 H 386.387 5.02661 -1.5697 0
M  V30 4114 H 388.878 3.46628 -1.50524 0
M  V30 4115 H 389.191 6.81619 -3.64165 0
M  V30 4116 H 387.536 6.13325 -3.2689 0
M  V30 4117 H 390.727 4.25938 -1.9415 0
M  V30 4118 H 390.9 5.78707 -2.91552 0
M  V30 4119 N 384.306 0.507319 1.49211 0
M  V30 4120 C 385.534 -0.0315749 2.06876 0
M  V30 4121 C 385.949 -1.30241 1.36685 0
M  V30 4122 O 385.306 -1.76937 0.447152 0
M  V30 4123 C 385.357 -0.282627 3.60393 0
M  V30 4124 O 385.078 0.937835 4.27944 0
M  V30 4125 C 386.579 -0.864453 4.3479 0
M  V30 4126 H 383.799 0.0233048 0.670595 0
M  V30 4127 H 386.343 0.706484 1.91909 0
M  V30 4128 H 384.498 -0.97068 3.75042 0
M  V30 4129 H 384.912 0.704567 5.19746 0
M  V30 4130 H 386.386 -0.989664 5.43056 0
M  V30 4131 H 386.863 -1.86382 3.97692 0
M  V30 4132 H 387.469 -0.213672 4.24763 0
M  V30 4133 N 385.784 -1.5574 0.241426 0
M  V30 4134 C 387.061 -1.90704 -0.434881 0
M  V30 4135 C 387.441 -1.16145 -1.76277 0
M  V30 4136 O 386.789 -0.277152 -2.26813 0
M  V30 4137 C 386.999 -3.43657 -0.608343 0
M  V30 4138 C 388.347 -4.14806 -0.906725 0
M  V30 4139 O 389.371 -3.49366 -0.694408 0
M  V30 4140 O 388.23 -5.30548 -1.31075 0
M  V30 4141 H 385.324 -0.793592 -0.23268 0
M  V30 4142 H 387.87 -1.67288 0.285086 0
M  V30 4143 H 386.642 -3.89927 0.327505 0
M  V30 4144 H 386.265 -3.72918 -1.37906 0
M  V30 4145 N 387.262 0.0317525 -1.57568 0
M  V30 4146 C 388.509 0.723104 -1.89149 0
M  V30 4147 C 388.837 1.75504 -0.838377 0
M  V30 4148 O 388.092 1.95037 0.160982 0
M  V30 4149 C 388.391 1.43167 -3.27472 0
M  V30 4150 C 388.057 0.535972 -4.47703 0
M  V30 4151 C 386.719 0.289262 -4.8033 0
M  V30 4152 C 389.071 -0.0826125 -5.21135 0
M  V30 4153 C 386.399 -0.584853 -5.83778 0
M  V30 4154 C 388.751 -0.944414 -6.25511 0
M  V30 4155 C 387.415 -1.20061 -6.56614 0
M  V30 4156 H 386.685 0.264602 -0.692146 0
M  V30 4157 H 389.332 -0.0169496 -1.91492 0
M  V30 4158 H 387.637 2.24497 -3.21105 0
M  V30 4159 H 389.334 1.97209 -3.49155 0
M  V30 4160 H 385.924 0.738414 -4.22191 0
M  V30 4161 H 390.108 0.0950302 -4.96209 0
M  V30 4162 H 385.364 -0.79168 -6.06253 0
M  V30 4163 H 389.538 -1.43026 -6.81554 0
M  V30 4164 H 387.165 -1.87967 -7.36595 0
M  V30 4165 N 388.74 1.54641 0.303973 0
M  V30 4166 C 389.987 1.7378 1.03955 0
M  V30 4167 C 390.315 0.521986 1.87365 0
M  V30 4168 O 389.57 -0.496099 1.89308 0
M  V30 4169 C 389.869 2.97753 1.97681 0
M  V30 4170 C 389.535 4.31671 1.30271 0
M  V30 4171 C 388.197 4.68075 1.11619 0
M  V30 4172 C 390.549 5.147 0.82055 0
M  V30 4173 C 387.877 5.8509 0.434304 0
M  V30 4174 C 390.229 6.32416 0.152395 0
M  V30 4175 C 388.893 6.67484 -0.0461067 0
M  V30 4176 H 388.163 0.635908 0.380398 0
M  V30 4177 H 390.81 1.88896 0.314718 0
M  V30 4178 H 389.115 2.77406 2.76682 0
M  V30 4179 H 390.812 3.09756 2.54661 0
M  V30 4180 H 387.402 4.03041 1.45795 0
M  V30 4181 H 391.586 4.87077 0.952374 0
M  V30 4182 H 386.842 6.10806 0.269495 0
M  V30 4183 H 391.016 6.96023 -0.229126 0
M  V30 4184 H 388.643 7.58011 -0.576494 0
M  V30 4185 N 390.218 -0.567019 1.47046 0
M  V30 4186 C 391.629 -1.14916 1.47143 0
M  V30 4187 C 391.98 -1.94954 0.220767 0
M  V30 4188 O 391.105 -2.05602 -0.67505 0
M  V30 4189 C 391.7 -2.09069 2.666 0
M  V30 4190 C 390.259 -2.62575 2.69687 0
M  V30 4191 C 389.406 -1.38755 2.40088 0
M  V30 4192 H 392.357 -0.354126 1.54699 0
M  V30 4193 H 392.378 -2.92789 2.43011 0
M  V30 4194 H 391.89 -1.50789 3.57609 0
M  V30 4195 H 389.991 -3.24681 1.82792 0
M  V30 4196 H 390.104 -3.04239 3.70102 0
M  V30 4197 H 388.468 -1.69098 1.90468 0
M  V30 4198 H 389.251 -0.822822 3.33293 0
M  V30 4199 N 391.696 -1.35014 -0.812953 0
M  V30 4200 C 392.944 -1.27678 -1.56661 0
M  V30 4201 C 393.265 0.150359 -1.94419 0
M  V30 4202 O 392.535 1.08532 -1.63088 0
M  V30 4203 H 391.115 -0.469602 -0.580933 0
M  V30 4204 H 393.777 -1.69043 -0.970076 0
M  V30 4205 H 392.873 -1.88833 -2.48492 0
M  V30 4206 N 393.175 1.03435 -1.18907 0
M  V30 4207 C 394.105 2.13503 -0.945448 0
M  V30 4208 C 395.086 1.69682 0.119189 0
M  V30 4209 O 396.271 1.94169 -0.034707 0
M  V30 4210 C 393.401 3.44004 -0.477316 0
M  V30 4211 C 392.355 4.0148 -1.48316 0
M  V30 4212 C 391.681 5.27537 -0.872311 0
M  V30 4213 C 392.981 4.36921 -2.86177 0
M  V30 4214 H 394.675 2.34141 -1.86597 0
M  V30 4215 H 392.221 1.12523 -0.898584 0
M  V30 4216 H 394.174 4.20372 -0.294204 0
M  V30 4217 H 392.898 3.23072 0.478786 0
M  V30 4218 H 391.557 3.27201 -1.65332 0
M  V30 4219 H 391.205 5.02917 0.0911752 0
M  V30 4220 H 390.905 5.66954 -1.54393 0
M  V30 4221 H 392.429 6.06576 -0.699871 0
M  V30 4222 H 393.843 5.04248 -2.72776 0
M  V30 4223 H 392.24 4.87405 -3.50081 0
M  V30 4224 H 393.31 3.46466 -3.39248 0
M  V30 4225 N 394.653 0.992116 1.22453 0
M  V30 4226 C 395.901 0.666215 1.90804 0
M  V30 4227 C 396.222 -0.804152 1.77647 0
M  V30 4228 O 395.492 -1.57629 1.16318 0
M  V30 4229 H 394.072 0.243423 0.706225 0
M  V30 4230 H 396.734 1.25845 1.48825 0
M  V30 4231 H 395.83 0.928069 2.97982 0
M  V30 4232 N 396.131 -1.37776 0.765217 0
M  V30 4233 C 397.377 -2.00604 0.336066 0
M  V30 4234 C 397.732 -1.59657 -1.07366 0
M  V30 4235 O 397.025 -0.829565 -1.7271 0
M  V30 4236 C 397.219 -3.5504 0.410053 0
M  V30 4237 C 397.048 -4.10985 1.82542 0
M  V30 4238 C 395.818 -4.42229 2.44461 0
M  V30 4239 C 398.016 -4.32438 2.78392 0
M  V30 4240 N 395.998 -4.8385 3.77839 0
M  V30 4241 C 397.369 -4.76596 3.96556 0
M  V30 4242 C 399.424 -4.14559 2.75764 0
M  V30 4243 C 398.127 -5.04748 5.12466 0
M  V30 4244 C 400.153 -4.43843 3.90842 0
M  V30 4245 C 399.515 -4.88235 5.07746 0
M  V30 4246 H 395.614 -0.763325 0.169881 0
M  V30 4247 H 398.198 -1.67197 0.997656 0
M  V30 4248 H 396.369 -3.87769 -0.221325 0
M  V30 4249 H 398.101 -4.0468 -0.0405285 0
M  V30 4250 H 394.856 -4.31079 1.96131 0
M  V30 4251 H 395.28 -5.08979 4.46396 0
M  V30 4252 H 399.922 -3.79415 1.86558 0
M  V30 4253 H 397.64 -5.38783 6.02277 0
M  V30 4254 H 401.226 -4.31603 3.90141 0
M  V30 4255 H 400.106 -5.10461 5.95315 0
M  V30 4256 N 397.609 -0.515225 -1.4894 0
M  V30 4257 C 398.539 0.244628 -2.32215 0
M  V30 4258 C 399.52 0.949136 -1.41157 0
M  V30 4259 O 400.705 0.937783 -1.70057 0
M  V30 4260 C 397.835 1.30096 -3.22013 0
M  V30 4261 C 396.789 0.715486 -4.21977 0
M  V30 4262 C 396.115 1.87339 -5.00808 0
M  V30 4263 C 397.415 -0.302982 -5.2142 0
M  V30 4264 H 399.109 -0.450501 -2.95991 0
M  V30 4265 H 396.655 -0.218098 -1.42339 0
M  V30 4266 H 398.608 1.84037 -3.79089 0
M  V30 4267 H 397.332 2.02547 -2.56207 0
M  V30 4268 H 395.991 0.197715 -3.66066 0
M  V30 4269 H 395.639 2.58592 -4.31438 0
M  V30 4270 H 395.339 1.48764 -5.68457 0
M  V30 4271 H 396.863 2.41686 -5.60732 0
M  V30 4272 H 398.277 0.148802 -5.73107 0
M  V30 4273 H 396.674 -0.60532 -5.97039 0
M  V30 4274 H 397.744 -1.21395 -4.69459 0
M  V30 4275 N 399.087 1.5561 -0.249682 0
M  V30 4276 C 400.017 2.24477 0.642826 0
M  V30 4277 C 400.998 1.22601 1.17911 0
M  V30 4278 O 402.183 1.5126 1.21795 0
M  V30 4279 C 399.313 2.94638 1.83863 0
M  V30 4280 C 398.267 4.03227 1.435 0
M  V30 4281 C 397.593 4.60828 2.71186 0
M  V30 4282 C 398.893 5.18796 0.604002 0
M  V30 4283 H 400.587 2.99321 0.0685625 0
M  V30 4284 H 398.133 1.43965 0.0315363 0
M  V30 4285 H 400.086 3.41517 2.46868 0
M  V30 4286 H 398.81 2.17287 2.43832 0
M  V30 4287 H 397.469 3.57121 0.828275 0
M  V30 4288 H 397.117 3.80174 3.29358 0
M  V30 4289 H 396.817 5.34132 2.44901 0
M  V30 4290 H 398.341 5.10442 3.35084 0
M  V30 4291 H 399.755 5.61883 1.13842 0
M  V30 4292 H 398.152 5.98506 0.437097 0
M  V30 4293 H 399.222 4.83384 -0.383147 0
M  V30 4294 N 400.565 -0.0233959 1.57583 0
M  V30 4295 C 401.495 -1.02162 2.09965 0
M  V30 4296 C 402.476 -1.3735 1.00344 0
M  V30 4297 O 403.661 -1.46135 1.27899 0
M  V30 4298 C 400.791 -2.32081 2.58371 0
M  V30 4299 C 399.745 -2.1112 3.72307 0
M  V30 4300 C 399.071 -3.46848 4.06941 0
M  V30 4301 C 400.371 -1.49276 5.00514 0
M  V30 4302 H 402.065 -0.585557 2.93618 0
M  V30 4303 H 399.611 -0.280218 1.41247 0
M  V30 4304 H 401.564 -3.02249 2.93639 0
M  V30 4305 H 400.288 -2.77758 1.71808 0
M  V30 4306 H 398.947 -1.43384 3.37397 0
M  V30 4307 H 398.595 -3.90184 3.17436 0
M  V30 4308 H 398.295 -3.33646 4.83688 0
M  V30 4309 H 399.819 -4.18369 4.44747 0
M  V30 4310 H 401.233 -2.09368 5.33702 0
M  V30 4311 H 399.63 -1.46632 5.8191 0
M  V30 4312 H 400.7 -0.459217 4.82721 0
M  V30 4313 N 402.043 -1.548 -0.295768 0
M  V30 4314 C 403.006 -1.85363 -1.34808 0
M  V30 4315 C 404.006 -0.726817 -1.43436 0
M  V30 4316 O 405.196 -0.995088 -1.42981 0
M  V30 4317 C 402.328 -2.03859 -2.73229 0
M  V30 4318 H 403.521 -2.7941 -1.08949 0
M  V30 4319 H 401.074 -1.46942 -0.532702 0
M  V30 4320 H 401.809 -1.12117 -3.04303 0
M  V30 4321 H 401.594 -2.8588 -2.68356 0
M  V30 4322 H 403.084 -2.28857 -3.49305 0
M  V30 4323 N 403.521 0.559213 -1.47345 0
M  V30 4324 C 404.431 1.69388 -1.62311 0
M  V30 4325 C 405.447 1.6648 -0.505993 0
M  V30 4326 O 406.623 1.85964 -0.773262 0
M  V30 4327 C 403.688 3.05894 -1.63185 0
M  V30 4328 C 402.749 3.19885 -2.86307 0
M  V30 4329 C 401.982 4.49879 -2.87131 0
M  V30 4330 O 402.205 5.35217 -1.97229 0
M  V30 4331 O 401.139 4.67618 -3.78968 0
M  V30 4332 H 404.965 1.59706 -2.58317 0
M  V30 4333 H 402.55 0.728989 -1.30407 0
M  V30 4334 H 404.432 3.87133 -1.66451 0
M  V30 4335 H 403.107 3.15964 -0.70345 0
M  V30 4336 H 402.014 2.38052 -2.88587 0
M  V30 4337 H 403.347 3.14718 -3.78435 0
M  V30 4338 N 404.999 1.35443 0.805782 0
M  V30 4339 C 405.929 1.31095 1.93226 0
M  V30 4340 C 406.91 0.185244 1.69088 0
M  V30 4341 O 408.095 0.380332 1.90439 0
M  V30 4342 C 405.225 1.08299 3.29983 0
M  V30 4343 C 404.179 2.17519 3.68605 0
M  V30 4344 C 403.505 1.79887 5.03532 0
M  V30 4345 C 404.805 3.5949 3.78898 0
M  V30 4346 H 406.499 2.25352 1.97122 0
M  V30 4347 H 404.045 1.0848 0.946996 0
M  V30 4348 H 405.998 1.03897 4.08391 0
M  V30 4349 H 404.722 0.104885 3.26432 0
M  V30 4350 H 403.381 2.2102 2.92482 0
M  V30 4351 H 403.029 0.80693 4.96485 0
M  V30 4352 H 402.729 2.53001 5.30344 0
M  V30 4353 H 404.253 1.77011 5.84379 0
M  V30 4354 H 405.667 3.58307 4.47536 0
M  V30 4355 H 404.064 4.31371 4.1718 0
M  V30 4356 H 405.134 3.95584 2.80431 0
M  V30 4357 N 406.477 -1.02803 1.19454 0
M  V30 4358 C 407.723 -1.76598 1.0092 0
M  V30 4359 C 408.078 -1.86939 -0.455142 0
M  V30 4360 O 407.371 -1.37575 -1.33355 0
M  V30 4361 C 407.565 -3.18941 1.6128 0
M  V30 4362 C 407.394 -3.22476 3.13431 0
M  V30 4363 C 406.164 -3.30375 3.82336 0
M  V30 4364 C 408.362 -3.09451 4.10785 0
M  V30 4365 N 406.344 -3.23292 5.21877 0
M  V30 4366 C 407.715 -3.10012 5.36929 0
M  V30 4367 C 409.77 -2.93585 4.02135 0
M  V30 4368 C 408.473 -2.96334 6.55423 0
M  V30 4369 C 410.499 -2.81256 5.20239 0
M  V30 4370 C 409.861 -2.82472 6.45282 0
M  V30 4371 H 405.96 -0.657447 0.423424 0
M  V30 4372 H 408.544 -1.22369 1.5144 0
M  V30 4373 H 406.715 -3.71489 1.1336 0
M  V30 4374 H 408.447 -3.81102 1.36173 0
M  V30 4375 H 405.202 -3.3663 3.33132 0
M  V30 4376 H 405.626 -3.23156 5.94894 0
M  V30 4377 H 410.268 -2.91466 3.0628 0
M  V30 4378 H 407.986 -2.97203 7.51463 0
M  V30 4379 H 411.572 -2.70014 5.15348 0
M  V30 4380 H 410.452 -2.73036 7.35133 0
M  V30 4381 N 407.956 -0.998596 -1.21925 0
M  V30 4382 C 408.919 -0.558679 -2.22287 0
M  V30 4383 C 409.919 0.361525 -1.56683 0
M  V30 4384 O 411.109 0.152695 -1.73529 0
M  V30 4385 C 408.241 0.18661 -3.40389 0
M  V30 4386 H 409.434 -1.4463 -2.62721 0
M  V30 4387 H 406.987 -0.786413 -1.35075 0
M  V30 4388 H 407.722 1.08996 -3.05435 0
M  V30 4389 H 407.507 -0.474188 -3.89222 0
M  V30 4390 H 408.997 0.482367 -4.14805 0
M  V30 4391 N 409.434 1.37368 -0.772513 0
M  V30 4392 C 410.344 2.34053 -0.160081 0
M  V30 4393 C 411.36 1.60216 0.678728 0
M  V30 4394 O 412.536 1.92303 0.59847 0
M  V30 4395 C 409.601 3.3939 0.708182 0
M  V30 4396 C 408.662 4.29048 -0.147172 0
M  V30 4397 C 407.895 5.29354 0.679744 0
M  V30 4398 O 408.118 5.3723 1.91678 0
M  V30 4399 O 407.052 6.01835 0.0885444 0
M  V30 4400 H 410.878 2.88159 -0.959053 0
M  V30 4401 H 408.463 1.39543 -0.533685 0
M  V30 4402 H 410.345 4.03839 1.20384 0
M  V30 4403 H 409.02 2.8761 1.48533 0
M  V30 4404 H 407.927 3.67697 -0.689205 0
M  V30 4405 H 409.26 4.84134 -0.887423 0
M  V30 4406 N 410.912 0.523116 1.48665 0
M  V30 4407 C 411.842 -0.23231 2.32342 0
M  V30 4408 C 412.823 -0.941637 1.41659 0
M  V30 4409 O 414.008 -0.928751 1.70552 0
M  V30 4410 C 411.138 -1.28387 3.22698 0
M  V30 4411 C 410.092 -0.693098 4.22351 0
M  V30 4412 C 409.418 -1.8468 5.01794 0
M  V30 4413 C 410.718 0.33063 5.21252 0
M  V30 4414 H 412.412 0.466192 2.95748 0
M  V30 4415 H 409.958 0.225643 1.42221 0
M  V30 4416 H 411.911 -1.82024 3.80059 0
M  V30 4417 H 410.635 -2.01186 2.57278 0
M  V30 4418 H 409.294 -0.178299 3.66166 0
M  V30 4419 H 408.942 -2.56301 4.32804 0
M  V30 4420 H 408.642 -1.45747 5.69238 0
M  V30 4421 H 410.166 -2.38709 5.62006 0
M  V30 4422 H 411.58 -0.118407 5.73178 0
M  V30 4423 H 409.977 0.636974 5.9671 0
M  V30 4424 H 411.047 1.23883 4.68808 0
M  V30 4425 N 412.39 -1.55475 0.257931 0
M  V30 4426 C 413.3 -2.2549 -0.647425 0
M  V30 4427 C 414.316 -1.2748 -1.18427 0
M  V30 4428 O 415.492 -1.6038 -1.2182 0
M  V30 4429 C 412.557 -2.94916 -1.82278 0
M  V30 4430 C 411.618 -4.08363 -1.32432 0
M  V30 4431 C 410.851 -4.74469 -2.44366 0
M  V30 4432 O 411.074 -4.39701 -3.63344 0
M  V30 4433 O 410.008 -5.62763 -2.13497 0
M  V30 4434 H 413.834 -3.03593 -0.0807707 0
M  V30 4435 H 411.419 -1.49377 0.0259962 0
M  V30 4436 H 413.301 -3.38606 -2.50846 0
M  V30 4437 H 411.976 -2.19744 -2.37685 0
M  V30 4438 H 410.883 -3.69166 -0.605605 0
M  V30 4439 H 412.216 -4.85385 -0.816211 0
M  V30 4440 N 413.868 0.0150385 -1.57593 0
M  V30 4441 C 415.279 0.559832 -1.78109 0
M  V30 4442 C 415.63 1.74814 -0.890756 0
M  V30 4443 O 414.755 2.16216 -0.0892482 0
M  V30 4444 C 415.35 1.02238 -3.23006 0
M  V30 4445 C 413.909 1.51258 -3.44671 0
M  V30 4446 C 413.056 0.456955 -2.73509 0
M  V30 4447 H 416.007 -0.211169 -1.57289 0
M  V30 4448 H 416.028 1.88912 -3.30292 0
M  V30 4449 H 415.54 0.157302 -3.87781 0
M  V30 4450 H 413.641 2.39905 -2.8509 0
M  V30 4451 H 413.754 1.55042 -4.5332 0
M  V30 4452 H 412.118 0.915196 -2.37689 0
M  V30 4453 H 412.901 -0.398896 -3.40975 0
M  V30 4454 N 415.346 1.54954 0.287554 0
M  V30 4455 C 416.293 1.86834 1.35505 0
M  V30 4456 C 417.263 0.718452 1.49758 0
M  V30 4457 O 418.448 0.968358 1.644 0
M  V30 4458 C 415.588 2.13303 2.71286 0
M  V30 4459 C 414.701 3.40883 2.65373 0
M  V30 4460 C 413.836 3.57125 3.93236 0
M  V30 4461 C 412.875 4.78449 3.81776 0
M  V30 4462 N 412.012 4.91426 5.01443 0
M  V30 4463 H 416.852 2.77889 1.07619 0
M  V30 4464 H 414.389 1.37593 0.520241 0
M  V30 4465 H 416.347 2.26646 3.50267 0
M  V30 4466 H 414.977 1.25499 2.97405 0
M  V30 4467 H 414.029 3.36088 1.78182 0
M  V30 4468 H 415.341 4.29993 2.52799 0
M  V30 4469 H 414.495 3.70207 4.80658 0
M  V30 4470 H 413.234 2.66173 4.0866 0
M  V30 4471 H 412.239 4.65386 2.92738 0
M  V30 4472 H 413.464 5.70822 3.67884 0
M  V30 4473 H 411.41 4.03401 5.17304 0
M  V30 4474 H 411.327 5.74559 4.91343 0
M  V30 4475 H 412.595 5.08879 5.90477 0
M  V30 4476 N 416.824 -0.551391 1.4764 0
M  V30 4477 C 418.07 -1.30789 1.55774 0
M  V30 4478 C 418.425 -1.91143 0.219562 0
M  V30 4479 O 417.718 -1.7521 -0.775375 0
M  V30 4480 C 417.912 -2.43469 2.61644 0
M  V30 4481 C 417.741 -1.94157 4.05627 0
M  V30 4482 C 416.511 -1.77734 4.7301 0
M  V30 4483 C 418.709 -1.48262 4.92466 0
M  V30 4484 N 416.691 -1.22823 6.01488 0
M  V30 4485 C 418.062 -1.05156 6.11017 0
M  V30 4486 C 420.117 -1.36367 4.78862 0
M  V30 4487 C 418.82 -0.513357 7.17466 0
M  V30 4488 C 420.846 -0.839484 5.85411 0
M  V30 4489 C 420.208 -0.418377 7.03156 0
M  V30 4490 H 416.307 -0.470406 0.624694 0
M  V30 4491 H 418.891 -0.624331 1.84419 0
M  V30 4492 H 417.062 -3.09348 2.34859 0
M  V30 4493 H 418.794 -3.10477 2.59589 0
M  V30 4494 H 415.549 -2.00623 4.29007 0
M  V30 4495 H 415.973 -0.974393 6.69951 0
M  V30 4496 H 420.615 -1.67535 3.88191 0
M  V30 4497 H 418.333 -0.189318 8.07878 0
M  V30 4498 H 421.919 -0.750921 5.76934 0
M  V30 4499 H 420.799 -0.0190538 7.84198 0
M  V30 4500 N 418.302 -1.35869 -0.798587 0
M  V30 4501 C 419.713 -1.26498 -1.37314 0
M  V30 4502 C 420.064 0.0991899 -1.95949 0
M  V30 4503 O 419.189 1.0004 -1.91888 0
M  V30 4504 C 419.784 -2.29054 -2.49639 0
M  V30 4505 C 418.343 -2.234 -3.02935 0
M  V30 4506 C 417.49 -2.14329 -1.75949 0
M  V30 4507 H 420.441 -1.46881 -0.600971 0
M  V30 4508 H 420.462 -1.92166 -3.28409 0
M  V30 4509 H 419.974 -3.2833 -2.06933 0
M  V30 4510 H 418.075 -1.27562 -3.50084 0
M  V30 4511 H 418.188 -3.15703 -3.60372 0
M  V30 4512 H 416.552 -1.60435 -1.9782 0
M  V30 4513 H 417.335 -3.15477 -1.35384 0
M  V30 4514 N 419.78 1.02168 -1.19998 0
M  V30 4515 C 420.727 2.10601 -0.944228 0
M  V30 4516 C 421.697 1.65639 0.123664 0
M  V30 4517 O 422.882 1.9079 -0.0199941 0
M  V30 4518 C 420.022 3.41504 -0.496865 0
M  V30 4519 C 419.135 3.99973 -1.63234 0
M  V30 4520 C 418.27 5.18915 -1.13579 0
M  V30 4521 C 417.309 5.69456 -2.24468 0
M  V30 4522 N 416.446 6.79665 -1.76068 0
M  V30 4523 H 421.286 2.31814 -1.8726 0
M  V30 4524 H 418.823 1.13686 -0.933483 0
M  V30 4525 H 420.781 4.16626 -0.218843 0
M  V30 4526 H 419.411 3.2038 0.394508 0
M  V30 4527 H 418.463 3.21997 -2.0254 0
M  V30 4528 H 419.775 4.33492 -2.46752 0
M  V30 4529 H 418.929 6.01222 -0.813429 0
M  V30 4530 H 417.668 4.8695 -0.270434 0
M  V30 4531 H 416.673 4.85757 -2.57526 0
M  V30 4532 H 417.898 6.03459 -3.11472 0
M  V30 4533 H 415.844 6.49538 -0.918516 0
M  V30 4534 H 415.761 7.12349 -2.5317 0
M  V30 4535 H 417.029 7.65549 -1.46817 0
M  V30 4536 N 421.258 1.00505 1.21394 0
M  V30 4537 C 422.221 0.570459 2.21987 0
M  V30 4538 C 423.221 -0.353211 1.56873 0
M  V30 4539 O 424.411 -0.14349 1.73608 0
M  V30 4540 C 421.543 -0.168555 3.40483 0
M  V30 4541 H 422.736 1.46021 2.6195 0
M  V30 4542 H 420.289 0.793565 1.34656 0
M  V30 4543 H 421.024 -1.07374 3.06009 0
M  V30 4544 H 420.809 0.494823 3.88965 0
M  V30 4545 H 422.299 -0.460362 4.15055 0
M  V30 4546 N 422.737 -1.36956 0.779787 0
M  V30 4547 C 423.984 -1.99491 0.347766 0
M  V30 4548 C 424.312 -1.61898 -1.07793 0
M  V30 4549 O 423.567 -0.86071 -1.75756 0
M  V30 4550 C 423.866 -3.54585 0.447686 0
M  V30 4551 C 423.532 -4.1197 1.83279 0
M  V30 4552 C 422.194 -4.27356 2.2118 0
M  V30 4553 C 424.546 -4.43354 2.74019 0
M  V30 4554 C 421.874 -4.71432 3.4924 0
M  V30 4555 C 424.226 -4.88858 4.01497 0
M  V30 4556 C 422.89 -5.0245 4.39432 0
M  V30 4557 H 422.16 -0.729991 0.127257 0
M  V30 4558 H 424.807 -1.63599 0.995376 0
M  V30 4559 H 423.112 -3.90773 -0.283447 0
M  V30 4560 H 424.809 -4.00888 0.0945948 0
M  V30 4561 H 421.399 -4.00428 1.52825 0
M  V30 4562 H 425.583 -4.31045 2.45995 0
M  V30 4563 H 420.839 -4.80141 3.78516 0
M  V30 4564 H 425.013 -5.12108 4.71931 0
M  V30 4565 H 422.64 -5.36362 5.38721 0
M  V30 4566 N 424.215 -0.530993 -1.48385 0
M  V30 4567 C 425.461 -0.00538653 -2.03399 0
M  V30 4568 C 425.816 1.31899 -1.40073 0
M  V30 4569 O 425.109 1.83901 -0.537676 0
M  V30 4570 C 425.303 0.172742 -3.56982 0
M  V30 4571 C 425.132 -1.13282 -4.35198 0
M  V30 4572 C 423.902 -1.69296 -4.76096 0
M  V30 4573 C 426.1 -2.04367 -4.71952 0
M  V30 4574 N 424.082 -2.9413 -5.38851 0
M  V30 4575 C 425.453 -3.13777 -5.34737 0
M  V30 4576 C 427.508 -2.04681 -4.53883 0
M  V30 4577 C 426.211 -4.23567 -5.81363 0
M  V30 4578 C 428.237 -3.13466 -5.01491 0
M  V30 4579 C 427.599 -4.21595 -5.64302 0
M  V30 4580 H 423.698 -0.0434945 -0.780789 0
M  V30 4581 H 426.282 -0.712495 -1.81195 0
M  V30 4582 H 424.453 0.848937 -3.79009 0
M  V30 4583 H 426.185 0.698046 -3.98634 0
M  V30 4584 H 422.94 -1.23422 -4.57235 0
M  V30 4585 H 423.364 -3.57689 -5.74794 0
M  V30 4586 H 428.006 -1.22378 -4.04702 0
M  V30 4587 H 425.724 -5.06648 -6.2955 0
M  V30 4588 H 429.31 -3.14765 -4.893 0
M  V30 4589 H 428.19 -5.04384 -6.00472 0
M  V30 4590 N 425.693 1.55336 -0.266172 0
M  V30 4591 C 426.97 1.91372 0.404486 0
M  V30 4592 C 427.35 1.18935 1.74407 0
M  V30 4593 O 426.698 0.3132 2.26343 0
M  V30 4594 C 426.908 3.44581 0.553593 0
M  V30 4595 C 428.256 4.16196 0.840618 0
M  V30 4596 O 429.28 3.50426 0.638739 0
M  V30 4597 O 428.139 5.32567 1.22618 0
M  V30 4598 H 425.233 0.797194 0.220025 0
M  V30 4599 H 427.779 1.66813 -0.311664 0
M  V30 4600 H 426.551 3.89357 -0.389498 0
M  V30 4601 H 426.174 3.75065 1.31955 0
M  V30 4602 N 427.171 -0.0066808 1.57599 0
M  V30 4603 C 428.448 -0.729586 1.81484 0
M  V30 4604 C 428.828 -1.92359 0.869558 0
M  V30 4605 O 428.176 -2.28348 -0.0832533 0
M  V30 4606 C 428.386 -1.1416 3.29801 0
M  V30 4607 C 429.734 -1.54823 3.95367 0
M  V30 4608 O 430.758 -1.23558 3.34084 0
M  V30 4609 O 429.617 -2.12937 5.03309 0
M  V30 4610 H 426.711 -0.354674 0.747085 0
M  V30 4611 H 429.257 0.0182609 1.6969 0
M  V30 4612 H 428.029 -0.290231 3.90222 0
M  V30 4613 H 427.652 -1.94876 3.46568 0
M  V30 4614 N 428.649 -1.55105 -0.279332 0
M  V30 4615 C 429.895 -1.76597 -1.00921 0
M  V30 4616 C 430.25 -0.556831 -1.84166 0
M  V30 4617 O 429.543 0.450573 -1.86227 0
M  V30 4618 C 429.737 -3.0086 -1.92919 0
M  V30 4619 C 429.566 -4.33744 -1.18728 0
M  V30 4620 C 428.336 -4.9712 -0.905545 0
M  V30 4621 C 430.534 -5.11009 -0.580857 0
M  V30 4622 N 428.516 -6.13749 -0.136169 0
M  V30 4623 C 429.887 -6.19976 0.0546661 0
M  V30 4624 C 431.942 -4.95502 -0.488067 0
M  V30 4625 C 430.645 -7.15123 0.774028 0
M  V30 4626 C 432.671 -5.90999 0.217688 0
M  V30 4627 C 432.033 -6.9935 0.841975 0
M  V30 4628 H 428.132 -0.698553 -0.351493 0
M  V30 4629 H 430.716 -1.92595 -0.285531 0
M  V30 4630 H 428.887 -2.86249 -2.62519 0
M  V30 4631 H 430.619 -3.10784 -2.59221 0
M  V30 4632 H 427.374 -4.57903 -1.20921 0
M  V30 4633 H 427.798 -6.7659 0.235665 0
M  V30 4634 H 432.44 -4.11841 -0.956406 0
M  V30 4635 H 430.158 -7.9831 1.25407 0
M  V30 4636 H 433.744 -5.81078 0.289717 0
M  V30 4637 H 432.624 -7.71973 1.37939 0
M  V30 4638 N 430.127 0.543554 -1.4793 0
M  V30 4639 C 431.06 1.66556 -1.55995 0
M  V30 4640 C 432.038 1.57315 -0.411205 0
M  V30 4641 O 433.222 1.7798 -0.620922 0
M  V30 4642 C 430.349 3.04883 -1.47527 0
M  V30 4643 C 429.395 3.32526 -2.67074 0
M  V30 4644 S 430.228 3.20282 -4.29162 0
M  V30 4645 C 431.384 4.61079 -4.23269 0
M  V30 4646 H 431.617 1.59462 -2.50917 0
M  V30 4647 H 429.15 0.725456 -1.36296 0
M  V30 4648 H 431.108 3.84665 -1.43328 0
M  V30 4649 H 429.769 3.09429 -0.539665 0
M  V30 4650 H 428.962 4.33403 -2.5725 0
M  V30 4651 H 428.564 2.60389 -2.68466 0
M  V30 4652 H 430.856 5.52318 -3.92365 0
M  V30 4653 H 431.799 4.75959 -5.24279 0
M  V30 4654 H 432.207 4.39766 -3.5393 0
M  V30 4655 N 431.605 1.3629 0.791371 0
M  V30 4656 C 433.021 1.16661 1.08914 0
M  V30 4657 C 433.221 -0.0106266 2.01497 0
M  V30 4658 O 432.277 -0.676596 2.43266 0
M  V30 4659 C 433.59 2.47656 1.70549 0
M  V30 4660 C 435.138 2.54002 1.82899 0
M  V30 4661 C 435.613 3.85078 2.47949 0
M  V30 4662 N 437.104 3.86413 2.5542 0
M  V30 4663 C 437.839 4.84572 3.06557 0
M  V30 4664 N 437.335 5.93124 3.58016 0
M  V30 4665 N 439.128 4.71994 3.05251 0
M  V30 4666 H 431.279 2.11668 0.176238 0
M  V30 4667 H 433.542 0.937486 0.140796 0
M  V30 4668 H 433.248 3.34059 1.09989 0
M  V30 4669 H 433.122 2.63319 2.70079 0
M  V30 4670 H 435.509 1.68018 2.42598 0
M  V30 4671 H 435.59 2.42239 0.821808 0
M  V30 4672 H 435.234 4.71467 1.88895 0
M  V30 4673 H 435.164 3.94135 3.49235 0
M  V30 4674 H 437.655 3.07988 2.18979 0
M  V30 4675 H 437.968 6.63999 3.95381 0
M  V30 4676 H 436.313 5.96796 3.56173 0
M  V30 4677 H 439.504 3.86321 2.64336 0
M  V30 4678 H 439.677 5.48653 3.44796 0
M  V30 4679 N 433.083 -1.0153 1.20538 0
M  V30 4680 C 434.499 -1.27461 0.96051 0
M  V30 4681 C 434.699 -1.98273 -0.359193 0
M  V30 4682 O 433.755 -2.27886 -1.0874 0
M  V30 4683 C 435.068 -2.10837 2.14402 0
M  V30 4684 C 436.616 -2.24099 2.18515 0
M  V30 4685 C 437.091 -3.10852 3.36355 0
M  V30 4686 N 438.582 -3.18441 3.36377 0
M  V30 4687 C 439.317 -3.85795 4.24205 0
M  V30 4688 N 438.813 -4.55264 5.22213 0
M  V30 4689 N 440.606 -3.82331 4.12043 0
M  V30 4690 H 432.757 -0.539907 2.05423 0
M  V30 4691 H 435.02 -0.30092 0.898972 0
M  V30 4692 H 434.726 -1.66144 3.09983 0
M  V30 4693 H 434.6 -3.11576 2.12604 0
M  V30 4694 H 436.987 -2.68016 1.23497 0
M  V30 4695 H 437.068 -1.22865 2.24361 0
M  V30 4696 H 436.712 -2.6764 4.31661 0
M  V30 4697 H 436.642 -4.12177 3.27746 0
M  V30 4698 H 439.133 -2.68978 2.65442 0
M  V30 4699 H 439.446 -5.04331 5.85551 0
M  V30 4700 H 437.791 -4.54085 5.26148 0
M  V30 4701 H 440.982 -3.27207 3.34743 0
M  V30 4702 H 441.155 -4.34547 4.807 0
M  V30 4703 N 434.561 -1.01147 -1.20859 0
M  V30 4704 C 435.972 -0.730205 -1.71828 0
M  V30 4705 C 436.323 0.751662 -1.8123 0
M  V30 4706 O 435.448 1.58686 -1.47132 0
M  V30 4707 C 436.043 -1.31885 -3.12077 0
M  V30 4708 C 434.602 -1.08656 -3.60376 0
M  V30 4709 C 433.749 -1.42769 -2.37723 0
M  V30 4710 H 436.7 -1.18158 -1.05945 0
M  V30 4711 H 436.721 -0.706793 -3.73878 0
M  V30 4712 H 436.233 -2.39737 -3.05201 0
M  V30 4713 H 434.334 -0.0254814 -3.72591 0
M  V30 4714 H 434.447 -1.76301 -4.45483 0
M  V30 4715 H 432.811 -0.846603 -2.40218 0
M  V30 4716 H 433.594 -2.51666 -2.33493 0
M  V30 4717 N 436.039 1.36541 -0.78704 0
M  V30 4718 C 436.949 2.3387 -0.184896 0
M  V30 4719 C 437.965 1.60927 0.661697 0
M  V30 4720 O 439.141 1.92927 0.57804 0
M  V30 4721 C 436.206 3.40122 0.672145 0
M  V30 4722 C 435.267 4.28867 -0.19267 0
M  V30 4723 C 434.5 5.30045 0.623561 0
M  V30 4724 O 434.723 5.39232 1.8597 0
M  V30 4725 O 433.657 6.01895 0.0247068 0
M  V30 4726 H 437.483 2.87126 -0.989562 0
M  V30 4727 H 435.068 1.38969 -0.548455 0
M  V30 4728 H 436.95 4.05093 1.16094 0
M  V30 4729 H 435.625 2.89169 1.45474 0
M  V30 4730 H 434.532 3.66945 -0.728166 0
M  V30 4731 H 435.865 4.83165 -0.938722 0
M  V30 4732 N 437.518 0.538854 1.48102 0
M  V30 4733 C 438.45 -0.256278 2.27763 0
M  V30 4734 C 439.463 -0.89633 1.35904 0
M  V30 4735 O 440.652 -0.773275 1.60881 0
M  V30 4736 C 437.752 -1.37896 3.09577 0
M  V30 4737 C 436.925 -0.839159 4.29275 0
M  V30 4738 C 435.984 -1.84405 4.9283 0
M  V30 4739 O 435.01 -1.39746 5.51779 0
M  V30 4740 N 436.212 -3.17666 4.85869 0
M  V30 4741 H 438.977 0.426968 2.96643 0
M  V30 4742 H 436.538 0.373747 1.57527 0
M  V30 4743 H 438.53 -2.04955 3.48963 0
M  V30 4744 H 437.1 -1.96572 2.4306 0
M  V30 4745 H 436.32 0.00769287 3.94199 0
M  V30 4746 H 437.608 -0.457548 5.06739 0
M  V30 4747 H 437.006 -3.56609 4.39143 0
M  V30 4748 H 435.563 -3.80334 5.29329 0
M  V30 4749 N 438.996 -1.55193 0.274407 0
M  V30 4750 C 440.412 -1.59401 -0.0797543 0
M  V30 4751 C 440.612 -1.29162 -1.54659 0
M  V30 4752 O 439.668 -1.05215 -2.29534 0
M  V30 4753 C 440.981 -2.99257 0.294238 0
M  V30 4754 C 442.529 -3.12072 0.240796 0
M  V30 4755 C 443.004 -4.54194 0.589218 0
M  V30 4756 N 444.495 -4.60033 0.540744 0
M  V30 4757 C 445.23 -5.68027 0.783147 0
M  V30 4758 N 444.726 -6.8417 1.09013 0
M  V30 4759 N 446.519 -5.57572 0.711993 0
M  V30 4760 H 438.67 -1.73113 1.23067 0
M  V30 4761 H 440.933 -0.807197 0.497129 0
M  V30 4762 H 440.639 -3.26217 1.31435 0
M  V30 4763 H 440.513 -3.75427 -0.365281 0
M  V30 4764 H 442.9 -2.84877 -0.770024 0
M  V30 4765 H 442.981 -2.38117 0.934563 0
M  V30 4766 H 442.625 -4.82115 1.59772 0
M  V30 4767 H 442.555 -5.26448 -0.126331 0
M  V30 4768 H 445.046 -3.76599 0.313327 0
M  V30 4769 H 445.359 -7.6243 1.26178 0
M  V30 4770 H 443.704 -6.85787 1.12789 0
M  V30 4771 H 446.895 -4.65714 0.472014 0
M  V30 4772 H 447.068 -6.41659 0.90429 0
M  V30 4773 N 440.474 -0.00167713 -1.576 0
M  V30 4774 C 441.406 1.0174 -2.05382 0
M  V30 4775 C 442.419 1.30595 -0.972052 0
M  V30 4776 O 443.608 1.27542 -1.24882 0
M  V30 4777 C 440.708 2.35174 -2.44022 0
M  V30 4778 C 439.881 2.25234 -3.74951 0
M  V30 4779 C 438.94 3.4137 -4.00441 0
M  V30 4780 O 437.966 3.19483 -4.71083 0
M  V30 4781 N 439.168 4.64275 -3.48467 0
M  V30 4782 H 441.933 0.609902 -2.93428 0
M  V30 4783 H 439.494 0.185672 -1.60832 0
M  V30 4784 H 441.486 3.11643 -2.58187 0
M  V30 4785 H 440.056 2.67659 -1.61485 0
M  V30 4786 H 439.276 1.33664 -3.70847 0
M  V30 4787 H 440.564 2.15767 -4.60784 0
M  V30 4788 H 439.962 4.84955 -2.91264 0
M  V30 4789 H 438.519 5.38005 -3.67959 0
M  V30 4790 N 441.952 1.55251 0.271103 0
M  V30 4791 C 443.2 1.75599 1.00047 0
M  V30 4792 C 443.521 0.561188 1.8675 0
M  V30 4793 O 442.791 -0.423846 1.9126 0
M  V30 4794 H 441.371 0.647562 0.372387 0
M  V30 4795 H 444.033 1.92656 0.294876 0
M  V30 4796 H 443.129 2.65766 1.6363 0
M  V30 4797 N 443.43 -0.535701 1.48216 0
M  V30 4798 C 444.846 -0.863701 1.3421 0
M  V30 4799 C 445.046 -1.98458 0.34879 0
M  V30 4800 O 444.102 -2.51432 -0.23204 0
M  V30 4801 C 445.415 -1.23662 2.74095 0
M  V30 4802 C 446.963 -1.34683 2.82541 0
M  V30 4803 C 447.438 -1.75322 4.23115 0
M  V30 4804 N 448.929 -1.82434 4.2576 0
M  V30 4805 C 449.664 -2.15252 5.31464 0
M  V30 4806 N 449.16 -2.46533 6.47452 0
M  V30 4807 N 450.953 -2.16209 5.18855 0
M  V30 4808 H 443.104 0.203965 2.11418 0
M  V30 4809 H 445.367 0.0286033 0.947568 0
M  V30 4810 H 445.073 -0.486674 3.48316 0
M  V30 4811 H 444.947 -2.18805 3.07253 0
M  V30 4812 H 447.334 -2.08756 2.08579 0
M  V30 4813 H 447.415 -0.376756 2.5301 0
M  V30 4814 H 447.059 -1.01812 4.97591 0
M  V30 4815 H 446.989 -2.7337 4.50085 0
M  V30 4816 H 449.48 -1.6056 3.42095 0
M  V30 4817 H 449.793 -2.70662 7.23852 0
M  V30 4818 H 448.138 -2.44065 6.50736 0
M  V30 4819 H 451.329 -1.91224 4.2726 0
M  V30 4820 H 451.502 -2.41453 6.01335 0
M  V30 4821 N 444.908 -1.36708 -0.784132 0
M  V30 4822 C 445.871 -1.31307 -1.87859 0
M  V30 4823 C 446.871 -0.219654 -1.59293 0
M  V30 4824 O 448.061 -0.47476 -1.67606 0
M  V30 4825 C 445.193 -1.03679 -3.24751 0
M  V30 4826 H 446.386 -2.28647 -1.94064 0
M  V30 4827 H 443.939 -1.21558 -0.98252 0
M  V30 4828 H 444.674 -0.0681936 -3.24228 0
M  V30 4829 H 444.459 -1.82811 -3.46876 0
M  V30 4830 H 445.949 -1.02518 -4.04821 0
M  V30 4831 N 446.386 1.0089 -1.21074 0
M  V30 4832 C 447.626 1.76142 -1.03699 0
M  V30 4833 C 447.99 1.87292 0.422587 0
M  V30 4834 O 449.191 2.59068 0.716752 0
M  V30 4835 C 447.462 3.13805 -1.7106 0
M  V30 4836 S 449.021 4.04996 -1.68889 0
M  V30 4837 H 445.839 0.606113 -0.371683 0
M  V30 4838 H 448.441 1.20744 -1.53756 0
M  V30 4839 H 447.145 3.0332 -2.76451 0
M  V30 4840 H 446.676 3.74276 -1.21166 0
M  V30 4841 H 448.691 4.90842 -0.727211 0
M  V30 4842 N 447.864 1.01787 1.20321 0
M  V30 4843 C 449.113 0.703249 1.89043 0
M  V30 4844 C 449.426 -0.770445 1.79787 0
M  V30 4845 O 450.632 -1.19767 2.43656 0
M  V30 4846 C 449.088 1.20749 3.3904 0
M  V30 4847 C 448.696 2.70817 3.56878 0
M  V30 4848 C 450.44 0.968352 4.13308 0
M  V30 4849 C 448.347 3.14716 5.00708 0
M  V30 4850 H 447.277 0.259354 0.707991 0
M  V30 4851 H 449.928 1.23072 1.36108 0
M  V30 4852 H 448.31 0.607989 3.91305 0
M  V30 4853 H 449.484 3.36327 3.14993 0
M  V30 4854 H 447.799 2.92888 2.95983 0
M  V30 4855 H 450.396 1.27173 5.19356 0
M  V30 4856 H 450.739 -0.095149 4.16191 0
M  V30 4857 H 451.272 1.53129 3.67146 0
M  V30 4858 H 448.011 4.20347 5.02979 0
M  V30 4859 H 447.531 2.53927 5.43398 0
M  V30 4860 H 449.21 3.07426 5.69296 0
M  V30 4861 N 449.342 -1.36122 0.79427 0
M  V30 4862 C 450.758 -1.5232 0.476525 0
M  V30 4863 C 450.958 -1.74685 -1.00436 0
M  V30 4864 O 450.014 -1.78115 -1.78973 0
M  V30 4865 C 451.327 -2.70607 1.31119 0
M  V30 4866 C 452.875 -2.8448 1.30537 0
M  V30 4867 C 453.35 -4.05778 2.12387 0
M  V30 4868 N 454.841 -4.12933 2.09859 0
M  V30 4869 C 455.576 -5.05876 2.69957 0
M  V30 4870 N 455.072 -6.04232 3.38934 0
M  V30 4871 N 456.865 -4.98528 2.59665 0
M  V30 4872 H 449.016 -1.1986 1.75349 0
M  V30 4873 H 451.279 -0.585418 0.745647 0
M  V30 4874 H 450.985 -2.60619 2.36158 0
M  V30 4875 H 450.859 -3.64888 0.955843 0
M  V30 4876 H 453.246 -2.93927 0.262876 0
M  V30 4877 H 453.327 -1.91093 1.70051 0
M  V30 4878 H 452.971 -3.97092 3.1667 0
M  V30 4879 H 452.901 -4.98323 1.70242 0
M  V30 4880 H 455.392 -3.42515 1.59662 0
M  V30 4881 H 455.705 -6.71724 3.82109 0
M  V30 4882 H 454.05 -6.04443 3.43036 0
M  V30 4883 H 457.241 -4.20641 2.05375 0
M  V30 4884 H 457.414 -5.70773 3.06793 0
M  V30 4885 N 450.82 -0.546701 -1.47814 0
M  V30 4886 C 452.231 -0.110564 -1.86372 0
M  V30 4887 C 452.582 1.31678 -1.45449 0
M  V30 4888 O 451.707 1.98889 -0.852758 0
M  V30 4889 C 452.302 -0.193873 -3.38245 0
M  V30 4890 C 450.861 0.187164 -3.75934 0
M  V30 4891 C 450.008 -0.546166 -2.71868 0
M  V30 4892 H 452.959 -0.757022 -1.39481 0
M  V30 4893 H 452.98 0.590218 -3.75895 0
M  V30 4894 H 452.492 -1.23282 -3.67999 0
M  V30 4895 H 450.593 1.22762 -3.51796 0
M  V30 4896 H 450.706 -0.164083 -4.78819 0
M  V30 4897 H 449.07 0.00953904 -2.54698 0
M  V30 4898 H 449.853 -1.58606 -3.04465 0
M  V30 4899 N 452.299 1.55045 -0.282633 0
M  V30 4900 C 453.209 2.26491 0.61147 0
M  V30 4901 C 454.225 1.29348 1.16384 0
M  V30 4902 O 455.401 1.62298 1.19253 0
M  V30 4903 C 452.466 2.97779 1.77563 0
M  V30 4904 C 451.527 4.10418 1.25919 0
M  V30 4905 C 450.76 4.78297 2.36786 0
M  V30 4906 O 450.983 4.45426 3.56303 0
M  V30 4907 O 449.917 5.66089 2.04517 0
M  V30 4908 H 453.743 3.03683 0.0324615 0
M  V30 4909 H 451.328 1.49317 -0.0497576 0
M  V30 4910 H 453.21 3.42554 2.45427 0
M  V30 4911 H 451.885 2.23498 2.34159 0
M  V30 4912 H 450.792 3.70082 0.546797 0
M  V30 4913 H 452.125 4.86622 0.738887 0
M  V30 4914 N 453.777 0.010035 1.57597 0
M  V30 4915 C 455.026 -0.671945 1.90178 0
M  V30 4916 C 455.339 -1.74376 0.886131 0
M  V30 4917 O 456.545 -2.48107 1.10252 0
M  V30 4918 C 455.001 -1.24636 3.3763 0
M  V30 4919 C 454.609 -0.208838 4.47513 0
M  V30 4920 C 456.353 -1.90595 3.79307 0
M  V30 4921 C 454.26 -0.793814 5.86048 0
M  V30 4922 H 453.19 -0.25474 0.709665 0
M  V30 4923 H 455.841 0.0722206 1.83358 0
M  V30 4924 H 454.223 -2.04152 3.3932 0
M  V30 4925 H 455.397 0.562463 4.57354 0
M  V30 4926 H 453.712 0.350889 4.14919 0
M  V30 4927 H 456.309 -2.35284 4.80151 0
M  V30 4928 H 456.652 -2.74074 3.13352 0
M  V30 4929 H 457.185 -1.17798 3.79958 0
M  V30 4930 H 453.924 0.00240855 6.555 0
M  V30 4931 H 453.444 -1.53404 5.79851 0
M  V30 4932 H 455.123 -1.2894 6.34022 0
M  V30 4933 N 455.255 -1.55392 -0.262866 0
M  V30 4934 C 456.48 -1.80847 -1.01533 0
M  V30 4935 C 456.905 -0.584946 -1.78774 0
M  V30 4936 O 456.263 0.465701 -1.75217 0
M  V30 4937 C 456.311 -3.03866 -1.94159 0
M  V30 4938 O 455.415 -2.79662 -3.03089 0
M  V30 4939 H 454.756 -0.597441 -0.289759 0
M  V30 4940 H 457.286 -2.02553 -0.288698 0
M  V30 4941 H 457.296 -3.32872 -2.35924 0
M  V30 4942 H 455.971 -3.92564 -1.37354 0
M  V30 4943 H 454.548 -2.61781 -2.65566 0
M  V30 4944 N 456.733 0.527833 -1.48498 0
M  V30 4945 C 458.149 0.856571 -1.34666 0
M  V30 4946 C 458.349 1.98271 -0.35931 0
M  V30 4947 O 457.405 2.51551 0.218703 0
M  V30 4948 C 458.718 1.22207 -2.74747 0
M  V30 4949 C 460.266 1.33183 -2.83251 0
M  V30 4950 C 460.741 1.73075 -4.24039 0
M  V30 4951 N 462.232 1.80174 -4.26722 0
M  V30 4952 C 462.967 2.1243 -5.32598 0
M  V30 4953 N 462.463 2.43096 -6.4875 0
M  V30 4954 N 464.256 2.13454 -5.19994 0
M  V30 4955 H 456.407 -0.215174 -2.11307 0
M  V30 4956 H 458.67 -0.0336281 -0.947403 0
M  V30 4957 H 458.376 0.468195 -3.4857 0
M  V30 4958 H 458.25 2.17173 -3.08409 0
M  V30 4959 H 460.637 2.07647 -2.09683 0
M  V30 4960 H 460.718 0.363333 -2.53206 0
M  V30 4961 H 460.362 0.991712 -4.98124 0
M  V30 4962 H 460.292 2.70979 -4.51529 0
M  V30 4963 H 462.783 1.58744 -3.42942 0
M  V30 4964 H 463.096 2.6682 -7.25277 0
M  V30 4965 H 461.441 2.40611 -6.52021 0
M  V30 4966 H 464.632 1.88956 -4.28268 0
M  V30 4967 H 464.805 2.38261 -6.02608 0
M  V30 4968 N 458.211 1.37122 0.776871 0
M  V30 4969 C 459.439 1.3523 1.5659 0
M  V30 4970 C 459.854 -0.0635518 1.88693 0
M  V30 4971 O 459.211 -1.02394 1.51069 0
M  V30 4972 C 459.262 2.18583 2.8793 0
M  V30 4973 O 458.983 3.5465 2.57206 0
M  V30 4974 C 460.484 2.24612 3.82183 0
M  V30 4975 H 457.704 0.4634 0.485285 0
M  V30 4976 H 460.248 1.80392 0.963266 0
M  V30 4977 H 458.403 1.76943 3.4463 0
M  V30 4978 H 458.817 3.98286 3.41275 0
M  V30 4979 H 460.291 2.87267 4.71361 0
M  V30 4980 H 460.768 1.25309 4.20944 0
M  V30 4981 H 461.374 2.66543 3.31414 0
M  V30 4982 N 459.689 -1.00246 1.21608 0
M  V30 4983 C 460.622 -2.08794 0.920892 0
M  V30 4984 C 461.6 -1.62059 -0.132552 0
M  V30 4985 O 462.784 -1.885 -0.0030366 0
M  V30 4986 C 459.911 -3.36525 0.383226 0
M  V30 4987 C 458.957 -4.02172 1.41987 0
M  V30 4988 S 459.79 -4.44256 2.98994 0
M  V30 4989 C 460.946 -5.7517 2.4684 0
M  V30 4990 H 461.179 -2.33511 1.8401 0
M  V30 4991 H 458.712 -1.13562 1.04609 0
M  V30 4992 H 460.67 -4.10423 0.0795871 0
M  V30 4993 H 459.331 -3.09854 -0.514711 0
M  V30 4994 H 458.524 -4.94114 0.993335 0
M  V30 4995 H 458.126 -3.34559 1.67171 0
M  V30 4996 H 460.418 -6.51042 1.87484 0
M  V30 4997 H 461.361 -6.22638 3.37235 0
M  V30 4998 H 461.769 -5.32112 1.88461 0
M  V30 4999 N 461.167 -1.02423 -1.1978 0
M  V30 5000 C 462.395 -0.737456 -1.93311 0
M  V30 5001 C 462.81 0.703023 -1.75223 0
M  V30 5002 O 462.167 1.47761 -1.07112 0
M  V30 5003 C 462.218 -1.0733 -3.45199 0
M  V30 5004 O 461.939 -2.4572 -3.62702 0
M  V30 5005 C 463.44 -0.80866 -4.35862 0
M  V30 5006 H 460.66 -0.2702 -0.614193 0
M  V30 5007 H 463.204 -1.36747 -1.52054 0
M  V30 5008 H 461.359 -0.488545 -3.84307 0
M  V30 5009 H 461.773 -2.58081 -4.56612 0
M  V30 5010 H 463.247 -1.09365 -5.41057 0
M  V30 5011 H 463.724 0.257025 -4.38447 0
M  V30 5012 H 464.33 -1.37592 -4.02428 0
M  V30 5013 N 462.645 1.35699 -0.801477 0
M  V30 5014 C 463.892 1.98913 -0.379459 0
M  V30 5015 C 464.22 1.63592 1.05204 0
M  V30 5016 O 463.475 0.888563 1.74365 0
M  V30 5017 C 463.774 3.53828 -0.504041 0
M  V30 5018 C 463.44 4.09002 -1.8981 0
M  V30 5019 C 462.102 4.23783 -2.27951 0
M  V30 5020 C 464.454 4.38939 -2.81038 0
M  V30 5021 C 461.782 4.65816 -3.56696 0
M  V30 5022 C 464.134 4.82409 -4.09224 0
M  V30 5023 C 462.798 4.95395 -4.4737 0
M  V30 5024 H 462.068 0.727874 -0.138854 0
M  V30 5025 H 464.715 1.61994 -1.02128 0
M  V30 5026 H 463.02 3.91175 0.221242 0
M  V30 5027 H 464.717 4.00687 -0.158361 0
M  V30 5028 H 461.307 3.97946 -1.59176 0
M  V30 5029 H 465.491 4.27077 -2.52821 0
M  V30 5030 H 460.747 4.74059 -3.86106 0
M  V30 5031 H 464.921 5.04535 -4.80018 0
M  V30 5032 H 462.548 5.27724 -5.47185 0
M  V30 5033 N 464.123 0.554532 1.47522 0
M  V30 5034 C 465.371 0.0294208 2.02079 0
M  V30 5035 C 465.692 -1.32411 1.43151 0
M  V30 5036 O 464.962 -1.863 0.605728 0
M  V30 5037 H 463.542 0.00788672 0.746958 0
M  V30 5038 H 466.204 0.723934 1.80956 0
M  V30 5039 H 465.3 -0.0606745 3.12041 0
M  V30 5040 N 465.601 -1.54893 0.290851 0
M  V30 5041 C 467.017 -1.59476 -0.0628432 0
M  V30 5042 C 467.217 -1.30795 -1.5328 0
M  V30 5043 O 466.273 -1.07644 -2.28406 0
M  V30 5044 C 467.586 -2.98928 0.325962 0
M  V30 5045 C 469.134 -3.11799 0.273882 0
M  V30 5046 C 469.609 -4.53544 0.637359 0
M  V30 5047 N 471.1 -4.59433 0.589507 0
M  V30 5048 C 471.835 -5.67164 0.84335 0
M  V30 5049 N 471.331 -6.82975 1.16263 0
M  V30 5050 N 473.124 -5.56786 0.771091 0
M  V30 5051 H 465.275 -1.71798 1.24896 0
M  V30 5052 H 467.538 -0.801879 0.505663 0
M  V30 5053 H 467.244 -3.24805 1.34887 0
M  V30 5054 H 467.118 -3.75793 -0.325441 0
M  V30 5055 H 469.505 -2.85677 -0.739765 0
M  V30 5056 H 469.586 -2.37112 0.959766 0
M  V30 5057 H 469.23 -4.80394 1.64877 0
M  V30 5058 H 469.16 -5.26553 -0.0704866 0
M  V30 5059 H 471.651 -3.76245 0.353252 0
M  V30 5060 H 471.964 -7.61048 1.34257 0
M  V30 5061 H 470.309 -6.84552 1.20057 0
M  V30 5062 H 473.5 -4.65187 0.521383 0
M  V30 5063 H 473.673 -6.40664 0.972295 0
M  V30 5064 N 467.08 -0.0183926 -1.57589 0
M  V30 5065 C 468.027 0.967022 -2.09565 0
M  V30 5066 C 468.997 1.32983 -0.995225 0
M  V30 5067 O 470.182 1.42501 -1.26878 0
M  V30 5068 C 467.322 2.24772 -2.61861 0
M  V30 5069 C 466.435 1.94232 -3.85873 0
M  V30 5070 C 465.57 3.16518 -4.26603 0
M  V30 5071 C 464.609 2.81748 -5.43401 0
M  V30 5072 N 463.746 3.96626 -5.79338 0
M  V30 5073 H 468.586 0.516874 -2.93483 0
M  V30 5074 H 466.123 0.243544 -1.4507 0
M  V30 5075 H 468.081 2.99667 -2.90268 0
M  V30 5076 H 466.711 2.67423 -1.8079 0
M  V30 5077 H 465.763 1.09625 -3.64262 0
M  V30 5078 H 467.075 1.64616 -4.70853 0
M  V30 5079 H 466.229 3.99743 -4.56389 0
M  V30 5080 H 464.968 3.49286 -3.40368 0
M  V30 5081 H 463.973 1.96933 -5.1332 0
M  V30 5082 H 465.198 2.50207 -6.31327 0
M  V30 5083 H 463.144 4.29257 -4.96059 0
M  V30 5084 H 463.061 3.70598 -6.58933 0
M  V30 5085 H 464.329 4.80586 -6.13724 0
M  V30 5086 N 468.558 1.5553 0.254621 0
M  V30 5087 C 469.806 1.7665 0.981793 0
M  V30 5088 C 470.127 0.580963 1.86145 0
M  V30 5089 O 469.397 -0.403537 1.91699 0
M  V30 5090 H 467.977 0.651475 0.365498 0
M  V30 5091 H 470.639 1.92958 0.274426 0
M  V30 5092 H 469.735 2.67486 1.60802 0
M  V30 5093 N 470.036 -0.519951 1.48776 0
M  V30 5094 C 471.282 -1.27711 1.57536 0
M  V30 5095 C 471.615 -1.92547 0.252866 0
M  V30 5096 O 470.89 -1.7979 -0.742021 0
M  V30 5097 C 471.173 -2.35875 2.72094 0
M  V30 5098 C 471.026 -1.75664 4.1408 0
M  V30 5099 C 472.345 -3.37575 2.82367 0
M  V30 5100 H 469.464 -0.462971 0.573434 0
M  V30 5101 H 472.106 -0.578194 1.80989 0
M  V30 5102 H 470.256 -2.95488 2.52228 0
M  V30 5103 H 471.928 -1.20025 4.45412 0
M  V30 5104 H 470.171 -1.06154 4.20611 0
M  V30 5105 H 470.842 -2.54029 4.90075 0
M  V30 5106 H 473.318 -2.87929 3.00393 0
M  V30 5107 H 472.194 -4.1064 3.64233 0
M  V30 5108 H 472.455 -3.98743 1.90936 0
M  V30 5109 N 471.514 -1.37532 -0.769588 0
M  V30 5110 C 472.739 -1.36231 -1.56384 0
M  V30 5111 C 473.164 0.0495849 -1.88035 0
M  V30 5112 O 472.522 1.02723 -1.49391 0
M  V30 5113 C 472.57 -2.20986 -2.84952 0
M  V30 5114 O 471.674 -1.61597 -3.79421 0
M  V30 5115 H 471.015 -0.465387 -0.473615 0
M  V30 5116 H 473.545 -1.81085 -0.952342 0
M  V30 5117 H 473.555 -2.34277 -3.34034 0
M  V30 5118 H 472.23 -3.23612 -2.61243 0
M  V30 5119 H 470.807 -1.57359 -3.38072 0
M  V30 5120 N 472.992 0.995999 -1.22138 0
M  V30 5121 C 473.942 2.06988 -0.956042 0
M  V30 5122 C 474.926 1.60636 0.0921576 0
M  V30 5123 O 476.118 1.76607 -0.117958 0
M  V30 5124 C 473.247 3.39148 -0.532335 0
M  V30 5125 C 472.333 3.92142 -1.61509 0
M  V30 5126 N 472.724 4.18397 -2.84214 0
M  V30 5127 C 471.022 4.20514 -1.48606 0
M  V30 5128 C 471.723 4.61425 -3.54206 0
M  V30 5129 N 470.699 4.64934 -2.81669 0
M  V30 5130 H 474.501 2.25223 -1.88816 0
M  V30 5131 H 472.015 1.17748 -1.11845 0
M  V30 5132 H 474.012 4.15642 -0.323574 0
M  V30 5133 H 472.672 3.22314 0.392921 0
M  V30 5134 H 473.683 4.06682 -3.20671 0
M  V30 5135 H 470.36 4.12769 -0.626762 0
M  V30 5136 H 471.75 4.90387 -4.59315 0
M  V30 5137 N 474.47 1.03057 1.19235 0
M  V30 5138 C 475.718 0.726581 1.88587 0
M  V30 5139 C 476.039 -0.747227 1.80115 0
M  V30 5140 O 475.309 -1.53849 1.21274 0
M  V30 5141 H 473.889 0.265768 0.698124 0
M  V30 5142 H 476.551 1.30516 1.44746 0
M  V30 5143 H 475.647 1.0224 2.94879 0
M  V30 5144 N 475.948 -1.35272 0.808662 0
M  V30 5145 C 476.88 -2.28507 0.178149 0
M  V30 5146 C 477.893 -1.50377 -0.623754 0
M  V30 5147 O 479.082 -1.72583 -0.455774 0
M  V30 5148 C 476.182 -3.30038 -0.769959 0
M  V30 5149 C 475.355 -4.37398 -0.0139749 0
M  V30 5150 C 474.414 -5.18775 -0.880875 0
M  V30 5151 O 473.44 -5.68236 -0.331059 0
M  V30 5152 N 474.642 -5.37087 -2.20267 0
M  V30 5153 H 477.407 -2.83255 0.979106 0
M  V30 5154 H 474.968 -1.47643 0.664308 0
M  V30 5155 H 476.96 -3.81371 -1.35418 0
M  V30 5156 H 475.53 -2.75789 -1.47171 0
M  V30 5157 H 474.75 -3.86971 0.751468 0
M  V30 5158 H 476.038 -5.06268 0.506965 0
M  V30 5159 H 475.436 -4.9855 -2.67328 0
M  V30 5160 H 473.993 -5.91593 -2.73608 0
M  V30 5161 N 477.426 -0.562348 -1.47226 0
M  V30 5162 C 478.673 -0.0402165 -2.0246 0
M  V30 5163 C 479.001 1.31169 -1.43614 0
M  V30 5164 O 478.256 1.86805 -0.5833 0
M  V30 5165 C 478.555 0.0969817 -3.57268 0
M  V30 5166 C 478.221 -1.1847 -4.35058 0
M  V30 5167 C 476.883 -1.53588 -4.56031 0
M  V30 5168 C 479.235 -2.03378 -4.79882 0
M  V30 5169 C 476.563 -2.73452 -5.19077 0
M  V30 5170 C 478.915 -3.2245 -5.44251 0
M  V30 5171 C 477.579 -3.57876 -5.63455 0
M  V30 5172 H 476.849 -0.0147163 -0.740854 0
M  V30 5173 H 479.496 -0.734895 -1.76838 0
M  V30 5174 H 477.801 0.87466 -3.81912 0
M  V30 5175 H 479.498 0.516408 -3.97661 0
M  V30 5176 H 476.088 -0.90126 -4.19017 0
M  V30 5177 H 480.272 -1.77553 -4.63453 0
M  V30 5178 H 475.528 -3.01062 -5.32139 0
M  V30 5179 H 479.702 -3.88526 -5.77945 0
M  V30 5180 H 477.329 -4.50849 -6.12078 0
M  V30 5181 N 478.904 1.54736 -0.299062 0
M  V30 5182 C 480.151 2.00101 0.310784 0
M  V30 5183 C 480.479 1.18746 1.54045 0
M  V30 5184 O 479.734 0.251198 1.94081 0
M  V30 5185 C 480.033 3.50199 0.713835 0
M  V30 5186 C 479.699 4.48997 -0.413873 0
M  V30 5187 C 478.361 4.7573 -0.723462 0
M  V30 5188 C 480.713 5.07839 -1.17257 0
M  V30 5189 C 478.041 5.5857 -1.79491 0
M  V30 5190 C 480.393 5.91844 -2.23392 0
M  V30 5191 C 479.057 6.16889 -2.54959 0
M  V30 5192 H 478.327 0.732221 0.113724 0
M  V30 5193 H 480.974 1.86888 -0.417756 0
M  V30 5194 H 479.279 3.61012 1.52243 0
M  V30 5195 H 480.976 3.82723 1.19684 0
M  V30 5196 H 477.566 4.28292 -0.162476 0
M  V30 5197 H 481.75 4.87188 -0.946651 0
M  V30 5198 H 477.006 5.76213 -2.04423 0
M  V30 5199 H 481.18 6.36465 -2.8264 0
M  V30 5200 H 478.807 6.80869 -3.38114 0
M  V30 5201 N 480.382 0.0267497 1.57577 0
M  V30 5202 C 481.659 -0.690926 1.82991 0
M  V30 5203 C 482.039 -1.90471 0.910164 0
M  V30 5204 O 481.387 -2.28474 -0.0347985 0
M  V30 5205 C 481.597 -1.07139 3.32148 0
M  V30 5206 C 482.945 -1.46402 3.98562 0
M  V30 5207 O 483.969 -1.16443 3.36629 0
M  V30 5208 O 482.828 -2.02214 5.07712 0
M  V30 5209 H 479.922 -0.338747 0.75444 0
M  V30 5210 H 482.468 0.0542506 1.69613 0
M  V30 5211 H 481.24 -0.207394 3.9075 0
M  V30 5212 H 480.863 -1.87481 3.50623 0
M  V30 5213 N 481.861 -1.55662 -0.24637 0
M  V30 5214 C 482.793 -1.86811 -1.32794 0
M  V30 5215 C 483.806 -0.754413 -1.44265 0
M  V30 5216 O 484.995 -1.03253 -1.45606 0
M  V30 5217 C 482.095 -2.0397 -2.70646 0
M  V30 5218 C 481.268 -3.34832 -2.81436 0
M  V30 5219 C 480.327 -3.41727 -4.00136 0
M  V30 5220 O 479.353 -4.14934 -3.89639 0
M  V30 5221 N 480.555 -2.71058 -5.1333 0
M  V30 5222 H 483.32 -2.80174 -1.06409 0
M  V30 5223 H 480.881 -1.55906 -0.43647 0
M  V30 5224 H 482.873 -2.05924 -3.48393 0
M  V30 5225 H 481.443 -1.1735 -2.89738 0
M  V30 5226 H 480.663 -3.4519 -1.90361 0
M  V30 5227 H 481.951 -4.21085 -2.85595 0
M  V30 5228 H 481.349 -2.11314 -5.2475 0
M  V30 5229 H 479.906 -2.78704 -5.89209 0
M  V30 5230 N 483.339 0.512053 -1.4905 0
M  V30 5231 C 484.289 1.61142 -1.61298 0
M  V30 5232 C 485.273 1.53908 -0.46916 0
M  V30 5233 O 486.465 1.61625 -0.721547 0
M  V30 5234 C 483.594 2.998 -1.67256 0
M  V30 5235 C 482.68 3.12072 -2.87179 0
M  V30 5236 N 483.071 2.94263 -4.11391 0
M  V30 5237 C 481.369 3.43156 -2.84886 0
M  V30 5238 C 482.07 3.10426 -4.91946 0
M  V30 5239 N 481.046 3.38808 -4.251 0
M  V30 5240 H 484.848 1.46011 -2.55065 0
M  V30 5241 H 482.362 0.717934 -1.45669 0
M  V30 5242 H 484.359 3.78794 -1.74128 0
M  V30 5243 H 483.019 3.1601 -0.746195 0
M  V30 5244 H 484.03 2.70661 -4.41546 0
M  V30 5245 H 480.707 3.65611 -2.01581 0
M  V30 5246 H 482.097 3.01243 -6.00585 0
M  V30 5247 N 484.817 1.37938 0.762283 0
M  V30 5248 C 485.747 1.37176 1.88958 0
M  V30 5249 C 486.728 0.238945 1.68413 0
M  V30 5250 O 487.913 0.440726 1.89133 0
M  V30 5251 C 485.043 1.18742 3.2637 0
M  V30 5252 C 483.997 2.29136 3.61498 0
M  V30 5253 C 483.323 1.95816 4.97554 0
M  V30 5254 C 484.623 3.71363 3.6727 0
M  V30 5255 H 486.317 2.31509 1.89853 0
M  V30 5256 H 483.863 1.11438 0.912005 0
M  V30 5257 H 485.816 1.16837 4.04879 0
M  V30 5258 H 484.54 0.208683 3.25933 0
M  V30 5259 H 483.199 2.30213 2.85303 0
M  V30 5260 H 482.847 0.964475 4.93667 0
M  V30 5261 H 482.547 2.69745 5.22026 0
M  V30 5262 H 484.071 1.95513 5.78452 0
M  V30 5263 H 485.485 3.72364 4.35911 0
M  V30 5264 H 483.882 4.44425 4.03245 0
M  V30 5265 H 484.952 4.04305 2.67704 0
M  V30 5266 N 486.295 -0.989507 1.22664 0
M  V30 5267 C 487.242 -2.08024 0.999733 0
M  V30 5268 C 488.212 -1.65909 -0.0797047 0
M  V30 5269 O 489.397 -1.90669 0.0705715 0
M  V30 5270 C 486.537 -3.40067 0.587234 0
M  V30 5271 C 485.65 -3.95505 1.73781 0
M  V30 5272 C 484.785 -5.15722 1.27297 0
M  V30 5273 C 483.824 -5.63305 2.39488 0
M  V30 5274 N 482.961 -6.74758 1.94026 0
M  V30 5275 H 487.801 -2.26768 1.9334 0
M  V30 5276 H 485.338 -1.11171 0.963297 0
M  V30 5277 H 487.296 -4.15899 0.329227 0
M  V30 5278 H 485.926 -3.21314 -0.309426 0
M  V30 5279 H 484.978 -3.16513 2.11006 0
M  V30 5280 H 486.29 -4.26797 2.58158 0
M  V30 5281 H 485.444 -5.98854 0.972546 0
M  V30 5282 H 484.183 -4.86061 0.399445 0
M  V30 5283 H 483.188 -4.78759 2.70315 0
M  V30 5284 H 484.413 -5.94988 3.27362 0
M  V30 5285 H 482.359 -6.46874 1.09041 0
M  V30 5286 H 482.276 -7.05386 2.71968 0
M  V30 5287 H 483.544 -7.61387 1.67062 0
M  V30 5288 N 487.773 -1.03688 -1.18687 0
M  V30 5289 C 489.02 -0.73803 -1.88572 0
M  V30 5290 C 489.348 0.733973 -1.8012 0
M  V30 5291 O 488.603 1.55098 -1.19344 0
M  V30 5292 C 488.902 -1.14477 -3.3857 0
M  V30 5293 C 488.568 -2.61641 -3.67226 0
M  V30 5294 C 487.23 -3.01846 -3.74757 0
M  V30 5295 C 489.582 -3.56812 -3.79914 0
M  V30 5296 C 486.91 -4.36118 -3.92451 0
M  V30 5297 C 489.262 -4.90799 -3.99123 0
M  V30 5298 C 487.926 -5.3068 -4.04888 0
M  V30 5299 H 487.196 -0.270064 -0.690034 0
M  V30 5300 H 489.843 -1.3012 -1.40503 0
M  V30 5301 H 488.148 -0.500337 -3.88592 0
M  V30 5302 H 489.845 -0.89095 -3.90977 0
M  V30 5303 H 486.435 -2.29498 -3.61979 0
M  V30 5304 H 490.619 -3.26899 -3.73431 0
M  V30 5305 H 485.875 -4.66542 -3.95157 0
M  V30 5306 H 490.049 -5.64451 -4.07882 0
M  V30 5307 H 487.676 -6.34733 -4.18351 0
M  V30 5308 N 489.251 1.34841 -0.815825 0
M  V30 5309 C 490.5 1.97755 -0.396976 0
M  V30 5310 C 490.813 1.65422 1.04379 0
M  V30 5311 O 492.019 2.21771 1.5662 0
M  V30 5312 C 490.475 3.53818 -0.658869 0
M  V30 5313 C 490.083 3.95051 -2.11278 0
M  V30 5314 C 491.827 4.23397 -0.305834 0
M  V30 5315 C 489.734 5.43997 -2.31994 0
M  V30 5316 H 488.664 0.739985 -0.1447 0
M  V30 5317 H 491.315 1.53781 -1.00118 0
M  V30 5318 H 489.697 3.95997 0.0154112 0
M  V30 5319 H 490.871 3.63998 -2.82564 0
M  V30 5320 H 489.186 3.38388 -2.42657 0
M  V30 5321 H 491.783 5.32899 -0.43854 0
M  V30 5322 H 492.126 4.09508 0.748952 0
M  V30 5323 H 492.659 3.8667 -0.934403 0
M  V30 5324 H 489.398 5.62865 -3.35952 0
M  V30 5325 H 488.918 5.76589 -1.65244 0
M  V30 5326 H 490.597 6.10584 -2.14001 0
M  V30 5327 N 490.729 0.570148 1.46925 0
M  V30 5328 C 491.676 -0.170257 2.30171 0
M  V30 5329 C 492.646 -0.896099 1.39855 0
M  V30 5330 O 493.831 -0.889248 1.68811 0
M  V30 5331 C 490.971 -1.18605 3.24079 0
M  V30 5332 C 490.084 -0.464947 4.29491 0
M  V30 5333 C 489.219 -1.46716 5.10537 0
M  V30 5334 C 488.258 -0.731758 6.0771 0
M  V30 5335 N 487.395 -1.68142 6.81669 0
M  V30 5336 H 492.235 0.545713 2.92961 0
M  V30 5337 H 489.772 0.280938 1.44392 0
M  V30 5338 H 491.73 -1.78771 3.76957 0
M  V30 5339 H 490.36 -1.86989 2.63125 0
M  V30 5340 H 489.412 0.251506 3.79568 0
M  V30 5341 H 490.724 0.110548 4.98677 0
M  V30 5342 H 489.878 -2.14199 5.6763 0
M  V30 5343 H 488.617 -2.07658 4.41282 0
M  V30 5344 H 487.622 -0.0430787 5.49783 0
M  V30 5345 H 488.847 -0.127904 6.7898 0
M  V30 5346 H 486.793 -2.27918 6.15134 0
M  V30 5347 H 486.71 -1.15841 7.47072 0
M  V30 5348 H 487.978 -2.347 7.43328 0
M  V30 5349 N 492.207 -1.54576 0.307264 0
M  V30 5350 C 493.137 -2.26708 -0.55907 0
M  V30 5351 C 494.118 -1.26893 -1.1328 0
M  V30 5352 O 495.303 -1.55677 -1.16097 0
M  V30 5353 C 492.433 -3.01259 -1.72801 0
M  V30 5354 C 491.387 -4.08275 -1.28435 0
M  V30 5355 C 490.713 -4.70575 -2.53895 0
M  V30 5356 C 492.013 -5.2068 -0.411038 0
M  V30 5357 H 493.707 -2.9937 0.042576 0
M  V30 5358 H 491.253 -1.43983 0.0219173 0
M  V30 5359 H 493.206 -3.50444 -2.34023 0
M  V30 5360 H 491.93 -2.26187 -2.356 0
M  V30 5361 H 490.589 -3.59949 -0.695161 0
M  V30 5362 H 490.237 -3.92136 -3.15021 0
M  V30 5363 H 489.937 -5.42854 -2.24908 0
M  V30 5364 H 491.461 -5.22527 -3.15908 0
M  V30 5365 H 492.875 -5.65721 -0.929097 0
M  V30 5366 H 491.272 -5.99716 -0.214664 0
M  V30 5367 H 492.342 -4.81629 0.562287 0
M  V30 5368 N 493.685 -0.035106 -1.57561 0
M  V30 5369 C 494.633 0.962707 -2.11742 0
M  V30 5370 C 495.627 1.33296 -1.0454 0
M  V30 5371 O 496.833 1.31449 -1.22968 0
M  V30 5372 H 493.208 0.32826 -0.676572 0
M  V30 5373 H 495.179 0.48048 -2.94506 0
M  V30 5374 C 493.928 2.23388 -2.66445 0
M  V30 5375 H 493.251 1.95774 -3.48587 0
M  V30 5376 H 494.691 2.91402 -3.07995 0
M  V30 5377 C 493.15 2.96769 -1.59467 0
M  V30 5378 O 493.68 3.89105 -0.998 0
M  V30 5379 N 491.886 2.59212 -1.31369 0
M  V30 5380 H 491.433 1.84202 -1.80076 0
M  V30 5381 H 491.391 3.08618 -0.600173 0
M  V30 5382 N 495.163 1.55791 0.238111 0
M  V30 5383 C 496.095 1.87513 1.31802 0
M  V30 5384 C 497.108 0.762053 1.43863 0
M  V30 5385 O 498.297 1.04024 1.45056 0
M  V30 5386 C 495.397 2.05402 2.69561 0
M  V30 5387 C 494.57 3.3632 2.79656 0
M  V30 5388 C 493.629 3.43844 3.98319 0
M  V30 5389 O 492.655 4.16994 3.87433 0
M  V30 5390 N 493.857 2.73777 5.11885 0
M  V30 5391 H 496.622 2.80734 1.04922 0
M  V30 5392 H 494.183 1.56135 0.428196 0
M  V30 5393 H 496.175 2.07769 3.47296 0
M  V30 5394 H 494.745 1.18884 2.89111 0
M  V30 5395 H 493.965 3.46195 1.88528 0
M  V30 5396 H 495.253 4.22594 2.83358 0
M  V30 5397 H 494.651 2.14094 5.23622 0
M  V30 5398 H 493.208 2.81825 5.87723 0
M  V30 5399 N 496.642 -0.504142 1.49319 0
M  V30 5400 C 497.574 -1.62265 1.61872 0
M  V30 5401 C 498.587 -1.54881 0.501573 0
M  V30 5402 O 499.776 -1.6087 0.773497 0
M  V30 5403 C 496.876 -3.01042 1.55651 0
M  V30 5404 C 496.049 -3.33642 2.82845 0
M  V30 5405 C 495.108 -4.51816 2.69719 0
M  V30 5406 O 494.134 -4.53755 3.4365 0
M  V30 5407 N 495.336 -5.51543 1.81055 0
M  V30 5408 H 498.101 -1.51924 2.58339 0
M  V30 5409 H 495.662 -0.691954 1.46368 0
M  V30 5410 H 497.654 -3.78013 1.44528 0
M  V30 5411 H 496.224 -3.05323 0.670546 0
M  V30 5412 H 495.444 -2.45598 3.08343 0
M  V30 5413 H 496.732 -3.5222 3.67177 0
M  V30 5414 H 496.13 -5.52774 1.20241 0
M  V30 5415 H 494.687 -6.27629 1.75856 0
M  V30 5416 N 498.12 -1.38341 -0.754957 0
M  V30 5417 C 499.367 -1.34473 -1.51404 0
M  V30 5418 C 499.695 0.0656458 -1.94389 0
M  V30 5419 O 498.95 1.04244 -1.65625 0
M  V30 5420 C 499.249 -2.2452 -2.78075 0
M  V30 5421 C 498.915 -3.72512 -2.54059 0
M  V30 5422 C 497.577 -4.1284 -2.47218 0
M  V30 5423 C 499.929 -4.66197 -2.33044 0
M  V30 5424 C 497.257 -5.44945 -2.17376 0
M  V30 5425 C 499.609 -5.98558 -2.04723 0
M  V30 5426 C 498.273 -6.37972 -1.96337 0
M  V30 5427 H 497.543 -0.492072 -0.554027 0
M  V30 5428 H 500.19 -1.70687 -0.868223 0
M  V30 5429 H 498.495 -1.81357 -3.473 0
M  V30 5430 H 500.192 -2.18832 -3.36026 0
M  V30 5431 H 496.782 -3.40538 -2.60253 0
M  V30 5432 H 500.966 -4.35888 -2.37309 0
M  V30 5433 H 496.222 -5.74426 -2.09391 0
M  V30 5434 H 500.396 -6.70693 -1.87465 0
M  V30 5435 H 498.023 -7.40258 -1.72978 0
M  V30 5436 N 499.598 0.982988 -1.23187 0
M  V30 5437 C 500.844 1.72648 -1.06398 0
M  V30 5438 C 501.177 1.90066 0.398561 0
M  V30 5439 O 500.452 1.45105 1.29518 0
M  V30 5440 C 500.735 3.12627 -1.78707 0
M  V30 5441 C 500.588 3.02795 -3.32618 0
M  V30 5442 C 501.907 4.11997 -1.54747 0
M  V30 5443 H 499.026 0.626649 -0.387918 0
M  V30 5444 H 501.668 1.14455 -1.51658 0
M  V30 5445 H 499.818 3.62308 -1.40234 0
M  V30 5446 H 501.49 2.60659 -3.80598 0
M  V30 5447 H 499.733 2.39362 -3.61785 0
M  V30 5448 H 500.404 4.01893 -3.78399 0
M  V30 5449 H 502.88 3.71114 -1.88186 0
M  V30 5450 H 501.756 5.08037 -2.07821 0
M  V30 5451 H 502.017 4.39462 -0.482249 0
M  V30 5452 N 501.076 1.04316 1.18135 0
M  V30 5453 C 502.026 0.606731 2.19779 0
M  V30 5454 C 503.01 -0.352144 1.56999 0
M  V30 5455 O 504.202 -0.170795 1.76174 0
M  V30 5456 C 501.331 -0.0262443 3.4329 0
M  V30 5457 C 500.417 0.955928 4.13186 0
M  V30 5458 N 500.808 2.12395 4.59045 0
M  V30 5459 C 499.106 0.782473 4.39082 0
M  V30 5460 C 499.807 2.74458 5.12882 0
M  V30 5461 N 498.783 2.02316 5.04548 0
M  V30 5462 H 502.585 1.49679 2.5293 0
M  V30 5463 H 500.099 0.912088 1.34368 0
M  V30 5464 H 502.096 -0.356617 4.15372 0
M  V30 5465 H 500.756 -0.911811 3.11635 0
M  V30 5466 H 501.767 2.50272 4.53414 0
M  V30 5467 H 498.444 -0.0527906 4.17467 0
M  V30 5468 H 499.834 3.73459 5.5855 0
M  V30 5469 N 502.554 -1.34406 0.822964 0
M  V30 5470 C 503.801 -1.98284 0.411057 0
M  V30 5471 C 504.129 -1.65245 -1.02588 0
M  V30 5472 O 503.384 -0.91619 -1.72929 0
M  V30 5473 C 503.683 -3.52981 0.560268 0
M  V30 5474 C 503.349 -4.05931 1.96293 0
M  V30 5475 C 502.011 -4.20103 2.34664 0
M  V30 5476 C 504.363 -4.34412 2.87985 0
M  V30 5477 C 501.691 -4.60082 3.64062 0
M  V30 5478 C 504.043 -4.75838 4.16847 0
M  V30 5479 C 502.707 -4.88215 4.55195 0
M  V30 5480 H 501.977 -0.725573 0.150416 0
M  V30 5481 H 504.624 -1.60349 1.04692 0
M  V30 5482 H 502.929 -3.91477 -0.158982 0
M  V30 5483 H 504.626 -4.00385 0.222087 0
M  V30 5484 H 501.216 -3.95363 1.65487 0
M  V30 5485 H 505.4 -4.23001 2.59584 0
M  V30 5486 H 500.656 -4.67856 3.93599 0
M  V30 5487 H 504.83 -4.96834 4.87984 0
M  V30 5488 H 502.457 -5.18952 5.55512 0
M  V30 5489 N 504.032 -0.577932 -1.46621 0
M  V30 5490 C 505.26 -0.0671642 -2.06791 0
M  V30 5491 C 505.675 1.23571 -1.42743 0
M  V30 5492 O 505.032 1.74602 -0.531062 0
M  V30 5493 C 505.083 0.110357 -3.61332 0
M  V30 5494 O 504.804 -1.14095 -4.22982 0
M  V30 5495 C 506.305 0.656025 -4.38419 0
M  V30 5496 H 503.525 -0.0552732 -0.66872 0
M  V30 5497 H 506.069 -0.797242 -1.8832 0
M  V30 5498 H 504.224 0.790637 -3.79246 0
M  V30 5499 H 504.638 -0.951742 -5.15793 0
M  V30 5500 H 506.112 0.729438 -5.47159 0
M  V30 5501 H 506.589 1.67195 -4.06131 0
M  V30 5502 H 507.195 0.0107692 -4.25299 0
M  V30 5503 N 505.51 1.54411 -0.315457 0
M  V30 5504 C 506.442 2.21527 0.588067 0
M  V30 5505 C 507.455 1.21263 1.08624 0
M  V30 5506 O 508.644 1.47777 1.00121 0
M  V30 5507 C 505.744 2.85963 1.81875 0
M  V30 5508 C 504.917 4.12291 1.46063 0
M  V30 5509 C 503.976 4.60396 2.54799 0
M  V30 5510 O 503.002 5.25265 2.19283 0
M  V30 5511 N 504.204 4.33935 3.85591 0
M  V30 5512 H 506.969 2.99697 0.013414 0
M  V30 5513 H 504.53 1.61308 -0.138295 0
M  V30 5514 H 506.522 3.15071 2.53993 0
M  V30 5515 H 505.092 2.11548 2.30144 0
M  V30 5516 H 504.312 3.90036 0.571445 0
M  V30 5517 H 505.6 4.9452 1.19695 0
M  V30 5518 H 504.998 3.81996 4.17248 0
M  V30 5519 H 503.555 4.67718 4.53964 0
M  V30 5520 N 506.988 0.0434614 1.5754 0
M  V30 5521 C 507.918 -0.931651 2.14109 0
M  V30 5522 C 508.899 -1.32971 1.06079 0
M  V30 5523 O 510.084 -1.40579 1.33982 0
M  V30 5524 C 507.214 -2.20914 2.67982 0
M  V30 5525 C 506.168 -1.95139 3.80926 0
M  V30 5526 C 505.494 -3.29276 4.21285 0
M  V30 5527 C 506.794 -1.27913 5.06395 0
M  V30 5528 H 508.488 -0.460497 2.95837 0
M  V30 5529 H 506.034 -0.220058 1.42309 0
M  V30 5530 H 507.987 -2.89522 3.06194 0
M  V30 5531 H 506.711 -2.70221 1.83434 0
M  V30 5532 H 505.37 -1.28945 3.43175 0
M  V30 5533 H 505.018 -3.76369 3.33699 0
M  V30 5534 H 504.718 -3.12831 4.97404 0
M  V30 5535 H 506.242 -3.99129 4.62091 0
M  V30 5536 H 507.656 -1.86544 5.42102 0
M  V30 5537 H 506.053 -1.2182 5.87605 0
M  V30 5538 H 507.123 -0.254066 4.84234 0
M  V30 5539 N 508.466 -1.55915 -0.229846 0
M  V30 5540 C 509.743 -1.6932 -0.979295 0
M  V30 5541 C 510.123 -0.588321 -2.02736 0
M  V30 5542 O 509.471 0.40586 -2.24867 0
M  V30 5543 C 509.681 -3.10305 -1.59724 0
M  V30 5544 C 511.029 -3.6945 -2.09264 0
M  V30 5545 O 512.053 -3.13214 -1.69633 0
M  V30 5546 O 510.912 -4.68072 -2.82082 0
M  V30 5547 H 508.006 -0.689314 -0.456919 0
M  V30 5548 H 510.552 -1.68238 -0.222283 0
M  V30 5549 H 509.324 -3.82177 -0.840039 0
M  V30 5550 H 508.947 -3.1547 -2.42001 0
M  V30 5551 N 509.944 0.496216 -1.49584 0
M  V30 5552 C 510.874 1.60576 -1.69521 0
M  V30 5553 C 511.855 1.61169 -0.543933 0
M  V30 5554 O 513.04 1.77834 -0.78031 0
M  V30 5555 C 510.17 2.99038 -1.76616 0
M  V30 5556 C 509.124 3.13312 -2.91581 0
M  V30 5557 C 508.45 4.53172 -2.83794 0
M  V30 5558 C 509.75 2.92886 -4.32452 0
M  V30 5559 H 511.444 1.44146 -2.62416 0
M  V30 5560 H 508.99 0.692024 -1.26282 0
M  V30 5561 H 510.943 3.76564 -1.8915 0
M  V30 5562 H 509.667 3.16568 -0.80324 0
M  V30 5563 H 508.326 2.38213 -2.78658 0
M  V30 5564 H 507.974 4.67585 -1.854 0
M  V30 5565 H 507.674 4.63662 -3.60958 0
M  V30 5566 H 509.198 5.32752 -2.98342 0
M  V30 5567 H 510.612 3.60178 -4.46032 0
M  V30 5568 H 509.009 3.14844 -5.10875 0
M  V30 5569 H 510.079 1.88966 -4.46565 0
M  V30 5570 N 511.423 1.38739 0.74761 0
M  V30 5571 C 512.648 1.38702 1.54197 0
M  V30 5572 C 513.073 -0.019664 1.8809 0
M  V30 5573 O 512.431 -1.00333 1.51006 0
M  V30 5574 C 512.479 2.25492 2.814 0
M  V30 5575 O 511.583 1.67613 3.76802 0
M  V30 5576 H 510.924 0.472863 0.466151 0
M  V30 5577 H 513.454 1.82577 0.923413 0
M  V30 5578 H 513.464 2.39561 3.30264 0
M  V30 5579 H 512.139 3.27727 2.56062 0
M  V30 5580 H 510.716 1.62718 3.35526 0
M  V30 5581 N 512.901 -0.976442 1.23707 0
M  V30 5582 C 514.131 -1.75087 1.09673 0
M  V30 5583 C 514.539 -1.85852 -0.354344 0
M  V30 5584 O 513.882 -1.33985 -1.25673 0
M  V30 5585 C 513.944 -3.19272 1.65245 0
M  V30 5586 C 513.608 -3.32004 3.14042 0
M  V30 5587 C 514.605 -3.18017 4.11292 0
M  V30 5588 C 512.29 -3.56525 3.53829 0
M  V30 5589 C 514.284 -3.28363 5.46312 0
M  V30 5590 C 511.971 -3.6651 4.88993 0
M  V30 5591 C 512.969 -3.52439 5.85043 0
M  V30 5592 O 512.657 -3.62063 7.1775 0
M  V30 5593 H 512.389 -0.556164 0.384262 0
M  V30 5594 H 514.943 -1.23518 1.64111 0
M  V30 5595 H 513.173 -3.72107 1.05231 0
M  V30 5596 H 514.862 -3.7849 1.46629 0
M  V30 5597 H 515.628 -2.98966 3.81896 0
M  V30 5598 H 511.507 -3.66547 2.79579 0
M  V30 5599 H 515.051 -3.17297 6.21263 0
M  V30 5600 H 510.948 -3.85072 5.18063 0
M  V30 5601 H 511.716 -3.78833 7.25553 0
M  V30 5602 N 514.379 -1.04941 -1.1758 0
M  V30 5603 C 515.309 -0.669172 -2.23706 0
M  V30 5604 C 516.29 0.331835 -1.66832 0
M  V30 5605 O 517.475 0.209988 -1.93061 0
M  V30 5606 C 514.605 -0.0404889 -3.47276 0
M  V30 5607 C 513.559 -0.965983 -4.16957 0
M  V30 5608 C 512.885 -0.201312 -5.34321 0
M  V30 5609 C 514.185 -2.28902 -4.69469 0
M  V30 5610 H 515.879 -1.55639 -2.55767 0
M  V30 5611 H 513.425 -0.749793 -1.22939 0
M  V30 5612 H 515.378 0.237298 -4.20731 0
M  V30 5613 H 514.102 0.881658 -3.14475 0
M  V30 5614 H 512.761 -1.22829 -3.45411 0
M  V30 5615 H 512.409 0.723519 -4.97769 0
M  V30 5616 H 512.109 -0.817968 -5.81879 0
M  V30 5617 H 513.633 0.0692499 -6.10561 0
M  V30 5618 H 515.047 -2.07132 -5.34574 0
M  V30 5619 H 513.444 -2.85942 -5.27596 0
M  V30 5620 H 514.514 -2.92937 -3.86414 0
M  V30 5621 N 515.857 1.33968 -0.830081 0
M  V30 5622 C 516.789 2.28194 -0.21448 0
M  V30 5623 C 517.802 1.5135 0.599752 0
M  V30 5624 O 518.991 1.73286 0.42826 0
M  V30 5625 C 516.091 3.31221 0.717356 0
M  V30 5626 C 515.264 4.37365 -0.055613 0
M  V30 5627 C 514.323 5.2011 0.798231 0
M  V30 5628 O 513.349 5.68691 0.240616 0
M  V30 5629 N 514.551 5.40523 2.11695 0
M  V30 5630 H 517.316 2.81662 -1.02405 0
M  V30 5631 H 514.877 1.46568 -0.687713 0
M  V30 5632 H 516.869 3.83477 1.29334 0
M  V30 5633 H 515.439 2.78095 1.42765 0
M  V30 5634 H 514.659 3.85727 -0.812936 0
M  V30 5635 H 515.947 5.05397 -0.587444 0
M  V30 5636 H 515.345 5.0274 2.59363 0
M  V30 5637 H 513.902 5.95871 2.64162 0
M  V30 5638 N 517.335 0.585699 1.46312 0
M  V30 5639 C 518.751 0.247607 1.57668 0
M  V30 5640 C 518.951 -1.25007 1.58037 0
M  V30 5641 O 518.007 -2.03196 1.49893 0
M  V30 5642 C 519.32 0.899456 2.86933 0
M  V30 5643 C 520.868 0.873326 3.00569 0
M  V30 5644 C 521.343 1.50477 4.32574 0
M  V30 5645 N 522.834 1.46925 4.3928 0
M  V30 5646 C 523.569 1.92719 5.40044 0
M  V30 5647 N 523.065 2.46499 6.47464 0
M  V30 5648 N 524.858 1.83617 5.31264 0
M  V30 5649 H 517.009 1.55841 1.44317 0
M  V30 5650 H 519.272 0.651564 0.688599 0
M  V30 5651 H 518.978 1.95313 2.92482 0
M  V30 5652 H 518.852 0.409476 3.74971 0
M  V30 5653 H 521.239 -0.171736 2.946 0
M  V30 5654 H 521.32 1.40136 2.13999 0
M  V30 5655 H 520.964 2.54905 4.39302 0
M  V30 5656 H 520.894 0.951944 5.17924 0
M  V30 5657 H 523.385 1.07616 3.62253 0
M  V30 5658 H 523.698 2.79291 7.20567 0
M  V30 5659 H 522.043 2.50526 6.48276 0
M  V30 5660 H 525.234 1.41358 4.46246 0
M  V30 5661 H 525.407 2.19622 6.09648 0
M  V30 5662 N 518.813 -1.54241 0.323641 0
M  V30 5663 C 519.723 -2.28033 -0.551205 0
M  V30 5664 C 520.739 -1.32388 -1.12913 0
M  V30 5665 O 521.915 -1.65403 -1.14908 0
M  V30 5666 C 518.98 -3.02382 -1.69606 0
M  V30 5667 C 518.041 -4.13612 -1.14993 0
M  V30 5668 C 517.274 -4.84407 -2.24022 0
M  V30 5669 O 517.497 -4.54716 -3.44368 0
M  V30 5670 O 516.431 -5.71312 -1.89436 0
M  V30 5671 H 520.257 -3.03662 0.048066 0
M  V30 5672 H 517.842 -1.49133 0.0893289 0
M  V30 5673 H 519.724 -3.48941 -2.36259 0
M  V30 5674 H 518.399 -2.29628 -2.28151 0
M  V30 5675 H 517.306 -3.71402 -0.448484 0
M  V30 5676 H 518.639 -4.8841 -0.609608 0
M  V30 5677 N 520.291 -0.0518155 -1.57515 0
M  V30 5678 C 521.254 0.907547 -2.10467 0
M  V30 5679 C 522.254 1.23947 -1.02439 0
M  V30 5680 O 523.444 1.17604 -1.2851 0
M  V30 5681 C 520.576 2.21723 -2.58944 0
M  V30 5682 H 521.769 0.44851 -2.96527 0
M  V30 5683 H 519.322 0.196598 -1.55059 0
M  V30 5684 H 520.057 2.72206 -1.76279 0
M  V30 5685 H 519.842 1.98935 -3.37886 0
M  V30 5686 H 521.332 2.90441 -3.00056 0
M  V30 5687 N 521.769 1.56035 0.221574 0
M  V30 5688 C 522.999 1.82864 0.961468 0
M  V30 5689 C 523.407 0.628703 1.78449 0
M  V30 5690 O 522.75 -0.412109 1.79018 0
M  V30 5691 C 522.812 3.03425 1.92804 0
M  V30 5692 C 522.476 4.38429 1.28954 0
M  V30 5693 C 523.473 5.15441 0.679431 0
M  V30 5694 C 521.158 4.85151 1.30131 0
M  V30 5695 C 523.152 6.37337 0.0896148 0
M  V30 5696 C 520.839 6.06989 0.707651 0
M  V30 5697 C 521.837 6.82923 0.102855 0
M  V30 5698 O 521.525 8.02456 -0.48157 0
M  V30 5699 H 521.257 0.611883 0.28736 0
M  V30 5700 H 523.811 2.0397 0.241932 0
M  V30 5701 H 522.041 2.78138 2.68656 0
M  V30 5702 H 523.73 3.17127 2.53348 0
M  V30 5703 H 524.496 4.80452 0.662661 0
M  V30 5704 H 520.375 4.26021 1.76145 0
M  V30 5705 H 523.919 6.96547 -0.383069 0
M  V30 5706 H 519.816 6.41451 0.721834 0
M  V30 5707 H 520.584 8.17636 -0.375887 0
M  V30 5708 N 523.247 -0.488276 1.49845 0
M  V30 5709 C 524.524 -1.24959 1.50481 0
M  V30 5710 C 524.904 -2.09735 0.239698 0
M  V30 5711 O 524.252 -2.14865 -0.777524 0
M  V30 5712 C 524.462 -2.0954 2.79095 0
M  V30 5713 C 525.81 -2.68305 3.29086 0
M  V30 5714 O 526.834 -2.19797 2.80299 0
M  V30 5715 O 525.693 -3.56643 4.14087 0
M  V30 5716 H 522.787 -0.566133 0.602845 0
M  V30 5717 H 525.333 -0.501504 1.6212 0
M  V30 5718 H 524.105 -1.46958 3.62656 0
M  V30 5719 H 523.728 -2.91517 2.70377 0
M  V30 5720 N 524.725 -1.39134 -0.740242 0
M  V30 5721 C 526.141 -1.20623 -1.0451 0
M  V30 5722 C 526.341 -0.0641651 -2.01398 0
M  V30 5723 O 525.397 0.585843 -2.4561 0
M  V30 5724 C 526.71 -2.53815 -1.6124 0
M  V30 5725 C 528.258 -2.60615 -1.73346 0
M  V30 5726 C 528.733 -3.94015 -2.33486 0
M  V30 5727 N 530.224 -3.95627 -2.40902 0
M  V30 5728 C 530.959 -4.95616 -2.88361 0
M  V30 5729 N 530.455 -6.06003 -3.35756 0
M  V30 5730 N 532.248 -4.82998 -2.87523 0
M  V30 5731 H 524.399 -2.12176 -0.0975576 0
M  V30 5732 H 526.662 -0.942066 -0.105904 0
M  V30 5733 H 526.368 -3.37911 -0.975144 0
M  V30 5734 H 526.242 -2.73162 -2.6012 0
M  V30 5735 H 528.629 -1.76906 -2.36195 0
M  V30 5736 H 528.71 -2.45123 -0.731336 0
M  V30 5737 H 528.354 -4.78153 -1.71267 0
M  V30 5738 H 528.284 -4.06825 -3.34366 0
M  V30 5739 H 530.775 -3.15903 -2.07398 0
M  V30 5740 H 531.088 -6.78215 -3.70464 0
M  V30 5741 H 529.433 -6.09604 -3.33778 0
M  V30 5742 H 532.624 -3.95866 -2.49816 0
M  V30 5743 H 532.797 -5.61072 -3.24196 0
M  V30 5744 N 526.204 0.969867 -1.24223 0
M  V30 5745 C 527.481 1.68774 -0.988664 0
M  V30 5746 C 527.861 2.05342 0.489673 0
M  V30 5747 O 527.209 1.75486 1.46345 0
M  V30 5748 C 527.419 2.92135 -1.90941 0
M  V30 5749 C 528.767 3.64422 -2.17903 0
M  V30 5750 O 529.791 3.02188 -1.88576 0
M  V30 5751 O 528.65 4.76446 -2.67697 0
M  V30 5752 H 525.744 0.737736 -0.37373 0
M  V30 5753 H 528.29 1.02415 -1.35312 0
M  V30 5754 H 527.062 2.61788 -2.90831 0
M  V30 5755 H 526.685 3.66228 -1.54798 0
M  V30 5756 N 527.682 1.05563 1.17022 0
M  V30 5757 C 528.929 0.767937 1.87374 0
M  V30 5758 C 529.257 -0.705224 1.81265 0
M  V30 5759 O 528.512 -1.5318 1.21796 0
M  V30 5760 C 528.811 1.19849 3.36706 0
M  V30 5761 C 528.477 2.6745 3.63017 0
M  V30 5762 C 527.139 3.0777 3.69907 0
M  V30 5763 C 529.491 3.62811 3.74189 0
M  V30 5764 C 526.819 4.42307 3.85463 0
M  V30 5765 C 529.171 4.97087 3.91264 0
M  V30 5766 C 527.835 5.37055 3.96394 0
M  V30 5767 H 527.105 0.281008 0.68565 0
M  V30 5768 H 529.752 1.32339 1.38415 0
M  V30 5769 H 528.057 0.562096 3.87747 0
M  V30 5770 H 529.754 0.953038 3.8951 0
M  V30 5771 H 526.344 2.35228 3.58282 0
M  V30 5772 H 530.528 3.32798 3.68183 0
M  V30 5773 H 525.784 4.72769 3.87684 0
M  V30 5774 H 529.958 5.70869 3.9885 0
M  V30 5775 H 527.585 6.41308 4.082 0
M  V30 5776 N 529.16 -1.33526 0.837174 0
M  V30 5777 C 530.09 -2.31764 0.284206 0
M  V30 5778 C 531.071 -1.58896 -0.607142 0
M  V30 5779 O 532.256 -1.86798 -0.531047 0
M  V30 5780 C 529.386 -3.43029 -0.542962 0
M  V30 5781 C 528.34 -4.27255 0.252451 0
M  V30 5782 C 527.666 -5.3012 -0.69836 0
M  V30 5783 C 528.966 -5.01229 1.46858 0
M  V30 5784 H 530.66 -2.78262 1.10502 0
M  V30 5785 H 528.206 -1.3378 0.532812 0
M  V30 5786 H 530.159 -4.1078 -0.940096 0
M  V30 5787 H 528.883 -2.95216 -1.39697 0
M  V30 5788 H 527.542 -3.61127 0.631124 0
M  V30 5789 H 527.19 -4.78564 -1.54872 0
M  V30 5790 H 526.89 -5.87353 -0.170274 0
M  V30 5791 H 528.414 -6.00737 -1.09305 0
M  V30 5792 H 529.828 -5.61756 1.14469 0
M  V30 5793 H 528.225 -5.68104 1.93333 0
M  V30 5794 H 529.295 -4.301 2.23924 0
M  V30 5795 N 530.638 -0.59345 -1.46 0
M  V30 5796 C 531.601 0.123538 -2.28867 0
M  V30 5797 C 532.601 0.808628 -1.38989 0
M  V30 5798 O 533.791 0.658945 -1.61256 0
M  V30 5799 C 530.923 1.1847 -3.19653 0
M  V30 5800 H 532.116 -0.604843 -2.93737 0
M  V30 5801 H 529.669 -0.351875 -1.52288 0
M  V30 5802 H 530.404 1.94431 -2.59552 0
M  V30 5803 H 530.189 0.69783 -3.8584 0
M  V30 5804 H 531.679 1.68726 -3.81997 0
M  V30 5805 N 532.116 1.54067 -0.331816 0
M  V30 5806 C 533.532 1.59587 0.0205388 0
M  V30 5807 C 533.732 1.34813 1.49759 0
M  V30 5808 O 532.788 1.13661 2.25471 0
M  V30 5809 C 534.101 2.97959 -0.405103 0
M  V30 5810 C 535.649 3.10964 -0.356454 0
M  V30 5811 C 536.124 4.51694 -0.757384 0
M  V30 5812 N 537.615 4.57709 -0.71111 0
M  V30 5813 C 538.35 5.64729 -0.993427 0
M  V30 5814 N 537.846 6.79652 -1.3433 0
M  V30 5815 N 539.639 5.54546 -0.918442 0
M  V30 5816 H 531.79 1.68426 -1.29407 0
M  V30 5817 H 534.053 0.78819 -0.526745 0
M  V30 5818 H 533.759 3.21115 -1.43451 0
M  V30 5819 H 533.633 3.76524 0.225692 0
M  V30 5820 H 536.02 2.87538 0.663763 0
M  V30 5821 H 536.101 2.34484 -1.02229 0
M  V30 5822 H 535.745 4.75853 -1.77555 0
M  V30 5823 H 535.675 5.26555 -0.0691444 0
M  V30 5824 H 538.166 3.75176 -0.452883 0
M  V30 5825 H 538.479 7.57221 -1.54388 0
M  V30 5826 H 536.824 6.81128 -1.38164 0
M  V30 5827 H 540.015 4.63641 -0.644536 0
M  V30 5828 H 540.188 6.37861 -1.14181 0
M  V30 5829 N 533.594 0.0601682 1.57485 0
M  V30 5830 C 534.84 -0.612501 1.93329 0
M  V30 5831 C 535.173 -1.6996 0.939526 0
M  V30 5832 O 534.448 -1.94472 -0.0330957 0
M  V30 5833 C 534.731 -1.20025 3.39508 0
M  V30 5834 C 534.584 -0.12059 4.49638 0
M  V30 5835 C 535.903 -2.10923 3.86264 0
M  V30 5836 H 533.022 -0.221185 0.703027 0
M  V30 5837 H 535.664 0.123768 1.89596 0
M  V30 5838 H 533.814 -1.82774 3.42821 0
M  V30 5839 H 535.486 0.51185 4.58452 0
M  V30 5840 H 533.729 0.550251 4.30296 0
M  V30 5841 H 534.4 -0.572019 5.49028 0
M  V30 5842 H 536.876 -1.58124 3.84884 0
M  V30 5843 H 535.752 -2.48987 4.8918 0
M  V30 5844 H 536.013 -3.01292 3.23536 0
M  V30 5845 N 535.072 -1.5615 -0.213296 0
M  V30 5846 C 536.302 -1.83372 -0.951757 0
M  V30 5847 C 536.71 -0.638158 -1.78113 0
M  V30 5848 O 536.053 0.402609 -1.79234 0
M  V30 5849 C 536.115 -3.04444 -1.91192 0
M  V30 5850 C 535.779 -4.39107 -1.26627 0
M  V30 5851 C 536.776 -5.15794 -0.652087 0
M  V30 5852 C 534.461 -4.85834 -1.27556 0
M  V30 5853 C 536.455 -6.37376 -0.055814 0
M  V30 5854 C 534.142 -6.07356 -0.675451 0
M  V30 5855 C 535.14 -6.82967 -0.0666367 0
M  V30 5856 O 534.828 -8.0219 0.524119 0
M  V30 5857 H 534.56 -0.613398 -0.284111 0
M  V30 5858 H 537.114 -2.04096 -0.231112 0
M  V30 5859 H 535.344 -2.79559 -2.67178 0
M  V30 5860 H 537.033 -3.18466 -2.51662 0
M  V30 5861 H 537.799 -4.80796 -0.637172 0
M  V30 5862 H 533.678 -4.26949 -1.73883 0
M  V30 5863 H 537.222 -6.96334 0.420004 0
M  V30 5864 H 533.119 -6.41825 -0.687806 0
M  V30 5865 H 533.887 -8.17426 0.419243 0
M  V30 5866 N 536.55 0.480323 -1.50102 0
M  V30 5867 C 537.798 1.23063 -1.60312 0
M  V30 5868 C 538.119 1.92659 -0.301226 0
M  V30 5869 O 537.389 1.83691 0.680753 0
M  V30 5870 H 535.969 0.457231 -0.590719 0
M  V30 5871 H 538.631 0.554893 -1.86834 0
M  V30 5872 H 537.727 1.9835 -2.40964 0
M  V30 5873 N 538.028 1.39524 0.732853 0
M  V30 5874 C 538.991 1.38189 1.82857 0
M  V30 5875 C 539.991 0.278624 1.58368 0
M  V30 5876 O 541.181 0.536639 1.65728 0
M  V30 5877 C 538.313 1.15661 3.2068 0
M  V30 5878 H 539.506 2.35692 1.85444 0
M  V30 5879 H 537.059 1.2512 0.936728 0
M  V30 5880 H 537.794 0.188482 3.23752 0
M  V30 5881 H 537.579 1.95559 3.39852 0
M  V30 5882 H 539.069 1.17472 4.00737 0
M  V30 5883 N 539.506 -0.963266 1.24736 0
M  V30 5884 C 540.917 -1.52145 1.08207 0
M  V30 5885 C 541.268 -1.93142 -0.345061 0
M  V30 5886 O 540.393 -1.77769 -1.23399 0
M  V30 5887 C 540.988 -2.76486 1.95808 0
M  V30 5888 C 539.547 -3.28646 1.8349 0
M  V30 5889 C 538.694 -2.01529 1.90476 0
M  V30 5890 H 541.645 -0.781083 1.38148 0
M  V30 5891 H 541.666 -3.49986 1.49297 0
M  V30 5892 H 541.178 -2.46617 2.99669 0
M  V30 5893 H 539.279 -3.63357 0.824787 0
M  V30 5894 H 539.392 -3.97246 2.67829 0
M  V30 5895 H 537.756 -2.16442 1.34258 0
M  V30 5896 H 538.539 -1.7402 2.95926 0
M  V30 5897 N 540.985 -1.06182 -1.16461 0
M  V30 5898 C 541.917 -0.629584 -2.20383 0
M  V30 5899 C 542.93 0.311834 -1.59786 0
M  V30 5900 O 544.119 0.103 -1.78203 0
M  V30 5901 C 541.219 0.0973695 -3.3876 0
M  V30 5902 C 540.392 -0.857252 -4.28917 0
M  V30 5903 C 539.451 -0.169749 -5.25926 0
M  V30 5904 O 538.477 -0.807044 -5.6345 0
M  V30 5905 N 539.679 1.08911 -5.70192 0
M  V30 5906 H 542.444 -1.52352 -2.58087 0
M  V30 5907 H 540.005 -0.944993 -1.31459 0
M  V30 5908 H 541.997 0.567676 -4.00699 0
M  V30 5909 H 540.567 0.893093 -2.99571 0
M  V30 5910 H 539.787 -1.50696 -3.64259 0
M  V30 5911 H 541.075 -1.50489 -4.86035 0
M  V30 5912 H 540.473 1.62703 -5.41797 0
M  V30 5913 H 539.03 1.50331 -6.34227 0
M  V30 5914 N 542.463 1.3308 -0.844243 0
M  V30 5915 C 543.393 2.3161 -0.296493 0
M  V30 5916 C 544.374 1.59215 0.598707 0
M  V30 5917 O 545.559 1.87077 0.521134 0
M  V30 5918 C 542.689 3.43313 0.524762 0
M  V30 5919 C 541.643 4.27115 -0.275106 0
M  V30 5920 C 540.969 5.30483 0.670236 0
M  V30 5921 C 542.269 5.00443 -1.49514 0
M  V30 5922 H 543.963 2.77672 -1.11976 0
M  V30 5923 H 541.509 1.33496 -0.539899 0
M  V30 5924 H 543.462 4.11273 0.918298 0
M  V30 5925 H 542.186 2.95952 1.3813 0
M  V30 5926 H 540.845 3.60787 -0.650267 0
M  V30 5927 H 540.493 4.79379 1.52332 0
M  V30 5928 H 540.193 5.87435 0.139123 0
M  V30 5929 H 541.717 6.01308 1.06117 0
M  V30 5930 H 543.131 5.61141 -1.17447 0
M  V30 5931 H 541.528 5.67071 -1.96343 0
M  V30 5932 H 542.598 4.28906 -2.26202 0
M  V30 5933 N 543.941 0.601185 1.45683 0
M  V30 5934 C 544.873 -0.159446 2.28645 0
M  V30 5935 C 545.886 -0.837882 1.39583 0
M  V30 5936 O 547.075 -0.704344 1.64016 0
M  V30 5937 C 544.175 -1.24641 3.15147 0
M  V30 5938 C 543.348 -0.656334 4.32448 0
M  V30 5939 C 542.407 -1.63337 5.00208 0
M  V30 5940 O 541.433 -1.16217 5.57209 0
M  V30 5941 N 542.635 -2.96773 4.98905 0
M  V30 5942 H 545.4 0.5524 2.94565 0
M  V30 5943 H 542.961 0.440223 1.558 0
M  V30 5944 H 544.953 -1.8997 3.57342 0
M  V30 5945 H 543.523 -1.86087 2.51178 0
M  V30 5946 H 542.743 0.174879 3.93812 0
M  V30 5947 H 544.031 -0.242211 5.08223 0
M  V30 5948 H 543.429 -3.37662 4.53873 0
M  V30 5949 H 541.986 -3.57541 5.44984 0
M  V30 5950 N 545.419 -1.53889 0.339982 0
M  V30 5951 C 546.665 -2.01152 -0.258003 0
M  V30 5952 C 546.998 -1.22749 -1.50487 0
M  V30 5953 O 546.273 -0.314156 -1.91946 0
M  V30 5954 C 546.556 -3.55468 -0.575717 0
M  V30 5955 C 546.409 -4.44584 0.682996 0
M  V30 5956 C 547.728 -4.1768 -1.38677 0
M  V30 5957 H 544.847 -0.731198 -0.0922992 0
M  V30 5958 H 547.489 -1.84352 0.459814 0
M  V30 5959 H 545.639 -3.69914 -1.18725 0
M  V30 5960 H 547.311 -4.41981 1.32102 0
M  V30 5961 H 545.554 -4.13592 1.3086 0
M  V30 5962 H 546.225 -5.5043 0.416001 0
M  V30 5963 H 548.701 -4.0691 -0.869705 0
M  V30 5964 H 547.577 -5.25734 -1.57783 0
M  V30 5965 H 547.838 -3.72069 -2.38782 0
M  V30 5966 N 546.897 -0.0685191 -1.57451 0
M  V30 5967 C 547.807 0.914677 -2.16034 0
M  V30 5968 C 548.823 1.32938 -1.12265 0
M  V30 5969 O 549.999 1.40275 -1.44516 0
M  V30 5970 C 547.064 2.16519 -2.70777 0
M  V30 5971 C 546.125 1.80721 -3.89408 0
M  V30 5972 C 545.358 2.9981 -4.41531 0
M  V30 5973 O 545.581 4.13727 -3.92666 0
M  V30 5974 O 544.515 2.79817 -5.32903 0
M  V30 5975 H 548.341 0.446364 -3.00402 0
M  V30 5976 H 545.926 0.154367 -1.486 0
M  V30 5977 H 547.808 2.89856 -3.05878 0
M  V30 5978 H 546.483 2.62454 -1.89471 0
M  V30 5979 H 545.39 1.04646 -3.59166 0
M  V30 5980 H 546.723 1.39571 -4.71997 0
M  V30 5981 N 548.375 1.56261 0.205012 0
M  V30 5982 C 549.322 1.93754 1.25411 0
M  V30 5983 C 550.292 0.796826 1.45739 0
M  V30 5984 O 551.477 1.05414 1.59036 0
M  V30 5985 C 548.617 2.27383 2.59598 0
M  V30 5986 C 547.73 3.5447 2.46931 0
M  V30 5987 C 546.865 3.77468 3.73753 0
M  V30 5988 C 545.904 4.98014 3.55877 0
M  V30 5989 N 545.041 5.17316 4.74688 0
M  V30 5990 H 549.881 2.83203 0.92737 0
M  V30 5991 H 547.418 1.40158 0.446574 0
M  V30 5992 H 549.376 2.44895 3.37761 0
M  V30 5993 H 548.006 1.41088 2.90335 0
M  V30 5994 H 547.058 3.45061 1.60116 0
M  V30 5995 H 548.37 4.42789 2.29651 0
M  V30 5996 H 547.524 3.95165 4.60358 0
M  V30 5997 H 546.263 2.87461 3.93976 0
M  V30 5998 H 545.268 4.80249 2.67657 0
M  V30 5999 H 546.493 5.8952 3.37109 0
M  V30 6000 H 544.439 4.30255 4.95194 0
M  V30 6001 H 544.356 5.99796 4.60197 0
M  V30 6002 H 545.624 5.39463 5.62672 0
M  V30 6003 N 549.853 -0.472356 1.50355 0
M  V30 6004 C 551.099 -1.22634 1.6152 0
M  V30 6005 C 551.432 -1.91645 0.313995 0
M  V30 6006 O 550.707 -1.82059 -0.684446 0
M  V30 6007 C 550.99 -2.27099 2.7946 0
M  V30 6008 C 550.843 -1.62402 4.19459 0
M  V30 6009 C 552.162 -3.28421 2.92964 0
M  V30 6010 H 549.281 -0.444494 0.587873 0
M  V30 6011 H 551.923 -0.520321 1.82737 0
M  V30 6012 H 550.073 -2.87314 2.61501 0
M  V30 6013 H 551.745 -1.05793 4.49005 0
M  V30 6014 H 549.988 -0.927184 4.23776 0
M  V30 6015 H 550.659 -2.38309 4.97909 0
M  V30 6016 H 553.135 -2.78227 3.09401 0
M  V30 6017 H 552.011 -3.98845 3.77113 0
M  V30 6018 H 552.272 -3.92467 2.03525 0
M  V30 6019 N 551.331 -1.39911 -0.725443 0
M  V30 6020 C 552.747 -1.21725 -1.03224 0
M  V30 6021 C 552.947 -0.0855224 -2.01318 0
M  V30 6022 O 552.003 0.55976 -2.46217 0
M  V30 6023 C 553.316 -2.55511 -1.58539 0
M  V30 6024 C 554.864 -2.62439 -1.70572 0
M  V30 6025 C 555.339 -3.9647 -2.29294 0
M  V30 6026 N 556.83 -3.98159 -2.36692 0
M  V30 6027 C 557.565 -4.98647 -2.83088 0
M  V30 6028 N 557.061 -6.0953 -3.2931 0
M  V30 6029 N 558.854 -4.8602 -2.82384 0
M  V30 6030 H 551.005 -2.12267 -0.075048 0
M  V30 6031 H 553.268 -0.943136 -0.0959066 0
M  V30 6032 H 552.974 -3.38926 -0.939249 0
M  V30 6033 H 552.848 -2.75905 -2.57208 0
M  V30 6034 H 555.235 -1.79401 -2.34306 0
M  V30 6035 H 555.316 -2.45885 -0.705297 0
M  V30 6036 H 554.96 -4.79942 -1.66186 0
M  V30 6037 H 554.89 -4.10349 -3.30032 0
M  V30 6038 H 557.381 -3.18085 -2.04035 0
M  V30 6039 H 557.694 -6.82106 -3.6325 0
M  V30 6040 H 556.039 -6.1311 -3.27294 0
M  V30 6041 H 559.23 -3.98493 -2.45603 0
M  V30 6042 H 559.403 -5.64478 -3.18226 0
M  V30 6043 N 552.809 0.956637 -1.25245 0
M  V30 6044 C 554.037 1.73571 -1.12608 0
M  V30 6045 C 554.452 1.86063 0.320324 0
M  V30 6046 O 553.809 1.35691 1.22042 0
M  V30 6047 C 553.86 3.15053 -1.77268 0
M  V30 6048 O 553.581 3.03174 -3.16255 0
M  V30 6049 C 555.082 4.09248 -1.70386 0
M  V30 6050 H 552.302 0.543955 -0.392879 0
M  V30 6051 H 554.846 1.20031 -1.65568 0
M  V30 6052 H 553.001 3.65543 -1.28284 0
M  V30 6053 H 553.415 3.9241 -3.48015 0
M  V30 6054 H 554.889 5.06138 -2.20291 0
M  V30 6055 H 555.366 4.34102 -0.667239 0
M  V30 6056 H 555.972 3.64672 -2.18849 0
M  V30 6057 N 554.287 1.06798 1.15896 0
M  V30 6058 C 555.235 0.677525 2.22514 0
M  V30 6059 C 556.229 -0.308994 1.66558 0
M  V30 6060 O 557.435 -0.173308 1.79164 0
M  V30 6061 H 553.81 0.200994 0.724642 0
M  V30 6062 H 555.781 1.5865 2.52731 0
M  V30 6063 C 554.53 0.0854153 3.47595 0
M  V30 6064 H 553.853 0.835645 3.90969 0
M  V30 6065 H 555.293 -0.150199 4.23734 0
M  V30 6066 C 553.752 -1.1724 3.15843 0
M  V30 6067 O 554.282 -2.25965 3.32119 0
M  V30 6068 N 552.488 -1.07636 2.69931 0
M  V30 6069 H 552.035 -0.191559 2.56887 0
M  V30 6070 H 551.993 -1.91876 2.4906 0
M  V30 6071 N 555.766 -1.3263 0.851289 0
M  V30 6072 C 557.043 -1.91982 0.374448 0
M  V30 6073 C 557.423 -1.77568 -1.14161 0
M  V30 6074 O 556.771 -1.1717 -1.96172 0
M  V30 6075 C 556.981 -3.38862 0.835088 0
M  V30 6076 C 558.329 -4.15999 0.850309 0
M  V30 6077 O 559.353 -3.47566 0.779505 0
M  V30 6078 O 558.212 -5.38189 0.949481 0
M  V30 6079 H 555.306 -0.819846 0.10854 0
M  V30 6080 H 557.852 -1.41422 0.937966 0
M  V30 6081 H 556.624 -3.43281 1.87814 0
M  V30 6082 H 556.247 -3.96821 0.248833 0
M  V30 6083 N 557.244 -0.608902 -1.45362 0
M  V30 6084 C 558.66 -0.272659 -1.57254 0
M  V30 6085 C 558.86 1.22477 -1.60005 0
M  V30 6086 O 557.916 2.00785 -1.53106 0
M  V30 6087 C 559.229 -0.944991 -2.85465 0
M  V30 6088 C 560.777 -0.921033 -2.99142 0
M  V30 6089 C 561.252 -1.5734 -4.30126 0
M  V30 6090 N 562.743 -1.53895 -4.36887 0
M  V30 6091 C 563.478 -2.01286 -5.36909 0
M  V30 6092 N 562.974 -2.56768 -6.43461 0
M  V30 6093 N 564.767 -1.92046 -5.28275 0
M  V30 6094 H 556.918 -1.58117 -1.4182 0
M  V30 6095 H 559.181 -0.662437 -0.678146 0
M  V30 6096 H 558.887 -1.99941 -2.89338 0
M  V30 6097 H 558.761 -0.469079 -3.74272 0
M  V30 6098 H 561.148 0.124846 -2.94836 0
M  V30 6099 H 561.229 -1.43522 -2.11743 0
M  V30 6100 H 560.873 -2.61862 -4.35191 0
M  V30 6101 H 560.803 -1.03422 -5.16344 0
M  V30 6102 H 563.294 -1.13366 -3.60495 0
M  V30 6103 H 563.607 -2.9072 -7.16032 0
M  V30 6104 H 561.952 -2.60808 -6.44208 0
M  V30 6105 H 565.143 -1.48439 -4.43941 0
M  V30 6106 H 565.316 -2.29293 -6.06077 0
M  V30 6107 N 558.722 1.53707 -0.348139 0
M  V30 6108 C 559.669 2.25173 0.506518 0
M  V30 6109 C 560.639 1.25174 1.09182 0
M  V30 6110 O 561.824 1.53917 1.12757 0
M  V30 6111 C 558.964 3.03141 1.64923 0
M  V30 6112 C 558.077 4.18002 1.0908 0
M  V30 6113 C 557.212 4.83447 2.20119 0
M  V30 6114 C 556.251 5.90369 1.61651 0
M  V30 6115 N 555.388 6.49575 2.66451 0
M  V30 6116 H 560.228 2.97799 -0.109452 0
M  V30 6117 H 557.765 1.46953 -0.0657866 0
M  V30 6118 H 559.723 3.46607 2.32205 0
M  V30 6119 H 558.353 2.32803 2.23612 0
M  V30 6120 H 557.405 3.79145 0.308783 0
M  V30 6121 H 558.717 4.94892 0.623178 0
M  V30 6122 H 557.871 5.30008 2.95257 0
M  V30 6123 H 556.61 4.05991 2.70227 0
M  V30 6124 H 555.615 5.43186 0.850209 0
M  V30 6125 H 556.84 6.69735 1.1239 0
M  V30 6126 H 554.786 5.74981 3.15805 0
M  V30 6127 H 554.703 7.21952 2.24325 0
M  V30 6128 H 555.971 7.00789 3.41344 0
M  V30 6129 N 560.2 0.0768682 1.57412 0
M  V30 6130 C 561.11 -0.903207 2.16516 0
M  V30 6131 C 562.126 -1.32341 1.12968 0
M  V30 6132 O 563.302 -1.39507 1.45258 0
M  V30 6133 C 560.367 -2.1508 2.71922 0
M  V30 6134 C 559.428 -1.78653 3.90361 0
M  V30 6135 C 558.661 -2.97465 4.43114 0
M  V30 6136 O 558.884 -4.11638 3.94854 0
M  V30 6137 O 557.818 -2.76987 5.3438 0
M  V30 6138 H 561.644 -0.430427 3.00634 0
M  V30 6139 H 559.229 -0.146485 1.4868 0
M  V30 6140 H 561.111 -2.8823 3.07411 0
M  V30 6141 H 559.786 -2.61446 1.9086 0
M  V30 6142 H 558.693 -1.0274 3.59716 0
M  V30 6143 H 560.026 -1.37066 4.7273 0
M  V30 6144 N 561.678 -1.56367 -0.196722 0
M  V30 6145 C 562.608 -1.97442 -1.24655 0
M  V30 6146 C 563.589 -0.846147 -1.47561 0
M  V30 6147 O 564.774 -1.11035 -1.59326 0
M  V30 6148 C 561.904 -2.31253 -2.59112 0
M  V30 6149 C 560.858 -3.46804 -2.50821 0
M  V30 6150 C 560.184 -3.66286 -3.89536 0
M  V30 6151 C 561.484 -4.8104 -2.03465 0
M  V30 6152 H 563.178 -2.85388 -0.905216 0
M  V30 6153 H 560.724 -1.37304 -0.434002 0
M  V30 6154 H 562.677 -2.58583 -3.32736 0
M  V30 6155 H 561.401 -1.40188 -2.94983 0
M  V30 6156 H 560.06 -3.19563 -1.79653 0
M  V30 6157 H 559.708 -2.72555 -4.22756 0
M  V30 6158 H 559.408 -4.4402 -3.84864 0
M  V30 6159 H 560.932 -3.9599 -4.64784 0
M  V30 6160 H 562.346 -5.07411 -2.66846 0
M  V30 6161 H 560.743 -5.62232 -2.09798 0
M  V30 6162 H 561.813 -4.74732 -0.98781 0
M  V30 6163 N 563.156 0.464375 -1.50603 0
M  V30 6164 C 564.404 1.21356 -1.61608 0
M  V30 6165 C 564.725 1.92329 -0.321643 0
M  V30 6166 O 563.995 1.84403 0.661232 0
M  V30 6167 H 562.575 0.45094 -0.595535 0
M  V30 6168 H 565.237 0.535046 -1.87412 0
M  V30 6169 H 564.333 1.95783 -2.43054 0
M  V30 6170 N 564.634 1.40294 0.718013 0
M  V30 6171 C 565.544 1.42678 1.86226 0
M  V30 6172 C 566.56 0.319655 1.71039 0
M  V30 6173 O 567.736 0.563852 1.93346 0
M  V30 6174 C 564.801 1.2852 3.21999 0
M  V30 6175 C 563.862 2.49354 3.49458 0
M  V30 6176 C 563.095 2.35863 4.78753 0
M  V30 6177 O 563.318 1.37114 5.53675 0
M  V30 6178 O 562.252 3.25189 5.06494 0
M  V30 6179 H 566.078 2.39167 1.87171 0
M  V30 6180 H 563.663 1.2159 0.868112 0
M  V30 6181 H 565.545 1.22824 4.03103 0
M  V30 6182 H 564.22 0.351359 3.21787 0
M  V30 6183 H 563.127 2.60628 2.68373 0
M  V30 6184 H 564.46 3.41491 3.54464 0
M  V30 6185 N 566.112 -0.949982 1.2575 0
M  V30 6186 C 567.358 -1.69766 1.10938 0
M  V30 6187 C 567.691 -1.91056 -0.348028 0
M  V30 6188 O 566.966 -1.48488 -1.25625 0
M  V30 6189 C 567.249 -3.07779 1.86933 0
M  V30 6190 C 567.102 -2.9387 3.4053 0
M  V30 6191 C 568.421 -4.07749 1.65616 0
M  V30 6192 H 565.54 -0.616144 0.404396 0
M  V30 6193 H 568.182 -1.10394 1.54639 0
M  V30 6194 H 566.332 -3.58462 1.4979 0
M  V30 6195 H 568.004 -2.50476 3.87375 0
M  V30 6196 H 566.247 -2.29686 3.68004 0
M  V30 6197 H 566.918 -3.91719 3.88922 0
M  V30 6198 H 569.394 -3.65994 1.97959 0
M  V30 6199 H 568.27 -5.02348 2.21218 0
M  V30 6200 H 568.531 -4.38029 0.598595 0
M  V30 6201 N 567.59 -1.07411 -1.15328 0
M  V30 6202 C 569.006 -0.799759 -1.38116 0
M  V30 6203 C 569.206 0.59572 -1.92493 0
M  V30 6204 O 568.262 1.35433 -2.13106 0
M  V30 6205 C 569.575 -1.87407 -2.35158 0
M  V30 6206 C 571.123 -1.89889 -2.48819 0
M  V30 6207 C 571.598 -2.96406 -3.49153 0
M  V30 6208 N 573.089 -2.95512 -3.56689 0
M  V30 6209 C 573.824 -3.74575 -4.34144 0
M  V30 6210 N 573.32 -4.63488 -5.14928 0
M  V30 6211 N 575.113 -3.62919 -4.29239 0
M  V30 6212 H 567.264 -1.97411 -0.78374 0
M  V30 6213 H 569.527 -0.856113 -0.407154 0
M  V30 6214 H 569.233 -2.8768 -2.0232 0
M  V30 6215 H 569.107 -1.73471 -3.34944 0
M  V30 6216 H 571.494 -0.902677 -2.80955 0
M  V30 6217 H 571.575 -2.07904 -1.49029 0
M  V30 6218 H 571.219 -3.96227 -3.17752 0
M  V30 6219 H 571.149 -2.75638 -4.48699 0
M  V30 6220 H 573.64 -2.31061 -2.99031 0
M  V30 6221 H 573.953 -5.20445 -5.71276 0
M  V30 6222 H 572.298 -4.67537 -5.14232 0
M  V30 6223 H 575.489 -2.92833 -3.65194 0
M  V30 6224 H 575.662 -4.24777 -4.89355 0
M  V30 6225 N 569.068 1.32177 -0.85831 0
M  V30 6226 C 570.314 1.97417 -0.46417 0
M  V30 6227 C 570.647 1.67746 0.978514 0
M  V30 6228 O 569.922 0.967654 1.68721 0
M  V30 6229 C 570.205 3.53069 -0.708094 0
M  V30 6230 C 570.058 3.92357 -2.19946 0
M  V30 6231 C 571.377 4.39783 -0.166881 0
M  V30 6232 H 568.496 0.717097 -0.17012 0
M  V30 6233 H 571.138 1.56499 -1.07741 0
M  V30 6234 H 569.288 3.88054 -0.186128 0
M  V30 6235 H 570.96 3.67533 -2.78779 0
M  V30 6236 H 569.203 3.41384 -2.67656 0
M  V30 6237 H 569.874 5.00841 -2.32082 0
M  V30 6238 H 572.35 4.11556 -0.613285 0
M  V30 6239 H 571.226 5.47671 -0.367093 0
M  V30 6240 H 571.487 4.32196 0.930559 0
M  V30 6241 N 570.547 0.616602 1.45037 0
M  V30 6242 C 571.479 -0.135186 2.28801 0
M  V30 6243 C 572.492 -0.82303 1.40464 0
M  V30 6244 O 573.681 -0.686909 1.64754 0
M  V30 6245 C 570.781 -1.21292 3.16451 0
M  V30 6246 C 569.954 -0.61043 4.3312 0
M  V30 6247 C 569.013 -1.58022 5.01912 0
M  V30 6248 O 568.039 -1.10301 5.58411 0
M  V30 6249 N 569.241 -2.91464 5.02025 0
M  V30 6250 H 572.006 0.583612 2.93963 0
M  V30 6251 H 569.567 0.456723 1.55324 0
M  V30 6252 H 571.559 -1.86169 3.59337 0
M  V30 6253 H 570.129 -1.83412 2.53138 0
M  V30 6254 H 569.349 0.216638 3.93604 0
M  V30 6255 H 570.637 -0.188293 5.08451 0
M  V30 6256 H 570.035 -3.32829 4.57429 0
M  V30 6257 H 568.592 -3.51741 5.48745 0
M  V30 6258 N 572.025 -1.5352 0.356285 0
M  V30 6259 C 573.255 -2.05236 -0.236983 0
M  V30 6260 C 573.663 -1.23016 -1.43749 0
M  V30 6261 O 573.006 -0.2615 -1.81829 0
M  V30 6262 C 573.068 -3.52549 -0.7035 0
M  V30 6263 C 572.732 -4.55425 0.379059 0
M  V30 6264 C 573.729 -5.0524 1.22592 0
M  V30 6265 C 571.414 -4.99425 0.536638 0
M  V30 6266 C 573.408 -5.97647 2.21578 0
M  V30 6267 C 571.095 -5.9164 1.52988 0
M  V30 6268 C 572.093 -6.4064 2.3679 0
M  V30 6269 O 571.781 -7.31039 3.34421 0
M  V30 6270 H 571.513 -0.674346 -0.047254 0
M  V30 6271 H 574.067 -1.98962 0.510238 0
M  V30 6272 H 572.297 -3.56331 -1.50217 0
M  V30 6273 H 573.986 -3.87171 -1.21873 0
M  V30 6274 H 574.752 -4.72002 1.11532 0
M  V30 6275 H 570.631 -4.60879 -0.105834 0
M  V30 6276 H 574.175 -6.35816 2.87025 0
M  V30 6277 H 570.072 -6.24293 1.64099 0
M  V30 6278 H 570.84 -7.49009 3.30041 0
M  V30 6279 N 573.503 -0.0852151 -1.57369 0
M  V30 6280 C 574.731 0.58946 -1.98325 0
M  V30 6281 C 575.146 1.62333 -0.96403 0
M  V30 6282 O 574.503 1.82438 0.0476395 0
M  V30 6283 C 574.554 1.24604 -3.39347 0
M  V30 6284 O 574.275 0.253532 -4.37366 0
M  V30 6285 C 575.776 2.00726 -3.95252 0
M  V30 6286 H 572.996 0.158783 -0.651942 0
M  V30 6287 H 575.54 -0.161584 -2.03861 0
M  V30 6288 H 573.695 1.94808 -3.34856 0
M  V30 6289 H 574.109 0.726207 -5.19448 0
M  V30 6290 H 575.583 2.42039 -4.96106 0
M  V30 6291 H 576.06 2.86919 -3.32527 0
M  V30 6292 H 576.666 1.3536 -4.03185 0
M  V30 6293 N 574.981 1.5647 0.188427 0
M  V30 6294 C 576.229 1.80655 0.905986 0
M  V30 6295 C 576.55 0.659391 1.83513 0
M  V30 6296 O 575.82 -0.321868 1.93238 0
M  V30 6297 H 574.4 0.666391 0.337538 0
M  V30 6298 H 577.062 1.93949 0.192339 0
M  V30 6299 H 576.158 2.74066 1.49313 0
M  V30 6300 N 576.459 -0.456382 1.50847 0
M  V30 6301 C 577.875 -0.791345 1.386 0
M  V30 6302 C 578.075 -1.9633 0.453498 0
M  V30 6303 O 577.131 -2.52308 -0.0984353 0
M  V30 6304 C 578.444 -1.08959 2.80265 0
M  V30 6305 C 579.992 -1.19517 2.89283 0
M  V30 6306 C 580.467 -1.52647 4.31814 0
M  V30 6307 N 581.958 -1.59609 4.34832 0
M  V30 6308 C 582.693 -1.86777 5.42127 0
M  V30 6309 N 582.189 -2.11866 6.59609 0
M  V30 6310 N 583.982 -1.88402 5.29586 0
M  V30 6311 H 576.133 0.315746 2.1004 0
M  V30 6312 H 578.396 0.0787916 0.94472 0
M  V30 6313 H 578.102 -0.301355 3.50407 0
M  V30 6314 H 577.976 -2.02211 3.18419 0
M  V30 6315 H 580.363 -1.97406 2.19351 0
M  V30 6316 H 580.444 -0.242111 2.54652 0
M  V30 6317 H 580.088 -0.752922 5.02288 0
M  V30 6318 H 580.018 -2.49127 4.63943 0
M  V30 6319 H 582.509 -1.42201 3.50125 0
M  V30 6320 H 582.822 -2.31912 7.37182 0
M  V30 6321 H 581.167 -2.09228 6.62758 0
M  V30 6322 H 584.358 -1.68307 4.36795 0
M  V30 6323 H 584.531 -2.09238 6.13289 0
M  V30 6324 N 577.937 -1.40673 -0.710563 0
M  V30 6325 C 579.214 -1.29718 -1.46398 0
M  V30 6326 C 579.594 0.082177 -2.1094 0
M  V30 6327 O 578.942 1.09536 -2.00534 0
M  V30 6328 C 579.152 -2.43967 -2.49562 0
M  V30 6329 C 580.5 -2.84436 -3.15248 0
M  V30 6330 O 581.524 -2.43597 -2.59883 0
M  V30 6331 O 580.383 -3.55008 -4.1549 0
M  V30 6332 H 577.477 -0.509697 -0.651258 0
M  V30 6333 H 580.023 -1.52603 -0.742312 0
M  V30 6334 H 578.795 -3.36076 -2.0042 0
M  V30 6335 H 578.418 -2.22879 -3.29258 0
M  V30 6336 N 579.415 0.9433 -1.26252 0
M  V30 6337 C 580.64 1.72898 -1.14547 0
M  V30 6338 C 581.065 1.85761 0.295743 0
M  V30 6339 O 580.423 1.3463 1.21427 0
M  V30 6340 C 580.471 3.11471 -1.8171 0
M  V30 6341 O 579.575 3.97336 -1.10445 0
M  V30 6342 H 578.916 0.530555 -0.399259 0
M  V30 6343 H 581.446 1.18159 -1.67032 0
M  V30 6344 H 581.456 3.61872 -1.88449 0
M  V30 6345 H 580.131 3.01425 -2.86558 0
M  V30 6346 H 578.708 3.55788 -1.11666 0
M  V30 6347 N 580.893 1.08022 1.14757 0
M  V30 6348 C 582.14 0.807509 1.85703 0
M  V30 6349 C 582.468 -0.666617 1.8272 0
M  V30 6350 O 581.723 -1.50562 1.25018 0
M  V30 6351 C 582.022 1.26964 3.34088 0
M  V30 6352 C 581.688 2.7509 3.57262 0
M  V30 6353 C 580.35 3.15547 3.63296 0
M  V30 6354 C 582.702 3.70667 3.66409 0
M  V30 6355 C 580.03 4.50384 3.75994 0
M  V30 6356 C 582.382 5.05274 3.80632 0
M  V30 6357 C 581.046 5.45342 3.84913 0
M  V30 6358 H 580.316 0.295488 0.679535 0
M  V30 6359 H 582.963 1.35245 1.35577 0
M  V30 6360 H 581.268 0.644216 3.86467 0
M  V30 6361 H 582.965 1.03544 3.87401 0
M  V30 6362 H 579.555 2.42775 3.53212 0
M  V30 6363 H 583.739 3.40533 3.61041 0
M  V30 6364 H 578.995 4.80886 3.77569 0
M  V30 6365 H 583.169 5.79201 3.86652 0
M  V30 6366 H 580.796 6.49823 3.94505 0
M  V30 6367 N 582.371 -1.3172 0.865308 0
M  V30 6368 C 583.318 -2.2863 0.315736 0
M  V30 6369 C 584.288 -1.55524 -0.583213 0
M  V30 6370 O 585.473 -1.83694 -0.51585 0
M  V30 6371 C 582.613 -3.41735 -0.480773 0
M  V30 6372 C 581.726 -4.297 0.445167 0
M  V30 6373 C 580.861 -5.29944 -0.365012 0
M  V30 6374 C 579.9 -6.09554 0.557651 0
M  V30 6375 N 579.037 -7.01768 -0.215994 0
M  V30 6376 H 583.877 -2.75026 1.14736 0
M  V30 6377 H 581.414 -1.35302 0.577209 0
M  V30 6378 H 583.372 -4.06045 -0.958306 0
M  V30 6379 H 582.002 -2.96461 -1.27714 0
M  V30 6380 H 581.054 -3.65875 1.04113 0
M  V30 6381 H 582.366 -4.85295 1.15284 0
M  V30 6382 H 581.52 -5.99908 -0.905255 0
M  V30 6383 H 580.259 -4.74994 -1.106 0
M  V30 6384 H 579.264 -5.38485 1.10969 0
M  V30 6385 H 580.489 -6.66591 1.29742 0
M  V30 6386 H 578.435 -6.49232 -0.939878 0
M  V30 6387 H 578.352 -7.54762 0.432431 0
M  V30 6388 H 579.62 -7.76002 -0.737618 0
M  V30 6389 N 583.85 -0.624285 -1.44708 0
M  V30 6390 C 584.812 0.0749638 -2.29077 0
M  V30 6391 C 585.812 0.778965 -1.40673 0
M  V30 6392 O 587.003 0.624591 -1.62618 0
M  V30 6393 C 584.135 1.11663 -3.22094 0
M  V30 6394 H 585.327 -0.667013 -2.92388 0
M  V30 6395 H 582.88 -0.384098 -1.51507 0
M  V30 6396 H 583.615 1.88881 -2.63618 0
M  V30 6397 H 583.401 0.61583 -3.87234 0
M  V30 6398 H 584.891 1.60585 -3.8549 0
M  V30 6399 N 585.328 1.53329 -0.364422 0
M  V30 6400 C 586.575 2.01239 0.225634 0
M  V30 6401 C 586.903 1.25172 1.48869 0
M  V30 6402 O 586.158 0.333289 1.92841 0
M  V30 6403 C 586.457 3.52911 0.564661 0
M  V30 6404 C 586.123 4.46837 -0.603936 0
M  V30 6405 C 584.785 4.72234 -0.924585 0
M  V30 6406 C 587.137 5.02409 -1.38691 0
M  V30 6407 C 584.465 5.50454 -2.0302 0
M  V30 6408 C 586.817 5.81836 -2.48293 0
M  V30 6409 C 585.481 6.0552 -2.80894 0
M  V30 6410 H 584.751 0.736386 0.0825654 0
M  V30 6411 H 587.398 1.84948 -0.496645 0
M  V30 6412 H 585.703 3.67144 1.36794 0
M  V30 6413 H 587.4 3.87455 1.03344 0
M  V30 6414 H 583.99 4.27217 -0.343983 0
M  V30 6415 H 588.174 4.82735 -1.15243 0
M  V30 6416 H 583.43 5.67024 -2.28678 0
M  V30 6417 H 587.604 6.23905 -3.0938 0
M  V30 6418 H 585.231 6.65916 -3.66688 0
M  V30 6419 N 586.806 0.0935595 1.57322 0
M  V30 6420 C 587.769 -0.851426 2.12799 0
M  V30 6421 C 588.769 -1.21187 1.0569 0
M  V30 6422 O 589.959 -1.14156 1.31583 0
M  V30 6423 C 587.091 -2.14779 2.64731 0
M  V30 6424 H 588.284 -0.369733 2.97612 0
M  V30 6425 H 585.837 -0.155417 1.55525 0
M  V30 6426 H 586.572 -2.67437 1.83434 0
M  V30 6427 H 586.357 -1.89907 3.43042 0
M  V30 6428 H 587.847 -2.82383 3.07651 0
M  V30 6429 N 588.284 -1.56567 -0.180126 0
M  V30 6430 C 589.231 -1.95725 -1.22313 0
M  V30 6431 C 590.201 -0.819911 -1.44453 0
M  V30 6432 O 591.386 -1.07931 -1.57339 0
M  V30 6433 C 588.526 -2.31484 -2.55947 0
M  V30 6434 C 587.639 -3.58354 -2.4126 0
M  V30 6435 C 586.774 -3.83366 -3.67701 0
M  V30 6436 C 585.813 -5.03612 -3.47909 0
M  V30 6437 N 584.95 -5.24802 -4.66398 0
M  V30 6438 H 589.79 -2.84642 -0.882198 0
M  V30 6439 H 587.327 -1.4085 -0.42422 0
M  V30 6440 H 589.285 -2.50237 -3.33822 0
M  V30 6441 H 587.915 -1.45689 -2.88053 0
M  V30 6442 H 586.967 -3.47565 -1.54606 0
M  V30 6443 H 588.279 -4.46386 -2.22577 0
M  V30 6444 H 587.433 -4.02439 -4.54013 0
M  V30 6445 H 586.172 -2.93692 -3.89353 0
M  V30 6446 H 585.177 -4.84447 -2.59983 0
M  V30 6447 H 586.402 -5.94809 -3.27688 0
M  V30 6448 H 584.348 -4.38079 -4.88286 0
M  V30 6449 H 584.265 -6.07041 -4.50596 0
M  V30 6450 H 585.533 -5.48346 -5.54019 0
M  V30 6451 N 589.762 0.448376 -1.51087 0
M  V30 6452 C 590.725 1.52588 -1.71025 0
M  V30 6453 C 591.725 1.49958 -0.580442 0
M  V30 6454 O 592.915 1.52176 -0.847833 0
M  V30 6455 C 590.047 2.92163 -1.75652 0
M  V30 6456 H 591.24 1.36218 -2.67179 0
M  V30 6457 H 588.793 0.676313 -1.4091 0
M  V30 6458 H 589.528 3.13951 -0.812724 0
M  V30 6459 H 589.313 2.95478 -2.57751 0
M  V30 6460 H 590.803 3.70349 -1.92953 0
M  V30 6461 N 591.24 1.41047 0.703093 0
M  V30 6462 C 592.17 1.45067 1.82969 0
M  V30 6463 C 593.151 0.31016 1.67248 0
M  V30 6464 O 594.336 0.520548 1.87093 0
M  V30 6465 C 591.466 1.32478 3.2104 0
M  V30 6466 C 590.42 2.44262 3.51454 0
M  V30 6467 C 589.746 2.16742 4.88801 0
M  V30 6468 C 591.046 3.86606 3.51189 0
M  V30 6469 H 592.74 2.39353 1.79863 0
M  V30 6470 H 590.286 1.15206 0.863919 0
M  V30 6471 H 592.239 1.33904 3.99559 0
M  V30 6472 H 590.963 0.346735 3.24754 0
M  V30 6473 H 589.622 2.42107 2.75282 0
M  V30 6474 H 589.27 1.17299 4.89132 0
M  V30 6475 H 588.97 2.91643 5.10116 0
M  V30 6476 H 590.494 2.19872 5.69639 0
M  V30 6477 H 591.908 3.90517 4.19725 0
M  V30 6478 H 590.305 4.61128 3.84033 0
M  V30 6479 H 591.375 4.15296 2.50315 0
M  V30 6480 N 592.718 -0.936591 1.26751 0
M  V30 6481 C 593.966 -1.67998 1.12343 0
M  V30 6482 C 594.287 -1.92137 -0.332938 0
M  V30 6483 O 593.557 -1.52132 -1.23421 0
M  V30 6484 H 592.137 -0.622609 0.412756 0
M  V30 6485 H 594.799 -1.12509 1.59147 0
M  V30 6486 H 593.895 -2.65185 1.64571 0
M  V30 6487 N 594.196 -1.08629 -1.14182 0
M  V30 6488 C 595.442 -0.818556 -1.85546 0
M  V30 6489 C 595.775 0.654076 -1.82854 0
M  V30 6490 O 595.05 1.48099 -1.26083 0
M  V30 6491 C 595.333 -1.34397 -3.3408 0
M  V30 6492 C 595.186 -2.8821 -3.45333 0
M  V30 6493 C 596.505 -0.971069 -4.29253 0
M  V30 6494 H 593.624 -0.298821 -0.673702 0
M  V30 6495 H 596.266 -1.34629 -1.34071 0
M  V30 6496 H 594.416 -0.895064 -3.78049 0
M  V30 6497 H 596.088 -3.41488 -3.10134 0
M  V30 6498 H 594.331 -3.25756 -2.86471 0
M  V30 6499 H 595.002 -3.20047 -4.49749 0
M  V30 6500 H 597.478 -1.35809 -3.93313 0
M  V30 6501 H 596.354 -1.36586 -5.31635 0
M  V30 6502 H 596.615 0.121659 -4.41933 0
M  V30 6503 N 595.674 1.31259 -0.872281 0
M  V30 6504 C 596.607 2.26544 -0.274394 0
M  V30 6505 C 597.585 1.51213 0.597776 0
M  V30 6506 O 598.769 1.80277 0.550687 0
M  V30 6507 C 595.896 3.33139 0.611256 0
M  V30 6508 C 594.942 4.26077 -0.189876 0
M  V30 6509 S 595.775 5.11971 -1.56989 0
M  V30 6510 C 596.931 6.2208 -0.690427 0
M  V30 6511 H 597.164 2.76908 -1.0821 0
M  V30 6512 H 594.697 1.3906 -0.670939 0
M  V30 6513 H 596.655 3.95024 1.11654 0
M  V30 6514 H 595.316 2.81525 1.39294 0
M  V30 6515 H 594.509 5.01657 0.485433 0
M  V30 6516 H 594.111 3.68701 -0.627339 0
M  V30 6517 H 596.403 6.77429 0.098001 0
M  V30 6518 H 597.346 6.93768 -1.41742 0
M  V30 6519 H 597.754 5.63915 -0.256953 0
M  V30 6520 N 597.152 0.631951 1.44375 0
M  V30 6521 C 598.429 0.067646 1.95483 0
M  V30 6522 C 598.809 -1.40683 1.57389 0
M  V30 6523 O 598.157 -2.12167 0.848375 0
M  V30 6524 C 598.367 0.291392 3.47781 0
M  V30 6525 C 599.715 0.185028 4.24197 0
M  V30 6526 O 600.739 0.222803 3.55503 0
M  V30 6527 O 599.598 0.0906642 5.46425 0
M  V30 6528 H 596.692 -0.0218379 0.826712 0
M  V30 6529 H 599.238 0.703711 1.54421 0
M  V30 6530 H 598.01 1.31449 3.68561 0
M  V30 6531 H 597.633 -0.378772 3.95792 0
M  V30 6532 N 598.631 -1.53133 0.372548 0
M  V30 6533 C 599.908 -1.93704 -0.271693 0
M  V30 6534 C 600.288 -1.30667 -1.65799 0
M  V30 6535 O 599.636 -0.46838 -2.23648 0
M  V30 6536 C 599.846 -3.47576 -0.314903 0
M  V30 6537 C 601.194 -4.20998 -0.551912 0
M  V30 6538 O 602.218 -3.53994 -0.39582 0
M  V30 6539 O 601.077 -5.39748 -0.85639 0
M  V30 6540 H 598.171 -0.810457 -0.164586 0
M  V30 6541 H 600.717 -1.6427 0.425838 0
M  V30 6542 H 599.489 -3.85749 0.656792 0
M  V30 6543 H 599.112 -3.83264 -1.05804 0
M  V30 6544 N 600.109 -0.101901 -1.5727 0
M  V30 6545 C 601.039 0.851544 -2.17419 0
M  V30 6546 C 602.02 1.28942 -1.10941 0
M  V30 6547 O 603.205 1.35509 -1.39107 0
M  V30 6548 C 600.335 2.10816 -2.75996 0
M  V30 6549 C 599.289 1.80867 -3.87906 0
M  V30 6550 C 598.615 3.13413 -4.33216 0
M  V30 6551 C 599.915 1.0903 -5.10793 0
M  V30 6552 H 601.609 0.350381 -2.97343 0
M  V30 6553 H 599.155 0.16709 -1.43027 0
M  V30 6554 H 601.108 2.77959 -3.16729 0
M  V30 6555 H 599.832 2.63227 -1.93337 0
M  V30 6556 H 598.491 1.16119 -3.47724 0
M  V30 6557 H 598.139 3.63725 -3.47438 0
M  V30 6558 H 597.839 2.94155 -5.08671 0
M  V30 6559 H 599.363 3.81704 -4.76586 0
M  V30 6560 H 600.777 1.66295 -5.48652 0
M  V30 6561 H 599.174 0.99927 -5.91722 0
M  V30 6562 H 600.244 0.0741704 -4.84843 0
M  V30 6563 N 601.587 1.56661 0.17182 0
M  V30 6564 C 602.534 1.96371 1.21273 0
M  V30 6565 C 603.504 0.82756 1.44016 0
M  V30 6566 O 604.689 1.08764 1.56764 0
M  V30 6567 C 601.829 2.32838 2.54716 0
M  V30 6568 C 600.942 3.59628 2.39356 0
M  V30 6569 C 600.077 3.85311 3.65662 0
M  V30 6570 C 599.116 5.0545 3.45234 0
M  V30 6571 N 598.253 5.27268 4.63608 0
M  V30 6572 H 603.093 2.85106 0.86709 0
M  V30 6573 H 600.63 1.41073 0.416744 0
M  V30 6574 H 602.588 2.52004 3.3249 0
M  V30 6575 H 601.218 1.47214 2.87277 0
M  V30 6576 H 600.27 3.4838 1.52761 0
M  V30 6577 H 601.582 4.4756 2.20207 0
M  V30 6578 H 600.736 4.04841 4.51872 0
M  V30 6579 H 599.475 2.95753 3.8779 0
M  V30 6580 H 598.48 4.85819 2.5741 0
M  V30 6581 H 599.705 5.96538 3.24529 0
M  V30 6582 H 597.651 4.40662 4.85956 0
M  V30 6583 H 597.568 6.09422 4.4737 0
M  V30 6584 H 598.836 5.51277 5.51103 0
M  V30 6585 N 603.065 -0.440357 1.51323 0
M  V30 6586 C 604.29 -1.21716 1.67928 0
M  V30 6587 C 604.715 -1.84328 0.374826 0
M  V30 6588 O 604.073 -1.68675 -0.664706 0
M  V30 6589 C 604.121 -2.27914 2.79442 0
M  V30 6590 O 603.225 -3.33325 2.42834 0
M  V30 6591 H 602.566 -0.35674 0.560029 0
M  V30 6592 H 605.096 -0.520417 1.97871 0
M  V30 6593 H 605.106 -2.72746 3.03436 0
M  V30 6594 H 603.781 -1.8172 3.741 0
M  V30 6595 H 602.358 -2.9399 2.294 0
M  V30 6596 N 604.543 -1.41418 -0.695603 0
M  V30 6597 C 605.791 -1.40496 -1.45277 0
M  V30 6598 C 606.112 -0.0149538 -1.94994 0
M  V30 6599 O 605.382 0.9432 -1.71699 0
M  V30 6600 H 603.962 -0.517147 -0.539044 0
M  V30 6601 H 606.624 -1.76656 -0.823321 0
M  V30 6602 H 605.72 -2.09214 -2.31595 0
M  V30 6603 N 606.021 0.929856 -1.27246 0
M  V30 6604 C 607.267 1.6798 -1.13625 0
M  V30 6605 C 607.6 1.91586 0.317589 0
M  V30 6606 O 606.875 1.50467 1.23247 0
M  V30 6607 C 607.158 3.04766 -1.91806 0
M  V30 6608 C 607.011 2.88415 -3.45162 0
M  V30 6609 C 608.33 4.05063 -1.72082 0
M  V30 6610 H 605.449 0.609632 -0.414147 0
M  V30 6611 H 608.091 1.0792 -1.56376 0
M  V30 6612 H 606.241 3.56034 -1.55474 0
M  V30 6613 H 607.913 2.44282 -3.91311 0
M  V30 6614 H 606.156 2.23802 -3.71611 0
M  V30 6615 H 606.827 3.85482 -3.95105 0
M  V30 6616 H 609.303 3.62798 -2.03757 0
M  V30 6617 H 608.179 4.98765 -2.29182 0
M  V30 6618 H 608.44 4.37021 -0.668206 0
M  V30 6619 N 607.499 1.09233 1.13605 0
M  V30 6620 C 608.91 0.846839 1.6639 0
M  V30 6621 C 609.261 -0.625031 1.85978 0
M  V30 6622 O 608.386 -1.48173 1.57714 0
M  V30 6623 C 608.981 1.5307 3.0225 0
M  V30 6624 C 607.54 1.33223 3.52035 0
M  V30 6625 C 606.687 1.58806 2.27323 0
M  V30 6626 H 609.638 1.25175 0.975541 0
M  V30 6627 H 609.659 0.96267 3.68121 0
M  V30 6628 H 609.171 2.60192 2.87961 0
M  V30 6629 H 607.272 0.282091 3.71531 0
M  V30 6630 H 607.385 2.0657 4.32279 0
M  V30 6631 H 605.749 1.01007 2.33815 0
M  V30 6632 H 606.532 2.67153 2.15602 0
M  V30 6633 N 608.977 -1.30795 0.87923 0
M  V30 6634 C 610.393 -1.48981 0.57243 0
M  V30 6635 C 610.593 -1.80719 -0.891236 0
M  V30 6636 O 609.649 -1.89136 -1.67283 0
M  V30 6637 C 610.962 -2.61721 1.48063 0
M  V30 6638 C 612.51 -2.75603 1.48365 0
M  V30 6639 C 612.985 -3.91449 2.37763 0
M  V30 6640 N 614.476 -3.98751 2.35695 0
M  V30 6641 C 615.211 -4.87684 3.01583 0
M  V30 6642 N 614.707 -5.81454 3.76674 0
M  V30 6643 N 616.5 -4.81005 2.90844 0
M  V30 6644 H 608.651 -1.08465 1.82617 0
M  V30 6645 H 610.914 -0.536813 0.781368 0
M  V30 6646 H 610.62 -2.45073 2.52254 0
M  V30 6647 H 610.494 -3.58071 1.18596 0
M  V30 6648 H 612.881 -2.9166 0.44927 0
M  V30 6649 H 612.962 -1.79891 1.81859 0
M  V30 6650 H 612.606 -3.76149 3.41283 0
M  V30 6651 H 612.536 -4.86487 2.01589 0
M  V30 6652 H 615.027 -3.31668 1.81121 0
M  V30 6653 H 615.34 -6.46063 4.24054 0
M  V30 6654 H 613.685 -5.81403 3.80782 0
M  V30 6655 H 616.876 -4.06728 2.31711 0
M  V30 6656 H 617.049 -5.50107 3.42471 0
M  V30 6657 N 610.455 -0.639598 -1.44038 0
M  V30 6658 C 611.418 0.0506628 -2.29144 0
M  V30 6659 C 612.418 0.764001 -1.41491 0
M  V30 6660 O 613.608 0.607309 -1.63271 0
M  V30 6661 C 610.74 1.0824 -3.2326 0
M  V30 6662 H 611.933 -0.697987 -2.91664 0
M  V30 6663 H 609.486 -0.400146 -1.51091 0
M  V30 6664 H 610.221 1.86075 -2.65606 0
M  V30 6665 H 610.006 0.574725 -3.87865 0
M  V30 6666 H 611.496 1.56487 -3.87171 0
M  V30 6667 N 611.933 1.52934 -0.380664 0
M  V30 6668 C 613.181 2.01069 0.203874 0
M  V30 6669 C 613.502 1.26922 1.4804 0
M  V30 6670 O 612.772 0.386787 1.92044 0
M  V30 6671 H 611.352 0.742882 0.0783279 0
M  V30 6672 H 614.014 1.88099 -0.510368 0
M  V30 6673 H 613.11 3.09258 0.42021 0
M  V30 6674 N 613.412 0.11024 1.57214 0
M  V30 6675 C 614.642 -0.557025 1.98949 0
M  V30 6676 C 615.05 -1.61317 0.988606 0
M  V30 6677 O 614.393 -1.83679 -0.0279159 0
M  V30 6678 C 614.455 -1.24956 3.37085 0
M  V30 6679 C 614.119 -0.342398 4.55716 0
M  V30 6680 C 615.116 0.415511 5.18237 0
M  V30 6681 C 612.801 -0.256029 5.01647 0
M  V30 6682 C 614.795 1.24761 6.25071 0
M  V30 6683 C 612.482 0.579713 6.08344 0
M  V30 6684 C 613.48 1.33017 6.69922 0
M  V30 6685 O 613.168 2.15205 7.74559 0
M  V30 6686 H 612.9 -0.152792 0.658506 0
M  V30 6687 H 615.454 0.19076 2.04512 0
M  V30 6688 H 613.684 -2.04424 3.2825 0
M  V30 6689 H 615.373 -1.81286 3.63167 0
M  V30 6690 H 616.139 0.358605 4.83672 0
M  V30 6691 H 612.018 -0.829831 4.5347 0
M  V30 6692 H 615.562 1.83386 6.73064 0
M  V30 6693 H 611.459 0.638044 6.42339 0
M  V30 6694 H 612.227 2.08052 7.91617 0
M  V30 6695 N 614.89 -1.56749 -0.16351 0
M  V30 6696 C 616.306 -1.51043 -0.515567 0
M  V30 6697 C 616.506 -0.815855 -1.84245 0
M  V30 6698 O 615.562 -0.379477 -2.49632 0
M  V30 6699 C 616.875 -2.95791 -0.541114 0
M  V30 6700 C 618.423 -3.0664 -0.627776 0
M  V30 6701 C 618.898 -4.52861 -0.684141 0
M  V30 6702 N 620.389 -4.5714 -0.746818 0
M  V30 6703 C 621.124 -5.67634 -0.811137 0
M  V30 6704 N 620.62 -6.8774 -0.835811 0
M  V30 6705 N 622.413 -5.55624 -0.850756 0
M  V30 6706 H 614.564 -2.00307 0.70645 0
M  V30 6707 H 616.827 -0.912876 0.255659 0
M  V30 6708 H 616.533 -3.49797 0.365329 0
M  V30 6709 H 616.407 -3.50858 -1.38487 0
M  V30 6710 H 618.794 -2.52663 -1.52464 0
M  V30 6711 H 618.875 -2.54645 0.242805 0
M  V30 6712 H 618.519 -5.07472 0.2085 0
M  V30 6713 H 618.449 -5.02621 -1.57098 0
M  V30 6714 H 620.94 -3.70669 -0.735717 0
M  V30 6715 H 621.253 -7.67701 -0.886279 0
M  V30 6716 H 619.598 -6.90334 -0.803958 0
M  V30 6717 H 622.789 -4.60709 -0.828535 0
M  V30 6718 H 622.962 -6.41756 -0.897418 0
M  V30 6719 N 616.368 0.432326 -1.51554 0
M  V30 6720 C 617.616 1.17901 -1.64146 0
M  V30 6721 C 617.937 1.91604 -0.362367 0
M  V30 6722 O 617.207 1.85764 0.621968 0
M  V30 6723 H 615.787 0.438206 -0.604966 0
M  V30 6724 H 618.449 0.495172 -1.88505 0
M  V30 6725 H 617.545 1.90584 -2.47152 0
M  V30 6726 N 617.846 1.41785 0.688094 0
M  V30 6727 C 619.095 1.4084 1.44385 0
M  V30 6728 C 619.408 0.0234166 1.95586 0
M  V30 6729 O 620.614 -0.108647 2.71283 0
M  V30 6730 C 619.07 2.47675 2.61123 0
M  V30 6731 C 618.678 3.92116 2.16677 0
M  V30 6732 C 620.422 2.55877 3.38714 0
M  V30 6733 C 618.329 4.90487 3.30419 0
M  V30 6734 H 617.259 0.523787 0.542368 0
M  V30 6735 H 619.91 1.6764 0.74627 0
M  V30 6736 H 618.292 2.14018 3.33185 0
M  V30 6737 H 619.466 4.35059 1.51856 0
M  V30 6738 H 617.781 3.87642 1.5206 0
M  V30 6739 H 620.378 3.26553 4.234 0
M  V30 6740 H 620.721 1.59801 3.84408 0
M  V30 6741 H 621.254 2.88662 2.73714 0
M  V30 6742 H 617.993 5.87994 2.89729 0
M  V30 6743 H 617.513 4.52187 3.94065 0
M  V30 6744 H 619.192 5.11591 3.96085 0
M  V30 6745 N 619.324 -0.923095 1.27737 0
M  V30 6746 C 620.57 -1.67375 1.14514 0
M  V30 6747 C 620.903 -1.91751 -0.307424 0
M  V30 6748 O 620.178 -1.51119 -1.22447 0
M  V30 6749 C 620.461 -3.03745 1.9342 0
M  V30 6750 C 620.314 -2.86581 3.46686 0
M  V30 6751 C 621.633 -4.04144 1.74228 0
M  V30 6752 H 618.752 -0.607427 0.417374 0
M  V30 6753 H 621.394 -1.07089 1.56946 0
M  V30 6754 H 619.544 -3.55204 1.5736 0
M  V30 6755 H 621.216 -2.42203 3.92601 0
M  V30 6756 H 619.459 -2.21829 3.72793 0
M  V30 6757 H 620.13 -3.83381 3.97143 0
M  V30 6758 H 622.606 -3.61712 2.05678 0
M  V30 6759 H 621.482 -4.97543 2.31824 0
M  V30 6760 H 621.743 -4.36661 0.691373 0
M  V30 6761 N 620.802 -1.09834 -1.13024 0
M  V30 6762 C 622.03 -0.858902 -1.8823 0
M  V30 6763 C 622.445 0.590164 -1.79339 0
M  V30 6764 O 621.802 1.4065 -1.16292 0
M  V30 6765 C 621.853 -1.29066 -3.37675 0
M  V30 6766 O 621.574 -2.6829 -3.46341 0
M  V30 6767 C 623.075 -1.08421 -4.29837 0
M  V30 6768 H 620.295 -0.308713 -0.595766 0
M  V30 6769 H 622.839 -1.4614 -1.4305 0
M  V30 6770 H 620.994 -0.731961 -3.80422 0
M  V30 6771 H 621.408 -2.86598 -4.39274 0
M  V30 6772 H 622.882 -1.43553 -5.33007 0
M  V30 6773 H 623.359 -0.0223315 -4.39194 0
M  V30 6774 H 623.965 -1.62907 -3.92863 0
M  V30 6775 N 622.28 1.30327 -0.886154 0
M  V30 6776 C 623.527 1.96097 -0.505192 0
M  V30 6777 C 623.855 1.69952 0.945868 0
M  V30 6778 O 623.11 0.997653 1.68361 0
M  V30 6779 C 623.409 3.49906 -0.728042 0
M  V30 6780 C 623.075 3.96103 -2.15437 0
M  V30 6781 C 621.737 4.08428 -2.5444 0
M  V30 6782 C 624.089 4.20177 -3.08384 0
M  V30 6783 C 621.417 4.42189 -3.85598 0
M  V30 6784 C 623.769 4.55407 -4.39075 0
M  V30 6785 C 622.433 4.65941 -4.7797 0
M  V30 6786 H 621.703 0.71757 -0.184863 0
M  V30 6787 H 624.35 1.55171 -1.12223 0
M  V30 6788 H 622.655 3.9179 -0.027978 0
M  V30 6789 H 624.352 3.98869 -0.412862 0
M  V30 6790 H 620.942 3.87017 -1.84162 0
M  V30 6791 H 625.126 4.10134 -2.7947 0
M  V30 6792 H 620.382 4.48544 -4.15473 0
M  V30 6793 H 624.556 4.72986 -5.11133 0
M  V30 6794 H 622.183 4.91856 -5.79639 0
M  V30 6795 N 623.758 0.647228 1.43697 0
M  V30 6796 C 624.69 -0.0866232 2.29036 0
M  V30 6797 C 625.703 -0.793051 1.42178 0
M  V30 6798 O 626.892 -0.651807 1.66174 0
M  V30 6799 C 623.992 -1.14552 3.18953 0
M  V30 6800 C 623.165 -0.518422 4.34317 0
M  V30 6801 C 622.224 -1.4734 5.05151 0
M  V30 6802 O 621.25 -0.984312 5.60625 0
M  V30 6803 N 622.452 -2.8075 5.08094 0
M  V30 6804 H 625.217 0.645834 2.92659 0
M  V30 6805 H 622.778 0.489567 1.54321 0
M  V30 6806 H 624.77 -1.78505 3.63205 0
M  V30 6807 H 623.34 -1.78001 2.56971 0
M  V30 6808 H 622.56 0.300079 3.93056 0
M  V30 6809 H 623.848 -0.080401 5.08736 0
M  V30 6810 H 623.246 -3.23052 4.64386 0
M  V30 6811 H 621.803 -3.40022 5.56083 0
M  V30 6812 N 625.236 -1.5273 0.388769 0
M  V30 6813 C 626.483 -2.01573 -0.19359 0
M  V30 6814 C 626.811 -1.27525 -1.46859 0
M  V30 6815 O 626.066 -0.363926 -1.92286 0
M  V30 6816 C 626.365 -3.53765 -0.508445 0
M  V30 6817 C 626.031 -4.4582 0.674947 0
M  V30 6818 C 624.693 -4.70703 0.999596 0
M  V30 6819 C 627.045 -5.00138 1.46666 0
M  V30 6820 C 624.373 -5.47155 2.11751 0
M  V30 6821 C 626.725 -5.77812 2.57518 0
M  V30 6822 C 625.389 -6.00975 2.90492 0
M  V30 6823 H 624.659 -0.737606 -0.0708397 0
M  V30 6824 H 627.306 -1.84134 0.526006 0
M  V30 6825 H 625.611 -3.69274 -1.30936 0
M  V30 6826 H 627.308 -3.8905 -0.971664 0
M  V30 6827 H 623.898 -4.26616 0.411906 0
M  V30 6828 H 628.082 -4.8084 1.22909 0
M  V30 6829 H 623.338 -5.63314 2.3767 0
M  V30 6830 H 627.512 -6.18904 3.19267 0
M  V30 6831 H 625.139 -6.59998 3.77236 0
M  V30 6832 N 626.714 -0.118576 -1.57153 0
M  V30 6833 C 628.13 0.238014 -1.57815 0
M  V30 6834 C 628.33 1.66747 -1.13127 0
M  V30 6835 O 627.386 2.38867 -0.818462 0
M  V30 6836 C 628.699 0.00508207 -3.007 0
M  V30 6837 C 630.247 0.0710139 -3.12919 0
M  V30 6838 C 630.722 -0.13422 -4.57803 0
M  V30 6839 N 632.213 -0.0801755 -4.63131 0
M  V30 6840 C 632.948 -0.213885 -5.73001 0
M  V30 6841 N 632.444 -0.403742 -6.91623 0
M  V30 6842 N 634.237 -0.15349 -5.6189 0
M  V30 6843 H 626.388 -1.05226 -1.84503 0
M  V30 6844 H 628.651 -0.414318 -0.852669 0
M  V30 6845 H 628.357 -0.983125 -3.3768 0
M  V30 6846 H 628.231 0.73714 -3.69927 0
M  V30 6847 H 630.618 1.04975 -2.75798 0
M  V30 6848 H 630.699 -0.692918 -2.46236 0
M  V30 6849 H 630.343 -1.10992 -4.95624 0
M  V30 6850 H 630.273 0.649692 -5.22577 0
M  V30 6851 H 632.764 0.0630689 -3.77847 0
M  V30 6852 H 633.077 -0.496645 -7.71202 0
M  V30 6853 H 631.422 -0.43971 -6.93608 0
M  V30 6854 H 634.613 -0.00613174 -4.681 0
M  V30 6855 H 634.786 -0.261138 -6.47474 0
M  V30 6856 N 628.193 1.56834 0.155195 0
M  V30 6857 C 629.441 1.82536 0.867462 0
M  V30 6858 C 629.762 0.698168 1.82073 0
M  V30 6859 O 629.032 -0.280807 1.93877 0
M  V30 6860 H 627.612 0.673401 0.323327 0
M  V30 6861 H 630.274 1.94313 0.151156 0
M  V30 6862 H 629.37 2.77171 1.43466 0
M  V30 6863 N 629.671 -0.424282 1.51781 0
M  V30 6864 C 631.087 -0.761768 1.40247 0
M  V30 6865 C 631.287 -1.95324 0.495041 0
M  V30 6866 O 630.343 -2.5246 -0.0448949 0
M  V30 6867 C 631.656 -1.0299 2.82513 0
M  V30 6868 C 633.204 -1.13354 2.91753 0
M  V30 6869 C 633.679 -1.43453 4.34954 0
M  V30 6870 N 635.17 -1.5035 4.3812 0
M  V30 6871 C 635.905 -1.75236 5.45967 0
M  V30 6872 N 635.401 -1.97827 6.63955 0
M  V30 6873 N 637.194 -1.77126 5.33463 0
M  V30 6874 H 629.345 0.360228 2.09323 0
M  V30 6875 H 631.608 0.0988128 0.942836 0
M  V30 6876 H 631.314 -0.226961 3.50967 0
M  V30 6877 H 631.188 -1.95411 3.22637 0
M  V30 6878 H 633.575 -1.92709 2.23489 0
M  V30 6879 H 633.656 -0.188041 2.55108 0
M  V30 6880 H 633.3 -0.646209 5.03772 0
M  V30 6881 H 633.23 -2.3923 4.69123 0
M  V30 6882 H 635.721 -1.34742 3.53062 0
M  V30 6883 H 636.034 -2.16223 7.41935 0
M  V30 6884 H 634.379 -1.95123 6.67047 0
M  V30 6885 H 637.57 -1.59005 4.40267 0
M  V30 6886 H 637.743 -1.96182 6.17589 0
M  V30 6887 N 631.149 -1.42148 -0.680565 0
M  V30 6888 C 632.565 -1.24947 -0.992995 0
M  V30 6889 C 632.765 -0.149527 -2.00944 0
M  V30 6890 O 631.821 0.481145 -2.47873 0
M  V30 6891 C 633.134 -2.60426 -1.5033 0
M  V30 6892 C 634.682 -2.67733 -1.62137 0
M  V30 6893 C 635.157 -4.03564 -2.16565 0
M  V30 6894 N 636.648 -4.05488 -2.23905 0
M  V30 6895 C 637.383 -5.07401 -2.67081 0
M  V30 6896 N 636.879 -6.19698 -3.09751 0
M  V30 6897 N 638.672 -4.94758 -2.66778 0
M  V30 6898 H 630.823 -2.12399 -0.0074788 0
M  V30 6899 H 633.086 -0.94571 -0.0658529 0
M  V30 6900 H 632.792 -3.41743 -0.830947 0
M  V30 6901 H 632.666 -2.83949 -2.483 0
M  V30 6902 H 635.053 -1.86765 -2.2848 0
M  V30 6903 H 635.134 -2.48004 -0.626713 0
M  V30 6904 H 634.778 -4.84987 -1.50833 0
M  V30 6905 H 634.708 -4.20641 -3.1681 0
M  V30 6906 H 637.199 -3.24415 -1.93812 0
M  V30 6907 H 637.512 -6.93318 -3.41365 0
M  V30 6908 H 635.857 -6.23212 -3.07623 0
M  V30 6909 H 639.048 -4.06105 -2.32801 0
M  V30 6910 H 639.221 -5.74317 -3.00107 0
M  V30 6911 N 632.627 0.916307 -1.28225 0
M  V30 6912 C 633.873 1.66765 -1.154 0
M  V30 6913 C 634.206 1.91912 0.297251 0
M  V30 6914 O 633.481 1.51766 1.21644 0
M  V30 6915 C 633.764 3.02715 -1.95028 0
M  V30 6916 C 633.617 2.84738 -3.48201 0
M  V30 6917 C 634.936 4.03215 -1.76369 0
M  V30 6918 H 632.055 0.605205 -0.42059 0
M  V30 6919 H 634.697 1.06255 -1.57512 0
M  V30 6920 H 632.847 3.54365 -1.59242 0
M  V30 6921 H 634.519 2.40118 -3.9388 0
M  V30 6922 H 632.762 2.19848 -3.73964 0
M  V30 6923 H 633.433 3.8127 -3.99171 0
M  V30 6924 H 635.909 3.60617 -2.07593 0
M  V30 6925 H 634.785 4.96306 -2.34459 0
M  V30 6926 H 635.046 4.36288 -0.71452 0
M  V30 6927 N 634.105 1.10431 1.1244 0
M  V30 6928 C 635.055 0.722378 2.16254 0
M  V30 6929 C 636.039 -0.268427 1.58645 0
M  V30 6930 O 637.231 -0.077169 1.76832 0
M  V30 6931 C 634.36 0.155763 3.42946 0
M  V30 6932 C 633.446 1.17361 4.07538 0
M  V30 6933 N 633.837 2.36429 4.47141 0
M  V30 6934 C 632.135 1.01412 4.34317 0
M  V30 6935 C 632.836 3.01259 4.97612 0
M  V30 6936 N 631.812 2.28777 4.93115 0
M  V30 6937 H 635.614 1.62876 2.4464 0
M  V30 6938 H 633.128 0.982031 1.29344 0
M  V30 6939 H 635.125 -0.135936 4.16678 0
M  V30 6940 H 633.785 -0.745339 3.1603 0
M  V30 6941 H 634.796 2.73954 4.39511 0
M  V30 6942 H 631.473 0.168574 4.1716 0
M  V30 6943 H 632.863 4.02541 5.37968 0
M  V30 6944 N 635.583 -1.29855 0.893053 0
M  V30 6945 C 636.513 -2.3035 0.382249 0
M  V30 6946 C 637.494 -1.61328 -0.539203 0
M  V30 6947 O 638.679 -1.88882 -0.451342 0
M  V30 6948 C 635.809 -3.45024 -0.396983 0
M  V30 6949 C 634.763 -4.258 0.433437 0
M  V30 6950 C 634.089 -5.32605 -0.472889 0
M  V30 6951 C 635.389 -4.94549 1.67984 0
M  V30 6952 H 637.083 -2.73325 1.22205 0
M  V30 6953 H 634.629 -1.314 0.589073 0
M  V30 6954 H 636.582 -4.14398 -0.765024 0
M  V30 6955 H 635.306 -3.00875 -1.2705 0
M  V30 6956 H 633.965 -3.58125 0.783723 0
M  V30 6957 H 633.613 -4.84702 -1.34435 0
M  V30 6958 H 633.313 -5.87547 0.0789958 0
M  V30 6959 H 634.837 -6.04832 -0.837269 0
M  V30 6960 H 636.251 -5.56395 1.38192 0
M  V30 6961 H 634.648 -5.59393 2.17254 0
M  V30 6962 H 635.718 -4.20215 2.41965 0
M  V30 6963 N 637.061 -0.65484 -1.43351 0
M  V30 6964 C 638.024 0.0263562 -2.29185 0
M  V30 6965 C 639.024 0.748951 -1.42293 0
M  V30 6966 O 640.214 0.589957 -1.63906 0
M  V30 6967 C 637.346 1.04806 -3.2439 0
M  V30 6968 H 638.539 -0.728883 -2.90908 0
M  V30 6969 H 636.092 -0.416149 -1.50658 0
M  V30 6970 H 636.827 1.83247 -2.67565 0
M  V30 6971 H 636.612 0.533554 -3.88453 0
M  V30 6972 H 638.102 1.52372 -3.88809 0
M  V30 6973 N 638.539 1.52521 -0.396863 0
M  V30 6974 C 639.95 1.86547 0.0754868 0
M  V30 6975 C 640.301 1.31621 1.45501 0
M  V30 6976 O 639.426 0.650563 2.0639 0
M  V30 6977 C 640.021 3.38495 0.143754 0
M  V30 6978 C 638.58 3.72205 0.560413 0
M  V30 6979 C 637.727 2.75954 -0.272856 0
M  V30 6980 H 640.678 1.46323 -0.614434 0
M  V30 6981 H 640.699 3.68153 0.961425 0
M  V30 6982 H 640.211 3.78442 -0.860415 0
M  V30 6983 H 638.312 3.3783 1.57167 0
M  V30 6984 H 638.425 4.78074 0.313314 0
M  V30 6985 H 636.789 2.53339 0.263 0
M  V30 6986 H 637.572 3.1874 -1.27515 0
M  V30 6987 N 640.017 0.126909 1.57088 0
M  V30 6988 C 641.428 -0.397201 1.82426 0
M  V30 6989 C 641.779 -1.66084 1.04453 0
M  V30 6990 O 640.904 -2.14534 0.283552 0
M  V30 6991 C 641.499 -0.727411 3.30899 0
M  V30 6992 C 640.058 -1.19612 3.56889 0
M  V30 6993 C 639.205 -0.20885 2.76512 0
M  V30 6994 H 642.156 0.351924 1.54749 0
M  V30 6995 H 642.177 -1.58407 3.45959 0
M  V30 6996 H 641.689 0.19247 3.87622 0
M  V30 6997 H 639.79 -2.13263 3.05532 0
M  V30 6998 H 639.903 -1.13598 4.65438 0
M  V30 6999 H 638.267 -0.697479 2.44964 0
M  V30 7000 H 639.05 0.704267 3.35998 0
M  V30 7001 N 641.495 -1.56914 -0.146875 0
M  V30 7002 C 642.425 -2.01308 -1.1831 0
M  V30 7003 C 643.406 -0.892664 -1.44795 0
M  V30 7004 O 644.591 -1.16048 -1.55713 0
M  V30 7005 C 641.721 -2.3938 -2.51624 0
M  V30 7006 C 640.675 -3.54608 -2.3966 0
M  V30 7007 C 640.001 -3.78493 -3.77686 0
M  V30 7008 C 641.301 -4.87269 -1.88058 0
M  V30 7009 H 642.995 -2.88123 -0.813964 0
M  V30 7010 H 640.541 -1.38615 -0.3901 0
M  V30 7011 H 642.494 -2.69037 -3.24341 0
M  V30 7012 H 641.218 -1.49502 -2.90373 0
M  V30 7013 H 639.877 -3.25116 -1.69396 0
M  V30 7014 H 639.525 -2.85866 -4.13871 0
M  V30 7015 H 639.225 -4.56039 -3.70543 0
M  V30 7016 H 640.749 -4.10576 -4.51951 0
M  V30 7017 H 642.163 -5.15644 -2.50568 0
M  V30 7018 H 640.56 -5.68622 -1.91805 0
M  V30 7019 H 641.63 -4.77634 -0.836277 0
M  V30 7020 N 642.974 0.416227 -1.52004 0
M  V30 7021 C 644.202 1.18573 -1.69553 0
M  V30 7022 C 644.617 1.84472 -0.401919 0
M  V30 7023 O 643.974 1.71593 0.621463 0
M  V30 7024 C 644.025 2.25413 -2.82615 0
M  V30 7025 O 643.746 1.62205 -4.06966 0
M  V30 7026 C 645.247 3.15297 -3.11613 0
M  V30 7027 H 642.467 0.356582 -0.56841 0
M  V30 7028 H 645.011 0.490618 -1.98528 0
M  V30 7029 H 643.166 2.90604 -2.56179 0
M  V30 7030 H 643.58 2.3298 -4.69916 0
M  V30 7031 H 645.054 3.86351 -3.94255 0
M  V30 7032 H 645.531 3.77264 -2.24874 0
M  V30 7033 H 646.137 2.55783 -3.39787 0
M  V30 7034 N 644.452 1.42507 0.673017 0
M  V30 7035 C 645.698 1.44282 1.43367 0
M  V30 7036 C 646.053 0.0588239 1.9231 0
M  V30 7037 O 645.346 -0.919288 1.68106 0
M  V30 7038 C 645.54 2.40351 2.64511 0
M  V30 7039 C 645.369 3.87955 2.27423 0
M  V30 7040 C 644.139 4.56476 2.16697 0
M  V30 7041 C 646.337 4.7833 1.88957 0
M  V30 7042 N 644.319 5.89099 1.72731 0
M  V30 7043 C 645.69 6.00073 1.55923 0
M  V30 7044 C 647.745 4.65769 1.75965 0
M  V30 7045 C 646.448 7.10652 1.112 0
M  V30 7046 C 648.474 5.76332 1.32647 0
M  V30 7047 C 647.836 6.97188 1.00538 0
M  V30 7048 H 643.935 0.583134 0.521036 0
M  V30 7049 H 646.519 1.78547 0.776481 0
M  V30 7050 H 644.69 2.08145 3.27918 0
M  V30 7051 H 646.422 2.32694 3.31113 0
M  V30 7052 H 643.177 4.10712 2.35823 0
M  V30 7053 H 643.601 6.59446 1.53166 0
M  V30 7054 H 648.243 3.72808 1.99435 0
M  V30 7055 H 645.961 8.0346 0.864768 0
M  V30 7056 H 649.547 5.68625 1.23112 0
M  V30 7057 H 648.427 7.81287 0.675283 0
M  V30 7058 N 645.93 -0.909495 1.28709 0
M  V30 7059 C 646.84 -2.04558 1.14861 0
M  V30 7060 C 647.856 -1.73842 0.0741621 0
M  V30 7061 O 649.032 -1.99383 0.2843 0
M  V30 7062 C 646.097 -3.36957 0.816148 0
M  V30 7063 C 645.158 -3.81255 1.97341 0
M  V30 7064 C 644.391 -5.07335 1.65671 0
M  V30 7065 O 644.614 -5.67514 0.573053 0
M  V30 7066 O 643.548 -5.47449 2.50167 0
M  V30 7067 H 647.374 -2.19161 2.10243 0
M  V30 7068 H 644.959 -1.03159 1.08068 0
M  V30 7069 H 646.841 -4.16436 0.644873 0
M  V30 7070 H 645.516 -3.2352 -0.107983 0
M  V30 7071 H 644.423 -3.02584 2.19986 0
M  V30 7072 H 645.756 -3.99261 2.87839 0
M  V30 7073 N 647.408 -1.11026 -1.11852 0
M  V30 7074 C 648.656 -0.854769 -1.83134 0
M  V30 7075 C 648.977 0.621375 -1.84835 0
M  V30 7076 O 648.247 1.45129 -1.31584 0
M  V30 7077 H 646.827 -0.313229 -0.678157 0
M  V30 7078 H 649.489 -1.40178 -1.35411 0
M  V30 7079 H 648.585 -1.22311 -2.87135 0
M  V30 7080 N 648.886 1.2938 -0.899927 0
M  V30 7081 C 650.116 1.99402 -0.540601 0
M  V30 7082 C 650.524 1.67534 0.87914 0
M  V30 7083 O 649.867 0.916821 1.59186 0
M  V30 7084 C 649.929 3.53514 -0.653326 0
M  V30 7085 C 649.593 4.08937 -2.04009 0
M  V30 7086 C 650.59 4.23815 -3.01126 0
M  V30 7087 C 648.275 4.43962 -2.34953 0
M  V30 7088 C 650.269 4.72951 -4.27313 0
M  V30 7089 C 647.956 4.92795 -3.61382 0
M  V30 7090 C 648.954 5.07244 -4.57376 0
M  V30 7091 O 648.642 5.55017 -5.8156 0
M  V30 7092 H 648.374 0.64383 -0.206057 0
M  V30 7093 H 650.928 1.65878 -1.21134 0
M  V30 7094 H 649.158 3.86628 0.0744449 0
M  V30 7095 H 650.847 4.04767 -0.303118 0
M  V30 7096 H 651.613 3.97043 -2.78535 0
M  V30 7097 H 647.492 4.31974 -1.60994 0
M  V30 7098 H 651.036 4.84144 -5.02245 0
M  V30 7099 H 646.933 5.19004 -3.83804 0
M  V30 7100 H 647.701 5.73331 -5.84153 0
M  V30 7101 N 650.364 0.662433 1.43002 0
M  V30 7102 C 651.641 0.109096 1.95296 0
M  V30 7103 C 652.021 -1.37313 1.60338 0
M  V30 7104 O 651.369 -2.1032 0.893187 0
M  V30 7105 C 651.579 0.365096 3.47085 0
M  V30 7106 C 652.927 0.274964 4.23709 0
M  V30 7107 O 653.951 0.29816 3.5495 0
M  V30 7108 O 652.81 0.206549 5.4611 0
M  V30 7109 H 649.904 -0.00429724 0.826989 0
M  V30 7110 H 652.45 0.736308 1.52894 0
M  V30 7111 H 651.222 1.39237 3.65689 0
M  V30 7112 H 650.845 -0.294733 3.96506 0
M  V30 7113 N 651.842 -1.52309 0.404946 0
M  V30 7114 C 653.253 -1.86585 -0.0655926 0
M  V30 7115 C 653.604 -1.3239 -1.44801 0
M  V30 7116 O 652.729 -0.6615 -2.06042 0
M  V30 7117 C 653.324 -3.38566 -0.125801 0
M  V30 7118 C 651.883 -3.72497 -0.540666 0
M  V30 7119 C 651.03 -2.75806 0.287487 0
M  V30 7120 H 653.981 -1.45995 0.622185 0
M  V30 7121 H 654.002 -3.68658 -0.941888 0
M  V30 7122 H 653.514 -3.77981 0.880473 0
M  V30 7123 H 651.615 -3.38659 -1.55373 0
M  V30 7124 H 651.728 -4.78234 -0.287956 0
M  V30 7125 H 650.092 -2.53474 -0.249561 0
M  V30 7126 H 650.875 -3.18059 1.29203 0
M  V30 7127 N 653.32 -0.135238 -1.57019 0
M  V30 7128 C 654.545 0.529343 -2.00531 0
M  V30 7129 C 654.97 1.58391 -1.01459 0
M  V30 7130 O 654.328 1.81296 0.0113986 0
M  V30 7131 C 654.376 1.11748 -3.42848 0
M  V30 7132 O 653.48 2.23267 -3.46736 0
M  V30 7133 H 652.821 0.130669 -0.651016 0
M  V30 7134 H 655.351 -0.228503 -2.0332 0
M  V30 7135 H 655.361 1.44905 -3.81401 0
M  V30 7136 H 654.036 0.345147 -4.14465 0
M  V30 7137 H 652.613 1.91428 -3.20015 0
M  V30 7138 N 654.798 1.5699 0.138552 0
M  V30 7139 C 656.044 1.84966 0.846116 0
M  V30 7140 C 656.399 0.72038 1.78405 0
M  V30 7141 O 655.692 -0.281076 1.89527 0
M  V30 7142 C 655.886 3.17007 1.65049 0
M  V30 7143 C 655.715 4.42672 0.79194 0
M  V30 7144 C 654.485 5.03254 0.454293 0
M  V30 7145 C 656.683 5.14164 0.118419 0
M  V30 7146 N 654.665 6.12482 -0.416964 0
M  V30 7147 C 656.036 6.16966 -0.61263 0
M  V30 7148 C 658.091 4.97884 0.0399671 0
M  V30 7149 C 656.794 7.0525 -1.41473 0
M  V30 7150 C 658.82 5.86639 -0.748901 0
M  V30 7151 C 658.182 6.88929 -1.4682 0
M  V30 7152 H 654.281 0.727362 0.287172 0
M  V30 7153 H 656.865 1.94383 0.110972 0
M  V30 7154 H 655.036 3.08722 2.35681 0
M  V30 7155 H 656.768 3.3286 2.30187 0
M  V30 7156 H 653.523 4.6693 0.792038 0
M  V30 7157 H 653.947 6.7172 -0.843865 0
M  V30 7158 H 658.589 4.18779 0.581728 0
M  V30 7159 H 656.307 7.83777 -1.96772 0
M  V30 7160 H 659.893 5.7611 -0.811705 0
M  V30 7161 H 658.773 7.56419 -2.06882 0
M  V30 7162 N 656.276 -0.40816 1.52223 0
M  V30 7163 C 657.224 -1.51788 1.76248 0
M  V30 7164 C 658.218 -1.57264 0.629638 0
M  V30 7165 O 659.424 -1.60659 0.811704 0
M  V30 7166 H 655.799 -0.504823 0.557367 0
M  V30 7167 H 657.77 -1.2871 2.69214 0
M  V30 7168 C 656.519 -2.89145 1.93107 0
M  V30 7169 H 655.842 -2.85674 2.79697 0
M  V30 7170 H 657.282 -3.66082 2.13916 0
M  V30 7171 C 655.741 -3.29581 0.698431 0
M  V30 7172 O 656.271 -4.01479 -0.133238 0
M  V30 7173 N 654.477 -2.85651 0.53405 0
M  V30 7174 H 654.024 -2.2731 1.21194 0
M  V30 7175 H 653.982 -3.13065 -0.289387 0
M  V30 7176 O 657.793 -1.51699 -0.554045 0
M  V30 7177 H 658.484 -1.51323 -1.20918 0
M  V30 END ATOM
M  V30 BEGIN BOND
M  V30 END BOND
M  V30 END CTAB
M  END
$$$$
