drugbank_target|O14983 Sarcoplasmic/endoplasmic reticulum calcium ATPase 1 (DB00228; DB03909; DB04444; DB04638; DB07604)
 OpenBabel12092120433D

  0  0  0     0  0            999 V3000
M  V30 BEGIN CTAB
M  V30 COUNTS 15564 15703 0 0 0
M  V30 BEGIN ATOM
M  V30 1 H -0.908 1.98254 -0.117106 0
M  V30 2 N 0 1.576 0 0
M  V30 3 C 0.933 2.03868 1.02534 0
M  V30 4 C 1.911 0.928543 1.3348 0
M  V30 5 O 3.095 1.19667 1.45644 0
M  V30 6 C 0.222 2.43627 2.35294 0
M  V30 7 C -0.732 3.65373 2.2001 0
M  V30 8 S 0.101 5.13292 1.52614 0
M  V30 9 C 1.257 5.56322 2.86805 0
M  V30 10 H 1.49 2.90518 0.631377 0
M  V30 11 H -0.977 1.52953 0.210867 0
M  V30 12 H 0.981 2.67203 3.11629 0
M  V30 13 H -0.358 1.57376 2.7183 0
M  V30 14 H -1.165 3.90944 3.18086 0
M  V30 15 H -1.563 3.418 1.51819 0
M  V30 16 H 0.729 5.58782 3.83104 0
M  V30 17 H 1.672 6.56266 2.65933 0
M  V30 18 H 2.08 4.83886 2.90714 0
M  V30 19 N 1.4781 -0.272755 1.55222 0
M  V30 20 C 2.3881 -1.35918 1.91216 0
M  V30 21 C 3.4041 -1.54026 0.809436 0
M  V30 22 O 4.5801 -1.68148 1.10852 0
M  V30 23 C 1.6451 -2.69834 2.17693 0
M  V30 24 C 0.7061 -2.6047 3.41253 0
M  V30 25 C -0.0609 -3.88 3.66458 0
M  V30 26 O 0.1621 -4.88693 2.94169 0
M  V30 27 O -0.9039 -3.88189 4.59992 0
M  V30 28 H 2.9221 -1.0839 2.83699 0
M  V30 29 H 0.5071 -0.471301 1.41771 0
M  V30 30 H 2.3891 -3.49017 2.36147 0
M  V30 31 H 1.0641 -2.97148 1.28392 0
M  V30 32 H -0.0289 -1.79663 3.28134 0
M  V30 33 H 1.3041 -2.38106 4.30774 0
M  V30 34 N 2.9562 -1.48159 -0.537278 0
M  V30 35 C 3.9192 -1.61665 -1.62472 0
M  V30 36 C 4.9192 -0.490395 -1.5314 0
M  V30 37 O 6.1092 -0.755998 -1.5694 0
M  V30 38 C 3.2412 -1.57997 -3.02076 0
M  V30 39 H 4.4342 -2.58621 -1.51839 0
M  V30 40 H 1.9872 -1.36647 -0.758771 0
M  V30 41 H 2.7222 -0.624913 -3.18222 0
M  V30 42 H 2.5072 -2.39755 -3.10258 0
M  V30 43 H 3.9972 -1.70627 -3.81151 0
M  V30 44 N 4.4343 0.785586 -1.36625 0
M  V30 45 C 5.3973 1.87999 -1.31107 0
M  V30 46 C 6.3973 1.59316 -0.217959 0
M  V30 47 O 7.5873 1.67656 -0.472977 0
M  V30 48 C 4.7193 3.24861 -1.03334 0
M  V30 49 H 5.9123 1.94307 -2.2844 0
M  V30 50 H 3.4653 0.983813 -1.21453 0
M  V30 51 H 4.2003 3.24235 -0.0647432 0
M  V30 52 H 3.9853 3.4707 -1.82441 0
M  V30 53 H 5.4753 4.04929 -1.02088 0
M  V30 54 N 5.9124 1.20967 1.01018 0
M  V30 55 C 6.8624 0.93182 2.08089 0
M  V30 56 C 7.8464 -0.110898 1.60517 0
M  V30 57 O 9.0384 0.0973392 1.76732 0
M  V30 58 C 6.1674 0.492719 3.39746 0
M  V30 59 C 5.2534 1.56922 3.94 0
M  V30 60 N 5.6444 2.79312 4.21686 0
M  V30 61 C 3.9424 1.43688 4.2222 0
M  V30 62 C 4.6434 3.48797 4.65527 0
M  V30 63 N 3.6194 2.76224 4.68189 0
M  V30 64 H 7.4214 1.86175 2.27412 0
M  V30 65 H 4.9354 1.10463 1.19045 0
M  V30 66 H 6.9324 0.275044 4.15992 0
M  V30 67 H 5.5924 -0.430509 3.21833 0
M  V30 68 H 6.6034 3.15903 4.10397 0
M  V30 69 H 3.2804 0.578548 4.13472 0
M  V30 70 H 4.6704 4.53561 4.95714 0
M  V30 71 N 7.3905 -1.2043 1.01659 0
M  V30 72 C 8.3535 -2.21433 0.591616 0
M  V30 73 C 9.3535 -1.57203 -0.338226 0
M  V30 74 O 10.5435 -1.73737 -0.126918 0
M  V30 75 C 7.6755 -3.40628 -0.136058 0
M  V30 76 H 8.8685 -2.60545 1.48514 0
M  V30 77 H 6.4215 -1.33893 0.806379 0
M  V30 78 H 7.1565 -3.07019 -1.04449 0
M  V30 79 H 6.9415 -3.88475 0.531917 0
M  V30 80 H 8.4315 -4.15475 -0.420735 0
M  V30 81 N 8.8686 -0.792821 -1.36206 0
M  V30 82 C 9.8156 -0.191653 -2.30003 0
M  V30 83 C 10.7856 0.666453 -1.52143 0
M  V30 84 O 11.9706 0.61442 -1.80636 0
M  V30 85 C 9.1106 0.664848 -3.38635 0
M  V30 86 C 8.2236 -0.212175 -4.31479 0
M  V30 87 C 7.3586 0.651022 -5.27196 0
M  V30 88 C 6.3976 -0.227247 -6.11678 0
M  V30 89 N 5.5346 0.595127 -6.99573 0
M  V30 90 H 10.3746 -0.996978 -2.80828 0
M  V30 91 H 7.9116 -0.503206 -1.38225 0
M  V30 92 H 9.8696 1.17645 -4.00269 0
M  V30 93 H 8.4996 1.43557 -2.89122 0
M  V30 94 H 7.5516 -0.841777 -3.70969 0
M  V30 95 H 8.8636 -0.888751 -4.90818 0
M  V30 96 H 8.0176 1.2283 -5.94136 0
M  V30 97 H 6.7566 1.36121 -4.68319 0
M  V30 98 H 5.7616 -0.816904 -5.43697 0
M  V30 99 H 6.9866 -0.93509 -6.72631 0
M  V30 100 H 4.9326 1.28955 -6.432 0
M  V30 101 H 4.8496 -0.0236952 -7.55996 0
M  V30 102 H 6.1176 1.15613 -7.70879 0
M  V30 103 N 10.3467 1.47872 -0.545128 0
M  V30 104 C 11.5747 2.06889 -0.021084 0
M  V30 105 C 11.9897 1.39955 1.2672 0
M  V30 106 O 11.3467 0.492036 1.75742 0
M  V30 107 C 11.3977 3.60996 0.190817 0
M  V30 108 O 11.1187 4.25419 -1.04644 0
M  V30 109 C 12.6197 4.36849 0.753521 0
M  V30 110 H 9.8397 0.669785 -0.0403635 0
M  V30 111 H 12.3837 1.90049 -0.755095 0
M  V30 112 H 10.5387 3.77391 0.87492 0
M  V30 113 H 10.9527 5.17785 -0.836611 0
M  V30 114 H 12.4267 5.45399 0.851139 0
M  V30 115 H 12.9037 4.02306 1.762 0
M  V30 116 H 13.5097 4.25169 0.105503 0
M  V30 117 N 11.8248 0.280983 1.55075 0
M  V30 118 C 13.0528 -0.337293 2.04132 0
M  V30 119 C 13.4678 -1.4903 1.15912 0
M  V30 120 O 12.8248 -1.81606 0.180459 0
M  V30 121 C 12.8758 -0.812706 3.52246 0
M  V30 122 O 12.5968 0.294387 4.3711 0
M  V30 123 C 14.0978 -1.4982 4.17216 0
M  V30 124 H 11.3178 -0.0761638 0.666663 0
M  V30 125 H 13.8618 0.414787 2.00249 0
M  V30 126 H 12.0168 -1.51486 3.56554 0
M  V30 127 H 12.4308 -0.0721325 5.2445 0
M  V30 128 H 13.9048 -1.7822 5.22438 0
M  V30 129 H 14.3818 -2.43168 3.65741 0
M  V30 130 H 14.9878 -0.839742 4.16927 0
M  V30 131 N 13.3029 -1.57598 0.00835791 0
M  V30 132 C 14.2129 -2.12385 -0.996487 0
M  V30 133 C 15.2289 -1.07108 -1.37127 0
M  V30 134 O 16.4049 -1.39055 -1.4569 0
M  V30 135 C 13.4699 -2.62314 -2.26699 0
M  V30 136 C 12.5309 -3.82225 -1.95456 0
M  V30 137 C 11.7639 -4.29763 -3.16449 0
M  V30 138 O 11.9869 -3.76584 -4.28416 0
M  V30 139 O 10.9209 -5.21832 -2.99958 0
M  V30 140 H 14.7469 -2.98479 -0.560725 0
M  V30 141 H 12.3319 -1.47903 -0.210987 0
M  V30 142 H 14.2139 -2.94589 -3.01322 0
M  V30 143 H 12.8889 -1.79313 -2.69497 0
M  V30 144 H 11.7959 -3.54909 -1.18282 0
M  V30 145 H 13.1289 -4.66324 -1.57489 0
M  V30 146 N 14.781 0.264519 -1.55364 0
M  V30 147 C 15.691 1.34902 -1.91934 0
M  V30 148 C 16.707 1.53595 -0.817593 0
M  V30 149 O 17.883 1.67558 -1.11742 0
M  V30 150 C 14.948 2.68676 -2.19121 0
M  V30 151 C 14.009 2.58657 -3.4263 0
M  V30 152 C 13.242 3.86051 -3.68511 0
M  V30 153 O 13.465 4.87126 -2.96757 0
M  V30 154 O 12.399 3.85744 -4.62045 0
M  V30 155 H 16.225 1.06883 -2.8427 0
M  V30 156 H 13.81 0.463775 -1.42019 0
M  V30 157 H 15.692 3.47759 -2.37995 0
M  V30 158 H 14.367 2.96463 -1.29966 0
M  V30 159 H 13.274 1.7792 -3.29082 0
M  V30 160 H 14.607 2.35818 -4.32031 0
M  V30 161 N 16.2591 1.48442 0.529413 0
M  V30 162 C 17.4991 1.58086 1.29569 0
M  V30 163 C 17.8631 0.249302 1.90375 0
M  V30 164 O 19.0641 0.220738 2.67892 0
M  V30 165 C 17.3351 2.68793 2.35552 0
M  V30 166 S 18.8941 2.98207 3.21898 0
M  V30 167 H 15.7121 0.557922 0.440732 0
M  V30 168 H 18.3141 1.85966 0.603059 0
M  V30 169 H 17.0181 3.64102 1.89363 0
M  V30 170 H 16.5491 2.42817 3.09522 0
M  V30 171 H 18.5641 2.37548 4.35644 0
M  V30 172 N 17.7372 -0.778329 1.37039 0
M  V30 173 C 18.6672 -1.90546 1.34962 0
M  V30 174 C 19.6482 -1.68681 0.219274 0
M  V30 175 O 20.8332 -1.89634 0.418624 0
M  V30 176 C 17.9632 -3.27734 1.14925 0
M  V30 177 C 16.9172 -3.64147 2.24902 0
M  V30 178 C 16.2432 -4.99806 1.89996 0
M  V30 179 C 17.5432 -3.71579 3.67051 0
M  V30 180 H 19.2372 -1.92541 2.29277 0
M  V30 181 H 16.7832 -0.924948 1.10366 0
M  V30 182 H 18.7362 -4.06215 1.12104 0
M  V30 183 H 17.4602 -3.26154 0.170631 0
M  V30 184 H 16.1192 -2.8797 2.26868 0
M  V30 185 H 15.7672 -4.94759 0.906796 0
M  V30 186 H 15.4672 -5.25139 2.63634 0
M  V30 187 H 16.9912 -5.80694 1.88749 0
M  V30 188 H 18.4052 -4.40227 3.67251 0
M  V30 189 H 16.8022 -4.08405 4.39688 0
M  V30 190 H 17.8722 -2.72404 4.01154 0
M  V30 191 N 19.2153 -1.21501 -1.00376 0
M  V30 192 C 20.1783 -0.976927 -2.07337 0
M  V30 193 C 21.1783 0.0525322 -1.60714 0
M  V30 194 O 22.3683 -0.184869 -1.73216 0
M  V30 195 C 19.5003 -0.473423 -3.37597 0
M  V30 196 H 20.6933 -1.92587 -2.29892 0
M  V30 197 H 18.2463 -1.03217 -1.17371 0
M  V30 198 H 18.9813 0.480379 -3.20722 0
M  V30 199 H 18.7663 -1.216 -3.72768 0
M  V30 200 H 20.2563 -0.32675 -4.1632 0
M  V30 201 N 20.6934 1.19889 -1.02296 0
M  V30 202 C 21.9234 1.93109 -0.734332 0
M  V30 203 C 22.3314 1.75377 0.709889 0
M  V30 204 O 21.6744 1.06912 1.49384 0
M  V30 205 C 21.7364 3.45362 -0.99827 0
M  V30 206 C 21.4004 3.8686 -2.43287 0
M  V30 207 C 22.3974 3.92102 -3.41397 0
M  V30 208 C 20.0824 4.18668 -2.77529 0
M  V30 209 C 22.0764 4.28573 -4.71809 0
M  V30 210 C 19.7634 4.54813 -4.08153 0
M  V30 211 C 20.7614 4.59739 -5.05103 0
M  V30 212 O 20.4494 4.95051 -6.33388 0
M  V30 213 H 20.1814 0.620409 -0.268456 0
M  V30 214 H 22.7354 1.53144 -1.3688 0
M  V30 215 H 20.9654 3.85482 -0.306645 0
M  V30 216 H 22.6544 3.99814 -0.700234 0
M  V30 217 H 23.4204 3.67685 -3.1628 0
M  V30 218 H 19.2994 4.14021 -2.0275 0
M  V30 219 H 22.8434 4.32333 -5.4748 0
M  V30 220 H 18.7404 4.78687 -4.33047 0
M  V30 221 H 19.5084 5.1302 -6.37772 0
M  V30 222 N 22.1715 0.800033 1.35784 0
M  V30 223 C 23.4185 0.377342 1.98953 0
M  V30 224 C 23.7465 -1.05378 1.6348 0
M  V30 225 O 23.0015 -1.74459 0.886707 0
M  V30 226 C 23.3005 0.500276 3.53881 0
M  V30 227 C 22.9665 1.89375 4.09204 0
M  V30 228 C 21.6285 2.27499 4.24025 0
M  V30 229 C 23.9805 2.8057 4.39238 0
M  V30 230 C 21.3085 3.562 4.66195 0
M  V30 231 C 23.6605 4.0871 4.82844 0
M  V30 232 C 22.3245 4.46843 4.95871 0
M  V30 233 H 21.5945 0.138079 0.728021 0
M  V30 234 H 24.2415 1.01955 1.62103 0
M  V30 235 H 22.5465 -0.225405 3.91151 0
M  V30 236 H 24.2435 0.154097 4.00704 0
M  V30 237 H 20.8335 1.58753 3.98115 0
M  V30 238 H 25.0175 2.52367 4.27346 0
M  V30 239 H 20.2735 3.85602 4.74469 0
M  V30 240 H 24.4475 4.79481 5.05046 0
M  V30 241 H 22.0745 5.46623 5.28306 0
M  V30 242 N 23.6496 -1.47581 0.552962 0
M  V30 243 C 24.8976 -2.02082 0.0272703 0
M  V30 244 C 25.2186 -1.4301 -1.32563 0
M  V30 245 O 24.4886 -0.603745 -1.86365 0
M  V30 246 H 23.0686 -0.746966 0.00709182 0
M  V30 247 H 25.7306 -1.81033 0.722008 0
M  V30 248 H 24.8266 -3.12034 -0.0639951 0
M  V30 249 N 25.1277 -0.289203 -1.54924 0
M  V30 250 C 26.3737 0.323998 -2.00195 0
M  V30 251 C 26.7067 1.54441 -1.17735 0
M  V30 252 O 25.9817 1.92875 -0.250878 0
M  V30 253 C 26.2647 0.692276 -3.53383 0
M  V30 254 C 26.1177 -0.536457 -4.46589 0
M  V30 255 C 27.4367 1.52335 -4.12895 0
M  V30 256 H 24.5557 0.116289 -0.727768 0
M  V30 257 H 27.1977 -0.398954 -1.85764 0
M  V30 258 H 25.3477 1.30822 -3.65811 0
M  V30 259 H 27.0197 -1.17499 -4.46085 0
M  V30 260 H 25.2627 -1.17192 -4.1767 0
M  V30 261 H 25.9337 -0.234806 -5.515 0
M  V30 262 H 28.4097 1.00302 -4.0383 0
M  V30 263 H 27.2857 1.74982 -5.20262 0
M  V30 264 H 27.5467 2.50886 -3.64018 0
M  V30 265 N 26.6058 1.57591 -0.0167156 0
M  V30 266 C 27.8308 1.9598 0.67872 0
M  V30 267 C 28.2558 0.892546 1.65575 0
M  V30 268 O 27.6138 -0.147772 1.80697 0
M  V30 269 C 27.6618 3.33468 1.37227 0
M  V30 270 O 26.7658 3.28954 2.48722 0
M  V30 271 H 26.1068 0.639339 0.17928 0
M  V30 272 H 28.6368 2.04463 -0.0748802 0
M  V30 273 H 28.6468 3.69417 1.7319 0
M  V30 274 H 27.3218 4.10694 0.656007 0
M  V30 275 H 25.8988 3.04705 2.14963 0
M  V30 276 N 28.0839 -0.256276 1.55502 0
M  V30 277 C 28.9939 -1.33882 1.92647 0
M  V30 278 C 30.0099 -1.53159 0.825727 0
M  V30 279 O 31.1859 -1.66963 1.12629 0
M  V30 280 C 28.2509 -2.6751 2.20543 0
M  V30 281 C 27.3119 -2.56836 3.43997 0
M  V30 282 C 26.5449 -3.84092 3.70553 0
M  V30 283 O 26.7679 -4.85545 2.99336 0
M  V30 284 O 25.7019 -3.83288 4.64084 0
M  V30 285 H 29.5279 -1.05374 2.84833 0
M  V30 286 H 27.1129 -0.456237 1.42263 0
M  V30 287 H 28.9949 -3.46492 2.39835 0
M  V30 288 H 27.6699 -2.9577 1.31536 0
M  V30 289 H 26.5769 -1.76172 3.30021 0
M  V30 290 H 27.9099 -2.33523 4.33275 0
M  V30 291 N 29.562 -1.4872 -0.521534 0
M  V30 292 C 30.79 -1.60843 -1.30142 0
M  V30 293 C 31.205 -0.271897 -1.86832 0
M  V30 294 O 30.562 0.739969 -1.66825 0
M  V30 295 C 30.613 -2.66155 -2.4463 0
M  V30 296 O 30.334 -3.94623 -1.90275 0
M  V30 297 C 31.835 -2.88795 -3.36322 0
M  V30 298 H 29.055 -0.542075 -0.395468 0
M  V30 299 H 31.599 -1.94609 -0.628285 0
M  V30 300 H 29.754 -2.35224 -3.07812 0
M  V30 301 H 30.168 -4.52468 -2.65279 0
M  V30 302 H 31.642 -3.66264 -4.12983 0
M  V30 303 H 32.119 -1.97934 -3.9207 0
M  V30 304 H 32.725 -3.21063 -2.78924 0
M  V30 305 N 31.0401 0.771051 -1.3745 0
M  V30 306 C 32.2681 1.56015 -1.35893 0
M  V30 307 C 32.6831 1.88718 0.0555523 0
M  V30 308 O 32.0401 1.51502 1.01752 0
M  V30 309 C 32.0911 2.87001 -2.19801 0
M  V30 310 O 31.8121 2.557 -3.55738 0
M  V30 311 C 33.3131 3.81228 -2.26231 0
M  V30 312 H 30.5331 0.483317 -0.465453 0
M  V30 313 H 33.0771 0.955611 -1.80799 0
M  V30 314 H 31.2321 3.43877 -1.78402 0
M  V30 315 H 31.6461 3.39584 -3.99729 0
M  V30 316 H 33.1201 4.70139 -2.89263 0
M  V30 317 H 33.5971 4.20409 -1.27093 0
M  V30 318 H 34.2031 3.30281 -2.67945 0
M  V30 319 N 32.5182 1.22032 0.997298 0
M  V30 320 C 33.7662 1.04016 1.73278 0
M  V30 321 C 34.0872 -0.426255 1.90284 0
M  V30 322 O 33.3572 -1.30694 1.45931 0
M  V30 323 H 31.9372 0.381897 0.642 0
M  V30 324 H 34.5992 1.5347 1.20137 0
M  V30 325 H 33.6952 1.51441 2.72896 0
M  V30 326 N 33.9963 -1.19345 1.0293 0
M  V30 327 C 34.9263 -2.2481 0.631105 0
M  V30 328 C 35.9073 -1.66245 -0.360104 0
M  V30 329 O 37.0923 -1.92677 -0.242726 0
M  V30 330 C 34.2223 -3.47295 -0.0184607 0
M  V30 331 C 33.1763 -4.18536 0.895073 0
M  V30 332 C 32.5023 -5.34586 0.110592 0
M  V30 333 C 33.8023 -4.73287 2.209 0
M  V30 334 H 35.4963 -2.58372 1.51275 0
M  V30 335 H 33.0423 -1.24194 0.728818 0
M  V30 336 H 34.9953 -4.20268 -0.308675 0
M  V30 337 H 33.7193 -3.12933 -0.934907 0
M  V30 338 H 32.3783 -3.47446 1.16949 0
M  V30 339 H 32.0263 -4.96469 -0.807902 0
M  V30 340 H 31.7263 -5.83183 0.719087 0
M  V30 341 H 33.2503 -6.10355 -0.172871 0
M  V30 342 H 34.6643 -5.38013 1.98028 0
M  V30 343 H 33.0613 -5.32373 2.76946 0
M  V30 344 H 34.1313 -3.91331 2.86336 0
M  V30 345 N 35.4744 -0.807222 -1.35358 0
M  V30 346 C 36.7024 -0.400377 -2.02989 0
M  V30 347 C 37.1174 0.988859 -1.60832 0
M  V30 348 O 36.4744 1.63729 -0.806175 0
M  V30 349 C 36.5254 -0.474867 -3.58368 0
M  V30 350 O 36.2464 -1.80933 -3.98992 0
M  V30 351 C 37.7474 -0.0609112 -4.43258 0
M  V30 352 H 34.9674 -0.162587 -0.651004 0
M  V30 353 H 37.5114 -1.09102 -1.72965 0
M  V30 354 H 35.6664 0.167534 -3.87038 0
M  V30 355 H 36.0804 -1.77256 -4.9364 0
M  V30 356 H 37.5544 -0.164145 -5.51756 0
M  V30 357 H 38.0314 0.993831 -4.27808 0
M  V30 358 H 38.6374 -0.676492 -4.19885 0
M  V30 359 N 36.9525 1.47285 -0.560781 0
M  V30 360 C 38.3635 1.86258 -0.128343 0
M  V30 361 C 38.7145 1.46699 1.30284 0
M  V30 362 O 37.8395 0.871698 1.98067 0
M  V30 363 C 38.4345 3.38044 -0.22614 0
M  V30 364 C 36.9935 3.76096 0.151283 0
M  V30 365 C 36.1405 2.71335 -0.572084 0
M  V30 366 H 39.0915 1.38752 -0.770297 0
M  V30 367 H 39.1125 3.76441 0.554322 0
M  V30 368 H 38.6245 3.66806 -1.26788 0
M  V30 369 H 36.7255 3.52951 1.19399 0
M  V30 370 H 36.8385 4.78641 -0.209765 0
M  V30 371 H 35.2025 2.54696 -0.0147653 0
M  V30 372 H 35.9855 3.02938 -1.61504 0
M  V30 373 N 38.4306 0.297415 1.54768 0
M  V30 374 C 39.7076 -0.365847 1.92148 0
M  V30 375 C 40.0876 -1.71975 1.22424 0
M  V30 376 O 39.4356 -2.25666 0.358739 0
M  V30 377 C 39.6456 -0.484056 3.45627 0
M  V30 378 C 40.9936 -0.756594 4.17805 0
M  V30 379 O 42.0176 -0.568007 3.51642 0
M  V30 380 O 40.8766 -1.11863 5.34929 0
M  V30 381 H 37.9706 -0.203919 0.801465 0
M  V30 382 H 40.5166 0.34521 1.66152 0
M  V30 383 H 39.2886 0.467865 3.88493 0
M  V30 384 H 38.9116 -1.24372 3.77647 0
M  V30 385 N 39.9087 -1.5758 0.0250728 0
M  V30 386 C 40.8407 -2.06869 -0.986796 0
M  V30 387 C 41.8537 -0.991332 -1.29137 0
M  V30 388 O 43.0427 -1.26761 -1.25674 0
M  V30 389 C 40.1427 -2.47486 -2.31525 0
M  V30 390 C 39.3157 -3.78253 -2.19643 0
M  V30 391 C 38.3747 -4.05464 -3.35388 0
M  V30 392 O 37.4007 -4.75774 -3.12454 0
M  V30 393 N 38.6027 -3.55321 -4.59051 0
M  V30 394 H 41.3677 -2.94302 -0.566276 0
M  V30 395 H 38.9287 -1.6109 -0.161776 0
M  V30 396 H 40.9207 -2.62785 -3.07776 0
M  V30 397 H 39.4907 -1.65441 -2.65232 0
M  V30 398 H 38.7107 -3.7279 -1.28144 0
M  V30 399 H 39.9987 -4.63936 -2.08903 0
M  V30 400 H 39.3967 -2.98431 -4.80578 0
M  V30 401 H 37.9537 -3.75905 -5.32483 0
M  V30 402 N 41.3868 0.248026 -1.55636 0
M  V30 403 C 42.6328 0.97767 -1.77678 0
M  V30 404 C 42.9658 1.85016 -0.590135 0
M  V30 405 O 42.2408 1.90095 0.411611 0
M  V30 406 C 42.5238 1.83914 -3.09593 0
M  V30 407 C 42.3768 0.99491 -4.38659 0
M  V30 408 C 43.6958 2.82183 -3.37729 0
M  V30 409 H 40.8148 0.354005 -0.646413 0
M  V30 410 H 43.4568 0.248253 -1.88371 0
M  V30 411 H 41.6068 2.46104 -3.00608 0
M  V30 412 H 43.2788 0.391789 -4.59633 0
M  V30 413 H 41.5218 0.299231 -4.32767 0
M  V30 414 H 42.1928 1.63145 -5.2734 0
M  V30 415 H 44.6688 2.30129 -3.4667 0
M  V30 416 H 43.5448 3.39582 -4.31249 0
M  V30 417 H 43.8058 3.58588 -2.58586 0
M  V30 418 N 42.8649 1.48995 0.513639 0
M  V30 419 C 43.8119 1.6473 1.61656 0
M  V30 420 C 44.7819 0.488984 1.58739 0
M  V30 421 O 45.9669 0.714478 1.76918 0
M  V30 422 C 43.1069 1.7082 2.99858 0
M  V30 423 C 42.2199 2.9787 3.12885 0
M  V30 424 C 41.3549 2.95017 4.41744 0
M  V30 425 C 40.3939 4.16702 4.48359 0
M  V30 426 N 39.5309 4.11832 5.68629 0
M  V30 427 H 44.3709 2.58909 1.47547 0
M  V30 428 H 41.9079 1.28382 0.71808 0
M  V30 429 H 43.8659 1.72331 3.79944 0
M  V30 430 H 42.4959 0.801181 3.12699 0
M  V30 431 H 41.5479 3.06029 2.25944 0
M  V30 432 H 42.8599 3.8786 3.13633 0
M  V30 433 H 42.0139 2.95021 5.30139 0
M  V30 434 H 40.7529 2.02784 4.43542 0
M  V30 435 H 39.7579 4.16955 3.58369 0
M  V30 436 H 40.9829 5.10113 4.48287 0
M  V30 437 H 38.9289 3.22428 5.71293 0
M  V30 438 H 38.8459 4.95543 5.7094 0
M  V30 439 H 40.1139 4.1592 6.59266 0
M  V30 440 N 44.343 -0.763751 1.37857 0
M  V30 441 C 45.759 -1.06542 1.18832 0
M  V30 442 C 45.959 -2.01478 0.0299722 0
M  V30 443 O 45.015 -2.4458 -0.627447 0
M  V30 444 C 46.328 -1.65525 2.51042 0
M  V30 445 C 47.876 -1.77745 2.57635 0
M  V30 446 C 48.351 -2.4014 3.89996 0
M  V30 447 N 49.842 -2.47582 3.91481 0
M  V30 448 C 50.577 -2.96732 4.9065 0
M  V30 449 N 50.073 -3.45993 6.00217 0
M  V30 450 N 51.866 -2.95679 4.78048 0
M  V30 451 H 44.017 -0.133556 2.1198 0
M  V30 452 H 46.28 -0.121879 0.940133 0
M  V30 453 H 45.986 -1.03236 3.36207 0
M  V30 454 H 45.86 -2.64719 2.68707 0
M  V30 455 H 48.247 -2.39164 1.72872 0
M  V30 456 H 48.328 -0.772836 2.43846 0
M  V30 457 H 47.972 -1.79358 4.75177 0
M  V30 458 H 47.902 -3.41223 4.01092 0
M  V30 459 H 50.393 -2.1273 3.12337 0
M  V30 460 H 50.706 -3.81922 6.7183 0
M  V30 461 H 49.051 -3.44077 6.03851 0
M  V30 462 H 52.242 -2.56499 3.91568 0
M  V30 463 H 52.415 -3.33672 5.55488 0
M  V30 464 N 45.8211 -1.22559 -0.990812 0
M  V30 465 C 46.7691 -0.994798 -2.10253 0
M  V30 466 C 47.7631 0.0627798 -1.69284 0
M  V30 467 O 48.9691 -0.0898392 -1.79776 0
M  V30 468 H 45.3441 -0.304527 -0.687581 0
M  V30 469 H 47.3151 -1.93812 -2.26891 0
M  V30 470 C 46.0641 -0.591439 -3.42633 0
M  V30 471 H 45.3871 -1.3969 -3.74602 0
M  V30 472 H 46.8271 -0.469385 -4.21394 0
M  V30 473 C 45.2861 0.699232 -3.29564 0
M  V30 474 O 45.8161 1.75112 -3.61523 0
M  V30 475 N 44.0221 0.671182 -2.82743 0
M  V30 476 H 43.5691 -0.185136 -2.56934 0
M  V30 477 H 43.5271 1.53502 -2.7438 0
M  V30 478 N 47.2992 1.18797 -1.03562 0
M  V30 479 C 48.2292 2.24472 -0.643019 0
M  V30 480 C 49.2102 1.66433 0.351283 0
M  V30 481 O 50.3952 1.92803 0.232505 0
M  V30 482 C 47.5252 3.473 4.24935e-05 0
M  V30 483 C 46.4792 4.18055 -0.917257 0
M  V30 484 C 45.8052 5.34519 -0.138941 0
M  V30 485 C 47.1052 4.72109 -2.23407 0
M  V30 486 H 48.7992 2.57566 -1.52643 0
M  V30 487 H 46.3452 1.23806 -0.735394 0
M  V30 488 H 48.2982 4.20426 0.286383 0
M  V30 489 H 47.0222 3.13424 0.918299 0
M  V30 490 H 45.6812 3.46821 -1.1879 0
M  V30 491 H 45.3292 4.96891 0.781562 0
M  V30 492 H 45.0292 5.82794 -0.750005 0
M  V30 493 H 46.5532 6.10438 0.1405 0
M  V30 494 H 47.9672 5.36955 -2.00879 0
M  V30 495 H 46.3642 5.30897 -2.79765 0
M  V30 496 H 47.4342 3.89807 -2.88407 0
M  V30 497 N 48.7773 0.814389 1.34928 0
M  V30 498 C 49.6873 0.231978 2.3345 0
M  V30 499 C 50.7033 -0.629139 1.62228 0
M  V30 500 O 51.8793 -0.539052 1.94052 0
M  V30 501 C 48.9443 -0.603482 3.41407 0
M  V30 502 C 48.0053 0.279037 4.28392 0
M  V30 503 C 47.2383 -0.516643 5.31193 0
M  V30 504 O 47.4613 -1.75068 5.4287 0
M  V30 505 O 46.3953 0.0965652 6.01823 0
M  V30 506 H 50.2213 1.04721 2.85074 0
M  V30 507 H 47.8063 0.576343 1.37836 0
M  V30 508 H 49.6883 -1.07908 4.0735 0
M  V30 509 H 48.3633 -1.39618 2.92042 0
M  V30 510 H 47.2703 0.801948 3.65403 0
M  V30 511 H 48.6033 1.03588 4.81176 0
M  V30 512 N 50.2554 -1.46986 0.568584 0
M  V30 513 C 51.2024 -2.30153 -0.172707 0
M  V30 514 C 52.1724 -1.39759 -0.897586 0
M  V30 515 O 53.3574 -1.68716 -0.891044 0
M  V30 516 C 50.4974 -3.23952 -1.1895 0
M  V30 517 C 49.6104 -4.29441 -0.469517 0
M  V30 518 C 48.7454 -5.1038 -1.47259 0
M  V30 519 C 47.7844 -6.07632 -0.738225 0
M  V30 520 N 46.9214 -6.8149 -1.68868 0
M  V30 521 H 51.7614 -2.93019 0.542596 0
M  V30 522 H 49.2984 -1.44422 0.279401 0
M  V30 523 H 51.2564 -3.76767 -1.79173 0
M  V30 524 H 49.8864 -2.62926 -1.87269 0
M  V30 525 H 48.9384 -3.79594 0.247467 0
M  V30 526 H 50.2504 -4.98689 0.105241 0
M  V30 527 H 49.4044 -5.67402 -2.14803 0
M  V30 528 H 48.1434 -4.4106 -2.08128 0
M  V30 529 H 47.1484 -5.49778 -0.0489293 0
M  V30 530 H 48.3734 -6.78966 -0.135129 0
M  V30 531 H 46.3194 -6.14891 -2.28573 0
M  V30 532 H 46.2364 -7.46948 -1.16636 0
M  V30 533 H 47.5044 -7.43078 -2.3549 0
M  V30 534 N 51.7335 -0.305618 -1.54608 0
M  V30 535 C 52.9635 0.304333 -2.04346 0
M  V30 536 C 53.3715 1.47715 -1.18224 0
M  V30 537 O 52.7145 1.82591 -0.201577 0
M  V30 538 C 52.7765 0.819031 -3.50046 0
M  V30 539 C 52.4405 -0.22912 -4.56425 0
M  V30 540 C 53.4375 -1.05914 -5.08997 0
M  V30 541 C 51.1225 -0.372148 -5.0092 0
M  V30 542 C 53.1165 -2.01809 -6.04609 0
M  V30 543 C 50.8035 -1.33454 -5.9635 0
M  V30 544 C 51.8015 -2.15599 -6.48079 0
M  V30 545 O 51.4895 -3.10205 -7.41639 0
M  V30 546 H 51.2215 0.0693996 -0.672428 0
M  V30 547 H 53.7755 -0.444548 -2.00532 0
M  V30 548 H 52.0055 1.61852 -3.51199 0
M  V30 549 H 53.6945 1.34537 -3.82955 0
M  V30 550 H 54.4605 -0.959538 -4.75413 0
M  V30 551 H 50.3395 0.257304 -4.60281 0
M  V30 552 H 53.8835 -2.65966 -6.44909 0
M  V30 553 H 49.7805 -1.43485 -6.29351 0
M  V30 554 H 50.5485 -3.05237 -7.59455 0
M  V30 555 N 53.2116 1.57565 -0.0334293 0
M  V30 556 C 54.4596 1.91598 0.642999 0
M  V30 557 C 54.7806 0.910847 1.7242 0
M  V30 558 O 54.0506 -0.0469931 1.95844 0
M  V30 559 H 52.6306 0.707228 0.240496 0
M  V30 560 H 55.2926 1.94726 -0.0822488 0
M  V30 561 H 54.3886 2.92336 1.09298 0
M  V30 562 N 54.6897 -0.239769 1.55765 0
M  V30 563 C 55.6197 -1.30052 1.9393 0
M  V30 564 C 56.6007 -1.49839 0.805132 0
M  V30 565 O 57.7857 -1.62328 1.06599 0
M  V30 566 C 54.9157 -2.65391 2.2402 0
M  V30 567 C 53.8697 -2.60289 3.39755 0
M  V30 568 C 53.1957 -3.99489 3.55405 0
M  V30 569 C 54.4957 -2.16654 4.75246 0
M  V30 570 H 56.1897 -0.983573 2.82783 0
M  V30 571 H 53.7357 -0.471701 1.36055 0
M  V30 572 H 55.6887 -3.3974 2.49308 0
M  V30 573 H 54.4127 -2.98736 1.32 0
M  V30 574 H 53.0717 -1.88398 3.14487 0
M  V30 575 H 52.7197 -4.30112 2.60793 0
M  V30 576 H 52.4197 -3.96962 4.33238 0
M  V30 577 H 53.9437 -4.75528 3.83022 0
M  V30 578 H 55.3577 -2.80737 4.99859 0
M  V30 579 H 53.7547 -2.25223 5.56232 0
M  V30 580 H 54.8247 -1.11835 4.71827 0
M  V30 581 N 56.1678 -1.49265 -0.50573 0
M  V30 582 C 57.1158 -1.66065 -1.62866 0
M  V30 583 C 58.1098 -0.526636 -1.61006 0
M  V30 584 O 59.3158 -0.706126 -1.65571 0
M  V30 585 H 55.6908 -0.52356 -0.539805 0
M  V30 586 H 57.6618 -2.60329 -1.45848 0
M  V30 587 C 56.4108 -1.74008 -3.01026 0
M  V30 588 H 55.7338 -2.6064 -3.03161 0
M  V30 589 H 57.1738 -1.89798 -3.79147 0
M  V30 590 C 55.6328 -0.483868 -3.33407 0
M  V30 591 O 56.1628 0.392548 -3.99777 0
M  V30 592 N 54.3688 -0.348236 -2.88506 0
M  V30 593 H 53.9158 -1.06242 -2.34671 0
M  V30 594 H 53.8738 0.491204 -3.10539 0
M  V30 595 N 57.6459 0.756429 -1.3826 0
M  V30 596 C 58.5559 1.9009 -1.37488 0
M  V30 597 C 59.5719 1.71855 -0.272366 0
M  V30 598 O 60.7479 1.94827 -0.510318 0
M  V30 599 C 57.8129 3.25421 -1.19592 0
M  V30 600 C 56.8739 3.56202 -2.39622 0
M  V30 601 C 56.1069 4.85075 -2.2257 0
M  V30 602 O 56.3299 5.57246 -1.21793 0
M  V30 603 O 55.2639 5.15269 -3.11098 0
M  V30 604 H 59.0899 1.93695 -2.33914 0
M  V30 605 H 56.6749 0.901313 -1.1915 0
M  V30 606 H 58.5569 4.06337 -1.11661 0
M  V30 607 H 57.2319 3.22634 -0.262486 0
M  V30 608 H 56.1389 2.75458 -2.53128 0
M  V30 609 H 57.4719 3.63747 -3.31586 0
M  V30 610 N 59.124 1.23083 0.984299 0
M  V30 611 C 60.054 1.03292 2.09411 0
M  V30 612 C 61.035 -0.048923 1.7003 0
M  V30 613 O 62.22 0.114967 1.93859 0
M  V30 614 C 59.35 0.619155 3.41736 0
M  V30 615 C 58.304 1.64791 3.95004 0
M  V30 616 C 57.63 1.0897 5.23478 0
M  V30 617 C 58.93 3.03999 4.24714 0
M  V30 618 H 60.624 1.96119 2.26225 0
M  V30 619 H 58.17 0.944344 1.08711 0
M  V30 620 H 60.123 0.467777 4.18796 0
M  V30 621 H 58.847 -0.344786 3.24775 0
M  V30 622 H 57.506 1.78721 3.20085 0
M  V30 623 H 57.154 0.11686 5.02864 0
M  V30 624 H 56.854 1.77704 5.60085 0
M  V30 625 H 58.378 0.950093 6.03163 0
M  V30 626 H 59.792 2.93393 4.92538 0
M  V30 627 H 58.189 3.69936 4.72512 0
M  V30 628 H 59.259 3.53285 3.32142 0
M  V30 629 N 60.6021 -1.18246 1.0419 0
M  V30 630 C 62.0131 -1.69914 0.773698 0
M  V30 631 C 62.3641 -1.83085 -0.705297 0
M  V30 632 O 61.4891 -1.51123 -1.5489 0
M  V30 633 C 62.0841 -3.08619 1.39784 0
M  V30 634 C 60.6431 -3.57494 1.17792 0
M  V30 635 C 59.7901 -2.34013 1.48773 0
M  V30 636 H 62.7411 -1.02904 1.20816 0
M  V30 637 H 62.7621 -3.71958 0.801714 0
M  V30 638 H 62.2741 -2.99001 2.47426 0
M  V30 639 H 60.3751 -3.72406 0.120295 0
M  V30 640 H 60.4881 -4.40852 1.87581 0
M  V30 641 H 58.8521 -2.37986 0.907463 0
M  V30 642 H 59.6351 -2.27013 2.57527 0
M  V30 643 N 62.0802 -0.821533 -1.34494 0
M  V30 644 C 63.0432 -0.247847 -2.27856 0
M  V30 645 C 64.0432 0.573453 -1.50227 0
M  V30 646 O 65.2332 0.389759 -1.69784 0
M  V30 647 C 62.3652 0.652698 -3.34593 0
M  V30 648 H 63.5582 -1.07146 -2.80107 0
M  V30 649 H 61.1112 -0.593291 -1.44602 0
M  V30 650 H 61.8462 1.49943 -2.87555 0
M  V30 651 H 61.6312 0.065292 -3.92046 0
M  V30 652 H 63.1212 1.04793 -4.04238 0
M  V30 653 N 63.5583 1.46682 -0.576371 0
M  V30 654 C 64.4683 2.34032 0.163141 0
M  V30 655 C 65.4843 1.49367 0.892501 0
M  V30 656 O 66.6603 1.82252 0.857106 0
M  V30 657 C 63.7253 3.26435 1.16795 0
M  V30 658 C 62.7863 4.26998 0.443944 0
M  V30 659 C 62.0193 5.14986 1.40088 0
M  V30 660 O 62.2423 5.05785 2.637 0
M  V30 661 O 61.1763 5.94906 0.914917 0
M  V30 662 H 65.0023 2.98607 -0.55388 0
M  V30 663 H 62.5873 1.45554 -0.336821 0
M  V30 664 H 64.4693 3.83459 1.74748 0
M  V30 665 H 63.1443 2.64465 1.86655 0
M  V30 666 H 62.0513 3.7368 -0.177271 0
M  V30 667 H 63.3843 4.91736 -0.213566 0
M  V30 668 N 65.0364 0.313813 1.54444 0
M  V30 669 C 65.9464 -0.565714 2.27677 0
M  V30 670 C 66.9624 -1.13754 1.31666 0
M  V30 671 O 68.1384 -1.15959 1.64668 0
M  V30 672 C 65.2034 -1.71528 3.01296 0
M  V30 673 C 64.2644 -1.17624 4.12872 0
M  V30 674 C 63.4974 -2.27102 4.8297 0
M  V30 675 O 63.7204 -3.47256 4.52514 0
M  V30 676 O 62.6544 -1.9307 5.70094 0
M  V30 677 H 66.4804 0.0287296 3.03686 0
M  V30 678 H 64.0654 0.0798312 1.49187 0
M  V30 679 H 65.9474 -2.38476 3.4743 0
M  V30 680 H 64.6224 -2.29608 2.2817 0
M  V30 681 H 63.5294 -0.472124 3.71109 0
M  V30 682 H 64.8624 -0.640695 4.88012 0
M  V30 683 N 66.5145 -1.57545 0.0417849 0
M  V30 684 C 67.7625 -1.91937 -0.632829 0
M  V30 685 C 68.0835 -0.919978 -1.71934 0
M  V30 686 O 67.3535 0.0366064 -1.95866 0
M  V30 687 H 65.9335 -0.708493 -0.236742 0
M  V30 688 H 68.5955 -1.9468 0.0925745 0
M  V30 689 H 67.6915 -2.92912 -1.07746 0
M  V30 690 N 67.9926 0.231505 -1.5589 0
M  V30 691 C 68.9396 1.28682 -1.91598 0
M  V30 692 C 69.9096 1.47071 -0.771974 0
M  V30 693 O 71.0946 1.60802 -1.027 0
M  V30 694 C 68.2346 2.6342 -2.22944 0
M  V30 695 C 67.3476 2.52912 -3.50228 0
M  V30 696 C 66.4826 3.80106 -3.7107 0
M  V30 697 C 65.5216 3.64279 -4.91902 0
M  V30 698 N 64.6586 4.834 -5.09184 0
M  V30 699 H 69.4986 0.975305 -2.81588 0
M  V30 700 H 67.0356 0.470299 -1.39379 0
M  V30 701 H 68.9936 3.41869 -2.39126 0
M  V30 702 H 67.6236 2.92687 -1.36139 0
M  V30 703 H 66.6756 1.6595 -3.42294 0
M  V30 704 H 67.9876 2.37133 -4.38827 0
M  V30 705 H 67.1416 4.66999 -3.87295 0
M  V30 706 H 65.8806 3.98799 -2.80733 0
M  V30 707 H 64.8856 2.7577 -4.75637 0
M  V30 708 H 66.1106 3.47067 -5.83714 0
M  V30 709 H 64.0566 5.02425 -4.21788 0
M  V30 710 H 63.9736 4.70311 -5.91898 0
M  V30 711 H 65.2416 5.71747 -5.29835 0
M  V30 712 N 69.4707 1.49531 0.497807 0
M  V30 713 C 70.6987 1.62893 1.27567 0
M  V30 714 C 71.1137 0.301585 1.86376 0
M  V30 715 O 70.4707 -0.713335 1.67982 0
M  V30 716 C 70.5217 2.70013 2.40364 0
M  V30 717 O 70.2427 3.976 1.83972 0
M  V30 718 C 71.7437 2.94109 3.31685 0
M  V30 719 H 68.9637 0.548298 0.386794 0
M  V30 720 H 71.5077 1.95584 0.597245 0
M  V30 721 H 69.6627 2.40092 3.04031 0
M  V30 722 H 70.0767 4.56631 2.58047 0
M  V30 723 H 71.5507 3.72788 4.07104 0
M  V30 724 H 72.0277 2.04147 3.88871 0
M  V30 725 H 72.6337 3.2546 2.73781 0
M  V30 726 N 70.9488 -0.749086 1.3866 0
M  V30 727 C 71.8788 -1.8764 1.38973 0
M  V30 728 C 72.8598 -1.68178 0.255004 0
M  V30 729 O 74.0448 -1.88704 0.458754 0
M  V30 730 C 71.1748 -3.25222 1.21851 0
M  V30 731 C 70.1288 -3.59295 2.32575 0
M  V30 732 C 69.4548 -4.95663 2.00555 0
M  V30 733 C 70.7548 -3.63709 3.7485 0
M  V30 734 H 72.4488 -1.87635 2.3331 0
M  V30 735 H 69.9948 -0.901329 1.12303 0
M  V30 736 H 71.9478 -4.03746 1.20695 0
M  V30 737 H 70.6718 -3.25719 0.239775 0
M  V30 738 H 69.3308 -2.83093 2.32925 0
M  V30 739 H 68.9788 -4.92724 1.01154 0
M  V30 740 H 68.6788 -5.19429 2.74714 0
M  V30 741 H 70.2028 -5.7656 2.01024 0
M  V30 742 H 71.6168 -4.32338 3.76506 0
M  V30 743 H 70.0138 -3.98986 4.48252 0
M  V30 744 H 71.0838 -2.63834 4.06841 0
M  V30 745 N 72.4269 -1.23603 -0.977757 0
M  V30 746 C 73.6729 -1.08136 -1.72274 0
M  V30 747 C 74.0279 0.377453 -1.88661 0
M  V30 748 O 73.3209 1.27552 -1.42972 0
M  V30 749 C 73.5149 -1.7433 -3.11999 0
M  V30 750 C 73.3439 -3.26498 -3.0924 0
M  V30 751 C 72.1139 -3.9567 -3.14282 0
M  V30 752 C 74.3119 -4.2323 -2.92201 0
M  V30 753 N 72.2939 -5.34799 -3.01436 0
M  V30 754 C 73.6649 -5.49289 -2.87544 0
M  V30 755 C 75.7199 -4.13931 -2.76705 0
M  V30 756 C 74.4229 -6.67116 -2.68978 0
M  V30 757 C 76.4489 -5.31424 -2.59504 0
M  V30 758 C 75.8109 -6.5641 -2.55548 0
M  V30 759 H 71.9099 -0.450247 -0.639376 0
M  V30 760 H 74.4939 -1.5637 -1.16002 0
M  V30 761 H 72.6649 -1.28624 -3.66484 0
M  V30 762 H 74.3969 -1.51815 -3.75146 0
M  V30 763 H 71.1519 -3.46767 -3.22567 0
M  V30 764 H 71.5759 -6.07748 -2.98281 0
M  V30 765 H 76.2179 -3.1807 -2.78552 0
M  V30 766 H 73.9359 -7.63109 -2.65876 0
M  V30 767 H 77.5219 -5.26072 -2.48474 0
M  V30 768 H 76.4019 -7.45795 -2.42405 0
M  V30 769 N 73.905 1.17692 -1.04816 0
M  V30 770 C 74.815 2.25229 -0.65643 0
M  V30 771 C 75.831 1.71018 0.320761 0
M  V30 772 O 77.007 2.00649 0.173805 0
M  V30 773 C 74.072 3.46684 -0.0332629 0
M  V30 774 C 73.133 4.15997 -1.06042 0
M  V30 775 C 72.366 5.31654 -0.466893 0
M  V30 776 O 72.589 5.65777 0.724758 0
M  V30 777 O 71.523 5.89831 -1.1993 0
M  V30 778 H 75.349 2.61016 -1.55255 0
M  V30 779 H 72.934 1.24919 -0.81949 0
M  V30 780 H 74.816 4.20234 0.313256 0
M  V30 781 H 73.491 3.12703 0.836566 0
M  V30 782 H 72.398 3.44482 -1.45886 0
M  V30 783 H 73.731 4.53996 -1.90127 0
M  V30 784 N 75.3831 0.828654 1.34056 0
M  V30 785 C 76.3131 0.269443 2.3194 0
M  V30 786 C 77.2941 -0.617247 1.58506 0
M  V30 787 O 78.4791 -0.542931 1.86456 0
M  V30 788 C 75.6091 -0.564793 3.42677 0
M  V30 789 C 74.5631 0.225241 4.27407 0
M  V30 790 C 73.8891 -0.7321 5.29664 0
M  V30 791 C 75.1891 1.43663 5.02154 0
M  V30 792 H 76.8831 1.08728 2.7896 0
M  V30 793 H 74.4291 0.524283 1.34117 0
M  V30 794 H 76.3821 -0.966233 4.10173 0
M  V30 795 H 75.1061 -1.41574 2.9432 0
M  V30 796 H 73.7651 0.608117 3.61521 0
M  V30 797 H 73.4131 -1.57916 4.77568 0
M  V30 798 H 73.1131 -0.20767 5.87233 0
M  V30 799 H 74.6371 -1.13128 6.00029 0
M  V30 800 H 76.0511 1.1089 5.62473 0
M  V30 801 H 74.4481 1.89711 5.69324 0
M  V30 802 H 75.5181 2.21181 4.31517 0
M  V30 803 N 76.8612 -1.46375 0.584142 0
M  V30 804 C 78.1072 -2.02678 0.0703716 0
M  V30 805 C 78.4402 -1.4545 -1.28678 0
M  V30 806 O 77.7152 -0.62014 -1.84349 0
M  V30 807 C 77.9982 -3.60099 0.00614674 0
M  V30 808 C 77.8512 -4.27709 1.3923 0
M  V30 809 C 79.1702 -4.34598 -0.693742 0
M  V30 810 H 76.2892 -0.736504 0.027047 0
M  V30 811 H 78.9312 -1.74501 0.751615 0
M  V30 812 H 77.0812 -3.84236 -0.574009 0
M  V30 813 H 78.7532 -4.14832 2.01773 0
M  V30 814 H 76.9962 -3.87016 1.95962 0
M  V30 815 H 77.6672 -5.36478 1.29982 0
M  V30 816 H 80.1432 -4.15615 -0.200869 0
M  V30 817 H 79.0192 -5.44318 -0.707714 0
M  V30 818 H 79.2802 -4.05759 -1.75533 0
M  V30 819 N 78.3393 -0.321999 -1.54275 0
M  V30 820 C 79.5883 0.281931 -1.9972 0
M  V30 821 C 79.9013 1.53369 -1.21397 0
M  V30 822 O 81.1073 2.21352 -1.57211 0
M  V30 823 C 79.5633 0.5529 -3.55628 0
M  V30 824 C 79.1713 -0.681721 -4.42783 0
M  V30 825 C 80.9153 1.11687 -4.09544 0
M  V30 826 C 78.8223 -0.382742 -5.9016 0
M  V30 827 H 77.7523 0.109124 -0.746062 0
M  V30 828 H 80.4033 -0.43398 -1.78294 0
M  V30 829 H 78.7853 1.32896 -3.73035 0
M  V30 830 H 79.9593 -1.45723 -4.37151 0
M  V30 831 H 78.2743 -1.1658 -3.99748 0
M  V30 832 H 80.8713 1.35515 -5.17242 0
M  V30 833 H 81.2143 2.06575 -3.61431 0
M  V30 834 H 81.7473 0.402032 -3.95763 0
M  V30 835 H 78.4863 -1.30076 -6.42464 0
M  V30 836 H 78.0063 0.355094 -5.98748 0
M  V30 837 H 79.6853 0.00800157 -6.47 0
M  V30 838 N 79.8174 1.5752 -0.0501392 0
M  V30 839 C 80.7274 2.14952 0.939827 0
M  V30 840 C 81.7434 1.10706 1.34239 0
M  V30 841 O 82.9194 1.42869 1.41952 0
M  V30 842 C 79.9844 2.68232 2.19665 0
M  V30 843 C 79.0454 3.87272 1.85253 0
M  V30 844 C 78.2784 4.38002 3.04943 0
M  V30 845 O 78.5014 3.87811 4.18281 0
M  V30 846 O 77.4354 5.29602 2.86017 0
M  V30 847 H 81.2614 2.9986 0.481392 0
M  V30 848 H 78.8464 1.4841 0.171699 0
M  V30 849 H 80.7284 3.02475 2.93406 0
M  V30 850 H 79.4034 1.86395 2.64648 0
M  V30 851 H 78.3104 3.5792 1.0883 0
M  V30 852 H 79.6434 4.70336 1.4507 0
M  V30 853 N 81.2955 -0.223234 1.56011 0
M  V30 854 C 82.2275 -1.30006 1.88762 0
M  V30 855 C 83.2405 -1.43129 0.775746 0
M  V30 856 O 84.4295 -1.44057 1.05403 0
M  V30 857 C 81.5295 -2.67589 2.07965 0
M  V30 858 C 80.7025 -2.76434 3.38973 0
M  V30 859 C 79.7615 -3.95019 3.47629 0
M  V30 860 O 78.7875 -3.83436 4.20672 0
M  V30 861 N 79.9895 -5.09249 2.78649 0
M  V30 862 H 82.7545 -1.02238 2.81722 0
M  V30 863 H 80.3155 -0.413278 1.56536 0
M  V30 864 H 82.3075 -3.45297 2.11073 0
M  V30 865 H 80.8775 -2.87964 1.21638 0
M  V30 866 H 80.0975 -1.85216 3.47978 0
M  V30 867 H 81.3855 -2.79313 4.25278 0
M  V30 868 H 80.7835 -5.21556 2.19081 0
M  V30 869 H 79.3405 -5.85007 2.8742 0
M  V30 870 N 82.7736 -1.49793 -0.48987 0
M  V30 871 C 84.0206 -1.59841 -1.24327 0
M  V30 872 C 84.3486 -0.290135 -1.92324 0
M  V30 873 O 83.6036 0.722749 -1.81865 0
M  V30 874 C 83.9026 -2.71488 -2.32441 0
M  V30 875 C 83.5686 -4.12614 -1.81826 0
M  V30 876 C 82.2306 -4.51017 -1.67742 0
M  V30 877 C 84.5826 -5.00892 -1.4407 0
M  V30 878 C 81.9106 -5.75459 -1.14297 0
M  V30 879 C 84.2626 -6.25863 -0.920742 0
M  V30 880 C 82.9266 -6.63086 -0.766383 0
M  V30 881 H 82.1966 -0.584899 -0.454944 0
M  V30 882 H 84.8436 -1.83663 -0.542215 0
M  V30 883 H 83.1486 -2.4168 -3.0838 0
M  V30 884 H 84.8456 -2.76469 -2.90458 0
M  V30 885 H 81.4356 -3.82307 -1.93751 0
M  V30 886 H 85.6196 -4.7187 -1.53794 0
M  V30 887 H 80.8756 -6.02989 -1.01068 0
M  V30 888 H 85.0496 -6.9364 -0.619448 0
M  V30 889 H 82.6766 -7.59393 -0.350083 0
M  V30 890 N 84.2517 0.741722 -1.39055 0
M  V30 891 C 85.1617 1.88621 -1.39496 0
M  V30 892 C 86.1777 1.71557 -0.290578 0
M  V30 893 O 87.3537 1.94275 -0.530954 0
M  V30 894 C 84.4187 3.24134 -1.23037 0
M  V30 895 C 83.4797 3.5364 -2.43387 0
M  V30 896 C 82.7127 4.82687 -2.27703 0
M  V30 897 O 82.9357 5.55922 -1.27696 0
M  V30 898 O 81.8697 5.1194 -3.16545 0
M  V30 899 H 85.6957 1.91203 -2.35956 0
M  V30 900 H 83.2807 0.888625 -1.20099 0
M  V30 901 H 85.1627 4.0513 -1.15964 0
M  V30 902 H 83.8377 3.22337 -0.296691 0
M  V30 903 H 82.7447 2.72758 -2.56035 0
M  V30 904 H 84.0777 3.60209 -3.35425 0
M  V30 905 N 85.7298 1.2412 0.971189 0
M  V30 906 C 87.0068 0.986867 1.6888 0
M  V30 907 C 87.3868 -0.491857 2.0529 0
M  V30 908 O 86.7348 -1.46531 1.75331 0
M  V30 909 C 86.9448 1.9063 2.92338 0
M  V30 910 C 88.2928 2.17515 3.64654 0
M  V30 911 O 89.3168 1.88254 3.02388 0
M  V30 912 O 88.1758 2.6719 4.7673 0
M  V30 913 H 85.2698 0.372944 0.738134 0
M  V30 914 H 87.8158 1.35203 1.02559 0
M  V30 915 H 86.5878 2.90552 2.62097 0
M  V30 916 H 86.2108 1.54408 3.66393 0
M  V30 917 N 87.2079 -1.17134 1.05439 0
M  V30 918 C 88.1379 -2.2342 0.678649 0
M  V30 919 C 89.1189 -1.66971 -0.32476 0
M  V30 920 O 90.3039 -1.93149 -0.201802 0
M  V30 921 C 87.4339 -3.47256 0.0552099 0
M  V30 922 C 86.3879 -4.16543 0.98365 0
M  V30 923 C 85.7139 -5.34231 0.223961 0
M  V30 924 C 87.0139 -4.68495 2.3089 0
M  V30 925 H 88.7079 -2.55105 1.56722 0
M  V30 926 H 86.2539 -1.2262 0.754998 0
M  V30 927 H 88.2069 -4.20828 -0.21946 0
M  V30 928 H 86.9309 -3.14846 -0.868319 0
M  V30 929 H 85.5899 -3.44887 1.24293 0
M  V30 930 H 85.2379 -4.98071 -0.702412 0
M  V30 931 H 84.9379 -5.81527 0.842627 0
M  V30 932 H 86.4619 -6.10585 -0.0433671 0
M  V30 933 H 87.8759 -5.33691 2.09396 0
M  V30 934 H 86.2729 -5.26379 2.88176 0
M  V30 935 H 87.3429 -3.85169 2.94572 0
M  V30 936 N 88.686 -0.835752 -1.33615 0
M  V30 937 C 89.616 -0.281739 -2.31794 0
M  V30 938 C 90.597 0.608833 -1.58831 0
M  V30 939 O 91.782 0.533035 -1.86741 0
M  V30 940 C 88.912 0.546612 -3.42971 0
M  V30 941 C 87.866 -0.247904 -4.27281 0
M  V30 942 C 87.192 0.704001 -5.30045 0
M  V30 943 C 88.492 -1.46324 -5.01385 0
M  V30 944 H 90.186 -1.10206 -2.78379 0
M  V30 945 H 87.732 -0.531388 -1.33837 0
M  V30 946 H 89.685 0.944467 -4.1068 0
M  V30 947 H 88.409 1.40011 -2.95067 0
M  V30 948 H 87.068 -0.627281 -3.61194 0
M  V30 949 H 86.716 1.55381 -4.78399 0
M  V30 950 H 86.416 0.176524 -5.87335 0
M  V30 951 H 87.94 1.09944 -6.0062 0
M  V30 952 H 89.354 -1.13871 -5.61877 0
M  V30 953 H 87.751 -1.92728 -5.6831 0
M  V30 954 H 88.821 -2.23467 -4.30338 0
M  V30 955 N 90.1641 1.46063 -0.591896 0
M  V30 956 C 91.4101 2.02638 -0.0811191 0
M  V30 957 C 91.7431 1.4613 1.27905 0
M  V30 958 O 91.0181 0.629908 1.84017 0
M  V30 959 C 91.3011 3.60091 -0.0252436 0
M  V30 960 C 91.1541 4.26965 -1.41496 0
M  V30 961 C 92.4731 4.3496 0.670685 0
M  V30 962 H 89.5921 0.73635 -0.0309524 0
M  V30 963 H 92.2341 1.741 -0.760859 0
M  V30 964 H 90.3841 3.84535 0.553624 0
M  V30 965 H 92.0561 4.13756 -2.0397 0
M  V30 966 H 90.2991 3.85971 -1.98011 0
M  V30 967 H 90.9701 5.35781 -1.32825 0
M  V30 968 H 93.4461 4.15716 0.178825 0
M  V30 969 H 92.3221 5.44686 0.678837 0
M  V30 970 H 92.5831 4.06685 1.73379 0
M  V30 971 N 91.6422 0.330177 1.54103 0
M  V30 972 C 93.0582 -0.0222371 1.59585 0
M  V30 973 C 93.2582 -1.49902 1.34654 0
M  V30 974 O 92.3142 -2.25592 1.13421 0
M  V30 975 C 93.6272 0.401932 2.98002 0
M  V30 976 C 95.1752 0.353145 3.11001 0
M  V30 977 C 95.6502 0.752576 4.51775 0
M  V30 978 N 97.1412 0.706239 4.57784 0
M  V30 979 C 97.8762 0.987417 5.64834 0
M  V30 980 N 97.3722 1.33607 6.79795 0
M  V30 981 N 99.1652 0.91254 5.54643 0
M  V30 982 H 91.3162 1.29228 1.68564 0
M  V30 983 H 93.5792 0.525906 0.78875 0
M  V30 984 H 93.2852 1.4311 3.21267 0
M  V30 985 H 93.1592 -0.229699 3.765 0
M  V30 986 H 95.5462 -0.666822 2.87467 0
M  V30 987 H 95.6272 1.0198 2.34593 0
M  V30 988 H 95.2712 1.77049 4.76042 0
M  V30 989 H 95.2012 0.0635409 5.26562 0
M  V30 990 H 97.6922 0.44889 3.75224 0
M  V30 991 H 98.0052 1.53582 7.57385 0
M  V30 992 H 96.3502 1.37439 6.81275 0
M  V30 993 H 99.5412 0.639601 4.6371 0
M  V30 994 H 99.7142 1.13503 6.37982 0
M  V30 995 N 93.1203 -1.57491 0.0584922 0
M  V30 996 C 94.3693 -1.92155 -0.613146 0
M  V30 997 C 94.6823 -0.939334 -1.71569 0
M  V30 998 O 95.8883 -1.17829 -2.44599 0
M  V30 999 C 94.3443 -3.41303 -1.14195 0
M  V30 1000 C 93.9523 -4.47944 -0.0711265 0
M  V30 1001 C 95.6963 -3.84988 -1.78841 0
M  V30 1002 C 93.6033 -5.88212 -0.613225 0
M  V30 1003 H 92.5333 -0.717162 -0.232796 0
M  V30 1004 H 95.1843 -1.83049 0.12857 0
M  V30 1005 H 93.5663 -3.45437 -1.93621 0
M  V30 1006 H 94.7403 -4.55408 0.702836 0
M  V30 1007 H 93.0553 -4.13644 0.478313 0
M  V30 1008 H 95.6523 -4.87159 -2.20408 0
M  V30 1009 H 95.9953 -3.21632 -2.64308 0
M  V30 1010 H 96.5283 -3.83401 -1.06059 0
M  V30 1011 H 93.2673 -6.55183 0.203978 0
M  V30 1012 H 92.7873 -5.84294 -1.35501 0
M  V30 1013 H 94.4663 -6.37687 -1.09383 0
M  V30 1014 N 94.5984 0.214957 -1.56127 0
M  V30 1015 C 95.5284 1.2695 -1.95974 0
M  V30 1016 C 96.5094 1.48539 -0.828868 0
M  V30 1017 O 97.6944 1.60611 -1.09168 0
M  V30 1018 C 94.8244 2.61794 -2.28214 0
M  V30 1019 C 93.7784 2.54851 -3.43853 0
M  V30 1020 C 93.1044 3.93785 -3.61715 0
M  V30 1021 C 94.4044 2.09065 -4.78632 0
M  V30 1022 H 96.0984 0.93846 -2.84312 0
M  V30 1023 H 93.6444 0.449996 -1.36788 0
M  V30 1024 H 95.5974 3.35731 -2.54682 0
M  V30 1025 H 94.3214 2.96599 -1.36736 0
M  V30 1026 H 92.9804 1.8337 -3.17444 0
M  V30 1027 H 92.6284 4.25908 -2.67602 0
M  V30 1028 H 92.3284 3.90019 -4.39498 0
M  V30 1029 H 93.8524 4.69374 -3.90539 0
M  V30 1030 H 95.2664 2.7275 -5.04262 0
M  V30 1031 H 93.6634 2.16346 -5.59745 0
M  V30 1032 H 94.7334 1.04315 -4.73547 0
M  V30 1033 N 96.0765 1.50051 0.48192 0
M  V30 1034 C 97.0065 1.71046 1.58951 0
M  V30 1035 C 97.9875 0.559288 1.60642 0
M  V30 1036 O 99.1725 0.797243 1.77081 0
M  V30 1037 C 96.3025 1.79462 2.97339 0
M  V30 1038 C 95.2565 2.94558 3.10515 0
M  V30 1039 C 94.5825 2.88105 4.50444 0
M  V30 1040 C 95.8825 4.35227 2.88747 0
M  V30 1041 H 97.5765 2.6378 1.41635 0
M  V30 1042 H 95.1225 1.26936 0.679942 0
M  V30 1043 H 97.0755 1.92734 3.74742 0
M  V30 1044 H 95.7995 0.833412 3.15788 0
M  V30 1045 H 94.4585 2.80918 2.35543 0
M  V30 1046 H 94.1065 1.89853 4.65795 0
M  V30 1047 H 93.8065 3.65366 4.60197 0
M  V30 1048 H 95.3305 3.03412 5.29881 0
M  V30 1049 H 96.7445 4.49449 3.55905 0
M  V30 1050 H 95.1415 5.13856 3.09955 0
M  V30 1051 H 96.2115 4.48347 1.84696 0
M  V30 1052 N 97.5546 -0.734337 1.39446 0
M  V30 1053 C 98.4846 -1.86155 1.40955 0
M  V30 1054 C 99.4656 -1.67898 0.272827 0
M  V30 1055 O 100.651 -1.88207 0.478743 0
M  V30 1056 C 97.7806 -3.23912 1.25294 0
M  V30 1057 C 96.7346 -3.56808 2.36373 0
M  V30 1058 C 96.0606 -4.93508 2.058 0
M  V30 1059 C 97.3606 -3.59713 3.78687 0
M  V30 1060 H 99.0546 -1.8515 2.35287 0
M  V30 1061 H 96.6006 -0.889367 1.13253 0
M  V30 1062 H 98.5536 -4.02443 1.2497 0
M  V30 1063 H 97.2776 -3.25446 0.274308 0
M  V30 1064 H 95.9366 -2.80606 2.35914 0
M  V30 1065 H 95.5846 -4.91623 1.06374 0
M  V30 1066 H 95.2846 -5.16486 2.80208 0
M  V30 1067 H 96.8086 -5.74396 2.07128 0
M  V30 1068 H 98.2226 -4.2832 3.81071 0
M  V30 1069 H 96.6196 -3.94209 4.52459 0
M  V30 1070 H 97.6896 -2.59504 4.09617 0
M  V30 1071 N 99.0327 -1.24633 -0.964593 0
M  V30 1072 C 99.9957 -1.0424 -2.04124 0
M  V30 1073 C 100.996 0.00137563 -1.608 0
M  V30 1074 O 102.186 -0.239883 -1.7254 0
M  V30 1075 C 99.3177 -0.580588 -3.3592 0
M  V30 1076 H 100.511 -1.99803 -2.23649 0
M  V30 1077 H 98.0637 -1.06899 -1.14027 0
M  V30 1078 H 98.7987 0.3781 -3.22088 0
M  V30 1079 H 98.5837 -1.33398 -3.6871 0
M  V30 1080 H 100.074 -0.459034 -4.15069 0
M  V30 1081 N 100.511 1.16574 -1.06058 0
M  V30 1082 C 101.474 2.19085 -0.673392 0
M  V30 1083 C 102.474 1.5835 0.279648 0
M  V30 1084 O 103.664 1.74088 0.0623488 0
M  V30 1085 C 100.796 3.40899 0.00954234 0
M  V30 1086 H 101.989 2.54853 -1.58081 0
M  V30 1087 H 99.5418 1.30808 -0.855516 0
M  V30 1088 H 100.277 3.10684 0.929826 0
M  V30 1089 H 100.062 3.86233 -0.67573 0
M  V30 1090 H 101.552 4.1675 0.266245 0
M  V30 1091 N 101.989 0.842826 1.3317 0
M  V30 1092 C 103.229 0.446574 1.99462 0
M  V30 1093 C 103.593 -0.976818 1.65295 0
M  V30 1094 O 104.794 -1.477 2.24584 0
M  V30 1095 C 103.065 0.665353 3.51152 0
M  V30 1096 S 104.624 0.364911 4.3728 0
M  V30 1097 H 101.442 0.167803 0.690915 0
M  V30 1098 H 104.044 1.09297 1.62094 0
M  V30 1099 H 102.748 1.7006 3.73507 0
M  V30 1100 H 102.279 0.00494568 3.934 0
M  V30 1101 H 104.294 -0.813761 4.89482 0
M  V30 1102 N 103.467 -1.45747 0.599634 0
M  V30 1103 C 104.716 -2.01502 0.0893511 0
M  V30 1104 C 105.029 -1.4748 -1.28488 0
M  V30 1105 O 106.235 -1.95161 -1.88745 0
M  V30 1106 C 104.691 -3.59735 0.109082 0
M  V30 1107 C 104.299 -4.22754 1.48267 0
M  V30 1108 C 106.043 -4.23085 -0.346374 0
M  V30 1109 C 103.95 -5.73115 1.45921 0
M  V30 1110 H 102.88 -0.753417 0.0296347 0
M  V30 1111 H 105.531 -1.67303 0.753788 0
M  V30 1112 H 103.913 -3.91087 -0.621854 0
M  V30 1113 H 105.087 -4.02987 2.23468 0
M  V30 1114 H 103.402 -3.71567 1.87955 0
M  V30 1115 H 105.999 -5.33327 -0.38298 0
M  V30 1116 H 106.342 -3.93201 -1.36743 0
M  V30 1117 H 106.875 -3.9642 0.331038 0
M  V30 1118 H 103.614 -6.07685 2.45762 0
M  V30 1119 H 103.134 -5.95097 0.749665 0
M  V30 1120 H 104.813 -6.3616 1.17941 0
M  V30 1121 N 104.945 -0.338344 -1.53925 0
M  V30 1122 C 106.17 0.263987 -2.05713 0
M  V30 1123 C 106.595 1.43847 -1.21201 0
M  V30 1124 O 105.953 1.79904 -0.224535 0
M  V30 1125 C 106.001 0.662 -3.54471 0
M  V30 1126 O 105.105 1.76265 -3.72833 0
M  V30 1127 H 104.446 0.0448722 -0.662482 0
M  V30 1128 H 106.976 -0.491048 -1.9862 0
M  V30 1129 H 106.986 0.940594 -3.9701 0
M  V30 1130 H 105.661 -0.196937 -4.15433 0
M  V30 1131 H 104.238 1.48173 -3.42198 0
M  V30 1132 N 106.423 1.57458 -0.0668435 0
M  V30 1133 C 107.67 1.93301 0.603406 0
M  V30 1134 C 107.998 0.946486 1.69917 0
M  V30 1135 O 107.253 -0.0387021 1.95662 0
M  V30 1136 C 107.552 3.35784 1.22409 0
M  V30 1137 C 107.218 4.50179 0.254955 0
M  V30 1138 C 105.88 4.81199 -0.0116746 0
M  V30 1139 C 108.232 5.19598 -0.408338 0
M  V30 1140 C 105.56 5.78978 -0.94877 0
M  V30 1141 C 107.912 6.18381 -1.33372 0
M  V30 1142 C 106.576 6.47821 -1.60887 0
M  V30 1143 H 105.846 0.707338 0.220802 0
M  V30 1144 H 108.493 1.91012 -0.136665 0
M  V30 1145 H 106.798 3.34515 2.03978 0
M  V30 1146 H 108.495 3.60804 1.74989 0
M  V30 1147 H 105.085 4.25983 0.472954 0
M  V30 1148 H 109.269 4.95832 -0.215456 0
M  V30 1149 H 104.525 6.00115 -1.16925 0
M  V30 1150 H 108.699 6.71277 -1.85367 0
M  V30 1151 H 106.326 7.23399 -2.33661 0
M  V30 1152 N 107.901 -0.206675 1.56239 0
M  V30 1153 C 109.147 -0.930218 1.80208 0
M  V30 1154 C 109.48 -1.83387 0.638981 0
M  V30 1155 O 108.755 -1.91119 -0.361066 0
M  V30 1156 C 109.038 -1.75641 3.1436 0
M  V30 1157 C 108.891 -0.878257 4.41142 0
M  V30 1158 C 110.21 -2.73129 3.45092 0
M  V30 1159 H 107.329 -0.336742 0.655571 0
M  V30 1160 H 109.971 -0.198222 1.88963 0
M  V30 1161 H 108.121 -2.38048 3.07027 0
M  V30 1162 H 109.793 -0.269787 4.6051 0
M  V30 1163 H 108.036 -0.184385 4.33408 0
M  V30 1164 H 108.707 -1.49106 5.3148 0
M  V30 1165 H 111.183 -2.20856 3.52649 0
M  V30 1166 H 110.059 -3.28028 4.40101 0
M  V30 1167 H 110.32 -3.51606 2.68003 0
M  V30 1168 N 109.379 -1.50304 -0.473955 0
M  V30 1169 C 110.309 -1.71886 -1.58042 0
M  V30 1170 C 111.29 -0.567799 -1.60344 0
M  V30 1171 O 112.475 -0.806623 -1.76656 0
M  V30 1172 C 109.605 -1.81036 -2.96384 0
M  V30 1173 C 108.559 -2.962 -3.08949 0
M  V30 1174 C 107.885 -2.9049 -4.48909 0
M  V30 1175 C 109.185 -4.36752 -2.86434 0
M  V30 1176 H 110.879 -2.64527 -1.40234 0
M  V30 1177 H 108.425 -1.27295 -0.673201 0
M  V30 1178 H 110.378 -1.94719 -3.73714 0
M  V30 1179 H 109.102 -0.850147 -3.15341 0
M  V30 1180 H 107.761 -2.82164 -2.3405 0
M  V30 1181 H 107.409 -1.92321 -4.64781 0
M  V30 1182 H 107.109 -3.67802 -4.58253 0
M  V30 1183 H 108.633 -3.06218 -5.28264 0
M  V30 1184 H 110.047 -4.5133 -3.53517 0
M  V30 1185 H 108.444 -5.15493 -3.07225 0
M  V30 1186 H 109.514 -4.49321 -1.82316 0
M  V30 1187 N 110.857 0.726932 -1.39834 0
M  V30 1188 C 111.82 1.82269 -1.38962 0
M  V30 1189 C 112.82 1.58248 -0.285334 0
M  V30 1190 O 114.01 1.65499 -0.54366 0
M  V30 1191 C 111.142 3.20186 -1.17019 0
M  V30 1192 H 112.335 1.84443 -2.36476 0
M  V30 1193 H 109.888 0.931416 -1.25516 0
M  V30 1194 H 110.623 3.23669 -0.202204 0
M  V30 1195 H 110.408 3.3902 -1.96998 0
M  V30 1196 H 111.898 4.00235 -1.1917 0
M  V30 1197 N 112.336 1.25143 0.95797 0
M  V30 1198 C 113.582 1.10863 1.70531 0
M  V30 1199 C 113.937 -0.347391 1.89238 0
M  V30 1200 O 113.23 -1.25262 1.44983 0
M  V30 1201 C 113.424 1.79272 3.09187 0
M  V30 1202 C 113.253 3.31376 3.04006 0
M  V30 1203 C 112.023 4.0062 3.07948 0
M  V30 1204 C 114.221 4.27825 2.8543 0
M  V30 1205 N 112.203 5.39526 2.9289 0
M  V30 1206 C 113.574 5.53794 2.78769 0
M  V30 1207 C 115.629 4.1828 2.70085 0
M  V30 1208 C 114.332 6.7131 2.58331 0
M  V30 1209 C 116.358 5.35485 2.51017 0
M  V30 1210 C 115.72 6.60393 2.45073 0
M  V30 1211 H 111.819 0.460362 0.632132 0
M  V30 1212 H 114.403 1.58196 1.13499 0
M  V30 1213 H 112.574 1.34439 3.64391 0
M  V30 1214 H 114.306 1.57764 3.72683 0
M  V30 1215 H 111.061 3.51855 3.17009 0
M  V30 1216 H 111.485 6.12416 2.88574 0
M  V30 1217 H 116.127 3.22461 2.73457 0
M  V30 1218 H 113.845 7.67243 2.53701 0
M  V30 1219 H 117.431 5.29959 2.40073 0
M  V30 1220 H 116.311 7.49557 2.30509 0
M  V30 1221 N 113.814 -1.1601 1.06675 0
M  V30 1222 C 115.061 -1.86633 0.785781 0
M  V30 1223 C 115.389 -1.81929 -0.687896 0
M  V30 1224 O 114.644 -1.23253 -1.52011 0
M  V30 1225 C 114.943 -3.35547 1.23057 0
M  V30 1226 C 114.609 -3.60448 2.70902 0
M  V30 1227 C 113.271 -3.66954 3.11285 0
M  V30 1228 C 115.623 -3.7071 3.66365 0
M  V30 1229 C 112.951 -3.81225 4.45965 0
M  V30 1230 C 115.303 -3.86503 5.00797 0
M  V30 1231 C 113.967 -3.91252 5.40813 0
M  V30 1232 H 113.237 -0.682937 0.287538 0
M  V30 1233 H 115.884 -1.37146 1.33654 0
M  V30 1234 H 114.189 -3.87193 0.59907 0
M  V30 1235 H 115.886 -3.88583 0.990163 0
M  V30 1236 H 112.476 -3.56021 2.38636 0
M  V30 1237 H 116.66 -3.64991 3.36296 0
M  V30 1238 H 111.916 -3.83155 4.76447 0
M  V30 1239 H 116.09 -3.93385 5.74649 0
M  V30 1240 H 113.717 -4.02062 6.45174 0
M  V30 1241 N 115.292 -0.849877 -1.32721 0
M  V30 1242 C 116.202 -0.293791 -2.32753 0
M  V30 1243 C 117.218 0.585906 -1.63839 0
M  V30 1244 O 118.394 0.487413 -1.95413 0
M  V30 1245 C 115.459 0.512752 -3.42887 0
M  V30 1246 C 114.52 -0.39252 -4.27502 0
M  V30 1247 C 113.753 0.375625 -5.32377 0
M  V30 1248 O 113.976 1.60613 -5.4732 0
M  V30 1249 O 112.91 -0.256094 -6.01355 0
M  V30 1250 H 116.736 -1.12242 -2.82197 0
M  V30 1251 H 114.321 -0.612685 -1.36259 0
M  V30 1252 H 116.203 0.970704 -4.10067 0
M  V30 1253 H 114.878 1.31826 -2.95641 0
M  V30 1254 H 113.785 -0.898547 -3.63149 0
M  V30 1255 H 115.118 -1.16309 -4.7826 0
M  V30 1256 N 116.77 1.45427 -0.607355 0
M  V30 1257 C 117.68 2.34325 0.113463 0
M  V30 1258 C 118.696 1.51226 0.860617 0
M  V30 1259 O 119.872 1.84029 0.818255 0
M  V30 1260 C 116.937 3.28839 1.09844 0
M  V30 1261 C 115.998 4.27844 0.353271 0
M  V30 1262 C 115.231 5.17842 1.29133 0
M  V30 1263 O 115.454 5.11264 2.52913 0
M  V30 1264 O 114.388 5.96713 0.788523 0
M  V30 1265 H 118.214 2.97364 -0.617094 0
M  V30 1266 H 115.799 1.44807 -0.367619 0
M  V30 1267 H 117.681 3.8708 1.66575 0
M  V30 1268 H 116.356 2.68365 1.81003 0
M  V30 1269 H 115.263 3.7322 -0.256494 0
M  V30 1270 H 116.596 4.91173 -0.317822 0
M  V30 1271 N 118.248 0.346503 1.53744 0
M  V30 1272 C 119.496 -0.248612 2.00565 0
M  V30 1273 C 119.817 -1.5083 1.23593 0
M  V30 1274 O 119.087 -1.92858 0.343912 0
M  V30 1275 H 117.667 -0.0948564 0.740953 0
M  V30 1276 H 120.329 0.468341 1.89189 0
M  V30 1277 H 119.425 -0.488994 3.08245 0
M  V30 1278 N 119.726 -1.57421 0.075193 0
M  V30 1279 C 120.636 -2.1642 -0.905511 0
M  V30 1280 C 121.652 -1.12828 -1.32461 0
M  V30 1281 O 122.828 -1.45109 -1.39661 0
M  V30 1282 C 119.893 -2.71693 -2.15369 0
M  V30 1283 C 118.954 -3.90171 -1.79068 0
M  V30 1284 C 118.187 -4.42798 -2.97936 0
M  V30 1285 O 118.41 -3.94416 -4.12058 0
M  V30 1286 O 117.344 -5.34085 -2.77555 0
M  V30 1287 H 121.17 -3.00588 -0.433626 0
M  V30 1288 H 118.755 -1.48664 -0.148067 0
M  V30 1289 H 120.637 -3.07104 -2.88557 0
M  V30 1290 H 119.312 -1.90582 -2.61649 0
M  V30 1291 H 118.219 -3.59606 -1.03122 0
M  V30 1292 H 119.552 -4.72584 -1.37569 0
M  V30 1293 N 121.204 0.198386 -1.56346 0
M  V30 1294 C 122.114 1.2664 -1.97483 0
M  V30 1295 C 123.13 1.49989 -0.882002 0
M  V30 1296 O 124.306 1.62668 -1.18748 0
M  V30 1297 C 121.371 2.59141 -2.30319 0
M  V30 1298 C 120.432 2.43892 -3.53292 0
M  V30 1299 C 119.665 3.70074 -3.84553 0
M  V30 1300 O 119.888 4.74101 -3.1715 0
M  V30 1301 O 118.822 3.658 -4.7799 0
M  V30 1302 H 122.648 0.947304 -2.88548 0
M  V30 1303 H 120.233 0.403123 -1.43859 0
M  V30 1304 H 122.115 3.37352 -2.5253 0
M  V30 1305 H 120.79 2.90684 -1.42423 0
M  V30 1306 H 119.697 1.63803 -3.36332 0
M  V30 1307 H 121.03 2.17282 -4.41644 0
M  V30 1308 N 122.682 1.50554 0.465978 0
M  V30 1309 C 123.91 1.65563 1.24083 0
M  V30 1310 C 124.325 0.341051 1.85694 0
M  V30 1311 O 123.682 -0.677543 1.69457 0
M  V30 1312 C 123.733 2.75051 2.34583 0
M  V30 1313 O 123.454 4.01413 1.75497 0
M  V30 1314 C 124.955 3.01078 3.25372 0
M  V30 1315 H 122.175 0.55638 0.375077 0
M  V30 1316 H 124.719 1.96807 0.555624 0
M  V30 1317 H 122.874 2.46486 2.9887 0
M  V30 1318 H 123.288 4.62002 2.48303 0
M  V30 1319 H 124.762 3.81339 3.99105 0
M  V30 1320 H 125.239 2.12349 3.84453 0
M  V30 1321 H 125.845 3.31194 2.66816 0
M  V30 1322 N 124.16 -0.719506 1.40217 0
M  V30 1323 C 125.409 -1.47486 1.37589 0
M  V30 1324 C 125.722 -1.9559 -0.0201568 0
M  V30 1325 O 126.928 -2.70973 -0.169049 0
M  V30 1326 C 125.384 -2.66575 2.41796 0
M  V30 1327 C 124.992 -2.25358 3.87192 0
M  V30 1328 C 126.736 -3.4433 2.48269 0
M  V30 1329 C 124.643 -3.41262 4.83005 0
M  V30 1330 H 123.573 -0.553901 0.511576 0
M  V30 1331 H 126.224 -0.783427 1.65936 0
M  V30 1332 H 124.606 -3.3787 2.06543 0
M  V30 1333 H 125.78 -1.61509 4.31569 0
M  V30 1334 H 124.095 -1.60657 3.84159 0
M  V30 1335 H 126.692 -4.30569 3.17041 0
M  V30 1336 H 127.035 -3.87872 1.51198 0
M  V30 1337 H 127.568 -2.80076 2.82493 0
M  V30 1338 H 124.307 -3.02755 5.81394 0
M  V30 1339 H 123.827 -4.0404 4.43297 0
M  V30 1340 H 125.506 -4.07383 5.02641 0
M  V30 1341 N 125.638 -1.25649 -0.95132 0
M  V30 1342 C 126.866 -1.13343 -1.73092 0
M  V30 1343 C 127.281 0.312434 -1.86197 0
M  V30 1344 O 126.638 1.21465 -1.36207 0
M  V30 1345 C 126.689 -1.78602 -3.14299 0
M  V30 1346 O 126.41 -3.17537 -3.01831 0
M  V30 1347 C 127.911 -1.72119 -4.08522 0
M  V30 1348 H 125.131 -0.395181 -0.542285 0
M  V30 1349 H 127.675 -1.66076 -1.19328 0
M  V30 1350 H 125.83 -1.29832 -3.64996 0
M  V30 1351 H 126.244 -3.49676 -3.90931 0
M  V30 1352 H 127.718 -2.22435 -5.052 0
M  V30 1353 H 128.195 -0.685635 -4.33815 0
M  V30 1354 H 128.801 -2.20393 -3.63741 0
M  V30 1355 N 127.117 1.15442 -1.07289 0
M  V30 1356 C 128.08 2.18358 -0.696591 0
M  V30 1357 C 129.08 1.58637 0.262837 0
M  V30 1358 O 130.27 1.74145 0.0438809 0
M  V30 1359 C 127.402 3.4089 -0.0266151 0
M  V30 1360 H 128.595 2.53162 -1.60776 0
M  V30 1361 H 126.148 1.29893 -0.869342 0
M  V30 1362 H 126.883 3.11653 0.896822 0
M  V30 1363 H 126.668 3.85495 -0.716657 0
M  V30 1364 H 128.158 4.17009 0.222028 0
M  V30 1365 N 128.595 0.856903 1.32268 0
M  V30 1366 C 129.842 0.461386 1.97174 0
M  V30 1367 C 130.17 -0.983491 1.67803 0
M  V30 1368 O 129.425 -1.70541 0.959903 0
M  V30 1369 C 129.724 0.649919 3.51441 0
M  V30 1370 C 129.39 2.0656 4.00804 0
M  V30 1371 C 128.052 2.45279 4.13995 0
M  V30 1372 C 130.404 2.98947 4.26943 0
M  V30 1373 C 127.732 3.75653 4.50668 0
M  V30 1374 C 130.084 4.28822 4.65075 0
M  V30 1375 C 128.748 4.67472 4.76472 0
M  V30 1376 H 128.018 0.168833 0.72151 0
M  V30 1377 H 130.665 1.08739 1.57633 0
M  V30 1378 H 128.97 -0.0593018 3.91755 0
M  V30 1379 H 130.667 0.32391 3.9969 0
M  V30 1380 H 127.257 1.75495 3.91024 0
M  V30 1381 H 131.441 2.70265 4.16258 0
M  V30 1382 H 126.697 4.05379 4.57688 0
M  V30 1383 H 130.871 5.0047 4.84255 0
M  V30 1384 H 128.498 5.68539 5.04646 0
M  V30 1385 N 130.073 -1.45103 0.615059 0
M  V30 1386 C 131.319 -2.02483 0.113347 0
M  V30 1387 C 131.652 -1.48146 -1.25564 0
M  V30 1388 O 130.927 -0.659104 -1.82992 0
M  V30 1389 C 131.21 -3.60005 0.0825278 0
M  V30 1390 C 131.063 -4.2466 1.48271 0
M  V30 1391 C 132.382 -4.35972 -0.601401 0
M  V30 1392 H 129.501 -0.735764 0.0426632 0
M  V30 1393 H 132.143 -1.72868 0.788461 0
M  V30 1394 H 130.293 -3.85367 -0.492378 0
M  V30 1395 H 131.965 -4.10458 2.10527 0
M  V30 1396 H 130.208 -3.82772 2.04127 0
M  V30 1397 H 130.879 -5.336 1.41332 0
M  V30 1398 H 133.355 -4.15947 -0.112666 0
M  V30 1399 H 132.231 -5.45697 -0.592097 0
M  V30 1400 H 132.492 -4.09391 -1.66887 0
M  V30 1401 N 131.551 -0.354651 -1.53558 0
M  V30 1402 C 132.461 0.50515 -2.29097 0
M  V30 1403 C 133.477 1.10223 -1.34636 0
M  V30 1404 O 134.653 1.11553 -1.67684 0
M  V30 1405 C 131.718 1.63479 -3.05738 0
M  V30 1406 C 130.779 1.06636 -4.15845 0
M  V30 1407 C 130.012 2.14217 -4.88822 0
M  V30 1408 O 130.235 3.35137 -4.61562 0
M  V30 1409 O 129.169 1.77887 -5.75013 0
M  V30 1410 H 132.995 -0.109237 -3.03503 0
M  V30 1411 H 130.58 -0.119357 -1.48922 0
M  V30 1412 H 132.462 2.2918 -3.5363 0
M  V30 1413 H 131.137 2.23478 -2.34178 0
M  V30 1414 H 130.044 0.373565 -3.7223 0
M  V30 1415 H 131.377 0.511081 -4.89539 0
M  V30 1416 N 133.029 1.57378 -0.0835403 0
M  V30 1417 C 134.44 1.81261 0.447358 0
M  V30 1418 C 134.791 0.998331 1.68902 0
M  V30 1419 O 133.916 0.224282 2.15235 0
M  V30 1420 C 134.511 3.28767 0.818386 0
M  V30 1421 C 133.07 3.53455 1.29409 0
M  V30 1422 C 132.217 2.75831 0.285024 0
M  V30 1423 H 135.168 1.5566 -0.309115 0
M  V30 1424 H 135.189 3.41459 1.67887 0
M  V30 1425 H 134.701 3.88006 -0.0855019 0
M  V30 1426 H 132.802 2.99534 2.21608 0
M  V30 1427 H 132.915 4.62128 1.2639 0
M  V30 1428 H 131.279 2.42947 0.764767 0
M  V30 1429 H 132.062 3.37813 -0.611341 0
M  V30 1430 N 134.507 -0.190092 1.56449 0
M  V30 1431 C 135.754 -0.909705 1.80916 0
M  V30 1432 C 136.082 -1.83047 0.657583 0
M  V30 1433 O 135.337 -1.92428 -0.356356 0
M  V30 1434 C 135.636 -1.75382 3.1141 0
M  V30 1435 C 135.302 -0.983606 4.40041 0
M  V30 1436 C 133.964 -0.770967 4.74984 0
M  V30 1437 C 136.316 -0.442024 5.19322 0
M  V30 1438 C 133.644 -0.0053448 5.867 0
M  V30 1439 C 135.996 0.310412 6.31838 0
M  V30 1440 C 134.66 0.534023 6.6536 0
M  V30 1441 H 133.93 -0.332885 0.662019 0
M  V30 1442 H 136.577 -0.175762 1.90692 0
M  V30 1443 H 134.882 -2.55659 2.96893 0
M  V30 1444 H 136.579 -2.31331 3.27547 0
M  V30 1445 H 133.169 -1.15936 4.12622 0
M  V30 1446 H 137.353 -0.593693 4.92736 0
M  V30 1447 H 132.609 0.177825 6.11141 0
M  V30 1448 H 136.783 0.737419 6.92485 0
M  V30 1449 H 134.41 1.12918 7.51767 0
M  V30 1450 N 135.985 -1.50799 -0.457987 0
M  V30 1451 C 137.231 -1.62683 -1.21088 0
M  V30 1452 C 137.564 -0.332268 -1.91336 0
M  V30 1453 O 136.839 0.667043 -1.82704 0
M  V30 1454 C 137.122 -2.81615 -2.24422 0
M  V30 1455 C 136.975 -4.20989 -1.58392 0
M  V30 1456 C 138.294 -2.96085 -3.2561 0
M  V30 1457 H 135.413 -0.592087 -0.438864 0
M  V30 1458 H 138.055 -1.83225 -0.50286 0
M  V30 1459 H 136.205 -2.64231 -2.84806 0
M  V30 1460 H 137.877 -4.49994 -1.01504 0
M  V30 1461 H 136.12 -4.24641 -0.886704 0
M  V30 1462 H 136.791 -5.0016 -2.33547 0
M  V30 1463 H 139.267 -3.12042 -2.75262 0
M  V30 1464 H 138.143 -3.80902 -3.95228 0
M  V30 1465 H 138.404 -2.0726 -3.90507 0
M  V30 1466 N 137.463 0.71206 -1.40597 0
M  V30 1467 C 138.712 1.46754 -1.38369 0
M  V30 1468 C 139.025 1.95598 0.0097839 0
M  V30 1469 O 140.231 2.71059 0.154677 0
M  V30 1470 C 138.687 2.65289 -2.43207 0
M  V30 1471 C 138.295 2.23301 -3.88382 0
M  V30 1472 C 140.039 3.43008 -2.50091 0
M  V30 1473 C 137.946 3.38696 -4.84808 0
M  V30 1474 H 136.876 0.55118 -0.514506 0
M  V30 1475 H 139.527 0.774616 -1.66349 0
M  V30 1476 H 137.909 3.36769 -2.08332 0
M  V30 1477 H 139.083 1.59218 -4.32419 0
M  V30 1478 H 137.398 1.58618 -3.85006 0
M  V30 1479 H 139.995 4.28881 -3.1932 0
M  V30 1480 H 140.338 3.87065 -1.53253 0
M  V30 1481 H 140.871 2.78574 -2.83974 0
M  V30 1482 H 137.61 2.99668 -5.82992 0
M  V30 1483 H 137.13 4.01683 -4.45433 0
M  V30 1484 H 138.809 4.04712 -5.04794 0
M  V30 1485 N 138.941 1.26152 0.944643 0
M  V30 1486 C 139.871 1.09902 2.06019 0
M  V30 1487 C 140.852 0.00519538 1.70099 0
M  V30 1488 O 142.037 0.176583 1.93396 0
M  V30 1489 C 139.167 0.727562 3.39594 0
M  V30 1490 C 138.121 1.77274 3.89561 0
M  V30 1491 C 137.447 1.25569 5.19747 0
M  V30 1492 C 138.747 3.17357 4.14827 0
M  V30 1493 H 140.441 2.03217 2.19871 0
M  V30 1494 H 137.987 0.978452 1.05652 0
M  V30 1495 H 139.94 0.600777 4.17095 0
M  V30 1496 H 138.664 -0.241287 3.25707 0
M  V30 1497 H 137.323 1.88814 3.14237 0
M  V30 1498 H 136.971 0.276783 5.02238 0
M  V30 1499 H 136.671 1.95433 5.54148 0
M  V30 1500 H 138.195 1.1415 5.99835 0
M  V30 1501 H 139.609 3.08914 4.82954 0
M  V30 1502 H 138.006 3.84781 4.60504 0
M  V30 1503 H 139.076 3.63673 3.20734 0
M  V30 1504 N 140.419 -1.14872 1.07899 0
M  V30 1505 C 141.349 -2.2193 0.725887 0
M  V30 1506 C 142.33 -1.67622 -0.28927 0
M  V30 1507 O 143.515 -1.93533 -0.160787 0
M  V30 1508 C 140.645 -3.47061 0.128856 0
M  V30 1509 C 139.599 -4.14363 1.07178 0
M  V30 1510 C 138.925 -5.33636 0.337229 0
M  V30 1511 C 140.225 -4.63492 2.40775 0
M  V30 1512 H 141.919 -2.51724 1.62097 0
M  V30 1513 H 139.465 -1.20991 0.780838 0
M  V30 1514 H 141.418 -4.21199 -0.130147 0
M  V30 1515 H 140.142 -3.16617 -0.80134 0
M  V30 1516 H 138.801 -3.42173 1.3158 0
M  V30 1517 H 138.449 -4.99449 -0.596606 0
M  V30 1518 H 138.149 -5.79609 0.965788 0
M  V30 1519 H 139.673 -6.10539 0.0861567 0
M  V30 1520 H 141.087 -5.2913 2.20669 0
M  V30 1521 H 139.484 -5.20148 2.99276 0
M  V30 1522 H 140.554 -3.78834 3.02676 0
M  V30 1523 N 141.898 -0.863906 -1.31812 0
M  V30 1524 C 143.147 -0.46801 -1.96195 0
M  V30 1525 C 143.46 0.983474 -1.69077 0
M  V30 1526 O 144.666 1.48523 -2.27273 0
M  V30 1527 C 143.122 -0.785995 -3.51212 0
M  V30 1528 C 142.73 -2.25383 -3.87178 0
M  V30 1529 C 144.474 -0.458274 -4.22019 0
M  V30 1530 C 142.381 -2.51455 -5.3528 0
M  V30 1531 H 141.311 -0.171283 -0.734287 0
M  V30 1532 H 143.962 -1.05597 -1.50072 0
M  V30 1533 H 142.344 -0.127359 -3.95795 0
M  V30 1534 H 143.518 -2.95502 -3.53575 0
M  V30 1535 H 141.833 -2.54698 -3.2942 0
M  V30 1536 H 144.43 -0.630369 -5.30971 0
M  V30 1537 H 144.773 0.600834 -4.11941 0
M  V30 1538 H 145.306 -1.07319 -3.8305 0
M  V30 1539 H 142.045 -3.56025 -5.50387 0
M  V30 1540 H 141.565 -1.85923 -5.70257 0
M  V30 1541 H 143.244 -2.35874 -6.02472 0
M  V30 1542 N 143.376 1.44774 -0.622745 0
M  V30 1543 C 144.306 2.33382 0.0741861 0
M  V30 1544 C 145.287 1.47719 0.843387 0
M  V30 1545 O 146.472 1.76458 0.810934 0
M  V30 1546 C 143.602 3.30663 1.06204 0
M  V30 1547 C 142.556 4.26079 0.405037 0
M  V30 1548 C 141.882 5.13165 1.5022 0
M  V30 1549 C 143.182 5.1781 -0.683414 0
M  V30 1550 H 144.876 2.91905 -0.665713 0
M  V30 1551 H 142.422 1.40363 -0.321587 0
M  V30 1552 H 144.375 3.9153 1.55827 0
M  V30 1553 H 143.099 2.70331 1.83272 0
M  V30 1554 H 141.758 3.66532 -0.0704683 0
M  V30 1555 H 141.406 4.49191 2.26355 0
M  V30 1556 H 141.106 5.77812 1.06803 0
M  V30 1557 H 142.63 5.76902 2.00041 0
M  V30 1558 H 144.044 5.72661 -0.270631 0
M  V30 1559 H 142.441 5.91015 -1.04023 0
M  V30 1560 H 143.511 4.59326 -1.55395 0
M  V30 1561 N 144.854 0.36279 1.53368 0
M  V30 1562 C 146.103 -0.22888 2.00397 0
M  V30 1563 C 146.416 -1.50096 1.25421 0
M  V30 1564 O 147.622 -2.17106 1.63025 0
M  V30 1565 C 146.078 -0.458417 3.56969 0
M  V30 1566 C 145.686 0.798877 4.4082 0
M  V30 1567 C 147.43 -1.00789 4.12361 0
M  V30 1568 C 145.337 0.539078 5.88938 0
M  V30 1569 H 144.267 -0.089305 0.748693 0
M  V30 1570 H 146.918 0.481099 1.77081 0
M  V30 1571 H 145.3 -1.22959 3.76427 0
M  V30 1572 H 146.474 1.57262 4.33134 0
M  V30 1573 H 144.789 1.27137 3.96516 0
M  V30 1574 H 147.386 -1.21754 5.20653 0
M  V30 1575 H 147.729 -1.9692 3.66781 0
M  V30 1576 H 148.262 -0.296961 3.9669 0
M  V30 1577 H 145.001 1.47064 6.3879 0
M  V30 1578 H 144.521 -0.196222 5.99479 0
M  V30 1579 H 146.2 0.163542 6.46793 0
M  V30 1580 N 146.332 -1.57332 0.0918853 0
M  V30 1581 C 147.295 -2.12708 -0.85369 0
M  V30 1582 C 148.295 -1.05561 -1.213 0
M  V30 1583 O 149.485 -1.31461 -1.14296 0
M  V30 1584 C 146.617 -2.64503 -2.15061 0
M  V30 1585 H 147.81 -2.97573 -0.3729 0
M  V30 1586 H 145.363 -1.55509 -0.157072 0
M  V30 1587 H 146.098 -1.83149 -2.67632 0
M  V30 1588 H 145.883 -3.4284 -1.90272 0
M  V30 1589 H 147.373 -3.07351 -2.82711 0
M  V30 1590 N 147.81 0.181792 -1.56548 0
M  V30 1591 C 148.758 1.24461 -1.965 0
M  V30 1592 C 149.752 1.464 -0.852261 0
M  V30 1593 O 150.958 1.47103 -1.03733 0
M  V30 1594 H 147.333 0.418138 -0.625031 0
M  V30 1595 H 149.304 0.880714 -2.85107 0
M  V30 1596 C 148.053 2.57891 -2.33212 0
M  V30 1597 H 147.376 2.41829 -3.18369 0
M  V30 1598 H 148.816 3.3097 -2.65019 0
M  V30 1599 C 147.275 3.15871 -1.17163 0
M  V30 1600 O 147.805 3.9913 -0.453708 0
M  V30 1601 N 146.011 2.74808 -0.944936 0
M  V30 1602 H 145.558 2.07205 -1.53049 0
M  V30 1603 H 145.516 3.13939 -0.170286 0
M  V30 1604 N 149.288 1.51039 0.449983 0
M  V30 1605 C 150.251 1.70863 1.5277 0
M  V30 1606 C 151.251 0.578846 1.5002 0
M  V30 1607 O 152.441 0.846213 1.52266 0
M  V30 1608 C 149.573 1.75341 2.9235 0
M  V30 1609 H 150.766 2.67034 1.36502 0
M  V30 1610 H 148.319 1.40838 0.677812 0
M  V30 1611 H 149.054 0.809383 3.14037 0
M  V30 1612 H 148.839 2.57436 2.95752 0
M  V30 1613 H 150.329 1.92559 3.70555 0
M  V30 1614 N 150.766 -0.704594 1.40972 0
M  V30 1615 C 152.015 -1.46018 1.39146 0
M  V30 1616 C 152.328 -1.956 0.000589254 0
M  V30 1617 O 153.534 -2.71137 -0.1403 0
M  V30 1618 C 151.99 -2.63996 2.4461 0
M  V30 1619 C 151.598 -2.21238 3.89561 0
M  V30 1620 C 153.342 -3.41677 2.51907 0
M  V30 1621 C 151.249 -3.3612 4.86598 0
M  V30 1622 H 150.179 -0.548444 0.517422 0
M  V30 1623 H 152.83 -0.765784 1.66757 0
M  V30 1624 H 151.212 -3.3566 2.10115 0
M  V30 1625 H 152.386 -1.56923 4.33257 0
M  V30 1626 H 150.701 -1.56574 3.85841 0
M  V30 1627 H 153.298 -4.27182 3.2159 0
M  V30 1628 H 153.641 -3.86247 1.55303 0
M  V30 1629 H 154.174 -2.77064 2.85448 0
M  V30 1630 H 150.913 -2.96572 5.84573 0
M  V30 1631 H 150.433 -3.99315 4.47557 0
M  V30 1632 H 152.112 -4.02029 5.06934 0
M  V30 1633 N 152.244 -1.26651 -0.937939 0
M  V30 1634 C 153.49 -1.12553 -1.687 0
M  V30 1635 C 153.823 0.329782 -1.91379 0
M  V30 1636 O 153.098 1.24202 -1.4968 0
M  V30 1637 C 153.381 -1.89862 -3.05981 0
M  V30 1638 C 153.234 -3.43318 -2.90607 0
M  V30 1639 C 154.553 -1.69499 -4.0615 0
M  V30 1640 H 151.672 -0.410257 -0.612257 0
M  V30 1641 H 154.314 -1.55685 -1.08913 0
M  V30 1642 H 152.464 -1.53204 -3.57017 0
M  V30 1643 H 154.136 -3.89747 -2.46769 0
M  V30 1644 H 152.379 -3.70179 -2.26164 0
M  V30 1645 H 153.05 -3.92642 -3.8799 0
M  V30 1646 H 155.526 -2.01442 -3.64088 0
M  V30 1647 H 154.402 -2.26002 -5.00214 0
M  V30 1648 H 154.663 -0.640365 -4.37438 0
M  V30 1649 N 153.722 1.14298 -1.08507 0
M  V30 1650 C 154.97 1.84993 -0.813763 0
M  V30 1651 C 155.291 1.83405 0.662393 0
M  V30 1652 O 154.561 1.28319 1.48024 0
M  V30 1653 H 153.141 0.684966 -0.298045 0
M  V30 1654 H 155.803 1.385 -1.37126 0
M  V30 1655 H 154.899 2.89788 -1.15884 0
M  V30 1656 N 155.201 0.870884 1.31352 0
M  V30 1657 C 156.447 0.482987 1.96965 0
M  V30 1658 C 156.78 -0.962462 1.68672 0
M  V30 1659 O 156.055 -1.6779 0.98371 0
M  V30 1660 C 156.338 0.741752 3.52378 0
M  V30 1661 C 156.191 2.2368 3.9024 0
M  V30 1662 C 157.51 0.208838 4.39604 0
M  V30 1663 H 154.629 0.176955 0.715441 0
M  V30 1664 H 157.271 1.09229 1.55464 0
M  V30 1665 H 155.421 0.223149 3.87859 0
M  V30 1666 H 157.093 2.82273 3.64856 0
M  V30 1667 H 155.336 2.70901 3.38814 0
M  V30 1668 H 156.007 2.3685 4.98604 0
M  V30 1669 H 158.483 0.652529 4.10952 0
M  V30 1670 H 157.359 0.419336 5.47296 0
M  V30 1671 H 157.62 -0.889275 4.33064 0
M  V30 1672 N 156.679 -1.44442 0.630414 0
M  V30 1673 C 157.925 -2.02894 0.143332 0
M  V30 1674 C 158.28 -1.48697 -1.22094 0
M  V30 1675 O 157.573 -0.661171 -1.79831 0
M  V30 1676 C 157.767 -3.57332 0.0697835 0
M  V30 1677 C 157.596 -4.26512 1.42539 0
M  V30 1678 C 156.366 -4.63516 2.01198 0
M  V30 1679 C 158.564 -4.57004 2.35907 0
M  V30 1680 N 156.546 -5.17661 3.30001 0
M  V30 1681 C 157.917 -5.12223 3.49324 0
M  V30 1682 C 159.972 -4.38955 2.34995 0
M  V30 1683 C 158.675 -5.51295 4.62024 0
M  V30 1684 C 160.701 -4.79075 3.46758 0
M  V30 1685 C 160.063 -5.34407 4.58899 0
M  V30 1686 H 156.162 -0.776041 0.0963523 0
M  V30 1687 H 158.746 -1.75945 0.833752 0
M  V30 1688 H 156.917 -3.83894 -0.589915 0
M  V30 1689 H 158.649 -4.02451 -0.42606 0
M  V30 1690 H 155.404 -4.47811 1.54151 0
M  V30 1691 H 155.828 -5.4921 3.95851 0
M  V30 1692 H 160.47 -3.95469 1.49545 0
M  V30 1693 H 158.188 -5.93736 5.48182 0
M  V30 1694 H 161.774 -4.66824 3.47227 0
M  V30 1695 H 160.654 -5.64878 5.4395 0
M  V30 1696 N 158.157 -0.370918 -1.53173 0
M  V30 1697 C 159.089 0.507823 -2.23503 0
M  V30 1698 C 160.102 1.04182 -1.251 0
M  V30 1699 O 161.291 0.947286 -1.5129 0
M  V30 1700 C 158.391 1.71447 -2.92334 0
M  V30 1701 C 157.564 1.31105 -4.17289 0
M  V30 1702 C 156.623 2.38035 -4.69282 0
M  V30 1703 O 155.649 2.00204 -5.32829 0
M  V30 1704 N 156.851 3.69697 -4.47554 0
M  V30 1705 H 159.616 -0.0946382 -2.99551 0
M  V30 1706 H 157.177 -0.196358 -1.60705 0
M  V30 1707 H 159.169 2.42469 -3.24023 0
M  V30 1708 H 157.739 2.22368 -2.19707 0
M  V30 1709 H 156.959 0.430462 -3.91843 0
M  V30 1710 H 158.247 1.0179 -4.98514 0
M  V30 1711 H 157.645 4.03205 -3.9679 0
M  V30 1712 H 156.202 4.36807 -4.8378 0
M  V30 1713 N 159.635 1.57281 -0.100228 0
M  V30 1714 C 160.545 2.17833 0.870965 0
M  V30 1715 C 161.561 1.14921 1.30649 0
M  V30 1716 O 162.737 1.47313 1.37335 0
M  V30 1717 C 159.802 2.75085 2.1102 0
M  V30 1718 C 158.863 3.9297 1.72838 0
M  V30 1719 C 158.096 4.47482 2.90854 0
M  V30 1720 O 158.319 4.00922 4.05731 0
M  V30 1721 O 157.253 5.38433 2.69023 0
M  V30 1722 H 161.079 3.0124 0.38575 0
M  V30 1723 H 158.664 1.48881 0.124397 0
M  V30 1724 H 160.546 3.11656 2.83634 0
M  V30 1725 H 159.221 1.94721 2.58584 0
M  V30 1726 H 158.128 3.61201 0.973883 0
M  V30 1727 H 159.461 4.74713 1.30033 0
M  V30 1728 N 161.113 -0.173488 1.56642 0
M  V30 1729 C 162.529 -0.525174 1.50712 0
M  V30 1730 C 162.729 -1.8476 0.804107 0
M  V30 1731 O 161.785 -2.49869 0.363574 0
M  V30 1732 C 163.098 -0.559937 2.95441 0
M  V30 1733 C 164.646 -0.647288 3.06234 0
M  V30 1734 C 165.121 -0.712963 4.52417 0
M  V30 1735 N 166.612 -0.775911 4.56655 0
M  V30 1736 C 167.347 -0.847264 5.67106 0
M  V30 1737 N 166.843 -0.879585 6.87194 0
M  V30 1738 N 168.636 -0.886117 5.55071 0
M  V30 1739 H 160.787 0.693681 2.00753 0
M  V30 1740 H 163.05 0.249841 0.914485 0
M  V30 1741 H 162.756 0.343049 3.50023 0
M  V30 1742 H 162.63 -1.40718 3.49969 0
M  V30 1743 H 165.017 -1.5407 2.51687 0
M  V30 1744 H 165.098 0.226586 2.54794 0
M  V30 1745 H 164.742 0.176183 5.07594 0
M  V30 1746 H 164.672 -1.60295 5.0161 0
M  V30 1747 H 167.163 -0.759304 3.70193 0
M  V30 1748 H 167.476 -0.935144 7.67121 0
M  V30 1749 H 165.821 -0.847898 6.89808 0
M  V30 1750 H 169.012 -0.857853 4.60172 0
M  V30 1751 H 169.185 -0.938263 6.41171 0
M  V30 1752 N 162.591 -1.51276 -0.441967 0
M  V30 1753 C 163.539 -1.72823 -1.55676 0
M  V30 1754 C 164.533 -0.59445 -1.58627 0
M  V30 1755 O 165.739 -0.775715 -1.62427 0
M  V30 1756 H 162.114 -0.545983 -0.517113 0
M  V30 1757 H 164.085 -2.6628 -1.34675 0
M  V30 1758 C 162.834 -1.86619 -2.93375 0
M  V30 1759 H 162.157 -2.73264 -2.91834 0
M  V30 1760 H 163.597 -2.05709 -3.70756 0
M  V30 1761 C 162.056 -0.624842 -3.31055 0
M  V30 1762 O 162.586 0.222636 -4.01083 0
M  V30 1763 N 160.792 -0.470288 -2.86769 0
M  V30 1764 H 160.339 -1.161 -2.29953 0
M  V30 1765 H 160.297 0.359051 -3.12343 0
M  V30 1766 N 164.069 0.697108 -1.41344 0
M  V30 1767 C 165.032 1.79281 -1.42797 0
M  V30 1768 C 166.032 1.57607 -0.318837 0
M  V30 1769 O 167.222 1.64309 -0.578642 0
M  V30 1770 C 164.354 3.17632 -1.23785 0
M  V30 1771 H 165.547 1.79385 -2.40335 0
M  V30 1772 H 163.1 0.904582 -1.27464 0
M  V30 1773 H 163.835 3.23167 -0.270814 0
M  V30 1774 H 163.62 3.34765 -2.04144 0
M  V30 1775 H 165.11 3.97617 -1.27633 0
M  V30 1776 N 165.547 1.27147 0.931209 0
M  V30 1777 C 166.457 1.11372 2.06478 0
M  V30 1778 C 167.473 0.044645 1.73943 0
M  V30 1779 O 168.649 0.250417 1.99837 0
M  V30 1780 C 165.714 0.758838 3.38294 0
M  V30 1781 C 164.775 1.90841 3.84549 0
M  V30 1782 C 164.008 1.57036 5.10074 0
M  V30 1783 O 164.231 0.476645 5.68405 0
M  V30 1784 O 163.165 2.40839 5.51616 0
M  V30 1785 H 166.991 2.06493 2.22698 0
M  V30 1786 H 164.576 1.06301 1.04978 0
M  V30 1787 H 166.458 0.574098 4.17471 0
M  V30 1788 H 165.133 -0.162879 3.2329 0
M  V30 1789 H 164.04 2.14819 3.06274 0
M  V30 1790 H 165.373 2.81021 4.04089 0
M  V30 1791 N 167.025 -1.13721 1.09112 0
M  V30 1792 C 167.973 -2.21103 0.722219 0
M  V30 1793 C 168.967 -1.67147 -0.275374 0
M  V30 1794 O 170.173 -1.79477 -0.137176 0
M  V30 1795 H 166.548 -0.720445 0.215553 0
M  V30 1796 H 168.519 -2.49483 1.63709 0
M  V30 1797 C 167.268 -3.47352 0.15543 0
M  V30 1798 H 166.591 -3.89206 0.914246 0
M  V30 1799 H 168.031 -4.2395 -0.0647967 0
M  V30 1800 C 166.49 -3.1814 -1.10852 0
M  V30 1801 O 167.02 -3.36604 -2.19227 0
M  V30 1802 N 165.226 -2.72045 -1.02176 0
M  V30 1803 H 164.773 -2.57221 -0.139764 0
M  V30 1804 H 164.731 -2.52875 -1.8682 0
M  V30 1805 N 168.503 -0.877838 -1.30888 0
M  V30 1806 C 169.466 -0.344265 -2.266 0
M  V30 1807 C 170.466 0.50922 -1.52524 0
M  V30 1808 O 171.656 0.317398 -1.71284 0
M  V30 1809 C 168.788 0.510198 -3.37061 0
M  V30 1810 H 169.981 -1.1893 -2.7531 0
M  V30 1811 H 167.534 -0.654088 -1.41956 0
M  V30 1812 H 168.269 1.37612 -2.93655 0
M  V30 1813 H 168.054 -0.101047 -3.9197 0
M  V30 1814 H 169.544 0.875537 -4.08319 0
M  V30 1815 N 169.982 1.44106 -0.638065 0
M  V30 1816 C 171.231 2.01194 -0.142744 0
M  V30 1817 C 171.544 1.50835 1.24532 0
M  V30 1818 O 172.75 2.00096 1.83504 0
M  V30 1819 C 171.206 3.59319 -0.20442 0
M  V30 1820 C 170.814 4.18674 -1.59423 0
M  V30 1821 C 172.558 4.23854 0.234079 0
M  V30 1822 C 170.465 5.69045 -1.61065 0
M  V30 1823 H 169.395 0.752367 -0.0495998 0
M  V30 1824 H 172.046 1.65246 -0.797881 0
M  V30 1825 H 170.428 3.92598 0.517946 0
M  V30 1826 H 171.602 3.96921 -2.34074 0
M  V30 1827 H 169.917 3.66453 -1.97741 0
M  V30 1828 H 172.514 5.34155 0.241443 0
M  V30 1829 H 172.857 3.96688 1.2627 0
M  V30 1830 H 173.39 3.95403 -0.436025 0
M  V30 1831 H 170.129 6.00956 -2.61787 0
M  V30 1832 H 169.649 5.929 -0.90718 0
M  V30 1833 H 171.328 6.32809 -1.34766 0
M  V30 1834 N 171.46 0.379036 1.52974 0
M  V30 1835 C 172.37 -0.468639 2.29872 0
M  V30 1836 C 173.386 -1.08067 1.36373 0
M  V30 1837 O 174.562 -1.08871 1.69438 0
M  V30 1838 C 171.627 -1.58594 3.083 0
M  V30 1839 C 170.688 -1.00007 4.17489 0
M  V30 1840 C 169.921 -2.06413 4.92168 0
M  V30 1841 O 170.144 -3.27751 4.66835 0
M  V30 1842 O 169.078 -1.68717 5.7777 0
M  V30 1843 H 172.904 0.157508 3.03291 0
M  V30 1844 H 170.489 0.143035 1.48714 0
M  V30 1845 H 172.371 -2.23525 3.57232 0
M  V30 1846 H 171.046 -2.19724 2.37703 0
M  V30 1847 H 169.953 -0.314299 3.72777 0
M  V30 1848 H 171.286 -0.433135 4.90291 0
M  V30 1849 N 172.938 -1.57226 0.108567 0
M  V30 1850 C 173.901 -2.13602 -0.831082 0
M  V30 1851 C 174.901 -1.06841 -1.20173 0
M  V30 1852 O 176.091 -1.32666 -1.12895 0
M  V30 1853 C 173.223 -2.66769 -2.12243 0
M  V30 1854 H 174.416 -2.97951 -0.341317 0
M  V30 1855 H 171.969 -1.55667 -0.14057 0
M  V30 1856 H 172.704 -1.85977 -2.65675 0
M  V30 1857 H 172.489 -3.44839 -1.86625 0
M  V30 1858 H 173.979 -3.10332 -2.79435 0
M  V30 1859 N 174.416 0.165178 -1.56732 0
M  V30 1860 C 175.346 1.20651 -1.99914 0
M  V30 1861 C 176.327 1.45827 -0.875705 0
M  V30 1862 O 177.512 1.57057 -1.14223 0
M  V30 1863 C 174.642 2.54401 -2.36427 0
M  V30 1864 C 173.596 2.43782 -3.51787 0
M  V30 1865 C 172.922 3.82078 -3.7406 0
M  V30 1866 C 174.222 1.93732 -4.85041 0
M  V30 1867 H 175.916 0.847534 -2.87154 0
M  V30 1868 H 173.462 0.40625 -1.38151 0
M  V30 1869 H 175.415 3.27458 -2.65234 0
M  V30 1870 H 174.139 2.92098 -1.46103 0
M  V30 1871 H 172.798 1.73178 -3.23117 0
M  V30 1872 H 172.446 4.17179 -2.81017 0
M  V30 1873 H 172.146 3.7584 -4.51684 0
M  V30 1874 H 173.67 4.56712 -4.05274 0
M  V30 1875 H 175.084 2.56569 -5.12684 0
M  V30 1876 H 173.481 1.98428 -5.66345 0
M  V30 1877 H 174.551 0.891962 -4.76626 0
M  V30 1878 N 175.894 1.51508 0.433938 0
M  V30 1879 C 176.841 1.73068 1.52696 0
M  V30 1880 C 177.811 0.572441 1.55924 0
M  V30 1881 O 178.996 0.807253 1.72882 0
M  V30 1882 C 176.136 1.86474 2.90381 0
M  V30 1883 C 175.249 3.14037 2.96656 0
M  V30 1884 C 174.384 3.18019 4.25485 0
M  V30 1885 C 173.423 4.39882 4.2564 0
M  V30 1886 N 172.56 4.41394 5.45999 0
M  V30 1887 H 177.4 2.66366 1.33615 0
M  V30 1888 H 174.937 1.32008 0.649018 0
M  V30 1889 H 176.895 1.92229 3.70275 0
M  V30 1890 H 175.525 0.965809 3.08013 0
M  V30 1891 H 174.577 3.17575 2.09404 0
M  V30 1892 H 175.889 4.0394 2.92633 0
M  V30 1893 H 175.043 3.22708 5.13755 0
M  V30 1894 H 173.782 2.2601 4.3217 0
M  V30 1895 H 172.787 4.35366 3.35763 0
M  V30 1896 H 174.012 5.33159 4.20617 0
M  V30 1897 H 171.958 3.52258 5.53399 0
M  V30 1898 H 171.875 5.25111 5.4387 0
M  V30 1899 H 173.143 4.50281 6.36292 0
M  V30 1900 N 177.372 -0.689602 1.41712 0
M  V30 1901 C 178.282 -1.83314 1.46401 0
M  V30 1902 C 179.298 -1.7036 0.35405 0
M  V30 1903 O 180.474 -1.92171 0.602692 0
M  V30 1904 C 177.539 -3.19344 1.34982 0
M  V30 1905 C 176.6 -3.44363 2.56344 0
M  V30 1906 C 175.833 -4.73904 2.45461 0
M  V30 1907 O 176.056 -5.508 1.48241 0
M  V30 1908 O 174.99 -4.99839 3.35328 0
M  V30 1909 H 178.816 -1.82314 2.42889 0
M  V30 1910 H 176.401 -0.843438 1.23315 0
M  V30 1911 H 178.283 -4.00547 1.3092 0
M  V30 1912 H 176.958 -3.21014 0.41612 0
M  V30 1913 H 175.865 -2.63067 2.65982 0
M  V30 1914 H 177.198 -3.47512 3.48563 0
M  V30 1915 N 178.85 -1.27639 -0.924453 0
M  V30 1916 C 180.08 -1.16819 -1.70402 0
M  V30 1917 C 180.488 0.277191 -1.87158 0
M  V30 1918 O 179.831 1.20025 -1.39067 0
M  V30 1919 C 179.893 -1.78305 -3.12166 0
M  V30 1920 C 179.557 -3.27502 -3.18734 0
M  V30 1921 C 180.554 -4.2409 -3.00738 0
M  V30 1922 C 178.239 -3.68269 -3.4159 0
M  V30 1923 C 180.233 -5.59422 -3.05492 0
M  V30 1924 C 177.92 -5.0373 -3.45977 0
M  V30 1925 C 178.918 -5.99116 -3.27946 0
M  V30 1926 O 178.606 -7.32108 -3.32074 0
M  V30 1927 H 178.338 -0.406931 -0.539799 0
M  V30 1928 H 180.892 -1.69078 -1.16626 0
M  V30 1929 H 179.122 -1.20528 -3.67437 0
M  V30 1930 H 180.811 -1.62154 -3.72103 0
M  V30 1931 H 181.577 -3.93931 -2.82919 0
M  V30 1932 H 177.456 -2.94496 -3.54673 0
M  V30 1933 H 181 -6.33852 -2.91337 0
M  V30 1934 H 176.897 -5.33543 -3.63321 0
M  V30 1935 H 177.665 -7.40598 -3.48507 0
M  V30 1936 N 180.328 1.1314 -1.09713 0
M  V30 1937 C 181.238 2.22242 -0.751367 0
M  V30 1938 C 182.254 1.72224 0.247938 0
M  V30 1939 O 183.43 2.01205 0.0885463 0
M  V30 1940 C 180.495 3.46231 -0.180274 0
M  V30 1941 C 179.556 4.11125 -1.2359 0
M  V30 1942 C 178.789 5.29195 -0.691966 0
M  V30 1943 O 179.012 5.68342 0.48414 0
M  V30 1944 O 177.946 5.84214 -1.44838 0
M  V30 1945 H 181.772 2.54197 -1.66186 0
M  V30 1946 H 179.357 1.21331 -0.871735 0
M  V30 1947 H 181.239 4.21185 0.134739 0
M  V30 1948 H 179.914 3.1597 0.703185 0
M  V30 1949 H 178.821 3.37985 -1.60366 0
M  V30 1950 H 180.154 4.45524 -2.09211 0
M  V30 1951 N 181.806 0.884767 1.30421 0
M  V30 1952 C 183.217 0.553656 1.78302 0
M  V30 1953 C 183.568 -0.930153 1.7275 0
M  V30 1954 O 182.693 -1.72681 1.30423 0
M  V30 1955 C 183.288 0.998234 3.2376 0
M  V30 1956 C 181.847 0.71854 3.69478 0
M  V30 1957 C 180.994 1.18132 2.50879 0
M  V30 1958 H 183.945 1.06901 1.17294 0
M  V30 1959 H 183.966 0.327118 3.79091 0
M  V30 1960 H 183.478 2.0782 3.27769 0
M  V30 1961 H 181.579 -0.349444 3.70958 0
M  V30 1962 H 181.692 1.30595 4.60958 0
M  V30 1963 H 180.056 0.600669 2.47516 0
M  V30 1964 H 180.839 2.26902 2.57624 0
M  V30 1965 N 183.284 -1.43765 0.645699 0
M  V30 1966 C 184.194 -2.34544 -0.0512957 0
M  V30 1967 C 185.21 -1.53455 -0.82022 0
M  V30 1968 O 186.386 -1.86133 -0.769176 0
M  V30 1969 C 183.451 -3.31636 -1.01087 0
M  V30 1970 C 182.512 -4.2863 -0.239712 0
M  V30 1971 C 181.745 -5.21084 -1.15358 0
M  V30 1972 O 181.968 -5.1779 -2.39269 0
M  V30 1973 O 180.902 -5.98593 -0.630038 0
M  V30 1974 H 184.728 -2.95624 0.695718 0
M  V30 1975 H 182.313 -1.43781 0.405882 0
M  V30 1976 H 184.195 -3.9136 -1.56254 0
M  V30 1977 H 182.87 -2.73069 -1.73824 0
M  V30 1978 H 181.777 -3.72408 0.355356 0
M  V30 1979 H 183.11 -4.90157 0.447936 0
M  V30 1980 N 184.763 -0.387143 -1.52771 0
M  V30 1981 C 185.696 0.493123 -2.22808 0
M  V30 1982 C 186.674 1.0658 -1.22798 0
M  V30 1983 O 187.858 1.11785 -1.51777 0
M  V30 1984 C 184.985 1.68238 -2.93962 0
M  V30 1985 C 184.031 1.23515 -4.08223 0
M  V30 1986 S 184.864 0.21848 -5.35054 0
M  V30 1987 C 186.02 1.41357 -6.09729 0
M  V30 1988 H 186.253 -0.101625 -2.97126 0
M  V30 1989 H 183.786 -0.171323 -1.53447 0
M  V30 1990 H 185.744 2.36443 -3.35567 0
M  V30 1991 H 184.405 2.24842 -2.19328 0
M  V30 1992 H 183.598 2.12304 -4.57103 0
M  V30 1993 H 183.2 0.632044 -3.68621 0
M  V30 1994 H 185.492 2.34101 -6.3577 0
M  V30 1995 H 186.435 0.965736 -7.01484 0
M  V30 1996 H 186.843 1.6294 -5.40473 0
M  V30 1997 N 186.241 1.57166 -0.116904 0
M  V30 1998 C 187.489 1.94737 0.540533 0
M  V30 1999 C 187.81 1.00096 1.67349 0
M  V30 2000 O 187.08 0.0568854 1.95817 0
M  V30 2001 H 185.66 0.718981 0.202669 0
M  V30 2002 H 188.322 1.94017 -0.185353 0
M  V30 2003 H 187.418 2.97719 0.936483 0
M  V30 2004 N 187.719 -0.156864 1.56817 0
M  V30 2005 C 188.666 -1.19394 1.97519 0
M  V30 2006 C 189.636 -1.4322 0.841265 0
M  V30 2007 O 190.821 -1.55719 1.10255 0
M  V30 2008 C 187.961 -2.52483 2.35258 0
M  V30 2009 C 187.074 -2.35914 3.61896 0
M  V30 2010 C 186.209 -3.61969 3.88782 0
M  V30 2011 C 185.248 -3.40395 5.08722 0
M  V30 2012 N 184.385 -4.58556 5.31668 0
M  V30 2013 H 189.225 -0.839845 2.85921 0
M  V30 2014 H 186.762 -0.403264 1.41464 0
M  V30 2015 H 188.72 -3.30071 2.55165 0
M  V30 2016 H 187.35 -2.85859 1.49949 0
M  V30 2017 H 186.402 -1.49429 3.49821 0
M  V30 2018 H 187.714 -2.15926 4.49641 0
M  V30 2019 H 186.868 -4.47989 4.09135 0
M  V30 2020 H 185.607 -3.84951 2.9944 0
M  V30 2021 H 184.612 -2.52763 4.88253 0
M  V30 2022 H 185.837 -3.18822 5.99608 0
M  V30 2023 H 183.783 -4.81729 4.45279 0
M  V30 2024 H 183.7 -4.41535 6.13664 0
M  V30 2025 H 184.968 -5.45817 5.5651 0
M  V30 2026 N 189.197 -1.51736 -0.425897 0
M  V30 2027 C 190.443 -1.65214 -1.1761 0
M  V30 2028 C 190.776 -0.372778 -1.90589 0
M  V30 2029 O 190.051 0.628139 -1.84078 0
M  V30 2030 C 190.334 -2.86312 -2.18398 0
M  V30 2031 C 190.187 -4.24254 -1.49426 0
M  V30 2032 C 191.506 -3.02925 -3.19256 0
M  V30 2033 H 188.625 -0.601263 -0.426206 0
M  V30 2034 H 191.267 -1.8425 -0.463882 0
M  V30 2035 H 189.417 -2.70213 -2.79137 0
M  V30 2036 H 191.089 -4.52046 -0.919362 0
M  V30 2037 H 189.332 -4.26426 -0.796432 0
M  V30 2038 H 190.003 -5.05001 -2.22885 0
M  V30 2039 H 192.479 -3.1781 -2.68581 0
M  V30 2040 H 191.355 -3.89199 -3.8706 0
M  V30 2041 H 191.616 -2.15497 -3.86023 0
M  V30 2042 N 190.675 0.682077 -1.42076 0
M  V30 2043 C 191.905 1.46844 -1.45329 0
M  V30 2044 C 192.313 1.89102 -0.0609328 0
M  V30 2045 O 191.656 1.58238 0.933082 0
M  V30 2046 C 191.718 2.75375 -2.31104 0
M  V30 2047 C 191.382 2.55238 -3.79081 0
M  V30 2048 C 192.379 2.20309 -4.70914 0
M  V30 2049 C 190.064 2.70459 -4.2327 0
M  V30 2050 C 192.058 2.00859 -6.04925 0
M  V30 2051 C 189.745 2.50624 -5.57343 0
M  V30 2052 C 190.743 2.15876 -6.47986 0
M  V30 2053 O 190.431 1.96227 -7.79583 0
M  V30 2054 H 190.163 0.4586 -0.496651 0
M  V30 2055 H 192.717 0.846131 -1.87162 0
M  V30 2056 H 190.947 3.40061 -1.84107 0
M  V30 2057 H 192.636 3.37231 -2.25898 0
M  V30 2058 H 193.402 2.08153 -4.38061 0
M  V30 2059 H 189.281 2.96485 -3.53012 0
M  V30 2060 H 192.825 1.7366 -6.75639 0
M  V30 2061 H 188.722 2.62375 -5.89771 0
M  V30 2062 H 189.49 2.10883 -7.90867 0
M  V30 2063 N 192.153 1.28127 0.917671 0
M  V30 2064 C 193.569 1.05749 1.19538 0
M  V30 2065 C 193.769 -0.202633 2.00479 0
M  V30 2066 O 192.825 -0.905382 2.3571 0
M  V30 2067 C 194.138 2.30273 1.93378 0
M  V30 2068 C 195.686 2.35412 2.06277 0
M  V30 2069 C 196.161 3.59692 2.83524 0
M  V30 2070 N 197.652 3.60309 2.91087 0
M  V30 2071 C 198.387 4.53147 3.51348 0
M  V30 2072 N 197.883 5.563 4.12919 0
M  V30 2073 N 199.676 4.40751 3.48849 0
M  V30 2074 H 191.827 2.09024 0.377184 0
M  V30 2075 H 194.09 0.919798 0.22951 0
M  V30 2076 H 193.796 3.22055 1.41328 0
M  V30 2077 H 193.67 2.36378 2.93947 0
M  V30 2078 H 196.057 1.4413 2.57508 0
M  V30 2079 H 196.138 2.33304 1.04895 0
M  V30 2080 H 195.782 4.51316 2.32973 0
M  V30 2081 H 195.712 3.59054 3.85211 0
M  V30 2082 H 198.203 2.85714 2.47338 0
M  V30 2083 H 198.516 6.2329 4.56869 0
M  V30 2084 H 196.861 5.60131 4.11435 0
M  V30 2085 H 200.052 3.59367 2.99955 0
M  V30 2086 H 200.225 5.13291 3.9552 0
M  V30 2087 N 193.631 -1.12557 1.10312 0
M  V30 2088 C 194.594 -2.16434 0.75424 0
M  V30 2089 C 195.594 -1.59278 -0.220685 0
M  V30 2090 O 196.784 -1.742 0.00230591 0
M  V30 2091 C 193.916 -3.40699 0.116987 0
M  V30 2092 H 195.109 -2.48811 1.67431 0
M  V30 2093 H 192.662 -1.27542 0.903475 0
M  V30 2094 H 193.397 -3.13921 -0.813877 0
M  V30 2095 H 193.182 -3.83459 0.818613 0
M  V30 2096 H 194.672 -4.17451 -0.111387 0
M  V30 2097 N 195.109 -0.891671 -1.2995 0
M  V30 2098 C 196.386 -0.433307 -1.9074 0
M  V30 2099 C 196.766 1.08646 -1.80995 0
M  V30 2100 O 196.114 1.92476 -1.23147 0
M  V30 2101 C 196.324 -0.938895 -3.36134 0
M  V30 2102 C 197.672 -0.977829 -4.13187 0
M  V30 2103 O 198.696 -0.886015 -3.45005 0
M  V30 2104 O 197.555 -1.11453 -5.35015 0
M  V30 2105 H 194.649 -0.133699 -0.816121 0
M  V30 2106 H 197.195 -0.981011 -1.38471 0
M  V30 2107 H 195.967 -1.98281 -3.37343 0
M  V30 2108 H 195.59 -0.37074 -3.95868 0
M  V30 2109 N 196.587 1.43421 -0.653314 0
M  V30 2110 C 198.003 1.56341 -0.320886 0
M  V30 2111 C 198.203 1.63696 1.17499 0
M  V30 2112 O 197.259 1.59208 1.95982 0
M  V30 2113 C 198.572 2.82424 -1.03233 0
M  V30 2114 C 200.12 2.96168 -1.01259 0
M  V30 2115 C 200.595 4.25084 -1.70492 0
M  V30 2116 N 202.086 4.31948 -1.67257 0
M  V30 2117 C 202.821 5.30466 -2.17701 0
M  V30 2118 N 202.317 6.35261 -2.76434 0
M  V30 2119 N 204.11 5.2212 -2.082 0
M  V30 2120 H 196.261 1.3689 -1.62403 0
M  V30 2121 H 198.524 0.657455 -0.682977 0
M  V30 2122 H 198.23 2.83053 -2.08744 0
M  V30 2123 H 198.104 3.72653 -0.583948 0
M  V30 2124 H 200.491 2.9508 0.0341235 0
M  V30 2125 H 200.572 2.07229 -1.49966 0
M  V30 2126 H 200.216 4.26932 -2.7512 0
M  V30 2127 H 200.146 5.1292 -1.19251 0
M  V30 2128 H 202.637 3.56838 -1.24398 0
M  V30 2129 H 202.95 7.06754 -3.12601 0
M  V30 2130 H 201.295 6.35884 -2.80495 0
M  V30 2131 H 204.486 4.39166 -1.62021 0
M  V30 2132 H 204.659 5.98739 -2.47822 0
M  V30 2133 N 198.065 0.39524 1.52563 0
M  V30 2134 C 199.012 -0.437036 2.26624 0
M  V30 2135 C 199.982 -1.05281 1.28472 0
M  V30 2136 O 201.167 -1.07971 1.57311 0
M  V30 2137 C 198.307 -1.55524 3.08069 0
M  V30 2138 C 197.42 -0.961745 4.21158 0
M  V30 2139 C 196.555 -2.05149 4.89987 0
M  V30 2140 C 195.594 -1.4342 5.95061 0
M  V30 2141 N 194.731 -2.46351 6.57462 0
M  V30 2142 H 199.571 0.200976 2.97322 0
M  V30 2143 H 197.108 0.110944 1.46681 0
M  V30 2144 H 199.066 -2.21437 3.53584 0
M  V30 2145 H 197.696 -2.16348 2.3957 0
M  V30 2146 H 196.748 -0.192048 3.79915 0
M  V30 2147 H 198.06 -0.470701 4.96574 0
M  V30 2148 H 197.214 -2.78819 5.38837 0
M  V30 2149 H 195.953 -2.57615 4.14109 0
M  V30 2150 H 194.958 -0.682774 5.45544 0
M  V30 2151 H 196.183 -0.917416 6.72875 0
M  V30 2152 H 194.129 -2.97975 5.8442 0
M  V30 2153 H 194.046 -2.02019 7.28508 0
M  V30 2154 H 195.314 -3.19633 7.10954 0
M  V30 2155 N 199.544 -1.57102 0.125237 0
M  V30 2156 C 200.769 -2.0019 -0.542101 0
M  V30 2157 C 201.194 -1.00449 -1.59034 0
M  V30 2158 O 200.552 0.0229423 -1.81285 0
M  V30 2159 C 200.6 -3.42129 -1.13929 0
M  V30 2160 O 199.704 -3.45307 -2.2547 0
M  V30 2161 H 199.045 -0.650171 -0.134812 0
M  V30 2162 H 201.575 -2.03461 0.215553 0
M  V30 2163 H 201.585 -3.80471 -1.4733 0
M  V30 2164 H 200.26 -4.14237 -0.371531 0
M  V30 2165 H 198.837 -3.1879 -1.93462 0
M  V30 2166 N 201.022 0.148545 -1.56898 0
M  V30 2167 C 202.268 0.862694 -1.83536 0
M  V30 2168 C 202.601 1.80889 -0.706604 0
M  V30 2169 O 201.876 1.92328 0.289885 0
M  V30 2170 C 202.159 1.63853 -3.20662 0
M  V30 2171 C 202.012 0.713925 -4.44098 0
M  V30 2172 C 203.331 2.60133 -3.54991 0
M  V30 2173 H 200.45 0.312179 -0.667618 0
M  V30 2174 H 203.092 0.127953 -1.89569 0
M  V30 2175 H 201.242 2.26489 -3.1565 0
M  V30 2176 H 202.914 0.098686 -4.61194 0
M  V30 2177 H 201.157 0.0234019 -4.33794 0
M  V30 2178 H 201.828 1.29278 -5.36648 0
M  V30 2179 H 204.304 2.07616 -3.60603 0
M  V30 2180 H 203.18 3.11468 -4.51972 0
M  V30 2181 H 203.441 3.41417 -2.80868 0
M  V30 2182 N 202.5 1.5196 0.417844 0
M  V30 2183 C 203.432 1.70895 1.52733 0
M  V30 2184 C 204.445 0.589405 1.51756 0
M  V30 2185 O 205.634 0.864312 1.56179 0
M  V30 2186 C 202.734 1.72627 2.91639 0
M  V30 2187 C 201.907 3.01479 3.16905 0
M  V30 2188 C 200.966 2.95139 4.35637 0
M  V30 2189 O 199.992 3.69059 4.3334 0
M  V30 2190 N 201.194 2.12328 5.40275 0
M  V30 2191 H 203.959 2.66612 1.36888 0
M  V30 2192 H 201.52 1.50089 0.607037 0
M  V30 2193 H 203.512 1.65928 3.6912 0
M  V30 2194 H 202.082 0.844216 3.00985 0
M  V30 2195 H 201.302 3.21895 2.27546 0
M  V30 2196 H 202.59 3.86736 3.30625 0
M  V30 2197 H 201.988 1.51685 5.44985 0
M  V30 2198 H 200.545 2.11494 6.16534 0
M  V30 2199 N 203.978 -0.674533 1.42435 0
M  V30 2200 C 205.394 -0.98769 1.25367 0
M  V30 2201 C 205.594 -2.00879 0.158044 0
M  V30 2202 O 204.65 -2.48075 -0.470633 0
M  V30 2203 C 205.963 -1.49224 2.6106 0
M  V30 2204 C 207.511 -1.61 2.68417 0
M  V30 2205 C 207.986 -2.14852 4.04478 0
M  V30 2206 N 209.477 -2.22185 4.06434 0
M  V30 2207 C 210.212 -2.64928 5.08528 0
M  V30 2208 N 209.708 -3.07121 6.21006 0
M  V30 2209 N 211.501 -2.64679 4.95885 0
M  V30 2210 H 203.652 0.00152503 2.124 0
M  V30 2211 H 205.915 -0.0618434 0.945981 0
M  V30 2212 H 205.621 -0.816453 3.42092 0
M  V30 2213 H 205.495 -2.47094 2.84999 0
M  V30 2214 H 207.882 -2.27686 1.87732 0
M  V30 2215 H 207.963 -0.616195 2.48267 0
M  V30 2216 H 207.607 -1.48775 4.85622 0
M  V30 2217 H 207.537 -3.15024 4.2198 0
M  V30 2218 H 210.028 -1.92435 3.25234 0
M  V30 2219 H 210.341 -3.38423 6.94759 0
M  V30 2220 H 208.686 -3.04978 6.24511 0
M  V30 2221 H 211.877 -2.31078 4.07088 0
M  V30 2222 H 212.05 -2.9767 5.75584 0
M  V30 2223 N 205.456 -1.28612 -0.910864 0
M  V30 2224 C 206.705 -1.15311 -1.65488 0
M  V30 2225 C 207.018 0.296999 -1.93332 0
M  V30 2226 O 208.224 0.551168 -2.65847 0
M  V30 2227 C 206.68 -2.01599 -2.98137 0
M  V30 2228 C 206.288 -3.51367 -2.7793 0
M  V30 2229 C 208.032 -1.96993 -3.76024 0
M  V30 2230 C 205.939 -4.29797 -4.06237 0
M  V30 2231 H 204.869 -0.42796 -0.620779 0
M  V30 2232 H 207.52 -1.53166 -1.01057 0
M  V30 2233 H 205.902 -1.56603 -3.63719 0
M  V30 2234 H 207.076 -4.0434 -2.21011 0
M  V30 2235 H 205.391 -3.57529 -2.13452 0
M  V30 2236 H 207.988 -2.52856 -4.71135 0
M  V30 2237 H 208.331 -0.94733 -4.05378 0
M  V30 2238 H 208.864 -2.39973 -3.17266 0
M  V30 2239 H 205.603 -5.32648 -3.82055 0
M  V30 2240 H 205.123 -3.81596 -4.62757 0
M  V30 2241 H 206.802 -4.39869 -4.74473 0
M  V30 2242 N 206.934 1.1197 -1.10907 0
M  V30 2243 C 207.881 2.17846 -0.762345 0
M  V30 2244 C 208.851 1.63995 0.263599 0
M  V30 2245 O 210.036 1.90273 0.141773 0
M  V30 2246 C 207.176 3.44487 -0.205651 0
M  V30 2247 C 206.289 4.12369 -1.28748 0
M  V30 2248 C 205.424 5.26674 -0.691919 0
M  V30 2249 C 204.463 5.86431 -1.75399 0
M  V30 2250 N 203.6 6.92142 -1.17833 0
M  V30 2251 H 208.44 2.46851 -1.6694 0
M  V30 2252 H 205.977 1.21188 -0.833776 0
M  V30 2253 H 207.935 4.16981 0.135037 0
M  V30 2254 H 206.565 3.15884 0.664613 0
M  V30 2255 H 205.617 3.38003 -1.74522 0
M  V30 2256 H 206.929 4.52844 -2.09125 0
M  V30 2257 H 206.083 6.05953 -0.300963 0
M  V30 2258 H 204.822 4.8749 0.143232 0
M  V30 2259 H 203.827 5.05835 -2.15432 0
M  V30 2260 H 205.052 6.27685 -2.59208 0
M  V30 2261 H 202.998 6.54985 -0.364725 0
M  V30 2262 H 202.915 7.31242 -1.91887 0
M  V30 2263 H 204.183 7.75237 -0.81408 0
M  V30 2264 N 208.412 0.89855 1.29475 0
M  V30 2265 C 209.375 0.380272 2.26023 0
M  V30 2266 C 210.375 -0.484891 1.53315 0
M  V30 2267 O 211.565 -0.290108 1.71767 0
M  V30 2268 C 208.697 -0.45651 3.3783 0
M  V30 2269 H 209.89 1.23295 2.73383 0
M  V30 2270 H 207.443 0.676589 1.40897 0
M  V30 2271 H 208.178 -1.32922 2.95808 0
M  V30 2272 H 207.963 0.163393 3.91759 0
M  V30 2273 H 209.453 -0.810466 4.0966 0
M  V30 2274 N 209.89 -1.43072 0.660911 0
M  V30 2275 C 211.306 -1.56169 0.329173 0
M  V30 2276 C 211.506 -1.64317 -1.16629 0
M  V30 2277 O 210.562 -1.60245 -1.95135 0
M  V30 2278 C 211.875 -2.81873 1.04729 0
M  V30 2279 C 213.423 -2.95627 1.02828 0
M  V30 2280 C 213.898 -4.24174 1.72744 0
M  V30 2281 N 215.389 -4.31055 1.69545 0
M  V30 2282 C 216.124 -5.29304 2.20511 0
M  V30 2283 N 215.62 -6.33786 2.79799 0
M  V30 2284 N 217.413 -5.21008 2.10966 0
M  V30 2285 H 209.564 -1.36027 1.63127 0
M  V30 2286 H 211.827 -0.653823 0.686454 0
M  V30 2287 H 211.533 -2.81942 2.10242 0
M  V30 2288 H 211.407 -3.72338 0.603702 0
M  V30 2289 H 213.794 -2.95094 -0.0184742 0
M  V30 2290 H 213.875 -2.06431 1.51063 0
M  V30 2291 H 213.519 -4.25467 2.7738 0
M  V30 2292 H 213.449 -5.1228 1.2197 0
M  V30 2293 H 215.94 -3.56174 1.26288 0
M  V30 2294 H 216.253 -7.05086 3.16344 0
M  V30 2295 H 214.598 -6.34387 2.83863 0
M  V30 2296 H 217.789 -4.38301 1.64347 0
M  V30 2297 H 217.962 -5.97416 2.50993 0
M  V30 2298 N 211.368 -0.403325 -1.52352 0
M  V30 2299 C 212.645 0.232611 -1.94212 0
M  V30 2300 C 213.025 1.63133 -1.33981 0
M  V30 2301 O 212.373 2.22659 -0.513344 0
M  V30 2302 C 212.583 0.244811 -3.4814 0
M  V30 2303 C 213.931 0.46698 -4.22024 0
M  V30 2304 O 214.955 0.324419 -3.5472 0
M  V30 2305 O 213.814 0.74747 -5.41364 0
M  V30 2306 H 210.908 0.148223 -0.813609 0
M  V30 2307 H 213.454 -0.458848 -1.63379 0
M  V30 2308 H 212.226 -0.734378 -3.84347 0
M  V30 2309 H 211.849 0.980611 -3.85318 0
M  V30 2310 N 212.846 1.57033 -0.133567 0
M  V30 2311 C 214.095 1.94861 0.520768 0
M  V30 2312 C 214.408 1.02012 1.66892 0
M  V30 2313 O 215.614 1.29365 2.38699 0
M  V30 2314 C 214.07 3.46362 0.977809 0
M  V30 2315 C 213.678 4.47773 -0.142674 0
M  V30 2316 C 215.422 3.93083 1.60269 0
M  V30 2317 C 213.329 5.90468 0.331883 0
M  V30 2318 H 212.259 0.727453 0.198315 0
M  V30 2319 H 214.91 1.82227 -0.215759 0
M  V30 2320 H 213.292 3.54282 1.7692 0
M  V30 2321 H 214.466 4.51536 -0.919317 0
M  V30 2322 H 212.781 4.10891 -0.675124 0
M  V30 2323 H 215.378 4.97121 1.96914 0
M  V30 2324 H 215.721 3.33876 2.48662 0
M  V30 2325 H 216.254 3.88025 0.876453 0
M  V30 2326 H 212.993 6.53463 -0.516341 0
M  V30 2327 H 212.513 5.90094 1.07469 0
M  V30 2328 H 214.192 6.42179 0.788332 0
M  V30 2329 N 214.325 -0.140222 1.56975 0
M  V30 2330 C 215.571 -0.852949 1.83991 0
M  V30 2331 C 215.904 -1.80512 0.716187 0
M  V30 2332 O 215.179 -1.92479 -0.279681 0
M  V30 2333 C 215.462 -1.6215 3.21527 0
M  V30 2334 C 215.315 -0.690363 4.4447 0
M  V30 2335 C 216.634 -2.58247 3.56366 0
M  V30 2336 H 213.753 -0.308634 0.669264 0
M  V30 2337 H 216.395 -0.117898 1.89634 0
M  V30 2338 H 214.545 -2.24812 3.16847 0
M  V30 2339 H 216.217 -0.0742264 4.6124 0
M  V30 2340 H 214.46 -0.000396433 4.338 0
M  V30 2341 H 215.131 -1.2643 5.37326 0
M  V30 2342 H 217.607 -2.05701 3.61699 0
M  V30 2343 H 216.483 -3.09067 4.53617 0
M  V30 2344 H 216.744 -3.39923 2.82674 0
M  V30 2345 N 215.803 -1.52179 -0.40978 0
M  V30 2346 C 217.214 -1.58377 -0.988615 0
M  V30 2347 C 217.565 -0.423879 -1.91566 0
M  V30 2348 O 216.69 0.455844 -2.11544 0
M  V30 2349 C 217.285 -2.87044 -1.79976 0
M  V30 2350 C 215.844 -2.95722 -2.32863 0
M  V30 2351 C 214.991 -2.53309 -1.12828 0
M  V30 2352 H 217.942 -1.57558 -0.190039 0
M  V30 2353 H 217.963 -2.7236 -2.65707 0
M  V30 2354 H 217.475 -3.71444 -1.12478 0
M  V30 2355 H 215.576 -2.15814 -3.03735 0
M  V30 2356 H 215.689 -3.99951 -2.63773 0
M  V30 2357 H 214.053 -2.07142 -1.48204 0
M  V30 2358 H 214.836 -3.40082 -0.46897 0
M  V30 2359 N 217.281 0.66697 -1.42791 0
M  V30 2360 C 218.529 1.42417 -1.43394 0
M  V30 2361 C 218.85 1.94925 -0.0542373 0
M  V30 2362 O 218.12 1.73564 0.908415 0
M  V30 2363 H 216.7 0.528515 -0.527902 0
M  V30 2364 H 219.362 0.787562 -1.78279 0
M  V30 2365 H 218.458 2.27333 -2.13837 0
M  V30 2366 N 218.759 1.29093 0.90403 0
M  V30 2367 C 220.036 1.075 1.63411 0
M  V30 2368 C 220.416 -0.382346 2.07609 0
M  V30 2369 O 219.764 -1.37031 1.82851 0
M  V30 2370 C 219.974 2.05858 2.81822 0
M  V30 2371 C 221.322 2.36539 3.52611 0
M  V30 2372 O 222.346 2.04019 2.91984 0
M  V30 2373 O 221.205 2.92085 4.61897 0
M  V30 2374 H 218.299 0.411547 0.717327 0
M  V30 2375 H 220.845 1.40449 0.952479 0
M  V30 2376 H 219.617 3.04037 2.46327 0
M  V30 2377 H 219.24 1.73613 3.57693 0
M  V30 2378 N 220.237 -1.11381 1.11499 0
M  V30 2379 C 221.486 -1.82494 0.858993 0
M  V30 2380 C 221.799 -1.85605 -0.617278 0
M  V30 2381 O 223.005 -2.52824 -0.989552 0
M  V30 2382 C 221.461 -3.27745 1.48699 0
M  V30 2383 C 221.069 -3.32961 2.99735 0
M  V30 2384 C 222.813 -4.03754 1.31085 0
M  V30 2385 C 220.72 -4.72612 3.55516 0
M  V30 2386 H 219.65 -0.683802 0.317696 0
M  V30 2387 H 222.301 -1.25331 1.34031 0
M  V30 2388 H 220.683 -3.84844 0.933339 0
M  V30 2389 H 221.857 -2.85741 3.61509 0
M  V30 2390 H 220.172 -2.70433 3.16631 0
M  V30 2391 H 222.769 -5.06891 1.70192 0
M  V30 2392 H 223.112 -4.15527 0.253496 0
M  V30 2393 H 223.645 -3.53043 1.83318 0
M  V30 2394 H 220.384 -4.66036 4.60967 0
M  V30 2395 H 219.904 -5.2024 2.98513 0
M  V30 2396 H 221.583 -5.4157 3.53992 0
M  V30 2397 N 221.715 -0.905404 -1.28997 0
M  V30 2398 C 222.961 -0.535039 -1.95615 0
M  V30 2399 C 223.294 0.917404 -1.71165 0
M  V30 2400 O 222.569 1.65123 -1.02785 0
M  V30 2401 C 222.852 -0.834918 -3.50287 0
M  V30 2402 C 222.705 -2.33948 -3.84172 0
M  V30 2403 C 224.024 -0.325318 -4.38896 0
M  V30 2404 H 221.143 -0.195861 -0.710498 0
M  V30 2405 H 223.785 -1.13313 -1.52513 0
M  V30 2406 H 221.935 -0.325904 -3.87131 0
M  V30 2407 H 223.607 -2.91847 -3.57243 0
M  V30 2408 H 221.85 -2.79789 -3.31513 0
M  V30 2409 H 222.521 -2.49987 -4.92149 0
M  V30 2410 H 224.997 -0.761256 -4.09077 0
M  V30 2411 H 223.873 -0.564295 -5.45992 0
M  V30 2412 H 224.134 0.774144 -4.35269 0
M  V30 2413 N 223.193 1.4272 -0.668489 0
M  V30 2414 C 224.103 2.34596 0.0139753 0
M  V30 2415 C 225.119 1.5474 0.795703 0
M  V30 2416 O 226.295 1.87334 0.739466 0
M  V30 2417 C 223.36 3.33202 0.957982 0
M  V30 2418 C 222.421 4.28957 0.17149 0
M  V30 2419 C 221.654 5.22853 1.07053 0
M  V30 2420 O 221.877 5.21531 2.31001 0
M  V30 2421 O 220.811 5.9952 0.534727 0
M  V30 2422 H 224.637 2.9448 -0.742661 0
M  V30 2423 H 222.222 1.43117 -0.428705 0
M  V30 2424 H 224.104 3.93796 1.50008 0
M  V30 2425 H 222.779 2.758 1.69458 0
M  V30 2426 H 221.686 3.71796 -0.414558 0
M  V30 2427 H 223.019 4.89383 -0.52586 0
M  V30 2428 N 224.671 0.411399 1.52136 0
M  V30 2429 C 225.917 -0.163888 2.02137 0
M  V30 2430 C 226.25 -1.44597 1.29636 0
M  V30 2431 O 225.525 -1.90272 0.403353 0
M  V30 2432 C 225.808 -0.40927 3.57767 0
M  V30 2433 C 225.661 0.889643 4.40914 0
M  V30 2434 C 226.98 -1.19042 4.23694 0
M  V30 2435 H 224.099 -0.0580896 0.734707 0
M  V30 2436 H 226.741 0.54531 1.82007 0
M  V30 2437 H 224.891 -1.0134 3.7505 0
M  V30 2438 H 226.563 1.52575 4.35337 0
M  V30 2439 H 224.806 1.50011 4.07037 0
M  V30 2440 H 225.477 0.672314 5.4789 0
M  V30 2441 H 227.953 -0.678942 4.10524 0
M  V30 2442 H 226.829 -1.33086 5.32522 0
M  V30 2443 H 227.09 -2.21166 3.82803 0
M  V30 2444 N 226.149 -1.5696 0.141893 0
M  V30 2445 C 227.112 -2.15316 -0.785587 0
M  V30 2446 C 228.112 -1.09366 -1.1788 0
M  V30 2447 O 229.302 -1.35031 -1.10056 0
M  V30 2448 C 226.434 -2.71211 -2.06537 0
M  V30 2449 H 227.627 -2.98608 -0.278041 0
M  V30 2450 H 225.18 -1.5593 -0.107519 0
M  V30 2451 H 225.915 -1.91571 -2.6167 0
M  V30 2452 H 225.7 -3.4872 -1.79268 0
M  V30 2453 H 227.19 -3.16189 -2.72789 0
M  V30 2454 N 227.627 0.131896 -1.57047 0
M  V30 2455 C 228.873 0.843179 -1.84441 0
M  V30 2456 C 229.206 1.80129 -0.725749 0
M  V30 2457 O 228.481 1.92624 0.269469 0
M  V30 2458 C 228.764 1.60442 -3.22382 0
M  V30 2459 C 228.617 0.666782 -4.4483 0
M  V30 2460 C 229.936 2.56354 -3.5773 0
M  V30 2461 H 227.055 0.305081 -0.670891 0
M  V30 2462 H 229.697 0.107839 -1.89694 0
M  V30 2463 H 227.847 2.23128 -3.18035 0
M  V30 2464 H 229.519 0.0497646 -4.61273 0
M  V30 2465 H 227.762 -0.022609 -4.33794 0
M  V30 2466 H 228.433 1.23579 -5.37989 0
M  V30 2467 H 230.909 2.0378 -3.62785 0
M  V30 2468 H 229.785 3.06657 -4.5525 0
M  V30 2469 H 230.046 3.38419 -2.84473 0
M  V30 2470 N 229.106 1.52395 0.401703 0
M  V30 2471 C 230.354 1.66488 1.14569 0
M  V30 2472 C 230.675 0.400897 1.90835 0
M  V30 2473 O 229.945 -0.584415 1.8698 0
M  V30 2474 H 228.525 0.613672 0.425929 0
M  V30 2475 H 231.187 1.89464 0.457093 0
M  V30 2476 H 230.283 2.50942 1.85566 0
M  V30 2477 N 230.584 -0.659388 1.43143 0
M  V30 2478 C 231.861 -1.41627 1.34912 0
M  V30 2479 C 232.241 -2.11099 -0.00607785 0
M  V30 2480 O 231.589 -2.04353 -1.02236 0
M  V30 2481 C 231.799 -2.40604 2.52805 0
M  V30 2482 C 233.147 -3.04789 2.95616 0
M  V30 2483 O 234.171 -2.50932 2.52807 0
M  V30 2484 O 233.03 -4.02421 3.69756 0
M  V30 2485 H 230.124 -0.63246 0.532844 0
M  V30 2486 H 232.67 -0.686814 1.5518 0
M  V30 2487 H 231.442 -1.88174 3.43083 0
M  V30 2488 H 231.065 -3.21009 2.34604 0
M  V30 2489 N 232.062 -1.29571 -0.897171 0
M  V30 2490 C 233.009 -1.14916 -2.00158 0
M  V30 2491 C 233.979 -0.0418149 -1.66047 0
M  V30 2492 O 235.164 -0.209793 -1.89643 0
M  V30 2493 C 232.304 -0.834307 -3.34863 0
M  V30 2494 C 231.417 -2.02234 -3.8174 0
M  V30 2495 C 230.552 -1.64664 -5.05034 0
M  V30 2496 C 229.591 -2.80033 -5.44286 0
M  V30 2497 N 228.728 -2.42843 -6.58765 0
M  V30 2498 H 233.568 -2.09403 -2.12025 0
M  V30 2499 H 231.105 -1.042 -1.0383 0
M  V30 2500 H 233.063 -0.632436 -4.12379 0
M  V30 2501 H 231.693 0.0736656 -3.22716 0
M  V30 2502 H 230.745 -2.33583 -3.00238 0
M  V30 2503 H 232.057 -2.88673 -4.06779 0
M  V30 2504 H 231.211 -1.4078 -5.9014 0
M  V30 2505 H 229.95 -0.753766 -4.8184 0
M  V30 2506 H 228.955 -3.04596 -4.57713 0
M  V30 2507 H 230.18 -3.69989 -5.6946 0
M  V30 2508 H 228.126 -1.56046 -6.3717 0
M  V30 2509 H 228.043 -3.22815 -6.83613 0
M  V30 2510 H 229.311 -2.22285 -7.47134 0
M  V30 2511 N 233.54 1.10788 -1.12088 0
M  V30 2512 C 234.786 1.82942 -0.875226 0
M  V30 2513 C 235.119 1.84779 0.597538 0
M  V30 2514 O 234.394 1.30578 1.44152 0
M  V30 2515 C 234.677 3.29789 -1.44606 0
M  V30 2516 C 234.53 3.36307 -2.98693 0
M  V30 2517 C 235.849 4.26064 -1.10261 0
M  V30 2518 H 232.968 0.664195 -0.319397 0
M  V30 2519 H 235.61 1.29867 -1.38689 0
M  V30 2520 H 233.76 3.75118 -1.01089 0
M  V30 2521 H 235.432 2.99487 -3.50864 0
M  V30 2522 H 233.675 2.76318 -3.34411 0
M  V30 2523 H 234.346 4.39694 -3.33726 0
M  V30 2524 H 236.822 3.88951 -1.4784 0
M  V30 2525 H 235.698 5.27183 -1.52869 0
M  V30 2526 H 235.959 4.42098 -0.0142953 0
M  V30 2527 N 235.018 0.912232 1.28515 0
M  V30 2528 C 236.429 0.591352 1.77087 0
M  V30 2529 C 236.78 -0.8933 1.74684 0
M  V30 2530 O 235.905 -1.69876 1.34056 0
M  V30 2531 C 236.5 1.06668 3.2157 0
M  V30 2532 C 235.059 0.79675 3.67871 0
M  V30 2533 C 234.206 1.23427 2.48316 0
M  V30 2534 H 237.157 1.09365 1.15 0
M  V30 2535 H 237.178 0.407455 3.78312 0
M  V30 2536 H 236.69 2.14726 3.23287 0
M  V30 2537 H 234.791 -0.270679 3.71616 0
M  V30 2538 H 234.904 1.40343 4.58084 0
M  V30 2539 H 233.268 0.653036 2.46186 0
M  V30 2540 H 234.051 2.32316 2.52753 0
M  V30 2541 N 236.496 -1.42363 0.676048 0
M  V30 2542 C 237.459 -2.29199 0.00766941 0
M  V30 2543 C 238.459 -1.43389 -0.727745 0
M  V30 2544 O 239.649 -1.64764 -0.56556 0
M  V30 2545 C 236.781 -3.2591 -0.999785 0
M  V30 2546 H 237.974 -2.89794 0.771988 0
M  V30 2547 H 235.527 -1.50024 0.438468 0
M  V30 2548 H 236.262 -2.70256 -1.79255 0
M  V30 2549 H 236.047 -3.89202 -0.475829 0
M  V30 2550 H 237.537 -3.91028 -1.46583 0
M  V30 2551 N 237.974 -0.419461 -1.51915 0
M  V30 2552 C 239.251 0.211999 -1.94448 0
M  V30 2553 C 239.631 1.61703 -1.35703 0
M  V30 2554 O 238.979 2.22102 -0.536931 0
M  V30 2555 C 239.189 0.207872 -3.4838 0
M  V30 2556 C 240.537 0.422192 -4.22496 0
M  V30 2557 O 241.561 0.286778 -3.55044 0
M  V30 2558 O 240.42 0.690009 -5.42126 0
M  V30 2559 H 237.514 0.139586 -0.815135 0
M  V30 2560 H 240.06 -0.476151 -1.62883 0
M  V30 2561 H 238.832 -0.775102 -3.83546 0
M  V30 2562 H 238.455 0.939688 -3.86336 0
M  V30 2563 N 239.452 1.56882 -0.150215 0
M  V30 2564 C 240.701 1.95403 0.500071 0
M  V30 2565 C 241.014 1.03777 1.658 0
M  V30 2566 O 242.22 1.31889 2.37313 0
M  V30 2567 C 240.676 3.4738 0.941018 0
M  V30 2568 C 240.284 4.47596 -0.190158 0
M  V30 2569 C 242.028 3.9476 1.56091 0
M  V30 2570 C 239.935 5.90787 0.269237 0
M  V30 2571 H 238.865 0.729515 0.190588 0
M  V30 2572 H 241.516 1.81988 -0.235074 0
M  V30 2573 H 239.898 3.56138 1.73152 0
M  V30 2574 H 241.072 4.50536 -0.967157 0
M  V30 2575 H 239.387 4.10151 -0.718666 0
M  V30 2576 H 241.984 4.99181 1.9163 0
M  V30 2577 H 242.327 3.36494 2.45107 0
M  V30 2578 H 242.86 3.88932 0.835249 0
M  V30 2579 H 239.599 6.52879 -0.585621 0
M  V30 2580 H 239.119 5.912 1.01204 0
M  V30 2581 H 240.798 6.42979 0.720176 0
M  V30 2582 N 240.93 -0.123565 1.57115 0
M  V30 2583 C 242.346 -0.476961 1.52306 0
M  V30 2584 C 242.546 -1.82109 0.86248 0
M  V30 2585 O 241.602 -2.48586 0.442884 0
M  V30 2586 C 242.915 -0.465661 2.97073 0
M  V30 2587 C 244.463 -0.549534 3.08138 0
M  V30 2588 C 244.938 -0.568669 4.54456 0
M  V30 2589 N 246.429 -0.630237 4.58892 0
M  V30 2590 C 247.164 -0.666415 5.69514 0
M  V30 2591 N 246.66 -0.660514 6.89644 0
M  V30 2592 N 248.453 -0.709077 5.5761 0
M  V30 2593 H 240.604 0.757198 1.98445 0
M  V30 2594 H 242.867 0.278808 0.906074 0
M  V30 2595 H 242.573 0.454232 3.48754 0
M  V30 2596 H 242.447 -1.29513 3.54269 0
M  V30 2597 H 244.834 -1.45985 2.56461 0
M  V30 2598 H 244.915 0.307532 2.53945 0
M  V30 2599 H 244.559 0.337581 5.06777 0
M  V30 2600 H 244.489 -1.44256 5.06456 0
M  V30 2601 H 246.98 -0.641146 3.72421 0
M  V30 2602 H 247.293 -0.690616 7.69708 0
M  V30 2603 H 245.638 -0.628012 6.92157 0
M  V30 2604 H 248.829 -0.711019 4.62668 0
M  V30 2605 H 249.002 -0.733804 6.43832 0
M  V30 2606 N 242.408 -1.52605 -0.393616 0
M  V30 2607 C 243.657 -1.66649 -1.13627 0
M  V30 2608 C 243.97 -0.410364 -1.91247 0
M  V30 2609 O 245.176 -0.430854 -2.68059 0
M  V30 2610 C 243.632 -2.9449 -2.06891 0
M  V30 2611 C 243.24 -4.27266 -1.34714 0
M  V30 2612 C 244.984 -3.17899 -2.81319 0
M  V30 2613 C 242.891 -5.46217 -2.26717 0
M  V30 2614 H 241.821 -0.62084 -0.427871 0
M  V30 2615 H 244.472 -1.791 -0.399428 0
M  V30 2616 H 242.854 -2.75774 -2.84191 0
M  V30 2617 H 244.028 -4.56518 -0.626714 0
M  V30 2618 H 242.343 -4.10081 -0.722643 0
M  V30 2619 H 244.94 -4.03949 -3.50328 0
M  V30 2620 H 245.283 -2.32777 -3.45139 0
M  V30 2621 H 245.816 -3.37159 -2.11113 0
M  V30 2622 H 242.555 -6.33733 -1.67521 0
M  V30 2623 H 242.075 -5.21283 -2.96689 0
M  V30 2624 H 243.754 -5.7991 -2.86903 0
M  V30 2625 N 243.887 0.651787 -1.4349 0
M  V30 2626 C 244.817 1.77621 -1.51569 0
M  V30 2627 C 245.798 1.66022 -0.370253 0
M  V30 2628 O 246.983 1.85095 -0.587658 0
M  V30 2629 C 244.113 3.16056 -1.43966 0
M  V30 2630 C 243.067 3.4242 -2.56774 0
M  V30 2631 C 242.393 4.8067 -2.34223 0
M  V30 2632 C 243.693 3.37023 -3.99015 0
M  V30 2633 H 245.387 1.71117 -2.45681 0
M  V30 2634 H 242.933 0.821825 -1.18246 0
M  V30 2635 H 244.886 3.94472 -1.48221 0
M  V30 2636 H 243.61 3.23293 -0.463586 0
M  V30 2637 H 242.269 2.66375 -2.51873 0
M  V30 2638 H 241.917 4.84585 -1.34856 0
M  V30 2639 H 241.617 4.9927 -3.09844 0
M  V30 2640 H 243.141 5.61342 -2.40265 0
M  V30 2641 H 244.555 4.05374 -4.05395 0
M  V30 2642 H 242.952 3.67159 -4.74673 0
M  V30 2643 H 244.022 2.3518 -4.2405 0
M  V30 2644 N 245.365 1.30045 0.890287 0
M  V30 2645 C 246.328 1.15963 1.977 0
M  V30 2646 C 247.328 0.0923777 1.60534 0
M  V30 2647 O 248.518 0.340071 1.70848 0
M  V30 2648 C 245.65 0.775451 3.31963 0
M  V30 2649 H 246.843 2.12502 2.11619 0
M  V30 2650 H 244.396 1.13366 1.07601 0
M  V30 2651 H 245.131 -0.189671 3.23745 0
M  V30 2652 H 244.916 1.54668 3.60306 0
M  V30 2653 H 246.406 0.700251 4.11687 0
M  V30 2654 N 246.843 -1.10192 1.12674 0
M  V30 2655 C 248.092 -1.81573 0.8783 0
M  V30 2656 C 248.405 -1.86249 -0.597557 0
M  V30 2657 O 249.611 -2.5386 -0.962681 0
M  V30 2658 C 248.067 -3.26149 1.52167 0
M  V30 2659 C 247.675 -3.29763 3.03249 0
M  V30 2660 C 249.419 -4.0234 1.3536 0
M  V30 2661 C 247.326 -4.68815 3.60508 0
M  V30 2662 H 246.256 -0.680394 0.324931 0
M  V30 2663 H 248.907 -1.23902 1.35353 0
M  V30 2664 H 247.289 -3.83832 0.974104 0
M  V30 2665 H 248.463 -2.8189 3.6452 0
M  V30 2666 H 246.778 -2.67059 3.19481 0
M  V30 2667 H 249.375 -5.05058 1.75559 0
M  V30 2668 H 249.718 -4.15235 0.297554 0
M  V30 2669 H 250.251 -3.51079 1.87052 0
M  V30 2670 H 246.99 -4.61121 4.65884 0
M  V30 2671 H 246.51 -5.17045 3.04014 0
M  V30 2672 H 248.189 -5.37785 3.59717 0
M  V30 2673 N 248.321 -0.919034 -1.28029 0
M  V30 2674 C 249.268 -0.410005 -2.27129 0
M  V30 2675 C 250.238 0.518405 -1.57803 0
M  V30 2676 O 251.423 0.439451 -1.8567 0
M  V30 2677 C 248.563 0.339054 -3.4343 0
M  V30 2678 C 247.676 -0.622468 -4.27492 0
M  V30 2679 C 246.811 0.145567 -5.31001 0
M  V30 2680 C 245.85 -0.809226 -6.06727 0
M  V30 2681 N 244.987 -0.0743728 -7.02061 0
M  V30 2682 H 249.827 -1.26011 -2.70047 0
M  V30 2683 H 247.364 -0.632663 -1.328 0
M  V30 2684 H 249.322 0.789586 -4.0966 0
M  V30 2685 H 247.952 1.15346 -3.01488 0
M  V30 2686 H 247.004 -1.19153 -3.61257 0
M  V30 2687 H 248.316 -1.35252 -4.80113 0
M  V30 2688 H 247.47 0.656417 -6.03139 0
M  V30 2689 H 246.209 0.908643 -4.79161 0
M  V30 2690 H 245.214 -1.3314 -5.33436 0
M  V30 2691 H 246.439 -1.57194 -6.60656 0
M  V30 2692 H 244.385 0.670616 -6.52563 0
M  V30 2693 H 244.302 -0.744157 -7.52329 0
M  V30 2694 H 245.57 0.416109 -7.78389 0
M  V30 2695 N 249.799 1.42003 -0.683588 0
M  V30 2696 C 251.024 2.06265 -0.216647 0
M  V30 2697 C 251.449 1.51059 1.12083 0
M  V30 2698 O 250.807 0.632638 1.69904 0
M  V30 2699 C 250.855 3.60191 -0.171759 0
M  V30 2700 O 249.959 4.03396 0.857069 0
M  V30 2701 H 249.3 0.65502 -0.108834 0
M  V30 2702 H 251.83 1.81982 -0.935077 0
M  V30 2703 H 251.84 4.08 0.0014303 0
M  V30 2704 H 250.515 3.99743 -1.14796 0
M  V30 2705 H 249.092 3.67117 0.654208 0
M  V30 2706 N 251.277 0.427512 1.51691 0
M  V30 2707 C 252.505 -0.141191 2.06418 0
M  V30 2708 C 252.92 -1.37303 1.29589 0
M  V30 2709 O 252.277 -1.79059 0.352732 0
M  V30 2710 C 252.328 -0.473266 3.58389 0
M  V30 2711 O 252.049 0.709673 4.32314 0
M  V30 2712 C 253.55 -1.09371 4.29596 0
M  V30 2713 H 250.77 -0.0122747 0.670888 0
M  V30 2714 H 253.314 0.603764 1.95384 0
M  V30 2715 H 251.469 -1.16812 3.69369 0
M  V30 2716 H 251.883 0.42807 5.2275 0
M  V30 2717 H 253.357 -1.27613 5.37046 0
M  V30 2718 H 253.834 -2.072 3.87253 0
M  V30 2719 H 254.44 -0.43853 4.23033 0
M  V30 2720 N 252.755 -1.56801 0.158532 0
M  V30 2721 C 253.983 -2.00859 -0.496303 0
M  V30 2722 C 254.398 -1.03871 -1.57659 0
M  V30 2723 O 253.755 -0.0375165 -1.82461 0
M  V30 2724 C 253.806 -3.4479 -1.08638 0
M  V30 2725 O 253.527 -4.38072 -0.0492322 0
M  V30 2726 C 255.028 -4.04185 -1.8207 0
M  V30 2727 H 252.248 -0.65864 -0.128199 0
M  V30 2728 H 254.792 -2.02885 0.256506 0
M  V30 2729 H 252.947 -3.43579 -1.78975 0
M  V30 2730 H 253.361 -5.2227 -0.483102 0
M  V30 2731 H 254.835 -5.06857 -2.18633 0
M  V30 2732 H 255.312 -3.45549 -2.71095 0
M  V30 2733 H 255.918 -4.0906 -1.16405 0
M  V30 2734 N 254.233 0.115231 -1.57178 0
M  V30 2735 C 255.163 1.1423 -2.03651 0
M  V30 2736 C 256.144 1.42967 -0.921655 0
M  V30 2737 O 257.329 1.53343 -1.19162 0
M  V30 2738 C 254.459 2.4675 -2.44401 0
M  V30 2739 C 253.413 2.32467 -3.59365 0
M  V30 2740 C 252.739 3.69984 -3.86026 0
M  V30 2741 C 254.039 1.78203 -4.90959 0
M  V30 2742 H 255.733 0.755749 -2.89705 0
M  V30 2743 H 253.279 0.362093 -1.39373 0
M  V30 2744 H 255.232 3.18854 -2.75517 0
M  V30 2745 H 253.956 2.87302 -1.55322 0
M  V30 2746 H 252.615 1.62811 -3.28463 0
M  V30 2747 H 252.263 4.08028 -2.94147 0
M  V30 2748 H 251.963 3.61279 -4.63412 0
M  V30 2749 H 253.487 4.43587 -4.19599 0
M  V30 2750 H 254.901 2.40128 -5.20587 0
M  V30 2751 H 253.298 1.8031 -5.72371 0
M  V30 2752 H 254.368 0.739876 -4.79222 0
M  V30 2753 N 255.711 1.52812 0.385517 0
M  V30 2754 C 257.127 1.4214 0.725829 0
M  V30 2755 C 257.327 0.544589 1.94001 0
M  V30 2756 O 256.383 0.0193693 2.52493 0
M  V30 2757 C 257.696 2.85042 0.957668 0
M  V30 2758 C 259.244 2.94543 1.05892 0
M  V30 2759 C 259.719 4.38464 1.32337 0
M  V30 2760 N 261.21 4.41804 1.39151 0
M  V30 2761 C 261.945 5.5025 1.61285 0
M  V30 2762 N 261.441 6.68775 1.80866 0
M  V30 2763 N 263.234 5.37798 1.63492 0
M  V30 2764 H 255.385 2.08338 -0.413383 0
M  V30 2765 H 257.648 0.940016 -0.122775 0
M  V30 2766 H 257.354 3.51431 0.137568 0
M  V30 2767 H 257.228 3.27505 1.87137 0
M  V30 2768 H 259.615 2.28321 1.86959 0
M  V30 2769 H 259.696 2.55504 0.123057 0
M  V30 2770 H 259.34 5.05254 0.517793 0
M  V30 2771 H 259.27 4.75059 2.27214 0
M  V30 2772 H 261.761 3.56377 1.25713 0
M  V30 2773 H 262.074 7.47197 1.97271 0
M  V30 2774 H 260.419 6.71797 1.78083 0
M  V30 2775 H 263.61 4.44171 1.47749 0
M  V30 2776 H 263.783 6.22382 1.80402 0
M  V30 2777 N 257.189 -0.644168 1.43834 0
M  V30 2778 C 258.435 -1.40603 1.46146 0
M  V30 2779 C 258.768 -1.93997 0.0887717 0
M  V30 2780 O 258.043 -1.72854 -0.891724 0
M  V30 2781 C 258.326 -2.58086 2.51124 0
M  V30 2782 C 258.179 -2.10126 3.97702 0
M  V30 2783 C 259.498 -3.60291 2.52742 0
M  V30 2784 H 256.617 -0.509905 0.532134 0
M  V30 2785 H 259.259 -0.729502 1.75437 0
M  V30 2786 H 257.409 -3.15801 2.26278 0
M  V30 2787 H 259.081 -1.57342 4.33637 0
M  V30 2788 H 257.324 -1.41419 4.10101 0
M  V30 2789 H 257.995 -2.94649 4.66783 0
M  V30 2790 H 260.471 -3.12352 2.7491 0
M  V30 2791 H 259.347 -4.40032 3.28121 0
M  V30 2792 H 259.608 -4.1349 1.56455 0
M  V30 2793 N 258.668 -1.30515 -0.883378 0
M  V30 2794 C 259.945 -1.10086 -1.6168 0
M  V30 2795 C 260.325 0.349269 -2.08191 0
M  V30 2796 O 259.673 1.34105 -1.85008 0
M  V30 2797 C 259.883 -2.10315 -2.78511 0
M  V30 2798 C 261.231 -2.42119 -3.48803 0
M  V30 2799 O 262.255 -2.08638 -2.88702 0
M  V30 2800 O 261.114 -2.99396 -4.57192 0
M  V30 2801 H 258.208 -0.422907 -0.710689 0
M  V30 2802 H 260.754 -1.41947 -0.930015 0
M  V30 2803 H 259.526 -3.07917 -2.41459 0
M  V30 2804 H 259.149 -1.79282 -3.54886 0
M  V30 2805 N 260.146 1.09593 -1.13257 0
M  V30 2806 C 261.078 2.16015 -0.766167 0
M  V30 2807 C 262.091 1.61423 0.211303 0
M  V30 2808 O 263.28 1.78498 -0.00863946 0
M  V30 2809 C 260.38 3.38706 -0.114662 0
M  V30 2810 C 259.553 4.22717 -1.12379 0
M  V30 2811 C 258.612 5.23835 -0.498301 0
M  V30 2812 O 257.638 5.573 -1.15781 0
M  V30 2813 N 258.84 5.75886 0.730417 0
M  V30 2814 H 261.605 2.48055 -1.68193 0
M  V30 2815 H 259.166 1.25292 -1.02535 0
M  V30 2816 H 261.158 4.03464 0.315991 0
M  V30 2817 H 259.728 3.04569 0.704011 0
M  V30 2818 H 258.948 3.54122 -1.73179 0
M  V30 2819 H 260.236 4.75673 -1.80589 0
M  V30 2820 H 259.634 5.50911 1.28504 0
M  V30 2821 H 258.191 6.42387 1.10376 0
M  V30 2822 N 261.624 0.925811 1.2754 0
M  V30 2823 C 262.849 0.580924 1.99098 0
M  V30 2824 C 263.274 -0.833555 1.68622 0
M  V30 2825 O 262.632 -1.55903 0.925422 0
M  V30 2826 C 262.68 0.811186 3.51358 0
M  V30 2827 O 261.784 -0.124129 4.12213 0
M  V30 2828 H 261.125 0.223873 0.625122 0
M  V30 2829 H 263.655 1.24455 1.62395 0
M  V30 2830 H 263.665 0.72601 4.01489 0
M  V30 2831 H 262.34 1.84227 3.72872 0
M  V30 2832 H 260.917 0.0108006 3.72898 0
M  V30 2833 N 263.102 -1.41638 0.69111 0
M  V30 2834 C 264.351 -2.00526 0.217318 0
M  V30 2835 C 264.664 -1.55353 -1.18848 0
M  V30 2836 O 265.87 -2.06769 -1.75951 0
M  V30 2837 C 264.326 -3.58313 0.337639 0
M  V30 2838 C 263.934 -4.12469 1.74852 0
M  V30 2839 C 265.678 -4.24431 -0.0766066 0
M  V30 2840 C 263.585 -5.62675 1.82074 0
M  V30 2841 H 262.515 -0.750008 0.0774893 0
M  V30 2842 H 265.166 -1.6217 0.858661 0
M  V30 2843 H 263.548 -3.9425 -0.371879 0
M  V30 2844 H 264.722 -3.8796 2.48644 0
M  V30 2845 H 263.037 -3.58861 2.11205 0
M  V30 2846 H 265.634 -5.34683 -0.0430284 0
M  V30 2847 H 265.977 -4.01101 -1.1146 0
M  V30 2848 H 266.51 -3.93512 0.582476 0
M  V30 2849 H 263.249 -5.90826 2.83911 0
M  V30 2850 H 262.769 -5.89124 1.12661 0
M  V30 2851 H 264.448 -6.27371 1.58159 0
M  V30 2852 N 264.58 -0.43555 -1.51462 0
M  V30 2853 C 265.51 0.367376 -2.30592 0
M  V30 2854 C 266.491 1.02263 -1.35928 0
M  V30 2855 O 267.676 1.02661 -1.64847 0
M  V30 2856 C 264.806 1.46983 -3.14664 0
M  V30 2857 C 263.76 0.938161 -4.17591 0
M  V30 2858 C 263.086 2.13622 -4.90173 0
M  V30 2859 C 264.386 -0.0261621 -5.22293 0
M  V30 2860 H 266.08 -0.292969 -2.97963 0
M  V30 2861 H 263.626 -0.14234 -1.43295 0
M  V30 2862 H 265.579 2.03873 -3.688 0
M  V30 2863 H 264.303 2.15843 -2.4511 0
M  V30 2864 H 262.962 0.391481 -3.64504 0
M  V30 2865 H 262.61 2.81098 -4.17124 0
M  V30 2866 H 262.31 1.78688 -5.59772 0
M  V30 2867 H 263.834 2.7107 -5.47132 0
M  V30 2868 H 265.248 0.452384 -5.71512 0
M  V30 2869 H 263.645 -0.287992 -5.99409 0
M  V30 2870 H 264.715 -0.963391 -4.75233 0
M  V30 2871 N 266.058 1.56714 -0.166846 0
M  V30 2872 C 267.286 2.0112 0.485644 0
M  V30 2873 C 267.701 1.04705 1.57106 0
M  V30 2874 O 267.058 0.0471923 1.82439 0
M  V30 2875 C 267.109 3.45361 1.06808 0
M  V30 2876 O 266.83 4.38092 0.0259995 0
M  V30 2877 C 268.331 4.05145 1.79924 0
M  V30 2878 H 265.551 0.65931 0.124704 0
M  V30 2879 H 268.095 2.02746 -0.267262 0
M  V30 2880 H 266.25 3.44524 1.7715 0
M  V30 2881 H 266.664 5.22519 0.455398 0
M  V30 2882 H 268.138 5.08009 2.15942 0
M  V30 2883 H 268.615 3.46982 2.69258 0
M  V30 2884 H 269.221 4.09672 1.14234 0
M  V30 2885 N 267.536 -0.106894 1.57237 0
M  V30 2886 C 268.784 -0.810921 1.85117 0
M  V30 2887 C 269.105 -1.7984 0.753827 0
M  V30 2888 O 268.375 -1.94649 -0.221056 0
M  V30 2889 H 266.955 -0.302466 0.683025 0
M  V30 2890 H 269.617 -0.0913324 1.94686 0
M  V30 2891 H 268.713 -1.34875 2.81452 0
M  V30 2892 N 269.014 -1.53014 -0.377408 0
M  V30 2893 C 269.924 -1.81557 -1.48574 0
M  V30 2894 C 270.94 -0.703102 -1.59162 0
M  V30 2895 O 272.116 -0.99192 -1.75279 0
M  V30 2896 C 269.181 -1.9889 -2.83978 0
M  V30 2897 C 268.242 -3.22801 -2.83016 0
M  V30 2898 C 267.475 -3.39298 -4.11962 0
M  V30 2899 O 267.698 -2.60345 -5.0752 0
M  V30 2900 O 266.632 -4.32604 -4.18494 0
M  V30 2901 H 270.458 -2.75695 -1.27382 0
M  V30 2902 H 268.043 -1.38248 -0.566373 0
M  V30 2903 H 269.925 -2.11931 -3.6423 0
M  V30 2904 H 268.6 -1.07942 -3.05172 0
M  V30 2905 H 267.507 -3.15193 -2.01505 0
M  V30 2906 H 268.84 -4.13632 -2.66775 0
M  V30 2907 N 270.492 0.636531 -1.44174 0
M  V30 2908 C 271.717 1.42847 -1.50364 0
M  V30 2909 C 272.142 1.87665 -0.127867 0
M  V30 2910 O 271.5 1.58408 0.88185 0
M  V30 2911 C 271.548 2.62854 -2.4686 0
M  V30 2912 O 270.652 3.62501 -1.9664 0
M  V30 2913 H 269.993 0.427642 -0.507955 0
M  V30 2914 H 272.523 0.777422 -1.89255 0
M  V30 2915 H 272.533 3.10465 -2.64718 0
M  V30 2916 H 271.208 2.29578 -3.46795 0
M  V30 2917 H 269.785 3.21735 -1.88523 0
M  V30 2918 N 271.97 1.30982 0.876444 0
M  V30 2919 C 273.216 1.20474 1.63138 0
M  V30 2920 C 273.549 -0.238096 1.92735 0
M  V30 2921 O 272.824 -1.1692 1.55435 0
M  V30 2922 C 273.107 2.04244 2.96574 0
M  V30 2923 C 272.96 3.56793 2.73896 0
M  V30 2924 C 274.279 1.88684 3.97601 0
M  V30 2925 H 271.398 0.439001 0.591985 0
M  V30 2926 H 274.04 1.60704 1.01361 0
M  V30 2927 H 272.19 1.70063 3.493 0
M  V30 2928 H 273.862 4.01077 2.27892 0
M  V30 2929 H 272.105 3.80548 2.08245 0
M  V30 2930 H 272.776 4.10706 3.68815 0
M  V30 2931 H 275.252 2.18584 3.54062 0
M  V30 2932 H 274.128 2.4961 4.88862 0
M  V30 2933 H 274.389 0.848343 4.33884 0
M  V30 2934 N 273.449 -1.08991 1.13837 0
M  V30 2935 C 274.674 -1.85551 0.926585 0
M  V30 2936 C 275.099 -1.80782 -0.519566 0
M  V30 2937 O 274.457 -1.18855 -1.36906 0
M  V30 2938 C 274.505 -3.31266 1.42462 0
M  V30 2939 O 273.609 -4.07822 0.612789 0
M  V30 2940 H 272.95 -0.575192 0.331738 0
M  V30 2941 H 275.48 -1.37604 1.51414 0
M  V30 2942 H 275.49 -3.82112 1.43019 0
M  V30 2943 H 274.165 -3.34052 2.47754 0
M  V30 2944 H 272.742 -3.66731 0.675463 0
M  V30 2945 N 274.927 -0.932562 -1.27047 0
M  V30 2946 C 276.173 -0.576412 -1.94436 0
M  V30 2947 C 276.506 0.880891 -1.73072 0
M  V30 2948 O 275.781 1.62905 -1.06264 0
M  V30 2949 C 276.064 -0.909031 -3.48437 0
M  V30 2950 C 275.917 -2.42044 -3.79123 0
M  V30 2951 C 277.236 -0.418341 -4.38107 0
M  V30 2952 H 274.355 -0.210888 -0.706184 0
M  V30 2953 H 276.997 -1.16522 -1.50075 0
M  V30 2954 H 275.147 -0.407947 -3.86352 0
M  V30 2955 H 276.819 -2.99359 -3.50973 0
M  V30 2956 H 275.062 -2.86758 -3.25503 0
M  V30 2957 H 275.733 -2.6037 -4.86736 0
M  V30 2958 H 278.209 -0.847856 -4.0737 0
M  V30 2959 H 277.085 -0.679981 -5.44672 0
M  V30 2960 H 277.346 0.681642 -4.36814 0
M  V30 2961 N 276.405 1.4127 -0.698611 0
M  V30 2962 C 277.654 2.00408 -0.227949 0
M  V30 2963 C 277.967 1.55981 1.18023 0
M  V30 2964 O 279.173 2.07699 1.74852 0
M  V30 2965 C 277.629 3.58129 -0.356636 0
M  V30 2966 C 277.237 4.11536 -1.77037 0
M  V30 2967 C 278.981 4.24466 0.0540969 0
M  V30 2968 C 276.888 5.61701 -1.85055 0
M  V30 2969 H 275.818 0.749586 -0.0814657 0
M  V30 2970 H 278.469 1.61713 -0.867249 0
M  V30 2971 H 276.851 3.94442 0.350965 0
M  V30 2972 H 278.025 3.86636 -2.50698 0
M  V30 2973 H 276.34 3.57736 -2.13105 0
M  V30 2974 H 278.937 5.34698 0.0146723 0
M  V30 2975 H 279.28 4.01687 1.09332 0
M  V30 2976 H 279.813 3.93198 -0.603337 0
M  V30 2977 H 276.552 5.89312 -2.8704 0
M  V30 2978 H 276.072 5.88519 -1.15783 0
M  V30 2979 H 277.751 6.26524 -1.61484 0
M  V30 2980 N 277.883 0.443576 1.51229 0
M  V30 2981 C 278.83 -0.364716 2.279 0
M  V30 2982 C 279.8 -1.0114 1.31757 0
M  V30 2983 O 280.985 -1.02912 1.60667 0
M  V30 2984 C 278.125 -1.45644 3.12861 0
M  V30 2985 C 277.238 -0.827269 4.24005 0
M  V30 2986 C 276.373 -1.89456 4.96266 0
M  V30 2987 C 275.412 -1.24416 5.99322 0
M  V30 2988 N 274.549 -2.25309 6.64966 0
M  V30 2989 H 279.389 0.295464 2.96532 0
M  V30 2990 H 276.926 0.157554 1.46254 0
M  V30 2991 H 278.884 -2.10076 3.6045 0
M  V30 2992 H 277.514 -2.08616 2.46331 0
M  V30 2993 H 276.566 -0.0710839 3.80334 0
M  V30 2994 H 277.878 -0.312481 4.9782 0
M  V30 2995 H 277.032 -2.61535 5.47434 0
M  V30 2996 H 275.771 -2.4431 4.22095 0
M  V30 2997 H 274.776 -0.508868 5.4744 0
M  V30 2998 H 276.001 -0.702882 6.75453 0
M  V30 2999 H 273.947 -2.79231 5.93604 0
M  V30 3000 H 273.864 -1.78739 7.34567 0
M  V30 3001 H 275.132 -2.96853 7.20763 0
M  V30 3002 N 279.361 -1.56624 0.175154 0
M  V30 3003 C 280.311 -2.14747 -0.766004 0
M  V30 3004 C 281.295 -1.08275 -1.19018 0
M  V30 3005 O 282.487 -1.34388 -1.15191 0
M  V30 3006 C 279.616 -2.79478 -1.99366 0
M  V30 3007 C 278.702 -3.93114 -1.5913 0
M  V30 3008 N 279.093 -4.97752 -0.89872 0
M  V30 3009 C 277.391 -4.04345 -1.88204 0
M  V30 3010 C 278.092 -5.77473 -0.700012 0
M  V30 3011 N 277.068 -5.29207 -1.24263 0
M  V30 3012 H 280.87 -2.93015 -0.22793 0
M  V30 3013 H 278.384 -1.6238 -0.0253843 0
M  V30 3014 H 280.381 -3.19498 -2.67818 0
M  V30 3015 H 279.041 -2.02692 -2.53665 0
M  V30 3016 H 280.052 -5.14903 -0.556347 0
M  V30 3017 H 276.729 -3.38667 -2.44153 0
M  V30 3018 H 278.119 -6.71728 -0.152047 0
M  V30 3019 N 280.839 0.0985539 -1.57292 0
M  V30 3020 C 282.067 0.816318 -1.90115 0
M  V30 3021 C 282.482 1.72451 -0.768509 0
M  V30 3022 O 281.839 1.80643 0.259687 0
M  V30 3023 C 281.89 1.63259 -3.22535 0
M  V30 3024 O 281.611 0.760934 -4.31441 0
M  V30 3025 C 283.112 2.45372 -3.69199 0
M  V30 3026 H 280.332 0.233595 -0.629027 0
M  V30 3027 H 282.876 0.0768229 -2.04356 0
M  V30 3028 H 281.031 2.32463 -3.09903 0
M  V30 3029 H 281.445 1.32595 -5.07463 0
M  V30 3030 H 282.919 2.98144 -4.64558 0
M  V30 3031 H 283.396 3.23677 -2.96867 0
M  V30 3032 H 284.002 1.81373 -3.84687 0
M  V30 3033 N 282.317 1.53212 0.369288 0
M  V30 3034 C 283.227 1.82342 1.47609 0
M  V30 3035 C 284.243 0.711532 1.58787 0
M  V30 3036 O 285.419 1.0012 1.74751 0
M  V30 3037 C 282.484 2.00393 2.8292 0
M  V30 3038 C 281.545 3.24297 2.81301 0
M  V30 3039 C 280.778 3.41478 4.10157 0
M  V30 3040 O 281.001 2.63033 5.06132 0
M  V30 3041 O 279.935 4.34817 4.16194 0
M  V30 3042 H 283.761 2.76366 1.25918 0
M  V30 3043 H 281.346 1.38547 0.559034 0
M  V30 3044 H 283.228 2.13859 3.63101 0
M  V30 3045 H 281.903 1.09559 3.04596 0
M  V30 3046 H 280.81 3.16257 1.99831 0
M  V30 3047 H 282.143 4.15041 2.64578 0
M  V30 3048 N 283.795 -0.628877 1.44509 0
M  V30 3049 C 285.206 -1.21054 1.42137 0
M  V30 3050 C 285.557 -1.95715 0.137881 0
M  V30 3051 O 284.682 -2.02554 -0.761645 0
M  V30 3052 C 285.277 -2.20189 2.57493 0
M  V30 3053 C 283.836 -2.73777 2.58308 0
M  V30 3054 C 282.983 -1.48813 2.33987 0
M  V30 3055 H 285.934 -0.41942 1.53057 0
M  V30 3056 H 285.955 -3.02833 2.30375 0
M  V30 3057 H 285.467 -1.6582 3.50892 0
M  V30 3058 H 283.568 -3.32142 1.68856 0
M  V30 3059 H 283.681 -3.19662 3.56865 0
M  V30 3060 H 282.045 -1.77024 1.83124 0
M  V30 3061 H 282.828 -0.963442 3.29504 0
M  V30 3062 N 285.273 -1.31445 -0.869486 0
M  V30 3063 C 286.519 -1.21337 -1.62496 0
M  V30 3064 C 286.852 0.227872 -1.92858 0
M  V30 3065 O 286.127 1.16094 -1.56053 0
M  V30 3066 C 286.41 -2.05814 -2.95487 0
M  V30 3067 C 286.263 -3.5824 -2.72 0
M  V30 3068 C 287.582 -1.9079 -3.96594 0
M  V30 3069 H 284.701 -0.442135 -0.589649 0
M  V30 3070 H 287.343 -1.6124 -1.00507 0
M  V30 3071 H 285.493 -1.71913 -3.48394 0
M  V30 3072 H 287.165 -4.0228 -2.25762 0
M  V30 3073 H 285.408 -3.81647 -2.06224 0
M  V30 3074 H 286.079 -4.12657 -3.66631 0
M  V30 3075 H 288.555 -2.20459 -3.52898 0
M  V30 3076 H 287.431 -2.52199 -4.87531 0
M  V30 3077 H 287.692 -0.871341 -4.33428 0
M  V30 3078 N 286.751 1.08385 -1.14413 0
M  V30 3079 C 288.162 1.62258 -0.923535 0
M  V30 3080 C 288.513 1.88691 0.537595 0
M  V30 3081 O 287.638 1.64454 1.40655 0
M  V30 3082 C 288.233 2.94781 -1.67002 0
M  V30 3083 C 286.792 3.45437 -1.495 0
M  V30 3084 C 285.939 2.19668 -1.69238 0
M  V30 3085 H 288.89 0.916086 -1.2959 0
M  V30 3086 H 288.911 3.63229 -1.13334 0
M  V30 3087 H 288.423 2.7551 -2.73342 0
M  V30 3088 H 286.524 3.6981 -0.455097 0
M  V30 3089 H 286.637 4.22173 -2.2651 0
M  V30 3090 H 285.001 2.28849 -1.11804 0
M  V30 3091 H 285.784 2.02905 -2.7692 0
M  V30 3092 N 288.23 0.939286 1.26551 0
M  V30 3093 C 289.507 0.5038 1.89001 0
M  V30 3094 C 289.887 -1.01854 1.84903 0
M  V30 3095 O 289.235 -1.87773 1.30206 0
M  V30 3096 C 289.445 1.063 3.32417 0
M  V30 3097 C 290.793 1.13051 4.09273 0
M  V30 3098 O 291.817 1.01345 3.41479 0
M  V30 3099 O 290.676 1.31233 5.30509 0
M  V30 3100 H 287.77 0.163897 0.810597 0
M  V30 3101 H 290.316 1.03173 1.34735 0
M  V30 3102 H 289.088 2.10665 3.29752 0
M  V30 3103 H 288.711 0.517408 3.94219 0
M  V30 3104 N 289.708 -1.40897 0.706093 0
M  V30 3105 C 291.119 -1.84023 0.315052 0
M  V30 3106 C 291.47 -1.5906 -1.14866 0
M  V30 3107 O 290.595 -1.06651 -1.88293 0
M  V30 3108 C 291.19 -3.34055 0.565038 0
M  V30 3109 C 289.749 -3.7571 0.227806 0
M  V30 3110 C 288.896 -2.64204 0.842122 0
M  V30 3111 H 291.847 -1.303 0.905963 0
M  V30 3112 H 291.868 -3.80107 -0.172843 0
M  V30 3113 H 291.38 -3.52192 1.63042 0
M  V30 3114 H 289.481 -3.63172 -0.832895 0
M  V30 3115 H 289.594 -4.74103 0.690174 0
M  V30 3116 H 287.958 -2.53255 0.270893 0
M  V30 3117 H 288.741 -2.85155 1.91158 0
M  V30 3118 N 291.186 -0.45159 -1.50991 0
M  V30 3119 C 292.602 -0.104647 -1.59257 0
M  V30 3120 C 292.802 1.38728 -1.4614 0
M  V30 3121 O 291.858 2.15866 -1.30989 0
M  V30 3122 C 293.171 -0.637468 -2.93865 0
M  V30 3123 C 294.719 -0.599166 -3.07212 0
M  V30 3124 C 295.194 -1.1092 -4.44366 0
M  V30 3125 N 296.685 -1.06778 -4.50725 0
M  V30 3126 C 297.42 -1.43314 -5.55201 0
M  V30 3127 N 296.916 -1.87204 -6.67028 0
M  V30 3128 N 298.709 -1.3504 -5.45638 0
M  V30 3129 H 290.86 -1.42214 -1.57762 0
M  V30 3130 H 293.123 -0.586921 -0.744465 0
M  V30 3131 H 292.829 -1.68187 -3.08879 0
M  V30 3132 H 292.703 -0.0702139 -3.77135 0
M  V30 3133 H 295.09 0.436277 -2.91857 0
M  V30 3134 H 295.171 -1.20299 -2.25747 0
M  V30 3135 H 294.815 -2.14318 -4.60467 0
M  V30 3136 H 294.745 -0.481773 -5.24392 0
M  V30 3137 H 297.236 -0.745643 -3.70471 0
M  V30 3138 H 297.549 -2.13282 -7.42786 0
M  V30 3139 H 295.894 -1.91142 -6.68199 0
M  V30 3140 H 299.085 -1.00607 -4.57161 0
M  V30 3141 H 299.258 -1.63841 -6.26945 0
M  V30 3142 N 292.664 1.56529 -0.183458 0
M  V30 3143 C 293.627 2.17324 0.728223 0
M  V30 3144 C 294.627 1.12453 1.14939 0
M  V30 3145 O 295.817 1.37902 1.06437 0
M  V30 3146 C 292.949 2.76591 1.99274 0
M  V30 3147 H 294.142 2.99241 0.198772 0
M  V30 3148 H 291.695 1.5616 0.0661391 0
M  V30 3149 H 292.43 1.98441 2.56499 0
M  V30 3150 H 292.215 3.5335 1.69959 0
M  V30 3151 H 293.705 3.23311 2.6431 0
M  V30 3152 N 294.142 -0.090211 1.57342 0
M  V30 3153 C 295.388 -0.793982 1.86611 0
M  V30 3154 C 295.721 -1.78142 0.773252 0
M  V30 3155 O 294.996 -1.93271 -0.218304 0
M  V30 3156 C 295.279 -1.51839 3.26523 0
M  V30 3157 C 295.132 -0.548609 4.46442 0
M  V30 3158 C 296.451 -2.46779 3.64401 0
M  V30 3159 H 293.57 -0.287186 0.678744 0
M  V30 3160 H 296.212 -0.0575076 1.89913 0
M  V30 3161 H 294.362 -2.14617 3.23839 0
M  V30 3162 H 296.034 0.0725513 4.61243 0
M  V30 3163 H 294.277 0.137614 4.33582 0
M  V30 3164 H 294.948 -1.09271 5.41076 0
M  V30 3165 H 297.424 -1.94089 3.68061 0
M  V30 3166 H 296.3 -2.94479 4.63221 0
M  V30 3167 H 296.561 -3.30758 2.93346 0
M  V30 3168 N 295.62 -1.53406 -0.361157 0
M  V30 3169 C 296.568 -1.80832 -1.46296 0
M  V30 3170 C 297.562 -0.677699 -1.55253 0
M  V30 3171 O 298.768 -0.860723 -1.58087 0
M  V30 3172 H 295.143 -0.572627 -0.487445 0
M  V30 3173 H 297.114 -2.73045 -1.20371 0
M  V30 3174 C 295.863 -2.01907 -2.8307 0
M  V30 3175 H 295.186 -2.88349 -2.76938 0
M  V30 3176 H 296.626 -2.25072 -3.59331 0
M  V30 3177 C 295.085 -0.799449 -3.27277 0
M  V30 3178 O 295.615 0.00971761 -4.01699 0
M  V30 3179 N 293.821 -0.621637 -2.83873 0
M  V30 3180 H 293.368 -1.28126 -2.23476 0
M  V30 3181 H 293.326 0.19298 -3.13807 0
M  V30 3182 N 297.098 0.621204 -1.44841 0
M  V30 3183 C 298.03 1.74615 -1.48466 0
M  V30 3184 C 299.043 1.58377 -0.37691 0
M  V30 3185 O 300.232 1.66508 -0.643215 0
M  V30 3186 C 297.332 3.12459 -1.31236 0
M  V30 3187 C 296.505 3.55064 -2.55438 0
M  V30 3188 C 295.564 4.71821 -2.32963 0
M  V30 3189 O 294.59 4.79628 -3.06505 0
M  V30 3190 N 295.792 5.64186 -1.36654 0
M  V30 3191 H 298.557 1.71973 -2.45449 0
M  V30 3192 H 296.118 0.806077 -1.40407 0
M  V30 3193 H 298.11 3.88302 -1.14032 0
M  V30 3194 H 296.68 3.09686 -0.4258 0
M  V30 3195 H 295.9 2.69324 -2.87851 0
M  V30 3196 H 297.188 3.80284 -3.38026 0
M  V30 3197 H 296.586 5.6058 -0.759344 0
M  V30 3198 H 295.143 6.39618 -1.25425 0
M  V30 3199 N 298.576 1.31904 0.862503 0
M  V30 3200 C 299.853 1.12644 1.59908 0
M  V30 3201 C 300.233 -0.316104 2.0872 0
M  V30 3202 O 299.581 -1.31145 1.87118 0
M  V30 3203 C 299.791 2.1472 2.7513 0
M  V30 3204 C 301.139 2.47637 3.44907 0
M  V30 3205 O 302.163 2.13205 2.85346 0
M  V30 3206 O 301.022 3.06632 4.52371 0
M  V30 3207 H 298.116 0.43416 0.703871 0
M  V30 3208 H 300.662 1.43408 0.907314 0
M  V30 3209 H 299.434 3.1172 2.3653 0
M  V30 3210 H 299.057 1.84905 3.51989 0
M  V30 3211 N 300.054 -1.07777 1.14986 0
M  V30 3212 C 301.001 -2.14867 0.842672 0
M  V30 3213 C 301.971 -1.6486 -0.202552 0
M  V30 3214 O 303.156 -1.90668 -0.0710568 0
M  V30 3215 C 300.296 -3.43486 0.333363 0
M  V30 3216 C 299.409 -4.07306 1.43965 0
M  V30 3217 C 298.544 -5.23744 0.886914 0
M  V30 3218 C 297.583 -5.79517 1.97043 0
M  V30 3219 N 296.72 -6.87291 1.4344 0
M  V30 3220 H 301.56 -2.40485 1.75986 0
M  V30 3221 H 299.097 -1.1801 0.878179 0
M  V30 3222 H 301.055 -4.17195 0.0198163 0
M  V30 3223 H 299.685 -3.18133 -0.546916 0
M  V30 3224 H 298.737 -3.31293 1.86946 0
M  V30 3225 H 300.049 -4.44771 2.25788 0
M  V30 3226 H 299.203 -6.04419 0.525651 0
M  V30 3227 H 297.942 -4.87685 0.0377957 0
M  V30 3228 H 296.947 -4.97491 2.34057 0
M  V30 3229 H 298.172 -6.17632 2.82325 0
M  V30 3230 H 296.118 -6.5318 0.607567 0
M  V30 3231 H 296.035 -7.23617 2.18895 0
M  V30 3232 H 297.303 -7.71682 1.10124 0
M  V30 3233 N 301.532 -0.945985 -1.26051 0
M  V30 3234 C 302.479 -0.45809 -2.26208 0
M  V30 3235 C 303.449 0.484816 -1.58867 0
M  V30 3236 O 304.634 0.399969 -1.86561 0
M  V30 3237 C 301.774 0.266131 -3.44072 0
M  V30 3238 C 300.887 -0.713005 -4.26075 0
M  V30 3239 C 300.022 0.0329013 -5.3119 0
M  V30 3240 C 299.061 -0.93774 -6.04874 0
M  V30 3241 N 298.198 -0.223274 -7.01745 0
M  V30 3242 H 303.038 -1.3171 -2.67313 0
M  V30 3243 H 300.575 -0.66069 -1.31428 0
M  V30 3244 H 302.533 0.702514 -4.11243 0
M  V30 3245 H 301.163 1.08925 -3.03867 0
M  V30 3246 H 300.215 -1.26789 -3.58648 0
M  V30 3247 H 301.527 -1.45406 -4.77136 0
M  V30 3248 H 300.681 0.528335 -6.04395 0
M  V30 3249 H 299.42 0.806801 -4.8098 0
M  V30 3250 H 298.425 -1.44425 -5.30492 0
M  V30 3251 H 299.65 -1.71172 -6.57173 0
M  V30 3252 H 297.596 0.532046 -6.53839 0
M  V30 3253 H 297.513 -0.90357 -7.50581 0
M  V30 3254 H 298.781 0.250907 -7.79096 0
M  V30 3255 N 303.011 1.40521 -0.713556 0
M  V30 3256 C 303.959 2.32549 -0.0485227 0
M  V30 3257 C 304.953 1.51931 0.74922 0
M  V30 3258 O 306.159 1.67745 0.652816 0
M  V30 3259 H 302.534 0.751994 0.00311138 0
M  V30 3260 H 304.505 2.86291 -0.841443 0
M  V30 3261 C 303.254 3.36879 0.860687 0
M  V30 3262 H 302.577 3.98978 0.256246 0
M  V30 3263 H 304.017 4.03772 1.294 0
M  V30 3264 C 302.476 2.72197 1.9852 0
M  V30 3265 O 303.006 2.5837 3.07584 0
M  V30 3266 N 301.212 2.30612 1.76823 0
M  V30 3267 H 300.759 2.42059 0.881217 0
M  V30 3268 H 300.717 1.87672 2.52243 0
M  V30 3269 N 304.489 0.459591 1.5075 0
M  V30 3270 C 305.422 -0.386257 2.24907 0
M  V30 3271 C 306.4 -1.006 1.27744 0
M  V30 3272 O 307.584 -1.04416 1.56938 0
M  V30 3273 C 304.711 -1.54021 3.01654 0
M  V30 3274 C 303.757 -1.03898 4.13651 0
M  V30 3275 S 304.59 0.0370501 5.35487 0
M  V30 3276 C 305.746 -1.12105 6.15779 0
M  V30 3277 H 305.979 0.243272 2.96303 0
M  V30 3278 H 303.512 0.244339 1.52454 0
M  V30 3279 H 305.47 -2.20163 3.46466 0
M  V30 3280 H 304.131 -2.14121 2.29806 0
M  V30 3281 H 303.324 -1.90254 4.66711 0
M  V30 3282 H 302.926 -0.45545 3.71216 0
M  V30 3283 H 305.218 -2.03501 6.46215 0
M  V30 3284 H 306.161 -0.62995 7.05292 0
M  V30 3285 H 306.569 -1.36967 5.47631 0
M  V30 3286 N 305.967 -1.56429 0.191757 0
M  V30 3287 C 306.897 -2.21937 -0.725696 0
M  V30 3288 C 307.878 -1.1814 -1.2238 0
M  V30 3289 O 309.063 -1.46636 -1.27325 0
M  V30 3290 C 306.193 -2.87611 -1.94672 0
M  V30 3291 C 305.147 -3.97623 -1.58366 0
M  V30 3292 C 304.473 -4.50446 -2.88102 0
M  V30 3293 C 305.773 -5.16197 -0.796133 0
M  V30 3294 H 307.467 -2.98861 -0.179606 0
M  V30 3295 H 305.013 -1.43749 -0.0849464 0
M  V30 3296 H 306.966 -3.3212 -2.59373 0
M  V30 3297 H 305.69 -2.08087 -2.51728 0
M  V30 3298 H 304.349 -3.53801 -0.960247 0
M  V30 3299 H 303.997 -3.67688 -3.43241 0
M  V30 3300 H 303.697 -5.24675 -2.64556 0
M  V30 3301 H 305.221 -4.97654 -3.53798 0
M  V30 3302 H 306.635 -5.57271 -1.34618 0
M  V30 3303 H 305.032 -5.96471 -0.658928 0
M  V30 3304 H 306.102 -4.84473 0.203478 0
M  V30 3305 N 307.445 0.0818655 -1.57387 0
M  V30 3306 C 308.692 0.782914 -1.86753 0
M  V30 3307 C 309.02 1.78082 -0.782118 0
M  V30 3308 O 308.275 1.94426 0.22295 0
M  V30 3309 C 308.574 1.53513 -3.22752 0
M  V30 3310 C 308.24 0.678134 -4.45771 0
M  V30 3311 C 306.902 0.441929 -4.79166 0
M  V30 3312 C 309.254 0.0832243 -5.21134 0
M  V30 3313 C 306.582 -0.398833 -5.85343 0
M  V30 3314 C 308.934 -0.744935 -6.28199 0
M  V30 3315 C 307.598 -0.991107 -6.60101 0
M  V30 3316 H 306.868 0.286489 -0.683378 0
M  V30 3317 H 309.515 0.0439808 -1.91449 0
M  V30 3318 H 307.82 2.34599 -3.138 0
M  V30 3319 H 309.517 2.08218 -3.42705 0
M  V30 3320 H 306.107 0.872357 -4.19628 0
M  V30 3321 H 310.291 0.252847 -4.95655 0
M  V30 3322 H 305.547 -0.598405 -6.08465 0
M  V30 3323 H 309.721 -1.21271 -6.8576 0
M  V30 3324 H 307.348 -1.64437 -7.42202 0
M  V30 3325 N 308.923 1.53595 0.353017 0
M  V30 3326 C 310.148 1.7462 1.11904 0
M  V30 3327 C 310.573 0.479721 1.8188 0
M  V30 3328 O 309.931 -0.567066 1.72204 0
M  V30 3329 C 309.979 2.92029 2.11545 0
M  V30 3330 O 309.083 2.61516 3.18878 0
M  V30 3331 H 308.424 0.579531 0.324099 0
M  V30 3332 H 310.954 2.00525 0.406301 0
M  V30 3333 H 310.964 3.18551 2.5493 0
M  V30 3334 H 309.639 3.83888 1.60008 0
M  V30 3335 H 308.216 2.45852 2.80377 0
M  V30 3336 N 310.401 -0.613514 1.45168 0
M  V30 3337 C 311.649 -1.36997 1.48581 0
M  V30 3338 C 311.97 -1.94589 0.126545 0
M  V30 3339 O 311.24 -1.76816 -0.843372 0
M  V30 3340 H 309.82 -0.508558 0.547154 0
M  V30 3341 H 312.482 -0.720853 1.81079 0
M  V30 3342 H 311.578 -2.1924 2.22127 0
M  V30 3343 N 311.879 -1.3236 -0.855495 0
M  V30 3344 C 313.107 -1.2587 -1.64208 0
M  V30 3345 C 313.522 0.173457 -1.88002 0
M  V30 3346 O 312.879 1.11027 -1.44842 0
M  V30 3347 C 312.93 -2.01424 -3.00184 0
M  V30 3348 O 312.651 -3.39051 -2.77445 0
M  V30 3349 C 314.152 -2.01948 -3.94629 0
M  V30 3350 H 311.372 -0.434318 -0.511477 0
M  V30 3351 H 313.916 -1.74469 -1.0668 0
M  V30 3352 H 312.071 -1.56549 -3.5436 0
M  V30 3353 H 312.485 -3.77711 -3.63916 0
M  V30 3354 H 313.959 -2.59297 -4.87308 0
M  V30 3355 H 314.436 -1.00554 -4.27534 0
M  V30 3356 H 315.042 -2.46767 -3.4639 0
M  V30 3357 N 313.357 1.07166 -1.15556 0
M  V30 3358 C 314.305 2.16517 -0.8499 0
M  V30 3359 C 315.299 1.68468 0.177454 0
M  V30 3360 O 316.505 1.79971 0.0323026 0
M  V30 3361 H 312.88 0.706652 -0.25719 0
M  V30 3362 H 314.851 2.39514 -1.77976 0
M  V30 3363 C 313.6 3.45855 -0.357682 0
M  V30 3364 H 312.923 3.83214 -1.13961 0
M  V30 3365 H 314.363 4.23607 -0.182489 0
M  V30 3366 C 312.822 3.24062 0.921152 0
M  V30 3367 O 313.352 3.48813 1.9923 0
M  V30 3368 N 311.558 2.77539 0.86141 0
M  V30 3369 H 311.105 2.57598 -0.0104408 0
M  V30 3370 H 311.063 2.63337 1.71758 0
M  V30 3371 N 314.835 0.952656 1.25548 0
M  V30 3372 C 316.084 0.602053 1.92505 0
M  V30 3373 C 316.397 -0.864663 1.75451 0
M  V30 3374 O 317.603 -1.32514 2.36965 0
M  V30 3375 C 316.059 1.02607 3.44963 0
M  V30 3376 C 315.667 2.51519 3.70732 0
M  V30 3377 C 317.411 0.747905 4.1786 0
M  V30 3378 C 315.318 2.87732 5.16686 0
M  V30 3379 H 314.248 0.22146 0.720744 0
M  V30 3380 H 316.899 1.15684 1.42441 0
M  V30 3381 H 315.281 0.399712 3.93978 0
M  V30 3382 H 316.455 3.19157 3.32378 0
M  V30 3383 H 314.77 2.76786 3.11092 0
M  V30 3384 H 317.367 0.994647 5.25367 0
M  V30 3385 H 317.71 -0.315629 4.15102 0
M  V30 3386 H 318.243 1.33452 3.74747 0
M  V30 3387 H 314.982 3.93095 5.24554 0
M  V30 3388 H 314.502 2.24765 5.56094 0
M  V30 3389 H 316.181 2.76817 5.84792 0
M  V30 3390 N 316.313 -1.40141 0.720998 0
M  V30 3391 C 317.276 -2.29058 0.0805834 0
M  V30 3392 C 318.276 -1.45632 -0.681758 0
M  V30 3393 O 319.466 -1.6648 -0.512856 0
M  V30 3394 C 316.598 -3.28925 -0.895593 0
M  V30 3395 H 317.791 -2.87191 0.863793 0
M  V30 3396 H 315.344 -1.48553 0.485975 0
M  V30 3397 H 316.079 -2.75822 -1.70566 0
M  V30 3398 H 315.864 -3.90519 -0.351766 0
M  V30 3399 H 317.354 -3.95494 -1.34069 0
M  V30 3400 N 317.792 -0.46758 -1.50504 0
M  V30 3401 C 318.755 0.317059 -2.26996 0
M  V30 3402 C 319.755 0.923513 -1.31635 0
M  V30 3403 O 320.945 0.793239 -1.55091 0
M  V30 3404 C 318.077 1.45134 -3.08462 0
M  V30 3405 H 319.27 -0.353723 -2.97807 0
M  V30 3406 H 316.823 -0.221545 -1.54722 0
M  V30 3407 H 317.558 2.15728 -2.4214 0
M  V30 3408 H 317.343 1.02232 -3.78538 0
M  V30 3409 H 318.833 2.00493 -3.66323 0
M  V30 3410 N 319.27 1.56325 -0.20005 0
M  V30 3411 C 320.518 1.97329 0.436547 0
M  V30 3412 C 320.839 1.08826 1.61808 0
M  V30 3413 O 320.109 0.160604 1.95241 0
M  V30 3414 H 318.689 0.728714 0.164272 0
M  V30 3415 H 321.351 1.92761 -0.287937 0
M  V30 3416 H 320.447 3.02264 0.777353 0
M  V30 3417 N 320.748 -0.0735177 1.57428 0
M  V30 3418 C 321.695 -1.08756 2.0357 0
M  V30 3419 C 322.665 -1.38559 0.916 0
M  V30 3420 O 323.85 -1.49656 1.18354 0
M  V30 3421 C 320.99 -2.39657 2.48311 0
M  V30 3422 C 320.103 -2.16399 3.73892 0
M  V30 3423 C 319.238 -3.40852 4.07423 0
M  V30 3424 C 318.277 -3.1295 5.2605 0
M  V30 3425 N 317.414 -4.29729 5.55228 0
M  V30 3426 H 322.254 -0.687104 2.8997 0
M  V30 3427 H 319.791 -0.327709 1.43403 0
M  V30 3428 H 321.749 -3.16081 2.72303 0
M  V30 3429 H 320.379 -2.77508 1.64891 0
M  V30 3430 H 319.431 -1.30676 3.57251 0
M  V30 3431 H 320.743 -1.91788 4.60455 0
M  V30 3432 H 319.897 -4.25671 4.32306 0
M  V30 3433 H 318.636 -3.68537 3.19425 0
M  V30 3434 H 317.641 -2.26526 5.00965 0
M  V30 3435 H 318.866 -2.86589 6.15665 0
M  V30 3436 H 316.812 -4.57448 4.70188 0
M  V30 3437 H 316.729 -4.08385 6.36206 0
M  V30 3438 H 317.997 -5.1555 5.84661 0
M  V30 3439 N 322.226 -1.5378 -0.344866 0
M  V30 3440 C 323.189 -1.80981 -1.40637 0
M  V30 3441 C 324.189 -0.680816 -1.45676 0
M  V30 3442 O 325.379 -0.949095 -1.46075 0
M  V30 3443 C 322.511 -1.95063 -2.79577 0
M  V30 3444 H 323.704 -2.75803 -1.17783 0
M  V30 3445 H 321.257 -1.45173 -0.579181 0
M  V30 3446 H 321.992 -1.02379 -3.07716 0
M  V30 3447 H 321.777 -2.77198 -2.77315 0
M  V30 3448 H 323.267 -2.17629 -3.56409 0
M  V30 3449 N 323.704 0.605807 -1.45491 0
M  V30 3450 C 324.634 1.72709 -1.57143 0
M  V30 3451 C 325.615 1.6476 -0.422884 0
M  V30 3452 O 326.8 1.83132 -0.646247 0
M  V30 3453 C 323.93 3.11316 -1.53948 0
M  V30 3454 C 322.884 3.34077 -2.67537 0
M  V30 3455 C 322.21 4.72975 -2.49397 0
M  V30 3456 C 323.51 3.24158 -4.09535 0
M  V30 3457 H 325.204 1.63214 -2.51001 0
M  V30 3458 H 322.75 0.78379 -1.208 0
M  V30 3459 H 324.703 3.89557 -1.60696 0
M  V30 3460 H 323.427 3.21655 -0.566205 0
M  V30 3461 H 322.086 2.58227 -2.6022 0
M  V30 3462 H 321.734 4.8005 -1.50205 0
M  V30 3463 H 321.434 4.8916 -3.25571 0
M  V30 3464 H 322.958 5.53414 -2.58002 0
M  V30 3465 H 324.372 3.92271 -4.18086 0
M  V30 3466 H 322.769 3.51872 -4.86113 0
M  V30 3467 H 323.839 2.2157 -4.31317 0
M  V30 3468 N 325.182 1.32811 0.848464 0
M  V30 3469 C 326.43 1.23479 1.59991 0
M  V30 3470 C 326.751 -0.201853 1.93952 0
M  V30 3471 O 326.021 -1.12818 1.60153 0
M  V30 3472 H 324.601 0.454034 0.593179 0
M  V30 3473 H 327.263 1.66412 1.01455 0
M  V30 3474 H 326.359 1.82178 2.53412 0
M  V30 3475 N 326.66 -1.06551 1.16123 0
M  V30 3476 C 327.909 -1.78687 0.935622 0
M  V30 3477 C 328.222 -1.88056 -0.538001 0
M  V30 3478 O 329.428 -2.56794 -0.88143 0
M  V30 3479 C 327.884 -3.21143 1.62466 0
M  V30 3480 C 327.492 -3.19949 3.13587 0
M  V30 3481 C 329.236 -3.9783 1.48092 0
M  V30 3482 C 327.143 -4.57108 3.75241 0
M  V30 3483 H 326.073 -0.669712 0.346412 0
M  V30 3484 H 328.724 -1.19534 1.39226 0
M  V30 3485 H 327.106 -3.80539 1.09572 0
M  V30 3486 H 328.28 -2.70151 3.73303 0
M  V30 3487 H 326.595 -2.5676 3.27816 0
M  V30 3488 H 329.192 -4.99217 1.91538 0
M  V30 3489 H 329.535 -4.14078 0.429507 0
M  V30 3490 H 330.068 -3.4495 1.98127 0
M  V30 3491 H 326.807 -4.46065 4.80319 0
M  V30 3492 H 326.327 -5.07111 3.20309 0
M  V30 3493 H 328.006 -5.26069 3.76644 0
M  V30 3494 N 328.138 -0.959301 -1.25041 0
M  V30 3495 C 329.384 -0.617525 -1.9317 0
M  V30 3496 C 329.717 0.843981 -1.74902 0
M  V30 3497 O 328.992 1.60615 -1.09696 0
M  V30 3498 C 329.275 -0.982736 -3.46431 0
M  V30 3499 C 329.128 -2.50032 -3.73904 0
M  V30 3500 C 330.447 -0.511176 -4.37121 0
M  V30 3501 H 327.566 -0.22582 -0.701552 0
M  V30 3502 H 330.208 -1.19679 -1.4757 0
M  V30 3503 H 328.358 -0.489806 -3.854 0
M  V30 3504 H 330.03 -3.06737 -3.44544 0
M  V30 3505 H 328.273 -2.93598 -3.19348 0
M  V30 3506 H 328.944 -2.70635 -4.81103 0
M  V30 3507 H 331.42 -0.934075 -4.0548 0
M  V30 3508 H 330.296 -0.795361 -5.43107 0
M  V30 3509 H 330.557 0.588834 -4.38161 0
M  V30 3510 N 329.616 1.39756 -0.72842 0
M  V30 3511 C 330.579 2.29012 -0.0927297 0
M  V30 3512 C 331.579 1.45992 0.674025 0
M  V30 3513 O 332.769 1.66749 0.50402 0
M  V30 3514 C 329.901 3.29396 0.878137 0
M  V30 3515 H 331.094 2.86729 -0.879011 0
M  V30 3516 H 328.647 1.48293 -0.493847 0
M  V30 3517 H 329.382 2.76722 1.69101 0
M  V30 3518 H 329.167 3.907 0.331051 0
M  V30 3519 H 330.657 3.96199 1.3197 0
M  V30 3520 N 331.094 0.475555 1.50254 0
M  V30 3521 C 332.322 -0.0754493 2.06762 0
M  V30 3522 C 332.737 -1.33111 1.33891 0
M  V30 3523 O 332.094 -1.77846 0.40952 0
M  V30 3524 C 332.145 -0.359008 3.59713 0
M  V30 3525 O 331.866 0.846851 4.29837 0
M  V30 3526 C 333.367 -0.956484 4.32858 0
M  V30 3527 H 330.587 0.00907525 0.670939 0
M  V30 3528 H 333.131 0.665618 1.93364 0
M  V30 3529 H 331.286 -1.05001 3.72899 0
M  V30 3530 H 331.7 0.594162 5.21124 0
M  V30 3531 H 333.174 -1.10463 5.40834 0
M  V30 3532 H 333.651 -1.94775 3.93649 0
M  V30 3533 H 334.257 -0.303723 4.24214 0
M  V30 3534 N 332.573 -1.56217 0.208337 0
M  V30 3535 C 333.801 -2.02337 -0.43215 0
M  V30 3536 C 334.216 -1.08834 -1.54275 0
M  V30 3537 O 333.573 -0.0955462 -1.8225 0
M  V30 3538 C 333.624 -3.48072 -0.976138 0
M  V30 3539 O 333.345 -4.38007 0.0901621 0
M  V30 3540 C 334.846 -4.09773 -1.69119 0
M  V30 3541 H 332.066 -0.662385 -0.10718 0
M  V30 3542 H 334.61 -2.01966 0.320923 0
M  V30 3543 H 332.765 -3.49099 -1.67954 0
M  V30 3544 H 333.179 -5.23543 -0.316701 0
M  V30 3545 H 334.653 -5.13556 -2.02397 0
M  V30 3546 H 335.13 -3.53999 -2.59964 0
M  V30 3547 H 335.736 -4.12556 -1.03332 0
M  V30 3548 N 334.051 0.0651679 -1.57465 0
M  V30 3549 C 335.299 0.761555 -1.87202 0
M  V30 3550 C 335.62 1.77778 -0.801243 0
M  V30 3551 O 334.89 1.95166 0.16937 0
M  V30 3552 H 333.47 0.284251 -0.690804 0
M  V30 3553 H 336.132 0.0396827 -1.9486 0
M  V30 3554 H 335.228 1.27365 -2.84929 0
M  V30 3555 N 335.529 1.53961 0.336706 0
M  V30 3556 C 336.775 1.7179 1.07777 0
M  V30 3557 C 337.108 0.483263 1.88091 0
M  V30 3558 O 336.383 -0.519747 1.87427 0
M  V30 3559 C 336.666 2.98558 2.01334 0
M  V30 3560 C 336.519 4.32245 1.24437 0
M  V30 3561 C 337.838 3.21023 3.01052 0
M  V30 3562 H 334.957 0.625089 0.390426 0
M  V30 3563 H 337.599 1.86641 0.35567 0
M  V30 3564 H 335.749 2.86028 2.62908 0
M  V30 3565 H 337.421 4.56637 0.654243 0
M  V30 3566 H 335.664 4.30344 0.546458 0
M  V30 3567 H 336.335 5.17137 1.93063 0
M  V30 3568 H 338.811 3.32929 2.49595 0
M  V30 3569 H 337.687 4.11104 3.6371 0
M  V30 3570 H 337.948 2.37637 3.72802 0
M  V30 3571 N 337.007 -0.598083 1.45811 0
M  V30 3572 C 338.255 -1.35413 1.50026 0
M  V30 3573 C 338.576 -1.94444 0.147177 0
M  V30 3574 O 337.846 -1.77701 -0.824571 0
M  V30 3575 H 336.426 -0.502727 0.552517 0
M  V30 3576 H 339.088 -0.701606 1.81834 0
M  V30 3577 H 338.184 -2.16871 2.2444 0
M  V30 3578 N 338.485 -1.33259 -0.841409 0
M  V30 3579 C 339.713 -1.27605 -1.62864 0
M  V30 3580 C 340.128 0.153507 -1.88175 0
M  V30 3581 O 339.485 1.09485 -1.46011 0
M  V30 3582 C 339.536 -2.04596 -2.98031 0
M  V30 3583 O 339.257 -3.41975 -2.73834 0
M  V30 3584 C 340.758 -2.06122 -3.92465 0
M  V30 3585 H 337.978 -0.439718 -0.506842 0
M  V30 3586 H 340.522 -1.75591 -1.04824 0
M  V30 3587 H 338.677 -1.60299 -3.5268 0
M  V30 3588 H 339.091 -3.81549 -3.59889 0
M  V30 3589 H 340.565 -2.64451 -4.84531 0
M  V30 3590 H 341.042 -1.05083 -4.26444 0
M  V30 3591 H 341.648 -2.50427 -3.43753 0
M  V30 3592 N 339.963 1.05934 -1.16686 0
M  V30 3593 C 340.873 2.17014 -0.891183 0
M  V30 3594 C 341.889 1.73453 0.137907 0
M  V30 3595 O 343.065 2.01361 -0.039592 0
M  V30 3596 C 340.13 3.44384 -0.400099 0
M  V30 3597 C 339.191 4.02433 -1.49486 0
M  V30 3598 C 338.424 5.23723 -1.02711 0
M  V30 3599 O 338.647 5.7027 0.121716 0
M  V30 3600 O 337.581 5.7382 -1.81699 0
M  V30 3601 H 341.407 2.43113 -1.82015 0
M  V30 3602 H 338.992 1.15541 -0.947132 0
M  V30 3603 H 340.874 4.21189 -0.133392 0
M  V30 3604 H 339.549 3.19802 0.500817 0
M  V30 3605 H 338.456 3.27102 -1.81535 0
M  V30 3606 H 339.789 4.31317 -2.37121 0
M  V30 3607 N 341.441 0.965919 1.2453 0
M  V30 3608 C 342.69 0.622437 1.91856 0
M  V30 3609 C 343.003 -0.846006 1.76358 0
M  V30 3610 O 344.209 -1.29993 2.38357 0
M  V30 3611 C 342.665 1.0626 3.43856 0
M  V30 3612 C 342.273 2.55437 3.68043 0
M  V30 3613 C 344.017 0.792183 4.17043 0
M  V30 3614 C 341.924 2.93196 5.13605 0
M  V30 3615 H 340.854 0.229092 0.718354 0
M  V30 3616 H 343.505 1.17189 1.41206 0
M  V30 3617 H 341.887 0.441476 3.93531 0
M  V30 3618 H 343.061 3.22665 3.28974 0
M  V30 3619 H 341.376 2.8007 3.08139 0
M  V30 3620 H 343.973 1.05031 5.24283 0
M  V30 3621 H 344.316 -0.271584 4.15413 0
M  V30 3622 H 344.849 1.37419 3.73311 0
M  V30 3623 H 341.588 3.98636 5.20355 0
M  V30 3624 H 341.108 2.30651 5.53679 0
M  V30 3625 H 342.787 2.83004 5.81823 0
M  V30 3626 N 342.919 -1.39368 0.735821 0
M  V30 3627 C 344.167 -2.00101 0.283562 0
M  V30 3628 C 344.488 -1.5868 -1.13338 0
M  V30 3629 O 343.758 -0.835423 -1.77193 0
M  V30 3630 H 342.338 -0.740024 0.101851 0
M  V30 3631 H 345 -1.70404 0.945962 0
M  V30 3632 H 344.096 -3.10323 0.332604 0
M  V30 3633 N 344.397 -0.483516 -1.5 0
M  V30 3634 C 345.344 0.304164 -2.28787 0
M  V30 3635 C 346.314 0.976114 -1.34392 0
M  V30 3636 O 347.499 0.986156 -1.63339 0
M  V30 3637 C 344.639 1.37298 -3.16612 0
M  V30 3638 C 343.752 0.714561 -4.26049 0
M  V30 3639 C 342.887 1.76232 -5.01114 0
M  V30 3640 C 341.926 1.08483 -6.0241 0
M  V30 3641 N 341.063 2.076 -6.70706 0
M  V30 3642 H 345.903 -0.373981 -2.95644 0
M  V30 3643 H 343.44 -0.196275 -1.45785 0
M  V30 3644 H 345.398 2.00445 -3.65893 0
M  V30 3645 H 344.028 2.02012 -2.51776 0
M  V30 3646 H 343.08 -0.0297798 -3.80388 0
M  V30 3647 H 344.392 0.180383 -4.98474 0
M  V30 3648 H 343.546 2.46929 -5.54176 0
M  V30 3649 H 342.285 2.33033 -4.28424 0
M  V30 3650 H 341.29 0.363545 -5.48597 0
M  V30 3651 H 342.515 0.523551 -6.77079 0
M  V30 3652 H 340.461 2.63394 -6.00799 0
M  V30 3653 H 340.378 1.59201 -7.39047 0
M  V30 3654 H 341.646 2.77639 -7.2838 0
M  V30 3655 N 345.875 1.56104 -0.216619 0
M  V30 3656 C 347.124 1.97348 0.416744 0
M  V30 3657 C 347.437 1.10715 1.6125 0
M  V30 3658 O 348.643 1.41836 2.31506 0
M  V30 3659 C 347.099 3.51059 0.792835 0
M  V30 3660 C 346.707 4.46387 -0.379828 0
M  V30 3661 C 348.451 4.01026 1.39208 0
M  V30 3662 C 346.358 5.91397 0.0184223 0
M  V30 3663 H 345.288 0.736942 0.159475 0
M  V30 3664 H 347.939 1.80827 -0.31205 0
M  V30 3665 H 346.321 3.63162 1.57891 0
M  V30 3666 H 347.495 4.46029 -1.15737 0
M  V30 3667 H 345.81 4.06734 -0.891979 0
M  V30 3668 H 348.407 5.0686 1.70286 0
M  V30 3669 H 348.75 3.46587 2.30614 0
M  V30 3670 H 349.283 3.92125 0.669537 0
M  V30 3671 H 346.022 6.49807 -0.862002 0
M  V30 3672 H 345.542 5.94961 0.760384 0
M  V30 3673 H 347.221 6.45455 0.446818 0
M  V30 3674 N 347.353 -0.0568162 1.57498 0
M  V30 3675 C 348.769 -0.411933 1.54192 0
M  V30 3676 C 348.969 -1.78287 0.938942 0
M  V30 3677 O 348.025 -2.46483 0.547919 0
M  V30 3678 C 349.338 -0.339244 2.9878 0
M  V30 3679 C 350.886 -0.418348 3.10192 0
M  V30 3680 C 351.361 -0.375407 4.56459 0
M  V30 3681 N 352.852 -0.435038 4.61153 0
M  V30 3682 C 353.587 -0.424265 5.71828 0
M  V30 3683 N 353.083 -0.367418 6.91825 0
M  V30 3684 N 354.876 -0.471938 5.60115 0
M  V30 3685 H 347.027 0.840684 1.95055 0
M  V30 3686 H 349.29 0.316987 0.893433 0
M  V30 3687 H 348.996 0.601742 3.46514 0
M  V30 3688 H 348.87 -1.14371 3.59443 0
M  V30 3689 H 351.257 -1.34976 2.62422 0
M  V30 3690 H 351.338 0.414962 2.52412 0
M  V30 3691 H 350.982 0.552219 5.04889 0
M  V30 3692 H 350.912 -1.22645 5.12119 0
M  V30 3693 H 353.403 -0.482612 3.74806 0
M  V30 3694 H 353.716 -0.363535 7.71944 0
M  V30 3695 H 352.061 -0.333879 6.94198 0
M  V30 3696 H 355.252 -0.514145 4.65268 0
M  V30 3697 H 355.425 -0.460073 6.46365 0
M  V30 3698 N 348.832 -1.54138 -0.328536 0
M  V30 3699 C 350.109 -1.62749 -1.08499 0
M  V30 3700 C 350.489 -0.458198 -2.06067 0
M  V30 3701 O 349.837 0.548046 -2.2183 0
M  V30 3702 C 350.047 -2.99519 -1.79135 0
M  V30 3703 C 351.395 -3.55394 -2.32337 0
M  V30 3704 O 352.419 -3.01792 -1.89209 0
M  V30 3705 O 351.278 -4.49186 -3.11279 0
M  V30 3706 H 348.372 -0.65886 -0.499832 0
M  V30 3707 H 350.918 -1.66484 -0.328826 0
M  V30 3708 H 349.69 -3.76061 -1.08139 0
M  V30 3709 H 349.313 -2.99441 -2.61574 0
M  V30 3710 N 350.31 0.590341 -1.46126 0
M  V30 3711 C 351.242 1.71427 -1.52136 0
M  V30 3712 C 352.255 1.57542 -0.41042 0
M  V30 3713 O 353.444 1.65106 -0.678389 0
M  V30 3714 C 350.544 3.09605 -1.37834 0
M  V30 3715 C 349.717 3.49566 -2.62912 0
M  V30 3716 C 348.776 4.66773 -2.42918 0
M  V30 3717 O 347.802 4.73019 -3.1661 0
M  V30 3718 N 349.004 5.61161 -1.4859 0
M  V30 3719 H 351.769 1.66728 -2.49042 0
M  V30 3720 H 349.33 0.776113 -1.42085 0
M  V30 3721 H 351.322 3.85796 -1.22243 0
M  V30 3722 H 349.892 3.08714 -0.491393 0
M  V30 3723 H 349.112 2.63158 -2.93499 0
M  V30 3724 H 350.4 3.73028 -3.46017 0
M  V30 3725 H 349.798 5.58844 -0.87808 0
M  V30 3726 H 348.355 6.36814 -1.38965 0
M  V30 3727 N 351.788 1.33704 0.83433 0
M  V30 3728 C 352.721 1.18675 1.94914 0
M  V30 3729 C 353.699 0.0811145 1.62398 0
M  V30 3730 O 354.883 0.244186 1.86912 0
M  V30 3731 C 352.01 0.821231 3.28593 0
M  V30 3732 C 351.056 1.93501 3.80079 0
M  V30 3733 S 351.889 3.54671 4.01209 0
M  V30 3734 C 353.045 3.20136 5.37833 0
M  V30 3735 H 353.278 2.13043 2.07364 0
M  V30 3736 H 350.811 1.18598 0.988624 0
M  V30 3737 H 352.769 0.617123 4.05835 0
M  V30 3738 H 351.43 -0.103927 3.13928 0
M  V30 3739 H 350.623 1.63273 4.76821 0
M  V30 3740 H 350.225 2.09601 3.09747 0
M  V30 3741 H 352.517 2.71242 6.20833 0
M  V30 3742 H 353.46 4.15975 5.73036 0
M  V30 3743 H 353.868 2.56613 5.02802 0
M  V30 3744 N 353.266 -1.05314 1.17247 0
M  V30 3745 C 354.229 -2.112 0.890357 0
M  V30 3746 C 355.229 -1.60359 -0.118943 0
M  V30 3747 O 356.419 -1.73833 0.113086 0
M  V30 3748 C 353.551 -3.39266 0.333422 0
M  V30 3749 H 354.744 -2.37659 1.82916 0
M  V30 3750 H 352.297 -1.21538 0.982758 0
M  V30 3751 H 353.032 -3.18462 -0.612587 0
M  V30 3752 H 352.817 -3.77477 1.06082 0
M  V30 3753 H 354.307 -4.17315 0.154322 0
M  V30 3754 N 354.744 -0.972509 -1.24016 0
M  V30 3755 C 355.707 -0.511403 -2.23422 0
M  V30 3756 C 356.707 0.394679 -1.55881 0
M  V30 3757 O 357.897 0.189469 -1.73167 0
M  V30 3758 C 355.029 0.258769 -3.39916 0
M  V30 3759 H 356.222 -1.39024 -2.6573 0
M  V30 3760 H 353.775 -0.757585 -1.36713 0
M  V30 3761 H 354.51 1.1545 -3.03054 0
M  V30 3762 H 354.295 -0.391522 -3.9014 0
M  V30 3763 H 355.785 0.570244 -4.13688 0
M  V30 3764 N 356.222 1.38976 -0.743202 0
M  V30 3765 C 357.45 2.04636 -0.30525 0
M  V30 3766 C 357.865 1.56044 1.06281 0
M  V30 3767 O 357.222 0.728921 1.67311 0
M  V30 3768 C 357.273 3.60193 -0.307177 0
M  V30 3769 O 356.994 4.06998 -1.62124 0
M  V30 3770 C 358.495 4.4306 0.145928 0
M  V30 3771 H 355.715 0.65788 -0.132041 0
M  V30 3772 H 358.259 1.77866 -1.00915 0
M  V30 3773 H 356.414 3.85835 0.347898 0
M  V30 3774 H 356.828 5.01371 -1.54036 0
M  V30 3775 H 358.302 5.51921 0.0934183 0
M  V30 3776 H 358.779 4.22706 1.19231 0
M  V30 3777 H 359.385 4.22584 -0.479886 0
M  V30 3778 N 357.7 0.491464 1.49741 0
M  V30 3779 C 358.61 -0.296835 2.32715 0
M  V30 3780 C 359.626 -0.976536 1.44013 0
M  V30 3781 O 360.802 -0.960023 1.77047 0
M  V30 3782 C 357.867 -1.35288 3.19215 0
M  V30 3783 C 356.928 -0.687632 4.23757 0
M  V30 3784 C 356.161 -1.69336 5.06123 0
M  V30 3785 O 356.384 -2.92219 4.89861 0
M  V30 3786 O 355.318 -1.25394 5.88693 0
M  V30 3787 H 359.144 0.382048 3.01287 0
M  V30 3788 H 356.729 0.252953 1.47243 0
M  V30 3789 H 358.611 -1.96411 3.72828 0
M  V30 3790 H 357.286 -2.01487 2.53347 0
M  V30 3791 H 356.193 -0.0369159 3.74082 0
M  V30 3792 H 357.526 -0.0682566 4.92153 0
M  V30 3793 N 359.178 -1.55987 0.224894 0
M  V30 3794 C 360.11 -2.17722 -0.716224 0
M  V30 3795 C 361.123 -1.14723 -1.15509 0
M  V30 3796 O 362.312 -1.41688 -1.08567 0
M  V30 3797 C 359.412 -2.74873 -1.98238 0
M  V30 3798 C 358.585 -4.03074 -1.69853 0
M  V30 3799 C 357.644 -4.44757 -2.81208 0
M  V30 3800 O 356.67 -5.11587 -2.49534 0
M  V30 3801 N 357.872 -4.10716 -4.10235 0
M  V30 3802 H 360.637 -2.99109 -0.188123 0
M  V30 3803 H 358.198 -1.6184 0.0440123 0
M  V30 3804 H 360.19 -2.99727 -2.7193 0
M  V30 3805 H 358.76 -1.9777 -2.42086 0
M  V30 3806 H 357.98 -3.86041 -0.797875 0
M  V30 3807 H 359.268 -4.86701 -1.48324 0
M  V30 3808 H 358.666 -3.57019 -4.38809 0
M  V30 3809 H 357.223 -4.40455 -4.80461 0
M  V30 3810 N 360.656 0.0484629 -1.57525 0
M  V30 3811 C 361.933 0.777447 -1.79486 0
M  V30 3812 C 362.313 1.94597 -0.818251 0
M  V30 3813 O 361.661 2.28047 0.143767 0
M  V30 3814 C 361.871 1.22864 -3.26658 0
M  V30 3815 C 363.219 1.65251 -3.91123 0
M  V30 3816 O 364.243 1.32372 -3.3069 0
M  V30 3817 O 363.102 2.26207 -4.97486 0
M  V30 3818 H 360.196 0.374357 -0.737419 0
M  V30 3819 H 362.742 0.0267359 -1.69679 0
M  V30 3820 H 361.514 0.393589 -3.89316 0
M  V30 3821 H 361.137 2.03996 -3.41279 0
M  V30 3822 N 362.134 1.5431 0.320358 0
M  V30 3823 C 363.081 1.83918 1.39438 0
M  V30 3824 C 364.051 0.686525 1.51248 0
M  V30 3825 O 365.236 0.933269 1.66417 0
M  V30 3826 C 362.376 2.075 2.75749 0
M  V30 3827 C 361.489 3.35177 2.72544 0
M  V30 3828 C 360.624 3.48704 4.00723 0
M  V30 3829 C 359.663 4.70244 3.91838 0
M  V30 3830 N 358.8 4.80679 5.11754 0
M  V30 3831 H 363.64 2.75544 1.13489 0
M  V30 3832 H 361.177 1.36459 0.549309 0
M  V30 3833 H 363.135 2.19166 3.54996 0
M  V30 3834 H 361.765 1.19163 3 0
M  V30 3835 H 360.817 3.32233 1.85271 0
M  V30 3836 H 362.129 4.24534 2.61863 0
M  V30 3837 H 361.283 3.59928 4.88402 0
M  V30 3838 H 360.022 2.57445 4.14214 0
M  V30 3839 H 359.027 4.59072 3.02544 0
M  V30 3840 H 360.252 5.6289 3.7991 0
M  V30 3841 H 358.198 3.92337 5.25745 0
M  V30 3842 H 358.115 5.64007 5.0342 0
M  V30 3843 H 359.383 4.96239 6.01138 0
M  V30 3844 N 363.613 -0.582584 1.46437 0
M  V30 3845 C 364.841 -1.36682 1.55324 0
M  V30 3846 C 365.256 -1.87796 0.194409 0
M  V30 3847 O 364.613 -1.63623 -0.808318 0
M  V30 3848 C 364.664 -2.55426 2.55812 0
M  V30 3849 O 364.385 -2.0643 3.86417 0
M  V30 3850 C 365.886 -3.47976 2.74641 0
M  V30 3851 H 363.106 -0.417545 0.525259 0
M  V30 3852 H 365.65 -0.708219 1.91845 0
M  V30 3853 H 363.805 -3.17275 2.22295 0
M  V30 3854 H 364.219 -2.83762 4.41111 0
M  V30 3855 H 365.693 -4.27775 3.48874 0
M  V30 3856 H 366.17 -3.99919 1.81553 0
M  V30 3857 H 366.776 -2.91962 3.09255 0
M  V30 3858 N 365.091 -1.34144 -0.827227 0
M  V30 3859 C 366.502 -1.23557 -1.39966 0
M  V30 3860 C 366.853 0.140731 -1.95695 0
M  V30 3861 O 365.978 1.04087 -1.89723 0
M  V30 3862 C 366.573 -2.23708 -2.54441 0
M  V30 3863 C 365.132 -2.16924 -3.07605 0
M  V30 3864 C 364.279 -2.10549 -1.80456 0
M  V30 3865 H 367.23 -1.45573 -0.631991 0
M  V30 3866 H 367.251 -1.85157 -3.32411 0
M  V30 3867 H 366.763 -3.23866 -2.13851 0
M  V30 3868 H 364.864 -1.20107 -3.52711 0
M  V30 3869 H 364.977 -3.07988 -3.66988 0
M  V30 3870 H 363.341 -1.56203 -2.01178 0
M  V30 3871 H 364.124 -3.12535 -1.42046 0
M  V30 3872 N 366.569 1.04691 -1.17803 0
M  V30 3873 C 367.499 2.14494 -0.92275 0
M  V30 3874 C 368.48 1.69546 0.137179 0
M  V30 3875 O 369.665 1.94195 -0.0141108 0
M  V30 3876 C 366.795 3.44491 -0.440803 0
M  V30 3877 C 365.749 4.03031 -1.4405 0
M  V30 3878 C 365.075 5.28432 -0.81631 0
M  V30 3879 C 366.375 4.39932 -2.81527 0
M  V30 3880 H 368.069 2.36107 -1.84103 0
M  V30 3881 H 365.615 1.1347 -0.886599 0
M  V30 3882 H 367.568 4.2066 -0.249602 0
M  V30 3883 H 366.292 3.22546 0.513025 0
M  V30 3884 H 364.951 3.28937 -1.61853 0
M  V30 3885 H 364.599 5.02792 0.144511 0
M  V30 3886 H 364.299 5.68559 -1.48371 0
M  V30 3887 H 365.823 6.07284 -0.635496 0
M  V30 3888 H 367.237 5.07113 -2.67412 0
M  V30 3889 H 365.634 4.9109 -3.44892 0
M  V30 3890 H 366.704 3.50045 -3.35554 0
M  V30 3891 N 368.047 0.979072 1.23499 0
M  V30 3892 C 368.979 0.476271 2.24197 0
M  V30 3893 C 369.992 -0.421166 1.57258 0
M  V30 3894 O 371.181 -0.225515 1.7707 0
M  V30 3895 C 368.281 -0.330503 3.37285 0
M  V30 3896 C 367.454 0.559744 4.33804 0
M  V30 3897 C 366.513 -0.192954 5.25846 0
M  V30 3898 O 365.539 0.416978 5.67671 0
M  V30 3899 N 366.741 -1.47932 5.61334 0
M  V30 3900 H 369.506 1.34211 2.67969 0
M  V30 3901 H 367.067 0.852189 1.37657 0
M  V30 3902 H 369.059 -0.842361 3.95836 0
M  V30 3903 H 367.629 -1.09734 2.92707 0
M  V30 3904 H 366.849 1.25245 3.73775 0
M  V30 3905 H 368.137 1.1665 4.95248 0
M  V30 3906 H 367.535 -1.9964 5.29302 0
M  V30 3907 H 366.092 -1.93664 6.22364 0
M  V30 3908 N 369.525 -1.3858 0.750561 0
M  V30 3909 C 370.457 -2.29057 0.0810714 0
M  V30 3910 C 371.47 -1.47596 -0.686973 0
M  V30 3911 O 372.659 -1.70495 -0.528563 0
M  V30 3912 C 369.759 -3.26475 -0.909247 0
M  V30 3913 C 368.932 -4.36945 -0.199478 0
M  V30 3914 C 367.991 -5.14572 -1.10011 0
M  V30 3915 O 367.017 -5.66321 -0.57177 0
M  V30 3916 N 368.219 -5.27262 -2.42849 0
M  V30 3917 H 370.984 -2.87153 0.858087 0
M  V30 3918 H 368.545 -1.50328 0.60109 0
M  V30 3919 H 370.537 -3.75285 -1.51471 0
M  V30 3920 H 369.107 -2.69298 -1.58736 0
M  V30 3921 H 368.327 -3.8981 0.586664 0
M  V30 3922 H 369.615 -5.07963 0.291783 0
M  V30 3923 H 369.013 -4.86763 -2.88233 0
M  V30 3924 H 367.57 -5.79456 -2.98453 0
M  V30 3925 N 371.003 -0.499398 -1.49478 0
M  V30 3926 C 371.95 0.279881 -2.29097 0
M  V30 3927 C 372.92 0.961805 -1.3542 0
M  V30 3928 O 374.105 0.968777 -1.64376 0
M  V30 3929 C 371.245 1.33932 -3.18051 0
M  V30 3930 C 370.358 0.669333 -4.26783 0
M  V30 3931 C 369.493 1.70907 -5.02955 0
M  V30 3932 C 368.532 1.02087 -6.03527 0
M  V30 3933 N 367.669 2.00474 -6.7287 0
M  V30 3934 H 372.509 -0.405317 -2.95231 0
M  V30 3935 H 370.046 -0.211726 -1.45568 0
M  V30 3936 H 372.004 1.96553 -3.67998 0
M  V30 3937 H 370.634 1.9933 -2.53904 0
M  V30 3938 H 369.686 -0.0701234 -3.80335 0
M  V30 3939 H 370.998 0.127503 -4.98637 0
M  V30 3940 H 370.152 2.41037 -5.56764 0
M  V30 3941 H 368.891 2.28476 -4.30871 0
M  V30 3942 H 367.896 0.305338 -5.48951 0
M  V30 3943 H 369.121 0.451708 -6.77596 0
M  V30 3944 H 367.067 2.57007 -6.03559 0
M  V30 3945 H 366.984 1.51353 -7.40694 0
M  V30 3946 H 368.252 2.69897 -7.31284 0
M  V30 3947 N 372.481 1.55866 -0.233164 0
M  V30 3948 C 373.411 2.23783 0.666599 0
M  V30 3949 C 374.392 1.21343 1.19205 0
M  V30 3950 O 375.577 1.4996 1.23392 0
M  V30 3951 C 372.707 2.92671 1.86978 0
M  V30 3952 C 371.661 4.01682 1.47768 0
M  V30 3953 C 370.987 4.57926 2.76058 0
M  V30 3954 C 372.287 5.18126 0.658993 0
M  V30 3955 H 373.981 2.99232 0.100306 0
M  V30 3956 H 371.527 1.43924 0.046804 0
M  V30 3957 H 373.48 3.3888 2.50476 0
M  V30 3958 H 372.204 2.14688 2.46123 0
M  V30 3959 H 370.863 3.56222 0.866106 0
M  V30 3960 H 370.511 3.76659 3.33372 0
M  V30 3961 H 370.211 5.31505 2.50552 0
M  V30 3962 H 371.735 5.06859 3.40479 0
M  V30 3963 H 373.149 5.60644 1.19795 0
M  V30 3964 H 371.546 5.98009 0.500552 0
M  V30 3965 H 372.616 4.83763 -0.331856 0
M  V30 3966 N 373.959 -0.0401083 1.57549 0
M  V30 3967 C 375.236 -0.767917 1.79896 0
M  V30 3968 C 375.616 -1.9416 0.82856 0
M  V30 3969 O 374.964 -2.2812 -0.131671 0
M  V30 3970 C 375.174 -1.2113 3.27305 0
M  V30 3971 C 376.522 -1.63175 3.91994 0
M  V30 3972 O 377.546 -1.30616 3.31388 0
M  V30 3973 O 376.405 -2.23565 4.98679 0
M  V30 3974 H 373.499 -0.370441 0.739393 0
M  V30 3975 H 376.045 -0.017737 1.69691 0
M  V30 3976 H 374.817 -0.372937 3.89519 0
M  V30 3977 H 374.44 -2.02183 3.42356 0
M  V30 3978 N 375.437 -1.54477 -0.31217 0
M  V30 3979 C 376.347 -1.87695 -1.4074 0
M  V30 3980 C 377.363 -0.769975 -1.56036 0
M  V30 3981 O 378.539 -1.06537 -1.70915 0
M  V30 3982 C 375.604 -2.10755 -2.75287 0
M  V30 3983 C 374.665 -3.34514 -2.69071 0
M  V30 3984 C 373.898 -3.56465 -3.97201 0
M  V30 3985 O 374.121 -2.81637 -4.96021 0
M  V30 3986 O 373.055 -4.49964 -3.9977 0
M  V30 3987 H 376.881 -2.80849 -1.15574 0
M  V30 3988 H 374.466 -1.40526 -0.507228 0
M  V30 3989 H 376.348 -2.27188 -3.54913 0
M  V30 3990 H 375.023 -1.20788 -3.0032 0
M  V30 3991 H 373.93 -3.23456 -1.87955 0
M  V30 3992 H 375.263 -4.24575 -2.48992 0
M  V30 3993 N 376.915 0.57481 -1.46744 0
M  V30 3994 C 378.162 1.33272 -1.52462 0
M  V30 3995 C 378.49 1.93669 -0.179572 0
M  V30 3996 O 377.745 1.7743 0.825664 0
M  V30 3997 C 378.044 2.476 -2.57738 0
M  V30 3998 C 377.71 2.05146 -4.01529 0
M  V30 3999 C 376.372 1.93284 -4.40676 0
M  V30 4000 C 378.724 1.72506 -4.91824 0
M  V30 4001 C 376.052 1.47049 -5.67973 0
M  V30 4002 C 378.404 1.27748 -6.19567 0
M  V30 4003 C 377.068 1.14468 -6.57612 0
M  V30 4004 H 376.338 0.487678 -0.557899 0
M  V30 4005 H 378.985 0.646456 -1.80259 0
M  V30 4006 H 377.29 3.21708 -2.23632 0
M  V30 4007 H 378.987 3.05807 -2.5939 0
M  V30 4008 H 375.577 2.15316 -3.7059 0
M  V30 4009 H 379.761 1.80552 -4.62293 0
M  V30 4010 H 375.017 1.35417 -5.96215 0
M  V30 4011 H 379.191 1.01547 -6.88957 0
M  V30 4012 H 376.818 0.78419 -7.56145 0
M  V30 4013 N 378.394 1.34581 0.820102 0
M  V30 4014 C 379.642 1.26845 1.57336 0
M  V30 4015 C 379.963 -0.160667 1.94337 0
M  V30 4016 O 379.233 -1.09396 1.6251 0
M  V30 4017 H 377.813 0.466514 0.583415 0
M  V30 4018 H 380.475 1.68526 0.979027 0
M  V30 4019 H 379.571 1.87513 2.4949 0
M  V30 4020 N 379.872 -1.04064 1.18357 0
M  V30 4021 C 380.782 -2.15569 0.925596 0
M  V30 4022 C 381.798 -1.7365 -0.110295 0
M  V30 4023 O 382.974 -2.01273 0.0716218 0
M  V30 4024 C 380.039 -3.43704 0.454836 0
M  V30 4025 C 379.1 -4.00004 1.55869 0
M  V30 4026 C 378.333 -5.22023 1.1103 0
M  V30 4027 O 378.556 -5.70392 -0.0309756 0
M  V30 4028 O 377.49 -5.70856 1.90805 0
M  V30 4029 H 381.316 -2.40187 1.8586 0
M  V30 4030 H 378.901 -1.1402 0.965394 0
M  V30 4031 H 380.783 -4.20923 0.200382 0
M  V30 4032 H 379.458 -3.20559 -0.449876 0
M  V30 4033 H 378.365 -3.24172 1.86716 0
M  V30 4034 H 379.698 -4.2749 2.43953 0
M  V30 4035 N 381.35 -0.985608 -1.22978 0
M  V30 4036 C 382.282 -0.488154 -2.23941 0
M  V30 4037 C 383.295 0.41282 -1.57479 0
M  V30 4038 O 384.484 0.216121 -1.77187 0
M  V30 4039 C 381.584 0.312611 -3.37455 0
M  V30 4040 C 380.757 -0.582741 -4.33501 0
M  V30 4041 C 379.816 0.165064 -5.25941 0
M  V30 4042 O 378.842 -0.447077 -5.67442 0
M  V30 4043 N 380.044 1.44953 -5.62111 0
M  V30 4044 H 382.809 -1.3563 -2.67254 0
M  V30 4045 H 380.37 -0.859477 -1.37203 0
M  V30 4046 H 382.362 0.821357 -3.96277 0
M  V30 4047 H 380.932 1.0818 -2.93285 0
M  V30 4048 H 380.152 -1.27225 -3.73105 0
M  V30 4049 H 381.44 -1.19275 -4.94622 0
M  V30 4050 H 380.838 1.9683 -5.30353 0
M  V30 4051 H 379.395 1.90361 -6.23383 0
M  V30 4052 N 382.828 1.3818 -0.7579 0
M  V30 4053 C 383.758 2.33027 -0.148597 0
M  V30 4054 C 384.739 1.55085 0.69875 0
M  V30 4055 O 385.924 1.83384 0.639053 0
M  V30 4056 C 383.054 3.3928 0.742034 0
M  V30 4057 C 382.008 4.28 -0.00291946 0
M  V30 4058 C 381.334 5.25146 1.00625 0
M  V30 4059 C 382.634 5.08938 -1.17385 0
M  V30 4060 H 384.328 2.84231 -0.940909 0
M  V30 4061 H 381.874 1.36659 -0.453908 0
M  V30 4062 H 383.827 4.046 1.17799 0
M  V30 4063 H 382.551 2.86569 1.56671 0
M  V30 4064 H 381.21 3.64192 -0.419504 0
M  V30 4065 H 380.858 4.68721 1.8251 0
M  V30 4066 H 380.558 5.85361 0.512428 0
M  V30 4067 H 382.082 5.93342 1.44143 0
M  V30 4068 H 383.496 5.67474 -0.815224 0
M  V30 4069 H 381.893 5.7841 -1.59882 0
M  V30 4070 H 382.963 4.42424 -1.98468 0
M  V30 4071 N 384.306 0.507319 1.49211 0
M  V30 4072 C 385.531 -0.033725 2.07373 0
M  V30 4073 C 385.956 -1.29485 1.36437 0
M  V30 4074 O 385.314 -1.76294 0.423087 0
M  V30 4075 C 385.362 -0.263945 3.59633 0
M  V30 4076 O 384.466 -1.33737 3.90113 0
M  V30 4077 H 383.807 0.0290331 0.663365 0
M  V30 4078 H 386.337 0.708749 1.91932 0
M  V30 4079 H 386.347 -0.493536 4.05004 0
M  V30 4080 H 385.022 0.657424 4.10671 0
M  V30 4081 H 383.599 -1.09224 3.56545 0
M  V30 4082 N 385.784 -1.5574 0.241426 0
M  V30 4083 C 386.731 -2.21149 -0.660432 0
M  V30 4084 C 387.701 -1.17356 -1.17545 0
M  V30 4085 O 388.886 -1.45784 -1.23093 0
M  V30 4086 C 386.026 -2.91059 -1.85414 0
M  V30 4087 C 385.139 -4.09495 -1.37616 0
M  V30 4088 C 384.274 -4.67135 -2.529 0
M  V30 4089 C 383.313 -5.77831 -2.01936 0
M  V30 4090 N 382.45 -6.29677 -3.10566 0
M  V30 4091 H 387.29 -2.97845 -0.095955 0
M  V30 4092 H 384.827 -1.47057 -0.0356024 0
M  V30 4093 H 386.785 -3.29788 -2.5553 0
M  V30 4094 H 385.415 -2.16846 -2.39118 0
M  V30 4095 H 384.467 -3.76117 -0.569235 0
M  V30 4096 H 385.779 -4.89423 -0.962618 0
M  V30 4097 H 384.933 -5.08409 -3.31067 0
M  V30 4098 H 383.672 -3.86411 -2.97553 0
M  V30 4099 H 382.677 -5.36039 -1.22238 0
M  V30 4100 H 383.902 -6.60402 -1.58259 0
M  V30 4101 H 381.848 -5.5186 -3.54664 0
M  V30 4102 H 381.765 -7.04783 -2.73526 0
M  V30 4103 H 383.033 -6.75609 -3.88809 0
M  V30 4104 N 387.262 0.0317525 -1.57568 0
M  V30 4105 C 388.508 0.724175 -1.8943 0
M  V30 4106 C 388.841 1.75149 -0.838836 0
M  V30 4107 O 388.116 1.93948 0.146422 0
M  V30 4108 C 388.399 1.39615 -3.31933 0
M  V30 4109 C 388.252 0.382537 -4.4817 0
M  V30 4110 C 389.571 2.33084 -3.73309 0
M  V30 4111 H 386.69 0.261797 -0.688935 0
M  V30 4112 H 389.332 -0.013017 -1.89996 0
M  V30 4113 H 387.482 2.02451 -3.31581 0
M  V30 4114 H 389.154 -0.243689 -4.60656 0
M  V30 4115 H 387.397 -0.29844 -4.32772 0
M  V30 4116 H 388.068 0.891145 -5.44759 0
M  V30 4117 H 390.544 1.80295 -3.7501 0
M  V30 4118 H 389.42 2.77084 -4.73831 0
M  V30 4119 H 389.681 3.19643 -3.05419 0
M  V30 4120 N 388.74 1.54641 0.303973 0
M  V30 4121 C 389.989 1.7299 1.03717 0
M  V30 4122 C 390.302 0.521168 1.88529 0
M  V30 4123 O 391.508 0.586408 2.65092 0
M  V30 4124 C 389.964 3.06051 1.89369 0
M  V30 4125 C 389.572 4.34393 1.09574 0
M  V30 4126 C 391.316 3.3376 2.62306 0
M  V30 4127 C 389.223 5.58506 1.94486 0
M  V30 4128 H 388.153 0.64473 0.390947 0
M  V30 4129 H 390.804 1.81124 0.294328 0
M  V30 4130 H 389.186 2.91874 2.67629 0
M  V30 4131 H 390.36 4.59396 0.359485 0
M  V30 4132 H 388.675 4.13597 0.482324 0
M  V30 4133 H 391.272 4.23687 3.26181 0
M  V30 4134 H 391.615 2.52503 3.3098 0
M  V30 4135 H 392.148 3.48894 1.91097 0
M  V30 4136 H 388.887 6.42422 1.30287 0
M  V30 4137 H 388.407 5.37694 2.65792 0
M  V30 4138 H 390.086 5.95651 2.52605 0
M  V30 4139 N 390.218 -0.567019 1.47046 0
M  V30 4140 C 391.443 -1.3551 1.57009 0
M  V30 4141 C 391.868 -1.86841 0.217259 0
M  V30 4142 O 391.226 -1.62435 -0.805268 0
M  V30 4143 C 391.274 -2.50777 2.5912 0
M  V30 4144 O 390.378 -3.52706 2.13711 0
M  V30 4145 H 389.719 -0.402919 0.52778 0
M  V30 4146 H 392.249 -0.686241 1.92748 0
M  V30 4147 H 392.259 -2.97481 2.79229 0
M  V30 4148 H 390.934 -2.12771 3.57353 0
M  V30 4149 H 389.511 -3.12374 2.03659 0
M  V30 4150 N 391.696 -1.35014 -0.812953 0
M  V30 4151 C 392.626 -1.30069 -1.93919 0
M  V30 4152 C 393.607 -0.176275 -1.69184 0
M  V30 4153 O 394.792 -0.370227 -1.90638 0
M  V30 4154 C 391.922 -1.06547 -3.30552 0
M  V30 4155 C 390.876 -2.15561 -3.69753 0
M  V30 4156 C 390.202 -1.77214 -5.04479 0
M  V30 4157 C 391.502 -3.57476 -3.808 0
M  V30 4158 H 393.196 -2.24303 -1.98314 0
M  V30 4159 H 390.742 -1.07977 -0.952736 0
M  V30 4160 H 392.695 -1.01729 -4.08937 0
M  V30 4161 H 391.419 -0.0875719 -3.26483 0
M  V30 4162 H 390.078 -2.19466 -2.9365 0
M  V30 4163 H 389.726 -0.780589 -4.96906 0
M  V30 4164 H 389.426 -2.50184 -5.31678 0
M  V30 4165 H 390.95 -1.7391 -5.8531 0
M  V30 4166 H 392.364 -3.55929 -4.4943 0
M  V30 4167 H 390.761 -4.29152 -4.19462 0
M  V30 4168 H 391.831 -3.94091 -2.82525 0
M  V30 4169 N 393.175 1.03435 -1.18907 0
M  V30 4170 C 394.424 1.76143 -0.982669 0
M  V30 4171 C 394.737 1.89416 0.487953 0
M  V30 4172 O 395.943 2.59041 0.813036 0
M  V30 4173 C 394.399 3.16722 -1.70924 0
M  V30 4174 C 394.007 3.11522 -3.21959 0
M  V30 4175 C 395.751 3.93764 -1.58588 0
M  V30 4176 C 393.658 4.46999 -3.87228 0
M  V30 4177 H 392.588 0.660292 -0.364047 0
M  V30 4178 H 395.239 1.158 -1.42347 0
M  V30 4179 H 393.621 3.775 -1.19623 0
M  V30 4180 H 394.795 2.60158 -3.80335 0
M  V30 4181 H 393.11 2.47978 -3.34508 0
M  V30 4182 H 395.707 4.93963 -2.04707 0
M  V30 4183 H 396.05 4.12794 -0.539142 0
M  V30 4184 H 396.583 3.39576 -2.07203 0
M  V30 4185 H 393.322 4.33174 -4.91976 0
M  V30 4186 H 392.842 4.98441 -3.33642 0
M  V30 4187 H 394.521 5.15898 -3.90459 0
M  V30 4188 N 394.653 0.992116 1.22453 0
M  V30 4189 C 395.893 0.675727 1.92907 0
M  V30 4190 C 396.257 -0.777762 1.75542 0
M  V30 4191 O 397.458 -1.20553 2.40251 0
M  V30 4192 C 395.729 1.0696 3.4102 0
M  V30 4193 S 397.288 0.871456 4.30059 0
M  V30 4194 H 394.106 0.247089 0.666684 0
M  V30 4195 H 396.708 1.27423 1.48269 0
M  V30 4196 H 395.412 2.12383 3.51172 0
M  V30 4197 H 394.943 0.462858 3.90668 0
M  V30 4198 H 396.958 -0.238436 4.95627 0
M  V30 4199 N 396.131 -1.37776 0.765217 0
M  V30 4200 C 397.377 -2.00145 0.327072 0
M  V30 4201 C 397.71 -1.60607 -1.09175 0
M  V30 4202 O 396.985 -0.849127 -1.74986 0
M  V30 4203 C 397.268 -3.57109 0.46319 0
M  V30 4204 C 397.121 -4.06576 1.92395 0
M  V30 4205 C 398.44 -4.39888 -0.136473 0
M  V30 4206 H 395.559 -0.727113 0.120316 0
M  V30 4207 H 398.201 -1.63549 0.967039 0
M  V30 4208 H 396.351 -3.88414 -0.0816358 0
M  V30 4209 H 398.023 -3.85864 2.52798 0
M  V30 4210 H 396.266 -3.59011 2.43503 0
M  V30 4211 H 396.937 -5.15639 1.97028 0
M  V30 4212 H 399.413 -4.14803 0.328317 0
M  V30 4213 H 398.289 -5.48899 -0.0110582 0
M  V30 4214 H 398.55 -4.24758 -1.22608 0
M  V30 4215 N 397.609 -0.515225 -1.4894 0
M  V30 4216 C 398.572 0.244681 -2.2789 0
M  V30 4217 C 399.572 0.881166 -1.34507 0
M  V30 4218 O 400.762 0.743497 -1.57537 0
M  V30 4219 C 397.894 1.35247 -3.12923 0
M  V30 4220 H 399.087 -0.448289 -2.96531 0
M  V30 4221 H 396.64 -0.270656 -1.53939 0
M  V30 4222 H 397.375 2.07916 -2.48881 0
M  V30 4223 H 397.16 0.901374 -3.81599 0
M  V30 4224 H 398.65 1.88737 -3.72516 0
M  V30 4225 N 399.087 1.5561 -0.249682 0
M  V30 4226 C 400.333 1.99306 0.374841 0
M  V30 4227 C 400.666 1.13767 1.57387 0
M  V30 4228 O 399.941 0.201711 1.93451 0
M  V30 4229 C 400.224 3.51507 0.781986 0
M  V30 4230 C 400.077 4.4781 -0.422629 0
M  V30 4231 C 401.396 4.08884 1.62793 0
M  V30 4232 H 398.515 0.724572 0.134773 0
M  V30 4233 H 401.157 1.86719 -0.351549 0
M  V30 4234 H 399.307 3.62363 1.4009 0
M  V30 4235 H 400.979 4.48931 -1.06108 0
M  V30 4236 H 399.222 4.20518 -1.06524 0
M  V30 4237 H 399.893 5.51919 -0.0943766 0
M  V30 4238 H 402.369 4.01147 1.10547 0
M  V30 4239 H 401.245 5.1564 1.88166 0
M  V30 4240 H 401.506 3.57515 2.60068 0
M  V30 4241 N 400.565 -0.0233959 1.57583 0
M  V30 4242 C 401.811 -0.708611 1.90657 0
M  V30 4243 C 402.166 -1.7266 0.848895 0
M  V30 4244 O 401.459 -1.91075 -0.141749 0
M  V30 4245 C 401.653 -1.41428 3.28227 0
M  V30 4246 C 401.482 -0.466155 4.47277 0
M  V30 4247 C 400.252 -0.085117 5.05228 0
M  V30 4248 C 402.45 0.257836 5.13653 0
M  V30 4249 N 400.432 0.863672 6.07794 0
M  V30 4250 C 401.803 1.06209 6.10835 0
M  V30 4251 C 403.858 0.324174 4.96844 0
M  V30 4252 C 402.561 1.9266 6.93018 0
M  V30 4253 C 404.587 1.17583 5.79593 0
M  V30 4254 C 403.949 1.96799 6.7635 0
M  V30 4255 H 400.048 -0.233222 0.746412 0
M  V30 4256 H 402.632 0.0314512 1.94675 0
M  V30 4257 H 400.803 -2.12477 3.25128 0
M  V30 4258 H 402.535 -2.05233 3.488 0
M  V30 4259 H 399.29 -0.448516 4.71471 0
M  V30 4260 H 399.714 1.33274 6.63752 0
M  V30 4261 H 404.356 -0.273975 4.21911 0
M  V30 4262 H 402.074 2.53552 7.67292 0
M  V30 4263 H 405.66 1.23076 5.68633 0
M  V30 4264 H 404.54 2.61635 7.39268 0
M  V30 4265 N 402.043 -1.548 -0.295768 0
M  V30 4266 C 402.973 -1.89115 -1.36959 0
M  V30 4267 C 403.954 -0.75059 -1.52644 0
M  V30 4268 O 405.139 -1.00678 -1.66065 0
M  V30 4269 C 402.269 -2.14307 -2.73295 0
M  V30 4270 C 401.223 -3.30151 -2.72368 0
M  V30 4271 C 400.549 -3.40772 -4.12042 0
M  V30 4272 C 401.849 -4.67126 -2.33646 0
M  V30 4273 H 403.543 -2.79053 -1.08488 0
M  V30 4274 H 401.089 -1.34266 -0.520443 0
M  V30 4275 H 403.042 -2.36898 -3.48507 0
M  V30 4276 H 401.766 -1.21145 -3.03301 0
M  V30 4277 H 400.425 -3.0749 -1.99613 0
M  V30 4278 H 400.073 -2.45117 -4.39234 0
M  V30 4279 H 399.773 -4.18645 -4.12322 0
M  V30 4280 H 401.297 -3.6563 -4.89027 0
M  V30 4281 H 402.711 -4.89414 -2.98575 0
M  V30 4282 H 401.108 -5.47751 -2.45129 0
M  V30 4283 H 402.178 -4.67489 -1.28772 0
M  V30 4284 N 403.521 0.559213 -1.47345 0
M  V30 4285 C 404.77 1.31281 -1.53128 0
M  V30 4286 C 405.083 1.94602 -0.197344 0
M  V30 4287 O 406.289 2.71173 -0.133154 0
M  V30 4288 C 404.745 2.38051 -2.69925 0
M  V30 4289 C 404.353 1.8093 -4.0984 0
M  V30 4290 C 406.097 3.14604 -2.84999 0
M  V30 4291 C 404.004 2.85468 -5.1794 0
M  V30 4292 H 402.934 0.493614 -0.569966 0
M  V30 4293 H 405.585 0.594155 -1.73615 0
M  V30 4294 H 403.967 3.12822 -2.42814 0
M  V30 4295 H 405.141 1.12544 -4.46845 0
M  V30 4296 H 403.456 1.16967 -3.99634 0
M  V30 4297 H 406.053 3.92666 -3.62929 0
M  V30 4298 H 406.396 3.68665 -1.93369 0
M  V30 4299 H 406.929 2.46945 -3.1187 0
M  V30 4300 H 403.668 2.36264 -6.1144 0
M  V30 4301 H 403.188 3.52269 -4.85455 0
M  V30 4302 H 404.867 3.48996 -5.44803 0
M  V30 4303 N 404.999 1.35443 0.805782 0
M  V30 4304 C 405.947 1.28465 1.93906 0
M  V30 4305 C 406.941 0.17943 1.68447 0
M  V30 4306 O 408.147 0.345459 1.76654 0
M  V30 4307 H 404.522 0.399528 0.637088 0
M  V30 4308 H 406.493 2.24206 1.96912 0
M  V30 4309 C 405.242 1.07432 3.30687 0
M  V30 4310 H 404.565 1.91716 3.50835 0
M  V30 4311 H 406.005 1.06591 4.10383 0
M  V30 4312 C 404.464 -0.22179 3.36169 0
M  V30 4313 O 404.994 -1.21731 3.82811 0
M  V30 4314 N 403.2 -0.260841 2.89427 0
M  V30 4315 H 402.747 0.549884 2.51663 0
M  V30 4316 H 402.705 -1.12777 2.93477 0
M  V30 4317 N 406.477 -1.02803 1.19454 0
M  V30 4318 C 407.726 -1.7562 0.991996 0
M  V30 4319 C 408.039 -1.89672 -0.477901 0
M  V30 4320 O 409.245 -2.59468 -0.799287 0
M  V30 4321 C 407.701 -3.15812 1.72601 0
M  V30 4322 C 407.309 -3.0981 3.23607 0
M  V30 4323 C 409.053 -3.92918 1.60674 0
M  V30 4324 C 406.96 -4.44939 3.89594 0
M  V30 4325 H 405.89 -0.658352 0.367543 0
M  V30 4326 H 408.541 -1.15044 1.42959 0
M  V30 4327 H 406.923 -3.7686 1.21624 0
M  V30 4328 H 408.097 -2.58138 3.81709 0
M  V30 4329 H 406.412 -2.46201 3.35819 0
M  V30 4330 H 409.009 -4.9287 2.07323 0
M  V30 4331 H 409.352 -4.12502 0.561025 0
M  V30 4332 H 409.885 -3.38472 2.09001 0
M  V30 4333 H 406.624 -4.30559 4.94267 0
M  V30 4334 H 406.144 -4.96664 3.36281 0
M  V30 4335 H 407.823 -5.1382 3.93189 0
M  V30 4336 N 407.956 -0.998596 -1.21925 0
M  V30 4337 C 409.204 -0.676325 -1.90448 0
M  V30 4338 C 409.525 0.794719 -1.78071 0
M  V30 4339 O 408.795 1.5701 -1.17152 0
M  V30 4340 H 407.375 -0.247165 -0.704925 0
M  V30 4341 H 410.037 -1.26633 -1.48156 0
M  V30 4342 H 409.133 -0.943858 -2.97486 0
M  V30 4343 N 409.434 1.37368 -0.772513 0
M  V30 4344 C 410.384 2.27613 -0.132823 0
M  V30 4345 C 411.368 1.46138 0.673247 0
M  V30 4346 O 412.56 1.68686 0.536095 0
M  V30 4347 C 409.689 3.35122 0.744864 0
M  V30 4348 C 408.775 4.24044 -0.0690771 0
M  V30 4349 N 409.166 4.93355 -1.1151 0
M  V30 4350 C 407.464 4.45731 0.154782 0
M  V30 4351 C 408.165 5.59 -1.60917 0
M  V30 4352 N 407.141 5.35737 -0.921222 0
M  V30 4353 H 410.943 2.78675 -0.933681 0
M  V30 4354 H 408.457 1.50494 -0.610342 0
M  V30 4355 H 410.454 3.98683 1.21892 0
M  V30 4356 H 409.114 2.85616 1.54446 0
M  V30 4357 H 410.125 4.95785 -1.49726 0
M  V30 4358 H 406.802 4.07096 0.926224 0
M  V30 4359 H 408.192 6.24395 -2.48153 0
M  V30 4360 N 410.912 0.523116 1.48665 0
M  V30 4361 C 412.159 -0.0134763 2.02496 0
M  V30 4362 C 412.487 -1.3493 1.40086 0
M  V30 4363 O 411.742 -1.88286 0.533567 0
M  V30 4364 C 412.041 -0.191671 3.56886 0
M  V30 4365 C 411.707 1.06893 4.38046 0
M  V30 4366 C 410.369 1.41443 4.59943 0
M  V30 4367 C 412.721 1.90584 4.85106 0
M  V30 4368 C 410.049 2.59594 5.26144 0
M  V30 4369 C 412.401 3.07907 5.52609 0
M  V30 4370 C 411.065 3.42811 5.72745 0
M  V30 4371 H 410.335 -0.00493133 0.740984 0
M  V30 4372 H 412.982 0.687751 1.78724 0
M  V30 4373 H 411.287 -0.97561 3.79459 0
M  V30 4374 H 412.984 -0.621659 3.96152 0
M  V30 4375 H 409.574 0.789848 4.21259 0
M  V30 4376 H 413.758 1.65203 4.67997 0
M  V30 4377 H 409.014 2.86847 5.39934 0
M  V30 4378 H 413.188 3.73066 5.88043 0
M  V30 4379 H 410.815 4.34462 6.23816 0
M  V30 4380 N 412.39 -1.55475 0.257931 0
M  V30 4381 C 413.338 -2.23244 -0.653076 0
M  V30 4382 C 414.332 -1.22366 -1.17144 0
M  V30 4383 O 415.538 -1.40347 -1.12706 0
M  V30 4384 H 411.913 -0.716247 -0.229117 0
M  V30 4385 H 413.884 -2.98343 -0.0584788 0
M  V30 4386 C 412.633 -2.95401 -1.83395 0
M  V30 4387 H 411.956 -3.72802 -1.44424 0
M  V30 4388 H 413.396 -3.46165 -2.44838 0
M  V30 4389 C 411.855 -1.99895 -2.71189 0
M  V30 4390 O 412.385 -1.53909 -3.71046 0
M  V30 4391 N 410.591 -1.6676 -2.3799 0
M  V30 4392 H 410.138 -2.04352 -1.56837 0
M  V30 4393 H 410.096 -1.03127 -2.97005 0
M  V30 4394 N 413.868 0.0150385 -1.57593 0
M  V30 4395 C 415.145 0.7392 -1.81094 0
M  V30 4396 C 415.525 1.92817 -0.859344 0
M  V30 4397 O 414.873 2.28301 0.095362 0
M  V30 4398 C 415.083 1.15907 -3.29191 0
M  V30 4399 C 416.431 1.56918 -3.9454 0
M  V30 4400 O 417.455 1.25328 -3.33424 0
M  V30 4401 O 416.314 2.15604 -5.02173 0
M  V30 4402 H 413.408 0.358631 -0.745193 0
M  V30 4403 H 415.954 -0.00926156 -1.69697 0
M  V30 4404 H 414.726 0.310921 -3.90063 0
M  V30 4405 H 414.349 1.96711 -3.45529 0
M  V30 4406 N 415.346 1.54954 0.287554 0
M  V30 4407 C 416.757 1.65732 0.859634 0
M  V30 4408 C 417.108 0.574767 1.87592 0
M  V30 4409 O 416.233 -0.286299 2.14498 0
M  V30 4410 C 416.828 3.00438 1.56597 0
M  V30 4411 C 415.387 3.13292 2.08627 0
M  V30 4412 C 414.534 2.61473 0.923416 0
M  V30 4413 H 417.485 1.5857 0.0642338 0
M  V30 4414 H 417.506 2.92613 2.43224 0
M  V30 4415 H 417.018 3.79207 0.826053 0
M  V30 4416 H 415.119 2.39268 2.85625 0
M  V30 4417 H 415.232 4.19647 2.31157 0
M  V30 4418 H 413.596 2.18264 1.31275 0
M  V30 4419 H 414.379 3.42733 0.197241 0
M  V30 4420 N 416.824 -0.551391 1.4764 0
M  V30 4421 C 418.07 -1.31024 1.54792 0
M  V30 4422 C 418.403 -1.9304 0.211967 0
M  V30 4423 O 417.678 -1.78175 -0.77999 0
M  V30 4424 C 417.961 -2.41593 2.67029 0
M  V30 4425 C 417.814 -1.84408 4.10261 0
M  V30 4426 C 419.133 -3.43488 2.75143 0
M  V30 4427 H 416.252 -0.475031 0.563485 0
M  V30 4428 H 418.894 -0.616454 1.79722 0
M  V30 4429 H 417.044 -3.00772 2.45904 0
M  V30 4430 H 418.716 -1.29445 4.42766 0
M  V30 4431 H 416.959 -1.15051 4.18265 0
M  V30 4432 H 417.63 -2.64367 4.84576 0
M  V30 4433 H 420.106 -2.94236 2.94218 0
M  V30 4434 H 418.982 -4.18274 3.55441 0
M  V30 4435 H 419.243 -4.02703 1.82435 0
M  V30 4436 N 418.302 -1.35869 -0.798587 0
M  V30 4437 C 419.252 -1.25982 -1.90033 0
M  V30 4438 C 420.236 -0.153303 -1.60168 0
M  V30 4439 O 421.428 -0.38527 -1.72756 0
M  V30 4440 C 418.557 -1.04211 -3.27101 0
M  V30 4441 C 417.643 -2.19289 -3.63006 0
M  V30 4442 N 418.034 -3.44559 -3.70287 0
M  V30 4443 C 416.332 -2.10852 -3.93011 0
M  V30 4444 C 417.033 -4.20283 -4.02166 0
M  V30 4445 N 416.009 -3.49124 -4.16669 0
M  V30 4446 H 419.811 -2.20883 -1.93876 0
M  V30 4447 H 417.325 -1.28457 -0.993614 0
M  V30 4448 H 419.322 -0.952155 -4.05881 0
M  V30 4449 H 417.982 -0.102013 -3.2454 0
M  V30 4450 H 418.993 -3.7881 -3.53162 0
M  V30 4451 H 415.67 -1.24744 -3.98428 0
M  V30 4452 H 417.06 -5.28575 -4.14799 0
M  V30 4453 N 419.78 1.02168 -1.19998 0
M  V30 4454 C 421.028 1.75338 -1.00504 0
M  V30 4455 C 421.349 1.89387 0.464506 0
M  V30 4456 O 420.619 1.43268 1.33608 0
M  V30 4457 H 419.199 0.649564 -0.368885 0
M  V30 4458 H 421.861 1.23205 -1.51018 0
M  V30 4459 H 420.957 2.75892 -1.45912 0
M  V30 4460 N 421.258 1.00505 1.21394 0
M  V30 4461 C 422.506 0.686415 1.90086 0
M  V30 4462 C 422.827 -0.785264 1.7849 0
M  V30 4463 O 422.097 -1.56387 1.17983 0
M  V30 4464 H 420.677 0.2509 0.703604 0
M  V30 4465 H 423.339 1.27417 1.47482 0
M  V30 4466 H 422.435 0.959621 2.96981 0
M  V30 4467 N 422.737 -1.36956 0.779787 0
M  V30 4468 C 423.962 -2.04283 0.358224 0
M  V30 4469 C 424.387 -1.58422 -1.01411 0
M  V30 4470 O 423.745 -0.748179 -1.65142 0
M  V30 4471 C 423.793 -3.58152 0.419479 0
M  V30 4472 O 422.897 -4.08342 -0.577142 0
M  V30 4473 H 422.238 -0.645967 0.153698 0
M  V30 4474 H 424.768 -1.75108 1.05822 0
M  V30 4475 H 424.778 -4.07041 0.279636 0
M  V30 4476 H 423.453 -3.90886 1.42061 0
M  V30 4477 H 422.03 -3.70751 -0.399755 0
M  V30 4478 N 424.215 -0.530993 -1.48385 0
M  V30 4479 C 425.461 -0.00538653 -2.03399 0
M  V30 4480 C 425.816 1.31899 -1.40073 0
M  V30 4481 O 425.109 1.83901 -0.537676 0
M  V30 4482 C 425.303 0.172742 -3.56982 0
M  V30 4483 C 425.132 -1.13282 -4.35198 0
M  V30 4484 C 423.902 -1.69296 -4.76096 0
M  V30 4485 C 426.1 -2.04367 -4.71952 0
M  V30 4486 N 424.082 -2.9413 -5.38851 0
M  V30 4487 C 425.453 -3.13777 -5.34737 0
M  V30 4488 C 427.508 -2.04681 -4.53883 0
M  V30 4489 C 426.211 -4.23567 -5.81363 0
M  V30 4490 C 428.237 -3.13466 -5.01491 0
M  V30 4491 C 427.599 -4.21595 -5.64302 0
M  V30 4492 H 423.698 -0.0434945 -0.780789 0
M  V30 4493 H 426.282 -0.712495 -1.81195 0
M  V30 4494 H 424.453 0.848937 -3.79009 0
M  V30 4495 H 426.185 0.698046 -3.98634 0
M  V30 4496 H 422.94 -1.23422 -4.57235 0
M  V30 4497 H 423.364 -3.57689 -5.74794 0
M  V30 4498 H 428.006 -1.22378 -4.04702 0
M  V30 4499 H 425.724 -5.06648 -6.2955 0
M  V30 4500 H 429.31 -3.14765 -4.893 0
M  V30 4501 H 428.19 -5.04384 -6.00472 0
M  V30 4502 N 425.693 1.55336 -0.266172 0
M  V30 4503 C 426.94 1.99397 0.353158 0
M  V30 4504 C 427.268 1.15451 1.56529 0
M  V30 4505 O 426.523 0.209974 1.9457 0
M  V30 4506 C 426.822 3.48606 0.787957 0
M  V30 4507 C 426.488 4.49773 -0.318541 0
M  V30 4508 C 425.15 4.77158 -0.62239 0
M  V30 4509 C 427.502 5.10212 -1.06459 0
M  V30 4510 C 424.83 5.62251 -1.67602 0
M  V30 4511 C 427.182 5.96449 -2.10788 0
M  V30 4512 C 425.846 6.22158 -2.41817 0
M  V30 4513 H 425.116 0.729644 0.12923 0
M  V30 4514 H 427.763 1.87732 -0.37802 0
M  V30 4515 H 426.068 3.57701 1.59866 0
M  V30 4516 H 427.765 3.80098 1.27775 0
M  V30 4517 H 424.355 4.2854 -0.0715925 0
M  V30 4518 H 428.539 4.89086 -0.843098 0
M  V30 4519 H 423.795 5.80419 -1.92155 0
M  V30 4520 H 427.969 6.42317 -2.69076 0
M  V30 4521 H 425.596 6.87888 -3.23596 0
M  V30 4522 N 427.171 -0.0066808 1.57599 0
M  V30 4523 C 428.587 -0.36267 1.55425 0
M  V30 4524 C 428.787 -1.75209 0.995187 0
M  V30 4525 O 427.843 -2.44616 0.626058 0
M  V30 4526 C 429.156 -0.244017 2.99708 0
M  V30 4527 C 430.704 -0.319451 3.11366 0
M  V30 4528 C 431.179 -0.229998 4.57422 0
M  V30 4529 N 432.67 -0.288105 4.62303 0
M  V30 4530 C 433.405 -0.242127 5.72889 0
M  V30 4531 N 432.901 -0.147133 6.92644 0
M  V30 4532 N 434.694 -0.293502 5.61333 0
M  V30 4533 H 426.845 0.902314 1.92281 0
M  V30 4534 H 429.108 0.34525 0.882896 0
M  V30 4535 H 428.814 0.711678 3.44424 0
M  V30 4536 H 428.688 -1.02877 3.629 0
M  V30 4537 H 431.075 -1.26559 2.66584 0
M  V30 4538 H 431.156 0.495055 2.50964 0
M  V30 4539 H 430.8 0.712566 5.02877 0
M  V30 4540 H 430.73 -1.0629 5.15761 0
M  V30 4541 H 433.221 -0.363126 3.76151 0
M  V30 4542 H 433.534 -0.117763 7.7271 0
M  V30 4543 H 431.879 -0.112857 6.94908 0
M  V30 4544 H 435.07 -0.365864 4.66668 0
M  V30 4545 H 435.243 -0.254204 6.47501 0
M  V30 4546 N 428.649 -1.55105 -0.279332 0
M  V30 4547 C 429.897 -1.75066 -1.00977 0
M  V30 4548 C 430.218 -0.551276 -1.87045 0
M  V30 4549 O 429.488 0.433984 -1.91032 0
M  V30 4550 H 428.068 -0.645578 -0.375816 0
M  V30 4551 H 430.73 -1.92497 -0.305089 0
M  V30 4552 H 429.826 -2.64894 -1.65038 0
M  V30 4553 N 430.127 0.543554 -1.4793 0
M  V30 4554 C 431.09 1.63156 -1.60975 0
M  V30 4555 C 432.09 1.53346 -0.483899 0
M  V30 4556 O 433.28 1.5726 -0.749339 0
M  V30 4557 C 430.412 3.02743 -1.56716 0
M  V30 4558 H 431.605 1.52934 -2.57975 0
M  V30 4559 H 429.158 0.764557 -1.36324 0
M  V30 4560 H 429.893 3.18484 -0.611418 0
M  V30 4561 H 429.678 3.11272 -2.38438 0
M  V30 4562 H 431.168 3.81871 -1.6901 0
M  V30 4563 N 431.605 1.3629 0.791371 0
M  V30 4564 C 432.854 1.29742 1.54434 0
M  V30 4565 C 433.167 -0.121729 1.95221 0
M  V30 4566 O 434.373 -0.309579 2.69729 0
M  V30 4567 C 432.829 2.27623 2.78776 0
M  V30 4568 C 432.437 3.74963 2.45166 0
M  V30 4569 C 434.181 2.30047 3.56761 0
M  V30 4570 C 432.088 4.64626 3.65891 0
M  V30 4571 H 431.018 0.482113 0.579727 0
M  V30 4572 H 433.669 1.61642 0.868565 0
M  V30 4573 H 432.051 1.88714 3.48142 0
M  V30 4574 H 433.225 4.22596 1.83709 0
M  V30 4575 H 431.54 3.75295 1.80396 0
M  V30 4576 H 434.137 2.94247 4.46456 0
M  V30 4577 H 434.48 1.30846 3.95203 0
M  V30 4578 H 435.013 2.67563 2.94372 0
M  V30 4579 H 431.752 5.64883 3.32547 0
M  V30 4580 H 431.272 4.2171 4.26521 0
M  V30 4581 H 432.951 4.80801 4.32943 0
M  V30 4582 N 433.083 -1.0153 1.20538 0
M  V30 4583 C 434.313 -1.78487 1.04048 0
M  V30 4584 C 434.721 -1.84631 -0.413292 0
M  V30 4585 O 434.064 -1.29919 -1.29872 0
M  V30 4586 C 434.126 -3.24367 1.55003 0
M  V30 4587 C 433.79 -3.41827 3.0332 0
M  V30 4588 C 434.787 -3.30941 4.00966 0
M  V30 4589 C 432.472 -3.67602 3.42307 0
M  V30 4590 C 434.466 -3.45577 5.35589 0
M  V30 4591 C 432.153 -3.81881 4.77085 0
M  V30 4592 C 433.151 -3.70874 5.73534 0
M  V30 4593 O 432.839 -3.84714 7.05868 0
M  V30 4594 H 432.571 -0.568108 0.366373 0
M  V30 4595 H 435.125 -1.28677 1.60098 0
M  V30 4596 H 433.355 -3.75266 0.933397 0
M  V30 4597 H 435.044 -3.82963 1.34514 0
M  V30 4598 H 435.81 -3.10964 3.72191 0
M  V30 4599 H 431.689 -3.75256 2.67776 0
M  V30 4600 H 435.233 -3.36902 6.10854 0
M  V30 4601 H 431.13 -4.01359 5.0555 0
M  V30 4602 H 431.898 -4.01724 7.13134 0
M  V30 4603 N 434.561 -1.01147 -1.20859 0
M  V30 4604 C 435.791 -0.715872 -1.93801 0
M  V30 4605 C 436.199 0.726592 -1.74692 0
M  V30 4606 O 435.542 1.50397 -1.05482 0
M  V30 4607 C 435.604 -0.965269 -3.46299 0
M  V30 4608 C 435.268 -2.39584 -3.89164 0
M  V30 4609 C 436.265 -3.3764 -3.95342 0
M  V30 4610 C 433.95 -2.73522 -4.21297 0
M  V30 4611 C 435.944 -4.67698 -4.33056 0
M  V30 4612 C 433.631 -4.03794 -4.58687 0
M  V30 4613 C 434.629 -5.00693 -4.64538 0
M  V30 4614 O 434.317 -6.28635 -5.01072 0
M  V30 4615 H 434.049 -0.262524 -0.622942 0
M  V30 4616 H 436.603 -1.35413 -1.54443 0
M  V30 4617 H 434.833 -0.269847 -3.85757 0
M  V30 4618 H 436.522 -0.662051 -4.00464 0
M  V30 4619 H 437.288 -3.12757 -3.70686 0
M  V30 4620 H 433.167 -1.9879 -4.15937 0
M  V30 4621 H 436.711 -5.4333 -4.37537 0
M  V30 4622 H 432.608 -4.28459 -4.82797 0
M  V30 4623 H 433.376 -6.32847 -5.19083 0
M  V30 4624 N 436.039 1.36541 -0.78704 0
M  V30 4625 C 437.286 1.99304 -0.358341 0
M  V30 4626 C 437.614 1.62467 1.06933 0
M  V30 4627 O 436.869 0.870019 1.75297 0
M  V30 4628 C 437.168 3.54343 -0.466485 0
M  V30 4629 C 436.834 4.10993 -1.85461 0
M  V30 4630 C 435.496 4.26177 -2.23443 0
M  V30 4631 C 437.848 4.41895 -2.76366 0
M  V30 4632 C 435.176 4.69573 -3.51736 0
M  V30 4633 C 437.528 4.86722 -4.04084 0
M  V30 4634 C 436.192 5.00112 -4.42091 0
M  V30 4635 H 435.462 0.729306 -0.131126 0
M  V30 4636 H 438.109 1.63068 -1.00404 0
M  V30 4637 H 436.414 3.90918 0.262719 0
M  V30 4638 H 438.111 4.00833 -0.115854 0
M  V30 4639 H 434.701 3.99612 -1.54946 0
M  V30 4640 H 438.885 4.29735 -2.48277 0
M  V30 4641 H 434.141 4.78127 -3.81057 0
M  V30 4642 H 438.315 5.09598 -4.7464 0
M  V30 4643 H 435.942 5.33498 -5.41557 0
M  V30 4644 N 437.518 0.538854 1.48102 0
M  V30 4645 C 438.465 -0.219042 2.29758 0
M  V30 4646 C 439.435 -0.925562 1.37922 0
M  V30 4647 O 440.62 -0.924855 1.66886 0
M  V30 4648 C 437.76 -1.25452 3.2149 0
M  V30 4649 C 436.873 -0.555943 4.28408 0
M  V30 4650 C 436.008 -1.57512 5.0731 0
M  V30 4651 C 435.047 -0.860498 6.06021 0
M  V30 4652 N 434.184 -1.82564 6.77949 0
M  V30 4653 H 439.024 0.483449 2.94052 0
M  V30 4654 H 436.561 0.250247 1.44956 0
M  V30 4655 H 438.519 -1.86727 3.7308 0
M  V30 4656 H 437.149 -1.92528 2.591 0
M  V30 4657 H 436.201 0.170938 3.80016 0
M  V30 4658 H 437.513 0.00474616 4.988 0
M  V30 4659 H 436.667 -2.26191 5.62959 0
M  V30 4660 H 435.406 -2.16972 4.36778 0
M  V30 4661 H 434.411 -0.159686 5.49568 0
M  V30 4662 H 435.636 -0.271897 6.78555 0
M  V30 4663 H 433.582 -2.40915 6.10161 0
M  V30 4664 H 433.499 -1.31662 7.44447 0
M  V30 4665 H 434.767 -2.50414 7.38182 0
M  V30 4666 N 438.996 -1.55193 0.274407 0
M  V30 4667 C 440.245 -1.98758 -0.343213 0
M  V30 4668 C 440.558 -1.16624 -1.5703 0
M  V30 4669 O 441.764 -1.5033 -2.26082 0
M  V30 4670 C 440.22 -3.53759 -0.661996 0
M  V30 4671 C 439.828 -4.4467 0.54524 0
M  V30 4672 C 441.572 -4.05916 -1.24228 0
M  V30 4673 C 439.479 -5.91058 0.201084 0
M  V30 4674 H 438.409 -0.742353 -0.132014 0
M  V30 4675 H 441.06 -1.79545 0.378948 0
M  V30 4676 H 439.442 -3.68772 -1.44304 0
M  V30 4677 H 440.616 -4.41426 1.32212 0
M  V30 4678 H 438.931 -4.03143 1.04232 0
M  V30 4679 H 441.528 -5.12831 -1.51357 0
M  V30 4680 H 441.871 -3.54908 -2.17592 0
M  V30 4681 H 442.404 -3.9434 -0.523542 0
M  V30 4682 H 439.143 -6.46161 1.10258 0
M  V30 4683 H 438.663 -5.97373 -0.539045 0
M  V30 4684 H 440.342 -6.46669 -0.206954 0
M  V30 4685 N 440.474 -0.00167713 -1.576 0
M  V30 4686 C 441.437 0.974046 -2.07473 0
M  V30 4687 C 442.437 1.27143 -0.984444 0
M  V30 4688 O 443.627 1.21633 -1.24703 0
M  V30 4689 C 440.759 2.29849 -2.51759 0
M  V30 4690 H 441.952 0.54262 -2.9495 0
M  V30 4691 H 439.505 0.245829 -1.54355 0
M  V30 4692 H 440.24 2.77677 -1.67529 0
M  V30 4693 H 440.025 2.09584 -3.31386 0
M  V30 4694 H 441.515 2.9984 -2.90664 0
M  V30 4695 N 441.952 1.55251 0.271103 0
M  V30 4696 C 443.198 1.76207 1.00394 0
M  V30 4697 C 443.531 0.562604 1.85872 0
M  V30 4698 O 442.806 -0.439785 1.89463 0
M  V30 4699 C 443.089 3.06828 1.8849 0
M  V30 4700 C 442.942 4.37134 1.05992 0
M  V30 4701 C 444.261 3.33503 2.87165 0
M  V30 4702 H 441.38 0.641086 0.363562 0
M  V30 4703 H 444.022 1.87982 0.276189 0
M  V30 4704 H 442.172 2.96921 2.5054 0
M  V30 4705 H 443.844 4.59001 0.459978 0
M  V30 4706 H 442.087 4.32275 0.363443 0
M  V30 4707 H 442.758 5.2486 1.70955 0
M  V30 4708 H 445.234 3.43215 2.3525 0
M  V30 4709 H 444.11 4.2616 3.45946 0
M  V30 4710 H 444.371 2.53235 3.62387 0
M  V30 4711 N 443.43 -0.535701 1.48216 0
M  V30 4712 C 444.393 -1.623 1.61838 0
M  V30 4713 C 445.393 -1.53087 0.492024 0
M  V30 4714 O 446.583 -1.5686 0.757668 0
M  V30 4715 C 443.715 -3.01907 1.58319 0
M  V30 4716 H 444.908 -1.51564 2.58783 0
M  V30 4717 H 442.461 -0.757317 1.36727 0
M  V30 4718 H 443.196 -3.18155 0.628299 0
M  V30 4719 H 442.981 -3.10003 2.40085 0
M  V30 4720 H 444.471 -3.80969 1.71033 0
M  V30 4721 N 444.908 -1.36708 -0.784132 0
M  V30 4722 C 445.838 -1.34153 -1.91116 0
M  V30 4723 C 446.819 -0.212121 -1.68772 0
M  V30 4724 O 448.004 -0.410581 -1.8981 0
M  V30 4725 C 445.134 -1.13535 -3.28218 0
M  V30 4726 C 444.088 -2.23356 -3.65097 0
M  V30 4727 C 443.414 -1.87875 -5.00607 0
M  V30 4728 C 444.714 -3.65473 -3.73131 0
M  V30 4729 H 446.408 -2.28459 -1.93512 0
M  V30 4730 H 443.954 -1.09973 -0.929618 0
M  V30 4731 H 445.907 -1.10381 -4.06687 0
M  V30 4732 H 444.631 -0.156804 -3.26223 0
M  V30 4733 H 443.29 -2.25645 -2.88929 0
M  V30 4734 H 442.938 -0.885814 -4.95139 0
M  V30 4735 H 442.638 -2.61406 -5.26252 0
M  V30 4736 H 444.162 -1.86286 -5.81489 0
M  V30 4737 H 445.576 -3.65382 -4.41779 0
M  V30 4738 H 443.973 -4.37953 -4.10265 0
M  V30 4739 H 445.043 -3.99995 -2.74102 0
M  V30 4740 N 446.386 1.0089 -1.21074 0
M  V30 4741 C 447.349 2.0775 -0.968129 0
M  V30 4742 C 448.349 1.6069 0.0593445 0
M  V30 4743 O 449.539 1.73293 -0.177525 0
M  V30 4744 C 446.671 3.37794 -0.459108 0
M  V30 4745 H 447.864 2.30707 -1.9161 0
M  V30 4746 H 445.417 1.17807 -1.02719 0
M  V30 4747 H 446.152 3.20516 0.49397 0
M  V30 4748 H 445.937 3.7328 -1.20019 0
M  V30 4749 H 447.427 4.16454 -0.309099 0
M  V30 4750 N 447.864 1.01787 1.20321 0
M  V30 4751 C 449.11 0.708985 1.90003 0
M  V30 4752 C 449.443 -0.759572 1.78729 0
M  V30 4753 O 448.718 -1.55198 1.17234 0
M  V30 4754 C 449.001 1.1469 3.41348 0
M  V30 4755 C 448.854 2.67586 3.61549 0
M  V30 4756 C 450.173 0.71915 4.34185 0
M  V30 4757 H 447.292 0.259034 0.689978 0
M  V30 4758 H 449.934 1.26584 1.41692 0
M  V30 4759 H 448.084 0.673128 3.82624 0
M  V30 4760 H 449.756 3.22826 3.29517 0
M  V30 4761 H 447.999 3.085 3.04976 0
M  V30 4762 H 448.67 2.93281 4.67643 0
M  V30 4763 H 451.146 1.12647 4.00562 0
M  V30 4764 H 450.022 1.05358 5.38694 0
M  V30 4765 H 450.283 -0.379111 4.40472 0
M  V30 4766 N 449.342 -1.36122 0.79427 0
M  V30 4767 C 450.305 -2.28309 0.201889 0
M  V30 4768 C 451.305 -1.49041 -0.603603 0
M  V30 4769 O 452.495 -1.68964 -0.423888 0
M  V30 4770 C 449.627 -3.3321 -0.719978 0
M  V30 4771 H 450.82 -2.82208 1.01481 0
M  V30 4772 H 448.373 -1.45768 0.564037 0
M  V30 4773 H 449.108 -2.84475 -1.55706 0
M  V30 4774 H 448.893 -3.91835 -0.144266 0
M  V30 4775 H 450.383 -4.02044 -1.12916 0
M  V30 4776 N 450.82 -0.546701 -1.47814 0
M  V30 4777 C 451.783 0.196287 -2.28358 0
M  V30 4778 C 452.783 0.852437 -1.36346 0
M  V30 4779 O 453.973 0.709913 -1.59078 0
M  V30 4780 C 451.105 1.28579 -3.15722 0
M  V30 4781 H 452.298 -0.511086 -2.95513 0
M  V30 4782 H 449.851 -0.303248 -1.5333 0
M  V30 4783 H 450.586 2.0259 -2.53235 0
M  V30 4784 H 450.371 0.820229 -3.83425 0
M  V30 4785 H 451.861 1.80793 -3.76435 0
M  V30 4786 N 452.299 1.55045 -0.282633 0
M  V30 4787 C 453.548 1.98938 0.332667 0
M  V30 4788 C 453.861 1.17455 1.56409 0
M  V30 4789 O 455.067 1.51527 2.25282 0
M  V30 4790 C 453.523 3.54105 0.643226 0
M  V30 4791 C 453.131 4.44374 -0.568814 0
M  V30 4792 C 454.875 4.06569 1.22074 0
M  V30 4793 C 452.782 5.90943 -0.232426 0
M  V30 4794 H 451.712 0.743043 0.128075 0
M  V30 4795 H 454.363 1.79341 -0.388464 0
M  V30 4796 H 452.745 3.69532 1.42346 0
M  V30 4797 H 453.919 4.40718 -1.34551 0
M  V30 4798 H 452.234 4.02585 -1.06369 0
M  V30 4799 H 454.831 5.13626 1.48635 0
M  V30 4800 H 455.174 3.56057 2.15707 0
M  V30 4801 H 455.707 3.94612 0.502621 0
M  V30 4802 H 452.446 6.45567 -1.13683 0
M  V30 4803 H 451.966 5.9765 0.507357 0
M  V30 4804 H 453.645 6.4677 0.172657 0
M  V30 4805 N 453.777 0.010035 1.57597 0
M  V30 4806 C 455.188 -0.531426 1.78977 0
M  V30 4807 C 455.539 -1.73375 0.918454 0
M  V30 4808 O 454.664 -2.16047 0.123635 0
M  V30 4809 C 455.259 -0.97086 3.24592 0
M  V30 4810 C 453.818 -1.45756 3.47033 0
M  V30 4811 C 452.965 -0.413384 2.74201 0
M  V30 4812 H 455.916 0.236166 1.56933 0
M  V30 4813 H 455.937 -1.83633 3.33255 0
M  V30 4814 H 455.449 -0.0955893 3.87982 0
M  V30 4815 H 453.55 -2.35339 2.88871 0
M  V30 4816 H 453.663 -1.4781 4.55729 0
M  V30 4817 H 452.027 -0.877266 2.39115 0
M  V30 4818 H 452.81 0.453092 3.40297 0
M  V30 4819 N 455.255 -1.55392 -0.262866 0
M  V30 4820 C 456.165 -1.92077 -1.34698 0
M  V30 4821 C 457.181 -0.819227 -1.53508 0
M  V30 4822 O 458.357 -1.11921 -1.67439 0
M  V30 4823 C 455.422 -2.19407 -2.68443 0
M  V30 4824 C 454.483 -3.42905 -2.58292 0
M  V30 4825 C 453.716 -3.68921 -3.85659 0
M  V30 4826 O 453.939 -2.97275 -4.8681 0
M  V30 4827 O 452.873 -4.62455 -3.85252 0
M  V30 4828 H 456.699 -2.84384 -1.06581 0
M  V30 4829 H 454.284 -1.42069 -0.462264 0
M  V30 4830 H 456.166 -2.38365 -3.47506 0
M  V30 4831 H 454.841 -1.30282 -2.96325 0
M  V30 4832 H 453.748 -3.29272 -1.7757 0
M  V30 4833 H 455.081 -4.32282 -2.35358 0
M  V30 4834 N 456.733 0.527833 -1.48498 0
M  V30 4835 C 457.981 1.28101 -1.56316 0
M  V30 4836 C 458.302 1.9352 -0.239781 0
M  V30 4837 O 457.572 1.81433 0.738849 0
M  V30 4838 H 456.152 0.475793 -0.575873 0
M  V30 4839 H 458.814 0.614052 -1.84974 0
M  V30 4840 H 457.91 2.05916 -2.34532 0
M  V30 4841 N 458.211 1.37122 0.776871 0
M  V30 4842 C 459.141 1.35164 1.90402 0
M  V30 4843 C 460.122 0.221069 1.68657 0
M  V30 4844 O 461.307 0.420642 1.8959 0
M  V30 4845 C 458.437 1.15274 3.27611 0
M  V30 4846 C 457.391 2.25289 3.63908 0
M  V30 4847 C 456.717 1.90527 4.99603 0
M  V30 4848 C 458.017 3.67446 3.71188 0
M  V30 4849 H 459.711 2.29482 1.92297 0
M  V30 4850 H 457.257 1.10465 0.923773 0
M  V30 4851 H 459.21 1.12536 4.06096 0
M  V30 4852 H 457.934 0.174102 3.26136 0
M  V30 4853 H 456.593 2.27174 2.87728 0
M  V30 4854 H 456.241 0.91206 4.94662 0
M  V30 4855 H 455.941 2.64193 5.24858 0
M  V30 4856 H 457.465 1.89367 5.80493 0
M  V30 4857 H 458.879 3.67719 4.39836 0
M  V30 4858 H 457.276 4.40123 4.07936 0
M  V30 4859 H 458.346 4.01443 2.71977 0
M  V30 4860 N 459.689 -1.00246 1.21608 0
M  V30 4861 C 461.1 -1.55511 1.03312 0
M  V30 4862 C 461.451 -1.91946 -0.406332 0
M  V30 4863 O 460.576 -1.73753 -1.28992 0
M  V30 4864 C 461.171 -2.82576 1.86913 0
M  V30 4865 C 459.73 -3.34318 1.72941 0
M  V30 4866 C 458.877 -2.07487 1.83968 0
M  V30 4867 H 461.828 -0.824638 1.35593 0
M  V30 4868 H 461.849 -3.54559 1.38087 0
M  V30 4869 H 461.361 -2.56026 2.91672 0
M  V30 4870 H 459.462 -3.65797 0.70877 0
M  V30 4871 H 459.575 -4.05566 2.55055 0
M  V30 4872 H 457.939 -2.20603 1.27304 0
M  V30 4873 H 458.722 -1.83346 2.9024 0
M  V30 4874 N 461.167 -1.02423 -1.1978 0
M  V30 4875 C 462.13 -0.605703 -2.21052 0
M  V30 4876 C 463.13 0.328209 -1.57415 0
M  V30 4877 O 464.32 0.115853 -1.73814 0
M  V30 4878 C 461.452 0.114366 -3.40708 0
M  V30 4879 H 462.645 -1.5017 -2.59594 0
M  V30 4880 H 460.198 -0.814888 -1.33376 0
M  V30 4881 H 460.933 1.02492 -3.07678 0
M  V30 4882 H 460.718 -0.556641 -3.88129 0
M  V30 4883 H 462.208 0.394272 -4.15735 0
M  V30 4884 N 462.645 1.35699 -0.801477 0
M  V30 4885 C 463.891 1.99208 -0.380022 0
M  V30 4886 C 464.224 1.63445 1.04878 0
M  V30 4887 O 463.499 0.895223 1.72673 0
M  V30 4888 C 463.782 3.55755 -0.557708 0
M  V30 4889 C 463.635 4.01332 -2.03107 0
M  V30 4890 C 464.954 4.40096 0.0197968 0
M  V30 4891 H 462.073 0.723667 -0.139552 0
M  V30 4892 H 464.715 1.60928 -1.01006 0
M  V30 4893 H 462.865 3.88494 -0.0213741 0
M  V30 4894 H 464.537 3.79026 -2.62939 0
M  V30 4895 H 462.78 3.52429 -2.52936 0
M  V30 4896 H 463.451 5.10234 -2.1063 0
M  V30 4897 H 465.927 4.13786 -0.438179 0
M  V30 4898 H 464.803 5.48735 -0.134477 0
M  V30 4899 H 465.064 4.2786 1.11303 0
M  V30 4900 N 464.123 0.554532 1.47522 0
M  V30 4901 C 465.372 0.0273458 2.01681 0
M  V30 4902 C 465.685 -1.32962 1.43459 0
M  V30 4903 O 466.891 -1.94657 1.89265 0
M  V30 4904 C 465.347 -0.00159057 3.599 0
M  V30 4905 C 464.955 1.35197 4.27113 0
M  V30 4906 C 466.699 -0.476311 4.21819 0
M  V30 4907 C 464.606 1.28229 5.77331 0
M  V30 4908 H 463.536 0.00645269 0.753972 0
M  V30 4909 H 466.187 0.701985 1.69542 0
M  V30 4910 H 464.569 -0.741821 3.8899 0
M  V30 4911 H 465.743 2.1097 4.09668 0
M  V30 4912 H 464.058 1.76441 3.77171 0
M  V30 4913 H 466.655 -0.5468 5.31897 0
M  V30 4914 H 466.998 -1.4877 3.8881 0
M  V30 4915 H 467.531 0.20898 3.97251 0
M  V30 4916 H 464.27 2.26959 6.14955 0
M  V30 4917 H 463.79 0.566314 5.97121 0
M  V30 4918 H 465.469 0.983226 6.39485 0
M  V30 4919 N 465.601 -1.54893 0.290851 0
M  V30 4920 C 466.829 -2.04343 -0.324288 0
M  V30 4921 C 467.244 -1.16859 -1.48289 0
M  V30 4922 O 466.601 -0.192018 -1.81487 0
M  V30 4923 C 466.652 -3.52756 -0.79026 0
M  V30 4924 O 466.373 -4.36913 0.322213 0
M  V30 4925 C 467.874 -4.18161 -1.4716 0
M  V30 4926 H 465.094 -0.667135 -0.0719173 0
M  V30 4927 H 467.638 -1.99981 0.427529 0
M  V30 4928 H 465.793 -3.57511 -1.49213 0
M  V30 4929 H 466.207 -5.24486 -0.0387372 0
M  V30 4930 H 467.681 -5.23562 -1.7489 0
M  V30 4931 H 468.158 -3.67282 -2.40834 0
M  V30 4932 H 468.764 -4.17454 -0.813178 0
M  V30 4933 N 467.08 -0.0183926 -1.57589 0
M  V30 4934 C 468.308 0.673046 -1.95647 0
M  V30 4935 C 468.723 1.66275 -0.894312 0
M  V30 4936 O 468.08 1.82072 0.124975 0
M  V30 4937 C 468.131 1.38884 -3.33756 0
M  V30 4938 O 467.852 0.438806 -4.35897 0
M  V30 4939 C 469.353 2.1731 -3.86383 0
M  V30 4940 H 466.573 0.186292 -0.644621 0
M  V30 4941 H 469.117 -0.0749748 -2.04363 0
M  V30 4942 H 467.272 2.08835 -3.26293 0
M  V30 4943 H 467.686 0.945869 -5.15901 0
M  V30 4944 H 469.16 2.62863 -4.85394 0
M  V30 4945 H 469.637 3.00764 -3.20059 0
M  V30 4946 H 470.243 1.52339 -3.97081 0
M  V30 4947 N 468.558 1.5553 0.254621 0
M  V30 4948 C 469.798 1.7876 0.991179 0
M  V30 4949 C 470.162 0.586669 1.82817 0
M  V30 4950 O 471.363 0.697585 2.5959 0
M  V30 4951 C 469.634 3.06679 1.83529 0
M  V30 4952 S 471.193 3.511 2.632 0
M  V30 4953 H 468.011 0.627916 0.333531 0
M  V30 4954 H 470.613 1.93766 0.259778 0
M  V30 4955 H 469.317 3.92158 1.20996 0
M  V30 4956 H 468.848 2.94388 2.60958 0
M  V30 4957 H 470.863 3.11823 3.8598 0
M  V30 4958 N 470.036 -0.519951 1.48776 0
M  V30 4959 C 470.966 -1.63253 1.66945 0
M  V30 4960 C 471.947 -1.62014 0.518224 0
M  V30 4961 O 473.132 -1.79053 0.751919 0
M  V30 4962 C 470.262 -3.0181 1.71836 0
M  V30 4963 C 469.216 -3.17911 2.8656 0
M  V30 4964 C 468.542 -4.5763 2.76548 0
M  V30 4965 C 469.842 -2.99729 4.27738 0
M  V30 4966 H 471.536 -1.48302 2.6009 0
M  V30 4967 H 469.082 -0.712026 1.25165 0
M  V30 4968 H 471.035 -3.79525 1.83135 0
M  V30 4969 H 469.759 -3.17806 0.752775 0
M  V30 4970 H 468.418 -2.42616 2.74833 0
M  V30 4971 H 468.066 -4.70476 1.77937 0
M  V30 4972 H 467.766 -4.69346 3.53536 0
M  V30 4973 H 469.29 -5.37431 2.89828 0
M  V30 4974 H 470.704 -3.67228 4.40246 0
M  V30 4975 H 469.101 -3.22932 5.05801 0
M  V30 4976 H 470.171 -1.96047 4.43502 0
M  V30 4977 N 471.514 -1.37532 -0.769588 0
M  V30 4978 C 472.477 -1.33292 -1.86456 0
M  V30 4979 C 473.477 -0.236537 -1.59051 0
M  V30 4980 O 474.667 -0.492511 -1.67093 0
M  V30 4981 C 471.799 -1.07118 -3.23633 0
M  V30 4982 H 472.992 -2.30692 -1.91628 0
M  V30 4983 H 470.545 -1.22593 -0.969572 0
M  V30 4984 H 471.28 -0.102578 -3.24138 0
M  V30 4985 H 471.065 -1.86479 -3.44917 0
M  V30 4986 H 472.555 -1.06806 -4.03711 0
M  V30 4987 N 472.992 0.995999 -1.22138 0
M  V30 4988 C 473.922 2.10387 -1.01289 0
M  V30 4989 C 474.903 1.69975 0.0651454 0
M  V30 4990 O 476.088 1.9396 -0.0964628 0
M  V30 4991 C 473.218 3.42312 -0.586517 0
M  V30 4992 C 472.172 3.96558 -1.61014 0
M  V30 4993 C 471.498 5.24494 -1.0397 0
M  V30 4994 C 472.798 4.27595 -2.99933 0
M  V30 4995 H 474.492 2.28086 -1.93951 0
M  V30 4996 H 472.038 1.09607 -0.933928 0
M  V30 4997 H 473.991 4.19223 -0.427793 0
M  V30 4998 H 472.715 3.24431 0.375761 0
M  V30 4999 H 471.374 3.21776 -1.75658 0
M  V30 5000 H 471.022 5.02953 -0.0688703 0
M  V30 5001 H 470.722 5.61755 -1.72352 0
M  V30 5002 H 472.246 6.04042 -0.892494 0
M  V30 5003 H 473.66 4.95315 -2.8868 0
M  V30 5004 H 472.057 4.76021 -3.6541 0
M  V30 5005 H 473.127 3.35498 -3.50099 0
M  V30 5006 N 474.47 1.03057 1.19235 0
M  V30 5007 C 475.718 0.726581 1.88587 0
M  V30 5008 C 476.039 -0.747227 1.80115 0
M  V30 5009 O 475.309 -1.53849 1.21274 0
M  V30 5010 H 473.889 0.265768 0.698124 0
M  V30 5011 H 476.551 1.30516 1.44746 0
M  V30 5012 H 475.647 1.0224 2.94879 0
M  V30 5013 N 475.948 -1.35272 0.808662 0
M  V30 5014 C 477.176 -2.02946 0.402537 0
M  V30 5015 C 477.591 -1.60937 -0.987147 0
M  V30 5016 O 476.948 -0.807917 -1.63643 0
M  V30 5017 C 476.999 -3.58317 0.47868 0
M  V30 5018 O 476.72 -3.98799 1.81358 0
M  V30 5019 C 478.221 -4.43251 0.0656281 0
M  V30 5020 H 475.441 -0.650831 0.163279 0
M  V30 5021 H 477.985 -1.72849 1.09286 0
M  V30 5022 H 476.14 -3.87055 -0.163415 0
M  V30 5023 H 476.554 -4.93451 1.77781 0
M  V30 5024 H 478.028 -5.51738 0.170017 0
M  V30 5025 H 478.505 -4.27913 -0.989278 0
M  V30 5026 H 479.111 -4.19813 0.68096 0
M  V30 5027 N 477.426 -0.562348 -1.47226 0
M  V30 5028 C 478.842 -0.222492 -1.58042 0
M  V30 5029 C 479.042 1.27505 -1.56028 0
M  V30 5030 O 478.098 2.05555 -1.46641 0
M  V30 5031 C 479.411 -0.853694 -2.88327 0
M  V30 5032 C 480.959 -0.825397 -3.01921 0
M  V30 5033 C 481.434 -1.43576 -4.34914 0
M  V30 5034 N 482.925 -1.39918 -4.41562 0
M  V30 5035 C 483.66 -1.84103 -5.43041 0
M  V30 5036 N 483.156 -2.36167 -6.51304 0
M  V30 5037 N 484.949 -1.75142 -5.34118 0
M  V30 5038 H 477.1 -1.53525 -1.46778 0
M  V30 5039 H 479.363 -0.640527 -0.698877 0
M  V30 5040 H 479.069 -1.90635 -2.95552 0
M  V30 5041 H 478.943 -0.34977 -3.75575 0
M  V30 5042 H 481.33 0.218583 -2.94289 0
M  V30 5043 H 481.411 -1.36713 -2.16202 0
M  V30 5044 H 481.055 -2.47884 -4.43301 0
M  V30 5045 H 480.985 -0.869427 -5.19373 0
M  V30 5046 H 483.476 -1.0184 -3.63919 0
M  V30 5047 H 483.789 -2.67793 -7.24919 0
M  V30 5048 H 482.134 -2.40181 -6.52179 0
M  V30 5049 H 485.325 -1.34241 -4.48439 0
M  V30 5050 H 485.498 -2.09895 -6.13065 0
M  V30 5051 N 478.904 1.54736 -0.299062 0
M  V30 5052 C 480.32 1.59507 0.0543849 0
M  V30 5053 C 480.52 1.31606 1.52585 0
M  V30 5054 O 479.576 1.08853 2.27832 0
M  V30 5055 C 480.889 2.98751 -0.34181 0
M  V30 5056 C 482.437 3.1165 -0.290414 0
M  V30 5057 C 482.912 4.53199 -0.661402 0
M  V30 5058 N 484.403 4.59114 -0.613863 0
M  V30 5059 C 485.138 5.66709 -0.873417 0
M  V30 5060 N 484.634 6.82349 -1.19884 0
M  V30 5061 N 486.427 5.56369 -0.800608 0
M  V30 5062 H 478.578 1.71133 -1.25806 0
M  V30 5063 H 480.841 0.799186 -0.509908 0
M  V30 5064 H 480.547 3.24085 -1.36608 0
M  V30 5065 H 480.421 3.75961 0.305508 0
M  V30 5066 H 482.808 2.86066 0.724605 0
M  V30 5067 H 482.889 2.366 -0.972327 0
M  V30 5068 H 482.533 4.79513 -1.67422 0
M  V30 5069 H 482.463 5.26583 0.0425612 0
M  V30 5070 H 484.954 3.76053 -0.3732 0
M  V30 5071 H 485.267 7.60326 -1.38291 0
M  V30 5072 H 483.612 6.83906 -1.23685 0
M  V30 5073 H 486.803 4.64904 -0.546045 0
M  V30 5074 H 486.976 6.40139 -1.00626 0
M  V30 5075 N 480.382 0.0267497 1.57577 0
M  V30 5076 C 481.315 -0.99059 2.05579 0
M  V30 5077 C 482.293 -1.31884 0.951065 0
M  V30 5078 O 483.477 -1.43592 1.22121 0
M  V30 5079 C 480.604 -2.31125 2.47586 0
M  V30 5080 C 479.65 -2.13777 3.69055 0
M  V30 5081 S 480.483 -1.4388 5.15809 0
M  V30 5082 C 481.639 -2.77321 5.6111 0
M  V30 5083 H 481.872 -0.581976 2.91548 0
M  V30 5084 H 479.405 -0.184876 1.53289 0
M  V30 5085 H 481.363 -3.07049 2.72454 0
M  V30 5086 H 480.024 -2.6912 1.61967 0
M  V30 5087 H 479.217 -3.11405 3.96287 0
M  V30 5088 H 478.819 -1.45996 3.44327 0
M  V30 5089 H 481.111 -3.73565 5.65204 0
M  V30 5090 H 482.054 -2.54756 6.60685 0
M  V30 5091 H 482.462 -2.82459 4.88751 0
M  V30 5092 N 481.861 -1.55662 -0.24637 0
M  V30 5093 C 482.824 -1.89558 -1.28842 0
M  V30 5094 C 483.824 -0.772082 -1.41052 0
M  V30 5095 O 485.014 -1.04007 -1.39743 0
M  V30 5096 C 482.146 -2.12449 -2.66605 0
M  V30 5097 H 483.339 -2.82735 -1.00004 0
M  V30 5098 H 480.892 -1.48562 -0.485684 0
M  V30 5099 H 481.627 -1.21742 -3.00582 0
M  V30 5100 H 481.412 -2.94273 -2.59125 0
M  V30 5101 H 482.902 -2.39854 -3.41847 0
M  V30 5102 N 483.339 0.512053 -1.4905 0
M  V30 5103 C 484.286 1.6148 -1.64902 0
M  V30 5104 C 485.256 1.58687 -0.490673 0
M  V30 5105 O 486.441 1.76842 -0.71636 0
M  V30 5106 C 483.581 2.99676 -1.71139 0
M  V30 5107 C 482.694 3.12568 -2.98203 0
M  V30 5108 C 481.829 4.4143 -2.95487 0
M  V30 5109 C 480.868 4.47916 -4.17179 0
M  V30 5110 N 480.005 5.68191 -4.12437 0
M  V30 5111 H 484.845 1.47271 -2.59066 0
M  V30 5112 H 482.382 0.716713 -1.28459 0
M  V30 5113 H 484.34 3.79761 -1.72736 0
M  V30 5114 H 482.97 3.12614 -0.804508 0
M  V30 5115 H 482.022 2.25618 -3.06269 0
M  V30 5116 H 483.334 3.1322 -3.88194 0
M  V30 5117 H 482.488 5.29825 -2.95585 0
M  V30 5118 H 481.227 4.43326 -2.03256 0
M  V30 5119 H 480.232 3.57925 -4.17337 0
M  V30 5120 H 481.457 4.47744 -5.1059 0
M  V30 5121 H 479.403 5.7095 -3.23036 0
M  V30 5122 H 479.32 5.70413 -4.96151 0
M  V30 5123 H 480.588 6.58823 -4.16621 0
M  V30 5124 N 484.817 1.37938 0.762283 0
M  V30 5125 C 485.764 1.34467 1.87583 0
M  V30 5126 C 486.734 0.208633 1.64785 0
M  V30 5127 O 487.919 0.399494 1.86571 0
M  V30 5128 C 485.059 1.16692 3.24772 0
M  V30 5129 C 484.172 2.39608 3.59461 0
M  V30 5130 C 483.307 2.14631 4.85908 0
M  V30 5131 C 482.346 3.33364 5.13357 0
M  V30 5132 N 481.483 3.07877 6.30996 0
M  V30 5133 H 486.323 2.29669 1.89885 0
M  V30 5134 H 483.86 1.14116 0.928219 0
M  V30 5135 H 485.818 1.04405 4.03925 0
M  V30 5136 H 484.448 0.251333 3.2182 0
M  V30 5137 H 483.5 2.626 2.75219 0
M  V30 5138 H 484.812 3.28128 3.75678 0
M  V30 5139 H 483.966 1.99429 5.72986 0
M  V30 5140 H 482.705 1.23463 4.71814 0
M  V30 5141 H 481.71 3.49094 4.24751 0
M  V30 5142 H 482.935 4.25395 5.29354 0
M  V30 5143 H 480.881 2.19348 6.18241 0
M  V30 5144 H 480.798 3.89944 6.47673 0
M  V30 5145 H 482.066 2.96313 7.20985 0
M  V30 5146 N 486.295 -0.989507 1.22664 0
M  V30 5147 C 487.243 -2.10148 0.997035 0
M  V30 5148 C 488.237 -1.6929 -0.0609783 0
M  V30 5149 O 489.443 -1.79766 0.0917523 0
M  V30 5150 H 485.818 -0.687256 0.305259 0
M  V30 5151 H 487.789 -2.26685 1.94053 0
M  V30 5152 C 486.538 -3.4257 0.595085 0
M  V30 5153 H 485.861 -3.74453 1.40089 0
M  V30 5154 H 487.301 -4.21344 0.473869 0
M  V30 5155 C 485.76 -3.29638 -0.695725 0
M  V30 5156 O 486.29 -3.61709 -1.74727 0
M  V30 5157 N 484.496 -2.82814 -0.668173 0
M  V30 5158 H 484.043 -2.56914 0.18787 0
M  V30 5159 H 484.001 -2.74544 -1.5321 0
M  V30 5160 N 487.773 -1.03688 -1.18687 0
M  V30 5161 C 488.736 -0.629115 -2.20397 0
M  V30 5162 C 489.736 0.311495 -1.57754 0
M  V30 5163 O 490.926 0.0974107 -1.73927 0
M  V30 5164 C 488.058 0.0782231 -3.4081 0
M  V30 5165 H 489.251 -1.52915 -2.57987 0
M  V30 5166 H 486.804 -0.828988 -1.32505 0
M  V30 5167 H 487.539 0.992233 -3.08748 0
M  V30 5168 H 487.324 -0.597776 -3.87517 0
M  V30 5169 H 488.814 0.350156 -4.16129 0
M  V30 5170 N 489.251 1.34841 -0.815825 0
M  V30 5171 C 490.5 1.97755 -0.396976 0
M  V30 5172 C 490.813 1.65422 1.04379 0
M  V30 5173 O 492.019 2.21771 1.5662 0
M  V30 5174 C 490.475 3.53818 -0.658869 0
M  V30 5175 C 490.083 3.95051 -2.11278 0
M  V30 5176 C 491.827 4.23397 -0.305834 0
M  V30 5177 C 489.734 5.43997 -2.31994 0
M  V30 5178 H 488.664 0.739985 -0.1447 0
M  V30 5179 H 491.315 1.53781 -1.00118 0
M  V30 5180 H 489.697 3.95997 0.0154112 0
M  V30 5181 H 490.871 3.63998 -2.82564 0
M  V30 5182 H 489.186 3.38388 -2.42657 0
M  V30 5183 H 491.783 5.32899 -0.43854 0
M  V30 5184 H 492.126 4.09508 0.748952 0
M  V30 5185 H 492.659 3.8667 -0.934403 0
M  V30 5186 H 489.398 5.62865 -3.35952 0
M  V30 5187 H 488.918 5.76589 -1.65244 0
M  V30 5188 H 490.597 6.10584 -2.14001 0
M  V30 5189 N 490.729 0.570148 1.46925 0
M  V30 5190 C 491.975 0.0510284 2.02736 0
M  V30 5191 C 492.308 -1.3006 1.44215 0
M  V30 5192 O 491.583 -1.84932 0.602521 0
M  V30 5193 C 491.866 -0.028215 3.60089 0
M  V30 5194 C 491.719 1.35142 4.29018 0
M  V30 5195 C 493.038 -0.735181 4.33916 0
M  V30 5196 H 490.157 0.0200178 0.736728 0
M  V30 5197 H 492.799 0.73493 1.75211 0
M  V30 5198 H 490.949 -0.610648 3.83671 0
M  V30 5199 H 492.621 1.97806 4.16738 0
M  V30 5200 H 490.864 1.9226 3.88868 0
M  V30 5201 H 491.535 1.24857 5.37694 0
M  V30 5202 H 494.011 -0.240519 4.15404 0
M  V30 5203 H 492.887 -0.759622 5.43618 0
M  V30 5204 H 493.148 -1.79397 4.04066 0
M  V30 5205 N 492.207 -1.54576 0.307264 0
M  V30 5206 C 493.623 -1.59534 -0.0459251 0
M  V30 5207 C 493.823 -1.32414 -1.51884 0
M  V30 5208 O 492.879 -1.1006 -2.27251 0
M  V30 5209 C 494.192 -2.98566 0.357649 0
M  V30 5210 C 495.74 -3.11491 0.306937 0
M  V30 5211 C 496.215 -4.52842 0.685427 0
M  V30 5212 N 497.706 -4.58782 0.638203 0
M  V30 5213 C 498.441 -5.66238 0.903458 0
M  V30 5214 N 497.937 -6.81703 1.23501 0
M  V30 5215 N 499.73 -5.55937 0.830102 0
M  V30 5216 H 491.881 -1.70464 1.26712 0
M  V30 5217 H 494.144 -0.79647 0.514139 0
M  V30 5218 H 493.85 -3.23356 1.38325 0
M  V30 5219 H 493.724 -3.76117 -0.285565 0
M  V30 5220 H 496.111 -2.86446 -0.709424 0
M  V30 5221 H 496.192 -2.36081 0.984861 0
M  V30 5222 H 495.836 -4.78618 1.69963 0
M  V30 5223 H 495.766 -5.26598 -0.0146346 0
M  V30 5224 H 498.257 -3.75849 0.393138 0
M  V30 5225 H 498.57 -7.59582 1.42322 0
M  V30 5226 H 496.915 -6.8324 1.27311 0
M  V30 5227 H 500.106 -4.64608 0.570693 0
M  V30 5228 H 500.279 -6.39597 1.04019 0
M  V30 5229 N 493.685 -0.035106 -1.57561 0
M  V30 5230 C 494.91 0.655802 -1.96759 0
M  V30 5231 C 495.335 1.64523 -0.911809 0
M  V30 5232 O 494.693 1.80857 0.126673 0
M  V30 5233 C 494.741 1.33326 -3.35047 0
M  V30 5234 O 493.845 2.44866 -3.31835 0
M  V30 5235 H 493.186 0.171807 -0.641388 0
M  V30 5236 H 495.716 -0.0987369 -2.04362 0
M  V30 5237 H 495.726 1.68867 -3.71413 0
M  V30 5238 H 494.401 0.608033 -4.11431 0
M  V30 5239 H 492.978 2.11392 -3.07193 0
M  V30 5240 N 495.163 1.55791 0.238111 0
M  V30 5241 C 496.093 1.94068 1.29846 0
M  V30 5242 C 497.074 0.806726 1.49753 0
M  V30 5243 O 498.259 1.06772 1.62214 0
M  V30 5244 C 495.389 2.24302 2.65153 0
M  V30 5245 C 494.343 3.40032 2.59927 0
M  V30 5246 C 493.669 3.55829 3.99111 0
M  V30 5247 C 494.969 4.75476 2.16148 0
M  V30 5248 H 496.663 2.82887 0.980563 0
M  V30 5249 H 494.209 1.36105 0.470253 0
M  V30 5250 H 496.162 2.4967 3.39475 0
M  V30 5251 H 494.886 1.32318 2.98596 0
M  V30 5252 H 493.545 3.14687 1.88063 0
M  V30 5253 H 493.193 2.6125 4.29834 0
M  V30 5254 H 492.893 4.3366 3.96501 0
M  V30 5255 H 494.417 3.83528 4.7512 0
M  V30 5256 H 495.831 5.00158 2.80205 0
M  V30 5257 H 494.228 5.56472 2.24631 0
M  V30 5258 H 495.298 4.71946 1.11333 0
M  V30 5259 N 496.642 -0.504142 1.49319 0
M  V30 5260 C 498.053 -1.08572 1.51885 0
M  V30 5261 C 498.404 -1.93842 0.303255 0
M  V30 5262 O 497.529 -2.0828 -0.58724 0
M  V30 5263 C 498.124 -1.97574 2.75227 0
M  V30 5264 C 496.683 -2.509 2.80581 0
M  V30 5265 C 495.83 -1.28447 2.45757 0
M  V30 5266 H 498.781 -0.288194 1.56061 0
M  V30 5267 H 498.802 -2.82219 2.55211 0
M  V30 5268 H 498.314 -1.35486 3.63683 0
M  V30 5269 H 496.415 -3.16636 1.96398 0
M  V30 5270 H 496.528 -2.88268 3.82673 0
M  V30 5271 H 494.892 -1.60868 1.97468 0
M  V30 5272 H 495.675 -0.68072 3.36483 0
M  V30 5273 N 498.12 -1.38341 -0.754957 0
M  V30 5274 C 499.345 -1.37882 -1.5493 0
M  V30 5275 C 499.77 0.0296385 -1.88077 0
M  V30 5276 O 499.128 1.01133 -1.50472 0
M  V30 5277 C 499.176 -2.23996 -2.82592 0
M  V30 5278 O 498.28 -1.65612 -3.77686 0
M  V30 5279 H 497.621 -0.470384 -0.468652 0
M  V30 5280 H 500.151 -1.82084 -0.933082 0
M  V30 5281 H 500.161 -2.37806 -3.3153 0
M  V30 5282 H 498.836 -3.26365 -2.57796 0
M  V30 5283 H 497.413 -1.60936 -3.36384 0
M  V30 5284 N 499.598 0.982988 -1.23187 0
M  V30 5285 C 500.844 1.72648 -1.06398 0
M  V30 5286 C 501.177 1.90066 0.398561 0
M  V30 5287 O 500.452 1.45105 1.29518 0
M  V30 5288 C 500.735 3.12627 -1.78707 0
M  V30 5289 C 500.588 3.02795 -3.32618 0
M  V30 5290 C 501.907 4.11997 -1.54747 0
M  V30 5291 H 499.026 0.626649 -0.387918 0
M  V30 5292 H 501.668 1.14455 -1.51658 0
M  V30 5293 H 499.818 3.62308 -1.40234 0
M  V30 5294 H 501.49 2.60659 -3.80598 0
M  V30 5295 H 499.733 2.39362 -3.61785 0
M  V30 5296 H 500.404 4.01893 -3.78399 0
M  V30 5297 H 502.88 3.71114 -1.88186 0
M  V30 5298 H 501.756 5.08037 -2.07821 0
M  V30 5299 H 502.017 4.39462 -0.482249 0
M  V30 5300 N 501.076 1.04316 1.18135 0
M  V30 5301 C 501.986 0.646876 2.25505 0
M  V30 5302 C 503.002 -0.328008 1.7088 0
M  V30 5303 O 504.178 -0.182309 2.00573 0
M  V30 5304 C 501.243 0.0185664 3.46695 0
M  V30 5305 C 500.304 1.04277 4.16443 0
M  V30 5306 C 499.537 0.444352 5.31847 0
M  V30 5307 O 499.76 -0.748735 5.65465 0
M  V30 5308 O 498.694 1.17428 5.90334 0
M  V30 5309 H 502.52 1.54147 2.61672 0
M  V30 5310 H 500.105 0.814188 1.25265 0
M  V30 5311 H 501.987 -0.331068 4.20097 0
M  V30 5312 H 500.662 -0.849814 3.12346 0
M  V30 5313 H 499.569 1.44425 3.45098 0
M  V30 5314 H 500.902 1.882 4.54798 0
M  V30 5315 N 502.554 -1.34406 0.822964 0
M  V30 5316 C 503.782 -2.02508 0.424039 0
M  V30 5317 C 504.197 -1.61975 -0.970022 0
M  V30 5318 O 503.554 -0.825228 -1.62777 0
M  V30 5319 C 503.605 -3.57789 0.516657 0
M  V30 5320 O 503.326 -3.96853 1.85577 0
M  V30 5321 C 504.827 -4.43157 0.112637 0
M  V30 5322 H 502.047 -0.649063 0.170173 0
M  V30 5323 H 504.591 -1.7168 1.11113 0
M  V30 5324 H 502.746 -3.87207 -0.122353 0
M  V30 5325 H 503.16 -4.91538 1.83005 0
M  V30 5326 H 504.634 -5.51527 0.228526 0
M  V30 5327 H 505.111 -4.28939 -0.943837 0
M  V30 5328 H 505.717 -4.19067 0.725449 0
M  V30 5329 N 504.032 -0.577932 -1.46621 0
M  V30 5330 C 504.962 0.145917 -2.33044 0
M  V30 5331 C 505.943 0.888412 -1.45056 0
M  V30 5332 O 507.128 0.864812 -1.73881 0
M  V30 5333 C 504.258 1.16322 -3.27241 0
M  V30 5334 C 503.212 0.535868 -4.24632 0
M  V30 5335 C 502.538 1.65929 -5.08303 0
M  V30 5336 C 503.838 -0.523861 -5.19666 0
M  V30 5337 H 505.532 -0.575636 -2.93814 0
M  V30 5338 H 503.078 -0.278272 -1.41286 0
M  V30 5339 H 505.031 1.67793 -3.86553 0
M  V30 5340 H 503.755 1.91498 -2.64567 0
M  V30 5341 H 502.414 0.0422759 -3.66576 0
M  V30 5342 H 502.062 2.40061 -4.42018 0
M  V30 5343 H 501.762 1.2452 -5.74255 0
M  V30 5344 H 503.286 2.17686 -5.70478 0
M  V30 5345 H 504.7 -0.0944059 -5.73222 0
M  V30 5346 H 503.097 -0.858 -5.93935 0
M  V30 5347 H 504.167 -1.41197 -4.63887 0
M  V30 5348 N 505.51 1.54411 -0.315457 0
M  V30 5349 C 506.758 2.00023 0.288971 0
M  V30 5350 C 507.079 1.20529 1.5329 0
M  V30 5351 O 506.349 0.304986 1.93511 0
M  V30 5352 H 504.929 0.738891 0.109766 0
M  V30 5353 H 507.591 1.90094 -0.430129 0
M  V30 5354 H 506.687 3.07198 0.550999 0
M  V30 5355 N 506.988 0.0434614 1.5754 0
M  V30 5356 C 508.228 -0.636023 1.94253 0
M  V30 5357 C 508.592 -1.68461 0.921132 0
M  V30 5358 O 509.793 -2.41762 1.17494 0
M  V30 5359 C 508.064 -1.22357 3.35803 0
M  V30 5360 S 509.623 -1.92213 3.94461 0
M  V30 5361 H 506.441 -0.209041 0.679575 0
M  V30 5362 H 509.043 0.110556 1.95187 0
M  V30 5363 H 507.747 -0.448162 4.07946 0
M  V30 5364 H 507.278 -2.00713 3.38346 0
M  V30 5365 H 509.293 -3.20199 3.79061 0
M  V30 5366 N 508.466 -1.55915 -0.229846 0
M  V30 5367 C 509.694 -1.82617 -0.972562 0
M  V30 5368 C 510.109 -0.621488 -1.78278 0
M  V30 5369 O 509.466 0.409956 -1.77836 0
M  V30 5370 C 509.517 -3.0774 -1.89679 0
M  V30 5371 O 509.238 -4.23559 -1.11934 0
M  V30 5372 C 510.739 -3.47368 -2.75409 0
M  V30 5373 H 507.959 -0.60727 -0.285419 0
M  V30 5374 H 510.503 -2.02996 -0.247579 0
M  V30 5375 H 508.658 -2.89361 -2.57583 0
M  V30 5376 H 509.072 -4.94586 -1.74599 0
M  V30 5377 H 510.546 -4.37977 -3.35977 0
M  V30 5378 H 511.023 -2.68737 -3.47386 0
M  V30 5379 H 511.629 -3.68158 -2.12931 0
M  V30 5380 N 509.944 0.496216 -1.49584 0
M  V30 5381 C 511.169 1.27865 -1.63295 0
M  V30 5382 C 511.594 1.85592 -0.306156 0
M  V30 5383 O 510.952 1.66092 0.726851 0
M  V30 5384 C 511 2.38128 -2.7079 0
M  V30 5385 O 510.104 3.42108 -2.30296 0
M  V30 5386 H 509.445 0.377279 -0.546403 0
M  V30 5387 H 511.975 0.593497 -1.95803 0
M  V30 5388 H 511.985 2.8382 -2.93104 0
M  V30 5389 H 510.66 1.95479 -3.67098 0
M  V30 5390 H 509.237 3.02301 -2.18331 0
M  V30 5391 N 511.423 1.38739 0.74761 0
M  V30 5392 C 512.669 1.35475 1.50912 0
M  V30 5393 C 513.002 -0.0533093 1.94127 0
M  V30 5394 O 512.277 -1.01572 1.65871 0
M  V30 5395 C 512.56 2.31582 2.75757 0
M  V30 5396 C 512.413 3.81274 2.38642 0
M  V30 5397 C 513.732 2.25722 3.77806 0
M  V30 5398 H 510.851 0.493427 0.547447 0
M  V30 5399 H 513.493 1.69634 0.855823 0
M  V30 5400 H 511.643 2.02582 3.31501 0
M  V30 5401 H 513.315 4.20972 1.88626 0
M  V30 5402 H 511.558 3.98664 1.71025 0
M  V30 5403 H 512.229 4.4399 3.27989 0
M  V30 5404 H 514.705 2.51336 3.31616 0
M  V30 5405 H 513.581 2.95069 4.62845 0
M  V30 5406 H 513.842 1.25803 4.23823 0
M  V30 5407 N 512.901 -0.976442 1.23707 0
M  V30 5408 C 514.15 -1.71254 1.06559 0
M  V30 5409 C 514.463 -1.91528 -0.397024 0
M  V30 5410 O 515.669 -2.62625 -0.688518 0
M  V30 5411 C 514.125 -3.08207 1.8584 0
M  V30 5412 C 513.733 -2.95806 3.36456 0
M  V30 5413 C 515.477 -3.85749 1.77194 0
M  V30 5414 C 513.384 -4.28015 4.08114 0
M  V30 5415 H 512.314 -0.642171 0.395136 0
M  V30 5416 H 514.965 -1.08877 1.4771 0
M  V30 5417 H 513.347 -3.71363 1.37498 0
M  V30 5418 H 514.521 -2.41716 3.92314 0
M  V30 5419 H 512.836 -2.31736 3.45959 0
M  V30 5420 H 515.433 -4.83633 2.28041 0
M  V30 5421 H 515.776 -4.09752 0.735477 0
M  V30 5422 H 516.309 -3.29303 2.23169 0
M  V30 5423 H 513.048 -4.09208 5.12083 0
M  V30 5424 H 512.568 -4.81955 3.57043 0
M  V30 5425 H 514.247 -4.96681 4.14629 0
M  V30 5426 N 514.379 -1.04941 -1.1758 0
M  V30 5427 C 515.619 -0.766996 -1.89464 0
M  V30 5428 C 515.983 0.693123 -1.79053 0
M  V30 5429 O 517.184 1.08953 -2.45729 0
M  V30 5430 C 515.455 -1.23108 -3.35528 0
M  V30 5431 S 517.014 -1.07565 -4.25412 0
M  V30 5432 H 513.832 -0.278616 -0.654136 0
M  V30 5433 H 516.434 -1.34352 -1.4202 0
M  V30 5434 H 515.138 -2.28896 -3.40639 0
M  V30 5435 H 514.669 -0.648724 -3.88014 0
M  V30 5436 H 516.684 0.00169467 -4.962 0
M  V30 5437 N 515.857 1.33968 -0.830081 0
M  V30 5438 C 517.082 2.02813 -0.433796 0
M  V30 5439 C 517.507 1.62076 0.954614 0
M  V30 5440 O 516.865 0.808955 1.62252 0
M  V30 5441 C 516.913 3.56348 -0.552115 0
M  V30 5442 O 516.017 4.10202 0.425191 0
M  V30 5443 H 515.358 0.639817 -0.177567 0
M  V30 5444 H 517.888 1.7106 -1.12248 0
M  V30 5445 H 517.898 4.05722 -0.430513 0
M  V30 5446 H 516.573 3.85344 -1.56471 0
M  V30 5447 H 515.15 3.71979 0.261878 0
M  V30 5448 N 517.335 0.585699 1.46312 0
M  V30 5449 C 518.612 0.00542031 1.95599 0
M  V30 5450 C 518.992 -1.45619 1.52834 0
M  V30 5451 O 518.34 -2.14759 0.780446 0
M  V30 5452 C 518.55 0.180601 3.48532 0
M  V30 5453 C 519.898 0.049979 4.24571 0
M  V30 5454 O 520.922 0.109589 3.56031 0
M  V30 5455 O 519.781 -0.0832226 5.46437 0
M  V30 5456 H 516.875 -0.0481281 0.825598 0
M  V30 5457 H 519.421 0.654227 1.56582 0
M  V30 5458 H 518.193 1.19657 3.72556 0
M  V30 5459 H 517.816 -0.504498 3.94386 0
M  V30 5460 N 518.813 -1.54241 0.323641 0
M  V30 5461 C 519.76 -2.24339 -0.542277 0
M  V30 5462 C 520.73 -1.23421 -1.11159 0
M  V30 5463 O 521.915 -1.52104 -1.15192 0
M  V30 5464 C 519.055 -3.00479 -1.69725 0
M  V30 5465 C 518.168 -4.16214 -1.15716 0
M  V30 5466 C 517.303 -4.79884 -2.27783 0
M  V30 5467 C 516.342 -5.87722 -1.71023 0
M  V30 5468 N 515.479 -6.45254 -2.76752 0
M  V30 5469 H 520.319 -2.97935 0.0620613 0
M  V30 5470 H 517.856 -1.47039 0.0423993 0
M  V30 5471 H 519.814 -3.42869 -2.3769 0
M  V30 5472 H 518.444 -2.29217 -2.27288 0
M  V30 5473 H 517.496 -3.78605 -0.369063 0
M  V30 5474 H 518.808 -4.93838 -0.701832 0
M  V30 5475 H 517.962 -5.25243 -3.03651 0
M  V30 5476 H 516.701 -4.01641 -2.76652 0
M  V30 5477 H 515.706 -5.41765 -0.936518 0
M  V30 5478 H 516.931 -6.67863 -1.2303 0
M  V30 5479 H 514.877 -5.69884 -3.24912 0
M  V30 5480 H 514.794 -7.18292 -2.35782 0
M  V30 5481 H 516.062 -6.95269 -3.5245 0
M  V30 5482 N 520.291 -0.0518155 -1.57515 0
M  V30 5483 C 521.519 0.631395 -1.9703 0
M  V30 5484 C 521.934 1.64341 -0.92938 0
M  V30 5485 O 521.291 1.82296 0.0863266 0
M  V30 5486 C 521.342 1.31774 -3.36627 0
M  V30 5487 O 521.063 0.346247 -4.3673 0
M  V30 5488 C 522.564 2.09065 -3.90905 0
M  V30 5489 H 519.784 0.172576 -0.648428 0
M  V30 5490 H 522.328 -0.118306 -2.04158 0
M  V30 5491 H 520.483 2.01867 -3.30649 0
M  V30 5492 H 520.897 0.836226 -5.17791 0
M  V30 5493 H 522.371 2.52508 -4.9086 0
M  V30 5494 H 522.848 2.93908 -3.26366 0
M  V30 5495 H 523.454 1.43882 -4.00223 0
M  V30 5496 N 521.769 1.56035 0.221574 0
M  V30 5497 C 523.017 1.78693 0.944102 0
M  V30 5498 C 523.338 0.620317 1.8487 0
M  V30 5499 O 522.608 -0.362784 1.92512 0
M  V30 5500 H 521.188 0.659082 0.351597 0
M  V30 5501 H 523.85 1.93497 0.233435 0
M  V30 5502 H 522.946 2.70837 1.55093 0
M  V30 5503 N 523.247 -0.488276 1.49845 0
M  V30 5504 C 524.475 -1.26527 1.63702 0
M  V30 5505 C 524.89 -1.8618 0.313447 0
M  V30 5506 O 524.247 -1.68432 -0.702624 0
M  V30 5507 C 524.298 -2.3864 2.71538 0
M  V30 5508 O 524.019 -1.81437 3.98763 0
M  V30 5509 C 525.52 -3.29805 2.96215 0
M  V30 5510 H 522.74 -0.383295 0.55075 0
M  V30 5511 H 525.284 -0.584779 1.95961 0
M  V30 5512 H 523.439 -3.02496 2.42023 0
M  V30 5513 H 523.853 -2.55135 4.58265 0
M  V30 5514 H 525.327 -4.04722 3.75372 0
M  V30 5515 H 525.804 -3.87563 2.06619 0
M  V30 5516 H 526.41 -2.71703 3.27196 0
M  V30 5517 N 524.725 -1.39134 -0.740242 0
M  V30 5518 C 525.655 -1.40165 -1.86751 0
M  V30 5519 C 526.636 -0.265708 -1.68012 0
M  V30 5520 O 527.821 -0.47076 -1.88408 0
M  V30 5521 C 524.951 -1.2392 -3.2444 0
M  V30 5522 C 523.905 -2.34858 -3.57807 0
M  V30 5523 C 523.231 -2.03707 -4.94376 0
M  V30 5524 C 524.531 -3.77159 -3.61315 0
M  V30 5525 H 526.225 -2.345 -1.86145 0
M  V30 5526 H 523.771 -1.12875 -0.89416 0
M  V30 5527 H 525.724 -1.23263 -4.02969 0
M  V30 5528 H 524.448 -0.26051 -3.25559 0
M  V30 5529 H 523.107 -2.34723 -2.81604 0
M  V30 5530 H 522.755 -1.04289 -4.9207 0
M  V30 5531 H 522.455 -2.78016 -5.17669 0
M  V30 5532 H 523.979 -2.04691 -5.75268 0
M  V30 5533 H 525.393 -3.79252 -4.29931 0
M  V30 5534 H 523.79 -4.50784 -3.96124 0
M  V30 5535 H 524.86 -4.08513 -2.61238 0
M  V30 5536 N 526.204 0.969867 -1.24223 0
M  V30 5537 C 527.432 1.74756 -1.10761 0
M  V30 5538 C 527.847 1.85713 0.340041 0
M  V30 5539 O 527.204 1.34389 1.23474 0
M  V30 5540 C 527.255 3.16915 -1.73917 0
M  V30 5541 O 526.976 3.06511 -3.13021 0
M  V30 5542 C 528.477 4.11032 -1.66036 0
M  V30 5543 H 525.697 0.548092 -0.387087 0
M  V30 5544 H 528.241 1.2178 -1.64286 0
M  V30 5545 H 526.396 3.66884 -1.244 0
M  V30 5546 H 526.81 3.96079 -3.43834 0
M  V30 5547 H 528.284 5.08446 -2.14911 0
M  V30 5548 H 528.761 4.34785 -0.621159 0
M  V30 5549 H 529.367 3.66972 -2.14969 0
M  V30 5550 N 527.682 1.05563 1.17022 0
M  V30 5551 C 528.91 0.78845 1.91288 0
M  V30 5552 C 529.325 -0.656318 1.77025 0
M  V30 5553 O 528.682 -1.44869 1.10992 0
M  V30 5554 C 528.733 1.16444 3.42232 0
M  V30 5555 O 528.454 2.5525 3.5606 0
M  V30 5556 C 529.955 0.923937 4.33565 0
M  V30 5557 H 527.175 0.286389 0.606813 0
M  V30 5558 H 529.719 1.4073 1.48375 0
M  V30 5559 H 527.874 0.590266 3.82877 0
M  V30 5560 H 528.288 2.70097 4.49609 0
M  V30 5561 H 529.762 1.23672 5.37968 0
M  V30 5562 H 530.239 -0.140688 4.38975 0
M  V30 5563 H 530.845 1.48214 3.98639 0
M  V30 5564 N 529.16 -1.33526 0.837174 0
M  V30 5565 C 530.108 -2.31168 0.257698 0
M  V30 5566 C 531.102 -1.5806 -0.609388 0
M  V30 5567 O 532.308 -1.72941 -0.499139 0
M  V30 5568 H 528.683 -0.74922 0.0646058 0
M  V30 5569 H 530.654 -2.77552 1.09578 0
M  V30 5570 C 529.403 -3.4326 -0.553887 0
M  V30 5571 H 528.726 -3.99665 0.104008 0
M  V30 5572 H 530.166 -4.13782 -0.925219 0
M  V30 5573 C 528.625 -2.88965 -1.73207 0
M  V30 5574 O 529.155 -2.85013 -2.83073 0
M  V30 5575 N 527.361 -2.45596 -1.55342 0
M  V30 5576 H 526.908 -2.49009 -0.659705 0
M  V30 5577 H 526.866 -2.0962 -2.34322 0
M  V30 5578 N 530.638 -0.59345 -1.46 0
M  V30 5579 C 531.57 0.171569 -2.28557 0
M  V30 5580 C 532.583 0.845273 -1.39137 0
M  V30 5581 O 533.772 0.713033 -1.6364 0
M  V30 5582 C 530.872 1.26311 -3.14482 0
M  V30 5583 C 530.045 0.679258 -4.32094 0
M  V30 5584 C 529.104 1.65987 -4.99334 0
M  V30 5585 O 528.13 1.19171 -5.56585 0
M  V30 5586 N 529.332 2.99414 -4.97324 0
M  V30 5587 H 532.097 -0.536771 -2.94854 0
M  V30 5588 H 529.658 -0.431954 -1.56031 0
M  V30 5589 H 531.65 1.91863 -3.5633 0
M  V30 5590 H 530.22 1.87416 -2.50188 0
M  V30 5591 H 529.44 -0.153992 -3.93899 0
M  V30 5592 H 530.728 0.26916 -5.08088 0
M  V30 5593 H 530.126 3.40064 -4.52076 0
M  V30 5594 H 528.683 3.60426 -5.4308 0
M  V30 5595 N 532.116 1.54067 -0.331816 0
M  V30 5596 C 533.049 2.20886 0.573127 0
M  V30 5597 C 534.027 1.18876 1.10938 0
M  V30 5598 O 535.211 1.47649 1.17184 0
M  V30 5599 C 532.338 2.87706 1.78726 0
M  V30 5600 C 531.384 4.03505 1.38152 0
M  V30 5601 S 532.217 5.33919 0.41123 0
M  V30 5602 C 533.373 6.04236 1.63246 0
M  V30 5603 H 533.606 2.97299 0.00555737 0
M  V30 5604 H 531.139 1.53964 -0.115893 0
M  V30 5605 H 533.097 3.26825 2.48386 0
M  V30 5606 H 531.758 2.1108 2.32603 0
M  V30 5607 H 530.951 4.49152 2.28645 0
M  V30 5608 H 530.553 3.66102 0.764524 0
M  V30 5609 H 532.845 6.26917 2.56869 0
M  V30 5610 H 533.788 6.97546 1.218 0
M  V30 5611 H 534.196 5.34247 1.82318 0
M  V30 5612 N 533.594 0.0601682 1.57485 0
M  V30 5613 C 534.819 -0.624416 1.97777 0
M  V30 5614 C 535.244 -1.63051 0.937867 0
M  V30 5615 O 534.602 -1.81036 -0.0978845 0
M  V30 5616 C 534.65 -1.27979 3.37126 0
M  V30 5617 O 533.754 -2.39556 3.35688 0
M  V30 5618 H 533.095 -0.161581 0.64404 0
M  V30 5619 H 535.625 0.131237 2.04179 0
M  V30 5620 H 535.635 -1.62937 3.74053 0
M  V30 5621 H 534.31 -0.542501 4.12347 0
M  V30 5622 H 532.887 -2.06478 3.10517 0
M  V30 5623 N 535.072 -1.5615 -0.213296 0
M  V30 5624 C 536.318 -1.79812 -0.937849 0
M  V30 5625 C 536.651 -0.631201 -1.83656 0
M  V30 5626 O 535.926 0.369165 -1.90964 0
M  V30 5627 C 536.209 -3.13613 -1.76972 0
M  V30 5628 C 536.062 -4.40766 -0.89695 0
M  V30 5629 C 537.381 -3.43931 -2.7459 0
M  V30 5630 H 534.5 -0.654138 -0.339518 0
M  V30 5631 H 537.142 -1.88877 -0.20623 0
M  V30 5632 H 535.292 -3.06015 -2.39347 0
M  V30 5633 H 536.964 -4.60392 -0.289306 0
M  V30 5634 H 535.207 -4.33326 -0.202756 0
M  V30 5635 H 535.878 -5.30843 -1.51358 0
M  V30 5636 H 538.354 -3.5171 -2.22349 0
M  V30 5637 H 537.23 -4.38706 -3.29891 0
M  V30 5638 H 537.491 -2.6651 -3.52739 0
M  V30 5639 N 536.55 0.480323 -1.50102 0
M  V30 5640 C 537.79 1.24301 -1.62261 0
M  V30 5641 C 538.154 1.89452 -0.311758 0
M  V30 5642 O 539.355 2.67022 -0.308696 0
M  V30 5643 C 537.626 2.26588 -2.76392 0
M  V30 5644 S 539.185 3.11919 -3.08629 0
M  V30 5645 H 536.003 0.42215 -0.57211 0
M  V30 5646 H 538.605 0.541591 -1.87848 0
M  V30 5647 H 537.309 1.7729 -3.70131 0
M  V30 5648 H 536.84 3.01371 -2.52862 0
M  V30 5649 H 538.855 4.27598 -2.51742 0
M  V30 5650 N 538.028 1.39524 0.732853 0
M  V30 5651 C 538.975 1.38416 1.84688 0
M  V30 5652 C 539.945 0.243539 1.64305 0
M  V30 5653 O 541.13 0.438979 1.85681 0
M  V30 5654 C 538.27 1.23555 3.22224 0
M  V30 5655 C 537.383 2.47179 3.54298 0
M  V30 5656 C 536.518 2.2489 4.81246 0
M  V30 5657 C 535.557 3.44178 5.0617 0
M  V30 5658 N 534.694 3.21192 6.24323 0
M  V30 5659 H 539.534 2.33645 1.84971 0
M  V30 5660 H 537.071 1.16059 0.903804 0
M  V30 5661 H 539.029 1.12949 4.0162 0
M  V30 5662 H 537.659 0.31954 3.21215 0
M  V30 5663 H 536.711 2.68379 2.69587 0
M  V30 5664 H 538.023 3.36022 3.68633 0
M  V30 5665 H 537.177 2.11538 5.68627 0
M  V30 5666 H 535.916 1.33443 4.69089 0
M  V30 5667 H 534.921 3.58025 4.17251 0
M  V30 5668 H 536.146 4.36528 5.20212 0
M  V30 5669 H 534.092 2.32413 6.1345 0
M  V30 5670 H 534.009 4.03594 6.39256 0
M  V30 5671 H 535.277 3.1154 7.14537 0
M  V30 5672 N 539.506 -0.963266 1.24736 0
M  V30 5673 C 540.439 -2.05758 0.986852 0
M  V30 5674 C 541.417 -1.62398 -0.0809272 0
M  V30 5675 O 542.601 -1.88414 0.0569347 0
M  V30 5676 C 539.728 -3.35135 0.490095 0
M  V30 5677 C 538.774 -3.97451 1.54709 0
M  V30 5678 S 539.607 -4.34519 3.12976 0
M  V30 5679 C 540.763 -5.67026 2.65014 0
M  V30 5680 H 540.996 -2.27539 1.91346 0
M  V30 5681 H 538.529 -1.10176 1.08169 0
M  V30 5682 H 540.487 -4.09962 0.21012 0
M  V30 5683 H 539.148 -3.11335 -0.415873 0
M  V30 5684 H 538.341 -4.90704 1.15003 0
M  V30 5685 H 537.943 -3.29071 1.77731 0
M  V30 5686 H 540.235 -6.44748 2.08102 0
M  V30 5687 H 541.178 -6.11594 3.56873 0
M  V30 5688 H 541.586 -5.25847 2.05294 0
M  V30 5689 N 540.985 -1.06182 -1.16461 0
M  V30 5690 C 542.232 -0.777863 -1.86964 0
M  V30 5691 C 542.56 0.695602 -1.81636 0
M  V30 5692 O 541.815 1.52532 -1.22607 0
M  V30 5693 C 542.114 -1.21633 -3.36066 0
M  V30 5694 C 541.78 -2.69371 -3.61594 0
M  V30 5695 C 540.442 -3.09727 -3.6827 0
M  V30 5696 C 542.794 -3.64791 -3.7226 0
M  V30 5697 C 540.122 -4.44345 -3.83112 0
M  V30 5698 C 542.474 -4.99155 -3.88623 0
M  V30 5699 C 541.138 -5.39149 -3.93541 0
M  V30 5700 H 540.408 -0.28464 -0.68415 0
M  V30 5701 H 543.055 -1.33071 -1.37711 0
M  V30 5702 H 541.36 -0.582651 -3.87443 0
M  V30 5703 H 543.057 -0.973682 -3.88999 0
M  V30 5704 H 539.647 -2.37124 -3.57029 0
M  V30 5705 H 543.831 -3.34746 -3.66413 0
M  V30 5706 H 539.087 -4.74819 -3.85172 0
M  V30 5707 H 543.261 -5.72976 -3.95817 0
M  V30 5708 H 540.888 -6.43464 -4.04794 0
M  V30 5709 N 542.463 1.3308 -0.844243 0
M  V30 5710 C 543.712 1.96868 -0.438833 0
M  V30 5711 C 544.025 1.67599 1.00846 0
M  V30 5712 O 545.231 2.25043 1.51881 0
M  V30 5713 C 543.687 3.5234 -0.73377 0
M  V30 5714 C 543.295 3.90481 -2.1961 0
M  V30 5715 C 545.039 4.22653 -0.395574 0
M  V30 5716 C 542.946 5.38954 -2.43481 0
M  V30 5717 H 541.876 0.736749 -0.160364 0
M  V30 5718 H 544.527 1.51623 -1.03358 0
M  V30 5719 H 542.909 3.95941 -0.068589 0
M  V30 5720 H 544.083 3.57922 -2.90221 0
M  V30 5721 H 542.398 3.33165 -2.4978 0
M  V30 5722 H 544.995 5.31848 -0.551477 0
M  V30 5723 H 545.338 4.11004 0.661921 0
M  V30 5724 H 545.871 3.84601 -1.01621 0
M  V30 5725 H 542.61 5.55612 -3.47816 0
M  V30 5726 H 542.13 5.72954 -1.77437 0
M  V30 5727 H 543.809 6.05907 -2.26905 0
M  V30 5728 N 543.941 0.601185 1.45683 0
M  V30 5729 C 545.19 0.0914953 2.01492 0
M  V30 5730 C 545.503 -1.28331 1.47616 0
M  V30 5731 O 546.709 -1.88537 1.95362 0
M  V30 5732 C 545.165 0.11291 3.59723 0
M  V30 5733 C 544.773 1.48717 4.22596 0
M  V30 5734 C 546.517 -0.341871 4.23121 0
M  V30 5735 C 544.424 1.46531 5.7296 0
M  V30 5736 H 543.354 0.0304365 0.753385 0
M  V30 5737 H 546.005 0.755568 1.67223 0
M  V30 5738 H 544.387 -0.617692 3.91153 0
M  V30 5739 H 545.561 2.23897 4.02749 0
M  V30 5740 H 543.876 1.88351 3.71366 0
M  V30 5741 H 546.473 -0.377304 5.33367 0
M  V30 5742 H 546.816 -1.36325 3.93346 0
M  V30 5743 H 547.349 0.335256 3.96385 0
M  V30 5744 H 544.088 2.46408 6.07423 0
M  V30 5745 H 543.608 0.755997 5.95017 0
M  V30 5746 H 545.287 1.18618 6.36034 0
M  V30 5747 N 545.419 -1.53889 0.339982 0
M  V30 5748 C 546.696 -1.93084 -0.312719 0
M  V30 5749 C 547.076 -1.2712 -1.68534 0
M  V30 5750 O 546.424 -0.420835 -2.24591 0
M  V30 5751 C 546.634 -3.4683 -0.388558 0
M  V30 5752 C 547.982 -4.19732 -0.641088 0
M  V30 5753 O 549.006 -3.53075 -0.470818 0
M  V30 5754 O 547.865 -5.3781 -0.970685 0
M  V30 5755 H 544.959 -0.806784 -0.18174 0
M  V30 5756 H 547.505 -1.65137 0.390898 0
M  V30 5757 H 546.277 -3.87055 0.574821 0
M  V30 5758 H 545.9 -3.80933 -1.1391 0
M  V30 5759 N 546.897 -0.0685191 -1.57451 0
M  V30 5760 C 547.844 0.899861 -2.12535 0
M  V30 5761 C 548.814 1.29749 -1.03703 0
M  V30 5762 O 549.999 1.38392 -1.31348 0
M  V30 5763 C 547.139 2.16328 -2.6888 0
M  V30 5764 C 546.252 1.81857 -3.91857 0
M  V30 5765 C 545.387 3.02786 -4.36457 0
M  V30 5766 C 544.426 2.64317 -5.5209 0
M  V30 5767 N 543.563 3.77994 -5.91663 0
M  V30 5768 H 548.403 0.423243 -2.94979 0
M  V30 5769 H 545.94 0.197268 -1.45771 0
M  V30 5770 H 547.898 2.90281 -2.99655 0
M  V30 5771 H 546.528 2.61536 -1.89206 0
M  V30 5772 H 545.58 0.979808 -3.67565 0
M  V30 5773 H 546.892 1.49553 -4.75852 0
M  V30 5774 H 546.046 3.85021 -4.68875 0
M  V30 5775 H 544.785 3.38281 -3.51308 0
M  V30 5776 H 543.79 1.80503 -5.19325 0
M  V30 5777 H 545.015 2.29995 -6.38967 0
M  V30 5778 H 542.961 4.13258 -5.09464 0
M  V30 5779 H 542.878 3.49447 -6.7039 0
M  V30 5780 H 544.146 4.60818 -6.28703 0
M  V30 5781 N 548.375 1.56261 0.205012 0
M  V30 5782 C 549.621 1.80306 0.9283 0
M  V30 5783 C 549.954 0.640932 1.83319 0
M  V30 5784 O 549.229 -0.359032 1.91158 0
M  V30 5785 C 549.512 3.14547 1.75306 0
M  V30 5786 C 549.365 4.41236 0.873562 0
M  V30 5787 C 550.684 3.45382 2.72762 0
M  V30 5788 H 547.803 0.655929 0.336044 0
M  V30 5789 H 550.445 1.88984 0.196211 0
M  V30 5790 H 548.595 3.0728 2.37721 0
M  V30 5791 H 550.267 4.60539 0.264887 0
M  V30 5792 H 548.51 4.33427 0.179773 0
M  V30 5793 H 549.181 5.31639 1.48541 0
M  V30 5794 H 551.657 3.52884 2.20481 0
M  V30 5795 H 550.533 4.40449 3.2756 0
M  V30 5796 H 550.794 2.68377 3.51321 0
M  V30 5797 N 549.853 -0.472356 1.50355 0
M  V30 5798 C 551.13 -1.23356 1.51798 0
M  V30 5799 C 551.51 -2.09469 0.26193 0
M  V30 5800 O 550.858 -2.15677 -0.754691 0
M  V30 5801 C 551.068 -2.06568 2.81302 0
M  V30 5802 C 552.416 -2.648 3.31913 0
M  V30 5803 O 553.44 -2.16812 2.82614 0
M  V30 5804 O 552.299 -3.52231 4.17846 0
M  V30 5805 H 549.393 -0.559707 0.608816 0
M  V30 5806 H 551.939 -0.48428 1.62643 0
M  V30 5807 H 550.711 -1.43103 3.64194 0
M  V30 5808 H 550.334 -2.88633 2.73454 0
M  V30 5809 N 551.331 -1.39911 -0.725443 0
M  V30 5810 C 552.579 -1.37382 -1.48224 0
M  V30 5811 C 552.9 0.0264107 -1.94982 0
M  V30 5812 O 552.17 0.979408 -1.6966 0
M  V30 5813 H 550.75 -0.505596 -0.549892 0
M  V30 5814 H 553.412 -1.7487 -0.860608 0
M  V30 5815 H 552.508 -2.04254 -2.3598 0
M  V30 5816 N 552.809 0.956637 -1.25245 0
M  V30 5817 C 554.086 1.67716 -1.00651 0
M  V30 5818 C 554.466 2.0585 0.467866 0
M  V30 5819 O 553.814 1.77029 1.44475 0
M  V30 5820 C 554.024 2.90093 -1.94028 0
M  V30 5821 C 555.372 3.6209 -2.21756 0
M  V30 5822 O 556.396 3.00171 -1.9177 0
M  V30 5823 O 555.255 4.7358 -2.72735 0
M  V30 5824 H 552.349 0.733731 -0.381533 0
M  V30 5825 H 554.895 1.00974 -1.3639 0
M  V30 5826 H 553.667 2.58689 -2.93591 0
M  V30 5827 H 553.29 3.64566 -1.58674 0
M  V30 5828 N 554.287 1.06798 1.15896 0
M  V30 5829 C 555.536 0.782796 1.8589 0
M  V30 5830 C 555.849 -0.693498 1.82893 0
M  V30 5831 O 557.055 -1.09325 2.48516 0
M  V30 5832 C 555.511 1.3502 3.33613 0
M  V30 5833 C 555.119 2.8571 3.45071 0
M  V30 5834 C 556.863 1.14278 4.08829 0
M  V30 5835 C 554.77 3.35669 4.86909 0
M  V30 5836 H 553.7 0.289149 0.696354 0
M  V30 5837 H 556.351 1.28734 1.30766 0
M  V30 5838 H 554.733 0.773407 3.88374 0
M  V30 5839 H 555.907 3.49385 3.00445 0
M  V30 5840 H 554.222 3.05178 2.83294 0
M  V30 5841 H 556.819 1.49087 5.13495 0
M  V30 5842 H 557.162 0.0814575 4.1622 0
M  V30 5843 H 557.695 1.68563 3.60321 0
M  V30 5844 H 554.434 4.41302 4.84698 0
M  V30 5845 H 553.954 2.76745 5.32139 0
M  V30 5846 H 555.633 3.31296 5.55745 0
M  V30 5847 N 555.766 -1.3263 0.851289 0
M  V30 5848 C 557.006 -1.99174 0.459266 0
M  V30 5849 C 557.37 -1.65913 -0.966273 0
M  V30 5850 O 558.571 -2.2552 -1.46267 0
M  V30 5851 C 556.842 -3.50721 0.687698 0
M  V30 5852 S 558.401 -4.37039 0.392746 0
M  V30 5853 H 555.219 -0.689832 0.172199 0
M  V30 5854 H 557.821 -1.61395 1.10327 0
M  V30 5855 H 556.525 -3.72417 1.72435 0
M  V30 5856 H 556.056 -3.93389 0.0299949 0
M  V30 5857 H 558.071 -4.8999 -0.782578 0
M  V30 5858 N 557.244 -0.608902 -1.45362 0
M  V30 5859 C 558.174 0.0964526 -2.33301 0
M  V30 5860 C 559.155 0.857444 -1.46908 0
M  V30 5861 O 560.34 0.827735 -1.75676 0
M  V30 5862 C 557.47 1.09354 -3.29635 0
M  V30 5863 C 556.424 0.445676 -4.25673 0
M  V30 5864 C 555.75 1.5511 -5.11708 0
M  V30 5865 C 557.05 -0.633972 -5.18438 0
M  V30 5866 H 558.744 -0.637829 -2.92527 0
M  V30 5867 H 556.29 -0.308178 -1.40664 0
M  V30 5868 H 558.243 1.59556 -3.90025 0
M  V30 5869 H 556.967 1.85843 -2.6857 0
M  V30 5870 H 555.626 -0.0354897 -3.66583 0
M  V30 5871 H 555.274 2.30631 -4.4701 0
M  V30 5872 H 554.974 1.12311 -5.76767 0
M  V30 5873 H 556.498 2.05537 -5.74967 0
M  V30 5874 H 557.912 -0.215974 -5.72893 0
M  V30 5875 H 556.309 -0.983789 -5.91981 0
M  V30 5876 H 557.379 -1.51005 -4.60788 0
M  V30 5877 N 558.722 1.53707 -0.348139 0
M  V30 5878 C 559.652 2.28111 0.498766 0
M  V30 5879 C 560.633 1.29851 1.09876 0
M  V30 5880 O 561.818 1.587 1.11928 0
M  V30 5881 C 558.948 3.05735 1.64753 0
M  V30 5882 C 557.902 4.11537 1.17565 0
M  V30 5883 C 557.228 4.77142 2.4133 0
M  V30 5884 C 558.528 5.21587 0.272844 0
M  V30 5885 H 560.222 2.99152 -0.121934 0
M  V30 5886 H 557.768 1.43875 -0.0600842 0
M  V30 5887 H 559.721 3.56526 2.24649 0
M  V30 5888 H 558.445 2.32354 2.2952 0
M  V30 5889 H 557.104 3.61665 0.599483 0
M  V30 5890 H 556.752 4.0035 3.04514 0
M  V30 5891 H 556.452 5.48626 2.10436 0
M  V30 5892 H 557.976 5.30719 3.01943 0
M  V30 5893 H 559.39 5.67986 0.778779 0
M  V30 5894 H 557.787 6.00074 0.0555849 0
M  V30 5895 H 558.857 4.79969 -0.689785 0
M  V30 5896 N 560.2 0.0768682 1.57412 0
M  V30 5897 C 561.148 -0.906229 2.1422 0
M  V30 5898 C 562.142 -1.30477 1.08037 0
M  V30 5899 O 563.348 -1.28143 1.2641 0
M  V30 5900 H 559.723 -0.310207 0.685037 0
M  V30 5901 H 561.694 -0.402228 2.95677 0
M  V30 5902 C 560.443 -2.16245 2.72274 0
M  V30 5903 H 559.766 -1.86463 3.53655 0
M  V30 5904 H 561.206 -2.83134 3.15613 0
M  V30 5905 C 559.665 -2.92437 1.67279 0
M  V30 5906 O 560.195 -3.86322 1.10081 0
M  V30 5907 N 558.401 -2.55637 1.38195 0
M  V30 5908 H 557.948 -1.79363 1.84897 0
M  V30 5909 H 557.906 -3.06919 0.681787 0
M  V30 5910 N 561.678 -1.56367 -0.196722 0
M  V30 5911 C 562.588 -1.97617 -1.2643 0
M  V30 5912 C 563.604 -0.883598 -1.49895 0
M  V30 5913 O 564.78 -1.18921 -1.62541 0
M  V30 5914 C 561.845 -2.30595 -2.58895 0
M  V30 5915 C 560.906 -3.53551 -2.43516 0
M  V30 5916 C 560.139 -3.84946 -3.69665 0
M  V30 5917 O 560.362 -3.17655 -4.73763 0
M  V30 5918 O 559.296 -4.78379 -3.65291 0
M  V30 5919 H 563.122 -2.88648 -0.944233 0
M  V30 5920 H 560.707 -1.43901 -0.401592 0
M  V30 5921 H 562.589 -2.52889 -3.37083 0
M  V30 5922 H 561.264 -1.42732 -2.90533 0
M  V30 5923 H 560.171 -3.36507 -1.63445 0
M  V30 5924 H 561.504 -4.41875 -2.16812 0
M  V30 5925 N 563.156 0.464375 -1.50603 0
M  V30 5926 C 564.403 1.21596 -1.61928 0
M  V30 5927 C 564.731 1.91804 -0.322737 0
M  V30 5928 O 563.986 1.83065 0.691776 0
M  V30 5929 C 564.285 2.278 -2.75394 0
M  V30 5930 C 563.951 1.74797 -4.1564 0
M  V30 5931 C 562.613 1.60063 -4.53799 0
M  V30 5932 C 564.965 1.35548 -5.03266 0
M  V30 5933 C 562.293 1.04514 -5.77316 0
M  V30 5934 C 564.645 0.814381 -6.27336 0
M  V30 5935 C 563.309 0.653726 -6.64291 0
M  V30 5936 H 562.579 0.444951 -0.592536 0
M  V30 5937 H 565.226 0.510964 -1.84557 0
M  V30 5938 H 563.531 3.04233 -2.46879 0
M  V30 5939 H 565.228 2.85723 -2.81359 0
M  V30 5940 H 561.818 1.87234 -3.8554 0
M  V30 5941 H 566.002 1.45763 -4.74412 0
M  V30 5942 H 561.258 0.908186 -6.04617 0
M  V30 5943 H 565.432 0.501626 -6.94591 0
M  V30 5944 H 563.059 0.22114 -7.59878 0
M  V30 5945 N 564.634 1.40294 0.718013 0
M  V30 5946 C 565.859 1.41941 1.5122 0
M  V30 5947 C 566.284 0.0202371 1.88089 0
M  V30 5948 O 565.642 -0.971078 1.53101 0
M  V30 5949 C 565.69 2.3141 2.76554 0
M  V30 5950 O 564.794 1.75567 3.73162 0
M  V30 5951 H 564.135 0.482644 0.456016 0
M  V30 5952 H 566.665 1.84494 0.884478 0
M  V30 5953 H 566.675 2.46513 3.25108 0
M  V30 5954 H 565.35 3.33085 2.49053 0
M  V30 5955 H 563.927 1.69798 3.31999 0
M  V30 5956 N 566.112 -0.949982 1.2575 0
M  V30 5957 C 567.361 -1.68956 1.10168 0
M  V30 5958 C 567.674 -1.92327 -0.356309 0
M  V30 5959 O 568.88 -2.64026 -0.632657 0
M  V30 5960 C 567.336 -3.04196 1.92336 0
M  V30 5961 C 566.944 -2.88603 3.42655 0
M  V30 5962 C 568.688 -3.81904 1.85336 0
M  V30 5963 C 566.595 -4.19262 4.17101 0
M  V30 5964 H 565.525 -0.633645 0.408668 0
M  V30 5965 H 568.176 -1.05719 1.49986 0
M  V30 5966 H 566.558 -3.68363 1.45344 0
M  V30 5967 H 567.732 -2.3334 3.97353 0
M  V30 5968 H 566.047 -2.24345 3.50796 0
M  V30 5969 H 568.644 -4.78688 2.38248 0
M  V30 5970 H 568.987 -4.08099 0.822226 0
M  V30 5971 H 569.52 -3.24495 2.30104 0
M  V30 5972 H 566.259 -3.98254 5.20648 0
M  V30 5973 H 565.779 -4.74273 3.67186 0
M  V30 5974 H 567.458 -4.87775 4.25071 0
M  V30 5975 N 567.59 -1.07411 -1.15328 0
M  V30 5976 C 568.818 -0.818782 -1.90009 0
M  V30 5977 C 569.233 0.628072 -1.78047 0
M  V30 5978 O 568.59 1.43085 -1.13282 0
M  V30 5979 C 568.641 -1.21874 -3.40337 0
M  V30 5980 O 568.362 -2.60883 -3.51954 0
M  V30 5981 C 569.863 -0.992796 -4.3204 0
M  V30 5982 H 567.083 -0.296007 -0.60218 0
M  V30 5983 H 569.627 -1.43073 -1.46117 0
M  V30 5984 H 567.782 -0.651103 -3.81889 0
M  V30 5985 H 568.196 -2.77216 -4.45255 0
M  V30 5986 H 569.67 -1.32215 -5.35932 0
M  V30 5987 H 570.147 0.0708331 -4.39143 0
M  V30 5988 H 570.753 -1.54537 -3.9623 0
M  V30 5989 N 569.068 1.32177 -0.85831 0
M  V30 5990 C 570.316 1.96735 -0.462568 0
M  V30 5991 C 570.637 1.6824 0.985911 0
M  V30 5992 O 569.907 0.991564 1.68952 0
M  V30 5993 H 568.487 0.727849 -0.168064 0
M  V30 5994 H 571.149 1.61195 -1.09554 0
M  V30 5995 H 570.245 3.06068 -0.610647 0
M  V30 5996 N 570.547 0.616602 1.45037 0
M  V30 5997 C 571.772 0.120192 2.07051 0
M  V30 5998 C 572.197 -1.19008 1.45666 0
M  V30 5999 O 571.555 -1.7267 0.552692 0
M  V30 6000 C 571.603 0.00354901 3.606 0
M  V30 6001 O 570.707 -1.04431 3.98958 0
M  V30 6002 H 570.048 0.0781599 0.659384 0
M  V30 6003 H 572.578 0.849167 1.86146 0
M  V30 6004 H 572.588 -0.191754 4.07549 0
M  V30 6005 H 571.263 0.960239 4.04663 0
M  V30 6006 H 569.84 -0.824749 3.63665 0
M  V30 6007 N 572.025 -1.5352 0.356285 0
M  V30 6008 C 573.253 -2.05534 -0.237328 0
M  V30 6009 C 573.668 -1.23043 -1.43199 0
M  V30 6010 O 573.025 -0.268821 -1.80509 0
M  V30 6011 C 573.076 -3.55791 -0.639933 0
M  V30 6012 O 572.797 -4.35154 0.507233 0
M  V30 6013 C 574.298 -4.24027 -1.29292 0
M  V30 6014 H 571.518 -0.669585 -0.0435572 0
M  V30 6015 H 574.062 -1.97988 0.511963 0
M  V30 6016 H 572.217 -3.63518 -1.33915 0
M  V30 6017 H 572.631 -5.24178 0.18375 0
M  V30 6018 H 574.105 -5.30509 -1.52527 0
M  V30 6019 H 574.582 -3.77166 -2.25039 0
M  V30 6020 H 575.188 -4.20527 -0.63539 0
M  V30 6021 N 573.503 -0.0852151 -1.57369 0
M  V30 6022 C 574.733 0.588605 -1.98038 0
M  V30 6023 C 575.141 1.62869 -0.962817 0
M  V30 6024 O 574.484 1.83611 0.057134 0
M  V30 6025 C 574.546 1.30303 -3.35054 0
M  V30 6026 C 574.21 0.414855 -4.55113 0
M  V30 6027 C 575.207 -0.333011 -5.18832 0
M  V30 6028 C 572.892 0.335804 -5.01176 0
M  V30 6029 C 574.886 -1.14801 -6.26976 0
M  V30 6030 C 572.573 -0.482857 -6.09189 0
M  V30 6031 C 573.571 -1.22342 -6.71953 0
M  V30 6032 O 573.259 -2.02855 -7.77885 0
M  V30 6033 H 572.991 0.163249 -0.655992 0
M  V30 6034 H 575.545 -0.1582 -2.0479 0
M  V30 6035 H 573.775 2.0962 -3.24956 0
M  V30 6036 H 575.464 1.87041 -3.60237 0
M  V30 6037 H 576.23 -0.281611 -4.84182 0
M  V30 6038 H 572.109 0.901869 -4.52092 0
M  V30 6039 H 575.653 -1.72654 -6.75897 0
M  V30 6040 H 571.55 -0.535773 -6.43273 0
M  V30 6041 H 572.318 -1.95432 -7.94826 0
M  V30 6042 N 574.981 1.5647 0.188427 0
M  V30 6043 C 575.944 1.9421 1.21718 0
M  V30 6044 C 576.944 0.823901 1.38089 0
M  V30 6045 O 578.134 1.09122 1.35787 0
M  V30 6046 C 575.266 2.22197 2.58537 0
M  V30 6047 H 576.459 2.86252 0.894418 0
M  V30 6048 H 574.012 1.50263 0.430211 0
M  V30 6049 H 574.747 1.32814 2.95856 0
M  V30 6050 H 574.532 3.03688 2.48025 0
M  V30 6051 H 576.022 2.52376 3.3271 0
M  V30 6052 N 576.459 -0.456382 1.50847 0
M  V30 6053 C 577.87 -1.03685 1.55262 0
M  V30 6054 C 578.221 -1.92779 0.364771 0
M  V30 6055 O 577.346 -2.10043 -0.52068 0
M  V30 6056 C 577.941 -1.88718 2.81374 0
M  V30 6057 C 576.5 -2.41847 2.88422 0
M  V30 6058 C 575.647 -1.20564 2.49719 0
M  V30 6059 H 578.598 -0.238399 1.56899 0
M  V30 6060 H 578.619 -2.73957 2.6406 0
M  V30 6061 H 578.131 -1.23847 3.67809 0
M  V30 6062 H 576.232 -3.10228 2.06372 0
M  V30 6063 H 576.345 -2.75947 3.9165 0
M  V30 6064 H 574.709 -1.54504 2.02486 0
M  V30 6065 H 575.492 -0.573326 3.38479 0
M  V30 6066 N 577.937 -1.40673 -0.710563 0
M  V30 6067 C 578.847 -1.43663 -1.85467 0
M  V30 6068 C 579.863 -0.328721 -1.70867 0
M  V30 6069 O 581.039 -0.574098 -1.93044 0
M  V30 6070 C 578.104 -1.30226 -3.21313 0
M  V30 6071 C 577.165 -2.51204 -3.48131 0
M  V30 6072 C 576.398 -2.38398 -4.77495 0
M  V30 6073 O 576.621 -1.40048 -5.5294 0
M  V30 6074 O 575.555 -3.2787 -5.04762 0
M  V30 6075 H 579.381 -2.40156 -1.859 0
M  V30 6076 H 576.966 -1.22049 -0.861652 0
M  V30 6077 H 578.848 -1.2496 -4.02446 0
M  V30 6078 H 577.523 -0.368419 -3.21597 0
M  V30 6079 H 576.43 -2.62048 -2.66987 0
M  V30 6080 H 577.763 -3.43366 -3.52648 0
M  V30 6081 N 579.415 0.9433 -1.26252 0
M  V30 6082 C 580.663 1.68592 -1.11451 0
M  V30 6083 C 580.984 1.91957 0.343123 0
M  V30 6084 O 580.254 1.51475 1.24226 0
M  V30 6085 H 578.834 0.624789 -0.409448 0
M  V30 6086 H 581.496 1.13351 -1.58548 0
M  V30 6087 H 580.592 2.66054 -1.63162 0
M  V30 6088 N 580.893 1.08022 1.14757 0
M  V30 6089 C 581.803 0.718292 2.23333 0
M  V30 6090 C 582.819 -0.273477 1.71837 0
M  V30 6091 O 583.995 -0.118406 2.01052 0
M  V30 6092 C 581.06 0.128855 3.4646 0
M  V30 6093 C 580.121 1.17473 4.12915 0
M  V30 6094 C 579.354 0.61333 5.30164 0
M  V30 6095 O 579.577 -0.568458 5.6756 0
M  V30 6096 O 578.511 1.3615 5.86299 0
M  V30 6097 H 582.337 1.62394 2.56636 0
M  V30 6098 H 579.922 0.853628 1.22611 0
M  V30 6099 H 581.804 -0.197249 4.20938 0
M  V30 6100 H 580.479 -0.750014 3.14891 0
M  V30 6101 H 579.386 1.5533 3.40328 0
M  V30 6102 H 580.719 2.02574 4.48581 0
M  V30 6103 N 582.371 -1.3172 0.865308 0
M  V30 6104 C 583.617 -1.97168 0.474633 0
M  V30 6105 C 583.95 -1.68263 -0.969604 0
M  V30 6106 O 583.225 -0.976588 -1.68205 0
M  V30 6107 C 583.508 -3.52689 0.726808 0
M  V30 6108 C 583.361 -3.91185 2.22024 0
M  V30 6109 C 584.68 -4.39689 0.190201 0
M  V30 6110 H 581.799 -0.716185 0.17392 0
M  V30 6111 H 584.441 -1.55925 1.08569 0
M  V30 6112 H 582.591 -3.8795 0.206705 0
M  V30 6113 H 584.263 -3.66049 2.80724 0
M  V30 6114 H 582.506 -3.3996 2.69462 0
M  V30 6115 H 583.177 -4.99604 2.34735 0
M  V30 6116 H 585.653 -4.11225 0.635103 0
M  V30 6117 H 584.529 -5.47469 0.396132 0
M  V30 6118 H 584.79 -4.32683 -0.907625 0
M  V30 6119 N 583.85 -0.624285 -1.44708 0
M  V30 6120 C 584.779 0.0717025 -2.3339 0
M  V30 6121 C 585.76 0.841814 -1.47809 0
M  V30 6122 O 586.946 0.809056 -1.76544 0
M  V30 6123 C 584.076 1.05852 -3.30776 0
M  V30 6124 C 583.029 0.400503 -4.26122 0
M  V30 6125 C 582.356 1.49674 -5.13324 0
M  V30 6126 C 583.656 -0.688924 -5.17737 0
M  V30 6127 H 585.35 -0.668819 -2.91834 0
M  V30 6128 H 582.896 -0.32308 -1.40329 0
M  V30 6129 H 584.849 1.5541 -3.91696 0
M  V30 6130 H 583.572 1.82984 -2.70526 0
M  V30 6131 H 582.231 -0.0743687 -3.66525 0
M  V30 6132 H 581.88 2.25877 -4.49431 0
M  V30 6133 H 581.58 1.06188 -5.77926 0
M  V30 6134 H 583.104 1.99427 -5.77115 0
M  V30 6135 H 584.518 -0.276724 -5.72632 0
M  V30 6136 H 582.915 -1.04652 -5.90904 0
M  V30 6137 H 583.985 -1.55884 -4.5916 0
M  V30 6138 N 585.328 1.53329 -0.364422 0
M  V30 6139 C 586.275 2.25698 0.482607 0
M  V30 6140 C 587.245 1.26325 1.07848 0
M  V30 6141 O 588.43 1.55104 1.11119 0
M  V30 6142 C 585.57 3.04873 1.61699 0
M  V30 6143 C 584.683 4.19135 1.0464 0
M  V30 6144 C 583.818 4.85754 2.14979 0
M  V30 6145 C 582.857 5.9205 1.5538 0
M  V30 6146 N 581.994 6.52365 2.59547 0
M  V30 6147 H 586.834 2.97666 -0.141032 0
M  V30 6148 H 584.371 1.46875 -0.0813692 0
M  V30 6149 H 586.329 3.49051 2.28516 0
M  V30 6150 H 584.959 2.35162 2.2113 0
M  V30 6151 H 584.011 3.79451 0.268553 0
M  V30 6152 H 585.323 4.95525 0.570653 0
M  V30 6153 H 584.477 5.3311 2.89619 0
M  V30 6154 H 583.216 4.08834 2.65906 0
M  V30 6155 H 582.221 5.44058 0.792549 0
M  V30 6156 H 583.446 6.7089 1.0528 0
M  V30 6157 H 581.392 5.78298 3.09689 0
M  V30 6158 H 581.309 7.2429 2.16655 0
M  V30 6159 H 582.577 7.0437 3.33892 0
M  V30 6160 N 586.806 0.0935595 1.57322 0
M  V30 6161 C 587.754 -0.883457 2.15169 0
M  V30 6162 C 588.748 -1.29324 1.09415 0
M  V30 6163 O 589.954 -1.26795 1.27762 0
M  V30 6164 H 586.329 -0.302923 0.688289 0
M  V30 6165 H 588.3 -0.370845 2.96087 0
M  V30 6166 C 587.049 -2.13345 2.74552 0
M  V30 6167 H 586.372 -1.82702 3.55612 0
M  V30 6168 H 587.812 -2.7977 3.18598 0
M  V30 6169 C 586.271 -2.90646 1.70371 0
M  V30 6170 O 586.801 -3.85133 1.14173 0
M  V30 6171 N 585.007 -2.54157 1.40899 0
M  V30 6172 H 584.554 -1.77391 1.86789 0
M  V30 6173 H 584.512 -3.06178 0.714301 0
M  V30 6174 N 588.284 -1.56567 -0.180126 0
M  V30 6175 C 589.561 -1.7235 -0.924931 0
M  V30 6176 C 589.941 -0.652523 -2.00762 0
M  V30 6177 O 589.289 0.334115 -2.26044 0
M  V30 6178 C 589.499 -3.1523 -1.49771 0
M  V30 6179 C 590.847 -3.75921 -1.97405 0
M  V30 6180 O 591.871 -3.18452 -1.59583 0
M  V30 6181 O 590.73 -4.7681 -2.67048 0
M  V30 6182 H 587.824 -0.703502 -0.434758 0
M  V30 6183 H 590.37 -1.6886 -0.168647 0
M  V30 6184 H 589.142 -3.84656 -0.718027 0
M  V30 6185 H 588.765 -3.23009 -2.31842 0
M  V30 6186 N 589.762 0.448376 -1.51087 0
M  V30 6187 C 590.709 1.54341 -1.71603 0
M  V30 6188 C 591.679 1.56463 -0.557536 0
M  V30 6189 O 592.864 1.73644 -0.79072 0
M  V30 6190 C 590.004 2.92148 -1.83695 0
M  V30 6191 C 589.117 2.99639 -3.11192 0
M  V30 6192 C 588.252 4.285 -3.13944 0
M  V30 6193 C 587.291 4.29819 -4.35801 0
M  V30 6194 N 586.428 5.50186 -4.36164 0
M  V30 6195 H 591.268 1.36151 -2.65079 0
M  V30 6196 H 588.805 0.661585 -1.31383 0
M  V30 6197 H 590.763 3.72093 -1.88687 0
M  V30 6198 H 589.393 3.0892 -0.936374 0
M  V30 6199 H 588.445 2.12425 -3.15562 0
M  V30 6200 H 589.757 2.96474 -4.01129 0
M  V30 6201 H 588.911 5.16811 -3.17791 0
M  V30 6202 H 587.65 4.34307 -2.21876 0
M  V30 6203 H 586.655 3.39902 -4.32142 0
M  V30 6204 H 587.88 4.25685 -5.29121 0
M  V30 6205 H 585.826 5.56735 -3.46961 0
M  V30 6206 H 585.743 5.48856 -5.19897 0
M  V30 6207 H 587.011 6.40559 -4.44189 0
M  V30 6208 N 591.24 1.41047 0.703093 0
M  V30 6209 C 592.651 1.35657 1.28274 0
M  V30 6210 C 593.002 0.0360309 1.96167 0
M  V30 6211 O 592.127 -0.865833 1.98324 0
M  V30 6212 C 592.722 2.45707 2.33267 0
M  V30 6213 C 591.281 2.43738 2.86825 0
M  V30 6214 C 590.428 2.25941 1.60767 0
M  V30 6215 H 593.379 1.50672 0.49836 0
M  V30 6216 H 593.4 2.14333 3.14391 0
M  V30 6217 H 592.912 3.41805 1.83824 0
M  V30 6218 H 591.013 1.51375 3.40465 0
M  V30 6219 H 591.126 3.39779 3.37768 0
M  V30 6220 H 589.49 1.73681 1.86298 0
M  V30 6221 H 590.273 3.24054 1.1333 0
M  V30 6222 N 592.718 -0.936591 1.26751 0
M  V30 6223 C 593.964 -1.6858 1.12733 0
M  V30 6224 C 594.297 -1.91414 -0.327745 0
M  V30 6225 O 593.572 -1.49812 -1.24043 0
M  V30 6226 C 593.855 -3.05779 1.90187 0
M  V30 6227 C 593.708 -2.90242 3.43627 0
M  V30 6228 C 595.027 -4.0597 1.69931 0
M  V30 6229 H 592.146 -0.61182 0.410908 0
M  V30 6230 H 594.788 -1.08747 1.55801 0
M  V30 6231 H 592.938 -3.56853 1.53584 0
M  V30 6232 H 594.61 -2.46354 3.9001 0
M  V30 6233 H 592.853 -2.2577 3.70419 0
M  V30 6234 H 593.524 -3.87572 3.93055 0
M  V30 6235 H 596 -3.63874 2.0183 0
M  V30 6236 H 594.876 -4.99974 2.26534 0
M  V30 6237 H 595.137 -4.37369 0.64502 0
M  V30 6238 N 594.196 -1.08629 -1.14182 0
M  V30 6239 C 595.612 -0.814363 -1.3726 0
M  V30 6240 C 595.812 0.575271 -1.93114 0
M  V30 6241 O 594.868 1.33165 -2.1453 0
M  V30 6242 C 596.181 -1.8989 -2.33157 0
M  V30 6243 C 597.729 -1.92518 -2.46791 0
M  V30 6244 C 598.204 -3.00092 -3.45989 0
M  V30 6245 N 599.695 -2.99279 -3.53534 0
M  V30 6246 C 600.43 -3.79158 -4.30147 0
M  V30 6247 N 599.926 -4.68923 -5.09983 0
M  V30 6248 N 601.719 -3.67451 -4.25366 0
M  V30 6249 H 593.87 -1.98232 -0.762758 0
M  V30 6250 H 596.133 -0.860383 -0.398051 0
M  V30 6251 H 595.839 -2.89809 -1.99257 0
M  V30 6252 H 595.713 -1.77013 -3.33086 0
M  V30 6253 H 598.1 -0.932425 -2.79982 0
M  V30 6254 H 598.181 -2.09473 -1.46816 0
M  V30 6255 H 597.825 -3.99575 -3.13532 0
M  V30 6256 H 597.755 -2.80382 -4.45751 0
M  V30 6257 H 600.246 -2.3422 -2.96563 0
M  V30 6258 H 600.559 -5.26475 -5.65724 0
M  V30 6259 H 598.904 -4.72964 -5.09244 0
M  V30 6260 H 602.095 -2.9669 -3.62067 0
M  V30 6261 H 602.268 -4.29944 -4.84822 0
M  V30 6262 N 595.674 1.31259 -0.872281 0
M  V30 6263 C 597.085 1.78822 -0.536617 0
M  V30 6264 C 597.436 1.71855 0.946594 0
M  V30 6265 O 596.561 1.28769 1.73918 0
M  V30 6266 C 597.156 3.24698 -0.967294 0
M  V30 6267 C 595.715 3.70147 -0.683251 0
M  V30 6268 C 594.862 2.51994 -1.15733 0
M  V30 6269 H 597.813 1.18308 -1.05777 0
M  V30 6270 H 597.834 3.79386 -0.290929 0
M  V30 6271 H 597.346 3.29737 -2.04683 0
M  V30 6272 H 595.447 3.70607 0.384825 0
M  V30 6273 H 595.56 4.62183 -1.2619 0
M  V30 6274 H 593.924 2.48078 -0.577024 0
M  V30 6275 H 594.707 2.59778 -2.24434 0
M  V30 6276 N 597.152 0.631951 1.44375 0
M  V30 6277 C 598.4 0.136497 2.01639 0
M  V30 6278 C 598.721 -1.24637 1.49969 0
M  V30 6279 O 597.991 -1.82827 0.70363 0
M  V30 6280 H 596.571 0.0474703 0.74549 0
M  V30 6281 H 599.233 0.818837 1.76865 0
M  V30 6282 H 598.329 0.104817 3.11924 0
M  V30 6283 N 598.631 -1.53133 0.372548 0
M  V30 6284 C 599.563 -2.23557 -0.505444 0
M  V30 6285 C 600.576 -1.25211 -1.04049 0
M  V30 6286 O 601.765 -1.51391 -0.945675 0
M  V30 6287 C 598.865 -2.92516 -1.71136 0
M  V30 6288 C 598.038 -4.17428 -1.30661 0
M  V30 6289 C 597.097 -4.69535 -2.37536 0
M  V30 6290 O 596.123 -5.33042 -1.99637 0
M  V30 6291 N 597.325 -4.47947 -3.6922 0
M  V30 6292 H 600.09 -2.9954 0.0978259 0
M  V30 6293 H 597.651 -1.60684 0.198068 0
M  V30 6294 H 599.643 -3.24281 -2.42124 0
M  V30 6295 H 598.213 -2.19944 -2.22134 0
M  V30 6296 H 597.433 -3.91888 -0.426292 0
M  V30 6297 H 598.721 -4.98622 -1.01259 0
M  V30 6298 H 598.119 -3.97219 -4.02783 0
M  V30 6299 H 596.676 -4.84245 -4.36292 0
M  V30 6300 N 600.109 -0.101901 -1.5727 0
M  V30 6301 C 601.339 0.567568 -1.98651 0
M  V30 6302 C 601.747 1.61839 -0.980037 0
M  V30 6303 O 601.09 1.83661 0.0376564 0
M  V30 6304 C 601.152 1.26742 -3.36417 0
M  V30 6305 C 600.816 0.366561 -4.55528 0
M  V30 6306 C 601.813 -0.388022 -5.1845 0
M  V30 6307 C 599.498 0.282629 -5.01504 0
M  V30 6308 C 601.492 -1.21445 -6.25724 0
M  V30 6309 C 599.179 -0.547443 -6.08643 0
M  V30 6310 C 600.177 -1.29462 -6.70618 0
M  V30 6311 O 599.865 -2.11095 -7.7569 0
M  V30 6312 H 599.597 0.156282 -0.657687 0
M  V30 6313 H 602.151 -0.179912 -2.04611 0
M  V30 6314 H 600.381 2.06162 -3.27161 0
M  V30 6315 H 602.07 1.8321 -3.622 0
M  V30 6316 H 602.836 -0.332949 -4.83856 0
M  V30 6317 H 598.715 0.853868 -4.53023 0
M  V30 6318 H 602.259 -1.79814 -6.74027 0
M  V30 6319 H 598.156 -0.603971 -6.42668 0
M  V30 6320 H 598.924 -2.03851 -7.92709 0
M  V30 6321 N 601.587 1.56661 0.17182 0
M  V30 6322 C 602.864 1.72838 0.915778 0
M  V30 6323 C 603.244 0.66316 2.00413 0
M  V30 6324 O 602.592 -0.322123 2.26218 0
M  V30 6325 C 602.802 3.16019 1.48097 0
M  V30 6326 C 604.15 3.76962 1.95408 0
M  V30 6327 O 605.174 3.19294 1.57892 0
M  V30 6328 O 604.033 4.78219 2.64516 0
M  V30 6329 H 601.127 0.705797 0.431021 0
M  V30 6330 H 603.673 1.68947 0.159689 0
M  V30 6331 H 602.445 3.85031 0.697618 0
M  V30 6332 H 602.068 3.24234 2.30126 0
M  V30 6333 N 603.065 -0.440357 1.51323 0
M  V30 6334 C 604.313 -1.18769 1.63518 0
M  V30 6335 C 604.634 -1.91793 0.352201 0
M  V30 6336 O 603.904 -1.85432 -0.631811 0
M  V30 6337 H 602.484 -0.441408 0.602634 0
M  V30 6338 H 605.146 -0.505162 1.8824 0
M  V30 6339 H 604.242 -1.91892 2.46138 0
M  V30 6340 N 604.543 -1.41418 -0.695603 0
M  V30 6341 C 605.473 -1.46035 -1.82197 0
M  V30 6342 C 606.454 -0.319025 -1.67082 0
M  V30 6343 O 607.639 -0.530462 -1.86815 0
M  V30 6344 C 604.769 -1.34179 -3.20333 0
M  V30 6345 C 603.723 -2.46123 -3.50154 0
M  V30 6346 C 603.049 -2.19332 -4.87645 0
M  V30 6347 C 604.349 -3.88463 -3.49133 0
M  V30 6348 H 606.043 -2.40303 -1.78591 0
M  V30 6349 H 603.589 -1.15663 -0.857797 0
M  V30 6350 H 605.542 -1.36021 -3.98844 0
M  V30 6351 H 604.266 -0.363952 -3.24566 0
M  V30 6352 H 602.925 -2.43563 -2.73994 0
M  V30 6353 H 602.573 -1.19891 -4.88503 0
M  V30 6354 H 602.273 -2.94344 -5.08562 0
M  V30 6355 H 603.797 -2.22889 -5.68465 0
M  V30 6356 H 605.211 -3.92738 -4.17648 0
M  V30 6357 H 603.608 -4.63158 -3.81582 0
M  V30 6358 H 604.678 -4.16617 -2.48109 0
M  V30 6359 N 606.021 0.929856 -1.27246 0
M  V30 6360 C 607.267 1.6798 -1.13625 0
M  V30 6361 C 607.6 1.91586 0.317589 0
M  V30 6362 O 606.875 1.50467 1.23247 0
M  V30 6363 C 607.158 3.04766 -1.91806 0
M  V30 6364 C 607.011 2.88415 -3.45162 0
M  V30 6365 C 608.33 4.05063 -1.72082 0
M  V30 6366 H 605.449 0.609632 -0.414147 0
M  V30 6367 H 608.091 1.0792 -1.56376 0
M  V30 6368 H 606.241 3.56034 -1.55474 0
M  V30 6369 H 607.913 2.44282 -3.91311 0
M  V30 6370 H 606.156 2.23802 -3.71611 0
M  V30 6371 H 606.827 3.85482 -3.95105 0
M  V30 6372 H 609.303 3.62798 -2.03757 0
M  V30 6373 H 608.179 4.98765 -2.29182 0
M  V30 6374 H 608.44 4.37021 -0.668206 0
M  V30 6375 N 607.499 1.09233 1.13605 0
M  V30 6376 C 608.409 0.741939 2.22559 0
M  V30 6377 C 609.425 -0.255236 1.72118 0
M  V30 6378 O 610.601 -0.0970747 2.01166 0
M  V30 6379 C 607.666 0.165595 3.46304 0
M  V30 6380 C 606.727 1.21846 4.11645 0
M  V30 6381 C 605.96 0.669526 5.29484 0
M  V30 6382 O 606.183 -0.508228 5.68131 0
M  V30 6383 O 605.117 1.42361 5.84822 0
M  V30 6384 H 608.943 1.65107 2.54899 0
M  V30 6385 H 606.528 0.866584 1.21699 0
M  V30 6386 H 608.41 -0.152592 4.21124 0
M  V30 6387 H 607.085 -0.716573 3.15669 0
M  V30 6388 H 605.992 1.58931 3.38662 0
M  V30 6389 H 607.325 2.07321 4.46407 0
M  V30 6390 N 608.977 -1.30795 0.87923 0
M  V30 6391 C 609.907 -2.30742 0.357796 0
M  V30 6392 C 610.888 -1.60747 -0.556283 0
M  V30 6393 O 612.073 -1.88393 -0.47135 0
M  V30 6394 C 609.203 -3.44583 -0.433555 0
M  V30 6395 C 608.157 -4.26235 0.388251 0
M  V30 6396 C 607.483 -5.32073 -0.529352 0
M  V30 6397 C 608.783 -4.96303 1.62729 0
M  V30 6398 H 610.477 -2.74605 1.19299 0
M  V30 6399 H 608.023 -1.32017 0.575104 0
M  V30 6400 H 609.976 -4.13563 -0.808934 0
M  V30 6401 H 608.7 -2.99511 -1.30234 0
M  V30 6402 H 607.359 -3.58936 0.745695 0
M  V30 6403 H 607.007 -4.83249 -1.39569 0
M  V30 6404 H 606.707 -5.87598 0.0166741 0
M  V30 6405 H 608.231 -6.0391 -0.901373 0
M  V30 6406 H 609.645 -5.5783 1.32283 0
M  V30 6407 H 608.042 -5.61666 2.11309 0
M  V30 6408 H 609.112 -4.22758 2.37494 0
M  V30 6409 N 610.455 -0.639598 -1.44038 0
M  V30 6410 C 611.418 0.0506628 -2.29144 0
M  V30 6411 C 612.418 0.764001 -1.41491 0
M  V30 6412 O 613.608 0.607309 -1.63271 0
M  V30 6413 C 610.74 1.0824 -3.2326 0
M  V30 6414 H 611.933 -0.697987 -2.91664 0
M  V30 6415 H 609.486 -0.400146 -1.51091 0
M  V30 6416 H 610.221 1.86075 -2.65606 0
M  V30 6417 H 610.006 0.574725 -3.87865 0
M  V30 6418 H 611.496 1.56487 -3.87171 0
M  V30 6419 N 611.933 1.52934 -0.380664 0
M  V30 6420 C 613.161 2.05886 0.204599 0
M  V30 6421 C 613.576 1.25305 1.41223 0
M  V30 6422 O 612.933 0.297504 1.80059 0
M  V30 6423 C 612.984 3.56764 0.583249 0
M  V30 6424 O 612.705 4.34292 -0.576398 0
M  V30 6425 C 614.206 4.2603 1.2253 0
M  V30 6426 H 611.426 0.670193 0.0328991 0
M  V30 6427 H 613.97 1.97148 -0.543397 0
M  V30 6428 H 612.125 3.65603 1.28115 0
M  V30 6429 H 612.539 5.23819 -0.267119 0
M  V30 6430 H 614.013 5.32868 1.44068 0
M  V30 6431 H 614.49 3.80698 2.19011 0
M  V30 6432 H 615.096 4.21485 0.568407 0
M  V30 6433 N 613.412 0.11024 1.57214 0
M  V30 6434 C 614.661 -0.549638 1.94067 0
M  V30 6435 C 614.974 -1.68388 0.995234 0
M  V30 6436 O 616.18 -2.40593 1.25807 0
M  V30 6437 C 614.636 -1.02912 3.44873 0
M  V30 6438 C 614.244 0.0761861 4.47935 0
M  V30 6439 C 615.988 -1.66087 3.9066 0
M  V30 6440 C 613.895 -0.419502 5.8991 0
M  V30 6441 H 612.825 -0.209092 0.724428 0
M  V30 6442 H 615.476 0.188683 1.82527 0
M  V30 6443 H 613.858 -1.82159 3.51616 0
M  V30 6444 H 615.032 0.852185 4.52851 0
M  V30 6445 H 613.347 0.614052 4.11847 0
M  V30 6446 H 615.944 -2.04272 4.94143 0
M  V30 6447 H 616.287 -2.53591 3.30148 0
M  V30 6448 H 616.82 -0.933959 3.86681 0
M  V30 6449 H 613.559 0.419277 6.54158 0
M  V30 6450 H 613.079 -1.16217 5.88433 0
M  V30 6451 H 614.758 -0.883577 6.40938 0
M  V30 6452 N 614.89 -1.56749 -0.16351 0
M  V30 6453 C 616.13 -1.84234 -0.885271 0
M  V30 6454 C 616.494 -0.692259 -1.79086 0
M  V30 6455 O 617.695 -0.847747 -2.55082 0
M  V30 6456 C 615.966 -3.16857 -1.65337 0
M  V30 6457 S 617.525 -3.65848 -2.42282 0
M  V30 6458 H 614.343 -0.646293 -0.296354 0
M  V30 6459 H 616.945 -1.94951 -0.146365 0
M  V30 6460 H 615.649 -3.98546 -0.979266 0
M  V30 6461 H 615.18 -3.09102 -2.4335 0
M  V30 6462 H 617.195 -3.33796 -3.67143 0
M  V30 6463 N 616.368 0.432326 -1.51554 0
M  V30 6464 C 617.331 1.50765 -1.72634 0
M  V30 6465 C 618.331 1.49334 -0.596314 0
M  V30 6466 O 619.521 1.51268 -0.863925 0
M  V30 6467 C 616.653 2.90284 -1.7874 0
M  V30 6468 H 617.846 1.33377 -2.68609 0
M  V30 6469 H 615.399 0.661329 -1.4162 0
M  V30 6470 H 616.134 3.13071 -0.845977 0
M  V30 6471 H 615.919 2.92727 -2.6087 0
M  V30 6472 H 617.409 3.68282 -1.96871 0
M  V30 6473 N 617.846 1.41785 0.688094 0
M  V30 6474 C 618.776 1.47 1.8142 0
M  V30 6475 C 619.757 0.327881 1.6691 0
M  V30 6476 O 620.942 0.540362 1.86531 0
M  V30 6477 C 618.072 1.35876 3.19617 0
M  V30 6478 C 617.026 2.47976 3.48844 0
M  V30 6479 C 616.352 2.21915 4.86475 0
M  V30 6480 C 617.652 3.90309 3.47068 0
M  V30 6481 H 619.346 2.41247 1.77314 0
M  V30 6482 H 616.892 1.16116 0.851651 0
M  V30 6483 H 618.845 1.38134 3.98117 0
M  V30 6484 H 617.569 0.38116 3.24368 0
M  V30 6485 H 616.228 2.45013 2.72698 0
M  V30 6486 H 615.876 1.2248 4.8786 0
M  V30 6487 H 615.576 2.97037 5.06994 0
M  V30 6488 H 617.1 2.25901 5.67275 0
M  V30 6489 H 618.514 3.94947 4.1556 0
M  V30 6490 H 616.911 4.65175 3.7912 0
M  V30 6491 H 617.981 4.17927 2.45896 0
M  V30 6492 N 619.324 -0.923095 1.27737 0
M  V30 6493 C 620.564 -1.6858 1.15586 0
M  V30 6494 C 620.928 -1.89758 -0.292562 0
M  V30 6495 O 622.129 -2.6339 -0.536583 0
M  V30 6496 C 620.4 -3.01275 1.92271 0
M  V30 6497 S 621.959 -3.924 1.96387 0
M  V30 6498 H 618.777 -0.579069 0.412554 0
M  V30 6499 H 621.379 -1.09866 1.61709 0
M  V30 6500 H 620.083 -2.83556 2.96689 0
M  V30 6501 H 619.614 -3.6504 1.46661 0
M  V30 6502 H 621.629 -4.84667 1.06361 0
M  V30 6503 N 620.802 -1.09834 -1.13024 0
M  V30 6504 C 621.75 -0.736283 -2.20639 0
M  V30 6505 C 622.744 0.264725 -1.67319 0
M  V30 6506 O 623.95 0.125745 -1.7956 0
M  V30 6507 H 620.325 -0.220136 -0.719058 0
M  V30 6508 H 622.296 -1.65295 -2.48436 0
M  V30 6509 C 621.045 -0.177544 -3.47246 0
M  V30 6510 H 620.368 -0.939009 -3.88616 0
M  V30 6511 H 621.808 0.0378007 -4.23983 0
M  V30 6512 C 620.267 1.08824 -3.1884 0
M  V30 6513 O 620.797 2.1708 -3.37993 0
M  V30 6514 N 619.003 1.00442 -2.7269 0
M  V30 6515 H 618.55 0.123383 -2.57304 0
M  V30 6516 H 618.508 1.85206 -2.5406 0
M  V30 6517 N 622.28 1.30327 -0.886154 0
M  V30 6518 C 623.557 1.90922 -0.425217 0
M  V30 6519 C 623.937 1.80533 1.09413 0
M  V30 6520 O 623.285 1.2233 1.92996 0
M  V30 6521 C 623.495 3.36529 -0.924638 0
M  V30 6522 C 624.843 4.13598 -0.960305 0
M  V30 6523 O 625.867 3.45377 -0.871382 0
M  V30 6524 O 624.726 5.35482 -1.09184 0
M  V30 6525 H 621.82 0.81668 -0.130238 0
M  V30 6526 H 624.366 1.38886 -0.975132 0
M  V30 6527 H 623.138 3.38181 -1.96849 0
M  V30 6528 H 622.761 3.96021 -0.353955 0
M  V30 6529 N 623.758 0.647228 1.43697 0
M  V30 6530 C 624.983 0.164083 2.0675 0
M  V30 6531 C 625.408 -1.15892 1.48158 0
M  V30 6532 O 624.766 -1.71459 0.589194 0
M  V30 6533 C 624.814 0.0800368 3.60511 0
M  V30 6534 O 623.918 -0.959453 4.01084 0
M  V30 6535 H 623.259 0.0921288 0.657578 0
M  V30 6536 H 625.789 0.88846 1.84303 0
M  V30 6537 H 625.799 -0.105263 4.07864 0
M  V30 6538 H 624.474 1.04586 4.02535 0
M  V30 6539 H 623.051 -0.747425 3.65333 0
M  V30 6540 N 625.236 -1.5273 0.388769 0
M  V30 6541 C 626.461 -2.0647 -0.19621 0
M  V30 6542 C 626.886 -1.25865 -1.39784 0
M  V30 6543 O 626.244 -0.283562 -1.79069 0
M  V30 6544 C 626.292 -3.56456 -0.5451 0
M  V30 6545 O 625.396 -3.78426 -1.63912 0
M  V30 6546 H 624.737 -0.663599 -0.023067 0
M  V30 6547 H 627.267 -1.96898 0.556084 0
M  V30 6548 H 627.277 -3.99888 -0.809557 0
M  V30 6549 H 625.952 -4.14561 0.333417 0
M  V30 6550 H 624.529 -3.46884 -1.36842 0
M  V30 6551 N 626.714 -0.118576 -1.57153 0
M  V30 6552 C 627.644 0.828436 -2.1831 0
M  V30 6553 C 628.625 1.27758 -1.12303 0
M  V30 6554 O 629.81 1.34026 -1.40537 0
M  V30 6555 C 626.94 2.07876 -2.78217 0
M  V30 6556 C 625.894 1.76742 -3.89803 0
M  V30 6557 C 625.22 3.08801 -4.36516 0
M  V30 6558 C 626.52 1.03606 -5.11921 0
M  V30 6559 H 628.214 0.318824 -2.97698 0
M  V30 6560 H 625.76 0.151911 -1.43196 0
M  V30 6561 H 627.713 2.74584 -3.19659 0
M  V30 6562 H 626.437 2.61161 -1.96118 0
M  V30 6563 H 625.096 1.12424 -3.48936 0
M  V30 6564 H 624.744 3.6002 -3.51276 0
M  V30 6565 H 624.444 2.88743 -5.11763 0
M  V30 6566 H 625.968 3.76627 -4.80608 0
M  V30 6567 H 627.382 1.60467 -5.50385 0
M  V30 6568 H 625.779 0.936454 -5.92748 0
M  V30 6569 H 626.849 0.0227421 -4.84895 0
M  V30 6570 N 628.193 1.56834 0.155195 0
M  V30 6571 C 629.47 1.73799 0.897395 0
M  V30 6572 C 629.85 0.684379 1.99698 0
M  V30 6573 O 629.198 -0.298111 2.26547 0
M  V30 6574 C 629.408 3.17572 1.44737 0
M  V30 6575 C 630.756 3.79014 1.91399 0
M  V30 6576 O 631.78 3.20951 1.54496 0
M  V30 6577 O 630.639 4.80998 2.59429 0
M  V30 6578 H 627.733 0.710329 0.423511 0
M  V30 6579 H 630.279 1.69107 0.141761 0
M  V30 6580 H 629.051 3.85749 0.656741 0
M  V30 6581 H 628.674 3.26657 2.26674 0
M  V30 6582 N 629.671 -0.424282 1.51781 0
M  V30 6583 C 630.918 -1.1726 1.65095 0
M  V30 6584 C 631.246 -1.90881 0.373477 0
M  V30 6585 O 630.501 -1.84835 -0.642997 0
M  V30 6586 C 630.8 -2.20418 2.81337 0
M  V30 6587 C 630.466 -1.63715 4.20129 0
M  V30 6588 C 629.128 -1.47975 4.57883 0
M  V30 6589 C 631.48 -1.22157 5.06682 0
M  V30 6590 C 628.808 -0.891703 5.79884 0
M  V30 6591 C 631.16 -0.647767 6.29275 0
M  V30 6592 C 629.824 -0.477371 6.65791 0
M  V30 6593 H 629.094 -0.429085 0.604125 0
M  V30 6594 H 631.741 -0.461852 1.85847 0
M  V30 6595 H 630.046 -2.97581 2.54859 0
M  V30 6596 H 631.743 -2.78163 2.88836 0
M  V30 6597 H 628.333 -1.76946 3.90369 0
M  V30 6598 H 632.517 -1.33133 4.7811 0
M  V30 6599 H 627.773 -0.747563 6.06813 0
M  V30 6600 H 631.947 -0.317291 6.95677 0
M  V30 6601 H 629.574 -0.0195936 7.60197 0
M  V30 6602 N 631.149 -1.42148 -0.680565 0
M  V30 6603 C 632.097 -1.45401 -1.81552 0
M  V30 6604 C 633.091 -0.33036 -1.66147 0
M  V30 6605 O 634.297 -0.503103 -1.72826 0
M  V30 6606 H 630.672 -0.455265 -0.59853 0
M  V30 6607 H 632.643 -2.41024 -1.75926 0
M  V30 6608 C 631.392 -1.36769 -3.19671 0
M  V30 6609 H 630.715 -2.22525 -3.32149 0
M  V30 6610 H 632.155 -1.43106 -3.9912 0
M  V30 6611 C 630.614 -0.0817752 -3.36801 0
M  V30 6612 O 631.144 0.867707 -3.92216 0
M  V30 6613 N 629.35 -0.000799811 -2.906 0
M  V30 6614 H 628.897 -0.774231 -2.4569 0
M  V30 6615 H 628.855 0.858961 -3.02439 0
M  V30 6616 N 632.627 0.916307 -1.28225 0
M  V30 6617 C 633.537 2.05165 -1.13775 0
M  V30 6618 C 634.553 1.73879 -0.0649418 0
M  V30 6619 O 635.729 1.99531 -0.273722 0
M  V30 6620 C 632.794 3.37385 -0.798267 0
M  V30 6621 C 631.855 3.82296 -1.95316 0
M  V30 6622 C 631.088 5.08206 -1.62978 0
M  V30 6623 O 631.311 5.6781 -0.542948 0
M  V30 6624 O 630.245 5.48768 -2.47261 0
M  V30 6625 H 634.071 2.20273 -2.09078 0
M  V30 6626 H 631.656 1.0373 -1.07519 0
M  V30 6627 H 633.538 4.16773 -0.62278 0
M  V30 6628 H 632.213 3.23458 0.125139 0
M  V30 6629 H 631.12 3.03746 -2.18378 0
M  V30 6630 H 632.453 4.00782 -2.85718 0
M  V30 6631 N 634.105 1.10431 1.1244 0
M  V30 6632 C 635.068 0.756542 2.16354 0
M  V30 6633 C 636.068 -0.21899 1.59302 0
M  V30 6634 O 637.258 0.00415969 1.742 0
M  V30 6635 C 634.39 0.120612 3.40687 0
M  V30 6636 H 635.583 1.67696 2.48632 0
M  V30 6637 H 633.136 0.904832 1.27446 0
M  V30 6638 H 633.871 -0.810536 3.14008 0
M  V30 6639 H 633.656 0.822693 3.83372 0
M  V30 6640 H 635.146 -0.106945 4.17463 0
M  V30 6641 N 635.583 -1.29855 0.893053 0
M  V30 6642 C 636.53 -2.27909 0.364161 0
M  V30 6643 C 637.5 -1.56726 -0.550093 0
M  V30 6644 O 638.685 -1.84747 -0.47677 0
M  V30 6645 C 635.825 -3.42678 -0.408178 0
M  V30 6646 C 634.938 -4.28659 0.536212 0
M  V30 6647 C 634.073 -5.30599 -0.252521 0
M  V30 6648 C 633.112 -6.08234 0.686822 0
M  V30 6649 N 632.249 -7.02068 -0.0670902 0
M  V30 6650 H 637.089 -2.72531 1.20544 0
M  V30 6651 H 634.626 -1.34047 0.605779 0
M  V30 6652 H 636.584 -4.07986 -0.871962 0
M  V30 6653 H 635.214 -2.99103 -1.21397 0
M  V30 6654 H 634.266 -3.63584 1.1185 0
M  V30 6655 H 635.578 -4.8274 1.25552 0
M  V30 6656 H 634.732 -6.01694 -0.777801 0
M  V30 6657 H 633.471 -4.77233 -1.005 0
M  V30 6658 H 632.476 -5.3601 1.22366 0
M  V30 6659 H 633.701 -6.63689 1.43852 0
M  V30 6660 H 631.647 -6.5108 -0.801955 0
M  V30 6661 H 631.564 -7.53675 0.59243 0
M  V30 6662 H 632.832 -7.77392 -0.572851 0
M  V30 6663 N 637.061 -0.65484 -1.43351 0
M  V30 6664 C 638.309 -0.168559 -2.01396 0
M  V30 6665 C 638.63 1.22235 -1.51933 0
M  V30 6666 O 637.9 1.81685 -0.732627 0
M  V30 6667 H 636.48 -0.0593244 -0.744641 0
M  V30 6668 H 639.142 -0.846871 -1.75539 0
M  V30 6669 H 638.238 -0.154428 -3.11718 0
M  V30 6670 N 638.539 1.52521 -0.396863 0
M  V30 6671 C 639.785 2.01971 0.183169 0
M  V30 6672 C 640.118 1.2825 1.45827 0
M  V30 6673 O 639.393 0.385179 1.90648 0
M  V30 6674 C 639.676 3.5736 0.443391 0
M  V30 6675 C 639.529 4.41743 -0.84753 0
M  V30 6676 C 640.848 4.22539 1.2308 0
M  V30 6677 H 637.967 0.734119 0.0650976 0
M  V30 6678 H 640.609 1.82519 -0.527918 0
M  V30 6679 H 638.759 3.74066 1.04914 0
M  V30 6680 H 640.431 4.36773 -1.48414 0
M  V30 6681 H 638.674 4.0845 -1.4612 0
M  V30 6682 H 639.345 5.48507 -0.620003 0
M  V30 6683 H 641.821 4.09857 0.718084 0
M  V30 6684 H 640.697 5.31227 1.38162 0
M  V30 6685 H 640.958 3.80675 2.24808 0
M  V30 6686 N 640.017 0.126909 1.57088 0
M  V30 6687 C 641.247 -0.535892 1.99529 0
M  V30 6688 C 641.655 -1.60259 1.00566 0
M  V30 6689 O 640.998 -1.83698 -0.00843269 0
M  V30 6690 C 641.06 -1.21374 3.38391 0
M  V30 6691 C 640.724 -0.294044 4.56053 0
M  V30 6692 C 641.721 0.470454 5.17767 0
M  V30 6693 C 639.406 -0.202808 5.0189 0
M  V30 6694 C 641.4 1.31384 6.23712 0
M  V30 6695 C 639.087 0.644203 6.07695 0
M  V30 6696 C 640.085 1.40115 6.68473 0
M  V30 6697 O 639.773 2.23408 7.72233 0
M  V30 6698 H 639.505 -0.145799 0.66009 0
M  V30 6699 H 642.059 0.212441 2.04298 0
M  V30 6700 H 640.289 -2.00931 3.30399 0
M  V30 6701 H 641.978 -1.77424 3.65069 0
M  V30 6702 H 642.744 0.409884 4.83265 0
M  V30 6703 H 638.623 -0.781688 4.54324 0
M  V30 6704 H 642.167 1.90514 6.71081 0
M  V30 6705 H 638.064 0.706137 6.41626 0
M  V30 6706 H 638.832 2.16436 7.89365 0
M  V30 6707 N 641.495 -1.56914 -0.146875 0
M  V30 6708 C 642.405 -2.0154 -1.20079 0
M  V30 6709 C 643.421 -0.930838 -1.47008 0
M  V30 6710 O 644.597 -1.24032 -1.58676 0
M  V30 6711 C 641.662 -2.38715 -2.51428 0
M  V30 6712 C 640.723 -3.6112 -2.32145 0
M  V30 6713 C 639.956 -3.96512 -3.57231 0
M  V30 6714 O 640.179 -3.32566 -4.63418 0
M  V30 6715 O 639.113 -4.89758 -3.49887 0
M  V30 6716 H 642.939 -2.91506 -0.851924 0
M  V30 6717 H 640.524 -1.45106 -0.355607 0
M  V30 6718 H 642.406 -2.63485 -3.28867 0
M  V30 6719 H 641.081 -1.51903 -2.85845 0
M  V30 6720 H 639.988 -3.41536 -1.52656 0
M  V30 6721 H 641.321 -4.48549 -2.02644 0
M  V30 6722 N 642.974 0.416227 -1.52004 0
M  V30 6723 C 643.921 1.50666 -1.74838 0
M  V30 6724 C 644.891 1.55245 -0.590599 0
M  V30 6725 O 646.076 1.71928 -0.827374 0
M  V30 6726 C 643.216 2.88185 -1.89851 0
M  V30 6727 C 642.329 2.92971 -3.17478 0
M  V30 6728 C 641.464 4.21745 -3.22962 0
M  V30 6729 C 640.503 4.20478 -4.4482 0
M  V30 6730 N 639.64 5.40811 -4.47736 0
M  V30 6731 H 644.48 1.30498 -2.67907 0
M  V30 6732 H 642.017 0.633568 -1.32757 0
M  V30 6733 H 643.975 3.68007 -1.96537 0
M  V30 6734 H 642.605 3.06865 -1.00169 0
M  V30 6735 H 641.657 2.05684 -3.19997 0
M  V30 6736 H 642.969 2.87899 -4.07328 0
M  V30 6737 H 642.123 5.09954 -3.28682 0
M  V30 6738 H 640.862 4.29503 -2.31038 0
M  V30 6739 H 639.867 3.30659 -4.39254 0
M  V30 6740 H 641.092 4.14366 -5.38031 0
M  V30 6741 H 639.038 5.4925 -3.58692 0
M  V30 6742 H 638.955 5.37705 -5.31422 0
M  V30 6743 H 640.223 6.30993 -4.57676 0
M  V30 6744 N 644.452 1.42507 0.673017 0
M  V30 6745 C 645.698 1.43284 1.43519 0
M  V30 6746 C 646.031 0.049668 1.94136 0
M  V30 6747 O 645.306 -0.926369 1.71022 0
M  V30 6748 C 645.589 2.45874 2.63093 0
M  V30 6749 C 645.442 3.93388 2.18096 0
M  V30 6750 C 646.761 2.45431 3.6531 0
M  V30 6751 H 643.88 0.521752 0.520522 0
M  V30 6752 H 646.522 1.73932 0.764701 0
M  V30 6753 H 644.672 2.19869 3.20296 0
M  V30 6754 H 646.344 4.30379 1.66046 0
M  V30 6755 H 644.587 4.07169 1.49652 0
M  V30 6756 H 645.258 4.60752 3.03993 0
M  V30 6757 H 647.734 2.68561 3.17827 0
M  V30 6758 H 646.61 3.19189 4.46553 0
M  V30 6759 H 646.871 1.48092 4.16559 0
M  V30 6760 N 645.93 -0.909495 1.28709 0
M  V30 6761 C 647.178 -1.65577 1.15882 0
M  V30 6762 C 647.499 -1.928 -0.292108 0
M  V30 6763 O 646.769 -1.54716 -1.20166 0
M  V30 6764 H 645.349 -0.613714 0.425869 0
M  V30 6765 H 648.011 -1.09108 1.61498 0
M  V30 6766 H 647.107 -2.61634 1.70159 0
M  V30 6767 N 647.408 -1.11026 -1.11852 0
M  V30 6768 C 648.318 -0.777252 -2.2135 0
M  V30 6769 C 649.334 0.227821 -1.72502 0
M  V30 6770 O 650.51 0.0650587 -2.01295 0
M  V30 6771 C 647.575 -0.220668 -3.45997 0
M  V30 6772 C 646.636 -1.2838 -4.09655 0
M  V30 6773 C 645.869 -0.753678 -5.28352 0
M  V30 6774 O 646.092 0.417779 -5.68868 0
M  V30 6775 O 645.026 -1.51647 -5.82483 0
M  V30 6776 H 648.852 -1.69141 -2.5224 0
M  V30 6777 H 646.437 -0.885836 -1.20305 0
M  V30 6778 H 648.319 0.0855756 -4.21313 0
M  V30 6779 H 646.994 0.666262 -3.16769 0
M  V30 6780 H 645.901 -1.64299 -3.3609 0
M  V30 6781 H 647.234 -2.14396 -4.43052 0
M  V30 6782 N 648.886 1.2938 -0.899927 0
M  V30 6783 C 649.849 2.25983 -0.382677 0
M  V30 6784 C 650.849 1.53366 0.483259 0
M  V30 6785 O 652.039 1.71798 0.28828 0
M  V30 6786 C 649.171 3.37878 0.452915 0
M  V30 6787 H 650.364 2.73252 -1.23586 0
M  V30 6788 H 647.917 1.40825 -0.678088 0
M  V30 6789 H 648.652 2.95949 1.32608 0
M  V30 6790 H 648.437 3.91742 -0.167562 0
M  V30 6791 H 649.927 4.09746 0.806107 0
M  V30 6792 N 650.364 0.662433 1.43002 0
M  V30 6793 C 651.592 0.187615 2.06048 0
M  V30 6794 C 652.007 -1.15039 1.49705 0
M  V30 6795 O 651.364 -1.71209 0.631956 0
M  V30 6796 C 651.415 0.100498 3.6136 0
M  V30 6797 O 651.136 1.38562 4.15611 0
M  V30 6798 C 652.637 -0.399298 4.41498 0
M  V30 6799 H 649.857 0.0941675 0.664359 0
M  V30 6800 H 652.401 0.905681 1.83351 0
M  V30 6801 H 650.556 -0.568181 3.83211 0
M  V30 6802 H 650.97 1.25084 5.09366 0
M  V30 6803 H 652.444 -0.409187 5.50481 0
M  V30 6804 H 652.921 -1.43232 4.15188 0
M  V30 6805 H 653.527 0.23721 4.24638 0
M  V30 6806 N 651.842 -1.52309 0.404946 0
M  V30 6807 C 652.752 -2.30634 -0.429555 0
M  V30 6808 C 653.768 -1.38187 -1.05737 0
M  V30 6809 O 654.944 -1.71261 -1.05979 0
M  V30 6810 C 652.009 -3.10947 -1.53339 0
M  V30 6811 C 651.07 -4.19126 -0.929065 0
M  V30 6812 C 650.303 -4.95601 -1.9803 0
M  V30 6813 O 650.526 -4.72331 -3.1978 0
M  V30 6814 O 649.46 -5.80551 -1.58886 0
M  V30 6815 H 653.286 -3.0298 0.208963 0
M  V30 6816 H 650.871 -1.4845 0.168255 0
M  V30 6817 H 652.753 -3.60974 -2.1743 0
M  V30 6818 H 651.428 -2.41399 -2.15658 0
M  V30 6819 H 650.335 -3.73257 -0.250982 0
M  V30 6820 H 651.668 -4.90955 -0.349855 0
M  V30 6821 N 653.32 -0.135238 -1.57019 0
M  V30 6822 C 654.548 0.526066 -2.001 0
M  V30 6823 C 654.963 1.59184 -1.01519 0
M  V30 6824 O 654.32 1.82497 -0.0104258 0
M  V30 6825 C 654.371 1.13744 -3.43139 0
M  V30 6826 O 654.092 0.114259 -4.37951 0
M  V30 6827 C 655.593 1.8805 -4.01438 0
M  V30 6828 H 652.813 0.137962 -0.656664 0
M  V30 6829 H 655.357 -0.226359 -2.03243 0
M  V30 6830 H 653.512 1.84056 -3.40885 0
M  V30 6831 H 653.926 0.56058 -5.21496 0
M  V30 6832 H 655.4 2.26133 -5.03555 0
M  V30 6833 H 655.877 2.76194 -3.41487 0
M  V30 6834 H 656.483 1.22464 -4.07287 0
M  V30 6835 N 654.798 1.5699 0.138552 0
M  V30 6836 C 655.761 1.97984 1.15478 0
M  V30 6837 C 656.761 0.867416 1.35398 0
M  V30 6838 O 657.951 1.13387 1.32246 0
M  V30 6839 C 655.083 2.3031 2.51337 0
M  V30 6840 H 656.276 2.88953 0.802896 0
M  V30 6841 H 653.829 1.51555 0.382189 0
M  V30 6842 H 654.564 1.42159 2.91481 0
M  V30 6843 H 654.349 3.11425 2.38237 0
M  V30 6844 H 655.839 2.62834 3.24512 0
M  V30 6845 N 656.276 -0.40816 1.52223 0
M  V30 6846 C 657.206 -1.5042 1.78595 0
M  V30 6847 C 658.187 -1.57723 0.636974 0
M  V30 6848 O 659.372 -1.72982 0.882664 0
M  V30 6849 C 656.502 -2.88232 1.93751 0
M  V30 6850 C 655.456 -2.95779 3.09352 0
M  V30 6851 C 654.782 -4.35855 3.09732 0
M  V30 6852 C 656.082 -2.67175 4.48793 0
M  V30 6853 H 657.776 -1.28601 2.70374 0
M  V30 6854 H 655.322 -0.617221 1.30101 0
M  V30 6855 H 657.275 -3.64895 2.10783 0
M  V30 6856 H 655.999 -3.11347 0.986443 0
M  V30 6857 H 654.658 -2.21561 2.92072 0
M  V30 6858 H 654.306 -4.55981 2.12346 0
M  V30 6859 H 654.006 -4.41829 3.87377 0
M  V30 6860 H 655.53 -5.14451 3.28895 0
M  V30 6861 H 656.944 -3.3356 4.66273 0
M  V30 6862 H 655.341 -2.84523 5.28362 0
M  V30 6863 H 656.411 -1.62609 4.56822 0
M  V30 6864 N 657.755 -1.42862 -0.66545 0
M  V30 6865 C 658.983 -1.47246 -1.45349 0
M  V30 6866 C 659.398 -0.0865944 -1.88601 0
M  V30 6867 O 658.755 0.900652 -1.58728 0
M  V30 6868 C 658.806 -2.40772 -2.6965 0
M  V30 6869 O 658.527 -3.73968 -2.2821 0
M  V30 6870 C 660.028 -2.54272 -3.63126 0
M  V30 6871 H 657.248 -0.500497 -0.446927 0
M  V30 6872 H 659.792 -1.87477 -0.816871 0
M  V30 6873 H 657.947 -2.0377 -3.29479 0
M  V30 6874 H 658.361 -4.24146 -3.08546 0
M  V30 6875 H 659.835 -3.23815 -4.47043 0
M  V30 6876 H 660.312 -1.58364 -4.09656 0
M  V30 6877 H 660.918 -2.92036 -3.09185 0
M  V30 6878 N 659.233 0.902656 -1.29189 0
M  V30 6879 C 660.461 1.68639 -1.19869 0
M  V30 6880 C 660.876 1.87254 0.241121 0
M  V30 6881 O 660.233 1.40745 1.16177 0
M  V30 6882 C 660.284 3.07251 -1.90471 0
M  V30 6883 O 660.005 2.89488 -3.28829 0
M  V30 6884 C 661.506 4.01653 -1.8759 0
M  V30 6885 H 658.726 0.526802 -0.415596 0
M  V30 6886 H 661.27 1.12901 -1.7051 0
M  V30 6887 H 659.425 3.59774 -1.43672 0
M  V30 6888 H 659.839 3.77296 -3.64346 0
M  V30 6889 H 661.313 4.96339 -2.4156 0
M  V30 6890 H 661.79 4.30881 -0.850756 0
M  V30 6891 H 662.396 3.55061 -2.34119 0
M  V30 6892 N 660.711 1.11618 1.11262 0
M  V30 6893 C 661.641 0.79846 2.19424 0
M  V30 6894 C 662.622 -0.234003 1.68483 0
M  V30 6895 O 663.807 -0.0970704 1.93957 0
M  V30 6896 C 660.937 0.242892 3.4645 0
M  V30 6897 C 659.891 1.20744 4.10615 0
M  V30 6898 C 659.217 0.512494 5.32238 0
M  V30 6899 C 660.517 2.55884 4.55325 0
M  V30 6900 H 662.211 1.70286 2.46258 0
M  V30 6901 H 659.757 0.820195 1.18359 0
M  V30 6902 H 661.71 0.00840447 4.21399 0
M  V30 6903 H 660.434 -0.696811 3.1908 0
M  V30 6904 H 659.093 1.42759 3.37662 0
M  V30 6905 H 658.741 -0.432075 5.01141 0
M  V30 6906 H 658.441 1.15583 5.7612 0
M  V30 6907 H 659.965 0.286842 6.09926 0
M  V30 6908 H 661.379 2.37946 5.21588 0
M  V30 6909 H 659.776 3.16216 5.10027 0
M  V30 6910 H 660.846 3.14968 3.68678 0
M  V30 6911 N 662.189 -1.289 0.906776 0
M  V30 6912 C 663.435 -1.95558 0.53712 0
M  V30 6913 C 663.768 -1.71262 -0.915582 0
M  V30 6914 O 663.043 -1.02961 -1.65013 0
M  V30 6915 C 663.326 -3.50198 0.838645 0
M  V30 6916 C 663.179 -3.83923 2.34357 0
M  V30 6917 C 664.498 -4.38861 0.329988 0
M  V30 6918 H 661.617 -0.710289 0.196617 0
M  V30 6919 H 664.259 -1.52392 1.13475 0
M  V30 6920 H 662.409 -3.87096 0.330024 0
M  V30 6921 H 664.081 -3.56933 2.92227 0
M  V30 6922 H 662.324 -3.31215 2.80141 0
M  V30 6923 H 662.995 -4.91883 2.5051 0
M  V30 6924 H 665.471 -4.08996 0.765609 0
M  V30 6925 H 664.347 -5.45931 0.570105 0
M  V30 6926 H 664.608 -4.35352 -0.769511 0
M  V30 6927 N 663.667 -0.670007 -1.42649 0
M  V30 6928 C 664.577 0.0114788 -2.34597 0
M  V30 6929 C 665.593 0.794055 -1.54825 0
M  V30 6930 O 666.769 0.737472 -1.87412 0
M  V30 6931 C 663.834 0.954436 -3.33304 0
M  V30 6932 C 662.895 0.166925 -4.28975 0
M  V30 6933 C 662.128 1.06497 -5.22967 0
M  V30 6934 O 662.351 2.30446 -5.21777 0
M  V30 6935 O 661.285 0.528347 -5.99577 0
M  V30 6936 H 665.111 -0.745794 -2.944 0
M  V30 6937 H 662.696 -0.430228 -1.43071 0
M  V30 6938 H 664.578 1.49589 -3.93956 0
M  V30 6939 H 663.253 1.69164 -2.7598 0
M  V30 6940 H 662.16 -0.418515 -3.71752 0
M  V30 6941 H 663.493 -0.531067 -4.89327 0
M  V30 6942 N 665.145 1.52092 -0.413018 0
M  V30 6943 C 666.092 2.27119 0.410558 0
M  V30 6944 C 667.062 1.29692 1.03774 0
M  V30 6945 O 668.247 1.58561 1.06128 0
M  V30 6946 C 665.387 3.09863 1.51918 0
M  V30 6947 C 664.5 4.22252 0.912528 0
M  V30 6948 C 663.635 4.92348 1.99417 0
M  V30 6949 C 662.674 5.96694 1.36466 0
M  V30 6950 N 661.811 6.60292 2.38661 0
M  V30 6951 H 666.651 2.97067 -0.235661 0
M  V30 6952 H 664.188 1.46542 -0.128055 0
M  V30 6953 H 666.146 3.56144 2.17295 0
M  V30 6954 H 664.776 2.42078 2.13537 0
M  V30 6955 H 663.828 3.80113 0.147697 0
M  V30 6956 H 665.14 4.9709 0.412717 0
M  V30 6957 H 664.294 5.42054 2.72512 0
M  V30 6958 H 663.033 4.17087 2.52764 0
M  V30 6959 H 662.038 5.46304 0.61906 0
M  V30 6960 H 663.263 6.73899 0.838827 0
M  V30 6961 H 661.209 5.87858 2.91134 0
M  V30 6962 H 661.126 7.30816 1.93503 0
M  V30 6963 H 662.394 7.14635 3.11314 0
M  V30 6964 N 666.623 0.143563 1.56945 0
M  V30 6965 C 667.556 -0.835367 2.1236 0
M  V30 6966 C 668.534 -1.24466 1.04627 0
M  V30 6967 O 669.718 -1.34138 1.32436 0
M  V30 6968 C 666.845 -2.12123 2.64048 0
M  V30 6969 C 665.891 -1.85812 3.83896 0
M  V30 6970 S 666.724 -1.05222 5.25061 0
M  V30 6971 C 667.88 -2.34935 5.80135 0
M  V30 6972 H 668.113 -0.364109 2.95062 0
M  V30 6973 H 665.646 -0.0706601 1.54238 0
M  V30 6974 H 667.604 -2.85993 2.94479 0
M  V30 6975 H 666.265 -2.56364 1.81483 0
M  V30 6976 H 665.458 -2.81151 4.18294 0
M  V30 6977 H 665.06 -1.20052 3.54208 0
M  V30 6978 H 667.352 -3.3061 5.91357 0
M  V30 6979 H 668.295 -2.05046 6.77762 0
M  V30 6980 H 668.703 -2.45426 5.08356 0
M  V30 6981 N 668.101 -1.57061 -0.130224 0
M  V30 6982 C 669.049 -2.00486 -1.17933 0
M  V30 6983 C 670.043 -0.899933 -1.43519 0
M  V30 6984 O 671.249 -1.08514 -1.43613 0
M  V30 6985 H 667.624 -0.638441 -0.397363 0
M  V30 6986 H 669.595 -2.87848 -0.786501 0
M  V30 6987 C 668.344 -2.41565 -2.50084 0
M  V30 6988 H 667.667 -3.26148 -2.31231 0
M  V30 6989 H 669.107 -2.75757 -3.22078 0
M  V30 6990 C 667.566 -1.27485 -3.11848 0
M  V30 6991 O 668.096 -0.584688 -3.97422 0
M  V30 6992 N 666.302 -1.03478 -2.71552 0
M  V30 6993 H 665.849 -1.59779 -2.02061 0
M  V30 6994 H 665.807 -0.27341 -3.13209 0
M  V30 6995 N 669.579 0.400081 -1.52437 0
M  V30 6996 C 670.825 1.14788 -1.67187 0
M  V30 6997 C 671.158 1.89928 -0.405074 0
M  V30 6998 O 670.433 1.85118 0.596804 0
M  V30 6999 C 670.716 2.13507 -2.89977 0
M  V30 7000 C 670.569 1.42204 -4.2673 0
M  V30 7001 C 671.888 3.14069 -3.083 0
M  V30 7002 H 669.007 0.415939 -0.608411 0
M  V30 7003 H 671.649 0.432542 -1.85011 0
M  V30 7004 H 669.799 2.7451 -2.74912 0
M  V30 7005 H 671.471 0.842503 -4.53541 0
M  V30 7006 H 669.714 0.723939 -4.27717 0
M  V30 7007 H 670.385 2.14281 -5.08712 0
M  V30 7008 H 672.861 2.63148 -3.22323 0
M  V30 7009 H 671.737 3.80398 -3.95713 0
M  V30 7010 H 671.998 3.82309 -2.22018 0
M  V30 7011 N 671.057 1.43213 0.657864 0
M  V30 7012 C 672.304 1.44584 1.41781 0
M  V30 7013 C 672.632 0.0684208 1.9438 0
M  V30 7014 O 671.887 -0.925872 1.72413 0
M  V30 7015 C 672.186 2.43143 2.61947 0
M  V30 7016 C 671.852 3.89128 2.27794 0
M  V30 7017 C 670.514 4.28889 2.18191 0
M  V30 7018 C 672.866 4.81144 2.00375 0
M  V30 7019 C 670.194 5.58625 1.79319 0
M  V30 7020 C 672.546 6.11239 1.63003 0
M  V30 7021 C 671.21 6.49981 1.51922 0
M  V30 7022 H 670.48 0.529069 0.518813 0
M  V30 7023 H 673.127 1.76263 0.748577 0
M  V30 7024 H 671.432 2.04851 3.33981 0
M  V30 7025 H 673.129 2.4146 3.20153 0
M  V30 7026 H 669.719 3.57657 2.36176 0
M  V30 7027 H 673.903 4.512 2.06718 0
M  V30 7028 H 669.159 5.87486 1.69323 0
M  V30 7029 H 673.333 6.82014 1.40817 0
M  V30 7030 H 670.96 7.50416 1.21572 0
M  V30 7031 N 672.536 -0.895792 1.29666 0
M  V30 7032 C 673.484 -2.02173 1.15017 0
M  V30 7033 C 674.478 -1.69276 0.0647651 0
M  V30 7034 O 675.684 -1.7859 0.224846 0
M  V30 7035 H 672.059 -0.662719 0.355397 0
M  V30 7036 H 674.03 -2.11666 2.10334 0
M  V30 7037 C 672.779 -3.37212 0.847555 0
M  V30 7038 H 672.102 -3.6303 1.67479 0
M  V30 7039 H 673.542 -4.16668 0.785106 0
M  V30 7040 C 672.001 -3.33891 -0.44929 0
M  V30 7041 O 672.531 -3.73673 -1.47415 0
M  V30 7042 N 670.737 -2.86991 -0.456547 0
M  V30 7043 H 670.284 -2.54813 0.377925 0
M  V30 7044 H 670.242 -2.85152 -1.32423 0
M  V30 7045 N 674.014 -1.12206 -1.10668 0
M  V30 7046 C 675.242 -0.898635 -1.86366 0
M  V30 7047 C 675.657 0.551991 -1.80551 0
M  V30 7048 O 675.014 1.38152 -1.19249 0
M  V30 7049 C 675.065 -1.36199 -3.34861 0
M  V30 7050 O 674.786 -2.75576 -3.40573 0
M  V30 7051 C 676.287 -1.17515 -4.2744 0
M  V30 7052 H 673.507 -0.321281 -0.589084 0
M  V30 7053 H 676.051 -1.49142 -1.39918 0
M  V30 7054 H 674.206 -0.81249 -3.78784 0
M  V30 7055 H 674.62 -2.95851 -4.33096 0
M  V30 7056 H 676.094 -1.54827 -5.29842 0
M  V30 7057 H 676.571 -0.115486 -4.39048 0
M  V30 7058 H 677.177 -1.71203 -3.89319 0
M  V30 7059 N 675.492 1.28418 -0.913599 0
M  V30 7060 C 676.769 1.89977 -0.465619 0
M  V30 7061 C 677.149 1.82813 1.05559 0
M  V30 7062 O 676.497 1.26397 1.90358 0
M  V30 7063 C 676.707 3.34492 -0.995813 0
M  V30 7064 C 678.055 4.11468 -1.04782 0
M  V30 7065 O 679.079 3.43451 -0.944445 0
M  V30 7066 O 677.938 5.33046 -1.20518 0
M  V30 7067 H 675.032 0.813734 -0.147532 0
M  V30 7068 H 677.578 1.36786 -1.00437 0
M  V30 7069 H 676.35 3.33929 -2.03978 0
M  V30 7070 H 675.973 3.95181 -0.437878 0
M  V30 7071 N 676.97 0.677563 1.42291 0
M  V30 7072 C 678.216 0.201272 2.01799 0
M  V30 7073 C 678.549 -1.19004 1.53465 0
M  V30 7074 O 677.824 -1.79953 0.738039 0
M  V30 7075 C 678.107 0.238968 3.59306 0
M  V30 7076 C 677.96 1.66594 4.17812 0
M  V30 7077 C 679.279 -0.411287 4.38174 0
M  V30 7078 H 676.398 0.0746114 0.733214 0
M  V30 7079 H 679.04 0.862872 1.69276 0
M  V30 7080 H 677.19 -0.324368 3.87144 0
M  V30 7081 H 678.862 2.28173 4.00917 0
M  V30 7082 H 677.105 2.20576 3.73536 0
M  V30 7083 H 677.776 1.64398 5.26951 0
M  V30 7084 H 680.252 0.0682804 4.16044 0
M  V30 7085 H 679.128 -0.354286 5.47755 0
M  V30 7086 H 679.389 -1.4893 4.1626 0
M  V30 7087 N 678.448 -1.51871 0.421078 0
M  V30 7088 C 679.864 -1.59435 0.0725398 0
M  V30 7089 C 680.064 -1.43315 -1.41644 0
M  V30 7090 O 679.12 -1.26614 -2.18461 0
M  V30 7091 C 680.433 -2.9509 0.578132 0
M  V30 7092 C 681.981 -3.08356 0.537149 0
M  V30 7093 C 682.456 -4.4651 1.01945 0
M  V30 7094 N 683.947 -4.52784 0.976758 0
M  V30 7095 C 684.682 -5.57976 1.32099 0
M  V30 7096 N 684.178 -6.70664 1.73727 0
M  V30 7097 N 685.971 -5.48248 1.2402 0
M  V30 7098 H 678.122 -1.60595 1.39007 0
M  V30 7099 H 680.385 -0.756138 0.571803 0
M  V30 7100 H 680.091 -3.12205 1.61929 0
M  V30 7101 H 679.965 -3.772 -0.00578374 0
M  V30 7102 H 682.352 -2.90919 -0.494991 0
M  V30 7103 H 682.433 -2.28125 1.15727 0
M  V30 7104 H 682.077 -4.64692 2.04997 0
M  V30 7105 H 682.007 -5.25256 0.376023 0
M  V30 7106 H 684.498 -3.71898 0.670851 0
M  V30 7107 H 684.811 -7.46932 1.98274 0
M  V30 7108 H 683.156 -6.71914 1.77641 0
M  V30 7109 H 686.347 -4.59095 0.913756 0
M  V30 7110 H 686.52 -6.30119 1.51176 0
M  V30 7111 N 679.926 -0.151884 -1.56866 0
M  V30 7112 C 681.151 0.508044 -2.01081 0
M  V30 7113 C 681.576 1.57306 -1.03134 0
M  V30 7114 O 680.934 1.81298 -0.0078309 0
M  V30 7115 C 680.982 1.08106 -3.44014 0
M  V30 7116 O 680.086 2.19577 -3.49084 0
M  V30 7117 H 679.427 0.123757 -0.652365 0
M  V30 7118 H 681.957 -0.250055 -2.03066 0
M  V30 7119 H 681.967 1.40851 -3.82916 0
M  V30 7120 H 680.642 0.301168 -4.14808 0
M  V30 7121 H 679.219 1.88023 -3.22027 0
M  V30 7122 N 681.404 1.57128 0.121893 0
M  V30 7123 C 682.334 2.03165 1.15092 0
M  V30 7124 C 683.315 0.915587 1.43356 0
M  V30 7125 O 684.5 1.1851 1.53847 0
M  V30 7126 C 681.63 2.43352 2.47784 0
M  V30 7127 C 680.584 3.58376 2.33989 0
M  V30 7128 C 679.91 3.84454 3.71617 0
M  V30 7129 C 681.21 4.90199 1.80283 0
M  V30 7130 H 682.904 2.89382 0.768023 0
M  V30 7131 H 680.45 1.39218 0.367998 0
M  V30 7132 H 682.403 2.74163 3.20019 0
M  V30 7133 H 681.127 1.54103 2.87958 0
M  V30 7134 H 679.786 3.2777 1.64202 0
M  V30 7135 H 679.434 2.92414 4.09271 0
M  V30 7136 H 679.134 4.61877 3.6324 0
M  V30 7137 H 680.658 4.17714 4.45362 0
M  V30 7138 H 682.072 5.19565 2.42333 0
M  V30 7139 H 680.469 5.71601 1.82735 0
M  V30 7140 H 681.539 4.78904 0.760184 0
M  V30 7141 N 682.882 -0.391992 1.52647 0
M  V30 7142 C 684.107 -1.16312 1.71716 0
M  V30 7143 C 684.532 -1.83042 0.433279 0
M  V30 7144 O 683.89 -1.70705 -0.610707 0
M  V30 7145 C 683.938 -2.18908 2.86551 0
M  V30 7146 O 683.042 -3.2543 2.53316 0
M  V30 7147 H 682.383 -0.338743 0.571095 0
M  V30 7148 H 684.913 -0.457202 1.99426 0
M  V30 7149 H 684.923 -2.62954 3.1196 0
M  V30 7150 H 683.598 -1.69726 3.79692 0
M  V30 7151 H 682.175 -2.86543 2.38637 0
M  V30 7152 N 684.36 -1.4356 -0.65026 0
M  V30 7153 C 685.307 -1.48948 -1.76304 0
M  V30 7154 C 686.277 -0.338919 -1.62605 0
M  V30 7155 O 687.462 -0.54649 -1.82806 0
M  V30 7156 C 684.602 -1.42131 -3.14472 0
M  V30 7157 C 683.715 -2.67415 -3.39284 0
M  V30 7158 C 682.85 -2.52565 -4.67316 0
M  V30 7159 C 681.889 -3.73103 -4.85243 0
M  V30 7160 N 681.026 -3.57046 -6.04535 0
M  V30 7161 H 685.866 -2.44032 -1.71034 0
M  V30 7162 H 683.403 -1.21131 -0.834601 0
M  V30 7163 H 685.361 -1.36172 -3.94351 0
M  V30 7164 H 683.991 -0.506273 -3.18805 0
M  V30 7165 H 683.043 -2.8364 -2.53481 0
M  V30 7166 H 684.355 -3.56943 -3.48415 0
M  V30 7167 H 683.509 -2.44331 -5.55326 0
M  V30 7168 H 682.248 -1.60566 -4.60511 0
M  V30 7169 H 681.253 -3.81743 -3.95667 0
M  V30 7170 H 682.478 -4.66115 -4.93876 0
M  V30 7171 H 680.424 -2.67783 -5.98856 0
M  V30 7172 H 680.341 -4.40178 -6.14638 0
M  V30 7173 H 681.609 -3.52669 -6.95158 0
M  V30 7174 N 685.838 0.888903 -1.30139 0
M  V30 7175 C 687.084 1.6428 -1.18912 0
M  V30 7176 C 687.417 1.92499 0.256477 0
M  V30 7177 O 686.692 1.54312 1.18397 0
M  V30 7178 C 686.975 2.9851 -2.01405 0
M  V30 7179 C 686.828 2.77288 -3.54163 0
M  V30 7180 C 688.147 3.99383 -1.84882 0
M  V30 7181 H 685.266 0.596148 -0.433333 0
M  V30 7182 H 687.908 1.0289 -1.5973 0
M  V30 7183 H 686.058 3.50907 -1.66722 0
M  V30 7184 H 687.73 2.31709 -3.98884 0
M  V30 7185 H 685.973 2.11867 -3.78543 0
M  V30 7186 H 686.644 3.72717 -4.07168 0
M  V30 7187 H 689.12 3.56132 -2.15196 0
M  V30 7188 H 687.996 4.91222 -2.44934 0
M  V30 7189 H 688.257 4.34674 -0.806902 0
M  V30 7190 N 687.317 1.12792 1.10072 0
M  V30 7191 C 688.227 0.812369 2.20086 0
M  V30 7192 C 689.243 -0.200349 1.72843 0
M  V30 7193 O 690.419 -0.0330262 2.01373 0
M  V30 7194 C 687.484 0.275685 3.45602 0
M  V30 7195 C 686.545 1.34881 4.07561 0
M  V30 7196 C 685.778 0.837639 5.27086 0
M  V30 7197 O 686.001 -0.327224 5.69461 0
M  V30 7198 O 684.935 1.60894 5.79997 0
M  V30 7199 H 688.761 1.73133 2.49517 0
M  V30 7200 H 686.346 0.904863 1.18881 0
M  V30 7201 H 688.228 -0.0185375 4.21396 0
M  V30 7202 H 686.903 -0.615783 3.17789 0
M  V30 7203 H 685.81 1.69625 3.33434 0
M  V30 7204 H 687.143 2.21418 4.39585 0
M  V30 7205 N 688.795 -1.27931 0.920396 0
M  V30 7206 C 690.211 -1.47085 0.619537 0
M  V30 7207 C 690.411 -1.83463 -0.833291 0
M  V30 7208 O 689.467 -1.94363 -1.61181 0
M  V30 7209 C 690.78 -2.56878 1.56314 0
M  V30 7210 C 692.328 -2.70743 1.57058 0
M  V30 7211 C 692.803 -3.83687 2.50097 0
M  V30 7212 N 694.294 -3.9105 2.48262 0
M  V30 7213 C 695.029 -4.77842 3.16945 0
M  V30 7214 N 694.525 -5.69176 3.94982 0
M  V30 7215 N 696.318 -4.71509 3.06 0
M  V30 7216 H 688.469 -1.02601 1.85975 0
M  V30 7217 H 690.732 -0.511682 0.798051 0
M  V30 7218 H 690.438 -2.36923 2.59923 0
M  V30 7219 H 690.312 -3.54117 1.29928 0
M  V30 7220 H 692.699 -2.90083 0.541832 0
M  V30 7221 H 692.78 -1.74015 1.8749 0
M  V30 7222 H 692.424 -3.65101 3.53077 0
M  V30 7223 H 692.354 -4.79827 2.16964 0
M  V30 7224 H 694.845 -3.25738 1.91581 0
M  V30 7225 H 695.158 -6.32245 4.44394 0
M  V30 7226 H 693.503 -5.68995 3.99086 0
M  V30 7227 H 696.694 -3.99151 2.44533 0
M  V30 7228 H 696.867 -5.38933 3.59799 0
M  V30 7229 N 690.273 -0.685099 -1.4193 0
M  V30 7230 C 691.236 -0.0222632 -2.29189 0
M  V30 7231 C 692.236 0.7186 -1.4385 0
M  V30 7232 O 693.426 0.555058 -1.6512 0
M  V30 7233 C 690.558 0.979013 -3.2654 0
M  V30 7234 H 691.751 -0.790424 -2.89296 0
M  V30 7235 H 689.304 -0.448012 -1.49742 0
M  V30 7236 H 690.039 1.77531 -2.71392 0
M  V30 7237 H 689.824 0.451037 -3.89497 0
M  V30 7238 H 691.314 1.44091 -3.91954 0
M  V30 7239 N 691.751 1.51645 -0.429126 0
M  V30 7240 C 692.699 2.29119 0.400921 0
M  V30 7241 C 693.693 1.34628 1.02819 0
M  V30 7242 O 694.899 1.52004 0.964098 0
M  V30 7243 H 691.274 0.737273 0.148095 0
M  V30 7244 H 693.245 2.97144 -0.273457 0
M  V30 7245 C 691.994 3.13953 1.49429 0
M  V30 7246 H 691.317 3.86544 1.02097 0
M  V30 7247 H 692.757 3.71232 2.04849 0
M  V30 7248 C 691.216 2.28796 2.47293 0
M  V30 7249 O 691.746 1.94193 3.51642 0
M  V30 7250 N 689.952 1.92177 2.17982 0
M  V30 7251 H 689.499 2.20517 1.33154 0
M  V30 7252 H 689.457 1.35497 2.83704 0
M  V30 7253 N 693.229 0.160201 1.56784 0
M  V30 7254 C 694.192 -0.760405 2.16219 0
M  V30 7255 C 695.192 -1.16595 1.10735 0
M  V30 7256 O 696.382 -1.08472 1.36306 0
M  V30 7257 C 693.514 -2.03358 2.73603 0
M  V30 7258 H 694.707 -0.243173 2.98912 0
M  V30 7259 H 692.26 -0.0893139 1.56045 0
M  V30 7260 H 692.995 -2.59416 1.94612 0
M  V30 7261 H 692.78 -1.75186 3.50788 0
M  V30 7262 H 694.27 -2.69081 3.19351 0
M  V30 7263 N 694.707 -1.5719 -0.113559 0
M  V30 7264 C 695.947 -1.86958 -0.82621 0
M  V30 7265 C 696.311 -0.748884 -1.76793 0
M  V30 7266 O 697.512 -0.92847 -2.52256 0
M  V30 7267 C 695.783 -3.21957 -1.55173 0
M  V30 7268 S 697.342 -3.73371 -2.3052 0
M  V30 7269 H 694.16 -0.655394 -0.275643 0
M  V30 7270 H 696.762 -1.95318 -0.0842684 0
M  V30 7271 H 695.466 -4.01459 -0.851977 0
M  V30 7272 H 694.997 -3.16688 -2.33393 0
M  V30 7273 H 697.012 -3.45308 -3.56338 0
M  V30 7274 N 696.185 0.383891 -1.52853 0
M  V30 7275 C 697.133 1.48965 -1.7864 0
M  V30 7276 C 698.127 1.56242 -0.654577 0
M  V30 7277 O 699.333 1.59347 -0.83716 0
M  V30 7278 H 695.708 0.495892 -0.565328 0
M  V30 7279 H 697.679 1.24411 -2.71228 0
M  V30 7280 C 696.428 2.86036 -1.97683 0
M  V30 7281 H 695.751 2.81188 -2.84206 0
M  V30 7282 H 697.191 3.62632 -2.19713 0
M  V30 7283 C 695.65 3.28428 -0.750776 0
M  V30 7284 O 696.18 4.0164 0.0693491 0
M  V30 7285 N 694.386 2.84765 -0.579427 0
M  V30 7286 H 693.933 2.25353 -1.24795 0
M  V30 7287 H 693.891 3.13486 0.239544 0
M  V30 7288 N 697.663 1.43903 0.642637 0
M  V30 7289 C 698.888 1.49758 1.43483 0
M  V30 7290 C 699.313 0.119911 1.87717 0
M  V30 7291 O 698.671 -0.888558 1.58033 0
M  V30 7292 C 698.719 2.45744 2.63898 0
M  V30 7293 O 697.823 1.95101 3.63331 0
M  V30 7294 H 697.164 0.506138 0.429791 0
M  V30 7295 H 699.694 1.88923 0.785438 0
M  V30 7296 H 699.704 2.63399 3.11584 0
M  V30 7297 H 698.379 3.45818 2.31046 0
M  V30 7298 H 696.956 1.87158 3.22531 0
M  V30 7299 N 699.141 -0.881989 1.30609 0
M  V30 7300 C 700.387 -1.63647 1.19781 0
M  V30 7301 C 700.72 -1.92632 -0.246265 0
M  V30 7302 O 699.995 -1.54938 -1.17577 0
M  V30 7303 C 700.278 -2.97437 2.02985 0
M  V30 7304 C 700.131 -2.75406 3.55628 0
M  V30 7305 C 701.45 -3.98397 1.86997 0
M  V30 7306 H 698.569 -0.593841 0.436488 0
M  V30 7307 H 701.211 -1.02041 1.60273 0
M  V30 7308 H 699.361 -3.50018 1.68581 0
M  V30 7309 H 701.033 -2.2959 4.00107 0
M  V30 7310 H 699.276 -2.09856 3.79662 0
M  V30 7311 H 699.947 -3.70552 4.09139 0
M  V30 7312 H 702.423 -3.54986 2.17081 0
M  V30 7313 H 701.299 -4.89916 2.47536 0
M  V30 7314 H 701.56 -4.3424 0.829943 0
M  V30 7315 N 700.619 -1.13374 -1.09472 0
M  V30 7316 C 701.868 -0.889844 -1.8101 0
M  V30 7317 C 702.181 0.585686 -1.86625 0
M  V30 7318 O 703.387 0.946497 -2.54467 0
M  V30 7319 C 701.843 -1.54241 -3.25174 0
M  V30 7320 C 701.451 -3.05343 -3.27826 0
M  V30 7321 C 703.195 -1.37919 -4.0147 0
M  V30 7322 C 701.102 -3.63486 -4.6651 0
M  V30 7323 H 700.032 -0.329256 -0.678311 0
M  V30 7324 H 702.683 -1.36139 -1.23038 0
M  V30 7325 H 701.065 -0.998525 -3.83204 0
M  V30 7326 H 702.239 -3.66307 -2.79563 0
M  V30 7327 H 700.554 -3.21175 -2.65019 0
M  V30 7328 H 703.151 -1.78771 -5.03929 0
M  V30 7329 H 703.494 -0.323987 -4.15037 0
M  V30 7330 H 704.027 -1.89284 -3.49881 0
M  V30 7331 H 700.766 -4.68811 -4.58145 0
M  V30 7332 H 700.286 -3.073 -5.15099 0
M  V30 7333 H 701.965 -3.63134 -5.35484 0
M  V30 7334 N 702.098 1.27442 -0.927168 0
M  V30 7335 C 703.514 1.46754 -0.627329 0
M  V30 7336 C 703.714 1.83902 0.823549 0
M  V30 7337 O 702.77 1.95215 1.60148 0
M  V30 7338 C 704.083 2.56045 -1.57674 0
M  V30 7339 C 705.631 2.69906 -1.58491 0
M  V30 7340 C 706.106 3.82355 -2.52128 0
M  V30 7341 N 707.597 3.89728 -2.50332 0
M  V30 7342 C 708.332 4.76155 -3.19475 0
M  V30 7343 N 707.828 5.67073 -3.97995 0
M  V30 7344 N 709.621 4.6988 -3.08496 0
M  V30 7345 H 701.772 1.01613 -1.86517 0
M  V30 7346 H 704.035 0.507443 -0.800753 0
M  V30 7347 H 703.741 2.35542 -2.61176 0
M  V30 7348 H 703.615 3.53423 -1.31804 0
M  V30 7349 H 706.002 2.89792 -0.557208 0
M  V30 7350 H 706.083 1.73018 -1.8841 0
M  V30 7351 H 705.727 3.63224 -3.55008 0
M  V30 7352 H 705.657 4.7867 -2.19505 0
M  V30 7353 H 708.148 3.24717 -1.93306 0
M  V30 7354 H 708.461 6.2988 -4.4774 0
M  V30 7355 H 706.806 5.6687 -4.02098 0
M  V30 7356 H 709.997 3.97848 -2.46646 0
M  V30 7357 H 710.17 5.37017 -3.62652 0
M  V30 7358 N 703.576 0.692616 1.41565 0
M  V30 7359 C 704.508 -0.0137132 2.29196 0
M  V30 7360 C 705.521 -0.747417 1.44629 0
M  V30 7361 O 706.71 -0.598611 1.68163 0
M  V30 7362 C 703.81 -1.04347 3.22436 0
M  V30 7363 C 702.983 -0.379985 4.35746 0
M  V30 7364 C 702.042 -1.31195 5.09583 0
M  V30 7365 O 701.068 -0.805455 5.63472 0
M  V30 7366 N 702.27 -2.64443 5.16769 0
M  V30 7367 H 705.035 0.738614 2.90456 0
M  V30 7368 H 702.596 0.538415 1.52685 0
M  V30 7369 H 704.588 -1.6686 3.687 0
M  V30 7370 H 703.158 -1.69736 2.62504 0
M  V30 7371 H 702.378 0.424975 3.91903 0
M  V30 7372 H 703.666 0.0814904 5.08735 0
M  V30 7373 H 703.064 -3.08114 4.74428 0
M  V30 7374 H 701.621 -3.22159 5.66619 0
M  V30 7375 N 705.054 -1.51416 0.437162 0
M  V30 7376 C 705.984 -2.30631 -0.364922 0
M  V30 7377 C 706.965 -1.36037 -1.02118 0
M  V30 7378 O 708.15 -1.64956 -1.02485 0
M  V30 7379 C 705.28 -3.1482 -1.46648 0
M  V30 7380 C 704.234 -4.17691 -0.933717 0
M  V30 7381 C 703.56 -4.904 -2.13101 0
M  V30 7382 C 704.86 -5.2229 0.0317201 0
M  V30 7383 H 706.554 -2.97932 0.29614 0
M  V30 7384 H 704.1 -1.4328 0.143865 0
M  V30 7385 H 706.053 -3.69017 -2.03481 0
M  V30 7386 H 704.777 -2.4534 -2.15583 0
M  V30 7387 H 703.436 -3.64545 -0.387602 0
M  V30 7388 H 703.084 -4.17423 -2.80654 0
M  V30 7389 H 702.784 -5.59962 -1.78092 0
M  V30 7390 H 704.308 -5.4742 -2.70487 0
M  V30 7391 H 705.722 -5.7156 -0.446302 0
M  V30 7392 H 704.119 -5.99378 0.29437 0
M  V30 7393 H 705.189 -4.75131 0.968447 0
M  V30 7394 N 706.532 -0.168513 -1.56696 0
M  V30 7395 C 707.465 0.801477 -2.13662 0
M  V30 7396 C 708.443 1.22786 -1.06594 0
M  V30 7397 O 709.627 1.32014 -1.34554 0
M  V30 7398 C 706.754 2.07896 -2.6739 0
M  V30 7399 C 705.8 1.79681 -3.86803 0
M  V30 7400 S 706.633 0.968556 -5.26668 0
M  V30 7401 C 707.789 2.25676 -5.83799 0
M  V30 7402 H 708.022 0.317121 -2.95604 0
M  V30 7403 H 705.555 0.0461132 -1.54331 0
M  V30 7404 H 707.513 2.81272 -2.98992 0
M  V30 7405 H 706.174 2.53445 -1.85539 0
M  V30 7406 H 705.367 2.74461 -4.22714 0
M  V30 7407 H 704.969 1.14402 -3.56073 0
M  V30 7408 H 707.261 3.2116 -5.96542 0
M  V30 7409 H 708.204 1.94238 -6.80939 0
M  V30 7410 H 708.612 2.37308 -5.12197 0
M  V30 7411 N 708.01 1.57248 0.105221 0
M  V30 7412 C 708.957 2.01338 1.12835 0
M  V30 7413 C 709.927 0.887897 1.40377 0
M  V30 7414 O 711.112 1.15315 1.5201 0
M  V30 7415 C 708.252 2.43432 2.44611 0
M  V30 7416 C 707.365 3.69457 2.23888 0
M  V30 7417 C 706.5 4.00473 3.48991 0
M  V30 7418 C 705.539 5.19638 3.23485 0
M  V30 7419 N 704.676 5.46457 4.40828 0
M  V30 7420 H 709.516 2.88527 0.745386 0
M  V30 7421 H 707.053 1.42714 0.356535 0
M  V30 7422 H 709.011 2.65879 3.21503 0
M  V30 7423 H 707.641 1.59266 2.80774 0
M  V30 7424 H 706.693 3.54545 1.37847 0
M  V30 7425 H 708.005 4.56497 2.01026 0
M  V30 7426 H 707.159 4.23642 4.34295 0
M  V30 7427 H 705.898 3.11935 3.74897 0
M  V30 7428 H 704.903 4.96299 2.36574 0
M  V30 7429 H 706.128 6.09766 2.98935 0
M  V30 7430 H 704.074 4.60876 4.66829 0
M  V30 7431 H 703.991 6.27849 4.2112 0
M  V30 7432 H 705.259 5.74155 5.27225 0
M  V30 7433 N 709.488 -0.375779 1.53054 0
M  V30 7434 C 710.435 -1.45978 1.78771 0
M  V30 7435 C 711.405 -1.53625 0.631552 0
M  V30 7436 O 712.59 -1.69674 0.872667 0
M  V30 7437 C 709.73 -2.8305 1.97425 0
M  V30 7438 C 708.843 -2.84451 3.25134 0
M  V30 7439 C 707.978 -4.13034 3.34031 0
M  V30 7440 C 707.017 -4.08536 4.55812 0
M  V30 7441 N 706.154 -5.2875 4.61918 0
M  V30 7442 H 710.994 -1.23349 2.71273 0
M  V30 7443 H 708.531 -0.598147 1.3439 0
M  V30 7444 H 710.489 -3.62666 2.06225 0
M  V30 7445 H 709.119 -3.04101 1.0827 0
M  V30 7446 H 708.171 -1.97127 3.25338 0
M  V30 7447 H 709.483 -2.76998 4.14818 0
M  V30 7448 H 708.637 -5.0106 3.42087 0
M  V30 7449 H 707.376 -4.23226 2.42345 0
M  V30 7450 H 706.381 -3.18897 4.47867 0
M  V30 7451 H 707.606 -3.99955 5.48828 0
M  V30 7452 H 705.552 -5.39547 3.73129 0
M  V30 7453 H 705.469 -5.23426 5.45492 0
M  V30 7454 H 706.737 -6.18637 4.74245 0
M  V30 7455 N 710.966 -1.44241 -0.634997 0
M  V30 7456 C 711.876 -1.53293 -1.77591 0
M  V30 7457 C 712.892 -0.418831 -1.68884 0
M  V30 7458 O 714.068 -0.675619 -1.8973 0
M  V30 7459 C 711.133 -1.47075 -3.13958 0
M  V30 7460 C 710.194 -2.69304 -3.34326 0
M  V30 7461 C 709.427 -2.63374 -4.64187 0
M  V30 7462 O 709.65 -1.69161 -5.44739 0
M  V30 7463 O 708.584 -3.54166 -4.86673 0
M  V30 7464 H 712.41 -2.49673 -1.72908 0
M  V30 7465 H 709.995 -1.26445 -0.795745 0
M  V30 7466 H 711.877 -1.46117 -3.95257 0
M  V30 7467 H 710.552 -0.538373 -3.19192 0
M  V30 7468 H 709.459 -2.75831 -2.52721 0
M  V30 7469 H 710.792 -3.61576 -3.33951 0
M  V30 7470 N 712.444 0.87505 -1.31075 0
M  V30 7471 C 713.691 1.62768 -1.20469 0
M  V30 7472 C 714.019 1.93034 0.23834 0
M  V30 7473 O 713.274 1.55693 1.18567 0
M  V30 7474 C 713.573 2.96948 -1.98888 0
M  V30 7475 C 713.239 2.86195 -3.4843 0
M  V30 7476 C 711.901 2.82969 -3.89207 0
M  V30 7477 C 714.253 2.73599 -4.43614 0
M  V30 7478 C 711.581 2.64999 -5.23443 0
M  V30 7479 C 713.933 2.57166 -5.77969 0
M  V30 7480 C 712.597 2.52321 -6.17973 0
M  V30 7481 H 711.867 0.595611 -0.440827 0
M  V30 7482 H 714.514 1.01665 -1.62285 0
M  V30 7483 H 712.819 3.62058 -1.49737 0
M  V30 7484 H 714.516 3.54164 -1.88067 0
M  V30 7485 H 711.106 2.8952 -3.16032 0
M  V30 7486 H 715.29 2.7515 -4.13045 0
M  V30 7487 H 710.546 2.5967 -5.53517 0
M  V30 7488 H 714.72 2.46396 -6.51354 0
M  V30 7489 H 712.347 2.38156 -7.21932 0
M  V30 7490 N 713.922 1.13953 1.08869 0
M  V30 7491 C 715.15 0.92817 1.84912 0
M  V30 7492 C 715.565 -0.523197 1.81406 0
M  V30 7493 O 714.922 -1.36237 1.21432 0
M  V30 7494 C 714.973 1.41509 3.32652 0
M  V30 7495 O 714.694 2.80959 3.36145 0
M  V30 7496 C 716.195 1.243 4.25517 0
M  V30 7497 H 713.415 0.330612 0.583898 0
M  V30 7498 H 715.959 1.51349 1.37527 0
M  V30 7499 H 714.114 0.872648 3.77444 0
M  V30 7500 H 714.528 3.02704 4.28335 0
M  V30 7501 H 716.002 1.63237 5.27312 0
M  V30 7502 H 716.479 0.18532 4.38809 0
M  V30 7503 H 717.085 1.77375 3.86546 0
M  V30 7504 N 715.4 -1.26948 0.933913 0
M  V30 7505 C 716.33 -2.29017 0.45534 0
M  V30 7506 C 717.311 -1.62961 -0.487605 0
M  V30 7507 O 718.496 -1.90223 -0.391022 0
M  V30 7508 C 715.626 -3.46112 -0.287015 0
M  V30 7509 C 714.58 -4.24205 0.568682 0
M  V30 7510 C 713.906 -5.3384 -0.303206 0
M  V30 7511 C 715.206 -4.88954 1.83633 0
M  V30 7512 H 716.9 -2.69298 1.30839 0
M  V30 7513 H 714.446 -1.29459 0.630579 0
M  V30 7514 H 716.399 -4.16622 -0.6328 0
M  V30 7515 H 715.123 -3.04765 -1.17414 0
M  V30 7516 H 713.782 -3.5545 0.897261 0
M  V30 7517 H 713.43 -4.88734 -1.18947 0
M  V30 7518 H 713.13 -5.86998 0.265879 0
M  V30 7519 H 714.654 -6.0719 -0.644423 0
M  V30 7520 H 716.068 -5.51717 1.55823 0
M  V30 7521 H 714.465 -5.52198 2.34941 0
M  V30 7522 H 715.535 -4.12305 2.55211 0
M  V30 7523 N 716.879 -0.700114 -1.41195 0
M  V30 7524 C 717.789 -0.0382854 -2.34569 0
M  V30 7525 C 718.805 0.761036 -1.56474 0
M  V30 7526 O 719.981 0.697553 -1.88934 0
M  V30 7527 C 717.046 0.883522 -3.35253 0
M  V30 7528 C 716.107 0.0758957 -4.29233 0
M  V30 7529 C 715.34 0.9538 -5.25108 0
M  V30 7530 O 715.563 2.19326 -5.26547 0
M  V30 7531 O 714.497 0.401049 -6.00562 0
M  V30 7532 H 718.323 -0.808073 -2.92752 0
M  V30 7533 H 715.908 -0.460479 -1.42127 0
M  V30 7534 H 717.79 1.41199 -3.9704 0
M  V30 7535 H 716.465 1.63272 -2.79506 0
M  V30 7536 H 715.372 -0.497274 -3.7078 0
M  V30 7537 H 716.705 -0.634741 -4.8809 0
M  V30 7538 N 718.357 1.51182 -0.445186 0
M  V30 7539 C 719.604 2.02152 0.118645 0
M  V30 7540 C 719.932 1.32888 1.42025 0
M  V30 7541 O 719.187 0.435041 1.90803 0
M  V30 7542 C 719.486 3.55408 0.376797 0
M  V30 7543 C 719.152 4.43008 -0.839945 0
M  V30 7544 C 717.814 4.66669 -1.17361 0
M  V30 7545 C 720.166 4.9435 -1.65127 0
M  V30 7546 C 717.494 5.38919 -2.31913 0
M  V30 7547 C 719.846 5.67857 -2.78786 0
M  V30 7548 C 718.51 5.89779 -3.12597 0
M  V30 7549 H 717.78 0.739727 0.0434152 0
M  V30 7550 H 720.427 1.82055 -0.593984 0
M  V30 7551 H 718.732 3.73879 1.1714 0
M  V30 7552 H 720.429 3.92388 0.826602 0
M  V30 7553 H 717.019 4.24793 -0.569958 0
M  V30 7554 H 721.203 4.75947 -1.4067 0
M  V30 7555 H 716.459 5.54105 -2.58413 0
M  V30 7556 H 720.633 6.06628 -3.42017 0
M  V30 7557 H 718.26 6.45542 -4.01471 0
M  V30 7558 N 719.835 0.176821 1.56605 0
M  V30 7559 C 721.06 -0.47599 2.01864 0
M  V30 7560 C 721.485 -1.55645 1.05623 0
M  V30 7561 O 720.843 -1.81263 0.0366729 0
M  V30 7562 C 720.891 -1.02619 3.4569 0
M  V30 7563 O 719.995 -2.13996 3.52533 0
M  V30 7564 H 719.336 -0.113363 0.654251 0
M  V30 7565 H 721.866 0.28233 2.02643 0
M  V30 7566 H 721.876 -1.34742 3.85109 0
M  V30 7567 H 720.551 -0.235138 4.15235 0
M  V30 7568 H 719.128 -1.82876 3.24978 0
M  V30 7569 N 721.313 -1.57302 -0.09688 0
M  V30 7570 C 722.729 -1.53094 -0.451041 0
M  V30 7571 C 722.929 -0.893265 -1.80618 0
M  V30 7572 O 721.985 -0.485013 -2.47798 0
M  V30 7573 C 723.298 -2.9782 -0.415172 0
M  V30 7574 C 724.846 -3.09026 -0.497155 0
M  V30 7575 C 725.321 -4.55356 -0.491452 0
M  V30 7576 N 726.812 -4.59896 -0.552258 0
M  V30 7577 C 727.547 -5.70563 -0.569654 0
M  V30 7578 N 727.043 -6.90666 -0.543365 0
M  V30 7579 N 728.836 -5.58733 -0.614331 0
M  V30 7580 H 720.987 -1.97131 0.790771 0
M  V30 7581 H 723.25 -0.901211 0.294147 0
M  V30 7582 H 722.956 -3.47933 0.513362 0
M  V30 7583 H 722.83 -3.56416 -1.23481 0
M  V30 7584 H 725.217 -2.58902 -1.41611 0
M  V30 7585 H 725.298 -2.53386 0.35059 0
M  V30 7586 H 724.942 -5.06131 0.423549 0
M  V30 7587 H 724.872 -5.08832 -1.35639 0
M  V30 7588 H 727.363 -3.73456 -0.577842 0
M  V30 7589 H 727.676 -7.70769 -0.559873 0
M  V30 7590 H 726.021 -6.93123 -0.510441 0
M  V30 7591 H 729.212 -4.63809 -0.632387 0
M  V30 7592 H 729.385 -6.44984 -0.62442 0
M  V30 7593 N 722.791 0.367657 -1.53252 0
M  V30 7594 C 724.068 1.12606 -1.59935 0
M  V30 7595 C 724.448 2.07167 -0.405606 0
M  V30 7596 O 723.796 2.20364 0.604323 0
M  V30 7597 C 724.006 1.86699 -2.94863 0
M  V30 7598 C 725.354 2.41306 -3.49366 0
M  V30 7599 O 726.378 1.96828 -2.96879 0
M  V30 7600 O 725.237 3.2261 -4.41118 0
M  V30 7601 H 722.331 0.516438 -0.645926 0
M  V30 7602 H 724.877 0.371088 -1.65593 0
M  V30 7603 H 723.649 1.17674 -3.73187 0
M  V30 7604 H 723.272 2.6911 -2.92687 0
M  V30 7605 N 724.269 1.44576 0.627338 0
M  V30 7606 C 725.685 1.28546 0.945938 0
M  V30 7607 C 725.885 0.224003 2.00251 0
M  V30 7608 O 724.941 -0.388817 2.49488 0
M  V30 7609 C 726.254 2.65825 1.40561 0
M  V30 7610 C 727.802 2.73566 1.52088 0
M  V30 7611 C 728.277 4.11323 2.01438 0
M  V30 7612 N 729.768 4.13519 2.08702 0
M  V30 7613 C 730.503 5.16964 2.48065 0
M  V30 7614 N 729.999 6.30768 2.86538 0
M  V30 7615 N 731.792 5.04319 2.48232 0
M  V30 7616 H 723.943 2.1228 -0.0713567 0
M  V30 7617 H 726.206 0.947503 0.0307081 0
M  V30 7618 H 725.912 3.44591 0.703539 0
M  V30 7619 H 725.786 2.92969 2.37591 0
M  V30 7620 H 728.173 1.95116 2.21391 0
M  V30 7621 H 728.254 2.50159 0.534237 0
M  V30 7622 H 727.898 4.9025 1.32729 0
M  V30 7623 H 727.828 4.32109 3.0098 0
M  V30 7624 H 730.319 3.31385 1.81638 0
M  V30 7625 H 730.632 7.0551 3.15398 0
M  V30 7626 H 728.977 6.342 2.84281 0
M  V30 7627 H 732.168 4.14465 2.17569 0
M  V30 7628 H 732.341 5.85059 2.78585 0
M  V30 7629 N 725.747 -0.868086 1.31537 0
M  V30 7630 C 726.694 -1.97548 1.19346 0
M  V30 7631 C 727.664 -1.65913 0.0787922 0
M  V30 7632 O 728.849 -1.89129 0.251985 0
M  V30 7633 C 725.989 -3.32922 0.908692 0
M  V30 7634 C 725.102 -3.77141 2.10687 0
M  V30 7635 C 724.237 -5.01241 1.75873 0
M  V30 7636 C 723.276 -5.37914 2.92088 0
M  V30 7637 N 722.413 -6.53192 2.57457 0
M  V30 7638 H 727.253 -2.07307 2.14074 0
M  V30 7639 H 724.79 -1.01483 1.06487 0
M  V30 7640 H 726.748 -4.10867 0.724138 0
M  V30 7641 H 725.378 -3.228 -0.0017611 0
M  V30 7642 H 724.43 -2.94961 2.40213 0
M  V30 7643 H 725.742 -4.00248 2.97663 0
M  V30 7644 H 724.896 -5.86858 1.53891 0
M  V30 7645 H 723.635 -4.80041 0.86091 0
M  V30 7646 H 722.64 -4.50814 3.14717 0
M  V30 7647 H 723.865 -5.61077 3.82582 0
M  V30 7648 H 721.811 -6.33536 1.702 0
M  V30 7649 H 721.728 -6.76252 3.37963 0
M  V30 7650 H 722.996 -7.41997 2.38873 0
M  V30 7651 N 727.225 -1.14528 -1.08264 0
M  V30 7652 C 728.45 -0.938381 -1.84957 0
M  V30 7653 C 728.875 0.508044 -1.81109 0
M  V30 7654 O 728.233 1.36146 -1.19724 0
M  V30 7655 C 728.281 -1.44568 -3.30352 0
M  V30 7656 O 727.385 -0.638745 -4.07423 0
M  V30 7657 H 726.726 -0.335394 -0.573068 0
M  V30 7658 H 729.256 -1.52287 -1.36637 0
M  V30 7659 H 729.266 -1.45449 -3.81194 0
M  V30 7660 H 727.941 -2.49876 -3.32468 0
M  V30 7661 H 726.518 -0.698801 -3.66294 0
M  V30 7662 N 728.703 1.26451 -0.940633 0
M  V30 7663 C 729.636 2.24771 -0.394094 0
M  V30 7664 C 730.614 1.54169 0.516781 0
M  V30 7665 O 731.798 1.82942 0.454352 0
M  V30 7666 C 728.925 3.3591 0.433807 0
M  V30 7667 C 727.971 4.24472 -0.415464 0
M  V30 7668 S 728.804 5.0293 -1.83907 0
M  V30 7669 C 729.96 6.17546 -1.01921 0
M  V30 7670 H 730.193 2.70782 -1.22737 0
M  V30 7671 H 727.726 1.35308 -0.743709 0
M  V30 7672 H 729.684 4.00387 0.905576 0
M  V30 7673 H 728.345 2.88512 1.24175 0
M  V30 7674 H 727.538 5.03525 0.218833 0
M  V30 7675 H 727.14 3.64857 -0.821897 0
M  V30 7676 H 729.432 6.76996 -0.261227 0
M  V30 7677 H 730.375 6.8528 -1.78318 0
M  V30 7678 H 730.783 5.6176 -0.555511 0
M  V30 7679 N 730.181 0.707592 1.40822 0
M  V30 7680 C 731.406 0.251626 2.05868 0
M  V30 7681 C 731.831 -1.09503 1.5294 0
M  V30 7682 O 731.189 -1.68806 0.661385 0
M  V30 7683 C 731.237 0.23287 3.59847 0
M  V30 7684 O 730.341 -0.788477 4.04792 0
M  V30 7685 H 729.682 0.119936 0.653078 0
M  V30 7686 H 732.212 0.96583 1.80369 0
M  V30 7687 H 732.222 0.0678204 4.07944 0
M  V30 7688 H 730.897 1.21565 3.97737 0
M  V30 7689 H 729.474 -0.591802 3.68174 0
M  V30 7690 N 731.66 -1.50943 0.453197 0
M  V30 7691 C 732.906 -2.02512 -0.108082 0
M  V30 7692 C 733.239 -1.33574 -1.40967 0
M  V30 7693 O 732.514 -0.455671 -1.89087 0
M  V30 7694 C 732.797 -3.58759 -0.310453 0
M  V30 7695 C 732.65 -4.38293 1.0109 0
M  V30 7696 C 733.969 -4.26816 -1.07313 0
M  V30 7697 H 731.088 -0.73603 -0.0378064 0
M  V30 7698 H 733.73 -1.80433 0.595295 0
M  V30 7699 H 731.88 -3.77702 -0.909582 0
M  V30 7700 H 733.552 -4.30964 1.64523 0
M  V30 7701 H 731.795 -4.02745 1.61179 0
M  V30 7702 H 732.466 -5.45828 0.82315 0
M  V30 7703 H 734.942 -4.1224 -0.565473 0
M  V30 7704 H 733.818 -5.35989 -1.1835 0
M  V30 7705 H 734.079 -3.88757 -2.10525 0
M  V30 7706 N 733.138 -0.185124 -1.56509 0
M  V30 7707 C 734.368 0.461469 -2.0138 0
M  V30 7708 C 734.776 1.56417 -1.06445 0
M  V30 7709 O 734.119 1.83603 -0.0597515 0
M  V30 7710 C 734.181 1.08731 -3.42663 0
M  V30 7711 C 733.845 0.124581 -4.5683 0
M  V30 7712 C 734.842 -0.662295 -5.15664 0
M  V30 7713 C 732.527 0.0163947 -5.02297 0
M  V30 7714 C 734.521 -1.54442 -6.18406 0
M  V30 7715 C 732.208 -0.869301 -6.04885 0
M  V30 7716 C 733.206 -1.64828 -6.62813 0
M  V30 7717 O 732.894 -2.51915 -7.63409 0
M  V30 7718 H 732.626 0.1212 -0.665046 0
M  V30 7719 H 735.18 -0.288119 -2.03369 0
M  V30 7720 H 733.41 1.8853 -3.37629 0
M  V30 7721 H 735.099 1.63753 -3.71403 0
M  V30 7722 H 735.865 -0.588963 -4.81411 0
M  V30 7723 H 731.744 0.61253 -4.56913 0
M  V30 7724 H 735.288 -2.15289 -6.63548 0
M  V30 7725 H 731.185 -0.943786 -6.38563 0
M  V30 7726 H 731.953 -2.45584 -7.80789 0
M  V30 7727 N 734.616 1.57351 0.0885366 0
M  V30 7728 C 735.856 1.88248 0.796362 0
M  V30 7729 C 736.22 0.776915 1.75579 0
M  V30 7730 O 737.421 0.968485 2.50747 0
M  V30 7731 C 735.692 3.24385 1.50031 0
M  V30 7732 S 737.251 3.76991 2.24551 0
M  V30 7733 H 734.069 0.659697 0.265181 0
M  V30 7734 H 736.671 1.95428 0.0531843 0
M  V30 7735 H 735.375 4.02764 0.788 0
M  V30 7736 H 734.906 3.20361 2.28325 0
M  V30 7737 H 736.921 3.50933 3.508 0
M  V30 7738 N 736.094 -0.359525 1.53444 0
M  V30 7739 C 737.319 -1.12644 1.74144 0
M  V30 7740 C 737.744 -1.82082 0.472007 0
M  V30 7741 O 737.102 -1.71962 -0.57436 0
M  V30 7742 C 737.15 -2.12781 2.9113 0
M  V30 7743 O 736.254 -3.19984 2.60162 0
M  V30 7744 H 735.595 -0.326553 0.578152 0
M  V30 7745 H 738.125 -0.414798 2.00351 0
M  V30 7746 H 738.135 -2.56278 3.17467 0
M  V30 7747 H 736.81 -1.61634 3.83207 0
M  V30 7748 H 735.387 -2.81417 2.44661 0
M  V30 7749 N 737.572 -1.44907 -0.619662 0
M  V30 7750 C 738.983 -1.42905 -1.20146 0
M  V30 7751 C 739.334 -0.150341 -1.95623 0
M  V30 7752 O 738.459 0.748732 -2.03034 0
M  V30 7753 C 739.054 -2.58889 -2.18545 0
M  V30 7754 C 737.613 -2.60046 -2.72127 0
M  V30 7755 C 736.76 -2.3493 -1.4732 0
M  V30 7756 H 739.711 -1.53321 -0.409666 0
M  V30 7757 H 739.732 -2.32298 -3.0136 0
M  V30 7758 H 739.244 -3.51941 -1.63583 0
M  V30 7759 H 737.345 -1.70968 -3.3106 0
M  V30 7760 H 737.458 -3.58893 -3.17384 0
M  V30 7761 H 735.822 -1.84248 -1.75855 0
M  V30 7762 H 736.605 -3.3011 -0.942442 0
M  V30 7763 N 739.05 0.861098 -1.31996 0
M  V30 7764 C 740.013 1.95068 -1.20338 0
M  V30 7765 C 741.013 1.60289 -0.128114 0
M  V30 7766 O 742.203 1.70048 -0.378044 0
M  V30 7767 C 739.335 3.30153 -0.849205 0
M  V30 7768 H 740.528 2.06833 -2.17164 0
M  V30 7769 H 738.081 1.05049 -1.15734 0
M  V30 7770 H 738.816 3.24087 0.117508 0
M  V30 7771 H 738.601 3.56771 -1.62655 0
M  V30 7772 H 740.091 4.10025 -0.791782 0
M  V30 7773 N 740.528 1.15101 1.07655 0
M  V30 7774 C 741.475 0.844958 2.14777 0
M  V30 7775 C 742.445 -0.200798 1.64882 0
M  V30 7776 O 743.63 -0.0690278 1.90675 0
M  V30 7777 C 740.77 0.337018 3.4345 0
M  V30 7778 C 739.883 1.44398 4.07153 0
M  V30 7779 C 739.018 0.892487 5.23649 0
M  V30 7780 C 738.057 1.9766 5.79307 0
M  V30 7781 N 737.194 1.44171 6.87138 0
M  V30 7782 H 742.034 1.76242 2.40297 0
M  V30 7783 H 739.571 0.879435 1.17917 0
M  V30 7784 H 741.529 0.024256 4.17193 0
M  V30 7785 H 740.159 -0.543531 3.18191 0
M  V30 7786 H 739.211 1.87299 3.31094 0
M  V30 7787 H 740.523 2.26262 4.4453 0
M  V30 7788 H 739.677 0.532083 6.04362 0
M  V30 7789 H 738.416 0.0429854 4.87681 0
M  V30 7790 H 737.421 2.34586 4.97242 0
M  V30 7791 H 738.646 2.82982 6.17331 0
M  V30 7792 H 736.592 0.614518 6.53115 0
M  V30 7793 H 736.509 2.19665 7.23383 0
M  V30 7794 H 737.777 1.10945 7.71564 0
M  V30 7795 N 742.006 -1.2595 0.947325 0
M  V30 7796 C 743.231 -1.98083 0.614633 0
M  V30 7797 C 743.656 -1.70013 -0.804815 0
M  V30 7798 O 743.014 -0.95175 -1.54309 0
M  V30 7799 C 743.062 -3.4993 0.870706 0
M  V30 7800 O 742.166 -4.12364 -0.0541451 0
M  V30 7801 H 741.507 -0.621232 0.234451 0
M  V30 7802 H 744.037 -1.60259 1.27193 0
M  V30 7803 H 744.047 -4.00198 0.794051 0
M  V30 7804 H 742.722 -3.69691 1.90529 0
M  V30 7805 H 741.299 -3.72826 0.0740917 0
M  V30 7806 N 743.484 -0.715051 -1.40445 0
M  V30 7807 C 744.709 -0.26254 -2.05732 0
M  V30 7808 C 745.134 1.08691 -1.53519 0
M  V30 7809 O 744.492 1.68453 -0.670328 0
M  V30 7810 C 744.54 -0.25195 -3.59719 0
M  V30 7811 O 743.644 0.766998 -4.05205 0
M  V30 7812 H 742.985 -0.123398 -0.652433 0
M  V30 7813 H 745.515 -0.975382 -1.79854 0
M  V30 7814 H 745.525 -0.0894537 -4.07902 0
M  V30 7815 H 744.2 -1.23672 -3.97087 0
M  V30 7816 H 742.777 0.572269 -3.68483 0
M  V30 7817 N 744.962 1.50701 -0.461195 0
M  V30 7818 C 746.378 1.59187 -0.114786 0
M  V30 7819 C 746.578 1.4702 1.37794 0
M  V30 7820 O 745.634 1.32361 2.15027 0
M  V30 7821 C 746.947 2.93453 -0.656167 0
M  V30 7822 C 748.495 3.06824 -0.618715 0
M  V30 7823 C 748.97 4.4365 -1.13747 0
M  V30 7824 N 750.461 4.50035 -1.09646 0
M  V30 7825 C 751.196 5.54278 -1.46846 0
M  V30 7826 N 750.692 6.65822 -1.91448 0
M  V30 7827 N 752.485 5.44767 -1.38512 0
M  V30 7828 H 744.636 1.56853 -1.43216 0
M  V30 7829 H 746.899 0.740712 -0.59165 0
M  V30 7830 H 746.605 3.07802 -1.7015 0
M  V30 7831 H 746.479 3.77082 -0.0942261 0
M  V30 7832 H 748.866 2.92129 0.417685 0
M  V30 7833 H 748.947 2.24976 -1.21734 0
M  V30 7834 H 748.591 4.59093 -2.17245 0
M  V30 7835 H 748.521 5.24074 -0.515153 0
M  V30 7836 H 751.012 3.69988 -0.769217 0
M  V30 7837 H 751.325 7.41413 -2.18007 0
M  V30 7838 H 749.67 6.66968 -1.95393 0
M  V30 7839 H 752.861 4.56511 -1.03516 0
M  V30 7840 H 753.034 6.25889 -1.6783 0
M  V30 7841 N 746.441 0.193421 1.56409 0
M  V30 7842 C 747.404 -0.714371 2.17783 0
M  V30 7843 C 748.404 -1.1422 1.13183 0
M  V30 7844 O 749.594 -1.05557 1.38576 0
M  V30 7845 C 746.726 -1.97509 2.77855 0
M  V30 7846 H 747.919 -0.179714 2.99361 0
M  V30 7847 H 745.472 -0.0561944 1.56199 0
M  V30 7848 H 746.207 -2.5523 2.0007 0
M  V30 7849 H 745.992 -1.67706 3.54425 0
M  V30 7850 H 747.482 -2.62246 3.24987 0
M  V30 7851 N 747.919 -1.57396 -0.0801906 0
M  V30 7852 C 748.882 -2.02133 -1.0805 0
M  V30 7853 C 749.882 -0.91707 -1.32085 0
M  V30 7854 O 751.072 -1.18217 -1.27947 0
M  V30 7855 C 748.204 -2.39479 -2.42616 0
M  V30 7856 H 749.397 -2.91733 -0.6951 0
M  V30 7857 H 746.95 -1.52869 -0.325677 0
M  V30 7858 H 747.685 -1.52879 -2.86004 0
M  V30 7859 H 747.47 -3.20052 -2.26515 0
M  V30 7860 H 748.96 -2.74697 -3.14534 0
M  V30 7861 N 749.397 0.351382 -1.53633 0
M  V30 7862 C 750.643 1.09411 -1.70754 0
M  V30 7863 C 750.976 1.88544 -0.465293 0
M  V30 7864 O 750.251 1.86923 0.537608 0
M  V30 7865 C 750.534 2.04173 -2.96623 0
M  V30 7866 C 750.387 1.28556 -4.31038 0
M  V30 7867 C 751.706 3.04102 -3.18136 0
M  V30 7868 H 748.825 0.396373 -0.621335 0
M  V30 7869 H 751.467 0.373464 -1.86293 0
M  V30 7870 H 749.617 2.65625 -2.83506 0
M  V30 7871 H 751.289 0.697786 -4.55992 0
M  V30 7872 H 749.532 0.587498 -4.29803 0
M  V30 7873 H 750.203 1.97989 -5.15271 0
M  V30 7874 H 752.679 2.5276 -3.30532 0
M  V30 7875 H 751.555 3.67616 -4.07615 0
M  V30 7876 H 751.816 3.75053 -2.34068 0
M  V30 7877 N 750.875 1.45233 0.611969 0
M  V30 7878 C 752.123 1.48727 1.36838 0
M  V30 7879 C 752.444 0.128616 1.94575 0
M  V30 7880 O 751.714 -0.84149 1.76906 0
M  V30 7881 H 750.294 0.547695 0.507976 0
M  V30 7882 H 752.956 1.81156 0.718925 0
M  V30 7883 H 752.052 2.2236 2.19003 0
M  V30 7884 N 752.353 -0.854086 1.3245 0
M  V30 7885 C 753.301 -1.98411 1.21391 0
M  V30 7886 C 754.295 -1.68984 0.118586 0
M  V30 7887 O 755.501 -1.77784 0.281549 0
M  V30 7888 H 751.876 -0.651077 0.376301 0
M  V30 7889 H 753.847 -2.04867 2.16961 0
M  V30 7890 C 752.596 -3.34345 0.954407 0
M  V30 7891 H 751.919 -3.57518 1.78944 0
M  V30 7892 H 753.359 -4.13959 0.917269 0
M  V30 7893 C 751.818 -3.35151 -0.342838 0
M  V30 7894 O 752.348 -3.78174 -1.35452 0
M  V30 7895 N 750.554 -2.88298 -0.365012 0
M  V30 7896 H 750.101 -2.53481 0.4588 0
M  V30 7897 H 750.059 -2.8922 -1.23284 0
M  V30 7898 N 753.831 -1.1567 -1.07043 0
M  V30 7899 C 754.778 -0.856336 -2.14326 0
M  V30 7900 C 755.748 0.192051 -1.64986 0
M  V30 7901 O 756.933 0.0589148 -1.90709 0
M  V30 7902 C 754.073 -0.355227 -3.43267 0
M  V30 7903 C 753.186 -1.46555 -4.06381 0
M  V30 7904 C 752.321 -0.920245 -5.23168 0
M  V30 7905 C 751.36 -2.00729 -5.78251 0
M  V30 7906 N 750.497 -1.47813 -6.86364 0
M  V30 7907 H 755.337 -1.77514 -2.39359 0
M  V30 7908 H 752.874 -0.885676 -1.17449 0
M  V30 7909 H 754.832 -0.0463804 -4.17174 0
M  V30 7910 H 753.462 0.526649 -3.18475 0
M  V30 7911 H 752.514 -1.89052 -3.30096 0
M  V30 7912 H 753.826 -2.28616 -4.43324 0
M  V30 7913 H 752.98 -0.564127 -6.04072 0
M  V30 7914 H 751.719 -0.0688477 -4.87651 0
M  V30 7915 H 750.724 -2.3722 -4.95991 0
M  V30 7916 H 751.949 -2.86252 -6.15822 0
M  V30 7917 H 749.895 -0.649145 -6.5278 0
M  V30 7918 H 749.812 -2.23498 -7.22208 0
M  V30 7919 H 751.08 -1.15036 -7.70965 0
M  V30 7920 N 755.309 1.25446 -0.953992 0
M  V30 7921 C 756.242 2.24341 -0.417912 0
M  V30 7922 C 757.22 1.54709 0.5004 0
M  V30 7923 O 758.404 1.83414 0.434923 0
M  V30 7924 C 755.531 3.36352 0.398155 0
M  V30 7925 C 754.577 4.24007 -0.460461 0
M  V30 7926 S 755.41 5.00951 -1.89231 0
M  V30 7927 C 756.566 6.1643 -1.08465 0
M  V30 7928 H 756.799 2.69465 -1.25602 0
M  V30 7929 H 754.332 1.34512 -0.758018 0
M  V30 7930 H 756.29 4.01325 0.863059 0
M  V30 7931 H 754.951 2.89813 1.21108 0
M  V30 7932 H 754.144 5.03728 0.165415 0
M  V30 7933 H 753.746 3.63965 -0.860549 0
M  V30 7934 H 756.038 6.76681 -0.333017 0
M  V30 7935 H 756.981 6.8335 -1.85577 0
M  V30 7936 H 757.389 5.61139 -0.615062 0
M  V30 7937 N 756.787 0.722489 1.40064 0
M  V30 7938 C 758.034 0.264979 2.00759 0
M  V30 7939 C 758.362 -1.14395 1.57302 0
M  V30 7940 O 757.617 -1.79165 0.787298 0
M  V30 7941 C 757.916 0.300682 3.56133 0
M  V30 7942 C 757.582 1.66087 4.19197 0
M  V30 7943 C 756.244 2.03319 4.36136 0
M  V30 7944 C 758.596 2.55452 4.54306 0
M  V30 7945 C 755.924 3.29448 4.8547 0
M  V30 7946 C 758.276 3.8094 5.05042 0
M  V30 7947 C 756.94 4.1828 5.2019 0
M  V30 7948 H 756.21 0.0969625 0.734629 0
M  V30 7949 H 758.857 0.926877 1.67575 0
M  V30 7950 H 757.162 -0.44479 3.89267 0
M  V30 7951 H 758.859 -0.0712542 4.00937 0
M  V30 7952 H 755.449 1.36137 4.06405 0
M  V30 7953 H 759.633 2.27961 4.40849 0
M  V30 7954 H 754.889 3.58338 4.95382 0
M  V30 7955 H 759.063 4.50351 5.31184 0
M  V30 7956 H 756.69 5.16081 5.58179 0
M  V30 7957 N 758.265 -1.50454 0.469181 0
M  V30 7958 C 759.511 -2.02615 -0.0865971 0
M  V30 7959 C 759.844 -1.35062 -1.39542 0
M  V30 7960 O 759.119 -0.475701 -1.88593 0
M  V30 7961 C 759.402 -3.59068 -0.272385 0
M  V30 7962 C 759.255 -4.37196 1.05733 0
M  V30 7963 C 760.574 -4.2793 -1.0278 0
M  V30 7964 H 757.693 -0.736389 -0.0299977 0
M  V30 7965 H 760.335 -1.79792 0.614399 0
M  V30 7966 H 758.485 -3.78646 -0.869471 0
M  V30 7967 H 760.157 -4.29195 1.69084 0
M  V30 7968 H 758.4 -4.01013 1.65442 0
M  V30 7969 H 759.071 -5.44924 0.880997 0
M  V30 7970 H 761.547 -4.12816 -0.521718 0
M  V30 7971 H 760.423 -5.37214 -1.12659 0
M  V30 7972 H 760.684 -3.90968 -2.0639 0
M  V30 7973 N 759.743 -0.201713 -1.56304 0
M  V30 7974 C 760.69 0.716499 -2.19397 0
M  V30 7975 C 761.66 1.20494 -1.14326 0
M  V30 7976 O 762.845 1.26763 -1.42604 0
M  V30 7977 C 759.985 1.92762 -2.86246 0
M  V30 7978 C 759.098 1.47993 -4.0586 0
M  V30 7979 C 758.233 2.64706 -4.60547 0
M  V30 7980 C 757.272 2.16576 -5.72504 0
M  V30 7981 N 756.409 3.26491 -6.21569 0
M  V30 7982 H 761.249 0.171724 -2.97505 0
M  V30 7983 H 758.786 0.073016 -1.46919 0
M  V30 7984 H 760.744 2.6384 -3.23178 0
M  V30 7985 H 759.374 2.44559 -2.10691 0
M  V30 7986 H 758.426 0.66477 -3.74546 0
M  V30 7987 H 759.738 1.08686 -4.86815 0
M  V30 7988 H 758.892 3.43898 -4.99819 0
M  V30 7989 H 757.631 3.0729 -3.78713 0
M  V30 7990 H 756.636 1.3584 -5.32755 0
M  V30 7991 H 757.861 1.75015 -6.56161 0
M  V30 7992 H 755.807 3.68594 -5.42655 0
M  V30 7993 H 755.724 2.91374 -6.97594 0
M  V30 7994 H 756.992 4.05877 -6.65495 0
M  V30 7995 N 761.222 1.57436 0.0718424 0
M  V30 7996 C 762.47 1.86878 0.769484 0
M  V30 7997 C 762.791 0.7937 1.78116 0
M  V30 7998 O 762.061 -0.177642 1.95093 0
M  V30 7999 H 760.641 0.689593 0.287177 0
M  V30 8000 H 763.303 1.94841 0.0479427 0
M  V30 8001 H 762.399 2.84387 1.28572 0
M  V30 8002 N 762.7 -0.34323 1.53817 0
M  V30 8003 C 763.663 -1.40444 1.8113 0
M  V30 8004 C 764.663 -1.45604 0.682366 0
M  V30 8005 O 765.853 -1.45974 0.950649 0
M  V30 8006 C 762.985 -2.79369 1.95361 0
M  V30 8007 H 764.178 -1.17489 2.75928 0
M  V30 8008 H 761.731 -0.577636 1.45234 0
M  V30 8009 H 762.466 -3.07607 1.02707 0
M  V30 8010 H 762.251 -2.7702 2.77493 0
M  V30 8011 H 763.741 -3.56178 2.18008 0
M  V30 8012 N 764.178 -1.45556 -0.604258 0
M  V30 8013 C 765.589 -1.44171 -1.18624 0
M  V30 8014 C 765.94 -0.171081 -1.95453 0
M  V30 8015 O 765.065 0.727156 -2.03817 0
M  V30 8016 C 765.66 -2.61193 -2.15786 0
M  V30 8017 C 764.219 -2.62918 -2.69353 0
M  V30 8018 C 763.366 -2.36479 -1.4482 0
M  V30 8019 H 766.317 -1.53747 -0.393381 0
M  V30 8020 H 766.338 -2.35481 -2.98879 0
M  V30 8021 H 765.85 -3.53656 -1.59841 0
M  V30 8022 H 763.951 -1.7447 -3.29228 0
M  V30 8023 H 764.064 -3.6224 -3.13559 0
M  V30 8024 H 762.428 -1.86103 -1.73891 0
M  V30 8025 H 763.211 -3.31091 -0.907376 0
M  V30 8026 N 765.656 0.84705 -1.32902 0
M  V30 8027 C 766.566 1.98845 -1.2449 0
M  V30 8028 C 767.582 1.7329 -0.15702 0
M  V30 8029 O 768.758 1.978 -0.379104 0
M  V30 8030 C 765.823 3.32679 -0.975985 0
M  V30 8031 C 764.884 3.71405 -2.15306 0
M  V30 8032 C 764.117 4.98853 -1.89688 0
M  V30 8033 O 764.34 5.64134 -0.843168 0
M  V30 8034 O 763.274 5.34889 -2.76002 0
M  V30 8035 H 767.1 2.0888 -2.2046 0
M  V30 8036 H 764.685 0.978852 -1.12867 0
M  V30 8037 H 766.567 4.12885 -0.842826 0
M  V30 8038 H 765.242 3.23667 -0.0464954 0
M  V30 8039 H 764.149 2.91743 -2.34172 0
M  V30 8040 H 765.482 3.85073 -3.06561 0
M  V30 8041 N 767.134 1.16236 1.06428 0
M  V30 8042 C 768.382 0.941171 1.78847 0
M  V30 8043 C 768.703 -0.53248 1.87589 0
M  V30 8044 O 767.973 -1.38686 1.38358 0
M  V30 8045 H 766.553 0.345228 0.66244 0
M  V30 8046 H 769.215 1.46479 1.28569 0
M  V30 8047 H 768.311 1.35871 2.80972 0
M  V30 8048 N 768.612 -1.24939 0.960631 0
M  V30 8049 C 769.858 -1.93104 0.61958 0
M  V30 8050 C 770.191 -1.74991 -0.84212 0
M  V30 8051 O 769.466 -1.09867 -1.60498 0
M  V30 8052 C 769.749 -3.46326 0.986422 0
M  V30 8053 C 769.602 -3.73638 2.50429 0
M  V30 8054 C 770.921 -4.37067 0.515827 0
M  V30 8055 H 768.04 -0.701311 0.226566 0
M  V30 8056 H 770.682 -1.47442 1.19836 0
M  V30 8057 H 768.832 -3.85348 0.493907 0
M  V30 8058 H 770.504 -3.44217 3.07103 0
M  V30 8059 H 768.747 -3.19035 2.93937 0
M  V30 8060 H 769.418 -4.80815 2.71147 0
M  V30 8061 H 771.894 -4.05381 0.938389 0
M  V30 8062 H 770.77 -5.43022 0.80114 0
M  V30 8063 H 771.031 -4.38224 -0.584171 0
M  V30 8064 N 770.09 -0.729906 -1.39679 0
M  V30 8065 C 771.339 -0.272534 -1.9985 0
M  V30 8066 C 771.652 1.14519 -1.58571 0
M  V30 8067 O 772.858 1.70182 -2.11543 0
M  V30 8068 C 771.314 -0.436322 -3.57245 0
M  V30 8069 C 770.922 -1.86161 -4.0749 0
M  V30 8070 C 772.666 -0.0404679 -4.24481 0
M  V30 8071 C 770.573 -1.97522 -5.5744 0
M  V30 8072 H 769.503 -0.0981428 -0.747585 0
M  V30 8073 H 772.154 -0.903056 -1.59741 0
M  V30 8074 H 770.536 0.263015 -3.95126 0
M  V30 8075 H 771.71 -2.59248 -3.80955 0
M  V30 8076 H 770.025 -2.21021 -3.529 0
M  V30 8077 H 772.622 -0.104437 -5.34598 0
M  V30 8078 H 772.965 1.00357 -4.04023 0
M  V30 8079 H 773.498 -0.690774 -3.91757 0
M  V30 8080 H 770.237 -3.00096 -5.82771 0
M  V30 8081 H 769.757 -1.28864 -5.85794 0
M  V30 8082 H 771.436 -1.754 -6.22771 0
M  V30 8083 N 771.568 1.50203 -0.477153 0
M  V30 8084 C 772.845 1.95115 0.137609 0
M  V30 8085 C 773.225 1.41778 1.56404 0
M  V30 8086 O 772.573 0.621333 2.1989 0
M  V30 8087 C 772.783 3.4892 0.0747168 0
M  V30 8088 C 774.131 4.238 0.260585 0
M  V30 8089 O 775.155 3.5588 0.151021 0
M  V30 8090 O 774.014 5.44366 0.482534 0
M  V30 8091 H 771.108 0.81987 0.108364 0
M  V30 8092 H 773.654 1.60946 -0.537989 0
M  V30 8093 H 772.426 3.80308 -0.920966 0
M  V30 8094 H 772.049 3.89642 0.791509 0
M  V30 8095 N 773.046 0.209999 1.56195 0
M  V30 8096 C 774.462 -0.145598 1.58934 0
M  V30 8097 C 774.662 -1.59868 1.22656 0
M  V30 8098 O 773.718 -2.33689 0.956336 0
M  V30 8099 C 775.031 0.170243 3.00218 0
M  V30 8100 C 776.579 0.111548 3.12801 0
M  V30 8101 C 777.054 0.400904 4.56242 0
M  V30 8102 N 778.545 0.350058 4.61875 0
M  V30 8103 C 779.28 0.547598 5.70779 0
M  V30 8104 N 778.776 0.806291 6.88092 0
M  V30 8105 N 780.569 0.480827 5.6004 0
M  V30 8106 H 772.72 1.15804 1.78054 0
M  V30 8107 H 774.983 0.463326 0.827063 0
M  V30 8108 H 774.689 1.17833 3.31373 0
M  V30 8109 H 774.563 -0.520208 3.73596 0
M  V30 8110 H 776.95 -0.887162 2.81449 0
M  V30 8111 H 777.031 0.835302 2.41777 0
M  V30 8112 H 776.675 1.397 4.8831 0
M  V30 8113 H 776.605 -0.34391 5.25476 0
M  V30 8114 H 779.096 0.157334 3.77572 0
M  V30 8115 H 779.409 0.945433 7.66995 0
M  V30 8116 H 777.754 0.843355 6.89864 0
M  V30 8117 H 780.945 0.279037 4.67268 0
M  V30 8118 H 781.118 0.638189 6.4485 0
M  V30 8119 N 774.524 -1.57472 -0.0634922 0
M  V30 8120 C 775.764 -1.89491 -0.766312 0
M  V30 8121 C 776.128 -0.80475 -1.74321 0
M  V30 8122 O 777.329 -1.00825 -2.49174 0
M  V30 8123 C 775.6 -3.26731 -1.44851 0
M  V30 8124 S 777.159 -3.80516 -2.18525 0
M  V30 8125 H 773.977 -0.663832 -0.254653 0
M  V30 8126 H 776.579 -1.95488 -0.0220867 0
M  V30 8127 H 775.283 -4.03967 -0.723824 0
M  V30 8128 H 774.814 -3.23953 -2.232 0
M  V30 8129 H 776.829 -3.5647 -3.45172 0
M  V30 8130 N 776.003 0.335068 -1.53997 0
M  V30 8131 C 776.951 1.43206 -1.83289 0
M  V30 8132 C 777.945 1.54081 -0.703953 0
M  V30 8133 O 779.151 1.56603 -0.887432 0
M  V30 8134 H 775.526 0.477655 -0.580818 0
M  V30 8135 H 777.497 1.15719 -2.75049 0
M  V30 8136 C 776.246 2.79602 -2.06683 0
M  V30 8137 H 775.569 2.72004 -2.93008 0
M  V30 8138 H 777.009 3.55459 -2.31139 0
M  V30 8139 C 775.468 3.25873 -0.854883 0
M  V30 8140 O 775.998 4.01657 -0.0584648 0
M  V30 8141 N 774.204 2.82777 -0.669729 0
M  V30 8142 H 773.751 2.21269 -1.31901 0
M  V30 8143 H 773.709 3.1409 0.13969 0
M  V30 8144 N 777.481 1.45874 0.596531 0
M  V30 8145 C 778.711 1.5379 1.37958 0
M  V30 8146 C 779.119 0.173086 1.88407 0
M  V30 8147 O 778.462 -0.837498 1.63498 0
M  V30 8148 C 778.524 2.47044 2.61169 0
M  V30 8149 C 778.188 3.93565 2.32283 0
M  V30 8150 C 779.185 4.83162 1.91965 0
M  V30 8151 C 776.87 4.38579 2.44854 0
M  V30 8152 C 778.864 6.15782 1.64593 0
M  V30 8153 C 776.551 5.71238 2.17095 0
M  V30 8154 C 777.549 6.59659 1.77028 0
M  V30 8155 O 777.237 7.89857 1.49601 0
M  V30 8156 H 776.969 0.523 0.428307 0
M  V30 8157 H 779.523 1.91855 0.733529 0
M  V30 8158 H 777.753 2.0397 3.28532 0
M  V30 8159 H 779.442 2.4552 3.23226 0
M  V30 8160 H 780.208 4.49646 1.8178 0
M  V30 8161 H 776.087 3.6999 2.75006 0
M  V30 8162 H 779.631 6.84757 1.33245 0
M  V30 8163 H 775.528 6.04306 2.26901 0
M  V30 8164 H 776.296 8.01991 1.63561 0
M  V30 8165 N 778.959 -0.83999 1.33349 0
M  V30 8166 C 780.205 -1.59753 1.24927 0
M  V30 8167 C 780.538 -1.93318 -0.184855 0
M  V30 8168 O 779.813 -1.586 -1.12589 0
M  V30 8169 C 780.096 -2.90829 2.12345 0
M  V30 8170 C 779.949 -2.63953 3.6421 0
M  V30 8171 C 781.268 -3.92246 1.99577 0
M  V30 8172 H 778.387 -0.579654 0.45516 0
M  V30 8173 H 781.029 -0.968909 1.63439 0
M  V30 8174 H 779.179 -3.44478 1.79631 0
M  V30 8175 H 780.851 -2.16745 4.07209 0
M  V30 8176 H 779.094 -1.97671 3.86146 0
M  V30 8177 H 779.765 -3.57348 4.20721 0
M  V30 8178 H 782.241 -3.479 2.28265 0
M  V30 8179 H 781.117 -4.81793 2.62996 0
M  V30 8180 H 781.378 -4.3138 0.967673 0
M  V30 8181 N 780.437 -1.16799 -1.0581 0
M  V30 8182 C 781.853 -0.913935 -1.30841 0
M  V30 8183 C 782.053 0.430439 -1.96849 0
M  V30 8184 O 781.109 1.16885 -2.23817 0
M  V30 8185 C 782.422 -2.06662 -2.18429 0
M  V30 8186 C 783.97 -2.10294 -2.31831 0
M  V30 8187 C 784.445 -3.2493 -3.22776 0
M  V30 8188 N 785.936 -3.24678 -3.30361 0
M  V30 8189 C 786.671 -4.10021 -4.00837 0
M  V30 8190 N 786.167 -5.05461 -4.73795 0
M  V30 8191 N 787.96 -3.97991 -3.96937 0
M  V30 8192 H 780.111 -2.03343 -0.613613 0
M  V30 8193 H 782.374 -0.88754 -0.333133 0
M  V30 8194 H 782.08 -3.03791 -1.77211 0
M  V30 8195 H 781.954 -2.01233 -3.19038 0
M  V30 8196 H 784.341 -1.13754 -2.72294 0
M  V30 8197 H 784.422 -2.19786 -1.30873 0
M  V30 8198 H 784.066 -4.21731 -2.83028 0
M  V30 8199 H 783.996 -3.12674 -4.23725 0
M  V30 8200 H 786.487 -2.55573 -2.78372 0
M  V30 8201 H 786.8 -5.66989 -5.25113 0
M  V30 8202 H 785.145 -5.09436 -4.72758 0
M  V30 8203 H 788.336 -3.2273 -3.39062 0
M  V30 8204 H 788.509 -4.64722 -4.51594 0
M  V30 8205 N 781.915 1.24427 -0.967243 0
M  V30 8206 C 783.161 1.92772 -0.629812 0
M  V30 8207 C 783.494 1.75436 0.832827 0
M  V30 8208 O 782.769 1.10716 1.59913 0
M  V30 8209 C 783.052 3.45798 -1.00477 0
M  V30 8210 C 782.905 3.72304 -2.52407 0
M  V30 8211 C 784.224 4.36787 -0.538999 0
M  V30 8212 H 781.343 0.700099 -0.230282 0
M  V30 8213 H 783.985 1.46805 -1.20616 0
M  V30 8214 H 782.135 3.8508 -0.514336 0
M  V30 8215 H 783.807 3.42584 -3.08924 0
M  V30 8216 H 782.05 3.17472 -2.95625 0
M  V30 8217 H 782.721 4.7937 -2.73693 0
M  V30 8218 H 785.197 4.04877 -0.959874 0
M  V30 8219 H 784.073 5.4259 -0.829926 0
M  V30 8220 H 784.334 4.38527 0.560923 0
M  V30 8221 N 783.393 0.737304 1.3929 0
M  V30 8222 C 784.641 0.285691 2.00071 0
M  V30 8223 C 784.962 -1.13169 1.58801 0
M  V30 8224 O 784.232 -1.77104 0.837308 0
M  V30 8225 H 782.812 0.102638 0.739915 0
M  V30 8226 H 785.474 0.947775 1.70303 0
M  V30 8227 H 784.57 0.335906 3.10287 0
M  V30 8228 N 784.871 -1.49948 0.485112 0
M  V30 8229 C 786.099 -2.06806 -0.0622824 0
M  V30 8230 C 786.514 -1.34736 -1.32256 0
M  V30 8231 O 785.871 -0.420836 -1.77582 0
M  V30 8232 C 785.922 -3.59934 -0.336096 0
M  V30 8233 O 785.643 -4.29289 0.874203 0
M  V30 8234 C 787.144 -4.33459 -0.928903 0
M  V30 8235 H 784.364 -0.670867 0.0133472 0
M  V30 8236 H 786.908 -1.92937 0.677917 0
M  V30 8237 H 785.063 -3.7356 -1.02625 0
M  V30 8238 H 785.477 -5.20735 0.627332 0
M  V30 8239 H 786.951 -5.41527 -1.07017 0
M  V30 8240 H 787.428 -3.94881 -1.92265 0
M  V30 8241 H 788.034 -4.24399 -0.276705 0
M  V30 8242 N 786.349 -0.21828 -1.56081 0
M  V30 8243 C 787.577 0.419258 -2.02608 0
M  V30 8244 C 787.992 1.53578 -1.09814 0
M  V30 8245 O 787.349 1.82185 -0.107149 0
M  V30 8246 C 787.4 0.953955 -3.48686 0
M  V30 8247 O 787.121 -0.11805 -4.37941 0
M  V30 8248 C 788.622 1.66506 -4.10841 0
M  V30 8249 H 785.842 0.10296 -0.663054 0
M  V30 8250 H 788.386 -0.333776 -2.01758 0
M  V30 8251 H 786.541 1.65727 -3.50162 0
M  V30 8252 H 786.955 0.283359 -5.23734 0
M  V30 8253 H 788.429 1.99123 -5.14834 0
M  V30 8254 H 788.906 2.57705 -3.55647 0
M  V30 8255 H 789.512 1.00703 -4.13206 0
M  V30 8256 N 787.827 1.57504 0.0551401 0
M  V30 8257 C 789.243 1.54236 0.410292 0
M  V30 8258 C 789.443 0.940839 1.78187 0
M  V30 8259 O 788.499 0.550541 2.46425 0
M  V30 8260 C 789.812 2.98816 0.336064 0
M  V30 8261 C 791.36 3.10236 0.415047 0
M  V30 8262 C 791.835 4.56499 0.37055 0
M  V30 8263 N 793.326 4.61199 0.43013 0
M  V30 8264 C 794.061 5.71873 0.418179 0
M  V30 8265 N 793.557 6.91864 0.360056 0
M  V30 8266 N 795.35 5.60165 0.465977 0
M  V30 8267 H 787.501 1.94965 -0.842759 0
M  V30 8268 H 789.764 0.893096 -0.317937 0
M  V30 8269 H 789.47 3.4645 -0.605429 0
M  V30 8270 H 789.344 3.59564 1.13988 0
M  V30 8271 H 791.731 2.62566 1.34697 0
M  V30 8272 H 791.812 2.52367 -0.417648 0
M  V30 8273 H 791.456 5.0483 -0.557592 0
M  V30 8274 H 791.386 5.12249 1.221 0
M  V30 8275 H 793.877 3.74857 0.478623 0
M  V30 8276 H 794.19 7.71983 0.35532 0
M  V30 8277 H 792.535 6.94233 0.326492 0
M  V30 8278 H 795.726 4.65322 0.509194 0
M  V30 8279 H 795.899 6.46413 0.453194 0
M  V30 8280 N 789.305 -0.326896 1.54172 0
M  V30 8281 C 790.551 -1.06681 1.72473 0
M  V30 8282 C 790.884 -1.87779 0.49523 0
M  V30 8283 O 790.159 -1.87754 -0.507803 0
M  V30 8284 C 790.442 -1.99429 2.99834 0
M  V30 8285 C 790.295 -1.21682 4.33028 0
M  V30 8286 C 791.614 -2.99002 3.22933 0
M  V30 8287 H 788.733 -0.386438 0.627563 0
M  V30 8288 H 791.375 -0.343779 1.86864 0
M  V30 8289 H 789.525 -2.61081 2.87696 0
M  V30 8290 H 791.197 -0.625153 4.57044 0
M  V30 8291 H 789.44 -0.519045 4.30684 0
M  V30 8292 H 790.111 -1.89766 5.18356 0
M  V30 8293 H 792.587 -2.4747 3.34511 0
M  V30 8294 H 791.463 -3.61085 4.13412 0
M  V30 8295 H 791.724 -3.71281 2.40006 0
M  V30 8296 N 790.784 -1.46188 -0.588786 0
M  V30 8297 C 792.195 -1.45421 -1.17088 0
M  V30 8298 C 792.546 -0.191801 -1.9526 0
M  V30 8299 O 791.671 0.705497 -2.04577 0
M  V30 8300 C 792.266 -2.63467 -2.13004 0
M  V30 8301 C 790.825 -2.6576 -2.6655 0
M  V30 8302 C 789.972 -2.38002 -1.42304 0
M  V30 8303 H 792.923 -1.54156 -0.377052 0
M  V30 8304 H 792.944 -2.38638 -2.96365 0
M  V30 8305 H 792.456 -3.55331 -1.56081 0
M  V30 8306 H 790.557 -1.77952 -3.27359 0
M  V30 8307 H 790.67 -3.65545 -3.09699 0
M  V30 8308 H 789.034 -1.87936 -1.71907 0
M  V30 8309 H 789.817 -3.32035 -0.872209 0
M  V30 8310 N 792.262 0.832906 -1.33792 0
M  V30 8311 C 793.192 1.95828 -1.27176 0
M  V30 8312 C 794.173 1.69427 -0.15114 0
M  V30 8313 O 795.358 1.91167 -0.341886 0
M  V30 8314 C 792.488 3.32098 -1.01629 0
M  V30 8315 C 791.442 3.72912 -2.10049 0
M  V30 8316 C 790.768 5.07054 -1.69706 0
M  V30 8317 C 792.068 3.86064 -3.51783 0
M  V30 8318 H 793.762 2.01622 -2.21334 0
M  V30 8319 H 791.308 0.96866 -1.0655 0
M  V30 8320 H 793.261 4.10402 -0.956474 0
M  V30 8321 H 791.985 3.26577 -0.0390956 0
M  V30 8322 H 790.644 2.96876 -2.15082 0
M  V30 8323 H 790.292 4.9801 -0.706737 0
M  V30 8324 H 789.992 5.35333 -2.42264 0
M  V30 8325 H 791.516 5.87827 -1.65202 0
M  V30 8326 H 792.93 4.54665 -3.49218 0
M  V30 8327 H 791.327 4.25787 -4.22878 0
M  V30 8328 H 792.397 2.88344 -3.89854 0
M  V30 8329 N 793.74 1.17359 1.05189 0
M  V30 8330 C 794.968 0.986529 1.81866 0
M  V30 8331 C 795.383 -0.46522 1.82979 0
M  V30 8332 O 794.74 -1.32305 1.25705 0
M  V30 8333 C 794.791 1.52021 3.27982 0
M  V30 8334 O 794.512 2.91511 3.27037 0
M  V30 8335 C 796.013 1.37774 4.21347 0
M  V30 8336 H 793.233 0.349021 0.573084 0
M  V30 8337 H 795.777 1.55648 1.32643 0
M  V30 8338 H 793.932 0.992287 3.74476 0
M  V30 8339 H 794.346 3.16178 4.18488 0
M  V30 8340 H 795.82 1.7993 5.21852 0
M  V30 8341 H 796.297 0.32483 4.37997 0
M  V30 8342 H 796.903 1.89583 3.80708 0
M  V30 8343 N 795.218 -1.23913 0.973828 0
M  V30 8344 C 796.466 -1.91771 0.637817 0
M  V30 8345 C 796.787 -1.76434 -0.830435 0
M  V30 8346 O 796.057 -1.13965 -1.59339 0
M  V30 8347 H 794.637 -0.709761 0.232912 0
M  V30 8348 H 797.299 -1.50677 1.23622 0
M  V30 8349 H 796.395 -2.99327 0.883731 0
M  V30 8350 N 796.696 -0.74468 -1.38897 0
M  V30 8351 C 798.107 -0.36568 -1.83084 0
M  V30 8352 C 798.458 1.10436 -1.62168 0
M  V30 8353 O 797.583 1.85281 -1.11804 0
M  V30 8354 C 798.178 -0.656946 -3.3237 0
M  V30 8355 C 796.737 -0.331329 -3.74939 0
M  V30 8356 C 795.884 -0.914661 -2.61781 0
M  V30 8357 H 798.835 -0.941551 -1.27752 0
M  V30 8358 H 798.856 0.0679546 -3.80439 0
M  V30 8359 H 798.368 -1.72693 -3.47561 0
M  V30 8360 H 796.469 0.732426 -3.6533 0
M  V30 8361 H 796.582 -0.820655 -4.72019 0
M  V30 8362 H 794.946 -0.34063 -2.52412 0
M  V30 8363 H 795.729 -1.98949 -2.79775 0
M  V30 8364 N 798.174 1.49689 -0.493057 0
M  V30 8365 C 799.42 2.02727 0.0543518 0
M  V30 8366 C 799.753 1.37264 1.37376 0
M  V30 8367 O 799.028 0.505644 1.87812 0
M  V30 8368 C 799.311 3.59456 0.215226 0
M  V30 8369 C 799.164 4.35459 -1.12675 0
M  V30 8370 C 800.483 4.29511 0.959586 0
M  V30 8371 H 797.602 0.736773 0.0182786 0
M  V30 8372 H 800.244 1.78792 -0.642924 0
M  V30 8373 H 798.394 3.79981 0.809122 0
M  V30 8374 H 800.066 4.2645 -1.75891 0
M  V30 8375 H 798.309 3.9833 -1.71801 0
M  V30 8376 H 798.98 5.43454 -0.967578 0
M  V30 8377 H 801.456 4.13594 0.455977 0
M  V30 8378 H 800.332 5.38939 1.04098 0
M  V30 8379 H 800.593 3.94202 2.00144 0
M  V30 8380 N 799.652 0.226554 1.55963 0
M  V30 8381 C 800.599 -0.681504 2.20509 0
M  V30 8382 C 801.569 -1.1866 1.16229 0
M  V30 8383 O 802.754 -1.24478 1.44602 0
M  V30 8384 C 799.894 -1.88183 2.89277 0
M  V30 8385 C 799.007 -1.41517 4.08163 0
M  V30 8386 C 798.142 -2.57346 4.647 0
M  V30 8387 C 797.181 -2.07441 5.75877 0
M  V30 8388 N 796.318 -3.16561 6.26685 0
M  V30 8389 H 801.158 -0.124372 2.9774 0
M  V30 8390 H 798.695 -0.0496333 1.47016 0
M  V30 8391 H 800.653 -2.58666 3.27335 0
M  V30 8392 H 799.283 -2.41177 2.14555 0
M  V30 8393 H 798.335 -0.605099 3.75557 0
M  V30 8394 H 799.647 -1.00928 4.88482 0
M  V30 8395 H 798.801 -3.35903 5.05227 0
M  V30 8396 H 797.54 -3.01227 3.83554 0
M  V30 8397 H 796.545 -1.27347 5.34848 0
M  V30 8398 H 797.77 -1.64554 6.58862 0
M  V30 8399 H 795.716 -3.59914 5.48451 0
M  V30 8400 H 795.633 -2.80239 7.02141 0
M  V30 8401 H 796.901 -3.95238 6.71868 0
M  V30 8402 N 801.13 -1.57531 -0.0467866 0
M  V30 8403 C 802.04 -2.08768 -1.07018 0
M  V30 8404 C 803.056 -1.02245 -1.40791 0
M  V30 8405 O 804.232 -1.33873 -1.50466 0
M  V30 8406 C 801.297 -2.54221 -2.35738 0
M  V30 8407 C 800.358 -3.75152 -2.08709 0
M  V30 8408 C 799.591 -4.18428 -3.31291 0
M  V30 8409 O 799.814 -3.61365 -4.4133 0
M  V30 8410 O 798.748 -5.11018 -3.18032 0
M  V30 8411 H 802.574 -2.96334 -0.664812 0
M  V30 8412 H 800.159 -1.47074 -0.262605 0
M  V30 8413 H 802.041 -2.83866 -3.11445 0
M  V30 8414 H 800.716 -1.69774 -2.75605 0
M  V30 8415 H 799.623 -3.50553 -1.30627 0
M  V30 8416 H 800.956 -4.60528 -1.73708 0
M  V30 8417 N 802.608 0.318715 -1.54344 0
M  V30 8418 C 803.555 1.39242 -1.84066 0
M  V30 8419 C 804.525 1.51175 -0.688134 0
M  V30 8420 O 805.71 1.66318 -0.935039 0
M  V30 8421 C 802.85 2.75528 -2.07794 0
M  V30 8422 C 801.963 2.72187 -3.35467 0
M  V30 8423 C 801.098 4.00352 -3.4913 0
M  V30 8424 C 800.137 3.91338 -4.7066 0
M  V30 8425 N 799.274 5.11242 -4.81224 0
M  V30 8426 H 804.114 1.13196 -2.75664 0
M  V30 8427 H 801.651 0.547857 -1.36517 0
M  V30 8428 H 803.609 3.54763 -2.19543 0
M  V30 8429 H 802.239 2.99873 -1.19482 0
M  V30 8430 H 801.291 1.84917 -3.3243 0
M  V30 8431 H 802.603 2.61411 -4.24812 0
M  V30 8432 H 801.757 4.88019 -3.60448 0
M  V30 8433 H 800.496 4.1394 -2.57886 0
M  V30 8434 H 799.501 3.02055 -4.59394 0
M  V30 8435 H 800.726 3.7931 -5.63294 0
M  V30 8436 H 798.672 5.25327 -3.92897 0
M  V30 8437 H 798.589 5.0282 -5.64543 0
M  V30 8438 H 799.857 6.0061 -4.96879 0
M  V30 8439 N 804.086 1.46499 0.581025 0
M  V30 8440 C 805.335 1.51162 1.3354 0
M  V30 8441 C 805.648 0.168433 1.94873 0
M  V30 8442 O 806.854 0.092883 2.71341 0
M  V30 8443 C 805.31 2.66362 2.42032 0
M  V30 8444 C 804.918 4.07109 1.86994 0
M  V30 8445 C 806.662 2.80297 3.188 0
M  V30 8446 C 804.569 5.13645 2.93125 0
M  V30 8447 H 803.499 0.562576 0.502021 0
M  V30 8448 H 806.15 1.72713 0.619863 0
M  V30 8449 H 804.532 2.38143 3.16392 0
M  V30 8450 H 805.706 4.45125 1.19166 0
M  V30 8451 H 804.021 3.97854 1.22887 0
M  V30 8452 H 806.618 3.5706 3.9801 0
M  V30 8453 H 806.961 1.87875 3.71495 0
M  V30 8454 H 807.494 3.0817 2.51547 0
M  V30 8455 H 804.233 6.07866 2.45315 0
M  V30 8456 H 803.753 4.80172 3.59437 0
M  V30 8457 H 805.432 5.39562 3.57046 0
M  V30 8458 N 805.565 -0.825799 1.34232 0
M  V30 8459 C 806.498 -1.94155 1.19914 0
M  V30 8460 C 807.476 -1.62343 0.0914533 0
M  V30 8461 O 808.66 -1.86752 0.256082 0
M  V30 8462 C 805.787 -3.28064 0.842138 0
M  V30 8463 C 804.833 -3.78839 1.95917 0
M  V30 8464 S 805.666 -3.98943 3.57218 0
M  V30 8465 C 806.822 -5.35783 3.23554 0
M  V30 8466 H 807.055 -2.06003 2.14359 0
M  V30 8467 H 804.588 -0.981053 1.19225 0
M  V30 8468 H 806.546 -4.05434 0.642952 0
M  V30 8469 H 805.207 -3.13988 -0.0839363 0
M  V30 8470 H 804.4 -4.75771 1.66306 0
M  V30 8471 H 804.002 -3.08406 2.11569 0
M  V30 8472 H 806.294 -6.19094 2.7519 0
M  V30 8473 H 807.237 -5.70376 4.19615 0
M  V30 8474 H 807.645 -5.01158 2.5981 0
M  V30 8475 N 807.043 -1.17915 -1.04565 0
M  V30 8476 C 808.006 -0.903787 -2.10628 0
M  V30 8477 C 809.006 0.10873 -1.60432 0
M  V30 8478 O 810.196 -0.124152 -1.73757 0
M  V30 8479 C 807.328 -0.355017 -3.39046 0
M  V30 8480 H 808.521 -1.84425 -2.3649 0
M  V30 8481 H 806.074 -0.990477 -1.2091 0
M  V30 8482 H 806.809 0.592297 -3.18845 0
M  V30 8483 H 806.594 -1.08484 -3.76794 0
M  V30 8484 H 808.084 -0.180891 -4.17208 0
M  V30 8485 N 808.521 1.23394 -0.980386 0
M  V30 8486 C 809.767 1.92094 -0.650223 0
M  V30 8487 C 810.1 1.76309 0.814173 0
M  V30 8488 O 809.375 1.12406 1.5873 0
M  V30 8489 C 809.658 3.44713 -1.04139 0
M  V30 8490 C 809.511 3.69606 -2.56342 0
M  V30 8491 C 810.83 4.36191 -0.585296 0
M  V30 8492 H 807.949 0.697618 -0.237695 0
M  V30 8493 H 810.591 1.45517 -1.22167 0
M  V30 8494 H 808.741 3.84513 -0.55515 0
M  V30 8495 H 810.413 3.39288 -3.1254 0
M  V30 8496 H 808.656 3.14318 -2.98976 0
M  V30 8497 H 809.327 4.76441 -2.78762 0
M  V30 8498 H 811.803 4.03836 -1.00276 0
M  V30 8499 H 810.679 5.41679 -0.887428 0
M  V30 8500 H 810.94 4.39097 0.51438 0
M  V30 8501 N 809.999 0.752036 1.385 0
M  V30 8502 C 811.248 0.304294 1.99391 0
M  V30 8503 C 811.561 -1.11982 1.60373 0
M  V30 8504 O 812.767 -1.66795 2.14223 0
M  V30 8505 C 811.223 0.493101 3.56506 0
M  V30 8506 C 810.831 1.9262 4.04477 0
M  V30 8507 C 812.575 0.107994 4.24363 0
M  V30 8508 C 810.482 2.06365 5.54227 0
M  V30 8509 H 809.412 0.110024 0.745929 0
M  V30 8510 H 812.063 0.928355 1.58284 0
M  V30 8511 H 810.445 -0.20012 3.95494 0
M  V30 8512 H 811.619 2.65276 3.76783 0
M  V30 8513 H 809.934 2.26608 3.49339 0
M  V30 8514 H 812.531 0.189474 5.34364 0
M  V30 8515 H 812.874 -0.939165 4.05568 0
M  V30 8516 H 813.407 0.753011 3.90608 0
M  V30 8517 H 810.146 3.0933 5.77923 0
M  V30 8518 H 809.666 1.38167 5.83669 0
M  V30 8519 H 811.345 1.85286 6.19902 0
M  V30 8520 N 811.477 -1.49425 0.500989 0
M  V30 8521 C 812.424 -2.29126 -0.277443 0
M  V30 8522 C 813.394 -1.35522 -0.960363 0
M  V30 8523 O 814.579 -1.64479 -0.967027 0
M  V30 8524 C 811.719 -3.18193 -1.33593 0
M  V30 8525 C 810.832 -4.26854 -0.664791 0
M  V30 8526 C 809.967 -5.03137 -1.70372 0
M  V30 8527 C 809.006 -6.03635 -1.01445 0
M  V30 8528 N 808.143 -6.73083 -1.99758 0
M  V30 8529 H 812.983 -2.95187 0.408458 0
M  V30 8530 H 810.52 -1.45546 0.213275 0
M  V30 8531 H 812.478 -3.68207 -1.96161 0
M  V30 8532 H 811.108 -2.54116 -1.9906 0
M  V30 8533 H 810.16 -3.80328 0.0741708 0
M  V30 8534 H 811.472 -4.9865 -0.122197 0
M  V30 8535 H 810.626 -5.5702 -2.40445 0
M  V30 8536 H 809.365 -4.31114 -2.28017 0
M  V30 8537 H 808.37 -5.48984 -0.299496 0
M  V30 8538 H 809.595 -6.77644 -0.444497 0
M  V30 8539 H 807.541 -6.03832 -2.56365 0
M  V30 8540 H 807.458 -7.40855 -1.50565 0
M  V30 8541 H 808.726 -7.3157 -2.69119 0
M  V30 8542 N 812.955 -0.234822 -1.55841 0
M  V30 8543 C 813.865 0.680828 -2.24504 0
M  V30 8544 C 814.881 1.20306 -1.25708 0
M  V30 8545 O 816.057 1.24188 -1.58554 0
M  V30 8546 C 813.122 1.86636 -2.92178 0
M  V30 8547 C 812.183 1.3848 -4.06352 0
M  V30 8548 C 811.416 2.51382 -4.70789 0
M  V30 8549 O 811.639 3.69831 -4.34259 0
M  V30 8550 O 810.573 2.21828 -5.59532 0
M  V30 8551 H 814.399 0.12583 -3.03439 0
M  V30 8552 H 811.984 -0.00381817 -1.494 0
M  V30 8553 H 813.866 2.55845 -3.34845 0
M  V30 8554 H 812.541 2.40921 -2.16192 0
M  V30 8555 H 811.448 0.660341 -3.68226 0
M  V30 8556 H 812.781 0.888177 -4.8412 0
M  V30 8557 N 814.433 1.57553 0.0384317 0
M  V30 8558 C 815.679 1.89973 0.726772 0
M  V30 8559 C 816.034 0.832381 1.73462 0
M  V30 8560 O 815.327 -0.159975 1.90931 0
M  V30 8561 C 815.521 3.26862 1.44554 0
M  V30 8562 C 815.35 4.46812 0.508814 0
M  V30 8563 C 814.12 5.05124 0.133323 0
M  V30 8564 C 816.318 5.13876 -0.20881 0
M  V30 8565 N 814.3 6.08591 -0.805636 0
M  V30 8566 C 815.671 6.11821 -1.00376 0
M  V30 8567 C 817.726 4.9713 -0.276749 0
M  V30 8568 C 816.429 6.94825 -1.86038 0
M  V30 8569 C 818.455 5.80689 -1.12047 0
M  V30 8570 C 817.817 6.78197 -1.90337 0
M  V30 8571 H 813.916 0.744153 0.240334 0
M  V30 8572 H 816.5 1.94696 -0.0128735 0
M  V30 8573 H 814.671 3.23085 2.1557 0
M  V30 8574 H 816.403 3.46826 2.08552 0
M  V30 8575 H 813.158 4.71022 0.493484 0
M  V30 8576 H 813.582 6.64994 -1.26935 0
M  V30 8577 H 818.224 4.21631 0.314222 0
M  V30 8578 H 815.942 7.69676 -2.46219 0
M  V30 8579 H 819.528 5.69782 -1.17645 0
M  V30 8580 H 818.408 7.41731 -2.54569 0
M  V30 8581 N 815.911 -0.310526 1.54511 0
M  V30 8582 C 817.159 -1.04484 1.72996 0
M  V30 8583 C 817.48 -1.88118 0.513479 0
M  V30 8584 O 816.75 -1.90119 -0.472384 0
M  V30 8585 H 815.33 -0.388747 0.637875 0
M  V30 8586 H 817.992 -0.343811 1.91844 0
M  V30 8587 H 817.088 -1.70341 2.61515 0
M  V30 8588 N 817.389 -1.46805 -0.573248 0
M  V30 8589 C 818.617 -1.56191 -1.3569 0
M  V30 8590 C 819.032 -0.206362 -1.87669 0
M  V30 8591 O 818.389 0.797883 -1.64134 0
M  V30 8592 C 818.44 -2.57433 -2.53792 0
M  V30 8593 O 818.161 -3.87724 -2.03965 0
M  V30 8594 C 819.662 -2.76851 -3.4622 0
M  V30 8595 H 816.882 -0.527907 -0.414192 0
M  V30 8596 H 819.426 -1.92292 -0.695989 0
M  V30 8597 H 817.581 -2.24311 -3.15854 0
M  V30 8598 H 817.995 -4.42909 -2.80948 0
M  V30 8599 H 819.469 -3.5159 -4.25545 0
M  V30 8600 H 819.946 -1.84095 -3.98755 0
M  V30 8601 H 820.552 -3.11107 -2.89987 0
M  V30 8602 N 818.867 0.818669 -1.34668 0
M  V30 8603 C 820.115 1.57201 -1.27013 0
M  V30 8604 C 820.436 1.94354 0.158599 0
M  V30 8605 O 819.706 1.62626 1.09223 0
M  V30 8606 H 818.286 0.582919 -0.467135 0
M  V30 8607 H 820.948 0.977234 -1.6863 0
M  V30 8608 H 820.044 2.49291 -1.87778 0
M  V30 8609 N 820.346 1.18468 1.03938 0
M  V30 8610 C 821.762 0.934635 1.29371 0
M  V30 8611 C 821.962 -0.399067 1.97509 0
M  V30 8612 O 821.018 -1.13309 2.25648 0
M  V30 8613 C 822.331 2.10111 2.15114 0
M  V30 8614 C 823.879 2.13955 2.28456 0
M  V30 8615 C 824.354 3.30024 3.17566 0
M  V30 8616 N 825.845 3.29893 3.25153 0
M  V30 8617 C 826.58 4.16346 3.94263 0
M  V30 8618 N 826.076 5.12934 4.65693 0
M  V30 8619 N 827.869 4.04256 3.90556 0
M  V30 8620 H 820.02 2.04294 0.581185 0
M  V30 8621 H 822.283 0.892727 0.318971 0
M  V30 8622 H 821.989 3.06572 1.72355 0
M  V30 8623 H 821.863 2.06283 3.15796 0
M  V30 8624 H 824.25 1.18072 2.7045 0
M  V30 8625 H 824.331 2.2184 1.2736 0
M  V30 8626 H 823.975 4.26181 2.76283 0
M  V30 8627 H 823.905 3.19376 4.18697 0
M  V30 8628 H 826.396 2.59969 2.74271 0
M  V30 8629 H 826.709 5.75271 5.16026 0
M  V30 8630 H 825.054 5.16893 4.64593 0
M  V30 8631 H 828.245 3.28083 3.33885 0
M  V30 8632 H 828.418 4.71848 4.44144 0
M  V30 8633 N 821.824 -1.22873 0.986916 0
M  V30 8634 C 823.101 -1.86939 0.575589 0
M  V30 8635 C 823.481 -1.88656 -0.947205 0
M  V30 8636 O 822.829 -1.3728 -1.82665 0
M  V30 8637 C 823.039 -3.28117 1.18914 0
M  V30 8638 C 824.387 -4.04659 1.28593 0
M  V30 8639 O 825.411 -3.3736 1.14308 0
M  V30 8640 O 824.27 -5.25112 1.51391 0
M  V30 8641 H 821.364 -0.803748 0.194724 0
M  V30 8642 H 823.91 -1.30698 1.08241 0
M  V30 8643 H 822.682 -3.21468 2.231 0
M  V30 8644 H 822.305 -3.91956 0.667535 0
M  V30 8645 N 823.302 -0.75937 -1.38099 0
M  V30 8646 C 824.53 -0.329111 -2.04266 0
M  V30 8647 C 824.945 1.04453 -1.57274 0
M  V30 8648 O 824.302 1.66449 -0.748397 0
M  V30 8649 C 824.353 -0.349192 -3.5981 0
M  V30 8650 O 824.074 -1.66863 -4.05078 0
M  V30 8651 C 825.575 0.0942106 -4.432 0
M  V30 8652 H 822.795 -0.13971 -0.656294 0
M  V30 8653 H 825.339 -1.02984 -1.76677 0
M  V30 8654 H 823.494 0.302846 -3.86214 0
M  V30 8655 H 823.908 -1.59877 -4.9954 0
M  V30 8656 H 825.382 0.0290004 -5.51992 0
M  V30 8657 H 825.859 1.1429 -4.24069 0
M  V30 8658 H 826.465 -0.529171 -4.21995 0
M  V30 8659 N 824.78 1.49157 -0.508906 0
M  V30 8660 C 825.71 2.32109 0.254469 0
M  V30 8661 C 826.691 1.40754 0.955111 0
M  V30 8662 O 827.876 1.69658 0.944983 0
M  V30 8663 C 825.006 3.21458 1.3146 0
M  V30 8664 C 823.96 4.2167 0.733368 0
M  V30 8665 C 823.286 5.00009 1.8946 0
M  V30 8666 C 824.586 5.21544 -0.280875 0
M  V30 8667 H 826.28 2.9618 -0.43795 0
M  V30 8668 H 823.826 1.4243 -0.212062 0
M  V30 8669 H 825.779 3.78305 1.85643 0
M  V30 8670 H 824.503 2.55346 2.03632 0
M  V30 8671 H 823.162 3.65979 0.213231 0
M  V30 8672 H 822.81 4.30338 2.60419 0
M  V30 8673 H 822.51 5.67821 1.51173 0
M  V30 8674 H 824.034 5.59702 2.44061 0
M  V30 8675 H 825.448 5.73039 0.173095 0
M  V30 8676 H 823.845 5.97291 -0.580006 0
M  V30 8677 H 824.915 4.69969 -1.19404 0
M  V30 8678 N 826.258 0.243083 1.55714 0
M  V30 8679 C 827.674 -0.111853 1.59208 0
M  V30 8680 C 827.874 -1.5723 1.2602 0
M  V30 8681 O 826.93 -2.31608 1.00569 0
M  V30 8682 C 828.243 0.233885 2.99789 0
M  V30 8683 C 829.791 0.177873 3.12494 0
M  V30 8684 C 830.266 0.49759 4.55289 0
M  V30 8685 N 831.757 0.447949 4.61029 0
M  V30 8686 C 832.492 0.668545 5.69489 0
M  V30 8687 N 831.988 0.952064 6.86227 0
M  V30 8688 N 833.781 0.599512 5.58894 0
M  V30 8689 H 825.932 1.19554 1.75558 0
M  V30 8690 H 828.195 0.480765 0.817049 0
M  V30 8691 H 827.901 1.24835 3.28799 0
M  V30 8692 H 827.775 -0.440846 3.74615 0
M  V30 8693 H 830.162 -0.827263 2.83267 0
M  V30 8694 H 830.243 0.886399 2.39951 0
M  V30 8695 H 829.887 1.50026 4.85237 0
M  V30 8696 H 829.817 -0.232371 5.26087 0
M  V30 8697 H 832.308 0.237388 3.77154 0
M  V30 8698 H 832.621 1.10791 7.64817 0
M  V30 8699 H 830.966 0.989496 6.8792 0
M  V30 8700 H 834.157 0.378088 4.66571 0
M  V30 8701 H 834.33 0.774828 6.43351 0
M  V30 8702 N 827.736 -1.57571 -0.0300757 0
M  V30 8703 C 828.976 -1.91074 -0.725946 0
M  V30 8704 C 829.34 -0.841545 -1.72575 0
M  V30 8705 O 830.541 -1.06088 -2.46979 0
M  V30 8706 C 828.812 -3.2973 -1.37888 0
M  V30 8707 S 830.371 -3.85065 -2.10405 0
M  V30 8708 H 827.189 -0.669084 -0.240515 0
M  V30 8709 H 829.791 -1.9549 0.019384 0
M  V30 8710 H 828.495 -4.05411 -0.637974 0
M  V30 8711 H 828.026 -3.28614 -2.16278 0
M  V30 8712 H 830.041 -3.63711 -3.37533 0
M  V30 8713 N 829.214 0.302327 -1.54673 0
M  V30 8714 C 830.144 1.37759 -1.88533 0
M  V30 8715 C 831.125 1.52961 -0.744113 0
M  V30 8716 O 832.31 1.6649 -0.999731 0
M  V30 8717 C 829.44 2.74201 -2.13146 0
M  V30 8718 C 828.394 2.73765 -3.28993 0
M  V30 8719 C 827.72 4.13483 -3.39022 0
M  V30 8720 C 829.02 2.35624 -4.66132 0
M  V30 8721 H 830.714 1.0967 -2.78591 0
M  V30 8722 H 828.26 0.52613 -1.34044 0
M  V30 8723 H 830.213 3.49508 -2.35419 0
M  V30 8724 H 828.937 3.03812 -1.19858 0
M  V30 8725 H 827.596 2.00914 -3.06642 0
M  V30 8726 H 827.244 4.40269 -2.43253 0
M  V30 8727 H 826.944 4.14093 -4.16894 0
M  V30 8728 H 828.468 4.90572 -3.63553 0
M  V30 8729 H 829.882 3.00647 -4.88143 0
M  V30 8730 H 828.279 2.47449 -5.46707 0
M  V30 8731 H 829.349 1.30753 -4.66939 0
M  V30 8732 N 830.692 1.47107 0.565454 0
M  V30 8733 C 831.655 1.58535 1.65527 0
M  V30 8734 C 832.655 0.461081 1.54048 0
M  V30 8735 O 833.845 0.725911 1.58355 0
M  V30 8736 C 830.977 1.52204 3.05036 0
M  V30 8737 H 832.17 2.55676 1.56747 0
M  V30 8738 H 829.723 1.35174 0.78471 0
M  V30 8739 H 830.458 0.564071 3.19357 0
M  V30 8740 H 830.243 2.3379 3.14777 0
M  V30 8741 H 831.733 1.63322 3.84338 0
M  V30 8742 N 832.17 -0.811516 1.35101 0
M  V30 8743 C 833.1 -1.9378 1.30275 0
M  V30 8744 C 834.081 -1.69165 0.178075 0
M  V30 8745 O 835.266 -1.90599 0.372256 0
M  V30 8746 C 832.396 -3.30439 1.06899 0
M  V30 8747 C 831.35 -3.69523 2.15955 0
M  V30 8748 C 830.676 -5.0429 1.77751 0
M  V30 8749 C 831.976 -3.80419 3.57881 0
M  V30 8750 H 833.67 -1.98075 2.24514 0
M  V30 8751 H 831.216 -0.951586 1.08078 0
M  V30 8752 H 833.169 -4.08828 1.02164 0
M  V30 8753 H 831.893 -3.26473 0.0910462 0
M  V30 8754 H 830.552 -2.93416 2.19778 0
M  V30 8755 H 830.2 -4.96823 0.785876 0
M  V30 8756 H 829.9 -5.31411 2.5075 0
M  V30 8757 H 831.424 -5.85125 1.74533 0
M  V30 8758 H 832.838 -4.49051 3.56407 0
M  V30 8759 H 831.235 -4.19005 4.29598 0
M  V30 8760 H 832.305 -2.82105 3.94391 0
M  V30 8761 N 833.648 -1.19017 -1.03309 0
M  V30 8762 C 834.611 -0.926076 -2.09658 0
M  V30 8763 C 835.611 0.0917077 -1.60538 0
M  V30 8764 O 836.801 -0.142574 -1.73616 0
M  V30 8765 C 833.933 -0.390958 -3.38651 0
M  V30 8766 H 835.126 -1.86923 -2.3452 0
M  V30 8767 H 832.679 -1.00325 -1.19853 0
M  V30 8768 H 833.414 0.558446 -3.19456 0
M  V30 8769 H 833.199 -1.12474 -3.75622 0
M  V30 8770 H 834.689 -0.225131 -4.16993 0
M  V30 8771 N 835.127 1.22348 -0.993418 0
M  V30 8772 C 836.355 1.95125 -0.688021 0
M  V30 8773 C 836.77 1.73377 0.747388 0
M  V30 8774 O 836.127 1.03317 1.50439 0
M  V30 8775 C 836.178 3.47819 -0.985097 0
M  V30 8776 O 835.899 3.68838 -2.3641 0
M  V30 8777 C 837.4 4.37779 -0.697474 0
M  V30 8778 H 834.62 0.62087 -0.254481 0
M  V30 8779 H 837.164 1.55485 -1.32833 0
M  V30 8780 H 835.319 3.85426 -0.390583 0
M  V30 8781 H 835.733 4.63032 -2.46377 0
M  V30 8782 H 837.207 5.43666 -0.955604 0
M  V30 8783 H 837.684 4.37651 0.368524 0
M  V30 8784 H 838.29 4.05799 -1.27306 0
M  V30 8785 N 836.605 0.766683 1.37694 0
M  V30 8786 C 838.021 0.445739 1.53249 0
M  V30 8787 C 838.221 -1.03935 1.72626 0
M  V30 8788 O 837.277 -1.82525 1.74473 0
M  V30 8789 C 838.59 1.2564 2.73194 0
M  V30 8790 C 840.138 1.24779 2.87053 0
M  V30 8791 C 840.613 2.04169 4.09974 0
M  V30 8792 N 842.104 2.01497 4.17077 0
M  V30 8793 C 842.839 2.5971 5.11212 0
M  V30 8794 N 842.335 3.26691 6.10938 0
M  V30 8795 N 844.128 2.49568 5.03659 0
M  V30 8796 H 836.279 1.72899 1.23368 0
M  V30 8797 H 838.542 0.733701 0.600322 0
M  V30 8798 H 838.248 2.30859 2.65324 0
M  V30 8799 H 838.122 0.882133 3.6674 0
M  V30 8800 H 840.509 0.203603 2.94397 0
M  V30 8801 H 840.59 1.66166 1.9448 0
M  V30 8802 H 840.234 3.08606 4.03392 0
M  V30 8803 H 840.164 1.60167 5.01651 0
M  V30 8804 H 842.655 1.52728 3.45662 0
M  V30 8805 H 842.968 3.68497 6.79286 0
M  V30 8806 H 841.313 3.30789 6.11231 0
M  V30 8807 H 844.504 1.96859 4.24693 0
M  V30 8808 H 844.677 2.95231 5.76839 0
M  V30 8809 N 838.083 -1.48885 0.516809 0
M  V30 8810 C 839.36 -1.95412 -0.0858293 0
M  V30 8811 C 839.74 -1.45875 -1.5259 0
M  V30 8812 O 839.088 -0.679415 -2.18166 0
M  V30 8813 C 839.298 -3.48995 0.0178194 0
M  V30 8814 C 840.646 -4.24342 -0.14813 0
M  V30 8815 O 841.67 -3.56155 -0.0566125 0
M  V30 8816 O 840.529 -5.45454 -0.338035 0
M  V30 8817 H 837.623 -0.822455 -0.0865884 0
M  V30 8818 H 840.169 -1.59464 0.580472 0
M  V30 8819 H 838.941 -3.77732 1.02147 0
M  V30 8820 H 838.564 -3.91604 -0.687924 0
M  V30 8821 N 839.561 -0.251338 -1.55583 0
M  V30 8822 C 840.789 0.376187 -2.03451 0
M  V30 8823 C 841.204 1.51215 -1.13047 0
M  V30 8824 O 840.561 1.81917 -0.145769 0
M  V30 8825 C 840.612 0.879779 -3.50631 0
M  V30 8826 O 840.333 -0.210917 -4.37592 0
M  V30 8827 C 841.834 1.57754 -4.14281 0
M  V30 8828 H 839.054 0.0888722 -0.665089 0
M  V30 8829 H 841.598 -0.376497 -2.01004 0
M  V30 8830 H 839.753 1.58263 -3.53598 0
M  V30 8831 H 840.167 0.172203 -5.24217 0
M  V30 8832 H 841.641 1.88158 -5.18942 0
M  V30 8833 H 842.118 2.50103 -3.61034 0
M  V30 8834 H 842.724 0.919154 -4.15249 0
M  V30 8835 N 841.039 1.57585 0.0217189 0
M  V30 8836 C 842.45 1.7787 0.567377 0
M  V30 8837 C 842.801 0.883337 1.7519 0
M  V30 8838 O 841.926 0.0800819 2.16252 0
M  V30 8839 C 842.521 3.2257 1.03606 0
M  V30 8840 C 841.08 3.44026 1.52718 0
M  V30 8841 C 840.227 2.73313 0.468545 0
M  V30 8842 H 843.178 1.57377 -0.2045 0
M  V30 8843 H 843.199 3.29488 1.9031 0
M  V30 8844 H 842.711 3.87711 0.173739 0
M  V30 8845 H 840.812 2.8407 2.41111 0
M  V30 8846 H 840.925 4.52659 1.56962 0
M  V30 8847 H 839.289 2.37299 0.925263 0
M  V30 8848 H 840.072 3.41141 -0.384438 0
M  V30 8849 N 842.517 -0.29412 1.54831 0
M  V30 8850 C 843.928 -0.866651 1.65366 0
M  V30 8851 C 844.279 -1.87834 0.56681 0
M  V30 8852 O 843.404 -2.14374 -0.295389 0
M  V30 8853 C 843.999 -1.57869 2.99771 0
M  V30 8854 C 842.558 -2.09954 3.12404 0
M  V30 8855 C 841.705 -0.934492 2.6108 0
M  V30 8856 H 844.656 -0.0709551 1.58541 0
M  V30 8857 H 844.677 -2.44462 2.91579 0
M  V30 8858 H 844.189 -0.84212 3.78853 0
M  V30 8859 H 842.29 -2.86637 2.38055 0
M  V30 8860 H 842.403 -2.32934 4.18663 0
M  V30 8861 H 840.767 -1.32199 2.17705 0
M  V30 8862 H 841.55 -0.211768 3.42646 0
M  V30 8863 N 843.995 -1.47404 -0.557645 0
M  V30 8864 C 844.942 -1.59859 -1.66475 0
M  V30 8865 C 845.912 -0.441644 -1.60121 0
M  V30 8866 O 847.097 -0.661641 -1.78961 0
M  V30 8867 C 844.237 -1.61843 -3.04797 0
M  V30 8868 C 843.35 -2.8845 -3.2159 0
M  V30 8869 C 842.485 -2.81773 -4.50308 0
M  V30 8870 C 841.524 -4.03208 -4.60532 0
M  V30 8871 N 840.661 -3.94769 -5.80604 0
M  V30 8872 H 845.501 -2.54415 -1.55168 0
M  V30 8873 H 843.038 -1.26194 -0.755876 0
M  V30 8874 H 844.996 -1.60976 -3.84893 0
M  V30 8875 H 843.626 -0.707997 -3.1494 0
M  V30 8876 H 842.678 -2.99186 -2.34929 0
M  V30 8877 H 843.99 -3.78379 -3.25009 0
M  V30 8878 H 843.144 -2.79153 -5.38663 0
M  V30 8879 H 841.883 -1.89527 -4.49367 0
M  V30 8880 H 840.888 -4.06133 -3.70589 0
M  V30 8881 H 842.113 -4.9658 -4.63233 0
M  V30 8882 H 840.059 -3.05326 -5.80613 0
M  V30 8883 H 839.976 -4.78375 -5.854 0
M  V30 8884 H 841.244 -3.96165 -6.71322 0
M  V30 8885 N 845.473 0.80434 -1.35529 0
M  V30 8886 C 846.889 1.10023 -1.15616 0
M  V30 8887 C 847.089 2.01478 0.0298535 0
M  V30 8888 O 846.145 2.42609 0.699778 0
M  V30 8889 C 847.458 1.72905 -2.46017 0
M  V30 8890 C 849.006 1.85315 -2.52245 0
M  V30 8891 C 849.481 2.51612 -3.82695 0
M  V30 8892 N 850.972 2.59095 -3.83958 0
M  V30 8893 C 851.707 3.11167 -4.81625 0
M  V30 8894 N 851.203 3.63659 -5.89681 0
M  V30 8895 N 852.996 3.09741 -4.6906 0
M  V30 8896 H 845.147 0.196428 -2.1149 0
M  V30 8897 H 847.41 0.149735 -0.9361 0
M  V30 8898 H 847.116 1.13171 -3.32994 0
M  V30 8899 H 846.99 2.72579 -2.6073 0
M  V30 8900 H 849.377 2.44191 -1.65695 0
M  V30 8901 H 849.458 0.844886 -2.41444 0
M  V30 8902 H 849.102 1.93385 -4.69643 0
M  V30 8903 H 849.032 3.5298 -3.90785 0
M  V30 8904 H 851.523 2.21908 -3.05884 0
M  V30 8905 H 851.836 4.01699 -6.60195 0
M  V30 8906 H 850.181 3.61852 -5.9337 0
M  V30 8907 H 853.372 2.68011 -3.83781 0
M  V30 8908 H 853.545 3.50016 -5.45338 0
M  V30 8909 N 846.951 1.19563 1.02676 0
M  V30 8910 C 847.861 0.950691 2.14474 0
M  V30 8911 C 848.877 -0.0900219 1.73767 0
M  V30 8912 O 850.053 0.0951063 2.01175 0
M  V30 8913 C 847.118 0.494917 3.43149 0
M  V30 8914 C 846.179 1.60527 3.98158 0
M  V30 8915 C 845.412 1.17115 5.20692 0
M  V30 8916 O 845.635 0.0355937 5.70389 0
M  V30 8917 O 844.569 1.97454 5.68591 0
M  V30 8918 H 848.395 1.88651 2.38001 0
M  V30 8919 H 845.98 0.978635 1.12885 0
M  V30 8920 H 847.862 0.249492 4.20661 0
M  V30 8921 H 846.537 -0.412434 3.21062 0
M  V30 8922 H 845.444 1.90487 3.21971 0
M  V30 8923 H 846.777 2.48925 4.24614 0
M  V30 8924 N 848.429 -1.21819 0.999893 0
M  V30 8925 C 849.339 -2.27691 0.565159 0
M  V30 8926 C 850.355 -1.69587 -0.389398 0
M  V30 8927 O 851.531 -1.99786 -0.254499 0
M  V30 8928 C 848.596 -3.46537 -0.106432 0
M  V30 8929 C 847.657 -4.19932 0.891964 0
M  V30 8930 C 846.89 -5.33103 0.252327 0
M  V30 8931 O 847.113 -5.62398 -0.952103 0
M  V30 8932 O 846.047 -5.94184 0.960698 0
M  V30 8933 H 849.873 -2.67059 1.44613 0
M  V30 8934 H 847.458 -1.28119 0.768499 0
M  V30 8935 H 849.34 -4.18631 -0.482301 0
M  V30 8936 H 848.015 -3.09079 -0.961865 0
M  V30 8937 H 846.922 -3.5008 1.3189 0
M  V30 8938 H 848.255 -4.61287 1.71682 0
M  V30 8939 N 849.908 -0.773975 -1.37286 0
M  V30 8940 C 850.841 -0.108019 -2.27944 0
M  V30 8941 C 851.819 0.706737 -1.46438 0
M  V30 8942 O 853.003 0.681025 -1.75768 0
M  V30 8943 C 850.13 0.853199 -3.27778 0
M  V30 8944 C 849.176 0.122164 -4.26325 0
M  V30 8945 S 850.009 -1.19136 -5.22079 0
M  V30 8946 C 851.165 -0.233737 -6.25463 0
M  V30 8947 H 851.398 -0.876743 -2.84078 0
M  V30 8948 H 848.931 -0.567468 -1.43594 0
M  V30 8949 H 850.889 1.40238 -3.85803 0
M  V30 8950 H 849.55 1.59505 -2.70586 0
M  V30 8951 H 848.743 0.850926 -4.96765 0
M  V30 8952 H 848.345 -0.356079 -3.72301 0
M  V30 8953 H 850.637 0.59305 -6.74899 0
M  V30 8954 H 851.58 -0.906373 -7.02275 0
M  V30 8955 H 851.988 0.156048 -5.64284 0
M  V30 8956 N 851.386 1.48609 -0.524698 0
M  V30 8957 C 852.632 2.02797 0.0113382 0
M  V30 8958 C 852.965 1.40147 1.34433 0
M  V30 8959 O 852.24 0.545368 1.86698 0
M  V30 8960 C 852.523 3.59832 0.138931 0
M  V30 8961 C 852.376 4.32971 -1.21886 0
M  V30 8962 C 853.695 4.3145 0.868265 0
M  V30 8963 H 850.814 0.736995 0.00264645 0
M  V30 8964 H 853.456 1.77388 -0.680704 0
M  V30 8965 H 851.606 3.81612 0.72834 0
M  V30 8966 H 853.278 4.22624 -1.84897 0
M  V30 8967 H 851.521 3.94597 -1.80211 0
M  V30 8968 H 852.192 5.41279 -1.08263 0
M  V30 8969 H 854.668 4.14468 0.368145 0
M  V30 8970 H 853.544 5.41025 0.926428 0
M  V30 8971 H 853.805 3.98358 1.91737 0
M  V30 8972 N 852.864 0.259585 1.55447 0
M  V30 8973 C 853.794 -0.62852 2.24882 0
M  V30 8974 C 854.775 -1.17128 1.23349 0
M  V30 8975 O 855.96 -1.20829 1.52033 0
M  V30 8976 C 853.09 -1.81983 2.95803 0
M  V30 8977 C 852.044 -1.40929 4.04132 0
M  V30 8978 C 851.37 -2.68246 4.62545 0
M  V30 8979 C 852.67 -0.570956 5.1917 0
M  V30 8980 H 854.364 -0.0495021 2.99359 0
M  V30 8981 H 851.91 -0.0223688 1.43983 0
M  V30 8982 H 853.863 -2.44689 3.43082 0
M  V30 8983 H 852.587 -2.42444 2.18835 0
M  V30 8984 H 851.246 -0.805519 3.57641 0
M  V30 8985 H 850.894 -3.26931 3.82263 0
M  V30 8986 H 850.594 -2.41495 5.35681 0
M  V30 8987 H 852.118 -3.31827 5.12565 0
M  V30 8988 H 853.532 -1.10262 5.62597 0
M  V30 8989 H 851.929 -0.398979 5.98772 0
M  V30 8990 H 852.999 0.413918 4.8313 0
M  V30 8991 N 854.342 -1.57594 -0.0133615 0
M  V30 8992 C 855.619 -1.81173 -0.737273 0
M  V30 8993 C 855.999 -0.861395 -1.92726 0
M  V30 8994 O 855.347 0.0929324 -2.28311 0
M  V30 8995 C 855.557 -3.29314 -1.15557 0
M  V30 8996 C 856.905 -3.94707 -1.56498 0
M  V30 8997 O 857.929 -3.33557 -1.24973 0
M  V30 8998 O 856.788 -5.02402 -2.15069 0
M  V30 8999 H 853.882 -0.745575 -0.357837 0
M  V30 9000 H 856.428 -1.69696 0.0110674 0
M  V30 9001 H 855.2 -3.90096 -0.30677 0
M  V30 9002 H 854.823 -3.45739 -1.96343 0
M  V30 9003 N 855.82 0.285905 -1.54985 0
M  V30 9004 C 857.097 1.0397 -1.65679 0
M  V30 9005 C 857.477 2.04725 -0.514851 0
M  V30 9006 O 856.825 2.23257 0.486663 0
M  V30 9007 C 857.035 1.70807 -3.04345 0
M  V30 9008 C 858.383 2.22447 -3.61666 0
M  V30 9009 O 859.407 1.80815 -3.06895 0
M  V30 9010 O 858.266 2.98773 -4.57599 0
M  V30 9011 H 855.36 0.481473 -0.672394 0
M  V30 9012 H 857.906 0.282789 -1.67327 0
M  V30 9013 H 856.678 0.977271 -3.789 0
M  V30 9014 H 856.301 2.53217 -3.06541 0
M  V30 9015 N 857.298 1.47698 0.54982 0
M  V30 9016 C 858.523 1.58579 1.33669 0
M  V30 9017 C 858.948 0.239049 1.86575 0
M  V30 9018 O 858.306 -0.786256 1.63364 0
M  V30 9019 C 858.354 2.62029 2.47736 0
M  V30 9020 O 857.458 2.17813 3.50188 0
M  V30 9021 H 856.799 0.532447 0.396732 0
M  V30 9022 H 859.329 1.93536 0.6637 0
M  V30 9023 H 859.339 2.82682 2.94202 0
M  V30 9024 H 858.014 3.59812 2.08586 0
M  V30 9025 H 856.591 2.07291 3.09976 0
M  V30 9026 N 858.776 -0.797141 1.35954 0
M  V30 9027 C 859.739 -1.89104 1.29508 0
M  V30 9028 C 860.739 -1.59495 0.204444 0
M  V30 9029 O 861.929 -1.68051 0.458746 0
M  V30 9030 C 859.061 -3.25726 1.00576 0
M  V30 9031 H 860.254 -1.96237 2.26785 0
M  V30 9032 H 857.807 -0.994075 1.20614 0
M  V30 9033 H 858.542 -3.24279 0.0372519 0
M  V30 9034 H 858.327 -3.48604 1.79492 0
M  V30 9035 H 859.817 -4.0578 0.986508 0
M  V30 9036 N 860.254 -1.20106 -1.0204 0
M  V30 9037 C 861.67 -0.955099 -1.27867 0
M  V30 9038 C 861.87 0.367595 -1.98119 0
M  V30 9039 O 860.926 1.09705 -2.27423 0
M  V30 9040 C 862.239 -2.13507 -2.11744 0
M  V30 9041 C 863.787 -2.17563 -2.25023 0
M  V30 9042 C 864.262 -3.35035 -3.12275 0
M  V30 9043 N 865.753 -3.35024 -3.19864 0
M  V30 9044 C 866.488 -4.22566 -3.8759 0
M  V30 9045 N 865.984 -5.20278 -4.57474 0
M  V30 9046 N 867.777 -4.10418 -3.84075 0
M  V30 9047 H 859.928 -2.05193 -0.54861 0
M  V30 9048 H 862.191 -0.897689 -0.304728 0
M  V30 9049 H 861.897 -3.09275 -1.67456 0
M  V30 9050 H 861.771 -2.11281 -3.12474 0
M  V30 9051 H 864.158 -1.22359 -2.68537 0
M  V30 9052 H 864.239 -2.23838 -1.23815 0
M  V30 9053 H 863.883 -4.30522 -2.69468 0
M  V30 9054 H 863.813 -3.25996 -4.13563 0
M  V30 9055 H 866.304 -2.64299 -2.701 0
M  V30 9056 H 866.617 -5.83408 -5.06809 0
M  V30 9057 H 864.962 -5.24219 -4.56311 0
M  V30 9058 H 868.153 -3.33353 -3.28623 0
M  V30 9059 H 868.326 -4.78854 -4.36581 0
M  V30 9060 N 861.732 1.21287 -1.00634 0
M  V30 9061 C 862.979 1.90389 -0.6898 0
M  V30 9062 C 863.307 1.78193 0.779574 0
M  V30 9063 O 862.562 1.15358 1.58085 0
M  V30 9064 C 862.861 3.41374 -1.05824 0
M  V30 9065 C 862.527 3.73766 -2.5221 0
M  V30 9066 C 861.189 3.82317 -2.92211 0
M  V30 9067 C 863.541 3.88871 -3.47028 0
M  V30 9068 C 860.869 4.03423 -4.2599 0
M  V30 9069 C 863.221 4.11484 -4.80483 0
M  V30 9070 C 861.885 4.18263 -5.20204 0
M  V30 9071 H 861.155 0.696683 -0.252416 0
M  V30 9072 H 863.802 1.43769 -1.26502 0
M  V30 9073 H 862.107 3.8974 -0.401281 0
M  V30 9074 H 863.804 3.93118 -0.79116 0
M  V30 9075 H 860.394 3.67702 -2.20212 0
M  V30 9076 H 864.578 3.8163 -3.17289 0
M  V30 9077 H 859.834 4.06902 -4.56334 0
M  V30 9078 H 864.008 4.22115 -5.53888 0
M  V30 9079 H 861.635 4.34369 -6.23881 0
M  V30 9080 N 863.21 0.781244 1.36873 0
M  V30 9081 C 864.14 0.188128 2.32741 0
M  V30 9082 C 865.121 -0.672326 1.56249 0
M  V30 9083 O 866.306 -0.607835 1.84442 0
M  V30 9084 C 863.436 -0.684341 3.40491 0
M  V30 9085 C 862.39 0.0755641 4.27933 0
M  V30 9086 C 861.716 -0.916968 5.26779 0
M  V30 9087 C 863.016 1.26006 5.06873 0
M  V30 9088 H 864.71 0.989016 2.82593 0
M  V30 9089 H 862.256 0.477038 1.35869 0
M  V30 9090 H 864.209 -1.10915 4.06541 0
M  V30 9091 H 862.933 -1.51785 2.89187 0
M  V30 9092 H 861.592 0.481258 3.63427 0
M  V30 9093 H 861.24 -1.74528 4.71751 0
M  V30 9094 H 860.94 -0.413 5.86147 0
M  V30 9095 H 862.464 -1.34052 5.95703 0
M  V30 9096 H 863.878 0.911425 5.66009 0
M  V30 9097 H 862.275 1.69676 5.75613 0
M  V30 9098 H 863.345 2.05948 4.38991 0
M  V30 9099 N 864.689 -1.48329 0.532571 0
M  V30 9100 C 865.599 -2.33445 -0.232546 0
M  V30 9101 C 866.615 -1.46651 -0.93645 0
M  V30 9102 O 867.791 -1.79627 -0.910834 0
M  V30 9103 C 864.856 -3.22824 -1.26434 0
M  V30 9104 C 863.917 -4.25492 -0.570511 0
M  V30 9105 C 863.15 -5.10601 -1.55315 0
M  V30 9106 O 863.373 -4.97733 -2.78599 0
M  V30 9107 O 862.307 -5.91927 -1.09112 0
M  V30 9108 H 866.133 -3.00119 0.464988 0
M  V30 9109 H 863.718 -1.46489 0.293462 0
M  V30 9110 H 865.6 -3.78103 -1.86055 0
M  V30 9111 H 864.275 -2.58807 -1.94424 0
M  V30 9112 H 863.182 -3.74041 0.0662587 0
M  V30 9113 H 864.515 -4.92154 0.0674904 0
M  V30 9114 N 866.167 -0.267825 -1.55308 0
M  V30 9115 C 867.397 0.354073 -2.03543 0
M  V30 9116 C 867.805 1.50554 -1.14586 0
M  V30 9117 O 867.148 1.83028 -0.156991 0
M  V30 9118 C 867.21 0.904148 -3.47945 0
M  V30 9119 C 866.874 -0.11775 -4.56848 0
M  V30 9120 C 867.871 -0.934707 -5.11429 0
M  V30 9121 C 865.556 -0.249885 -5.01678 0
M  V30 9122 C 867.55 -1.87005 -6.0935 0
M  V30 9123 C 865.237 -1.18872 -5.99427 0
M  V30 9124 C 866.235 -1.99731 -6.53144 0
M  V30 9125 O 865.923 -2.92028 -7.48983 0
M  V30 9126 H 865.655 0.0857765 -0.670536 0
M  V30 9127 H 868.209 -0.395515 -2.01556 0
M  V30 9128 H 866.439 1.70368 -3.47148 0
M  V30 9129 H 868.128 1.43835 -3.79561 0
M  V30 9130 H 868.894 -0.84332 -4.77612 0
M  V30 9131 H 864.773 0.369469 -4.59517 0
M  V30 9132 H 868.317 -2.5016 -6.51203 0
M  V30 9133 H 864.214 -1.28095 -6.32663 0
M  V30 9134 H 864.982 -2.86627 -7.66673 0
M  V30 9135 N 867.645 1.57599 0.00500368 0
M  V30 9136 C 868.555 2.11532 1.01446 0
M  V30 9137 C 869.571 1.05941 1.3803 0
M  V30 9138 O 870.747 1.37815 1.46864 0
M  V30 9139 C 867.812 2.60382 2.28915 0
M  V30 9140 C 866.873 3.80554 1.98689 0
M  V30 9141 C 866.106 4.27064 3.20081 0
M  V30 9142 O 866.329 3.72939 4.31593 0
M  V30 9143 O 865.263 5.1927 3.04371 0
M  V30 9144 H 869.089 2.97993 0.586011 0
M  V30 9145 H 866.674 1.47718 0.223519 0
M  V30 9146 H 868.556 2.92024 3.03809 0
M  V30 9147 H 867.231 1.77022 2.71007 0
M  V30 9148 H 866.138 3.53893 1.21286 0
M  V30 9149 H 867.471 4.64972 1.61437 0
M  V30 9150 N 869.123 -0.277682 1.55134 0
M  V30 9151 C 870.351 -1.02826 1.7954 0
M  V30 9152 C 870.766 -1.80105 0.566373 0
M  V30 9153 O 870.123 -1.76491 -0.464448 0
M  V30 9154 C 870.174 -1.99053 3.01762 0
M  V30 9155 O 869.895 -1.24906 4.19917 0
M  V30 9156 C 871.396 -2.85961 3.38735 0
M  V30 9157 H 868.616 -0.303958 0.598206 0
M  V30 9158 H 871.16 -0.309884 2.02138 0
M  V30 9159 H 869.315 -2.66359 2.81303 0
M  V30 9160 H 869.729 -1.89725 4.88983 0
M  V30 9161 H 871.203 -3.49286 4.27438 0
M  V30 9162 H 871.68 -3.55486 2.57928 0
M  V30 9163 H 872.286 -2.24152 3.61436 0
M  V30 9164 N 870.601 -1.47988 -0.541979 0
M  V30 9165 C 871.878 -1.45878 -1.30303 0
M  V30 9166 C 872.258 -0.163931 -2.10463 0
M  V30 9167 O 871.606 0.854479 -2.11922 0
M  V30 9168 C 871.816 -2.71359 -2.19466 0
M  V30 9169 C 873.164 -3.19199 -2.79995 0
M  V30 9170 O 874.188 -2.72193 -2.2976 0
M  V30 9171 O 873.047 -4.00961 -3.71339 0
M  V30 9172 H 870.141 -0.582043 -0.587498 0
M  V30 9173 H 872.687 -1.60207 -0.559623 0
M  V30 9174 H 871.459 -3.57122 -1.59936 0
M  V30 9175 H 871.082 -2.59692 -3.01075 0
M  V30 9176 N 872.079 0.78992 -1.36375 0
M  V30 9177 C 873.009 1.91683 -1.33341 0
M  V30 9178 C 873.99 1.68861 -0.204965 0
M  V30 9179 O 875.175 1.89982 -0.402531 0
M  V30 9180 C 872.305 3.28696 -1.12143 0
M  V30 9181 C 871.259 3.66041 -2.21806 0
M  V30 9182 C 870.585 5.01399 -1.85751 0
M  V30 9183 C 871.885 3.74677 -3.63888 0
M  V30 9184 H 873.579 1.94478 -2.27637 0
M  V30 9185 H 871.125 0.934271 -1.09578 0
M  V30 9186 H 873.078 4.07151 -1.08656 0
M  V30 9187 H 871.802 3.26287 -0.142974 0
M  V30 9188 H 870.461 2.89883 -2.24418 0
M  V30 9189 H 870.109 4.9551 -0.864817 0
M  V30 9190 H 869.809 5.27355 -2.59173 0
M  V30 9191 H 871.333 5.82274 -1.83819 0
M  V30 9192 H 872.747 4.43324 -3.63506 0
M  V30 9193 H 871.144 4.12118 -4.3621 0
M  V30 9194 H 872.214 2.75795 -3.9883 0
M  V30 9195 N 873.557 1.20646 1.01402 0
M  V30 9196 C 874.785 1.04389 1.78635 0
M  V30 9197 C 875.2 -0.406771 1.84366 0
M  V30 9198 O 874.557 -1.28239 1.2985 0
M  V30 9199 C 874.608 1.62378 3.22979 0
M  V30 9200 O 874.329 3.01768 3.17597 0
M  V30 9201 C 875.83 1.5111 4.1675 0
M  V30 9202 H 873.05 0.367077 0.56169 0
M  V30 9203 H 875.594 1.59789 1.27624 0
M  V30 9204 H 873.749 1.11092 3.7113 0
M  V30 9205 H 874.163 3.29331 4.08217 0
M  V30 9206 H 875.637 1.96441 5.15863 0
M  V30 9207 H 876.114 0.464011 4.36742 0
M  V30 9208 H 876.72 2.01599 3.74483 0
M  V30 9209 N 875.035 -1.20752 1.01276 0
M  V30 9210 C 876.282 -1.90021 0.699887 0
M  V30 9211 C 876.61 -1.78604 -0.770113 0
M  V30 9212 O 875.865 -1.16195 -1.57471 0
M  V30 9213 C 876.164 -3.40808 1.07633 0
M  V30 9214 C 875.83 -3.72423 2.54189 0
M  V30 9215 C 874.492 -3.80762 2.94234 0
M  V30 9216 C 876.844 -3.87025 3.49086 0
M  V30 9217 C 874.172 -4.01158 4.28123 0
M  V30 9218 C 876.524 -4.0893 4.82658 0
M  V30 9219 C 875.188 -4.15498 5.22415 0
M  V30 9220 H 874.458 -0.695335 0.256107 0
M  V30 9221 H 877.105 -1.43096 1.27263 0
M  V30 9222 H 875.41 -3.89521 0.421944 0
M  V30 9223 H 877.107 -3.92693 0.811997 0
M  V30 9224 H 873.697 -3.66529 2.22158 0
M  V30 9225 H 877.881 -3.79942 3.19309 0
M  V30 9226 H 873.137 -4.04476 4.58486 0
M  V30 9227 H 877.311 -4.19172 5.56119 0
M  V30 9228 H 874.938 -4.31055 6.26176 0
M  V30 9229 N 876.513 -0.788492 -1.36457 0
M  V30 9230 C 877.759 -0.360995 -1.99561 0
M  V30 9231 C 878.092 1.06433 -1.62437 0
M  V30 9232 O 877.367 1.7352 -0.878705 0
M  V30 9233 C 877.65 -0.523735 -3.56271 0
M  V30 9234 C 877.503 -1.99268 -4.03252 0
M  V30 9235 C 878.822 0.0617908 -4.40057 0
M  V30 9236 H 875.941 -0.13264 -0.724966 0
M  V30 9237 H 878.583 -0.994659 -1.61884 0
M  V30 9238 H 876.733 0.0156979 -3.88497 0
M  V30 9239 H 878.405 -2.59311 -3.81518 0
M  V30 9240 H 876.648 -2.49561 -3.54826 0
M  V30 9241 H 877.319 -2.05752 -5.12221 0
M  V30 9242 H 879.795 -0.398674 -4.14186 0
M  V30 9243 H 878.671 -0.0821089 -5.48839 0
M  V30 9244 H 878.932 1.15381 -4.26778 0
M  V30 9245 N 877.991 1.48044 -0.54043 0
M  V30 9246 C 879.239 2.02097 -0.0101367 0
M  V30 9247 C 879.56 1.41881 1.33771 0
M  V30 9248 O 878.83 0.587923 1.8687 0
M  V30 9249 H 877.41 0.747 -0.000758716 0
M  V30 9250 H 880.072 1.81639 -0.706634 0
M  V30 9251 H 879.168 3.11969 0.0904474 0
M  V30 9252 N 879.47 0.276058 1.55163 0
M  V30 9253 C 880.716 -0.340959 1.99913 0
M  V30 9254 C 881.049 -1.55434 1.16422 0
M  V30 9255 O 880.324 -1.93081 0.234517 0
M  V30 9256 C 880.607 -0.722211 3.52783 0
M  V30 9257 C 880.46 0.498575 4.47028 0
M  V30 9258 C 881.779 -1.5583 4.11589 0
M  V30 9259 H 878.898 -0.122455 0.726756 0
M  V30 9260 H 881.54 0.38319 1.86096 0
M  V30 9261 H 879.69 -1.33919 3.64689 0
M  V30 9262 H 881.362 1.13713 4.47065 0
M  V30 9263 H 879.605 1.13646 4.18649 0
M  V30 9264 H 880.276 0.188041 5.5168 0
M  V30 9265 H 882.752 -1.03722 4.02965 0
M  V30 9266 H 881.628 -1.79387 5.1876 0
M  V30 9267 H 881.889 -2.53963 3.61877 0
M  V30 9268 N 880.948 -1.576 0.00335426 0
M  V30 9269 C 882.194 -1.90996 -0.681799 0
M  V30 9270 C 882.527 -0.877643 -1.73237 0
M  V30 9271 O 881.802 0.103183 -1.94226 0
M  V30 9272 C 882.085 -3.34961 -1.32187 0
M  V30 9273 C 881.938 -4.48911 -0.28261 0
M  V30 9274 C 883.257 -3.78408 -2.24711 0
M  V30 9275 H 880.376 -0.694596 -0.246386 0
M  V30 9276 H 883.018 -1.89919 0.055336 0
M  V30 9277 H 881.168 -3.36008 -1.95014 0
M  V30 9278 H 882.84 -4.59999 0.346241 0
M  V30 9279 H 881.083 -4.32 0.394768 0
M  V30 9280 H 881.754 -5.46609 -0.769576 0
M  V30 9281 H 884.23 -3.78934 -1.71897 0
M  V30 9282 H 883.106 -4.79885 -2.66461 0
M  V30 9283 H 883.367 -3.12464 -3.1276 0
M  V30 9284 N 882.426 0.269451 -1.5528 0
M  V30 9285 C 883.674 0.998604 -1.75705 0
M  V30 9286 C 883.995 1.86691 -0.563175 0
M  V30 9287 O 883.265 1.91305 0.421811 0
M  V30 9288 H 881.845 0.371698 -0.647958 0
M  V30 9289 H 884.507 0.292826 -1.92688 0
M  V30 9290 H 883.603 1.63348 -2.6594 0
M  V30 9291 N 883.904 1.48273 0.534124 0
M  V30 9292 C 884.837 1.57053 1.65559 0
M  V30 9293 C 885.815 0.421213 1.5705 0
M  V30 9294 O 886.999 0.632242 1.77581 0
M  V30 9295 C 884.126 1.49465 3.03937 0
M  V30 9296 C 883.172 2.69186 3.30819 0
M  V30 9297 S 884.005 4.31192 3.17543 0
M  V30 9298 C 885.161 4.26197 4.58375 0
M  V30 9299 H 885.394 2.51927 1.57861 0
M  V30 9300 H 882.927 1.36755 0.716763 0
M  V30 9301 H 884.885 1.45775 3.83745 0
M  V30 9302 H 883.546 0.559357 3.09079 0
M  V30 9303 H 882.739 2.60005 4.31756 0
M  V30 9304 H 882.341 2.70118 2.58674 0
M  V30 9305 H 884.633 3.95874 5.49809 0
M  V30 9306 H 885.576 5.27299 4.72611 0
M  V30 9307 H 885.984 3.56723 4.37503 0
M  V30 9308 N 885.382 -0.782676 1.36792 0
M  V30 9309 C 886.312 -1.90973 1.34356 0
M  V30 9310 C 887.293 -1.6875 0.213917 0
M  V30 9311 O 888.478 -1.89766 0.412601 0
M  V30 9312 C 885.608 -3.28097 1.13884 0
M  V30 9313 C 884.562 -3.6486 2.23744 0
M  V30 9314 C 883.888 -5.00406 1.88408 0
M  V30 9315 C 885.188 -3.72742 3.6587 0
M  V30 9316 H 886.882 -1.93268 2.28665 0
M  V30 9317 H 884.428 -0.928447 1.10072 0
M  V30 9318 H 886.381 -4.06569 1.10813 0
M  V30 9319 H 885.105 -3.26206 0.160275 0
M  V30 9320 H 883.764 -2.88689 2.25952 0
M  V30 9321 H 883.412 -4.95044 0.891083 0
M  V30 9322 H 883.112 -5.25973 2.61966 0
M  V30 9323 H 884.636 -5.81291 1.86905 0
M  V30 9324 H 886.05 -4.4139 3.65852 0
M  V30 9325 H 884.447 -4.09798 4.38389 0
M  V30 9326 H 885.517 -2.73676 4.00287 0
M  V30 9327 N 886.86 -1.21182 -1.00761 0
M  V30 9328 C 888.137 -0.936297 -1.71735 0
M  V30 9329 C 888.517 0.552585 -2.03739 0
M  V30 9330 O 887.865 1.51672 -1.70903 0
M  V30 9331 C 888.075 -1.81867 -2.97868 0
M  V30 9332 C 889.423 -2.06594 -3.7095 0
M  V30 9333 O 890.447 -1.79194 -3.07844 0
M  V30 9334 O 889.306 -2.5292 -4.84452 0
M  V30 9335 H 886.4 -0.350867 -0.74888 0
M  V30 9336 H 888.946 -1.32098 -1.06527 0
M  V30 9337 H 887.718 -2.82643 -2.70607 0
M  V30 9338 H 887.341 -1.43463 -3.70815 0
M  V30 9339 N 888.338 1.20213 -1.01915 0
M  V30 9340 C 889.749 1.7136 -0.741131 0
M  V30 9341 C 890.1 1.81705 0.740107 0
M  V30 9342 O 889.225 1.48139 1.57746 0
M  V30 9343 C 889.82 3.11231 -1.33869 0
M  V30 9344 C 888.379 3.59677 -1.10948 0
M  V30 9345 C 887.526 2.36809 -1.4428 0
M  V30 9346 H 890.477 1.05191 -1.1883 0
M  V30 9347 H 890.498 3.7342 -0.730585 0
M  V30 9348 H 890.01 3.03669 -2.41675 0
M  V30 9349 H 888.111 3.72568 -0.0492052 0
M  V30 9350 H 888.224 4.44351 -1.79134 0
M  V30 9351 H 886.588 2.39674 -0.861881 0
M  V30 9352 H 887.371 2.31886 -2.53148 0
M  V30 9353 N 889.816 0.795718 1.36037 0
M  V30 9354 C 891.227 0.433379 1.816 0
M  V30 9355 C 891.578 -1.04341 1.66155 0
M  V30 9356 O 890.703 -1.81004 1.18603 0
M  V30 9357 C 891.298 0.77985 3.29703 0
M  V30 9358 C 889.857 0.470256 3.73451 0
M  V30 9359 C 889.004 1.01119 2.58206 0
M  V30 9360 H 891.955 0.988317 1.24169 0
M  V30 9361 H 891.976 0.0732898 3.80429 0
M  V30 9362 H 891.488 1.85473 3.40913 0
M  V30 9363 H 889.589 -0.596332 3.67797 0
M  V30 9364 H 889.702 0.995276 4.68648 0
M  V30 9365 H 888.066 0.434077 2.50974 0
M  V30 9366 H 888.849 2.09196 2.72198 0
M  V30 9367 N 891.294 -1.47756 0.548274 0
M  V30 9368 C 892.71 -1.58247 0.207401 0
M  V30 9369 C 892.91 -1.54804 -1.28988 0
M  V30 9370 O 891.966 -1.44673 -2.06944 0
M  V30 9371 C 893.279 -2.89129 0.826142 0
M  V30 9372 C 894.827 -3.02695 0.79655 0
M  V30 9373 C 895.302 -4.36264 1.3942 0
M  V30 9374 N 896.793 -4.42877 1.35698 0
M  V30 9375 C 897.528 -5.44773 1.78913 0
M  V30 9376 N 897.024 -6.53528 2.29942 0
M  V30 9377 N 898.817 -5.35765 1.70038 0
M  V30 9378 H 890.968 -1.48236 1.52117 0
M  V30 9379 H 893.231 -0.704957 0.633829 0
M  V30 9380 H 892.937 -2.97358 1.87806 0
M  V30 9381 H 892.811 -3.75891 0.313916 0
M  V30 9382 H 895.198 -2.94067 -0.246655 0
M  V30 9383 H 895.279 -2.17496 1.34644 0
M  V30 9384 H 894.923 -4.45646 2.43642 0
M  V30 9385 H 894.853 -5.20179 0.819827 0
M  V30 9386 H 897.344 -3.64874 0.983623 0
M  V30 9387 H 897.657 -7.27441 2.60863 0
M  V30 9388 H 896.002 -6.54442 2.33947 0
M  V30 9389 H 899.193 -4.49699 1.29955 0
M  V30 9390 H 899.366 -6.1504 2.04035 0
M  V30 9391 N 892.772 -0.284283 -1.55015 0
M  V30 9392 C 893.719 0.599194 -2.22886 0
M  V30 9393 C 894.689 1.14264 -1.20553 0
M  V30 9394 O 895.874 1.19025 -1.49123 0
M  V30 9395 C 893.014 1.77317 -2.96062 0
M  V30 9396 C 892.127 1.26271 -4.13134 0
M  V30 9397 C 891.262 2.39922 -4.73931 0
M  V30 9398 C 890.301 1.85925 -5.8318 0
M  V30 9399 N 889.438 2.93084 -6.38002 0
M  V30 9400 H 894.278 0.0137816 -2.97997 0
M  V30 9401 H 891.815 -0.00496503 -1.47099 0
M  V30 9402 H 893.773 2.46339 -3.36709 0
M  V30 9403 H 892.403 2.33047 -2.23358 0
M  V30 9404 H 891.455 0.465296 -3.77544 0
M  V30 9405 H 892.767 0.827284 -4.91892 0
M  V30 9406 H 891.921 3.1692 -5.17346 0
M  V30 9407 H 890.66 2.86784 -3.9447 0
M  V30 9408 H 889.665 1.07409 -5.39206 0
M  V30 9409 H 890.89 1.39987 -6.64515 0
M  V30 9410 H 888.836 3.3931 -5.61431 0
M  V30 9411 H 888.753 2.53986 -7.12058 0
M  V30 9412 H 890.021 3.7003 -6.86075 0
M  V30 9413 N 894.251 1.57596 -0.0117121 0
M  V30 9414 C 895.161 2.12596 0.991964 0
M  V30 9415 C 896.177 1.07399 1.36899 0
M  V30 9416 O 897.353 1.39365 1.45394 0
M  V30 9417 C 894.418 2.62796 2.2614 0
M  V30 9418 C 893.479 3.8264 1.94642 0
M  V30 9419 C 892.712 4.30435 3.15533 0
M  V30 9420 O 892.935 3.77495 4.27614 0
M  V30 9421 O 891.869 5.22469 2.98847 0
M  V30 9422 H 895.695 2.98597 0.554371 0
M  V30 9423 H 893.28 1.47947 0.207839 0
M  V30 9424 H 895.162 2.9523 3.00695 0
M  V30 9425 H 893.837 1.79886 2.69114 0
M  V30 9426 H 892.744 3.5516 1.17526 0
M  V30 9427 H 894.077 4.66658 1.56496 0
M  V30 9428 N 895.729 -0.261212 1.5542 0
M  V30 9429 C 896.975 -0.992699 1.76843 0
M  V30 9430 C 897.308 -1.8551 0.574428 0
M  V30 9431 O 896.583 -1.89739 -0.427713 0
M  V30 9432 C 896.866 -1.86532 3.08022 0
M  V30 9433 C 896.719 -1.03206 4.378 0
M  V30 9434 C 898.038 -2.85036 3.35324 0
M  V30 9435 H 895.157 -0.359473 0.643388 0
M  V30 9436 H 897.799 -0.264214 1.88154 0
M  V30 9437 H 895.949 -2.48644 2.9851 0
M  V30 9438 H 897.621 -0.430743 4.59285 0
M  V30 9439 H 895.864 -0.335911 4.32497 0
M  V30 9440 H 896.535 -1.6761 5.25938 0
M  V30 9441 H 899.011 -2.3306 3.44706 0
M  V30 9442 H 897.887 -3.43226 4.28354 0
M  V30 9443 H 898.148 -3.60768 2.55537 0
M  V30 9444 N 897.207 -1.48554 -0.526253 0
M  V30 9445 C 898.435 -1.60429 -1.30652 0
M  V30 9446 C 898.85 -0.265963 -1.86917 0
M  V30 9447 O 898.207 0.745262 -1.6659 0
M  V30 9448 C 898.258 -2.65377 -2.45473 0
M  V30 9449 O 897.979 -3.94017 -1.91527 0
M  V30 9450 C 899.48 -2.87726 -3.37237 0
M  V30 9451 H 896.7 -0.540817 -0.397187 0
M  V30 9452 H 899.244 -1.94409 -0.634461 0
M  V30 9453 H 897.399 -2.34246 -3.08557 0
M  V30 9454 H 897.813 -4.51623 -2.66715 0
M  V30 9455 H 899.287 -3.64951 -4.14144 0
M  V30 9456 H 899.764 -1.96688 -3.92696 0
M  V30 9457 H 900.37 -3.20176 -2.79942 0
M  V30 9458 N 898.685 0.775411 -1.37205 0
M  V30 9459 C 899.933 1.53081 -1.3195 0
M  V30 9460 C 900.254 1.9476 0.0966864 0
M  V30 9461 O 899.524 1.66019 1.03993 0
M  V30 9462 H 898.104 0.567762 -0.485444 0
M  V30 9463 H 900.766 0.92309 -1.71654 0
M  V30 9464 H 899.862 2.4319 -1.95614 0
M  V30 9465 N 900.163 1.21714 1.00117 0
M  V30 9466 C 901.388 1.06357 1.78054 0
M  V30 9467 C 901.813 -0.382075 1.84179 0
M  V30 9468 O 901.171 -1.27575 1.28819 0
M  V30 9469 C 901.219 1.66982 3.19608 0
M  V30 9470 O 900.323 0.917892 4.02055 0
M  V30 9471 H 899.664 0.374074 0.548602 0
M  V30 9472 H 902.194 1.61338 1.25822 0
M  V30 9473 H 902.204 1.71363 3.70268 0
M  V30 9474 H 900.879 2.72185 3.14465 0
M  V30 9475 H 899.456 0.949473 3.6061 0
M  V30 9476 N 901.641 -1.19671 1.02551 0
M  V30 9477 C 902.89 -1.88591 0.715272 0
M  V30 9478 C 903.203 -1.80274 -0.758982 0
M  V30 9479 O 904.409 -2.44413 -1.18213 0
M  V30 9480 C 902.865 -3.38264 1.22905 0
M  V30 9481 C 902.473 -3.55146 2.73084 0
M  V30 9482 C 904.217 -4.12683 0.994649 0
M  V30 9483 C 902.124 -4.98693 3.17897 0
M  V30 9484 H 901.054 -0.706326 0.263857 0
M  V30 9485 H 903.705 -1.35322 1.23936 0
M  V30 9486 H 902.087 -3.9091 0.632892 0
M  V30 9487 H 903.261 -3.12845 3.38326 0
M  V30 9488 H 901.576 -2.94112 2.94766 0
M  V30 9489 H 904.173 -5.18536 1.30478 0
M  V30 9490 H 904.516 -4.16243 -0.0686466 0
M  V30 9491 H 905.049 -3.66164 1.55464 0
M  V30 9492 H 901.788 -5.00293 4.23542 0
M  V30 9493 H 901.308 -5.4177 2.57381 0
M  V30 9494 H 902.987 -5.67327 3.11045 0
M  V30 9495 N 903.119 -0.802921 -1.35613 0
M  V30 9496 C 904.051 -0.168461 -2.2858 0
M  V30 9497 C 905.064 0.630123 -1.50111 0
M  V30 9498 O 906.253 0.463086 -1.72388 0
M  V30 9499 C 903.353 0.783943 -3.29708 0
M  V30 9500 C 902.526 0.0325165 -4.37388 0
M  V30 9501 C 901.585 0.902859 -5.18396 0
M  V30 9502 O 900.611 0.355144 -5.68091 0
M  V30 9503 N 901.813 2.22542 -5.36149 0
M  V30 9504 H 904.578 -0.96709 -2.83668 0
M  V30 9505 H 902.139 -0.658043 -1.47924 0
M  V30 9506 H 904.131 1.37034 -3.80794 0
M  V30 9507 H 902.701 1.48339 -2.75162 0
M  V30 9508 H 901.921 -0.735057 -3.87286 0
M  V30 9509 H 903.209 -0.485499 -5.06478 0
M  V30 9510 H 902.607 2.69439 -4.97412 0
M  V30 9511 H 901.164 2.76113 -5.90428 0
M  V30 9512 N 904.597 1.47463 -0.556102 0
M  V30 9513 C 905.527 2.32801 0.180497 0
M  V30 9514 C 906.508 1.43721 0.909848 0
M  V30 9515 O 907.693 1.72578 0.89053 0
M  V30 9516 C 904.823 3.25478 1.21167 0
M  V30 9517 C 903.777 4.2379 0.598846 0
M  V30 9518 C 903.103 5.05783 1.73457 0
M  V30 9519 C 904.403 5.20387 -0.446659 0
M  V30 9520 H 906.097 2.94636 -0.531956 0
M  V30 9521 H 903.643 1.41683 -0.257267 0
M  V30 9522 H 905.596 3.8402 1.73513 0
M  V30 9523 H 904.32 2.61695 1.95405 0
M  V30 9524 H 902.979 3.66472 0.0966897 0
M  V30 9525 H 902.627 4.38405 2.46596 0
M  V30 9526 H 902.327 5.72343 1.33031 0
M  V30 9527 H 903.851 5.67183 2.26131 0
M  V30 9528 H 905.265 5.73299 -0.00930019 0
M  V30 9529 H 903.662 5.95143 -0.769735 0
M  V30 9530 H 904.732 4.65932 -1.34295 0
M  V30 9531 N 906.075 0.2925 1.54862 0
M  V30 9532 C 907.315 -0.32024 2.01876 0
M  V30 9533 C 907.679 -1.5174 1.17639 0
M  V30 9534 O 908.88 -2.20094 1.54312 0
M  V30 9535 C 907.151 -0.67611 3.50947 0
M  V30 9536 S 908.71 -1.27292 4.19931 0
M  V30 9537 H 905.528 -0.0987374 0.704111 0
M  V30 9538 H 908.13 0.41839 1.90971 0
M  V30 9539 H 906.834 0.203797 4.09894 0
M  V30 9540 H 906.365 -1.44575 3.65871 0
M  V30 9541 H 908.38 -2.56102 4.25002 0
M  V30 9542 N 907.553 -1.57587 0.0200696 0
M  V30 9543 C 908.969 -1.56018 -0.336237 0
M  V30 9544 C 909.169 -1.02478 -1.73495 0
M  V30 9545 O 908.225 -0.667487 -2.43518 0
M  V30 9546 C 909.538 -3.00079 -0.193112 0
M  V30 9547 C 911.086 -3.11863 -0.266557 0
M  V30 9548 C 911.561 -4.57747 -0.152326 0
M  V30 9549 N 913.052 -4.62726 -0.209596 0
M  V30 9550 C 913.787 -5.73217 -0.144855 0
M  V30 9551 N 913.283 -6.92794 -0.0295487 0
M  V30 9552 N 915.076 -5.61751 -0.198184 0
M  V30 9553 H 907.227 -1.90722 0.93482 0
M  V30 9554 H 909.49 -0.876909 0.360186 0
M  V30 9555 H 909.196 -3.43167 0.770036 0
M  V30 9556 H 909.07 -3.64593 -0.967029 0
M  V30 9557 H 911.457 -2.68693 -1.22016 0
M  V30 9558 H 911.538 -2.50087 0.53758 0
M  V30 9559 H 911.182 -5.01595 0.797817 0
M  V30 9560 H 911.112 -5.17491 -0.97521 0
M  V30 9561 H 913.603 -3.76713 -0.299229 0
M  V30 9562 H 913.916 -7.72799 0.0134071 0
M  V30 9563 H 912.261 -6.95 0.00510737 0
M  V30 9564 H 915.452 -4.67222 -0.286603 0
M  V30 9565 H 915.625 -6.47839 -0.144266 0
M  V30 9566 N 909.032 0.252966 -1.55557 0
M  V30 9567 C 910.309 1.00432 -1.67847 0
M  V30 9568 C 910.689 2.03587 -0.55816 0
M  V30 9569 O 910.037 2.24239 0.439197 0
M  V30 9570 C 910.247 1.64313 -3.079 0
M  V30 9571 C 911.595 2.14726 -3.66303 0
M  V30 9572 O 912.619 1.74264 -3.10661 0
M  V30 9573 O 911.478 2.89 -4.63833 0
M  V30 9574 H 908.572 0.467102 -0.682455 0
M  V30 9575 H 911.118 0.247233 -1.67889 0
M  V30 9576 H 909.89 0.896681 -3.80888 0
M  V30 9577 H 909.513 2.46657 -3.11843 0
M  V30 9578 N 910.51 1.48831 0.518367 0
M  V30 9579 C 911.473 1.63721 1.604 0
M  V30 9580 C 912.473 0.509857 1.52503 0
M  V30 9581 O 913.663 0.775922 1.55965 0
M  V30 9582 C 910.795 1.61831 3.00039 0
M  V30 9583 H 911.988 2.60534 1.48533 0
M  V30 9584 H 909.541 1.37602 0.741309 0
M  V30 9585 H 910.276 0.665387 3.17401 0
M  V30 9586 H 910.061 2.43686 3.0718 0
M  V30 9587 H 911.551 1.75467 3.78947 0
M  V30 9588 N 911.988 -0.768124 1.37614 0
M  V30 9589 C 913.236 -1.52379 1.3276 0
M  V30 9590 C 913.557 -1.94809 -0.0863564 0
M  V30 9591 O 912.827 -1.66568 -1.03112 0
M  V30 9592 H 911.407 -0.565179 0.488448 0
M  V30 9593 H 914.069 -0.913974 1.72141 0
M  V30 9594 H 913.165 -2.4215 1.96901 0
M  V30 9595 N 913.466 -1.22244 -0.994698 0
M  V30 9596 C 914.715 -1.04005 -1.72817 0
M  V30 9597 C 915.028 0.425413 -1.90918 0
M  V30 9598 O 916.234 0.727429 -2.61574 0
M  V30 9599 C 914.69 -1.81244 -3.10932 0
M  V30 9600 C 914.298 -3.32028 -3.00768 0
M  V30 9601 C 916.042 -1.71448 -3.88337 0
M  V30 9602 C 913.949 -4.01716 -4.34026 0
M  V30 9603 H 912.879 -0.385559 -0.647966 0
M  V30 9604 H 915.53 -1.46077 -1.11058 0
M  V30 9605 H 913.912 -1.3197 -3.73363 0
M  V30 9606 H 915.086 -3.88682 -2.47513 0
M  V30 9607 H 913.401 -3.4248 -2.36846 0
M  V30 9608 H 915.998 -2.20836 -4.86965 0
M  V30 9609 H 916.341 -0.674568 -4.10798 0
M  V30 9610 H 916.874 -2.18256 -3.3258 0
M  V30 9611 H 913.613 -5.05952 -4.16765 0
M  V30 9612 H 913.133 -3.49849 -4.87202 0
M  V30 9613 H 914.812 -4.0721 -5.02782 0
M  V30 9614 N 914.944 1.19125 -1.03184 0
M  V30 9615 C 916.36 1.40909 -0.749447 0
M  V30 9616 C 916.56 1.9022 0.664729 0
M  V30 9617 O 915.616 2.08085 1.43028 0
M  V30 9618 C 916.929 2.41761 -1.78807 0
M  V30 9619 C 918.477 2.55503 -1.80796 0
M  V30 9620 C 918.952 3.59612 -2.83626 0
M  V30 9621 N 920.443 3.6711 -2.82461 0
M  V30 9622 C 921.178 4.47366 -3.5868 0
M  V30 9623 N 920.674 5.31302 -4.44623 0
M  V30 9624 N 922.467 4.42044 -3.47208 0
M  V30 9625 H 914.618 0.854399 -1.94458 0
M  V30 9626 H 916.881 0.437753 -0.840878 0
M  V30 9627 H 916.587 2.12559 -2.80199 0
M  V30 9628 H 916.461 3.40981 -1.61283 0
M  V30 9629 H 918.848 2.84027 -0.800803 0
M  V30 9630 H 918.929 1.56427 -2.02396 0
M  V30 9631 H 918.573 3.3183 -3.84515 0
M  V30 9632 H 918.503 4.58345 -2.59283 0
M  V30 9633 H 920.994 3.07166 -2.2013 0
M  V30 9634 H 921.307 5.89667 -4.99512 0
M  V30 9635 H 919.652 5.30753 -4.48694 0
M  V30 9636 H 922.843 3.75513 -2.79477 0
M  V30 9637 H 923.016 5.0435 -4.06859 0
M  V30 9638 N 916.422 0.810101 1.35185 0
M  V30 9639 C 917.668 0.392698 1.98962 0
M  V30 9640 C 918.001 -1.03835 1.64109 0
M  V30 9641 O 917.276 -1.721 0.9062 0
M  V30 9642 C 917.559 0.580349 3.55393 0
M  V30 9643 C 917.412 2.05658 4.00031 0
M  V30 9644 C 918.731 0.00822618 4.40099 0
M  V30 9645 H 915.85 0.144157 0.722764 0
M  V30 9646 H 918.492 1.02029 1.60281 0
M  V30 9647 H 916.642 0.0461106 3.88473 0
M  V30 9648 H 918.314 2.65348 3.77344 0
M  V30 9649 H 916.557 2.55174 3.50811 0
M  V30 9650 H 917.228 2.13875 5.08883 0
M  V30 9651 H 919.704 0.464517 4.13499 0
M  V30 9652 H 918.58 0.169414 5.48638 0
M  V30 9653 H 918.841 -1.08576 4.2856 0
M  V30 9654 N 917.9 -1.47166 0.563914 0
M  V30 9655 C 919.149 -2.0166 0.0401871 0
M  V30 9656 C 919.462 -1.44303 -1.32046 0
M  V30 9657 O 920.668 -1.905 -1.93448 0
M  V30 9658 C 919.124 -3.59894 0.0213257 0
M  V30 9659 C 918.732 -4.26244 1.37914 0
M  V30 9660 C 920.476 -4.22114 -0.449442 0
M  V30 9661 C 918.383 -5.76503 1.31902 0
M  V30 9662 H 917.313 -0.753916 0.0112534 0
M  V30 9663 H 919.964 -1.69091 0.712766 0
M  V30 9664 H 918.346 -3.89454 -0.717038 0
M  V30 9665 H 919.52 -4.08317 2.13574 0
M  V30 9666 H 917.835 -3.76039 1.78839 0
M  V30 9667 H 920.432 -5.32234 -0.51292 0
M  V30 9668 H 920.775 -3.89749 -1.46291 0
M  V30 9669 H 921.308 -3.9711 0.23427 0
M  V30 9670 H 918.047 -6.13498 2.3087 0
M  V30 9671 H 917.567 -5.96748 0.604324 0
M  V30 9672 H 919.246 -6.38846 1.02392 0
M  V30 9673 N 919.378 -0.300708 -1.54705 0
M  V30 9674 C 920.311 0.617513 -2.19686 0
M  V30 9675 C 921.289 1.1331 -1.16617 0
M  V30 9676 O 922.473 1.20135 -1.45258 0
M  V30 9677 C 919.6 1.84486 -2.84047 0
M  V30 9678 C 918.646 1.46253 -4.0064 0
M  V30 9679 S 919.479 0.518718 -5.32982 0
M  V30 9680 C 920.635 1.75387 -6.00825 0
M  V30 9681 H 920.868 0.0654548 -2.97228 0
M  V30 9682 H 918.401 -0.0848492 -1.54167 0
M  V30 9683 H 920.359 2.54921 -3.21754 0
M  V30 9684 H 919.02 2.36808 -2.06351 0
M  V30 9685 H 918.213 2.37648 -4.44454 0
M  V30 9686 H 917.815 0.838129 -3.64488 0
M  V30 9687 H 920.107 2.69448 -6.21614 0
M  V30 9688 H 921.05 1.35829 -6.9495 0
M  V30 9689 H 921.458 1.93045 -5.30466 0
M  V30 9690 N 920.856 1.57574 -0.0284266 0
M  V30 9691 C 922.105 1.9095 0.649704 0
M  V30 9692 C 922.418 0.906421 1.7333 0
M  V30 9693 O 923.624 1.1314 2.46803 0
M  V30 9694 C 922.08 3.39061 1.20687 0
M  V30 9695 C 921.688 4.47726 0.156597 0
M  V30 9696 C 923.432 3.81505 1.86156 0
M  V30 9697 C 921.339 5.86935 0.725365 0
M  V30 9698 H 920.269 0.712589 0.24644 0
M  V30 9699 H 922.92 1.83261 -0.0936143 0
M  V30 9700 H 921.302 3.41679 2.00178 0
M  V30 9701 H 922.476 4.56667 -0.6158 0
M  V30 9702 H 920.791 4.14481 -0.399288 0
M  V30 9703 H 923.388 4.82865 2.29665 0
M  V30 9704 H 923.731 3.16529 2.70398 0
M  V30 9705 H 924.264 3.81307 1.13356 0
M  V30 9706 H 921.003 6.55453 -0.0789081 0
M  V30 9707 H 920.523 5.81602 1.46627 0
M  V30 9708 H 922.202 6.35483 1.21532 0
M  V30 9709 N 922.334 -0.244713 1.55689 0
M  V30 9710 C 923.562 -0.989944 1.8168 0
M  V30 9711 C 923.977 -1.78863 0.604449 0
M  V30 9712 O 923.334 -1.77437 -0.426907 0
M  V30 9713 C 923.385 -1.92607 3.05916 0
M  V30 9714 O 923.106 -1.1597 4.22472 0
M  V30 9715 C 924.607 -2.78711 3.44724 0
M  V30 9716 H 921.827 -0.2912 0.604519 0
M  V30 9717 H 924.371 -0.266938 2.0275 0
M  V30 9718 H 922.526 -2.60333 2.8689 0
M  V30 9719 H 922.94 -1.79311 4.92898 0
M  V30 9720 H 924.414 -3.40141 4.34751 0
M  V30 9721 H 924.891 -3.49935 2.6541 0
M  V30 9722 H 925.497 -2.16435 3.66109 0
M  V30 9723 N 923.813 -1.49104 -0.510467 0
M  V30 9724 C 925.061 -1.578 -1.26268 0
M  V30 9725 C 925.382 -0.262349 -1.93227 0
M  V30 9726 O 924.652 0.717624 -1.82283 0
M  V30 9727 H 923.232 -0.581387 -0.46904 0
M  V30 9728 H 925.894 -1.85678 -0.592423 0
M  V30 9729 H 924.99 -2.36919 -2.03165 0
M  V30 9730 N 925.291 0.760815 -1.38019 0
M  V30 9731 C 926.568 1.5098 -1.24356 0
M  V30 9732 C 926.948 2.10507 0.158169 0
M  V30 9733 O 926.296 1.96455 1.16695 0
M  V30 9734 C 926.506 2.58195 -2.34811 0
M  V30 9735 C 927.854 3.25297 -2.72886 0
M  V30 9736 O 928.878 2.68496 -2.34069 0
M  V30 9737 O 927.737 4.28018 -3.39799 0
M  V30 9738 H 924.831 0.66921 -0.485888 0
M  V30 9739 H 927.377 0.796844 -1.49828 0
M  V30 9740 H 926.149 2.12406 -3.28633 0
M  V30 9741 H 925.772 3.37079 -2.10864 0
M  V30 9742 N 926.769 1.22769 0.988202 0
M  V30 9743 C 927.717 0.999271 2.10041 0
M  V30 9744 C 928.711 -0.0591767 1.69297 0
M  V30 9745 O 929.917 0.0936653 1.79756 0
M  V30 9746 H 926.292 0.30599 0.686931 0
M  V30 9747 H 928.263 1.94294 2.26478 0
M  V30 9748 C 927.012 0.59873 3.42506 0
M  V30 9749 H 926.335 1.40487 3.74304 0
M  V30 9750 H 927.775 0.478353 4.21293 0
M  V30 9751 C 926.234 -0.692216 3.29712 0
M  V30 9752 O 926.764 -1.74342 3.61895 0
M  V30 9753 N 924.97 -0.665163 2.82885 0
M  V30 9754 H 924.517 0.190604 2.56894 0
M  V30 9755 H 924.475 -1.52917 2.74706 0
M  V30 9756 N 928.247 -1.18576 1.03814 0
M  V30 9757 C 929.194 -2.2212 0.626988 0
M  V30 9758 C 930.164 -1.62064 -0.363912 0
M  V30 9759 O 931.349 -1.89041 -0.258469 0
M  V30 9760 C 928.489 -3.45099 -0.00650133 0
M  V30 9761 C 927.602 -4.19503 1.03156 0
M  V30 9762 C 926.737 -5.29932 0.366852 0
M  V30 9763 C 925.776 -5.96104 1.39018 0
M  V30 9764 N 924.913 -6.98076 0.750625 0
M  V30 9765 H 929.753 -2.56646 1.51449 0
M  V30 9766 H 927.29 -1.26084 0.757702 0
M  V30 9767 H 929.248 -4.15363 -0.391108 0
M  V30 9768 H 927.878 -3.11201 -0.857536 0
M  V30 9769 H 926.93 -3.48092 1.53414 0
M  V30 9770 H 928.242 -4.64843 1.80893 0
M  V30 9771 H 927.396 -6.06657 -0.0720979 0
M  V30 9772 H 926.135 -4.85687 -0.442631 0
M  V30 9773 H 925.14 -5.18122 1.8393 0
M  V30 9774 H 926.365 -6.42432 2.20132 0
M  V30 9775 H 924.311 -6.55989 -0.0385981 0
M  V30 9776 H 924.228 -7.41655 1.46574 0
M  V30 9777 H 925.496 -7.78776 0.335986 0
M  V30 9778 N 929.725 -0.817259 -1.34754 0
M  V30 9779 C 930.973 -0.401852 -1.98065 0
M  V30 9780 C 931.294 1.03718 -1.65129 0
M  V30 9781 O 930.564 1.71921 -0.939141 0
M  V30 9782 H 929.144 -0.145603 -0.732672 0
M  V30 9783 H 931.806 -1.04545 -1.64488 0
M  V30 9784 H 930.902 -0.516241 -3.07801 0
M  V30 9785 N 931.203 1.46865 -0.571711 0
M  V30 9786 C 932.431 2.06818 -0.0583975 0
M  V30 9787 C 932.846 1.42218 1.24175 0
M  V30 9788 O 932.203 0.523655 1.74826 0
M  V30 9789 C 932.254 3.61281 0.125673 0
M  V30 9790 O 931.975 4.23462 -1.123 0
M  V30 9791 C 933.476 4.38137 0.674604 0
M  V30 9792 H 930.696 0.668948 -0.052438 0
M  V30 9793 H 933.24 1.88656 -0.789251 0
M  V30 9794 H 931.395 3.78908 0.806707 0
M  V30 9795 H 931.809 5.16192 -0.929869 0
M  V30 9796 H 933.283 5.46845 0.752626 0
M  V30 9797 H 933.76 4.05419 1.68915 0
M  V30 9798 H 934.366 4.2529 0.0287979 0
M  V30 9799 N 932.681 0.308908 1.54543 0
M  V30 9800 C 933.644 -0.550857 2.22482 0
M  V30 9801 C 934.644 -1.0551 1.21344 0
M  V30 9802 O 935.834 -0.949866 1.46025 0
M  V30 9803 C 932.966 -1.76354 2.9174 0
M  V30 9804 H 934.159 0.0428395 2.99869 0
M  V30 9805 H 931.712 0.059825 1.56185 0
M  V30 9806 H 932.447 -2.39686 2.18451 0
M  V30 9807 H 932.232 -1.40954 3.65889 0
M  V30 9808 H 933.722 -2.37417 3.43545 0
M  V30 9809 N 934.159 -1.57557 0.0367827 0
M  V30 9810 C 935.408 -1.91291 -0.639569 0
M  V30 9811 C 935.721 -0.915601 -1.72847 0
M  V30 9812 O 936.927 -1.14447 -2.46199 0
M  V30 9813 C 935.383 -3.39697 -1.18888 0
M  V30 9814 C 934.991 -4.47803 -0.132851 0
M  V30 9815 C 936.735 -3.82487 -1.8413 0
M  V30 9816 C 934.642 -5.87311 -0.694229 0
M  V30 9817 H 933.572 -0.713886 -0.242658 0
M  V30 9818 H 936.223 -1.83209 0.103332 0
M  V30 9819 H 934.605 -3.42736 -1.98363 0
M  V30 9820 H 935.779 -4.56334 0.640009 0
M  V30 9821 H 934.094 -4.14264 0.421264 0
M  V30 9822 H 936.691 -4.84076 -2.27101 0
M  V30 9823 H 937.034 -3.17959 -2.68716 0
M  V30 9824 H 937.567 -3.81903 -1.11332 0
M  V30 9825 H 934.306 -6.55401 0.113667 0
M  V30 9826 H 933.826 -5.82371 -1.4354 0
M  V30 9827 H 935.505 -6.36119 -1.1816 0
M  V30 9828 N 935.637 0.236453 -1.55816 0
M  V30 9829 C 936.6 1.27633 -1.90375 0
M  V30 9830 C 937.6 1.40557 -0.781048 0
M  V30 9831 O 938.79 1.39078 -1.04895 0
M  V30 9832 C 935.922 2.65247 -2.14142 0
M  V30 9833 H 937.115 0.982019 -2.83366 0
M  V30 9834 H 934.668 0.476215 -1.48869 0
M  V30 9835 H 935.403 2.99801 -1.23653 0
M  V30 9836 H 935.188 2.57246 -2.95917 0
M  V30 9837 H 936.678 3.40313 -2.42026 0
M  V30 9838 N 937.115 1.49373 0.502552 0
M  V30 9839 C 938.364 1.58028 1.25339 0
M  V30 9840 C 938.677 0.271494 1.93707 0
M  V30 9841 O 939.883 0.236584 2.70467 0
M  V30 9842 C 938.339 2.78817 2.27572 0
M  V30 9843 C 937.947 4.16448 1.65151 0
M  V30 9844 C 939.691 2.96802 3.03494 0
M  V30 9845 C 937.598 5.28461 2.65486 0
M  V30 9846 H 936.528 0.588396 0.471494 0
M  V30 9847 H 939.179 1.75756 0.52744 0
M  V30 9848 H 937.561 2.5458 3.03323 0
M  V30 9849 H 938.735 4.50816 0.954029 0
M  V30 9850 H 937.05 4.03809 1.01625 0
M  V30 9851 H 939.647 3.77656 3.78524 0
M  V30 9852 H 939.99 2.07303 3.61014 0
M  V30 9853 H 940.523 3.21071 2.34858 0
M  V30 9854 H 937.262 6.20015 2.12749 0
M  V30 9855 H 936.782 4.9855 3.33479 0
M  V30 9856 H 938.461 5.5773 3.27943 0
M  V30 9857 N 938.594 -0.753485 1.38421 0
M  V30 9858 C 939.834 -1.52544 1.3605 0
M  V30 9859 C 940.198 -1.91937 -0.0493257 0
M  V30 9860 O 941.399 -2.6807 -0.197908 0
M  V30 9861 C 939.67 -2.74432 2.28958 0
M  V30 9862 S 941.229 -3.64297 2.44607 0
M  V30 9863 H 938.047 -0.522017 0.48272 0
M  V30 9864 H 940.649 -0.884503 1.74347 0
M  V30 9865 H 939.353 -2.43602 3.30282 0
M  V30 9866 H 938.884 -3.43471 1.91811 0
M  V30 9867 H 940.899 -4.67245 1.67022 0
M  V30 9868 N 940.072 -1.23292 -0.981677 0
M  V30 9869 C 941.488 -0.995295 -1.24764 0
M  V30 9870 C 941.688 0.304379 -1.99188 0
M  V30 9871 O 940.744 1.02414 -2.30798 0
M  V30 9872 C 942.057 -2.20135 -2.04844 0
M  V30 9873 C 943.605 -2.24612 -2.17988 0
M  V30 9874 C 944.08 -3.448 -3.01458 0
M  V30 9875 N 945.571 -3.45031 -3.09044 0
M  V30 9876 C 946.306 -4.34683 -3.7395 0
M  V30 9877 N 945.802 -5.34569 -4.4069 0
M  V30 9878 N 947.595 -4.22429 -3.70823 0
M  V30 9879 H 939.746 -2.06834 -0.483052 0
M  V30 9880 H 942.009 -0.906929 -0.276014 0
M  V30 9881 H 941.715 -3.14446 -1.57532 0
M  V30 9882 H 941.589 -2.21115 -3.05594 0
M  V30 9883 H 943.976 -1.30841 -2.64508 0
M  V30 9884 H 944.057 -2.27664 -1.16631 0
M  V30 9885 H 943.701 -4.38877 -2.55635 0
M  V30 9886 H 943.631 -3.38988 -4.02982 0
M  V30 9887 H 946.122 -2.72759 -2.61555 0
M  V30 9888 H 946.435 -5.99236 -4.87991 0
M  V30 9889 H 944.78 -5.3847 -4.39403 0
M  V30 9890 H 947.971 -3.43639 -3.17851 0
M  V30 9891 H 948.144 -4.92501 -4.21126 0
M  V30 9892 N 941.55 1.18024 -1.04442 0
M  V30 9893 C 942.966 1.40107 -0.76435 0
M  V30 9894 C 943.166 1.90914 0.644516 0
M  V30 9895 O 942.222 2.0959 1.40813 0
M  V30 9896 C 943.535 2.39851 -1.81361 0
M  V30 9897 C 945.083 2.53571 -1.83496 0
M  V30 9898 C 945.558 3.56583 -2.87424 0
M  V30 9899 N 947.049 3.64094 -2.86339 0
M  V30 9900 C 947.784 4.43537 -3.63405 0
M  V30 9901 N 947.28 5.26557 -4.50233 0
M  V30 9902 N 949.073 4.38336 -3.51877 0
M  V30 9903 H 941.224 0.833726 -1.95353 0
M  V30 9904 H 943.487 0.42881 -0.845474 0
M  V30 9905 H 943.193 2.09576 -2.82438 0
M  V30 9906 H 943.067 3.39251 -1.6489 0
M  V30 9907 H 945.454 2.83161 -0.830883 0
M  V30 9908 H 945.535 1.54272 -2.04044 0
M  V30 9909 H 945.179 3.27733 -3.88012 0
M  V30 9910 H 945.109 4.55569 -2.6413 0
M  V30 9911 H 947.6 3.04814 -2.23376 0
M  V30 9912 H 947.913 5.84336 -5.05738 0
M  V30 9913 H 946.258 5.25964 -4.54298 0
M  V30 9914 H 949.449 3.72528 -2.83444 0
M  V30 9915 H 949.622 5.00007 -4.12186 0
M  V30 9916 N 943.028 0.824394 1.34319 0
M  V30 9917 C 944.277 0.40956 1.97498 0
M  V30 9918 C 944.59 -1.03323 1.66083 0
M  V30 9919 O 945.796 -1.55205 2.22764 0
M  V30 9920 C 944.252 0.681384 3.53391 0
M  V30 9921 C 943.86 2.1379 3.93698 0
M  V30 9922 C 945.604 0.332788 4.23194 0
M  V30 9923 C 943.511 2.35453 5.42509 0
M  V30 9924 H 942.441 0.149409 0.739049 0
M  V30 9925 H 945.092 1.01095 1.5314 0
M  V30 9926 H 943.474 0.00980375 3.95999 0
M  V30 9927 H 944.648 2.84876 3.62191 0
M  V30 9928 H 942.963 2.44807 3.36836 0
M  V30 9929 H 945.56 0.472463 5.32609 0
M  V30 9930 H 945.903 -0.722862 4.09976 0
M  V30 9931 H 946.436 0.959005 3.86067 0
M  V30 9932 H 943.175 3.39529 5.60714 0
M  V30 9933 H 942.695 1.68912 5.75525 0
M  V30 9934 H 944.374 2.17885 6.09209 0
M  V30 9935 N 944.506 -1.46559 0.579492 0
M  V30 9936 C 945.754 -2.02 0.0637157 0
M  V30 9937 C 946.075 -1.45378 -1.29962 0
M  V30 9938 O 945.345 -0.637262 -1.85245 0
M  V30 9939 H 943.925 -0.746717 0.0205638 0
M  V30 9940 H 946.587 -1.79702 0.754544 0
M  V30 9941 H 945.683 -3.12099 -0.00770254 0
M  V30 9942 N 945.984 -0.3171 -1.54377 0
M  V30 9943 C 947.233 0.288271 -1.99629 0
M  V30 9944 C 947.546 1.53754 -1.2091 0
M  V30 9945 O 948.752 2.2185 -1.56508 0
M  V30 9946 C 947.208 0.564188 -3.5545 0
M  V30 9947 C 946.816 -0.667659 -4.42997 0
M  V30 9948 C 948.56 1.12987 -4.09187 0
M  V30 9949 C 946.467 -0.364003 -5.90279 0
M  V30 9950 H 945.397 0.111492 -0.745711 0
M  V30 9951 H 948.048 -0.428317 -1.78431 0
M  V30 9952 H 946.43 1.34079 -3.72611 0
M  V30 9953 H 947.604 -1.44335 -4.37612 0
M  V30 9954 H 945.919 -1.1531 -4.00116 0
M  V30 9955 H 948.516 1.37157 -5.1681 0
M  V30 9956 H 948.859 2.07722 -3.60773 0
M  V30 9957 H 949.392 0.414595 -3.95634 0
M  V30 9958 H 946.131 -1.28035 -6.42874 0
M  V30 9959 H 945.651 0.374102 -5.98632 0
M  V30 9960 H 947.33 0.0285433 -6.46994 0
M  V30 9961 N 947.462 1.57535 -0.0451378 0
M  V30 9962 C 948.709 1.92451 0.629987 0
M  V30 9963 C 949.037 0.92298 1.71206 0
M  V30 9964 O 948.292 -0.0656626 1.9559 0
M  V30 9965 C 948.591 3.34065 1.27024 0
M  V30 9966 C 948.257 4.49785 0.316971 0
M  V30 9967 C 946.919 4.81169 0.0546406 0
M  V30 9968 C 949.271 5.20111 -0.336693 0
M  V30 9969 C 946.599 5.8023 -0.86889 0
M  V30 9970 C 948.951 6.2016 -1.24838 0
M  V30 9971 C 947.615 6.49976 -1.51944 0
M  V30 9972 H 946.885 0.704228 0.230529 0
M  V30 9973 H 949.532 1.91182 -0.110328 0
M  V30 9974 H 947.837 3.31672 2.08568 0
M  V30 9975 H 949.534 3.58359 1.79945 0
M  V30 9976 H 946.124 4.2529 0.531614 0
M  V30 9977 H 950.308 4.96082 -0.147105 0
M  V30 9978 H 945.564 6.0167 -1.08643 0
M  V30 9979 H 949.738 6.73767 -1.76098 0
M  V30 9980 H 947.365 7.26551 -2.2367 0
M  V30 9981 N 948.94 -0.228186 1.55939 0
M  V30 9982 C 950.188 -0.951668 1.78291 0
M  V30 9983 C 950.509 -1.85132 0.612474 0
M  V30 9984 O 949.779 -1.92356 -0.370942 0
M  V30 9985 H 948.359 -0.354388 0.657585 0
M  V30 9986 H 951.021 -0.241635 1.93396 0
M  V30 9987 H 950.117 -1.56239 2.70177 0
M  V30 9988 N 950.418 -1.49637 -0.494624 0
M  V30 9989 C 951.328 -1.69522 -1.62172 0
M  V30 9990 C 952.344 -0.577894 -1.64123 0
M  V30 9991 O 953.52 -0.853382 -1.82426 0
M  V30 9992 C 950.585 -1.7633 -2.9851 0
M  V30 9993 C 949.646 -2.99944 -3.07135 0
M  V30 9994 C 948.879 -3.06419 -4.36971 0
M  V30 9995 O 949.102 -2.20312 -5.26136 0
M  V30 9996 O 948.036 -3.9894 -4.507 0
M  V30 9997 H 951.862 -2.65017 -1.48324 0
M  V30 9998 H 949.447 -1.33454 -0.671603 0
M  V30 9999 H 951.329 -1.83125 -3.7953 0
M  V30 10000 H 950.004 -0.840155 -3.12607 0
M  V30 10001 H 948.911 -2.98664 -2.2528 0
M  V30 10002 H 950.244 -3.9176 -2.97968 0
M  V30 10003 N 951.896 0.746133 -1.38819 0
M  V30 10004 C 952.844 1.88137 -1.36774 0
M  V30 10005 C 953.838 1.67508 -0.252495 0
M  V30 10006 O 955.044 1.74985 -0.421935 0
M  V30 10007 H 951.419 0.619116 -0.426849 0
M  V30 10008 H 953.39 1.86978 -2.32555 0
M  V30 10009 C 952.139 3.25703 -1.21708 0
M  V30 10010 H 951.462 3.42168 -2.06788 0
M  V30 10011 H 952.902 4.05361 -1.24332 0
M  V30 10012 C 951.361 3.36816 0.0754257 0
M  V30 10013 O 951.891 3.87742 1.04972 0
M  V30 10014 N 950.097 2.90287 0.134761 0
M  V30 10015 H 949.644 2.49034 -0.658779 0
M  V30 10016 H 949.602 2.98103 0.999109 0
M  V30 10017 N 953.375 1.23811 0.975125 0
M  V30 10018 C 954.285 1.0408 2.10249 0
M  V30 10019 C 955.301 -0.0162404 1.73992 0
M  V30 10020 O 956.477 0.180346 2.00591 0
M  V30 10021 C 953.542 0.640013 3.40741 0
M  V30 10022 C 952.603 1.7727 3.90991 0
M  V30 10023 C 951.836 1.39094 5.15256 0
M  V30 10024 O 952.059 0.277483 5.69725 0
M  V30 10025 O 950.993 2.21392 5.59704 0
M  V30 10026 H 954.819 1.98575 2.29786 0
M  V30 10027 H 952.404 1.02563 1.08633 0
M  V30 10028 H 954.286 0.427684 4.19224 0
M  V30 10029 H 952.961 -0.27589 3.22522 0
M  V30 10030 H 951.868 2.03971 3.13602 0
M  V30 10031 H 953.201 2.66711 4.13674 0
M  V30 10032 N 954.853 -1.17469 1.05066 0
M  V30 10033 C 955.763 -2.25089 0.661222 0
M  V30 10034 C 956.779 -1.71086 -0.31712 0
M  V30 10035 O 957.955 -2.00685 -0.169534 0
M  V30 10036 C 955.02 -3.46676 0.0406415 0
M  V30 10037 C 954.081 -4.15771 1.06927 0
M  V30 10038 C 953.314 -5.31553 0.478208 0
M  V30 10039 O 953.537 -5.6593 -0.712714 0
M  V30 10040 O 952.471 -5.89574 1.21185 0
M  V30 10041 H 956.297 -2.60685 1.5581 0
M  V30 10042 H 953.882 -1.24744 0.822147 0
M  V30 10043 H 955.764 -4.203 -0.304312 0
M  V30 10044 H 954.439 -3.1288 -0.829909 0
M  V30 10045 H 953.346 -3.44171 1.46619 0
M  V30 10046 H 954.679 -4.53591 1.91092 0
M  V30 10047 N 956.331 -0.831506 -1.3388 0
M  V30 10048 C 957.577 -0.424302 -1.98312 0
M  V30 10049 C 957.91 1.01211 -1.65741 0
M  V30 10050 O 957.185 1.70636 -0.933464 0
M  V30 10051 C 957.468 -0.636815 -3.54424 0
M  V30 10052 C 957.321 -2.11997 -3.96708 0
M  V30 10053 C 958.64 -0.0782411 -4.4003 0
M  V30 10054 H 955.759 -0.155637 -0.720379 0
M  V30 10055 H 958.401 -1.04566 -1.58638 0
M  V30 10056 H 956.551 -0.107907 -3.8835 0
M  V30 10057 H 958.223 -2.71317 -3.73075 0
M  V30 10058 H 956.466 -2.60723 -3.46707 0
M  V30 10059 H 957.137 -2.21944 -5.05416 0
M  V30 10060 H 959.613 -0.530243 -4.12708 0
M  V30 10061 H 958.489 -0.256676 -5.483 0
M  V30 10062 H 958.75 1.01745 -4.30233 0
M  V30 10063 N 957.809 1.4625 -0.587256 0
M  V30 10064 C 958.772 2.28812 0.133238 0
M  V30 10065 C 959.772 1.38645 0.814513 0
M  V30 10066 O 960.962 1.60975 0.665774 0
M  V30 10067 C 958.094 3.19147 1.19824 0
M  V30 10068 H 959.287 2.93991 -0.592386 0
M  V30 10069 H 956.84 1.52435 -0.345416 0
M  V30 10070 H 957.575 2.58725 1.95529 0
M  V30 10071 H 957.36 3.85541 0.71418 0
M  V30 10072 H 958.85 3.81278 1.70344 0
M  V30 10073 N 959.287 0.325282 1.54207 0
M  V30 10074 C 960.564 -0.33113 1.92777 0
M  V30 10075 C 960.944 -1.69739 1.25506 0
M  V30 10076 O 960.292 -2.24983 0.399385 0
M  V30 10077 C 960.502 -0.421636 3.46444 0
M  V30 10078 C 961.85 -0.681111 4.19101 0
M  V30 10079 O 962.874 -0.504488 3.52609 0
M  V30 10080 O 961.733 -1.02196 5.3686 0
M  V30 10081 H 958.827 -0.18943 0.805013 0
M  V30 10082 H 961.373 0.375123 1.65502 0
M  V30 10083 H 960.145 0.537862 3.87586 0
M  V30 10084 H 959.768 -1.1754 3.79829 0
M  V30 10085 N 960.765 -1.57509 0.0534917 0
M  V30 10086 C 962.181 -1.56696 -0.303067 0
M  V30 10087 C 962.381 -1.06135 -1.71282 0
M  V30 10088 O 961.437 -0.71899 -2.42047 0
M  V30 10089 C 962.75 -3.00421 -0.129418 0
M  V30 10090 C 964.298 -3.12358 -0.200346 0
M  V30 10091 C 964.773 -4.57967 -0.0551971 0
M  V30 10092 N 966.264 -4.63066 -0.111398 0
M  V30 10093 C 966.999 -5.73395 -0.0232344 0
M  V30 10094 N 966.495 -6.92701 0.11741 0
M  V30 10095 N 968.288 -5.62045 -0.078984 0
M  V30 10096 H 960.439 -1.88696 0.975064 0
M  V30 10097 H 962.702 -0.869072 0.378706 0
M  V30 10098 H 962.408 -3.41456 0.842653 0
M  V30 10099 H 962.282 -3.66563 -0.889476 0
M  V30 10100 H 964.669 -2.71221 -1.16289 0
M  V30 10101 H 964.75 -2.48891 0.590506 0
M  V30 10102 H 964.394 -4.9979 0.904034 0
M  V30 10103 H 964.324 -5.19443 -0.865223 0
M  V30 10104 H 966.815 -3.77263 -0.219256 0
M  V30 10105 H 967.128 -7.72597 0.177326 0
M  V30 10106 H 965.473 -6.94833 0.152526 0
M  V30 10107 H 968.664 -4.67725 -0.187434 0
M  V30 10108 H 968.837 -6.48 -0.00681731 0
M  V30 10109 N 962.243 0.219913 -1.56058 0
M  V30 10110 C 963.206 1.25606 -1.91718 0
M  V30 10111 C 964.206 1.39721 -0.795912 0
M  V30 10112 O 965.396 1.37958 -1.06364 0
M  V30 10113 C 962.528 2.62961 -2.16943 0
M  V30 10114 H 963.721 0.951909 -2.84392 0
M  V30 10115 H 961.274 0.460398 -1.49365 0
M  V30 10116 H 962.009 2.98472 -1.26826 0
M  V30 10117 H 961.794 2.54093 -2.98629 0
M  V30 10118 H 963.284 3.37727 -2.45622 0
M  V30 10119 N 963.721 1.49897 0.486681 0
M  V30 10120 C 964.951 1.63599 1.2617 0
M  V30 10121 C 965.359 0.312365 1.86604 0
M  V30 10122 O 964.702 -0.713911 1.6926 0
M  V30 10123 C 964.764 2.65736 2.42125 0
M  V30 10124 C 964.428 4.09711 2.0245 0
M  V30 10125 C 965.425 4.9607 1.55596 0
M  V30 10126 C 963.11 4.55534 2.11647 0
M  V30 10127 C 965.104 6.26295 1.18462 0
M  V30 10128 C 962.791 5.85768 1.74124 0
M  V30 10129 C 963.789 6.70973 1.27608 0
M  V30 10130 O 963.477 7.98778 0.905991 0
M  V30 10131 H 963.209 0.55333 0.388332 0
M  V30 10132 H 965.763 1.96768 0.589195 0
M  V30 10133 H 963.993 2.27778 3.12497 0
M  V30 10134 H 965.682 2.68819 3.04123 0
M  V30 10135 H 966.448 4.61891 1.47925 0
M  V30 10136 H 962.327 3.8937 2.46803 0
M  V30 10137 H 965.871 6.92754 0.820839 0
M  V30 10138 H 961.768 6.19473 1.8145 0
M  V30 10139 H 962.536 8.11914 1.03621 0
M  V30 10140 N 965.199 -0.738761 1.39212 0
M  V30 10141 C 966.427 -1.52801 1.39497 0
M  V30 10142 C 966.842 -1.88797 -0.0114917 0
M  V30 10143 O 966.199 -1.53835 -0.981887 0
M  V30 10144 C 966.25 -2.81793 2.2644 0
M  V30 10145 O 965.971 -2.47328 3.61608 0
M  V30 10146 C 967.472 -3.75844 2.35067 0
M  V30 10147 H 964.692 -0.472322 0.476606 0
M  V30 10148 H 967.236 -0.913153 1.8298 0
M  V30 10149 H 965.391 -3.3962 1.8638 0
M  V30 10150 H 965.805 -3.30162 4.07545 0
M  V30 10151 H 967.279 -4.6326 3.00157 0
M  V30 10152 H 967.756 -4.17329 1.3687 0
M  V30 10153 H 968.362 -3.23937 2.75581 0
M  V30 10154 N 966.677 -1.24326 -0.968545 0
M  V30 10155 C 967.925 -1.08032 -1.70803 0
M  V30 10156 C 968.246 0.381728 -1.91227 0
M  V30 10157 O 967.516 1.27253 -1.48942 0
M  V30 10158 H 966.096 -0.396777 -0.632912 0
M  V30 10159 H 968.758 -1.56232 -1.16523 0
M  V30 10160 H 967.854 -1.57769 -2.69287 0
M  V30 10161 N 968.156 1.1691 -1.05688 0
M  V30 10162 C 969.572 1.39288 -0.779167 0
M  V30 10163 C 969.772 1.91587 0.624231 0
M  V30 10164 O 968.828 2.11072 1.38582 0
M  V30 10165 C 970.141 2.37914 -1.83895 0
M  V30 10166 C 971.689 2.51611 -1.86175 0
M  V30 10167 C 972.164 3.53514 -2.9119 0
M  V30 10168 N 973.655 3.61036 -2.90184 0
M  V30 10169 C 974.39 4.39657 -3.68088 0
M  V30 10170 N 973.886 5.21752 -4.55793 0
M  V30 10171 N 975.679 4.3458 -3.56507 0
M  V30 10172 H 967.83 0.81296 -1.96226 0
M  V30 10173 H 970.093 0.419818 -0.849975 0
M  V30 10174 H 969.799 2.06568 -2.84645 0
M  V30 10175 H 969.673 3.37483 -1.68479 0
M  V30 10176 H 972.06 2.82264 -0.86087 0
M  V30 10177 H 972.141 1.52099 -2.05668 0
M  V30 10178 H 971.785 3.23599 -3.91467 0
M  V30 10179 H 971.715 4.52742 -2.68947 0
M  V30 10180 H 974.206 3.02428 -2.26596 0
M  V30 10181 H 974.519 5.78939 -5.11907 0
M  V30 10182 H 972.864 5.21116 -4.59851 0
M  V30 10183 H 976.055 3.69501 -2.87379 0
M  V30 10184 H 976.228 4.95607 -4.17466 0
M  V30 10185 N 969.634 0.838594 1.33437 0
M  V30 10186 C 970.544 0.274048 2.32994 0
M  V30 10187 C 971.56 -0.599776 1.63336 0
M  V30 10188 O 972.736 -0.503963 1.94993 0
M  V30 10189 C 969.801 -0.541804 3.4244 0
M  V30 10190 C 968.862 0.356262 4.27819 0
M  V30 10191 C 968.095 -0.420747 5.32039 0
M  V30 10192 O 968.318 -1.65247 5.45939 0
M  V30 10193 O 967.252 0.205101 6.0155 0
M  V30 10194 H 971.078 1.09846 2.83139 0
M  V30 10195 H 968.663 0.601111 1.36774 0
M  V30 10196 H 970.545 -1.00544 4.0923 0
M  V30 10197 H 969.22 -1.34328 2.94513 0
M  V30 10198 H 968.127 0.867726 3.63897 0
M  V30 10199 H 969.46 1.1225 4.79229 0
M  V30 10200 N 971.112 -1.45937 0.595003 0
M  V30 10201 C 972.359 -2.0232 0.0853053 0
M  V30 10202 C 972.687 -1.465 -1.27937 0
M  V30 10203 O 971.942 -0.624767 -1.85459 0
M  V30 10204 C 972.241 -3.57396 -0.0173747 0
M  V30 10205 C 971.907 -4.32311 1.28131 0
M  V30 10206 C 970.569 -4.52496 1.63708 0
M  V30 10207 C 972.921 -4.75233 2.14017 0
M  V30 10208 C 970.249 -5.12857 2.84947 0
M  V30 10209 C 972.601 -5.36933 3.34493 0
M  V30 10210 C 971.265 -5.55343 3.70338 0
M  V30 10211 H 970.535 -0.740342 0.0312154 0
M  V30 10212 H 973.182 -1.75157 0.774103 0
M  V30 10213 H 971.487 -3.83766 -0.789371 0
M  V30 10214 H 973.184 -3.98713 -0.427699 0
M  V30 10215 H 969.774 -4.16905 0.994374 0
M  V30 10216 H 973.958 -4.59383 1.87833 0
M  V30 10217 H 969.214 -5.253 3.12841 0
M  V30 10218 H 973.388 -5.69147 4.01304 0
M  V30 10219 H 971.015 -6.01883 4.64371 0
M  V30 10220 N 972.59 -0.333456 -1.54032 0
M  V30 10221 C 973.867 0.320902 -1.9295 0
M  V30 10222 C 974.247 1.69071 -1.26405 0
M  V30 10223 O 973.595 2.24768 -0.411311 0
M  V30 10224 C 973.805 0.403257 -3.46662 0
M  V30 10225 C 975.153 0.658875 -4.19457 0
M  V30 10226 O 976.177 0.485781 -3.52872 0
M  V30 10227 O 975.036 0.993475 -5.37394 0
M  V30 10228 H 972.13 0.185158 -0.806006 0
M  V30 10229 H 974.676 -0.383895 -1.65301 0
M  V30 10230 H 973.448 -0.558409 -3.87295 0
M  V30 10231 H 973.071 1.15524 -3.80447 0
M  V30 10232 N 974.068 1.57479 -0.061844 0
M  V30 10233 C 975.345 1.84484 0.649993 0
M  V30 10234 C 975.725 0.952366 1.88396 0
M  V30 10235 O 975.073 0.0161035 2.28494 0
M  V30 10236 C 975.283 3.34452 0.997133 0
M  V30 10237 C 976.631 4.01724 1.37488 0
M  V30 10238 O 977.655 3.3914 1.08916 0
M  V30 10239 O 976.514 5.12091 1.90854 0
M  V30 10240 H 973.608 0.761798 0.321858 0
M  V30 10241 H 976.154 1.6945 -0.0920192 0
M  V30 10242 H 974.926 3.91115 0.120301 0
M  V30 10243 H 974.549 3.54713 1.79624 0
M  V30 10244 N 975.546 -0.211634 1.56173 0
M  V30 10245 C 976.476 -1.26533 1.96244 0
M  V30 10246 C 977.457 -1.48362 0.832028 0
M  V30 10247 O 978.642 -1.60378 1.0951 0
M  V30 10248 C 975.772 -2.61307 2.2877 0
M  V30 10249 C 974.726 -2.54119 3.44395 0
M  V30 10250 C 974.052 -3.93014 3.62552 0
M  V30 10251 C 975.352 -2.08046 4.79076 0
M  V30 10252 H 977.046 -0.932407 2.84511 0
M  V30 10253 H 974.592 -0.447084 1.36884 0
M  V30 10254 H 976.545 -3.35188 2.55396 0
M  V30 10255 H 975.269 -2.96307 1.37367 0
M  V30 10256 H 973.928 -1.82694 3.17834 0
M  V30 10257 H 973.576 -4.25338 2.68508 0
M  V30 10258 H 973.276 -3.89083 4.40327 0
M  V30 10259 H 974.8 -4.68542 3.91537 0
M  V30 10260 H 976.214 -2.71676 5.04842 0
M  V30 10261 H 974.611 -2.15154 5.60204 0
M  V30 10262 H 975.681 -1.03306 4.73768 0
M  V30 10263 N 977.024 -1.50153 -0.478725 0
M  V30 10264 C 978.435 -1.53706 -1.05978 0
M  V30 10265 C 978.786 -0.336112 -1.933 0
M  V30 10266 O 977.911 0.551803 -2.09246 0
M  V30 10267 C 978.506 -2.78541 -1.92874 0
M  V30 10268 C 977.065 -2.848 -2.46102 0
M  V30 10269 C 976.212 -2.47902 -1.24257 0
M  V30 10270 H 979.163 -1.56528 -0.261664 0
M  V30 10271 H 979.184 -2.59964 -2.77847 0
M  V30 10272 H 978.696 -3.6593 -1.29293 0
M  V30 10273 H 976.797 -2.01744 -3.13257 0
M  V30 10274 H 976.91 -3.87511 -2.81731 0
M  V30 10275 H 975.274 -2.0017 -1.57493 0
M  V30 10276 H 976.057 -3.3759 -0.62351 0
M  V30 10277 N 978.502 0.731368 -1.39602 0
M  V30 10278 C 979.432 1.85855 -1.41351 0
M  V30 10279 C 980.413 1.67839 -0.2764 0
M  V30 10280 O 981.598 1.88104 -0.482747 0
M  V30 10281 C 978.728 3.23644 -1.25983 0
M  V30 10282 C 977.682 3.56304 -2.37132 0
M  V30 10283 C 977.008 4.93069 -2.0685 0
M  V30 10284 C 978.308 3.58906 -3.79452 0
M  V30 10285 H 980.002 1.84648 -2.3568 0
M  V30 10286 H 977.548 0.886955 -1.13442 0
M  V30 10287 H 979.501 4.02176 -1.25826 0
M  V30 10288 H 978.225 3.25387 -0.281234 0
M  V30 10289 H 976.884 2.80104 -2.36511 0
M  V30 10290 H 976.532 4.91396 -1.0742 0
M  V30 10291 H 976.232 5.15888 -2.81306 0
M  V30 10292 H 977.756 5.73953 -2.0835 0
M  V30 10293 H 979.17 4.27508 -3.81982 0
M  V30 10294 H 977.567 3.93246 -4.53297 0
M  V30 10295 H 978.637 2.58631 -4.10168 0
M  V30 10296 N 979.98 1.24838 0.961938 0
M  V30 10297 C 980.943 1.04674 2.03902 0
M  V30 10298 C 981.943 0.00204674 1.608 0
M  V30 10299 O 983.133 0.243555 1.72489 0
M  V30 10300 C 980.265 0.587736 3.35795 0
M  V30 10301 H 981.458 2.00278 2.23223 0
M  V30 10302 H 979.011 1.07142 1.138 0
M  V30 10303 H 979.746 -0.371244 3.22168 0
M  V30 10304 H 979.531 1.34182 3.68426 0
M  V30 10305 H 981.021 0.467867 4.14971 0
M  V30 10306 N 981.458 -1.16348 1.06306 0
M  V30 10307 C 982.368 -2.24375 0.685059 0
M  V30 10308 C 983.384 -1.71413 -0.298956 0
M  V30 10309 O 984.56 -2.00854 -0.148239 0
M  V30 10310 C 981.625 -3.46614 0.0774088 0
M  V30 10311 C 980.686 -4.14613 1.11331 0
M  V30 10312 C 979.919 -5.31016 0.534559 0
M  V30 10313 O 980.142 -5.66654 -0.65265 0
M  V30 10314 O 979.076 -5.88256 1.27431 0
M  V30 10315 H 982.902 -2.59018 1.58566 0
M  V30 10316 H 980.487 -1.23865 0.835332 0
M  V30 10317 H 982.369 -4.20599 -0.259716 0
M  V30 10318 H 981.044 -3.13743 -0.796677 0
M  V30 10319 H 979.951 -3.42597 1.50261 0
M  V30 10320 H 981.284 -4.51538 1.95893 0
M  V30 10321 N 982.937 -0.845659 -1.3299 0
M  V30 10322 C 983.869 -0.241097 -2.27928 0
M  V30 10323 C 984.882 0.582048 -1.5204 0
M  V30 10324 O 986.071 0.408008 -1.73774 0
M  V30 10325 C 983.171 0.678652 -3.32035 0
M  V30 10326 C 982.344 -0.106652 -4.3727 0
M  V30 10327 C 981.403 0.737478 -5.21006 0
M  V30 10328 O 980.429 0.174231 -5.68933 0
M  V30 10329 N 981.631 2.05372 -5.42957 0
M  V30 10330 H 984.396 -1.05685 -2.80448 0
M  V30 10331 H 981.957 -0.704771 -1.45755 0
M  V30 10332 H 983.949 1.24849 -3.84961 0
M  V30 10333 H 982.519 1.3951 -2.79742 0
M  V30 10334 H 981.739 -0.857897 -3.84752 0
M  V30 10335 H 983.027 -0.646386 -5.04677 0
M  V30 10336 H 982.425 2.53478 -5.05733 0
M  V30 10337 H 980.982 2.5719 -5.98913 0
M  V30 10338 N 984.415 1.45619 -0.602734 0
M  V30 10339 C 985.831 1.57368 -0.26599 0
M  V30 10340 C 986.031 1.59485 1.23154 0
M  V30 10341 O 985.087 1.52254 2.01432 0
M  V30 10342 C 986.4 2.85863 -0.932881 0
M  V30 10343 C 987.948 2.9953 -0.908344 0
M  V30 10344 C 988.423 4.30789 -1.55515 0
M  V30 10345 N 989.914 4.37536 -1.52042 0
M  V30 10346 C 990.649 5.37758 -1.99008 0
M  V30 10347 N 990.145 6.44544 -2.54038 0
M  V30 10348 N 991.938 5.29085 -1.89805 0
M  V30 10349 H 984.089 1.42489 -1.57514 0
M  V30 10350 H 986.352 0.680948 -0.659556 0
M  V30 10351 H 986.058 2.90183 -1.98713 0
M  V30 10352 H 985.932 3.74467 -0.453209 0
M  V30 10353 H 988.319 2.9478 0.137344 0
M  V30 10354 H 988.4 2.12349 -1.42623 0
M  V30 10355 H 988.044 4.36297 -2.60014 0
M  V30 10356 H 987.974 5.16778 -1.01232 0
M  V30 10357 H 990.465 3.60972 -1.11837 0
M  V30 10358 H 990.778 7.17258 -2.87682 0
M  V30 10359 H 989.123 6.45308 -2.58075 0
M  V30 10360 H 992.314 4.44566 -1.46556 0
M  V30 10361 H 992.487 6.07043 -2.26722 0
M  V30 10362 N 985.893 0.34162 1.53853 0
M  V30 10363 C 986.803 -0.524555 2.2866 0
M  V30 10364 C 987.819 -1.1136 1.33697 0
M  V30 10365 O 988.995 -1.1297 1.66732 0
M  V30 10366 C 986.06 -1.66065 3.04341 0
M  V30 10367 C 985.121 -1.10158 4.14926 0
M  V30 10368 C 984.354 -2.18353 4.86988 0
M  V30 10369 O 984.577 -3.39038 4.58704 0
M  V30 10370 O 983.511 -1.82756 5.73484 0
M  V30 10371 H 987.337 0.0835014 3.03585 0
M  V30 10372 H 984.922 0.106727 1.49018 0
M  V30 10373 H 986.804 -2.3217 3.51674 0
M  V30 10374 H 985.479 -2.25456 2.32275 0
M  V30 10375 H 984.386 -0.405109 3.719 0
M  V30 10376 H 985.719 -0.552567 4.89088 0
M  V30 10377 N 987.371 -1.57444 0.0701946 0
M  V30 10378 C 988.334 -2.11511 -0.882923 0
M  V30 10379 C 989.334 -1.03879 -1.22743 0
M  V30 10380 O 990.524 -1.29874 -1.16097 0
M  V30 10381 C 987.656 -2.61514 -2.18686 0
M  V30 10382 H 988.849 -2.9703 -0.413873 0
M  V30 10383 H 986.402 -1.55278 -0.178488 0
M  V30 10384 H 987.137 -1.79443 -2.70131 0
M  V30 10385 H 986.922 -3.40185 -1.94978 0
M  V30 10386 H 988.412 -3.03425 -2.86919 0
M  V30 10387 N 988.849 0.203349 -1.56283 0
M  V30 10388 C 990.089 0.931871 -1.81922 0
M  V30 10389 C 990.453 1.8079 -0.646459 0
M  V30 10390 O 991.654 2.57157 -0.782556 0
M  V30 10391 C 989.925 1.73347 -3.12547 0
M  V30 10392 S 991.484 2.51514 -3.59564 0
M  V30 10393 H 988.302 0.312706 -0.638542 0
M  V30 10394 H 990.904 0.195931 -1.94516 0
M  V30 10395 H 989.608 1.08038 -3.95924 0
M  V30 10396 H 989.139 2.51138 -3.02809 0
M  V30 10397 H 991.154 3.7552 -3.24345 0
M  V30 10398 N 990.327 1.50405 0.470755 0
M  V30 10399 C 991.743 1.37838 0.804534 0
M  V30 10400 C 991.943 0.434743 1.96754 0
M  V30 10401 O 990.999 -0.122507 2.52203 0
M  V30 10402 C 992.312 2.79212 1.11629 0
M  V30 10403 C 993.86 2.88129 1.22272 0
M  V30 10404 C 994.335 4.30337 1.5676 0
M  V30 10405 N 995.826 4.3329 1.63751 0
M  V30 10406 C 996.561 5.4032 1.91942 0
M  V30 10407 N 996.057 6.57558 2.18151 0
M  V30 10408 N 997.85 5.27764 1.93446 0
M  V30 10409 H 990.001 2.10332 -0.295689 0
M  V30 10410 H 992.264 0.945429 -0.0697733 0
M  V30 10411 H 991.97 3.50103 0.334778 0
M  V30 10412 H 991.844 3.16475 2.0524 0
M  V30 10413 H 994.231 2.17457 1.9949 0
M  V30 10414 H 994.312 2.54409 0.2664 0
M  V30 10415 H 993.956 5.01547 0.800817 0
M  V30 10416 H 993.886 4.61545 2.53543 0
M  V30 10417 H 996.377 3.48752 1.45535 0
M  V30 10418 H 996.69 7.34935 2.38936 0
M  V30 10419 H 995.035 6.60732 2.15542 0
M  V30 10420 H 998.226 4.35169 1.72468 0
M  V30 10421 H 998.399 6.11264 2.15081 0
M  V30 10422 N 991.805 -0.723954 1.39988 0
M  V30 10423 C 993.221 -1.03095 1.21834 0
M  V30 10424 C 993.421 -2.01309 0.0876647 0
M  V30 10425 O 992.477 -2.46277 -0.55714 0
M  V30 10426 C 993.79 -1.58267 2.5568 0
M  V30 10427 C 995.338 -1.70293 2.6262 0
M  V30 10428 C 995.813 -2.28872 3.96713 0
M  V30 10429 N 997.304 -2.36269 3.98411 0
M  V30 10430 C 998.039 -2.82557 4.98948 0
M  V30 10431 N 997.535 -3.28661 6.0988 0
M  V30 10432 N 999.328 -2.81866 4.86321 0
M  V30 10433 H 991.479 -0.0727891 2.12275 0
M  V30 10434 H 993.742 -0.0949029 0.943238 0
M  V30 10435 H 993.448 -0.935642 3.39026 0
M  V30 10436 H 993.322 -2.56914 2.76179 0
M  V30 10437 H 995.709 -2.34115 1.7965 0
M  V30 10438 H 995.79 -0.70268 2.45959 0
M  V30 10439 H 995.434 -1.65675 4.80119 0
M  V30 10440 H 995.364 -3.29595 4.107 0
M  V30 10441 H 997.855 -2.03697 3.18302 0
M  V30 10442 H 998.168 -3.62524 6.82493 0
M  V30 10443 H 996.513 -3.26641 6.13458 0
M  V30 10444 H 999.704 -2.45179 3.98754 0
M  V30 10445 H 999.877 -3.17626 5.64817 0
M  V30 10446 N 993.283 -1.25346 -0.955304 0
M  V30 10447 C 994.246 -1.05754 -2.03344 0
M  V30 10448 C 995.246 -0.0105743 -1.60797 0
M  V30 10449 O 996.436 -0.252699 -1.72357 0
M  V30 10450 C 993.568 -0.605536 -3.35479 0
M  V30 10451 H 994.761 -2.01459 -2.22158 0
M  V30 10452 H 992.314 -1.07744 -1.1323 0
M  V30 10453 H 993.049 0.354154 -3.2236 0
M  V30 10454 H 992.834 -1.36134 -3.67709 0
M  V30 10455 H 994.324 -0.489867 -4.14717 0
M  V30 10456 N 994.761 1.15782 -1.06922 0
M  V30 10457 C 996.001 1.88135 -0.799043 0
M  V30 10458 C 996.365 1.80203 0.662632 0
M  V30 10459 O 997.566 2.47543 1.04767 0
M  V30 10460 C 995.837 3.3339 -1.28786 0
M  V30 10461 S 997.396 4.23525 -1.1477 0
M  V30 10462 H 994.214 0.649313 -0.289679 0
M  V30 10463 H 996.816 1.3972 -1.36743 0
M  V30 10464 H 995.52 3.36705 -2.34645 0
M  V30 10465 H 995.051 3.86857 -0.714489 0
M  V30 10466 H 997.066 4.96131 -0.0825264 0
M  V30 10467 N 996.239 0.8527 1.3254 0
M  V30 10468 C 997.479 0.461385 1.99125 0
M  V30 10469 C 997.843 -0.964507 1.66016 0
M  V30 10470 O 999.044 -1.46027 2.25676 0
M  V30 10471 C 997.315 0.69143 3.50648 0
M  V30 10472 S 998.874 0.397397 4.36997 0
M  V30 10473 H 995.692 0.172933 0.689649 0
M  V30 10474 H 998.294 1.10499 1.61277 0
M  V30 10475 H 996.998 1.72831 3.72233 0
M  V30 10476 H 996.529 0.0341812 3.93385 0
M  V30 10477 H 998.544 -0.777363 4.90073 0
M  V30 10478 N 997.718 -1.45297 0.610449 0
M  V30 10479 C 998.965 -2.02218 0.106759 0
M  V30 10480 C 999.293 -1.47849 -1.26376 0
M  V30 10481 O 998.548 -0.644402 -1.84786 0
M  V30 10482 C 998.847 -3.57394 0.0205329 0
M  V30 10483 C 998.513 -4.30928 1.32709 0
M  V30 10484 C 997.175 -4.50735 1.68498 0
M  V30 10485 C 999.527 -4.72936 2.19046 0
M  V30 10486 C 996.855 -5.09806 2.90371 0
M  V30 10487 C 999.207 -5.33355 3.40169 0
M  V30 10488 C 997.871 -5.51384 3.76207 0
M  V30 10489 H 997.141 -0.739969 0.039066 0
M  V30 10490 H 999.788 -1.74326 0.792638 0
M  V30 10491 H 998.093 -3.84581 -0.748623 0
M  V30 10492 H 999.79 -3.99144 -0.385386 0
M  V30 10493 H 996.38 -4.15827 1.03854 0
M  V30 10494 H 1000.56 -4.57365 1.92695 0
M  V30 10495 H 995.82 -5.21953 3.18395 0
M  V30 10496 H 999.994 -5.64859 4.07318 0
M  V30 10497 H 997.621 -5.96924 4.70729 0
M  V30 10498 N 999.196 -0.349774 -1.5367 0
M  V30 10499 C 1000.16 0.491676 -2.23864 0
M  V30 10500 C 1001.16 1.02256 -1.24098 0
M  V30 10501 O 1002.35 0.910816 -1.48492 0
M  V30 10502 C 999.481 1.68557 -2.96313 0
M  V30 10503 H 1000.67 -0.12233 -2.9965 0
M  V30 10504 H 998.227 -0.101214 -1.55972 0
M  V30 10505 H 998.962 2.3381 -2.2473 0
M  V30 10506 H 998.747 1.31203 -3.69497 0
M  V30 10507 H 1000.24 2.28225 -3.49718 0
M  V30 10508 N 1000.67 1.57404 -0.0785433 0
M  V30 10509 C 1002.09 1.57158 0.2781 0
M  V30 10510 C 1002.29 1.08847 1.69572 0
M  V30 10511 O 1001.35 0.757407 2.40873 0
M  V30 10512 C 1002.66 3.00589 0.0816067 0
M  V30 10513 C 1004.21 3.12637 0.150627 0
M  V30 10514 C 1004.68 4.57997 -0.0176685 0
M  V30 10515 N 1006.17 4.63185 0.0377145 0
M  V30 10516 C 1006.91 5.7336 -0.0679907 0
M  V30 10517 N 1006.4 6.92426 -0.227598 0
M  V30 10518 N 1008.2 5.62099 -0.0104424 0
M  V30 10519 H 1000.35 1.87121 -1.00496 0
M  V30 10520 H 1002.61 0.862937 -0.392484 0
M  V30 10521 H 1002.32 3.40072 -0.896869 0
M  V30 10522 H 1002.19 3.67931 0.831046 0
M  V30 10523 H 1004.58 2.73037 1.11959 0
M  V30 10524 H 1004.66 2.4792 -0.630028 0
M  V30 10525 H 1004.3 4.98288 -0.983431 0
M  V30 10526 H 1004.23 5.20754 0.782475 0
M  V30 10527 H 1006.72 3.77564 0.159208 0
M  V30 10528 H 1007.04 7.72217 -0.300217 0
M  V30 10529 H 1005.38 6.94502 -0.263049 0
M  V30 10530 H 1008.57 4.67964 0.112999 0
M  V30 10531 H 1008.75 6.47928 -0.0962747 0
M  V30 10532 N 1002.15 -0.195058 1.56388 0
M  V30 10533 C 1003.4 -0.9168 1.80894 0
M  V30 10534 C 1003.73 -1.82907 0.652592 0
M  V30 10535 O 1003.01 -1.91382 -0.346853 0
M  V30 10536 C 1003.29 -1.733 3.15657 0
M  V30 10537 C 1003.14 -0.845449 4.41783 0
M  V30 10538 C 1004.46 -2.70557 3.47112 0
M  V30 10539 H 1001.58 -0.331861 0.658056 0
M  V30 10540 H 1004.22 -0.184174 1.89105 0
M  V30 10541 H 1002.37 -2.3576 3.08787 0
M  V30 10542 H 1004.04 -0.235557 4.60698 0
M  V30 10543 H 1002.29 -0.152172 4.33533 0
M  V30 10544 H 1002.96 -1.45152 5.32574 0
M  V30 10545 H 1005.43 -2.1823 3.54281 0
M  V30 10546 H 1004.31 -3.24749 4.42526 0
M  V30 10547 H 1004.57 -3.49605 2.70608 0
M  V30 10548 N 1003.63 -1.50653 -0.462772 0
M  V30 10549 C 1004.54 -1.72923 -1.58539 0
M  V30 10550 C 1005.56 -0.612577 -1.6286 0
M  V30 10551 O 1006.73 -0.891885 -1.80575 0
M  V30 10552 C 1003.8 -1.82623 -2.94703 0
M  V30 10553 C 1002.86 -3.06392 -3.00704 0
M  V30 10554 C 1002.09 -3.15618 -4.30373 0
M  V30 10555 O 1002.31 -2.31423 -5.21344 0
M  V30 10556 O 1001.25 -4.0841 -4.42136 0
M  V30 10557 H 1005.07 -2.68103 -1.42669 0
M  V30 10558 H 1002.66 -1.34848 -0.643144 0
M  V30 10559 H 1004.54 -1.91134 -3.7556 0
M  V30 10560 H 1003.22 -0.906275 -3.10754 0
M  V30 10561 H 1002.12 -3.03375 -2.18894 0
M  V30 10562 H 1003.46 -3.97992 -2.89591 0
M  V30 10563 N 1005.11 0.71652 -1.4037 0
M  V30 10564 C 1006.52 1.29562 -1.34427 0
M  V30 10565 C 1006.87 1.96192 -0.0173106 0
M  V30 10566 O 1006 1.97488 0.884719 0
M  V30 10567 C 1006.59 2.35601 -2.4347 0
M  V30 10568 C 1005.15 2.89138 -2.4099 0
M  V30 10569 C 1004.3 1.62915 -2.24397 0
M  V30 10570 H 1007.25 0.512715 -1.5019 0
M  V30 10571 H 1007.27 3.16422 -2.11323 0
M  V30 10572 H 1006.78 1.87077 -3.40035 0
M  V30 10573 H 1004.88 3.41894 -1.4812 0
M  V30 10574 H 1004.99 3.40995 -3.3654 0
M  V30 10575 H 1003.36 1.87947 -1.71896 0
M  V30 10576 H 1004.14 1.16417 -3.22958 0
M  V30 10577 N 1006.59 1.25851 0.948643 0
M  V30 10578 C 1007.81 1.13813 1.73382 0
M  V30 10579 C 1008.24 -0.303615 1.85633 0
M  V30 10580 O 1007.59 -1.21997 1.34114 0
M  V30 10581 C 1007.64 1.80388 3.12238 0
M  V30 10582 O 1006.75 1.08759 3.978 0
M  V30 10583 H 1006.09 0.397006 0.532243 0
M  V30 10584 H 1008.62 1.66529 1.18866 0
M  V30 10585 H 1008.63 1.86913 3.62667 0
M  V30 10586 H 1007.3 2.85278 3.02637 0
M  V30 10587 H 1005.88 1.10157 3.56258 0
M  V30 10588 N 1008.06 -1.15214 1.07534 0
M  V30 10589 C 1009.01 -2.18022 0.667108 0
M  V30 10590 C 1010 -1.57911 -0.308714 0
M  V30 10591 O 1011.19 -1.76578 -0.122147 0
M  V30 10592 C 1008.32 -3.43232 0.0684348 0
M  V30 10593 C 1007.41 -4.10393 1.06951 0
M  V30 10594 N 1007.8 -4.53013 2.24973 0
M  V30 10595 C 1006.09 -4.36758 0.903262 0
M  V30 10596 C 1006.8 -5.05118 2.88498 0
M  V30 10597 N 1005.77 -4.98777 2.16153 0
M  V30 10598 H 1009.57 -2.48706 1.56597 0
M  V30 10599 H 1007.09 -1.31801 0.948796 0
M  V30 10600 H 1009.08 -4.16197 -0.241934 0
M  V30 10601 H 1007.74 -3.14031 -0.825525 0
M  V30 10602 H 1008.76 -4.4634 2.6268 0
M  V30 10603 H 1005.43 -4.17453 0.0623543 0
M  V30 10604 H 1006.82 -5.48039 3.8872 0
M  V30 10605 N 1009.54 -0.859717 -1.32086 0
M  V30 10606 C 1010.49 -0.306042 -2.28762 0
M  V30 10607 C 1011.46 0.589801 -1.55276 0
M  V30 10608 O 1012.64 0.523633 -1.83474 0
M  V30 10609 C 1009.78 0.495256 -3.41528 0
M  V30 10610 C 1008.9 -0.426947 -4.29885 0
M  V30 10611 C 1008.03 0.387474 -5.29785 0
M  V30 10612 C 1007.07 -0.531807 -6.09785 0
M  V30 10613 N 1006.21 0.245741 -7.0167 0
M  V30 10614 H 1011.05 -1.1357 -2.7551 0
M  V30 10615 H 1008.59 -0.571468 -1.35546 0
M  V30 10616 H 1010.54 0.97551 -4.05635 0
M  V30 10617 H 1009.17 1.28969 -2.95917 0
M  V30 10618 H 1008.23 -1.02561 -3.66313 0
M  V30 10619 H 1009.54 -1.13226 -4.85779 0
M  V30 10620 H 1008.69 0.930677 -5.99519 0
M  V30 10621 H 1007.43 1.12612 -4.74521 0
M  V30 10622 H 1006.44 -1.08685 -5.3895 0
M  V30 10623 H 1007.66 -1.26915 -6.67135 0
M  V30 10624 H 1005.61 0.967391 -6.48828 0
M  V30 10625 H 1005.52 -0.400432 -7.54939 0
M  V30 10626 H 1006.79 0.770507 -7.75683 0
M  V30 10627 N 1011.02 1.44971 -0.618145 0
M  V30 10628 C 1012.25 2.07039 -0.122395 0
M  V30 10629 C 1012.67 1.45793 1.18853 0
M  V30 10630 O 1012.03 0.55453 1.72611 0
M  V30 10631 C 1012.08 3.60599 -0.0073864 0
M  V30 10632 O 1011.18 3.99069 1.04007 0
M  V30 10633 H 1010.52 0.6593 -0.0788615 0
M  V30 10634 H 1013.05 1.86055 -0.851147 0
M  V30 10635 H 1013.06 4.07569 0.187417 0
M  V30 10636 H 1011.74 4.04561 -0.964544 0
M  V30 10637 H 1010.31 3.63753 0.820879 0
M  V30 10638 N 1012.5 0.357919 1.53482 0
M  V30 10639 C 1013.45 -0.49217 2.25491 0
M  V30 10640 C 1014.42 -1.08382 1.25867 0
M  V30 10641 O 1015.6 -1.11775 1.54632 0
M  V30 10642 C 1012.74 -1.6299 3.04185 0
M  V30 10643 C 1011.85 -1.06416 4.18688 0
M  V30 10644 C 1010.99 -2.17037 4.84839 0
M  V30 10645 C 1010.03 -1.57889 5.91386 0
M  V30 10646 N 1009.16 -2.6231 6.51259 0
M  V30 10647 H 1014 0.128412 2.97723 0
M  V30 10648 H 1011.54 0.0751423 1.46908 0
M  V30 10649 H 1013.5 -2.29993 3.48079 0
M  V30 10650 H 1012.13 -2.22125 2.34223 0
M  V30 10651 H 1011.18 -0.284635 3.79334 0
M  V30 10652 H 1012.49 -0.591654 4.95279 0
M  V30 10653 H 1011.65 -2.91876 5.31877 0
M  V30 10654 H 1010.39 -2.67636 4.07703 0
M  V30 10655 H 1009.39 -0.815605 5.43717 0
M  V30 10656 H 1010.62 -1.08123 6.70437 0
M  V30 10657 H 1008.56 -3.12137 5.7698 0
M  V30 10658 H 1008.48 -2.19724 7.23365 0
M  V30 10659 H 1009.75 -3.36875 7.02948 0
M  V30 10660 N 1013.98 -1.5736 0.0868897 0
M  V30 10661 C 1015.23 -1.93229 -0.578387 0
M  V30 10662 C 1015.54 -0.970127 -1.69847 0
M  V30 10663 O 1016.74 -1.22222 -2.42434 0
M  V30 10664 C 1015.2 -3.43307 -1.0802 0
M  V30 10665 C 1014.81 -4.47999 0.00968135 0
M  V30 10666 C 1016.55 -3.88151 -1.71868 0
M  V30 10667 C 1014.46 -5.89223 -0.507029 0
M  V30 10668 H 1013.39 -0.721245 -0.219823 0
M  V30 10669 H 1016.04 -1.82787 0.161566 0
M  V30 10670 H 1014.42 -3.48873 -1.87359 0
M  V30 10671 H 1015.6 -4.54067 0.784865 0
M  V30 10672 H 1013.91 -4.12714 0.552845 0
M  V30 10673 H 1016.51 -4.91056 -2.11585 0
M  V30 10674 H 1016.85 -3.26347 -2.58464 0
M  V30 10675 H 1017.38 -3.85252 -0.991259 0
M  V30 10676 H 1014.12 -6.54708 0.322121 0
M  V30 10677 H 1013.64 -5.86643 -1.2494 0
M  V30 10678 H 1015.32 -6.39556 -0.978628 0
M  V30 10679 N 1015.45 0.186762 -1.56489 0
M  V30 10680 C 1016.7 0.907194 -1.81378 0
M  V30 10681 C 1017.03 1.82558 -0.662283 0
M  V30 10682 O 1016.31 1.91564 0.336699 0
M  V30 10683 C 1016.59 1.71624 -3.16571 0
M  V30 10684 C 1016.44 0.822009 -4.42225 0
M  V30 10685 C 1017.76 2.68713 -3.48542 0
M  V30 10686 H 1014.88 0.328366 -0.659806 0
M  V30 10687 H 1017.52 0.174142 -1.892 0
M  V30 10688 H 1015.67 2.34119 -3.10033 0
M  V30 10689 H 1017.35 0.211122 -4.60817 0
M  V30 10690 H 1015.59 0.129178 -4.33608 0
M  V30 10691 H 1016.26 1.42326 -5.33336 0
M  V30 10692 H 1018.74 2.16348 -3.55433 0
M  V30 10693 H 1017.61 3.22397 -4.44242 0
M  V30 10694 H 1017.87 3.48165 -2.72459 0
M  V30 10695 N 1016.93 1.50896 0.454776 0
M  V30 10696 C 1017.84 1.73762 1.5762 0
M  V30 10697 C 1018.86 0.621206 1.62533 0
M  V30 10698 O 1020.03 0.901449 1.801 0
M  V30 10699 C 1017.1 1.84183 2.9373 0
M  V30 10700 C 1016.16 3.07982 2.99075 0
M  V30 10701 C 1015.39 3.17896 4.28693 0
M  V30 10702 O 1015.62 2.34184 5.20109 0
M  V30 10703 O 1014.55 4.10749 4.39964 0
M  V30 10704 H 1018.38 2.68856 1.41245 0
M  V30 10705 H 1015.96 1.35187 0.635984 0
M  V30 10706 H 1017.84 1.93123 3.74542 0
M  V30 10707 H 1016.52 0.922742 3.10269 0
M  V30 10708 H 1015.43 3.04531 2.17282 0
M  V30 10709 H 1016.76 3.99523 2.87476 0
M  V30 10710 N 1018.41 -0.709066 1.40748 0
M  V30 10711 C 1019.64 -1.49591 1.425 0
M  V30 10712 C 1020.05 -1.89184 0.0248343 0
M  V30 10713 O 1019.39 -1.56429 -0.963109 0
M  V30 10714 C 1019.45 -2.79735 2.25807 0
M  V30 10715 C 1019.12 -2.62426 3.74141 0
M  V30 10716 C 1020.11 -2.29256 4.66624 0
M  V30 10717 C 1017.8 -2.78487 4.18032 0
M  V30 10718 C 1019.79 -2.12366 6.00982 0
M  V30 10719 C 1017.48 -2.61215 5.52458 0
M  V30 10720 C 1018.48 -2.28203 6.43749 0
M  V30 10721 O 1018.17 -2.11069 7.75697 0
M  V30 10722 H 1017.9 -0.467994 0.487809 0
M  V30 10723 H 1020.45 -0.881694 1.85514 0
M  V30 10724 H 1018.68 -3.43513 1.77584 0
M  V30 10725 H 1020.37 -3.41481 2.19421 0
M  V30 10726 H 1021.14 -2.16474 4.34009 0
M  V30 10727 H 1017.02 -3.03168 3.4729 0
M  V30 10728 H 1020.56 -1.86522 6.72202 0
M  V30 10729 H 1016.46 -2.73582 5.84656 0
M  V30 10730 H 1017.23 -2.25938 7.86698 0
M  V30 10731 N 1019.89 -1.26353 -0.941956 0
M  V30 10732 C 1020.82 -1.10341 -2.05784 0
M  V30 10733 C 1021.8 -0.00881565 -1.70098 0
M  V30 10734 O 1022.99 -0.180699 -1.93357 0
M  V30 10735 C 1020.12 -0.734788 -3.39438 0
M  V30 10736 C 1019.07 -1.78103 -3.89183 0
M  V30 10737 C 1018.4 -1.26675 -5.19478 0
M  V30 10738 C 1019.7 -3.1824 -4.14151 0
M  V30 10739 H 1021.39 -2.03684 -2.19438 0
M  V30 10740 H 1018.94 -0.980698 -1.05443 0
M  V30 10741 H 1020.89 -0.609653 -4.16967 0
M  V30 10742 H 1019.61 0.234354 -3.25758 0
M  V30 10743 H 1018.27 -1.89482 -3.13835 0
M  V30 10744 H 1017.92 -0.287472 -5.02178 0
M  V30 10745 H 1017.62 -1.96612 -5.53731 0
M  V30 10746 H 1019.14 -1.15427 -5.99591 0
M  V30 10747 H 1020.56 -3.09942 -4.82296 0
M  V30 10748 H 1018.95 -3.8576 -4.59684 0
M  V30 10749 H 1020.02 -3.64354 -3.19959 0
M  V30 10750 N 1021.37 1.14642 -1.08144 0
M  V30 10751 C 1022.3 2.19283 -0.6669 0
M  V30 10752 C 1023.31 1.60292 0.284668 0
M  V30 10753 O 1024.5 1.78352 0.0727383 0
M  V30 10754 C 1021.6 3.38877 0.0398572 0
M  V30 10755 C 1020.77 4.274 -0.929929 0
M  V30 10756 C 1019.83 5.25562 -0.258991 0
M  V30 10757 O 1018.86 5.61999 -0.902563 0
M  V30 10758 N 1020.06 5.71958 0.992177 0
M  V30 10759 H 1022.83 2.55464 -1.5671 0
M  V30 10760 H 1020.39 1.29836 -0.96717 0
M  V30 10761 H 1022.38 4.01605 0.499583 0
M  V30 10762 H 1020.95 3.01043 0.842118 0
M  V30 10763 H 1020.17 3.61649 -1.56857 0
M  V30 10764 H 1021.46 4.83411 -1.58717 0
M  V30 10765 H 1020.86 5.44481 1.53484 0
M  V30 10766 H 1019.41 6.36687 1.39544 0
M  V30 10767 N 1022.85 0.866709 1.31628 0
M  V30 10768 C 1024.07 0.48956 2.01539 0
M  V30 10769 C 1024.5 -0.909556 1.64647 0
M  V30 10770 O 1023.85 -1.59959 0.853391 0
M  V30 10771 C 1023.9 0.650176 3.5469 0
M  V30 10772 O 1023.01 -0.311908 4.11219 0
M  V30 10773 H 1022.35 0.195144 0.634677 0
M  V30 10774 H 1024.88 1.16923 1.679 0
M  V30 10775 H 1024.89 0.542236 4.04381 0
M  V30 10776 H 1023.56 1.67038 3.80882 0
M  V30 10777 H 1022.14 -0.159197 3.7256 0
M  V30 10778 N 1024.32 -1.44642 0.625825 0
M  V30 10779 C 1025.55 -2.06159 0.13492 0
M  V30 10780 C 1025.96 -1.46801 -1.19357 0
M  V30 10781 O 1025.3 -0.583345 -1.74192 0
M  V30 10782 C 1025.37 -3.5945 -0.0598481 0
M  V30 10783 C 1025.03 -4.41244 1.18965 0
M  V30 10784 C 1026.03 -4.75064 2.11212 0
M  V30 10785 C 1023.71 -4.81705 1.42359 0
M  V30 10786 C 1025.71 -5.48221 3.25165 0
M  V30 10787 C 1023.39 -5.54612 2.5661 0
M  V30 10788 C 1024.39 -5.87789 3.4784 0
M  V30 10789 O 1024.08 -6.59213 4.60101 0
M  V30 10790 H 1023.81 -0.671888 0.0744464 0
M  V30 10791 H 1026.37 -1.86586 0.858775 0
M  V30 10792 H 1024.6 -3.77493 -0.838792 0
M  V30 10793 H 1026.28 -4.02751 -0.504639 0
M  V30 10794 H 1027.05 -4.44348 1.94371 0
M  V30 10795 H 1022.93 -4.55305 0.722401 0
M  V30 10796 H 1026.47 -5.74035 3.96396 0
M  V30 10797 H 1022.37 -5.84743 2.73396 0
M  V30 10798 H 1023.14 -6.77678 4.59015 0
M  V30 10799 N 1025.8 -0.366053 -1.5329 0
M  V30 10800 C 1027.08 0.279902 -1.93587 0
M  V30 10801 C 1027.46 1.66352 -1.29963 0
M  V30 10802 O 1026.81 2.23845 -0.458895 0
M  V30 10803 C 1027.02 0.329634 -3.4744 0
M  V30 10804 C 1028.36 0.569754 -4.2076 0
M  V30 10805 O 1029.39 0.410823 -3.53823 0
M  V30 10806 O 1028.25 0.879262 -5.3938 0
M  V30 10807 H 1025.34 0.16802 -0.809752 0
M  V30 10808 H 1027.89 -0.418871 -1.64449 0
M  V30 10809 H 1026.66 -0.640434 -3.86023 0
M  V30 10810 H 1026.28 1.07428 -3.82812 0
M  V30 10811 N 1027.28 1.57312 -0.0952337 0
M  V30 10812 C 1028.19 2.17556 0.877877 0
M  V30 10813 C 1029.21 1.14505 1.31014 0
M  V30 10814 O 1030.38 1.46876 1.37802 0
M  V30 10815 C 1027.45 2.74413 2.11892 0
M  V30 10816 C 1026.51 3.92419 1.74085 0
M  V30 10817 C 1025.74 4.46556 2.92273 0
M  V30 10818 O 1025.96 3.99631 4.07002 0
M  V30 10819 O 1024.9 5.37576 2.70732 0
M  V30 10820 H 1028.72 3.01116 0.395312 0
M  V30 10821 H 1026.31 1.48841 0.129123 0
M  V30 10822 H 1028.19 3.10754 2.84622 0
M  V30 10823 H 1026.87 1.93899 2.59201 0
M  V30 10824 H 1025.77 3.6089 0.985346 0
M  V30 10825 H 1027.11 4.74298 1.31539 0
M  V30 10826 N 1028.76 -0.17846 1.56586 0
M  V30 10827 C 1030.01 -0.894502 1.8078 0
M  V30 10828 C 1030.32 -1.8372 0.67129 0
M  V30 10829 O 1031.53 -2.59509 0.797971 0
M  V30 10830 C 1029.98 -1.64109 3.20306 0
M  V30 10831 C 1029.59 -0.742387 4.41806 0
M  V30 10832 C 1031.33 -2.34578 3.53798 0
M  V30 10833 C 1029.24 -1.4888 5.72354 0
M  V30 10834 H 1028.17 -0.33776 0.674117 0
M  V30 10835 H 1030.82 -0.14752 1.82906 0
M  V30 10836 H 1029.2 -2.43257 3.12477 0
M  V30 10837 H 1030.38 0.011615 4.60799 0
M  V30 10838 H 1028.69 -0.147705 4.16138 0
M  V30 10839 H 1031.29 -2.91004 4.48577 0
M  V30 10840 H 1031.63 -3.09572 2.78336 0
M  V30 10841 H 1032.17 -1.62381 3.63149 0
M  V30 10842 H 1028.9 -0.781325 6.50827 0
M  V30 10843 H 1028.42 -2.21631 5.57351 0
M  V30 10844 H 1030.1 -2.03819 6.14058 0
M  V30 10845 N 1030.24 -1.51135 -0.446768 0
M  V30 10846 C 1031.46 -1.67129 -1.21965 0
M  V30 10847 C 1031.88 -0.36467 -1.85245 0
M  V30 10848 O 1031.24 0.655908 -1.70306 0
M  V30 10849 C 1031.29 -2.78016 -2.31061 0
M  V30 10850 O 1031.01 -4.03615 -1.70371 0
M  V30 10851 C 1032.51 -3.05197 -3.21511 0
M  V30 10852 H 1029.73 -0.561111 -0.367961 0
M  V30 10853 H 1032.27 -1.97499 -0.530517 0
M  V30 10854 H 1030.43 -2.50272 -2.95707 0
M  V30 10855 H 1030.84 -4.65126 -2.424 0
M  V30 10856 H 1032.32 -3.8639 -3.94216 0
M  V30 10857 H 1032.79 -2.17228 -3.81718 0
M  V30 10858 H 1033.4 -3.34565 -2.62577 0
M  V30 10859 N 1031.71 0.701592 -1.41122 0
M  V30 10860 C 1032.68 1.79733 -1.42227 0
M  V30 10861 C 1033.68 1.57708 -0.313831 0
M  V30 10862 O 1034.87 1.64492 -0.573423 0
M  V30 10863 C 1032 3.18024 -1.22775 0
M  V30 10864 H 1033.19 1.80148 -2.39764 0
M  V30 10865 H 1030.74 0.908624 -1.27176 0
M  V30 10866 H 1031.48 3.23252 -0.260552 0
M  V30 10867 H 1031.26 3.35411 -2.0308 0
M  V30 10868 H 1032.75 3.98021 -1.2637 0
M  V30 10869 N 1033.19 1.2685 0.935242 0
M  V30 10870 C 1034.12 1.03244 2.03509 0
M  V30 10871 C 1035.1 -0.0447323 1.62538 0
M  V30 10872 O 1036.29 0.0988905 1.8824 0
M  V30 10873 C 1033.41 0.564626 3.33961 0
M  V30 10874 C 1032.46 1.63524 3.93906 0
M  V30 10875 S 1033.29 3.22577 4.27439 0
M  V30 10876 C 1034.45 2.77579 5.60982 0
M  V30 10877 H 1034.68 1.96367 2.2322 0
M  V30 10878 H 1032.21 1.10597 1.07739 0
M  V30 10879 H 1034.17 0.301388 4.09392 0
M  V30 10880 H 1032.83 -0.346419 3.12184 0
M  V30 10881 H 1032.03 1.25905 4.8802 0
M  V30 10882 H 1031.63 1.85017 3.25031 0
M  V30 10883 H 1033.92 2.22412 6.39952 0
M  V30 10884 H 1034.86 3.70408 6.03493 0
M  V30 10885 H 1035.27 2.16956 5.21143 0
M  V30 10886 N 1034.67 -1.14067 1.0875 0
M  V30 10887 C 1035.9 -1.89041 0.840902 0
M  V30 10888 C 1036.31 -1.78768 -0.60725 0
M  V30 10889 O 1035.67 -1.14945 -1.41753 0
M  V30 10890 C 1035.72 -3.38891 1.25838 0
M  V30 10891 O 1035.44 -3.48886 2.64972 0
M  V30 10892 C 1036.94 -4.30852 1.04315 0
M  V30 10893 H 1034.16 -0.598685 0.303014 0
M  V30 10894 H 1036.71 -1.44438 1.44769 0
M  V30 10895 H 1034.86 -3.81103 0.695627 0
M  V30 10896 H 1035.28 -4.41989 2.82393 0
M  V30 10897 H 1036.75 -5.34353 1.38461 0
M  V30 10898 H 1037.23 -4.39196 -0.0195784 0
M  V30 10899 H 1037.83 -3.944 1.59151 0
M  V30 10900 N 1036.15 -0.873678 -1.31166 0
M  V30 10901 C 1037.4 -0.485497 -1.96182 0
M  V30 10902 C 1037.72 0.96621 -1.69379 0
M  V30 10903 O 1036.99 1.67783 -1.01121 0
M  V30 10904 H 1035.57 -0.176547 -0.725838 0
M  V30 10905 H 1038.23 -1.11428 -1.59906 0
M  V30 10906 H 1037.33 -0.646325 -3.05334 0
M  V30 10907 N 1037.63 1.44308 -0.633487 0
M  V30 10908 C 1038.9 1.95476 -0.0697262 0
M  V30 10909 C 1039.28 1.57539 1.40516 0
M  V30 10910 O 1038.63 0.850632 2.12077 0
M  V30 10911 C 1038.84 3.4775 -0.295093 0
M  V30 10912 C 1040.19 4.24177 -0.189542 0
M  V30 10913 O 1041.21 3.55479 -0.226586 0
M  V30 10914 O 1040.07 5.46415 -0.096479 0
M  V30 10915 H 1037.17 0.826734 0.0209582 0
M  V30 10916 H 1039.71 1.54347 -0.705354 0
M  V30 10917 H 1038.48 3.6842 -1.31841 0
M  V30 10918 H 1038.11 3.95832 0.37456 0
M  V30 10919 N 1039.1 0.374177 1.53094 0
M  V30 10920 C 1040.35 -0.212396 2.00981 0
M  V30 10921 C 1040.67 -1.48576 1.26293 0
M  V30 10922 O 1039.94 -1.92206 0.378642 0
M  V30 10923 H 1038.52 -0.0814763 0.742543 0
M  V30 10924 H 1041.19 0.502389 1.88314 0
M  V30 10925 H 1040.28 -0.433316 3.09077 0
M  V30 10926 N 1040.58 -1.57259 0.103575 0
M  V30 10927 C 1041.83 -1.94945 -0.558953 0
M  V30 10928 C 1042.16 -0.986038 -1.67305 0
M  V30 10929 O 1041.44 -0.0205464 -1.94489 0
M  V30 10930 C 1041.72 -3.42689 -1.10617 0
M  V30 10931 C 1041.57 -4.498 0.00345246 0
M  V30 10932 C 1042.89 -3.91933 -2.00191 0
M  V30 10933 H 1040.01 -0.708859 -0.201713 0
M  V30 10934 H 1042.65 -1.89183 0.176006 0
M  V30 10935 H 1040.8 -3.4773 -1.73251 0
M  V30 10936 H 1042.47 -4.56866 0.638082 0
M  V30 10937 H 1040.72 -4.28615 0.668705 0
M  V30 10938 H 1041.39 -5.50397 -0.420396 0
M  V30 10939 H 1043.86 -3.89098 -1.4745 0
M  V30 10940 H 1042.74 -4.9586 -2.35402 0
M  V30 10941 H 1043 -3.31722 -2.92255 0
M  V30 10942 N 1042.06 0.170153 -1.56679 0
M  V30 10943 C 1043.01 1.22997 -1.9742 0
M  V30 10944 C 1044 1.45762 -0.863117 0
M  V30 10945 O 1045.21 1.46328 -1.04824 0
M  V30 10946 H 1041.58 0.413482 -0.628122 0
M  V30 10947 H 1043.55 0.859502 -2.85754 0
M  V30 10948 C 1042.3 2.5615 -2.35122 0
M  V30 10949 H 1041.63 2.39456 -3.20158 0
M  V30 10950 H 1043.07 3.28991 -2.67471 0
M  V30 10951 C 1041.53 3.14992 -1.19507 0
M  V30 10952 O 1042.06 3.98781 -0.483357 0
M  V30 10953 N 1040.26 2.74098 -0.965332 0
M  V30 10954 H 1039.81 2.06062 -1.54585 0
M  V30 10955 H 1039.77 3.13803 -0.193611 0
M  V30 10956 N 1043.54 1.5137 0.438746 0
M  V30 10957 C 1044.82 1.54508 1.19944 0
M  V30 10958 C 1045.2 0.308525 2.08833 0
M  V30 10959 O 1044.54 -0.706461 2.17305 0
M  V30 10960 C 1044.75 2.85833 2.00251 0
M  V30 10961 C 1046.1 3.37729 2.5734 0
M  V30 10962 O 1047.13 2.87374 2.10463 0
M  V30 10963 O 1045.98 4.25589 3.42836 0
M  V30 10964 H 1043.08 0.621132 0.546007 0
M  V30 10965 H 1045.62 1.63682 0.447931 0
M  V30 10966 H 1044.4 3.67291 1.34955 0
M  V30 10967 H 1044.02 2.79815 2.8247 0
M  V30 10968 N 1045.02 -0.694098 1.41492 0
M  V30 10969 C 1045.98 -1.78976 1.43179 0
M  V30 10970 C 1046.98 -1.57539 0.322191 0
M  V30 10971 O 1048.17 -1.64185 0.582138 0
M  V30 10972 C 1045.3 -3.17368 1.2446 0
M  V30 10973 H 1046.49 -1.78874 2.40716 0
M  V30 10974 H 1044.05 -0.901867 1.27656 0
M  V30 10975 H 1044.78 -3.23109 0.277691 0
M  V30 10976 H 1044.57 -3.3433 2.04856 0
M  V30 10977 H 1046.06 -3.97345 1.28479 0
M  V30 10978 N 1046.49 -1.27344 -0.928501 0
M  V30 10979 C 1047.91 -1.12361 -1.49103 0
M  V30 10980 C 1048.26 0.291667 -1.9402 0
M  V30 10981 O 1047.38 1.18449 -1.81104 0
M  V30 10982 C 1047.98 -2.03358 -2.70981 0
M  V30 10983 C 1046.54 -1.92483 -3.23461 0
M  V30 10984 C 1045.68 -1.95961 -1.962 0
M  V30 10985 H 1048.63 -1.40249 -0.742689 0
M  V30 10986 H 1048.65 -1.58892 -3.45736 0
M  V30 10987 H 1048.17 -3.06356 -2.38259 0
M  V30 10988 H 1046.27 -0.924676 -3.60944 0
M  V30 10989 H 1046.38 -2.78682 -3.89709 0
M  V30 10990 H 1044.74 -1.40175 -2.12657 0
M  V30 10991 H 1045.53 -3.00612 -1.65793 0
M  V30 10992 N 1047.97 1.13488 -1.09353 0
M  V30 10993 C 1048.94 2.17066 -0.735863 0
M  V30 10994 C 1049.94 1.59086 0.234181 0
M  V30 10995 O 1051.13 1.74196 0.012463 0
M  V30 10996 C 1048.26 3.40786 -0.0880975 0
M  V30 10997 H 1049.45 2.50221 -1.65316 0
M  V30 10998 H 1047 1.28304 -0.89263 0
M  V30 10999 H 1047.74 3.1322 0.840462 0
M  V30 11000 H 1047.52 3.8414 -0.786073 0
M  V30 11001 H 1049.01 4.17342 0.146775 0
M  V30 11002 N 1049.45 0.880621 1.30701 0
M  V30 11003 C 1050.38 0.360251 2.30704 0
M  V30 11004 C 1051.36 -0.554572 1.60806 0
M  V30 11005 O 1052.55 -0.469345 1.88443 0
M  V30 11006 C 1049.68 -0.429888 3.44629 0
M  V30 11007 C 1048.63 0.392786 4.26194 0
M  V30 11008 C 1047.96 -0.52369 5.32129 0
M  V30 11009 C 1049.26 1.63258 4.96129 0
M  V30 11010 H 1050.95 1.19591 2.74478 0
M  V30 11011 H 1048.5 0.576508 1.31956 0
M  V30 11012 H 1050.45 -0.804532 4.13649 0
M  V30 11013 H 1049.17 -1.29916 2.99649 0
M  V30 11014 H 1047.83 0.749514 3.58856 0
M  V30 11015 H 1047.48 -1.39054 4.83397 0
M  V30 11016 H 1047.18 0.0229272 5.87596 0
M  V30 11017 H 1048.71 -0.894946 6.04006 0
M  V30 11018 H 1050.12 1.32877 5.57689 0
M  V30 11019 H 1048.52 2.11906 5.61441 0
M  V30 11020 H 1049.59 2.37944 4.22505 0
M  V30 11021 N 1050.93 -1.4397 0.641131 0
M  V30 11022 C 1051.88 -2.30728 -0.0577905 0
M  V30 11023 C 1052.85 -1.44059 -0.826819 0
M  V30 11024 O 1054.03 -1.72947 -0.805853 0
M  V30 11025 C 1051.17 -3.29478 -1.02657 0
M  V30 11026 C 1050.28 -4.31247 -0.254913 0
M  V30 11027 C 1049.42 -5.17085 -1.2164 0
M  V30 11028 C 1048.46 -6.10556 -0.434481 0
M  V30 11029 N 1047.6 -6.89059 -1.34694 0
M  V30 11030 H 1052.44 -2.8995 0.687953 0
M  V30 11031 H 1049.97 -1.4285 0.351029 0
M  V30 11032 H 1051.93 -3.85228 -1.60173 0
M  V30 11033 H 1050.56 -2.71932 -1.73933 0
M  V30 11034 H 1049.61 -3.77889 0.436338 0
M  V30 11035 H 1050.92 -4.97545 0.353642 0
M  V30 11036 H 1050.08 -5.77402 -1.86258 0
M  V30 11037 H 1048.82 -4.50885 -1.85888 0
M  V30 11038 H 1047.82 -5.49339 0.225125 0
M  V30 11039 H 1049.05 -6.78795 0.203415 0
M  V30 11040 H 1046.99 -6.25518 -1.97644 0
M  V30 11041 H 1046.91 -7.51833 -0.792657 0
M  V30 11042 H 1048.18 -7.5389 -1.98165 0
M  V30 11043 N 1052.41 -0.382291 -1.52893 0
M  V30 11044 C 1053.35 0.456234 -2.26246 0
M  V30 11045 C 1054.32 1.06366 -1.27575 0
M  V30 11046 O 1055.51 1.09301 -1.5639 0
M  V30 11047 C 1052.65 1.5813 -3.06739 0
M  V30 11048 C 1051.76 0.997416 -4.20328 0
M  V30 11049 C 1050.9 2.09296 -4.8823 0
M  V30 11050 C 1049.94 1.4846 -5.93823 0
M  V30 11051 N 1049.07 2.51916 -6.55349 0
M  V30 11052 H 1053.91 -0.175761 -2.97481 0
M  V30 11053 H 1051.45 -0.0985046 -1.4677 0
M  V30 11054 H 1053.41 2.24426 -3.51694 0
M  V30 11055 H 1052.04 2.18371 -2.37727 0
M  V30 11056 H 1051.09 0.224251 -3.79738 0
M  V30 11057 H 1052.4 0.512784 -4.96157 0
M  V30 11058 H 1051.56 2.83377 -5.36453 0
M  V30 11059 H 1050.3 2.61116 -4.1191 0
M  V30 11060 H 1049.3 0.729001 -5.44946 0
M  V30 11061 H 1050.53 0.97443 -6.72073 0
M  V30 11062 H 1048.47 3.02919 -5.81873 0
M  V30 11063 H 1048.39 2.08188 -7.26769 0
M  V30 11064 H 1049.66 3.25649 -7.08218 0
M  V30 11065 N 1053.89 1.57202 -0.111913 0
M  V30 11066 C 1054.85 2.13778 0.826534 0
M  V30 11067 C 1055.85 1.07097 1.19945 0
M  V30 11068 O 1057.04 1.32906 1.12613 0
M  V30 11069 C 1054.17 2.6722 2.11675 0
M  V30 11070 H 1055.36 2.98023 0.334975 0
M  V30 11071 H 1052.92 1.55696 0.137256 0
M  V30 11072 H 1053.65 1.86542 2.65278 0
M  V30 11073 H 1053.44 3.45235 1.8589 0
M  V30 11074 H 1054.93 3.10926 2.78774 0
M  V30 11075 N 1055.36 -0.161842 1.56767 0
M  V30 11076 C 1056.27 -1.21996 2.00385 0
M  V30 11077 C 1057.29 -1.4789 0.916768 0
M  V30 11078 O 1058.47 -1.59852 1.22513 0
M  V30 11079 C 1055.53 -2.53695 2.36305 0
M  V30 11080 C 1054.59 -2.3558 3.58888 0
M  V30 11081 C 1053.82 -3.60998 3.93085 0
M  V30 11082 O 1054.05 -4.6657 3.28129 0
M  V30 11083 O 1052.98 -3.54544 4.86397 0
M  V30 11084 H 1056.81 -0.879701 2.9068 0
M  V30 11085 H 1054.39 -0.369437 1.4476 0
M  V30 11086 H 1056.27 -3.31366 2.60335 0
M  V30 11087 H 1054.95 -2.87281 1.49169 0
M  V30 11088 H 1053.86 -1.55908 3.40064 0
M  V30 11089 H 1055.19 -2.06915 4.46595 0
M  V30 11090 N 1056.84 -1.516 -0.430713 0
M  V30 11091 C 1058.09 -1.63829 -1.17657 0
M  V30 11092 C 1058.4 -0.363605 -1.92191 0
M  V30 11093 O 1059.61 -0.365358 -2.6903 0
M  V30 11094 C 1058.07 -2.89357 -2.14011 0
M  V30 11095 C 1057.67 -4.23854 -1.45094 0
M  V30 11096 C 1059.42 -3.10944 -2.88988 0
M  V30 11097 C 1057.32 -5.40526 -2.3997 0
M  V30 11098 H 1056.25 -0.610221 -0.442884 0
M  V30 11099 H 1058.91 -1.78073 -0.442984 0
M  V30 11100 H 1057.29 -2.68762 -2.90832 0
M  V30 11101 H 1058.46 -4.54854 -0.737853 0
M  V30 11102 H 1056.78 -4.08197 -0.822429 0
M  V30 11103 H 1059.37 -3.95286 -3.60074 0
M  V30 11104 H 1059.72 -2.24291 -3.50712 0
M  V30 11105 H 1060.25 -3.3191 -2.19272 0
M  V30 11106 H 1056.99 -6.29459 -1.82925 0
M  V30 11107 H 1056.51 -5.13893 -3.09313 0
M  V30 11108 H 1058.19 -5.72741 -3.00959 0
M  V30 11109 N 1058.32 0.686584 -1.41858 0
M  V30 11110 C 1059.57 1.44379 -1.41418 0
M  V30 11111 C 1059.89 1.94981 -0.0273696 0
M  V30 11112 O 1059.16 1.72296 0.932248 0
M  V30 11113 H 1057.74 0.53574 -0.520568 0
M  V30 11114 H 1060.4 0.812056 -1.77177 0
M  V30 11115 H 1059.5 2.30258 -2.10684 0
M  V30 11116 N 1059.8 1.27835 0.921735 0
M  V30 11117 C 1061.05 1.13904 1.6646 0
M  V30 11118 C 1061.36 -0.313379 1.93073 0
M  V30 11119 O 1062.57 -0.573687 2.6537 0
M  V30 11120 C 1061.02 1.99064 2.99836 0
M  V30 11121 C 1060.63 3.48998 2.80899 0
M  V30 11122 C 1062.37 1.93797 3.77681 0
M  V30 11123 C 1060.28 4.26337 4.09867 0
M  V30 11124 H 1059.21 0.422681 0.624385 0
M  V30 11125 H 1061.86 1.52303 1.02352 0
M  V30 11126 H 1060.24 1.53514 3.65034 0
M  V30 11127 H 1061.42 4.02452 2.24431 0
M  V30 11128 H 1059.73 3.55707 2.16476 0
M  V30 11129 H 1062.33 2.48852 4.73262 0
M  V30 11130 H 1062.67 0.912928 4.06167 0
M  V30 11131 H 1063.21 2.37275 3.19289 0
M  V30 11132 H 1059.94 5.2939 3.86557 0
M  V30 11133 H 1059.46 3.77659 4.65976 0
M  V30 11134 H 1061.14 4.3583 4.78185 0
M  V30 11135 N 1061.28 -1.12907 1.09954 0
M  V30 11136 C 1062.24 -2.16673 0.747364 0
M  V30 11137 C 1063.24 -1.59208 -0.225741 0
M  V30 11138 O 1064.43 -1.742 -0.00322482 0
M  V30 11139 C 1061.56 -3.40735 0.106169 0
M  V30 11140 H 1062.75 -2.49341 1.6664 0
M  V30 11141 H 1060.31 -1.27828 0.899421 0
M  V30 11142 H 1061.04 -3.13661 -0.82384 0
M  V30 11143 H 1060.83 -3.83717 0.806434 0
M  V30 11144 H 1062.32 -4.17414 -0.12464 0
M  V30 11145 N 1062.75 -0.88754 -1.30232 0
M  V30 11146 C 1063.69 -0.300814 -2.26209 0
M  V30 11147 C 1064.66 0.580088 -1.519 0
M  V30 11148 O 1065.85 0.529611 -1.80907 0
M  V30 11149 C 1062.98 0.572336 -3.33829 0
M  V30 11150 C 1062.02 -0.239589 -4.25827 0
M  V30 11151 S 1062.85 -1.62953 -5.10104 0
M  V30 11152 C 1064.01 -0.762979 -6.21232 0
M  V30 11153 H 1064.24 -1.11435 -2.75626 0
M  V30 11154 H 1061.78 -0.687123 -1.38268 0
M  V30 11155 H 1063.73 1.07036 -3.963 0
M  V30 11156 H 1062.4 1.35999 -2.83131 0
M  V30 11157 H 1061.59 0.426854 -5.02189 0
M  V30 11158 H 1061.19 -0.670325 -3.67944 0
M  V30 11159 H 1063.48 0.0189354 -6.77497 0
M  V30 11160 H 1064.43 -1.49829 -6.92067 0
M  V30 11161 H 1064.83 -0.322747 -5.63577 0
M  V30 11162 N 1064.23 1.43628 -0.648757 0
M  V30 11163 C 1065.48 2.01465 -0.16002 0
M  V30 11164 C 1065.8 1.51413 1.22878 0
M  V30 11165 O 1065.07 0.724919 1.81994 0
M  V30 11166 H 1063.65 0.744885 -0.0561672 0
M  V30 11167 H 1066.31 1.75897 -0.839422 0
M  V30 11168 H 1065.41 3.1178 -0.141213 0
M  V30 11169 N 1065.71 0.390394 1.52688 0
M  V30 11170 C 1066.94 -0.194013 2.06491 0
M  V30 11171 C 1067.36 -1.3965 1.26014 0
M  V30 11172 O 1066.72 -1.79038 0.285468 0
M  V30 11173 C 1066.77 -0.541306 3.56514 0
M  V30 11174 O 1065.87 -1.63509 3.78601 0
M  V30 11175 H 1065.21 -0.0223608 0.663623 0
M  V30 11176 H 1067.74 0.558179 1.96839 0
M  V30 11177 H 1067.75 -0.805301 3.99974 0
M  V30 11178 H 1066.43 0.337828 4.14526 0
M  V30 11179 H 1065 -1.36473 3.4703 0
M  V30 11180 N 1067.19 -1.57141 0.120249 0
M  V30 11181 C 1068.44 -1.94852 -0.536387 0
M  V30 11182 C 1068.76 -1.00452 -1.67136 0
M  V30 11183 O 1068.03 -0.061053 -1.95805 0
M  V30 11184 H 1066.61 -0.719411 -0.201138 0
M  V30 11185 H 1069.27 -1.93977 0.189482 0
M  V30 11186 H 1068.37 -2.97917 -0.930145 0
M  V30 11187 N 1068.67 0.153526 -1.5685 0
M  V30 11188 C 1069.89 0.882335 -1.87143 0
M  V30 11189 C 1070.31 1.75034 -0.707702 0
M  V30 11190 O 1069.67 1.79624 0.32273 0
M  V30 11191 C 1069.72 1.74444 -3.16625 0
M  V30 11192 O 1069.44 0.911419 -4.28515 0
M  V30 11193 C 1070.94 2.58139 -3.60388 0
M  V30 11194 H 1068.16 0.25546 -0.620469 0
M  V30 11195 H 1070.7 0.148275 -2.03962 0
M  V30 11196 H 1068.86 2.43163 -3.0158 0
M  V30 11197 H 1069.27 1.50268 -5.02513 0
M  V30 11198 H 1070.75 3.14215 -4.53842 0
M  V30 11199 H 1071.22 3.33865 -2.85361 0
M  V30 11200 H 1071.83 1.94721 -3.78105 0
M  V30 11201 N 1070.14 1.51827 0.422667 0
M  V30 11202 C 1071.11 1.7359 1.49663 0
M  V30 11203 C 1072.11 0.605811 1.48952 0
M  V30 11204 O 1073.3 0.87354 1.50715 0
M  V30 11205 C 1070.43 1.80585 2.8914 0
M  V30 11206 H 1071.62 2.69453 1.31664 0
M  V30 11207 H 1069.18 1.42038 0.652298 0
M  V30 11208 H 1069.91 0.865895 3.12526 0
M  V30 11209 H 1069.7 2.62729 2.9106 0
M  V30 11210 H 1071.19 1.99212 3.67021 0
M  V30 11211 N 1071.62 -0.679052 1.4222 0
M  V30 11212 C 1072.87 -1.44125 1.42674 0
M  V30 11213 C 1073.2 -1.94156 0.041438 0
M  V30 11214 O 1072.48 -1.70628 -0.93361 0
M  V30 11215 C 1072.76 -2.64133 2.44756 0
M  V30 11216 C 1072.61 -2.19761 3.9246 0
M  V30 11217 C 1073.93 -3.66347 2.43881 0
M  V30 11218 H 1071.05 -0.522729 0.519541 0
M  V30 11219 H 1073.69 -0.772067 1.73606 0
M  V30 11220 H 1071.84 -3.21225 2.1851 0
M  V30 11221 H 1073.51 -1.67869 4.29671 0
M  V30 11222 H 1071.76 -1.51377 4.06531 0
M  V30 11223 H 1072.43 -3.05944 4.59459 0
M  V30 11224 H 1074.9 -3.18963 2.67211 0
M  V30 11225 H 1073.78 -4.47902 3.17293 0
M  V30 11226 H 1074.04 -4.17183 1.46325 0
M  V30 11227 N 1073.1 -1.28322 -0.914942 0
M  V30 11228 C 1074.06 -1.12169 -1.99877 0
M  V30 11229 C 1075.06 -0.0617252 -1.60681 0
M  V30 11230 O 1076.25 -0.307405 -1.71466 0
M  V30 11231 C 1073.39 -0.711959 -3.33383 0
M  V30 11232 H 1074.58 -2.08425 -2.15636 0
M  V30 11233 H 1072.13 -1.11291 -1.09745 0
M  V30 11234 H 1072.87 0.251418 -3.23324 0
M  V30 11235 H 1072.65 -1.47764 -3.63192 0
M  V30 11236 H 1074.14 -0.621558 -4.12948 0
M  V30 11237 N 1074.58 1.12322 -1.10551 0
M  V30 11238 C 1075.53 2.18087 -0.755424 0
M  V30 11239 C 1076.5 1.6391 0.268805 0
M  V30 11240 O 1077.68 1.90227 0.147813 0
M  V30 11241 C 1074.82 3.4455 -0.194713 0
M  V30 11242 C 1073.93 4.12775 -1.27439 0
M  V30 11243 C 1073.07 5.26891 -0.675194 0
M  V30 11244 C 1072.11 5.86985 -1.73536 0
M  V30 11245 N 1071.24 6.92512 -1.15635 0
M  V30 11246 H 1076.08 2.47379 -1.66155 0
M  V30 11247 H 1073.62 1.21452 -0.829924 0
M  V30 11248 H 1075.58 4.16936 0.148275 0
M  V30 11249 H 1074.21 3.15671 0.674638 0
M  V30 11250 H 1073.26 3.38556 -1.73448 0
M  V30 11251 H 1074.57 4.53506 -2.07687 0
M  V30 11252 H 1073.73 6.06046 -0.281723 0
M  V30 11253 H 1072.47 4.87442 0.158708 0
M  V30 11254 H 1071.47 5.06517 -2.13825 0
M  V30 11255 H 1072.7 6.28505 -2.57213 0
M  V30 11256 H 1070.64 6.55098 -0.343928 0
M  V30 11257 H 1070.56 7.31848 -1.89565 0
M  V30 11258 H 1071.83 7.75492 -0.789463 0
M  V30 11259 N 1076.06 0.894434 1.2976 0
M  V30 11260 C 1077.28 0.532916 1.99919 0
M  V30 11261 C 1077.7 -0.881022 1.66983 0
M  V30 11262 O 1077.06 -1.58076 0.912035 0
M  V30 11263 C 1077.11 0.70936 3.54472 0
M  V30 11264 O 1076.83 2.06764 3.86239 0
M  V30 11265 C 1078.33 0.352089 4.419 0
M  V30 11266 H 1075.55 0.205019 0.638912 0
M  V30 11267 H 1078.09 1.20233 1.65421 0
M  V30 11268 H 1076.25 0.0871901 3.87302 0
M  V30 11269 H 1076.66 2.09315 4.80924 0
M  V30 11270 H 1078.14 0.526405 5.49484 0
M  V30 11271 H 1078.61 -0.710527 4.33415 0
M  V30 11272 H 1079.22 0.950979 4.14532 0
M  V30 11273 N 1077.53 -1.43282 0.656365 0
M  V30 11274 C 1078.5 -2.29188 -0.0239173 0
M  V30 11275 C 1079.5 -1.42373 -0.747436 0
M  V30 11276 O 1080.69 -1.63969 -0.588213 0
M  V30 11277 C 1077.82 -3.24501 -1.0446 0
M  V30 11278 H 1079.01 -2.9083 0.731978 0
M  V30 11279 H 1076.57 -1.50614 0.417752 0
M  V30 11280 H 1077.3 -2.6776 -1.82962 0
M  V30 11281 H 1077.09 -3.88509 -0.52942 0
M  V30 11282 H 1078.58 -3.88971 -1.51958 0
M  V30 11283 N 1079.01 -0.398486 -1.52479 0
M  V30 11284 C 1080.24 0.183059 -2.06591 0
M  V30 11285 C 1080.66 1.3898 -1.26753 0
M  V30 11286 O 1080.02 1.78885 -0.294959 0
M  V30 11287 C 1080.07 0.522392 -3.56796 0
M  V30 11288 O 1079.17 1.61499 -3.79462 0
M  V30 11289 H 1078.51 0.0188411 -0.663733 0
M  V30 11290 H 1081.04 -0.56861 -1.9654 0
M  V30 11291 H 1081.05 0.784078 -4.00395 0
M  V30 11292 H 1079.73 -0.359807 -4.14341 0
M  V30 11293 H 1078.31 1.3463 -3.47749 0
M  V30 11294 N 1080.49 1.57075 -0.12858 0
M  V30 11295 C 1081.4 2.19369 0.831533 0
M  V30 11296 C 1082.42 1.17258 1.28555 0
M  V30 11297 O 1083.59 1.49766 1.34656 0
M  V30 11298 C 1080.66 2.78846 2.06024 0
M  V30 11299 C 1079.72 3.96024 1.65722 0
M  V30 11300 C 1078.95 4.52655 2.82735 0
M  V30 11301 O 1079.18 4.08175 3.98434 0
M  V30 11302 O 1078.11 5.43198 2.59268 0
M  V30 11303 H 1081.94 3.01887 0.331352 0
M  V30 11304 H 1079.52 1.49081 0.0975226 0
M  V30 11305 H 1081.4 3.16721 2.77967 0
M  V30 11306 H 1080.08 1.99353 2.5503 0
M  V30 11307 H 1078.98 3.62899 0.908574 0
M  V30 11308 H 1080.32 4.76981 1.21449 0
M  V30 11309 N 1081.97 -0.145205 1.5693 0
M  V30 11310 C 1082.9 -1.20881 1.93553 0
M  V30 11311 C 1083.88 -1.41467 0.801612 0
M  V30 11312 O 1085.06 -1.5605 1.05739 0
M  V30 11313 C 1082.19 -2.5674 2.20912 0
M  V30 11314 C 1081.24 -2.52738 3.43549 0
M  V30 11315 S 1082.07 -1.99257 4.97048 0
M  V30 11316 C 1083.23 -3.36842 5.27531 0
M  V30 11317 H 1083.46 -0.896362 2.83465 0
M  V30 11318 H 1080.99 -0.350894 1.5036 0
M  V30 11319 H 1082.95 -3.34923 2.37354 0
M  V30 11320 H 1081.61 -2.85174 1.31661 0
M  V30 11321 H 1080.8 -3.52753 3.59974 0
M  V30 11322 H 1080.41 -1.82665 3.26358 0
M  V30 11323 H 1082.7 -4.32958 5.21108 0
M  V30 11324 H 1083.64 -3.25268 6.28973 0
M  V30 11325 H 1084.05 -3.3406 4.55043 0
M  V30 11326 N 1083.45 -1.52049 -0.414609 0
M  V30 11327 C 1084.69 -1.66084 -1.16379 0
M  V30 11328 C 1085.03 -0.386932 -1.90306 0
M  V30 11329 O 1084.3 0.614441 -1.8454 0
M  V30 11330 C 1084.58 -2.87927 -2.16264 0
M  V30 11331 C 1084.44 -4.25353 -1.46269 0
M  V30 11332 C 1085.76 -3.05289 -3.16996 0
M  V30 11333 H 1082.88 -0.604414 -0.421726 0
M  V30 11334 H 1085.52 -1.8459 -0.450177 0
M  V30 11335 H 1083.67 -2.7228 -2.77121 0
M  V30 11336 H 1085.34 -4.52717 -0.885743 0
M  V30 11337 H 1083.58 -4.27006 -0.76472 0
M  V30 11338 H 1084.25 -5.06644 -2.19126 0
M  V30 11339 H 1086.73 -3.19798 -2.66212 0
M  V30 11340 H 1085.61 -3.92065 -3.84156 0
M  V30 11341 H 1085.87 -2.1836 -3.84411 0
M  V30 11342 N 1084.93 0.6715 -1.42579 0
M  V30 11343 C 1085.86 1.79693 -1.49107 0
M  V30 11344 C 1086.84 1.66516 -0.347338 0
M  V30 11345 O 1088.02 1.85887 -0.562094 0
M  V30 11346 C 1085.15 3.1801 -1.39596 0
M  V30 11347 C 1084.11 3.45926 -2.5203 0
M  V30 11348 C 1083.43 4.83852 -2.27577 0
M  V30 11349 C 1084.73 3.4249 -3.94333 0
M  V30 11350 H 1086.43 1.74486 -2.433 0
M  V30 11351 H 1083.97 0.838042 -1.17102 0
M  V30 11352 H 1085.92 3.96478 -1.42771 0
M  V30 11353 H 1084.65 3.23901 -0.418989 0
M  V30 11354 H 1083.31 2.6982 -2.48178 0
M  V30 11355 H 1082.96 4.86398 -1.28165 0
M  V30 11356 H 1082.66 5.03493 -3.02934 0
M  V30 11357 H 1084.18 5.646 -2.32506 0
M  V30 11358 H 1085.59 4.10922 -3.9977 0
M  V30 11359 H 1083.99 3.73666 -4.69568 0
M  V30 11360 H 1085.06 2.41002 -4.20768 0
M  V30 11361 N 1086.4 1.28806 0.908124 0
M  V30 11362 C 1087.37 1.13228 1.99279 0
M  V30 11363 C 1088.37 0.0702456 1.60646 0
M  V30 11364 O 1089.56 0.316494 1.71301 0
M  V30 11365 C 1086.69 0.729629 3.33 0
M  V30 11366 H 1087.88 2.09566 2.14528 0
M  V30 11367 H 1085.43 1.11872 1.09153 0
M  V30 11368 H 1086.17 -0.234268 3.23453 0
M  V30 11369 H 1085.95 1.49688 3.62403 0
M  V30 11370 H 1087.44 0.643449 4.12613 0
M  V30 11371 N 1087.88 -1.11734 1.11145 0
M  V30 11372 C 1089.16 -1.79795 0.770261 0
M  V30 11373 C 1089.54 -1.97624 -0.742158 0
M  V30 11374 O 1088.89 -1.55847 -1.67105 0
M  V30 11375 C 1089.1 -3.13684 1.52982 0
M  V30 11376 C 1090.44 -3.88771 1.70711 0
M  V30 11377 O 1091.47 -3.23363 1.49381 0
M  V30 11378 O 1090.33 -5.06134 2.06132 0
M  V30 11379 H 1087.42 -0.778617 0.27872 0
M  V30 11380 H 1089.97 -1.18504 1.2147 0
M  V30 11381 H 1088.74 -2.96043 2.55879 0
M  V30 11382 H 1088.36 -3.82687 1.07873 0
M  V30 11383 N 1089.36 -0.901303 -1.29284 0
M  V30 11384 C 1090.64 -0.44747 -1.90413 0
M  V30 11385 C 1091.02 1.07298 -1.81797 0
M  V30 11386 O 1090.36 1.91555 -1.24574 0
M  V30 11387 C 1090.57 -0.963849 -3.35427 0
M  V30 11388 C 1091.92 -1.00851 -4.12449 0
M  V30 11389 O 1092.95 -0.91163 -3.44337 0
M  V30 11390 O 1091.81 -1.15426 -5.34171 0
M  V30 11391 H 1088.9 -0.13976 -0.815105 0
M  V30 11392 H 1091.45 -0.991274 -1.37738 0
M  V30 11393 H 1090.22 -2.00782 -3.3586 0
M  V30 11394 H 1089.84 -0.400149 -3.95581 0
M  V30 11395 N 1090.84 1.42931 -0.663954 0
M  V30 11396 C 1091.79 2.32577 0.03287 0
M  V30 11397 C 1092.78 1.49217 0.801918 0
M  V30 11398 O 1093.99 1.65358 0.711106 0
M  V30 11399 H 1090.36 0.751424 0.0294198 0
M  V30 11400 H 1092.33 2.89059 -0.740763 0
M  V30 11401 C 1091.08 3.33661 0.978025 0
M  V30 11402 H 1090.4 3.97837 0.395681 0
M  V30 11403 H 1091.84 3.98997 1.43448 0
M  V30 11404 C 1090.3 2.65085 2.07922 0
M  V30 11405 O 1090.83 2.4745 3.16435 0
M  V30 11406 N 1089.04 2.24285 1.84783 0
M  V30 11407 H 1088.59 2.38827 0.965368 0
M  V30 11408 H 1088.54 1.78732 2.58655 0
M  V30 11409 N 1092.32 0.406567 1.52266 0
M  V30 11410 C 1093.56 -0.170053 2.01785 0
M  V30 11411 C 1093.89 -1.45361 1.2923 0
M  V30 11412 O 1093.15 -1.91849 0.386342 0
M  V30 11413 C 1093.44 -0.467124 3.54334 0
M  V30 11414 C 1093.11 0.72693 4.45002 0
M  V30 11415 C 1091.77 1.05446 4.69505 0
M  V30 11416 C 1094.12 1.52493 4.98393 0
M  V30 11417 C 1091.45 2.18123 5.44646 0
M  V30 11418 C 1093.8 2.64244 5.74768 0
M  V30 11419 C 1092.47 2.97486 5.97544 0
M  V30 11420 H 1091.74 -0.0622267 0.738383 0
M  V30 11421 H 1094.39 0.54746 1.83508 0
M  V30 11422 H 1092.69 -1.26617 3.70777 0
M  V30 11423 H 1094.39 -0.926194 3.90157 0
M  V30 11424 H 1090.98 0.461666 4.26106 0
M  V30 11425 H 1095.16 1.28512 4.79373 0
M  V30 11426 H 1090.42 2.44228 5.60502 0
M  V30 11427 H 1094.59 3.26468 6.15136 0
M  V30 11428 H 1092.22 3.84913 6.5555 0
M  V30 11429 N 1093.79 -1.57004 0.136909 0
M  V30 11430 C 1095.02 -2.00587 -0.527209 0
M  V30 11431 C 1095.44 -1.01628 -1.58283 0
M  V30 11432 O 1094.8 0.00946934 -1.81298 0
M  V30 11433 C 1094.85 -3.42967 -1.11384 0
M  V30 11434 O 1093.95 -3.46973 -2.22898 0
M  V30 11435 H 1093.3 -0.651155 -0.129976 0
M  V30 11436 H 1095.83 -2.03296 0.230667 0
M  V30 11437 H 1095.84 -3.81555 -1.44499 0
M  V30 11438 H 1094.51 -4.14502 -0.340736 0
M  V30 11439 H 1093.09 -3.20219 -1.91087 0
M  V30 11440 N 1095.27 0.136881 -1.57004 0
M  V30 11441 C 1096.5 0.862436 -1.88068 0
M  V30 11442 C 1096.92 1.74274 -0.726227 0
M  V30 11443 O 1096.27 1.79956 0.30366 0
M  V30 11444 C 1096.32 1.71076 -3.18458 0
M  V30 11445 O 1096.04 0.865918 -4.29457 0
M  V30 11446 C 1097.55 2.54302 -3.63105 0
M  V30 11447 H 1094.77 0.248865 -0.623143 0
M  V30 11448 H 1097.31 0.126633 -2.04108 0
M  V30 11449 H 1095.46 2.39951 -3.04142 0
M  V30 11450 H 1095.88 1.4493 -5.04079 0
M  V30 11451 H 1097.35 3.09384 -4.57149 0
M  V30 11452 H 1097.83 3.3082 -2.88886 0
M  V30 11453 H 1098.44 1.907 -3.80149 0
M  V30 11454 N 1096.75 1.52266 0.40654 0
M  V30 11455 C 1098 1.6568 1.15035 0
M  V30 11456 C 1098.31 0.394135 1.91588 0
M  V30 11457 O 1099.52 0.408113 2.68415 0
M  V30 11458 C 1097.97 2.92725 2.0938 0
M  V30 11459 C 1097.58 4.26108 1.38332 0
M  V30 11460 C 1099.33 3.15502 2.84004 0
M  V30 11461 C 1097.23 5.44275 2.3134 0
M  V30 11462 H 1096.16 0.61719 0.43312 0
M  V30 11463 H 1098.81 1.78755 0.414598 0
M  V30 11464 H 1097.2 2.73355 2.86519 0
M  V30 11465 H 1098.37 4.55971 0.665396 0
M  V30 11466 H 1096.69 4.09454 0.757384 0
M  V30 11467 H 1099.28 4.00964 3.5374 0
M  V30 11468 H 1099.63 2.29842 3.471 0
M  V30 11469 H 1100.16 3.35357 2.13964 0
M  V30 11470 H 1096.9 6.3229 1.72887 0
M  V30 11471 H 1096.42 5.18749 3.01098 0
M  V30 11472 H 1098.1 5.77457 2.91809 0
M  V30 11473 N 1098.23 -0.663929 1.42933 0
M  V30 11474 C 1099.47 -1.42603 1.44195 0
M  V30 11475 C 1099.81 -1.94101 0.0620284 0
M  V30 11476 O 1099.08 -1.71609 -0.91546 0
M  V30 11477 C 1099.37 -2.61522 2.47544 0
M  V30 11478 C 1099.22 -2.15587 3.94769 0
M  V30 11479 C 1100.54 -3.6374 2.47753 0
M  V30 11480 H 1097.66 -0.517189 0.525056 0
M  V30 11481 H 1100.3 -0.75361 1.74415 0
M  V30 11482 H 1098.45 -3.1889 2.21904 0
M  V30 11483 H 1100.12 -1.63303 4.31428 0
M  V30 11484 H 1098.36 -1.47057 4.08114 0
M  V30 11485 H 1099.03 -3.01053 4.62678 0
M  V30 11486 H 1101.51 -3.16111 2.70579 0
M  V30 11487 H 1100.39 -4.44512 3.22025 0
M  V30 11488 H 1100.65 -4.15607 1.50742 0
M  V30 11489 N 1099.71 -1.29285 -0.901281 0
M  V30 11490 C 1100.67 -1.14283 -1.98676 0
M  V30 11491 C 1101.67 -0.0787641 -1.60607 0
M  V30 11492 O 1102.86 -0.325574 -1.71131 0
M  V30 11493 C 1099.99 -0.747279 -3.32609 0
M  V30 11494 H 1101.18 -2.10701 -2.13413 0
M  V30 11495 H 1098.74 -1.12449 -1.08558 0
M  V30 11496 H 1099.47 0.217111 -3.23572 0
M  V30 11497 H 1099.26 -1.51608 -3.61604 0
M  V30 11498 H 1100.75 -0.665322 -4.12266 0
M  V30 11499 N 1101.18 1.11143 -1.11736 0
M  V30 11500 C 1102.15 2.15456 -0.78174 0
M  V30 11501 C 1103.15 1.59547 0.200383 0
M  V30 11502 O 1104.34 1.74183 -0.0244893 0
M  V30 11503 C 1101.47 3.40523 -0.160364 0
M  V30 11504 H 1102.66 2.46658 -1.70586 0
M  V30 11505 H 1100.22 1.26381 -0.919644 0
M  V30 11506 H 1100.95 3.14932 0.773835 0
M  V30 11507 H 1100.74 3.82386 -0.867378 0
M  V30 11508 H 1102.23 4.17559 0.0582175 0
M  V30 11509 N 1102.66 0.908147 1.28804 0
M  V30 11510 C 1103.91 0.539201 1.95501 0
M  V30 11511 C 1104.24 -0.913759 1.7136 0
M  V30 11512 O 1103.52 -1.64904 1.03136 0
M  V30 11513 C 1103.8 0.842372 3.50109 0
M  V30 11514 C 1103.65 2.34765 3.83673 0
M  V30 11515 C 1104.97 0.334658 4.38826 0
M  V30 11516 H 1102.09 0.197373 0.71008 0
M  V30 11517 H 1104.73 1.13637 1.52272 0
M  V30 11518 H 1102.88 0.334143 3.8706 0
M  V30 11519 H 1104.55 2.92607 3.56621 0
M  V30 11520 H 1102.8 2.80494 3.30916 0
M  V30 11521 H 1103.47 2.51034 4.91616 0
M  V30 11522 H 1105.94 0.769961 4.08914 0
M  V30 11523 H 1104.82 0.575914 5.4587 0
M  V30 11524 H 1105.08 -0.764878 4.35433 0
M  V30 11525 N 1104.14 -1.42577 0.671525 0
M  V30 11526 C 1105.05 -2.34598 -0.00898225 0
M  V30 11527 C 1106.07 -1.54909 -0.792407 0
M  V30 11528 O 1107.24 -1.87491 -0.735477 0
M  V30 11529 C 1104.31 -3.33405 -0.950888 0
M  V30 11530 C 1103.37 -4.28993 -0.16236 0
M  V30 11531 C 1102.6 -5.2308 -1.0594 0
M  V30 11532 O 1102.82 -5.22022 -2.2989 0
M  V30 11533 O 1101.76 -5.99632 -0.521966 0
M  V30 11534 H 1105.58 -2.94321 0.748927 0
M  V30 11535 H 1103.17 -1.43025 0.43175 0
M  V30 11536 H 1105.05 -3.94115 -1.49169 0
M  V30 11537 H 1103.73 -2.7616 -1.68871 0
M  V30 11538 H 1102.63 -3.71707 0.42247 0
M  V30 11539 H 1103.97 -4.8927 0.536274 0
M  V30 11540 N 1105.62 -0.414636 -1.52048 0
M  V30 11541 C 1106.53 0.414861 -2.30903 0
M  V30 11542 C 1107.54 1.04855 -1.38858 0
M  V30 11543 O 1108.72 1.04886 -1.71933 0
M  V30 11544 C 1105.79 1.51356 -3.11917 0
M  V30 11545 C 1104.85 0.902359 -4.19709 0
M  V30 11546 C 1104.08 1.9487 -4.96852 0
M  V30 11547 O 1104.3 3.16766 -4.74358 0
M  V30 11548 O 1103.24 1.55186 -5.8155 0
M  V30 11549 H 1107.06 -0.228251 -3.02841 0
M  V30 11550 H 1104.65 -0.177704 -1.48339 0
M  V30 11551 H 1106.53 2.15127 -3.62351 0
M  V30 11552 H 1105.2 2.14117 -2.42767 0
M  V30 11553 H 1104.11 0.22721 -3.73409 0
M  V30 11554 H 1105.44 0.318587 -4.91168 0
M  V30 11555 N 1107.1 1.56929 -0.145233 0
M  V30 11556 C 1108.34 1.95681 0.50532 0
M  V30 11557 C 1108.67 1.03098 1.65516 0
M  V30 11558 O 1107.94 0.0921961 1.95683 0
M  V30 11559 H 1106.52 0.72252 0.189668 0
M  V30 11560 H 1109.18 1.93651 -0.220318 0
M  V30 11561 H 1108.27 2.99359 0.882631 0
M  V30 11562 N 1108.58 -0.128553 1.57075 0
M  V30 11563 C 1109.99 -0.481794 1.52154 0
M  V30 11564 C 1110.19 -1.82381 0.856694 0
M  V30 11565 O 1109.25 -2.48725 0.434989 0
M  V30 11566 C 1110.56 -0.475091 2.96923 0
M  V30 11567 C 1112.11 -0.559315 3.07962 0
M  V30 11568 C 1112.58 -0.583095 4.54273 0
M  V30 11569 N 1114.07 -0.644803 4.5869 0
M  V30 11570 C 1114.81 -0.684493 5.693 0
M  V30 11571 N 1114.31 -0.682407 6.89431 0
M  V30 11572 N 1116.1 -0.726777 5.57382 0
M  V30 11573 H 1108.25 0.750894 1.98684 0
M  V30 11574 H 1110.51 0.27593 0.906955 0
M  V30 11575 H 1110.22 0.443157 3.48897 0
M  V30 11576 H 1110.09 -1.30637 3.53856 0
M  V30 11577 H 1112.48 -1.46798 2.55997 0
M  V30 11578 H 1112.56 0.299468 2.54041 0
M  V30 11579 H 1112.2 0.32149 5.06881 0
M  V30 11580 H 1112.13 -1.45863 5.05996 0
M  V30 11581 H 1114.63 -0.652967 3.72216 0
M  V30 11582 H 1114.94 -0.715051 7.69485 0
M  V30 11583 H 1113.28 -0.649984 6.91954 0
M  V30 11584 H 1116.47 -0.725704 4.6244 0
M  V30 11585 H 1116.65 -0.754242 6.43596 0
M  V30 11586 N 1110.05 -1.5248 -0.398459 0
M  V30 11587 C 1111.02 -1.75949 -1.46883 0
M  V30 11588 C 1112.02 -0.629431 -1.47969 0
M  V30 11589 O 1113.21 -0.897407 -1.49306 0
M  V30 11590 C 1110.34 -1.85162 -2.8623 0
M  V30 11591 H 1111.53 -2.71513 -1.2736 0
M  V30 11592 H 1109.08 -1.43058 -0.629619 0
M  V30 11593 H 1109.82 -0.915505 -3.11109 0
M  V30 11594 H 1109.6 -2.67326 -2.86844 0
M  V30 11595 H 1111.09 -2.05025 -3.63805 0
M  V30 11596 N 1111.53 0.65634 -1.43283 0
M  V30 11597 C 1112.78 1.41212 -1.44021 0
M  V30 11598 C 1113.09 1.95485 -0.0669783 0
M  V30 11599 O 1114.3 2.71457 0.0481909 0
M  V30 11600 C 1112.76 2.55541 -2.5343 0
M  V30 11601 C 1112.36 2.07889 -3.96845 0
M  V30 11602 C 1114.11 3.3293 -2.63359 0
M  V30 11603 C 1112.01 3.19411 -4.97726 0
M  V30 11604 H 1110.94 0.530566 -0.535739 0
M  V30 11605 H 1113.6 0.708743 -1.6926 0
M  V30 11606 H 1111.98 3.28335 -2.21387 0
M  V30 11607 H 1113.15 1.42127 -4.38334 0
M  V30 11608 H 1111.47 1.43388 -3.90933 0
M  V30 11609 H 1114.06 4.1602 -3.35903 0
M  V30 11610 H 1114.41 3.80753 -1.68324 0
M  V30 11611 H 1114.94 2.67216 -2.94687 0
M  V30 11612 H 1111.68 2.7656 -5.94302 0
M  V30 11613 H 1111.2 3.83895 -4.60853 0
M  V30 11614 H 1112.88 3.84591 -5.20287 0
M  V30 11615 N 1113.01 1.29761 0.894412 0
M  V30 11616 C 1114.24 1.20765 1.67629 0
M  V30 11617 C 1114.65 -0.233434 1.87754 0
M  V30 11618 O 1113.99 -1.16747 1.4183 0
M  V30 11619 C 1114.05 1.85542 3.07919 0
M  V30 11620 C 1113.72 3.34852 3.11004 0
M  V30 11621 C 1114.71 4.30994 2.90758 0
M  V30 11622 C 1112.4 3.76141 3.32901 0
M  V30 11623 C 1114.39 5.664 2.92352 0
M  V30 11624 C 1112.08 5.11667 3.34126 0
M  V30 11625 C 1113.08 6.06607 3.13874 0
M  V30 11626 O 1112.77 7.39659 3.14897 0
M  V30 11627 H 1112.5 0.419418 0.530155 0
M  V30 11628 H 1115.05 1.71754 1.12648 0
M  V30 11629 H 1113.28 1.29071 3.64524 0
M  V30 11630 H 1114.97 1.70795 3.68217 0
M  V30 11631 H 1115.74 4.00427 2.73648 0
M  V30 11632 H 1111.62 3.02694 3.47703 0
M  V30 11633 H 1115.16 6.40479 2.76464 0
M  V30 11634 H 1111.06 5.41877 3.50769 0
M  V30 11635 H 1111.82 7.4853 3.31127 0
M  V30 11636 N 1114.49 -1.10549 1.12324 0
M  V30 11637 C 1115.44 -2.18944 0.785248 0
M  V30 11638 C 1116.43 -1.67867 -0.227389 0
M  V30 11639 O 1117.64 -1.79796 -0.0857162 0
M  V30 11640 H 1114.01 -0.713976 0.236098 0
M  V30 11641 H 1115.98 -2.44692 1.70788 0
M  V30 11642 C 1114.73 -3.46765 0.25485 0
M  V30 11643 H 1114.05 -3.86428 1.02534 0
M  V30 11644 H 1115.49 -4.23962 0.0566526 0
M  V30 11645 C 1113.95 -3.21185 -1.01695 0
M  V30 11646 O 1114.48 -3.42745 -2.09497 0
M  V30 11647 N 1112.69 -2.7486 -0.943423 0
M  V30 11648 H 1112.24 -2.57515 -0.0660366 0
M  V30 11649 H 1112.19 -2.58122 -1.795 0
M  V30 11650 N 1115.97 -0.914965 -1.28321 0
M  V30 11651 C 1116.91 -0.394477 -2.29231 0
M  V30 11652 C 1117.91 0.514481 -1.61398 0
M  V30 11653 O 1119.11 0.395591 -1.75599 0
M  V30 11654 H 1115.49 -0.108969 -0.744063 0
M  V30 11655 H 1117.46 -1.25862 -2.70557 0
M  V30 11656 C 1116.21 0.349134 -3.45943 0
M  V30 11657 H 1115.53 -0.341087 -3.98342 0
M  V30 11658 H 1116.97 0.677944 -4.18545 0
M  V30 11659 C 1115.43 1.55747 -2.98738 0
M  V30 11660 O 1115.96 2.65654 -3.01315 0
M  V30 11661 N 1114.17 1.40488 -2.54384 0
M  V30 11662 H 1113.71 0.510716 -2.52487 0
M  V30 11663 H 1113.67 2.21464 -2.23161 0
M  V30 11664 N 1117.44 1.42219 -0.679077 0
M  V30 11665 C 1118.38 2.28152 0.0468359 0
M  V30 11666 C 1119.35 1.41307 0.804433 0
M  V30 11667 O 1120.54 1.70744 0.798673 0
M  V30 11668 C 1117.67 3.21236 1.07355 0
M  V30 11669 C 1116.71 4.24515 0.411042 0
M  V30 11670 S 1117.54 5.28958 -0.834506 0
M  V30 11671 C 1118.7 6.25608 0.191029 0
M  V30 11672 H 1118.93 2.89371 -0.682045 0
M  V30 11673 H 1116.47 1.47112 -0.468767 0
M  V30 11674 H 1118.42 3.75402 1.66082 0
M  V30 11675 H 1117.09 2.59145 1.7749 0
M  V30 11676 H 1116.28 4.89849 1.1859 0
M  V30 11677 H 1115.88 3.73859 -0.102742 0
M  V30 11678 H 1118.17 6.69323 1.04944 0
M  V30 11679 H 1119.12 7.06806 -0.427959 0
M  V30 11680 H 1119.52 5.61926 0.538422 0
M  V30 11681 N 1118.92 0.422693 1.51826 0
M  V30 11682 C 1119.87 -0.396088 2.27376 0
M  V30 11683 C 1120.84 -1.02946 1.30351 0
M  V30 11684 O 1122.02 -1.05116 1.59233 0
M  V30 11685 C 1119.16 -1.49942 3.10824 0
M  V30 11686 C 1118.28 -0.885623 4.22825 0
M  V30 11687 C 1117.41 -1.96278 4.93608 0
M  V30 11688 C 1116.45 -1.32664 5.97551 0
M  V30 11689 N 1115.59 -2.34452 6.61798 0
M  V30 11690 H 1120.43 0.254571 2.96911 0
M  V30 11691 H 1117.96 0.137383 1.46457 0
M  V30 11692 H 1119.92 -2.15023 3.57521 0
M  V30 11693 H 1118.55 -2.11991 2.43433 0
M  V30 11694 H 1117.6 -0.123491 3.80199 0
M  V30 11695 H 1118.92 -0.381057 4.97342 0
M  V30 11696 H 1118.07 -2.69055 5.43778 0
M  V30 11697 H 1116.81 -2.50103 4.18688 0
M  V30 11698 H 1115.81 -0.584262 5.46687 0
M  V30 11699 H 1117.04 -0.7959 6.7442 0
M  V30 11700 H 1114.99 -2.87385 5.897 0
M  V30 11701 H 1114.9 -1.88845 7.32034 0
M  V30 11702 H 1116.17 -3.06757 7.16603 0
M  V30 11703 N 1120.4 -1.5685 0.153553 0
M  V30 11704 C 1121.33 -2.14231 -0.814729 0
M  V30 11705 C 1122.34 -1.09339 -1.20619 0
M  V30 11706 O 1123.53 -1.36592 -1.14913 0
M  V30 11707 C 1120.63 -2.6555 -2.10562 0
M  V30 11708 C 1119.81 -3.94912 -1.8805 0
M  V30 11709 C 1118.87 -4.31476 -3.0119 0
M  V30 11710 O 1117.89 -4.9968 -2.72596 0
M  V30 11711 N 1119.09 -3.91588 -4.28531 0
M  V30 11712 H 1121.86 -2.9794 -0.324277 0
M  V30 11713 H 1119.42 -1.61873 -0.0298087 0
M  V30 11714 H 1121.41 -2.87019 -2.85311 0
M  V30 11715 H 1119.98 -1.86529 -2.5085 0
M  V30 11716 H 1119.2 -3.82002 -0.973024 0
M  V30 11717 H 1120.49 -4.79433 -1.70356 0
M  V30 11718 H 1119.89 -3.36645 -4.54628 0
M  V30 11719 H 1118.44 -4.18095 -5.00039 0
M  V30 11720 N 1121.88 0.120221 -1.57141 0
M  V30 11721 C 1123.12 0.828222 -1.84788 0
M  V30 11722 C 1123.45 1.79936 -0.738459 0
M  V30 11723 O 1122.71 1.93824 0.270295 0
M  V30 11724 C 1123.01 1.61338 -3.18912 0
M  V30 11725 C 1122.67 0.786637 -4.43985 0
M  V30 11726 C 1121.33 0.558645 -4.77946 0
M  V30 11727 C 1123.69 0.210281 -5.20776 0
M  V30 11728 C 1121.01 -0.255975 -5.86141 0
M  V30 11729 C 1123.37 -0.591523 -6.29828 0
M  V30 11730 C 1122.03 -0.829843 -6.62322 0
M  V30 11731 H 1121.3 0.303068 -0.676188 0
M  V30 11732 H 1123.95 0.0906538 -1.91285 0
M  V30 11733 H 1122.25 2.42182 -3.07986 0
M  V30 11734 H 1123.95 2.16513 -3.37525 0
M  V30 11735 H 1120.54 0.974426 -4.17376 0
M  V30 11736 H 1124.72 0.373641 -4.94892 0
M  V30 11737 H 1119.98 -0.449849 -6.09743 0
M  V30 11738 H 1124.15 -1.04512 -6.88513 0
M  V30 11739 H 1121.78 -1.4629 -7.45992 0
M  V30 11740 N 1123.36 1.52689 0.390367 0
M  V30 11741 C 1124.61 1.6689 1.13272 0
M  V30 11742 C 1124.92 0.414433 1.91159 0
M  V30 11743 O 1126.12 0.436559 2.67967 0
M  V30 11744 C 1124.58 2.94929 2.06264 0
M  V30 11745 C 1124.19 4.27551 1.33805 0
M  V30 11746 C 1125.93 3.18497 2.80642 0
M  V30 11747 C 1123.84 5.46698 2.25554 0
M  V30 11748 H 1122.77 0.621749 0.426549 0
M  V30 11749 H 1125.42 1.79185 0.395615 0
M  V30 11750 H 1123.8 2.76378 2.83604 0
M  V30 11751 H 1124.98 4.56651 0.616997 0
M  V30 11752 H 1123.29 4.10234 0.713913 0
M  V30 11753 H 1125.89 4.04693 3.49467 0
M  V30 11754 H 1126.23 2.33511 3.44642 0
M  V30 11755 H 1126.76 3.37607 2.10395 0
M  V30 11756 H 1123.5 6.34088 1.66171 0
M  V30 11757 H 1123.02 5.21913 2.95579 0
M  V30 11758 H 1124.7 5.80519 2.85668 0
M  V30 11759 N 1124.83 -0.648732 1.43629 0
M  V30 11760 C 1126.25 -0.964917 1.27128 0
M  V30 11761 C 1126.45 -2.00561 0.194251 0
M  V30 11762 O 1125.51 -2.48884 -0.42581 0
M  V30 11763 C 1126.82 -1.44491 2.6371 0
M  V30 11764 C 1128.37 -1.56133 2.71278 0
M  V30 11765 C 1128.84 -2.07521 4.08288 0
M  V30 11766 N 1130.33 -2.14817 4.10375 0
M  V30 11767 C 1131.07 -2.55712 5.13224 0
M  V30 11768 N 1130.56 -2.9587 6.26444 0
M  V30 11769 N 1132.36 -2.55691 5.00578 0
M  V30 11770 H 1124.51 0.0398357 2.12363 0
M  V30 11771 H 1126.77 -0.0447705 0.946942 0
M  V30 11772 H 1126.48 -0.754616 3.43509 0
M  V30 11773 H 1126.35 -2.41914 2.89409 0
M  V30 11774 H 1128.74 -2.24263 1.91808 0
M  V30 11775 H 1128.82 -0.571314 2.49338 0
M  V30 11776 H 1128.46 -1.39992 4.88226 0
M  V30 11777 H 1128.39 -3.07362 4.27594 0
M  V30 11778 H 1130.88 -1.86538 3.28652 0
M  V30 11779 H 1131.2 -3.25837 7.0075 0
M  V30 11780 H 1129.54 -2.93664 6.2991 0
M  V30 11781 H 1132.73 -2.23697 4.1119 0
M  V30 11782 H 1132.91 -2.87239 5.80859 0
M  V30 11783 N 1126.31 -1.30234 -0.887518 0
M  V30 11784 C 1127.54 -1.21652 -1.66986 0
M  V30 11785 C 1127.95 0.223473 -1.87876 0
M  V30 11786 O 1127.29 1.15993 -1.42448 0
M  V30 11787 C 1127.36 -1.87173 -3.06931 0
M  V30 11788 C 1127.02 -3.36496 -3.09224 0
M  V30 11789 C 1128.02 -4.3253 -2.88469 0
M  V30 11790 C 1125.7 -3.77901 -3.30902 0
M  V30 11791 C 1127.7 -5.67942 -2.89344 0
M  V30 11792 C 1125.38 -5.13432 -3.31407 0
M  V30 11793 C 1126.38 -6.08263 -3.10653 0
M  V30 11794 O 1126.07 -7.41318 -3.1097 0
M  V30 11795 H 1125.8 -0.422224 -0.527923 0
M  V30 11796 H 1128.35 -1.72349 -1.11736 0
M  V30 11797 H 1126.58 -1.31002 -3.63834 0
M  V30 11798 H 1128.27 -1.72745 -3.67306 0
M  V30 11799 H 1129.04 -4.01873 -2.7152 0
M  V30 11800 H 1124.92 -3.04534 -3.46093 0
M  V30 11801 H 1128.46 -6.41936 -2.73063 0
M  V30 11802 H 1124.36 -5.4373 -3.47891 0
M  V30 11803 H 1125.13 -7.50275 -3.27153 0
M  V30 11804 N 1127.79 1.09952 -1.12909 0
M  V30 11805 C 1128.72 2.18477 -0.824014 0
M  V30 11806 C 1129.7 1.68744 0.214324 0
M  V30 11807 O 1130.89 1.94057 0.0744281 0
M  V30 11808 C 1128.02 3.46143 -0.283308 0
M  V30 11809 C 1126.97 4.09178 -1.25528 0
M  V30 11810 C 1126.3 5.31604 -0.574574 0
M  V30 11811 C 1127.6 4.52308 -2.6118 0
M  V30 11812 H 1129.29 2.44254 -1.73148 0
M  V30 11813 H 1126.84 1.17394 -0.833952 0
M  V30 11814 H 1128.79 4.21361 -0.057583 0
M  V30 11815 H 1127.51 3.19872 0.659525 0
M  V30 11816 H 1126.17 3.35973 -1.4669 0
M  V30 11817 H 1125.82 5.01611 0.37356 0
M  V30 11818 H 1125.52 5.74732 -1.22299 0
M  V30 11819 H 1127.04 6.0955 -0.358004 0
M  V30 11820 H 1128.46 5.18776 -2.44017 0
M  V30 11821 H 1126.86 5.06302 -3.22147 0
M  V30 11822 H 1127.93 3.64977 -3.19249 0
M  V30 11823 N 1129.27 0.921757 1.27833 0
M  V30 11824 C 1130.52 0.55493 1.93916 0
M  V30 11825 C 1130.83 -0.907191 1.7329 0
M  V30 11826 O 1132.04 -1.38253 2.33663 0
M  V30 11827 C 1130.49 0.941644 3.47363 0
M  V30 11828 C 1130.1 2.42404 3.76755 0
M  V30 11829 C 1131.84 0.645785 4.19559 0
M  V30 11830 C 1129.75 2.75046 5.23549 0
M  V30 11831 H 1128.68 0.203818 0.72593 0
M  V30 11832 H 1131.33 1.12176 1.4522 0
M  V30 11833 H 1129.71 0.303519 3.94835 0
M  V30 11834 H 1130.89 3.10957 3.40062 0
M  V30 11835 H 1129.2 2.69118 3.17749 0
M  V30 11836 H 1131.8 0.866237 5.27637 0
M  V30 11837 H 1132.14 -0.41676 4.14209 0
M  V30 11838 H 1132.68 1.24274 3.7789 0
M  V30 11839 H 1129.42 3.80186 5.33984 0
M  V30 11840 H 1128.94 2.11138 5.6141 0
M  V30 11841 H 1130.61 2.62474 5.91368 0
M  V30 11842 N 1130.75 -1.41857 0.686609 0
M  V30 11843 C 1131.97 -2.06219 0.221037 0
M  V30 11844 C 1132.4 -1.51298 -1.11762 0
M  V30 11845 O 1131.75 -0.636253 -1.69769 0
M  V30 11846 C 1131.8 -3.60153 0.179425 0
M  V30 11847 O 1130.91 -4.03577 -0.848481 0
M  V30 11848 H 1130.25 -0.654787 0.110228 0
M  V30 11849 H 1132.78 -1.81783 0.938948 0
M  V30 11850 H 1132.79 -4.07999 0.00725332 0
M  V30 11851 H 1131.46 -3.99498 1.15647 0
M  V30 11852 H 1130.04 -3.67255 -0.646393 0
M  V30 11853 N 1132.22 -0.430739 -1.51599 0
M  V30 11854 C 1133.45 0.139197 -2.06932 0
M  V30 11855 C 1133.87 1.3626 -1.29672 0
M  V30 11856 O 1133.23 1.78219 -0.332836 0
M  V30 11857 C 1133.28 0.446593 -3.57824 0
M  V30 11858 O 1132.38 1.53414 -3.82803 0
M  V30 11859 H 1131.73 0.00475812 -0.663983 0
M  V30 11860 H 1134.26 -0.610171 -1.9529 0
M  V30 11861 H 1134.27 0.698972 -4.01968 0
M  V30 11862 H 1132.94 -0.447613 -4.13484 0
M  V30 11863 H 1131.52 1.27224 -3.50526 0
M  V30 11864 N 1133.7 1.56767 -0.161869 0
M  V30 11865 C 1134.65 2.18807 0.789074 0
M  V30 11866 C 1135.64 1.14934 1.24445 0
M  V30 11867 O 1136.85 1.33154 1.2112 0
M  V30 11868 H 1133.23 0.700808 0.272713 0
M  V30 11869 H 1135.2 2.97419 0.241766 0
M  V30 11870 C 1133.95 2.83568 2.01207 0
M  V30 11871 H 1133.27 3.63219 1.67068 0
M  V30 11872 H 1134.71 3.3046 2.65654 0
M  V30 11873 C 1133.17 1.82846 2.82964 0
M  V30 11874 O 1133.7 1.30809 3.79805 0
M  V30 11875 N 1131.9 1.51815 2.47791 0
M  V30 11876 H 1131.45 1.94325 1.69103 0
M  V30 11877 H 1131.41 0.846742 3.02783 0
M  V30 11878 N 1135.18 -0.111886 1.57202 0
M  V30 11879 C 1136.43 -0.819623 1.85499 0
M  V30 11880 C 1136.76 -1.7919 0.748629 0
M  V30 11881 O 1136.03 -1.92952 -0.244918 0
M  V30 11882 C 1136.32 -1.56324 3.24399 0
M  V30 11883 C 1136.17 -0.610081 4.45643 0
M  V30 11884 C 1137.49 -2.51777 3.60966 0
M  V30 11885 H 1134.61 -0.296512 0.674722 0
M  V30 11886 H 1137.25 -0.0836741 1.89816 0
M  V30 11887 H 1135.4 -2.1906 3.2085 0
M  V30 11888 H 1137.07 0.00898038 4.61299 0
M  V30 11889 H 1135.32 0.0778488 4.3373 0
M  V30 11890 H 1135.99 -1.16718 5.39519 0
M  V30 11891 H 1138.46 -1.99143 3.65351 0
M  V30 11892 H 1137.34 -3.00835 4.59118 0
M  V30 11893 H 1137.6 -3.34769 2.8876 0
M  V30 11894 N 1136.66 -1.52894 -0.382264 0
M  V30 11895 C 1137.91 -1.67933 -1.1244 0
M  V30 11896 C 1138.23 -0.425166 -1.90309 0
M  V30 11897 O 1137.5 0.560557 -1.87709 0
M  V30 11898 H 1136.08 -0.619047 -0.418079 0
M  V30 11899 H 1138.74 -1.90031 -0.432928 0
M  V30 11900 H 1137.84 -2.53285 -1.82355 0
M  V30 11901 N 1138.14 0.641106 -1.43971 0
M  V30 11902 C 1139.05 1.78239 -1.52538 0
M  V30 11903 C 1140.06 1.6906 -0.411668 0
M  V30 11904 O 1141.24 1.90014 -0.66757 0
M  V30 11905 C 1138.3 3.14579 -1.45743 0
M  V30 11906 C 1137.37 3.35464 -2.67885 0
M  V30 11907 C 1136.6 4.65299 -2.61404 0
M  V30 11908 O 1136.82 5.45451 -1.66851 0
M  V30 11909 O 1135.76 4.8817 -3.521 0
M  V30 11910 H 1139.58 1.73965 -2.48937 0
M  V30 11911 H 1137.17 0.801098 -1.26106 0
M  V30 11912 H 1139.05 3.95873 -1.4444 0
M  V30 11913 H 1137.72 3.19417 -0.524837 0
M  V30 11914 H 1136.63 2.53888 -2.74758 0
M  V30 11915 H 1137.96 3.35481 -3.60157 0
M  V30 11916 N 1139.62 1.30703 0.880598 0
M  V30 11917 C 1140.86 1.19955 1.63519 0
M  V30 11918 C 1141.19 -0.244214 1.92658 0
M  V30 11919 O 1140.47 -1.17412 1.55063 0
M  V30 11920 C 1140.75 2.03302 2.97221 0
M  V30 11921 C 1140.61 3.55921 2.75028 0
M  V30 11922 C 1141.92 1.87421 3.98198 0
M  V30 11923 H 1139.04 0.43712 0.593376 0
M  V30 11924 H 1141.69 1.60382 1.01871 0
M  V30 11925 H 1139.84 1.68953 3.49839 0
M  V30 11926 H 1141.51 4.00352 2.29164 0
M  V30 11927 H 1139.75 3.79885 2.09452 0
M  V30 11928 H 1140.42 4.09533 3.70117 0
M  V30 11929 H 1142.9 2.17459 3.54755 0
M  V30 11930 H 1141.77 2.48057 4.89652 0
M  V30 11931 H 1142.03 0.834563 4.34151 0
M  V30 11932 N 1141.09 -1.09351 1.1349 0
M  V30 11933 C 1142.34 -1.81812 0.898452 0
M  V30 11934 C 1142.67 -1.85525 -0.573959 0
M  V30 11935 O 1141.95 -1.32403 -1.42477 0
M  V30 11936 C 1142.23 -3.27921 1.48794 0
M  V30 11937 C 1142.08 -3.32476 3.02952 0
M  V30 11938 C 1143.4 -4.24625 1.15678 0
M  V30 11939 H 1140.52 -0.660074 0.327829 0
M  V30 11940 H 1143.16 -1.28091 1.40331 0
M  V30 11941 H 1141.31 -3.738 1.05858 0
M  V30 11942 H 1142.99 -2.94994 3.54649 0
M  V30 11943 H 1141.23 -2.72037 3.37903 0
M  V30 11944 H 1141.9 -4.35409 3.39298 0
M  V30 11945 H 1144.38 -3.87036 1.52781 0
M  V30 11946 H 1143.25 -5.25194 1.59571 0
M  V30 11947 H 1143.51 -4.42044 0.0705933 0
M  V30 11948 N 1142.57 -0.928524 -1.27343 0
M  V30 11949 C 1143.81 -0.576696 -1.96096 0
M  V30 11950 C 1144.18 0.866074 -1.71357 0
M  V30 11951 O 1145.38 1.32621 -2.33805 0
M  V30 11952 C 1143.65 -0.894692 -3.4602 0
M  V30 11953 S 1145.21 -0.651503 -4.33936 0
M  V30 11954 H 1142.02 -0.212847 -0.678393 0
M  V30 11955 H 1144.63 -1.19714 -1.5456 0
M  V30 11956 H 1143.33 -1.94239 -3.61524 0
M  V30 11957 H 1142.86 -0.263478 -3.92517 0
M  V30 11958 H 1144.88 0.490314 -4.93772 0
M  V30 11959 N 1144.05 1.41491 -0.694123 0
M  V30 11960 C 1145.3 2.00479 -0.221585 0
M  V30 11961 C 1145.61 1.55605 1.18518 0
M  V30 11962 O 1146.82 2.07143 1.7551 0
M  V30 11963 C 1145.27 3.5824 -0.345264 0
M  V30 11964 C 1144.88 4.12096 -1.7573 0
M  V30 11965 C 1146.63 4.24446 0.0675731 0
M  V30 11966 C 1144.53 5.62286 -1.83271 0
M  V30 11967 H 1143.46 0.749841 -0.0790854 0
M  V30 11968 H 1146.11 1.61987 -0.86211 0
M  V30 11969 H 1144.5 3.94328 0.363487 0
M  V30 11970 H 1145.67 3.8743 -2.49469 0
M  V30 11971 H 1143.98 3.58411 -2.11969 0
M  V30 11972 H 1146.58 5.34691 0.0316485 0
M  V30 11973 H 1146.92 4.01338 1.10606 0
M  V30 11974 H 1147.46 3.93388 -0.59085 0
M  V30 11975 H 1144.2 5.9022 -2.85168 0
M  V30 11976 H 1143.72 5.88883 -1.13914 0
M  V30 11977 H 1145.4 6.27033 -1.59494 0
M  V30 11978 N 1145.53 0.438773 1.51369 0
M  V30 11979 C 1146.77 -0.127213 2.021 0
M  V30 11980 C 1147.1 -1.42587 1.32284 0
M  V30 11981 O 1146.36 -1.90986 0.426949 0
M  V30 11982 C 1146.66 -0.39186 3.55245 0
M  V30 11983 C 1146.32 0.821158 4.4336 0
M  V30 11984 C 1144.98 1.15381 4.67162 0
M  V30 11985 C 1147.34 1.6303 4.95046 0
M  V30 11986 C 1144.66 2.29626 5.39897 0
M  V30 11987 C 1147.02 2.76376 5.69033 0
M  V30 11988 C 1145.68 3.10094 5.91099 0
M  V30 11989 H 1144.95 -0.0465505 0.739536 0
M  V30 11990 H 1147.6 0.586261 1.82305 0
M  V30 11991 H 1145.9 -1.18724 3.73379 0
M  V30 11992 H 1147.6 -0.843228 3.92034 0
M  V30 11993 H 1144.19 0.551946 4.25031 0
M  V30 11994 H 1148.37 1.38651 4.76539 0
M  V30 11995 H 1143.63 2.56062 5.55196 0
M  V30 11996 H 1147.8 3.39442 6.08072 0
M  V30 11997 H 1145.43 3.98731 6.47238 0
M  V30 11998 N 1147.01 -1.56678 0.170181 0
M  V30 11999 C 1147.94 -2.20916 -0.756213 0
M  V30 12000 C 1148.92 -1.16442 -1.23997 0
M  V30 12001 O 1150.1 -1.44867 -1.29333 0
M  V30 12002 C 1147.23 -2.84901 -1.98617 0
M  V30 12003 C 1146.19 -3.95403 -1.63831 0
M  V30 12004 C 1145.51 -4.46432 -2.94282 0
M  V30 12005 C 1146.81 -5.15051 -0.867195 0
M  V30 12006 H 1148.51 -2.98585 -0.220776 0
M  V30 12007 H 1146.05 -1.43619 -0.104748 0
M  V30 12008 H 1148 -3.28514 -2.63926 0
M  V30 12009 H 1146.73 -2.04598 -2.54572 0
M  V30 12010 H 1145.39 -3.52444 -1.00891 0
M  V30 12011 H 1145.04 -3.62923 -3.48276 0
M  V30 12012 H 1144.74 -5.20979 -2.71762 0
M  V30 12013 H 1146.26 -4.92731 -3.60622 0
M  V30 12014 H 1147.67 -5.55363 -1.42285 0
M  V30 12015 H 1146.07 -5.95507 -0.741065 0
M  V30 12016 H 1147.14 -4.84707 0.136693 0
M  V30 12017 N 1148.48 0.103547 -1.57259 0
M  V30 12018 C 1149.71 0.82235 -1.89855 0
M  V30 12019 C 1150.13 1.72694 -0.76303 0
M  V30 12020 O 1149.48 1.8056 0.265421 0
M  V30 12021 C 1149.53 1.64282 -3.22015 0
M  V30 12022 O 1149.26 0.774628 -4.31197 0
M  V30 12023 C 1150.76 2.46543 -3.68418 0
M  V30 12024 H 1147.98 0.235591 -0.628282 0
M  V30 12025 H 1150.52 0.0833106 -2.0433 0
M  V30 12026 H 1148.68 2.33446 -3.09163 0
M  V30 12027 H 1149.09 1.34205 -5.0704 0
M  V30 12028 H 1150.56 2.99618 -4.63609 0
M  V30 12029 H 1151.04 3.24618 -2.95838 0
M  V30 12030 H 1151.65 1.82594 -3.84109 0
M  V30 12031 N 1149.96 1.53094 0.37415 0
M  V30 12032 C 1150.92 1.78264 1.44065 0
M  V30 12033 C 1151.92 0.652892 1.46949 0
M  V30 12034 O 1153.11 0.921046 1.47859 0
M  V30 12035 C 1150.25 1.89693 2.83248 0
M  V30 12036 H 1151.44 2.73505 1.23025 0
M  V30 12037 H 1148.99 1.44041 0.60678 0
M  V30 12038 H 1149.73 0.964884 3.09613 0
M  V30 12039 H 1149.51 2.71855 2.82554 0
M  V30 12040 H 1151 2.10787 3.60498 0
M  V30 12041 N 1151.44 -0.633461 1.44309 0
M  V30 12042 C 1152.4 -1.72743 1.50641 0
M  V30 12043 C 1153.4 -1.56031 0.388718 0
M  V30 12044 O 1154.59 -1.61568 0.651251 0
M  V30 12045 C 1151.72 -3.11804 1.37809 0
M  V30 12046 H 1152.92 -1.68503 2.48086 0
M  V30 12047 H 1150.47 -0.846912 1.31366 0
M  V30 12048 H 1151.21 -3.2164 0.414483 0
M  V30 12049 H 1150.99 -3.2534 2.18852 0
M  V30 12050 H 1152.48 -3.91538 1.45216 0
M  V30 12051 N 1152.92 -1.31168 -0.873655 0
M  V30 12052 C 1153.85 -1.21094 -1.99646 0
M  V30 12053 C 1154.83 -0.0989684 -1.69812 0
M  V30 12054 O 1156.01 -0.282939 -1.92128 0
M  V30 12055 C 1153.14 -0.913684 -3.35066 0
M  V30 12056 C 1152.1 -1.98482 -3.79195 0
M  V30 12057 C 1151.42 -1.54033 -5.12033 0
M  V30 12058 C 1152.72 -3.39745 -3.96699 0
M  V30 12059 H 1154.42 -2.1503 -2.08333 0
M  V30 12060 H 1151.96 -1.03521 -1.00097 0
M  V30 12061 H 1153.92 -0.829821 -4.13149 0
M  V30 12062 H 1152.64 0.0613471 -3.26542 0
M  V30 12063 H 1151.3 -2.05851 -3.03349 0
M  V30 12064 H 1150.95 -0.553261 -4.99948 0
M  V30 12065 H 1150.65 -2.25688 -5.4253 0
M  V30 12066 H 1152.17 -1.47047 -5.92629 0
M  V30 12067 H 1153.59 -3.35071 -4.65188 0
M  V30 12068 H 1151.98 -4.09585 -4.38589 0
M  V30 12069 H 1153.05 -3.80802 -3.00196 0
M  V30 12070 N 1154.4 1.08748 -1.14068 0
M  V30 12071 C 1155.64 1.80707 -0.904947 0
M  V30 12072 C 1155.97 1.86478 0.570167 0
M  V30 12073 O 1155.24 1.35536 1.41445 0
M  V30 12074 H 1153.82 0.669261 -0.331811 0
M  V30 12075 H 1156.48 1.31494 -1.43859 0
M  V30 12076 H 1155.57 2.83653 -1.30182 0
M  V30 12077 N 1155.87 0.935264 1.26849 0
M  V30 12078 C 1156.8 0.457776 2.28969 0
M  V30 12079 C 1157.79 -0.48587 1.63013 0
M  V30 12080 O 1158.97 -0.388998 1.90264 0
M  V30 12081 C 1156.1 -0.283332 3.46142 0
M  V30 12082 C 1155.05 0.573196 4.24144 0
M  V30 12083 C 1154.38 -0.297525 5.33872 0
M  V30 12084 C 1155.68 1.84153 4.88759 0
M  V30 12085 H 1157.37 1.31125 2.69159 0
M  V30 12086 H 1154.92 0.631956 1.29392 0
M  V30 12087 H 1156.87 -0.628366 4.16689 0
M  V30 12088 H 1155.6 -1.1709 3.04889 0
M  V30 12089 H 1154.26 0.901043 3.55354 0
M  V30 12090 H 1153.9 -1.18427 4.8886 0
M  V30 12091 H 1153.6 0.272126 5.8697 0
M  V30 12092 H 1155.13 -0.637961 6.07258 0
M  V30 12093 H 1156.54 1.5641 5.51551 0
M  V30 12094 H 1154.94 2.35528 5.51948 0
M  V30 12095 H 1156.01 2.5565 4.12033 0
M  V30 12096 N 1157.35 -1.41121 0.701616 0
M  V30 12097 C 1158.76 -1.84122 0.309208 0
M  V30 12098 C 1159.11 -1.58695 -1.15371 0
M  V30 12099 O 1158.24 -1.06053 -1.88631 0
M  V30 12100 C 1158.83 -3.34233 0.554429 0
M  V30 12101 C 1157.39 -3.7578 0.215876 0
M  V30 12102 C 1156.54 -2.6447 0.833729 0
M  V30 12103 H 1159.49 -1.30587 0.901822 0
M  V30 12104 H 1159.51 -3.8005 -0.18491 0
M  V30 12105 H 1159.02 -3.52707 1.61923 0
M  V30 12106 H 1157.13 -3.62905 -0.844421 0
M  V30 12107 H 1157.24 -4.74319 0.675118 0
M  V30 12108 H 1155.6 -2.5334 0.262851 0
M  V30 12109 H 1156.39 -2.85761 1.90252 0
M  V30 12110 N 1158.83 -0.446794 -1.51134 0
M  V30 12111 C 1159.74 0.36579 -2.31731 0
M  V30 12112 C 1160.76 1.01886 -1.41051 0
M  V30 12113 O 1161.93 1.01216 -1.74119 0
M  V30 12114 C 1159 1.44705 -3.15058 0
M  V30 12115 C 1158.06 0.813129 -4.21529 0
M  V30 12116 C 1157.29 1.84287 -5.00873 0
M  V30 12117 O 1157.51 3.06633 -4.8097 0
M  V30 12118 O 1156.45 1.42816 -5.84711 0
M  V30 12119 H 1160.27 -0.292436 -3.02289 0
M  V30 12120 H 1157.86 -0.209129 -1.47929 0
M  V30 12121 H 1159.74 2.07393 -3.66833 0
M  V30 12122 H 1158.42 2.08919 -2.47254 0
M  V30 12123 H 1157.32 0.147953 -3.73807 0
M  V30 12124 H 1158.66 0.214331 -4.91733 0
M  V30 12125 N 1160.31 1.56586 -0.178487 0
M  V30 12126 C 1161.27 2.17091 0.73512 0
M  V30 12127 C 1162.27 1.12088 1.15295 0
M  V30 12128 O 1163.46 1.37563 1.06874 0
M  V30 12129 C 1160.59 2.75957 2.00151 0
M  V30 12130 H 1161.79 2.99176 0.208272 0
M  V30 12131 H 1159.34 1.56138 0.0710967 0
M  V30 12132 H 1160.07 1.97626 2.57127 0
M  V30 12133 H 1159.86 3.52809 1.7108 0
M  V30 12134 H 1161.35 3.2247 2.65335 0
M  V30 12135 N 1161.79 -0.095206 1.57312 0
M  V30 12136 C 1162.72 -1.11627 2.05089 0
M  V30 12137 C 1163.7 -1.41782 0.939787 0
M  V30 12138 O 1164.88 -1.51813 1.21105 0
M  V30 12139 C 1162.01 -2.43618 2.47523 0
M  V30 12140 C 1160.97 -2.27872 3.62296 0
M  V30 12141 C 1160.29 -3.65038 3.90706 0
M  V30 12142 C 1161.59 -1.71936 4.93189 0
M  V30 12143 H 1163.29 -0.718795 2.90644 0
M  V30 12144 H 1160.83 -0.344315 1.39823 0
M  V30 12145 H 1162.79 -3.1532 2.79556 0
M  V30 12146 H 1161.51 -2.85301 1.58968 0
M  V30 12147 H 1160.17 -1.58615 3.3051 0
M  V30 12148 H 1159.82 -4.04249 2.99319 0
M  V30 12149 H 1159.52 -3.55349 4.67976 0
M  V30 12150 H 1161.04 -4.38208 4.25213 0
M  V30 12151 H 1162.45 -2.33479 5.23603 0
M  V30 12152 H 1160.85 -1.73006 5.74621 0
M  V30 12153 H 1161.92 -0.678789 4.80125 0
M  V30 12154 N 1163.26 -1.53291 -0.366026 0
M  V30 12155 C 1164.51 -1.68671 -1.10602 0
M  V30 12156 C 1164.83 -0.444793 -1.90476 0
M  V30 12157 O 1166.03 -0.479135 -2.67239 0
M  V30 12158 C 1164.49 -2.98174 -2.01545 0
M  V30 12159 C 1164.1 -4.29626 -1.26986 0
M  V30 12160 C 1165.84 -3.22921 -2.7554 0
M  V30 12161 C 1163.75 -5.50218 -2.16828 0
M  V30 12162 H 1162.68 -0.628456 -0.416604 0
M  V30 12163 H 1165.33 -1.79791 -0.367058 0
M  V30 12164 H 1163.71 -2.80855 -2.79171 0
M  V30 12165 H 1164.88 -4.57574 -0.544269 0
M  V30 12166 H 1163.2 -4.11318 -0.648558 0
M  V30 12167 H 1165.8 -4.10202 -3.42985 0
M  V30 12168 H 1166.14 -2.38964 -3.40884 0
M  V30 12169 H 1166.67 -3.40912 -2.04997 0
M  V30 12170 H 1163.41 -6.36651 -1.56063 0
M  V30 12171 H 1162.93 -5.26549 -2.87238 0
M  V30 12172 H 1164.61 -5.84991 -2.76396 0
M  V30 12173 N 1164.74 0.6258 -1.44643 0
M  V30 12174 C 1166.15 1.20751 -1.42394 0
M  V30 12175 C 1166.5 1.95685 -0.142047 0
M  V30 12176 O 1165.63 2.02715 0.757332 0
M  V30 12177 C 1166.22 2.1964 -2.57961 0
M  V30 12178 C 1164.78 2.73227 -2.5889 0
M  V30 12179 C 1163.93 1.48315 -2.34303 0
M  V30 12180 H 1166.88 0.416162 -1.53146 0
M  V30 12181 H 1166.9 3.02342 -2.31019 0
M  V30 12182 H 1166.41 1.65073 -3.51244 0
M  V30 12183 H 1164.52 3.31782 -1.69563 0
M  V30 12184 H 1164.63 3.18902 -3.57545 0
M  V30 12185 H 1162.99 1.76634 -1.83501 0
M  V30 12186 H 1163.78 0.956427 -3.29708 0
M  V30 12187 N 1166.22 1.31629 0.866686 0
M  V30 12188 C 1167.47 1.21683 1.62238 0
M  V30 12189 C 1167.8 -0.223767 1.92907 0
M  V30 12190 O 1167.07 -1.15761 1.563 0
M  V30 12191 C 1167.36 2.06443 2.95048 0
M  V30 12192 C 1167.21 3.58818 2.71237 0
M  V30 12193 C 1168.53 1.91634 3.96187 0
M  V30 12194 H 1165.65 0.443389 0.588707 0
M  V30 12195 H 1168.29 1.61453 1.00164 0
M  V30 12196 H 1166.44 1.72654 3.48027 0
M  V30 12197 H 1168.11 4.0276 2.24905 0
M  V30 12198 H 1166.36 3.82085 2.05411 0
M  V30 12199 H 1167.03 4.13436 3.65752 0
M  V30 12200 H 1169.5 2.21209 3.52428 0
M  V30 12201 H 1168.38 2.53236 4.86993 0
M  V30 12202 H 1168.64 0.880564 4.33242 0
M  V30 12203 N 1167.7 -1.08142 1.14644 0
M  V30 12204 C 1168.63 -2.15022 0.793614 0
M  V30 12205 C 1169.64 -1.61679 -0.190729 0
M  V30 12206 O 1170.83 -1.78472 0.0313696 0
M  V30 12207 C 1167.93 -3.38532 0.157785 0
M  V30 12208 C 1167.11 -4.21252 1.17753 0
M  V30 12209 C 1166.17 -5.23158 0.564968 0
M  V30 12210 O 1165.19 -5.5578 1.22869 0
M  V30 12211 N 1166.39 -5.7677 -0.657022 0
M  V30 12212 H 1169.16 -2.45893 1.71338 0
M  V30 12213 H 1166.72 -1.23976 1.04122 0
M  V30 12214 H 1168.71 -4.03834 -0.264586 0
M  V30 12215 H 1167.28 -3.05441 -0.665168 0
M  V30 12216 H 1166.5 -3.51888 1.77675 0
M  V30 12217 H 1167.79 -4.73335 1.86632 0
M  V30 12218 H 1167.19 -5.52503 -1.21478 0
M  V30 12219 H 1165.74 -6.4374 -1.02186 0
M  V30 12220 N 1169.18 -0.941978 -1.26351 0
M  V30 12221 C 1170.11 -0.469913 -2.28723 0
M  V30 12222 C 1171.09 0.477218 -1.63269 0
M  V30 12223 O 1172.27 0.378902 -1.90468 0
M  V30 12224 C 1169.4 0.264971 -3.46288 0
M  V30 12225 C 1168.36 -0.595682 -4.23834 0
M  V30 12226 C 1167.68 0.269208 -5.34022 0
M  V30 12227 C 1168.98 -1.86743 -4.87775 0
M  V30 12228 H 1170.68 -1.32551 -2.6846 0
M  V30 12229 H 1168.22 -0.638809 -1.29055 0
M  V30 12230 H 1170.18 0.606259 -4.17016 0
M  V30 12231 H 1168.9 1.15471 -3.05506 0
M  V30 12232 H 1167.56 -0.919875 -3.54872 0
M  V30 12233 H 1167.21 1.15832 -4.89481 0
M  V30 12234 H 1166.91 -0.30325 -5.86817 0
M  V30 12235 H 1168.43 0.605748 -6.07588 0
M  V30 12236 H 1169.85 -1.59333 -5.50714 0
M  V30 12237 H 1168.24 -2.38452 -5.50691 0
M  V30 12238 H 1169.31 -2.57831 -4.10671 0
M  V30 12239 N 1170.66 1.40747 -0.709091 0
M  V30 12240 C 1171.59 2.33404 -0.0669763 0
M  V30 12241 C 1172.57 1.52546 0.752582 0
M  V30 12242 O 1173.75 1.81036 0.702823 0
M  V30 12243 C 1170.88 3.36476 0.860285 0
M  V30 12244 C 1169.84 4.27748 0.146828 0
M  V30 12245 C 1169.16 5.21304 1.18937 0
M  V30 12246 C 1170.46 5.12734 -0.995064 0
M  V30 12247 H 1172.16 2.87349 -0.840888 0
M  V30 12248 H 1169.7 1.38163 -0.405817 0
M  V30 12249 H 1171.65 4.00231 1.31883 0
M  V30 12250 H 1170.38 2.80912 1.66602 0
M  V30 12251 H 1169.04 3.65437 -0.291826 0
M  V30 12252 H 1168.69 4.62048 1.98798 0
M  V30 12253 H 1168.39 5.8321 0.716917 0
M  V30 12254 H 1169.91 5.87936 1.64815 0
M  V30 12255 H 1171.32 5.69979 -0.61618 0
M  V30 12256 H 1169.72 5.83649 -1.39547 0
M  V30 12257 H 1170.79 4.49097 -1.82867 0
M  V30 12258 N 1172.13 0.454803 1.50895 0
M  V30 12259 C 1173.38 -0.0981148 2.03163 0
M  V30 12260 C 1173.73 -1.38855 1.3318 0
M  V30 12261 O 1173.03 -1.86399 0.443407 0
M  V30 12262 C 1173.22 -0.354159 3.55641 0
M  V30 12263 C 1173.05 0.90991 4.40398 0
M  V30 12264 C 1171.82 1.44852 4.84093 0
M  V30 12265 C 1174.02 1.80088 4.81739 0
M  V30 12266 N 1172 2.66331 5.53119 0
M  V30 12267 C 1173.37 2.86162 5.5001 0
M  V30 12268 C 1175.43 1.81321 4.6371 0
M  V30 12269 C 1174.13 3.93438 6.02162 0
M  V30 12270 C 1176.16 2.87543 5.16791 0
M  V30 12271 C 1175.52 3.92336 5.85023 0
M  V30 12272 H 1171.62 0.00370972 0.781991 0
M  V30 12273 H 1174.2 0.619376 1.84586 0
M  V30 12274 H 1172.37 -1.04069 3.74198 0
M  V30 12275 H 1174.1 -0.899976 3.94566 0
M  V30 12276 H 1170.86 0.999972 4.62923 0
M  V30 12277 H 1171.28 3.27978 5.92249 0
M  V30 12278 H 1175.92 1.01627 4.10404 0
M  V30 12279 H 1173.64 4.73959 6.54514 0
M  V30 12280 H 1177.23 2.8946 5.04682 0
M  V30 12281 H 1176.11 4.73178 6.25358 0
M  V30 12282 N 1173.61 -1.56489 0.186789 0
M  V30 12283 C 1174.86 -1.97634 -0.454831 0
M  V30 12284 C 1175.19 -1.07334 -1.61843 0
M  V30 12285 O 1174.47 -0.123612 -1.94107 0
M  V30 12286 C 1174.75 -3.48071 -0.922962 0
M  V30 12287 C 1174.6 -4.49149 0.241877 0
M  V30 12288 C 1175.92 -4.01994 -1.79134 0
M  V30 12289 H 1173.04 -0.718555 -0.163854 0
M  V30 12290 H 1175.68 -1.87984 0.27604 0
M  V30 12291 H 1173.83 -3.56425 -1.54575 0
M  V30 12292 H 1175.5 -4.52841 0.87936 0
M  V30 12293 H 1173.75 -4.24468 0.894964 0
M  V30 12294 H 1174.42 -5.51851 -0.128051 0
M  V30 12295 H 1176.89 -3.96367 -1.26618 0
M  V30 12296 H 1175.77 -5.07641 -2.08787 0
M  V30 12297 H 1176.03 -3.46747 -2.74261 0
M  V30 12298 N 1175.09 0.086862 -1.5736 0
M  V30 12299 C 1176.04 1.12359 -2.03662 0
M  V30 12300 C 1177.03 1.40982 -0.939169 0
M  V30 12301 O 1178.24 1.40566 -1.12433 0
M  V30 12302 H 1174.61 0.379605 -0.649156 0
M  V30 12303 H 1176.58 0.706822 -2.89908 0
M  V30 12304 C 1175.33 2.43327 -2.48369 0
M  V30 12305 H 1174.66 2.22148 -3.324 0
M  V30 12306 H 1176.1 3.14351 -2.84534 0
M  V30 12307 C 1174.55 3.08214 -1.36036 0
M  V30 12308 O 1175.08 3.95659 -0.694063 0
M  V30 12309 N 1173.29 2.68596 -1.10927 0
M  V30 12310 H 1172.84 1.97578 -1.6529 0
M  V30 12311 H 1172.8 3.12336 -0.359679 0
M  V30 12312 N 1176.57 1.53483 0.357892 0
M  V30 12313 C 1177.5 1.83444 1.44466 0
M  V30 12314 C 1178.48 0.688486 1.55544 0
M  V30 12315 O 1179.66 0.93906 1.69986 0
M  V30 12316 C 1176.79 2.03122 2.81707 0
M  V30 12317 C 1175.75 3.1891 2.85448 0
M  V30 12318 C 1175.07 3.23895 4.25436 0
M  V30 12319 C 1176.37 4.57334 2.52275 0
M  V30 12320 H 1178.07 2.74456 1.19642 0
M  V30 12321 H 1175.61 1.3206 0.574112 0
M  V30 12322 H 1177.57 2.22666 3.57768 0
M  V30 12323 H 1176.29 1.08827 3.07935 0
M  V30 12324 H 1174.95 2.99199 2.11838 0
M  V30 12325 H 1174.6 2.27223 4.48753 0
M  V30 12326 H 1174.3 4.01694 4.28854 0
M  V30 12327 H 1175.82 3.45632 5.0336 0
M  V30 12328 H 1177.24 4.76988 3.1805 0
M  V30 12329 H 1175.63 5.37431 2.66998 0
M  V30 12330 H 1176.7 4.61921 1.47501 0
M  V30 12331 N 1178.05 -0.61812 1.44973 0
M  V30 12332 C 1179.29 -1.37944 1.48658 0
M  V30 12333 C 1179.62 -1.93805 0.123749 0
M  V30 12334 O 1178.9 -1.74434 -0.860401 0
M  V30 12335 C 1179.18 -2.53515 2.55739 0
M  V30 12336 C 1179.04 -2.02918 4.01428 0
M  V30 12337 C 1180.35 -3.55674 2.59199 0
M  V30 12338 H 1177.47 -0.500223 0.541244 0
M  V30 12339 H 1180.12 -0.69774 1.76725 0
M  V30 12340 H 1178.27 -3.11669 2.31937 0
M  V30 12341 H 1179.94 -1.49494 4.36405 0
M  V30 12342 H 1178.18 -1.33999 4.12586 0
M  V30 12343 H 1178.85 -2.86181 4.72021 0
M  V30 12344 H 1181.33 -3.07343 2.80499 0
M  V30 12345 H 1180.2 -4.34042 3.36004 0
M  V30 12346 H 1180.46 -4.10601 1.63888 0
M  V30 12347 N 1179.52 -1.32087 -0.859693 0
M  V30 12348 C 1180.75 -1.25348 -1.64607 0
M  V30 12349 C 1181.17 0.179425 -1.87945 0
M  V30 12350 O 1180.52 1.11487 -1.44489 0
M  V30 12351 C 1180.57 -2.0047 -3.00822 0
M  V30 12352 O 1180.3 -3.38169 -2.7852 0
M  V30 12353 C 1181.8 -2.00694 -3.95268 0
M  V30 12354 H 1179.02 -0.432692 -0.512854 0
M  V30 12355 H 1181.56 -1.7413 -1.07234 0
M  V30 12356 H 1179.72 -1.55423 -3.54855 0
M  V30 12357 H 1180.13 -3.76553 -3.65113 0
M  V30 12358 H 1181.6 -2.57748 -4.88129 0
M  V30 12359 H 1182.08 -0.99196 -4.27851 0
M  V30 12360 H 1182.69 -2.45666 -3.47172 0
M  V30 12361 N 1181 1.07532 -1.15215 0
M  V30 12362 C 1182.28 1.76813 -0.83646 0
M  V30 12363 C 1182.66 2.00242 0.6683 0
M  V30 12364 O 1182.01 1.61941 1.61206 0
M  V30 12365 C 1182.22 3.0779 -1.64519 0
M  V30 12366 C 1183.56 3.82168 -1.85022 0
M  V30 12367 O 1184.59 3.17596 -1.61279 0
M  V30 12368 O 1183.45 4.98135 -2.24775 0
M  V30 12369 H 1180.54 0.767736 -0.307426 0
M  V30 12370 H 1183.09 1.13914 -1.25784 0
M  V30 12371 H 1181.86 2.86342 -2.6669 0
M  V30 12372 H 1181.48 3.78419 -1.22002 0
M  V30 12373 N 1182.48 0.948665 1.2585 0
M  V30 12374 C 1183.73 0.59905 1.93018 0
M  V30 12375 C 1184.05 -0.865813 1.74725 0
M  V30 12376 O 1183.32 -1.61602 1.10732 0
M  V30 12377 H 1181.9 0.218565 0.71431 0
M  V30 12378 H 1184.56 1.20561 1.53137 0
M  V30 12379 H 1183.66 0.823244 3.01047 0
M  V30 12380 N 1183.96 -1.40369 0.716545 0
M  V30 12381 C 1184.89 -2.33365 0.0793533 0
M  V30 12382 C 1185.87 -1.52943 -0.744482 0
M  V30 12383 O 1187.05 -1.81406 -0.693212 0
M  V30 12384 C 1184.18 -3.36928 -0.842429 0
M  V30 12385 C 1183.14 -4.2782 -0.124142 0
M  V30 12386 C 1182.46 -5.21928 -1.1617 0
M  V30 12387 C 1183.76 -5.12199 1.02224 0
M  V30 12388 H 1185.46 -2.86899 0.856115 0
M  V30 12389 H 1183 -1.37946 0.413138 0
M  V30 12390 H 1184.96 -4.00925 -1.29759 0
M  V30 12391 H 1183.68 -2.81791 -1.6511 0
M  V30 12392 H 1182.34 -3.65277 0.311201 0
M  V30 12393 H 1181.99 -4.63096 -1.96345 0
M  V30 12394 H 1181.69 -5.83582 -0.685978 0
M  V30 12395 H 1183.21 -5.88802 -1.61694 0
M  V30 12396 H 1184.63 -5.69644 0.646399 0
M  V30 12397 H 1183.02 -5.82901 1.4264 0
M  V30 12398 H 1184.09 -4.4812 1.85246 0
M  V30 12399 N 1185.44 -0.462799 -1.50652 0
M  V30 12400 C 1186.85 -0.00568907 -1.86699 0
M  V30 12401 C 1187.2 1.39641 -1.37822 0
M  V30 12402 O 1186.32 2.03366 -0.739679 0
M  V30 12403 C 1186.92 -0.00354783 -3.388 0
M  V30 12404 C 1185.48 0.398061 -3.74289 0
M  V30 12405 C 1184.62 -0.392574 -2.74507 0
M  V30 12406 H 1187.58 -0.677469 -1.43513 0
M  V30 12407 H 1187.6 0.800456 -3.71985 0
M  V30 12408 H 1187.11 -1.02414 -3.74344 0
M  V30 12409 H 1185.21 1.42331 -3.44344 0
M  V30 12410 H 1185.32 0.105168 -4.78985 0
M  V30 12411 H 1183.69 0.152608 -2.54242 0
M  V30 12412 H 1184.47 -1.41252 -3.12894 0
M  V30 12413 N 1186.91 1.56388 -0.195085 0
M  V30 12414 C 1187.88 2.17859 0.712053 0
M  V30 12415 C 1188.88 1.13304 1.141 0
M  V30 12416 O 1190.07 1.38689 1.05409 0
M  V30 12417 C 1187.2 2.78065 1.97213 0
M  V30 12418 H 1188.39 2.9938 0.176529 0
M  V30 12419 H 1185.95 1.56205 0.0545322 0
M  V30 12420 H 1186.68 2.00342 2.55017 0
M  V30 12421 H 1186.47 3.54603 1.67329 0
M  V30 12422 H 1187.96 3.25266 2.619 0
M  V30 12423 N 1188.39 -0.0785156 1.57404 0
M  V30 12424 C 1189.62 -0.792042 1.9114 0
M  V30 12425 C 1190.04 -1.71458 0.790408 0
M  V30 12426 O 1189.39 -1.80959 -0.236662 0
M  V30 12427 C 1189.44 -1.59138 3.24588 0
M  V30 12428 O 1189.16 -0.705931 4.32375 0
M  V30 12429 C 1190.67 -2.4065 3.72293 0
M  V30 12430 H 1187.89 -0.225566 0.63195 0
M  V30 12431 H 1190.43 -0.0507929 2.04437 0
M  V30 12432 H 1188.58 -2.28498 3.12838 0
M  V30 12433 H 1189 -1.26121 5.09111 0
M  V30 12434 H 1190.47 -2.92204 4.68317 0
M  V30 12435 H 1190.95 -3.1987 3.00965 0
M  V30 12436 H 1191.56 -1.7646 3.86965 0
M  V30 12437 N 1189.87 -1.5367 -0.349747 0
M  V30 12438 C 1190.83 -1.80533 -1.41211 0
M  V30 12439 C 1191.83 -0.676188 -1.45892 0
M  V30 12440 O 1193.02 -0.944453 -1.46375 0
M  V30 12441 C 1190.16 -1.94175 -2.80195 0
M  V30 12442 H 1191.35 -2.75428 -1.18658 0
M  V30 12443 H 1188.9 -1.44988 -0.583787 0
M  V30 12444 H 1189.64 -1.01402 -3.08039 0
M  V30 12445 H 1189.42 -2.76316 -2.78194 0
M  V30 12446 H 1190.91 -2.16496 -3.57098 0
M  V30 12447 N 1191.35 0.610423 -1.45298 0
M  V30 12448 C 1192.28 1.73207 -1.56594 0
M  V30 12449 C 1193.26 1.64893 -0.417651 0
M  V30 12450 O 1194.44 1.83336 -0.64043 0
M  V30 12451 C 1191.57 3.11803 -1.52959 0
M  V30 12452 C 1190.53 3.34925 -2.66475 0
M  V30 12453 C 1189.85 4.73764 -2.47894 0
M  V30 12454 C 1191.15 3.25456 -4.08504 0
M  V30 12455 H 1192.85 1.6401 -2.50482 0
M  V30 12456 H 1190.39 0.787621 -1.20551 0
M  V30 12457 H 1192.35 3.90065 -1.59458 0
M  V30 12458 H 1191.07 3.21833 -0.55599 0
M  V30 12459 H 1189.73 2.59051 -2.59399 0
M  V30 12460 H 1189.38 4.80524 -1.4868 0
M  V30 12461 H 1189.08 4.90191 -3.24016 0
M  V30 12462 H 1190.6 5.54231 -2.56243 0
M  V30 12463 H 1192.02 3.93597 -4.16839 0
M  V30 12464 H 1190.41 3.53414 -4.84994 0
M  V30 12465 H 1191.48 2.22939 -4.30612 0
M  V30 12466 N 1192.83 1.32541 0.852676 0
M  V30 12467 C 1194.07 1.22971 1.60383 0
M  V30 12468 C 1194.4 -0.208009 1.93887 0
M  V30 12469 O 1193.67 -1.13326 1.59794 0
M  V30 12470 H 1192.25 0.452149 0.594618 0
M  V30 12471 H 1194.91 1.66089 1.01983 0
M  V30 12472 H 1194 1.81373 2.53989 0
M  V30 12473 N 1194.3 -1.0692 1.15784 0
M  V30 12474 C 1195.55 -1.796 0.935429 0
M  V30 12475 C 1195.88 -1.86935 -0.537173 0
M  V30 12476 O 1195.13 -1.35244 -1.41448 0
M  V30 12477 C 1195.43 -3.24389 1.50022 0
M  V30 12478 C 1195.1 -3.37145 2.99406 0
M  V30 12479 C 1193.76 -3.40334 3.40186 0
M  V30 12480 C 1196.11 -3.39584 3.95389 0
M  V30 12481 C 1193.44 -3.43569 4.75581 0
M  V30 12482 C 1195.79 -3.44356 5.30661 0
M  V30 12483 C 1194.46 -3.45824 5.70931 0
M  V30 12484 H 1193.73 -0.657201 0.342298 0
M  V30 12485 H 1196.37 -1.25784 1.44397 0
M  V30 12486 H 1194.68 -3.81015 0.91297 0
M  V30 12487 H 1196.38 -3.79209 1.30389 0
M  V30 12488 H 1192.97 -3.35365 2.66887 0
M  V30 12489 H 1197.15 -3.36337 3.64954 0
M  V30 12490 H 1192.41 -3.43006 5.06119 0
M  V30 12491 H 1196.58 -3.4519 6.04828 0
M  V30 12492 H 1194.21 -3.48084 6.75826 0
M  V30 12493 N 1195.78 -0.955326 -1.25345 0
M  V30 12494 C 1196.73 -0.467205 -2.2786 0
M  V30 12495 C 1197.72 0.462873 -1.62954 0
M  V30 12496 O 1198.93 0.339526 -1.76769 0
M  V30 12497 H 1195.31 -0.132586 -0.74022 0
M  V30 12498 H 1197.28 -1.34406 -2.66416 0
M  V30 12499 C 1196.03 0.238898 -3.46878 0
M  V30 12500 H 1195.35 -0.467644 -3.97056 0
M  V30 12501 H 1196.79 0.544444 -4.2049 0
M  V30 12502 C 1195.25 1.46164 -3.03542 0
M  V30 12503 O 1195.78 2.55933 -3.09615 0
M  V30 12504 N 1193.98 1.32324 -2.58725 0
M  V30 12505 H 1193.53 0.430131 -2.53984 0
M  V30 12506 H 1193.49 2.14253 -2.30094 0
M  V30 12507 N 1197.26 1.39987 -0.723979 0
M  V30 12508 C 1198.67 1.83606 -0.338461 0
M  V30 12509 C 1199.02 1.6051 1.12831 0
M  V30 12510 O 1198.15 1.09041 1.8692 0
M  V30 12511 C 1198.74 3.33308 -0.607533 0
M  V30 12512 C 1197.3 3.75389 -0.275632 0
M  V30 12513 C 1196.45 2.6311 -0.875699 0
M  V30 12514 H 1199.4 1.29135 -0.922483 0
M  V30 12515 H 1199.42 3.80297 0.124424 0
M  V30 12516 H 1198.93 3.50087 -1.67514 0
M  V30 12517 H 1197.03 3.64203 0.786579 0
M  V30 12518 H 1197.15 4.73185 -0.750492 0
M  V30 12519 H 1195.51 2.5289 -0.303122 0
M  V30 12520 H 1196.29 2.82698 -1.94774 0
M  V30 12521 N 1198.74 0.470782 1.50404 0
M  V30 12522 C 1200.15 0.0155901 1.86693 0
M  V30 12523 C 1200.5 -1.38908 1.38561 0
M  V30 12524 O 1199.63 -2.02971 0.750454 0
M  V30 12525 C 1200.22 0.0215152 3.38793 0
M  V30 12526 C 1198.78 -0.378206 3.74495 0
M  V30 12527 C 1197.93 0.407126 2.74295 0
M  V30 12528 H 1200.88 0.68507 1.43152 0
M  V30 12529 H 1200.9 -0.780717 3.72404 0
M  V30 12530 H 1200.41 1.04397 3.73795 0
M  V30 12531 H 1198.51 -1.40503 3.45094 0
M  V30 12532 H 1198.63 -0.0797643 4.79034 0
M  V30 12533 H 1196.99 -0.139123 2.5432 0
M  V30 12534 H 1197.77 1.42909 3.12141 0
M  V30 12535 N 1200.22 -1.56282 0.203376 0
M  V30 12536 C 1201.49 -1.89587 -0.481256 0
M  V30 12537 C 1201.87 -1.11812 -1.79057 0
M  V30 12538 O 1201.22 -0.221759 -2.27421 0
M  V30 12539 C 1201.43 -3.42071 -0.691965 0
M  V30 12540 C 1202.78 -4.12471 -1.00761 0
M  V30 12541 O 1203.8 -3.47568 -0.779396 0
M  V30 12542 O 1202.66 -5.27194 -1.43974 0
M  V30 12543 H 1199.76 -0.787682 -0.251963 0
M  V30 12544 H 1202.3 -1.67934 0.244207 0
M  V30 12545 H 1201.08 -3.9061 0.232322 0
M  V30 12546 H 1200.7 -3.69444 -1.46958 0
M  V30 12547 N 1201.7 0.070167 -1.57444 0
M  V30 12548 C 1202.63 1.08351 -2.06839 0
M  V30 12549 C 1203.61 1.40269 -0.962224 0
M  V30 12550 O 1204.79 1.49867 -1.23505 0
M  V30 12551 C 1201.92 2.39649 -2.51368 0
M  V30 12552 C 1200.88 2.22079 -3.65875 0
M  V30 12553 C 1200.2 3.58776 -3.96464 0
M  V30 12554 C 1201.5 1.64069 -4.95862 0
M  V30 12555 H 1203.2 0.672465 -2.9175 0
M  V30 12556 H 1200.74 0.322027 -1.40353 0
M  V30 12557 H 1202.69 3.10833 -2.84537 0
M  V30 12558 H 1201.42 2.82736 -1.63487 0
M  V30 12559 H 1200.08 1.53337 -3.32992 0
M  V30 12560 H 1199.73 3.99436 -3.05712 0
M  V30 12561 H 1199.43 3.47859 -4.7357 0
M  V30 12562 H 1200.95 4.31387 -4.32131 0
M  V30 12563 H 1202.36 2.2512 -5.27251 0
M  V30 12564 H 1200.76 1.63843 -5.773 0
M  V30 12565 H 1201.83 0.60232 -4.81145 0
M  V30 12566 N 1203.17 1.53854 0.341593 0
M  V30 12567 C 1204.45 1.61823 1.09875 0
M  V30 12568 C 1204.83 0.440711 2.06448 0
M  V30 12569 O 1204.18 -0.566833 2.21358 0
M  V30 12570 C 1204.39 2.9799 1.81668 0
M  V30 12571 C 1205.74 3.53411 2.35341 0
M  V30 12572 O 1206.76 3.00177 1.91761 0
M  V30 12573 O 1205.62 4.4653 3.15076 0
M  V30 12574 H 1202.71 0.654599 0.5054 0
M  V30 12575 H 1205.26 1.66199 0.342929 0
M  V30 12576 H 1204.03 3.7513 1.11323 0
M  V30 12577 H 1203.65 2.97213 2.64103 0
M  V30 12578 N 1204.65 -0.602709 1.4562 0
M  V30 12579 C 1205.9 -1.35769 1.49163 0
M  V30 12580 C 1206.21 -1.95102 0.139485 0
M  V30 12581 O 1207.42 -2.71449 0.0525919 0
M  V30 12582 C 1205.88 -2.45959 2.62739 0
M  V30 12583 C 1205.48 -1.93017 4.04288 0
M  V30 12584 C 1207.23 -3.22926 2.75534 0
M  V30 12585 C 1205.13 -3.00718 5.09237 0
M  V30 12586 H 1204.06 -0.510317 0.555061 0
M  V30 12587 H 1206.72 -0.645434 1.71774 0
M  V30 12588 H 1205.1 -3.19892 2.3342 0
M  V30 12589 H 1206.27 -1.2576 4.43307 0
M  V30 12590 H 1204.59 -1.2878 3.95986 0
M  V30 12591 H 1207.18 -4.03267 3.51112 0
M  V30 12592 H 1207.53 -3.74243 1.82339 0
M  V30 12593 H 1208.06 -2.56095 3.04402 0
M  V30 12594 H 1204.8 -2.54312 6.04157 0
M  V30 12595 H 1204.32 -3.66526 4.74783 0
M  V30 12596 H 1206 -3.65016 5.34202 0
M  V30 12597 N 1206.13 -1.32992 -0.845635 0
M  V30 12598 C 1207.06 -1.17018 -1.95913 0
M  V30 12599 C 1208.04 -0.0673433 -1.6246 0
M  V30 12600 O 1209.22 -0.22833 -1.87112 0
M  V30 12601 C 1206.35 -0.793343 -3.29278 0
M  V30 12602 C 1205.4 -1.90271 -3.81705 0
M  V30 12603 S 1206.23 -3.51256 -4.04202 0
M  V30 12604 C 1207.39 -3.15564 -5.40528 0
M  V30 12605 H 1207.62 -2.11278 -2.09163 0
M  V30 12606 H 1205.15 -1.17756 -0.998644 0
M  V30 12607 H 1207.11 -0.582694 -4.06343 0
M  V30 12608 H 1205.77 0.130539 -3.13829 0
M  V30 12609 H 1204.96 -1.59225 -4.78188 0
M  V30 12610 H 1204.57 -2.06968 -3.11513 0
M  V30 12611 H 1206.86 -2.65969 -6.23111 0
M  V30 12612 H 1207.8 -4.11102 -5.76542 0
M  V30 12613 H 1208.21 -2.52341 -5.04959 0
M  V30 12614 N 1207.61 1.06304 -1.1635 0
M  V30 12615 C 1208.88 1.75916 -0.855166 0
M  V30 12616 C 1209.26 2.0094 0.647024 0
M  V30 12617 O 1208.61 1.63642 1.59479 0
M  V30 12618 C 1208.82 3.06028 -1.67774 0
M  V30 12619 C 1210.17 3.80184 -1.89065 0
M  V30 12620 O 1211.19 3.15868 -1.64639 0
M  V30 12621 O 1210.05 4.95723 -2.30045 0
M  V30 12622 H 1207.15 0.764432 -0.315551 0
M  V30 12623 H 1209.69 1.12574 -1.26985 0
M  V30 12624 H 1208.47 2.83498 -2.69712 0
M  V30 12625 H 1208.09 3.77104 -1.26009 0
M  V30 12626 N 1209.09 0.96196 1.24836 0
M  V30 12627 C 1210.5 0.667561 1.44968 0
M  V30 12628 C 1210.7 -0.772521 1.86103 0
M  V30 12629 O 1209.76 -1.54704 1.99557 0
M  V30 12630 C 1211.07 1.64675 2.516 0
M  V30 12631 C 1212.62 1.65874 2.65433 0
M  V30 12632 C 1213.09 2.62576 3.75257 0
M  V30 12633 N 1214.58 2.60984 3.82677 0
M  V30 12634 C 1215.32 3.32484 4.67163 0
M  V30 12635 N 1214.82 4.13482 5.55882 0
M  V30 12636 N 1216.61 3.21336 4.61193 0
M  V30 12637 H 1208.76 1.89248 0.964307 0
M  V30 12638 H 1211.02 0.814443 0.485167 0
M  V30 12639 H 1210.73 2.67572 2.2825 0
M  V30 12640 H 1210.6 1.415 3.49653 0
M  V30 12641 H 1212.99 0.636912 2.88145 0
M  V30 12642 H 1213.07 1.9311 1.67756 0
M  V30 12643 H 1212.71 3.6489 3.53295 0
M  V30 12644 H 1212.64 2.32622 4.72435 0
M  V30 12645 H 1215.14 2.02187 3.19263 0
M  V30 12646 H 1215.45 4.6494 6.17293 0
M  V30 12647 H 1213.79 4.17578 5.55566 0
M  V30 12648 H 1216.98 2.57524 3.90895 0
M  V30 12649 H 1217.16 3.77323 5.26812 0
M  V30 12650 N 1210.56 -1.39601 0.731392 0
M  V30 12651 C 1211.97 -1.83424 0.348194 0
M  V30 12652 C 1212.33 -1.61106 -1.11979 0
M  V30 12653 O 1211.45 -1.1003 -1.86339 0
M  V30 12654 C 1212.05 -3.32982 0.6252 0
M  V30 12655 C 1210.6 -3.75238 0.295536 0
M  V30 12656 C 1209.75 -2.62642 0.88964 0
M  V30 12657 H 1212.7 -1.28644 0.929318 0
M  V30 12658 H 1212.72 -3.80357 -0.104254 0
M  V30 12659 H 1212.24 -3.49193 1.69368 0
M  V30 12660 H 1210.34 -3.64615 -0.767254 0
M  V30 12661 H 1210.45 -4.72781 0.775576 0
M  V30 12662 H 1208.81 -2.52726 0.316529 0
M  V30 12663 H 1209.6 -2.81661 1.96271 0
M  V30 12664 N 1212.04 -0.478751 -1.50152 0
M  V30 12665 C 1213.45 -0.0254907 -1.86683 0
M  V30 12666 C 1213.8 1.38171 -1.39295 0
M  V30 12667 O 1212.93 2.0257 -0.761207 0
M  V30 12668 C 1213.52 -0.0394819 -3.38777 0
M  V30 12669 C 1212.08 0.35834 -3.7469 0
M  V30 12670 C 1211.23 -0.421667 -2.74075 0
M  V30 12671 H 1214.18 -0.692653 -1.42787 0
M  V30 12672 H 1214.2 0.760957 -3.72813 0
M  V30 12673 H 1213.71 -1.06378 -3.73236 0
M  V30 12674 H 1211.82 1.38671 -3.45834 0
M  V30 12675 H 1211.93 0.0543589 -4.79069 0
M  V30 12676 H 1210.29 0.125634 -2.5439 0
M  V30 12677 H 1211.08 -1.44562 -3.11379 0
M  V30 12678 N 1213.52 1.56172 -0.211661 0
M  V30 12679 C 1214.94 1.5895 0.143907 0
M  V30 12680 C 1215.14 1.22826 1.59737 0
M  V30 12681 O 1214.19 0.958823 2.33587 0
M  V30 12682 C 1215.51 3.00199 -0.173438 0
M  V30 12683 C 1217.05 3.12789 -0.114877 0
M  V30 12684 C 1217.53 4.56199 -0.405759 0
M  V30 12685 N 1219.02 4.61838 -0.354973 0
M  V30 12686 C 1219.75 5.70721 -0.553671 0
M  V30 12687 N 1219.25 6.88006 -0.813613 0
M  V30 12688 N 1221.04 5.59988 -0.486787 0
M  V30 12689 H 1213.19 1.77931 -1.15993 0
M  V30 12690 H 1215.46 0.826569 -0.464206 0
M  V30 12691 H 1215.16 3.31248 -1.18186 0
M  V30 12692 H 1215.04 3.73651 0.516232 0
M  V30 12693 H 1217.42 2.81543 0.884166 0
M  V30 12694 H 1217.51 2.41688 -0.837875 0
M  V30 12695 H 1217.15 4.88161 -1.40219 0
M  V30 12696 H 1217.08 5.25512 0.338318 0
M  V30 12697 H 1219.57 3.77555 -0.161352 0
M  V30 12698 H 1219.88 7.66894 -0.953594 0
M  V30 12699 H 1218.23 6.89774 -0.850696 0
M  V30 12700 H 1221.42 4.67238 -0.284009 0
M  V30 12701 H 1221.59 6.44781 -0.645051 0
M  V30 12702 N 1215 -0.0618163 1.57479 0
M  V30 12703 C 1216.22 -0.775513 1.92355 0
M  V30 12704 C 1216.65 -1.69816 0.808949 0
M  V30 12705 O 1216.01 -1.79736 -0.23761 0
M  V30 12706 C 1216.05 -1.5367 3.26218 0
M  V30 12707 O 1215.16 -2.64802 3.16155 0
M  V30 12708 H 1214.5 -0.210909 0.629614 0
M  V30 12709 H 1217.03 -0.0270752 2.04582 0
M  V30 12710 H 1217.04 -1.91379 3.6033 0
M  V30 12711 H 1215.71 -0.859798 4.06916 0
M  V30 12712 H 1214.29 -2.29876 2.93618 0
M  V30 12713 N 1216.48 -1.54033 -0.333429 0
M  V30 12714 C 1217.89 -1.63107 -0.908455 0
M  V30 12715 C 1218.24 -0.518823 -1.89216 0
M  V30 12716 O 1217.36 0.34985 -2.13553 0
M  V30 12717 C 1217.96 -2.95657 -1.65447 0
M  V30 12718 C 1216.52 -3.0696 -2.17836 0
M  V30 12719 C 1215.66 -2.58617 -1.00063 0
M  V30 12720 H 1218.62 -1.58309 -0.11128 0
M  V30 12721 H 1218.64 -2.85263 -2.51804 0
M  V30 12722 H 1218.15 -3.76588 -0.938263 0
M  V30 12723 H 1216.25 -2.30683 -2.92602 0
M  V30 12724 H 1216.36 -4.12599 -2.43513 0
M  V30 12725 H 1214.73 -2.1427 -1.37697 0
M  V30 12726 H 1215.51 -3.41996 -0.298901 0
M  V30 12727 N 1217.95 0.594978 -1.45938 0
M  V30 12728 C 1218.9 1.70489 -1.5557 0
M  V30 12729 C 1219.87 1.61193 -0.400751 0
M  V30 12730 O 1221.06 1.80587 -0.615882 0
M  V30 12731 C 1218.2 3.08817 -1.54033 0
M  V30 12732 C 1217.31 3.28827 -2.80173 0
M  V30 12733 C 1216.44 4.57333 -2.70222 0
M  V30 12734 C 1215.48 4.70644 -3.91357 0
M  V30 12735 N 1214.62 5.90463 -3.79865 0
M  V30 12736 H 1219.46 1.61593 -2.50383 0
M  V30 12737 H 1217 0.787747 -1.24229 0
M  V30 12738 H 1218.96 3.88865 -1.51129 0
M  V30 12739 H 1217.59 3.1664 -0.627617 0
M  V30 12740 H 1216.64 2.42467 -2.9311 0
M  V30 12741 H 1217.95 3.34534 -3.69985 0
M  V30 12742 H 1217.1 5.45593 -2.65354 0
M  V30 12743 H 1215.84 4.54045 -1.7803 0
M  V30 12744 H 1214.85 3.80805 -3.9657 0
M  V30 12745 H 1216.07 4.75721 -4.8463 0
M  V30 12746 H 1214.02 5.88196 -2.90451 0
M  V30 12747 H 1213.94 5.97385 -4.63322 0
M  V30 12748 H 1215.2 6.81187 -3.78952 0
M  V30 12749 N 1219.43 1.33438 0.838571 0
M  V30 12750 C 1220.34 1.25753 1.98049 0
M  V30 12751 C 1221.36 0.168051 1.73187 0
M  V30 12752 O 1222.53 0.391691 1.97554 0
M  V30 12753 C 1219.6 0.997148 3.32051 0
M  V30 12754 C 1218.66 2.17667 3.70027 0
M  V30 12755 C 1217.89 1.92861 4.97635 0
M  V30 12756 O 1218.12 0.879072 5.63585 0
M  V30 12757 O 1217.05 2.79402 5.33121 0
M  V30 12758 H 1220.88 2.21786 2.07472 0
M  V30 12759 H 1218.46 1.13488 0.971645 0
M  V30 12760 H 1220.34 0.869099 4.1234 0
M  V30 12761 H 1219.02 0.0671036 3.2363 0
M  V30 12762 H 1217.93 2.36025 2.90246 0
M  V30 12763 H 1219.26 3.09006 3.83114 0
M  V30 12764 N 1220.91 -1.05686 1.16912 0
M  V30 12765 C 1222.32 -1.60059 0.961153 0
M  V30 12766 C 1222.67 -1.89894 -0.493409 0
M  V30 12767 O 1221.8 -1.67692 -1.36778 0
M  V30 12768 C 1222.39 -2.90803 1.73837 0
M  V30 12769 C 1220.95 -3.41854 1.57522 0
M  V30 12770 C 1220.1 -2.15658 1.74319 0
M  V30 12771 H 1223.05 -0.885592 1.31693 0
M  V30 12772 H 1223.07 -3.60485 1.21781 0
M  V30 12773 H 1222.58 -2.69056 2.79697 0
M  V30 12774 H 1220.68 -3.68647 0.541284 0
M  V30 12775 H 1220.8 -4.16771 2.36302 0
M  V30 12776 H 1219.16 -2.26177 1.17115 0
M  V30 12777 H 1219.94 -1.96386 2.8158 0
M  V30 12778 N 1222.39 -0.968567 -1.24324 0
M  V30 12779 C 1223.32 -0.518323 -2.27674 0
M  V30 12780 C 1224.3 0.442479 -1.64244 0
M  V30 12781 O 1225.48 0.338416 -1.91229 0
M  V30 12782 C 1222.61 0.191459 -3.46772 0
M  V30 12783 C 1221.57 -0.685449 -4.22476 0
M  V30 12784 C 1220.89 0.155873 -5.34473 0
M  V30 12785 C 1222.19 -1.97047 -4.83704 0
M  V30 12786 H 1223.89 -1.38215 -2.65588 0
M  V30 12787 H 1221.43 -0.66604 -1.27671 0
M  V30 12788 H 1223.39 0.517667 -4.18208 0
M  V30 12789 H 1222.11 1.08965 -3.07887 0
M  V30 12790 H 1220.77 -0.994942 -3.52841 0
M  V30 12791 H 1220.42 1.05424 -4.91828 0
M  V30 12792 H 1220.12 -0.427655 -5.86042 0
M  V30 12793 H 1221.64 0.476733 -6.08736 0
M  V30 12794 H 1223.06 -1.70979 -5.4721 0
M  V30 12795 H 1221.45 -2.50079 -5.45509 0
M  V30 12796 H 1222.52 -2.66484 -4.0511 0
M  V30 12797 N 1223.87 1.39211 -0.738786 0
M  V30 12798 C 1225.12 1.99673 -0.285254 0
M  V30 12799 C 1225.43 1.59297 1.13507 0
M  V30 12800 O 1226.63 2.12622 1.68832 0
M  V30 12801 C 1225.09 3.5696 -0.45906 0
M  V30 12802 C 1224.7 4.06297 -1.88751 0
M  V30 12803 C 1226.44 4.24446 -0.0674954 0
M  V30 12804 C 1224.35 5.56171 -2.01067 0
M  V30 12805 H 1223.28 0.746945 -0.102901 0
M  V30 12806 H 1225.93 1.59163 -0.913209 0
M  V30 12807 H 1224.31 3.95285 0.23785 0
M  V30 12808 H 1225.49 3.79297 -2.61669 0
M  V30 12809 H 1223.8 3.51486 -2.23264 0
M  V30 12810 H 1226.4 5.34521 -0.138475 0
M  V30 12811 H 1226.74 4.04653 0.977823 0
M  V30 12812 H 1227.27 3.91309 -0.715704 0
M  V30 12813 H 1224.01 5.80849 -3.03801 0
M  V30 12814 H 1223.53 5.84961 -1.32591 0
M  V30 12815 H 1225.21 6.21642 -1.79362 0
M  V30 12816 N 1225.34 0.486708 1.49896 0
M  V30 12817 C 1226.57 -0.0622999 2.07306 0
M  V30 12818 C 1226.99 -1.31353 1.3464 0
M  V30 12819 O 1226.35 -1.76861 0.398752 0
M  V30 12820 C 1226.4 -0.313481 3.59235 0
M  V30 12821 O 1225.5 -1.39101 3.88233 0
M  V30 12822 H 1224.85 0.0198885 0.663702 0
M  V30 12823 H 1227.38 0.682232 1.92891 0
M  V30 12824 H 1227.39 -0.549302 4.04285 0
M  V30 12825 H 1226.06 0.600767 4.11538 0
M  V30 12826 H 1224.64 -1.14127 3.55006 0
M  V30 12827 N 1226.82 -1.56058 0.219941 0
M  V30 12828 C 1228.07 -1.97869 -0.411383 0
M  V30 12829 C 1228.39 -1.10878 -1.60409 0
M  V30 12830 O 1227.66 -0.185454 -1.9502 0
M  V30 12831 H 1226.24 -0.730747 -0.154979 0
M  V30 12832 H 1228.9 -1.92379 0.312461 0
M  V30 12833 H 1228 -3.0323 -0.738798 0
M  V30 12834 N 1228.3 0.053464 -1.57509 0
M  V30 12835 C 1229.55 0.744867 -1.8927 0
M  V30 12836 C 1229.9 1.74249 -0.815791 0
M  V30 12837 O 1229.2 1.9077 0.178187 0
M  V30 12838 C 1229.39 1.47666 -3.25468 0
M  V30 12839 C 1229.22 0.551427 -4.46306 0
M  V30 12840 C 1227.99 0.181517 -5.04974 0
M  V30 12841 C 1230.19 -0.159765 -5.14052 0
M  V30 12842 N 1228.17 -0.747526 -6.09332 0
M  V30 12843 C 1229.54 -0.94533 -6.12751 0
M  V30 12844 C 1231.59 -0.2293 -4.97372 0
M  V30 12845 C 1230.3 -1.794 -6.96569 0
M  V30 12846 C 1232.32 -1.065 -5.81732 0
M  V30 12847 C 1231.69 -1.83856 -6.79983 0
M  V30 12848 H 1227.78 0.247424 -0.741826 0
M  V30 12849 H 1230.37 0.00570542 -1.94699 0
M  V30 12850 H 1228.54 2.18643 -3.21014 0
M  V30 12851 H 1230.27 2.11852 -3.4482 0
M  V30 12852 H 1227.03 0.538408 -4.7053 0
M  V30 12853 H 1227.45 -1.20583 -6.66175 0
M  V30 12854 H 1232.09 0.354441 -4.21312 0
M  V30 12855 H 1229.81 -2.38864 -7.71991 0
M  V30 12856 H 1233.4 -1.12202 -5.70878 0
M  V30 12857 H 1232.28 -2.47479 -7.44126 0
M  V30 12858 N 1229.78 1.54207 0.325255 0
M  V30 12859 C 1230.71 1.86467 1.40543 0
M  V30 12860 C 1231.69 0.721324 1.54048 0
M  V30 12861 O 1232.88 0.974905 1.67956 0
M  V30 12862 C 1230.01 2.09052 2.77335 0
M  V30 12863 C 1228.96 3.24893 2.78619 0
M  V30 12864 C 1228.29 3.32846 4.1847 0
M  V30 12865 C 1229.59 4.62582 2.42518 0
M  V30 12866 H 1231.28 2.76932 1.13794 0
M  V30 12867 H 1228.83 1.33248 0.545971 0
M  V30 12868 H 1230.78 2.30204 3.52964 0
M  V30 12869 H 1229.5 1.15335 3.05558 0
M  V30 12870 H 1228.16 3.03625 2.05444 0
M  V30 12871 H 1227.81 2.3669 4.43832 0
M  V30 12872 H 1227.51 4.10701 4.20237 0
M  V30 12873 H 1229.03 3.56231 4.95915 0
M  V30 12874 H 1230.45 4.83627 3.07861 0
M  V30 12875 H 1228.84 5.42974 2.55538 0
M  V30 12876 H 1229.91 4.64946 1.3767 0
M  V30 12877 N 1231.26 -0.58723 1.46251 0
M  V30 12878 C 1232.5 -1.3456 1.51327 0
M  V30 12879 C 1232.83 -1.93815 0.163146 0
M  V30 12880 O 1232.09 -1.76723 -0.840677 0
M  V30 12881 C 1232.39 -2.49776 2.5563 0
M  V30 12882 C 1232.05 -2.08543 3.99776 0
M  V30 12883 C 1230.71 -1.97013 4.39021 0
M  V30 12884 C 1233.07 -1.76669 4.90344 0
M  V30 12885 C 1230.39 -1.5186 5.66706 0
M  V30 12886 C 1232.75 -1.32996 6.18462 0
M  V30 12887 C 1231.41 -1.20039 6.56618 0
M  V30 12888 H 1230.68 -0.492391 0.553744 0
M  V30 12889 H 1233.33 -0.661715 1.79704 0
M  V30 12890 H 1231.63 -3.23592 2.20897 0
M  V30 12891 H 1233.33 -3.07995 2.56788 0
M  V30 12892 H 1229.92 -2.18451 3.68751 0
M  V30 12893 H 1234.1 -1.84465 4.60746 0
M  V30 12894 H 1229.36 -1.40467 5.95045 0
M  V30 12895 H 1233.53 -1.07385 6.88071 0
M  V30 12896 H 1231.16 -0.848268 7.55452 0
M  V30 12897 N 1232.74 -1.33881 -0.831482 0
M  V30 12898 C 1233.98 -1.25755 -1.58719 0
M  V30 12899 C 1234.31 0.174746 -1.93713 0
M  V30 12900 O 1233.57 1.13384 -1.59507 0
M  V30 12901 C 1233.86 -2.08544 -2.90249 0
M  V30 12902 C 1233.53 -3.57651 -2.74585 0
M  V30 12903 C 1232.19 -3.983 -2.7002 0
M  V30 12904 C 1234.54 -4.52369 -2.58866 0
M  V30 12905 C 1231.87 -5.31872 -2.47647 0
M  V30 12906 C 1234.22 -5.86112 -2.38025 0
M  V30 12907 C 1232.89 -6.25934 -2.31867 0
M  V30 12908 H 1232.16 -0.460171 -0.580796 0
M  V30 12909 H 1234.81 -1.6554 -0.96274 0
M  V30 12910 H 1233.11 -1.6156 -3.56939 0
M  V30 12911 H 1234.81 -1.99609 -3.47789 0
M  V30 12912 H 1231.4 -3.2538 -2.78973 0
M  V30 12913 H 1235.58 -4.21868 -2.61421 0
M  V30 12914 H 1230.84 -5.61756 -2.41331 0
M  V30 12915 H 1235.01 -6.59103 -2.24847 0
M  V30 12916 H 1232.64 -7.29372 -2.14291 0
M  V30 12917 N 1234.21 1.05064 -1.1747 0
M  V30 12918 C 1235.63 1.30256 -0.922248 0
M  V30 12919 C 1235.83 1.97119 0.417896 0
M  V30 12920 O 1234.89 2.24557 1.15457 0
M  V30 12921 C 1236.2 2.17109 -2.08049 0
M  V30 12922 C 1237.75 2.30487 -2.11766 0
M  V30 12923 C 1238.22 3.20701 -3.26979 0
M  V30 12924 N 1239.71 3.28287 -3.26775 0
M  V30 12925 C 1240.45 3.98218 -4.12565 0
M  V30 12926 N 1239.94 4.70567 -5.08467 0
M  V30 12927 N 1241.74 3.94395 -4.00511 0
M  V30 12928 H 1233.89 0.600653 -2.0373 0
M  V30 12929 H 1236.15 0.327475 -0.889643 0
M  V30 12930 H 1235.86 1.75273 -3.04914 0
M  V30 12931 H 1235.73 3.1775 -2.03261 0
M  V30 12932 H 1238.12 2.71564 -1.15486 0
M  V30 12933 H 1238.2 1.29471 -2.20615 0
M  V30 12934 H 1237.84 2.80337 -4.23525 0
M  V30 12935 H 1237.77 4.21725 -3.15366 0
M  V30 12936 H 1240.26 2.76739 -2.5734 0
M  V30 12937 H 1240.58 5.21492 -5.70321 0
M  V30 12938 H 1238.92 4.69505 -5.12436 0
M  V30 12939 H 1242.11 3.37 -3.24882 0
M  V30 12940 H 1242.29 4.48626 -4.67588 0
M  V30 12941 N 1235.69 0.975146 1.23809 0
M  V30 12942 C 1236.92 0.658023 1.95841 0
M  V30 12943 C 1237.33 -0.778132 1.72458 0
M  V30 12944 O 1236.67 -1.53462 1.00971 0
M  V30 12945 C 1236.73 0.862038 3.49012 0
M  V30 12946 C 1236.4 2.27925 3.96105 0
M  V30 12947 C 1237.4 3.25755 4.05191 0
M  V30 12948 C 1235.08 2.60894 4.29231 0
M  V30 12949 C 1237.07 4.54636 4.46749 0
M  V30 12950 C 1234.76 3.89999 4.70472 0
M  V30 12951 C 1235.76 4.86682 4.79197 0
M  V30 12952 O 1235.45 6.13483 5.19513 0
M  V30 12953 H 1235.18 0.243915 0.630461 0
M  V30 12954 H 1237.73 1.30768 1.58395 0
M  V30 12955 H 1235.96 0.155209 3.86388 0
M  V30 12956 H 1237.65 0.542873 4.02253 0
M  V30 12957 H 1238.42 3.01614 3.79808 0
M  V30 12958 H 1234.3 1.86355 4.21655 0
M  V30 12959 H 1237.84 5.30101 4.53474 0
M  V30 12960 H 1233.74 4.13937 4.95304 0
M  V30 12961 H 1234.51 6.17158 5.37641 0
M  V30 12962 N 1237.17 -1.38817 0.746158 0
M  V30 12963 C 1238.1 -2.28116 0.0620717 0
M  V30 12964 C 1239.08 -1.44984 -0.736097 0
M  V30 12965 O 1240.26 -1.7436 -0.7163 0
M  V30 12966 C 1237.39 -3.25992 -0.919065 0
M  V30 12967 C 1236.44 -4.25992 -0.208033 0
M  V30 12968 S 1237.27 -5.24374 1.08593 0
M  V30 12969 C 1238.43 -6.25807 0.107674 0
M  V30 12970 H 1238.66 -2.85787 0.819331 0
M  V30 12971 H 1236.19 -1.44708 0.538422 0
M  V30 12972 H 1238.15 -3.82899 -1.47982 0
M  V30 12973 H 1236.81 -2.67318 -1.64924 0
M  V30 12974 H 1236 -4.9495 -0.95084 0
M  V30 12975 H 1235.61 -3.72943 0.280998 0
M  V30 12976 H 1237.9 -6.73568 -0.728905 0
M  V30 12977 H 1238.84 -7.03959 0.764698 0
M  V30 12978 H 1239.25 -5.63855 -0.269706 0
M  V30 12979 N 1238.65 -0.49465 -1.49636 0
M  V30 12980 C 1239.61 0.276064 -2.27531 0
M  V30 12981 C 1240.61 0.899619 -1.3328 0
M  V30 12982 O 1241.8 0.765136 -1.56497 0
M  V30 12983 C 1238.93 1.39547 -3.1103 0
M  V30 12984 H 1240.13 -0.407381 -2.9712 0
M  V30 12985 H 1237.68 -0.249416 -1.54297 0
M  V30 12986 H 1238.41 2.11326 -2.45992 0
M  V30 12987 H 1238.2 0.953877 -3.8032 0
M  V30 12988 H 1239.69 1.93853 -3.69879 0
M  V30 12989 N 1240.13 1.55939 -0.228214 0
M  V30 12990 C 1241.37 1.97652 0.402067 0
M  V30 12991 C 1241.69 1.11911 1.60422 0
M  V30 12992 O 1242.89 1.43552 2.30445 0
M  V30 12993 C 1241.35 3.51638 0.766724 0
M  V30 12994 C 1240.96 4.46092 -0.412991 0
M  V30 12995 C 1242.7 4.02049 1.36224 0
M  V30 12996 C 1240.61 5.91394 -0.0255281 0
M  V30 12997 H 1239.54 0.738107 0.153994 0
M  V30 12998 H 1242.19 1.8059 -0.32548 0
M  V30 12999 H 1240.57 3.64325 1.55188 0
M  V30 13000 H 1241.75 4.45156 -1.19049 0
M  V30 13001 H 1240.06 4.0606 -0.92218 0
M  V30 13002 H 1242.66 5.08111 1.66514 0
M  V30 13003 H 1243 3.48292 2.28032 0
M  V30 13004 H 1243.53 3.92612 0.640378 0
M  V30 13005 H 1240.27 6.49149 -0.910269 0
M  V30 13006 H 1239.79 5.95509 0.716149 0
M  V30 13007 H 1241.47 6.4577 0.398839 0
M  V30 13008 N 1241.6 -0.0451101 1.57535 0
M  V30 13009 C 1242.85 -0.737654 1.88157 0
M  V30 13010 C 1243.17 -1.76743 0.823817 0
M  V30 13011 O 1242.44 -1.95366 -0.144503 0
M  V30 13012 H 1241.02 -0.275431 0.694368 0
M  V30 13013 H 1243.69 -0.0148651 1.94894 0
M  V30 13014 H 1242.78 -1.23726 2.86528 0
M  V30 13015 N 1243.08 -1.54377 -0.317073 0
M  V30 13016 C 1244.33 -1.72551 -1.05216 0
M  V30 13017 C 1244.65 -0.5055 -1.88334 0
M  V30 13018 O 1243.92 0.480439 -1.89917 0
M  V30 13019 H 1242.5 -0.636222 -0.391447 0
M  V30 13020 H 1245.16 -1.91696 -0.35194 0
M  V30 13021 H 1244.26 -2.60791 -1.71448 0
M  V30 13022 N 1244.56 0.579466 -1.4656 0
M  V30 13023 C 1245.79 1.36153 -1.55389 0
M  V30 13024 C 1246.2 1.88192 -0.195062 0
M  V30 13025 O 1245.54 1.64464 0.81836 0
M  V30 13026 C 1245.6 2.58269 -2.50075 0
M  V30 13027 C 1245.27 2.27675 -3.96249 0
M  V30 13028 C 1246.26 1.86313 -4.85369 0
M  V30 13029 C 1243.95 2.39719 -4.41407 0
M  V30 13030 C 1245.94 1.57395 -6.17661 0
M  V30 13031 C 1243.63 2.10414 -5.73733 0
M  V30 13032 C 1244.63 1.69317 -6.6168 0
M  V30 13033 O 1244.32 1.40373 -7.9155 0
M  V30 13034 H 1244.05 0.422174 -0.527963 0
M  V30 13035 H 1246.6 0.711089 -1.92698 0
M  V30 13036 H 1244.83 3.26129 -2.0779 0
M  V30 13037 H 1246.52 3.20339 -2.49275 0
M  V30 13038 H 1247.29 1.7652 -4.51736 0
M  V30 13039 H 1243.17 2.70669 -3.73175 0
M  V30 13040 H 1246.71 1.25244 -6.86265 0
M  V30 13041 H 1242.61 2.19833 -6.06913 0
M  V30 13042 H 1243.38 1.54191 -8.03845 0
M  V30 13043 N 1246.04 1.3432 0.824371 0
M  V30 13044 C 1247.28 1.26783 1.58284 0
M  V30 13045 C 1247.62 -0.162282 1.93521 0
M  V30 13046 O 1246.89 -1.1073 1.59903 0
M  V30 13047 C 1247.18 2.15725 2.88331 0
M  V30 13048 C 1247.03 3.67266 2.59684 0
M  V30 13049 C 1248.35 2.04141 3.8989 0
M  V30 13050 H 1245.47 0.461893 0.574303 0
M  V30 13051 H 1248.11 1.64558 0.949769 0
M  V30 13052 H 1246.26 1.83639 3.42358 0
M  V30 13053 H 1247.93 4.09711 2.11978 0
M  V30 13054 H 1246.17 3.88426 1.93151 0
M  V30 13055 H 1246.84 4.24863 3.52414 0
M  V30 13056 H 1249.32 2.3231 3.45212 0
M  V30 13057 H 1248.2 2.68601 4.7869 0
M  V30 13058 H 1248.46 1.01795 4.30221 0
M  V30 13059 N 1247.52 -1.0444 1.18026 0
M  V30 13060 C 1248.76 -1.77224 0.971391 0
M  V30 13061 C 1249.09 -1.88466 -0.500564 0
M  V30 13062 O 1248.36 -1.40692 -1.36317 0
M  V30 13063 H 1246.94 -0.656485 0.356422 0
M  V30 13064 H 1249.6 -1.26064 1.4864 0
M  V30 13065 H 1248.69 -2.78626 1.4062 0
M  V30 13066 N 1248.99 -0.981699 -1.2329 0
M  V30 13067 C 1249.96 -0.527992 -2.23036 0
M  V30 13068 C 1250.96 0.383083 -1.5617 0
M  V30 13069 O 1252.15 0.176595 -1.73303 0
M  V30 13070 C 1249.28 0.233501 -3.40099 0
M  V30 13071 H 1250.47 -1.40995 -2.64689 0
M  V30 13072 H 1248.03 -0.767724 -1.36146 0
M  V30 13073 H 1248.76 1.13194 -3.03904 0
M  V30 13074 H 1248.55 -0.420505 -3.89839 0
M  V30 13075 H 1250.04 0.539485 -4.14101 0
M  V30 13076 N 1250.47 1.3842 -0.753509 0
M  V30 13077 C 1251.44 2.28808 -0.134022 0
M  V30 13078 C 1252.44 1.47184 0.647583 0
M  V30 13079 O 1253.63 1.67631 0.473861 0
M  V30 13080 C 1250.76 3.30926 0.81858 0
M  V30 13081 H 1251.95 2.85097 -0.930586 0
M  V30 13082 H 1249.5 1.47378 -0.520514 0
M  V30 13083 H 1250.24 2.79728 1.64082 0
M  V30 13084 H 1250.02 3.91234 0.260526 0
M  V30 13085 H 1251.51 3.98515 1.24802 0
M  V30 13086 N 1251.95 0.502579 1.49372 0
M  V30 13087 C 1253.18 -0.0381429 2.06865 0
M  V30 13088 C 1253.59 -1.30674 1.36271 0
M  V30 13089 O 1252.95 -1.77078 0.441532 0
M  V30 13090 C 1253 -0.294068 3.60302 0
M  V30 13091 O 1252.72 0.924244 4.2824 0
M  V30 13092 C 1254.22 -0.878253 4.34513 0
M  V30 13093 H 1251.44 0.0211756 0.670666 0
M  V30 13094 H 1253.99 0.700387 1.92132 0
M  V30 13095 H 1252.14 -0.982583 3.74732 0
M  V30 13096 H 1252.56 0.688062 5.19967 0
M  V30 13097 H 1254.03 -1.0069 5.42739 0
M  V30 13098 H 1254.51 -1.87643 3.97098 0
M  V30 13099 H 1255.11 -0.227157 4.24693 0
M  V30 13100 N 1253.43 -1.55816 0.23648 0
M  V30 13101 C 1254.67 -1.98981 -0.391725 0
M  V30 13102 C 1255.01 -1.12428 -1.58346 0
M  V30 13103 O 1254.28 -0.185303 -1.93615 0
M  V30 13104 C 1254.57 -3.50831 -0.811759 0
M  V30 13105 C 1254.42 -4.48152 0.384648 0
M  V30 13106 C 1255.74 -4.07489 -1.66254 0
M  V30 13107 H 1252.86 -0.723404 -0.140911 0
M  V30 13108 H 1255.5 -1.87011 0.335706 0
M  V30 13109 H 1253.65 -3.61162 -1.43157 0
M  V30 13110 H 1255.32 -4.49814 1.02298 0
M  V30 13111 H 1253.56 -4.21406 1.02955 0
M  V30 13112 H 1254.23 -5.51979 0.0475809 0
M  V30 13113 H 1256.71 -4.00195 -1.13944 0
M  V30 13114 H 1255.59 -5.14026 -1.92531 0
M  V30 13115 H 1255.85 -3.55297 -2.6309 0
M  V30 13116 N 1254.91 0.036755 -1.57557 0
M  V30 13117 C 1256.15 0.727665 -1.88546 0
M  V30 13118 C 1256.48 1.76304 -0.833179 0
M  V30 13119 O 1255.75 1.9544 0.13414 0
M  V30 13120 H 1254.33 0.271744 -0.695819 0
M  V30 13121 H 1256.99 0.00452915 -1.94899 0
M  V30 13122 H 1256.08 1.22205 -2.8718 0
M  V30 13123 N 1256.39 1.54543 0.308881 0
M  V30 13124 C 1257.35 1.84214 1.36374 0
M  V30 13125 C 1258.35 0.71463 1.44047 0
M  V30 13126 O 1259.54 0.98293 1.4382 0
M  V30 13127 C 1256.67 2.01535 2.74948 0
M  V30 13128 H 1257.86 2.78477 1.11314 0
M  V30 13129 H 1255.42 1.46485 0.545141 0
M  V30 13130 H 1256.15 1.09533 3.05242 0
M  V30 13131 H 1255.94 2.83595 2.7077 0
M  V30 13132 H 1257.43 2.25888 3.51233 0
M  V30 13133 N 1257.86 -0.571685 1.46866 0
M  V30 13134 C 1258.83 -1.66198 1.57832 0
M  V30 13135 C 1259.83 -1.54242 0.454547 0
M  V30 13136 O 1261.02 -1.58661 0.719191 0
M  V30 13137 C 1258.15 -3.05678 1.5091 0
M  V30 13138 H 1259.34 -1.57829 2.5501 0
M  V30 13139 H 1256.89 -0.790433 1.3484 0
M  V30 13140 H 1257.63 -3.19593 0.550529 0
M  V30 13141 H 1257.41 -3.15765 2.32454 0
M  V30 13142 H 1258.9 -3.85027 1.61692 0
M  V30 13143 N 1259.34 -1.34755 -0.817236 0
M  V30 13144 C 1260.3 -1.26687 -1.91006 0
M  V30 13145 C 1261.3 -0.180745 -1.59781 0
M  V30 13146 O 1262.49 -0.433748 -1.68714 0
M  V30 13147 C 1259.63 -0.957293 -3.27183 0
M  V30 13148 H 1260.82 -2.23846 -1.99582 0
M  V30 13149 H 1258.37 -1.19125 -1.01187 0
M  V30 13150 H 1259.11 0.0108917 -3.24298 0
M  V30 13151 H 1258.89 -1.74297 -3.5123 0
M  V30 13152 H 1260.38 -0.926161 -4.072 0
M  V30 13153 N 1260.82 1.03812 -1.18578 0
M  V30 13154 C 1262.07 1.77447 -0.994191 0
M  V30 13155 C 1262.42 1.86546 0.470974 0
M  V30 13156 O 1261.71 1.3644 1.34517 0
M  V30 13157 C 1261.91 3.20297 -1.5857 0
M  V30 13158 C 1261.74 3.25122 -3.10686 0
M  V30 13159 C 1260.51 3.33604 -3.79521 0
M  V30 13160 C 1262.7 3.12923 -4.08147 0
M  V30 13161 N 1260.69 3.27705 -5.19117 0
M  V30 13162 C 1262.06 3.14553 -5.34281 0
M  V30 13163 C 1264.11 2.96983 -3.99631 0
M  V30 13164 C 1262.82 3.0188 -6.52887 0
M  V30 13165 C 1264.84 2.85657 -5.17836 0
M  V30 13166 C 1264.2 2.87933 -6.42864 0
M  V30 13167 H 1260.3 0.661013 -0.417835 0
M  V30 13168 H 1262.89 1.23648 -1.50397 0
M  V30 13169 H 1261.06 3.72437 -1.10207 0
M  V30 13170 H 1262.79 3.82243 -1.32937 0
M  V30 13171 H 1259.54 3.39442 -3.30266 0
M  V30 13172 H 1259.97 3.28188 -5.92133 0
M  V30 13173 H 1264.61 2.94052 -3.03798 0
M  V30 13174 H 1262.33 3.03563 -7.48916 0
M  V30 13175 H 1265.91 2.74374 -5.1304 0
M  V30 13176 H 1264.79 2.79259 -7.32792 0
M  V30 13177 N 1262.3 0.988223 1.22768 0
M  V30 13178 C 1263.54 0.672085 1.91975 0
M  V30 13179 C 1263.9 -0.786719 1.7558 0
M  V30 13180 O 1263.19 -1.561 1.111 0
M  V30 13181 C 1263.39 1.00744 3.42907 0
M  V30 13182 C 1263.21 2.4973 3.73985 0
M  V30 13183 C 1261.98 3.16058 3.94253 0
M  V30 13184 C 1264.18 3.47831 3.78838 0
M  V30 13185 N 1262.16 4.54568 4.12603 0
M  V30 13186 C 1263.54 4.7178 4.02273 0
M  V30 13187 C 1265.59 3.42203 3.61665 0
M  V30 13188 C 1264.29 5.90789 4.10318 0
M  V30 13189 C 1266.32 4.60584 3.70967 0
M  V30 13190 C 1265.68 5.83331 3.94847 0
M  V30 13191 H 1261.78 0.297129 0.723352 0
M  V30 13192 H 1264.36 1.26728 1.47811 0
M  V30 13193 H 1262.54 0.440869 3.8589 0
M  V30 13194 H 1264.27 0.647774 3.99482 0
M  V30 13195 H 1261.02 2.66536 3.91479 0
M  V30 13196 H 1261.45 5.26399 4.25715 0
M  V30 13197 H 1266.09 2.48323 3.42193 0
M  V30 13198 H 1263.81 6.85078 4.28596 0
M  V30 13199 H 1267.39 4.57813 3.59024 0
M  V30 13200 H 1266.27 6.73403 4.01868 0
M  V30 13201 N 1263.78 -1.38018 0.760839 0
M  V30 13202 C 1265.02 -1.99952 0.320241 0
M  V30 13203 C 1265.35 -1.60397 -1.10014 0
M  V30 13204 O 1264.61 -0.836407 -1.76926 0
M  V30 13205 C 1264.9 -3.55168 0.398778 0
M  V30 13206 C 1264.57 -4.14457 1.77585 0
M  V30 13207 C 1263.23 -4.30363 2.15269 0
M  V30 13208 C 1265.58 -4.47089 2.67883 0
M  V30 13209 C 1262.91 -4.762 3.4271 0
M  V30 13210 C 1265.26 -4.94345 3.94722 0
M  V30 13211 C 1263.93 -5.08458 4.32466 0
M  V30 13212 H 1263.2 -0.731675 0.117185 0
M  V30 13213 H 1265.85 -1.64955 0.972736 0
M  V30 13214 H 1264.15 -3.90346 -0.337273 0
M  V30 13215 H 1265.85 -4.00981 0.0393393 0
M  V30 13216 H 1262.44 -4.02496 1.47292 0
M  V30 13217 H 1266.62 -4.34395 2.40031 0
M  V30 13218 H 1261.88 -4.85312 3.71863 0
M  V30 13219 H 1266.05 -5.18563 4.64828 0
M  V30 13220 H 1263.68 -5.43735 5.31278 0
M  V30 13221 N 1265.25 -0.510493 -1.49103 0
M  V30 13222 C 1266.18 0.251999 -2.32136 0
M  V30 13223 C 1267.16 0.953613 -1.40855 0
M  V30 13224 O 1268.35 0.943178 -1.69758 0
M  V30 13225 C 1265.48 1.31118 -3.21598 0
M  V30 13226 C 1264.43 0.72888 -4.21748 0
M  V30 13227 C 1263.76 1.88928 -5.0021 0
M  V30 13228 C 1265.06 -0.286425 -5.21514 0
M  V30 13229 H 1266.75 -0.441102 -2.96133 0
M  V30 13230 H 1264.3 -0.213577 -1.42407 0
M  V30 13231 H 1266.25 1.8524 -3.78503 0
M  V30 13232 H 1264.98 2.0336 -2.55563 0
M  V30 13233 H 1263.64 0.209336 -3.66002 0
M  V30 13234 H 1263.28 2.59961 -4.30615 0
M  V30 13235 H 1262.98 1.50568 -5.67981 0
M  V30 13236 H 1264.51 2.43465 -5.59962 0
M  V30 13237 H 1265.92 0.166997 -5.73057 0
M  V30 13238 H 1264.32 -0.586361 -5.97228 0
M  V30 13239 H 1265.39 -1.19904 -4.69842 0
M  V30 13240 N 1266.73 1.55688 -0.24474 0
M  V30 13241 C 1267.96 2.02995 0.38425 0
M  V30 13242 C 1268.37 1.12339 1.52239 0
M  V30 13243 O 1267.71 0.129803 1.83241 0
M  V30 13244 C 1267.77 3.46564 0.955701 0
M  V30 13245 C 1267.44 4.56973 -0.0499176 0
M  V30 13246 C 1268.44 5.1276 -0.858682 0
M  V30 13247 C 1266.12 5.01994 -0.175383 0
M  V30 13248 C 1268.11 6.12059 -1.77939 0
M  V30 13249 C 1265.8 6.01126 -1.0996 0
M  V30 13250 C 1266.8 6.56037 -1.90013 0
M  V30 13251 O 1266.49 7.53235 -2.80877 0
M  V30 13252 H 1266.22 0.669189 0.0957212 0
M  V30 13253 H 1268.77 2.02121 -0.36555 0
M  V30 13254 H 1267 3.44581 1.75502 0
M  V30 13255 H 1268.69 3.77383 1.49454 0
M  V30 13256 H 1269.46 4.78811 -0.772325 0
M  V30 13257 H 1265.34 4.58918 0.437644 0
M  V30 13258 H 1268.88 6.54845 -2.40465 0
M  V30 13259 H 1264.78 6.34494 -1.18689 0
M  V30 13260 H 1265.55 7.70844 -2.75214 0
M  V30 13261 N 1268.21 -0.0283989 1.57574 0
M  V30 13262 C 1269.17 -1.01346 2.05576 0
M  V30 13263 C 1270.17 -1.28999 0.960001 0
M  V30 13264 O 1271.36 -1.23991 1.2236 0
M  V30 13265 C 1268.49 -2.34611 2.47327 0
M  V30 13266 H 1269.69 -0.598809 2.93861 0
M  V30 13267 H 1267.24 -0.27524 1.53857 0
M  V30 13268 H 1267.98 -2.80823 1.622 0
M  V30 13269 H 1267.76 -2.1587 3.27326 0
M  V30 13270 H 1269.25 -3.05332 2.84889 0
M  V30 13271 N 1269.69 -1.54705 -0.300681 0
M  V30 13272 C 1270.6 -1.88736 -1.39341 0
M  V30 13273 C 1271.61 -0.78155 -1.5546 0
M  V30 13274 O 1272.79 -1.07804 -1.70118 0
M  V30 13275 C 1269.85 -2.12795 -2.73713 0
M  V30 13276 C 1268.92 -3.36504 -2.66577 0
M  V30 13277 C 1268.15 -3.59407 -3.94541 0
M  V30 13278 O 1268.37 -2.85315 -4.93914 0
M  V30 13279 O 1267.31 -4.52923 -3.96415 0
M  V30 13280 H 1271.13 -2.817 -1.13484 0
M  V30 13281 H 1268.72 -1.40899 -0.496771 0
M  V30 13282 H 1270.6 -2.29819 -3.53215 0
M  V30 13283 H 1269.27 -1.23017 -2.99414 0
M  V30 13284 H 1268.18 -3.24844 -1.85546 0
M  V30 13285 H 1269.51 -4.26414 -2.45829 0
M  V30 13286 N 1271.17 0.563888 -1.47167 0
M  V30 13287 C 1272.44 1.32454 -1.43928 0
M  V30 13288 C 1272.82 2.10683 -0.13267 0
M  V30 13289 O 1272.17 2.1063 0.885845 0
M  V30 13290 C 1272.38 2.2347 -2.68071 0
M  V30 13291 C 1273.73 2.84702 -3.15008 0
M  V30 13292 O 1274.75 2.33775 -2.68752 0
M  V30 13293 O 1273.61 3.77251 -3.95404 0
M  V30 13294 H 1270.71 0.596074 -0.573258 0
M  V30 13295 H 1273.25 0.583345 -1.59359 0
M  V30 13296 H 1272.02 1.6522 -3.54708 0
M  V30 13297 H 1271.65 3.04897 -2.55193 0
M  V30 13298 N 1272.64 1.35187 0.810078 0
M  V30 13299 C 1273.89 1.28011 1.56389 0
M  V30 13300 C 1274.21 -0.14622 1.94451 0
M  V30 13301 O 1273.48 -1.08185 1.63318 0
M  V30 13302 H 1272.06 0.470837 0.579932 0
M  V30 13303 H 1274.73 1.69249 0.966476 0
M  V30 13304 H 1273.82 1.89362 2.4809 0
M  V30 13305 N 1274.12 -1.03182 1.19127 0
M  V30 13306 C 1275.53 -1.57984 0.994888 0
M  V30 13307 C 1275.88 -1.90898 -0.453019 0
M  V30 13308 O 1275.01 -1.70556 -1.33191 0
M  V30 13309 C 1275.6 -2.8705 1.79966 0
M  V30 13310 C 1274.16 -3.38435 1.64737 0
M  V30 13311 C 1273.31 -2.11912 1.78854 0
M  V30 13312 H 1276.26 -0.857458 1.33542 0
M  V30 13313 H 1276.28 -3.57821 1.294 0
M  V30 13314 H 1275.79 -2.63062 2.85341 0
M  V30 13315 H 1273.9 -3.67416 0.619358 0
M  V30 13316 H 1274.01 -4.11665 2.45089 0
M  V30 13317 H 1272.37 -2.23642 1.21886 0
M  V30 13318 H 1273.16 -1.90369 2.85682 0
M  V30 13319 N 1275.6 -0.99472 -1.22242 0
M  V30 13320 C 1276.55 -0.517696 -2.22045 0
M  V30 13321 C 1277.53 0.415108 -1.55453 0
M  V30 13322 O 1278.73 0.241632 -1.75343 0
M  V30 13323 C 1275.86 0.164524 -3.42906 0
M  V30 13324 C 1274.94 -0.788692 -4.16702 0
M  V30 13325 N 1275.33 -1.93729 -4.67229 0
M  V30 13326 C 1273.63 -0.604946 -4.41878 0
M  V30 13327 C 1274.33 -2.53573 -5.23522 0
M  V30 13328 N 1273.31 -1.81825 -5.12289 0
M  V30 13329 H 1277.11 -1.39368 -2.58754 0
M  V30 13330 H 1274.62 -0.857215 -1.37933 0
M  V30 13331 H 1276.62 0.523668 -4.13598 0
M  V30 13332 H 1275.28 1.03662 -3.07708 0
M  V30 13333 H 1276.29 -2.31802 -4.63129 0
M  V30 13334 H 1272.97 0.220932 -4.16915 0
M  V30 13335 H 1274.36 -3.50653 -5.73142 0
M  V30 13336 N 1277.08 1.37613 -0.768148 0
M  V30 13337 C 1278.32 2.00075 -0.331331 0
M  V30 13338 C 1278.66 1.60839 1.08833 0
M  V30 13339 O 1277.93 0.852849 1.74805 0
M  V30 13340 C 1278.22 3.57009 -0.470789 0
M  V30 13341 C 1278.07 4.06166 -1.9326 0
M  V30 13342 C 1279.39 4.39916 0.127111 0
M  V30 13343 H 1276.51 0.726855 -0.121864 0
M  V30 13344 H 1279.15 1.63343 -0.970518 0
M  V30 13345 H 1277.3 3.88431 0.0733688 0
M  V30 13346 H 1278.97 3.85325 -2.53618 0
M  V30 13347 H 1277.21 3.58492 -2.44266 0
M  V30 13348 H 1277.88 5.15219 -1.98125 0
M  V30 13349 H 1280.36 4.14732 -0.337144 0
M  V30 13350 H 1279.24 5.489 -0.000624226 0
M  V30 13351 H 1279.5 4.25018 1.21704 0
M  V30 13352 N 1278.56 0.518393 1.4883 0
M  V30 13353 C 1279.5 -0.264197 2.31095 0
M  V30 13354 C 1280.5 -0.946455 1.40494 0
M  V30 13355 O 1281.7 -0.872161 1.57459 0
M  V30 13356 H 1278.08 -0.104065 0.744765 0
M  V30 13357 H 1280.05 0.449375 2.94997 0
M  V30 13358 C 1278.8 -1.30527 3.2227 0
M  V30 13359 H 1278.12 -0.789695 3.91923 0
M  V30 13360 H 1279.56 -1.82449 3.82738 0
M  V30 13361 C 1278.02 -2.33274 2.43073 0
M  V30 13362 O 1278.55 -3.39493 2.14726 0
M  V30 13363 N 1276.76 -2.06189 2.04779 0
M  V30 13364 H 1276.3 -1.19829 2.28033 0
M  V30 13365 H 1276.26 -2.7516 1.521 0
M  V30 13366 N 1280.03 -1.55556 0.252993 0
M  V30 13367 C 1281.26 -2.03196 -0.37348 0
M  V30 13368 C 1281.67 -1.13145 -1.51641 0
M  V30 13369 O 1281.02 -0.139519 -1.83169 0
M  V30 13370 C 1281.08 -3.47066 -0.937308 0
M  V30 13371 C 1280.74 -4.5694 0.0741513 0
M  V30 13372 C 1281.74 -5.12297 0.885862 0
M  V30 13373 C 1279.42 -5.01894 0.202003 0
M  V30 13374 C 1281.42 -6.11107 1.81182 0
M  V30 13375 C 1279.1 -6.00534 1.13146 0
M  V30 13376 C 1280.1 -6.5502 1.93489 0
M  V30 13377 O 1279.79 -7.51735 2.84868 0
M  V30 13378 H 1279.52 -0.669687 -0.092171 0
M  V30 13379 H 1282.08 -2.01924 0.376264 0
M  V30 13380 H 1280.31 -3.45507 -1.73672 0
M  V30 13381 H 1282 -3.78171 -1.47451 0
M  V30 13382 H 1282.76 -4.78395 0.797707 0
M  V30 13383 H 1278.64 -4.59144 -0.413301 0
M  V30 13384 H 1282.18 -6.53561 2.43935 0
M  V30 13385 H 1278.08 -6.33856 1.22052 0
M  V30 13386 H 1278.85 -7.69373 2.79298 0
M  V30 13387 N 1281.51 0.0200419 -1.57587 0
M  V30 13388 C 1282.74 0.724241 -1.94344 0
M  V30 13389 C 1283.16 1.67612 -0.853688 0
M  V30 13390 O 1282.52 1.80303 0.189873 0
M  V30 13391 C 1282.57 1.44967 -3.30177 0
M  V30 13392 O 1281.67 2.56326 -3.23064 0
M  V30 13393 H 1281.01 0.194142 -0.634984 0
M  V30 13394 H 1283.54 -0.0271756 -2.04582 0
M  V30 13395 H 1283.55 1.81758 -3.65278 0
M  V30 13396 H 1282.23 0.75161 -4.09052 0
M  V30 13397 H 1280.81 2.22011 -2.99609 0
M  V30 13398 N 1282.99 1.54862 0.292472 0
M  V30 13399 C 1283.92 1.82786 1.38282 0
M  V30 13400 C 1284.94 0.711253 1.46441 0
M  V30 13401 O 1286.12 0.988851 1.48607 0
M  V30 13402 C 1283.22 1.95845 2.76582 0
M  V30 13403 C 1282.4 3.2633 2.91252 0
M  V30 13404 C 1281.46 3.29697 4.10105 0
M  V30 13405 O 1280.48 4.03184 4.01785 0
M  V30 13406 N 1281.68 2.557 5.21151 0
M  V30 13407 H 1284.45 2.76891 1.1468 0
M  V30 13408 H 1282.01 1.54541 0.482561 0
M  V30 13409 H 1284 1.95491 3.54352 0
M  V30 13410 H 1282.57 1.08696 2.93094 0
M  V30 13411 H 1281.79 3.39387 2.00525 0
M  V30 13412 H 1283.08 4.12421 2.9797 0
M  V30 13413 H 1282.48 1.95642 5.30792 0
M  V30 13414 H 1281.04 2.61089 5.97223 0
M  V30 13415 N 1284.47 -0.556076 1.47464 0
M  V30 13416 C 1285.4 -1.67275 1.62915 0
M  V30 13417 C 1286.38 -1.63229 0.478562 0
M  V30 13418 O 1287.56 -1.80833 0.708032 0
M  V30 13419 C 1284.69 -3.05911 1.64426 0
M  V30 13420 C 1283.65 -3.24804 2.78722 0
M  V30 13421 C 1282.97 -4.64238 2.65307 0
M  V30 13422 C 1284.27 -3.10071 4.20302 0
M  V30 13423 H 1285.97 -1.54601 2.56396 0
M  V30 13424 H 1283.51 -0.742337 1.23391 0
M  V30 13425 H 1285.47 -3.83878 1.73826 0
M  V30 13426 H 1284.19 -3.19547 0.675053 0
M  V30 13427 H 1282.85 -2.49246 2.68835 0
M  V30 13428 H 1282.5 -4.74675 1.66412 0
M  V30 13429 H 1282.2 -4.77828 3.41986 0
M  V30 13430 H 1283.72 -5.44339 2.76637 0
M  V30 13431 H 1285.14 -3.77855 4.3116 0
M  V30 13432 H 1283.53 -3.3517 4.97776 0
M  V30 13433 H 1284.6 -2.06803 4.38589 0
M  V30 13434 N 1285.95 -1.35615 -0.802897 0
M  V30 13435 C 1287.18 -1.32217 -1.59142 0
M  V30 13436 C 1287.59 0.0995496 -1.88537 0
M  V30 13437 O 1286.95 1.05258 -1.49087 0
M  V30 13438 C 1287 -2.13048 -2.92049 0
M  V30 13439 O 1286.72 -3.49677 -2.63927 0
M  V30 13440 C 1288.22 -2.17278 -3.864 0
M  V30 13441 H 1285.44 -0.454054 -0.49404 0
M  V30 13442 H 1287.98 -1.78521 -0.997516 0
M  V30 13443 H 1286.14 -1.70334 -3.47944 0
M  V30 13444 H 1286.55 -3.917 -3.48814 0
M  V30 13445 H 1288.03 -2.7822 -4.76758 0
M  V30 13446 H 1288.5 -1.17253 -4.23259 0
M  V30 13447 H 1289.11 -2.6017 -3.3644 0
M  V30 13448 N 1287.43 1.02549 -1.19673 0
M  V30 13449 C 1288.38 2.09257 -0.905282 0
M  V30 13450 C 1289.36 1.60363 0.131302 0
M  V30 13451 O 1290.55 1.76842 -0.0748563 0
M  V30 13452 C 1287.68 3.40345 -0.449474 0
M  V30 13453 C 1286.77 3.95964 -1.51899 0
M  V30 13454 N 1287.16 4.25203 -2.73926 0
M  V30 13455 C 1285.46 4.24013 -1.38307 0
M  V30 13456 C 1286.16 4.69925 -3.42849 0
M  V30 13457 N 1285.13 4.71664 -2.70248 0
M  V30 13458 H 1288.93 2.29761 -1.83268 0
M  V30 13459 H 1286.45 1.2044 -1.0894 0
M  V30 13460 H 1288.45 4.16308 -0.222121 0
M  V30 13461 H 1287.11 3.2126 0.471402 0
M  V30 13462 H 1288.12 4.14381 -3.10658 0
M  V30 13463 H 1284.79 4.14174 -0.52592 0
M  V30 13464 H 1286.18 5.01442 -4.4722 0
M  V30 13465 N 1288.9 1.00119 1.21713 0
M  V30 13466 C 1290.15 0.681723 1.9068 0
M  V30 13467 C 1290.48 -0.787121 1.77861 0
M  V30 13468 O 1289.73 -1.58573 1.14687 0
M  V30 13469 C 1290.03 1.04376 3.41819 0
M  V30 13470 C 1289.7 2.50624 3.74831 0
M  V30 13471 C 1288.36 2.90587 3.83552 0
M  V30 13472 C 1290.71 3.45377 3.90339 0
M  V30 13473 C 1288.04 4.24276 4.05225 0
M  V30 13474 C 1290.39 4.78734 4.13517 0
M  V30 13475 C 1289.06 5.18427 4.20464 0
M  V30 13476 H 1288.33 0.24946 0.697747 0
M  V30 13477 H 1290.97 1.25892 1.44304 0
M  V30 13478 H 1289.28 0.384756 3.89906 0
M  V30 13479 H 1290.98 0.774488 3.9345 0
M  V30 13480 H 1287.57 2.18651 3.68632 0
M  V30 13481 H 1291.75 3.15669 3.82971 0
M  V30 13482 H 1287.01 4.54605 4.08833 0
M  V30 13483 H 1291.18 5.52094 4.24459 0
M  V30 13484 H 1288.81 6.22034 4.3701 0
M  V30 13485 N 1290.38 -1.37203 0.775435 0
M  V30 13486 C 1291.31 -2.27933 0.110444 0
M  V30 13487 C 1292.29 -1.46513 -0.705179 0
M  V30 13488 O 1293.48 -1.7584 -0.679154 0
M  V30 13489 C 1290.6 -3.27868 -0.84971 0
M  V30 13490 C 1289.65 -4.26338 -0.117627 0
M  V30 13491 S 1290.48 -5.21952 1.19691 0
M  V30 13492 C 1291.64 -6.25438 0.240393 0
M  V30 13493 H 1291.87 -2.83985 0.879766 0
M  V30 13494 H 1289.4 -1.43533 0.568996 0
M  V30 13495 H 1291.36 -3.85952 -1.39827 0
M  V30 13496 H 1290.02 -2.70756 -1.59217 0
M  V30 13497 H 1289.22 -4.96855 -0.845639 0
M  V30 13498 H 1288.82 -3.72263 0.360041 0
M  V30 13499 H 1291.11 -6.74962 -0.585867 0
M  V30 13500 H 1292.05 -7.02178 0.913846 0
M  V30 13501 H 1292.46 -5.64301 -0.150043 0
M  V30 13502 N 1291.86 -0.526279 -1.48553 0
M  V30 13503 C 1292.79 0.275579 -2.27537 0
M  V30 13504 C 1293.8 0.90782 -1.35139 0
M  V30 13505 O 1294.99 0.786887 -1.6022 0
M  V30 13506 C 1292.09 1.40515 -3.08397 0
M  V30 13507 C 1291.27 0.875523 -4.28548 0
M  V30 13508 C 1290.33 1.88577 -4.91249 0
M  V30 13509 O 1289.35 1.44419 -5.50574 0
M  V30 13510 N 1290.55 3.21774 -4.83158 0
M  V30 13511 H 1293.32 -0.401803 -2.96994 0
M  V30 13512 H 1290.88 -0.360378 -1.57838 0
M  V30 13513 H 1292.87 2.07907 -3.47213 0
M  V30 13514 H 1291.44 1.98626 -2.41384 0
M  V30 13515 H 1290.66 0.025728 -3.94192 0
M  V30 13516 H 1291.95 0.500493 -5.06332 0
M  V30 13517 H 1291.35 3.60319 -4.36104 0
M  V30 13518 H 1289.9 3.84808 -5.26085 0
M  V30 13519 N 1293.34 1.5542 -0.261239 0
M  V30 13520 C 1294.58 2.0119 0.360848 0
M  V30 13521 C 1294.94 1.14558 1.5408 0
M  V30 13522 O 1296.14 1.49846 2.23158 0
M  V30 13523 C 1294.41 3.49513 0.74668 0
M  V30 13524 S 1295.97 4.17281 1.35726 0
M  V30 13525 H 1292.79 0.701978 0.112903 0
M  V30 13526 H 1295.39 1.91775 -0.379829 0
M  V30 13527 H 1294.1 4.10221 -0.121172 0
M  V30 13528 H 1293.63 3.62884 1.51917 0
M  V30 13529 H 1295.64 4.19756 2.64612 0
M  V30 13530 N 1294.82 -0.0116844 1.57596 0
M  V30 13531 C 1296.04 -0.71026 1.94327 0
M  V30 13532 C 1296.46 -1.67952 0.862418 0
M  V30 13533 O 1295.82 -1.818 -0.159698 0
M  V30 13534 C 1295.87 -1.45228 3.31045 0
M  V30 13535 O 1295.59 -0.52191 4.3498 0
M  V30 13536 C 1297.09 -2.24644 3.82165 0
M  V30 13537 H 1294.31 -0.198559 0.640949 0
M  V30 13538 H 1296.85 0.0359615 2.04468 0
M  V30 13539 H 1295.01 -2.15023 3.22248 0
M  V30 13540 H 1295.42 -1.04415 5.14002 0
M  V30 13541 H 1296.9 -2.72078 4.80289 0
M  V30 13542 H 1297.37 -3.06817 3.14261 0
M  V30 13543 H 1297.98 -1.59888 3.94101 0
M  V30 13544 N 1296.29 -1.55015 -0.284256 0
M  V30 13545 C 1297.2 -1.90203 -1.37332 0
M  V30 13546 C 1298.22 -0.797994 -1.54622 0
M  V30 13547 O 1299.4 -1.09602 -1.68965 0
M  V30 13548 C 1296.46 -2.15687 -2.71441 0
M  V30 13549 C 1295.52 -3.39313 -2.62993 0
M  V30 13550 C 1294.75 -3.63571 -3.90707 0
M  V30 13551 O 1294.98 -2.90538 -4.9086 0
M  V30 13552 O 1293.91 -4.57102 -3.91589 0
M  V30 13553 H 1297.74 -2.82888 -1.1049 0
M  V30 13554 H 1295.32 -1.41418 -0.481798 0
M  V30 13555 H 1297.2 -2.33553 -3.50758 0
M  V30 13556 H 1295.88 -1.26185 -2.98092 0
M  V30 13557 H 1294.79 -3.26793 -1.82091 0
M  V30 13558 H 1296.12 -4.28997 -2.41293 0
M  V30 13559 N 1297.77 0.548248 -1.47757 0
M  V30 13560 C 1299.05 1.3092 -1.45325 0
M  V30 13561 C 1299.43 2.1053 -0.155008 0
M  V30 13562 O 1298.78 2.11558 0.863455 0
M  V30 13563 C 1298.99 2.20614 -2.70426 0
M  V30 13564 C 1300.33 2.81345 -3.18009 0
M  V30 13565 O 1301.36 2.30911 -2.71216 0
M  V30 13566 O 1300.22 3.73036 -3.99383 0
M  V30 13567 H 1297.31 0.58996 -0.579548 0
M  V30 13568 H 1299.86 0.56641 -1.59968 0
M  V30 13569 H 1298.63 1.61449 -3.56441 0
M  V30 13570 H 1298.25 3.02173 -2.58413 0
M  V30 13571 N 1299.25 1.36039 0.795694 0
M  V30 13572 C 1300.2 1.29902 1.92946 0
M  V30 13573 C 1301.19 0.191943 1.68309 0
M  V30 13574 O 1302.4 0.358577 1.76392 0
M  V30 13575 H 1298.77 0.404252 0.634101 0
M  V30 13576 H 1300.74 2.25663 1.95241 0
M  V30 13577 C 1299.49 1.09887 3.29879 0
M  V30 13578 H 1298.82 1.94318 3.494 0
M  V30 13579 H 1300.26 1.09638 4.0958 0
M  V30 13580 C 1298.71 -0.196802 3.36325 0
M  V30 13581 O 1299.24 -1.18883 3.83705 0
M  V30 13582 N 1297.45 -0.239325 2.89613 0
M  V30 13583 H 1297 0.568571 2.51247 0
M  V30 13584 H 1296.96 -1.10593 2.94307 0
M  V30 13585 N 1300.73 -1.01913 1.20215 0
M  V30 13586 C 1301.96 -1.79076 1.03631 0
M  V30 13587 C 1302.37 -1.84192 -0.414583 0
M  V30 13588 O 1301.73 -1.29306 -1.28788 0
M  V30 13589 C 1301.78 -3.23665 1.61008 0
M  V30 13590 O 1301.5 -3.18873 3.00419 0
M  V30 13591 C 1303 -4.17387 1.49342 0
M  V30 13592 H 1300.22 -0.563241 0.364692 0
M  V30 13593 H 1302.77 -1.283 1.59246 0
M  V30 13594 H 1300.92 -3.71597 1.09518 0
M  V30 13595 H 1301.33 -4.09609 3.27598 0
M  V30 13596 H 1302.81 -5.16691 1.94253 0
M  V30 13597 H 1303.29 -4.36935 0.445493 0
M  V30 13598 H 1303.89 -3.75335 2.0001 0
M  V30 13599 N 1302.21 -1.00763 -1.2118 0
M  V30 13600 C 1303.16 -0.541218 -2.21483 0
M  V30 13601 C 1304.14 0.398597 -1.55885 0
M  V30 13602 O 1305.33 0.22302 -1.75589 0
M  V30 13603 C 1302.46 0.128145 -3.43061 0
M  V30 13604 C 1301.55 -0.832845 -4.15842 0
M  V30 13605 N 1301.94 -1.98673 -4.65148 0
M  V30 13606 C 1300.24 -0.651779 -4.41212 0
M  V30 13607 C 1300.94 -2.59112 -5.20803 0
M  V30 13608 N 1299.91 -1.87249 -5.10332 0
M  V30 13609 H 1303.72 -1.42105 -2.57262 0
M  V30 13610 H 1301.23 -0.871796 -1.37016 0
M  V30 13611 H 1303.23 0.479771 -4.1413 0
M  V30 13612 H 1301.89 1.00392 -3.0879 0
M  V30 13613 H 1302.9 -2.36701 -4.60644 0
M  V30 13614 H 1299.57 0.1767 -4.17126 0
M  V30 13615 H 1300.96 -3.56713 -5.69391 0
M  V30 13616 N 1303.68 1.3679 -0.7827 0
M  V30 13617 C 1304.93 1.99417 -0.352011 0
M  V30 13618 C 1305.26 1.62127 1.07448 0
M  V30 13619 O 1304.51 0.864449 1.75573 0
M  V30 13620 C 1304.81 3.54489 -0.455232 0
M  V30 13621 C 1304.48 4.11579 -1.84156 0
M  V30 13622 C 1303.14 4.26884 -2.22089 0
M  V30 13623 C 1305.49 4.4277 -2.74962 0
M  V30 13624 C 1302.82 4.70688 -3.50243 0
M  V30 13625 C 1305.17 4.88003 -4.02537 0
M  V30 13626 C 1303.84 5.01513 -4.40501 0
M  V30 13627 H 1303.11 0.729718 -0.12881 0
M  V30 13628 H 1305.75 1.63386 -0.998856 0
M  V30 13629 H 1304.06 3.90833 0.275129 0
M  V30 13630 H 1305.76 4.00867 -0.103127 0
M  V30 13631 H 1302.35 4.00102 -1.53677 0
M  V30 13632 H 1306.53 4.30521 -2.46912 0
M  V30 13633 H 1301.79 4.79335 -3.79537 0
M  V30 13634 H 1305.96 5.11102 -4.73019 0
M  V30 13635 H 1303.59 5.35214 -5.39861 0
M  V30 13636 N 1305.16 0.53415 1.48272 0
M  V30 13637 C 1306.07 -0.230062 2.33469 0
M  V30 13638 C 1307.09 -0.934889 1.46751 0
M  V30 13639 O 1308.26 -0.908921 1.79724 0
M  V30 13640 C 1305.33 -1.2609 3.22958 0
M  V30 13641 C 1304.39 -0.565983 4.25553 0
M  V30 13642 C 1303.62 -1.54771 5.10766 0
M  V30 13643 O 1303.85 -2.7807 4.9803 0
M  V30 13644 O 1302.78 -1.08482 5.92043 0
M  V30 13645 H 1306.61 0.468182 3.0007 0
M  V30 13646 H 1304.19 0.29502 1.46458 0
M  V30 13647 H 1306.07 -1.85652 3.783 0
M  V30 13648 H 1304.75 -1.94148 2.59014 0
M  V30 13649 H 1303.66 0.0702391 3.74034 0
M  V30 13650 H 1304.99 0.0727277 4.92146 0
M  V30 13651 N 1306.64 -1.55279 0.269478 0
M  V30 13652 C 1307.89 -1.99077 -0.348224 0
M  V30 13653 C 1308.21 -1.15925 -1.568 0
M  V30 13654 O 1307.48 -0.247404 -1.94331 0
M  V30 13655 H 1306.06 -0.735307 -0.131653 0
M  V30 13656 H 1308.72 -1.91288 0.373506 0
M  V30 13657 H 1307.82 -3.05427 -0.641953 0
M  V30 13658 N 1308.12 0.00332656 -1.576 0
M  V30 13659 C 1309.37 0.688044 -1.89602 0
M  V30 13660 C 1309.68 1.75121 -0.871316 0
M  V30 13661 O 1310.89 2.49032 -1.08144 0
M  V30 13662 C 1309.34 1.27494 -3.36561 0
M  V30 13663 C 1308.95 0.246771 -4.4732 0
M  V30 13664 C 1310.69 1.93804 -3.77677 0
M  V30 13665 C 1308.6 0.843471 -5.85354 0
M  V30 13666 H 1307.53 0.260747 -0.707479 0
M  V30 13667 H 1310.18 -0.0566727 -1.83412 0
M  V30 13668 H 1308.56 2.07022 -3.37577 0
M  V30 13669 H 1309.74 -0.523668 -4.57815 0
M  V30 13670 H 1308.05 -0.3157 -4.15202 0
M  V30 13671 H 1310.65 2.39347 -4.78139 0
M  V30 13672 H 1310.99 2.7672 -3.11017 0
M  V30 13673 H 1311.53 1.21015 -3.78946 0
M  V30 13674 H 1308.27 0.0531655 -6.55478 0
M  V30 13675 H 1307.79 1.58315 -5.7853 0
M  V30 13676 H 1309.46 1.34311 -6.32906 0
M  V30 13677 N 1309.6 1.55164 0.276031 0
M  V30 13678 C 1310.87 1.66338 1.02913 0
M  V30 13679 C 1311.25 0.527876 2.04393 0
M  V30 13680 O 1310.6 -0.472437 2.23563 0
M  V30 13681 C 1310.81 3.05427 1.68865 0
M  V30 13682 C 1312.16 3.63075 2.2014 0
M  V30 13683 O 1313.18 3.0804 1.78857 0
M  V30 13684 O 1312.04 4.59492 2.95854 0
M  V30 13685 H 1309.14 0.675446 0.477181 0
M  V30 13686 H 1311.68 1.67504 0.272129 0
M  V30 13687 H 1310.45 3.79514 0.953125 0
M  V30 13688 H 1310.08 3.08147 2.5126 0
M  V30 13689 N 1311.07 -0.540404 1.48045 0
M  V30 13690 C 1312.31 -1.30737 1.57121 0
M  V30 13691 C 1312.68 -1.90554 0.23518 0
M  V30 13692 O 1313.88 -2.68048 0.20087 0
M  V30 13693 C 1312.15 -2.37539 2.6704 0
M  V30 13694 S 1313.71 -3.241 2.95812 0
M  V30 13695 H 1310.53 -0.444856 0.554639 0
M  V30 13696 H 1313.13 -0.61683 1.85514 0
M  V30 13697 H 1311.83 -1.92057 3.62688 0
M  V30 13698 H 1311.36 -3.11313 2.40515 0
M  V30 13699 H 1313.38 -4.37393 2.34311 0
M  V30 13700 N 1312.55 -1.36459 -0.788468 0
M  V30 13701 C 1313.46 -1.33017 -1.93245 0
M  V30 13702 C 1314.48 -0.232212 -1.72444 0
M  V30 13703 O 1315.65 -0.464743 -1.95965 0
M  V30 13704 C 1312.72 -1.1197 -3.28121 0
M  V30 13705 C 1311.78 -2.3125 -3.61693 0
M  V30 13706 C 1311.01 -2.11197 -4.90134 0
M  V30 13707 O 1311.24 -1.08764 -5.59934 0
M  V30 13708 O 1310.17 -2.98996 -5.22384 0
M  V30 13709 H 1314 -2.29333 -1.99098 0
M  V30 13710 H 1311.58 -1.17016 -0.928856 0
M  V30 13711 H 1313.46 -1.02154 -4.08831 0
M  V30 13712 H 1312.14 -0.187171 -3.23158 0
M  V30 13713 H 1311.05 -2.46635 -2.81286 0
M  V30 13714 H 1312.38 -3.23012 -3.71381 0
M  V30 13715 N 1314.03 1.01274 -1.20754 0
M  V30 13716 C 1315.28 1.75191 -1.02156 0
M  V30 13717 C 1315.61 1.89038 0.444791 0
M  V30 13718 O 1314.88 1.41903 1.33018 0
M  V30 13719 C 1315.17 3.16892 -1.71031 0
M  V30 13720 C 1315.02 3.10816 -3.25136 0
M  V30 13721 C 1316.34 4.15648 -1.44654 0
M  V30 13722 H 1313.46 0.635922 -0.372521 0
M  V30 13723 H 1316.1 1.18119 -1.48822 0
M  V30 13724 H 1314.25 3.6562 -1.31357 0
M  V30 13725 H 1315.92 2.69863 -3.74128 0
M  V30 13726 H 1314.17 2.48113 -3.5584 0
M  V30 13727 H 1314.84 4.11001 -3.68487 0
M  V30 13728 H 1317.31 3.75592 -1.7908 0
M  V30 13729 H 1316.19 5.12954 -1.95371 0
M  V30 13730 H 1316.45 4.40507 -0.37494 0
M  V30 13731 N 1315.51 1.01404 1.20644 0
M  V30 13732 C 1316.76 0.701909 1.89946 0
M  V30 13733 C 1317.08 -0.768212 1.78686 0
M  V30 13734 O 1316.34 -1.57348 1.16363 0
M  V30 13735 C 1316.64 1.07995 3.40693 0
M  V30 13736 C 1316.3 2.54585 3.72152 0
M  V30 13737 C 1314.97 2.94639 3.80449 0
M  V30 13738 C 1317.32 3.49497 3.86654 0
M  V30 13739 C 1314.65 4.2855 4.00702 0
M  V30 13740 C 1317 4.83093 4.08416 0
M  V30 13741 C 1315.66 5.22857 4.14942 0
M  V30 13742 H 1314.93 0.256847 0.695062 0
M  V30 13743 H 1317.58 1.27415 1.4296 0
M  V30 13744 H 1315.88 0.426089 3.89476 0
M  V30 13745 H 1317.58 0.816176 3.92606 0
M  V30 13746 H 1314.17 2.22548 3.66292 0
M  V30 13747 H 1318.36 3.19713 3.79602 0
M  V30 13748 H 1313.61 4.58916 4.03988 0
M  V30 13749 H 1317.79 5.56565 4.18579 0
M  V30 13750 H 1315.41 6.26634 4.30388 0
M  V30 13751 N 1316.99 -1.36373 0.789944 0
M  V30 13752 C 1317.9 -2.3383 0.189873 0
M  V30 13753 C 1318.91 -1.61068 -0.65827 0
M  V30 13754 O 1320.09 -1.93049 -0.573932 0
M  V30 13755 C 1317.15 -3.40264 -0.664905 0
M  V30 13756 C 1316.22 -4.28825 0.201798 0
M  V30 13757 C 1315.45 -5.30176 -0.612278 0
M  V30 13758 O 1315.67 -5.39627 -1.84821 0
M  V30 13759 O 1314.61 -6.01899 -0.0118964 0
M  V30 13760 H 1318.43 -2.86915 0.995671 0
M  V30 13761 H 1316.02 -1.38852 0.551412 0
M  V30 13762 H 1317.9 -4.05339 -1.15231 0
M  V30 13763 H 1316.57 -2.89478 -1.44858 0
M  V30 13764 H 1315.48 -3.66789 0.735974 0
M  V30 13765 H 1316.81 -4.82965 0.949003 0
M  V30 13766 N 1318.47 -0.542005 -1.47987 0
M  V30 13767 C 1319.43 0.203537 -2.28294 0
M  V30 13768 C 1320.43 0.856762 -1.36074 0
M  V30 13769 O 1321.62 0.71496 -1.58852 0
M  V30 13770 C 1318.75 1.29581 -3.15312 0
M  V30 13771 H 1319.94 -0.501701 -2.95674 0
M  V30 13772 H 1317.5 -0.298378 -1.53426 0
M  V30 13773 H 1318.23 2.03393 -2.5259 0
M  V30 13774 H 1318.02 0.832398 -3.83163 0
M  V30 13775 H 1319.51 1.81988 -3.75859 0
M  V30 13776 N 1319.94 1.55134 -0.277709 0
M  V30 13777 C 1321.35 1.85405 0.219543 0
M  V30 13778 C 1321.71 1.19973 1.55245 0
M  V30 13779 O 1320.83 0.488986 2.10803 0
M  V30 13780 C 1321.43 3.36369 0.405127 0
M  V30 13781 C 1319.98 3.66755 0.846609 0
M  V30 13782 C 1319.13 2.77238 -0.0586063 0
M  V30 13783 H 1322.08 1.50637 -0.499422 0
M  V30 13784 H 1322.1 3.59615 1.24329 0
M  V30 13785 H 1321.62 3.83963 -0.565138 0
M  V30 13786 H 1319.72 3.24662 1.82825 0
M  V30 13787 H 1319.83 4.74219 0.682135 0
M  V30 13788 H 1318.19 2.50546 0.458153 0
M  V30 13789 H 1318.98 3.27647 -1.0248 0
M  V30 13790 N 1321.42 0.00503138 1.57599 0
M  V30 13791 C 1322.33 -1.00097 2.12174 0
M  V30 13792 C 1323.35 -1.37353 1.06818 0
M  V30 13793 O 1324.52 -1.45984 1.38747 0
M  V30 13794 C 1321.59 -2.27252 2.61835 0
M  V30 13795 C 1320.65 -1.96262 3.81811 0
M  V30 13796 C 1319.88 -3.17355 4.29094 0
M  V30 13797 O 1320.11 -4.2921 3.75679 0
M  V30 13798 O 1319.04 -3.01059 5.21198 0
M  V30 13799 H 1322.87 -0.567024 2.9836 0
M  V30 13800 H 1320.45 -0.214109 1.47858 0
M  V30 13801 H 1322.33 -3.01944 2.93952 0
M  V30 13802 H 1321.01 -2.69875 1.78744 0
M  V30 13803 H 1319.91 -1.19031 3.54658 0
M  V30 13804 H 1321.25 -1.58473 4.65991 0
M  V30 13805 N 1322.9 -1.55308 -0.267798 0
M  V30 13806 C 1324.31 -1.66814 -0.838459 0
M  V30 13807 C 1324.66 -0.598609 -1.86845 0
M  V30 13808 O 1323.79 0.25896 -2.14845 0
M  V30 13809 C 1324.38 -3.02408 -1.52758 0
M  V30 13810 C 1322.94 -3.15923 -2.04621 0
M  V30 13811 C 1322.09 -2.62628 -0.890044 0
M  V30 13812 H 1325.04 -1.58639 -0.0440354 0
M  V30 13813 H 1325.06 -2.95687 -2.39478 0
M  V30 13814 H 1324.57 -3.80228 -0.777695 0
M  V30 13815 H 1322.67 -2.42886 -2.82555 0
M  V30 13816 H 1322.79 -4.22556 -2.25794 0
M  V30 13817 H 1321.15 -2.19918 -1.28485 0
M  V30 13818 H 1321.93 -3.42956 -0.153579 0
M  V30 13819 N 1324.38 0.532545 -1.4833 0
M  V30 13820 C 1325.31 1.65392 -1.57229 0
M  V30 13821 C 1326.29 1.57005 -0.422884 0
M  V30 13822 O 1327.47 1.77513 -0.634132 0
M  V30 13823 C 1324.6 3.03778 -1.49789 0
M  V30 13824 C 1323.65 3.30532 -2.69538 0
M  V30 13825 S 1324.48 3.17084 -4.3153 0
M  V30 13826 C 1325.63 4.57921 -4.26684 0
M  V30 13827 H 1325.87 1.57593 -2.52095 0
M  V30 13828 H 1323.4 0.715307 -1.36831 0
M  V30 13829 H 1325.36 3.83589 -1.46183 0
M  V30 13830 H 1324.02 3.0902 -0.562646 0
M  V30 13831 H 1323.21 4.31479 -2.60464 0
M  V30 13832 H 1322.81 2.58386 -2.70393 0
M  V30 13833 H 1325.11 5.49387 -3.96459 0
M  V30 13834 H 1326.05 4.72049 -5.27802 0
M  V30 13835 H 1326.46 4.37123 -3.57188 0
M  V30 13836 N 1325.86 1.36875 0.78122 0
M  V30 13837 C 1327.08 1.34732 1.57019 0
M  V30 13838 C 1327.5 -0.0695423 1.88672 0
M  V30 13839 O 1326.86 -1.02873 1.50743 0
M  V30 13840 C 1326.91 2.17668 2.88623 0
M  V30 13841 O 1326.63 3.53832 2.5833 0
M  V30 13842 C 1328.13 2.23398 3.82895 0
M  V30 13843 H 1325.35 0.461857 0.486754 0
M  V30 13844 H 1327.89 1.80086 0.968989 0
M  V30 13845 H 1326.05 1.75848 3.4519 0
M  V30 13846 H 1326.46 3.972 3.42538 0
M  V30 13847 H 1327.94 2.85769 4.72271 0
M  V30 13848 H 1328.41 1.23972 4.2134 0
M  V30 13849 H 1329.02 2.65489 3.32258 0
M  V30 13850 N 1327.33 -1.00632 1.21289 0
M  V30 13851 C 1328.27 -2.09085 0.914258 0
M  V30 13852 C 1329.24 -1.62016 -0.137697 0
M  V30 13853 O 1330.43 -1.88498 -0.00902131 0
M  V30 13854 C 1327.56 -3.36645 0.37254 0
M  V30 13855 C 1326.6 -4.0262 1.40709 0
M  V30 13856 S 1327.43 -4.45203 2.97582 0
M  V30 13857 C 1328.59 -5.75951 2.45013 0
M  V30 13858 H 1328.82 -2.34094 1.83268 0
M  V30 13859 H 1326.36 -1.13893 1.04248 0
M  V30 13860 H 1328.31 -4.10446 0.0665561 0
M  V30 13861 H 1326.98 -3.09689 -0.524546 0
M  V30 13862 H 1326.17 -4.94427 0.977642 0
M  V30 13863 H 1325.77 -3.35088 1.66108 0
M  V30 13864 H 1328.06 -6.51634 1.85416 0
M  V30 13865 H 1329.01 -6.23706 3.35257 0
M  V30 13866 H 1329.41 -5.32707 1.8677 0
M  V30 13867 N 1328.81 -1.02043 -1.20104 0
M  V30 13868 C 1329.77 -0.598682 -2.21243 0
M  V30 13869 C 1330.77 0.333205 -1.5731 0
M  V30 13870 O 1331.96 0.12137 -1.73777 0
M  V30 13871 C 1329.1 0.125183 -3.4067 0
M  V30 13872 H 1330.29 -1.49345 -2.60069 0
M  V30 13873 H 1327.84 -0.810649 -1.33634 0
M  V30 13874 H 1328.58 1.03469 -3.07351 0
M  V30 13875 H 1328.36 -0.544316 -3.88304 0
M  V30 13876 H 1329.85 0.407469 -4.15607 0
M  V30 13877 N 1330.29 1.35952 -0.797165 0
M  V30 13878 C 1331.22 2.32506 -0.215277 0
M  V30 13879 C 1332.2 1.57023 0.654046 0
M  V30 13880 O 1333.39 1.85139 0.586268 0
M  V30 13881 C 1330.52 3.41266 0.644557 0
M  V30 13882 C 1329.47 4.27816 -0.125501 0
M  V30 13883 C 1328.8 5.27813 0.855428 0
M  V30 13884 C 1330.1 5.05367 -1.31913 0
M  V30 13885 H 1331.79 2.8142 -1.02193 0
M  V30 13886 H 1329.34 1.35303 -0.492862 0
M  V30 13887 H 1331.29 4.07808 1.06163 0
M  V30 13888 H 1330.01 2.90938 1.484 0
M  V30 13889 H 1328.67 3.62841 -0.523639 0
M  V30 13890 H 1328.32 4.73755 1.69011 0
M  V30 13891 H 1328.02 5.86589 0.344566 0
M  V30 13892 H 1329.54 5.97227 1.2709 0
M  V30 13893 H 1330.96 5.64907 -0.977418 0
M  V30 13894 H 1329.36 5.73593 -1.76382 0
M  V30 13895 H 1330.43 4.36558 -2.11057 0
M  V30 13896 N 1331.77 0.549846 1.47697 0
M  V30 13897 C 1332.99 0.0256819 2.07384 0
M  V30 13898 C 1333.42 -1.25525 1.4009 0
M  V30 13899 O 1332.78 -1.7501 0.473406 0
M  V30 13900 C 1332.82 -0.160835 3.60241 0
M  V30 13901 O 1331.93 -1.22509 3.93783 0
M  V30 13902 H 1331.27 0.0480204 0.662261 0
M  V30 13903 H 1333.8 0.763429 1.89823 0
M  V30 13904 H 1333.81 -0.377337 4.06251 0
M  V30 13905 H 1332.48 0.774774 4.0862 0
M  V30 13906 H 1331.06 -0.98967 3.59527 0
M  V30 13907 N 1333.25 -1.54984 0.285932 0
M  V30 13908 C 1334.49 -2.00126 -0.328223 0
M  V30 13909 C 1334.83 -1.17409 -1.54689 0
M  V30 13910 O 1334.1 -0.246806 -1.92928 0
M  V30 13911 C 1334.38 -3.53236 -0.699733 0
M  V30 13912 C 1334.24 -4.46702 0.527029 0
M  V30 13913 C 1335.56 -4.12572 -1.53206 0
M  V30 13914 H 1332.67 -0.727521 -0.117825 0
M  V30 13915 H 1335.32 -1.85848 0.395032 0
M  V30 13916 H 1333.47 -3.65534 -1.31594 0
M  V30 13917 H 1335.14 -4.46332 1.16557 0
M  V30 13918 H 1333.38 -4.17917 1.1631 0
M  V30 13919 H 1334.05 -5.51549 0.223165 0
M  V30 13920 H 1336.53 -4.03618 -1.01154 0
M  V30 13921 H 1335.4 -5.19891 -1.7608 0
M  V30 13922 H 1335.67 -3.63487 -2.51654 0
M  V30 13923 N 1334.72 -0.0133892 -1.57594 0
M  V30 13924 C 1335.65 0.972341 -2.12292 0
M  V30 13925 C 1336.64 1.34971 -1.03522 0
M  V30 13926 O 1337.82 1.4311 -1.31275 0
M  V30 13927 C 1334.95 2.25988 -2.63717 0
M  V30 13928 C 1333.9 2.02373 -3.77133 0
M  V30 13929 C 1333.23 3.37256 -4.14925 0
M  V30 13930 C 1334.53 1.37553 -5.03861 0
M  V30 13931 H 1336.22 0.516869 -2.94905 0
M  V30 13932 H 1333.77 0.247176 -1.41863 0
M  V30 13933 H 1335.72 2.95313 -3.00613 0
M  V30 13934 H 1334.45 2.73672 -1.78244 0
M  V30 13935 H 1333.11 1.3547 -3.40651 0
M  V30 13936 H 1332.75 3.82669 -3.26456 0
M  V30 13937 H 1332.45 3.22267 -4.91343 0
M  V30 13938 H 1333.98 4.07875 -4.5439 0
M  V30 13939 H 1335.39 1.96855 -5.38443 0
M  V30 13940 H 1333.79 1.33011 -5.85174 0
M  V30 13941 H 1334.86 0.346429 -4.83661 0
M  V30 13942 N 1336.2 1.55448 0.259558 0
M  V30 13943 C 1337.45 1.76948 0.990816 0
M  V30 13944 C 1337.78 0.576401 1.85449 0
M  V30 13945 O 1337.06 -0.425693 1.89784 0
M  V30 13946 C 1337.34 3.08221 1.86204 0
M  V30 13947 C 1337.19 4.37909 1.0274 0
M  V30 13948 C 1338.51 3.35627 2.84679 0
M  V30 13949 H 1335.63 0.64377 0.358788 0
M  V30 13950 H 1338.27 1.88182 0.262211 0
M  V30 13951 H 1336.42 2.98775 2.48326 0
M  V30 13952 H 1338.09 4.5933 0.425855 0
M  V30 13953 H 1336.34 4.32533 0.331308 0
M  V30 13954 H 1337.01 5.26116 1.6705 0
M  V30 13955 H 1339.48 3.44954 2.32693 0
M  V30 13956 H 1338.36 4.28719 3.42769 0
M  V30 13957 H 1338.62 2.55921 3.60496 0
M  V30 13958 N 1337.68 -0.524672 1.4861 0
M  V30 13959 C 1338.91 -1.30482 1.60568 0
M  V30 13960 C 1339.32 -1.86889 0.267952 0
M  V30 13961 O 1338.68 -1.66669 -0.743488 0
M  V30 13962 C 1338.73 -2.45191 2.65638 0
M  V30 13963 O 1338.45 -1.91107 3.9422 0
M  V30 13964 C 1339.95 -3.36931 2.88084 0
M  V30 13965 H 1337.17 -0.396612 0.541239 0
M  V30 13966 H 1339.72 -0.632392 1.94476 0
M  V30 13967 H 1337.87 -3.08308 2.34574 0
M  V30 13968 H 1338.29 -2.66234 4.51907 0
M  V30 13969 H 1339.76 -4.13755 3.65391 0
M  V30 13970 H 1340.24 -3.92487 1.97106 0
M  V30 13971 H 1340.84 -2.79601 3.20473 0
M  V30 13972 N 1339.16 -1.37287 -0.77395 0
M  V30 13973 C 1340.41 -1.31698 -1.52769 0
M  V30 13974 C 1340.72 0.0968585 -1.9536 0
M  V30 13975 O 1341.93 0.275205 -2.70102 0
M  V30 13976 C 1340.38 -2.31154 -2.75854 0
M  V30 13977 C 1339.99 -3.78055 -2.40371 0
M  V30 13978 C 1341.73 -2.34572 -3.53803 0
M  V30 13979 C 1339.64 -4.69248 -3.59945 0
M  V30 13980 H 1338.57 -0.489456 -0.573541 0
M  V30 13981 H 1341.22 -1.62735 -0.84791 0
M  V30 13982 H 1339.6 -1.93132 -3.45711 0
M  V30 13983 H 1340.78 -4.24902 -1.78312 0
M  V30 13984 H 1339.09 -3.77562 -1.75602 0
M  V30 13985 H 1341.69 -2.99908 -4.42673 0
M  V30 13986 H 1342.03 -1.35868 -3.93504 0
M  V30 13987 H 1342.57 -2.7129 -2.90941 0
M  V30 13988 H 1339.31 -5.69072 -3.25327 0
M  V30 13989 H 1338.83 -4.27108 -4.21117 0
M  V30 13990 H 1340.5 -4.86275 -4.26785 0
M  V30 13991 N 1340.64 0.999871 -1.21821 0
M  V30 13992 C 1341.55 2.12303 -0.99823 0
M  V30 13993 C 1342.56 1.73924 0.0512923 0
M  V30 13994 O 1343.74 2.00914 -0.139895 0
M  V30 13995 C 1340.8 3.41962 -0.571232 0
M  V30 13996 C 1339.86 3.94483 -1.69356 0
M  V30 13997 C 1339.1 5.17954 -1.28685 0
M  V30 13998 O 1339.32 5.70168 -0.162641 0
M  V30 13999 O 1338.25 5.64051 -2.10071 0
M  V30 14000 H 1342.08 2.3374 -1.93905 0
M  V30 14001 H 1339.67 1.10677 -1.00354 0
M  V30 14002 H 1341.55 4.20001 -0.343134 0
M  V30 14003 H 1340.22 3.21901 0.340814 0
M  V30 14004 H 1339.13 3.17648 -1.97612 0
M  V30 14005 H 1340.46 4.18964 -2.58322 0
M  V30 14006 N 1342.11 1.02678 1.19562 0
M  V30 14007 C 1343.05 0.550355 2.21464 0
M  V30 14008 C 1344.03 -0.407674 1.57406 0
M  V30 14009 O 1345.21 -0.325272 1.85672 0
M  V30 14010 C 1342.34 -0.197777 3.38122 0
M  V30 14011 C 1341.38 0.711362 4.20526 0
M  V30 14012 S 1342.22 2.18636 4.88834 0
M  V30 14013 C 1343.37 1.44868 6.08904 0
M  V30 14014 H 1343.6 1.41377 2.61534 0
M  V30 14015 H 1341.14 0.836535 1.29775 0
M  V30 14016 H 1343.1 -0.62329 4.0574 0
M  V30 14017 H 1341.76 -1.03689 2.96492 0
M  V30 14018 H 1340.95 0.133916 5.03822 0
M  V30 14019 H 1340.55 1.0751 3.58214 0
M  V30 14020 H 1342.84 0.734143 6.73511 0
M  V30 14021 H 1343.79 2.25816 6.71128 0
M  V30 14022 H 1344.19 0.947098 5.56498 0
M  V30 14023 N 1343.59 -1.35528 0.804364 0
M  V30 14024 C 1344.83 -2.00658 0.389299 0
M  V30 14025 C 1345.2 -1.62431 -1.02373 0
M  V30 14026 O 1346.4 -2.20264 -1.54068 0
M  V30 14027 C 1344.67 -3.52913 0.564569 0
M  V30 14028 S 1346.23 -4.38145 0.239597 0
M  V30 14029 H 1343.05 -0.695435 0.147958 0
M  V30 14030 H 1345.65 -1.65156 1.04613 0
M  V30 14031 H 1344.35 -3.78222 1.59299 0
M  V30 14032 H 1343.88 -3.93253 -0.10766 0
M  V30 14033 H 1345.9 -4.86952 -0.953533 0
M  V30 14034 N 1345.07 -0.557671 -1.47404 0
M  V30 14035 C 1346.02 0.202834 -2.31714 0
M  V30 14036 C 1347.01 0.908873 -1.42954 0
M  V30 14037 O 1348.22 0.830106 -1.59716 0
M  V30 14038 H 1344.59 0.0842824 -0.747262 0
M  V30 14039 H 1346.57 -0.527431 -2.93702 0
M  V30 14040 C 1345.31 1.21937 -3.25617 0
M  V30 14041 H 1344.64 0.685506 -3.93879 0
M  V30 14042 H 1346.08 1.72237 -3.87441 0
M  V30 14043 C 1344.54 2.26748 -2.49173 0
M  V30 14044 O 1345.07 3.33681 -2.23651 0
M  V30 14045 N 1343.27 2.00687 -2.10174 0
M  V30 14046 H 1342.82 1.13741 -2.3113 0
M  V30 14047 H 1342.78 2.71031 -1.59342 0
M  V30 14048 N 1346.55 1.54831 -0.294147 0
M  V30 14049 C 1347.51 2.21946 0.572061 0
M  V30 14050 C 1348.51 1.20331 1.06663 0
M  V30 14051 O 1349.7 1.45112 0.963757 0
M  V30 14052 C 1346.83 2.90044 1.7913 0
M  V30 14053 H 1348.03 2.99897 -0.0142234 0
M  V30 14054 H 1345.58 1.56235 -0.0449187 0
M  V30 14055 H 1346.32 2.16154 2.4176 0
M  V30 14056 H 1346.1 3.64527 1.44439 0
M  V30 14057 H 1347.59 3.41263 2.40684 0
M  V30 14058 N 1348.03 0.0217466 1.57585 0
M  V30 14059 C 1348.96 -0.961069 2.12804 0
M  V30 14060 C 1349.94 -1.3442 1.04237 0
M  V30 14061 O 1351.12 -1.42412 1.32032 0
M  V30 14062 C 1348.25 -2.24586 2.64912 0
M  V30 14063 C 1347.21 -2.0037 3.78201 0
M  V30 14064 C 1346.53 -3.35051 4.16708 0
M  V30 14065 C 1347.83 -1.34879 5.04584 0
M  V30 14066 H 1349.53 -0.501222 2.95175 0
M  V30 14067 H 1347.07 -0.239649 1.41992 0
M  V30 14068 H 1349.03 -2.93715 3.02175 0
M  V30 14069 H 1347.75 -2.72723 1.79693 0
M  V30 14070 H 1346.41 -1.33662 3.41365 0
M  V30 14071 H 1346.06 -3.80932 3.28481 0
M  V30 14072 H 1345.76 -3.19656 4.93045 0
M  V30 14073 H 1347.28 -4.05459 4.56547 0
M  V30 14074 H 1348.7 -1.93997 5.3948 0
M  V30 14075 H 1347.09 -1.29906 5.85871 0
M  V30 14076 H 1348.16 -0.320774 4.83838 0
M  V30 14077 N 1349.51 -1.55583 -0.251311 0
M  V30 14078 C 1350.45 -1.90764 -1.33086 0
M  V30 14079 C 1351.45 -0.786236 -1.50049 0
M  V30 14080 O 1352.65 -0.97081 -1.51576 0
M  V30 14081 H 1349.03 -0.605795 -0.445551 0
M  V30 14082 H 1351 -2.80903 -1.00678 0
M  V30 14083 C 1349.75 -2.21499 -2.68018 0
M  V30 14084 H 1349.07 -3.07287 -2.55763 0
M  V30 14085 H 1350.51 -2.50021 -3.42441 0
M  V30 14086 C 1348.97 -1.02983 -3.20774 0
M  V30 14087 O 1349.5 -0.275557 -4.00754 0
M  V30 14088 N 1347.71 -0.821649 -2.78742 0
M  V30 14089 H 1347.25 -1.43672 -2.13813 0
M  V30 14090 H 1347.21 -0.0303445 -3.14385 0
M  V30 14091 N 1350.98 0.516783 -1.48886 0
M  V30 14092 C 1352.21 1.30103 -1.61518 0
M  V30 14093 C 1352.63 1.85996 -0.28055 0
M  V30 14094 O 1351.99 1.65075 0.749671 0
M  V30 14095 C 1352.04 2.41837 -2.67483 0
M  V30 14096 O 1351.14 3.45249 -2.25559 0
M  V30 14097 H 1350.48 0.384774 -0.541152 0
M  V30 14098 H 1353.01 0.620424 -1.94966 0
M  V30 14099 H 1353.02 2.87832 -2.89165 0
M  V30 14100 H 1351.7 2.00519 -3.64369 0
M  V30 14101 H 1350.28 3.05281 -2.14144 0
M  V30 14102 N 1352.46 1.37696 0.766659 0
M  V30 14103 C 1353.39 1.36576 1.89392 0
M  V30 14104 C 1354.37 0.233597 1.68488 0
M  V30 14105 O 1355.56 0.434719 1.89272 0
M  V30 14106 C 1352.69 1.17705 3.26746 0
M  V30 14107 C 1351.64 2.27987 3.62224 0
M  V30 14108 C 1350.97 1.94235 4.98174 0
M  V30 14109 C 1352.27 3.70195 3.68447 0
M  V30 14110 H 1353.96 2.30905 1.90587 0
M  V30 14111 H 1351.51 1.11148 0.915538 0
M  V30 14112 H 1353.46 1.15551 4.05248 0
M  V30 14113 H 1352.18 0.198334 3.25997 0
M  V30 14114 H 1350.84 2.29306 2.86032 0
M  V30 14115 H 1350.49 0.948796 4.93971 0
M  V30 14116 H 1350.19 2.68086 5.2288 0
M  V30 14117 H 1351.72 1.93676 5.7907 0
M  V30 14118 H 1353.13 3.70978 4.37091 0
M  V30 14119 H 1351.53 4.43142 4.04654 0
M  V30 14120 H 1352.6 4.03453 2.68986 0
M  V30 14121 N 1353.94 -0.993397 1.22349 0
M  V30 14122 C 1355.16 -1.77373 1.07488 0
M  V30 14123 C 1355.59 -1.84418 -0.37034 0
M  V30 14124 O 1354.95 -1.29629 -1.26752 0
M  V30 14125 C 1355 -3.18538 1.69014 0
M  V30 14126 O 1354.1 -4.01463 0.943474 0
M  V30 14127 H 1353.44 -0.546209 0.37756 0
M  V30 14128 H 1355.97 -1.24792 1.62136 0
M  V30 14129 H 1355.98 -3.6917 1.73717 0
M  V30 14130 H 1354.66 -3.12725 2.74182 0
M  V30 14131 H 1353.23 -3.59998 0.972415 0
M  V30 14132 N 1355.42 -1.03311 -1.19015 0
M  V30 14133 C 1356.33 -0.627735 -2.26046 0
M  V30 14134 C 1357.34 0.342483 -1.70596 0
M  V30 14135 O 1358.52 0.199307 -2.00411 0
M  V30 14136 C 1355.58 0.0108274 -3.46698 0
M  V30 14137 C 1354.65 -1.00743 -4.17312 0
M  V30 14138 C 1353.88 -0.399245 -5.32205 0
M  V30 14139 O 1354.1 0.796649 -5.64809 0
M  V30 14140 O 1353.04 -1.12419 -5.91308 0
M  V30 14141 H 1356.86 -1.51923 -2.6297 0
M  V30 14142 H 1354.45 -0.803538 -1.25951 0
M  V30 14143 H 1356.33 0.366672 -4.19802 0
M  V30 14144 H 1355 0.876265 -3.11614 0
M  V30 14145 H 1353.91 -1.41494 -3.4631 0
M  V30 14146 H 1355.24 -1.84338 -4.56377 0
M  V30 14147 N 1356.9 1.35099 -0.81154 0
M  V30 14148 C 1357.84 2.31618 -0.213536 0
M  V30 14149 C 1358.84 1.56868 0.63944 0
M  V30 14150 O 1360.04 1.71957 0.532051 0
M  V30 14151 H 1356.42 0.750316 -0.0502963 0
M  V30 14152 H 1358.39 2.79593 -1.04262 0
M  V30 14153 C 1357.14 3.4214 0.619293 0
M  V30 14154 H 1356.46 3.9979 -0.0277192 0
M  V30 14155 H 1357.9 4.11941 1.00401 0
M  V30 14156 C 1356.36 2.85607 1.7869 0
M  V30 14157 O 1356.89 2.7956 2.8846 0
M  V30 14158 N 1355.1 2.42587 1.6 0
M  V30 14159 H 1354.64 2.47705 0.707105 0
M  V30 14160 H 1354.6 2.0511 2.38279 0
M  V30 14161 N 1358.37 0.56548 1.47106 0
M  V30 14162 C 1359.31 -0.215154 2.28188 0
M  V30 14163 C 1360.32 -0.871671 1.37498 0
M  V30 14164 O 1361.51 -0.744131 1.6225 0
M  V30 14165 C 1358.61 -1.32289 3.12014 0
M  V30 14166 C 1357.78 -0.761594 4.30719 0
M  V30 14167 C 1356.84 -1.75486 4.96076 0
M  V30 14168 O 1355.87 -1.29771 5.5421 0
M  V30 14169 N 1357.07 -3.0885 4.9152 0
M  V30 14170 H 1359.83 0.480405 2.95825 0
M  V30 14171 H 1357.39 0.402099 1.56827 0
M  V30 14172 H 1359.39 -1.98628 3.52603 0
M  V30 14173 H 1357.96 -1.92156 2.46566 0
M  V30 14174 H 1357.18 0.078794 3.94121 0
M  V30 14175 H 1358.46 -0.366072 5.07481 0
M  V30 14176 H 1357.86 -3.4863 4.45504 0
M  V30 14177 H 1356.42 -3.70725 5.36103 0
M  V30 14178 N 1359.85 -1.54672 0.302354 0
M  V30 14179 C 1361.08 -2.05041 -0.311891 0
M  V30 14180 C 1361.5 -1.17814 -1.46634 0
M  V30 14181 O 1360.86 -0.182517 -1.80379 0
M  V30 14182 C 1360.91 -3.52831 -0.744489 0
M  V30 14183 O 1360.01 -3.68621 -1.84913 0
M  V30 14184 H 1359.35 -0.661255 -0.0603102 0
M  V30 14185 H 1361.88 -1.99711 0.444593 0
M  V30 14186 H 1361.89 -3.94708 -1.03293 0
M  V30 14187 H 1360.57 -4.1578 0.0999976 0
M  V30 14188 H 1359.15 -3.38649 -1.56113 0
M  V30 14189 N 1361.33 -0.0301034 -1.57571 0
M  V30 14190 C 1362.26 0.94977 -2.13311 0
M  V30 14191 C 1363.24 1.33865 -1.04948 0
M  V30 14192 O 1364.43 1.4171 -1.32786 0
M  V30 14193 C 1361.56 2.23178 -2.66099 0
M  V30 14194 C 1360.51 1.98362 -3.79258 0
M  V30 14195 C 1359.84 3.32836 -4.18479 0
M  V30 14196 C 1361.14 1.32201 -5.05292 0
M  V30 14197 H 1362.83 0.485562 -2.95436 0
M  V30 14198 H 1360.38 0.232116 -1.42117 0
M  V30 14199 H 1362.33 2.92108 -3.03728 0
M  V30 14200 H 1361.05 2.71766 -1.81137 0
M  V30 14201 H 1359.71 1.31849 -3.42069 0
M  V30 14202 H 1359.36 3.79185 -3.30496 0
M  V30 14203 H 1359.06 3.17037 -4.94733 0
M  V30 14204 H 1360.58 4.03032 -4.58691 0
M  V30 14205 H 1362 1.91133 -5.40501 0
M  V30 14206 H 1360.4 1.26797 -5.86551 0
M  V30 14207 H 1361.47 0.29511 -4.84001 0
M  V30 14208 N 1362.81 1.55714 0.243056 0
M  V30 14209 C 1363.74 1.93655 1.30461 0
M  V30 14210 C 1364.72 0.801968 1.50008 0
M  V30 14211 O 1365.9 1.06256 1.62552 0
M  V30 14212 C 1363.03 2.23459 2.65863 0
M  V30 14213 C 1361.99 3.39205 2.61006 0
M  V30 14214 C 1361.31 3.5456 4.00239 0
M  V30 14215 C 1362.61 4.74787 2.17656 0
M  V30 14216 H 1364.31 2.82575 0.98954 0
M  V30 14217 H 1361.85 1.35955 0.474572 0
M  V30 14218 H 1363.81 2.48591 3.40266 0
M  V30 14219 H 1362.53 1.31369 2.99014 0
M  V30 14220 H 1361.19 3.14088 1.89061 0
M  V30 14221 H 1360.84 2.59884 4.30661 0
M  V30 14222 H 1360.54 4.32399 3.97876 0
M  V30 14223 H 1362.06 3.82017 4.76335 0
M  V30 14224 H 1363.48 4.99266 2.81792 0
M  V30 14225 H 1361.87 5.55756 2.26397 0
M  V30 14226 H 1362.94 4.7159 1.12831 0
M  V30 14227 N 1364.29 -0.50888 1.49158 0
M  V30 14228 C 1365.7 -0.839353 1.35746 0
M  V30 14229 C 1365.9 -1.97797 0.38453 0
M  V30 14230 O 1364.96 -2.51809 -0.186651 0
M  V30 14231 C 1366.27 -1.18698 2.76281 0
M  V30 14232 C 1367.82 -1.29565 2.84924 0
M  V30 14233 C 1368.29 -1.67661 4.26209 0
M  V30 14234 N 1369.79 -1.74725 4.28982 0
M  V30 14235 C 1370.52 -2.05631 5.3526 0
M  V30 14236 N 1370.02 -2.34814 6.51793 0
M  V30 14237 N 1371.81 -2.06815 5.2267 0
M  V30 14238 H 1363.96 0.242065 2.11016 0
M  V30 14239 H 1366.22 0.0456901 0.946898 0
M  V30 14240 H 1365.93 -0.423769 3.49138 0
M  V30 14241 H 1365.8 -2.13227 3.11149 0
M  V30 14242 H 1368.19 -2.0496 2.1231 0
M  V30 14243 H 1368.27 -0.331059 2.53649 0
M  V30 14244 H 1367.92 -0.928198 4.99346 0
M  V30 14245 H 1367.85 -2.65207 4.54943 0
M  V30 14246 H 1370.34 -1.54364 3.44935 0
M  V30 14247 H 1370.65 -2.57562 7.28616 0
M  V30 14248 H 1368.99 -2.32288 6.55032 0
M  V30 14249 H 1372.19 -1.83487 4.30639 0
M  V30 14250 H 1372.36 -2.30568 6.05593 0
M  V30 14251 N 1365.76 -1.381 -0.759346 0
M  V30 14252 C 1366.7 -1.29241 -1.88075 0
M  V30 14253 C 1367.68 -0.170526 -1.61703 0
M  V30 14254 O 1368.86 -0.346865 -1.85281 0
M  V30 14255 C 1365.99 -1.00115 -3.23566 0
M  V30 14256 C 1365.03 -2.14161 -3.68832 0
M  V30 14257 S 1365.87 -3.76251 -3.81045 0
M  V30 14258 C 1367.02 -3.49301 -5.19365 0
M  V30 14259 H 1367.25 -2.24152 -1.95303 0
M  V30 14260 H 1364.79 -1.23869 -0.921734 0
M  V30 14261 H 1366.75 -0.839934 -4.01815 0
M  V30 14262 H 1365.41 -0.0693088 -3.14024 0
M  V30 14263 H 1364.6 -1.89313 -4.67094 0
M  V30 14264 H 1364.2 -2.2636 -2.9772 0
M  V30 14265 H 1366.49 -3.05058 -6.04935 0
M  V30 14266 H 1367.44 -4.46935 -5.49231 0
M  V30 14267 H 1367.84 -2.83944 -4.87889 0
M  V30 14268 N 1367.24 0.986894 -1.22875 0
M  V30 14269 C 1368.65 1.54182 -1.05284 0
M  V30 14270 C 1369 1.92448 0.381856 0
M  V30 14271 O 1368.13 1.75381 1.26769 0
M  V30 14272 C 1368.72 2.80173 -1.90496 0
M  V30 14273 C 1367.28 3.32088 -1.77185 0
M  V30 14274 C 1366.43 2.05128 -1.86596 0
M  V30 14275 H 1369.38 0.807304 -1.36632 0
M  V30 14276 H 1369.4 3.52772 -1.42591 0
M  V30 14277 H 1368.91 2.52291 -2.94908 0
M  V30 14278 H 1367.02 3.64864 -0.755295 0
M  V30 14279 H 1367.13 4.02285 -2.60199 0
M  V30 14280 H 1365.49 2.18964 -1.30103 0
M  V30 14281 H 1366.28 1.79635 -2.92551 0
M  V30 14282 N 1368.72 1.0394 1.18466 0
M  V30 14283 C 1370.13 0.77011 1.70077 0
M  V30 14284 C 1370.48 -0.70916 1.82935 0
M  V30 14285 O 1369.61 -1.55209 1.50795 0
M  V30 14286 C 1370.2 1.39132 3.08914 0
M  V30 14287 C 1368.76 1.17037 3.57742 0
M  V30 14288 C 1367.91 1.48279 2.34326 0
M  V30 14289 H 1370.86 1.20598 1.03159 0
M  V30 14290 H 1370.88 0.793861 3.72126 0
M  V30 14291 H 1370.39 2.46795 2.99523 0
M  V30 14292 H 1368.49 0.112435 3.7243 0
M  V30 14293 H 1368.61 1.8665 4.41247 0
M  V30 14294 H 1366.97 0.902438 2.38177 0
M  V30 14295 H 1367.75 2.57047 2.27556 0
M  V30 14296 N 1370.2 -1.34667 0.818693 0
M  V30 14297 C 1371.44 -1.99131 0.414527 0
M  V30 14298 C 1371.8 -1.63747 -1.01018 0
M  V30 14299 O 1371.09 -0.896699 -1.69322 0
M  V30 14300 C 1371.29 -3.53157 0.549059 0
M  V30 14301 C 1371.12 -4.03505 1.98529 0
M  V30 14302 C 1369.89 -4.32296 2.61627 0
M  V30 14303 C 1372.08 -4.2118 2.95147 0
M  V30 14304 N 1370.07 -4.68651 3.96534 0
M  V30 14305 C 1371.44 -4.60668 4.14952 0
M  V30 14306 C 1373.49 -4.03418 2.91819 0
M  V30 14307 C 1372.19 -4.8425 5.31878 0
M  V30 14308 C 1374.22 -4.28164 4.07958 0
M  V30 14309 C 1373.58 -4.67934 5.26514 0
M  V30 14310 H 1369.68 -0.75607 0.199704 0
M  V30 14311 H 1372.27 -1.63154 1.0625 0
M  V30 14312 H 1370.44 -3.88339 -0.0689894 0
M  V30 14313 H 1372.17 -4.04527 0.118304 0
M  V30 14314 H 1368.92 -4.23051 2.12896 0
M  V30 14315 H 1369.35 -4.9107 4.66025 0
M  V30 14316 H 1373.99 -3.71802 2.01303 0
M  V30 14317 H 1371.71 -5.14734 6.22956 0
M  V30 14318 H 1375.29 -4.15961 4.06777 0
M  V30 14319 H 1374.17 -4.86707 6.14887 0
M  V30 14320 N 1371.68 -0.573274 -1.46804 0
M  V30 14321 C 1372.92 -0.0553432 -2.02724 0
M  V30 14322 C 1373.26 1.29753 -1.44492 0
M  V30 14323 O 1372.53 1.84804 -0.606455 0
M  V30 14324 C 1372.81 0.0205511 -3.60094 0
M  V30 14325 C 1372.67 -1.36055 -4.2873 0
M  V30 14326 C 1373.99 0.725944 -4.34071 0
M  V30 14327 H 1371.1 -0.0215858 -0.736684 0
M  V30 14328 H 1373.75 -0.738657 -1.75054 0
M  V30 14329 H 1371.9 0.602481 -3.838 0
M  V30 14330 H 1373.57 -1.98692 -4.16316 0
M  V30 14331 H 1371.81 -1.93087 -3.88458 0
M  V30 14332 H 1372.48 -1.26001 -5.37427 0
M  V30 14333 H 1374.96 0.231677 -4.15455 0
M  V30 14334 H 1373.83 0.74805 -5.43779 0
M  V30 14335 H 1374.1 1.78536 -4.04447 0
M  V30 14336 N 1373.15 1.5451 -0.310553 0
M  V30 14337 C 1374.1 2.25332 0.576928 0
M  V30 14338 C 1375.1 1.26272 1.12924 0
M  V30 14339 O 1376.3 1.44092 1.07878 0
M  V30 14340 H 1372.68 0.723611 0.204674 0
M  V30 14341 H 1374.65 2.98369 -0.0428167 0
M  V30 14342 C 1373.4 3.01455 1.73263 0
M  V30 14343 H 1372.72 3.7749 1.31688 0
M  V30 14344 H 1374.16 3.54276 2.32947 0
M  V30 14345 C 1372.62 2.08984 2.64248 0
M  V30 14346 O 1373.15 1.66414 3.65608 0
M  V30 14347 N 1371.36 1.74742 2.32193 0
M  V30 14348 H 1370.9 2.09558 1.49811 0
M  V30 14349 H 1370.86 1.13148 2.93334 0
M  V30 14350 N 1374.63 0.0384594 1.57553 0
M  V30 14351 C 1375.88 -0.637533 1.91359 0
M  V30 14352 C 1376.2 -1.7275 0.91744 0
M  V30 14353 O 1377.4 -2.46078 1.14709 0
M  V30 14354 C 1375.86 -1.18526 3.39823 0
M  V30 14355 C 1375.47 -0.128086 4.47817 0
M  V30 14356 C 1377.21 -1.83723 3.82683 0
M  V30 14357 C 1375.12 -0.687978 5.87385 0
M  V30 14358 H 1374.05 -0.241898 0.714144 0
M  V30 14359 H 1376.7 0.105281 1.83198 0
M  V30 14360 H 1375.08 -1.97999 3.42947 0
M  V30 14361 H 1376.25 0.644865 4.56265 0
M  V30 14362 H 1374.57 0.425672 4.14219 0
M  V30 14363 H 1377.17 -2.26585 4.84317 0
M  V30 14364 H 1377.51 -2.68377 3.18244 0
M  V30 14365 H 1378.04 -1.10926 3.82021 0
M  V30 14366 H 1374.78 0.120642 6.55389 0
M  V30 14367 H 1374.3 -1.4292 5.82524 0
M  V30 14368 H 1375.98 -1.17483 6.36244 0
M  V30 14369 N 1376.11 -1.55841 -0.234795 0
M  V30 14370 C 1377.36 -1.79415 -0.958219 0
M  V30 14371 C 1377.71 -0.609349 -1.82496 0
M  V30 14372 O 1377.01 0.397051 -1.87441 0
M  V30 14373 C 1377.2 -3.06262 -1.84223 0
M  V30 14374 C 1377.03 -4.36966 -1.06256 0
M  V30 14375 C 1375.8 -4.99509 -0.762795 0
M  V30 14376 C 1378 -5.12463 -0.434262 0
M  V30 14377 N 1375.98 -6.13887 0.0396694 0
M  V30 14378 C 1377.35 -6.19565 0.232209 0
M  V30 14379 C 1379.4 -4.96697 -0.345951 0
M  V30 14380 C 1378.11 -7.12613 0.978527 0
M  V30 14381 C 1380.13 -5.90133 0.386865 0
M  V30 14382 C 1379.5 -6.96651 1.04193 0
M  V30 14383 H 1375.59 -0.708334 -0.331342 0
M  V30 14384 H 1378.18 -1.93334 -0.230254 0
M  V30 14385 H 1376.35 -2.9365 -2.54213 0
M  V30 14386 H 1378.08 -3.18081 -2.50213 0
M  V30 14387 H 1374.84 -4.61178 -1.07757 0
M  V30 14388 H 1375.26 -6.75637 0.429349 0
M  V30 14389 H 1379.9 -4.14411 -0.83806 0
M  V30 14390 H 1377.62 -7.94391 1.4822 0
M  V30 14391 H 1381.21 -5.8001 0.456023 0
M  V30 14392 H 1380.09 -7.67706 1.59992 0
M  V30 14393 N 1377.59 0.500963 -1.49426 0
M  V30 14394 C 1378.52 1.61114 -1.69011 0
M  V30 14395 C 1379.5 1.61341 -0.538813 0
M  V30 14396 O 1380.69 1.78081 -0.77466 0
M  V30 14397 C 1377.82 2.99598 -1.75666 0
M  V30 14398 C 1376.77 3.14236 -2.90585 0
M  V30 14399 C 1376.1 4.54071 -2.82354 0
M  V30 14400 C 1377.4 2.94258 -4.3152 0
M  V30 14401 H 1379.09 1.44978 -2.61957 0
M  V30 14402 H 1376.64 0.69603 -1.26061 0
M  V30 14403 H 1378.59 3.77163 -1.87953 0
M  V30 14404 H 1377.31 3.16822 -0.793186 0
M  V30 14405 H 1375.97 2.39096 -2.779 0
M  V30 14406 H 1375.62 4.68172 -1.83914 0
M  V30 14407 H 1375.32 4.64806 -3.59485 0
M  V30 14408 H 1376.84 5.33696 -2.96649 0
M  V30 14409 H 1378.26 3.61592 -4.44886 0
M  V30 14410 H 1376.65 3.16464 -5.09873 0
M  V30 14411 H 1377.72 1.90383 -4.45962 0
M  V30 14412 N 1379.07 1.38501 0.752011 0
M  V30 14413 C 1380 1.38577 1.87933 0
M  V30 14414 C 1380.98 0.251454 1.68231 0
M  V30 14415 O 1382.16 0.45477 1.888 0
M  V30 14416 C 1379.29 1.21164 3.25479 0
M  V30 14417 C 1378.25 2.31816 3.59785 0
M  V30 14418 C 1377.57 1.99508 4.96085 0
M  V30 14419 C 1378.87 3.74082 3.645 0
M  V30 14420 H 1380.57 2.32913 1.88127 0
M  V30 14421 H 1378.11 1.12113 0.903698 0
M  V30 14422 H 1380.07 1.19842 4.04 0
M  V30 14423 H 1378.79 0.232899 3.25769 0
M  V30 14424 H 1377.45 2.32327 2.83584 0
M  V30 14425 H 1377.1 1.00114 4.92936 0
M  V30 14426 H 1376.8 2.73617 5.20007 0
M  V30 14427 H 1378.32 1.99807 5.76983 0
M  V30 14428 H 1379.74 3.75593 4.33131 0
M  V30 14429 H 1378.13 4.47409 3.99931 0
M  V30 14430 H 1379.2 4.06284 2.64692 0
M  V30 14431 N 1380.55 -0.980364 1.23396 0
M  V30 14432 C 1381.79 -1.71826 1.06397 0
M  V30 14433 C 1382.11 -1.90854 -0.399958 0
M  V30 14434 O 1381.38 -1.47721 -1.28668 0
M  V30 14435 H 1379.96 -0.636669 0.390719 0
M  V30 14436 H 1382.63 -1.18008 1.55113 0
M  V30 14437 H 1381.72 -2.7078 1.55192 0
M  V30 14438 N 1382.02 -1.04567 -1.17913 0
M  V30 14439 C 1383.25 -0.772146 -1.92491 0
M  V30 14440 C 1383.67 0.665297 -1.75942 0
M  V30 14441 O 1383.03 1.46144 -1.07292 0
M  V30 14442 C 1383.08 -1.14966 -3.41782 0
M  V30 14443 O 1382.18 -0.278091 -4.11461 0
M  V30 14444 H 1381.52 -0.283715 -0.600335 0
M  V30 14445 H 1384.05 -1.39685 -1.49496 0
M  V30 14446 H 1384.06 -1.11374 -3.92505 0
M  V30 14447 H 1382.74 -2.1968 -3.53148 0
M  V30 14448 H 1381.32 -0.374073 -3.71019 0
M  V30 14449 N 1383.5 1.34231 -0.825823 0
M  V30 14450 C 1384.75 1.97454 -0.411661 0
M  V30 14451 C 1385.06 1.66193 1.03147 0
M  V30 14452 O 1386.27 2.22929 1.54968 0
M  V30 14453 C 1384.73 3.53318 -0.685145 0
M  V30 14454 C 1384.33 3.9347 -2.14208 0
M  V30 14455 C 1386.08 4.23158 -0.337291 0
M  V30 14456 C 1383.98 5.42258 -2.3603 0
M  V30 14457 H 1382.91 0.738889 -0.150196 0
M  V30 14458 H 1385.57 1.53033 -1.01258 0
M  V30 14459 H 1383.95 3.95998 -0.0140178 0
M  V30 14460 H 1385.12 3.61888 -2.85261 0
M  V30 14461 H 1383.44 3.36575 -2.45165 0
M  V30 14462 H 1386.03 5.32558 -0.47813 0
M  V30 14463 H 1386.38 4.10053 0.718499 0
M  V30 14464 H 1386.91 3.85965 -0.963113 0
M  V30 14465 H 1383.65 5.60352 -3.40126 0
M  V30 14466 H 1383.17 5.75345 -1.69524 0
M  V30 14467 H 1384.85 6.08976 -2.18533 0
M  V30 14468 N 1384.98 0.581051 1.46498 0
M  V30 14469 C 1386.22 0.0686577 2.04285 0
M  V30 14470 C 1386.58 -1.2666 1.44296 0
M  V30 14471 O 1387.78 -1.86813 1.93273 0
M  V30 14472 C 1386.06 0.0021308 3.574 0
M  V30 14473 S 1387.61 -0.452928 4.36456 0
M  V30 14474 H 1384.43 0.0366686 0.710054 0
M  V30 14475 H 1387.03 0.773174 1.79561 0
M  V30 14476 H 1385.74 0.977908 3.98579 0
M  V30 14477 H 1385.27 -0.725207 3.86658 0
M  V30 14478 H 1387.28 -1.708 4.65877 0
M  V30 14479 N 1386.46 -1.54343 0.318742 0
M  V30 14480 C 1387.39 -2.27118 -0.542206 0
M  V30 14481 C 1388.37 -1.27731 -1.12334 0
M  V30 14482 O 1389.55 -1.56535 -1.14937 0
M  V30 14483 C 1386.68 -3.02535 -1.70558 0
M  V30 14484 C 1385.64 -4.09218 -1.25398 0
M  V30 14485 C 1384.96 -4.72449 -2.50391 0
M  V30 14486 C 1386.26 -5.20971 -0.372332 0
M  V30 14487 H 1387.96 -2.9933 0.0648226 0
M  V30 14488 H 1385.5 -1.43963 0.0326168 0
M  V30 14489 H 1387.46 -3.52174 -2.31412 0
M  V30 14490 H 1386.18 -2.27931 -2.33912 0
M  V30 14491 H 1384.84 -3.60455 -0.668392 0
M  V30 14492 H 1384.49 -3.94466 -3.12099 0
M  V30 14493 H 1384.19 -5.4451 -2.20868 0
M  V30 14494 H 1385.71 -5.2486 -3.12016 0
M  V30 14495 H 1387.13 -5.66396 -0.887029 0
M  V30 14496 H 1385.52 -5.99859 -0.17009 0
M  V30 14497 H 1386.59 -4.81198 0.598064 0
M  V30 14498 N 1387.94 -0.0468143 -1.5753 0
M  V30 14499 C 1389.16 0.641161 -1.97241 0
M  V30 14500 C 1389.59 1.6384 -0.92401 0
M  V30 14501 O 1388.94 1.80946 0.113229 0
M  V30 14502 C 1388.99 1.30832 -3.36029 0
M  V30 14503 O 1388.1 2.42394 -3.33645 0
M  V30 14504 H 1387.44 0.167035 -0.642647 0
M  V30 14505 H 1389.97 -0.113921 -2.04283 0
M  V30 14506 H 1389.98 1.66102 -3.72658 0
M  V30 14507 H 1388.65 0.57744 -4.11872 0
M  V30 14508 H 1387.23 2.09104 -3.08756 0
M  V30 14509 N 1389.41 1.55964 0.226527 0
M  V30 14510 C 1390.35 1.87013 1.30772 0
M  V30 14511 C 1391.33 0.727044 1.4544 0
M  V30 14512 O 1392.51 0.974898 1.61332 0
M  V30 14513 C 1389.64 2.07278 2.67869 0
M  V30 14514 C 1388.68 3.29956 2.70243 0
M  V30 14515 S 1389.52 4.86026 2.24808 0
M  V30 14516 C 1390.67 5.09321 3.6379 0
M  V30 14517 H 1390.9 2.78427 1.0424 0
M  V30 14518 H 1388.44 1.48334 0.428525 0
M  V30 14519 H 1390.4 2.19636 3.468 0
M  V30 14520 H 1389.06 1.1667 2.91628 0
M  V30 14521 H 1388.25 3.41164 3.70975 0
M  V30 14522 H 1387.85 3.16429 1.99371 0
M  V30 14523 H 1390.14 4.97914 4.59443 0
M  V30 14524 H 1391.09 6.11227 3.57501 0
M  V30 14525 H 1391.49 4.37076 3.57247 0
M  V30 14526 N 1390.89 -0.493031 1.4969 0
M  V30 14527 C 1392.12 -1.27517 1.63567 0
M  V30 14528 C 1392.54 -1.85526 0.310105 0
M  V30 14529 O 1391.9 -1.66246 -0.723314 0
M  V30 14530 C 1391.95 -2.37551 2.71296 0
M  V30 14531 O 1391.05 -3.41617 2.31023 0
M  V30 14532 H 1390.39 -0.376116 0.547205 0
M  V30 14533 H 1392.92 -0.589328 1.95929 0
M  V30 14534 H 1392.93 -2.83196 2.93708 0
M  V30 14535 H 1391.61 -1.94697 3.67513 0
M  V30 14536 H 1390.19 -3.01836 2.18974 0
M  V30 14537 N 1392.37 -1.38898 -0.744656 0
M  V30 14538 C 1393.3 -1.39571 -1.87195 0
M  V30 14539 C 1394.28 -0.260372 -1.68095 0
M  V30 14540 O 1395.47 -0.464776 -1.88556 0
M  V30 14541 C 1392.6 -1.22889 -3.24832 0
M  V30 14542 C 1391.55 -2.33721 -3.58551 0
M  V30 14543 C 1390.88 -2.02136 -4.9502 0
M  V30 14544 C 1392.18 -3.7601 -3.62511 0
M  V30 14545 H 1393.87 -2.33908 -1.86889 0
M  V30 14546 H 1391.42 -1.12591 -0.897739 0
M  V30 14547 H 1393.37 -1.21983 -4.03359 0
M  V30 14548 H 1392.09 -0.250172 -3.2564 0
M  V30 14549 H 1390.75 -2.33828 -2.82348 0
M  V30 14550 H 1390.4 -1.02726 -4.92399 0
M  V30 14551 H 1390.1 -2.76371 -5.18549 0
M  V30 14552 H 1391.62 -2.02864 -5.75915 0
M  V30 14553 H 1393.04 -3.77885 -4.31133 0
M  V30 14554 H 1391.44 -4.49524 -3.97553 0
M  V30 14555 H 1392.51 -4.07682 -2.62533 0
M  V30 14556 N 1393.85 0.973806 -1.23914 0
M  V30 14557 C 1394.8 2.05229 -0.993221 0
M  V30 14558 C 1395.78 1.60776 0.0631684 0
M  V30 14559 O 1396.97 1.76365 -0.149794 0
M  V30 14560 C 1394.1 3.38132 -0.593421 0
M  V30 14561 C 1393.19 3.89165 -1.68556 0
M  V30 14562 N 1393.58 4.13203 -2.91714 0
M  V30 14563 C 1391.88 4.17765 -1.56167 0
M  V30 14564 C 1392.58 4.54961 -3.62471 0
M  V30 14565 N 1391.56 4.59778 -2.90009 0
M  V30 14566 H 1395.36 2.21781 -1.92848 0
M  V30 14567 H 1392.87 1.15711 -1.1395 0
M  V30 14568 H 1394.87 4.14991 -0.398491 0
M  V30 14569 H 1393.53 3.2297 0.33472 0
M  V30 14570 H 1394.54 4.00832 -3.27954 0
M  V30 14571 H 1391.22 4.11571 -0.701112 0
M  V30 14572 H 1392.61 4.82022 -4.68085 0
M  V30 14573 N 1395.33 1.05191 1.17357 0
M  V30 14574 C 1396.57 0.761984 1.87617 0
M  V30 14575 C 1396.9 -0.710976 1.8104 0
M  V30 14576 O 1396.16 -1.53566 1.21309 0
M  V30 14577 C 1396.46 1.18779 3.37085 0
M  V30 14578 C 1396.12 2.66296 3.63864 0
M  V30 14579 C 1394.78 3.06594 3.70882 0
M  V30 14580 C 1397.14 3.61622 3.75339 0
M  V30 14581 C 1394.46 4.41081 3.86865 0
M  V30 14582 C 1396.82 4.95842 3.9284 0
M  V30 14583 C 1395.48 5.35793 3.98097 0
M  V30 14584 H 1394.75 0.27883 0.686538 0
M  V30 14585 H 1397.4 1.31899 1.38834 0
M  V30 14586 H 1395.7 0.549782 3.87923 0
M  V30 14587 H 1397.4 0.940667 3.89811 0
M  V30 14588 H 1393.99 2.34089 3.59027 0
M  V30 14589 H 1398.17 3.31628 3.69238 0
M  V30 14590 H 1393.43 4.71536 3.89183 0
M  V30 14591 H 1397.6 5.696 4.00661 0
M  V30 14592 H 1395.23 6.40009 4.10234 0
M  V30 14593 N 1396.8 -1.33791 0.83293 0
M  V30 14594 C 1397.73 -2.31853 0.276846 0
M  V30 14595 C 1398.72 -1.58702 -0.612184 0
M  V30 14596 O 1399.9 -1.86629 -0.536975 0
M  V30 14597 C 1397.03 -3.42855 -0.55385 0
M  V30 14598 C 1395.98 -4.27333 0.238884 0
M  V30 14599 C 1395.31 -5.29895 -0.715187 0
M  V30 14600 C 1396.61 -5.01692 1.45265 0
M  V30 14601 H 1398.3 -2.78611 1.09618 0
M  V30 14602 H 1395.85 -1.33949 0.528562 0
M  V30 14603 H 1397.8 -4.10479 -0.953133 0
M  V30 14604 H 1396.53 -2.94771 -1.40634 0
M  V30 14605 H 1395.19 -3.61325 0.619656 0
M  V30 14606 H 1394.83 -4.7807 -1.56391 0
M  V30 14607 H 1394.53 -5.87296 -0.188921 0
M  V30 14608 H 1396.06 -6.00387 -1.11211 0
M  V30 14609 H 1397.47 -5.62117 1.12685 0
M  V30 14610 H 1395.87 -5.68715 1.91528 0
M  V30 14611 H 1396.94 -4.30809 2.22558 0
M  V30 14612 N 1398.28 -0.588812 -1.46187 0
M  V30 14613 C 1399.53 -0.0744093 -2.01563 0
M  V30 14614 C 1399.84 1.29578 -1.46523 0
M  V30 14615 O 1401.05 1.90186 -1.93756 0
M  V30 14616 C 1399.51 -0.082408 -3.59806 0
M  V30 14617 C 1399.11 -1.45129 -4.23842 0
M  V30 14618 C 1400.86 0.377732 -4.22816 0
M  V30 14619 C 1398.77 -1.41668 -5.74181 0
M  V30 14620 H 1397.7 -0.0240481 -0.753616 0
M  V30 14621 H 1400.35 -0.741364 -1.67857 0
M  V30 14622 H 1398.73 0.650832 -3.90615 0
M  V30 14623 H 1399.9 -2.20474 -4.04633 0
M  V30 14624 H 1398.22 -1.85196 -3.7295 0
M  V30 14625 H 1400.81 0.42251 -5.33028 0
M  V30 14626 H 1401.16 1.39655 -3.92176 0
M  V30 14627 H 1401.69 -0.301638 -3.96655 0
M  V30 14628 H 1398.43 -2.4125 -6.09491 0
M  V30 14629 H 1397.95 -0.705524 -5.95636 0
M  V30 14630 H 1399.63 -1.13221 -6.37016 0
M  V30 14631 N 1399.76 1.54172 -0.326923 0
M  V30 14632 C 1400.69 2.27402 0.530154 0
M  V30 14633 C 1401.67 1.28325 1.11655 0
M  V30 14634 O 1402.86 1.57142 1.14105 0
M  V30 14635 C 1399.99 3.03435 1.68951 0
M  V30 14636 C 1398.94 4.09877 1.23226 0
M  V30 14637 C 1398.27 4.7377 2.47882 0
M  V30 14638 C 1399.57 5.21161 0.344698 0
M  V30 14639 H 1401.26 2.99291 -0.0806959 0
M  V30 14640 H 1398.81 1.43944 -0.0402511 0
M  V30 14641 H 1400.76 3.53396 2.29541 0
M  V30 14642 H 1399.48 2.29169 2.327 0
M  V30 14643 H 1398.14 3.60805 0.649267 0
M  V30 14644 H 1397.79 3.96116 3.10002 0
M  V30 14645 H 1397.49 5.45674 2.17977 0
M  V30 14646 H 1399.01 5.26507 3.09229 0
M  V30 14647 H 1400.43 5.66859 0.856979 0
M  V30 14648 H 1398.83 5.99941 0.138276 0
M  V30 14649 H 1399.9 4.80874 -0.623575 0
M  V30 14650 N 1401.24 0.0551678 1.57503 0
M  V30 14651 C 1402.47 -0.626291 1.96879 0
M  V30 14652 C 1402.88 -1.64677 0.93156 0
M  V30 14653 O 1402.22 -1.83469 -0.0921632 0
M  V30 14654 C 1402.28 -1.36674 3.32506 0
M  V30 14655 C 1401.95 -0.501632 4.54239 0
M  V30 14656 C 1402.94 0.233939 5.19373 0
M  V30 14657 C 1400.63 -0.431385 5.00444 0
M  V30 14658 C 1402.62 1.02815 6.29053 0
M  V30 14659 C 1400.31 0.366514 6.1 0
M  V30 14660 C 1401.31 1.09497 6.74166 0
M  V30 14661 O 1400.99 1.87974 7.81614 0
M  V30 14662 H 1400.73 -0.175738 0.652757 0
M  V30 14663 H 1403.28 0.11909 2.05054 0
M  V30 14664 H 1401.51 -2.15783 3.20896 0
M  V30 14665 H 1403.2 -1.93882 3.56602 0
M  V30 14666 H 1403.97 0.189161 4.84631 0
M  V30 14667 H 1399.84 -0.98798 4.50289 0
M  V30 14668 H 1403.39 1.59724 6.79068 0
M  V30 14669 H 1399.29 0.412916 6.44178 0
M  V30 14670 H 1400.05 1.80228 7.98411 0
M  V30 14671 N 1402.72 -1.56081 -0.218252 0
M  V30 14672 C 1403.96 -1.79513 -0.943553 0
M  V30 14673 C 1404.3 -0.625367 -1.83855 0
M  V30 14674 O 1403.57 0.375226 -1.90846 0
M  V30 14675 C 1403.85 -3.13049 -1.77967 0
M  V30 14676 C 1403.71 -4.40479 -0.910939 0
M  V30 14677 C 1405.03 -3.43057 -2.7568 0
M  V30 14678 H 1402.14 -0.653057 -0.341593 0
M  V30 14679 H 1404.79 -1.88811 -0.212226 0
M  V30 14680 H 1402.94 -3.05254 -2.40318 0
M  V30 14681 H 1404.61 -4.60298 -0.303922 0
M  V30 14682 H 1402.85 -4.33259 -0.216513 0
M  V30 14683 H 1403.52 -5.3036 -1.53042 0
M  V30 14684 H 1406 -3.51002 -2.23465 0
M  V30 14685 H 1404.87 -4.37657 -3.31282 0
M  V30 14686 H 1405.14 -2.65389 -3.53584 0
M  V30 14687 N 1404.2 0.485086 -1.49949 0
M  V30 14688 C 1405.47 1.24639 -1.50747 0
M  V30 14689 C 1405.85 2.09683 -0.244162 0
M  V30 14690 O 1405.2 2.1503 0.772949 0
M  V30 14691 C 1405.41 2.08946 -2.7954 0
M  V30 14692 C 1406.76 2.67604 -3.29656 0
M  V30 14693 O 1407.78 2.192 -2.80766 0
M  V30 14694 O 1406.64 3.55761 -4.14845 0
M  V30 14695 H 1403.74 0.564849 -0.604049 0
M  V30 14696 H 1406.28 0.498052 -1.62227 0
M  V30 14697 H 1405.05 1.46185 -3.62968 0
M  V30 14698 H 1404.68 2.90941 -2.70997 0
M  V30 14699 N 1405.67 1.39291 0.737279 0
M  V30 14700 C 1407.08 1.32489 1.31543 0
M  V30 14701 C 1407.44 -0.0118162 1.96196 0
M  V30 14702 O 1406.56 -0.913938 1.96153 0
M  V30 14703 C 1407.16 2.39946 2.39189 0
M  V30 14704 C 1405.71 2.36671 2.92684 0
M  V30 14705 C 1404.86 2.21953 1.66229 0
M  V30 14706 H 1407.81 1.49412 0.534954 0
M  V30 14707 H 1407.83 2.06603 3.19524 0
M  V30 14708 H 1407.35 3.3722 1.92104 0
M  V30 14709 H 1405.45 1.43028 3.44055 0
M  V30 14710 H 1405.56 3.31441 3.45953 0
M  V30 14711 H 1403.92 1.69087 1.90478 0
M  V30 14712 H 1404.71 3.21194 1.21199 0
M  V30 14713 N 1407.15 -0.967221 1.24429 0
M  V30 14714 C 1408.08 -2.07966 1.06172 0
M  V30 14715 C 1409.06 -1.70081 -0.0254566 0
M  V30 14716 O 1410.25 -1.93682 0.141705 0
M  V30 14717 C 1407.38 -3.4085 0.666251 0
M  V30 14718 C 1406.33 -3.92692 1.70225 0
M  V30 14719 C 1405.66 -5.21925 1.16183 0
M  V30 14720 C 1406.96 -4.20478 3.09831 0
M  V30 14721 H 1408.65 -2.23497 1.99222 0
M  V30 14722 H 1406.2 -1.07398 0.959255 0
M  V30 14723 H 1408.15 -4.1811 0.52552 0
M  V30 14724 H 1406.87 -3.2522 -0.299939 0
M  V30 14725 H 1405.53 -3.17588 1.83121 0
M  V30 14726 H 1405.18 -5.02655 0.186237 0
M  V30 14727 H 1404.88 -5.57579 1.85416 0
M  V30 14728 H 1406.41 -6.01795 1.03323 0
M  V30 14729 H 1407.82 -4.88442 3.00162 0
M  V30 14730 H 1406.22 -4.67362 3.7642 0
M  V30 14731 H 1407.29 -3.27235 3.57834 0
M  V30 14732 N 1408.63 -1.05812 -1.16797 0
M  V30 14733 C 1410.04 -0.79707 -1.6883 0
M  V30 14734 C 1410.39 0.679967 -1.8404 0
M  V30 14735 O 1409.52 1.5279 -1.53245 0
M  V30 14736 C 1410.11 -1.44029 -3.06661 0
M  V30 14737 C 1408.67 -1.22714 -3.55835 0
M  V30 14738 C 1407.82 -1.51988 -2.31937 0
M  V30 14739 H 1410.77 -1.22224 -1.01227 0
M  V30 14740 H 1410.79 -0.852962 -3.70816 0
M  V30 14741 H 1410.3 -2.51529 -2.95559 0
M  V30 14742 H 1408.4 -0.171671 -3.72204 0
M  V30 14743 H 1408.52 -1.93646 -4.38221 0
M  V30 14744 H 1406.88 -0.940215 -2.36711 0
M  V30 14745 H 1407.66 -2.60635 -2.23438 0
M  V30 14746 N 1410.11 1.33347 -0.840014 0
M  V30 14747 C 1411.04 2.27146 -0.219068 0
M  V30 14748 C 1412.02 1.4971 0.634472 0
M  V30 14749 O 1413.2 1.7888 0.594485 0
M  V30 14750 C 1410.33 3.31549 0.692312 0
M  V30 14751 C 1409.38 4.26413 -0.0859186 0
M  V30 14752 S 1410.21 5.15647 -1.44458 0
M  V30 14753 C 1411.36 6.23579 -0.538524 0
M  V30 14754 H 1411.6 2.79464 -1.01426 0
M  V30 14755 H 1409.13 1.40655 -0.636829 0
M  V30 14756 H 1411.09 3.92183 1.21254 0
M  V30 14757 H 1409.75 2.78044 1.46117 0
M  V30 14758 H 1408.94 5.00324 0.60762 0
M  V30 14759 H 1408.54 3.70121 -0.537243 0
M  V30 14760 H 1410.84 6.76989 0.263167 0
M  V30 14761 H 1411.78 6.97019 -1.24782 0
M  V30 14762 H 1412.19 5.64374 -0.119363 0
M  V30 14763 N 1411.59 0.596556 1.45873 0
M  V30 14764 C 1412.83 0.0850976 2.0152 0
M  V30 14765 C 1413.15 -1.28799 1.47208 0
M  V30 14766 O 1414.35 -1.89156 1.94762 0
M  V30 14767 C 1412.81 0.101488 3.59757 0
M  V30 14768 C 1412.42 1.47374 4.23066 0
M  V30 14769 C 1414.16 -0.355303 4.2301 0
M  V30 14770 C 1412.07 1.44711 5.73422 0
M  V30 14771 H 1411 0.0280444 0.753478 0
M  V30 14772 H 1413.65 0.750255 1.67462 0
M  V30 14773 H 1412.03 -0.630108 3.90955 0
M  V30 14774 H 1413.21 2.22617 4.03458 0
M  V30 14775 H 1411.52 1.87171 3.71962 0
M  V30 14776 H 1414.12 -0.394236 5.33245 0
M  V30 14777 H 1414.46 -1.37573 3.92911 0
M  V30 14778 H 1414.99 0.32267 3.96489 0
M  V30 14779 H 1411.73 2.44479 6.08203 0
M  V30 14780 H 1411.25 0.737102 5.95254 0
M  V30 14781 H 1412.93 1.16598 6.36407 0
M  V30 14782 N 1413.06 -1.53996 0.335095 0
M  V30 14783 C 1414.31 -2.00772 -0.263997 0
M  V30 14784 C 1414.64 -1.22309 -1.51231 0
M  V30 14785 O 1413.89 -0.296427 -1.93442 0
M  V30 14786 C 1414.19 -3.51769 -0.631907 0
M  V30 14787 C 1413.86 -4.47908 0.518553 0
M  V30 14788 C 1412.52 -4.73912 0.834297 0
M  V30 14789 C 1414.87 -5.04964 1.29078 0
M  V30 14790 C 1412.2 -5.54228 1.92478 0
M  V30 14791 C 1414.55 -5.86469 2.37144 0
M  V30 14792 C 1413.22 -6.1077 2.69288 0
M  V30 14793 H 1412.49 -0.734676 -0.0966033 0
M  V30 14794 H 1415.13 -1.85862 0.46126 0
M  V30 14795 H 1413.44 -3.64466 -1.43776 0
M  V30 14796 H 1415.14 -3.85412 -1.10719 0
M  V30 14797 H 1411.73 -4.27796 0.262392 0
M  V30 14798 H 1415.91 -4.84846 1.0601 0
M  V30 14799 H 1411.17 -5.71285 2.17816 0
M  V30 14800 H 1415.34 -6.29695 2.97417 0
M  V30 14801 H 1412.97 -6.72792 3.53913 0
M  V30 14802 N 1414.54 -0.0635198 -1.57472 0
M  V30 14803 C 1415.49 0.906604 -2.12248 0
M  V30 14804 C 1416.46 1.30078 -1.0329 0
M  V30 14805 O 1417.64 1.38809 -1.30907 0
M  V30 14806 C 1414.78 2.1718 -2.68192 0
M  V30 14807 C 1413.9 1.831 -3.91278 0
M  V30 14808 C 1413.03 3.0417 -4.35493 0
M  V30 14809 C 1412.07 2.66069 -5.51248 0
M  V30 14810 N 1411.21 3.79871 -5.9046 0
M  V30 14811 H 1416.05 0.432606 -2.94843 0
M  V30 14812 H 1413.58 0.201895 -1.45708 0
M  V30 14813 H 1415.54 2.91231 -2.98732 0
M  V30 14814 H 1414.17 2.62135 -1.88375 0
M  V30 14815 H 1413.22 0.991473 -3.67252 0
M  V30 14816 H 1414.54 1.51063 -4.75375 0
M  V30 14817 H 1413.69 3.86507 -4.6765 0
M  V30 14818 H 1412.43 3.39395 -3.50232 0
M  V30 14819 H 1411.43 1.82151 -5.1875 0
M  V30 14820 H 1412.66 2.32023 -6.38234 0
M  V30 14821 H 1410.61 4.14873 -5.0815 0
M  V30 14822 H 1410.52 3.51573 -6.69277 0
M  V30 14823 H 1411.79 4.62811 -6.27237 0
M  V30 14824 N 1416.02 1.56195 0.209972 0
M  V30 14825 C 1416.95 1.96378 1.26324 0
M  V30 14826 C 1417.93 0.833606 1.48273 0
M  V30 14827 O 1419.12 1.0968 1.60262 0
M  V30 14828 C 1416.25 2.29048 2.61064 0
M  V30 14829 C 1415.2 3.44665 2.53752 0
M  V30 14830 C 1414.53 3.6297 3.92628 0
M  V30 14831 C 1415.83 4.79297 2.07536 0
M  V30 14832 H 1417.52 2.8461 0.929379 0
M  V30 14833 H 1415.07 1.36931 0.445627 0
M  V30 14834 H 1417.02 2.55752 3.34916 0
M  V30 14835 H 1415.74 1.37682 2.96161 0
M  V30 14836 H 1414.4 3.18028 1.82356 0
M  V30 14837 H 1414.05 2.68961 4.25052 0
M  V30 14838 H 1413.75 4.40741 3.88614 0
M  V30 14839 H 1415.27 3.92035 4.68125 0
M  V30 14840 H 1416.69 5.05131 2.71138 0
M  V30 14841 H 1415.08 5.60433 2.14557 0
M  V30 14842 H 1416.15 4.73877 1.02802 0
M  V30 14843 N 1417.5 -0.477127 1.50204 0
M  V30 14844 C 1418.91 -0.81037 1.37496 0
M  V30 14845 C 1419.11 -1.96937 0.426399 0
M  V30 14846 O 1418.17 -2.52148 -0.133197 0
M  V30 14847 C 1419.48 -1.12811 2.78737 0
M  V30 14848 C 1421.03 -1.23492 2.87608 0
M  V30 14849 C 1421.51 -1.58583 4.29669 0
M  V30 14850 N 1423 -1.65586 4.32591 0
M  V30 14851 C 1423.73 -1.94231 5.39502 0
M  V30 14852 N 1423.23 -2.20936 6.56627 0
M  V30 14853 N 1425.02 -1.95682 5.26939 0
M  V30 14854 H 1417.17 0.286771 2.10455 0
M  V30 14855 H 1419.43 0.0657649 0.945716 0
M  V30 14856 H 1419.14 -0.349616 3.49958 0
M  V30 14857 H 1419.01 -2.0658 3.15602 0
M  V30 14858 H 1421.4 -2.0041 2.1661 0
M  V30 14859 H 1421.48 -0.277182 2.54294 0
M  V30 14860 H 1421.13 -0.822071 5.01203 0
M  V30 14861 H 1421.06 -2.55497 4.60466 0
M  V30 14862 H 1423.55 -1.47012 3.48132 0
M  V30 14863 H 1423.86 -2.42049 7.33916 0
M  V30 14864 H 1422.21 -2.18341 6.59812 0
M  V30 14865 H 1425.4 -1.74311 4.34434 0
M  V30 14866 H 1425.57 -2.1767 6.10347 0
M  V30 14867 N 1418.98 -1.3968 -0.729882 0
M  V30 14868 C 1419.94 -1.38577 -1.82562 0
M  V30 14869 C 1420.94 -0.281994 -1.58308 0
M  V30 14870 O 1422.13 -0.540165 -1.65614 0
M  V30 14871 C 1419.26 -1.16343 -3.20433 0
M  V30 14872 H 1420.45 -2.36086 -1.84942 0
M  V30 14873 H 1418.01 -1.25319 -0.934063 0
M  V30 14874 H 1418.74 -0.195372 -3.23711 0
M  V30 14875 H 1418.53 -1.96282 -3.39435 0
M  V30 14876 H 1420.02 -1.18325 -4.00486 0
M  V30 14877 N 1420.45 0.960609 -1.2494 0
M  V30 14878 C 1421.38 2.074 -1.07274 0
M  V30 14879 C 1422.37 1.70092 0.0164365 0
M  V30 14880 O 1423.55 1.93604 -0.151975 0
M  V30 14881 C 1420.68 3.40491 -0.684317 0
M  V30 14882 C 1419.63 3.91784 -1.72306 0
M  V30 14883 C 1418.96 5.21301 -1.18949 0
M  V30 14884 C 1420.26 4.18829 -3.12056 0
M  V30 14885 H 1421.95 2.22438 -2.00404 0
M  V30 14886 H 1419.5 1.06888 -0.964937 0
M  V30 14887 H 1421.45 4.17826 -0.547686 0
M  V30 14888 H 1420.18 3.25374 0.282687 0
M  V30 14889 H 1418.84 3.16613 -1.84802 0
M  V30 14890 H 1418.48 5.02549 -0.212892 0
M  V30 14891 H 1418.18 5.56588 -1.8837 0
M  V30 14892 H 1419.71 6.01238 -1.06513 0
M  V30 14893 H 1421.12 4.86844 -3.02748 0
M  V30 14894 H 1419.52 4.6536 -3.78894 0
M  V30 14895 H 1420.59 3.25333 -3.59564 0
M  V30 14896 N 1421.93 1.0643 1.16234 0
M  V30 14897 C 1423.21 0.695256 1.82827 0
M  V30 14898 C 1423.59 -0.823242 1.94386 0
M  V30 14899 O 1422.94 -1.73406 1.48804 0
M  V30 14900 C 1423.15 1.3988 3.19741 0
M  V30 14901 C 1424.5 1.54489 3.95498 0
M  V30 14902 O 1425.52 1.35882 3.29264 0
M  V30 14903 O 1424.38 1.85027 5.14225 0
M  V30 14904 H 1421.47 0.246285 0.789476 0
M  V30 14905 H 1424.02 1.16466 1.23426 0
M  V30 14906 H 1422.79 2.43419 3.06371 0
M  V30 14907 H 1422.41 0.91957 3.8682 0
M  V30 14908 N 1423.41 -1.329 0.847073 0
M  V30 14909 C 1424.34 -2.31546 0.301422 0
M  V30 14910 C 1425.32 -1.59342 -0.595317 0
M  V30 14911 O 1426.51 -1.87188 -0.517151 0
M  V30 14912 C 1423.64 -3.43423 -0.517454 0
M  V30 14913 C 1422.59 -4.27055 0.284195 0
M  V30 14914 C 1421.92 -5.30624 -0.658944 0
M  V30 14915 C 1423.22 -5.00123 1.50578 0
M  V30 14916 H 1424.91 -2.77433 1.12567 0
M  V30 14917 H 1422.46 -1.3338 0.542739 0
M  V30 14918 H 1424.41 -4.11467 -0.909543 0
M  V30 14919 H 1423.13 -2.96246 -1.37499 0
M  V30 14920 H 1421.79 -3.60648 0.657944 0
M  V30 14921 H 1421.44 -4.79702 -1.51311 0
M  V30 14922 H 1421.14 -5.87464 -0.12662 0
M  V30 14923 H 1422.66 -6.01533 -1.04837 0
M  V30 14924 H 1424.08 -5.6089 1.18641 0
M  V30 14925 H 1422.48 -5.66652 1.97549 0
M  V30 14926 H 1423.55 -4.28424 2.27115 0
M  V30 14927 N 1424.89 -0.604284 -1.45555 0
M  V30 14928 C 1426.12 -0.104452 -2.06636 0
M  V30 14929 C 1426.53 1.20976 -1.44949 0
M  V30 14930 O 1425.89 1.73616 -0.562468 0
M  V30 14931 C 1425.94 0.0451646 -3.61472 0
M  V30 14932 O 1425.66 -1.21705 -4.20856 0
M  V30 14933 C 1427.16 0.57684 -4.39531 0
M  V30 14934 H 1424.38 -0.067326 -0.667614 0
M  V30 14935 H 1426.93 -0.831079 -1.86851 0
M  V30 14936 H 1425.08 0.722104 -3.80611 0
M  V30 14937 H 1425.49 -1.04462 -5.13992 0
M  V30 14938 H 1426.97 0.630627 -5.48386 0
M  V30 14939 H 1427.45 1.59842 -4.09081 0
M  V30 14940 H 1428.05 -0.0659444 -4.25249 0
M  V30 14941 N 1426.37 1.53816 -0.343257 0
M  V30 14942 C 1427.3 2.22552 0.548015 0
M  V30 14943 C 1428.31 1.23202 1.06419 0
M  V30 14944 O 1429.5 1.49559 0.974394 0
M  V30 14945 C 1426.6 2.89197 1.76687 0
M  V30 14946 C 1425.77 4.14859 1.38603 0
M  V30 14947 C 1424.83 4.64917 2.46453 0
M  V30 14948 O 1423.86 5.29135 2.09773 0
M  V30 14949 N 1425.06 4.4082 3.77701 0
M  V30 14950 H 1427.83 2.99672 -0.040645 0
M  V30 14951 H 1425.39 1.61033 -0.167368 0
M  V30 14952 H 1427.38 3.19601 2.48268 0
M  V30 14953 H 1425.95 2.15664 2.26291 0
M  V30 14954 H 1425.17 3.91003 0.501001 0
M  V30 14955 H 1426.46 4.96599 1.10756 0
M  V30 14956 H 1425.85 3.8946 4.1029 0
M  V30 14957 H 1424.41 4.7583 4.45453 0
M  V30 14958 N 1427.84 0.0718701 1.57436 0
M  V30 14959 C 1429.09 -0.592107 1.94591 0
M  V30 14960 C 1429.45 -1.67215 0.951678 0
M  V30 14961 O 1428.74 -1.91582 -0.0260281 0
M  V30 14962 C 1428.93 -1.21336 3.36173 0
M  V30 14963 C 1428.76 -0.195025 4.49277 0
M  V30 14964 C 1427.53 0.220335 5.04819 0
M  V30 14965 C 1429.73 0.567752 5.11157 0
M  V30 14966 N 1427.71 1.22937 6.01465 0
M  V30 14967 C 1429.08 1.42926 6.03301 0
M  V30 14968 C 1431.14 0.623812 4.93977 0
M  V30 14969 C 1429.84 2.34185 6.8011 0
M  V30 14970 C 1431.87 1.52391 5.71429 0
M  V30 14971 C 1431.23 2.3731 6.63222 0
M  V30 14972 H 1427.33 -0.187692 0.759141 0
M  V30 14973 H 1429.91 0.149031 1.94129 0
M  V30 14974 H 1428.08 -1.92442 3.37373 0
M  V30 14975 H 1429.81 -1.83781 3.60564 0
M  V30 14976 H 1426.57 -0.162798 4.7332 0
M  V30 14977 H 1426.99 1.7314 6.54486 0
M  V30 14978 H 1431.64 -0.0185243 4.22796 0
M  V30 14979 H 1429.35 2.99455 7.50568 0
M  V30 14980 H 1432.94 1.57212 5.60157 0
M  V30 14981 H 1431.82 3.05829 7.22107 0
M  V30 14982 N 1429.32 -1.56304 -0.201686 0
M  V30 14983 C 1430.25 -1.97046 -1.25281 0
M  V30 14984 C 1431.23 -0.841458 -1.47829 0
M  V30 14985 O 1432.42 -1.10529 -1.59678 0
M  V30 14986 C 1429.55 -2.30429 -2.59845 0
M  V30 14987 C 1428.5 -3.46006 -2.5192 0
M  V30 14988 C 1427.83 -3.65047 -3.90697 0
M  V30 14989 C 1429.13 -4.80391 -2.04992 0
M  V30 14990 H 1430.82 -2.85099 -0.914272 0
M  V30 14991 H 1428.37 -1.37166 -0.438359 0
M  V30 14992 H 1430.32 -2.57525 -3.33555 0
M  V30 14993 H 1429.05 -1.39251 -2.95426 0
M  V30 14994 H 1427.7 -3.18991 -1.80667 0
M  V30 14995 H 1427.35 -2.71211 -4.2362 0
M  V30 14996 H 1427.05 -4.42796 -3.86271 0
M  V30 14997 H 1428.58 -3.94512 -4.66039 0
M  V30 14998 H 1429.99 -5.06561 -2.68456 0
M  V30 14999 H 1428.39 -5.61563 -2.11582 0
M  V30 15000 H 1429.46 -4.74416 -1.00288 0
M  V30 15001 N 1430.8 0.469154 -1.50455 0
M  V30 15002 C 1431.73 1.58574 -1.64102 0
M  V30 15003 C 1432.71 1.5507 -0.489095 0
M  V30 15004 O 1433.9 1.74664 -0.708851 0
M  V30 15005 C 1431.02 2.97151 -1.62538 0
M  V30 15006 C 1430.07 3.18803 -2.83315 0
M  V30 15007 S 1430.9 2.98496 -4.4459 0
M  V30 15008 C 1432.06 4.39412 -4.45722 0
M  V30 15009 H 1432.29 1.46759 -2.58552 0
M  V30 15010 H 1429.82 0.656629 -1.39742 0
M  V30 15011 H 1431.78 3.77044 -1.62321 0
M  V30 15012 H 1430.44 3.06355 -0.693205 0
M  V30 15013 H 1429.64 4.20044 -2.7853 0
M  V30 15014 H 1429.24 2.46685 -2.81109 0
M  V30 15015 H 1431.53 5.32078 -4.19404 0
M  V30 15016 H 1432.47 4.49239 -5.47348 0
M  V30 15017 H 1432.88 4.2158 -3.75407 0
M  V30 15018 N 1432.28 1.40065 0.722464 0
M  V30 15019 C 1433.52 1.38175 1.48444 0
M  V30 15020 C 1433.86 -0.0182857 1.94191 0
M  V30 15021 O 1433.13 -0.985638 1.67677 0
M  V30 15022 C 1433.42 2.36518 2.71535 0
M  V30 15023 C 1433.27 3.85517 2.31726 0
M  V30 15024 C 1434.59 2.325 3.73673 0
M  V30 15025 H 1431.71 0.503221 0.538458 0
M  V30 15026 H 1434.35 1.7115 0.825087 0
M  V30 15027 H 1432.5 2.08529 3.27793 0
M  V30 15028 H 1434.17 4.24306 1.81003 0
M  V30 15029 H 1432.41 4.01684 1.63807 0
M  V30 15030 H 1433.08 4.49834 3.19928 0
M  V30 15031 H 1435.56 2.57277 3.27029 0
M  V30 15032 H 1434.44 3.03369 4.57447 0
M  V30 15033 H 1434.7 1.33427 4.21485 0
M  V30 15034 N 1433.76 -0.95397 1.25448 0
M  V30 15035 C 1434.69 -2.06828 1.08372 0
M  V30 15036 C 1435.67 -1.70098 -0.00741585 0
M  V30 15037 O 1436.85 -1.93521 0.16224 0
M  V30 15038 C 1433.98 -3.40124 0.702365 0
M  V30 15039 C 1432.94 -3.90865 1.74381 0
M  V30 15040 C 1432.26 -5.20663 1.21712 0
M  V30 15041 C 1433.56 -4.17169 3.14273 0
M  V30 15042 H 1435.26 -2.21372 2.01581 0
M  V30 15043 H 1432.8 -1.06374 0.970592 0
M  V30 15044 H 1434.76 -4.17529 0.569837 0
M  V30 15045 H 1433.48 -3.2552 -0.265428 0
M  V30 15046 H 1432.14 -3.15628 1.86479 0
M  V30 15047 H 1431.79 -5.02429 0.23954 0
M  V30 15048 H 1431.49 -5.55581 1.91319 0
M  V30 15049 H 1433.01 -6.00665 1.097 0
M  V30 15050 H 1434.43 -4.85231 3.05325 0
M  V30 15051 H 1432.82 -4.63344 3.81356 0
M  V30 15052 H 1433.89 -3.23421 3.61285 0
M  V30 15053 N 1435.24 -1.07045 -1.15668 0
M  V30 15054 C 1436.18 -0.688004 -2.20307 0
M  V30 15055 C 1437.15 0.319081 -1.63006 0
M  V30 15056 O 1438.34 0.206239 -1.89682 0
M  V30 15057 C 1435.48 -0.0886692 -3.44986 0
M  V30 15058 C 1434.59 -1.14685 -4.16499 0
M  V30 15059 C 1433.73 -0.512852 -5.28719 0
M  V30 15060 C 1432.76 -1.55404 -5.92044 0
M  V30 15061 N 1431.9 -0.942848 -6.9574 0
M  V30 15062 H 1436.74 -1.58469 -2.52372 0
M  V30 15063 H 1434.28 -0.792184 -1.23947 0
M  V30 15064 H 1436.24 0.276415 -4.16283 0
M  V30 15065 H 1434.87 0.77139 -3.13448 0
M  V30 15066 H 1433.92 -1.62955 -3.43729 0
M  V30 15067 H 1435.23 -1.93643 -4.59678 0
M  V30 15068 H 1434.38 -0.0952274 -6.06625 0
M  V30 15069 H 1433.12 0.308524 -4.86723 0
M  V30 15070 H 1432.13 -1.98148 -5.12852 0
M  V30 15071 H 1433.35 -2.37765 -6.36117 0
M  V30 15072 H 1431.3 -0.142319 -6.55846 0
M  V30 15073 H 1431.22 -1.6697 -7.37331 0
M  V30 15074 H 1432.48 -0.550621 -7.77553 0
M  V30 15075 N 1436.71 1.32449 -0.85411 0
M  V30 15076 C 1437.96 1.96537 -0.453451 0
M  V30 15077 C 1438.28 1.68344 0.995982 0
M  V30 15078 O 1439.48 2.26166 1.50204 0
M  V30 15079 C 1437.94 3.51785 -0.759934 0
M  V30 15080 C 1437.55 3.88838 -2.22506 0
M  V30 15081 C 1439.29 4.22347 -0.426973 0
M  V30 15082 C 1437.2 5.37129 -2.47479 0
M  V30 15083 H 1436.13 0.735537 -0.165835 0
M  V30 15084 H 1438.78 1.50851 -1.04481 0
M  V30 15085 H 1437.16 3.95879 -0.0980116 0
M  V30 15086 H 1438.33 3.55756 -2.92873 0
M  V30 15087 H 1436.65 3.31299 -2.52249 0
M  V30 15088 H 1439.25 5.31424 -0.590986 0
M  V30 15089 H 1439.59 4.11485 0.631359 0
M  V30 15090 H 1440.12 3.83835 -1.04477 0
M  V30 15091 H 1436.86 5.53012 -3.51935 0
M  V30 15092 H 1436.38 5.71619 -1.8169 0
M  V30 15093 H 1438.06 6.04204 -2.31401 0
M  V30 15094 N 1438.19 0.611994 1.45232 0
M  V30 15095 C 1439.42 0.113618 2.07089 0
M  V30 15096 C 1439.84 -1.1947 1.45288 0
M  V30 15097 O 1439.2 -1.72845 0.547207 0
M  V30 15098 C 1439.25 -0.00789978 3.60599 0
M  V30 15099 O 1438.35 -1.05697 3.98625 0
M  V30 15100 H 1437.69 0.076066 0.659629 0
M  V30 15101 H 1440.22 0.843253 1.86415 0
M  V30 15102 H 1440.23 -0.204692 4.07486 0
M  V30 15103 H 1438.91 0.947386 4.04966 0
M  V30 15104 H 1437.48 -0.836291 3.63401 0
M  V30 15105 N 1439.67 -1.53632 0.351409 0
M  V30 15106 C 1440.6 -2.28217 -0.49391 0
M  V30 15107 C 1441.58 -1.30085 -1.09599 0
M  V30 15108 O 1442.77 -1.58938 -1.1159 0
M  V30 15109 C 1439.9 -3.06085 -1.64102 0
M  V30 15110 C 1438.85 -4.11786 -1.16689 0
M  V30 15111 C 1438.18 -4.77654 -2.40314 0
M  V30 15112 C 1439.48 -5.21644 -0.261742 0
M  V30 15113 H 1441.17 -2.99125 0.1283 0
M  V30 15114 H 1438.72 -1.43861 0.0631462 0
M  V30 15115 H 1440.67 -3.57003 -2.2389 0
M  V30 15116 H 1439.39 -2.32842 -2.29025 0
M  V30 15117 H 1438.05 -3.61792 -0.591784 0
M  V30 15118 H 1437.7 -4.00997 -3.03661 0
M  V30 15119 H 1437.4 -5.49072 -2.09268 0
M  V30 15120 H 1438.92 -5.3136 -3.00813 0
M  V30 15121 H 1440.34 -5.6815 -0.766689 0
M  V30 15122 H 1438.73 -6.00085 -0.0428132 0
M  V30 15123 H 1439.8 -4.79821 0.699999 0
M  V30 15124 N 1441.15 -0.0802183 -1.57396 0
M  V30 15125 C 1442.56 0.451183 -1.81166 0
M  V30 15126 C 1442.91 1.69112 -0.994764 0
M  V30 15127 O 1442.03 2.15281 -0.219739 0
M  V30 15128 C 1442.63 0.825324 -3.28594 0
M  V30 15129 C 1441.19 1.30154 -3.53181 0
M  V30 15130 C 1440.34 0.290846 -2.75771 0
M  V30 15131 H 1443.29 -0.305829 -1.55725 0
M  V30 15132 H 1443.31 1.68608 -3.41104 0
M  V30 15133 H 1442.82 -0.0773119 -3.88023 0
M  V30 15134 H 1440.92 2.22239 -2.99066 0
M  V30 15135 H 1441.03 1.27365 -4.6186 0
M  V30 15136 H 1439.4 0.769894 -2.42785 0
M  V30 15137 H 1440.18 -0.604209 -3.37941 0
M  V30 15138 N 1442.63 1.56409 0.193394 0
M  V30 15139 C 1443.87 1.80991 0.914875 0
M  V30 15140 C 1444.2 0.654538 1.82837 0
M  V30 15141 O 1443.48 -0.344816 1.91419 0
M  V30 15142 C 1443.76 3.15841 1.72964 0
M  V30 15143 C 1443.62 4.41873 0.840748 0
M  V30 15144 C 1444.93 3.474 2.70188 0
M  V30 15145 H 1442.05 0.658408 0.331161 0
M  V30 15146 H 1444.7 1.89125 0.182161 0
M  V30 15147 H 1442.85 3.09038 2.35431 0
M  V30 15148 H 1444.52 4.60723 0.230654 0
M  V30 15149 H 1442.76 4.33549 0.147558 0
M  V30 15150 H 1443.43 5.32728 1.44586 0
M  V30 15151 H 1445.91 3.54513 2.17852 0
M  V30 15152 H 1444.78 4.42872 3.24278 0
M  V30 15153 H 1445.04 2.7098 3.49317 0
M  V30 15154 N 1444.1 -0.461169 1.50702 0
M  V30 15155 C 1445.35 -1.20934 1.61425 0
M  V30 15156 C 1445.67 -1.92884 0.32481 0
M  V30 15157 O 1446.87 -2.69712 0.311081 0
M  V30 15158 C 1445.33 -2.19797 2.84987 0
M  V30 15159 C 1444.94 -1.53604 4.20844 0
M  V30 15160 C 1446.68 -2.95194 3.05059 0
M  V30 15161 C 1444.59 -2.50811 5.35582 0
M  V30 15162 H 1443.52 -0.455088 0.601174 0
M  V30 15163 H 1446.17 -0.478771 1.77144 0
M  V30 15164 H 1444.55 -2.96187 2.62848 0
M  V30 15165 H 1445.72 -0.829345 4.53275 0
M  V30 15166 H 1444.04 -0.904504 4.06457 0
M  V30 15167 H 1446.64 -3.67965 3.87951 0
M  V30 15168 H 1446.98 -3.5516 2.1718 0
M  V30 15169 H 1447.51 -2.25915 3.27425 0
M  V30 15170 H 1444.25 -1.9557 6.25646 0
M  V30 15171 H 1443.77 -3.19604 5.07556 0
M  V30 15172 H 1445.45 -3.12437 5.66561 0
M  V30 15173 N 1445.58 -1.40446 -0.715026 0
M  V30 15174 C 1446.83 -1.3848 -1.47199 0
M  V30 15175 C 1447.15 0.0119198 -1.94996 0
M  V30 15176 O 1446.42 0.966772 -1.70383 0
M  V30 15177 H 1445 -0.509669 -0.54612 0
M  V30 15178 H 1447.66 -1.75505 -0.847588 0
M  V30 15179 H 1446.76 -2.06002 -2.34456 0
M  V30 15180 N 1447.06 0.947303 -1.25952 0
M  V30 15181 C 1447.99 2.0625 -1.09467 0
M  V30 15182 C 1448.97 1.701 -0.00160498 0
M  V30 15183 O 1450.16 1.93432 -0.172501 0
M  V30 15184 C 1447.29 3.39746 -0.720392 0
M  V30 15185 C 1446.24 3.89935 -1.76451 0
M  V30 15186 C 1445.57 5.2001 -1.24472 0
M  V30 15187 C 1446.87 4.15496 -3.16481 0
M  V30 15188 H 1448.56 2.203 -2.02752 0
M  V30 15189 H 1446.11 1.05858 -0.97622 0
M  V30 15190 H 1448.06 4.17221 -0.591972 0
M  V30 15191 H 1446.78 3.25656 0.248161 0
M  V30 15192 H 1445.44 3.14635 -1.8815 0
M  V30 15193 H 1445.09 5.02295 -0.266182 0
M  V30 15194 H 1444.79 5.54559 -1.94263 0
M  V30 15195 H 1446.31 6.00075 -1.12884 0
M  V30 15196 H 1447.73 4.83605 -3.07894 0
M  V30 15197 H 1446.12 4.61315 -3.83808 0
M  V30 15198 H 1447.19 3.21501 -3.62995 0
M  V30 15199 N 1448.54 1.07657 1.15099 0
M  V30 15200 C 1449.82 0.714608 1.82079 0
M  V30 15201 C 1450.2 -0.802578 1.95248 0
M  V30 15202 O 1449.54 -1.71818 1.50634 0
M  V30 15203 C 1449.75 1.43264 3.1824 0
M  V30 15204 C 1451.1 1.58675 3.93837 0
M  V30 15205 O 1452.13 1.39367 3.27804 0
M  V30 15206 O 1450.98 1.9047 5.12234 0
M  V30 15207 H 1448.08 0.254645 0.786819 0
M  V30 15208 H 1450.62 1.17768 1.22183 0
M  V30 15209 H 1449.4 2.46655 3.03772 0
M  V30 15210 H 1449.02 0.960546 3.85823 0
M  V30 15211 N 1450.02 -1.31994 0.861122 0
M  V30 15212 C 1450.93 -2.32495 0.313555 0
M  V30 15213 C 1451.94 -1.64331 -0.571966 0
M  V30 15214 O 1453.12 -1.9582 -0.470794 0
M  V30 15215 C 1450.18 -3.43311 -0.483603 0
M  V30 15216 C 1449.24 -4.27153 0.428825 0
M  V30 15217 C 1448.48 -5.32676 -0.330383 0
M  V30 15218 O 1448.7 -5.48665 -1.55957 0
M  V30 15219 O 1447.63 -6.01116 0.307174 0
M  V30 15220 H 1451.46 -2.81234 1.14636 0
M  V30 15221 H 1449.05 -1.35734 0.624239 0
M  V30 15222 H 1450.93 -4.10877 -0.935831 0
M  V30 15223 H 1449.6 -2.9675 -1.2931 0
M  V30 15224 H 1448.51 -3.62372 0.929366 0
M  V30 15225 H 1449.84 -4.77255 1.20368 0
M  V30 15226 N 1451.49 -0.619688 -1.44906 0
M  V30 15227 C 1452.74 -0.117147 -2.0136 0
M  V30 15228 C 1453.06 1.2644 -1.49239 0
M  V30 15229 O 1454.26 1.86034 -1.97747 0
M  V30 15230 C 1452.72 -0.15871 -3.5955 0
M  V30 15231 C 1452.33 -1.54086 -4.20668 0
M  V30 15232 C 1454.07 0.287961 -4.23522 0
M  V30 15233 C 1451.98 -1.53816 -5.71047 0
M  V30 15234 H 1450.91 -0.040028 -0.752937 0
M  V30 15235 H 1453.56 -0.776802 -1.66247 0
M  V30 15236 H 1451.94 0.56783 -3.91908 0
M  V30 15237 H 1453.11 -2.29007 -3.99865 0
M  V30 15238 H 1451.43 -1.93065 -3.68938 0
M  V30 15239 H 1454.03 0.309351 -5.33804 0
M  V30 15240 H 1454.37 1.31305 -3.9505 0
M  V30 15241 H 1454.9 -0.385707 -3.95926 0
M  V30 15242 H 1451.64 -2.54124 -6.04236 0
M  V30 15243 H 1451.16 -0.831708 -5.94006 0
M  V30 15244 H 1452.84 -1.26708 -6.34472 0
M  V30 15245 N 1452.97 1.53444 -0.359552 0
M  V30 15246 C 1453.9 2.28475 0.4818 0
M  V30 15247 C 1454.88 1.30664 1.08908 0
M  V30 15248 O 1456.07 1.59527 1.10746 0
M  V30 15249 C 1453.2 3.06951 1.62477 0
M  V30 15250 C 1452.15 4.12399 1.14504 0
M  V30 15251 C 1451.48 4.78922 2.37777 0
M  V30 15252 C 1452.78 5.21775 0.234075 0
M  V30 15253 H 1454.47 2.99053 -0.144162 0
M  V30 15254 H 1452.02 1.43826 -0.0707746 0
M  V30 15255 H 1453.97 3.58186 2.21993 0
M  V30 15256 H 1452.7 2.34053 2.27787 0
M  V30 15257 H 1451.35 3.62101 0.572589 0
M  V30 15258 H 1451 4.02602 3.0153 0
M  V30 15259 H 1450.7 5.50175 2.06353 0
M  V30 15260 H 1452.23 5.32948 2.97991 0
M  V30 15261 H 1453.64 5.68549 0.736548 0
M  V30 15262 H 1452.04 6.00099 0.0109887 0
M  V30 15263 H 1453.11 4.79443 -0.725435 0
M  V30 15264 N 1454.45 0.0885642 1.57351 0
M  V30 15265 C 1455.4 -0.872723 2.13664 0
M  V30 15266 C 1456.37 -1.28418 1.05347 0
M  V30 15267 O 1457.55 -1.36709 1.33099 0
M  V30 15268 C 1454.69 -2.12886 2.71613 0
M  V30 15269 C 1453.81 -1.76852 3.94141 0
M  V30 15270 C 1452.94 -2.97203 4.40277 0
M  V30 15271 C 1451.98 -2.57265 5.55411 0
M  V30 15272 N 1451.12 -3.70429 5.96428 0
M  V30 15273 H 1455.96 -0.385644 2.95494 0
M  V30 15274 H 1453.49 -0.178688 1.46011 0
M  V30 15275 H 1455.45 -2.86441 3.03327 0
M  V30 15276 H 1454.08 -2.59105 1.92521 0
M  V30 15277 H 1453.13 -0.932921 3.68783 0
M  V30 15278 H 1454.45 -1.43481 4.77718 0
M  V30 15279 H 1453.6 -3.79019 4.7374 0
M  V30 15280 H 1452.34 -3.3378 3.55587 0
M  V30 15281 H 1451.34 -1.73875 5.21582 0
M  V30 15282 H 1452.57 -2.21839 6.41844 0
M  V30 15283 H 1450.51 -4.06737 5.14686 0
M  V30 15284 H 1450.43 -3.40881 6.74786 0
M  V30 15285 H 1451.7 -4.52774 6.3452 0
M  V30 15286 N 1455.93 -1.56509 -0.185096 0
M  V30 15287 C 1457.18 -1.81206 -0.903924 0
M  V30 15288 C 1457.5 -0.663423 -1.82836 0
M  V30 15289 O 1456.76 0.350211 -1.92541 0
M  V30 15290 C 1457.06 -3.11968 -1.74387 0
M  V30 15291 C 1456.72 -4.40353 -0.969552 0
M  V30 15292 C 1455.39 -4.75227 -0.755799 0
M  V30 15293 C 1457.74 -5.19461 -0.425443 0
M  V30 15294 C 1455.07 -5.86698 0.0133856 0
M  V30 15295 C 1457.42 -6.31736 0.330582 0
M  V30 15296 C 1456.08 -6.65187 0.555262 0
M  V30 15297 H 1455.35 -0.663078 -0.330769 0
M  V30 15298 H 1458 -1.90747 -0.169673 0
M  V30 15299 H 1456.3 -2.97708 -2.5471 0
M  V30 15300 H 1458 -3.28284 -2.30284 0
M  V30 15301 H 1454.59 -4.1299 -1.14618 0
M  V30 15302 H 1458.77 -4.92923 -0.577959 0
M  V30 15303 H 1454.03 -6.11081 0.197335 0
M  V30 15304 H 1458.2 -6.92246 0.759523 0
M  V30 15305 H 1455.83 -7.51403 1.15318 0
M  V30 15306 N 1457.41 0.45317 -1.50944 0
M  V30 15307 C 1458.65 1.20568 -1.63068 0
M  V30 15308 C 1458.99 1.91229 -0.338375 0
M  V30 15309 O 1458.26 1.82916 0.661207 0
M  V30 15310 C 1458.54 2.23522 -2.8233 0
M  V30 15311 C 1458.4 1.57047 -4.21493 0
M  V30 15312 C 1459.72 3.24663 -2.97123 0
M  V30 15313 H 1456.83 0.436971 -0.593486 0
M  V30 15314 H 1459.48 0.497008 -1.83384 0
M  V30 15315 H 1457.63 2.83961 -2.65139 0
M  V30 15316 H 1459.3 1.00067 -4.50316 0
M  V30 15317 H 1457.54 0.873143 -4.24922 0
M  V30 15318 H 1458.21 2.31949 -5.00903 0
M  V30 15319 H 1460.69 2.74264 -3.12919 0
M  V30 15320 H 1459.56 3.9401 -3.82161 0
M  V30 15321 H 1459.83 3.89843 -2.08506 0
M  V30 15322 N 1458.88 1.40823 0.707568 0
M  V30 15323 C 1459.85 1.41464 1.80334 0
M  V30 15324 C 1460.85 0.307143 1.57839 0
M  V30 15325 O 1462.04 0.566444 1.64733 0
M  V30 15326 C 1459.17 1.21426 3.18541 0
M  V30 15327 H 1460.36 2.38998 1.81162 0
M  V30 15328 H 1457.92 1.2679 0.914007 0
M  V30 15329 H 1458.65 0.246847 3.23359 0
M  V30 15330 H 1458.44 2.01657 3.36269 0
M  V30 15331 H 1459.93 1.24681 3.98553 0
M  V30 15332 N 1460.36 -0.94061 1.26453 0
M  V30 15333 C 1461.78 -1.21424 1.03578 0
M  V30 15334 C 1461.98 -2.00081 -0.238726 0
M  V30 15335 O 1461.03 -2.3404 -0.947709 0
M  V30 15336 C 1462.35 -1.97496 2.26751 0
M  V30 15337 C 1463.9 -2.10485 2.31657 0
M  V30 15338 C 1464.37 -2.89959 3.54525 0
M  V30 15339 N 1465.86 -2.97533 3.55005 0
M  V30 15340 C 1466.6 -3.59456 4.46742 0
M  V30 15341 N 1466.09 -4.22876 5.48769 0
M  V30 15342 N 1467.89 -3.56734 4.34393 0
M  V30 15343 H 1460.04 -0.414788 2.08311 0
M  V30 15344 H 1462.3 -0.246047 0.915513 0
M  V30 15345 H 1462.01 -1.47109 3.19456 0
M  V30 15346 H 1461.88 -2.98159 2.31043 0
M  V30 15347 H 1464.27 -2.60064 1.39466 0
M  V30 15348 H 1464.35 -1.09082 2.31376 0
M  V30 15349 H 1463.99 -2.41067 4.47045 0
M  V30 15350 H 1463.92 -3.91619 3.52054 0
M  V30 15351 H 1466.41 -2.52446 2.81211 0
M  V30 15352 H 1466.73 -4.68026 6.14956 0
M  V30 15353 H 1465.07 -4.21461 5.52626 0
M  V30 15354 H 1468.26 -3.06381 3.53904 0
M  V30 15355 H 1468.43 -4.04706 5.0608 0
M  V30 15356 N 1461.84 -1.08266 -1.14527 0
M  V30 15357 C 1462.79 -0.705807 -2.21633 0
M  V30 15358 C 1463.78 0.287758 -1.66938 0
M  V30 15359 O 1464.99 0.150479 -1.7937 0
M  V30 15360 H 1461.36 -0.210206 -0.722023 0
M  V30 15361 H 1463.33 -1.61855 -2.5069 0
M  V30 15362 C 1462.08 -0.129673 -3.47458 0
M  V30 15363 H 1461.41 -0.885365 -3.89873 0
M  V30 15364 H 1462.85 0.0962264 -4.23891 0
M  V30 15365 C 1461.31 1.13208 -3.1731 0
M  V30 15366 O 1461.84 2.21717 -3.34969 0
M  V30 15367 N 1460.04 1.0419 -2.7128 0
M  V30 15368 H 1459.59 0.15883 -2.5711 0
M  V30 15369 H 1459.55 1.88689 -2.51483 0
M  V30 15370 N 1463.32 1.31536 -0.86811 0
M  V30 15371 C 1464.55 2.00661 -0.491815 0
M  V30 15372 C 1464.96 1.65341 0.919733 0
M  V30 15373 O 1464.3 0.87773 1.61374 0
M  V30 15374 C 1464.36 3.55002 -0.566926 0
M  V30 15375 C 1464.03 4.1379 -1.93976 0
M  V30 15376 C 1465.02 4.31032 -2.90702 0
M  V30 15377 C 1462.71 4.4956 -2.24056 0
M  V30 15378 C 1464.7 4.8323 -4.15653 0
M  V30 15379 C 1462.39 5.01461 -3.49257 0
M  V30 15380 C 1463.39 5.18246 -4.44871 0
M  V30 15381 O 1463.08 5.69033 -5.67852 0
M  V30 15382 H 1462.81 0.648663 -0.190296 0
M  V30 15383 H 1465.36 1.68783 -1.17053 0
M  V30 15384 H 1463.59 3.86332 0.168704 0
M  V30 15385 H 1465.28 4.05385 -0.204323 0
M  V30 15386 H 1466.05 4.03717 -2.6877 0
M  V30 15387 H 1461.93 4.35772 -1.50412 0
M  V30 15388 H 1465.47 4.96247 -4.9029 0
M  V30 15389 H 1461.37 5.28209 -3.71033 0
M  V30 15390 H 1462.13 5.87405 -5.69998 0
M  V30 15391 N 1464.8 0.627364 1.44575 0
M  V30 15392 C 1465.73 -0.066735 2.33405 0
M  V30 15393 C 1466.71 -0.838666 1.47988 0
M  V30 15394 O 1467.89 -0.805296 1.76716 0
M  V30 15395 C 1465.02 -1.05148 3.31 0
M  V30 15396 C 1463.98 -0.391433 4.26206 0
M  V30 15397 C 1463.3 -1.48581 5.13642 0
M  V30 15398 C 1464.6 0.699942 5.17589 0
M  V30 15399 H 1466.3 0.675029 2.91691 0
M  V30 15400 H 1463.84 0.326066 1.4026 0
M  V30 15401 H 1465.8 -1.54576 3.92026 0
M  V30 15402 H 1464.52 -1.82408 2.70915 0
M  V30 15403 H 1463.18 0.0821694 3.66508 0
M  V30 15404 H 1462.83 -2.2492 4.49911 0
M  V30 15405 H 1462.53 -1.04957 5.7815 0
M  V30 15406 H 1464.05 -1.98198 5.77538 0
M  V30 15407 H 1465.47 0.288911 5.72572 0
M  V30 15408 H 1463.86 1.0591 5.9068 0
M  V30 15409 H 1464.93 1.5686 4.58828 0
M  V30 15410 N 1466.28 -1.53251 0.367684 0
M  V30 15411 C 1467.19 -2.29518 -0.485669 0
M  V30 15412 C 1468.2 -1.35568 -1.09075 0
M  V30 15413 O 1469.38 -1.68626 -1.10124 0
M  V30 15414 C 1466.44 -3.07115 -1.60876 0
M  V30 15415 C 1465.5 -4.16736 -1.031 0
M  V30 15416 C 1464.74 -4.90624 -2.10056 0
M  V30 15417 O 1464.96 -4.64393 -3.31203 0
M  V30 15418 O 1463.89 -5.76503 -1.72996 0
M  V30 15419 H 1467.72 -3.034 0.135017 0
M  V30 15420 H 1465.3 -1.48816 0.132005 0
M  V30 15421 H 1467.19 -3.55564 -2.26168 0
M  V30 15422 H 1465.86 -2.36068 -2.21481 0
M  V30 15423 H 1464.77 -3.72534 -0.341928 0
M  V30 15424 H 1466.1 -4.89956 -0.469473 0
M  V30 15425 N 1467.75 -0.0969077 -1.57302 0
M  V30 15426 C 1469.03 0.608737 -1.85886 0
M  V30 15427 C 1469.41 1.86228 -0.994096 0
M  V30 15428 O 1468.76 2.28402 -0.0669975 0
M  V30 15429 C 1468.97 0.922385 -3.3659 0
M  V30 15430 C 1470.32 1.28505 -4.04687 0
M  V30 15431 O 1471.34 1.01334 -3.41482 0
M  V30 15432 O 1470.2 1.794 -5.16215 0
M  V30 15433 H 1467.29 0.304808 -0.768779 0
M  V30 15434 H 1469.84 -0.129742 -1.69203 0
M  V30 15435 H 1468.61 0.0331488 -3.91286 0
M  V30 15436 H 1468.23 1.71678 -3.58626 0
M  V30 15437 N 1469.23 1.56605 0.176793 0
M  V30 15438 C 1470.64 1.71418 0.739775 0
M  V30 15439 C 1470.99 0.706527 1.83037 0
M  V30 15440 O 1470.12 -0.133259 2.15989 0
M  V30 15441 C 1470.71 3.10799 1.34867 0
M  V30 15442 C 1469.27 3.27315 1.85854 0
M  V30 15443 C 1468.42 2.67371 0.73541 0
M  V30 15444 H 1471.37 1.58626 -0.0485305 0
M  V30 15445 H 1471.39 3.09146 2.21831 0
M  V30 15446 H 1470.9 3.84116 0.554688 0
M  V30 15447 H 1469 2.58947 2.67913 0
M  V30 15448 H 1469.12 4.35002 2.00774 0
M  V30 15449 H 1467.48 2.27035 1.15444 0
M  V30 15450 H 1468.26 3.43268 -0.0466351 0
M  V30 15451 N 1470.71 -0.445159 1.51182 0
M  V30 15452 C 1471.62 -1.5651 1.74762 0
M  V30 15453 C 1472.64 -1.62134 0.631542 0
M  V30 15454 O 1473.81 -1.79522 0.912898 0
M  V30 15455 C 1470.88 -2.92552 1.86049 0
M  V30 15456 C 1469.94 -2.97108 3.0988 0
M  V30 15457 C 1469.17 -4.2666 3.2062 0
M  V30 15458 O 1469.39 -5.18608 2.37491 0
M  V30 15459 O 1468.33 -4.3734 4.13542 0
M  V30 15460 H 1472.15 -1.3953 2.6975 0
M  V30 15461 H 1469.74 -0.627363 1.3559 0
M  V30 15462 H 1471.62 -3.73304 1.95504 0
M  V30 15463 H 1470.3 -3.09676 0.94248 0
M  V30 15464 H 1469.2 -2.15338 3.05909 0
M  V30 15465 H 1470.54 -2.84927 4.01345 0
M  V30 15466 N 1472.19 -1.41197 -0.700089 0
M  V30 15467 C 1473.46 -1.30803 -1.4543 0
M  V30 15468 C 1473.84 0.0664987 -2.10995 0
M  V30 15469 O 1473.19 1.08043 -2.01343 0
M  V30 15470 C 1473.4 -2.45815 -2.47742 0
M  V30 15471 C 1474.75 -2.86771 -3.13126 0
M  V30 15472 O 1475.77 -2.45521 -2.58065 0
M  V30 15473 O 1474.63 -3.58086 -4.1284 0
M  V30 15474 H 1471.73 -0.514523 -0.647453 0
M  V30 15475 H 1474.27 -1.53151 -0.73095 0
M  V30 15476 H 1473.05 -3.37557 -1.97917 0
M  V30 15477 H 1472.67 -2.25319 -3.27593 0
M  V30 15478 N 1473.67 0.933891 -1.2695 0
M  V30 15479 C 1474.58 2.06713 -1.10936 0
M  V30 15480 C 1475.59 1.73952 -0.0409734 0
M  V30 15481 O 1476.77 1.9989 -0.246199 0
M  V30 15482 C 1473.83 3.38453 -0.751696 0
M  V30 15483 C 1472.89 3.84951 -1.90029 0
M  V30 15484 C 1472.13 5.10404 -1.55959 0
M  V30 15485 O 1472.35 5.68504 -0.464646 0
M  V30 15486 O 1471.28 5.52123 -2.39675 0
M  V30 15487 H 1475.11 2.23133 -2.06023 0
M  V30 15488 H 1472.69 1.05202 -1.06079 0
M  V30 15489 H 1474.58 4.17591 -0.565285 0
M  V30 15490 H 1473.25 3.23255 0.169703 0
M  V30 15491 H 1472.16 3.06727 -2.14172 0
M  V30 15492 H 1473.49 4.04681 -2.80167 0
M  V30 15493 N 1475.14 1.08871 1.13951 0
M  V30 15494 C 1476.56 0.817282 1.37086 0
M  V30 15495 C 1476.76 -0.571159 1.93236 0
M  V30 15496 O 1475.82 -1.32708 2.14813 0
M  V30 15497 C 1477.13 1.90386 2.32752 0
M  V30 15498 C 1478.68 1.93043 2.46381 0
M  V30 15499 C 1479.15 3.00828 3.4535 0
M  V30 15500 N 1480.64 3.0003 3.52897 0
M  V30 15501 C 1481.38 3.80073 4.29339 0
M  V30 15502 N 1480.87 4.70008 5.08984 0
M  V30 15503 N 1482.67 3.68355 4.24583 0
M  V30 15504 H 1474.82 1.98393 0.758537 0
M  V30 15505 H 1477.08 0.861229 0.396219 0
M  V30 15506 H 1476.79 2.90233 1.9864 0
M  V30 15507 H 1476.66 1.77722 3.32708 0
M  V30 15508 H 1479.05 0.938382 2.79783 0
M  V30 15509 H 1479.13 2.09785 1.4637 0
M  V30 15510 H 1478.77 4.00242 3.1268 0
M  V30 15511 H 1478.7 2.8133 4.45153 0
M  V30 15512 H 1481.19 2.3485 2.96064 0
M  V30 15513 H 1481.51 5.27678 5.64602 0
M  V30 15514 H 1479.85 4.74047 5.08236 0
M  V30 15515 H 1483.04 2.9746 3.61435 0
M  V30 15516 H 1483.22 4.30974 4.83906 0
M  V30 15517 N 1476.62 -1.31073 0.875073 0
M  V30 15518 C 1478.04 -1.49162 0.567697 0
M  V30 15519 C 1478.24 -1.80435 -0.896969 0
M  V30 15520 O 1477.29 -1.88604 -1.67883 0
M  V30 15521 C 1478.61 -2.6219 1.47231 0
M  V30 15522 C 1480.15 -2.76072 1.47489 0
M  V30 15523 C 1480.63 -3.92202 2.36519 0
M  V30 15524 N 1482.12 -3.99497 2.34428 0
M  V30 15525 C 1482.86 -4.88639 3.00033 0
M  V30 15526 N 1482.35 -5.82647 3.74826 0
M  V30 15527 N 1484.14 -4.81926 2.89315 0
M  V30 15528 H 1476.3 -1.09045 1.82272 0
M  V30 15529 H 1478.56 -0.539291 0.77966 0
M  V30 15530 H 1478.26 -2.45872 2.51475 0
M  V30 15531 H 1478.14 -3.58446 1.17459 0
M  V30 15532 H 1480.53 -2.91801 0.440008 0
M  V30 15533 H 1480.61 -1.80468 1.81287 0
M  V30 15534 H 1480.25 -3.77231 3.40087 0
M  V30 15535 H 1480.18 -4.87125 2.00043 0
M  V30 15536 H 1482.67 -3.32241 1.80067 0
M  V30 15537 H 1482.98 -6.47406 4.22001 0
M  V30 15538 H 1481.33 -5.82609 3.78934 0
M  V30 15539 H 1484.52 -4.07462 2.30418 0
M  V30 15540 H 1484.69 -5.51192 3.40722 0
M  V30 15541 N 1478.1 -0.635022 -1.4424 0
M  V30 15542 C 1479.05 0.0675707 -2.30701 0
M  V30 15543 C 1480.02 0.832919 -1.43707 0
M  V30 15544 O 1481.2 0.813177 -1.72604 0
M  V30 15545 C 1478.34 1.04053 -3.2904 0
M  V30 15546 C 1477.46 0.273191 -4.31135 0
M  V30 15547 C 1476.59 1.23831 -5.16565 0
M  V30 15548 C 1475.63 0.460359 -6.10366 0
M  V30 15549 N 1474.77 1.37614 -6.88481 0
M  V30 15550 H 1479.61 -0.675656 -2.90239 0
M  V30 15551 H 1477.14 -0.344971 -1.42998 0
M  V30 15552 H 1479.1 1.61805 -3.84545 0
M  V30 15553 H 1477.73 1.75084 -2.71193 0
M  V30 15554 H 1476.78 -0.420315 -3.78071 0
M  V30 15555 H 1478.1 -0.332548 -4.9769 0
M  V30 15556 H 1477.25 1.88704 -5.76607 0
M  V30 15557 H 1475.99 1.87797 -4.50093 0
M  V30 15558 H 1474.99 -0.201836 -5.49429 0
M  V30 15559 H 1476.22 -0.174639 -6.78875 0
M  V30 15560 H 1474.16 2.00294 -6.24675 0
M  V30 15561 H 1474.08 0.82452 -7.5149 0
M  V30 15562 H 1475.35 2.01359 -7.53044 0
M  V30 15563 O 1479.62 1.52967 -0.518002 0
M  V30 15564 H 1480.31 1.93699 -0.00487232 0
M  V30 END ATOM
M  V30 BEGIN BOND
M  V30 END BOND
M  V30 END CTAB
M  END
$$$$
