drugbank_target|P03886 NADH-ubiquinone oxidoreductase chain 1 (DB00157; DB01028; DB01159; DB01189; DB01236; DB04464; DB12695)
 OpenBabel12092119333D

  0  0  0     0  0            999 V3000
M  V30 BEGIN CTAB
M  V30 COUNTS 5135 5206 0 0 0
M  V30 BEGIN ATOM
M  V30 1 H -0.908 1.98254 -0.117106 0
M  V30 2 N 0 1.576 0 0
M  V30 3 C 0.933 2.03868 1.02534 0
M  V30 4 C 1.911 0.928543 1.3348 0
M  V30 5 O 3.095 1.19667 1.45644 0
M  V30 6 C 0.222 2.43627 2.35294 0
M  V30 7 C -0.732 3.65373 2.2001 0
M  V30 8 S 0.101 5.13292 1.52614 0
M  V30 9 C 1.257 5.56322 2.86805 0
M  V30 10 H 1.49 2.90518 0.631377 0
M  V30 11 H -0.977 1.52953 0.210867 0
M  V30 12 H 0.981 2.67203 3.11629 0
M  V30 13 H -0.358 1.57376 2.7183 0
M  V30 14 H -1.165 3.90944 3.18086 0
M  V30 15 H -1.563 3.418 1.51819 0
M  V30 16 H 0.729 5.58782 3.83104 0
M  V30 17 H 1.672 6.56266 2.65933 0
M  V30 18 H 2.08 4.83886 2.90714 0
M  V30 19 N 1.4781 -0.272755 1.55222 0
M  V30 20 C 2.8891 -0.84378 1.66545 0
M  V30 21 C 3.2401 -1.87035 0.592641 0
M  V30 22 O 2.3651 -2.14761 -0.265818 0
M  V30 23 C 2.9601 -1.53723 3.01918 0
M  V30 24 C 1.5191 -2.05628 3.15268 0
M  V30 25 C 0.6661 -0.898424 2.62343 0
M  V30 26 H 3.6171 -0.0490998 1.58624 0
M  V30 27 H 3.6381 -2.40421 2.94921 0
M  V30 28 H 3.1501 -0.78983 3.79978 0
M  V30 29 H 1.2511 -2.83329 2.41983 0
M  V30 30 H 1.3641 -2.27142 4.21833 0
M  V30 31 H -0.2719 -1.29186 2.19506 0
M  V30 32 H 0.5111 -0.164528 3.42906 0
M  V30 33 N 2.9562 -1.48159 -0.537278 0
M  V30 34 C 3.8892 -1.567 -1.65893 0
M  V30 35 C 4.8672 -0.41787 -1.57139 0
M  V30 36 O 6.0512 -0.628461 -1.77715 0
M  V30 37 C 3.1782 -1.48818 -3.04255 0
M  V30 38 C 2.2242 -2.68482 -3.31391 0
M  V30 39 S 3.0572 -4.30516 -3.1846 0
M  V30 40 C 4.2132 -4.2522 -4.59281 0
M  V30 41 H 4.4462 -2.5159 -1.58397 0
M  V30 42 H 1.9792 -1.36602 -0.719672 0
M  V30 43 H 3.9372 -1.44958 -3.84054 0
M  V30 44 H 2.5982 -0.552777 -3.09198 0
M  V30 45 H 1.7912 -2.59085 -4.32309 0
M  V30 46 H 1.3932 -2.69567 -2.59248 0
M  V30 47 H 3.6852 -3.94703 -5.5065 0
M  V30 48 H 4.6282 -5.26292 -4.73732 0
M  V30 49 H 5.0362 -3.55791 -4.38261 0
M  V30 50 N 4.4343 0.785586 -1.36625 0
M  V30 51 C 5.3973 1.87999 -1.31107 0
M  V30 52 C 6.3973 1.59316 -0.217959 0
M  V30 53 O 7.5873 1.67656 -0.472977 0
M  V30 54 C 4.7193 3.24861 -1.03334 0
M  V30 55 H 5.9123 1.94307 -2.2844 0
M  V30 56 H 3.4653 0.983813 -1.21453 0
M  V30 57 H 4.2003 3.24235 -0.0647432 0
M  V30 58 H 3.9853 3.4707 -1.82441 0
M  V30 59 H 5.4753 4.04929 -1.02088 0
M  V30 60 N 5.9124 1.20967 1.01018 0
M  V30 61 C 6.8604 0.961223 2.1181 0
M  V30 62 C 7.8544 -0.0897034 1.69162 0
M  V30 63 O 9.0604 0.0612271 1.79896 0
M  V30 64 H 5.4354 0.29355 0.692338 0
M  V30 65 H 7.4064 1.90178 2.29946 0
M  V30 66 C 6.1554 0.536854 3.4353 0
M  V30 67 H 5.4784 1.33713 3.76777 0
M  V30 68 H 6.9184 0.402286 4.22087 0
M  V30 69 C 5.3774 -0.751574 3.2841 0
M  V30 70 O 5.9074 -1.80841 3.58691 0
M  V30 71 N 4.1134 -0.716079 2.81639 0
M  V30 72 H 3.6604 0.144236 2.57196 0
M  V30 73 H 3.6184 -1.57847 2.71904 0
M  V30 74 N 7.3905 -1.2043 1.01659 0
M  V30 75 C 8.3205 -2.25466 0.607226 0
M  V30 76 C 9.3015 -1.65853 -0.377716 0
M  V30 77 O 10.4865 -1.92409 -0.263149 0
M  V30 78 C 7.6165 -3.47256 -0.0552949 0
M  V30 79 C 6.5705 -4.19462 0.850632 0
M  V30 80 C 5.8965 -5.34673 0.0538859 0
M  V30 81 C 7.1965 -4.75603 2.15868 0
M  V30 82 H 8.8905 -2.59962 1.48526 0
M  V30 83 H 6.4365 -1.2496 0.715605 0
M  V30 84 H 8.3895 -4.19917 -0.353233 0
M  V30 85 H 7.1135 -3.11924 -0.968045 0
M  V30 86 H 5.7725 -3.48667 1.13257 0
M  V30 87 H 5.4205 -4.95585 -0.860514 0
M  V30 88 H 5.1205 -5.83913 0.657192 0
M  V30 89 H 6.6445 -6.10138 -0.237598 0
M  V30 90 H 8.0585 -5.40083 1.92311 0
M  V30 91 H 6.4555 -5.3528 2.71284 0
M  V30 92 H 7.5255 -3.94346 2.82169 0
M  V30 93 N 8.8686 -0.792821 -1.36206 0
M  V30 94 C 9.7986 -0.207853 -2.32573 0
M  V30 95 C 10.7796 0.659055 -1.56813 0
M  V30 96 O 11.9646 0.592176 -1.84951 0
M  V30 97 C 9.0946 0.655449 -3.41059 0
M  V30 98 C 8.0486 -0.111842 -4.27854 0
M  V30 99 C 7.3746 0.872274 -5.27537 0
M  V30 100 C 8.6746 -1.30299 -5.05786 0
M  V30 101 H 10.3686 -1.01294 -2.81744 0
M  V30 102 H 7.9146 -0.48854 -1.3546 0
M  V30 103 H 9.8676 1.07464 -4.07467 0
M  V30 104 H 8.5916 1.49328 -2.90463 0
M  V30 105 H 7.2506 -0.512053 -3.63006 0
M  V30 106 H 6.8986 1.70523 -4.73214 0
M  V30 107 H 6.5986 0.363291 -5.86476 0
M  V30 108 H 8.1226 1.28996 -5.96818 0
M  V30 109 H 9.5366 -0.959379 -5.65216 0
M  V30 110 H 7.9336 -1.7455 -5.74154 0
M  V30 111 H 9.0036 -2.09663 -4.37229 0
M  V30 112 N 10.3467 1.47872 -0.545128 0
M  V30 113 C 11.2767 2.32661 0.197793 0
M  V30 114 C 12.2577 1.43041 0.920504 0
M  V30 115 O 13.4427 1.71912 0.90333 0
M  V30 116 C 10.5727 3.24569 1.23582 0
M  V30 117 C 9.5267 4.23333 0.630323 0
M  V30 118 C 8.8527 5.0448 1.77211 0
M  V30 119 C 10.1527 5.20704 -0.407974 0
M  V30 120 H 11.8467 2.95024 -0.510045 0
M  V30 121 H 9.3927 1.4187 -0.246731 0
M  V30 122 H 11.3457 3.8272 1.76362 0
M  V30 123 H 10.0697 2.60236 1.97344 0
M  V30 124 H 8.7287 3.6639 0.123922 0
M  V30 125 H 8.3767 4.36561 2.49847 0
M  V30 126 H 8.0767 5.71339 1.37281 0
M  V30 127 H 9.6007 5.65487 2.3034 0
M  V30 128 H 11.0147 5.7329 0.033305 0
M  V30 129 H 9.4117 5.95699 -0.725486 0
M  V30 130 H 10.4817 4.66917 -1.30828 0
M  V30 131 N 11.8248 0.280983 1.55075 0
M  V30 132 C 12.7548 -0.597469 2.25727 0
M  V30 133 C 13.7358 -1.15417 1.24952 0
M  V30 134 O 14.9208 -1.18722 1.53684 0
M  V30 135 C 12.0508 -1.7789 2.98283 0
M  V30 136 C 11.0048 -1.35347 4.06036 0
M  V30 137 C 10.3308 -2.61846 4.66198 0
M  V30 138 C 11.6308 -0.499354 5.19907 0
M  V30 139 H 13.3248 -0.00824265 2.99399 0
M  V30 140 H 10.8708 -0.0025244 1.44 0
M  V30 141 H 12.8238 -2.39937 3.46422 0
M  V30 142 H 11.5478 -2.39405 2.22155 0
M  V30 143 H 10.2068 -0.756156 3.58717 0
M  V30 144 H 9.8548 -3.21632 3.86732 0
M  V30 145 H 9.5548 -2.3409 5.38958 0
M  V30 146 H 11.0788 -3.24732 5.1709 0
M  V30 147 H 12.4928 -1.02498 5.64063 0
M  V30 148 H 10.8898 -0.316424 5.99265 0
M  V30 149 H 11.9598 0.480459 4.82514 0
M  V30 150 N 13.3029 -1.57598 0.00835791 0
M  V30 151 C 14.5519 -1.90107 -0.673968 0
M  V30 152 C 14.8649 -0.884275 -1.7447 0
M  V30 153 O 16.0709 -1.09987 -2.48224 0
M  V30 154 C 14.5269 -3.37497 -1.24995 0
M  V30 155 C 14.1349 -4.47491 -0.2136 0
M  V30 156 C 15.8789 -3.79104 -1.90999 0
M  V30 157 C 13.7859 -5.85963 -0.80005 0
M  V30 158 H 12.7159 -0.709393 -0.255495 0
M  V30 159 H 15.3669 -1.83365 0.0702693 0
M  V30 160 H 13.7489 -3.39102 -2.04513 0
M  V30 161 H 14.9229 -4.57414 0.557596 0
M  V30 162 H 13.2379 -4.14956 0.346474 0
M  V30 163 H 15.8349 -4.79901 -2.35795 0
M  V30 164 H 16.1779 -3.1306 -2.74407 0
M  V30 165 H 16.7109 -3.79833 -1.18203 0
M  V30 166 H 13.4499 -6.555 -0.00456708 0
M  V30 167 H 12.9699 -5.79687 -1.54021 0
M  V30 168 H 14.6489 -6.33884 -1.29615 0
M  V30 169 N 14.781 0.264519 -1.55364 0
M  V30 170 C 16.027 0.99646 -1.76631 0
M  V30 171 C 16.36 1.85632 -0.570478 0
M  V30 172 O 15.635 1.89647 0.43175 0
M  V30 173 C 15.918 1.87187 -3.07625 0
M  V30 174 C 15.771 1.04138 -4.37579 0
M  V30 175 C 17.09 2.85749 -3.34717 0
M  V30 176 H 14.209 0.360841 -0.642622 0
M  V30 177 H 16.851 0.268218 -1.88097 0
M  V30 178 H 15.001 2.49279 -2.9798 0
M  V30 179 H 16.673 0.440517 -4.59192 0
M  V30 180 H 14.916 0.345115 -4.32425 0
M  V30 181 H 15.587 1.68729 -5.2558 0
M  V30 182 H 18.063 2.33793 -3.4421 0
M  V30 183 H 16.939 3.44136 -4.27623 0
M  V30 184 H 17.2 3.61311 -2.54768 0
M  V30 185 N 16.2591 1.48442 0.529413 0
M  V30 186 C 17.6701 1.5002 1.11134 0
M  V30 187 C 18.0211 0.27031 1.94329 0
M  V30 188 O 17.1461 -0.622507 2.07253 0
M  V30 189 C 17.7411 2.71834 2.02217 0
M  V30 190 C 16.3001 2.76283 2.55627 0
M  V30 191 C 15.4471 2.43542 1.326 0
M  V30 192 H 18.3981 1.5555 0.314641 0
M  V30 193 H 18.4191 2.50384 2.8651 0
M  V30 194 H 17.9311 3.61331 1.41639 0
M  V30 195 H 16.0321 1.90995 3.19924 0
M  V30 196 H 16.1451 3.77725 2.94721 0
M  V30 197 H 14.5091 1.94709 1.64196 0
M  V30 198 H 15.2921 3.3528 0.737734 0
M  V30 199 N 17.7372 -0.778329 1.37039 0
M  V30 200 C 18.9862 -1.53189 1.3121 0
M  V30 201 C 19.2992 -1.95328 -0.103095 0
M  V30 202 O 20.5052 -2.70012 -0.283826 0
M  V30 203 C 18.9612 -2.76591 2.30272 0
M  V30 204 C 18.5692 -2.41577 3.77286 0
M  V30 205 C 20.3132 -3.5455 2.33441 0
M  V30 206 C 18.2202 -3.61441 4.68096 0
M  V30 207 H 17.1502 -0.5751 0.487622 0
M  V30 208 H 19.8012 -0.853101 1.62464 0
M  V30 209 H 18.1832 -3.46326 1.92027 0
M  V30 210 H 19.3572 -1.79668 4.2433 0
M  V30 211 H 17.6722 -1.76806 3.76999 0
M  V30 212 H 20.2692 -4.43628 2.98493 0
M  V30 213 H 20.6122 -3.93936 1.34611 0
M  V30 214 H 21.1452 -2.91805 2.7036 0
M  V30 215 H 17.8842 -3.27142 5.6803 0
M  V30 216 H 17.4042 -4.22478 4.25761 0
M  V30 217 H 19.0832 -4.28335 4.8491 0
M  V30 218 N 19.2153 -1.21501 -1.00376 0
M  V30 219 C 20.1453 -0.999478 -2.11028 0
M  V30 220 C 21.1263 0.0759671 -1.6993 0
M  V30 221 O 22.3113 -0.0841106 -1.94018 0
M  V30 222 C 19.4413 -0.564709 -3.42678 0
M  V30 223 C 18.3953 -1.58486 -3.97576 0
M  V30 224 C 17.7213 -1.00628 -5.25146 0
M  V30 225 C 19.0213 -2.97204 -4.29496 0
M  V30 226 H 20.7153 -1.92495 -2.29317 0
M  V30 227 H 18.2613 -0.92693 -1.102 0
M  V30 228 H 20.2143 -0.401091 -4.19487 0
M  V30 229 H 18.9383 0.396411 -3.24185 0
M  V30 230 H 17.5973 -1.73606 -3.22888 0
M  V30 231 H 17.2453 -0.0368439 -5.02987 0
M  V30 232 H 16.9453 -1.68771 -5.62841 0
M  V30 233 H 18.4693 -0.854015 -6.04598 0
M  V30 234 H 19.8833 -2.8552 -4.97143 0
M  V30 235 H 18.2803 -3.62372 -4.78338 0
M  V30 236 H 19.3503 -3.47956 -3.3772 0
M  V30 237 N 20.6934 1.19889 -1.02296 0
M  V30 238 C 21.9424 1.88743 -0.711257 0
M  V30 239 C 22.2554 1.80112 0.762817 0
M  V30 240 O 23.4614 2.44161 1.18733 0
M  V30 241 C 21.9174 3.38525 -1.22185 0
M  V30 242 C 21.5254 3.55727 -2.72328 0
M  V30 243 C 23.2694 4.12893 -0.985864 0
M  V30 244 C 21.1764 4.99369 -3.16835 0
M  V30 245 H 20.1064 0.706885 -0.262353 0
M  V30 246 H 22.7574 1.35586 -1.23648 0
M  V30 247 H 21.1394 3.91044 -0.624571 0
M  V30 248 H 22.3134 3.13564 -3.3766 0
M  V30 249 H 20.6284 2.94739 -2.9414 0
M  V30 250 H 23.2254 5.18813 -1.29374 0
M  V30 251 H 23.5684 4.16228 0.0775055 0
M  V30 252 H 24.1014 3.66494 -1.54684 0
M  V30 253 H 20.8404 5.01193 -4.22476 0
M  V30 254 H 20.3604 5.42317 -2.56228 0
M  V30 255 H 22.0394 5.67988 -3.09837 0
M  V30 256 N 22.1715 0.800033 1.35784 0
M  V30 257 C 23.1345 0.211565 2.28221 0
M  V30 258 C 24.1345 -0.59728 1.49296 0
M  V30 259 O 25.3245 -0.416721 1.69142 0
M  V30 260 C 22.4565 -0.705846 3.33513 0
M  V30 261 H 23.6495 1.02677 2.81776 0
M  V30 262 H 21.2025 0.570211 1.45528 0
M  V30 263 H 21.9375 -1.54498 2.85133 0
M  V30 264 H 21.7225 -0.127655 3.91892 0
M  V30 265 H 23.2125 -1.11211 4.02519 0
M  V30 266 N 23.6496 -1.47581 0.552962 0
M  V30 267 C 24.5826 -2.26883 -0.244857 0
M  V30 268 C 25.5606 -1.33784 -0.924147 0
M  V30 269 O 26.7446 -1.6316 -0.943981 0
M  V30 270 C 23.8716 -3.10695 -1.34856 0
M  V30 271 C 22.9176 -4.19339 -0.778268 0
M  V30 272 S 23.7506 -5.34207 0.37184 0
M  V30 273 C 24.9066 -6.21584 -0.733779 0
M  V30 274 H 25.1396 -2.94202 0.428087 0
M  V30 275 H 22.6726 -1.50628 0.339197 0
M  V30 276 H 24.6306 -3.59555 -1.98066 0
M  V30 277 H 23.2916 -2.42746 -1.99332 0
M  V30 278 H 22.4846 -4.77695 -1.60696 0
M  V30 279 H 22.0866 -3.73338 -0.222422 0
M  V30 280 H 24.3786 -6.57676 -1.62692 0
M  V30 281 H 25.3216 -7.07851 -0.187668 0
M  V30 282 H 25.7296 -5.55125 -1.02454 0
M  V30 283 N 25.1277 -0.289203 -1.54924 0
M  V30 284 C 26.0907 0.579144 -2.21762 0
M  V30 285 C 27.0907 1.07047 -1.1999 0
M  V30 286 O 28.2807 0.968384 -1.44803 0
M  V30 287 C 25.4127 1.80055 -2.8947 0
M  V30 288 H 26.6057 -0.00464908 -2.999 0
M  V30 289 H 24.1587 -0.0399306 -1.56249 0
M  V30 290 H 24.8937 2.42449 -2.15381 0
M  V30 291 H 24.6787 1.45602 -3.64064 0
M  V30 292 H 26.1687 2.41773 -3.40493 0
M  V30 293 N 26.6058 1.57591 -0.0167156 0
M  V30 294 C 27.8528 1.91283 0.664597 0
M  V30 295 C 28.1808 0.891949 1.72842 0
M  V30 296 O 27.4358 -0.100931 1.9544 0
M  V30 297 C 27.7348 3.3172 1.33029 0
M  V30 298 C 27.4008 4.4914 0.398047 0
M  V30 299 C 26.0628 4.80992 0.141421 0
M  V30 300 C 28.4148 5.20634 -0.242825 0
M  V30 301 C 25.7428 5.81703 -0.764092 0
M  V30 302 C 28.0948 6.22311 -1.13632 0
M  V30 303 C 26.7588 6.52611 -1.40196 0
M  V30 304 H 26.0288 0.699956 0.243193 0
M  V30 305 H 28.6758 1.9135 -0.0758267 0
M  V30 306 H 26.9808 3.27856 2.14517 0
M  V30 307 H 28.6778 3.55055 1.86379 0
M  V30 308 H 25.2678 4.24262 0.608238 0
M  V30 309 H 29.4518 4.96267 -0.0576019 0
M  V30 310 H 24.7078 6.03532 -0.977732 0
M  V30 311 H 28.8818 6.76834 -1.63917 0
M  V30 312 H 26.5088 7.30467 -2.10529 0
M  V30 313 N 28.0839 -0.256276 1.55502 0
M  V30 314 C 29.0139 -1.32102 1.92539 0
M  V30 315 C 29.9949 -1.50684 0.789194 0
M  V30 316 O 31.1799 -1.63449 1.04872 0
M  V30 317 C 28.3099 -2.67752 2.21192 0
M  V30 318 C 27.2639 -2.63878 3.36975 0
M  V30 319 C 26.5899 -4.03236 3.51147 0
M  V30 320 C 27.8899 -2.21682 4.72921 0
M  V30 321 H 29.5839 -1.01351 2.81724 0
M  V30 322 H 27.1299 -0.486105 1.35547 0
M  V30 323 H 29.0829 -3.42365 2.45691 0
M  V30 324 H 27.8069 -3.0012 1.28824 0
M  V30 325 H 26.4659 -1.91722 3.12471 0
M  V30 326 H 26.1139 -4.32854 2.56216 0
M  V30 327 H 25.8139 -4.01535 4.29003 0
M  V30 328 H 27.3379 -4.79563 3.77957 0
M  V30 329 H 28.7519 -2.86023 4.96854 0
M  V30 330 H 27.1489 -2.3111 5.53812 0
M  V30 331 H 28.2189 -1.16833 4.70615 0
M  V30 332 N 29.562 -1.4872 -0.521534 0
M  V30 333 C 30.495 -1.58451 -1.64221 0
M  V30 334 C 31.473 -0.434513 -1.56687 0
M  V30 335 O 32.657 -0.647275 -1.77038 0
M  V30 336 C 29.784 -1.52037 -3.02659 0
M  V30 337 C 28.83 -2.71981 -3.28525 0
M  V30 338 S 29.663 -4.33869 -3.13876 0
M  V30 339 C 30.819 -4.30067 -4.54745 0
M  V30 340 H 31.052 -2.53256 -1.55719 0
M  V30 341 H 28.585 -1.37358 -0.705143 0
M  V30 342 H 30.543 -1.49023 -3.82495 0
M  V30 343 H 29.204 -0.585541 -3.08594 0
M  V30 344 H 28.397 -2.63656 -4.29536 0
M  V30 345 H 27.999 -2.72302 -2.56374 0
M  V30 346 H 30.291 -4.00521 -5.46433 0
M  V30 347 H 31.234 -5.31287 -4.68123 0
M  V30 348 H 31.642 -3.60419 -4.34463 0
M  V30 349 N 31.0401 0.771051 -1.3745 0
M  V30 350 C 31.9701 1.89827 -1.3597 0
M  V30 351 C 32.9511 1.68562 -0.228216 0
M  V30 352 O 34.1361 1.8941 -0.428675 0
M  V30 353 C 31.2661 3.2712 -1.16662 0
M  V30 354 C 30.2201 3.6295 -2.2683 0
M  V30 355 C 29.5461 4.98791 -1.92644 0
M  V30 356 C 30.8461 3.69627 -3.69017 0
M  V30 357 H 32.5401 1.91323 -2.30295 0
M  V30 358 H 30.0861 0.919082 -1.10855 0
M  V30 359 H 32.0391 4.05615 -1.14256 0
M  V30 360 H 30.7631 3.26059 -0.187926 0
M  V30 361 H 29.4221 2.86763 -2.28392 0
M  V30 362 H 29.0701 4.94271 -0.933021 0
M  V30 363 H 28.7701 5.23733 -2.66416 0
M  V30 364 H 30.2941 5.79685 -1.91826 0
M  V30 365 H 31.7081 4.38273 -3.69581 0
M  V30 366 H 30.1051 4.06067 -4.41848 0
M  V30 367 H 31.1751 2.70273 -4.02592 0
M  V30 368 N 32.5182 1.22032 0.997298 0
M  V30 369 C 33.7462 1.06841 1.7718 0
M  V30 370 C 34.1612 -0.381325 1.84909 0
M  V30 371 O 33.5182 -1.26437 1.31605 0
M  V30 372 C 33.5692 1.66814 3.20711 0
M  V30 373 O 33.2902 3.06116 3.13408 0
M  V30 374 C 34.7912 1.56838 4.14628 0
M  V30 375 H 32.0112 0.374782 0.556578 0
M  V30 376 H 34.5552 1.61532 1.2541 0
M  V30 377 H 32.7102 1.16196 3.69564 0
M  V30 378 H 33.1242 3.34926 4.0364 0
M  V30 379 H 34.5982 2.03532 5.13107 0
M  V30 380 H 35.0752 0.524155 4.36061 0
M  V30 381 H 35.6812 2.06741 3.7167 0
M  V30 382 N 33.9963 -1.19345 1.0293 0
M  V30 383 C 34.9063 -2.26245 0.620515 0
M  V30 384 C 35.9223 -1.70486 -0.347928 0
M  V30 385 O 37.0983 -2.00347 -0.205704 0
M  V30 386 C 34.1633 -3.46693 -0.0218957 0
M  V30 387 C 33.2243 -4.17632 0.994102 0
M  V30 388 C 32.4573 -5.32329 0.382253 0
M  V30 389 O 32.6803 -5.64552 -0.814676 0
M  V30 390 O 31.6143 -5.91664 1.10531 0
M  V30 391 H 35.4403 -2.63453 1.51083 0
M  V30 392 H 33.0253 -1.26207 0.799513 0
M  V30 393 H 34.9073 -4.19683 -0.380072 0
M  V30 394 H 33.5823 -3.11333 -0.886209 0
M  V30 395 H 32.4893 -3.4676 1.40387 0
M  V30 396 H 33.8223 -4.56964 1.8288 0
M  V30 397 N 35.4744 -0.807222 -1.35358 0
M  V30 398 C 36.8904 -0.491038 -1.51858 0
M  V30 399 C 37.0904 0.987648 -1.75635 0
M  V30 400 O 36.1464 1.77265 -1.79815 0
M  V30 401 C 37.4594 -1.33695 -2.69344 0
M  V30 402 C 39.0074 -1.33246 -2.83222 0
M  V30 403 C 39.4824 -2.1625 -4.03733 0
M  V30 404 N 40.9734 -2.1379 -4.10911 0
M  V30 405 C 41.7084 -2.74772 -5.03277 0
M  V30 406 N 41.2044 -3.44684 -6.0097 0
M  V30 407 N 42.9974 -2.6441 -4.96028 0
M  V30 408 H 35.1484 -1.76485 -1.18181 0
M  V30 409 H 37.4114 -0.751199 -0.578276 0
M  V30 410 H 37.1174 -2.38634 -2.58354 0
M  V30 411 H 36.9914 -0.990618 -3.6396 0
M  V30 412 H 39.3784 -0.290911 -2.93663 0
M  V30 413 H 39.4594 -1.71866 -1.89461 0
M  V30 414 H 39.1034 -3.20445 -3.94052 0
M  V30 415 H 39.0334 -1.74989 -4.96675 0
M  V30 416 H 41.5244 -1.62923 -3.40976 0
M  V30 417 H 41.8374 -3.88501 -6.68047 0
M  V30 418 H 40.1824 -3.48788 -6.01142 0
M  V30 419 H 43.3734 -2.0938 -4.18662 0
M  V30 420 H 43.5464 -3.12225 -5.6782 0
M  V30 421 N 36.9525 1.47285 -0.560781 0
M  V30 422 C 37.8995 2.30058 0.18491 0
M  V30 423 C 38.8695 1.39281 0.904986 0
M  V30 424 O 40.0545 1.68241 0.899979 0
M  V30 425 C 37.1945 3.23317 1.20666 0
M  V30 426 C 36.3075 4.29186 0.492285 0
M  V30 427 C 35.4425 5.09592 1.49964 0
M  V30 428 C 34.4815 6.07232 0.770439 0
M  V30 429 N 33.6185 6.80584 1.72479 0
M  V30 430 H 38.4585 2.93302 -0.527048 0
M  V30 431 H 35.9955 1.44568 -0.271738 0
M  V30 432 H 37.9535 3.75811 1.81168 0
M  V30 433 H 36.5835 2.61929 1.88661 0
M  V30 434 H 35.6355 3.7972 -0.227333 0
M  V30 435 H 36.9475 4.98738 -0.0787929 0
M  V30 436 H 36.1015 5.66254 2.17809 0
M  V30 437 H 34.8405 4.3995 2.10464 0
M  V30 438 H 33.8455 5.49745 0.0780846 0
M  V30 439 H 35.0705 6.78884 0.171134 0
M  V30 440 H 33.0165 6.1367 2.3183 0
M  V30 441 H 32.9335 7.46319 1.20596 0
M  V30 442 H 34.2015 7.41818 2.39428 0
M  V30 443 N 38.4306 0.297415 1.54768 0
M  V30 444 C 39.6796 -0.313669 1.99246 0
M  V30 445 C 39.9926 -1.55281 1.18942 0
M  V30 446 O 41.1986 -2.23825 1.5367 0
M  V30 447 C 39.6546 -0.609407 3.54703 0
M  V30 448 C 39.2626 0.611192 4.43811 0
M  V30 449 C 41.0066 -1.18188 4.07715 0
M  V30 450 C 38.9136 0.288805 5.90694 0
M  V30 451 H 37.8436 -0.120979 0.744231 0
M  V30 452 H 40.4946 0.40556 1.78962 0
M  V30 453 H 38.8766 -1.38813 3.70873 0
M  V30 454 H 40.0506 1.3875 4.39414 0
M  V30 455 H 38.3656 1.10205 4.01552 0
M  V30 456 H 40.9626 -1.43727 5.15021 0
M  V30 457 H 41.3056 -2.12299 3.58099 0
M  V30 458 H 41.8386 -0.464944 3.95074 0
M  V30 459 H 38.5776 1.19838 6.44453 0
M  V30 460 H 38.0976 -0.450305 5.98107 0
M  V30 461 H 39.7766 -0.110933 6.46905 0
M  V30 462 N 39.9087 -1.5758 0.0250728 0
M  V30 463 C 40.8387 -2.13007 -0.956575 0
M  V30 464 C 41.8197 -1.0452 -1.342 0
M  V30 465 O 43.0047 -1.32332 -1.42133 0
M  V30 466 C 40.1347 -2.65386 -2.24026 0
M  V30 467 C 39.0887 -3.78623 -1.99571 0
M  V30 468 C 38.4147 -4.17414 -3.3417 0
M  V30 469 C 39.7147 -5.04867 -1.33814 0
M  V30 470 H 41.4087 -2.9528 -0.494991 0
M  V30 471 H 38.9547 -1.42042 -0.236651 0
M  V30 472 H 40.9077 -3.02794 -2.93076 0
M  V30 473 H 39.6317 -1.80268 -2.72343 0
M  V30 474 H 38.2907 -3.41646 -1.32941 0
M  V30 475 H 37.9387 -3.29284 -3.80238 0
M  V30 476 H 37.6387 -4.93719 -3.18615 0
M  V30 477 H 39.1627 -4.57402 -4.04495 0
M  V30 478 H 40.5767 -5.39888 -1.92857 0
M  V30 479 H 38.9737 -5.86144 -1.28669 0
M  V30 480 H 40.0437 -4.83904 -0.310561 0
M  V30 481 N 41.3868 0.248026 -1.55636 0
M  V30 482 C 42.6348 0.974295 -1.77065 0
M  V30 483 C 42.9558 1.85897 -0.588849 0
M  V30 484 O 42.2258 1.91868 0.395407 0
M  V30 485 H 40.8058 0.362733 -0.653019 0
M  V30 486 H 43.4678 0.266244 -1.93073 0
M  V30 487 H 42.5638 1.59667 -2.68166 0
M  V30 488 N 42.8649 1.48995 0.513639 0
M  V30 489 C 44.0949 1.61297 1.291 0
M  V30 490 C 44.5029 0.278656 1.87137 0
M  V30 491 O 43.8459 -0.744325 1.67945 0
M  V30 492 C 43.9079 2.61326 2.46879 0
M  V30 493 C 43.5719 4.05993 2.09807 0
M  V30 494 C 44.5689 4.93183 1.64519 0
M  V30 495 C 42.2539 4.51642 2.19829 0
M  V30 496 C 44.2479 6.24056 1.2974 0
M  V30 497 C 41.9349 5.82532 1.84662 0
M  V30 498 C 42.9329 6.68562 1.3969 0
M  V30 499 O 42.6209 7.97014 1.04992 0
M  V30 500 H 42.3529 0.546236 0.39825 0
M  V30 501 H 44.9069 1.95673 0.62459 0
M  V30 502 H 43.1369 2.22104 3.16554 0
M  V30 503 H 44.8259 2.6329 3.08923 0
M  V30 504 H 45.5919 4.59147 1.56233 0
M  V30 505 H 41.4709 3.84855 2.53786 0
M  V30 506 H 45.0149 6.91161 0.945659 0
M  V30 507 H 40.9119 6.16099 1.92594 0
M  V30 508 H 41.6799 8.09913 1.18249 0
M  V30 509 N 44.343 -0.763751 1.37857 0
M  V30 510 C 45.276 -1.88486 1.28639 0
M  V30 511 C 46.254 -1.61757 0.165363 0
M  V30 512 O 47.438 -1.85391 0.340948 0
M  V30 513 C 44.565 -3.23884 0.990811 0
M  V30 514 C 43.611 -3.69514 2.12983 0
M  V30 515 S 44.444 -3.82244 3.75033 0
M  V30 516 C 45.6 -5.20477 3.47641 0
M  V30 517 H 45.833 -1.96017 2.23527 0
M  V30 518 H 43.366 -0.925684 1.23574 0
M  V30 519 H 45.324 -4.02081 0.827101 0
M  V30 520 H 43.985 -3.14044 0.0592832 0
M  V30 521 H 43.178 -4.67696 1.87821 0
M  V30 522 H 42.78 -2.98441 2.25408 0
M  V30 523 H 45.072 -6.05905 3.03125 0
M  V30 524 H 46.015 -5.50655 4.4518 0
M  V30 525 H 46.423 -4.88793 2.82385 0
M  V30 526 N 45.8211 -1.22559 -0.990812 0
M  V30 527 C 46.7531 -0.955325 -2.08342 0
M  V30 528 C 47.7661 0.0668408 -1.62663 0
M  V30 529 O 48.9551 -0.167421 -1.77713 0
M  V30 530 C 46.0551 -0.415566 -3.36342 0
M  V30 531 C 45.2281 -1.49544 -4.11042 0
M  V30 532 C 44.2871 -0.962399 -5.17324 0
M  V30 533 O 43.3131 -1.64907 -5.44788 0
M  V30 534 N 44.5151 0.215134 -5.80101 0
M  V30 535 H 47.2801 -1.89596 -2.32106 0
M  V30 536 H 44.8411 -1.13276 -1.15673 0
M  V30 537 H 46.8331 -0.0442386 -4.04676 0
M  V30 538 H 45.4031 0.430232 -3.09625 0
M  V30 539 H 44.6231 -2.04 -3.37309 0
M  V30 540 H 45.9111 -2.22195 -4.57719 0
M  V30 541 H 45.3091 0.789779 -5.6016 0
M  V30 542 H 43.8661 0.527826 -6.49659 0
M  V30 543 N 47.2992 1.18797 -1.03562 0
M  V30 544 C 48.2292 2.24472 -0.643019 0
M  V30 545 C 49.2102 1.66433 0.351283 0
M  V30 546 O 50.3952 1.92803 0.232505 0
M  V30 547 C 47.5252 3.473 4.24935e-05 0
M  V30 548 C 46.4792 4.18055 -0.917257 0
M  V30 549 C 45.8052 5.34519 -0.138941 0
M  V30 550 C 47.1052 4.72109 -2.23407 0
M  V30 551 H 48.7992 2.57566 -1.52643 0
M  V30 552 H 46.3452 1.23806 -0.735394 0
M  V30 553 H 48.2982 4.20426 0.286383 0
M  V30 554 H 47.0222 3.13424 0.918299 0
M  V30 555 H 45.6812 3.46821 -1.1879 0
M  V30 556 H 45.3292 4.96891 0.781562 0
M  V30 557 H 45.0292 5.82794 -0.750005 0
M  V30 558 H 46.5532 6.10438 0.1405 0
M  V30 559 H 47.9672 5.36955 -2.00879 0
M  V30 560 H 46.3642 5.30897 -2.79765 0
M  V30 561 H 47.4342 3.89807 -2.88407 0
M  V30 562 N 48.7773 0.814389 1.34928 0
M  V30 563 C 50.1933 0.499084 1.51596 0
M  V30 564 C 50.3933 -0.978319 1.76157 0
M  V30 565 O 49.4493 -1.76309 1.80752 0
M  V30 566 C 50.7623 1.35121 2.68631 0
M  V30 567 C 52.3103 1.34746 2.82511 0
M  V30 568 C 52.7853 2.18388 4.0258 0
M  V30 569 N 54.2763 2.15966 4.09772 0
M  V30 570 C 55.0113 2.77437 5.01813 0
M  V30 571 N 54.5073 3.47866 5.99134 0
M  V30 572 N 56.3003 2.67037 4.94619 0
M  V30 573 H 48.4513 1.7711 1.17243 0
M  V30 574 H 50.7143 0.754256 0.574284 0
M  V30 575 H 50.4203 2.40001 2.57085 0
M  V30 576 H 50.2943 1.00991 3.63429 0
M  V30 577 H 52.6813 0.30648 2.93504 0
M  V30 578 H 52.7623 1.72869 1.88547 0
M  V30 579 H 52.4063 3.2253 3.92347 0
M  V30 580 H 52.3363 1.77621 4.9574 0
M  V30 581 H 54.8273 1.64729 3.40107 0
M  V30 582 H 55.1403 3.92038 6.65977 0
M  V30 583 H 53.4853 3.51972 5.99284 0
M  V30 584 H 56.6763 2.11597 4.17546 0
M  V30 585 H 56.8493 3.15232 5.66156 0
M  V30 586 N 50.2554 -1.46986 0.568584 0
M  V30 587 C 51.2024 -2.30153 -0.172707 0
M  V30 588 C 52.1724 -1.39759 -0.897586 0
M  V30 589 O 53.3574 -1.68716 -0.891044 0
M  V30 590 C 50.4974 -3.23952 -1.1895 0
M  V30 591 C 49.6104 -4.29441 -0.469517 0
M  V30 592 C 48.7454 -5.1038 -1.47259 0
M  V30 593 C 47.7844 -6.07632 -0.738225 0
M  V30 594 N 46.9214 -6.8149 -1.68868 0
M  V30 595 H 51.7614 -2.93019 0.542596 0
M  V30 596 H 49.2984 -1.44422 0.279401 0
M  V30 597 H 51.2564 -3.76767 -1.79173 0
M  V30 598 H 49.8864 -2.62926 -1.87269 0
M  V30 599 H 48.9384 -3.79594 0.247467 0
M  V30 600 H 50.2504 -4.98689 0.105241 0
M  V30 601 H 49.4044 -5.67402 -2.14803 0
M  V30 602 H 48.1434 -4.4106 -2.08128 0
M  V30 603 H 47.1484 -5.49778 -0.0489293 0
M  V30 604 H 48.3734 -6.78966 -0.135129 0
M  V30 605 H 46.3194 -6.14891 -2.28573 0
M  V30 606 H 46.2364 -7.46948 -1.16636 0
M  V30 607 H 47.5044 -7.43078 -2.3549 0
M  V30 608 N 51.7335 -0.305618 -1.54608 0
M  V30 609 C 52.9815 0.301701 -1.99835 0
M  V30 610 C 53.3025 1.54054 -1.19551 0
M  V30 611 O 52.5725 1.93702 -0.292658 0
M  V30 612 H 51.1525 0.114468 -0.738178 0
M  V30 613 H 53.8145 -0.418016 -1.90364 0
M  V30 614 H 52.9105 0.570548 -3.06841 0
M  V30 615 N 53.2116 1.57565 -0.0334293 0
M  V30 616 C 54.6226 1.79746 0.504798 0
M  V30 617 C 54.9736 0.944091 1.71992 0
M  V30 618 O 54.0986 0.155694 2.15839 0
M  V30 619 C 54.6936 3.25997 0.922567 0
M  V30 620 C 53.2526 3.49159 1.40588 0
M  V30 621 C 52.3996 2.74785 0.372633 0
M  V30 622 H 55.3506 1.56565 -0.259436 0
M  V30 623 H 55.3716 3.35945 1.78666 0
M  V30 624 H 54.8836 3.88081 0.0379825 0
M  V30 625 H 52.9846 2.92332 2.31025 0
M  V30 626 H 53.0976 4.57873 1.41028 0
M  V30 627 H 51.4616 2.40391 0.841672 0
M  V30 628 H 52.2446 3.39587 -0.503559 0
M  V30 629 N 54.6897 -0.239769 1.55765 0
M  V30 630 C 55.6377 -1.31668 1.91745 0
M  V30 631 C 56.6317 -1.49462 0.797338 0
M  V30 632 O 57.8377 -1.50852 0.982021 0
M  V30 633 H 54.2127 -0.441048 0.609082 0
M  V30 634 H 56.1837 -0.985923 2.81642 0
M  V30 635 C 54.9327 -2.66368 2.2348 0
M  V30 636 H 54.2557 -2.53478 3.09175 0
M  V30 637 H 55.6957 -3.40578 2.52553 0
M  V30 638 C 54.1547 -3.20002 1.05359 0
M  V30 639 O 54.6847 -4.00538 0.305261 0
M  V30 640 N 52.8907 -2.78126 0.842292 0
M  V30 641 H 52.4377 -2.12742 1.45253 0
M  V30 642 H 52.3957 -3.14354 0.053652 0
M  V30 643 N 56.1678 -1.49265 -0.50573 0
M  V30 644 C 57.4138 -1.58748 -1.26202 0
M  V30 645 C 57.7468 -0.271227 -1.92297 0
M  V30 646 O 57.0218 0.724831 -1.80489 0
M  V30 647 C 57.3048 -2.74332 -2.33268 0
M  V30 648 C 57.1578 -4.15737 -1.71705 0
M  V30 649 C 58.4768 -2.85576 -3.34865 0
M  V30 650 H 55.5958 -0.577826 -0.457478 0
M  V30 651 H 58.2378 -1.81532 -0.560897 0
M  V30 652 H 56.3878 -2.55036 -2.93068 0
M  V30 653 H 58.0598 -4.46537 -1.15769 0
M  V30 654 H 56.3028 -4.21605 -1.02135 0
M  V30 655 H 56.9738 -4.92477 -2.49341 0
M  V30 656 H 59.4498 -3.03127 -2.8505 0
M  V30 657 H 58.3258 -3.68135 -4.07146 0
M  V30 658 H 58.5868 -1.94732 -3.96903 0
M  V30 659 N 57.6459 0.756429 -1.3826 0
M  V30 660 C 58.8919 1.51772 -1.34511 0
M  V30 661 C 59.2249 1.94089 0.0656691 0
M  V30 662 O 58.4999 1.65221 1.02626 0
M  V30 663 C 58.7829 2.77226 -2.29821 0
M  V30 664 C 58.6359 2.41065 -3.79747 0
M  V30 665 C 59.9549 3.79236 -2.23312 0
M  V30 666 H 57.0739 0.550578 -0.489931 0
M  V30 667 H 59.7159 0.866607 -1.69086 0
M  V30 668 H 57.8659 3.32784 -2.00467 0
M  V30 669 H 59.5379 1.91303 -4.19763 0
M  V30 670 H 57.7809 1.7356 -3.97567 0
M  V30 671 H 58.4519 3.3081 -4.41892 0
M  V30 672 H 60.9279 3.3321 -2.49219 0
M  V30 673 H 59.8039 4.64714 -2.92116 0
M  V30 674 H 60.0649 4.24615 -1.23102 0
M  V30 675 N 59.124 1.23083 0.984299 0
M  V30 676 C 60.372 1.05848 1.72165 0
M  V30 677 C 60.693 -0.406049 1.90726 0
M  V30 678 O 59.963 -1.29139 1.47309 0
M  V30 679 H 58.543 0.388685 0.637913 0
M  V30 680 H 61.205 1.54736 1.18503 0
M  V30 681 H 60.301 1.54327 2.71274 0
M  V30 682 N 60.6021 -1.18246 1.0419 0
M  V30 683 C 62.0131 -1.69914 0.773698 0
M  V30 684 C 62.3641 -1.83085 -0.705297 0
M  V30 685 O 61.4891 -1.51123 -1.5489 0
M  V30 686 C 62.0841 -3.08619 1.39784 0
M  V30 687 C 60.6431 -3.57494 1.17792 0
M  V30 688 C 59.7901 -2.34013 1.48773 0
M  V30 689 H 62.7411 -1.02904 1.20816 0
M  V30 690 H 62.7621 -3.71958 0.801714 0
M  V30 691 H 62.2741 -2.99001 2.47426 0
M  V30 692 H 60.3751 -3.72406 0.120295 0
M  V30 693 H 60.4881 -4.40852 1.87581 0
M  V30 694 H 58.8521 -2.37986 0.907463 0
M  V30 695 H 59.6351 -2.27013 2.57527 0
M  V30 696 N 62.0802 -0.821533 -1.34494 0
M  V30 697 C 63.3102 -0.421272 -2.02259 0
M  V30 698 C 63.7182 0.977047 -1.6202 0
M  V30 699 O 63.0612 1.64348 -0.820703 0
M  V30 700 C 63.1232 -0.44231 -3.56769 0
M  V30 701 C 62.7872 -1.79372 -4.20327 0
M  V30 702 C 63.7842 -2.75435 -4.40944 0
M  V30 703 C 61.4692 -2.08182 -4.57127 0
M  V30 704 C 63.4632 -3.98482 -4.97484 0
M  V30 705 C 61.1502 -3.31489 -5.13379 0
M  V30 706 C 62.1482 -4.26457 -5.33501 0
M  V30 707 O 61.8362 -5.47585 -5.88562 0
M  V30 708 H 61.5682 -0.167473 -0.654927 0
M  V30 709 H 64.1222 -1.11073 -1.72777 0
M  V30 710 H 62.3522 0.303836 -3.85505 0
M  V30 711 H 64.0412 -0.0622925 -4.05852 0
M  V30 712 H 64.8072 -2.54473 -4.12878 0
M  V30 713 H 60.6862 -1.35066 -4.4077 0
M  V30 714 H 64.2302 -4.72618 -5.13106 0
M  V30 715 H 60.1272 -3.52316 -5.40873 0
M  V30 716 H 60.8952 -5.49086 -6.06998 0
M  V30 717 N 63.5583 1.46682 -0.576371 0
M  V30 718 C 64.8063 2.02013 -0.0594163 0
M  V30 719 C 65.1273 1.45101 1.30271 0
M  V30 720 O 64.3973 0.633317 1.8538 0
M  V30 721 H 62.9773 0.746759 -0.0189745 0
M  V30 722 H 65.6393 1.79862 -0.750717 0
M  V30 723 H 64.7353 3.12097 0.014345 0
M  V30 724 N 65.0364 0.313813 1.54444 0
M  V30 725 C 65.9664 -0.549454 2.26943 0
M  V30 726 C 66.9474 -1.12741 1.27372 0
M  V30 727 O 68.1324 -1.15436 1.56167 0
M  V30 728 C 65.2624 -1.71523 3.01989 0
M  V30 729 C 64.2164 -1.26703 4.08816 0
M  V30 730 C 63.5424 -2.51898 4.71647 0
M  V30 731 C 64.8424 -0.388962 5.2085 0
M  V30 732 H 66.5364 0.0552661 2.99349 0
M  V30 733 H 64.0824 0.0280207 1.43973 0
M  V30 734 H 66.0354 -2.32535 3.51433 0
M  V30 735 H 64.7594 -2.34639 2.27183 0
M  V30 736 H 63.4184 -0.679896 3.6024 0
M  V30 737 H 63.0664 -3.13356 3.93468 0
M  V30 738 H 62.7664 -2.22605 5.43802 0
M  V30 739 H 64.2904 -3.1369 5.23861 0
M  V30 740 H 65.7044 -0.905107 5.6611 0
M  V30 741 H 64.1014 -0.18924 5.99802 0
M  V30 742 H 65.1714 0.582699 4.81386 0
M  V30 743 N 66.5145 -1.57545 0.0417849 0
M  V30 744 C 67.4445 -2.14009 -0.933929 0
M  V30 745 C 68.4255 -1.05938 -1.33083 0
M  V30 746 O 69.6105 -1.33833 -1.40721 0
M  V30 747 C 66.7405 -2.67747 -2.21199 0
M  V30 748 C 65.6945 -3.80718 -1.95544 0
M  V30 749 C 65.0205 -4.20935 -3.29724 0
M  V30 750 C 66.3205 -5.06258 -1.28452 0
M  V30 751 H 68.0145 -2.95788 -0.463645 0
M  V30 752 H 65.5605 -1.42285 -0.221573 0
M  V30 753 H 67.5135 -3.05886 -2.89848 0
M  V30 754 H 66.2375 -1.83147 -2.70416 0
M  V30 755 H 64.8965 -3.43037 -1.2931 0
M  V30 756 H 64.5445 -3.33298 -3.76724 0
M  V30 757 H 64.2445 -4.9707 -3.13361 0
M  V30 758 H 65.7685 -4.61666 -3.9962 0
M  V30 759 H 67.1825 -5.41903 -1.8712 0
M  V30 760 H 65.5795 -5.87475 -1.22445 0
M  V30 761 H 66.6495 -4.84207 -0.259219 0
M  V30 762 N 67.9926 0.231505 -1.5589 0
M  V30 763 C 68.9246 1.31006 -1.8807 0
M  V30 764 C 69.9376 1.43539 -0.768145 0
M  V30 765 O 71.1266 1.44614 -1.04638 0
M  V30 766 C 68.2266 2.68688 -2.06543 0
M  V30 767 C 67.3996 2.78228 -3.37502 0
M  V30 768 C 66.4586 3.96857 -3.4553 0
M  V30 769 O 65.4846 3.85662 -4.18633 0
M  V30 770 N 66.6866 5.1072 -2.75944 0
M  V30 771 H 69.4516 1.03731 -2.81176 0
M  V30 772 H 67.0126 0.421573 -1.56315 0
M  V30 773 H 69.0046 3.46412 -2.09239 0
M  V30 774 H 67.5746 2.88605 -1.20109 0
M  V30 775 H 66.7946 1.87059 -3.46991 0
M  V30 776 H 68.0826 2.81564 -4.23791 0
M  V30 777 H 67.4806 5.2271 -2.16311 0
M  V30 778 H 66.0376 5.86523 -2.84314 0
M  V30 779 N 69.4707 1.49531 0.497807 0
M  V30 780 C 70.8817 1.52344 1.07927 0
M  V30 781 C 71.2327 0.311469 1.93712 0
M  V30 782 O 70.3577 -0.578405 2.08527 0
M  V30 783 C 70.9527 2.76062 1.96405 0
M  V30 784 C 69.5117 2.81643 2.49709 0
M  V30 785 C 68.6587 2.46299 1.27404 0
M  V30 786 H 71.6097 1.56182 0.281576 0
M  V30 787 H 71.6307 2.56405 2.81135 0
M  V30 788 H 71.1427 3.64254 1.33943 0
M  V30 789 H 69.2437 1.97739 3.15801 0
M  V30 790 H 69.3567 3.83891 2.86643 0
M  V30 791 H 67.7207 1.98148 1.60029 0
M  V30 792 H 68.5037 3.36769 0.66645 0
M  V30 793 N 70.9488 -0.749086 1.3866 0
M  V30 794 C 72.1958 -1.50833 1.35114 0
M  V30 795 C 72.5238 -1.94415 -0.0574049 0
M  V30 796 O 71.7788 -1.66065 -1.03541 0
M  V30 797 C 72.0778 -2.7712 2.25697 0
M  V30 798 C 71.7438 -2.52477 3.73585 0
M  V30 799 C 70.4058 -2.45466 4.13884 0
M  V30 800 C 72.7578 -2.31066 4.67181 0
M  V30 801 C 70.0858 -2.15064 5.45861 0
M  V30 802 C 72.4378 -2.02183 5.9942 0
M  V30 803 C 71.1018 -1.93631 6.38798 0
M  V30 804 H 70.3718 -0.551936 0.494416 0
M  V30 805 H 73.0188 -0.860979 1.71054 0
M  V30 806 H 71.3238 -3.46528 1.82827 0
M  V30 807 H 73.0208 -3.35096 2.20254 0
M  V30 808 H 69.6108 -2.58807 3.41638 0
M  V30 809 H 73.7948 -2.35459 4.3689 0
M  V30 810 H 69.0508 -2.06954 5.75308 0
M  V30 811 H 73.2248 -1.8462 6.71482 0
M  V30 812 H 70.8518 -1.69839 7.40985 0
M  V30 813 N 72.4269 -1.23603 -0.977757 0
M  V30 814 C 73.3899 -1.02069 -2.05218 0
M  V30 815 C 74.3899 0.0184305 -1.60789 0
M  V30 816 O 75.5799 -0.221569 -1.72785 0
M  V30 817 C 72.7119 -0.544926 -3.36517 0
M  V30 818 H 73.9049 -1.9742 -2.25755 0
M  V30 819 H 71.4579 -1.05684 -1.15155 0
M  V30 820 H 72.1929 0.412241 -3.21669 0
M  V30 821 H 71.9779 -1.2948 -3.70105 0
M  V30 822 H 73.4679 -0.414985 -4.15533 0
M  V30 823 N 73.905 1.17692 -1.04816 0
M  V30 824 C 75.182 1.83768 -0.669963 0
M  V30 825 C 75.562 1.93232 0.849986 0
M  V30 826 O 74.91 1.46397 1.75443 0
M  V30 827 C 75.12 3.21641 -1.35455 0
M  V30 828 C 76.468 3.97592 -1.49017 0
M  V30 829 O 77.492 3.31107 -1.31326 0
M  V30 830 O 76.351 5.16729 -1.77914 0
M  V30 831 H 73.445 0.792799 -0.235368 0
M  V30 832 H 75.991 1.25021 -1.14751 0
M  V30 833 H 74.763 3.097 -2.39168 0
M  V30 834 H 74.386 3.88052 -0.866107 0
M  V30 835 N 75.3831 0.828654 1.34056 0
M  V30 836 C 76.3461 0.259927 2.27721 0
M  V30 837 C 77.3461 -0.565478 1.50529 0
M  V30 838 O 78.5361 -0.38075 1.69988 0
M  V30 839 C 75.6681 -0.634944 3.34935 0
M  V30 840 H 76.8611 1.0863 2.79534 0
M  V30 841 H 74.4141 0.600951 1.44285 0
M  V30 842 H 75.1491 -1.48416 2.88346 0
M  V30 843 H 74.9341 -0.0444999 3.92075 0
M  V30 844 H 76.4241 -1.02648 4.04788 0
M  V30 845 N 76.8612 -1.46375 0.584142 0
M  V30 846 C 77.7942 -2.27351 -0.196676 0
M  V30 847 C 78.7722 -1.35715 -0.895561 0
M  V30 848 O 79.9562 -1.65126 -0.90916 0
M  V30 849 C 77.0832 -3.13486 -1.28235 0
M  V30 850 C 76.1292 -4.20896 -0.689145 0
M  V30 851 S 76.9622 -5.33299 0.48507 0
M  V30 852 C 78.1182 -6.23 -0.601767 0
M  V30 853 H 78.3512 -2.93228 0.490395 0
M  V30 854 H 75.8842 -1.49875 0.371071 0
M  V30 855 H 77.8422 -3.63676 -1.90395 0
M  V30 856 H 76.5032 -2.4692 -1.94138 0
M  V30 857 H 75.6962 -4.80997 -1.50527 0
M  V30 858 H 75.2982 -3.73726 -0.143181 0
M  V30 859 H 77.5902 -6.60979 -1.48705 0
M  V30 860 H 78.5332 -7.0809 -0.0374799 0
M  V30 861 H 78.9412 -5.57173 -0.906557 0
M  V30 862 N 78.3393 -0.321999 -1.54275 0
M  V30 863 C 79.2863 0.544664 -2.24281 0
M  V30 864 C 80.2563 1.1129 -1.23303 0
M  V30 865 O 81.4413 1.15354 -1.51981 0
M  V30 866 C 78.5813 1.70045 -3.00298 0
M  V30 867 C 77.6943 1.16159 -4.1609 0
M  V30 868 C 76.8293 2.28293 -4.79641 0
M  V30 869 C 75.8683 1.71648 -5.8754 0
M  V30 870 N 75.0053 2.77438 -6.44959 0
M  V30 871 H 79.8453 -0.0588907 -2.97942 0
M  V30 872 H 77.3823 -0.0408345 -1.47043 0
M  V30 873 H 79.3403 2.38054 -3.42616 0
M  V30 874 H 77.9703 2.27531 -2.28975 0
M  V30 875 H 77.0223 0.373092 -3.78566 0
M  V30 876 H 78.3343 0.707087 -4.93763 0
M  V30 877 H 77.4883 3.0421 -5.2492 0
M  V30 878 H 76.2273 2.77079 -4.01346 0
M  V30 879 H 75.2323 0.942282 -5.41665 0
M  V30 880 H 76.4573 1.23741 -6.67731 0
M  V30 881 H 74.4033 3.25519 -5.69538 0
M  V30 882 H 74.3203 2.36547 -7.1804 0
M  V30 883 H 75.5883 3.53189 -6.94894 0
M  V30 884 N 79.8174 1.5752 -0.0501392 0
M  V30 885 C 80.7474 2.14502 0.922566 0
M  V30 886 C 81.7284 1.06642 1.3252 0
M  V30 887 O 82.9134 1.34577 1.4001 0
M  V30 888 C 80.0434 2.68916 2.19776 0
M  V30 889 C 78.9974 3.8175 1.93523 0
M  V30 890 C 78.3234 4.22677 3.27487 0
M  V30 891 C 79.6234 5.06932 1.25765 0
M  V30 892 H 81.3174 2.9603 0.447952 0
M  V30 893 H 78.8634 1.42401 0.214024 0
M  V30 894 H 80.8164 3.07419 2.88222 0
M  V30 895 H 79.5404 1.84578 2.69441 0
M  V30 896 H 78.1994 3.43718 1.27489 0
M  V30 897 H 77.8474 3.35291 3.74952 0
M  V30 898 H 77.5474 4.98725 3.1072 0
M  V30 899 H 79.0714 4.63779 3.97166 0
M  V30 900 H 80.4854 5.42888 1.84244 0
M  V30 901 H 78.8824 5.88116 1.19328 0
M  V30 902 H 79.9524 4.84337 0.233536 0
M  V30 903 N 81.2955 -0.223234 1.56011 0
M  V30 904 C 82.5425 -0.947875 1.78946 0
M  V30 905 C 82.8705 -1.844 0.618608 0
M  V30 906 O 82.1255 -1.91629 -0.397093 0
M  V30 907 C 82.4245 -1.81948 3.0762 0
M  V30 908 C 82.0905 -1.07672 4.37856 0
M  V30 909 C 80.7525 -0.871544 4.73242 0
M  V30 910 C 83.1045 -0.552081 5.18268 0
M  V30 911 C 80.4325 -0.129791 5.86556 0
M  V30 912 C 82.7845 0.17632 6.32354 0
M  V30 913 C 81.4485 0.39277 6.66343 0
M  V30 914 H 80.7185 -0.346852 0.654809 0
M  V30 915 H 83.3655 -0.216171 1.90276 0
M  V30 916 H 81.6705 -2.61899 2.91404 0
M  V30 917 H 83.3675 -2.38227 3.22566 0
M  V30 918 H 79.9575 -1.24662 4.1007 0
M  V30 919 H 84.1415 -0.698076 4.91366 0
M  V30 920 H 79.3975 0.048153 6.11381 0
M  V30 921 H 83.5715 0.590367 6.93893 0
M  V30 922 H 81.1985 0.969466 7.53993 0
M  V30 923 N 82.7736 -1.49793 -0.48987 0
M  V30 924 C 84.0016 -1.63568 -1.26701 0
M  V30 925 C 84.4166 -0.311465 -1.86213 0
M  V30 926 O 83.7736 0.704416 -1.68357 0
M  V30 927 C 83.8246 -2.71284 -2.38929 0
M  V30 928 O 83.5456 -3.9857 -1.81861 0
M  V30 929 C 85.0466 -2.95864 -3.3012 0
M  V30 930 H 82.2666 -0.550342 -0.383881 0
M  V30 931 H 84.8106 -1.95898 -0.586864 0
M  V30 932 H 82.9656 -2.417 -3.02753 0
M  V30 933 H 83.3796 -4.57993 -2.55622 0
M  V30 934 H 84.8536 -3.74941 -4.05121 0
M  V30 935 H 85.3306 -2.06206 -3.87783 0
M  V30 936 H 85.9366 -3.26907 -2.72051 0
M  V30 937 N 84.2517 0.741722 -1.39055 0
M  V30 938 C 85.1987 1.85566 -1.37237 0
M  V30 939 C 86.1687 1.64457 -0.233072 0
M  V30 940 O 87.3537 1.85957 -0.427147 0
M  V30 941 C 84.4937 3.23004 -1.215 0
M  V30 942 C 83.6067 3.55864 -2.44918 0
M  V30 943 C 82.7417 4.82669 -2.21821 0
M  V30 944 C 81.7807 5.08351 -3.40948 0
M  V30 945 N 80.9177 6.26356 -3.17211 0
M  V30 946 H 85.7577 1.86455 -2.32462 0
M  V30 947 H 83.2947 0.911176 -1.15482 0
M  V30 948 H 85.2527 4.02331 -1.10389 0
M  V30 949 H 83.8827 3.21411 -0.29908 0
M  V30 950 H 82.9347 2.7129 -2.66657 0
M  V30 951 H 84.2467 3.70765 -3.33668 0
M  V30 952 H 83.4007 5.69962 -2.07914 0
M  V30 953 H 82.1397 4.69929 -1.30454 0
M  V30 954 H 81.1447 4.19522 -3.55361 0
M  V30 955 H 82.3697 5.22981 -4.33207 0
M  V30 956 H 80.3157 6.14917 -2.28502 0
M  V30 957 H 80.2327 6.41813 -3.99515 0
M  V30 958 H 81.5007 7.16506 -3.06984 0
M  V30 959 N 85.7298 1.2412 0.971189 0
M  V30 960 C 86.6398 1.04747 2.09917 0
M  V30 961 C 87.6558 -0.0107162 1.73997 0
M  V30 962 O 88.8318 0.186714 2.00533 0
M  V30 963 C 85.8968 0.650828 3.40537 0
M  V30 964 C 84.9578 1.7851 3.90426 0
M  V30 965 C 84.1908 1.40729 5.14812 0
M  V30 966 O 84.4138 0.29557 5.69634 0
M  V30 967 O 83.3478 2.23168 5.58999 0
M  V30 968 H 87.1738 1.99304 2.29154 0
M  V30 969 H 84.7588 1.02908 1.08307 0
M  V30 970 H 86.6408 0.440992 4.19086 0
M  V30 971 H 85.3158 -0.265649 3.22608 0
M  V30 972 H 84.2228 2.04966 3.12953 0
M  V30 973 H 85.5558 2.68023 4.12825 0
M  V30 974 N 87.2079 -1.17134 1.05439 0
M  V30 975 C 88.6189 -1.69084 0.791676 0
M  V30 976 C 88.9699 -1.83822 -0.685839 0
M  V30 977 O 88.0949 -1.52757 -1.53278 0
M  V30 978 C 88.6899 -3.07119 1.4305 0
M  V30 979 C 87.2489 -3.56225 1.21577 0
M  V30 980 C 86.3959 -2.32421 1.51247 0
M  V30 981 H 89.3469 -1.01617 1.219 0
M  V30 982 H 89.3679 -3.71087 0.84112 0
M  V30 983 H 88.8799 -2.9636 2.50584 0
M  V30 984 H 86.9809 -3.72257 0.159787 0
M  V30 985 H 87.0939 -4.38837 1.92246 0
M  V30 986 H 85.4579 -2.3701 0.932653 0
M  V30 987 H 86.2409 -2.24268 2.5992 0
M  V30 988 N 88.686 -0.835752 -1.33615 0
M  V30 989 C 89.616 -0.281739 -2.31794 0
M  V30 990 C 90.597 0.608833 -1.58831 0
M  V30 991 O 91.782 0.533035 -1.86741 0
M  V30 992 C 88.912 0.546612 -3.42971 0
M  V30 993 C 87.866 -0.247904 -4.27281 0
M  V30 994 C 87.192 0.704001 -5.30045 0
M  V30 995 C 88.492 -1.46324 -5.01385 0
M  V30 996 H 90.186 -1.10206 -2.78379 0
M  V30 997 H 87.732 -0.531388 -1.33837 0
M  V30 998 H 89.685 0.944467 -4.1068 0
M  V30 999 H 88.409 1.40011 -2.95067 0
M  V30 1000 H 87.068 -0.627281 -3.61194 0
M  V30 1001 H 86.716 1.55381 -4.78399 0
M  V30 1002 H 86.416 0.176524 -5.87335 0
M  V30 1003 H 87.94 1.09944 -6.0062 0
M  V30 1004 H 89.354 -1.13871 -5.61877 0
M  V30 1005 H 87.751 -1.92728 -5.6831 0
M  V30 1006 H 88.821 -2.23467 -4.30338 0
M  V30 1007 N 90.1641 1.46063 -0.591896 0
M  V30 1008 C 91.1111 2.30399 0.136069 0
M  V30 1009 C 92.0811 1.41169 0.875238 0
M  V30 1010 O 93.2661 1.70112 0.86409 0
M  V30 1011 C 90.4061 3.25804 1.13781 0
M  V30 1012 C 89.5191 4.30134 0.401137 0
M  V30 1013 C 88.6541 5.12659 1.39121 0
M  V30 1014 C 87.6931 6.0873 0.641462 0
M  V30 1015 N 86.8301 6.8409 1.58004 0
M  V30 1016 H 91.6701 2.92118 -0.589144 0
M  V30 1017 H 89.2071 1.43959 -0.302342 0
M  V30 1018 H 91.1651 3.79569 1.73156 0
M  V30 1019 H 89.7951 2.65872 1.83062 0
M  V30 1020 H 88.8471 3.79152 -0.307826 0
M  V30 1021 H 90.1591 4.98458 -0.184565 0
M  V30 1022 H 89.3131 5.70747 2.05749 0
M  V30 1023 H 88.0521 4.44316 2.01084 0
M  V30 1024 H 87.0571 5.49786 -0.0385419 0
M  V30 1025 H 88.2821 6.79095 0.0270945 0
M  V30 1026 H 86.2281 6.18449 2.18761 0
M  V30 1027 H 86.1451 7.48709 1.04738 0
M  V30 1028 H 87.4131 7.4673 2.23639 0
M  V30 1029 N 91.6422 0.330177 1.54103 0
M  V30 1030 C 93.0532 -0.15652 1.86043 0
M  V30 1031 C 93.4042 -1.51086 1.2517 0
M  V30 1032 O 92.5292 -2.09023 0.560217 0
M  V30 1033 C 93.1242 -0.290784 3.3755 0
M  V30 1034 C 91.6832 -0.721705 3.69416 0
M  V30 1035 C 90.8302 0.152622 2.7688 0
M  V30 1036 H 93.7812 0.550237 1.48856 0
M  V30 1037 H 93.8022 -1.12058 3.63625 0
M  V30 1038 H 93.3142 0.695068 3.81825 0
M  V30 1039 H 91.4152 -1.71706 3.30678 0
M  V30 1040 H 91.5282 -0.520869 4.7626 0
M  V30 1041 H 89.8922 -0.372894 2.51956 0
M  V30 1042 H 90.6752 1.13536 3.23982 0
M  V30 1043 N 93.1203 -1.57491 0.0584922 0
M  V30 1044 C 94.0833 -2.1085 -0.898617 0
M  V30 1045 C 95.0833 -1.02964 -1.23511 0
M  V30 1046 O 96.2733 -1.29007 -1.17059 0
M  V30 1047 C 93.4053 -2.59881 -2.20623 0
M  V30 1048 H 94.5983 -2.96715 -0.435936 0
M  V30 1049 H 92.1513 -1.55141 -0.190023 0
M  V30 1050 H 92.8863 -1.77431 -2.71457 0
M  V30 1051 H 92.6713 -3.38727 -1.97501 0
M  V30 1052 H 94.1613 -3.01285 -2.89166 0
M  V30 1053 N 94.5984 0.214957 -1.56127 0
M  V30 1054 C 95.8264 0.955092 -1.83536 0
M  V30 1055 C 96.2414 1.77677 -0.638472 0
M  V30 1056 O 95.5984 1.78219 0.392968 0
M  V30 1057 C 95.6494 1.86734 -3.09536 0
M  V30 1058 O 95.3704 1.07887 -4.24608 0
M  V30 1059 C 96.8714 2.72082 -3.4998 0
M  V30 1060 H 94.0914 0.279611 -0.609966 0
M  V30 1061 H 96.6354 0.228197 -2.03223 0
M  V30 1062 H 94.7904 2.5481 -2.91806 0
M  V30 1063 H 95.2044 1.69872 -4.9623 0
M  V30 1064 H 96.6784 3.31782 -4.41163 0
M  V30 1065 H 97.1554 3.44806 -2.7204 0
M  V30 1066 H 97.7614 2.09409 -3.70173 0
M  V30 1067 N 96.0765 1.50051 0.48192 0
M  V30 1068 C 97.3015 1.64508 1.26301 0
M  V30 1069 C 97.7265 0.323851 1.85291 0
M  V30 1070 O 97.0845 -0.710969 1.66778 0
M  V30 1071 C 97.1325 2.7305 2.35533 0
M  V30 1072 O 96.2365 2.3355 3.39895 0
M  V30 1073 H 95.5775 0.549978 0.372048 0
M  V30 1074 H 98.1075 1.9636 0.574786 0
M  V30 1075 H 98.1175 2.95799 2.8101 0
M  V30 1076 H 96.7925 3.68946 1.91967 0
M  V30 1077 H 95.3695 2.21205 3.00204 0
M  V30 1078 N 97.5546 -0.734337 1.39446 0
M  V30 1079 C 98.7826 -1.52358 1.39981 0
M  V30 1080 C 99.1976 -1.88799 -0.0054975 0
M  V30 1081 O 98.5546 -1.54146 -0.976998 0
M  V30 1082 C 98.6056 -2.81072 2.27333 0
M  V30 1083 O 98.3266 -2.46178 3.62392 0
M  V30 1084 C 99.8276 -3.75096 2.36259 0
M  V30 1085 H 97.0476 -0.470806 0.478103 0
M  V30 1086 H 99.5916 -0.907339 1.83269 0
M  V30 1087 H 97.7466 -3.39026 1.87457 0
M  V30 1088 H 98.1606 -3.28866 4.08592 0
M  V30 1089 H 99.6346 -4.62305 3.01626 0
M  V30 1090 H 100.112 -4.16892 1.38194 0
M  V30 1091 H 100.718 -3.23061 2.76608 0
M  V30 1092 N 99.0327 -1.24633 -0.964593 0
M  V30 1093 C 100.282 -1.08188 -1.7023 0
M  V30 1094 C 100.595 0.37873 -1.91898 0
M  V30 1095 O 101.801 0.663427 -2.6327 0
M  V30 1096 C 100.257 -1.88773 -3.06419 0
M  V30 1097 C 99.8647 -3.39263 -2.92582 0
M  V30 1098 C 101.609 -1.80867 -3.84041 0
M  V30 1099 C 99.5157 -4.1218 -4.24101 0
M  V30 1100 H 98.4457 -0.401245 -0.638372 0
M  V30 1101 H 101.097 -1.48742 -1.07462 0
M  V30 1102 H 99.4787 -1.41035 -3.70034 0
M  V30 1103 H 100.653 -3.94603 -2.37961 0
M  V30 1104 H 98.9677 -3.48154 -2.28424 0
M  V30 1105 H 101.565 -2.32646 -4.81435 0
M  V30 1106 H 101.908 -0.774543 -4.09031 0
M  V30 1107 H 102.441 -2.26301 -3.27159 0
M  V30 1108 H 99.1797 -5.15965 -4.04303 0
M  V30 1109 H 98.6997 -3.61626 -4.78526 0
M  V30 1110 H 100.379 -4.19349 -4.92702 0
M  V30 1111 N 100.511 1.16574 -1.06058 0
M  V30 1112 C 101.739 1.90952 -0.796552 0
M  V30 1113 C 102.154 1.77302 0.648808 0
M  V30 1114 O 101.511 1.11605 1.44397 0
M  V30 1115 C 101.562 3.41736 -1.17894 0
M  V30 1116 O 101.283 3.54975 -2.56758 0
M  V30 1117 C 102.784 4.33169 -0.942308 0
M  V30 1118 H 100.004 0.605594 -0.288959 0
M  V30 1119 H 102.548 1.47777 -1.41358 0
M  V30 1120 H 100.703 3.82623 -0.606491 0
M  V30 1121 H 101.117 4.4846 -2.72 0
M  V30 1122 H 102.591 5.37439 -1.25952 0
M  V30 1123 H 103.068 4.3903 0.122078 0
M  V30 1124 H 103.674 3.98007 -1.49902 0
M  V30 1125 N 101.989 0.842826 1.3317 0
M  V30 1126 C 102.919 0.294028 2.31641 0
M  V30 1127 C 103.9 -0.600401 1.59151 0
M  V30 1128 O 105.085 -0.523124 1.87022 0
M  V30 1129 C 102.215 -0.528416 3.43257 0
M  V30 1130 C 101.169 0.27056 4.27144 0
M  V30 1131 C 100.495 -0.675881 5.30411 0
M  V30 1132 C 101.795 1.48981 5.00602 0
M  V30 1133 H 103.489 1.11681 2.77791 0
M  V30 1134 H 101.035 0.538478 1.33553 0
M  V30 1135 H 102.988 -0.922674 4.11175 0
M  V30 1136 H 101.712 -1.38445 2.95805 0
M  V30 1137 H 100.371 0.646427 3.60856 0
M  V30 1138 H 100.019 -1.52842 4.79216 0
M  V30 1139 H 99.7189 -0.145374 5.8742 0
M  V30 1140 H 101.243 -1.06757 6.01195 0
M  V30 1141 H 102.657 1.16849 5.61266 0
M  V30 1142 H 101.054 1.95739 5.6728 0
M  V30 1143 H 102.124 2.25746 4.29147 0
M  V30 1144 N 103.467 -1.45747 0.599634 0
M  V30 1145 C 104.697 -2.06369 0.0977132 0
M  V30 1146 C 105.105 -1.44624 -1.21985 0
M  V30 1147 O 104.448 -0.551831 -1.75216 0
M  V30 1148 C 104.51 -3.59284 -0.124673 0
M  V30 1149 C 104.174 -4.43318 1.10987 0
M  V30 1150 C 105.171 -4.78796 2.02609 0
M  V30 1151 C 102.856 -4.84194 1.33647 0
M  V30 1152 C 104.85 -5.53997 3.15224 0
M  V30 1153 C 102.537 -5.5915 2.46565 0
M  V30 1154 C 103.535 -5.93968 3.37182 0
M  V30 1155 O 103.223 -6.67405 4.48136 0
M  V30 1156 H 102.955 -0.673122 0.0623153 0
M  V30 1157 H 105.509 -1.88104 0.824981 0
M  V30 1158 H 103.739 -3.75919 -0.906745 0
M  V30 1159 H 105.428 -4.01775 -0.577201 0
M  V30 1160 H 106.194 -4.47781 1.86325 0
M  V30 1161 H 102.073 -4.56534 0.64016 0
M  V30 1162 H 105.617 -5.81091 3.85978 0
M  V30 1163 H 101.514 -5.89579 2.62805 0
M  V30 1164 H 102.282 -6.85847 4.46717 0
M  V30 1165 N 104.945 -0.338344 -1.53925 0
M  V30 1166 C 106.194 0.260732 -2.00008 0
M  V30 1167 C 106.507 1.52073 -1.23017 0
M  V30 1168 O 107.713 2.19672 -1.5955 0
M  V30 1169 C 106.169 0.51515 -3.56194 0
M  V30 1170 C 105.777 -0.728645 -4.42035 0
M  V30 1171 C 107.521 1.07337 -4.10706 0
M  V30 1172 C 105.428 -0.445315 -5.89721 0
M  V30 1173 H 104.358 0.101205 -0.747177 0
M  V30 1174 H 107.009 -0.452866 -1.77824 0
M  V30 1175 H 105.391 1.28932 -3.74423 0
M  V30 1176 H 106.565 -1.50352 -4.35581 0
M  V30 1177 H 104.88 -1.20813 -3.98489 0
M  V30 1178 H 107.477 1.30022 -5.18651 0
M  V30 1179 H 107.82 2.0273 -3.63602 0
M  V30 1180 H 108.353 0.360034 -3.96167 0
M  V30 1181 H 105.092 -1.36883 -6.41049 0
M  V30 1182 H 104.612 0.291569 -5.99091 0
M  V30 1183 H 106.291 -0.0606218 -6.46972 0
M  V30 1184 N 106.423 1.57458 -0.0668435 0
M  V30 1185 C 107.651 1.97624 0.612565 0
M  V30 1186 C 108.066 0.94502 1.63447 0
M  V30 1187 O 107.423 -0.0689276 1.8237 0
M  V30 1188 C 107.474 3.37869 1.28555 0
M  V30 1189 O 107.195 4.3704 0.304557 0
M  V30 1190 C 108.696 3.92882 2.05325 0
M  V30 1191 H 105.916 0.650045 0.166381 0
M  V30 1192 H 108.46 2.04035 -0.137782 0
M  V30 1193 H 106.615 3.3256 1.98702 0
M  V30 1194 H 107.029 5.18565 0.786779 0
M  V30 1195 H 108.503 4.93247 2.47812 0
M  V30 1196 H 108.98 3.29156 2.9078 0
M  V30 1197 H 109.586 4.01577 1.40056 0
M  V30 1198 N 107.901 -0.206675 1.56239 0
M  V30 1199 C 108.864 -1.23976 1.92776 0
M  V30 1200 C 109.864 -1.39041 0.807729 0
M  V30 1201 O 111.054 -1.37051 1.0753 0
M  V30 1202 C 108.186 -2.61112 2.19165 0
M  V30 1203 H 109.379 -0.927764 2.85189 0
M  V30 1204 H 106.932 -0.447718 1.4975 0
M  V30 1205 H 107.667 -2.97386 1.29352 0
M  V30 1206 H 107.452 -2.51552 3.00772 0
M  V30 1207 H 108.942 -3.35633 2.48476 0
M  V30 1208 N 109.379 -1.50304 -0.473955 0
M  V30 1209 C 110.79 -1.54042 -1.0549 0
M  V30 1210 C 111.141 -0.342248 -1.93192 0
M  V30 1211 O 110.266 0.545157 -2.09421 0
M  V30 1212 C 110.861 -2.79152 -1.91989 0
M  V30 1213 C 109.42 -2.8558 -2.45196 0
M  V30 1214 C 108.567 -2.48295 -1.2347 0
M  V30 1215 H 111.518 -1.5661 -0.256693 0
M  V30 1216 H 111.539 -2.60845 -2.7702 0
M  V30 1217 H 111.051 -3.66339 -1.28131 0
M  V30 1218 H 109.152 -2.02738 -3.12615 0
M  V30 1219 H 109.265 -3.88403 -2.80499 0
M  V30 1220 H 107.629 -2.00669 -1.56856 0
M  V30 1221 H 108.412 -3.37787 -0.612789 0
M  V30 1222 N 110.857 0.726932 -1.39834 0
M  V30 1223 C 112.085 1.51613 -1.40787 0
M  V30 1224 C 112.5 1.88799 -0.00451505 0
M  V30 1225 O 111.857 1.54662 0.968809 0
M  V30 1226 C 111.908 2.79863 -2.28821 0
M  V30 1227 O 111.629 2.44253 -3.63692 0
M  V30 1228 C 113.13 3.73837 -2.38245 0
M  V30 1229 H 110.35 0.468264 -0.480593 0
M  V30 1230 H 112.894 0.897607 -1.83748 0
M  V30 1231 H 111.049 3.38027 -1.89252 0
M  V30 1232 H 111.463 3.26695 -4.1033 0
M  V30 1233 H 112.937 4.60699 -3.04073 0
M  V30 1234 H 113.414 4.16153 -1.40403 0
M  V30 1235 H 114.02 3.21589 -2.78317 0
M  V30 1236 N 112.336 1.25143 0.95797 0
M  V30 1237 C 113.266 1.07711 2.07173 0
M  V30 1238 C 114.247 -0.0128462 1.70095 0
M  V30 1239 O 115.432 0.156061 1.93572 0
M  V30 1240 C 112.562 0.691503 3.40346 0
M  V30 1241 C 111.516 1.73132 3.9142 0
M  V30 1242 C 110.842 1.20049 5.21049 0
M  V30 1243 C 112.142 3.1294 4.1817 0
M  V30 1244 H 113.836 2.00873 2.22014 0
M  V30 1245 H 111.382 0.967191 1.06684 0
M  V30 1246 H 113.335 0.556505 4.17709 0
M  V30 1247 H 112.059 -0.275819 3.25433 0
M  V30 1248 H 110.718 1.8547 3.16222 0
M  V30 1249 H 110.366 0.223499 5.02503 0
M  V30 1250 H 110.066 1.89545 5.56189 0
M  V30 1251 H 111.59 1.07782 6.01012 0
M  V30 1252 H 113.004 3.03775 4.86203 0
M  V30 1253 H 111.401 3.79875 4.64559 0
M  V30 1254 H 112.471 3.6025 3.24573 0
M  V30 1255 N 113.814 -1.1601 1.06675 0
M  V30 1256 C 114.777 -2.18724 0.685001 0
M  V30 1257 C 115.777 -1.58496 -0.271246 0
M  V30 1258 O 116.967 -1.74119 -0.0531156 0
M  V30 1259 C 114.099 -3.40899 0.00853648 0
M  V30 1260 H 115.292 -2.54011 1.59431 0
M  V30 1261 H 112.845 -1.30352 0.862441 0
M  V30 1262 H 113.58 -3.11173 -0.913337 0
M  V30 1263 H 113.365 -3.8587 0.696204 0
M  V30 1264 H 114.855 -4.16886 -0.24414 0
M  V30 1265 N 115.292 -0.849877 -1.32721 0
M  V30 1266 C 116.222 -0.306308 -2.31482 0
M  V30 1267 C 117.203 0.591952 -1.59468 0
M  V30 1268 O 118.388 0.513199 -1.87296 0
M  V30 1269 C 115.518 0.510204 -3.43532 0
M  V30 1270 C 114.472 -0.293209 -4.26994 0
M  V30 1271 C 113.798 0.647743 -5.30762 0
M  V30 1272 C 115.098 -1.51634 -4.99804 0
M  V30 1273 H 116.792 -1.13153 -2.77195 0
M  V30 1274 H 114.338 -0.545553 -1.33266 0
M  V30 1275 H 116.291 0.900856 -4.11658 0
M  V30 1276 H 115.015 1.36874 -2.96535 0
M  V30 1277 H 113.674 -0.665555 -3.60508 0
M  V30 1278 H 113.322 1.50299 -4.8002 0
M  V30 1279 H 113.022 0.11422 -5.87489 0
M  V30 1280 H 114.546 1.03567 -6.01753 0
M  V30 1281 H 115.96 -1.19824 -5.60638 0
M  V30 1282 H 114.357 -1.98745 -5.66234 0
M  V30 1283 H 115.427 -2.28018 -4.27943 0
M  V30 1284 N 116.77 1.45427 -0.607355 0
M  V30 1285 C 117.998 2.06614 -0.108814 0
M  V30 1286 C 118.413 1.45204 1.2067 0
M  V30 1287 O 117.77 0.566132 1.73497 0
M  V30 1288 C 117.821 3.61481 0.0375347 0
M  V30 1289 O 117.542 4.20598 -1.22593 0
M  V30 1290 C 119.043 4.39652 0.567561 0
M  V30 1291 H 116.263 0.66747 -0.0687351 0
M  V30 1292 H 118.807 1.86675 -0.835022 0
M  V30 1293 H 116.962 3.80762 0.714068 0
M  V30 1294 H 117.376 5.1377 -1.05547 0
M  V30 1295 H 118.85 5.48518 0.61905 0
M  V30 1296 H 119.327 4.09417 1.58978 0
M  V30 1297 H 119.933 4.25234 -0.0749202 0
M  V30 1298 N 118.248 0.346503 1.53744 0
M  V30 1299 C 119.497 -0.250122 2.00143 0
M  V30 1300 C 119.81 -1.51418 1.23822 0
M  V30 1301 O 121.016 -2.18823 1.60713 0
M  V30 1302 C 119.472 -0.496252 3.56462 0
M  V30 1303 C 119.08 0.752077 4.41642 0
M  V30 1304 C 120.824 -1.05157 4.11269 0
M  V30 1305 C 118.731 0.476583 5.89477 0
M  V30 1306 H 117.661 -0.0972409 0.747703 0
M  V30 1307 H 120.312 0.46229 1.77581 0
M  V30 1308 H 118.694 -1.26944 3.75102 0
M  V30 1309 H 119.868 1.5266 4.34778 0
M  V30 1310 H 118.183 1.22925 3.97842 0
M  V30 1311 H 120.78 -1.27269 5.19333 0
M  V30 1312 H 121.123 -2.00799 3.64672 0
M  V30 1313 H 121.656 -0.339019 3.96353 0
M  V30 1314 H 118.395 1.4028 6.40314 0
M  V30 1315 H 117.915 -0.259794 5.99237 0
M  V30 1316 H 119.594 0.0949315 6.4693 0
M  V30 1317 N 119.726 -1.57421 0.075193 0
M  V30 1318 C 120.689 -2.11791 -0.876203 0
M  V30 1319 C 121.689 -1.04268 -1.22412 0
M  V30 1320 O 122.879 -1.30242 -1.15684 0
M  V30 1321 C 120.011 -2.62207 -2.17854 0
M  V30 1322 H 121.204 -2.9716 -0.40444 0
M  V30 1323 H 118.757 -1.55333 -0.173557 0
M  V30 1324 H 119.492 -1.803 -2.6956 0
M  V30 1325 H 119.277 -3.40802 -1.93897 0
M  V30 1326 H 120.767 -3.04335 -2.85955 0
M  V30 1327 N 121.204 0.198386 -1.56346 0
M  V30 1328 C 122.134 1.24865 -1.9731 0
M  V30 1329 C 123.115 1.47651 -0.844576 0
M  V30 1330 O 124.3 1.59444 -1.10866 0
M  V30 1331 C 121.43 2.59358 -2.30977 0
M  V30 1332 C 120.384 2.5119 -3.46537 0
M  V30 1333 C 119.71 3.89926 -3.65871 0
M  V30 1334 C 121.01 2.03977 -4.80823 0
M  V30 1335 H 122.704 0.908252 -2.85291 0
M  V30 1336 H 120.25 0.435462 -1.37258 0
M  V30 1337 H 122.203 3.33011 -2.58228 0
M  V30 1338 H 120.927 2.95132 -1.39874 0
M  V30 1339 H 119.586 1.79993 -3.19371 0
M  V30 1340 H 119.234 4.23046 -2.72105 0
M  V30 1341 H 118.934 3.85336 -4.4361 0
M  V30 1342 H 120.458 4.65205 -3.95495 0
M  V30 1343 H 121.872 2.67386 -5.07127 0
M  V30 1344 H 120.269 2.10397 -5.62008 0
M  V30 1345 H 121.339 0.992861 -4.74626 0
M  V30 1346 N 122.682 1.50554 0.465978 0
M  V30 1347 C 123.612 1.72722 1.57128 0
M  V30 1348 C 124.593 0.576294 1.6004 0
M  V30 1349 O 125.778 0.81598 1.76225 0
M  V30 1350 C 122.908 1.82605 2.95419 0
M  V30 1351 C 121.862 2.97835 3.07373 0
M  V30 1352 C 121.188 2.92867 4.47363 0
M  V30 1353 C 122.488 4.38265 2.84114 0
M  V30 1354 H 124.182 2.65267 1.38829 0
M  V30 1355 H 121.728 1.2765 0.666441 0
M  V30 1356 H 123.681 1.96698 3.72677 0
M  V30 1357 H 122.405 0.866858 3.14886 0
M  V30 1358 H 121.064 2.83401 2.3255 0
M  V30 1359 H 120.712 1.94783 4.63755 0
M  V30 1360 H 120.412 3.70227 4.56296 0
M  V30 1361 H 121.936 3.09015 5.26633 0
M  V30 1362 H 123.35 4.53198 3.51118 0
M  V30 1363 H 121.747 5.17115 3.04487 0
M  V30 1364 H 122.817 4.50281 1.7993 0
M  V30 1365 N 124.16 -0.719506 1.40217 0
M  V30 1366 C 125.09 -1.8465 1.42922 0
M  V30 1367 C 126.071 -1.67599 0.29062 0
M  V30 1368 O 127.256 -1.87688 0.498677 0
M  V30 1369 C 124.386 -3.22565 1.28722 0
M  V30 1370 C 123.34 -3.54281 2.40144 0
M  V30 1371 C 122.666 -4.91298 2.11023 0
M  V30 1372 C 123.966 -3.55676 3.82481 0
M  V30 1373 H 125.66 -1.82644 2.37237 0
M  V30 1374 H 123.206 -0.877305 1.1419 0
M  V30 1375 H 125.159 -4.01095 1.29232 0
M  V30 1376 H 123.883 -3.25137 0.308811 0
M  V30 1377 H 122.542 -2.78088 2.38877 0
M  V30 1378 H 122.19 -4.90468 1.11582 0
M  V30 1379 H 121.89 -5.13485 2.8567 0
M  V30 1380 H 123.414 -5.72166 2.13209 0
M  V30 1381 H 124.828 -4.24254 3.85592 0
M  V30 1382 H 123.225 -3.89388 4.56614 0
M  V30 1383 H 124.295 -2.55144 4.12346 0
M  V30 1384 N 125.638 -1.25649 -0.95132 0
M  V30 1385 C 126.884 -1.11766 -1.69941 0
M  V30 1386 C 127.239 0.33735 -1.89419 0
M  V30 1387 O 126.532 1.24491 -1.45645 0
M  V30 1388 C 126.726 -1.80909 -3.08231 0
M  V30 1389 C 126.555 -3.32984 -3.02245 0
M  V30 1390 C 125.325 -4.02247 -3.05819 0
M  V30 1391 C 127.523 -4.29332 -2.83157 0
M  V30 1392 N 125.505 -5.41072 -2.90024 0
M  V30 1393 C 126.876 -5.55265 -2.75828 0
M  V30 1394 C 128.931 -4.19707 -2.67863 0
M  V30 1395 C 127.634 -6.72671 -2.54767 0
M  V30 1396 C 129.66 -5.36809 -2.48173 0
M  V30 1397 C 129.022 -6.61683 -2.41567 0
M  V30 1398 H 125.121 -0.463708 -0.629682 0
M  V30 1399 H 127.705 -1.58796 -1.12659 0
M  V30 1400 H 125.876 -1.36369 -3.63673 0
M  V30 1401 H 127.608 -1.59739 -3.71841 0
M  V30 1402 H 124.363 -3.53531 -3.15139 0
M  V30 1403 H 124.787 -6.13938 -2.85323 0
M  V30 1404 H 129.429 -3.23907 -2.71743 0
M  V30 1405 H 127.147 -7.68577 -2.49629 0
M  V30 1406 H 130.733 -5.31224 -2.37259 0
M  V30 1407 H 129.613 -7.50768 -2.26531 0
M  V30 1408 N 127.117 1.15442 -1.07289 0
M  V30 1409 C 128.345 1.90096 -0.81676 0
M  V30 1410 C 128.76 1.7798 0.629966 0
M  V30 1411 O 128.117 1.1313 1.43206 0
M  V30 1412 C 128.168 3.40466 -1.21512 0
M  V30 1413 O 127.889 3.52232 -2.60508 0
M  V30 1414 C 129.39 4.32145 -0.988198 0
M  V30 1415 H 126.61 0.602495 -0.295366 0
M  V30 1416 H 129.154 1.4627 -1.42918 0
M  V30 1417 H 127.309 3.81958 -0.647039 0
M  V30 1418 H 127.723 4.45549 -2.76742 0
M  V30 1419 H 129.197 5.36072 -1.31645 0
M  V30 1420 H 129.674 4.39135 0.0755063 0
M  V30 1421 H 130.28 3.96395 -1.54115 0
M  V30 1422 N 128.595 0.856903 1.32268 0
M  V30 1423 C 130.006 0.515711 1.79436 0
M  V30 1424 C 130.357 -0.966586 1.70738 0
M  V30 1425 O 129.482 -1.75409 1.26731 0
M  V30 1426 C 130.077 0.929335 3.25805 0
M  V30 1427 C 128.636 0.640006 3.70919 0
M  V30 1428 C 127.783 1.12784 2.53328 0
M  V30 1429 H 130.734 1.04389 1.19535 0
M  V30 1430 H 130.755 0.246633 3.797 0
M  V30 1431 H 130.267 2.00821 3.32103 0
M  V30 1432 H 128.368 -0.428051 3.70133 0
M  V30 1433 H 128.481 1.20788 4.63624 0
M  V30 1434 H 126.845 0.548033 2.48734 0
M  V30 1435 H 127.628 2.21387 2.62379 0
M  V30 1436 N 130.073 -1.45103 0.615059 0
M  V30 1437 C 131.003 -2.33339 -0.0865619 0
M  V30 1438 C 131.984 -1.4727 -0.851209 0
M  V30 1439 O 133.169 -1.76026 -0.820281 0
M  V30 1440 C 130.299 -3.30095 -1.07956 0
M  V30 1441 C 129.253 -4.25858 -0.427628 0
M  V30 1442 C 128.579 -5.12361 -1.5294 0
M  V30 1443 C 129.879 -5.18165 0.655944 0
M  V30 1444 H 131.573 -2.92254 0.650224 0
M  V30 1445 H 129.119 -1.40532 0.314138 0
M  V30 1446 H 131.072 -3.90698 -1.57901 0
M  V30 1447 H 129.796 -2.69355 -1.84703 0
M  V30 1448 H 128.455 -3.66564 0.0510292 0
M  V30 1449 H 128.103 -4.47984 -2.28734 0
M  V30 1450 H 127.803 -5.77238 -1.09865 0
M  V30 1451 H 129.327 -5.75833 -2.03098 0
M  V30 1452 H 130.741 -5.72796 0.240257 0
M  V30 1453 H 129.138 -5.91559 1.00888 0
M  V30 1454 H 130.208 -4.60144 1.52957 0
M  V30 1455 N 131.551 -0.354651 -1.53558 0
M  V30 1456 C 132.962 0.126902 -1.86268 0
M  V30 1457 C 133.313 1.49075 -1.27558 0
M  V30 1458 O 132.438 2.08105 -0.5934 0
M  V30 1459 C 133.033 0.237046 -3.3797 0
M  V30 1460 C 131.592 0.662842 -3.70518 0
M  V30 1461 C 130.739 -0.196652 -2.76602 0
M  V30 1462 H 133.69 -0.573849 -1.47962 0
M  V30 1463 H 133.711 1.06259 -3.65362 0
M  V30 1464 H 133.223 -0.755725 -3.80671 0
M  V30 1465 H 131.324 1.66424 -3.33367 0
M  V30 1466 H 131.437 0.445034 -4.77029 0
M  V30 1467 H 129.801 0.332763 -2.52517 0
M  V30 1468 H 130.584 -1.18676 -3.22135 0
M  V30 1469 N 133.029 1.57378 -0.0835403 0
M  V30 1470 C 133.962 2.09016 0.915833 0
M  V30 1471 C 134.94 0.997993 1.2837 0
M  V30 1472 O 136.124 1.27219 1.39096 0
M  V30 1473 C 133.251 2.55757 2.22049 0
M  V30 1474 C 132.297 3.76522 2.00333 0
M  V30 1475 S 133.13 5.20661 1.25191 0
M  V30 1476 C 134.286 5.70743 2.56912 0
M  V30 1477 H 134.519 2.93457 0.476492 0
M  V30 1478 H 132.052 1.53856 0.129493 0
M  V30 1479 H 134.01 2.83346 2.97027 0
M  V30 1480 H 132.671 1.71564 2.63106 0
M  V30 1481 H 131.864 4.07256 2.96916 0
M  V30 1482 H 131.466 3.49367 1.33488 0
M  V30 1483 H 133.758 5.78304 3.52946 0
M  V30 1484 H 134.701 6.6944 2.30772 0
M  V30 1485 H 135.109 4.98616 2.64655 0
M  V30 1486 N 134.507 -0.190092 1.56449 0
M  V30 1487 C 135.918 -0.754312 1.70784 0
M  V30 1488 C 136.269 -1.83631 0.690951 0
M  V30 1489 O 135.394 -2.15868 -0.151604 0
M  V30 1490 C 135.989 -1.37503 3.09642 0
M  V30 1491 C 134.548 -1.88628 3.25725 0
M  V30 1492 C 133.695 -0.758098 2.66736 0
M  V30 1493 H 136.646 0.0350524 1.58661 0
M  V30 1494 H 136.667 -2.2445 3.0725 0
M  V30 1495 H 136.179 -0.587302 3.83631 0
M  V30 1496 H 134.28 -2.70103 2.56661 0
M  V30 1497 H 134.393 -2.04462 4.3328 0
M  V30 1498 H 132.757 -1.17369 2.26046 0
M  V30 1499 H 133.54 0.0174705 3.43296 0
M  V30 1500 N 135.985 -1.50799 -0.457987 0
M  V30 1501 C 136.933 -1.71162 -1.575 0
M  V30 1502 C 137.927 -0.577592 -1.59249 0
M  V30 1503 O 139.133 -0.758443 -1.63241 0
M  V30 1504 H 135.508 -0.540468 -0.522875 0
M  V30 1505 H 137.479 -2.64837 -1.37492 0
M  V30 1506 C 136.228 -1.83496 -2.95338 0
M  V30 1507 H 135.551 -2.70153 -2.94716 0
M  V30 1508 H 136.991 -2.01765 -3.72917 0
M  V30 1509 C 135.45 -0.589694 -3.31699 0
M  V30 1510 O 135.98 0.265163 -4.00824 0
M  V30 1511 N 134.186 -0.439845 -2.87252 0
M  V30 1512 H 133.733 -1.13655 -2.31172 0
M  V30 1513 H 133.691 0.392159 -3.11945 0
M  V30 1514 N 137.463 0.71206 -1.40597 0
M  V30 1515 C 138.874 1.29135 -1.34837 0
M  V30 1516 C 139.225 1.96186 -0.0235395 0
M  V30 1517 O 138.35 1.97768 0.878444 0
M  V30 1518 C 138.945 2.34827 -2.44217 0
M  V30 1519 C 137.504 2.88371 -2.41907 0
M  V30 1520 C 136.651 1.62202 -2.24913 0
M  V30 1521 H 139.602 0.507944 -1.50352 0
M  V30 1522 H 139.623 3.15749 -2.12327 0
M  V30 1523 H 139.135 1.85996 -3.40627 0
M  V30 1524 H 137.236 3.41422 -1.49204 0
M  V30 1525 H 137.349 3.39925 -3.37621 0
M  V30 1526 H 135.713 1.874 -1.72492 0
M  V30 1527 H 136.496 1.15391 -3.23326 0
M  V30 1528 N 138.941 1.26152 0.944643 0
M  V30 1529 C 139.871 1.09902 2.06019 0
M  V30 1530 C 140.852 0.00519538 1.70099 0
M  V30 1531 O 142.037 0.176583 1.93396 0
M  V30 1532 C 139.167 0.727562 3.39594 0
M  V30 1533 C 138.121 1.77274 3.89561 0
M  V30 1534 C 137.447 1.25569 5.19747 0
M  V30 1535 C 138.747 3.17357 4.14827 0
M  V30 1536 H 140.441 2.03217 2.19871 0
M  V30 1537 H 137.987 0.978452 1.05652 0
M  V30 1538 H 139.94 0.600777 4.17095 0
M  V30 1539 H 138.664 -0.241287 3.25707 0
M  V30 1540 H 137.323 1.88814 3.14237 0
M  V30 1541 H 136.971 0.276783 5.02238 0
M  V30 1542 H 136.671 1.95433 5.54148 0
M  V30 1543 H 138.195 1.1415 5.99835 0
M  V30 1544 H 139.609 3.08914 4.82954 0
M  V30 1545 H 138.006 3.84781 4.60504 0
M  V30 1546 H 139.076 3.63673 3.20734 0
M  V30 1547 N 140.419 -1.14872 1.07899 0
M  V30 1548 C 141.665 -1.86064 0.806725 0
M  V30 1549 C 141.998 -1.82434 -0.665706 0
M  V30 1550 O 141.273 -1.25138 -1.48899 0
M  V30 1551 C 141.556 -3.34929 1.32267 0
M  V30 1552 C 141.409 -3.47161 2.86006 0
M  V30 1553 C 142.728 -4.29863 0.943717 0
M  V30 1554 H 139.847 -0.675591 0.294526 0
M  V30 1555 H 142.489 -1.34925 1.33773 0
M  V30 1556 H 140.639 -3.78611 0.870974 0
M  V30 1557 H 142.311 -3.12302 3.39507 0
M  V30 1558 H 140.554 -2.88539 3.23925 0
M  V30 1559 H 141.225 -4.51777 3.17177 0
M  V30 1560 H 143.701 -3.9417 1.33302 0
M  V30 1561 H 142.577 -5.32494 1.33198 0
M  V30 1562 H 142.838 -4.41846 -0.149796 0
M  V30 1563 N 141.898 -0.863906 -1.31812 0
M  V30 1564 C 142.846 -0.30422 -2.30602 0
M  V30 1565 C 143.84 0.577419 -1.59255 0
M  V30 1566 O 145.046 0.464194 -1.73912 0
M  V30 1567 H 141.421 -0.0796877 -0.747766 0
M  V30 1568 H 143.392 -1.15148 -2.75288 0
M  V30 1569 C 142.141 0.484617 -3.44306 0
M  V30 1570 H 141.464 -0.18451 -3.99374 0
M  V30 1571 H 142.904 0.841664 -4.15562 0
M  V30 1572 C 141.363 1.6735 -2.92396 0
M  V30 1573 O 141.893 2.77273 -2.90659 0
M  V30 1574 N 140.099 1.50362 -2.48676 0
M  V30 1575 H 139.646 0.609402 -2.50288 0
M  V30 1576 H 139.604 2.30051 -2.14299 0
M  V30 1577 N 143.376 1.44774 -0.622745 0
M  V30 1578 C 144.306 2.33382 0.0741861 0
M  V30 1579 C 145.287 1.47719 0.843387 0
M  V30 1580 O 146.472 1.76458 0.810934 0
M  V30 1581 C 143.602 3.30663 1.06204 0
M  V30 1582 C 142.556 4.26079 0.405037 0
M  V30 1583 C 141.882 5.13165 1.5022 0
M  V30 1584 C 143.182 5.1781 -0.683414 0
M  V30 1585 H 144.876 2.91905 -0.665713 0
M  V30 1586 H 142.422 1.40363 -0.321587 0
M  V30 1587 H 144.375 3.9153 1.55827 0
M  V30 1588 H 143.099 2.70331 1.83272 0
M  V30 1589 H 141.758 3.66532 -0.0704683 0
M  V30 1590 H 141.406 4.49191 2.26355 0
M  V30 1591 H 141.106 5.77812 1.06803 0
M  V30 1592 H 142.63 5.76902 2.00041 0
M  V30 1593 H 144.044 5.72661 -0.270631 0
M  V30 1594 H 142.441 5.91015 -1.04023 0
M  V30 1595 H 143.511 4.59326 -1.55395 0
M  V30 1596 N 144.854 0.36279 1.53368 0
M  V30 1597 C 145.802 -0.500155 2.27159 0
M  V30 1598 C 146.796 -1.08575 1.3003 0
M  V30 1599 O 148.002 -1.02927 1.47668 0
M  V30 1600 H 144.377 -0.180009 0.730138 0
M  V30 1601 H 146.348 0.14401 2.98052 0
M  V30 1602 C 145.097 -1.62937 3.07159 0
M  V30 1603 H 144.42 -1.18806 3.8174 0
M  V30 1604 H 145.86 -2.20795 3.61975 0
M  V30 1605 C 144.319 -2.57007 2.17829 0
M  V30 1606 O 144.849 -3.59752 1.78721 0
M  V30 1607 N 143.055 -2.26131 1.82518 0
M  V30 1608 H 142.602 -1.42616 2.14519 0
M  V30 1609 H 142.56 -2.89327 1.23034 0
M  V30 1610 N 146.332 -1.57332 0.0918853 0
M  V30 1611 C 147.262 -2.16872 -0.865371 0
M  V30 1612 C 148.243 -1.10118 -1.29646 0
M  V30 1613 O 149.428 -1.38242 -1.36392 0
M  V30 1614 C 146.558 -2.74649 -2.12569 0
M  V30 1615 C 145.512 -3.86747 -1.83333 0
M  V30 1616 C 144.838 -4.31212 -3.16166 0
M  V30 1617 C 146.138 -5.10089 -1.1228 0
M  V30 1618 H 147.832 -2.97114 -0.369307 0
M  V30 1619 H 145.378 -1.42918 -0.176194 0
M  V30 1620 H 147.331 -3.14952 -2.7997 0
M  V30 1621 H 146.055 -1.91657 -2.64452 0
M  V30 1622 H 144.714 -3.46978 -1.18331 0
M  V30 1623 H 144.362 -3.45115 -3.6593 0
M  V30 1624 H 144.062 -5.06788 -2.97388 0
M  V30 1625 H 145.586 -4.74146 -3.84731 0
M  V30 1626 H 147 -5.47582 -1.69785 0
M  V30 1627 H 145.397 -5.91073 -1.03693 0
M  V30 1628 H 146.467 -4.84786 -0.105041 0
M  V30 1629 N 147.81 0.181792 -1.56548 0
M  V30 1630 C 149.058 0.89832 -1.81038 0
M  V30 1631 C 149.379 1.83232 -0.667164 0
M  V30 1632 O 148.649 1.93372 0.313673 0
M  V30 1633 H 147.229 0.33471 -0.667816 0
M  V30 1634 H 149.891 0.184116 -1.94028 0
M  V30 1635 H 148.987 1.4815 -2.74696 0
M  V30 1636 N 149.288 1.51039 0.449983 0
M  V30 1637 C 150.218 1.74379 1.55288 0
M  V30 1638 C 151.199 0.593236 1.5942 0
M  V30 1639 O 152.384 0.834625 1.7535 0
M  V30 1640 C 149.514 1.85728 2.93466 0
M  V30 1641 C 148.468 3.01078 3.04197 0
M  V30 1642 C 147.794 2.97595 4.44231 0
M  V30 1643 C 149.094 4.41254 2.7945 0
M  V30 1644 H 150.788 2.66725 1.36008 0
M  V30 1645 H 148.334 1.2835 0.652864 0
M  V30 1646 H 150.287 2.0064 3.70569 0
M  V30 1647 H 149.011 0.900207 3.13949 0
M  V30 1648 H 147.67 2.85851 2.29531 0
M  V30 1649 H 147.318 1.99691 4.61663 0
M  V30 1650 H 147.018 3.75046 4.52343 0
M  V30 1651 H 148.542 3.14583 5.23326 0
M  V30 1652 H 149.956 4.56897 3.46292 0
M  V30 1653 H 148.353 5.20315 2.98985 0
M  V30 1654 H 149.423 4.52164 1.75144 0
M  V30 1655 N 150.766 -0.704594 1.40972 0
M  V30 1656 C 151.696 -1.83124 1.44872 0
M  V30 1657 C 152.677 -1.67281 0.30838 0
M  V30 1658 O 153.862 -1.87149 0.518556 0
M  V30 1659 C 150.992 -3.21181 1.32136 0
M  V30 1660 C 149.946 -3.51714 2.43888 0
M  V30 1661 C 149.272 -4.89032 2.16222 0
M  V30 1662 C 150.572 -3.516 3.86232 0
M  V30 1663 H 152.266 -1.80117 2.39161 0
M  V30 1664 H 149.812 -0.865145 1.15114 0
M  V30 1665 H 151.765 -3.99702 1.33479 0
M  V30 1666 H 150.489 -3.24791 0.343279 0
M  V30 1667 H 149.148 -2.75539 2.41813 0
M  V30 1668 H 148.796 -4.89256 1.16778 0
M  V30 1669 H 148.496 -5.10426 2.911 0
M  V30 1670 H 150.02 -5.69873 2.19265 0
M  V30 1671 H 151.434 -4.2014 3.9007 0
M  V30 1672 H 149.831 -3.84523 4.60719 0
M  V30 1673 H 150.901 -2.50757 4.15029 0
M  V30 1674 N 152.244 -1.26651 -0.937939 0
M  V30 1675 C 153.491 -1.12387 -1.6845 0
M  V30 1676 C 153.819 0.332208 -1.91642 0
M  V30 1677 O 153.074 1.2602 -1.49725 0
M  V30 1678 C 153.373 -1.84168 -3.06295 0
M  V30 1679 C 153.039 -3.34056 -3.02849 0
M  V30 1680 C 151.701 -3.74942 -3.01616 0
M  V30 1681 C 154.053 -4.29741 -2.9491 0
M  V30 1682 C 151.381 -5.09894 -2.90215 0
M  V30 1683 C 153.733 -5.64738 -2.8505 0
M  V30 1684 C 152.397 -6.0493 -2.82162 0
M  V30 1685 H 151.667 -0.411252 -0.616403 0
M  V30 1686 H 154.314 -1.57134 -1.09459 0
M  V30 1687 H 152.619 -1.319 -3.6893 0
M  V30 1688 H 154.316 -1.70569 -3.62915 0
M  V30 1689 H 150.906 -3.01534 -3.0459 0
M  V30 1690 H 155.09 -3.99133 -2.94969 0
M  V30 1691 H 150.346 -5.40194 -2.86358 0
M  V30 1692 H 154.52 -6.38561 -2.77872 0
M  V30 1693 H 152.147 -7.09457 -2.73084 0
M  V30 1694 N 153.722 1.14298 -1.08507 0
M  V30 1695 C 154.971 1.84708 -0.810305 0
M  V30 1696 C 155.284 1.83903 0.666271 0
M  V30 1697 O 156.49 2.50112 1.05624 0
M  V30 1698 C 154.946 3.31572 -1.39957 0
M  V30 1699 C 154.554 3.40791 -2.90801 0
M  V30 1700 C 156.298 4.07087 -1.20334 0
M  V30 1701 C 154.205 4.81872 -3.4286 0
M  V30 1702 H 153.135 0.691985 -0.299454 0
M  V30 1703 H 155.786 1.28841 -1.30661 0
M  V30 1704 H 154.168 3.87183 -0.830976 0
M  V30 1705 H 155.342 2.95225 -3.53806 0
M  V30 1706 H 153.657 2.78732 -3.0935 0
M  V30 1707 H 156.254 5.11225 -1.56693 0
M  V30 1708 H 156.597 4.16054 -0.143237 0
M  V30 1709 H 157.13 3.57779 -1.73893 0
M  V30 1710 H 153.869 4.78094 -4.48449 0
M  V30 1711 H 153.389 5.27972 -2.84615 0
M  V30 1712 H 155.068 5.50765 -3.39509 0
M  V30 1713 N 155.201 0.870884 1.31352 0
M  V30 1714 C 156.131 0.343096 2.30966 0
M  V30 1715 C 157.112 -0.566507 1.60389 0
M  V30 1716 O 158.297 -0.483336 1.88089 0
M  V30 1717 C 155.427 -0.455487 3.443 0
M  V30 1718 C 154.381 0.361103 4.26474 0
M  V30 1719 C 153.707 -0.563221 5.31725 0
M  V30 1720 C 155.007 1.59566 4.97329 0
M  V30 1721 H 156.701 1.17548 2.75359 0
M  V30 1722 H 154.247 0.566686 1.32381 0
M  V30 1723 H 156.2 -0.83525 4.13039 0
M  V30 1724 H 154.924 -1.32139 2.98675 0
M  V30 1725 H 153.583 0.722825 3.59403 0
M  V30 1726 H 153.231 -1.42643 4.82351 0
M  V30 1727 H 152.931 -0.0207409 5.87596 0
M  V30 1728 H 154.455 -0.939808 6.03324 0
M  V30 1729 H 155.869 1.28728 5.58661 0
M  V30 1730 H 154.266 2.07728 5.63 0
M  V30 1731 H 155.336 2.34798 4.24262 0
M  V30 1732 N 156.679 -1.44442 0.630414 0
M  V30 1733 C 157.642 -2.29107 -0.0652523 0
M  V30 1734 C 158.642 -1.41002 -0.772995 0
M  V30 1735 O 159.832 -1.62881 -0.617692 0
M  V30 1736 C 156.964 -3.22564 -1.10296 0
M  V30 1737 H 158.157 -2.92103 0.679401 0
M  V30 1738 H 155.71 -1.51343 0.390517 0
M  V30 1739 H 156.445 -2.64416 -1.87762 0
M  V30 1740 H 156.23 -3.87491 -0.59941 0
M  V30 1741 H 157.72 -3.86167 -1.5895 0
M  V30 1742 N 158.157 -0.370918 -1.53173 0
M  V30 1743 C 159.385 0.217704 -2.05751 0
M  V30 1744 C 159.8 1.42018 -1.24404 0
M  V30 1745 O 159.157 1.80245 -0.286033 0
M  V30 1746 C 159.208 0.605954 -3.56385 0
M  V30 1747 O 158.929 -0.548734 -4.3465 0
M  V30 1748 C 160.43 1.2524 -4.25241 0
M  V30 1749 H 157.65 0.0371659 -0.66997 0
M  V30 1750 H 160.194 -0.530832 -1.9749 0
M  V30 1751 H 158.349 1.3044 -3.6478 0
M  V30 1752 H 158.763 -0.23376 -5.23979 0
M  V30 1753 H 160.237 1.47458 -5.3194 0
M  V30 1754 H 160.714 2.2143 -3.79296 0
M  V30 1755 H 161.32 0.595233 -4.21114 0
M  V30 1756 N 159.635 1.57281 -0.100228 0
M  V30 1757 C 160.86 1.99302 0.573881 0
M  V30 1758 C 161.285 0.979059 1.60611 0
M  V30 1759 O 160.643 -0.0517803 1.81226 0
M  V30 1760 C 160.691 3.40274 1.19358 0
M  V30 1761 O 159.795 3.41676 2.30935 0
M  V30 1762 H 159.136 0.647944 0.145138 0
M  V30 1763 H 161.666 2.03779 -0.183156 0
M  V30 1764 H 161.676 3.78078 1.53365 0
M  V30 1765 H 160.351 4.13594 0.437385 0
M  V30 1766 H 158.928 3.15672 1.98509 0
M  V30 1767 N 161.113 -0.173488 1.56642 0
M  V30 1768 C 162.338 -0.910149 1.86363 0
M  V30 1769 C 162.763 -1.75132 0.686318 0
M  V30 1770 O 162.121 -1.77595 -0.364643 0
M  V30 1771 C 162.169 -1.76447 3.14482 0
M  V30 1772 O 161.273 -2.86584 2.96553 0
M  V30 1773 H 160.614 -0.255086 0.613047 0
M  V30 1774 H 163.144 -0.172283 2.03873 0
M  V30 1775 H 163.154 -2.16483 3.45831 0
M  V30 1776 H 161.829 -1.14658 3.99783 0
M  V30 1777 H 160.406 -2.50146 2.76553 0
M  V30 1778 N 162.591 -1.51276 -0.441967 0
M  V30 1779 C 163.521 -1.752 -1.54361 0
M  V30 1780 C 164.502 -0.601682 -1.59103 0
M  V30 1781 O 165.687 -0.843913 -1.74905 0
M  V30 1782 C 162.817 -1.87282 -2.92477 0
M  V30 1783 C 161.771 -3.02687 -3.02596 0
M  V30 1784 C 161.097 -2.99947 -4.42647 0
M  V30 1785 C 162.397 -4.4273 -2.77106 0
M  V30 1786 H 164.091 -2.67442 -1.34592 0
M  V30 1787 H 161.637 -1.28694 -0.646048 0
M  V30 1788 H 163.59 -2.02602 -3.695 0
M  V30 1789 H 162.314 -0.916844 -3.13467 0
M  V30 1790 H 160.973 -2.87065 -2.28012 0
M  V30 1791 H 160.621 -2.02136 -4.60597 0
M  V30 1792 H 160.321 -3.77439 -4.50348 0
M  V30 1793 H 161.845 -3.17354 -5.2165 0
M  V30 1794 H 163.259 -4.58727 -3.43864 0
M  V30 1795 H 161.656 -5.21893 -2.96222 0
M  V30 1796 H 162.726 -4.53087 -1.72744 0
M  V30 1797 N 164.069 0.697108 -1.41344 0
M  V30 1798 C 165.032 1.79281 -1.42797 0
M  V30 1799 C 166.032 1.57607 -0.318837 0
M  V30 1800 O 167.222 1.64309 -0.578642 0
M  V30 1801 C 164.354 3.17632 -1.23785 0
M  V30 1802 H 165.547 1.79385 -2.40335 0
M  V30 1803 H 163.1 0.904582 -1.27464 0
M  V30 1804 H 163.835 3.23167 -0.270814 0
M  V30 1805 H 163.62 3.34765 -2.04144 0
M  V30 1806 H 165.11 3.97617 -1.27633 0
M  V30 1807 N 165.547 1.27147 0.931209 0
M  V30 1808 C 166.793 1.13446 1.68101 0
M  V30 1809 C 167.126 -0.319628 1.91552 0
M  V30 1810 O 166.401 -1.23407 1.50336 0
M  V30 1811 C 166.684 1.91482 3.0497 0
M  V30 1812 C 166.537 3.44855 2.88782 0
M  V30 1813 C 167.856 1.71651 4.05246 0
M  V30 1814 H 164.975 0.413498 0.610072 0
M  V30 1815 H 167.617 1.56261 1.08086 0
M  V30 1816 H 165.767 1.55095 3.56199 0
M  V30 1817 H 167.439 3.9105 2.44698 0
M  V30 1818 H 165.682 3.71373 2.24198 0
M  V30 1819 H 166.353 3.94694 3.85902 0
M  V30 1820 H 168.829 2.0337 3.63015 0
M  V30 1821 H 167.705 2.28651 4.99009 0
M  V30 1822 H 167.966 0.663555 4.37092 0
M  V30 1823 N 167.025 -1.13721 1.09112 0
M  V30 1824 C 168.255 -1.88499 0.845671 0
M  V30 1825 C 168.663 -1.79218 -0.606432 0
M  V30 1826 O 168.006 -1.1544 -1.42896 0
M  V30 1827 C 168.068 -3.38954 1.19793 0
M  V30 1828 C 167.732 -3.72018 2.65428 0
M  V30 1829 C 168.729 -3.7153 3.63677 0
M  V30 1830 C 166.414 -4.01775 3.01467 0
M  V30 1831 C 168.408 -4.00336 4.95994 0
M  V30 1832 C 166.095 -4.30243 4.33975 0
M  V30 1833 C 167.093 -4.29508 5.31048 0
M  V30 1834 O 166.781 -4.5728 6.61173 0
M  V30 1835 H 166.513 -0.603702 0.304171 0
M  V30 1836 H 169.067 -1.44903 1.45576 0
M  V30 1837 H 167.297 -3.83039 0.530871 0
M  V30 1838 H 168.986 -3.95052 0.932146 0
M  V30 1839 H 169.752 -3.4862 3.37179 0
M  V30 1840 H 165.631 -4.01496 2.26544 0
M  V30 1841 H 169.175 -3.99678 5.71755 0
M  V30 1842 H 165.072 -4.52625 4.60219 0
M  V30 1843 H 165.84 -4.74964 6.66597 0
M  V30 1844 N 168.503 -0.877838 -1.30888 0
M  V30 1845 C 169.728 -0.506629 -2.01117 0
M  V30 1846 C 170.153 0.895564 -1.65412 0
M  V30 1847 O 169.511 1.5923 -0.866922 0
M  V30 1848 C 169.559 -0.680223 -3.54126 0
M  V30 1849 O 168.663 0.277033 -4.11468 0
M  V30 1850 H 168.004 -0.200518 -0.633 0
M  V30 1851 H 170.534 -1.18342 -1.66902 0
M  V30 1852 H 170.544 -0.5765 -4.03907 0
M  V30 1853 H 169.219 -1.70261 -3.79452 0
M  V30 1854 H 167.796 0.127606 -3.72682 0
M  V30 1855 N 169.982 1.44106 -0.638065 0
M  V30 1856 C 171.231 2.01194 -0.142744 0
M  V30 1857 C 171.544 1.50835 1.24532 0
M  V30 1858 O 172.75 2.00096 1.83504 0
M  V30 1859 C 171.206 3.59319 -0.20442 0
M  V30 1860 C 170.814 4.18674 -1.59423 0
M  V30 1861 C 172.558 4.23854 0.234079 0
M  V30 1862 C 170.465 5.69045 -1.61065 0
M  V30 1863 H 169.395 0.752367 -0.0495998 0
M  V30 1864 H 172.046 1.65246 -0.797881 0
M  V30 1865 H 170.428 3.92598 0.517946 0
M  V30 1866 H 171.602 3.96921 -2.34074 0
M  V30 1867 H 169.917 3.66453 -1.97741 0
M  V30 1868 H 172.514 5.34155 0.241443 0
M  V30 1869 H 172.857 3.96688 1.2627 0
M  V30 1870 H 173.39 3.95403 -0.436025 0
M  V30 1871 H 170.129 6.00956 -2.61787 0
M  V30 1872 H 169.649 5.929 -0.90718 0
M  V30 1873 H 171.328 6.32809 -1.34766 0
M  V30 1874 N 171.46 0.379036 1.52974 0
M  V30 1875 C 172.39 -0.452706 2.29069 0
M  V30 1876 C 173.371 -1.07237 1.32039 0
M  V30 1877 O 174.556 -1.08708 1.60923 0
M  V30 1878 C 171.686 -1.5856 3.08992 0
M  V30 1879 C 170.64 -1.0925 4.13822 0
M  V30 1880 C 169.966 -2.31668 4.81907 0
M  V30 1881 C 171.266 -0.167702 5.22031 0
M  V30 1882 H 172.96 0.182181 2.98845 0
M  V30 1883 H 170.506 0.0890592 1.43724 0
M  V30 1884 H 172.459 -2.1742 3.6098 0
M  V30 1885 H 171.183 -2.24792 2.36931 0
M  V30 1886 H 169.842 -0.526494 3.628 0
M  V30 1887 H 169.49 -2.96386 4.06404 0
M  V30 1888 H 169.19 -1.9934 5.52754 0
M  V30 1889 H 170.714 -2.91189 5.36695 0
M  V30 1890 H 172.128 -0.664186 5.6944 0
M  V30 1891 H 170.525 0.0653265 6.00064 0
M  V30 1892 H 171.595 0.786347 4.78482 0
M  V30 1893 N 172.938 -1.57226 0.108567 0
M  V30 1894 C 174.184 -1.95919 -0.546564 0
M  V30 1895 C 174.539 -0.990417 -1.6495 0
M  V30 1896 O 173.832 -0.0186593 -1.91591 0
M  V30 1897 C 174.026 -3.38911 -1.13463 0
M  V30 1898 C 173.855 -4.4961 -0.0901926 0
M  V30 1899 C 172.625 -5.04168 0.338008 0
M  V30 1900 C 174.823 -5.09693 0.686808 0
M  V30 1901 N 172.805 -5.98434 1.36931 0
M  V30 1902 C 174.176 -5.99804 1.56958 0
M  V30 1903 C 176.231 -4.92388 0.738846 0
M  V30 1904 C 174.934 -6.74463 2.49983 0
M  V30 1905 C 176.96 -5.67719 1.65676 0
M  V30 1906 C 176.322 -6.57507 2.52713 0
M  V30 1907 H 172.421 -0.763312 -0.169936 0
M  V30 1908 H 175.005 -1.93728 0.194264 0
M  V30 1909 H 173.176 -3.41769 -1.84522 0
M  V30 1910 H 174.908 -3.64752 -1.75322 0
M  V30 1911 H 171.663 -4.73571 -0.0523673 0
M  V30 1912 H 172.087 -6.5027 1.88356 0
M  V30 1913 H 176.729 -4.22724 0.080084 0
M  V30 1914 H 174.447 -7.4338 3.16878 0
M  V30 1915 H 178.033 -5.56338 1.70233 0
M  V30 1916 H 176.913 -7.14778 3.22586 0
M  V30 1917 N 174.416 0.165178 -1.56732 0
M  V30 1918 C 175.641 0.900253 -1.86843 0
M  V30 1919 C 176.066 1.74766 -0.695596 0
M  V30 1920 O 175.424 1.77786 0.35522 0
M  V30 1921 C 175.472 1.74777 -3.15413 0
M  V30 1922 O 174.576 2.85007 -2.98068 0
M  V30 1923 H 173.917 0.251832 -0.614391 0
M  V30 1924 H 176.447 0.161468 -2.03962 0
M  V30 1925 H 176.457 2.14646 -3.46974 0
M  V30 1926 H 175.132 1.12537 -4.00385 0
M  V30 1927 H 173.709 2.48676 -2.77875 0
M  V30 1928 N 175.894 1.51508 0.433938 0
M  V30 1929 C 177.142 1.6402 1.18075 0
M  V30 1930 C 177.463 0.360328 1.91642 0
M  V30 1931 O 176.733 -0.623945 1.85698 0
M  V30 1932 H 175.313 0.6045 0.43885 0
M  V30 1933 H 177.975 1.88452 0.497178 0
M  V30 1934 H 177.071 2.46949 1.90847 0
M  V30 1935 N 177.372 -0.689602 1.41712 0
M  V30 1936 C 178.618 -1.45041 1.42599 0
M  V30 1937 C 178.973 -1.92366 0.0363764 0
M  V30 1938 O 178.266 -1.67022 -0.938844 0
M  V30 1939 C 178.46 -2.67298 2.37247 0
M  V30 1940 C 178.289 -2.31935 3.85274 0
M  V30 1941 C 177.059 -2.2201 4.53916 0
M  V30 1942 C 179.257 -1.94526 4.76093 0
M  V30 1943 N 177.239 -1.79594 5.87043 0
M  V30 1944 C 178.61 -1.62915 5.98213 0
M  V30 1945 C 180.665 -1.81388 4.63684 0
M  V30 1946 C 179.368 -1.19486 7.09306 0
M  V30 1947 C 181.394 -1.39364 5.74745 0
M  V30 1948 C 180.756 -1.08668 6.95967 0
M  V30 1949 H 176.855 -0.527806 0.577014 0
M  V30 1950 H 179.439 -0.797266 1.77628 0
M  V30 1951 H 177.61 -3.30325 2.04304 0
M  V30 1952 H 179.342 -3.33806 2.28814 0
M  V30 1953 H 176.097 -2.406 4.07932 0
M  V30 1954 H 176.521 -1.60851 6.57614 0
M  V30 1955 H 181.163 -2.03772 3.70455 0
M  V30 1956 H 178.881 -0.958477 8.02396 0
M  V30 1957 H 182.467 -1.2974 5.6715 0
M  V30 1958 H 181.347 -0.766417 7.80446 0
M  V30 1959 N 178.85 -1.27639 -0.924453 0
M  V30 1960 C 179.813 -1.10681 -2.00705 0
M  V30 1961 C 180.813 -0.0497823 -1.60723 0
M  V30 1962 O 182.003 -0.294654 -1.7169 0
M  V30 1963 C 179.135 -0.687164 -3.33902 0
M  V30 1964 H 180.328 -2.06817 -2.17179 0
M  V30 1965 H 177.881 -1.10473 -1.10569 0
M  V30 1966 H 178.616 0.275439 -3.23128 0
M  V30 1967 H 178.401 -1.45061 -3.6428 0
M  V30 1968 H 179.891 -0.590853 -4.13399 0
M  V30 1969 N 180.328 1.1314 -1.09713 0
M  V30 1970 C 181.553 1.88862 -0.857081 0
M  V30 1971 C 181.978 1.78729 0.586304 0
M  V30 1972 O 181.336 1.13692 1.41222 0
M  V30 1973 C 181.384 3.36325 -1.30069 0
M  V30 1974 O 180.488 4.09815 -0.461007 0
M  V30 1975 H 179.829 0.587108 -0.310162 0
M  V30 1976 H 182.359 1.43129 -1.46203 0
M  V30 1977 H 182.369 3.87157 -1.28738 0
M  V30 1978 H 181.044 3.43017 -2.35185 0
M  V30 1979 H 179.621 3.68986 -0.538888 0
M  V30 1980 N 181.806 0.884767 1.30421 0
M  V30 1981 C 182.754 0.340869 2.30089 0
M  V30 1982 C 183.748 -0.55201 1.60154 0
M  V30 1983 O 184.954 -0.436467 1.74628 0
M  V30 1984 H 181.329 0.0915739 0.746404 0
M  V30 1985 H 183.3 1.19513 2.73421 0
M  V30 1986 C 182.049 -0.429779 3.45034 0
M  V30 1987 H 181.372 0.248024 3.9903 0
M  V30 1988 H 182.812 -0.775445 4.16849 0
M  V30 1989 C 181.271 -1.62677 2.95022 0
M  V30 1990 O 181.801 -2.72614 2.95033 0
M  V30 1991 N 180.007 -1.46387 2.51036 0
M  V30 1992 H 179.554 -0.569506 2.51226 0
M  V30 1993 H 179.512 -2.26612 2.17932 0
M  V30 1994 N 183.284 -1.43765 0.645699 0
M  V30 1995 C 184.509 -2.06767 0.161883 0
M  V30 1996 C 184.934 -1.48034 -1.16049 0
M  V30 1997 O 184.292 -0.587369 -1.71522 0
M  V30 1998 C 184.34 -3.60519 0.0762003 0
M  V30 1999 O 183.444 -4.00982 -0.963721 0
M  V30 2000 H 182.785 -0.657675 0.091429 0
M  V30 2001 H 185.315 -1.84397 0.886499 0
M  V30 2002 H 185.325 -4.07853 -0.109604 0
M  V30 2003 H 184 -4.02646 1.04157 0
M  V30 2004 H 182.577 -3.65253 -0.751312 0
M  V30 2005 N 184.763 -0.387143 -1.52771 0
M  V30 2006 C 185.711 0.463953 -2.27926 0
M  V30 2007 C 186.705 1.06493 -1.31741 0
M  V30 2008 O 187.911 1.00565 -1.49287 0
M  V30 2009 H 184.286 0.16837 -0.732909 0
M  V30 2010 H 186.257 -0.19141 -2.97785 0
M  V30 2011 C 185.006 1.5803 -3.09713 0
M  V30 2012 H 184.329 1.12718 -3.83581 0
M  V30 2013 H 185.769 2.15008 -3.65442 0
M  V30 2014 C 184.228 2.53509 -2.2189 0
M  V30 2015 O 184.758 3.56863 -1.84422 0
M  V30 2016 N 182.964 2.23199 -1.86093 0
M  V30 2017 H 182.511 1.39185 -2.16761 0
M  V30 2018 H 182.469 2.87333 -1.27621 0
M  V30 2019 N 186.241 1.57166 -0.116904 0
M  V30 2020 C 187.471 1.99184 0.548586 0
M  V30 2021 C 187.879 0.995436 1.60897 0
M  V30 2022 O 187.222 -0.0201293 1.83689 0
M  V30 2023 C 187.284 3.37611 1.23526 0
M  V30 2024 C 186.948 4.55857 0.323077 0
M  V30 2025 C 187.945 5.18056 -0.437476 0
M  V30 2026 C 185.63 5.01751 0.234761 0
M  V30 2027 C 187.624 6.24536 -1.2741 0
M  V30 2028 C 185.311 6.08093 -0.605496 0
M  V30 2029 C 186.309 6.69352 -1.35856 0
M  V30 2030 O 185.997 7.7364 -2.18487 0
M  V30 2031 H 185.729 0.659148 0.149999 0
M  V30 2032 H 188.283 2.0443 -0.199428 0
M  V30 2033 H 186.513 3.29113 2.0303 0
M  V30 2034 H 188.202 3.63932 1.79745 0
M  V30 2035 H 188.968 4.83516 -0.379105 0
M  V30 2036 H 184.847 4.53817 0.810601 0
M  V30 2037 H 188.391 6.72281 -1.86237 0
M  V30 2038 H 184.288 6.42063 -0.665268 0
M  V30 2039 H 185.056 7.90727 -2.11406 0
M  V30 2040 N 187.719 -0.156864 1.56817 0
M  V30 2041 C 188.682 -1.17781 1.96622 0
M  V30 2042 C 189.682 -1.36401 0.851555 0
M  V30 2043 O 190.872 -1.33561 1.11836 0
M  V30 2044 C 188.004 -2.54008 2.27361 0
M  V30 2045 H 189.197 -0.836564 2.87996 0
M  V30 2046 H 186.75 -0.39985 1.51099 0
M  V30 2047 H 187.485 -2.9312 1.38748 0
M  V30 2048 H 187.27 -2.41856 3.08623 0
M  V30 2049 H 188.76 -3.27558 2.59029 0
M  V30 2050 N 189.197 -1.51736 -0.425897 0
M  V30 2051 C 190.127 -1.76827 -1.52494 0
M  V30 2052 C 191.108 -0.618524 -1.58456 0
M  V30 2053 O 192.293 -0.862416 -1.74 0
M  V30 2054 C 189.423 -1.90374 -2.90474 0
M  V30 2055 C 188.377 -3.0588 -2.99369 0
M  V30 2056 C 187.703 -3.04625 -4.3944 0
M  V30 2057 C 189.003 -4.45644 -2.72394 0
M  V30 2058 H 190.697 -2.68855 -1.31748 0
M  V30 2059 H 188.243 -1.29372 -0.632362 0
M  V30 2060 H 190.196 -2.0651 -3.6733 0
M  V30 2061 H 188.92 -0.95004 -3.12477 0
M  V30 2062 H 187.579 -2.89467 -2.24954 0
M  V30 2063 H 187.227 -2.0701 -4.58428 0
M  V30 2064 H 186.927 -3.82195 -4.46319 0
M  V30 2065 H 188.451 -3.22869 -5.18255 0
M  V30 2066 H 189.865 -4.62348 -3.38979 0
M  V30 2067 H 188.262 -5.25006 -2.9067 0
M  V30 2068 H 189.332 -4.54893 -1.67929 0
M  V30 2069 N 190.675 0.682077 -1.42076 0
M  V30 2070 C 191.924 1.43786 -1.41451 0
M  V30 2071 C 192.237 1.95574 -0.0317074 0
M  V30 2072 O 193.443 2.71326 0.0971462 0
M  V30 2073 C 191.899 2.60071 -2.48779 0
M  V30 2074 C 191.507 2.15013 -3.93031 0
M  V30 2075 C 193.251 3.37626 -2.57311 0
M  V30 2076 C 191.158 3.28336 -4.91883 0
M  V30 2077 H 190.088 0.540143 -0.526082 0
M  V30 2078 H 192.739 0.739157 -1.67955 0
M  V30 2079 H 191.121 3.32275 -2.15429 0
M  V30 2080 H 192.295 1.5001 -4.35699 0
M  V30 2081 H 190.61 1.50416 -3.88284 0
M  V30 2082 H 193.207 4.22012 -3.28345 0
M  V30 2083 H 193.55 3.83727 -1.61429 0
M  V30 2084 H 194.083 2.72488 -2.89819 0
M  V30 2085 H 190.822 2.87234 -5.89217 0
M  V30 2086 H 190.342 3.92145 -4.53853 0
M  V30 2087 H 192.021 3.93913 -5.13265 0
M  V30 2088 N 192.153 1.28127 0.917671 0
M  V30 2089 C 193.401 1.14825 1.66312 0
M  V30 2090 C 193.722 -0.304379 1.9261 0
M  V30 2091 O 192.992 -1.21149 1.53947 0
M  V30 2092 H 191.572 0.421953 0.616413 0
M  V30 2093 H 194.234 1.608 1.10134 0
M  V30 2094 H 193.33 1.68489 2.62712 0
M  V30 2095 N 193.631 -1.12557 1.10312 0
M  V30 2096 C 194.594 -2.16434 0.75424 0
M  V30 2097 C 195.594 -1.59278 -0.220685 0
M  V30 2098 O 196.784 -1.742 0.00230591 0
M  V30 2099 C 193.916 -3.40699 0.116987 0
M  V30 2100 H 195.109 -2.48811 1.67431 0
M  V30 2101 H 192.662 -1.27542 0.903475 0
M  V30 2102 H 193.397 -3.13921 -0.813877 0
M  V30 2103 H 193.182 -3.83459 0.818613 0
M  V30 2104 H 194.672 -4.17451 -0.111387 0
M  V30 2105 N 195.109 -0.891671 -1.2995 0
M  V30 2106 C 196.039 -0.379797 -2.30391 0
M  V30 2107 C 197.02 0.540919 -1.6127 0
M  V30 2108 O 198.205 0.453352 -1.88834 0
M  V30 2109 C 195.335 0.400654 -3.44981 0
M  V30 2110 C 194.289 -0.428905 -4.25846 0
M  V30 2111 C 193.615 0.478557 -5.32554 0
M  V30 2112 C 194.915 -1.67458 -4.94727 0
M  V30 2113 H 196.609 -1.21914 -2.73454 0
M  V30 2114 H 194.155 -0.587675 -1.31462 0
M  V30 2115 H 196.108 0.769434 -4.14316 0
M  V30 2116 H 194.832 1.27371 -3.0074 0
M  V30 2117 H 193.491 -0.779911 -3.58208 0
M  V30 2118 H 193.139 1.34951 -4.84559 0
M  V30 2119 H 192.839 -0.0727433 -5.87555 0
M  V30 2120 H 194.363 0.843705 -6.04743 0
M  V30 2121 H 195.777 -1.376 -5.56542 0
M  V30 2122 H 194.174 -2.16659 -5.59624 0
M  V30 2123 H 195.244 -2.41518 -4.20473 0
M  V30 2124 N 196.587 1.43421 -0.653314 0
M  V30 2125 C 198.003 1.56341 -0.320886 0
M  V30 2126 C 198.203 1.63696 1.17499 0
M  V30 2127 O 197.259 1.59208 1.95982 0
M  V30 2128 C 198.572 2.82424 -1.03233 0
M  V30 2129 C 200.12 2.96168 -1.01259 0
M  V30 2130 C 200.595 4.25084 -1.70492 0
M  V30 2131 N 202.086 4.31948 -1.67257 0
M  V30 2132 C 202.821 5.30466 -2.17701 0
M  V30 2133 N 202.317 6.35261 -2.76434 0
M  V30 2134 N 204.11 5.2212 -2.082 0
M  V30 2135 H 196.261 1.3689 -1.62403 0
M  V30 2136 H 198.524 0.657455 -0.682977 0
M  V30 2137 H 198.23 2.83053 -2.08744 0
M  V30 2138 H 198.104 3.72653 -0.583948 0
M  V30 2139 H 200.491 2.9508 0.0341235 0
M  V30 2140 H 200.572 2.07229 -1.49966 0
M  V30 2141 H 200.216 4.26932 -2.7512 0
M  V30 2142 H 200.146 5.1292 -1.19251 0
M  V30 2143 H 202.637 3.56838 -1.24398 0
M  V30 2144 H 202.95 7.06754 -3.12601 0
M  V30 2145 H 201.295 6.35884 -2.80495 0
M  V30 2146 H 204.486 4.39166 -1.62021 0
M  V30 2147 H 204.659 5.98739 -2.47822 0
M  V30 2148 N 198.065 0.39524 1.52563 0
M  V30 2149 C 199.028 -0.425001 2.25225 0
M  V30 2150 C 200.028 -0.985266 1.27079 0
M  V30 2151 O 201.218 -0.866332 1.5113 0
M  V30 2152 C 198.35 -1.59686 3.01186 0
M  V30 2153 H 199.543 0.211233 2.99155 0
M  V30 2154 H 197.096 0.147472 1.55603 0
M  V30 2155 H 197.831 -2.27035 2.31572 0
M  V30 2156 H 197.616 -1.20176 3.73229 0
M  V30 2157 H 199.106 -2.17743 3.5634 0
M  V30 2158 N 199.544 -1.57102 0.125237 0
M  V30 2159 C 200.79 -1.95697 -0.532035 0
M  V30 2160 C 201.123 -1.009 -1.6593 0
M  V30 2161 O 200.398 -0.047347 -1.94442 0
M  V30 2162 C 200.681 -3.44181 -1.05884 0
M  V30 2163 C 200.534 -4.49752 0.0654392 0
M  V30 2164 C 201.853 -3.94655 -1.9477 0
M  V30 2165 H 198.972 -0.711571 -0.191925 0
M  V30 2166 H 201.614 -1.88923 0.20206 0
M  V30 2167 H 199.764 -3.50085 -1.68442 0
M  V30 2168 H 201.436 -4.55943 0.700982 0
M  V30 2169 H 199.679 -4.27653 0.727709 0
M  V30 2170 H 200.35 -5.50924 -0.344505 0
M  V30 2171 H 202.826 -3.91094 -1.42074 0
M  V30 2172 H 201.702 -4.99057 -2.28546 0
M  V30 2173 H 201.963 -3.35718 -2.87656 0
M  V30 2174 N 201.022 0.148545 -1.56898 0
M  V30 2175 C 201.985 1.16736 -1.97244 0
M  V30 2176 C 202.985 1.35947 -0.858777 0
M  V30 2177 O 204.175 1.32966 -1.12542 0
M  V30 2178 C 201.307 2.52798 -2.28705 0
M  V30 2179 H 202.5 0.821279 -2.88435 0
M  V30 2180 H 200.053 0.391831 -1.51309 0
M  V30 2181 H 200.788 2.92381 -1.403 0
M  V30 2182 H 200.573 2.40216 -3.09901 0
M  V30 2183 H 202.063 3.26179 -2.60762 0
M  V30 2184 N 202.5 1.5196 0.417844 0
M  V30 2185 C 203.432 1.70895 1.52733 0
M  V30 2186 C 204.445 0.589405 1.51756 0
M  V30 2187 O 205.634 0.864312 1.56179 0
M  V30 2188 C 202.734 1.72627 2.91639 0
M  V30 2189 C 201.907 3.01479 3.16905 0
M  V30 2190 C 200.966 2.95139 4.35637 0
M  V30 2191 O 199.992 3.69059 4.3334 0
M  V30 2192 N 201.194 2.12328 5.40275 0
M  V30 2193 H 203.959 2.66612 1.36888 0
M  V30 2194 H 201.52 1.50089 0.607037 0
M  V30 2195 H 203.512 1.65928 3.6912 0
M  V30 2196 H 202.082 0.844216 3.00985 0
M  V30 2197 H 201.302 3.21895 2.27546 0
M  V30 2198 H 202.59 3.86736 3.30625 0
M  V30 2199 H 201.988 1.51685 5.44985 0
M  V30 2200 H 200.545 2.11494 6.16534 0
M  V30 2201 N 203.978 -0.674533 1.42435 0
M  V30 2202 C 205.206 -1.46283 1.46317 0
M  V30 2203 C 205.621 -1.88653 0.0745836 0
M  V30 2204 O 204.978 -1.58151 -0.91074 0
M  V30 2205 C 205.029 -2.71178 2.3905 0
M  V30 2206 O 204.75 -2.30586 3.72507 0
M  V30 2207 C 206.251 -3.64738 2.51955 0
M  V30 2208 H 203.471 -0.450104 0.497642 0
M  V30 2209 H 206.015 -0.828792 1.86953 0
M  V30 2210 H 204.17 -3.3077 2.01667 0
M  V30 2211 H 204.584 -3.11241 4.22172 0
M  V30 2212 H 206.058 -4.49096 3.20962 0
M  V30 2213 H 206.535 -4.10656 1.55752 0
M  V30 2214 H 207.141 -3.11038 2.90061 0
M  V30 2215 N 205.456 -1.28612 -0.910864 0
M  V30 2216 C 206.705 -1.15311 -1.65488 0
M  V30 2217 C 207.018 0.296999 -1.93332 0
M  V30 2218 O 208.224 0.551168 -2.65847 0
M  V30 2219 C 206.68 -2.01599 -2.98137 0
M  V30 2220 C 206.288 -3.51367 -2.7793 0
M  V30 2221 C 208.032 -1.96993 -3.76024 0
M  V30 2222 C 205.939 -4.29797 -4.06237 0
M  V30 2223 H 204.869 -0.42796 -0.620779 0
M  V30 2224 H 207.52 -1.53166 -1.01057 0
M  V30 2225 H 205.902 -1.56603 -3.63719 0
M  V30 2226 H 207.076 -4.0434 -2.21011 0
M  V30 2227 H 205.391 -3.57529 -2.13452 0
M  V30 2228 H 207.988 -2.52856 -4.71135 0
M  V30 2229 H 208.331 -0.94733 -4.05378 0
M  V30 2230 H 208.864 -2.39973 -3.17266 0
M  V30 2231 H 205.603 -5.32648 -3.82055 0
M  V30 2232 H 205.123 -3.81596 -4.62757 0
M  V30 2233 H 206.802 -4.39869 -4.74473 0
M  V30 2234 N 206.934 1.1197 -1.10907 0
M  V30 2235 C 208.159 1.87942 -0.877064 0
M  V30 2236 C 208.584 1.79341 0.567314 0
M  V30 2237 O 207.942 1.15184 1.40009 0
M  V30 2238 C 207.99 3.34926 -1.33629 0
M  V30 2239 O 207.094 4.09303 -0.504447 0
M  V30 2240 H 206.435 0.583785 -0.316371 0
M  V30 2241 H 208.965 1.4157 -1.47712 0
M  V30 2242 H 208.975 3.8577 -1.32837 0
M  V30 2243 H 207.65 3.40504 -2.3881 0
M  V30 2244 H 206.227 3.68393 -0.577993 0
M  V30 2245 N 208.412 0.89855 1.29475 0
M  V30 2246 C 209.642 0.538479 1.99459 0
M  V30 2247 C 210.05 -0.880922 1.67441 0
M  V30 2248 O 209.393 -1.59283 0.915127 0
M  V30 2249 C 209.455 0.649564 3.53583 0
M  V30 2250 C 209.119 2.03573 4.09154 0
M  V30 2251 C 210.116 3.00675 4.24135 0
M  V30 2252 C 207.801 2.3448 4.44212 0
M  V30 2253 C 209.795 4.26809 4.73405 0
M  V30 2254 C 207.482 3.60857 4.93179 0
M  V30 2255 C 208.48 4.56836 5.0773 0
M  V30 2256 O 208.168 5.80969 5.55635 0
M  V30 2257 H 207.9 0.205372 0.644048 0
M  V30 2258 H 210.454 1.20958 1.66007 0
M  V30 2259 H 208.684 -0.0785592 3.8662 0
M  V30 2260 H 210.373 0.29881 4.04799 0
M  V30 2261 H 211.139 2.78112 3.97339 0
M  V30 2262 H 207.018 1.60534 4.32145 0
M  V30 2263 H 210.562 5.0173 4.84678 0
M  V30 2264 H 206.459 3.83251 5.19412 0
M  V30 2265 H 207.227 5.83542 5.73952 0
M  V30 2266 N 209.89 -1.43072 0.660911 0
M  V30 2267 C 210.8 -2.34585 -0.0264163 0
M  V30 2268 C 211.816 -1.54316 -0.803898 0
M  V30 2269 O 212.992 -1.86939 -0.749391 0
M  V30 2270 C 210.057 -3.32689 -0.975639 0
M  V30 2271 C 209.118 -4.2886 -0.194236 0
M  V30 2272 C 208.351 -5.22278 -1.09825 0
M  V30 2273 O 208.574 -5.20299 -2.33763 0
M  V30 2274 O 207.508 -5.99228 -0.566513 0
M  V30 2275 H 211.334 -2.94869 0.727034 0
M  V30 2276 H 208.919 -1.43342 0.42111 0
M  V30 2277 H 210.801 -3.92995 -1.52094 0
M  V30 2278 H 209.476 -2.74898 -1.70918 0
M  V30 2279 H 208.383 -3.72011 0.394835 0
M  V30 2280 H 209.716 -4.89655 0.499899 0
M  V30 2281 N 211.368 -0.403325 -1.52352 0
M  V30 2282 C 212.614 0.174605 -2.02047 0
M  V30 2283 C 212.947 1.45282 -1.28867 0
M  V30 2284 O 212.222 1.90483 -0.393257 0
M  V30 2285 C 212.505 0.428238 -3.57545 0
M  V30 2286 C 212.358 -0.866248 -4.4138 0
M  V30 2287 C 213.677 1.21287 -4.23057 0
M  V30 2288 H 210.796 0.0619851 -0.734389 0
M  V30 2289 H 213.438 -0.53565 -1.82293 0
M  V30 2290 H 211.588 1.03327 -3.74507 0
M  V30 2291 H 213.26 -1.50265 -4.3614 0
M  V30 2292 H 211.503 -1.47851 -4.07827 0
M  V30 2293 H 212.174 -0.643249 -5.48239 0
M  V30 2294 H 214.65 0.700703 -4.10158 0
M  V30 2295 H 213.526 1.35909 -5.31808 0
M  V30 2296 H 213.787 2.23193 -3.81625 0
M  V30 2297 N 212.846 1.57033 -0.133567 0
M  V30 2298 C 214.074 2.00044 0.528195 0
M  V30 2299 C 214.489 1.01349 1.59291 0
M  V30 2300 O 213.846 0.00848369 1.82498 0
M  V30 2301 C 213.897 3.43018 1.1411 0
M  V30 2302 O 213.618 4.37939 0.11892 0
M  V30 2303 C 215.119 4.01237 1.88477 0
M  V30 2304 H 212.339 0.656517 0.138661 0
M  V30 2305 H 214.883 2.03267 -0.224196 0
M  V30 2306 H 213.038 3.40688 1.84418 0
M  V30 2307 H 213.452 5.21436 0.56613 0
M  V30 2308 H 214.926 5.03314 2.26669 0
M  V30 2309 H 215.403 3.41193 2.76558 0
M  V30 2310 H 216.009 4.07156 1.22898 0
M  V30 2311 N 214.325 -0.140222 1.56975 0
M  V30 2312 C 215.255 -1.17456 2.01808 0
M  V30 2313 C 216.236 -1.44415 0.898794 0
M  V30 2314 O 217.421 -1.5522 1.16707 0
M  V30 2315 C 214.551 -2.50607 2.40444 0
M  V30 2316 C 213.505 -2.38155 3.55621 0
M  V30 2317 C 212.831 -3.76078 3.80091 0
M  V30 2318 C 214.131 -1.85991 4.88062 0
M  V30 2319 H 215.825 -0.801743 2.88466 0
M  V30 2320 H 213.371 -0.38422 1.38779 0
M  V30 2321 H 215.324 -3.23197 2.7041 0
M  V30 2322 H 214.048 -2.89737 1.50732 0
M  V30 2323 H 212.707 -1.68016 3.25832 0
M  V30 2324 H 212.355 -4.12656 2.87618 0
M  V30 2325 H 212.055 -3.68606 4.57606 0
M  V30 2326 H 213.579 -4.50206 4.12488 0
M  V30 2327 H 214.993 -2.4838 5.16701 0
M  V30 2328 H 213.39 -1.89393 5.6943 0
M  V30 2329 H 214.46 -0.816023 4.77984 0
M  V30 2330 N 215.803 -1.52179 -0.40978 0
M  V30 2331 C 216.766 -1.74853 -1.48186 0
M  V30 2332 C 217.766 -0.618417 -1.48433 0
M  V30 2333 O 218.956 -0.886286 -1.49969 0
M  V30 2334 C 216.088 -1.8303 -2.87598 0
M  V30 2335 H 217.281 -2.70559 -1.29374 0
M  V30 2336 H 214.834 -1.42586 -0.640233 0
M  V30 2337 H 215.569 -0.89236 -3.11781 0
M  V30 2338 H 215.354 -2.65187 -2.88822 0
M  V30 2339 H 216.844 -2.02316 -3.65319 0
M  V30 2340 N 217.281 0.66697 -1.42791 0
M  V30 2341 C 218.53 1.42278 -1.42968 0
M  V30 2342 C 218.843 1.9553 -0.0524489 0
M  V30 2343 O 220.049 2.71414 0.068363 0
M  V30 2344 C 218.505 2.57418 -2.51524 0
M  V30 2345 C 218.113 2.10832 -3.9529 0
M  V30 2346 C 219.857 3.34878 -2.60877 0
M  V30 2347 C 217.764 3.23101 -4.95338 0
M  V30 2348 H 216.694 0.534533 -0.531781 0
M  V30 2349 H 219.345 0.721302 -1.68729 0
M  V30 2350 H 217.727 3.29971 -2.18941 0
M  V30 2351 H 218.901 1.4538 -4.37266 0
M  V30 2352 H 217.216 1.46289 -3.89857 0
M  V30 2353 H 219.813 4.18505 -3.32802 0
M  V30 2354 H 220.156 3.81993 -1.6549 0
M  V30 2355 H 220.689 2.69398 -2.92693 0
M  V30 2356 H 217.428 2.80969 -5.9223 0
M  V30 2357 H 216.948 3.87309 -4.57987 0
M  V30 2358 H 218.627 3.88447 -5.17415 0
M  V30 2359 N 218.759 1.29093 0.90403 0
M  V30 2360 C 220.008 1.16187 1.64874 0
M  V30 2361 C 220.321 -0.286742 1.93487 0
M  V30 2362 O 221.527 -0.537062 2.66135 0
M  V30 2363 C 219.983 2.03177 2.97064 0
M  V30 2364 C 219.591 3.52836 2.76062 0
M  V30 2365 C 221.335 1.98984 3.74974 0
M  V30 2366 C 219.242 4.31945 4.03952 0
M  V30 2367 H 218.172 0.431246 0.618501 0
M  V30 2368 H 220.823 1.53699 1.00243 0
M  V30 2369 H 219.205 1.5853 3.62883 0
M  V30 2370 H 220.379 4.05507 2.18863 0
M  V30 2371 H 218.694 3.58656 2.11553 0
M  V30 2372 H 221.291 2.55351 4.69787 0
M  V30 2373 H 221.634 0.968815 4.0487 0
M  V30 2374 H 222.167 2.41652 3.15989 0
M  V30 2375 H 218.906 5.34667 3.79225 0
M  V30 2376 H 218.426 3.84045 4.60727 0
M  V30 2377 H 220.105 4.42379 4.72133 0
M  V30 2378 N 220.237 -1.11381 1.11499 0
M  V30 2379 C 221.167 -2.19509 0.796125 0
M  V30 2380 C 222.148 -1.68458 -0.235796 0
M  V30 2381 O 223.333 -1.93947 -0.0991344 0
M  V30 2382 C 220.463 -3.46475 0.239205 0
M  V30 2383 C 219.417 -4.10744 1.20307 0
M  V30 2384 C 218.743 -5.32293 0.50683 0
M  V30 2385 C 220.043 -4.55597 2.55399 0
M  V30 2386 H 221.737 -2.46439 1.70024 0
M  V30 2387 H 219.283 -1.18446 0.818935 0
M  V30 2388 H 221.236 -4.214 0.00392006 0
M  V30 2389 H 219.96 -3.19006 -0.700206 0
M  V30 2390 H 218.619 -3.37813 1.42399 0
M  V30 2391 H 218.267 -5.01095 -0.437408 0
M  V30 2392 H 217.967 -5.76243 1.1497 0
M  V30 2393 H 219.491 -6.09956 0.280351 0
M  V30 2394 H 220.905 -5.21841 2.37391 0
M  V30 2395 H 219.302 -5.10363 3.15673 0
M  V30 2396 H 220.372 -3.69013 3.14575 0
M  V30 2397 N 221.715 -0.905404 -1.28997 0
M  V30 2398 C 222.645 -0.404212 -2.29975 0
M  V30 2399 C 223.626 0.523784 -1.61835 0
M  V30 2400 O 224.811 0.433298 -1.89304 0
M  V30 2401 C 221.941 0.364042 -3.45387 0
M  V30 2402 C 220.895 -0.474048 -4.25367 0
M  V30 2403 C 220.221 0.422045 -5.33032 0
M  V30 2404 C 221.521 -1.72696 -4.92923 0
M  V30 2405 H 223.215 -1.24807 -2.72146 0
M  V30 2406 H 220.761 -0.601585 -1.30832 0
M  V30 2407 H 222.714 0.725447 -4.15109 0
M  V30 2408 H 221.438 1.24174 -3.02074 0
M  V30 2409 H 220.097 -0.81786 -3.57361 0
M  V30 2410 H 219.745 1.29804 -4.85963 0
M  V30 2411 H 219.445 -0.135057 -5.87445 0
M  V30 2412 H 220.969 0.779517 -6.05604 0
M  V30 2413 H 222.383 -1.43495 -5.55051 0
M  V30 2414 H 220.78 -2.22582 -5.57295 0
M  V30 2415 H 221.85 -2.45964 -4.17887 0
M  V30 2416 N 223.193 1.4272 -0.668489 0
M  V30 2417 C 224.418 2.06484 -0.194758 0
M  V30 2418 C 224.843 1.49862 1.13679 0
M  V30 2419 O 224.201 0.614582 1.70565 0
M  V30 2420 C 224.249 3.60353 -0.133546 0
M  V30 2421 O 223.353 4.02464 0.899806 0
M  V30 2422 H 222.694 0.656137 -0.10188 0
M  V30 2423 H 225.224 1.82964 -0.915722 0
M  V30 2424 H 225.234 4.07976 0.0447041 0
M  V30 2425 H 223.909 4.00938 -1.1055 0
M  V30 2426 H 222.486 3.66402 0.693109 0
M  V30 2427 N 224.671 0.411399 1.52136 0
M  V30 2428 C 225.899 -0.163076 2.06256 0
M  V30 2429 C 226.314 -1.3867 1.28125 0
M  V30 2430 O 225.671 -1.79423 0.333721 0
M  V30 2431 C 225.722 -0.511252 3.57867 0
M  V30 2432 O 225.443 0.66378 4.33042 0
M  V30 2433 C 226.944 -1.13921 4.28412 0
M  V30 2434 H 224.164 -0.0193897 0.67072 0
M  V30 2435 H 226.708 0.583007 1.96013 0
M  V30 2436 H 224.863 -1.20723 3.6811 0
M  V30 2437 H 225.277 0.372601 5.23175 0
M  V30 2438 H 226.751 -1.33302 5.35663 0
M  V30 2439 H 227.228 -2.11296 3.85033 0
M  V30 2440 H 227.834 -0.483373 4.22544 0
M  V30 2441 N 226.149 -1.5696 0.141893 0
M  V30 2442 C 227.079 -2.19516 -0.795936 0
M  V30 2443 C 228.06 -1.14187 -1.26077 0
M  V30 2444 O 229.245 -1.42511 -1.31925 0
M  V30 2445 C 226.375 -2.81272 -2.03723 0
M  V30 2446 C 225.329 -3.92384 -1.70936 0
M  V30 2447 C 224.655 -4.41052 -3.02287 0
M  V30 2448 C 225.955 -5.13403 -0.959954 0
M  V30 2449 H 227.649 -2.98138 -0.274596 0
M  V30 2450 H 225.195 -1.43406 -0.130636 0
M  V30 2451 H 227.148 -3.237 -2.69808 0
M  V30 2452 H 225.872 -1.99973 -2.58221 0
M  V30 2453 H 224.531 -3.50566 -1.07232 0
M  V30 2454 H 224.179 -3.56582 -3.54765 0
M  V30 2455 H 223.879 -5.15993 -2.81114 0
M  V30 2456 H 225.403 -4.86146 -3.69451 0
M  V30 2457 H 226.817 -5.52706 -1.52279 0
M  V30 2458 H 225.214 -5.94073 -0.848357 0
M  V30 2459 H 226.284 -4.84875 0.0492434 0
M  V30 2460 N 227.627 0.131896 -1.57047 0
M  V30 2461 C 228.557 1.16384 -2.02428 0
M  V30 2462 C 229.538 1.43936 -0.90644 0
M  V30 2463 O 230.723 1.54599 -1.17528 0
M  V30 2464 C 227.853 2.49328 -2.4177 0
M  V30 2465 C 226.807 2.36266 -3.56879 0
M  V30 2466 C 226.133 3.74057 -3.8208 0
M  V30 2467 C 227.433 1.834 -4.89042 0
M  V30 2468 H 229.127 0.786433 -2.88887 0
M  V30 2469 H 226.673 0.376855 -1.38981 0
M  V30 2470 H 228.626 3.21759 -2.7212 0
M  V30 2471 H 227.35 2.88934 -1.52266 0
M  V30 2472 H 226.009 1.66286 -3.26718 0
M  V30 2473 H 225.657 4.11125 -2.89803 0
M  V30 2474 H 225.357 3.66174 -4.59554 0
M  V30 2475 H 226.881 4.48012 -4.1487 0
M  V30 2476 H 228.295 2.45636 -5.18011 0
M  V30 2477 H 226.692 1.8637 -5.70426 0
M  V30 2478 H 227.762 0.790662 -4.7841 0
M  V30 2479 N 229.106 1.52395 0.401703 0
M  V30 2480 C 230.039 1.70999 1.51111 0
M  V30 2481 C 231.017 0.55765 1.52738 0
M  V30 2482 O 232.201 0.785912 1.71335 0
M  V30 2483 C 229.328 1.75607 2.8962 0
M  V30 2484 C 228.374 2.97227 3.05873 0
M  V30 2485 S 229.207 4.57439 2.78405 0
M  V30 2486 C 230.363 4.64844 4.19131 0
M  V30 2487 H 230.596 2.6483 1.35102 0
M  V30 2488 H 228.129 1.42527 0.593762 0
M  V30 2489 H 230.087 1.78947 3.69443 0
M  V30 2490 H 228.748 0.828914 3.02965 0
M  V30 2491 H 227.941 2.96955 4.07227 0
M  V30 2492 H 227.543 2.91813 2.33925 0
M  V30 2493 H 229.835 4.42677 5.12877 0
M  V30 2494 H 230.778 5.66807 4.24424 0
M  V30 2495 H 231.186 3.93804 4.04448 0
M  V30 2496 N 230.584 -0.659388 1.43143 0
M  V30 2497 C 231.809 -1.45221 1.48073 0
M  V30 2498 C 232.234 -1.87845 0.097995 0
M  V30 2499 O 231.592 -1.56985 -0.90694 0
M  V30 2500 C 231.64 -2.66748 2.42647 0
M  V30 2501 O 230.744 -3.65583 1.90848 0
M  V30 2502 H 230.085 -0.435669 0.501088 0
M  V30 2503 H 232.615 -0.807432 1.87994 0
M  V30 2504 H 232.625 -3.14637 2.59745 0
M  V30 2505 H 231.3 -2.35067 3.43098 0
M  V30 2506 H 229.877 -3.24693 1.83381 0
M  V30 2507 N 232.062 -1.29571 -0.897171 0
M  V30 2508 C 233.31 -1.17456 -1.64464 0
M  V30 2509 C 233.631 0.273698 -1.9307 0
M  V30 2510 O 232.901 1.18684 -1.55855 0
M  V30 2511 H 231.481 -0.431706 -0.609622 0
M  V30 2512 H 234.143 -1.62531 -1.07562 0
M  V30 2513 H 233.239 -1.72648 -2.59998 0
M  V30 2514 N 233.54 1.10788 -1.12088 0
M  V30 2515 C 234.765 1.87002 -0.896949 0
M  V30 2516 C 235.19 1.79933 0.548261 0
M  V30 2517 O 234.548 1.16662 1.38779 0
M  V30 2518 C 234.596 3.3349 -1.37174 0
M  V30 2519 O 233.7 4.08745 -0.547831 0
M  V30 2520 H 233.041 0.580397 -0.322545 0
M  V30 2521 H 235.571 1.39996 -1.49206 0
M  V30 2522 H 235.581 3.84339 -1.36922 0
M  V30 2523 H 234.256 3.37951 -2.42408 0
M  V30 2524 H 232.833 3.6776 -0.617034 0
M  V30 2525 N 235.018 0.912232 1.28515 0
M  V30 2526 C 236.265 0.544599 1.95039 0
M  V30 2527 C 236.593 -0.911435 1.71823 0
M  V30 2528 O 235.848 -1.66317 1.03137 0
M  V30 2529 C 236.147 0.798392 3.48368 0
M  V30 2530 C 235.813 2.23374 3.91682 0
M  V30 2531 C 234.475 2.62617 4.03219 0
M  V30 2532 C 236.827 3.16786 4.13879 0
M  V30 2533 C 234.155 3.94429 4.3433 0
M  V30 2534 C 236.507 4.48161 4.46469 0
M  V30 2535 C 235.171 4.8726 4.56217 0
M  V30 2536 H 234.441 0.199283 0.7137 0
M  V30 2537 H 237.088 1.15327 1.52879 0
M  V30 2538 H 235.393 0.106908 3.91654 0
M  V30 2539 H 237.09 0.493141 3.97956 0
M  V30 2540 H 233.68 1.91922 3.83228 0
M  V30 2541 H 237.864 2.87677 4.0442 0
M  V30 2542 H 233.12 4.24426 4.40082 0
M  V30 2543 H 237.294 5.20559 4.62592 0
M  V30 2544 H 234.921 5.89431 4.80078 0
M  V30 2545 N 236.496 -1.42363 0.676048 0
M  V30 2546 C 237.444 -2.32596 -0.0131507 0
M  V30 2547 C 238.438 -1.49891 -0.789238 0
M  V30 2548 O 239.644 -1.65955 -0.697061 0
M  V30 2549 H 236.019 -0.751647 -0.0230481 0
M  V30 2550 H 237.99 -2.88421 0.765243 0
M  V30 2551 C 236.739 -3.34479 -0.949702 0
M  V30 2552 H 236.062 -3.98158 -0.361938 0
M  V30 2553 H 237.502 -4.00199 -1.4006 0
M  V30 2554 C 235.961 -2.66838 -2.05667 0
M  V30 2555 O 236.491 -2.50124 -3.14326 0
M  V30 2556 N 234.697 -2.25843 -1.82875 0
M  V30 2557 H 234.244 -2.39637 -0.945085 0
M  V30 2558 H 234.202 -1.80918 -2.5713 0
M  V30 2559 N 237.974 -0.419461 -1.51915 0
M  V30 2560 C 238.904 0.391813 -2.30189 0
M  V30 2561 C 239.885 1.03699 -1.34836 0
M  V30 2562 O 241.07 1.04403 -1.63748 0
M  V30 2563 C 238.2 1.50312 -3.13087 0
M  V30 2564 C 237.154 0.9824 -4.16573 0
M  V30 2565 C 236.48 2.18809 -4.8788 0
M  V30 2566 C 237.78 0.0292356 -5.22292 0
M  V30 2567 H 239.474 -0.26135 -2.98257 0
M  V30 2568 H 237.02 -0.127134 -1.43438 0
M  V30 2569 H 238.973 2.07773 -3.66617 0
M  V30 2570 H 237.697 2.18431 -2.42807 0
M  V30 2571 H 236.356 0.430119 -3.64068 0
M  V30 2572 H 236.004 2.85507 -4.14119 0
M  V30 2573 H 235.704 1.84615 -5.57845 0
M  V30 2574 H 237.228 2.76858 -5.44226 0
M  V30 2575 H 238.642 0.512976 -5.71 0
M  V30 2576 H 237.039 -0.2244 -5.9968 0
M  V30 2577 H 238.109 -0.912931 -4.76228 0
M  V30 2578 N 239.452 1.56882 -0.150215 0
M  V30 2579 C 240.677 2.01027 0.510184 0
M  V30 2580 C 241.102 1.02966 1.57415 0
M  V30 2581 O 240.46 0.00590158 1.81299 0
M  V30 2582 C 240.508 3.43899 1.08472 0
M  V30 2583 O 239.612 3.4885 2.19948 0
M  V30 2584 H 238.953 0.652233 0.124451 0
M  V30 2585 H 241.483 2.03093 -0.247894 0
M  V30 2586 H 241.493 3.82766 1.41259 0
M  V30 2587 H 240.168 4.14776 0.305582 0
M  V30 2588 H 238.745 3.21827 1.88366 0
M  V30 2589 N 240.93 -0.123565 1.57115 0
M  V30 2590 C 242.158 -0.846461 1.88793 0
M  V30 2591 C 242.573 -1.73652 0.740976 0
M  V30 2592 O 241.93 -1.80207 -0.288393 0
M  V30 2593 C 241.981 -1.6837 3.19897 0
M  V30 2594 O 241.702 -0.829477 4.30176 0
M  V30 2595 C 243.203 -2.51214 3.65248 0
M  V30 2596 H 240.423 -0.243573 0.625231 0
M  V30 2597 H 242.967 -0.109324 2.04208 0
M  V30 2598 H 241.122 -2.37364 3.06165 0
M  V30 2599 H 241.536 -1.40651 5.0529 0
M  V30 2600 H 243.01 -3.05497 4.59756 0
M  V30 2601 H 243.487 -3.28359 2.9168 0
M  V30 2602 H 244.093 -1.8747 3.81752 0
M  V30 2603 N 242.408 -1.52605 -0.393616 0
M  V30 2604 C 243.338 -1.80022 -1.48709 0
M  V30 2605 C 244.319 -0.651995 -1.57108 0
M  V30 2606 O 245.504 -0.89913 -1.72132 0
M  V30 2607 C 242.634 -1.96492 -2.86371 0
M  V30 2608 C 241.588 -3.12161 -2.92813 0
M  V30 2609 C 240.914 -3.13877 -4.3288 0
M  V30 2610 C 242.214 -4.51322 -2.6288 0
M  V30 2611 H 243.908 -2.71589 -1.26015 0
M  V30 2612 H 241.454 -1.30684 -0.604778 0
M  V30 2613 H 243.407 -2.14255 -3.62867 0
M  V30 2614 H 242.131 -1.01611 -3.10391 0
M  V30 2615 H 240.79 -2.94173 -2.18764 0
M  V30 2616 H 240.438 -2.16687 -4.53933 0
M  V30 2617 H 240.138 -3.91576 -4.38112 0
M  V30 2618 H 241.662 -3.33789 -5.1129 0
M  V30 2619 H 243.076 -4.69435 -3.29096 0
M  V30 2620 H 241.473 -5.31053 -2.79468 0
M  V30 2621 H 242.543 -4.58353 -1.58242 0
M  V30 2622 N 243.887 0.651787 -1.4349 0
M  V30 2623 C 245.136 1.40754 -1.44469 0
M  V30 2624 C 245.449 1.95463 -0.0731845 0
M  V30 2625 O 246.655 2.71471 0.0395721 0
M  V30 2626 C 245.111 2.54735 -2.5424 0
M  V30 2627 C 244.719 2.06628 -3.97504 0
M  V30 2628 C 246.463 3.32092 -2.64414 0
M  V30 2629 C 244.37 3.17829 -4.98737 0
M  V30 2630 H 243.3 0.528862 -0.53742 0
M  V30 2631 H 245.951 0.703365 -1.69485 0
M  V30 2632 H 244.333 3.2763 -2.22428 0
M  V30 2633 H 245.507 1.40734 -4.38783 0
M  V30 2634 H 243.822 1.42146 -3.91387 0
M  V30 2635 H 246.419 4.14952 -3.37223 0
M  V30 2636 H 246.762 3.80217 -1.69532 0
M  V30 2637 H 247.295 2.66279 -2.95534 0
M  V30 2638 H 244.034 2.74671 -5.95177 0
M  V30 2639 H 243.554 3.82429 -4.62069 0
M  V30 2640 H 245.233 3.82937 -5.21505 0
M  V30 2641 N 245.365 1.30045 0.890287 0
M  V30 2642 C 246.593 1.21472 1.67487 0
M  V30 2643 C 247.008 -0.223241 1.87476 0
M  V30 2644 O 246.365 -1.14828 1.41847 0
M  V30 2645 C 246.416 1.93394 3.05419 0
M  V30 2646 O 246.137 3.31576 2.86337 0
M  V30 2647 C 247.638 1.91414 3.99844 0
M  V30 2648 H 244.858 0.420604 0.522813 0
M  V30 2649 H 247.402 1.7158 1.11268 0
M  V30 2650 H 245.557 1.47099 3.58386 0
M  V30 2651 H 245.971 3.67929 3.73802 0
M  V30 2652 H 247.445 2.46285 4.94012 0
M  V30 2653 H 247.922 0.891833 4.3005 0
M  V30 2654 H 248.528 2.37496 3.52811 0
M  V30 2655 N 246.843 -1.10192 1.12674 0
M  V30 2656 C 248.071 -1.85983 0.906527 0
M  V30 2657 C 248.486 -1.80783 -0.544333 0
M  V30 2658 O 247.843 -1.19834 -1.37645 0
M  V30 2659 C 247.894 -3.34281 1.37618 0
M  V30 2660 O 247.615 -3.39401 2.77017 0
M  V30 2661 C 249.116 -4.26938 1.19325 0
M  V30 2662 H 246.336 -0.587716 0.323775 0
M  V30 2663 H 248.88 -1.39284 1.49734 0
M  V30 2664 H 247.035 -3.78436 0.828539 0
M  V30 2665 H 247.449 -4.31838 2.97684 0
M  V30 2666 H 248.923 -5.29181 1.57071 0
M  V30 2667 H 249.4 -4.38995 0.134097 0
M  V30 2668 H 250.006 -3.8859 1.72852 0
M  V30 2669 N 248.321 -0.919034 -1.28029 0
M  V30 2670 C 249.253 -0.368762 -2.26214 0
M  V30 2671 C 250.266 0.495716 -1.55069 0
M  V30 2672 O 251.455 0.30974 -1.75792 0
M  V30 2673 C 248.555 0.491049 -3.35324 0
M  V30 2674 C 247.728 -0.352133 -4.3598 0
M  V30 2675 C 246.787 0.443622 -5.24327 0
M  V30 2676 O 245.813 -0.14566 -5.69014 0
M  V30 2677 N 247.015 1.74545 -5.53637 0
M  V30 2678 H 249.78 -1.21273 -2.74068 0
M  V30 2679 H 247.341 -0.785541 -1.41566 0
M  V30 2680 H 249.333 1.03026 -3.91366 0
M  V30 2681 H 247.903 1.23574 -2.87138 0
M  V30 2682 H 247.123 -1.07269 -3.79324 0
M  V30 2683 H 248.411 -0.928883 -5.00249 0
M  V30 2684 H 247.809 2.24666 -5.19174 0
M  V30 2685 H 246.366 2.23138 -6.12416 0
M  V30 2686 N 249.799 1.42003 -0.683588 0
M  V30 2687 C 250.709 2.34597 -0.0109075 0
M  V30 2688 C 251.725 1.55576 0.779245 0
M  V30 2689 O 252.901 1.88107 0.719555 0
M  V30 2690 C 249.966 3.34199 0.922588 0
M  V30 2691 C 249.027 4.29115 0.125984 0
M  V30 2692 C 248.26 5.23959 1.01502 0
M  V30 2693 O 248.483 5.23952 2.25456 0
M  V30 2694 O 247.417 6.00053 0.47111 0
M  V30 2695 H 251.243 2.93675 -0.773853 0
M  V30 2696 H 248.828 1.42654 -0.443861 0
M  V30 2697 H 250.71 3.95365 1.45823 0
M  V30 2698 H 249.385 2.77582 1.66523 0
M  V30 2699 H 248.292 3.71335 -0.453969 0
M  V30 2700 H 249.625 4.88798 -0.577736 0
M  V30 2701 N 251.277 0.427512 1.51691 0
M  V30 2702 C 252.227 -0.406604 2.24345 0
M  V30 2703 C 253.211 -0.998276 1.26187 0
M  V30 2704 O 254.403 -0.918045 1.51331 0
M  V30 2705 C 251.532 -1.51266 3.08177 0
M  V30 2706 C 250.618 -0.930868 4.13758 0
M  V30 2707 N 251.009 -0.0773552 5.05741 0
M  V30 2708 C 249.307 -1.19948 4.29568 0
M  V30 2709 C 250.008 0.248344 5.8117 0
M  V30 2710 N 248.984 -0.365535 5.4237 0
M  V30 2711 H 252.786 0.251581 2.92821 0
M  V30 2712 H 250.3 0.239003 1.60632 0
M  V30 2713 H 252.297 -2.123 3.58796 0
M  V30 2714 H 250.957 -2.17328 2.41244 0
M  V30 2715 H 251.968 0.288351 5.17097 0
M  V30 2716 H 248.645 -1.85832 3.73862 0
M  V30 2717 H 250.035 0.942286 6.6526 0
M  V30 2718 N 252.755 -1.56801 0.158532 0
M  V30 2719 C 253.685 -2.20347 -0.772609 0
M  V30 2720 C 254.666 -1.15518 -1.24859 0
M  V30 2721 O 255.851 -1.43902 -1.30406 0
M  V30 2722 C 252.981 -2.83417 -2.00729 0
M  V30 2723 C 251.935 -3.94174 -1.66765 0
M  V30 2724 C 251.261 -4.44233 -2.97592 0
M  V30 2725 C 252.561 -5.14392 -0.905447 0
M  V30 2726 H 254.255 -2.98413 -0.242959 0
M  V30 2727 H 251.801 -1.43537 -0.115419 0
M  V30 2728 H 253.754 -3.26543 -2.6636 0
M  V30 2729 H 252.478 -2.02701 -2.56086 0
M  V30 2730 H 251.137 -3.51684 -1.03508 0
M  V30 2731 H 250.785 -3.60325 -3.50963 0
M  V30 2732 H 250.485 -5.18945 -2.75626 0
M  V30 2733 H 252.009 -4.90037 -3.64274 0
M  V30 2734 H 253.423 -5.5429 -1.46408 0
M  V30 2735 H 251.82 -5.9494 -0.7853 0
M  V30 2736 H 252.89 -4.84795 0.100668 0
M  V30 2737 N 254.233 0.115231 -1.57178 0
M  V30 2738 C 255.479 0.818565 -1.86202 0
M  V30 2739 C 255.834 1.77316 -0.746785 0
M  V30 2740 O 255.127 1.89923 0.25291 0
M  V30 2741 C 255.321 1.60324 -3.19423 0
M  V30 2742 C 255.15 0.726138 -4.43799 0
M  V30 2743 C 253.92 0.379535 -5.03873 0
M  V30 2744 C 256.118 0.0420774 -5.14283 0
M  V30 2745 N 254.1 -0.507841 -6.11796 0
M  V30 2746 C 255.471 -0.704152 -6.15988 0
M  V30 2747 C 257.526 -0.0339486 -4.97888 0
M  V30 2748 C 256.229 -1.51927 -7.03072 0
M  V30 2749 C 258.255 -0.835906 -5.85463 0
M  V30 2750 C 257.617 -1.57031 -6.86673 0
M  V30 2751 H 253.716 0.276343 -0.731545 0
M  V30 2752 H 256.3 0.0821032 -1.94527 0
M  V30 2753 H 254.471 2.31072 -3.12186 0
M  V30 2754 H 256.203 2.2522 -3.36241 0
M  V30 2755 H 252.958 0.722634 -4.68054 0
M  V30 2756 H 253.382 -0.94349 -6.70393 0
M  V30 2757 H 258.024 0.519496 -4.19596 0
M  V30 2758 H 255.742 -2.08386 -7.80769 0
M  V30 2759 H 259.328 -0.89714 -5.74841 0
M  V30 2760 H 258.208 -2.18088 -7.53264 0
M  V30 2761 N 255.711 1.52812 0.385517 0
M  V30 2762 C 256.641 1.80808 1.47752 0
M  V30 2763 C 257.622 0.660318 1.5676 0
M  V30 2764 O 258.807 0.908246 1.71652 0
M  V30 2765 C 255.937 1.98008 2.85324 0
M  V30 2766 C 254.891 3.13709 2.91154 0
M  V30 2767 C 254.217 3.16169 4.31209 0
M  V30 2768 C 255.517 4.52709 2.60483 0
M  V30 2769 H 257.211 2.72253 1.24573 0
M  V30 2770 H 254.757 1.31003 0.597839 0
M  V30 2771 H 256.71 2.16176 3.61726 0
M  V30 2772 H 255.434 1.03255 3.09848 0
M  V30 2773 H 254.093 2.95329 2.17201 0
M  V30 2774 H 253.741 2.19092 4.52778 0
M  V30 2775 H 253.441 3.93894 4.36029 0
M  V30 2776 H 254.965 3.36496 5.09512 0
M  V30 2777 H 256.379 4.71173 3.26602 0
M  V30 2778 H 254.776 5.32528 2.76648 0
M  V30 2779 H 255.846 4.59186 1.55809 0
M  V30 2780 N 257.189 -0.644168 1.43834 0
M  V30 2781 C 258.119 -1.76814 1.52509 0
M  V30 2782 C 259.1 -1.65823 0.379052 0
M  V30 2783 O 260.285 -1.84781 0.597466 0
M  V30 2784 C 257.415 -3.15288 1.4564 0
M  V30 2785 C 256.369 -3.41053 2.58586 0
M  V30 2786 C 255.695 -4.79421 2.36769 0
M  V30 2787 C 256.995 -3.34902 4.00797 0
M  V30 2788 H 258.689 -1.69812 2.46586 0
M  V30 2789 H 256.235 -0.815542 1.1868 0
M  V30 2790 H 258.188 -3.93681 1.50311 0
M  V30 2791 H 256.912 -3.23043 0.480725 0
M  V30 2792 H 255.571 -2.65035 2.53282 0
M  V30 2793 H 255.219 -4.83863 1.37424 0
M  V30 2794 H 254.919 -4.9762 3.12487 0
M  V30 2795 H 256.443 -5.6006 2.43238 0
M  V30 2796 H 257.857 -4.03218 4.07539 0
M  V30 2797 H 256.254 -3.64637 4.76613 0
M  V30 2798 H 257.324 -2.32928 4.25291 0
M  V30 2799 N 258.668 -1.30515 -0.883378 0
M  V30 2800 C 259.598 -1.19607 -2.00541 0
M  V30 2801 C 260.579 -0.086346 -1.69881 0
M  V30 2802 O 261.764 -0.268654 -1.92333 0
M  V30 2803 C 258.894 -0.888758 -3.35736 0
M  V30 2804 C 257.848 -1.95659 -3.8066 0
M  V30 2805 C 257.174 -1.50224 -5.13164 0
M  V30 2806 C 258.474 -3.36788 -3.99213 0
M  V30 2807 H 260.168 -2.13476 -2.09925 0
M  V30 2808 H 257.714 -1.02775 -1.00863 0
M  V30 2809 H 259.667 -0.799094 -4.13754 0
M  V30 2810 H 258.391 0.0856125 -3.26488 0
M  V30 2811 H 257.05 -2.03591 -3.04871 0
M  V30 2812 H 256.698 -0.516092 -5.00345 0
M  V30 2813 H 256.398 -2.2165 -5.44192 0
M  V30 2814 H 257.922 -1.42639 -5.93706 0
M  V30 2815 H 259.336 -3.31605 -4.67665 0
M  V30 2816 H 257.733 -4.06314 -4.41621 0
M  V30 2817 H 258.803 -3.78561 -3.03017 0
M  V30 2818 N 260.146 1.09593 -1.13257 0
M  V30 2819 C 261.557 1.63229 -0.906274 0
M  V30 2820 C 261.908 1.8811 0.557578 0
M  V30 2821 O 261.033 1.62953 1.42391 0
M  V30 2822 C 261.628 2.96535 -1.63867 0
M  V30 2823 C 260.187 3.47003 -1.45828 0
M  V30 2824 C 259.334 2.2145 -1.66898 0
M  V30 2825 H 262.285 0.92978 -1.28611 0
M  V30 2826 H 262.306 3.64411 -1.09476 0
M  V30 2827 H 261.818 2.78394 -2.70404 0
M  V30 2828 H 259.919 3.70272 -0.415848 0
M  V30 2829 H 260.032 4.24551 -2.2202 0
M  V30 2830 H 258.396 2.30022 -1.09371 0
M  V30 2831 H 259.179 2.0583 -2.74752 0
M  V30 2832 N 261.624 0.925811 1.2754 0
M  V30 2833 C 262.849 0.580924 1.99098 0
M  V30 2834 C 263.274 -0.833555 1.68622 0
M  V30 2835 O 262.632 -1.55903 0.925422 0
M  V30 2836 C 262.68 0.811186 3.51358 0
M  V30 2837 O 261.784 -0.124129 4.12213 0
M  V30 2838 H 261.125 0.223873 0.625122 0
M  V30 2839 H 263.655 1.24455 1.62395 0
M  V30 2840 H 263.665 0.72601 4.01489 0
M  V30 2841 H 262.34 1.84227 3.72872 0
M  V30 2842 H 260.917 0.0108006 3.72898 0
M  V30 2843 N 263.102 -1.41638 0.69111 0
M  V30 2844 C 264.348 -2.02104 0.229258 0
M  V30 2845 C 264.703 -1.53741 -1.15678 0
M  V30 2846 O 263.996 -0.736849 -1.76865 0
M  V30 2847 C 264.19 -3.56714 0.221277 0
M  V30 2848 C 264.019 -4.20083 1.605 0
M  V30 2849 C 262.789 -4.54566 2.20676 0
M  V30 2850 C 264.987 -4.46587 2.55078 0
M  V30 2851 N 262.969 -5.03199 3.5166 0
M  V30 2852 C 264.34 -4.96946 3.70735 0
M  V30 2853 C 266.395 -4.28593 2.53401 0
M  V30 2854 C 265.098 -5.31203 4.8499 0
M  V30 2855 C 267.124 -4.63936 3.66765 0
M  V30 2856 C 266.486 -5.14463 4.81152 0
M  V30 2857 H 262.585 -0.771256 0.12918 0
M  V30 2858 H 265.169 -1.72251 0.907626 0
M  V30 2859 H 263.34 -3.86051 -0.426562 0
M  V30 2860 H 265.072 -4.03896 -0.254983 0
M  V30 2861 H 261.827 -4.4087 1.73005 0
M  V30 2862 H 262.251 -5.31926 4.18789 0
M  V30 2863 H 266.893 -3.88771 1.66184 0
M  V30 2864 H 264.611 -5.69951 5.72871 0
M  V30 2865 H 268.197 -4.51677 3.66714 0
M  V30 2866 H 267.077 -5.41299 5.67419 0
M  V30 2867 N 264.58 -0.43555 -1.51462 0
M  V30 2868 C 265.991 0.0279871 -1.86679 0
M  V30 2869 C 266.342 1.42104 -1.35281 0
M  V30 2870 O 265.467 2.04667 -0.702878 0
M  V30 2871 C 266.062 0.0575626 -3.38751 0
M  V30 2872 C 264.621 0.465507 -3.7351 0
M  V30 2873 C 263.768 -0.342996 -2.75171 0
M  V30 2874 H 266.719 -0.651473 -1.44712 0
M  V30 2875 H 266.74 0.867421 -3.70481 0
M  V30 2876 H 266.252 -0.956448 -3.7613 0
M  V30 2877 H 264.353 1.48519 -3.41721 0
M  V30 2878 H 264.466 0.191546 -4.78717 0
M  V30 2879 H 262.83 0.198442 -2.53926 0
M  V30 2880 H 263.613 -1.35585 -3.15391 0
M  V30 2881 N 266.058 1.56714 -0.166846 0
M  V30 2882 C 266.988 2.20754 0.760913 0
M  V30 2883 C 267.969 1.16178 1.24244 0
M  V30 2884 O 269.154 1.44592 1.29641 0
M  V30 2885 C 266.284 2.84478 1.99223 0
M  V30 2886 C 265.238 3.95053 1.64672 0
M  V30 2887 C 264.564 4.45805 2.95232 0
M  V30 2888 C 265.864 5.14865 0.878155 0
M  V30 2889 H 267.558 2.98537 0.22713 0
M  V30 2890 H 265.104 1.43596 0.107805 0
M  V30 2891 H 267.057 3.27951 2.64624 0
M  V30 2892 H 265.781 2.04056 2.55007 0
M  V30 2893 H 264.44 3.52228 1.01641 0
M  V30 2894 H 264.088 3.62181 3.49047 0
M  V30 2895 H 263.788 5.204 2.7287 0
M  V30 2896 H 265.312 4.91962 3.6167 0
M  V30 2897 H 266.726 5.55059 1.43466 0
M  V30 2898 H 265.123 5.95348 0.753738 0
M  V30 2899 H 266.193 4.84735 -0.126377 0
M  V30 2900 N 267.536 -0.106894 1.57237 0
M  V30 2901 C 268.499 -1.11466 2.0027 0
M  V30 2902 C 269.499 -1.33623 0.894519 0
M  V30 2903 O 270.689 -1.29935 1.16028 0
M  V30 2904 C 267.821 -2.46646 2.35327 0
M  V30 2905 H 269.014 -0.744516 2.90512 0
M  V30 2906 H 266.567 -0.351576 1.52295 0
M  V30 2907 H 267.302 -2.88558 1.48003 0
M  V30 2908 H 267.087 -2.31915 3.16161 0
M  V30 2909 H 268.577 -3.19151 2.69318 0
M  V30 2910 N 269.014 -1.53014 -0.377408 0
M  V30 2911 C 269.947 -1.73382 -1.48371 0
M  V30 2912 C 270.925 -0.581879 -1.51832 0
M  V30 2913 O 272.109 -0.81307 -1.70063 0
M  V30 2914 C 269.236 -1.80192 -2.8679 0
M  V30 2915 C 268.282 -3.02056 -3.01105 0
M  V30 2916 S 269.115 -4.61811 -2.71093 0
M  V30 2917 C 270.271 -4.71453 -4.11683 0
M  V30 2918 H 270.504 -2.66946 -1.30872 0
M  V30 2919 H 268.037 -1.43453 -0.571012 0
M  V30 2920 H 269.995 -1.84802 -3.6655 0
M  V30 2921 H 268.656 -0.877008 -3.01608 0
M  V30 2922 H 267.849 -3.03396 -4.02451 0
M  V30 2923 H 267.451 -2.95498 -2.29253 0
M  V30 2924 H 269.743 -4.50781 -5.0577 0
M  V30 2925 H 270.686 -5.73487 -4.15353 0
M  V30 2926 H 271.094 -4.00189 -3.98132 0
M  V30 2927 N 270.492 0.636531 -1.44174 0
M  V30 2928 C 271.425 1.76139 -1.45087 0
M  V30 2929 C 272.403 1.59611 -0.310326 0
M  V30 2930 O 273.587 1.81568 -0.506477 0
M  V30 2931 C 270.714 3.13648 -1.27839 0
M  V30 2932 C 269.76 3.48838 -2.45386 0
M  V30 2933 S 270.593 3.46927 -4.07924 0
M  V30 2934 C 271.749 4.87064 -3.9309 0
M  V30 2935 H 271.982 1.75096 -2.40268 0
M  V30 2936 H 269.515 0.810666 -1.31406 0
M  V30 2937 H 271.473 3.93002 -1.18575 0
M  V30 2938 H 270.134 3.12235 -0.341787 0
M  V30 2939 H 269.327 4.48886 -2.29167 0
M  V30 2940 H 268.929 2.76935 -2.51362 0
M  V30 2941 H 271.221 5.76153 -3.56446 0
M  V30 2942 H 272.164 5.08337 -4.92949 0
M  V30 2943 H 272.572 4.61384 -3.25246 0
M  V30 2944 N 271.97 1.30982 0.876444 0
M  V30 2945 C 273.216 1.21484 1.63136 0
M  V30 2946 C 273.571 -0.226339 1.91064 0
M  V30 2947 O 272.864 -1.15788 1.52656 0
M  V30 2948 C 273.058 1.98572 2.9716 0
M  V30 2949 C 272.887 3.50039 2.82317 0
M  V30 2950 C 271.657 4.19393 2.81847 0
M  V30 2951 C 273.855 4.45111 2.57644 0
M  V30 2952 N 271.837 5.57061 2.57985 0
M  V30 2953 C 273.208 5.70402 2.42986 0
M  V30 2954 C 275.263 4.3461 2.42937 0
M  V30 2955 C 273.966 6.8638 2.15115 0
M  V30 2956 C 275.992 5.50365 2.16454 0
M  V30 2957 C 275.354 6.74642 2.02578 0
M  V30 2958 H 271.453 0.499632 0.601575 0
M  V30 2959 H 274.037 1.65094 1.03209 0
M  V30 2960 H 272.208 1.5734 3.55104 0
M  V30 2961 H 273.94 1.81146 3.61895 0
M  V30 2962 H 270.695 3.71303 2.93991 0
M  V30 2963 H 271.119 6.29529 2.49043 0
M  V30 2964 H 275.761 3.39199 2.52396 0
M  V30 2965 H 273.479 7.81824 2.04394 0
M  V30 2966 H 277.065 5.44154 2.05884 0
M  V30 2967 H 275.945 7.62699 1.82374 0
M  V30 2968 N 273.449 -1.08991 1.13837 0
M  V30 2969 C 274.696 -1.81258 0.902882 0
M  V30 2970 C 275.024 -1.85936 -0.570803 0
M  V30 2971 O 274.279 -1.3267 -1.43865 0
M  V30 2972 C 274.578 -3.27042 1.44147 0
M  V30 2973 C 274.244 -3.4249 2.93276 0
M  V30 2974 C 272.906 -3.46414 3.33992 0
M  V30 2975 C 275.258 -3.4666 3.892 0
M  V30 2976 C 272.586 -3.52091 4.69307 0
M  V30 2977 C 274.938 -3.53872 5.24364 0
M  V30 2978 C 273.602 -3.56066 5.646 0
M  V30 2979 H 272.872 -0.663268 0.330388 0
M  V30 2980 H 275.519 -1.28368 1.42105 0
M  V30 2981 H 273.824 -3.82599 0.844097 0
M  V30 2982 H 275.521 -3.81499 1.23528 0
M  V30 2983 H 272.111 -3.40124 2.60794 0
M  V30 2984 H 276.295 -3.42865 3.58828 0
M  V30 2985 H 271.551 -3.52079 4.9985 0
M  V30 2986 H 275.725 -3.56043 5.98503 0
M  V30 2987 H 273.352 -3.60218 6.69438 0
M  V30 2988 N 274.927 -0.932562 -1.27047 0
M  V30 2989 C 276.176 -0.571351 -1.93439 0
M  V30 2990 C 276.489 0.892467 -1.74053 0
M  V30 2991 O 277.695 1.36267 -2.34826 0
M  V30 2992 C 276.151 -0.97106 -3.46552 0
M  V30 2993 C 275.759 -2.4559 -3.74686 0
M  V30 2994 C 277.503 -0.681333 -4.18997 0
M  V30 2995 C 275.41 -2.79475 -5.21198 0
M  V30 2996 H 274.34 -0.209966 -0.724176 0
M  V30 2997 H 276.991 -1.13403 -1.44263 0
M  V30 2998 H 275.373 -0.336983 -3.94564 0
M  V30 2999 H 276.547 -3.13829 -3.37414 0
M  V30 3000 H 274.862 -2.71802 -3.15456 0
M  V30 3001 H 277.459 -0.910939 -5.26883 0
M  V30 3002 H 277.802 0.381628 -4.14547 0
M  V30 3003 H 278.335 -1.27473 -3.76823 0
M  V30 3004 H 275.074 -3.847 -5.30741 0
M  V30 3005 H 274.594 -2.1589 -5.596 0
M  V30 3006 H 276.273 -2.67478 -5.89122 0
M  V30 3007 N 276.405 1.4127 -0.698611 0
M  V30 3008 C 277.63 2.06024 -0.238512 0
M  V30 3009 C 278.055 1.5224 1.10475 0
M  V30 3010 O 277.413 0.650623 1.69223 0
M  V30 3011 C 277.461 3.59988 -0.209952 0
M  V30 3012 O 276.565 4.04282 0.814235 0
M  V30 3013 H 275.906 0.653829 -0.115775 0
M  V30 3014 H 278.436 1.8098 -0.954326 0
M  V30 3015 H 278.446 4.07979 -0.0418436 0
M  V30 3016 H 277.121 3.98503 -1.1903 0
M  V30 3017 H 275.698 3.6779 0.615234 0
M  V30 3018 N 277.883 0.443576 1.51229 0
M  V30 3019 C 279.111 -0.11929 2.06556 0
M  V30 3020 C 279.526 -1.35921 1.31038 0
M  V30 3021 O 278.883 -1.78675 0.371704 0
M  V30 3022 C 278.934 -0.435228 3.5887 0
M  V30 3023 O 278.655 0.755486 4.31537 0
M  V30 3024 C 280.156 -1.04808 4.30732 0
M  V30 3025 H 277.376 -0.0051584 0.67098 0
M  V30 3026 H 279.92 0.624453 1.94733 0
M  V30 3027 H 278.075 -1.12887 3.70588 0
M  V30 3028 H 278.489 0.483491 5.22267 0
M  V30 3029 H 279.963 -1.2191 5.3837 0
M  V30 3030 H 280.44 -2.03081 3.89429 0
M  V30 3031 H 281.046 -0.393637 4.23474 0
M  V30 3032 N 279.361 -1.56624 0.175154 0
M  V30 3033 C 280.291 -2.21155 -0.749195 0
M  V30 3034 C 281.272 -1.16836 -1.23626 0
M  V30 3035 O 282.457 -1.45277 -1.28873 0
M  V30 3036 C 279.587 -2.8553 -1.97711 0
M  V30 3037 C 278.541 -3.95921 -1.62575 0
M  V30 3038 C 277.867 -4.47365 -2.92864 0
M  V30 3039 C 279.167 -5.15323 -0.850838 0
M  V30 3040 H 280.861 -2.98653 -0.211295 0
M  V30 3041 H 278.407 -1.43651 -0.100188 0
M  V30 3042 H 280.36 -3.2935 -2.62881 0
M  V30 3043 H 279.084 -2.05406 -2.53921 0
M  V30 3044 H 277.743 -3.52762 -0.997719 0
M  V30 3045 H 277.391 -3.64027 -3.47122 0
M  V30 3046 H 277.091 -5.21839 -2.70106 0
M  V30 3047 H 278.615 -4.93873 -3.59056 0
M  V30 3048 H 280.029 -5.55812 -1.40521 0
M  V30 3049 H 278.426 -5.95739 -0.722154 0
M  V30 3050 H 279.496 -4.84661 0.152082 0
M  V30 3051 N 280.839 0.0985539 -1.57292 0
M  V30 3052 C 281.802 1.10402 -2.00858 0
M  V30 3053 C 282.802 1.33146 -0.901593 0
M  V30 3054 O 283.992 1.29318 -1.16716 0
M  V30 3055 C 281.124 2.45394 -2.36632 0
M  V30 3056 H 282.317 0.729099 -2.90902 0
M  V30 3057 H 279.87 0.343495 -1.52479 0
M  V30 3058 H 280.605 2.87769 -1.49531 0
M  V30 3059 H 280.39 2.30235 -3.17387 0
M  V30 3060 H 281.88 3.17718 -2.71007 0
M  V30 3061 N 282.317 1.53212 0.369288 0
M  V30 3062 C 283.227 1.82342 1.47609 0
M  V30 3063 C 284.243 0.711532 1.58787 0
M  V30 3064 O 285.419 1.0012 1.74751 0
M  V30 3065 C 282.484 2.00393 2.8292 0
M  V30 3066 C 281.545 3.24297 2.81301 0
M  V30 3067 C 280.778 3.41478 4.10157 0
M  V30 3068 O 281.001 2.63033 5.06132 0
M  V30 3069 O 279.935 4.34817 4.16194 0
M  V30 3070 H 283.761 2.76366 1.25918 0
M  V30 3071 H 281.346 1.38547 0.559034 0
M  V30 3072 H 283.228 2.13859 3.63101 0
M  V30 3073 H 281.903 1.09559 3.04596 0
M  V30 3074 H 280.81 3.16257 1.99831 0
M  V30 3075 H 282.143 4.15041 2.64578 0
M  V30 3076 N 283.795 -0.628877 1.44509 0
M  V30 3077 C 285.023 -1.41554 1.50897 0
M  V30 3078 C 285.438 -1.8832 0.134564 0
M  V30 3079 O 284.795 -1.60969 -0.859965 0
M  V30 3080 C 284.846 -2.63435 2.47556 0
M  V30 3081 O 284.567 -2.18619 3.79654 0
M  V30 3082 C 286.068 -3.56537 2.63431 0
M  V30 3083 H 283.288 -0.434044 0.511709 0
M  V30 3084 H 285.832 -0.768895 1.89495 0
M  V30 3085 H 283.987 -3.24187 2.12089 0
M  V30 3086 H 284.401 -2.97652 4.31861 0
M  V30 3087 H 285.875 -4.38657 3.35088 0
M  V30 3088 H 286.352 -4.05493 1.68738 0
M  V30 3089 H 286.958 -3.01653 2.9981 0
M  V30 3090 N 285.273 -1.31445 -0.869486 0
M  V30 3091 C 286.221 -1.19067 -1.99814 0
M  V30 3092 C 287.215 -0.0988569 -1.69111 0
M  V30 3093 O 288.421 -0.260781 -1.78101 0
M  V30 3094 H 284.796 -0.368677 -0.655425 0
M  V30 3095 H 286.767 -2.14555 -2.07385 0
M  V30 3096 C 285.516 -0.915323 -3.35436 0
M  V30 3097 H 284.839 -1.74759 -3.59582 0
M  V30 3098 H 286.279 -0.868895 -4.15001 0
M  V30 3099 C 284.738 0.381928 -3.34728 0
M  V30 3100 O 285.268 1.39857 -3.76567 0
M  V30 3101 N 283.474 0.398633 -2.87853 0
M  V30 3102 H 283.021 -0.429186 -2.54 0
M  V30 3103 H 282.979 1.26651 -2.87762 0
M  V30 3104 N 286.751 1.08385 -1.14413 0
M  V30 3105 C 288.167 1.32844 -0.884563 0
M  V30 3106 C 288.367 1.95841 0.474181 0
M  V30 3107 O 287.423 2.21158 1.21842 0
M  V30 3108 C 288.736 2.22978 -2.01745 0
M  V30 3109 C 290.284 2.36458 -2.05077 0
M  V30 3110 C 290.759 3.29934 -3.1766 0
M  V30 3111 N 292.25 3.37511 -3.17239 0
M  V30 3112 C 292.985 4.09871 -4.0099 0
M  V30 3113 N 292.481 4.84936 -4.94781 0
M  V30 3114 N 294.274 4.05704 -3.89051 0
M  V30 3115 H 286.425 0.658756 -2.01926 0
M  V30 3116 H 288.688 0.352821 -0.879899 0
M  V30 3117 H 288.394 1.83934 -2.99769 0
M  V30 3118 H 288.268 3.23441 -1.94077 0
M  V30 3119 H 290.655 2.7476 -1.0766 0
M  V30 3120 H 290.736 1.35736 -2.16816 0
M  V30 3121 H 290.38 2.92352 -4.15322 0
M  V30 3122 H 290.31 4.30584 -3.03158 0
M  V30 3123 H 292.801 2.83996 -2.49308 0
M  V30 3124 H 293.114 5.37612 -5.55151 0
M  V30 3125 H 291.459 4.83988 -4.98779 0
M  V30 3126 H 294.65 3.46167 -3.15097 0
M  V30 3127 H 294.823 4.61834 -4.54547 0
M  V30 3128 N 288.23 0.939286 1.26551 0
M  V30 3129 C 289.458 0.602536 1.97932 0
M  V30 3130 C 289.873 -0.82206 1.69964 0
M  V30 3131 O 289.23 -1.54789 0.966784 0
M  V30 3132 C 289.281 0.832946 3.51773 0
M  V30 3133 O 289.002 2.20151 3.78768 0
M  V30 3134 C 290.503 0.506483 4.40397 0
M  V30 3135 H 287.723 0.227248 0.631347 0
M  V30 3136 H 290.267 1.25948 1.61113 0
M  V30 3137 H 288.422 0.222644 3.8676 0
M  V30 3138 H 288.836 2.26013 4.73306 0
M  V30 3139 H 290.31 0.718333 5.47306 0
M  V30 3140 H 290.787 -0.558451 4.35635 0
M  V30 3141 H 291.393 1.09543 4.10951 0
M  V30 3142 N 289.708 -1.40897 0.706093 0
M  V30 3143 C 291.119 -1.84023 0.315052 0
M  V30 3144 C 291.47 -1.5906 -1.14866 0
M  V30 3145 O 290.595 -1.06651 -1.88293 0
M  V30 3146 C 291.19 -3.34055 0.565038 0
M  V30 3147 C 289.749 -3.7571 0.227806 0
M  V30 3148 C 288.896 -2.64204 0.842122 0
M  V30 3149 H 291.847 -1.303 0.905963 0
M  V30 3150 H 291.868 -3.80107 -0.172843 0
M  V30 3151 H 291.38 -3.52192 1.63042 0
M  V30 3152 H 289.481 -3.63172 -0.832895 0
M  V30 3153 H 289.594 -4.74103 0.690174 0
M  V30 3154 H 287.958 -2.53255 0.270893 0
M  V30 3155 H 288.741 -2.85155 1.91158 0
M  V30 3156 N 291.186 -0.45159 -1.50991 0
M  V30 3157 C 292.433 0.110074 -2.02201 0
M  V30 3158 C 292.761 1.4146 -1.33489 0
M  V30 3159 O 292.016 1.90617 -0.443125 0
M  V30 3160 C 292.315 0.361728 -3.55565 0
M  V30 3161 C 291.981 -0.858717 -4.42648 0
M  V30 3162 C 290.643 -1.19338 -4.66167 0
M  V30 3163 C 292.995 -1.67221 -4.93646 0
M  V30 3164 C 290.323 -2.34195 -5.37931 0
M  V30 3165 C 292.675 -2.8119 -5.6667 0
M  V30 3166 C 291.339 -3.15094 -5.88449 0
M  V30 3167 H 290.609 0.040279 -0.739904 0
M  V30 3168 H 293.256 -0.601696 -1.81802 0
M  V30 3169 H 291.561 1.15554 -3.74372 0
M  V30 3170 H 293.258 0.80996 -3.92735 0
M  V30 3171 H 289.848 -0.58796 -4.24548 0
M  V30 3172 H 294.032 -1.42686 -4.75347 0
M  V30 3173 H 289.288 -2.6076 -5.53005 0
M  V30 3174 H 293.462 -3.44585 -6.05173 0
M  V30 3175 H 291.089 -4.04204 -6.43835 0
M  V30 3176 N 292.664 1.56529 -0.183458 0
M  V30 3177 C 293.941 1.88959 0.50536 0
M  V30 3178 C 294.321 1.09523 1.80466 0
M  V30 3179 O 293.669 0.19278 2.27685 0
M  V30 3180 C 293.879 3.41162 0.73547 0
M  V30 3181 C 295.227 4.11155 1.06005 0
M  V30 3182 O 296.251 3.46548 0.823594 0
M  V30 3183 O 295.11 5.25318 1.50675 0
M  V30 3184 H 292.204 0.78441 0.261973 0
M  V30 3185 H 294.75 1.68231 -0.222802 0
M  V30 3186 H 293.522 3.90874 -0.182561 0
M  V30 3187 H 293.145 3.67543 1.51651 0
M  V30 3188 N 294.142 -0.090211 1.57342 0
M  V30 3189 C 295.072 -1.10976 2.05443 0
M  V30 3190 C 296.053 -1.41482 0.944284 0
M  V30 3191 O 297.238 -1.51428 1.21586 0
M  V30 3192 C 294.368 -2.42831 2.48295 0
M  V30 3193 C 293.322 -2.26721 3.63018 0
M  V30 3194 C 292.648 -3.63796 3.91863 0
M  V30 3195 C 293.948 -1.7037 4.93732 0
M  V30 3196 H 295.642 -0.709564 2.9087 0
M  V30 3197 H 293.188 -0.339874 1.39932 0
M  V30 3198 H 295.141 -3.14431 2.80555 0
M  V30 3199 H 293.865 -2.84795 1.59873 0
M  V30 3200 H 292.524 -1.57565 3.31012 0
M  V30 3201 H 292.172 -4.03297 3.00601 0
M  V30 3202 H 291.872 -3.53861 4.69101 0
M  V30 3203 H 293.396 -4.36855 4.26603 0
M  V30 3204 H 294.81 -2.31816 5.24342 0
M  V30 3205 H 293.207 -1.71181 5.75167 0
M  V30 3206 H 294.277 -0.663542 4.80339 0
M  V30 3207 N 295.62 -1.53406 -0.361157 0
M  V30 3208 C 296.583 -1.79479 -1.42548 0
M  V30 3209 C 297.583 -0.665327 -1.4639 0
M  V30 3210 O 298.773 -0.933549 -1.47073 0
M  V30 3211 C 295.905 -1.92087 -2.8163 0
M  V30 3212 H 297.098 -2.74538 -1.20701 0
M  V30 3213 H 294.651 -1.4455 -0.594546 0
M  V30 3214 H 295.386 -0.991099 -3.08784 0
M  V30 3215 H 295.171 -2.74241 -2.80239 0
M  V30 3216 H 296.661 -2.13836 -3.58697 0
M  V30 3217 N 297.098 0.621204 -1.44841 0
M  V30 3218 C 298.008 1.7612 -1.5498 0
M  V30 3219 C 299.024 1.68477 -0.434927 0
M  V30 3220 O 300.2 1.89076 -0.693693 0
M  V30 3221 C 297.265 3.1254 -1.50065 0
M  V30 3222 C 296.326 3.31741 -2.72482 0
M  V30 3223 C 295.559 4.61653 -2.67792 0
M  V30 3224 O 295.782 5.431 -1.74352 0
M  V30 3225 O 294.716 4.83271 -3.58794 0
M  V30 3226 H 298.542 1.70518 -2.51311 0
M  V30 3227 H 296.127 0.783643 -1.27198 0
M  V30 3228 H 298.009 3.93844 -1.49882 0
M  V30 3229 H 296.684 3.18663 -0.568806 0
M  V30 3230 H 295.591 2.50077 -2.7823 0
M  V30 3231 H 296.924 3.30486 -3.64746 0
M  V30 3232 N 298.576 1.31904 0.862503 0
M  V30 3233 C 299.824 1.21776 1.61292 0
M  V30 3234 C 300.145 -0.222413 1.93727 0
M  V30 3235 O 299.415 -1.1451 1.58947 0
M  V30 3236 H 297.995 0.447717 0.597962 0
M  V30 3237 H 300.657 1.65326 1.03215 0
M  V30 3238 H 299.753 1.7948 2.5533 0
M  V30 3239 N 300.054 -1.07777 1.14986 0
M  V30 3240 C 300.964 -2.18404 0.856546 0
M  V30 3241 C 301.98 -1.73211 -0.165485 0
M  V30 3242 O 303.156 -2.01399 0.00755219 0
M  V30 3243 C 300.221 -3.44977 0.34526 0
M  V30 3244 C 299.282 -4.0476 1.43065 0
M  V30 3245 C 298.515 -5.25291 0.943663 0
M  V30 3246 O 298.738 -5.70004 -0.212426 0
M  V30 3247 O 297.672 -5.76638 1.72547 0
M  V30 3248 H 301.498 -2.45978 1.78125 0
M  V30 3249 H 299.083 -1.17033 0.928631 0
M  V30 3250 H 300.965 -4.21348 0.0663671 0
M  V30 3251 H 299.64 -3.18965 -0.551631 0
M  V30 3252 H 298.547 -3.29949 1.76309 0
M  V30 3253 H 299.88 -4.35035 2.30229 0
M  V30 3254 N 301.532 -0.945985 -1.26051 0
M  V30 3255 C 302.757 -0.612525 -1.98149 0
M  V30 3256 C 303.182 0.806623 -1.69927 0
M  V30 3257 O 302.54 1.54411 -0.950108 0
M  V30 3258 C 302.588 -0.866981 -3.50023 0
M  V30 3259 O 301.692 0.0585333 -4.12358 0
M  V30 3260 H 301.033 -0.23379 -0.621481 0
M  V30 3261 H 303.563 -1.27023 -1.60395 0
M  V30 3262 H 303.573 -0.789792 -4.00283 0
M  V30 3263 H 302.248 -1.90135 -3.69894 0
M  V30 3264 H 300.825 -0.0701241 -3.72834 0
M  V30 3265 N 303.011 1.40521 -0.713556 0
M  V30 3266 C 303.921 2.34522 -0.0606667 0
M  V30 3267 C 304.937 1.57193 0.74607 0
M  V30 3268 O 306.113 1.89591 0.679493 0
M  V30 3269 C 303.178 3.36081 0.851491 0
M  V30 3270 C 302.239 4.29286 0.0349339 0
M  V30 3271 C 301.472 5.25994 0.903649 0
M  V30 3272 O 301.695 5.28616 2.14292 0
M  V30 3273 O 300.629 6.00918 0.343723 0
M  V30 3274 H 304.455 2.91968 -0.835972 0
M  V30 3275 H 302.04 1.41681 -0.47402 0
M  V30 3276 H 303.922 3.98369 1.37404 0
M  V30 3277 H 302.597 2.81052 1.60598 0
M  V30 3278 H 301.504 3.70289 -0.532633 0
M  V30 3279 H 302.837 4.87462 -0.681287 0
M  V30 3280 N 304.489 0.459591 1.5075 0
M  V30 3281 C 305.419 -0.330644 2.31147 0
M  V30 3282 C 306.4 -1.00087 1.37538 0
M  V30 3283 O 307.585 -1.00025 1.66459 0
M  V30 3284 C 304.715 -1.41958 3.16962 0
M  V30 3285 C 303.669 -0.871608 4.19031 0
M  V30 3286 C 302.995 -2.05797 4.9351 0
M  V30 3287 C 304.295 0.109251 5.22186 0
M  V30 3288 H 305.989 0.340336 2.97459 0
M  V30 3289 H 303.535 0.165119 1.4305 0
M  V30 3290 H 305.488 -1.9798 3.71997 0
M  V30 3291 H 304.212 -2.11917 2.48513 0
M  V30 3292 H 302.871 -0.333442 3.6508 0
M  V30 3293 H 302.519 -2.74427 4.21544 0
M  V30 3294 H 302.219 -1.6976 5.62544 0
M  V30 3295 H 303.743 -2.62331 5.51375 0
M  V30 3296 H 305.157 -0.361405 5.7216 0
M  V30 3297 H 303.554 0.383316 5.98875 0
M  V30 3298 H 304.624 1.03887 4.73641 0
M  V30 3299 N 305.967 -1.56429 0.191757 0
M  V30 3300 C 307.213 -1.97777 -0.448554 0
M  V30 3301 C 307.546 -1.07847 -1.61501 0
M  V30 3302 O 306.821 -0.129774 -1.94067 0
M  V30 3303 C 307.104 -3.48362 -0.911906 0
M  V30 3304 C 306.957 -4.4907 0.256136 0
M  V30 3305 C 308.276 -4.02561 -1.77857 0
M  V30 3306 H 305.395 -0.719071 -0.161572 0
M  V30 3307 H 308.037 -1.87896 0.282007 0
M  V30 3308 H 306.187 -3.56914 -1.53442 0
M  V30 3309 H 307.859 -4.5256 0.893733 0
M  V30 3310 H 306.102 -4.24181 0.908436 0
M  V30 3311 H 306.773 -5.51889 -0.11053 0
M  V30 3312 H 309.249 -3.96767 -1.25359 0
M  V30 3313 H 308.125 -5.08301 -2.07174 0
M  V30 3314 H 308.386 -3.47616 -2.73158 0
M  V30 3315 N 307.445 0.0818655 -1.57387 0
M  V30 3316 C 308.67 0.799946 -1.91352 0
M  V30 3317 C 309.095 1.70833 -0.787258 0
M  V30 3318 O 308.453 1.79419 0.26048 0
M  V30 3319 C 308.501 1.57812 -3.24234 0
M  V30 3320 O 307.605 2.68806 -3.12757 0
M  V30 3321 H 306.946 0.21891 -0.626877 0
M  V30 3322 H 309.476 0.0531256 -2.04531 0
M  V30 3323 H 309.486 1.95952 -3.57864 0
M  V30 3324 H 308.161 0.911548 -4.05788 0
M  V30 3325 H 306.738 2.33597 -2.90666 0
M  V30 3326 N 308.923 1.53595 0.353017 0
M  V30 3327 C 310.171 1.70049 1.09215 0
M  V30 3328 C 310.492 0.461406 1.89463 0
M  V30 3329 O 309.762 -0.524633 1.88744 0
M  V30 3330 H 308.342 0.626912 0.40619 0
M  V30 3331 H 311.004 1.90822 0.396585 0
M  V30 3332 H 310.1 2.56718 1.77488 0
M  V30 3333 N 310.401 -0.613514 1.45168 0
M  V30 3334 C 311.648 -1.37268 1.48875 0
M  V30 3335 C 311.976 -1.94077 0.128161 0
M  V30 3336 O 311.231 -1.75178 -0.872416 0
M  V30 3337 C 311.53 -2.54347 2.51083 0
M  V30 3338 C 311.196 -2.1572 3.95949 0
M  V30 3339 C 309.858 -2.04899 4.35396 0
M  V30 3340 C 312.21 -1.85485 4.87078 0
M  V30 3341 C 309.538 -1.62057 5.63875 0
M  V30 3342 C 311.89 -1.4413 6.15962 0
M  V30 3343 C 310.554 -1.31863 6.54346 0
M  V30 3344 H 309.824 -0.502299 0.544773 0
M  V30 3345 H 312.471 -0.694021 1.78481 0
M  V30 3346 H 310.776 -3.27524 2.15024 0
M  V30 3347 H 312.473 -3.12577 2.51191 0
M  V30 3348 H 309.063 -2.25066 3.64751 0
M  V30 3349 H 313.247 -1.92745 4.57343 0
M  V30 3350 H 308.503 -1.51177 5.92415 0
M  V30 3351 H 312.677 -1.19778 6.86022 0
M  V30 3352 H 310.304 -0.984392 7.538 0
M  V30 3353 N 311.879 -1.3236 -0.855495 0
M  V30 3354 C 312.827 -1.2118 -1.9854 0
M  V30 3355 C 313.821 -0.116788 -1.68997 0
M  V30 3356 O 315.027 -0.279657 -1.77814 0
M  V30 3357 H 311.402 -0.375608 -0.651477 0
M  V30 3358 H 313.373 -2.16743 -2.05098 0
M  V30 3359 C 312.122 -0.950849 -3.34446 0
M  V30 3360 H 311.445 -1.78563 -3.57708 0
M  V30 3361 H 312.885 -0.912863 -4.14057 0
M  V30 3362 C 311.344 0.346404 -3.35114 0
M  V30 3363 O 311.874 1.35855 -3.7803 0
M  V30 3364 N 310.08 0.36808 -2.88259 0
M  V30 3365 H 309.627 -0.456102 -2.5353 0
M  V30 3366 H 309.585 1.23591 -2.89089 0
M  V30 3367 N 313.357 1.07166 -1.15556 0
M  V30 3368 C 314.606 1.79181 -0.926132 0
M  V30 3369 C 314.919 1.87768 0.547967 0
M  V30 3370 O 316.125 2.56323 0.895036 0
M  V30 3371 C 314.581 3.22 -1.60761 0
M  V30 3372 C 314.189 3.21607 -3.11886 0
M  V30 3373 C 315.933 3.9861 -1.4598 0
M  V30 3374 C 313.84 4.59092 -3.72812 0
M  V30 3375 H 312.77 0.67154 -0.342856 0
M  V30 3376 H 315.421 1.2027 -1.3859 0
M  V30 3377 H 313.803 3.81115 -1.07553 0
M  V30 3378 H 314.977 2.72127 -3.71865 0
M  V30 3379 H 313.292 2.58495 -3.2645 0
M  V30 3380 H 315.889 5.00225 -1.88888 0
M  V30 3381 H 316.232 4.143 -0.407541 0
M  V30 3382 H 316.765 3.45996 -1.96295 0
M  V30 3383 H 313.504 4.48606 -4.77946 0
M  V30 3384 H 313.024 5.08803 -3.17616 0
M  V30 3385 H 314.703 5.28059 -3.73848 0
M  V30 3386 N 314.835 0.952656 1.25548 0
M  V30 3387 C 315.745 0.47782 2.29682 0
M  V30 3388 C 316.761 -0.453859 1.67977 0
M  V30 3389 O 317.937 -0.330587 1.98668 0
M  V30 3390 C 315.002 -0.238655 3.45878 0
M  V30 3391 C 314.063 0.730994 4.23031 0
M  V30 3392 C 313.296 0.0486165 5.33678 0
M  V30 3393 O 313.519 -1.16612 5.58353 0
M  V30 3394 O 312.453 0.733152 5.97418 0
M  V30 3395 H 316.279 1.34312 2.72386 0
M  V30 3396 H 313.864 0.719026 1.30959 0
M  V30 3397 H 315.746 -0.641774 4.16484 0
M  V30 3398 H 314.421 -1.07916 3.05181 0
M  V30 3399 H 313.328 1.18428 3.5486 0
M  V30 3400 H 314.661 1.53946 4.67506 0
M  V30 3401 N 316.313 -1.40141 0.720998 0
M  V30 3402 C 317.543 -2.04798 0.27226 0
M  V30 3403 C 317.951 -1.54442 -1.09289 0
M  V30 3404 O 317.294 -0.698342 -1.69908 0
M  V30 3405 C 317.356 -3.59048 0.18027 0
M  V30 3406 C 317.02 -4.32317 1.48159 0
M  V30 3407 C 318.017 -4.59902 2.42458 0
M  V30 3408 C 315.702 -4.71125 1.74202 0
M  V30 3409 C 317.696 -5.25288 3.61042 0
M  V30 3410 C 315.383 -5.36242 2.93066 0
M  V30 3411 C 316.381 -5.63254 3.86308 0
M  V30 3412 O 316.069 -6.27024 5.03086 0
M  V30 3413 H 315.801 -0.665419 0.119139 0
M  V30 3414 H 318.355 -1.80436 0.981432 0
M  V30 3415 H 316.585 -3.82251 -0.58489 0
M  V30 3416 H 318.274 -4.05221 -0.234618 0
M  V30 3417 H 319.04 -4.30379 2.23604 0
M  V30 3418 H 314.919 -4.49466 1.02477 0
M  V30 3419 H 318.463 -5.46289 4.33837 0
M  V30 3420 H 314.36 -5.65185 3.11826 0
M  V30 3421 H 315.128 -6.4552 5.03235 0
M  V30 3422 N 317.792 -0.46758 -1.50504 0
M  V30 3423 C 318.755 0.317059 -2.26996 0
M  V30 3424 C 319.755 0.923513 -1.31635 0
M  V30 3425 O 320.945 0.793239 -1.55091 0
M  V30 3426 C 318.077 1.45134 -3.08462 0
M  V30 3427 H 319.27 -0.353723 -2.97807 0
M  V30 3428 H 316.823 -0.221545 -1.54722 0
M  V30 3429 H 317.558 2.15728 -2.4214 0
M  V30 3430 H 317.343 1.02232 -3.78538 0
M  V30 3431 H 318.833 2.00493 -3.66323 0
M  V30 3432 N 319.27 1.56325 -0.20005 0
M  V30 3433 C 320.233 2.18084 0.705132 0
M  V30 3434 C 321.233 1.13666 1.1374 0
M  V30 3435 O 322.423 1.39023 1.04968 0
M  V30 3436 C 319.555 2.78689 1.96329 0
M  V30 3437 H 320.748 2.99435 0.167023 0
M  V30 3438 H 318.301 1.56221 0.0495725 0
M  V30 3439 H 319.036 2.0115 2.5438 0
M  V30 3440 H 318.821 3.55133 1.66202 0
M  V30 3441 H 320.311 3.26096 2.60866 0
M  V30 3442 N 320.748 -0.0735177 1.57428 0
M  V30 3443 C 321.996 -0.771472 1.86796 0
M  V30 3444 C 322.317 -1.78201 0.791804 0
M  V30 3445 O 321.587 -1.95074 -0.179718 0
M  V30 3446 H 320.167 -0.28791 0.689287 0
M  V30 3447 H 322.829 -0.0500161 1.94836 0
M  V30 3448 H 321.925 -1.28874 2.8425 0
M  V30 3449 N 322.226 -1.5378 -0.344866 0
M  V30 3450 C 323.637 -1.62428 -0.920552 0
M  V30 3451 C 323.988 -0.504747 -1.89596 0
M  V30 3452 O 323.113 0.365711 -2.13287 0
M  V30 3453 C 323.708 -2.94419 -1.67639 0
M  V30 3454 C 322.267 -3.05333 -2.20111 0
M  V30 3455 C 321.414 -2.57866 -1.01982 0
M  V30 3456 H 324.365 -1.58222 -0.123042 0
M  V30 3457 H 324.386 -2.83384 -2.53917 0
M  V30 3458 H 323.898 -3.7588 -0.966224 0
M  V30 3459 H 321.999 -2.28502 -2.94308 0
M  V30 3460 H 322.112 -4.10778 -2.46573 0
M  V30 3461 H 320.476 -2.13241 -1.39285 0
M  V30 3462 H 321.259 -3.41765 -0.324308 0
M  V30 3463 N 323.704 0.605807 -1.45491 0
M  V30 3464 C 324.951 1.36476 -1.49601 0
M  V30 3465 C 325.279 1.94007 -0.138452 0
M  V30 3466 O 324.534 1.75638 0.863114 0
M  V30 3467 C 324.833 2.53012 -2.52428 0
M  V30 3468 C 324.499 2.13617 -3.97087 0
M  V30 3469 C 323.161 2.02587 -4.36477 0
M  V30 3470 C 325.513 1.82899 -4.88055 0
M  V30 3471 C 322.841 1.59064 -5.64726 0
M  V30 3472 C 325.193 1.40861 -6.16718 0
M  V30 3473 C 323.857 1.28391 -6.55036 0
M  V30 3474 H 323.127 0.499402 -0.547429 0
M  V30 3475 H 325.774 0.684546 -1.78847 0
M  V30 3476 H 324.079 3.26379 -2.16758 0
M  V30 3477 H 325.776 3.1124 -2.52845 0
M  V30 3478 H 322.366 2.23129 -3.65939 0
M  V30 3479 H 326.55 1.90317 -4.58359 0
M  V30 3480 H 321.806 1.48034 -5.93208 0
M  V30 3481 H 325.98 1.16138 -6.86648 0
M  V30 3482 H 323.607 0.944403 -7.54311 0
M  V30 3483 N 325.182 1.32811 0.848464 0
M  V30 3484 C 326.145 1.22194 1.9391 0
M  V30 3485 C 327.145 0.143404 1.60159 0
M  V30 3486 O 328.335 0.394253 1.6968 0
M  V30 3487 C 325.467 0.88067 3.29328 0
M  V30 3488 H 326.66 2.19127 2.04752 0
M  V30 3489 H 324.213 1.16731 1.0394 0
M  V30 3490 H 324.948 -0.0865776 3.24184 0
M  V30 3491 H 324.733 1.66052 3.55203 0
M  V30 3492 H 326.223 0.830871 4.09251 0
M  V30 3493 N 326.66 -1.06551 1.16123 0
M  V30 3494 C 327.59 -2.15935 0.88851 0
M  V30 3495 C 328.571 -1.69306 -0.164135 0
M  V30 3496 O 329.756 -1.94193 -0.0167857 0
M  V30 3497 C 326.886 -3.45149 0.385942 0
M  V30 3498 C 325.84 -4.05271 1.3762 0
M  V30 3499 C 325.166 -5.29664 0.732137 0
M  V30 3500 C 326.466 -4.44355 2.74493 0
M  V30 3501 H 328.16 -2.39006 1.80323 0
M  V30 3502 H 325.706 -1.14866 0.868435 0
M  V30 3503 H 327.659 -4.21004 0.182647 0
M  V30 3504 H 326.383 -3.21689 -0.564274 0
M  V30 3505 H 325.042 -3.3147 1.56599 0
M  V30 3506 H 324.69 -5.02499 -0.224483 0
M  V30 3507 H 324.39 -5.70848 1.39307 0
M  V30 3508 H 325.914 -6.08218 0.538802 0
M  V30 3509 H 327.328 -5.11303 2.59311 0
M  V30 3510 H 325.725 -4.96515 3.37035 0
M  V30 3511 H 326.795 -3.55339 3.29943 0
M  V30 3512 N 328.138 -0.959301 -1.25041 0
M  V30 3513 C 329.385 -0.616611 -1.92884 0
M  V30 3514 C 329.713 0.847036 -1.75087 0
M  V30 3515 O 328.968 1.62374 -1.09239 0
M  V30 3516 C 329.267 -0.927136 -3.45165 0
M  V30 3517 C 328.933 -2.37757 -3.83122 0
M  V30 3518 C 327.595 -2.77402 -3.93194 0
M  V30 3519 C 329.947 -3.31929 -4.01836 0
M  V30 3520 C 327.275 -4.10277 -4.19392 0
M  V30 3521 C 329.627 -4.64423 -4.29528 0
M  V30 3522 C 328.291 -5.03857 -4.37818 0
M  V30 3523 H 327.561 -0.225634 -0.705812 0
M  V30 3524 H 330.208 -1.20921 -1.48493 0
M  V30 3525 H 328.513 -0.252195 -3.90987 0
M  V30 3526 H 330.21 -0.6405 -3.95852 0
M  V30 3527 H 326.8 -2.06013 -3.75841 0
M  V30 3528 H 330.984 -3.02488 -3.93465 0
M  V30 3529 H 326.24 -4.40467 -4.24027 0
M  V30 3530 H 330.414 -5.37369 -4.42953 0
M  V30 3531 H 328.041 -6.06843 -4.57871 0
M  V30 3532 N 329.616 1.39756 -0.72842 0
M  V30 3533 C 330.863 2.00645 -0.273487 0
M  V30 3534 C 331.191 1.57786 1.13727 0
M  V30 3535 O 330.446 0.794886 1.7883 0
M  V30 3536 C 330.745 3.56002 -0.315776 0
M  V30 3537 C 330.411 4.18489 -1.67863 0
M  V30 3538 C 329.073 4.3527 -2.05166 0
M  V30 3539 C 331.425 4.53219 -2.57375 0
M  V30 3540 C 328.753 4.84069 -3.31503 0
M  V30 3541 C 331.105 5.03423 -3.83077 0
M  V30 3542 C 329.769 5.18413 -4.20481 0
M  V30 3543 H 329.039 0.734211 -0.100076 0
M  V30 3544 H 331.686 1.6718 -0.933972 0
M  V30 3545 H 329.991 3.89452 0.428285 0
M  V30 3546 H 331.688 4.00963 0.0542575 0
M  V30 3547 H 328.278 4.05824 -1.37858 0
M  V30 3548 H 332.462 4.39878 -2.29827 0
M  V30 3549 H 327.718 4.93859 -3.60435 0
M  V30 3550 H 331.892 5.2927 -4.52599 0
M  V30 3551 H 329.519 5.55987 -5.18443 0
M  V30 3552 N 331.094 0.475555 1.50254 0
M  V30 3553 C 332.027 -0.362381 2.25304 0
M  V30 3554 C 333.005 -0.992393 1.28803 0
M  V30 3555 O 334.189 -1.02746 1.58036 0
M  V30 3556 C 331.316 -1.50813 3.03271 0
M  V30 3557 C 330.362 -0.995044 4.1473 0
M  V30 3558 S 331.195 0.0938436 5.35418 0
M  V30 3559 C 332.351 -1.05567 6.16933 0
M  V30 3560 H 332.584 0.274686 2.96028 0
M  V30 3561 H 330.117 0.260495 1.52187 0
M  V30 3562 H 332.075 -2.16476 3.48781 0
M  V30 3563 H 330.736 -2.11672 2.32064 0
M  V30 3564 H 329.929 -1.85293 4.68703 0
M  V30 3565 H 329.531 -0.416052 3.71679 0
M  V30 3566 H 331.823 -1.96636 6.48337 0
M  V30 3567 H 332.766 -0.555109 7.05921 0
M  V30 3568 H 333.174 -1.31151 5.49053 0
M  V30 3569 N 332.573 -1.56217 0.208337 0
M  V30 3570 C 333.536 -2.18455 -0.693557 0
M  V30 3571 C 334.536 -1.14268 -1.13135 0
M  V30 3572 O 335.726 -1.39577 -1.0423 0
M  V30 3573 C 332.858 -2.79727 -1.94848 0
M  V30 3574 H 334.051 -2.99519 -0.15114 0
M  V30 3575 H 331.604 -1.56245 -0.041287 0
M  V30 3576 H 332.339 -2.02497 -2.53309 0
M  V30 3577 H 332.124 -3.56009 -1.64316 0
M  V30 3578 H 333.614 -3.27475 -2.59133 0
M  V30 3579 N 334.051 0.0651679 -1.57465 0
M  V30 3580 C 334.961 1.09448 -2.07505 0
M  V30 3581 C 335.977 1.41974 -1.00595 0
M  V30 3582 O 337.153 1.52018 -1.32107 0
M  V30 3583 C 334.218 2.38689 -2.51453 0
M  V30 3584 C 333.279 2.13073 -3.72691 0
M  V30 3585 C 332.512 3.36152 -4.14533 0
M  V30 3586 O 332.735 4.45517 -3.56189 0
M  V30 3587 O 331.669 3.23974 -5.07272 0
M  V30 3588 H 335.495 0.69935 -2.95538 0
M  V30 3589 H 333.08 0.279752 -1.46757 0
M  V30 3590 H 334.962 3.14736 -2.80212 0
M  V30 3591 H 333.637 2.77568 -1.66546 0
M  V30 3592 H 332.544 1.34709 -3.49005 0
M  V30 3593 H 333.877 1.79071 -4.5847 0
M  V30 3594 N 335.529 1.53961 0.336706 0
M  V30 3595 C 336.759 1.75229 1.09446 0
M  V30 3596 C 337.167 0.494602 1.82621 0
M  V30 3597 O 336.51 -0.543764 1.75468 0
M  V30 3598 C 336.572 2.88288 2.1478 0
M  V30 3599 C 336.236 4.27656 1.6112 0
M  V30 3600 C 337.233 5.08981 1.0599 0
M  V30 3601 C 334.918 4.74161 1.6576 0
M  V30 3602 C 336.912 6.34916 0.562129 0
M  V30 3603 C 334.599 6.00067 1.15595 0
M  V30 3604 C 335.597 6.80278 0.609147 0
M  V30 3605 O 335.285 8.03818 0.114999 0
M  V30 3606 H 335.017 0.588881 0.331956 0
M  V30 3607 H 337.571 2.01614 0.392566 0
M  V30 3608 H 335.801 2.57443 2.88548 0
M  V30 3609 H 337.49 2.97461 2.76174 0
M  V30 3610 H 338.256 4.74213 1.01722 0
M  V30 3611 H 334.135 4.11781 2.07261 0
M  V30 3612 H 337.679 6.9747 0.134668 0
M  V30 3613 H 333.576 6.3433 1.19566 0
M  V30 3614 H 334.344 8.18172 0.231651 0
M  V30 3615 N 337.007 -0.598083 1.45811 0
M  V30 3616 C 338.235 -1.38322 1.53866 0
M  V30 3617 C 338.65 -1.87992 0.174479 0
M  V30 3618 O 338.007 -1.62756 -0.825627 0
M  V30 3619 C 338.058 -2.58125 2.53089 0
M  V30 3620 O 337.779 -2.10516 3.84206 0
M  V30 3621 C 339.28 -3.50869 2.70935 0
M  V30 3622 H 336.5 -0.423093 0.520801 0
M  V30 3623 H 339.044 -0.728527 1.91083 0
M  V30 3624 H 337.199 -3.19615 2.18917 0
M  V30 3625 H 337.613 -2.88425 4.38077 0
M  V30 3626 H 339.087 -4.31451 3.44317 0
M  V30 3627 H 339.564 -4.01822 1.77301 0
M  V30 3628 H 340.17 -2.95225 3.06141 0
M  V30 3629 N 338.485 -1.33259 -0.841409 0
M  V30 3630 C 339.433 -1.23279 -1.97244 0
M  V30 3631 C 340.427 -0.134706 -1.68864 0
M  V30 3632 O 341.633 -0.298501 -1.77508 0
M  V30 3633 H 338.008 -0.382497 -0.647457 0
M  V30 3634 H 339.979 -2.18906 -2.02787 0
M  V30 3635 C 338.728 -0.986268 -3.33419 0
M  V30 3636 H 338.051 -1.82347 -3.55794 0
M  V30 3637 H 339.491 -0.956728 -4.13065 0
M  V30 3638 C 337.95 0.310842 -3.35463 0
M  V30 3639 O 338.48 1.31838 -3.79449 0
M  V30 3640 N 336.686 0.337485 -2.88634 0
M  V30 3641 H 336.233 -0.482967 -2.53032 0
M  V30 3642 H 336.191 1.20518 -2.90384 0
M  V30 3643 N 339.963 1.05934 -1.16686 0
M  V30 3644 C 341.212 1.78188 -0.945085 0
M  V30 3645 C 341.525 1.88338 0.528021 0
M  V30 3646 O 342.731 2.57258 0.867799 0
M  V30 3647 C 341.187 3.20277 -1.64167 0
M  V30 3648 C 340.795 3.18281 -3.15279 0
M  V30 3649 C 342.539 3.97039 -1.502 0
M  V30 3650 C 340.446 4.55112 -3.7766 0
M  V30 3651 H 339.376 0.667866 -0.349959 0
M  V30 3652 H 342.027 1.18794 -1.39858 0
M  V30 3653 H 340.409 3.79952 -1.11589 0
M  V30 3654 H 341.583 2.68167 -3.74731 0
M  V30 3655 H 339.898 2.55018 -3.29173 0
M  V30 3656 H 342.495 4.98194 -1.94183 0
M  V30 3657 H 342.838 4.13845 -0.451461 0
M  V30 3658 H 343.371 3.43894 -1.99954 0
M  V30 3659 H 340.11 4.43512 -4.82677 0
M  V30 3660 H 339.63 5.05406 -3.22994 0
M  V30 3661 H 341.309 5.24064 -3.79428 0
M  V30 3662 N 341.441 0.965919 1.2453 0
M  V30 3663 C 342.69 0.622437 1.91856 0
M  V30 3664 C 343.003 -0.846006 1.76358 0
M  V30 3665 O 344.209 -1.29993 2.38357 0
M  V30 3666 C 342.665 1.0626 3.43856 0
M  V30 3667 C 342.273 2.55437 3.68043 0
M  V30 3668 C 344.017 0.792183 4.17043 0
M  V30 3669 C 341.924 2.93196 5.13605 0
M  V30 3670 H 340.854 0.229092 0.718354 0
M  V30 3671 H 343.505 1.17189 1.41206 0
M  V30 3672 H 341.887 0.441476 3.93531 0
M  V30 3673 H 343.061 3.22665 3.28974 0
M  V30 3674 H 341.376 2.8007 3.08139 0
M  V30 3675 H 343.973 1.05031 5.24283 0
M  V30 3676 H 344.316 -0.271584 4.15413 0
M  V30 3677 H 344.849 1.37419 3.73311 0
M  V30 3678 H 341.588 3.98636 5.20355 0
M  V30 3679 H 341.108 2.30651 5.53679 0
M  V30 3680 H 342.787 2.83004 5.81823 0
M  V30 3681 N 342.919 -1.39368 0.735821 0
M  V30 3682 C 343.852 -2.28155 0.0451175 0
M  V30 3683 C 344.83 -1.44433 -0.746852 0
M  V30 3684 O 346.014 -1.73823 -0.729237 0
M  V30 3685 C 343.141 -3.253 -0.943266 0
M  V30 3686 C 342.187 -4.25826 -0.239685 0
M  V30 3687 S 343.02 -5.25166 1.04693 0
M  V30 3688 C 344.176 -6.2587 0.0611639 0
M  V30 3689 H 344.409 -2.86388 0.79807 0
M  V30 3690 H 341.942 -1.45104 0.527653 0
M  V30 3691 H 343.9 -3.81789 -1.50824 0
M  V30 3692 H 342.561 -2.66085 -1.66906 0
M  V30 3693 H 341.754 -4.94229 -0.987596 0
M  V30 3694 H 341.356 -3.73141 0.253274 0
M  V30 3695 H 343.648 -6.73007 -0.778941 0
M  V30 3696 H 344.591 -7.04508 0.712362 0
M  V30 3697 H 344.999 -5.63639 -0.311602 0
M  V30 3698 N 344.397 -0.483516 -1.5 0
M  V30 3699 C 345.33 0.350427 -2.25493 0
M  V30 3700 C 346.308 0.985549 -1.29328 0
M  V30 3701 O 347.492 1.01906 -1.58579 0
M  V30 3702 C 344.619 1.49202 -3.04066 0
M  V30 3703 C 343.665 0.973036 -4.15252 0
M  V30 3704 S 344.498 -0.122237 -5.3536 0
M  V30 3705 C 345.654 1.02294 -6.17484 0
M  V30 3706 H 345.887 -0.290381 -2.95878 0
M  V30 3707 H 343.42 -0.268562 -1.52046 0
M  V30 3708 H 345.378 2.14623 -3.49925 0
M  V30 3709 H 344.039 2.10438 -2.33183 0
M  V30 3710 H 343.232 1.82804 -4.69679 0
M  V30 3711 H 342.834 0.396335 -3.71894 0
M  V30 3712 H 345.126 1.93195 -6.49371 0
M  V30 3713 H 346.069 0.517664 -7.06205 0
M  V30 3714 H 346.477 1.28238 -5.49741 0
M  V30 3715 N 345.875 1.56104 -0.216619 0
M  V30 3716 C 346.823 2.21434 0.712036 0
M  V30 3717 C 347.817 1.19218 1.20348 0
M  V30 3718 O 349.023 1.3731 1.16387 0
M  V30 3719 H 345.398 0.70992 0.248026 0
M  V30 3720 H 347.369 2.98083 0.137558 0
M  V30 3721 C 346.118 2.90434 1.91163 0
M  V30 3722 H 345.441 3.68842 1.54258 0
M  V30 3723 H 346.881 3.39552 2.5393 0
M  V30 3724 C 345.34 1.92635 2.76394 0
M  V30 3725 O 345.87 1.44017 3.74996 0
M  V30 3726 N 344.076 1.60392 2.42328 0
M  V30 3727 H 343.623 2.00122 1.622 0
M  V30 3728 H 343.581 0.952159 2.99635 0
M  V30 3729 N 347.353 -0.0568162 1.57498 0
M  V30 3730 C 348.581 -0.765626 1.92213 0
M  V30 3731 C 348.996 -1.70353 0.813961 0
M  V30 3732 O 348.353 -1.81268 -0.211701 0
M  V30 3733 C 348.404 -1.5465 3.2675 0
M  V30 3734 O 348.125 -0.646278 4.33307 0
M  V30 3735 C 349.626 -2.35497 3.75574 0
M  V30 3736 H 346.846 -0.216835 0.634999 0
M  V30 3737 H 349.39 -0.0226146 2.04487 0
M  V30 3738 H 347.545 -2.24165 3.15957 0
M  V30 3739 H 347.959 -1.19093 5.108 0
M  V30 3740 H 349.433 -2.85722 4.72299 0
M  V30 3741 H 349.91 -3.15692 3.05344 0
M  V30 3742 H 350.516 -1.7111 3.8936 0
M  V30 3743 N 348.832 -1.54138 -0.328536 0
M  V30 3744 C 349.762 -1.86167 -1.40939 0
M  V30 3745 C 350.743 -0.718044 -1.54202 0
M  V30 3746 O 351.928 -0.971328 -1.68163 0
M  V30 3747 C 349.058 -2.08461 -2.77779 0
M  V30 3748 C 348.012 -3.24299 -2.7931 0
M  V30 3749 C 347.338 -3.31955 -4.19178 0
M  V30 3750 C 348.638 -4.62065 -2.43502 0
M  V30 3751 H 350.332 -2.76689 -1.14383 0
M  V30 3752 H 347.878 -1.33132 -0.548806 0
M  V30 3753 H 349.831 -2.29453 -3.53454 0
M  V30 3754 H 348.555 -1.14684 -3.05802 0
M  V30 3755 H 347.214 -3.03187 -2.0609 0
M  V30 3756 H 346.862 -2.35745 -4.44335 0
M  V30 3757 H 346.562 -4.09805 -4.2111 0
M  V30 3758 H 348.086 -3.55175 -4.96672 0
M  V30 3759 H 349.5 -4.8297 -3.08889 0
M  V30 3760 H 347.897 -5.42429 -2.56693 0
M  V30 3761 H 348.967 -4.64652 -1.38659 0
M  V30 3762 N 350.31 0.590341 -1.46126 0
M  V30 3763 C 351.538 1.37504 -1.54597 0
M  V30 3764 C 351.953 1.87897 -0.184447 0
M  V30 3765 O 351.31 1.63192 0.816984 0
M  V30 3766 C 351.361 2.56779 -2.54454 0
M  V30 3767 O 351.082 2.08476 -3.85317 0
M  V30 3768 C 352.583 3.49427 -2.72792 0
M  V30 3769 H 349.803 0.420325 -0.523037 0
M  V30 3770 H 352.347 0.718383 -1.91467 0
M  V30 3771 H 350.502 3.1845 -2.20609 0
M  V30 3772 H 350.916 2.86097 -4.396 0
M  V30 3773 H 352.39 4.29619 -3.466 0
M  V30 3774 H 352.867 4.00876 -1.79429 0
M  V30 3775 H 353.473 2.93598 -3.07702 0
M  V30 3776 N 351.788 1.33704 0.83433 0
M  V30 3777 C 353.016 1.28467 1.62185 0
M  V30 3778 C 353.431 -0.143526 1.88254 0
M  V30 3779 O 352.788 -1.08709 1.4659 0
M  V30 3780 C 352.839 2.06174 2.96942 0
M  V30 3781 O 352.56 3.43422 2.72016 0
M  V30 3782 C 354.061 2.08201 3.91366 0
M  V30 3783 H 351.281 0.4424 0.504503 0
M  V30 3784 H 353.825 1.76145 1.03891 0
M  V30 3785 H 351.98 1.62167 3.51825 0
M  V30 3786 H 352.394 3.83453 3.57861 0
M  V30 3787 H 353.868 2.67017 4.83121 0
M  V30 3788 H 354.345 1.07343 4.2588 0
M  V30 3789 H 354.951 2.52246 3.42421 0
M  V30 3790 N 353.266 -1.05314 1.17247 0
M  V30 3791 C 354.494 -1.81971 0.984593 0
M  V30 3792 C 354.909 -1.82929 -0.467166 0
M  V30 3793 O 354.266 -1.25564 -1.32438 0
M  V30 3794 C 354.317 -3.28143 1.51672 0
M  V30 3795 O 354.038 -3.27347 2.91163 0
M  V30 3796 C 355.539 -4.21493 1.37326 0
M  V30 3797 H 352.759 -0.573455 0.348411 0
M  V30 3798 H 355.303 -1.32808 1.55506 0
M  V30 3799 H 353.458 -3.74582 0.988302 0
M  V30 3800 H 353.872 -4.18824 3.15732 0
M  V30 3801 H 355.346 -5.22043 1.79375 0
M  V30 3802 H 355.823 -4.38031 0.320169 0
M  V30 3803 H 356.429 -3.80909 1.89178 0
M  V30 3804 N 354.744 -0.972509 -1.24016 0
M  V30 3805 C 355.993 -0.632603 -1.91523 0
M  V30 3806 C 356.306 0.836641 -1.76804 0
M  V30 3807 O 357.512 1.28728 -2.39043 0
M  V30 3808 C 355.968 -1.08082 -3.43287 0
M  V30 3809 C 355.576 -2.57386 -3.66683 0
M  V30 3810 C 357.32 -0.814288 -4.16617 0
M  V30 3811 C 355.227 -2.95915 -5.12043 0
M  V30 3812 H 354.157 -0.232898 -0.717129 0
M  V30 3813 H 356.808 -1.17936 -1.40582 0
M  V30 3814 H 355.19 -0.462339 -3.93292 0
M  V30 3815 H 356.364 -3.24405 -3.27258 0
M  V30 3816 H 354.679 -2.81701 -3.06649 0
M  V30 3817 H 357.276 -1.0781 -5.23718 0
M  V30 3818 H 357.619 0.24955 -4.15551 0
M  V30 3819 H 358.152 -1.39397 -3.72577 0
M  V30 3820 H 354.891 -4.0139 -5.18234 0
M  V30 3821 H 354.411 -2.33584 -5.52448 0
M  V30 3822 H 356.09 -2.86086 -5.80314 0
M  V30 3823 N 356.222 1.38976 -0.743202 0
M  V30 3824 C 357.469 2.00343 -0.294752 0
M  V30 3825 C 357.797 1.58983 1.12047 0
M  V30 3826 O 357.052 0.813809 1.77977 0
M  V30 3827 C 357.351 3.55647 -0.353517 0
M  V30 3828 C 357.017 4.16685 -1.72292 0
M  V30 3829 C 355.679 4.3307 -2.09771 0
M  V30 3830 C 358.031 4.50464 -2.62168 0
M  V30 3831 C 355.359 4.80526 -3.36618 0
M  V30 3832 C 357.711 4.99332 -3.88395 0
M  V30 3833 C 356.375 5.13924 -4.25956 0
M  V30 3834 H 355.645 0.733108 -0.107857 0
M  V30 3835 H 358.292 1.6618 -0.951651 0
M  V30 3836 H 356.597 3.89884 0.386954 0
M  V30 3837 H 358.294 4.00998 0.0117269 0
M  V30 3838 H 354.884 4.04339 -1.42155 0
M  V30 3839 H 359.068 4.37416 -2.3448 0
M  V30 3840 H 354.324 4.90008 -3.65653 0
M  V30 3841 H 358.498 5.2444 -4.58187 0
M  V30 3842 H 356.125 5.50457 -5.2431 0
M  V30 3843 N 357.7 0.491464 1.49741 0
M  V30 3844 C 358.63 -0.28154 2.31796 0
M  V30 3845 C 359.611 -0.971473 1.3963 0
M  V30 3846 O 360.796 -0.964719 1.68543 0
M  V30 3847 C 357.926 -1.35203 3.19902 0
M  V30 3848 C 356.88 -0.782529 4.20786 0
M  V30 3849 C 356.206 -1.95283 4.97764 0
M  V30 3850 C 357.506 0.21999 5.21837 0
M  V30 3851 H 359.2 0.403355 2.96671 0
M  V30 3852 H 356.746 0.195425 1.42668 0
M  V30 3853 H 358.699 -1.90045 3.76113 0
M  V30 3854 H 357.423 -2.06598 2.52953 0
M  V30 3855 H 356.082 -0.255928 3.65706 0
M  V30 3856 H 355.73 -2.65423 4.2727 0
M  V30 3857 H 355.43 -1.57789 5.66018 0
M  V30 3858 H 356.954 -2.50577 5.56816 0
M  V30 3859 H 358.368 -0.23996 5.72798 0
M  V30 3860 H 356.765 0.51026 5.97927 0
M  V30 3861 H 357.835 1.13911 4.7133 0
M  V30 3862 N 359.178 -1.55987 0.224894 0
M  V30 3863 C 360.426 -1.97998 -0.405099 0
M  V30 3864 C 360.747 -1.11387 -1.60056 0
M  V30 3865 O 360.017 -0.191645 -1.9496 0
M  V30 3866 H 358.597 -0.731235 -0.152658 0
M  V30 3867 H 361.259 -1.92279 0.318567 0
M  V30 3868 H 360.355 -3.03463 -0.729167 0
M  V30 3869 N 360.656 0.0484629 -1.57525 0
M  V30 3870 C 361.884 0.755421 -1.92616 0
M  V30 3871 C 362.299 1.69919 -0.822984 0
M  V30 3872 O 361.656 1.81378 0.202085 0
M  V30 3873 C 361.707 1.52915 -3.27566 0
M  V30 3874 O 361.428 0.62329 -4.33644 0
M  V30 3875 C 362.929 2.33502 -3.76818 0
M  V30 3876 H 360.149 0.213465 -0.63614 0
M  V30 3877 H 362.693 0.0117698 -2.04497 0
M  V30 3878 H 360.848 2.22486 -3.17142 0
M  V30 3879 H 361.262 1.16383 -5.11425 0
M  V30 3880 H 362.736 2.83214 -4.73808 0
M  V30 3881 H 363.213 3.14068 -3.07014 0
M  V30 3882 H 363.819 1.69043 -3.90262 0
M  V30 3883 N 362.134 1.5431 0.320358 0
M  V30 3884 C 363.362 1.76636 1.07738 0
M  V30 3885 C 363.777 0.51649 1.81598 0
M  V30 3886 O 363.134 -0.512942 1.75143 0
M  V30 3887 C 363.185 2.96158 2.07299 0
M  V30 3888 O 362.906 4.16313 1.36438 0
M  V30 3889 C 364.407 3.3072 2.95193 0
M  V30 3890 H 361.627 0.589597 0.320339 0
M  V30 3891 H 364.171 2.01207 0.36551 0
M  V30 3892 H 362.326 2.73851 2.74016 0
M  V30 3893 H 362.74 4.83565 2.03138 0
M  V30 3894 H 364.214 4.17643 3.60941 0
M  V30 3895 H 364.691 2.48026 3.62463 0
M  V30 3896 H 365.297 3.55117 2.34034 0
M  V30 3897 N 363.613 -0.582584 1.46437 0
M  V30 3898 C 364.843 -1.36484 1.55099 0
M  V30 3899 C 365.251 -1.88233 0.191056 0
M  V30 3900 O 364.594 -1.6429 -0.821858 0
M  V30 3901 C 364.656 -2.588 2.49525 0
M  V30 3902 C 364.32 -2.28517 3.95764 0
M  V30 3903 C 365.317 -1.87346 4.84972 0
M  V30 3904 C 363.002 -2.40658 4.40896 0
M  V30 3905 C 364.996 -1.5871 6.17325 0
M  V30 3906 C 362.683 -2.11635 5.73284 0
M  V30 3907 C 363.681 -1.70725 6.61318 0
M  V30 3908 O 363.369 -1.42057 7.91249 0
M  V30 3909 H 363.101 -0.423297 0.527063 0
M  V30 3910 H 365.655 -0.715188 1.92547 0
M  V30 3911 H 363.885 -3.26571 2.07095 0
M  V30 3912 H 365.574 -3.20868 2.48593 0
M  V30 3913 H 366.34 -1.77481 4.5136 0
M  V30 3914 H 362.219 -2.71463 3.72598 0
M  V30 3915 H 365.763 -1.26704 6.85997 0
M  V30 3916 H 361.66 -2.21124 6.06444 0
M  V30 3917 H 362.428 -1.55901 8.03515 0
M  V30 3918 N 365.091 -1.34144 -0.827227 0
M  V30 3919 C 366.368 -1.16844 -1.56865 0
M  V30 3920 C 366.748 0.260654 -2.09485 0
M  V30 3921 O 366.096 1.26138 -1.9053 0
M  V30 3922 C 366.306 -2.21939 -2.6934 0
M  V30 3923 C 367.654 -2.56695 -3.3822 0
M  V30 3924 O 368.678 -2.20695 -2.79593 0
M  V30 3925 O 367.537 -3.18518 -4.44082 0
M  V30 3926 H 364.631 -0.452669 -0.692112 0
M  V30 3927 H 367.177 -1.45763 -0.868973 0
M  V30 3928 H 365.949 -3.17882 -2.28182 0
M  V30 3929 H 365.572 -1.94172 -3.46962 0
M  V30 3930 N 366.569 1.04691 -1.17803 0
M  V30 3931 C 367.532 2.10724 -0.901545 0
M  V30 3932 C 368.532 1.6042 0.110437 0
M  V30 3933 O 369.722 1.7377 -0.122303 0
M  V30 3934 C 366.854 3.39084 -0.351409 0
M  V30 3935 H 368.047 2.36686 -1.84174 0
M  V30 3936 H 365.6 1.21015 -0.98919 0
M  V30 3937 H 366.335 3.18782 0.59569 0
M  V30 3938 H 366.12 3.76909 -1.08083 0
M  V30 3939 H 367.61 4.17227 -0.176451 0
M  V30 3940 N 368.047 0.979072 1.23499 0
M  V30 3941 C 368.977 0.537606 2.27227 0
M  V30 3942 C 369.958 -0.428539 1.64613 0
M  V30 3943 O 371.143 -0.322191 1.91509 0
M  V30 3944 C 368.273 -0.162052 3.46922 0
M  V30 3945 C 367.227 0.721242 4.21879 0
M  V30 3946 C 366.553 -0.110555 5.34586 0
M  V30 3947 C 367.853 2.01141 4.82016 0
M  V30 3948 H 369.547 1.40462 2.64406 0
M  V30 3949 H 367.093 0.67684 1.27102 0
M  V30 3950 H 369.046 -0.482192 4.18632 0
M  V30 3951 H 367.77 -1.06351 3.08799 0
M  V30 3952 H 366.429 1.02482 3.51984 0
M  V30 3953 H 366.077 -1.0125 4.92704 0
M  V30 3954 H 365.777 0.477325 5.85658 0
M  V30 3955 H 367.301 -0.425107 6.09118 0
M  V30 3956 H 368.715 1.75612 5.45741 0
M  V30 3957 H 367.112 2.54695 5.43369 0
M  V30 3958 H 368.182 2.69909 4.02836 0
M  V30 3959 N 369.525 -1.3858 0.750561 0
M  V30 3960 C 370.75 -2.04997 0.314812 0
M  V30 3961 C 371.175 -1.56235 -1.04749 0
M  V30 3962 O 370.533 -0.712981 -1.66692 0
M  V30 3963 C 370.581 -3.58961 0.343415 0
M  V30 3964 O 369.685 -4.07025 -0.663628 0
M  V30 3965 H 369.026 -0.649081 0.139962 0
M  V30 3966 H 371.556 -1.77313 1.02084 0
M  V30 3967 H 371.566 -4.07542 0.193233 0
M  V30 3968 H 370.241 -3.93811 1.33738 0
M  V30 3969 H 368.818 -3.6982 -0.478307 0
M  V30 3970 N 371.003 -0.499398 -1.49478 0
M  V30 3971 C 372.414 -0.051215 -1.8663 0
M  V30 3972 C 372.765 1.36238 -1.41186 0
M  V30 3973 O 371.89 2.01502 -0.789051 0
M  V30 3974 C 372.485 -0.0861651 -3.3869 0
M  V30 3975 C 371.044 0.30667 -3.75149 0
M  V30 3976 C 370.191 -0.459397 -2.73468 0
M  V30 3977 H 373.142 -0.712264 -1.41818 0
M  V30 3978 H 373.163 0.709507 -3.73826 0
M  V30 3979 H 372.675 -1.11512 -3.71735 0
M  V30 3980 H 370.776 1.33892 -3.47712 0
M  V30 3981 H 370.889 -0.0116669 -4.79099 0
M  V30 3982 H 369.253 0.0905645 -2.54539 0
M  V30 3983 H 370.036 -1.4884 -3.09357 0
M  V30 3984 N 372.481 1.55866 -0.233164 0
M  V30 3985 C 373.391 2.24431 0.683217 0
M  V30 3986 C 374.407 1.2558 1.2044 0
M  V30 3987 O 375.583 1.58422 1.24356 0
M  V30 3988 C 372.648 2.91979 1.86947 0
M  V30 3989 C 371.709 4.06204 1.38912 0
M  V30 3990 C 370.942 4.70522 2.51883 0
M  V30 3991 O 371.165 4.33865 3.70293 0
M  V30 3992 O 370.099 5.59296 2.22423 0
M  V30 3993 H 373.925 3.03426 0.129059 0
M  V30 3994 H 371.51 1.494 -0.0022283 0
M  V30 3995 H 373.392 3.34573 2.56201 0
M  V30 3996 H 372.067 2.15935 2.41151 0
M  V30 3997 H 370.974 3.68155 0.664259 0
M  V30 3998 H 372.307 4.84025 0.893328 0
M  V30 3999 N 373.959 -0.0401083 1.57549 0
M  V30 4000 C 374.889 -1.04384 2.08869 0
M  V30 4001 C 375.87 -1.38407 0.988817 0
M  V30 4002 O 377.055 -1.47483 1.26342 0
M  V30 4003 C 374.185 -2.34808 2.55895 0
M  V30 4004 C 373.139 -2.15057 3.70047 0
M  V30 4005 C 372.465 -3.51145 4.03239 0
M  V30 4006 C 373.765 -1.54576 4.98902 0
M  V30 4007 H 375.459 -0.616666 2.92981 0
M  V30 4008 H 373.005 -0.295184 1.40942 0
M  V30 4009 H 374.958 -3.05346 2.90417 0
M  V30 4010 H 373.682 -2.79565 1.68853 0
M  V30 4011 H 372.341 -1.46954 3.35857 0
M  V30 4012 H 371.989 -3.93529 3.13279 0
M  V30 4013 H 371.689 -3.38758 4.80122 0
M  V30 4014 H 373.213 -4.23062 4.40285 0
M  V30 4015 H 374.627 -2.15017 5.31451 0
M  V30 4016 H 373.024 -1.52796 5.80322 0
M  V30 4017 H 374.094 -0.51039 4.82206 0
M  V30 4018 N 375.437 -1.54477 -0.31217 0
M  V30 4019 C 376.667 -1.76948 -1.06645 0
M  V30 4020 C 377.075 -0.523593 -1.81811 0
M  V30 4021 O 376.418 0.51578 -1.76311 0
M  V30 4022 C 376.48 -2.91668 -2.10166 0
M  V30 4023 C 376.144 -4.30165 -1.54296 0
M  V30 4024 C 377.141 -5.10603 -0.978793 0
M  V30 4025 C 374.826 -4.76738 -1.58196 0
M  V30 4026 C 376.82 -6.3573 -0.461048 0
M  V30 4027 C 374.507 -6.01831 -1.06034 0
M  V30 4028 C 375.505 -6.81161 -0.500844 0
M  V30 4029 O 375.193 -8.03899 0.0128958 0
M  V30 4030 H 374.925 -0.594088 -0.322546 0
M  V30 4031 H 377.479 -2.02213 -0.360441 0
M  V30 4032 H 375.709 -2.62001 -2.84416 0
M  V30 4033 H 377.398 -3.01817 -2.71406 0
M  V30 4034 H 378.164 -4.75771 -0.941651 0
M  V30 4035 H 374.043 -4.15027 -2.00683 0
M  V30 4036 H 377.587 -6.97596 -0.0236894 0
M  V30 4037 H 373.484 -6.36152 -1.09459 0
M  V30 4038 H 374.252 -8.18437 -0.101457 0
M  V30 4039 N 376.915 0.57481 -1.46744 0
M  V30 4040 C 378.143 1.35856 -1.56047 0
M  V30 4041 C 378.558 1.87691 -0.204365 0
M  V30 4042 O 377.915 1.64049 0.79963 0
M  V30 4043 C 377.966 2.54066 -2.57163 0
M  V30 4044 O 377.687 2.04377 -3.87507 0
M  V30 4045 C 379.188 3.46514 -2.76483 0
M  V30 4046 H 376.408 0.414754 -0.527466 0
M  V30 4047 H 378.952 0.698035 -1.92218 0
M  V30 4048 H 377.107 3.16092 -2.23974 0
M  V30 4049 H 377.521 2.81419 -4.4261 0
M  V30 4050 H 378.995 4.25919 -3.51137 0
M  V30 4051 H 379.472 3.98951 -1.83671 0
M  V30 4052 H 380.078 2.90318 -3.10799 0
M  V30 4053 N 378.394 1.34581 0.820102 0
M  V30 4054 C 379.622 1.3018 1.60813 0
M  V30 4055 C 380.037 -0.123551 1.88395 0
M  V30 4056 O 379.394 -1.07148 1.47735 0
M  V30 4057 C 379.445 2.09312 2.94739 0
M  V30 4058 O 379.166 3.46288 2.68358 0
M  V30 4059 C 380.667 2.1234 3.89136 0
M  V30 4060 H 377.887 0.447726 0.499782 0
M  V30 4061 H 380.431 1.77237 1.02017 0
M  V30 4062 H 378.586 1.65889 3.50085 0
M  V30 4063 H 379 3.87227 3.53774 0
M  V30 4064 H 380.474 2.72126 4.80262 0
M  V30 4065 H 380.951 1.11854 4.24718 0
M  V30 4066 H 381.557 2.55864 3.39726 0
M  V30 4067 N 379.872 -1.04064 1.18357 0
M  V30 4068 C 381.102 -1.80654 1.00238 0
M  V30 4069 C 381.51 -1.83713 -0.452362 0
M  V30 4070 O 380.853 -1.27135 -1.32599 0
M  V30 4071 C 380.915 -3.27582 1.48088 0
M  V30 4072 C 380.579 -3.48184 2.96002 0
M  V30 4073 C 381.576 -3.39372 3.93856 0
M  V30 4074 C 379.261 -3.7478 3.34433 0
M  V30 4075 C 381.255 -3.5686 5.28138 0
M  V30 4076 C 378.942 -3.91915 4.68877 0
M  V30 4077 C 379.94 -3.82956 5.65539 0
M  V30 4078 O 379.628 -3.996 6.97549 0
M  V30 4079 H 379.36 -0.575751 0.354241 0
M  V30 4080 H 381.914 -1.32044 1.57333 0
M  V30 4081 H 380.144 -3.77161 0.853588 0
M  V30 4082 H 381.833 -3.8573 1.2636 0
M  V30 4083 H 382.599 -3.18789 3.65511 0
M  V30 4084 H 378.478 -3.80852 2.59756 0
M  V30 4085 H 382.022 -3.49783 6.03571 0
M  V30 4086 H 377.919 -4.11992 4.96923 0
M  V30 4087 H 378.687 -4.1676 7.04452 0
M  V30 4088 N 381.35 -0.985608 -1.22978 0
M  V30 4089 C 382.597 -0.657386 -1.91532 0
M  V30 4090 C 382.925 0.809707 -1.76845 0
M  V30 4091 O 382.18 1.60021 -1.12658 0
M  V30 4092 C 382.479 -1.00014 -3.43121 0
M  V30 4093 C 382.145 -2.4583 -3.77993 0
M  V30 4094 C 380.807 -2.85679 -3.87222 0
M  V30 4095 C 383.159 -3.40378 -3.94705 0
M  V30 4096 C 380.487 -4.19081 -4.10595 0
M  V30 4097 C 382.839 -4.73429 -4.1958 0
M  V30 4098 C 381.503 -5.1303 -4.27032 0
M  V30 4099 H 380.773 -0.240555 -0.700867 0
M  V30 4100 H 383.42 -1.24044 -1.45895 0
M  V30 4101 H 381.725 -0.335072 -3.90365 0
M  V30 4102 H 383.422 -0.724322 -3.94404 0
M  V30 4103 H 380.012 -2.13939 -3.71387 0
M  V30 4104 H 384.196 -3.10766 -3.8696 0
M  V30 4105 H 379.452 -4.49362 -4.14589 0
M  V30 4106 H 383.626 -5.46644 -4.31455 0
M  V30 4107 H 381.253 -6.16418 -4.44896 0
M  V30 4108 N 382.828 1.3818 -0.7579 0
M  V30 4109 C 384.074 2.00316 -0.316453 0
M  V30 4110 C 384.407 1.60026 1.10025 0
M  V30 4111 O 383.682 0.839835 1.75434 0
M  V30 4112 C 383.965 3.57349 -0.444245 0
M  V30 4113 C 383.818 4.07591 -1.90236 0
M  V30 4114 C 385.137 4.3981 0.1598 0
M  V30 4115 H 382.256 0.727741 -0.116459 0
M  V30 4116 H 384.898 1.6406 -0.958352 0
M  V30 4117 H 383.048 3.88365 0.102233 0
M  V30 4118 H 384.72 3.87199 -2.50748 0
M  V30 4119 H 382.963 3.60297 -2.41595 0
M  V30 4120 H 383.634 5.16677 -1.94291 0
M  V30 4121 H 386.11 4.14971 -0.306314 0
M  V30 4122 H 384.986 5.48885 0.0401675 0
M  V30 4123 H 385.247 4.24102 1.24859 0
M  V30 4124 N 384.306 0.507319 1.49211 0
M  V30 4125 C 385.534 -0.0315749 2.06876 0
M  V30 4126 C 385.949 -1.30241 1.36685 0
M  V30 4127 O 385.306 -1.76937 0.447152 0
M  V30 4128 C 385.357 -0.282627 3.60393 0
M  V30 4129 O 385.078 0.937835 4.27944 0
M  V30 4130 C 386.579 -0.864453 4.3479 0
M  V30 4131 H 383.799 0.0233048 0.670595 0
M  V30 4132 H 386.343 0.706484 1.91909 0
M  V30 4133 H 384.498 -0.97068 3.75042 0
M  V30 4134 H 384.912 0.704567 5.19746 0
M  V30 4135 H 386.386 -0.989664 5.43056 0
M  V30 4136 H 386.863 -1.86382 3.97692 0
M  V30 4137 H 387.469 -0.213672 4.24763 0
M  V30 4138 N 385.784 -1.5574 0.241426 0
M  V30 4139 C 386.731 -2.21149 -0.660432 0
M  V30 4140 C 387.701 -1.17356 -1.17545 0
M  V30 4141 O 388.886 -1.45784 -1.23093 0
M  V30 4142 C 386.026 -2.91059 -1.85414 0
M  V30 4143 C 385.139 -4.09495 -1.37616 0
M  V30 4144 C 384.274 -4.67135 -2.529 0
M  V30 4145 C 383.313 -5.77831 -2.01936 0
M  V30 4146 N 382.45 -6.29677 -3.10566 0
M  V30 4147 H 387.29 -2.97845 -0.095955 0
M  V30 4148 H 384.827 -1.47057 -0.0356024 0
M  V30 4149 H 386.785 -3.29788 -2.5553 0
M  V30 4150 H 385.415 -2.16846 -2.39118 0
M  V30 4151 H 384.467 -3.76117 -0.569235 0
M  V30 4152 H 385.779 -4.89423 -0.962618 0
M  V30 4153 H 384.933 -5.08409 -3.31067 0
M  V30 4154 H 383.672 -3.86411 -2.97553 0
M  V30 4155 H 382.677 -5.36039 -1.22238 0
M  V30 4156 H 383.902 -6.60402 -1.58259 0
M  V30 4157 H 381.848 -5.5186 -3.54664 0
M  V30 4158 H 381.765 -7.04783 -2.73526 0
M  V30 4159 H 383.033 -6.75609 -3.88809 0
M  V30 4160 N 387.262 0.0317525 -1.57568 0
M  V30 4161 C 388.49 0.734949 -1.93407 0
M  V30 4162 C 388.905 1.69036 -0.84096 0
M  V30 4163 O 388.262 1.81582 0.182836 0
M  V30 4164 C 388.313 1.49432 -3.29169 0
M  V30 4165 O 388.034 0.577261 -4.3428 0
M  V30 4166 C 389.535 2.29492 -3.79273 0
M  V30 4167 H 386.755 0.206706 -0.638368 0
M  V30 4168 H 389.299 -0.00992046 -2.04498 0
M  V30 4169 H 387.454 2.1911 -3.19483 0
M  V30 4170 H 387.868 1.10952 -5.1263 0
M  V30 4171 H 389.342 2.78172 -4.76785 0
M  V30 4172 H 389.819 3.10794 -3.10328 0
M  V30 4173 H 390.425 1.64894 -3.92033 0
M  V30 4174 N 388.74 1.54641 0.303973 0
M  V30 4175 C 389.67 1.88386 1.3796 0
M  V30 4176 C 390.651 0.742485 1.5304 0
M  V30 4177 O 391.836 0.997959 1.66597 0
M  V30 4178 C 388.966 2.12854 2.74427 0
M  V30 4179 C 387.92 3.28702 2.74115 0
M  V30 4180 C 387.246 3.38582 4.13844 0
M  V30 4181 C 388.546 4.65881 2.3612 0
M  V30 4182 H 390.24 2.78474 1.09966 0
M  V30 4183 H 387.786 1.33988 0.527556 0
M  V30 4184 H 389.739 2.35047 3.49758 0
M  V30 4185 H 388.463 1.19535 3.03939 0
M  V30 4186 H 387.122 3.06428 2.0124 0
M  V30 4187 H 386.77 2.42784 4.40528 0
M  V30 4188 H 386.47 4.16453 4.14537 0
M  V30 4189 H 387.994 3.63031 4.90959 0
M  V30 4190 H 389.408 4.87823 3.01167 0
M  V30 4191 H 387.805 5.46444 2.48031 0
M  V30 4192 H 388.875 4.66799 1.3125 0
M  V30 4193 N 390.218 -0.567019 1.47046 0
M  V30 4194 C 391.148 -1.68482 1.61667 0
M  V30 4195 C 392.129 -1.6358 0.466418 0
M  V30 4196 O 393.314 -1.81354 0.694574 0
M  V30 4197 C 390.444 -3.07124 1.62148 0
M  V30 4198 C 389.398 -3.26867 2.76301 0
M  V30 4199 C 388.724 -4.66196 2.61849 0
M  V30 4200 C 390.024 -3.13186 4.17986 0
M  V30 4201 H 391.718 -1.56502 2.5524 0
M  V30 4202 H 389.264 -0.751486 1.22836 0
M  V30 4203 H 391.217 -3.8516 1.70968 0
M  V30 4204 H 389.941 -3.2004 0.651287 0
M  V30 4205 H 388.6 -2.51237 2.66975 0
M  V30 4206 H 388.248 -4.75898 1.62879 0
M  V30 4207 H 387.948 -4.80356 3.38425 0
M  V30 4208 H 389.472 -5.46379 2.72584 0
M  V30 4209 H 390.886 -3.81049 4.2834 0
M  V30 4210 H 389.283 -3.3886 4.95272 0
M  V30 4211 H 390.353 -2.10057 4.3704 0
M  V30 4212 N 391.696 -1.35014 -0.812953 0
M  V30 4213 C 392.626 -1.30069 -1.93919 0
M  V30 4214 C 393.607 -0.176275 -1.69184 0
M  V30 4215 O 394.792 -0.370227 -1.90638 0
M  V30 4216 C 391.922 -1.06547 -3.30552 0
M  V30 4217 C 390.876 -2.15561 -3.69753 0
M  V30 4218 C 390.202 -1.77214 -5.04479 0
M  V30 4219 C 391.502 -3.57476 -3.808 0
M  V30 4220 H 393.196 -2.24303 -1.98314 0
M  V30 4221 H 390.742 -1.07977 -0.952736 0
M  V30 4222 H 392.695 -1.01729 -4.08937 0
M  V30 4223 H 391.419 -0.0875719 -3.26483 0
M  V30 4224 H 390.078 -2.19466 -2.9365 0
M  V30 4225 H 389.726 -0.780589 -4.96906 0
M  V30 4226 H 389.426 -2.50184 -5.31678 0
M  V30 4227 H 390.95 -1.7391 -5.8531 0
M  V30 4228 H 392.364 -3.55929 -4.4943 0
M  V30 4229 H 390.761 -4.29152 -4.19462 0
M  V30 4230 H 391.831 -3.94091 -2.82525 0
M  V30 4231 N 393.175 1.03435 -1.18907 0
M  V30 4232 C 394.403 1.80381 -1.01342 0
M  V30 4233 C 394.818 1.83649 0.438005 0
M  V30 4234 O 394.175 1.27655 1.30424 0
M  V30 4235 C 394.226 3.25689 -1.56873 0
M  V30 4236 O 393.947 3.22673 -2.96334 0
M  V30 4237 C 395.448 4.19255 -1.44014 0
M  V30 4238 H 392.668 0.56784 -0.35749 0
M  V30 4239 H 395.212 1.30317 -1.576 0
M  V30 4240 H 393.367 3.72962 -1.04777 0
M  V30 4241 H 393.781 4.13748 -3.22355 0
M  V30 4242 H 395.255 5.19123 -1.87657 0
M  V30 4243 H 395.732 4.37467 -0.389815 0
M  V30 4244 H 396.338 3.77851 -1.95214 0
M  V30 4245 N 394.653 0.992116 1.22453 0
M  V30 4246 C 395.878 0.685644 1.95739 0
M  V30 4247 C 396.303 -0.743 1.72804 0
M  V30 4248 O 395.661 -1.50778 1.00676 0
M  V30 4249 C 395.709 0.996293 3.46564 0
M  V30 4250 O 394.813 0.0945512 4.12292 0
M  V30 4251 H 394.154 0.256694 0.612376 0
M  V30 4252 H 396.684 1.32888 1.5557 0
M  V30 4253 H 396.694 0.93781 3.97076 0
M  V30 4254 H 395.369 2.03733 3.62582 0
M  V30 4255 H 393.946 0.208451 3.72317 0
M  V30 4256 N 396.131 -1.37776 0.765217 0
M  V30 4257 C 397.061 -2.32945 0.160953 0
M  V30 4258 C 398.042 -1.55454 -0.690516 0
M  V30 4259 O 399.227 -1.83721 -0.629318 0
M  V30 4260 C 396.357 -3.39669 -0.724031 0
M  V30 4261 C 395.311 -4.27992 0.0256173 0
M  V30 4262 C 394.637 -5.25673 -0.978383 0
M  V30 4263 C 395.937 -5.08309 1.20082 0
M  V30 4264 H 397.631 -2.83728 0.955969 0
M  V30 4265 H 395.177 -1.36416 0.461149 0
M  V30 4266 H 397.13 -4.05219 -1.15652 0
M  V30 4267 H 395.854 -2.87396 -1.5515 0
M  V30 4268 H 394.513 -3.63964 0.438812 0
M  V30 4269 H 394.161 -4.69682 -1.80022 0
M  V30 4270 H 393.861 -5.85625 -0.481378 0
M  V30 4271 H 395.385 -5.94098 -1.40995 0
M  V30 4272 H 396.799 -5.67034 0.845307 0
M  V30 4273 H 395.196 -5.77554 1.62947 0
M  V30 4274 H 396.266 -4.41365 2.00811 0
M  V30 4275 N 397.609 -0.515225 -1.4894 0
M  V30 4276 C 398.856 0.024215 -2.02486 0
M  V30 4277 C 399.184 1.35671 -1.39368 0
M  V30 4278 O 398.439 1.88566 -0.523574 0
M  V30 4279 C 398.738 0.210595 -3.56779 0
M  V30 4280 C 398.404 -1.04569 -4.38607 0
M  V30 4281 C 397.066 -1.39002 -4.60686 0
M  V30 4282 C 399.418 -1.88008 -4.86109 0
M  V30 4283 C 396.746 -2.568 -5.27514 0
M  V30 4284 C 399.098 -3.04972 -5.54234 0
M  V30 4285 C 397.762 -3.39768 -5.74555 0
M  V30 4286 H 397.032 0.00886088 -0.740947 0
M  V30 4287 H 399.679 -0.678263 -1.79086 0
M  V30 4288 H 397.984 0.99572 -3.78936 0
M  V30 4289 H 399.681 0.642659 -3.95817 0
M  V30 4290 H 396.271 -0.767497 -4.21672 0
M  V30 4291 H 400.455 -1.62719 -4.68867 0
M  V30 4292 H 395.711 -2.8398 -5.41447 0
M  V30 4293 H 399.885 -3.69943 -5.90013 0
M  V30 4294 H 397.512 -4.31148 -6.26112 0
M  V30 4295 N 399.087 1.5561 -0.249682 0
M  V30 4296 C 400.017 2.24477 0.642826 0
M  V30 4297 C 400.998 1.22601 1.17911 0
M  V30 4298 O 402.183 1.5126 1.21795 0
M  V30 4299 C 399.313 2.94638 1.83863 0
M  V30 4300 C 398.267 4.03227 1.435 0
M  V30 4301 C 397.593 4.60828 2.71186 0
M  V30 4302 C 398.893 5.18796 0.604002 0
M  V30 4303 H 400.587 2.99321 0.0685625 0
M  V30 4304 H 398.133 1.43965 0.0315363 0
M  V30 4305 H 400.086 3.41517 2.46868 0
M  V30 4306 H 398.81 2.17287 2.43832 0
M  V30 4307 H 397.469 3.57121 0.828275 0
M  V30 4308 H 397.117 3.80174 3.29358 0
M  V30 4309 H 396.817 5.34132 2.44901 0
M  V30 4310 H 398.341 5.10442 3.35084 0
M  V30 4311 H 399.755 5.61883 1.13842 0
M  V30 4312 H 398.152 5.98506 0.437097 0
M  V30 4313 H 399.222 4.83384 -0.383147 0
M  V30 4314 N 400.565 -0.0233959 1.57583 0
M  V30 4315 C 401.811 -0.708611 1.90657 0
M  V30 4316 C 402.166 -1.7266 0.848895 0
M  V30 4317 O 401.459 -1.91075 -0.141749 0
M  V30 4318 C 401.653 -1.41428 3.28227 0
M  V30 4319 C 401.482 -0.466155 4.47277 0
M  V30 4320 C 400.252 -0.085117 5.05228 0
M  V30 4321 C 402.45 0.257836 5.13653 0
M  V30 4322 N 400.432 0.863672 6.07794 0
M  V30 4323 C 401.803 1.06209 6.10835 0
M  V30 4324 C 403.858 0.324174 4.96844 0
M  V30 4325 C 402.561 1.9266 6.93018 0
M  V30 4326 C 404.587 1.17583 5.79593 0
M  V30 4327 C 403.949 1.96799 6.7635 0
M  V30 4328 H 400.048 -0.233222 0.746412 0
M  V30 4329 H 402.632 0.0314512 1.94675 0
M  V30 4330 H 400.803 -2.12477 3.25128 0
M  V30 4331 H 402.535 -2.05233 3.488 0
M  V30 4332 H 399.29 -0.448516 4.71471 0
M  V30 4333 H 399.714 1.33274 6.63752 0
M  V30 4334 H 404.356 -0.273975 4.21911 0
M  V30 4335 H 402.074 2.53552 7.67292 0
M  V30 4336 H 405.66 1.23076 5.68633 0
M  V30 4337 H 404.54 2.61635 7.39268 0
M  V30 4338 N 402.043 -1.548 -0.295768 0
M  V30 4339 C 403.292 -1.73538 -1.02798 0
M  V30 4340 C 403.605 -0.531159 -1.8825 0
M  V30 4341 O 404.811 -0.600458 -2.64777 0
M  V30 4342 C 403.267 -3.07051 -1.87744 0
M  V30 4343 C 402.875 -4.34968 -1.07269 0
M  V30 4344 C 404.619 -3.35146 -2.60533 0
M  V30 4345 C 402.526 -5.5953 -1.91521 0
M  V30 4346 H 401.456 -0.646794 -0.387522 0
M  V30 4347 H 404.107 -1.81278 -0.284718 0
M  V30 4348 H 402.489 -2.93289 -2.66078 0
M  V30 4349 H 403.663 -4.5958 -0.335117 0
M  V30 4350 H 401.978 -4.13847 -0.460384 0
M  V30 4351 H 404.575 -4.2541 -3.23929 0
M  V30 4352 H 404.918 -2.54255 -3.29636 0
M  V30 4353 H 405.451 -3.49902 -1.89244 0
M  V30 4354 H 402.19 -6.43103 -1.26878 0
M  V30 4355 H 401.71 -5.39096 -2.62937 0
M  V30 4356 H 403.389 -5.96982 -2.49442 0
M  V30 4357 N 403.521 0.559213 -1.47345 0
M  V30 4358 C 404.937 0.884943 -1.32819 0
M  V30 4359 C 405.137 1.98988 -0.317173 0
M  V30 4360 O 404.193 2.51031 0.272011 0
M  V30 4361 C 405.506 1.28007 -2.72093 0
M  V30 4362 C 407.054 1.39161 -2.80363 0
M  V30 4363 C 407.529 1.82031 -4.20272 0
M  V30 4364 N 409.02 1.89185 -4.22804 0
M  V30 4365 C 409.755 2.2368 -5.27973 0
M  V30 4366 N 409.251 2.56802 -6.43447 0
M  V30 4367 N 411.044 2.24436 -5.15349 0
M  V30 4368 H 403.195 -0.170304 -2.11716 0
M  V30 4369 H 405.458 -0.0135247 -0.947904 0
M  V30 4370 H 405.164 0.542027 -3.47498 0
M  V30 4371 H 405.038 2.23665 -3.03733 0
M  V30 4372 H 407.425 2.12048 -2.05231 0
M  V30 4373 H 407.506 0.41696 -2.52379 0
M  V30 4374 H 407.15 1.09715 -4.95908 0
M  V30 4375 H 407.08 2.80495 -4.45679 0
M  V30 4376 H 409.571 1.65982 -3.39497 0
M  V30 4377 H 409.884 2.82144 -7.19454 0
M  V30 4378 H 408.229 2.54387 -6.46771 0
M  V30 4379 H 411.42 1.97998 -4.24163 0
M  V30 4380 H 411.593 2.50989 -5.97418 0
M  V30 4381 N 404.999 1.35443 0.805782 0
M  V30 4382 C 406.227 1.31878 1.59423 0
M  V30 4383 C 406.642 -0.103562 1.88516 0
M  V30 4384 O 405.999 -1.05575 1.48863 0
M  V30 4385 C 406.05 2.12426 2.92502 0
M  V30 4386 O 405.771 3.49115 2.6467 0
M  V30 4387 C 407.272 2.16455 3.86862 0
M  V30 4388 H 404.492 0.453002 0.495005 0
M  V30 4389 H 407.036 1.78309 1.00131 0
M  V30 4390 H 405.191 1.69593 3.48306 0
M  V30 4391 H 405.605 3.90957 3.49647 0
M  V30 4392 H 407.079 2.77204 4.77349 0
M  V30 4393 H 407.556 1.16352 4.23508 0
M  V30 4394 H 408.162 2.59453 3.36993 0
M  V30 4395 N 406.477 -1.02803 1.19454 0
M  V30 4396 C 407.44 -2.09264 0.934955 0
M  V30 4397 C 408.44 -1.60576 -0.0849015 0
M  V30 4398 O 409.63 -1.73554 0.149933 0
M  V30 4399 C 406.762 -3.38482 0.40531 0
M  V30 4400 H 407.955 -2.33726 1.87916 0
M  V30 4401 H 405.508 -1.19426 1.00832 0
M  V30 4402 H 406.243 -3.19689 -0.544899 0
M  V30 4403 H 406.028 -3.75142 1.14065 0
M  V30 4404 H 407.518 -4.16894 0.242806 0
M  V30 4405 N 407.956 -0.998596 -1.21925 0
M  V30 4406 C 409.186 -0.695276 -1.94549 0
M  V30 4407 C 409.594 0.745079 -1.73911 0
M  V30 4408 O 408.937 1.51507 -1.03881 0
M  V30 4409 C 408.999 -0.928485 -3.47303 0
M  V30 4410 C 408.663 -2.35443 -3.91683 0
M  V30 4411 C 409.66 -3.33428 -3.98901 0
M  V30 4412 C 407.345 -2.69038 -4.24174 0
M  V30 4413 C 409.339 -4.63079 -4.37992 0
M  V30 4414 C 407.026 -3.98906 -4.62944 0
M  V30 4415 C 408.024 -4.95738 -4.69822 0
M  V30 4416 O 407.712 -6.23285 -5.07711 0
M  V30 4417 H 407.444 -0.255902 -0.625692 0
M  V30 4418 H 409.998 -1.33767 -1.5587 0
M  V30 4419 H 408.228 -0.228917 -3.86022 0
M  V30 4420 H 409.917 -0.619539 -4.01144 0
M  V30 4421 H 410.683 -3.08807 -3.73983 0
M  V30 4422 H 406.562 -1.94367 -4.18022 0
M  V30 4423 H 410.106 -5.38658 -4.43275 0
M  V30 4424 H 406.003 -4.23314 -4.87314 0
M  V30 4425 H 406.771 -6.27306 -5.25766 0
M  V30 4426 N 409.434 1.37368 -0.772513 0
M  V30 4427 C 410.845 1.8231 -0.402493 0
M  V30 4428 C 411.196 1.6436 1.07146 0
M  V30 4429 O 410.321 1.15514 1.82991 0
M  V30 4430 C 410.916 3.30979 -0.723776 0
M  V30 4431 C 409.475 3.74195 -0.406802 0
M  V30 4432 C 408.622 2.59885 -0.967218 0
M  V30 4433 H 411.573 1.25829 -0.967099 0
M  V30 4434 H 411.594 3.80499 -0.00870832 0
M  V30 4435 H 411.106 3.44011 -1.7966 0
M  V30 4436 H 409.207 3.66732 0.658673 0
M  V30 4437 H 409.32 4.7027 -0.915588 0
M  V30 4438 H 407.684 2.51674 -0.391416 0
M  V30 4439 H 408.467 2.7571 -2.04546 0
M  V30 4440 N 410.912 0.523116 1.48665 0
M  V30 4441 C 412.328 0.180511 1.58576 0
M  V30 4442 C 412.528 -1.31597 1.52592 0
M  V30 4443 O 411.584 -2.0937 1.4114 0
M  V30 4444 C 412.897 0.776949 2.90489 0
M  V30 4445 C 414.445 0.745058 3.04003 0
M  V30 4446 C 414.92 1.31995 4.38567 0
M  V30 4447 N 416.411 1.28162 4.45117 0
M  V30 4448 C 417.146 1.6964 5.47731 0
M  V30 4449 N 416.642 2.18816 6.57337 0
M  V30 4450 N 418.435 1.6092 5.38573 0
M  V30 4451 H 410.586 1.4958 1.50797 0
M  V30 4452 H 412.849 0.621772 0.715614 0
M  V30 4453 H 412.555 1.82732 3.00503 0
M  V30 4454 H 412.429 0.25007 3.7637 0
M  V30 4455 H 414.816 -0.296532 2.93606 0
M  V30 4456 H 414.897 1.30933 2.1975 0
M  V30 4457 H 414.541 2.36043 4.49718 0
M  V30 4458 H 414.471 0.731418 5.21496 0
M  V30 4459 H 416.962 0.92155 3.66491 0
M  V30 4460 H 417.275 2.48478 7.31764 0
M  V30 4461 H 415.62 2.22805 6.58318 0
M  V30 4462 H 418.811 1.22304 4.5184 0
M  V30 4463 H 418.984 1.93567 6.18414 0
M  V30 4464 N 412.39 -1.55475 0.257931 0
M  V30 4465 C 413.637 -1.99207 -0.363728 0
M  V30 4466 C 413.965 -1.1462 -1.57139 0
M  V30 4467 O 413.22 -0.199653 -1.94679 0
M  V30 4468 C 413.519 -3.48183 -0.806433 0
M  V30 4469 C 413.185 -4.49936 0.294684 0
M  V30 4470 C 411.847 -4.77481 0.597076 0
M  V30 4471 C 414.199 -5.10769 1.03751 0
M  V30 4472 C 411.527 -5.63132 1.64618 0
M  V30 4473 C 413.879 -5.97558 2.07622 0
M  V30 4474 C 412.543 -6.23432 2.38514 0
M  V30 4475 H 411.813 -0.728949 -0.133097 0
M  V30 4476 H 414.46 -1.8793 0.368059 0
M  V30 4477 H 412.765 -3.56848 -1.61761 0
M  V30 4478 H 414.462 -3.79415 -1.29789 0
M  V30 4479 H 411.052 -4.28572 0.0488649 0
M  V30 4480 H 415.236 -4.89527 0.817149 0
M  V30 4481 H 410.492 -5.8143 1.89074 0
M  V30 4482 H 414.666 -6.43735 2.65666 0
M  V30 4483 H 412.293 -6.89594 3.19943 0
M  V30 4484 N 413.868 0.0150385 -1.57593 0
M  V30 4485 C 415.284 0.370907 -1.5523 0
M  V30 4486 C 415.484 1.75735 -0.985882 0
M  V30 4487 O 414.54 2.44944 -0.613077 0
M  V30 4488 C 415.853 0.259908 -2.99575 0
M  V30 4489 C 417.401 0.335959 -3.11192 0
M  V30 4490 C 417.876 0.254253 -4.57294 0
M  V30 4491 N 419.367 0.312618 -4.62144 0
M  V30 4492 C 420.102 0.272505 -5.72752 0
M  V30 4493 N 419.598 0.183864 -6.92556 0
M  V30 4494 N 421.391 0.323267 -5.6117 0
M  V30 4495 H 413.542 -0.892104 -1.92757 0
M  V30 4496 H 415.805 -0.340563 -0.884715 0
M  V30 4497 H 415.511 -0.693403 -3.44797 0
M  V30 4498 H 415.385 1.048 -3.62349 0
M  V30 4499 H 417.772 1.27971 -2.65909 0
M  V30 4500 H 417.853 -0.481739 -2.51223 0
M  V30 4501 H 417.497 -0.685887 -5.03247 0
M  V30 4502 H 417.427 1.09024 -5.15191 0
M  V30 4503 H 419.918 0.38307 -3.75953 0
M  V30 4504 H 420.231 0.15874 -7.72637 0
M  V30 4505 H 418.576 0.149708 -6.94839 0
M  V30 4506 H 421.767 0.390607 -4.66467 0
M  V30 4507 H 421.94 0.288539 -6.47357 0
M  V30 4508 N 415.346 1.54954 0.287554 0
M  V30 4509 C 416.576 1.78622 1.03816 0
M  V30 4510 C 416.984 0.552451 1.80955 0
M  V30 4511 O 416.327 -0.487665 1.77109 0
M  V30 4512 C 416.389 2.94975 2.055 0
M  V30 4513 C 416.053 4.32565 1.47433 0
M  V30 4514 C 417.05 5.12096 0.897436 0
M  V30 4515 C 414.735 4.79195 1.50591 0
M  V30 4516 C 416.729 6.36383 0.359851 0
M  V30 4517 C 414.416 6.03441 0.964459 0
M  V30 4518 C 415.414 6.81872 0.392413 0
M  V30 4519 O 415.102 8.03777 -0.140788 0
M  V30 4520 H 414.834 0.599144 0.313053 0
M  V30 4521 H 417.388 2.02761 0.328225 0
M  V30 4522 H 415.618 2.66493 2.80211 0
M  V30 4523 H 417.307 3.06097 2.6657 0
M  V30 4524 H 418.073 4.77209 0.865841 0
M  V30 4525 H 413.952 4.18167 1.94055 0
M  V30 4526 H 417.496 6.97545 -0.0872951 0
M  V30 4527 H 413.393 6.37813 0.993246 0
M  V30 4528 H 414.161 8.18495 -0.0287617 0
M  V30 4529 N 416.824 -0.551391 1.4764 0
M  V30 4530 C 418.101 -1.31229 1.45046 0
M  V30 4531 C 418.481 -2.10563 0.150527 0
M  V30 4532 O 417.829 -2.11374 -0.867956 0
M  V30 4533 C 418.039 -2.21189 2.69956 0
M  V30 4534 C 419.387 -2.82021 3.1741 0
M  V30 4535 O 420.411 -2.31488 2.70724 0
M  V30 4536 O 419.27 -3.73885 3.98588 0
M  V30 4537 H 416.364 -0.591193 0.578291 0
M  V30 4538 H 418.91 -0.569813 1.59847 0
M  V30 4539 H 417.682 -1.62207 3.56096 0
M  V30 4540 H 417.305 -3.02722 2.57769 0
M  V30 4541 N 418.302 -1.35869 -0.798587 0
M  V30 4542 C 419.234 -1.25305 -1.91915 0
M  V30 4543 C 420.247 -0.174548 -1.61862 0
M  V30 4544 O 421.436 -0.428499 -1.73281 0
M  V30 4545 C 418.536 -0.9086 -3.26493 0
M  V30 4546 C 417.709 -2.08711 -3.84394 0
M  V30 4547 C 416.768 -1.71717 -4.97393 0
M  V30 4548 O 415.794 -2.43692 -5.14396 0
M  V30 4549 N 416.996 -0.645473 -5.769 0
M  V30 4550 H 419.761 -2.21849 -2.01502 0
M  V30 4551 H 417.322 -1.29143 -0.976408 0
M  V30 4552 H 419.314 -0.642455 -3.99568 0
M  V30 4553 H 417.884 -0.0325815 -3.12583 0
M  V30 4554 H 417.104 -2.51659 -3.03416 0
M  V30 4555 H 418.392 -2.87468 -4.19809 0
M  V30 4556 H 417.79 -0.047648 -5.6568 0
M  V30 4557 H 416.347 -0.43913 -6.50319 0
M  V30 4558 N 419.78 1.02168 -1.19998 0
M  V30 4559 C 420.71 2.12488 -0.96804 0
M  V30 4560 C 421.691 1.69799 0.101185 0
M  V30 4561 O 422.876 1.94121 -0.0552993 0
M  V30 4562 C 420.006 3.43479 -0.513776 0
M  V30 4563 C 418.96 3.99884 -1.52566 0
M  V30 4564 C 418.286 5.26582 -0.928214 0
M  V30 4565 C 419.586 4.33861 -2.90795 0
M  V30 4566 H 421.28 2.32149 -1.89069 0
M  V30 4567 H 418.826 1.11564 -0.910468 0
M  V30 4568 H 420.779 4.20036 -0.338774 0
M  V30 4569 H 419.503 3.23561 0.444493 0
M  V30 4570 H 418.162 3.25429 -1.68794 0
M  V30 4571 H 417.81 5.02986 0.0378289 0
M  V30 4572 H 417.51 5.65284 -1.60397 0
M  V30 4573 H 419.034 6.05799 -0.764167 0
M  V30 4574 H 420.448 5.01327 -2.78109 0
M  V30 4575 H 418.845 4.83664 -3.55231 0
M  V30 4576 H 419.915 3.42848 -3.42904 0
M  V30 4577 N 421.258 1.00505 1.21394 0
M  V30 4578 C 422.191 0.51032 2.22421 0
M  V30 4579 C 423.169 -0.436 1.56645 0
M  V30 4580 O 424.353 -0.358709 1.85055 0
M  V30 4581 C 421.48 -0.258733 3.3771 0
M  V30 4582 C 420.526 0.635395 4.2174 0
M  V30 4583 S 421.359 2.09783 4.92698 0
M  V30 4584 C 422.515 1.33862 6.11418 0
M  V30 4585 H 422.748 1.36637 2.64041 0
M  V30 4586 H 420.281 0.812991 1.31262 0
M  V30 4587 H 422.239 -0.696372 4.0455 0
M  V30 4588 H 420.9 -1.0902 2.94573 0
M  V30 4589 H 420.093 0.0430189 5.03982 0
M  V30 4590 H 419.695 1.01031 3.60095 0
M  V30 4591 H 421.987 0.612541 6.74725 0
M  V30 4592 H 422.93 2.13675 6.75092 0
M  V30 4593 H 423.338 0.846568 5.58116 0
M  V30 4594 N 422.737 -1.36956 0.779787 0
M  V30 4595 C 423.687 -2.27539 0.144892 0
M  V30 4596 C 424.671 -1.46493 -0.665488 0
M  V30 4597 O 425.863 -1.68968 -0.527141 0
M  V30 4598 C 422.992 -3.35512 -0.727082 0
M  V30 4599 C 422.078 -4.24001 0.0915642 0
M  V30 4600 N 422.469 -4.92757 1.14125 0
M  V30 4601 C 420.767 -4.45807 -0.131141 0
M  V30 4602 C 421.468 -5.58138 1.6388 0
M  V30 4603 N 420.444 -5.35241 0.94962 0
M  V30 4604 H 424.246 -2.78176 0.948446 0
M  V30 4605 H 421.76 -1.50169 0.618315 0
M  V30 4606 H 423.757 -3.99324 -1.19776 0
M  V30 4607 H 422.417 -2.86431 -1.52929 0
M  V30 4608 H 423.428 -4.94984 1.52353 0
M  V30 4609 H 420.105 -4.07582 -0.904621 0
M  V30 4610 H 421.495 -6.23071 2.51461 0
M  V30 4611 N 424.215 -0.530993 -1.48385 0
M  V30 4612 C 425.145 0.219985 -2.32461 0
M  V30 4613 C 426.126 0.934111 -1.42156 0
M  V30 4614 O 427.311 0.919694 -1.71042 0
M  V30 4615 C 424.441 1.26674 -3.23375 0
M  V30 4616 C 423.395 0.67069 -4.22712 0
M  V30 4617 C 422.721 1.82017 -5.02766 0
M  V30 4618 C 424.021 -0.358268 -5.2107 0
M  V30 4619 H 425.715 -0.48187 -2.95497 0
M  V30 4620 H 423.261 -0.233182 -1.42099 0
M  V30 4621 H 425.214 1.80006 -3.81019 0
M  V30 4622 H 423.938 1.99818 -2.58341 0
M  V30 4623 H 422.597 0.158878 -3.66256 0
M  V30 4624 H 422.245 2.54002 -4.34157 0
M  V30 4625 H 421.945 1.42727 -5.70003 0
M  V30 4626 H 423.469 2.35725 -5.63264 0
M  V30 4627 H 424.883 0.0880081 -5.73232 0
M  V30 4628 H 423.28 -0.66861 -5.96364 0
M  V30 4629 H 424.35 -1.26367 -4.68145 0
M  V30 4630 N 425.693 1.55336 -0.266172 0
M  V30 4631 C 426.623 2.25146 0.618981 0
M  V30 4632 C 427.604 1.23845 1.16604 0
M  V30 4633 O 428.789 1.52544 1.20183 0
M  V30 4634 C 425.919 2.96572 1.80728 0
M  V30 4635 C 424.873 4.04726 1.39215 0
M  V30 4636 C 424.199 4.63678 2.66283 0
M  V30 4637 C 425.499 5.19407 0.548942 0
M  V30 4638 H 427.193 2.99377 0.0368116 0
M  V30 4639 H 424.739 1.43991 0.0162651 0
M  V30 4640 H 426.692 3.44116 2.43232 0
M  V30 4641 H 425.416 2.19861 2.41514 0
M  V30 4642 H 424.075 3.57979 0.790351 0
M  V30 4643 H 423.723 3.83646 3.25308 0
M  V30 4644 H 423.423 5.367 2.39222 0
M  V30 4645 H 424.947 5.13967 3.29651 0
M  V30 4646 H 426.361 5.63059 1.07876 0
M  V30 4647 H 424.758 5.98936 0.373593 0
M  V30 4648 H 425.828 4.8295 -0.434394 0
M  V30 4649 N 427.171 -0.0066808 1.57599 0
M  V30 4650 C 428.417 -0.68835 1.91398 0
M  V30 4651 C 428.772 -1.7175 0.86716 0
M  V30 4652 O 428.065 -1.91215 -0.121475 0
M  V30 4653 C 428.259 -1.37939 3.29708 0
M  V30 4654 C 428.088 -0.418689 4.47747 0
M  V30 4655 C 426.858 -0.031526 5.0529 0
M  V30 4656 C 429.056 0.312301 5.13351 0
M  V30 4657 N 427.038 0.928088 6.06844 0
M  V30 4658 C 428.409 1.12682 6.09674 0
M  V30 4659 C 430.464 0.376853 4.96472 0
M  V30 4660 C 429.167 2 6.90936 0
M  V30 4661 C 431.193 1.23723 5.78314 0
M  V30 4662 C 430.555 2.03962 6.74225 0
M  V30 4663 H 426.654 -0.225292 0.748844 0
M  V30 4664 H 429.238 0.0520973 1.9463 0
M  V30 4665 H 427.409 -2.09017 3.27363 0
M  V30 4666 H 429.141 -2.01522 3.50957 0
M  V30 4667 H 425.896 -0.398485 4.71921 0
M  V30 4668 H 426.32 1.40307 6.62301 0
M  V30 4669 H 430.962 -0.22921 4.22178 0
M  V30 4670 H 428.68 2.61676 7.64559 0
M  V30 4671 H 432.266 1.291 5.67296 0
M  V30 4672 H 431.146 2.69461 7.36451 0
M  V30 4673 N 428.649 -1.55105 -0.279332 0
M  V30 4674 C 429.596 -1.8755 -1.34513 0
M  V30 4675 C 430.566 -0.726384 -1.49375 0
M  V30 4676 O 431.751 -0.977063 -1.63884 0
M  V30 4677 C 428.891 -2.14738 -2.70151 0
M  V30 4678 C 428.004 -3.42285 -2.63562 0
M  V30 4679 C 427.139 -3.59206 -3.91337 0
M  V30 4680 C 426.178 -4.80467 -3.79233 0
M  V30 4681 N 425.315 -4.94079 -4.98829 0
M  V30 4682 H 430.155 -2.78456 -1.06143 0
M  V30 4683 H 427.692 -1.37867 -0.512936 0
M  V30 4684 H 429.65 -2.28501 -3.49061 0
M  V30 4685 H 428.28 -1.27075 -2.96735 0
M  V30 4686 H 427.332 -3.37029 -1.76397 0
M  V30 4687 H 428.644 -4.31328 -2.50515 0
M  V30 4688 H 427.798 -3.72751 -4.78687 0
M  V30 4689 H 426.537 -2.68337 -4.07243 0
M  V30 4690 H 425.542 -4.66932 -2.90266 0
M  V30 4691 H 426.767 -5.72765 -3.64852 0
M  V30 4692 H 424.713 -4.06139 -5.15158 0
M  V30 4693 H 424.63 -5.77156 -4.8829 0
M  V30 4694 H 425.898 -5.12003 -5.8777 0
M  V30 4695 N 430.127 0.543554 -1.4793 0
M  V30 4696 C 431.075 1.67039 -1.61866 0
M  V30 4697 C 432.069 1.62294 -0.48549 0
M  V30 4698 O 433.275 1.67315 -0.66376 0
M  V30 4699 H 429.65 0.552954 -0.509652 0
M  V30 4700 H 431.621 1.52426 -2.56533 0
M  V30 4701 C 430.37 3.05357 -1.6629 0
M  V30 4702 H 429.693 3.09696 -2.5284 0
M  V30 4703 H 431.133 3.83855 -1.80088 0
M  V30 4704 C 429.592 3.34531 -0.398861 0
M  V30 4705 O 430.122 3.98649 0.494162 0
M  V30 4706 N 428.328 2.89299 -0.2747 0
M  V30 4707 H 427.875 2.37298 -1.00236 0
M  V30 4708 H 427.833 3.09188 0.570075 0
M  V30 4709 N 431.605 1.3629 0.791371 0
M  V30 4710 C 432.852 1.30412 1.54916 0
M  V30 4711 C 433.18 -0.117162 1.94147 0
M  V30 4712 O 432.435 -1.08599 1.62803 0
M  V30 4713 C 432.734 2.17068 2.8393 0
M  V30 4714 C 432.4 3.65645 2.63846 0
M  V30 4715 C 431.062 4.0614 2.58077 0
M  V30 4716 C 433.414 4.59855 2.45322 0
M  V30 4717 C 430.742 5.3899 2.31748 0
M  V30 4718 C 433.094 5.9292 2.2052 0
M  V30 4719 C 431.758 6.32542 2.13183 0
M  V30 4720 H 431.028 0.47721 0.566879 0
M  V30 4721 H 433.675 1.68325 0.913172 0
M  V30 4722 H 431.98 1.72085 3.51986 0
M  V30 4723 H 433.677 2.09846 3.4171 0
M  V30 4724 H 430.267 3.33518 2.69191 0
M  V30 4725 H 434.451 4.29443 2.48782 0
M  V30 4726 H 429.707 5.68672 2.24548 0
M  V30 4727 H 433.881 6.65487 2.05182 0
M  V30 4728 H 431.508 7.35412 1.92544 0
M  V30 4729 N 433.083 -1.0153 1.20538 0
M  V30 4730 C 434.013 -2.11972 0.979295 0
M  V30 4731 C 434.994 -1.6985 -0.0921787 0
M  V30 4732 O 436.179 -1.94089 0.0655932 0
M  V30 4733 C 433.309 -3.43201 0.531984 0
M  V30 4734 C 432.263 -3.9907 1.54685 0
M  V30 4735 C 431.589 -5.26082 0.956127 0
M  V30 4736 C 432.889 -4.32313 2.93092 0
M  V30 4737 H 434.583 -2.31143 1.90298 0
M  V30 4738 H 432.129 -1.11079 0.916372 0
M  V30 4739 H 434.082 -4.1985 0.361044 0
M  V30 4740 H 432.806 -3.23792 -0.427327 0
M  V30 4741 H 431.465 -3.2453 1.70517 0
M  V30 4742 H 431.113 -5.02999 -0.0111538 0
M  V30 4743 H 430.813 -5.64426 1.63393 0
M  V30 4744 H 432.337 -6.05386 0.796284 0
M  V30 4745 H 433.751 -4.99845 2.80763 0
M  V30 4746 H 432.148 -4.81774 3.57791 0
M  V30 4747 H 433.218 -3.41025 3.44717 0
M  V30 4748 N 434.561 -1.01147 -1.20859 0
M  V30 4749 C 435.972 -0.730205 -1.71828 0
M  V30 4750 C 436.323 0.751662 -1.8123 0
M  V30 4751 O 435.448 1.58686 -1.47132 0
M  V30 4752 C 436.043 -1.31885 -3.12077 0
M  V30 4753 C 434.602 -1.08656 -3.60376 0
M  V30 4754 C 433.749 -1.42769 -2.37723 0
M  V30 4755 H 436.7 -1.18158 -1.05945 0
M  V30 4756 H 436.721 -0.706793 -3.73878 0
M  V30 4757 H 436.233 -2.39737 -3.05201 0
M  V30 4758 H 434.334 -0.0254814 -3.72591 0
M  V30 4759 H 434.447 -1.76301 -4.45483 0
M  V30 4760 H 432.811 -0.846603 -2.40218 0
M  V30 4761 H 433.594 -2.51666 -2.33493 0
M  V30 4762 N 436.039 1.36541 -0.78704 0
M  V30 4763 C 436.969 2.32659 -0.197992 0
M  V30 4764 C 437.95 1.56533 0.665697 0
M  V30 4765 O 439.135 1.84698 0.60001 0
M  V30 4766 C 436.265 3.40778 0.669901 0
M  V30 4767 C 435.219 4.27897 -0.0937039 0
M  V30 4768 C 434.545 5.27163 0.894629 0
M  V30 4769 C 435.845 5.06334 -1.28154 0
M  V30 4770 H 437.539 2.82171 -1.00099 0
M  V30 4771 H 435.085 1.35665 -0.482793 0
M  V30 4772 H 437.038 4.07008 1.09191 0
M  V30 4773 H 435.762 2.89827 1.50558 0
M  V30 4774 H 434.421 3.6322 -0.49666 0
M  V30 4775 H 434.069 4.72486 1.72527 0
M  V30 4776 H 433.769 5.86317 0.388149 0
M  V30 4777 H 435.293 5.96266 1.31525 0
M  V30 4778 H 436.707 5.65617 -0.93541 0
M  V30 4779 H 435.104 5.74888 -1.72115 0
M  V30 4780 H 436.174 4.38114 -2.07807 0
M  V30 4781 N 437.518 0.538854 1.48102 0
M  V30 4782 C 438.746 0.0123136 2.06896 0
M  V30 4783 C 439.161 -1.27312 1.39417 0
M  V30 4784 O 438.518 -1.75949 0.484582 0
M  V30 4785 C 438.569 -0.206118 3.60912 0
M  V30 4786 O 438.29 1.0284 4.25859 0
M  V30 4787 C 439.791 -0.772033 4.36526 0
M  V30 4788 H 437.011 0.0375239 0.66995 0
M  V30 4789 H 439.555 0.747032 1.90367 0
M  V30 4790 H 437.71 -0.89091 3.77017 0
M  V30 4791 H 438.124 0.814654 5.18135 0
M  V30 4792 H 439.598 -0.874251 5.45033 0
M  V30 4793 H 440.075 -1.77904 4.01555 0
M  V30 4794 H 440.681 -0.123526 4.25121 0
M  V30 4795 N 438.996 -1.55193 0.274407 0
M  V30 4796 C 439.926 -2.25471 -0.607032 0
M  V30 4797 C 440.907 -1.24461 -1.15946 0
M  V30 4798 O 442.092 -1.53179 -1.19373 0
M  V30 4799 C 439.222 -2.97526 -1.79153 0
M  V30 4800 C 438.176 -4.05459 -1.37067 0
M  V30 4801 C 437.502 -4.65084 -2.6382 0
M  V30 4802 C 438.802 -5.19691 -0.521389 0
M  V30 4803 H 440.496 -2.99393 -0.0209343 0
M  V30 4804 H 438.042 -1.43997 -0.00862866 0
M  V30 4805 H 439.995 -3.45402 -2.41404 0
M  V30 4806 H 438.719 -2.21138 -2.40344 0
M  V30 4807 H 437.378 -3.58393 -0.771355 0
M  V30 4808 H 437.026 -3.85365 -3.23268 0
M  V30 4809 H 436.726 -5.37961 -2.36372 0
M  V30 4810 H 438.25 -5.15708 -3.26921 0
M  V30 4811 H 439.664 -5.63623 -1.04889 0
M  V30 4812 H 438.061 -5.99126 -0.341825 0
M  V30 4813 H 439.131 -4.82713 0.46 0
M  V30 4814 N 440.474 -0.00167713 -1.576 0
M  V30 4815 C 441.437 0.974046 -2.07473 0
M  V30 4816 C 442.437 1.27143 -0.984444 0
M  V30 4817 O 443.627 1.21633 -1.24703 0
M  V30 4818 C 440.759 2.29849 -2.51759 0
M  V30 4819 H 441.952 0.54262 -2.9495 0
M  V30 4820 H 439.505 0.245829 -1.54355 0
M  V30 4821 H 440.24 2.77677 -1.67529 0
M  V30 4822 H 440.025 2.09584 -3.31386 0
M  V30 4823 H 441.515 2.9984 -2.90664 0
M  V30 4824 N 441.952 1.55251 0.271103 0
M  V30 4825 C 442.882 1.9127 1.33933 0
M  V30 4826 C 443.863 0.77478 1.5143 0
M  V30 4827 O 445.048 1.03307 1.64442 0
M  V30 4828 C 442.178 2.18627 2.69851 0
M  V30 4829 C 441.132 3.34442 2.67081 0
M  V30 4830 C 440.458 3.47284 4.06569 0
M  V30 4831 C 441.758 4.70784 2.26185 0
M  V30 4832 H 443.452 2.80744 1.04035 0
M  V30 4833 H 440.998 1.35077 0.499017 0
M  V30 4834 H 442.951 2.42413 3.44694 0
M  V30 4835 H 441.675 1.25955 3.01335 0
M  V30 4836 H 440.334 3.10627 1.94695 0
M  V30 4837 H 439.982 2.52074 4.35279 0
M  V30 4838 H 439.682 4.25152 4.0561 0
M  V30 4839 H 441.206 3.73363 4.83148 0
M  V30 4840 H 442.62 4.94102 2.90751 0
M  V30 4841 H 441.017 5.51582 2.36384 0
M  V30 4842 H 442.087 4.69478 1.21319 0
M  V30 4843 N 443.43 -0.535701 1.48216 0
M  V30 4844 C 444.36 -1.65014 1.65204 0
M  V30 4845 C 445.341 -1.62554 0.501011 0
M  V30 4846 O 446.526 -1.7984 0.732886 0
M  V30 4847 C 443.656 -3.03616 1.68626 0
M  V30 4848 C 442.61 -3.20932 2.83172 0
M  V30 4849 C 441.936 -4.60537 2.71679 0
M  V30 4850 C 443.236 -3.04249 4.24535 0
M  V30 4851 H 444.93 -1.51053 2.58502 0
M  V30 4852 H 442.476 -0.725262 1.24402 0
M  V30 4853 H 444.429 -3.81446 1.79099 0
M  V30 4854 H 443.153 -3.18587 0.719026 0
M  V30 4855 H 441.812 -2.45517 2.72244 0
M  V30 4856 H 441.46 -4.72336 1.72937 0
M  V30 4857 H 441.16 -4.73069 3.48538 0
M  V30 4858 H 442.684 -5.40475 2.84112 0
M  V30 4859 H 444.098 -3.71877 4.36326 0
M  V30 4860 H 442.495 -3.28278 5.02348 0
M  V30 4861 H 443.565 -2.00739 4.41397 0
M  V30 4862 N 444.908 -1.36708 -0.784132 0
M  V30 4863 C 445.841 -1.25827 -1.90375 0
M  V30 4864 C 446.819 -0.141331 -1.61985 0
M  V30 4865 O 448.003 -0.313389 -1.85877 0
M  V30 4866 C 445.13 -0.942621 -3.25319 0
M  V30 4867 C 444.176 -2.07474 -3.72635 0
M  V30 4868 S 445.009 -3.69317 -3.8777 0
M  V30 4869 C 446.165 -3.39876 -5.25581 0
M  V30 4870 H 446.398 -2.20593 -1.99314 0
M  V30 4871 H 443.931 -1.22186 -0.943926 0
M  V30 4872 H 445.889 -0.767321 -4.03265 0
M  V30 4873 H 444.55 -0.0126566 -3.14097 0
M  V30 4874 H 443.743 -1.80858 -4.70432 0
M  V30 4875 H 443.345 -2.20953 -3.01754 0
M  V30 4876 H 445.637 -2.94097 -6.10339 0
M  V30 4877 H 446.58 -4.36956 -5.57203 0
M  V30 4878 H 446.988 -2.75098 -4.92931 0
M  V30 4879 N 446.386 1.0089 -1.21074 0
M  V30 4880 C 447.632 1.7497 -1.03717 0
M  V30 4881 C 447.987 1.8764 0.425344 0
M  V30 4882 O 447.28 1.39679 1.3115 0
M  V30 4883 C 447.474 3.16335 -1.66334 0
M  V30 4884 C 447.303 3.17449 -3.18522 0
M  V30 4885 C 446.073 3.2425 -3.87543 0
M  V30 4886 C 448.271 3.02877 -4.15656 0
M  V30 4887 N 446.253 3.14949 -5.26954 0
M  V30 4888 C 447.624 3.0143 -5.41793 0
M  V30 4889 C 449.679 2.8715 -4.06755 0
M  V30 4890 C 448.382 2.85869 -6.60054 0
M  V30 4891 C 450.408 2.72944 -5.24648 0
M  V30 4892 C 449.77 2.72171 -6.49694 0
M  V30 4893 H 445.869 0.650627 -0.43383 0
M  V30 4894 H 448.453 1.19944 -1.53367 0
M  V30 4895 H 446.624 3.69638 -1.19256 0
M  V30 4896 H 448.356 3.78888 -1.42219 0
M  V30 4897 H 445.111 3.31288 -3.38446 0
M  V30 4898 H 445.535 3.13651 -5.9996 0
M  V30 4899 H 450.177 2.86557 -3.10878 0
M  V30 4900 H 447.895 2.8521 -7.56096 0
M  V30 4901 H 451.481 2.61782 -5.19578 0
M  V30 4902 H 450.361 2.61307 -7.39384 0
M  V30 4903 N 447.864 1.01787 1.20321 0
M  V30 4904 C 449.094 0.72614 1.93419 0
M  V30 4905 C 449.502 -0.717317 1.75075 0
M  V30 4906 O 448.845 -1.49836 1.06278 0
M  V30 4907 C 448.907 0.983621 3.45782 0
M  V30 4908 C 448.571 2.41645 3.87888 0
M  V30 4909 C 449.568 3.39732 3.93545 0
M  V30 4910 C 447.253 2.75752 4.19841 0
M  V30 4911 C 449.247 4.69988 4.30569 0
M  V30 4912 C 446.934 4.06221 4.56539 0
M  V30 4913 C 447.932 5.0315 4.61876 0
M  V30 4914 O 447.62 6.31284 4.97731 0
M  V30 4915 H 447.352 0.265824 0.621541 0
M  V30 4916 H 449.906 1.3623 1.53722 0
M  V30 4917 H 448.136 0.290301 3.85609 0
M  V30 4918 H 449.825 0.683279 4.00108 0
M  V30 4919 H 450.591 3.14718 3.69022 0
M  V30 4920 H 446.47 2.00993 4.14877 0
M  V30 4921 H 450.014 5.45642 4.3465 0
M  V30 4922 H 445.911 4.31013 4.80518 0
M  V30 4923 H 446.679 6.35591 5.15719 0
M  V30 4924 N 449.342 -1.36122 0.79427 0
M  V30 4925 C 450.588 -1.99406 0.369452 0
M  V30 4926 C 450.921 -1.62886 -1.05743 0
M  V30 4927 O 450.196 -0.886053 -1.73145 0
M  V30 4928 C 450.479 -3.56046 0.538833 0
M  V30 4929 C 450.332 -4.02404 2.00976 0
M  V30 4930 C 451.651 -4.40079 -0.0431359 0
M  V30 4931 H 448.77 -0.724397 0.135712 0
M  V30 4932 H 451.412 -1.61461 1.00151 0
M  V30 4933 H 449.562 -3.885 0.000771004 0
M  V30 4934 H 451.234 -3.80415 2.60926 0
M  V30 4935 H 449.477 -3.53765 2.51063 0
M  V30 4936 H 450.148 -5.11344 2.07922 0
M  V30 4937 H 452.624 -4.14013 0.416228 0
M  V30 4938 H 451.5 -5.48799 0.105374 0
M  V30 4939 H 451.761 -4.27264 -1.13571 0
M  V30 4940 N 450.82 -0.546701 -1.47814 0
M  V30 4941 C 452.045 -0.021268 -2.07389 0
M  V30 4942 C 452.47 1.25822 -1.39822 0
M  V30 4943 O 451.828 1.75111 -0.46968 0
M  V30 4944 C 451.876 0.168502 -3.60206 0
M  V30 4945 O 450.98 1.23347 -3.93522 0
M  V30 4946 H 450.321 -0.0466108 -0.662362 0
M  V30 4947 H 452.851 -0.759387 -1.89985 0
M  V30 4948 H 452.861 0.385982 -4.0617 0
M  V30 4949 H 451.536 -0.766075 -4.08784 0
M  V30 4950 H 450.113 0.997319 -3.59316 0
M  V30 4951 N 452.299 1.55045 -0.282633 0
M  V30 4952 C 453.232 2.18951 0.64311 0
M  V30 4953 C 454.21 1.15287 1.14664 0
M  V30 4954 O 455.394 1.43846 1.21822 0
M  V30 4955 C 452.521 2.81874 1.87789 0
M  V30 4956 C 451.567 3.98906 1.50919 0
M  V30 4957 S 452.4 5.3234 0.580884 0
M  V30 4958 C 453.556 5.98737 1.82387 0
M  V30 4959 H 453.789 2.97131 0.100138 0
M  V30 4960 H 451.322 1.54255 -0.0668514 0
M  V30 4961 H 453.28 3.18757 2.58658 0
M  V30 4962 H 451.941 2.03573 2.392 0
M  V30 4963 H 451.134 4.4165 2.42819 0
M  V30 4964 H 450.736 3.63485 0.88061 0
M  V30 4965 H 453.028 6.18427 2.76684 0
M  V30 4966 H 453.971 6.93318 1.4393 0
M  V30 4967 H 454.379 5.28177 1.99223 0
M  V30 4968 N 453.777 0.010035 1.57597 0
M  V30 4969 C 455.188 -0.531426 1.78977 0
M  V30 4970 C 455.539 -1.73375 0.918454 0
M  V30 4971 O 454.664 -2.16047 0.123635 0
M  V30 4972 C 455.259 -0.97086 3.24592 0
M  V30 4973 C 453.818 -1.45756 3.47033 0
M  V30 4974 C 452.965 -0.413384 2.74201 0
M  V30 4975 H 455.916 0.236166 1.56933 0
M  V30 4976 H 455.937 -1.83633 3.33255 0
M  V30 4977 H 455.449 -0.0955893 3.87982 0
M  V30 4978 H 453.55 -2.35339 2.88871 0
M  V30 4979 H 453.663 -1.4781 4.55729 0
M  V30 4980 H 452.027 -0.877266 2.39115 0
M  V30 4981 H 452.81 0.453092 3.40297 0
M  V30 4982 N 455.255 -1.55392 -0.262866 0
M  V30 4983 C 456.504 -1.75679 -0.990943 0
M  V30 4984 C 456.817 -0.57097 -1.87081 0
M  V30 4985 O 458.023 -0.656486 -2.63444 0
M  V30 4986 C 456.479 -3.10964 -1.81188 0
M  V30 4987 C 456.087 -4.37146 -0.980188 0
M  V30 4988 C 457.831 -3.40597 -2.53365 0
M  V30 4989 C 455.738 -5.63466 -1.7961 0
M  V30 4990 H 454.668 -0.654868 -0.373716 0
M  V30 4991 H 457.319 -1.81841 -0.246203 0
M  V30 4992 H 455.701 -2.98867 -2.59797 0
M  V30 4993 H 456.875 -4.60187 -0.237558 0
M  V30 4994 H 455.19 -4.14731 -0.372497 0
M  V30 4995 H 457.787 -4.32186 -3.14833 0
M  V30 4996 H 458.13 -2.6119 -3.24169 0
M  V30 4997 H 458.663 -3.53838 -1.81779 0
M  V30 4998 H 455.402 -6.4565 -1.13209 0
M  V30 4999 H 454.922 -5.44552 -2.51443 0
M  V30 5000 H 456.601 -6.02139 -2.36723 0
M  V30 5001 N 456.733 0.527833 -1.48498 0
M  V30 5002 C 457.961 1.30823 -1.6029 0
M  V30 5003 C 458.376 1.86945 -0.263974 0
M  V30 5004 O 457.733 1.6651 0.747034 0
M  V30 5005 C 457.784 2.45756 -2.65116 0
M  V30 5006 O 457.505 1.91946 -3.93813 0
M  V30 5007 C 459.006 3.37543 -2.87367 0
M  V30 5008 H 456.226 0.397763 -0.540394 0
M  V30 5009 H 458.77 0.636529 -1.94341 0
M  V30 5010 H 456.925 3.08806 -2.33917 0
M  V30 5011 H 457.339 2.67195 -4.51339 0
M  V30 5012 H 458.813 4.14532 -3.6451 0
M  V30 5013 H 459.29 3.92905 -1.9627 0
M  V30 5014 H 459.896 2.80283 -3.19878 0
M  V30 5015 N 458.211 1.37122 0.776871 0
M  V30 5016 C 459.46 1.31373 1.53049 0
M  V30 5017 C 459.773 -0.101016 1.95339 0
M  V30 5018 O 460.979 -0.280953 2.70042 0
M  V30 5019 C 459.435 2.30567 2.76346 0
M  V30 5020 C 459.043 3.77543 2.41175 0
M  V30 5021 C 460.787 2.33818 3.54301 0
M  V30 5022 C 458.694 4.68481 3.60943 0
M  V30 5023 H 457.624 0.488234 0.574581 0
M  V30 5024 H 460.275 1.62554 0.851372 0
M  V30 5025 H 458.657 1.92396 3.46121 0
M  V30 5026 H 459.831 4.24521 1.79216 0
M  V30 5027 H 458.146 3.77187 1.76405 0
M  V30 5028 H 460.743 2.98965 4.4331 0
M  V30 5029 H 461.086 1.3503 3.93793 0
M  V30 5030 H 461.619 2.7067 2.91518 0
M  V30 5031 H 458.358 5.68378 3.26537 0
M  V30 5032 H 457.878 4.2621 4.22025 0
M  V30 5033 H 459.557 4.85366 4.27819 0
M  V30 5034 N 459.689 -1.00246 1.21608 0
M  V30 5035 C 460.914 -1.78167 1.06167 0
M  V30 5036 C 461.339 -1.84138 -0.384035 0
M  V30 5037 O 460.697 -1.28683 -1.27712 0
M  V30 5038 C 460.745 -3.19786 1.66642 0
M  V30 5039 O 459.849 -4.02153 0.913613 0
M  V30 5040 H 459.19 -0.549 0.37349 0
M  V30 5041 H 461.72 -1.25994 1.61204 0
M  V30 5042 H 461.73 -3.70451 1.70969 0
M  V30 5043 H 460.405 -3.14754 2.7185 0
M  V30 5044 H 458.982 -3.60711 0.945635 0
M  V30 5045 N 461.167 -1.02423 -1.1978 0
M  V30 5046 C 462.392 -0.7373 -1.93852 0
M  V30 5047 C 462.817 0.696923 -1.74713 0
M  V30 5048 O 462.175 1.48056 -1.04638 0
M  V30 5049 C 462.223 -1.08783 -3.438 0
M  V30 5050 O 461.327 -0.20383 -4.11896 0
M  V30 5051 H 460.668 -0.27284 -0.605355 0
M  V30 5052 H 463.198 -1.36966 -1.51992 0
M  V30 5053 H 463.208 -1.04276 -3.9445 0
M  V30 5054 H 461.883 -2.13274 -3.57053 0
M  V30 5055 H 460.46 -0.307091 -3.71633 0
M  V30 5056 N 462.645 1.35699 -0.801477 0
M  V30 5057 C 463.894 1.98165 -0.375979 0
M  V30 5058 C 464.207 1.64306 1.06127 0
M  V30 5059 O 465.413 2.20097 1.58964 0
M  V30 5060 C 463.869 3.54497 -0.621305 0
M  V30 5061 C 463.477 3.9727 -2.07076 0
M  V30 5062 C 465.221 4.23697 -0.26091 0
M  V30 5063 C 463.128 5.46427 -2.26211 0
M  V30 5064 H 462.058 0.741478 -0.136844 0
M  V30 5065 H 464.709 1.54834 -0.984814 0
M  V30 5066 H 463.091 3.95958 0.0574112 0
M  V30 5067 H 464.265 3.66974 -2.78687 0
M  V30 5068 H 462.58 3.40943 -2.39054 0
M  V30 5069 H 465.177 5.33334 -0.381994 0
M  V30 5070 H 465.52 4.0869 0.792344 0
M  V30 5071 H 466.053 3.87639 -0.893339 0
M  V30 5072 H 462.792 5.66396 -3.29963 0
M  V30 5073 H 462.312 5.78309 -1.59119 0
M  V30 5074 H 463.991 6.12819 -2.07513 0
M  V30 5075 N 464.123 0.554532 1.47522 0
M  V30 5076 C 465.534 0.120446 1.86311 0
M  V30 5077 C 465.885 -1.30904 1.46145 0
M  V30 5078 O 465.01 -1.98434 0.863294 0
M  V30 5079 C 465.605 0.211808 3.38137 0
M  V30 5080 C 464.164 -0.167224 3.76028 0
M  V30 5081 C 463.311 0.560576 2.71575 0
M  V30 5082 H 466.262 0.764408 1.39077 0
M  V30 5083 H 466.283 -0.570275 3.76202 0
M  V30 5084 H 465.795 1.25232 3.6734 0
M  V30 5085 H 463.896 -1.20894 3.52442 0
M  V30 5086 H 464.009 0.189473 4.78725 0
M  V30 5087 H 462.373 0.00396836 2.547 0
M  V30 5088 H 463.156 1.60219 3.0362 0
M  V30 5089 N 465.601 -1.54893 0.290851 0
M  V30 5090 C 467.012 -1.85584 -0.203816 0
M  V30 5091 C 467.363 -1.21285 -1.54222 0
M  V30 5092 O 466.488 -0.506841 -2.10381 0
M  V30 5093 C 467.083 -3.367 -0.376595 0
M  V30 5094 C 465.642 -3.6746 -0.815485 0
M  V30 5095 C 464.789 -2.77178 0.0821087 0
M  V30 5096 H 467.74 -1.50208 0.512175 0
M  V30 5097 H 467.761 -3.60656 -1.21275 0
M  V30 5098 H 467.273 -3.8347 0.59767 0
M  V30 5099 H 465.374 -3.26201 -1.80066 0
M  V30 5100 H 465.487 -4.7478 -0.641905 0
M  V30 5101 H 463.851 -2.50925 -0.436895 0
M  V30 5102 H 464.634 -3.26767 1.05254 0
M  V30 5103 N 467.08 -0.0183926 -1.57589 0
M  V30 5104 C 468.012 0.995557 -2.06449 0
M  V30 5105 C 469.025 1.29556 -0.985849 0
M  V30 5106 O 470.214 1.2621 -1.26227 0
M  V30 5107 C 467.314 2.32572 -2.46502 0
M  V30 5108 C 466.487 2.21245 -3.77319 0
M  V30 5109 C 465.546 3.37104 -4.04039 0
M  V30 5110 O 464.572 3.14468 -4.74445 0
M  V30 5111 N 465.774 4.60553 -3.53372 0
M  V30 5112 H 468.539 0.578746 -2.94059 0
M  V30 5113 H 466.1 0.168603 -1.6102 0
M  V30 5114 H 468.092 3.08887 -2.61478 0
M  V30 5115 H 466.662 2.65931 -1.64315 0
M  V30 5116 H 465.882 1.29723 -3.72244 0
M  V30 5117 H 467.17 2.10868 -4.63047 0
M  V30 5118 H 466.568 4.81839 -2.96391 0
M  V30 5119 H 465.125 5.34072 -3.73644 0
M  V30 5120 N 468.558 1.5553 0.254621 0
M  V30 5121 C 469.786 1.81046 1.00149 0
M  V30 5122 C 470.201 0.593047 1.79244 0
M  V30 5123 O 469.558 -0.438196 1.77161 0
M  V30 5124 C 469.609 3.04684 1.94551 0
M  V30 5125 O 469.33 4.21725 1.18658 0
M  V30 5126 C 470.831 3.42943 2.80901 0
M  V30 5127 H 468.051 0.602653 0.295044 0
M  V30 5128 H 470.595 2.02576 0.279842 0
M  V30 5129 H 468.75 2.85226 2.62154 0
M  V30 5130 H 469.164 4.91746 1.82445 0
M  V30 5131 H 470.638 4.32576 3.42902 0
M  V30 5132 H 471.115 2.63176 3.51617 0
M  V30 5133 H 471.721 3.64724 2.18762 0
M  V30 5134 O 470.075 -0.400303 1.5646 0
M  V30 5135 H 470.766 -1.05256 1.62607 0
M  V30 END ATOM
M  V30 BEGIN BOND
M  V30 END BOND
M  V30 END CTAB
M  END
$$$$
