drugbank_target|P30901 D-lactate dehydrogenase (DB03940)
 OpenBabel12092120023D

  0  0  0     0  0            999 V3000
M  V30 BEGIN CTAB
M  V30 COUNTS 5319 5368 0 0 0
M  V30 BEGIN ATOM
M  V30 1 H -0.908 1.98254 -0.117106 0
M  V30 2 N 0 1.576 0 0
M  V30 3 C 0.933 2.03868 1.02534 0
M  V30 4 C 1.911 0.928543 1.3348 0
M  V30 5 O 3.095 1.19667 1.45644 0
M  V30 6 C 0.222 2.43627 2.35294 0
M  V30 7 C -0.732 3.65373 2.2001 0
M  V30 8 S 0.101 5.13292 1.52614 0
M  V30 9 C 1.257 5.56322 2.86805 0
M  V30 10 H 1.49 2.90518 0.631377 0
M  V30 11 H -0.977 1.52953 0.210867 0
M  V30 12 H 0.981 2.67203 3.11629 0
M  V30 13 H -0.358 1.57376 2.7183 0
M  V30 14 H -1.165 3.90944 3.18086 0
M  V30 15 H -1.563 3.418 1.51819 0
M  V30 16 H 0.729 5.58782 3.83104 0
M  V30 17 H 1.672 6.56266 2.65933 0
M  V30 18 H 2.08 4.83886 2.90714 0
M  V30 19 N 1.4781 -0.272755 1.55222 0
M  V30 20 C 2.7061 -1.02255 1.79865 0
M  V30 21 C 3.1211 -1.79924 0.572088 0
M  V30 22 O 2.4781 -1.76638 -0.458842 0
M  V30 23 C 2.5291 -1.98094 3.02392 0
M  V30 24 O 2.2501 -1.23572 4.20311 0
M  V30 25 C 3.7511 -2.84884 3.39641 0
M  V30 26 H 0.9711 -0.302057 0.599168 0
M  V30 27 H 3.5151 -0.303465 2.02236 0
M  V30 28 H 1.6701 -2.65465 2.82147 0
M  V30 29 H 2.0841 -1.88172 4.89583 0
M  V30 30 H 3.5581 -3.47927 4.28545 0
M  V30 31 H 4.0351 -3.54665 2.59055 0
M  V30 32 H 4.6411 -2.23003 3.62146 0
M  V30 33 N 2.9562 -1.48159 -0.537278 0
M  V30 34 C 3.9032 -1.62138 -1.64256 0
M  V30 35 C 4.8732 -0.463668 -1.59497 0
M  V30 36 O 6.0582 -0.686241 -1.78032 0
M  V30 37 C 3.1982 -1.66028 -3.02537 0
M  V30 38 C 2.3112 -2.92855 -3.17585 0
M  V30 39 C 1.4462 -2.87952 -4.46382 0
M  V30 40 C 0.4852 -4.09516 -4.54932 0
M  V30 41 N -0.3778 -4.02733 -5.75109 0
M  V30 42 H 4.4622 -2.56529 -1.51647 0
M  V30 43 H 1.9992 -1.27224 -0.738414 0
M  V30 44 H 3.9572 -1.66265 -3.82638 0
M  V30 45 H 2.5872 -0.751331 -3.13934 0
M  V30 46 H 1.6392 -3.02395 -2.30784 0
M  V30 47 H 2.9512 -3.82822 -3.19764 0
M  V30 48 H 2.1052 -2.8655 -5.34765 0
M  V30 49 H 0.8442 -1.95702 -4.46712 0
M  V30 50 H -0.1508 -4.11201 -3.64957 0
M  V30 51 H 1.0742 -5.02917 -4.56346 0
M  V30 52 H -0.9798 -3.13299 -5.76351 0
M  V30 53 H -1.0628 -4.86397 -5.78752 0
M  V30 54 H 0.2052 -4.05379 -6.65799 0
M  V30 55 N 4.4343 0.785586 -1.36625 0
M  V30 56 C 5.6803 1.54591 -1.31261 0
M  V30 57 C 6.0133 1.93906 0.106823 0
M  V30 58 O 5.2883 1.63007 1.06108 0
M  V30 59 C 5.5713 2.82038 -2.23889 0
M  V30 60 C 5.4243 2.49066 -3.74548 0
M  V30 61 C 6.7433 3.83887 -2.15217 0
M  V30 62 H 3.8623 0.560846 -0.478143 0
M  V30 63 H 6.5043 0.902278 -1.67209 0
M  V30 64 H 4.6543 3.36961 -1.93363 0
M  V30 65 H 6.3263 2.00164 -4.15611 0
M  V30 66 H 4.5693 1.81954 -3.93796 0
M  V30 67 H 5.2403 3.40109 -4.34776 0
M  V30 68 H 7.7163 3.38421 -2.42096 0
M  V30 69 H 6.5923 4.70806 -2.82193 0
M  V30 70 H 6.8533 4.27131 -1.14068 0
M  V30 71 N 5.9124 1.20967 1.01018 0
M  V30 72 C 7.1594 1.02374 1.74716 0
M  V30 73 C 7.4874 -0.443375 1.89379 0
M  V30 74 O 6.7424 -1.34535 1.42123 0
M  V30 75 C 7.0414 1.65997 3.16512 0
M  V30 76 C 6.7074 3.15831 3.2181 0
M  V30 77 C 5.3694 3.56719 3.22963 0
M  V30 78 C 7.7214 4.11816 3.19464 0
M  V30 79 C 5.0494 4.92107 3.19449 0
M  V30 80 C 7.4014 5.47158 3.17491 0
M  V30 81 C 6.0654 5.87451 3.16951 0
M  V30 82 H 5.3354 0.374614 0.639332 0
M  V30 83 H 7.9824 1.50485 1.18434 0
M  V30 84 H 6.2874 1.10166 3.75993 0
M  V30 85 H 7.9844 1.49119 3.72242 0
M  V30 86 H 4.5744 2.83263 3.21652 0
M  V30 87 H 8.7584 3.81257 3.17737 0
M  V30 88 H 4.0144 5.22579 3.17366 0
M  V30 89 H 8.1884 6.21274 3.14629 0
M  V30 90 H 5.8154 6.92329 3.13983 0
M  V30 91 N 7.3905 -1.2043 1.01659 0
M  V30 92 C 8.3535 -2.21433 0.591616 0
M  V30 93 C 9.3535 -1.57203 -0.338226 0
M  V30 94 O 10.5435 -1.73737 -0.126918 0
M  V30 95 C 7.6755 -3.40628 -0.136058 0
M  V30 96 H 8.8685 -2.60545 1.48514 0
M  V30 97 H 6.4215 -1.33893 0.806379 0
M  V30 98 H 7.1565 -3.07019 -1.04449 0
M  V30 99 H 6.9415 -3.88475 0.531917 0
M  V30 100 H 8.4315 -4.15475 -0.420735 0
M  V30 101 N 8.8686 -0.792821 -1.36206 0
M  V30 102 C 10.0986 -0.378275 -2.03107 0
M  V30 103 C 10.5066 1.01119 -1.59911 0
M  V30 104 O 9.8496 1.66052 -0.785658 0
M  V30 105 C 9.9116 -0.366535 -3.57627 0
M  V30 106 C 9.5756 -1.70416 -4.24037 0
M  V30 107 C 10.5726 -2.6602 -4.46687 0
M  V30 108 C 8.2576 -1.98439 -4.6144 0
M  V30 109 C 10.2516 -3.8784 -5.05825 0
M  V30 110 C 7.9386 -3.20525 -5.20295 0
M  V30 111 C 8.9366 -4.15044 -5.42427 0
M  V30 112 O 8.6246 -5.34978 -6.00045 0
M  V30 113 H 8.3566 -0.153543 -0.658332 0
M  V30 114 H 10.9106 -1.07383 -1.75094 0
M  V30 115 H 9.1406 0.385539 -3.84773 0
M  V30 116 H 10.8296 0.0238088 -4.05893 0
M  V30 117 H 11.5956 -2.45658 -4.18183 0
M  V30 118 H 7.4746 -1.25686 -4.43536 0
M  V30 119 H 11.0186 -4.61628 -5.23015 0
M  V30 120 H 6.9156 -3.40764 -5.48225 0
M  V30 121 H 7.6836 -5.36088 -6.18508 0
M  V30 122 N 10.3467 1.47872 -0.545128 0
M  V30 123 C 11.3097 2.28337 0.198717 0
M  V30 124 C 12.3097 1.36255 0.853888 0
M  V30 125 O 13.4997 1.59003 0.711606 0
M  V30 126 C 10.6317 3.15585 1.28915 0
M  V30 127 H 11.8247 2.95567 -0.507941 0
M  V30 128 H 9.3777 1.53362 -0.301616 0
M  V30 129 H 10.1127 2.53019 2.02859 0
M  V30 130 H 9.8977 3.83337 0.824309 0
M  V30 131 H 11.3877 3.76243 1.81194 0
M  V30 132 N 11.8248 0.280983 1.55075 0
M  V30 133 C 13.0738 -0.334784 1.98902 0
M  V30 134 C 13.3868 -1.56534 1.17288 0
M  V30 135 O 14.5928 -2.25443 1.51287 0
M  V30 136 C 13.0488 -0.646994 3.54037 0
M  V30 137 C 12.6568 0.564085 4.44435 0
M  V30 138 C 14.4008 -1.22506 4.06439 0
M  V30 139 C 12.3078 0.226137 5.90967 0
M  V30 140 H 11.2378 -0.128866 0.742906 0
M  V30 141 H 13.8888 0.386556 1.79382 0
M  V30 142 H 12.2708 -1.42739 3.6938 0
M  V30 143 H 13.4448 1.34082 4.40861 0
M  V30 144 H 11.7598 1.0594 4.02698 0
M  V30 145 H 14.3568 -1.49182 5.13468 0
M  V30 146 H 14.6998 -2.16085 3.55827 0
M  V30 147 H 15.2328 -0.50682 3.94558 0
M  V30 148 H 11.9718 1.12996 6.45687 0
M  V30 149 H 11.4918 -0.513717 5.97596 0
M  V30 150 H 13.1708 -0.179539 6.46751 0
M  V30 151 N 13.3029 -1.57598 0.00835791 0
M  V30 152 C 14.7189 -1.55764 -0.347822 0
M  V30 153 C 14.9189 -1.01186 -1.74252 0
M  V30 154 O 13.9749 -0.649371 -2.44007 0
M  V30 155 C 15.2879 -2.99927 -0.215407 0
M  V30 156 C 16.8359 -3.11656 -0.289725 0
M  V30 157 C 17.3109 -4.57621 -0.18634 0
M  V30 158 N 18.8019 -4.62557 -0.243978 0
M  V30 159 C 19.5369 -5.73094 -0.18745 0
M  V30 160 N 19.0329 -6.92753 -0.0810331 0
M  V30 161 N 20.8259 -5.61588 -0.239925 0
M  V30 162 H 12.9769 -1.91411 0.92062 0
M  V30 163 H 15.2399 -0.879562 0.353659 0
M  V30 164 H 14.9459 -3.43729 0.744512 0
M  V30 165 H 14.8199 -3.63865 -0.994097 0
M  V30 166 H 17.2069 -2.67779 -1.24009 0
M  V30 167 H 17.2879 -2.5048 0.51898 0
M  V30 168 H 16.9319 -5.02174 0.760519 0
M  V30 169 H 16.8619 -5.16752 -1.01364 0
M  V30 170 H 19.3529 -3.76481 -0.327217 0
M  V30 171 H 19.6659 -7.72787 -0.0440241 0
M  V30 172 H 18.0109 -6.94984 -0.0465419 0
M  V30 173 H 21.2019 -4.66996 -0.321317 0
M  V30 174 H 21.3749 -6.47714 -0.192407 0
M  V30 175 N 14.781 0.264519 -1.55364 0
M  V30 176 C 15.728 1.32717 -1.88825 0
M  V30 177 C 16.698 1.48675 -0.740605 0
M  V30 178 O 17.883 1.62945 -0.992657 0
M  V30 179 C 15.023 2.68089 -2.17307 0
M  V30 180 C 14.136 2.60284 -3.44785 0
M  V30 181 C 13.271 3.87892 -3.62924 0
M  V30 182 C 12.31 3.74631 -4.84064 0
M  V30 183 N 11.447 4.94092 -4.98816 0
M  V30 184 H 16.287 1.03481 -2.79456 0
M  V30 185 H 13.824 0.499757 -1.3835 0
M  V30 186 H 15.782 3.46864 -2.31821 0
M  V30 187 H 14.412 2.95509 -1.299 0
M  V30 188 H 13.464 1.73173 -3.38697 0
M  V30 189 H 14.776 2.46388 -4.33698 0
M  V30 190 H 13.93 4.75109 -3.77302 0
M  V30 191 H 12.669 4.04664 -2.7221 0
M  V30 192 H 11.674 2.85797 -4.69681 0
M  V30 193 H 12.899 3.5937 -5.76221 0
M  V30 194 H 10.845 5.11259 -4.11036 0
M  V30 195 H 10.762 4.8276 -5.81789 0
M  V30 196 H 12.03 5.82857 -5.17588 0
M  V30 197 N 16.2591 1.48442 0.529413 0
M  V30 198 C 17.5361 1.46978 1.29062 0
M  V30 199 C 17.9161 0.181769 2.10316 0
M  V30 200 O 17.2641 -0.836481 2.12639 0
M  V30 201 C 17.4741 2.7321 2.17157 0
M  V30 202 C 18.8221 3.21562 2.77278 0
M  V30 203 O 19.8461 2.74131 2.27444 0
M  V30 204 O 18.7051 4.04094 3.67927 0
M  V30 205 H 15.7991 0.587003 0.582543 0
M  V30 206 H 18.3451 1.60676 0.546021 0
M  V30 207 H 17.1171 3.58465 1.56903 0
M  V30 208 H 16.7401 2.62235 2.98862 0
M  V30 209 N 17.7372 -0.778329 1.37039 0
M  V30 210 C 18.6472 -1.92253 1.34446 0
M  V30 211 C 19.6632 -1.72267 0.244991 0
M  V30 212 O 20.8392 -1.95615 0.479258 0
M  V30 213 C 17.9042 -3.27282 1.144 0
M  V30 214 C 16.9652 -3.59969 2.33925 0
M  V30 215 C 16.1982 -4.88555 2.14825 0
M  V30 216 O 16.4212 -5.59113 1.12912 0
M  V30 217 O 15.3552 -5.20153 3.02861 0
M  V30 218 H 19.1812 -1.97392 2.30803 0
M  V30 219 H 16.7662 -0.920154 1.17701 0
M  V30 220 H 18.6482 -4.08062 1.05182 0
M  V30 221 H 17.3232 -3.23011 0.211124 0
M  V30 222 H 16.2302 -2.7945 2.48714 0
M  V30 223 H 17.5632 -3.68976 3.25757 0
M  V30 224 N 19.2153 -1.21501 -1.00376 0
M  V30 225 C 20.1253 -0.991447 -2.12621 0
M  V30 226 C 21.1413 0.0568446 -1.73907 0
M  V30 227 O 22.3173 -0.13348 -2.00957 0
M  V30 228 C 19.3823 -0.560312 -3.42142 0
M  V30 229 C 18.4433 -1.68096 -3.95022 0
M  V30 230 C 17.6763 -1.2703 -5.18362 0
M  V30 231 O 17.8993 -0.144438 -5.70217 0
M  V30 232 O 16.8333 -2.08269 -5.64719 0
M  V30 233 H 20.6593 -1.93158 -2.34358 0
M  V30 234 H 18.2443 -0.999999 -1.10997 0
M  V30 235 H 20.1263 -0.329724 -4.20108 0
M  V30 236 H 18.8013 0.351089 -3.2179 0
M  V30 237 H 17.7083 -1.96597 -3.18278 0
M  V30 238 H 19.0413 -2.56983 -4.19786 0
M  V30 239 N 20.6934 1.19889 -1.02296 0
M  V30 240 C 22.1044 1.71124 -0.746568 0
M  V30 241 C 22.4554 1.81939 0.734335 0
M  V30 242 O 21.5804 1.48639 1.57275 0
M  V30 243 C 22.1754 3.10804 -1.34857 0
M  V30 244 C 20.7344 3.59323 -1.1209 0
M  V30 245 C 19.8814 2.3635 -1.45031 0
M  V30 246 H 22.8324 1.04813 -1.19163 0
M  V30 247 H 22.8534 3.73186 -0.742437 0
M  V30 248 H 22.3654 3.029 -2.42638 0
M  V30 249 H 20.4664 3.7255 -0.0610337 0
M  V30 250 H 20.5794 4.4378 -1.80544 0
M  V30 251 H 18.9434 2.39399 -0.869487 0
M  V30 252 H 19.7264 2.31081 -2.53883 0
M  V30 253 N 22.1715 0.800033 1.35784 0
M  V30 254 C 23.4185 0.377342 1.98953 0
M  V30 255 C 23.7465 -1.05378 1.6348 0
M  V30 256 O 23.0015 -1.74459 0.886707 0
M  V30 257 C 23.3005 0.500276 3.53881 0
M  V30 258 C 22.9665 1.89375 4.09204 0
M  V30 259 C 21.6285 2.27499 4.24025 0
M  V30 260 C 23.9805 2.8057 4.39238 0
M  V30 261 C 21.3085 3.562 4.66195 0
M  V30 262 C 23.6605 4.0871 4.82844 0
M  V30 263 C 22.3245 4.46843 4.95871 0
M  V30 264 H 21.5945 0.138079 0.728021 0
M  V30 265 H 24.2415 1.01955 1.62103 0
M  V30 266 H 22.5465 -0.225405 3.91151 0
M  V30 267 H 24.2435 0.154097 4.00704 0
M  V30 268 H 20.8335 1.58753 3.98115 0
M  V30 269 H 25.0175 2.52367 4.27346 0
M  V30 270 H 20.2735 3.85602 4.74469 0
M  V30 271 H 24.4475 4.79481 5.05046 0
M  V30 272 H 22.0745 5.46623 5.28306 0
M  V30 273 N 23.6496 -1.47581 0.552962 0
M  V30 274 C 24.5796 -2.32762 -0.185451 0
M  V30 275 C 25.5606 -1.43527 -0.912905 0
M  V30 276 O 26.7456 -1.72388 -0.894201 0
M  V30 277 C 23.8756 -3.25219 -1.21859 0
M  V30 278 C 22.8296 -4.23661 -0.607864 0
M  V30 279 C 22.1556 -5.05413 -1.74533 0
M  V30 280 C 23.4556 -5.20481 0.435582 0
M  V30 281 H 25.1496 -2.94749 0.525684 0
M  V30 282 H 22.6956 -1.41738 0.254251 0
M  V30 283 H 24.6486 -3.8365 -1.7433 0
M  V30 284 H 23.3726 -2.61279 -1.95961 0
M  V30 285 H 22.0316 -3.66451 -0.104489 0
M  V30 286 H 21.6796 -4.3788 -2.47529 0
M  V30 287 H 21.3796 -5.72059 -1.34249 0
M  V30 288 H 22.9036 -5.66701 -2.27338 0
M  V30 289 H 24.3176 -5.733 -0.00290157 0
M  V30 290 H 22.7146 -5.95305 0.757067 0
M  V30 291 H 23.7846 -4.66217 1.33303 0
M  V30 292 N 25.1277 -0.289203 -1.54924 0
M  V30 293 C 26.0757 0.607966 -2.24514 0
M  V30 294 C 27.0697 1.14655 -1.24702 0
M  V30 295 O 28.2757 1.09856 -1.4259 0
M  V30 296 H 24.6507 0.21464 -0.720718 0
M  V30 297 H 26.6217 -0.00164182 -2.984 0
M  V30 298 C 25.3707 1.77406 -2.99036 0
M  V30 299 H 24.6937 1.36884 -3.75637 0
M  V30 300 H 26.1337 2.37814 -3.51028 0
M  V30 301 C 24.5927 2.67107 -2.05318 0
M  V30 302 O 25.1227 3.6787 -1.61353 0
M  V30 303 N 23.3287 2.34582 -1.71521 0
M  V30 304 H 22.8757 1.52688 -2.07471 0
M  V30 305 H 22.8337 2.94867 -1.0909 0
M  V30 306 N 26.6058 1.57591 -0.0167156 0
M  V30 307 C 27.5158 2.1291 0.98521 0
M  V30 308 C 28.5318 1.07834 1.36557 0
M  V30 309 O 29.7078 1.39826 1.44951 0
M  V30 310 C 26.7728 2.63512 2.25305 0
M  V30 311 C 25.8338 3.83256 1.93426 0
M  V30 312 C 25.0668 4.31435 3.14165 0
M  V30 313 O 25.2898 3.78851 4.26413 0
M  V30 314 O 24.2238 5.23416 2.97186 0
M  V30 315 H 28.0498 2.98772 0.544888 0
M  V30 316 H 25.6348 1.48012 0.203141 0
M  V30 317 H 27.5168 2.96183 2.99756 0
M  V30 318 H 26.1918 1.8074 2.68542 0
M  V30 319 H 25.0988 3.55531 1.16398 0
M  V30 320 H 26.4318 4.67153 1.55013 0
M  V30 321 N 28.0839 -0.256276 1.55502 0
M  V30 322 C 29.3299 -0.982884 1.78076 0
M  V30 323 C 29.6849 -1.83319 0.584109 0
M  V30 324 O 28.9779 -1.86875 -0.422877 0
M  V30 325 C 29.1719 -1.88432 3.03691 0
M  V30 326 C 29.0009 -1.12276 4.35459 0
M  V30 327 C 27.7709 -0.831647 4.98409 0
M  V30 328 C 29.9689 -0.504933 5.11815 0
M  V30 329 N 27.9509 -0.0450423 6.13883 0
M  V30 330 C 29.3219 0.146696 6.19826 0
M  V30 331 C 31.3769 -0.414455 4.96172 0
M  V30 332 C 30.0799 0.880103 7.13895 0
M  V30 333 C 32.1059 0.305398 5.90611 0
M  V30 334 C 31.4679 0.945701 6.98023 0
M  V30 335 H 27.5669 -0.341084 0.703694 0
M  V30 336 H 30.1509 -0.256909 1.92998 0
M  V30 337 H 28.3219 -2.58241 2.90114 0
M  V30 338 H 30.0539 -2.54579 3.14598 0
M  V30 339 H 26.8089 -1.14111 4.59647 0
M  V30 340 H 27.2329 0.336079 6.76165 0
M  V30 341 H 31.8749 -0.895163 4.13215 0
M  V30 342 H 29.5929 1.37244 7.9636 0
M  V30 343 H 33.1789 0.375946 5.80584 0
M  V30 344 H 32.0589 1.49383 7.6984 0
M  V30 345 N 29.562 -1.4872 -0.521534 0
M  V30 346 C 30.509 -1.63871 -1.62527 0
M  V30 347 C 31.479 -0.480559 -1.58996 0
M  V30 348 O 32.664 -0.705085 -1.77294 0
M  V30 349 C 29.804 -1.69227 -3.00759 0
M  V30 350 C 28.917 -2.96207 -3.14461 0
M  V30 351 C 28.052 -2.92671 -4.43303 0
M  V30 352 C 27.091 -4.14318 -4.50563 0
M  V30 353 N 26.228 -4.0881 -5.70805 0
M  V30 354 H 31.068 -2.58123 -1.48918 0
M  V30 355 H 28.605 -1.28 -0.724878 0
M  V30 356 H 30.563 -1.70314 -3.80853 0
M  V30 357 H 29.193 -0.784586 -3.1312 0
M  V30 358 H 28.245 -3.04826 -2.27564 0
M  V30 359 H 29.557 -3.86192 -3.15686 0
M  V30 360 H 28.711 -2.92206 -5.31696 0
M  V30 361 H 27.45 -2.00429 -4.44612 0
M  V30 362 H 26.455 -4.15049 -3.60575 0
M  V30 363 H 27.68 -5.07729 -4.50986 0
M  V30 364 H 25.626 -3.19394 -5.72995 0
M  V30 365 H 25.543 -4.92509 -5.7356 0
M  V30 366 H 26.811 -4.12418 -6.61462 0
M  V30 367 N 31.0401 0.771051 -1.3745 0
M  V30 368 C 31.9501 1.91538 -1.35464 0
M  V30 369 C 32.9661 1.72134 -0.254123 0
M  V30 370 O 34.1421 1.95358 -0.489626 0
M  V30 371 C 31.2071 3.26671 -1.16134 0
M  V30 372 C 30.2681 3.58723 -2.35831 0
M  V30 373 C 29.5011 4.87409 -2.17413 0
M  V30 374 O 29.7241 5.58506 -1.15876 0
M  V30 375 O 28.6581 5.18539 -3.05615 0
M  V30 376 H 32.4841 1.96165 -2.31847 0
M  V30 377 H 30.0691 0.9139 -1.18187 0
M  V30 378 H 31.9511 4.07499 -1.07345 0
M  V30 379 H 30.6261 3.22894 -0.228251 0
M  V30 380 H 29.5331 2.78127 -2.50192 0
M  V30 381 H 30.8661 3.67243 -3.27709 0
M  V30 382 N 32.5182 1.22032 0.997298 0
M  V30 383 C 33.4812 0.987909 2.06816 0
M  V30 384 C 34.4812 -0.0440084 1.6074 0
M  V30 385 O 35.6712 0.194053 1.73116 0
M  V30 386 C 32.8032 0.49132 3.37341 0
M  V30 387 H 33.9962 1.93803 2.28868 0
M  V30 388 H 31.5492 1.03838 1.16822 0
M  V30 389 H 32.2842 -0.463364 3.20973 0
M  V30 390 H 32.0692 1.23575 3.72118 0
M  V30 391 H 33.5592 0.348824 4.16141 0
M  V30 392 N 33.9963 -1.19345 1.0293 0
M  V30 393 C 34.9463 -2.20472 0.58104 0
M  V30 394 C 35.9303 -1.56578 -0.370442 0
M  V30 395 O 37.1223 -1.75963 -0.191344 0
M  V30 396 C 34.2513 -3.43236 -0.066306 0
M  V30 397 C 33.3373 -4.14274 0.907642 0
M  V30 398 N 33.7283 -4.61492 2.07023 0
M  V30 399 C 32.0263 -4.39966 0.731177 0
M  V30 400 C 32.7273 -5.1605 2.68454 0
M  V30 401 N 31.7033 -5.06875 1.96414 0
M  V30 402 H 35.5053 -2.54659 1.46717 0
M  V30 403 H 33.0193 -1.35423 0.896345 0
M  V30 404 H 35.0163 -4.14927 -0.405068 0
M  V30 405 H 33.6763 -3.10549 -0.948118 0
M  V30 406 H 34.6873 -4.56304 2.44963 0
M  V30 407 H 31.3643 -4.17377 -0.101507 0
M  V30 408 H 32.7543 -5.6287 3.66915 0
M  V30 409 N 35.4744 -0.807222 -1.35358 0
M  V30 410 C 36.4214 -0.216037 -2.29787 0
M  V30 411 C 37.3914 0.650278 -1.52842 0
M  V30 412 O 38.5764 0.595227 -1.81278 0
M  V30 413 C 35.7164 0.628893 -3.39321 0
M  V30 414 C 34.8294 -0.257927 -4.31229 0
M  V30 415 C 33.9644 0.595069 -5.27856 0
M  V30 416 C 33.0034 -0.292111 -6.11403 0
M  V30 417 N 32.1404 0.520895 -7.00165 0
M  V30 418 H 36.9804 -1.02671 -2.79755 0
M  V30 419 H 34.5174 -0.517839 -1.37684 0
M  V30 420 H 36.4754 1.13393 -4.01494 0
M  V30 421 H 35.1054 1.40482 -2.90628 0
M  V30 422 H 34.1574 -0.881076 -3.70056 0
M  V30 423 H 35.4694 -0.940759 -4.89848 0
M  V30 424 H 34.6234 1.16522 -5.95405 0
M  V30 425 H 33.3624 1.31146 -4.69736 0
M  V30 426 H 32.3674 -0.874525 -5.428 0
M  V30 427 H 33.5924 -1.00638 -6.71602 0
M  V30 428 H 31.5384 1.22125 -6.44532 0
M  V30 429 H 31.4554 -0.103877 -7.55929 0
M  V30 430 H 32.7234 1.0743 -7.72062 0
M  V30 431 N 36.9525 1.47285 -0.560781 0
M  V30 432 C 38.2295 1.9558 0.0277798 0
M  V30 433 C 38.6095 1.5034 1.48192 0
M  V30 434 O 37.9575 0.743882 2.16052 0
M  V30 435 C 38.1675 3.48789 -0.121418 0
M  V30 436 C 39.5155 4.24594 0.0220912 0
M  V30 437 O 40.5395 3.56166 -0.0491439 0
M  V30 438 O 39.3985 5.46217 0.175958 0
M  V30 439 H 36.4925 0.824663 0.0621342 0
M  V30 440 H 39.0385 1.5767 -0.627556 0
M  V30 441 H 37.8105 3.74533 -1.13316 0
M  V30 442 H 37.4335 3.93473 0.571366 0
M  V30 443 N 38.4306 0.297415 1.54768 0
M  V30 444 C 39.6796 -0.313669 1.99246 0
M  V30 445 C 39.9926 -1.55281 1.18942 0
M  V30 446 O 41.1986 -2.23825 1.5367 0
M  V30 447 C 39.6546 -0.609407 3.54703 0
M  V30 448 C 39.2626 0.611192 4.43811 0
M  V30 449 C 41.0066 -1.18188 4.07715 0
M  V30 450 C 38.9136 0.288805 5.90694 0
M  V30 451 H 37.8436 -0.120979 0.744231 0
M  V30 452 H 40.4946 0.40556 1.78962 0
M  V30 453 H 38.8766 -1.38813 3.70873 0
M  V30 454 H 40.0506 1.3875 4.39414 0
M  V30 455 H 38.3656 1.10205 4.01552 0
M  V30 456 H 40.9626 -1.43727 5.15021 0
M  V30 457 H 41.3056 -2.12299 3.58099 0
M  V30 458 H 41.8386 -0.464944 3.95074 0
M  V30 459 H 38.5776 1.19838 6.44453 0
M  V30 460 H 38.0976 -0.450305 5.98107 0
M  V30 461 H 39.7766 -0.110933 6.46905 0
M  V30 462 N 39.9087 -1.5758 0.0250728 0
M  V30 463 C 41.1857 -1.82917 -0.692873 0
M  V30 464 C 41.5657 -0.908137 -1.90568 0
M  V30 465 O 40.9137 0.0372298 -2.2847 0
M  V30 466 C 41.1237 -3.32034 -1.07492 0
M  V30 467 C 42.4717 -3.98406 -1.46826 0
M  V30 468 O 43.4957 -3.36505 -1.16801 0
M  V30 469 O 42.3547 -5.07497 -2.02754 0
M  V30 470 H 39.4487 -0.754079 -0.33955 0
M  V30 471 H 41.9947 -1.69619 0.0524456 0
M  V30 472 H 40.7667 -3.90728 -0.211552 0
M  V30 473 H 40.3897 -3.50424 -1.87854 0
M  V30 474 N 41.3868 0.248026 -1.55636 0
M  V30 475 C 42.6328 0.97767 -1.77678 0
M  V30 476 C 42.9658 1.85016 -0.590135 0
M  V30 477 O 42.2408 1.90095 0.411611 0
M  V30 478 C 42.5238 1.83914 -3.09593 0
M  V30 479 C 42.3768 0.99491 -4.38659 0
M  V30 480 C 43.6958 2.82183 -3.37729 0
M  V30 481 H 40.8148 0.354005 -0.646413 0
M  V30 482 H 43.4568 0.248253 -1.88371 0
M  V30 483 H 41.6068 2.46104 -3.00608 0
M  V30 484 H 43.2788 0.391789 -4.59633 0
M  V30 485 H 41.5218 0.299231 -4.32767 0
M  V30 486 H 42.1928 1.63145 -5.2734 0
M  V30 487 H 44.6688 2.30129 -3.4667 0
M  V30 488 H 43.5448 3.39582 -4.31249 0
M  V30 489 H 43.8058 3.58588 -2.58586 0
M  V30 490 N 42.8649 1.48995 0.513639 0
M  V30 491 C 44.1419 1.48338 1.27495 0
M  V30 492 C 44.5219 0.204065 2.10111 0
M  V30 493 O 43.8699 -0.813881 2.13514 0
M  V30 494 C 44.0799 2.75498 2.14247 0
M  V30 495 C 45.4279 3.24484 2.73852 0
M  V30 496 O 46.4519 2.76528 2.24523 0
M  V30 497 O 45.3109 4.07974 3.6362 0
M  V30 498 H 42.4049 0.593149 0.576284 0
M  V30 499 H 44.9509 1.61246 0.528948 0
M  V30 500 H 43.7229 3.60109 1.53092 0
M  V30 501 H 43.3459 2.6539 2.96064 0
M  V30 502 N 44.343 -0.763751 1.37857 0
M  V30 503 C 45.573 -1.55067 1.3652 0
M  V30 504 C 45.981 -1.89135 -0.0494227 0
M  V30 505 O 45.324 -1.52529 -1.02375 0
M  V30 506 C 45.386 -2.8838 2.14656 0
M  V30 507 C 45.05 -2.76905 3.63555 0
M  V30 508 C 46.047 -2.4739 4.57268 0
M  V30 509 C 43.732 -2.94676 4.06781 0
M  V30 510 C 45.726 -2.35786 5.92186 0
M  V30 511 C 43.413 -2.82692 5.41782 0
M  V30 512 C 44.411 -2.53289 6.34298 0
M  V30 513 O 44.099 -2.41345 7.66817 0
M  V30 514 H 43.831 -0.486776 0.469069 0
M  V30 515 H 46.385 -0.953812 1.81911 0
M  V30 516 H 44.615 -3.50217 1.63967 0
M  V30 517 H 46.304 -3.49828 2.05852 0
M  V30 518 H 47.07 -2.33339 4.2518 0
M  V30 519 H 42.949 -3.16563 3.35126 0
M  V30 520 H 46.493 -2.12757 6.64365 0
M  V30 521 H 42.39 -2.96314 5.7347 0
M  V30 522 H 43.158 -2.56634 7.77226 0
M  V30 523 N 45.8211 -1.22559 -0.990812 0
M  V30 524 C 47.0491 -1.07779 -1.76611 0
M  V30 525 C 47.4641 0.371513 -1.85109 0
M  V30 526 O 46.8211 1.25737 -1.32274 0
M  V30 527 C 46.8721 -1.68512 -3.19822 0
M  V30 528 O 46.5931 -3.07774 -3.1178 0
M  V30 529 C 48.0941 -1.59035 -4.13791 0
M  V30 530 H 45.3141 -0.377729 -0.554583 0
M  V30 531 H 47.8581 -1.62195 -1.24551 0
M  V30 532 H 46.0131 -1.18154 -3.68942 0
M  V30 533 H 46.4271 -3.37062 -4.01858 0
M  V30 534 H 47.9011 -2.0625 -5.1202 0
M  V30 535 H 48.3781 -0.547273 -4.35777 0
M  V30 536 H 48.9841 -2.08709 -3.70568 0
M  V30 537 N 47.2992 1.18797 -1.03562 0
M  V30 538 C 48.5762 1.84469 -0.650434 0
M  V30 539 C 48.9562 1.92319 0.870433 0
M  V30 540 O 48.3042 1.44528 1.76986 0
M  V30 541 C 48.5142 3.2306 -1.32036 0
M  V30 542 C 49.8622 3.9915 -1.44792 0
M  V30 543 O 50.8862 3.32481 -1.27806 0
M  V30 544 O 49.7452 5.18587 -1.72423 0
M  V30 545 H 46.8392 0.795251 -0.226946 0
M  V30 546 H 49.3852 1.26231 -1.13419 0
M  V30 547 H 48.1572 3.1222 -2.3587 0
M  V30 548 H 47.7802 3.88949 -0.8249 0
M  V30 549 N 48.7773 0.814389 1.34928 0
M  V30 550 C 49.7243 0.22822 2.29669 0
M  V30 551 C 50.6943 -0.642164 1.53184 0
M  V30 552 O 51.8793 -0.585605 1.81591 0
M  V30 553 C 49.0193 -0.61089 3.3965 0
M  V30 554 C 48.1323 0.280792 4.31086 0
M  V30 555 C 47.2673 -0.567067 5.28165 0
M  V30 556 C 46.3063 0.324531 6.11239 0
M  V30 557 N 45.4433 -0.483756 7.00431 0
M  V30 558 H 50.2833 1.04153 2.79206 0
M  V30 559 H 47.8203 0.525133 1.37407 0
M  V30 560 H 49.7783 -1.11263 4.0209 0
M  V30 561 H 48.4083 -1.38939 2.91369 0
M  V30 562 H 47.4603 0.900688 3.69583 0
M  V30 563 H 48.7723 0.966723 4.89342 0
M  V30 564 H 47.9263 -1.13363 5.96015 0
M  V30 565 H 46.6653 -1.28654 4.70425 0
M  V30 566 H 45.6703 0.903298 5.42329 0
M  V30 567 H 46.8953 1.04198 6.71059 0
M  V30 568 H 44.8413 -1.18706 6.45171 0
M  V30 569 H 44.7583 0.143965 7.55863 0
M  V30 570 H 46.0263 -1.03334 7.7262 0
M  V30 571 N 50.2554 -1.46986 0.568584 0
M  V30 572 C 51.1854 -2.32946 -0.160753 0
M  V30 573 C 52.1664 -1.44487 -0.897631 0
M  V30 574 O 53.3514 -1.73327 -0.875867 0
M  V30 575 C 50.4814 -3.26494 -1.18403 0
M  V30 576 C 49.4354 -4.24282 -0.562895 0
M  V30 577 C 48.7614 -5.07236 -1.69163 0
M  V30 578 C 50.0614 -5.19989 0.490761 0
M  V30 579 H 51.7554 -2.94175 0.556916 0
M  V30 580 H 49.3014 -1.4146 0.26927 0
M  V30 581 H 51.2544 -3.85477 -1.70251 0
M  V30 582 H 49.9784 -2.63343 -1.93179 0
M  V30 583 H 48.6374 -3.66541 -0.0656164 0
M  V30 584 H 48.2854 -4.4048 -2.42871 0
M  V30 585 H 47.9854 -5.7345 -1.28174 0
M  V30 586 H 49.5094 -5.6908 -2.21314 0
M  V30 587 H 50.9234 -5.73271 0.0579047 0
M  V30 588 H 49.3204 -5.94469 0.820165 0
M  V30 589 H 50.3904 -4.64777 1.3824 0
M  V30 590 N 51.7335 -0.305618 -1.54608 0
M  V30 591 C 52.6635 0.561482 -2.26649 0
M  V30 592 C 53.6445 1.13415 -1.26772 0
M  V30 593 O 54.8295 1.16262 -1.55553 0
M  V30 594 C 51.9595 1.73122 -3.01075 0
M  V30 595 C 50.9135 1.2887 -4.08138 0
M  V30 596 C 50.2395 2.54396 -4.70305 0
M  V30 597 C 51.5395 0.416578 -5.20636 0
M  V30 598 H 53.2335 -0.0393902 -2.99374 0
M  V30 599 H 50.7795 -0.020385 -1.43986 0
M  V30 600 H 52.7325 2.34396 -3.50195 0
M  V30 601 H 51.4565 2.3584 -2.25936 0
M  V30 602 H 50.1155 0.698991 -3.59875 0
M  V30 603 H 49.7635 3.15439 -3.918 0
M  V30 604 H 49.4635 2.25486 -5.42614 0
M  V30 605 H 50.9875 3.16464 -5.2219 0
M  V30 606 H 52.4015 0.935116 -5.65622 0
M  V30 607 H 50.7985 0.221046 -5.99693 0
M  V30 608 H 51.8685 -0.557162 -4.81688 0
M  V30 609 N 53.2116 1.57565 -0.0334293 0
M  V30 610 C 54.4396 1.9628 0.654347 0
M  V30 611 C 54.8546 0.910138 1.65414 0
M  V30 612 O 54.2116 -0.107595 1.82183 0
M  V30 613 C 54.2626 3.35067 1.35693 0
M  V30 614 O 53.9836 4.36296 0.397191 0
M  V30 615 C 55.4846 3.88439 2.13613 0
M  V30 616 H 52.7046 0.646369 0.180132 0
M  V30 617 H 55.2486 2.04282 -0.0944721 0
M  V30 618 H 53.4036 3.2827 2.05712 0
M  V30 619 H 53.8176 5.1678 0.896597 0
M  V30 620 H 55.2916 4.8788 2.58219 0
M  V30 621 H 55.7686 3.22914 2.97696 0
M  V30 622 H 56.3746 3.98516 1.48543 0
M  V30 623 N 54.6897 -0.239769 1.55765 0
M  V30 624 C 56.1007 -0.808263 1.68297 0
M  V30 625 C 56.4517 -1.85736 0.632181 0
M  V30 626 O 55.5767 -2.15277 -0.220204 0
M  V30 627 C 56.1717 -1.47284 3.05111 0
M  V30 628 C 54.7307 -1.98895 3.19559 0
M  V30 629 C 53.8777 -0.842575 2.64189 0
M  V30 630 H 56.8287 -0.0154422 1.58692 0
M  V30 631 H 56.8497 -2.34111 2.99954 0
M  V30 632 H 56.3617 -0.709053 3.81568 0
M  V30 633 H 54.4627 -2.78132 2.47938 0
M  V30 634 H 54.5757 -2.18143 4.26556 0
M  V30 635 H 52.9397 -1.24501 2.22197 0
M  V30 636 H 53.7227 -0.0917552 3.43177 0
M  V30 637 N 56.1678 -1.49265 -0.50573 0
M  V30 638 C 57.0778 -1.68312 -1.63427 0
M  V30 639 C 58.0938 -0.565682 -1.64548 0
M  V30 640 O 59.2698 -0.839801 -1.83055 0
M  V30 641 C 56.3348 -1.74107 -2.99813 0
M  V30 642 C 55.3958 -2.97653 -3.09356 0
M  V30 643 C 54.6288 -3.03163 -4.39236 0
M  V30 644 O 54.8518 -2.16396 -5.27758 0
M  V30 645 O 53.7858 -3.9558 -4.53652 0
M  V30 646 H 57.6118 -2.63907 -1.50289 0
M  V30 647 H 55.1968 -1.32951 -0.681502 0
M  V30 648 H 57.0788 -1.803 -3.80881 0
M  V30 649 H 55.7538 -0.816901 -3.13223 0
M  V30 650 H 54.6608 -2.96981 -2.27493 0
M  V30 651 H 55.9938 -3.89535 -3.00871 0
M  V30 652 N 57.6459 0.756429 -1.3826 0
M  V30 653 C 58.8739 1.54565 -1.3754 0
M  V30 654 C 59.2889 1.88767 0.0355331 0
M  V30 655 O 58.6459 1.52572 1.0014 0
M  V30 656 C 58.6969 2.84654 -2.22833 0
M  V30 657 O 58.4179 2.51912 -3.5843 0
M  V30 658 C 59.9189 3.78807 -2.30261 0
M  V30 659 H 57.1389 0.478353 -0.470553 0
M  V30 660 H 59.6829 0.936381 -1.81803 0
M  V30 661 H 57.8379 3.41965 -1.8204 0
M  V30 662 H 58.2519 3.35325 -4.03308 0
M  V30 663 H 59.7259 4.67045 -2.94233 0
M  V30 664 H 60.2029 4.19038 -1.31545 0
M  V30 665 H 60.8089 3.2742 -2.71433 0
M  V30 666 N 59.124 1.23083 0.984299 0
M  V30 667 C 60.087 1.00979 2.05757 0
M  V30 668 C 61.087 -0.0269573 1.60777 0
M  V30 669 O 62.277 0.212403 1.729 0
M  V30 670 C 59.409 0.527072 3.36801 0
M  V30 671 H 60.602 1.9622 2.26799 0
M  V30 672 H 58.155 1.05072 1.15714 0
M  V30 673 H 58.89 -0.429294 3.21446 0
M  V30 674 H 58.675 1.27515 3.70786 0
M  V30 675 H 60.165 0.392942 4.15747 0
M  V30 676 N 60.6021 -1.18246 1.0419 0
M  V30 677 C 61.5491 -2.2192 0.634037 0
M  V30 678 C 62.5191 -1.62179 -0.358765 0
M  V30 679 O 63.7041 -1.89122 -0.252466 0
M  V30 680 C 60.8441 -3.451 0.00445535 0
M  V30 681 C 59.9571 -4.19174 1.04487 0
M  V30 682 C 59.0921 -5.29813 0.383676 0
M  V30 683 C 58.1311 -5.9566 1.4091 0
M  V30 684 N 57.2681 -6.97834 0.772784 0
M  V30 685 H 62.1081 -2.56164 1.52263 0
M  V30 686 H 59.6451 -1.25843 0.761701 0
M  V30 687 H 61.6031 -4.15485 -0.377919 0
M  V30 688 H 60.2331 -3.11472 -0.847652 0
M  V30 689 H 59.2851 -3.47604 1.54518 0
M  V30 690 H 60.5971 -4.64267 1.82368 0
M  V30 691 H 59.7511 -6.06677 -0.0528366 0
M  V30 692 H 58.4901 -4.85825 -0.427208 0
M  V30 693 H 57.4951 -5.17535 1.85574 0
M  V30 694 H 58.7201 -6.4173 2.22171 0
M  V30 695 H 56.6661 -6.55998 -0.0177708 0
M  V30 696 H 56.5831 -7.41186 1.48928 0
M  V30 697 H 57.8511 -7.78665 0.36071 0
M  V30 698 N 62.0802 -0.821533 -1.34494 0
M  V30 699 C 63.0102 -0.257138 -2.3208 0
M  V30 700 C 63.9912 0.625645 -1.58176 0
M  V30 701 O 65.1762 0.552811 -1.86166 0
M  V30 702 C 62.3062 0.582958 -3.42372 0
M  V30 703 C 61.2602 -0.202571 -4.2752 0
M  V30 704 C 60.5862 0.760179 -5.29269 0
M  V30 705 C 61.8862 -1.40998 -5.02908 0
M  V30 706 H 63.5802 -1.07247 -2.79532 0
M  V30 707 H 61.1262 -0.517163 -1.34393 0
M  V30 708 H 63.0792 0.987972 -4.09655 0
M  V30 709 H 61.8032 1.43133 -2.93565 0
M  V30 710 H 60.4622 -0.588936 -3.61838 0
M  V30 711 H 60.1102 1.60447 -4.76724 0
M  V30 712 H 59.8102 0.238809 -5.87115 0
M  V30 713 H 61.3342 1.16308 -5.9942 0
M  V30 714 H 62.7482 -1.07905 -5.63054 0
M  V30 715 H 61.1452 -1.86689 -5.70322 0
M  V30 716 H 62.2152 -2.1889 -4.32684 0
M  V30 717 N 63.5583 1.46682 -0.576371 0
M  V30 718 C 64.5213 2.28707 0.150239 0
M  V30 719 C 65.5213 1.38035 0.824794 0
M  V30 720 O 66.7113 1.60476 0.677719 0
M  V30 721 C 63.8433 3.18248 1.22192 0
M  V30 722 H 65.0363 2.94423 -0.570521 0
M  V30 723 H 62.5893 1.52688 -0.334078 0
M  V30 724 H 63.3243 2.57265 1.97447 0
M  V30 725 H 63.1093 3.85 0.742812 0
M  V30 726 H 64.5993 3.80001 1.73172 0
M  V30 727 N 65.0364 0.313813 1.54444 0
M  V30 728 C 65.9834 -0.55655 2.23989 0
M  V30 729 C 66.9534 -1.11943 1.22711 0
M  V30 730 O 68.1384 -1.16158 1.51367 0
M  V30 731 C 65.2784 -1.71635 2.99392 0
M  V30 732 C 64.3914 -1.18364 4.15468 0
M  V30 733 C 63.5264 -2.30834 4.78424 0
M  V30 734 C 62.5654 -1.74762 5.86622 0
M  V30 735 N 61.7024 -2.80855 6.43479 0
M  V30 736 H 66.5424 0.0430893 2.97969 0
M  V30 737 H 64.0794 0.0330359 1.47063 0
M  V30 738 H 66.0374 -2.39868 3.41349 0
M  V30 739 H 64.6674 -2.28742 2.27765 0
M  V30 740 H 63.7194 -0.393163 3.78363 0
M  V30 741 H 65.0314 -0.733262 4.93381 0
M  V30 742 H 64.1854 -3.0699 5.23299 0
M  V30 743 H 62.9244 -2.79204 3.99871 0
M  V30 744 H 61.9294 -0.970995 5.41158 0
M  V30 745 H 63.1544 -1.2728 6.67066 0
M  V30 746 H 61.1004 -3.28535 5.67804 0
M  V30 747 H 61.0174 -2.40351 7.16776 0
M  V30 748 H 62.2854 -3.5687 6.93011 0
M  V30 749 N 66.5145 -1.57545 0.0417849 0
M  V30 750 C 67.7625 -1.91937 -0.632829 0
M  V30 751 C 68.0835 -0.919978 -1.71934 0
M  V30 752 O 67.3535 0.0366064 -1.95866 0
M  V30 753 H 65.9335 -0.708493 -0.236742 0
M  V30 754 H 68.5955 -1.9468 0.0925745 0
M  V30 755 H 67.6915 -2.92912 -1.07746 0
M  V30 756 N 67.9926 0.231505 -1.5589 0
M  V30 757 C 68.9556 1.27028 -1.90779 0
M  V30 758 C 69.9556 1.40308 -0.785507 0
M  V30 759 O 71.1456 1.38744 -1.05336 0
M  V30 760 C 68.2776 2.64566 -2.14983 0
M  V30 761 H 69.4706 0.973017 -2.83677 0
M  V30 762 H 67.0236 0.471486 -1.49019 0
M  V30 763 H 67.7586 2.99406 -1.24604 0
M  V30 764 H 67.5436 2.56305 -2.96732 0
M  V30 765 H 69.0336 3.39543 -2.43105 0
M  V30 766 N 69.4707 1.49531 0.497807 0
M  V30 767 C 70.7477 1.49682 1.25915 0
M  V30 768 C 71.1277 0.226339 2.09883 0
M  V30 769 O 70.4757 -0.791189 2.14365 0
M  V30 770 C 70.6857 2.77755 2.11313 0
M  V30 771 C 72.0337 3.27371 2.70395 0
M  V30 772 O 73.0577 2.78894 2.21578 0
M  V30 773 O 71.9167 4.11808 3.59272 0
M  V30 774 H 69.0107 0.599228 0.56996 0
M  V30 775 H 71.5567 1.61798 0.511816 0
M  V30 776 H 70.3287 3.61713 1.49264 0
M  V30 777 H 69.9517 2.68515 2.93233 0
M  V30 778 N 70.9488 -0.749086 1.3866 0
M  V30 779 C 72.1968 -1.50535 1.34847 0
M  V30 780 C 72.5178 -1.94909 -0.0595016 0
M  V30 781 O 71.7878 -1.67973 -1.00806 0
M  V30 782 H 70.3678 -0.558395 0.49619 0
M  V30 783 H 73.0298 -0.890165 1.73384 0
M  V30 784 H 72.1258 -2.39413 2.00219 0
M  V30 785 N 72.4269 -1.23603 -0.977757 0
M  V30 786 C 73.6729 -1.07129 -1.72195 0
M  V30 787 C 74.0059 0.390501 -1.90233 0
M  V30 788 O 73.2809 1.28902 -1.45653 0
M  V30 789 C 73.5639 -1.80031 -3.11867 0
M  V30 790 C 73.4169 -3.33899 -3.01383 0
M  V30 791 C 74.7359 -1.56492 -4.11337 0
M  V30 792 H 71.8549 -0.390571 -0.624999 0
M  V30 793 H 74.4969 -1.52142 -1.13811 0
M  V30 794 H 72.6469 -1.41768 -3.6171 0
M  V30 795 H 74.3189 -3.81699 -2.59043 0
M  V30 796 H 72.5619 -3.62796 -2.37827 0
M  V30 797 H 73.2329 -3.801 -4.00285 0
M  V30 798 H 75.7089 -1.89757 -3.70313 0
M  V30 799 H 74.5849 -2.09973 -5.07151 0
M  V30 800 H 74.8459 -0.500874 -4.39254 0
M  V30 801 N 73.905 1.17692 -1.04816 0
M  V30 802 C 75.151 1.88137 -0.75711 0
M  V30 803 C 75.484 1.80604 0.713841 0
M  V30 804 O 74.759 1.21146 1.52164 0
M  V30 805 C 75.042 3.38318 -1.2334 0
M  V30 806 C 74.895 3.54622 -2.76701 0
M  V30 807 C 76.214 4.32214 -0.829415 0
M  V30 808 H 73.333 0.683163 -0.27651 0
M  V30 809 H 75.975 1.38424 -1.30149 0
M  V30 810 H 74.125 3.80787 -0.770286 0
M  V30 811 H 75.797 3.21194 -3.31107 0
M  V30 812 H 74.04 2.97026 -3.16161 0
M  V30 813 H 74.711 4.60028 -3.05088 0
M  V30 814 H 77.187 3.97565 -1.22805 0
M  V30 815 H 76.063 5.35838 -1.19033 0
M  V30 816 H 76.324 4.41294 0.266891 0
M  V30 817 N 75.3831 0.828654 1.34056 0
M  V30 818 C 76.6291 0.42008 1.98402 0
M  V30 819 C 76.9621 -1.01564 1.65525 0
M  V30 820 O 76.2371 -1.70834 0.929831 0
M  V30 821 C 76.5201 0.62927 3.54559 0
M  V30 822 C 76.3731 2.11152 3.97159 0
M  V30 823 C 77.6921 0.0688756 4.40046 0
M  V30 824 H 74.8111 0.154104 0.720709 0
M  V30 825 H 77.4531 1.04228 1.5886 0
M  V30 826 H 75.6031 0.0996418 3.88372 0
M  V30 827 H 77.2751 2.70522 3.73651 0
M  V30 828 H 75.5181 2.59985 3.47261 0
M  V30 829 H 76.1891 2.20868 5.05887 0
M  V30 830 H 78.6651 0.521458 4.1282 0
M  V30 831 H 77.5411 0.245006 5.48353 0
M  V30 832 H 77.8021 -1.0266 4.30015 0
M  V30 833 N 76.8612 -1.46375 0.584142 0
M  V30 834 C 78.0912 -2.06461 0.0758195 0
M  V30 835 C 78.4992 -1.43322 -1.23512 0
M  V30 836 O 77.8422 -0.533216 -1.75791 0
M  V30 837 C 77.9042 -3.59131 -0.162773 0
M  V30 838 C 77.5682 -4.4447 1.06279 0
M  V30 839 C 78.5652 -4.80918 1.97519 0
M  V30 840 C 76.2502 -4.85584 1.28504 0
M  V30 841 C 78.2442 -5.57309 3.09331 0
M  V30 842 C 75.9312 -5.61734 2.4062 0
M  V30 843 C 76.9292 -5.9751 3.30863 0
M  V30 844 O 76.6172 -6.72121 4.41032 0
M  V30 845 H 76.3492 -0.673745 0.0551725 0
M  V30 846 H 78.9032 -1.88969 0.804984 0
M  V30 847 H 77.1332 -3.74936 -0.946565 0
M  V30 848 H 78.8222 -4.0114 -0.619782 0
M  V30 849 H 79.5882 -4.49732 1.81565 0
M  V30 850 H 75.4672 -4.57187 0.591702 0
M  V30 851 H 79.0112 -5.85152 3.79793 0
M  V30 852 H 74.9082 -5.92334 2.56537 0
M  V30 853 H 75.6762 -6.90547 4.39417 0
M  V30 854 N 78.3393 -0.321999 -1.54275 0
M  V30 855 C 79.2713 0.578671 -2.21775 0
M  V30 856 C 80.2843 1.08109 -1.21722 0
M  V30 857 O 81.4733 0.994938 -1.482 0
M  V30 858 C 78.5733 1.80661 -2.86731 0
M  V30 859 C 77.7463 1.44314 -4.12907 0
M  V30 860 C 76.8053 2.52845 -4.61472 0
M  V30 861 O 75.8313 2.17054 -5.2619 0
M  V30 862 N 77.0333 3.83748 -4.35566 0
M  V30 863 H 79.7983 0.000709447 -2.997 0
M  V30 864 H 77.3593 -0.145132 -1.61248 0
M  V30 865 H 79.3513 2.52655 -3.16145 0
M  V30 866 H 77.9213 2.29245 -2.12521 0
M  V30 867 H 77.1413 0.554906 -3.90275 0
M  V30 868 H 78.4293 1.17598 -4.95023 0
M  V30 869 H 77.8273 4.15625 -3.83761 0
M  V30 870 H 76.3843 4.51977 -4.69638 0
M  V30 871 N 79.8174 1.5752 -0.0501392 0
M  V30 872 C 80.7494 2.08413 0.95376 0
M  V30 873 C 81.7624 1.01175 1.27544 0
M  V30 874 O 82.9514 1.28744 1.23641 0
M  V30 875 C 80.0514 2.51138 2.27559 0
M  V30 876 C 79.2244 3.817 2.13598 0
M  V30 877 C 78.2834 4.10749 3.28895 0
M  V30 878 O 77.3094 4.80685 3.04845 0
M  V30 879 N 78.5114 3.62579 4.5334 0
M  V30 880 H 81.2764 2.95165 0.519383 0
M  V30 881 H 78.8374 1.61327 0.136127 0
M  V30 882 H 80.8294 2.67648 3.03557 0
M  V30 883 H 79.3994 1.6964 2.62567 0
M  V30 884 H 78.6194 3.74782 1.22197 0
M  V30 885 H 79.9074 4.67201 2.01496 0
M  V30 886 H 79.3054 3.06039 4.75769 0
M  V30 887 H 77.8624 3.84329 5.26436 0
M  V30 888 N 81.2955 -0.223234 1.56011 0
M  V30 889 C 82.2255 -1.27988 1.95298 0
M  V30 890 C 83.2065 -1.48976 0.820979 0
M  V30 891 O 84.3915 -1.61188 1.08315 0
M  V30 892 C 81.5215 -2.63 2.26822 0
M  V30 893 C 80.4755 -2.56671 3.42497 0
M  V30 894 C 79.8015 -3.95697 3.59622 0
M  V30 895 C 81.1015 -2.11601 4.77517 0
M  V30 896 H 82.7955 -0.953525 2.8381 0
M  V30 897 H 80.3415 -0.457244 1.36548 0
M  V30 898 H 82.2945 -3.37077 2.52898 0
M  V30 899 H 81.0185 -2.9732 1.35161 0
M  V30 900 H 79.6775 -1.85051 3.16467 0
M  V30 901 H 79.3255 -4.27322 2.6534 0
M  V30 902 H 79.0255 -3.92345 4.37424 0
M  V30 903 H 80.5495 -4.71438 3.88044 0
M  V30 904 H 81.9635 -2.7542 5.02809 0
M  V30 905 H 80.3605 -2.19311 5.5859 0
M  V30 906 H 81.4305 -1.06824 4.72987 0
M  V30 907 N 82.7736 -1.49793 -0.48987 0
M  V30 908 C 84.0506 -1.50348 -1.25119 0
M  V30 909 C 84.4306 -0.237466 -2.0976 0
M  V30 910 O 83.7786 0.77981 -2.14782 0
M  V30 911 C 83.9886 -2.78872 -2.09837 0
M  V30 912 C 85.3366 -3.288 -2.68655 0
M  V30 913 O 86.3606 -2.80065 -2.20096 0
M  V30 914 O 85.2196 -4.13707 -3.57083 0
M  V30 915 H 82.3136 -0.602242 -0.566775 0
M  V30 916 H 84.8596 -1.62067 -0.503229 0
M  V30 917 H 83.6316 -3.62499 -1.47343 0
M  V30 918 H 83.2546 -2.70066 -2.91805 0
M  V30 919 N 84.2517 0.741722 -1.39055 0
M  V30 920 C 85.4817 1.52876 -1.3897 0
M  V30 921 C 85.8897 1.8919 0.0193266 0
M  V30 922 O 85.2327 1.54138 0.999356 0
M  V30 923 C 85.2947 2.84929 -2.19216 0
M  V30 924 C 84.9587 2.71086 -3.67915 0
M  V30 925 C 85.9557 2.40084 -4.61146 0
M  V30 926 C 83.6407 2.88168 -4.11418 0
M  V30 927 C 85.6347 2.26335 -5.95862 0
M  V30 928 C 83.3217 2.74037 -5.46211 0
M  V30 929 C 84.3197 2.43166 -6.38247 0
M  V30 930 O 84.0077 2.29115 -7.70559 0
M  V30 931 H 83.7397 0.479252 -0.476753 0
M  V30 932 H 86.2937 0.924751 -1.83405 0
M  V30 933 H 84.5237 3.47564 -1.69518 0
M  V30 934 H 86.2127 3.46509 -2.11392 0
M  V30 935 H 86.9787 2.26545 -4.28838 0
M  V30 936 H 82.8577 3.11191 -3.40119 0
M  V30 937 H 86.4017 2.0216 -6.67665 0
M  V30 938 H 82.2987 2.87153 -5.78112 0
M  V30 939 H 83.0667 2.44237 -7.81211 0
M  V30 940 N 85.7298 1.2412 0.971189 0
M  V30 941 C 86.9578 1.10575 1.74874 0
M  V30 942 C 87.3728 -0.342017 1.85676 0
M  V30 943 O 86.7298 -1.23617 1.34258 0
M  V30 944 C 86.7808 1.73579 3.171 0
M  V30 945 O 86.5018 3.12695 3.06844 0
M  V30 946 C 88.0028 1.65598 4.11208 0
M  V30 947 H 85.2228 0.386504 0.548503 0
M  V30 948 H 87.7668 1.64156 1.21955 0
M  V30 949 H 85.9218 1.24009 3.67016 0
M  V30 950 H 86.3358 3.43412 3.96445 0
M  V30 951 H 87.8098 2.1437 5.08674 0
M  V30 952 H 88.2868 0.616532 4.34851 0
M  V30 953 H 88.8928 2.14578 3.67201 0
M  V30 954 N 87.2079 -1.17134 1.05439 0
M  V30 955 C 88.1709 -2.19439 0.661764 0
M  V30 956 C 89.1709 -1.58199 -0.288042 0
M  V30 957 O 90.3609 -1.74053 -0.0715803 0
M  V30 958 C 87.4929 -3.40889 -0.0276209 0
M  V30 959 H 88.6859 -2.55688 1.56728 0
M  V30 960 H 86.2389 -1.31259 0.848567 0
M  V30 961 H 86.9739 -3.10187 -0.94629 0
M  V30 962 H 86.7589 -3.86586 0.655238 0
M  V30 963 H 88.2489 -4.16603 -0.288342 0
M  V30 964 N 88.686 -0.835752 -1.33615 0
M  V30 965 C 89.963 -0.352017 -1.92406 0
M  V30 966 C 90.343 1.16225 -1.76224 0
M  V30 967 O 89.691 1.97526 -1.14873 0
M  V30 968 C 89.901 -0.795485 -3.39813 0
M  V30 969 C 91.249 -0.801703 -4.16963 0
M  V30 970 O 92.273 -0.738889 -3.48452 0
M  V30 971 O 91.132 -0.886607 -5.3926 0
M  V30 972 H 88.226 -0.0989641 -0.821057 0
M  V30 973 H 90.772 -0.921397 -1.42507 0
M  V30 974 H 89.544 -1.83795 -3.45449 0
M  V30 975 H 89.167 -0.202505 -3.97084 0
M  V30 976 N 90.1641 1.46063 -0.591896 0
M  V30 977 C 91.3921 2.06717 -0.0868936 0
M  V30 978 C 91.8071 1.43916 1.22203 0
M  V30 979 O 91.1641 0.547698 1.74088 0
M  V30 980 C 91.2151 3.6142 0.0758725 0
M  V30 981 O 90.9361 4.21874 -1.18126 0
M  V30 982 C 92.4371 4.39025 0.61416 0
M  V30 983 H 89.6571 0.668162 -0.0616518 0
M  V30 984 H 92.2011 1.8755 -0.815175 0
M  V30 985 H 90.3561 3.79983 0.754413 0
M  V30 986 H 90.7701 5.14861 -1.00092 0
M  V30 987 H 92.2441 5.4783 0.677193 0
M  V30 988 H 92.7211 4.07708 1.63312 0
M  V30 989 H 93.3271 4.2529 -0.0298142 0
M  V30 990 N 91.6422 0.330177 1.54103 0
M  V30 991 C 92.5722 -0.525353 2.27513 0
M  V30 992 C 93.5532 -1.11383 1.2856 0
M  V30 993 O 94.7382 -1.13773 1.57383 0
M  V30 994 C 91.8682 -1.6831 3.03791 0
M  V30 995 C 90.8222 -1.2236 4.10137 0
M  V30 996 C 90.1482 -2.46882 4.74293 0
M  V30 997 C 91.4482 -0.333697 5.21233 0
M  V30 998 H 93.1422 0.087013 2.99274 0
M  V30 999 H 90.6882 0.0432893 1.43935 0
M  V30 1000 H 92.6412 -2.28795 3.5388 0
M  V30 1001 H 91.3652 -2.32216 2.29659 0
M  V30 1002 H 90.0242 -0.64165 3.60941 0
M  V30 1003 H 89.6722 -3.09165 3.96769 0
M  V30 1004 H 89.3722 -2.16825 5.46133 0
M  V30 1005 H 90.8962 -3.08117 5.27159 0
M  V30 1006 H 92.3102 -0.845013 5.67038 0
M  V30 1007 H 90.7072 -0.125612 5.99969 0
M  V30 1008 H 91.7772 0.633724 4.80741 0
M  V30 1009 N 93.1203 -1.57491 0.0584922 0
M  V30 1010 C 94.0523 -2.08916 -0.942694 0
M  V30 1011 C 95.0653 -1.0185 -1.27006 0
M  V30 1012 O 96.2543 -1.29398 -1.22957 0
M  V30 1013 C 93.3543 -2.52341 -2.26224 0
M  V30 1014 C 92.5273 -3.82827 -2.1157 0
M  V30 1015 C 91.5863 -4.12487 -3.26712 0
M  V30 1016 O 90.6123 -4.82295 -3.02292 0
M  V30 1017 N 91.8143 -3.64978 -4.5141 0
M  V30 1018 H 94.5793 -2.95437 -0.503722 0
M  V30 1019 H 92.1403 -1.61397 -0.12757 0
M  V30 1020 H 94.1323 -2.69254 -3.02133 0
M  V30 1021 H 92.7023 -1.7103 -2.61663 0
M  V30 1022 H 91.9223 -3.75425 -1.20208 0
M  V30 1023 H 93.2103 -4.68263 -1.99015 0
M  V30 1024 H 92.6083 -3.08558 -4.7414 0
M  V30 1025 H 91.1653 -3.87115 -5.2439 0
M  V30 1026 N 94.5984 0.214957 -1.56127 0
M  V30 1027 C 95.5614 1.24997 -1.92116 0
M  V30 1028 C 96.5614 1.39467 -0.800344 0
M  V30 1029 O 97.7514 1.37619 -1.06802 0
M  V30 1030 C 94.8834 2.62271 -2.17777 0
M  V30 1031 H 96.0764 0.942875 -2.84693 0
M  V30 1032 H 93.6294 0.455654 -1.49511 0
M  V30 1033 H 94.3644 2.98068 -1.27773 0
M  V30 1034 H 94.1494 2.53143 -2.99434 0
M  V30 1035 H 95.6394 3.36946 -2.46693 0
M  V30 1036 N 96.0765 1.50051 0.48192 0
M  V30 1037 C 97.0065 1.71046 1.58951 0
M  V30 1038 C 97.9875 0.559288 1.60642 0
M  V30 1039 O 99.1725 0.797243 1.77081 0
M  V30 1040 C 96.3025 1.79462 2.97339 0
M  V30 1041 C 95.2565 2.94558 3.10515 0
M  V30 1042 C 94.5825 2.88105 4.50444 0
M  V30 1043 C 95.8825 4.35227 2.88747 0
M  V30 1044 H 97.5765 2.6378 1.41635 0
M  V30 1045 H 95.1225 1.26936 0.679942 0
M  V30 1046 H 97.0755 1.92734 3.74742 0
M  V30 1047 H 95.7995 0.833412 3.15788 0
M  V30 1048 H 94.4585 2.80918 2.35543 0
M  V30 1049 H 94.1065 1.89853 4.65795 0
M  V30 1050 H 93.8065 3.65366 4.60197 0
M  V30 1051 H 95.3305 3.03412 5.29881 0
M  V30 1052 H 96.7445 4.49449 3.55905 0
M  V30 1053 H 95.1415 5.13856 3.09955 0
M  V30 1054 H 96.2115 4.48347 1.84696 0
M  V30 1055 N 97.5546 -0.734337 1.39446 0
M  V30 1056 C 98.5176 -1.83004 1.37994 0
M  V30 1057 C 99.5176 -1.58397 0.276938 0
M  V30 1058 O 100.708 -1.65785 0.534875 0
M  V30 1059 C 97.8396 -3.20802 1.1532 0
M  V30 1060 H 99.0326 -1.85694 2.35494 0
M  V30 1061 H 96.5856 -0.938059 1.25021 0
M  V30 1062 H 97.3206 -3.23772 0.185036 0
M  V30 1063 H 97.1056 -3.4006 1.95197 0
M  V30 1064 H 98.5956 -4.00862 1.17046 0
M  V30 1065 N 99.0327 -1.24633 -0.964593 0
M  V30 1066 C 100.31 -0.995809 -1.68354 0
M  V30 1067 C 100.69 0.480964 -2.05548 0
M  V30 1068 O 100.038 1.45599 -1.76105 0
M  V30 1069 C 100.248 -1.92177 -2.91323 0
M  V30 1070 C 101.596 -2.19446 -3.63495 0
M  V30 1071 O 102.62 -1.89855 -3.01386 0
M  V30 1072 O 101.479 -2.69714 -4.75307 0
M  V30 1073 H 98.5727 -0.376854 -0.736146 0
M  V30 1074 H 101.119 -1.35745 -1.0184 0
M  V30 1075 H 99.8907 -2.91938 -2.60553 0
M  V30 1076 H 99.5137 -1.56349 -3.65569 0
M  V30 1077 N 100.511 1.16574 -1.06058 0
M  V30 1078 C 101.474 2.19085 -0.673392 0
M  V30 1079 C 102.474 1.5835 0.279648 0
M  V30 1080 O 103.664 1.74088 0.0623488 0
M  V30 1081 C 100.796 3.40899 0.00954234 0
M  V30 1082 H 101.989 2.54853 -1.58081 0
M  V30 1083 H 99.5418 1.30808 -0.855516 0
M  V30 1084 H 100.277 3.10684 0.929826 0
M  V30 1085 H 100.062 3.86233 -0.67573 0
M  V30 1086 H 101.552 4.1675 0.266245 0
M  V30 1087 N 101.989 0.842826 1.3317 0
M  V30 1088 C 103.237 0.439577 1.97262 0
M  V30 1089 C 103.558 -1.00548 1.67078 0
M  V30 1090 O 102.828 -1.70098 0.971779 0
M  V30 1091 H 101.408 0.159558 0.72976 0
M  V30 1092 H 104.07 1.07665 1.62463 0
M  V30 1093 H 103.166 0.574886 3.0676 0
M  V30 1094 N 103.467 -1.45747 0.599634 0
M  V30 1095 C 104.713 -2.02592 0.0918643 0
M  V30 1096 C 105.046 -1.46806 -1.27128 0
M  V30 1097 O 104.321 -0.639658 -1.83681 0
M  V30 1098 C 104.604 -3.60073 0.0443398 0
M  V30 1099 C 104.457 -4.26208 1.43759 0
M  V30 1100 C 105.776 -4.35309 -0.647608 0
M  V30 1101 H 102.895 -0.736175 0.034857 0
M  V30 1102 H 105.537 -1.73694 0.770081 0
M  V30 1103 H 103.687 -3.84823 -0.533224 0
M  V30 1104 H 105.359 -4.12668 2.06162 0
M  V30 1105 H 103.602 -3.84916 2.00056 0
M  V30 1106 H 104.273 -5.35069 1.35665 0
M  V30 1107 H 106.749 -4.15805 -0.156776 0
M  V30 1108 H 105.625 -5.45038 -0.649942 0
M  V30 1109 H 105.886 -4.07598 -1.71219 0
M  V30 1110 N 104.945 -0.338344 -1.53925 0
M  V30 1111 C 106.173 0.261298 -2.05243 0
M  V30 1112 C 106.588 1.44625 -1.21363 0
M  V30 1113 O 105.945 1.80811 -0.247736 0
M  V30 1114 C 105.996 0.681412 -3.5502 0
M  V30 1115 O 105.717 -0.456414 -4.35716 0
M  V30 1116 C 107.218 1.34232 -4.22489 0
M  V30 1117 H 104.438 0.0513685 -0.669031 0
M  V30 1118 H 106.982 -0.488822 -1.98572 0
M  V30 1119 H 105.137 1.38148 -3.61931 0
M  V30 1120 H 105.551 -0.122564 -5.24357 0
M  V30 1121 H 107.025 1.58708 -5.28693 0
M  V30 1122 H 107.502 2.29426 -3.74514 0
M  V30 1123 H 108.108 0.684424 -4.19757 0
M  V30 1124 N 106.423 1.57458 -0.0668435 0
M  V30 1125 C 107.37 2.12439 0.902122 0
M  V30 1126 C 108.34 1.03565 1.2986 0
M  V30 1127 O 109.525 1.312 1.38532 0
M  V30 1128 C 106.665 2.6865 2.16614 0
M  V30 1129 C 105.778 3.91663 1.82274 0
M  V30 1130 C 104.913 4.36134 3.0325 0
M  V30 1131 C 103.952 5.51808 2.64904 0
M  V30 1132 N 103.089 5.9126 3.78624 0
M  V30 1133 H 107.929 2.94934 0.426382 0
M  V30 1134 H 105.466 1.4575 0.198819 0
M  V30 1135 H 107.424 2.99346 2.90599 0
M  V30 1136 H 106.054 1.88928 2.61737 0
M  V30 1137 H 105.106 3.6746 0.983719 0
M  V30 1138 H 106.418 4.75693 1.50059 0
M  V30 1139 H 105.572 4.68465 3.85519 0
M  V30 1140 H 104.311 3.50948 3.38655 0
M  V30 1141 H 103.316 5.19133 1.81055 0
M  V30 1142 H 104.541 6.38722 2.30675 0
M  V30 1143 H 102.487 5.09024 4.138 0
M  V30 1144 H 102.404 6.70018 3.5016 0
M  V30 1145 H 103.672 6.28212 4.61486 0
M  V30 1146 N 107.901 -0.206675 1.56239 0
M  V30 1147 C 108.834 -1.28383 1.88661 0
M  V30 1148 C 109.812 -1.44504 0.745481 0
M  V30 1149 O 110.996 -1.60079 0.995336 0
M  V30 1150 C 108.123 -2.65211 2.10667 0
M  V30 1151 C 107.169 -2.66025 3.33366 0
M  V30 1152 S 108.002 -2.18609 4.88846 0
M  V30 1153 C 109.158 -3.57283 5.13906 0
M  V30 1154 H 109.391 -1.00691 2.7973 0
M  V30 1155 H 106.924 -0.409627 1.48867 0
M  V30 1156 H 108.882 -3.43979 2.24029 0
M  V30 1157 H 107.543 -2.90121 1.20369 0
M  V30 1158 H 106.736 -3.66607 3.45855 0
M  V30 1159 H 106.338 -1.95331 3.18938 0
M  V30 1160 H 108.63 -4.53074 5.03717 0
M  V30 1161 H 109.573 -3.49699 6.15724 0
M  V30 1162 H 109.981 -3.51659 4.41583 0
M  V30 1163 N 109.379 -1.50304 -0.473955 0
M  V30 1164 C 110.604 -1.65175 -1.25427 0
M  V30 1165 C 111.029 -0.333673 -1.85117 0
M  V30 1166 O 110.387 0.702114 -1.67153 0
M  V30 1167 C 110.435 -2.74295 -2.34082 0
M  V30 1168 O 109.539 -2.35349 -3.38651 0
M  V30 1169 H 108.88 -0.551944 -0.369126 0
M  V30 1170 H 111.41 -1.96662 -0.564364 0
M  V30 1171 H 111.42 -2.97285 -2.79438 0
M  V30 1172 H 110.095 -3.69959 -1.90008 0
M  V30 1173 H 108.672 -2.22794 -2.99027 0
M  V30 1174 N 110.857 0.726932 -1.39834 0
M  V30 1175 C 111.787 1.85405 -1.41941 0
M  V30 1176 C 112.768 1.67751 -0.281728 0
M  V30 1177 O 113.953 1.8795 -0.488717 0
M  V30 1178 C 111.083 3.23243 -1.2701 0
M  V30 1179 C 110.037 3.55549 -2.38262 0
M  V30 1180 C 109.363 4.9241 -2.08415 0
M  V30 1181 C 110.663 3.577 -3.80589 0
M  V30 1182 H 112.357 1.83899 -2.36266 0
M  V30 1183 H 109.903 0.883349 -1.13723 0
M  V30 1184 H 111.856 4.01775 -1.27103 0
M  V30 1185 H 110.58 3.25296 -0.291564 0
M  V30 1186 H 109.239 2.79351 -2.37399 0
M  V30 1187 H 108.887 4.91052 -1.0898 0
M  V30 1188 H 108.587 5.14992 -2.82943 0
M  V30 1189 H 110.111 5.73289 -2.10171 0
M  V30 1190 H 111.525 4.26293 -3.83337 0
M  V30 1191 H 109.922 3.91804 -4.54543 0
M  V30 1192 H 110.992 2.57328 -4.10987 0
M  V30 1193 N 112.336 1.25143 0.95797 0
M  V30 1194 C 113.752 1.01892 1.22842 0
M  V30 1195 C 113.952 -0.266311 1.99732 0
M  V30 1196 O 113.008 -0.979913 2.3271 0
M  V30 1197 C 114.321 2.24004 2.00606 0
M  V30 1198 C 115.869 2.28731 2.13662 0
M  V30 1199 C 116.344 3.5049 2.94823 0
M  V30 1200 N 117.835 3.50866 3.02403 0
M  V30 1201 C 118.57 4.4174 3.65586 0
M  V30 1202 N 118.066 5.42882 4.30408 0
M  V30 1203 N 119.859 4.29429 3.62694 0
M  V30 1204 H 112.01 2.07718 0.443493 0
M  V30 1205 H 114.273 0.912031 0.258657 0
M  V30 1206 H 113.979 3.17395 1.51503 0
M  V30 1207 H 113.853 2.26907 3.01319 0
M  V30 1208 H 116.24 1.35865 2.61963 0
M  V30 1209 H 116.321 2.29848 1.12265 0
M  V30 1210 H 115.965 4.43676 2.47213 0
M  V30 1211 H 115.895 3.46617 3.96439 0
M  V30 1212 H 118.386 2.777 2.56302 0
M  V30 1213 H 118.699 6.0844 4.76467 0
M  V30 1214 H 117.044 5.46758 4.29047 0
M  V30 1215 H 120.235 3.49643 3.11236 0
M  V30 1216 H 120.408 5.00448 4.1165 0
M  V30 1217 N 113.814 -1.1601 1.06675 0
M  V30 1218 C 114.762 -2.22586 0.675157 0
M  V30 1219 C 115.756 -1.66525 -0.310766 0
M  V30 1220 O 116.962 -1.79145 -0.175215 0
M  V30 1221 H 113.337 -0.724855 0.200223 0
M  V30 1222 H 115.308 -2.52899 1.58381 0
M  V30 1223 C 114.057 -3.47604 0.0817162 0
M  V30 1224 H 113.38 -3.91058 0.831484 0
M  V30 1225 H 114.82 -4.23718 -0.154708 0
M  V30 1226 C 113.279 -3.15718 -1.17576 0
M  V30 1227 O 113.809 -3.31878 -2.26318 0
M  V30 1228 N 112.015 -2.69816 -1.07923 0
M  V30 1229 H 111.562 -2.56866 -0.194293 0
M  V30 1230 H 111.52 -2.48855 -1.92141 0
M  V30 1231 N 115.292 -0.849877 -1.32721 0
M  V30 1232 C 116.538 -0.451591 -1.97708 0
M  V30 1233 C 116.871 0.989175 -1.6712 0
M  V30 1234 O 116.146 1.69334 -0.956891 0
M  V30 1235 C 116.429 -0.685598 -3.53513 0
M  V30 1236 C 116.282 -2.17444 -3.93749 0
M  V30 1237 C 117.601 -0.138874 -4.39881 0
M  V30 1238 H 114.72 -0.16555 -0.718166 0
M  V30 1239 H 117.362 -1.06742 -1.57182 0
M  V30 1240 H 115.512 -0.161416 -3.88165 0
M  V30 1241 H 117.184 -2.76433 -3.693 0
M  V30 1242 H 115.427 -2.65476 -3.43081 0
M  V30 1243 H 116.098 -2.28888 -5.02309 0
M  V30 1244 H 118.574 -0.587068 -4.11938 0
M  V30 1245 H 117.45 -0.332213 -5.47894 0
M  V30 1246 H 117.711 0.95806 -4.31594 0
M  V30 1247 N 116.77 1.45427 -0.607355 0
M  V30 1248 C 118.018 2.01841 -0.102253 0
M  V30 1249 C 118.339 1.47832 1.27164 0
M  V30 1250 O 117.609 0.672497 1.83995 0
M  V30 1251 H 116.189 0.746188 -0.0348101 0
M  V30 1252 H 118.851 1.78229 -0.7887 0
M  V30 1253 H 117.947 3.12057 -0.0518585 0
M  V30 1254 N 118.248 0.346503 1.53744 0
M  V30 1255 C 119.494 -0.249473 2.0126 0
M  V30 1256 C 119.827 -1.49965 1.23386 0
M  V30 1257 O 119.102 -1.91811 0.32229 0
M  V30 1258 C 119.385 -0.560643 3.55709 0
M  V30 1259 C 119.238 0.701836 4.44291 0
M  V30 1260 C 120.557 -1.36905 4.18264 0
M  V30 1261 H 117.676 -0.0891987 0.731582 0
M  V30 1262 H 120.318 0.467624 1.84156 0
M  V30 1263 H 118.468 -1.17156 3.70414 0
M  V30 1264 H 120.14 1.33974 4.41417 0
M  V30 1265 H 118.383 1.32612 4.13033 0
M  V30 1266 H 119.054 0.43933 5.50249 0
M  V30 1267 H 121.53 -0.852448 4.07275 0
M  V30 1268 H 120.406 -1.55553 5.26398 0
M  V30 1269 H 120.667 -2.37203 3.73078 0
M  V30 1270 N 119.726 -1.57421 0.075193 0
M  V30 1271 C 121.003 -1.85029 -0.634329 0
M  V30 1272 C 121.383 -0.968305 -1.87582 0
M  V30 1273 O 120.731 -0.0354749 -2.28472 0
M  V30 1274 C 120.941 -3.35286 -0.968742 0
M  V30 1275 C 122.289 -4.02875 -1.34077 0
M  V30 1276 O 123.313 -3.40051 -1.06037 0
M  V30 1277 O 122.172 -5.13691 -1.86506 0
M  V30 1278 H 119.266 -0.7645 -0.315387 0
M  V30 1279 H 121.812 -1.69366 0.106382 0
M  V30 1280 H 120.584 -3.91203 -0.0871376 0
M  V30 1281 H 120.207 -3.56223 -1.7661 0
M  V30 1282 N 121.204 0.198386 -1.56346 0
M  V30 1283 C 122.152 1.26538 -1.95169 0
M  V30 1284 C 123.146 1.47295 -0.836685 0
M  V30 1285 O 124.352 1.48195 -1.02167 0
M  V30 1286 H 120.727 0.424744 -0.620561 0
M  V30 1287 H 122.698 0.910904 -2.84157 0
M  V30 1288 C 121.447 2.6035 -2.30463 0
M  V30 1289 H 120.77 2.45192 -3.15786 0
M  V30 1290 H 122.21 3.33762 -2.61494 0
M  V30 1291 C 120.669 3.17096 -1.13806 0
M  V30 1292 O 121.199 3.99588 -0.41135 0
M  V30 1293 N 119.405 2.75795 -0.915736 0
M  V30 1294 H 118.952 2.08816 -1.50843 0
M  V30 1295 H 118.91 3.14101 -0.136979 0
M  V30 1296 N 122.682 1.50554 0.465978 0
M  V30 1297 C 123.931 1.61038 1.21448 0
M  V30 1298 C 124.244 0.31865 1.92987 0
M  V30 1299 O 125.45 0.302469 2.6981 0
M  V30 1300 C 123.906 2.84283 2.20706 0
M  V30 1301 C 123.514 4.20352 1.54946 0
M  V30 1302 C 125.258 3.04115 2.96166 0
M  V30 1303 C 123.165 5.34778 2.5252 0
M  V30 1304 H 122.095 0.599718 0.457005 0
M  V30 1305 H 124.746 1.7699 0.484424 0
M  V30 1306 H 123.128 2.61901 2.97025 0
M  V30 1307 H 124.302 4.53008 0.843811 0
M  V30 1308 H 122.617 4.06167 0.917475 0
M  V30 1309 H 125.214 3.86774 3.69202 0
M  V30 1310 H 125.557 2.16045 3.55852 0
M  V30 1311 H 126.09 3.26702 2.26959 0
M  V30 1312 H 122.829 6.25018 1.97566 0
M  V30 1313 H 122.349 5.06534 3.21222 0
M  V30 1314 H 124.028 5.65561 3.14245 0
M  V30 1315 N 124.16 -0.719506 1.40217 0
M  V30 1316 C 125.437 -1.47221 1.28784 0
M  V30 1317 C 125.817 -2.10883 -0.0956067 0
M  V30 1318 O 125.165 -1.99833 -1.10811 0
M  V30 1319 C 125.375 -2.5111 2.42373 0
M  V30 1320 C 126.723 -3.17053 2.82423 0
M  V30 1321 O 127.747 -2.61429 2.41937 0
M  V30 1322 O 126.606 -4.17742 3.52355 0
M  V30 1323 H 123.7 -0.654491 0.50554 0
M  V30 1324 H 126.246 -0.752014 1.52128 0
M  V30 1325 H 125.018 -2.02556 3.34793 0
M  V30 1326 H 124.641 -3.3067 2.20778 0
M  V30 1327 N 125.638 -1.25649 -0.95132 0
M  V30 1328 C 126.571 -1.00644 -2.04807 0
M  V30 1329 C 127.549 0.0654271 -1.62468 0
M  V30 1330 O 128.733 -0.074911 -1.88351 0
M  V30 1331 C 125.86 -0.522052 -3.34653 0
M  V30 1332 C 124.906 -1.58495 -3.95957 0
M  V30 1333 S 125.739 -3.17108 -4.31512 0
M  V30 1334 C 126.895 -2.70412 -5.64471 0
M  V30 1335 H 127.128 -1.93508 -2.25703 0
M  V30 1336 H 124.661 -1.09216 -1.09139 0
M  V30 1337 H 126.619 -0.24923 -4.09743 0
M  V30 1338 H 125.28 0.386146 -3.11717 0
M  V30 1339 H 124.473 -1.1968 -4.89584 0
M  V30 1340 H 124.075 -1.80862 -3.2736 0
M  V30 1341 H 126.367 -2.14245 -6.42733 0
M  V30 1342 H 127.31 -3.62693 -6.08161 0
M  V30 1343 H 127.718 -2.10302 -5.23864 0
M  V30 1344 N 127.117 1.15442 -1.07289 0
M  V30 1345 C 128.394 1.82306 -0.708792 0
M  V30 1346 C 128.774 1.94991 0.808807 0
M  V30 1347 O 128.122 1.50085 1.72298 0
M  V30 1348 C 128.332 3.18695 -1.42247 0
M  V30 1349 C 129.68 3.94341 -1.57417 0
M  V30 1350 O 130.704 3.28247 -1.38319 0
M  V30 1351 O 129.563 5.12839 -1.88834 0
M  V30 1352 H 126.657 0.787628 -0.252132 0
M  V30 1353 H 129.203 1.22559 -1.17377 0
M  V30 1354 H 127.975 3.04557 -2.45684 0
M  V30 1355 H 127.598 3.86128 -0.948223 0
M  V30 1356 N 128.595 0.856903 1.32268 0
M  V30 1357 C 129.542 0.301172 2.28827 0
M  V30 1358 C 130.512 -0.593104 1.5515 0
M  V30 1359 O 131.697 -0.527537 1.83362 0
M  V30 1360 C 128.837 -0.502523 3.41422 0
M  V30 1361 C 127.95 0.417797 4.29975 0
M  V30 1362 C 127.085 -0.398749 5.29701 0
M  V30 1363 C 126.124 0.518827 6.09897 0
M  V30 1364 N 125.261 -0.260674 7.01616 0
M  V30 1365 H 130.101 1.12983 2.75751 0
M  V30 1366 H 127.638 0.568582 1.35667 0
M  V30 1367 H 129.596 -0.984141 4.05426 0
M  V30 1368 H 128.226 -1.29599 2.95642 0
M  V30 1369 H 127.278 1.01781 3.66531 0
M  V30 1370 H 128.59 1.12191 4.86019 0
M  V30 1371 H 127.744 -0.943435 5.9932 0
M  V30 1372 H 126.483 -1.13622 4.7428 0
M  V30 1373 H 125.488 1.07538 5.39181 0
M  V30 1374 H 126.713 1.25495 6.67404 0
M  V30 1375 H 124.659 -0.981198 6.4862 0
M  V30 1376 H 124.576 0.384364 7.55022 0
M  V30 1377 H 125.844 -0.787014 7.75517 0
M  V30 1378 N 130.073 -1.45103 0.615059 0
M  V30 1379 C 131.036 -2.29025 -0.0895485 0
M  V30 1380 C 132.036 -1.40174 -0.787906 0
M  V30 1381 O 133.226 -1.62217 -0.634933 0
M  V30 1382 C 130.358 -3.21376 -1.13711 0
M  V30 1383 H 131.551 -2.92807 0.648382 0
M  V30 1384 H 129.104 -1.51749 0.374444 0
M  V30 1385 H 129.839 -2.6241 -1.90556 0
M  V30 1386 H 129.624 -3.86834 -0.640475 0
M  V30 1387 H 131.114 -3.84459 -1.63036 0
M  V30 1388 N 131.551 -0.354651 -1.53558 0
M  V30 1389 C 132.498 0.496968 -2.25386 0
M  V30 1390 C 133.468 1.0865 -1.25636 0
M  V30 1391 O 134.653 1.12104 -1.54394 0
M  V30 1392 C 131.793 1.63637 -3.03837 0
M  V30 1393 C 130.906 1.07307 -4.18461 0
M  V30 1394 C 130.041 2.18068 -4.84376 0
M  V30 1395 C 129.08 1.59147 -5.91049 0
M  V30 1396 N 128.217 2.63695 -6.50699 0
M  V30 1397 H 133.057 -0.122075 -2.9775 0
M  V30 1398 H 130.594 -0.0720154 -1.46924 0
M  V30 1399 H 132.552 2.30734 -3.47589 0
M  V30 1400 H 131.182 2.22623 -2.33749 0
M  V30 1401 H 130.234 0.292708 -3.79272 0
M  V30 1402 H 131.546 0.602193 -4.95152 0
M  V30 1403 H 130.7 2.93007 -5.31255 0
M  V30 1404 H 129.439 2.68504 -4.07133 0
M  V30 1405 H 128.444 0.827175 -5.43542 0
M  V30 1406 H 129.669 1.09549 -6.70206 0
M  V30 1407 H 127.615 3.13365 -5.76315 0
M  V30 1408 H 127.532 2.21263 -7.22896 0
M  V30 1409 H 128.8 3.3837 -7.02229 0
M  V30 1410 N 133.029 1.57378 -0.0835403 0
M  V30 1411 C 133.939 2.16897 0.894021 0
M  V30 1412 C 134.955 1.13528 1.31861 0
M  V30 1413 O 136.131 1.45848 1.3889 0
M  V30 1414 C 133.196 2.72831 2.13925 0
M  V30 1415 C 132.257 3.91115 1.76997 0
M  V30 1416 C 131.49 4.44371 2.95584 0
M  V30 1417 O 131.713 3.96596 4.09961 0
M  V30 1418 O 130.647 5.35549 2.74719 0
M  V30 1419 H 134.473 3.00814 0.417679 0
M  V30 1420 H 132.058 1.48741 0.140181 0
M  V30 1421 H 133.94 3.0863 2.86924 0
M  V30 1422 H 132.615 1.91967 2.60635 0
M  V30 1423 H 131.522 3.60148 1.01214 0
M  V30 1424 H 132.855 4.73307 1.3506 0
M  V30 1425 N 134.507 -0.190092 1.56449 0
M  V30 1426 C 135.437 -1.23816 1.97969 0
M  V30 1427 C 136.418 -1.47201 0.852395 0
M  V30 1428 O 137.603 -1.58854 1.1171 0
M  V30 1429 C 134.733 -2.5813 2.3235 0
M  V30 1430 C 133.687 -2.49348 3.47864 0
M  V30 1431 C 133.013 -3.8798 3.67934 0
M  V30 1432 C 134.313 -2.01424 4.81898 0
M  V30 1433 H 136.007 -0.89311 2.85769 0
M  V30 1434 H 133.553 -0.428177 1.37487 0
M  V30 1435 H 135.506 -3.31637 2.59991 0
M  V30 1436 H 134.23 -2.94386 1.41438 0
M  V30 1437 H 132.889 -1.78297 3.20321 0
M  V30 1438 H 132.537 -4.21597 2.74344 0
M  V30 1439 H 132.237 -3.82978 4.45648 0
M  V30 1440 H 133.761 -4.63101 3.97957 0
M  V30 1441 H 135.175 -2.64693 5.08538 0
M  V30 1442 H 133.572 -2.07413 5.63116 0
M  V30 1443 H 134.642 -0.967677 4.75146 0
M  V30 1444 N 135.985 -1.50799 -0.457987 0
M  V30 1445 C 137.233 -1.62121 -1.2067 0
M  V30 1446 C 137.554 -0.329793 -1.92191 0
M  V30 1447 O 136.824 0.653409 -1.84682 0
M  V30 1448 H 135.404 -0.597441 -0.448411 0
M  V30 1449 H 138.066 -1.87637 -0.527096 0
M  V30 1450 H 137.162 -2.43882 -1.94751 0
M  V30 1451 N 137.463 0.71206 -1.40597 0
M  V30 1452 C 138.71 1.47197 -1.39065 0
M  V30 1453 C 139.038 1.94499 0.00583891 0
M  V30 1454 O 138.293 1.68752 0.99102 0
M  V30 1455 C 138.592 2.71039 -2.32965 0
M  V30 1456 C 138.258 2.42484 -3.80148 0
M  V30 1457 C 136.92 2.34406 -4.20247 0
M  V30 1458 C 139.272 2.18598 -4.73143 0
M  V30 1459 C 136.6 2.00516 -5.51371 0
M  V30 1460 C 138.952 1.8622 -6.0457 0
M  V30 1461 C 137.616 1.76626 -6.43708 0
M  V30 1462 H 136.886 0.538634 -0.508876 0
M  V30 1463 H 139.533 0.815325 -1.73276 0
M  V30 1464 H 137.838 3.41558 -1.91951 0
M  V30 1465 H 139.535 3.29138 -2.29061 0
M  V30 1466 H 136.125 2.49659 -3.4838 0
M  V30 1467 H 140.309 2.23793 -4.42979 0
M  V30 1468 H 135.565 1.91628 -5.80593 0
M  V30 1469 H 139.739 1.66752 -6.76141 0
M  V30 1470 H 137.366 1.50133 -7.45228 0
M  V30 1471 N 138.941 1.26152 0.944643 0
M  V30 1472 C 139.873 1.03199 2.04652 0
M  V30 1473 C 140.886 -0.00642356 1.62799 0
M  V30 1474 O 142.075 0.233263 1.76969 0
M  V30 1475 C 139.175 0.540111 3.34568 0
M  V30 1476 C 138.348 1.64697 4.05208 0
M  V30 1477 C 137.407 1.15374 5.13396 0
M  V30 1478 O 136.433 1.85013 5.38293 0
M  V30 1479 N 137.635 0.00031529 5.805 0
M  V30 1480 H 140.4 1.9808 2.2491 0
M  V30 1481 H 137.961 1.17491 1.11389 0
M  V30 1482 H 139.953 0.194401 4.04233 0
M  V30 1483 H 138.523 -0.315021 3.11009 0
M  V30 1484 H 137.743 2.16379 3.29506 0
M  V30 1485 H 139.031 2.3903 4.49157 0
M  V30 1486 H 138.429 -0.581336 5.62705 0
M  V30 1487 H 136.986 -0.286346 6.51171 0
M  V30 1488 N 140.419 -1.14872 1.07899 0
M  V30 1489 C 141.668 -1.85135 0.800499 0
M  V30 1490 C 141.981 -1.83547 -0.676014 0
M  V30 1491 O 143.187 -2.49548 -1.06948 0
M  V30 1492 C 141.643 -3.3231 1.38197 0
M  V30 1493 C 141.251 -3.42329 2.8899 0
M  V30 1494 C 142.995 -4.0772 1.18174 0
M  V30 1495 C 140.902 -4.83684 3.403 0
M  V30 1496 H 139.832 -0.693563 0.29578 0
M  V30 1497 H 142.483 -1.29532 1.29976 0
M  V30 1498 H 140.865 -3.87618 0.810431 0
M  V30 1499 H 142.039 -2.97097 3.52236 0
M  V30 1500 H 140.354 -2.80369 3.07867 0
M  V30 1501 H 142.951 -5.12049 1.5398 0
M  V30 1502 H 143.294 -4.16124 0.12117 0
M  V30 1503 H 143.827 -3.58696 1.71994 0
M  V30 1504 H 140.566 -4.80465 4.45907 0
M  V30 1505 H 140.086 -5.29474 2.81811 0
M  V30 1506 H 141.765 -5.52558 3.36584 0
M  V30 1507 N 141.898 -0.863906 -1.31812 0
M  V30 1508 C 143.126 -0.486111 -2.01108 0
M  V30 1509 C 143.541 0.919755 -1.64882 0
M  V30 1510 O 142.898 1.60162 -0.874893 0
M  V30 1511 C 142.949 -0.626435 -3.56031 0
M  V30 1512 O 142.67 -1.97693 -3.90959 0
M  V30 1513 C 144.171 -0.248857 -4.42601 0
M  V30 1514 H 141.391 -0.190052 -0.643523 0
M  V30 1515 H 143.935 -1.1634 -1.68182 0
M  V30 1516 H 142.09 0.00322717 -3.874 0
M  V30 1517 H 142.504 -1.98034 -4.85678 0
M  V30 1518 H 143.978 -0.398016 -5.50563 0
M  V30 1519 H 144.455 0.811489 -4.31638 0
M  V30 1520 H 145.061 -0.853971 -4.16638 0
M  V30 1521 N 143.376 1.44774 -0.622745 0
M  V30 1522 C 144.324 2.32387 0.0994683 0
M  V30 1523 C 145.318 1.46859 0.844326 0
M  V30 1524 O 146.524 1.63254 0.758174 0
M  V30 1525 H 142.899 0.750273 0.0509291 0
M  V30 1526 H 144.87 2.91062 -0.65767 0
M  V30 1527 C 143.619 3.30723 1.07319 0
M  V30 1528 H 142.942 3.96541 0.509462 0
M  V30 1529 H 144.382 3.94725 1.54817 0
M  V30 1530 C 142.841 2.59021 2.15429 0
M  V30 1531 O 143.371 2.38286 3.23393 0
M  V30 1532 N 141.577 2.189 1.91131 0
M  V30 1533 H 141.124 2.35964 1.03337 0
M  V30 1534 H 141.082 1.71251 2.63668 0
M  V30 1535 N 144.854 0.36279 1.53368 0
M  V30 1536 C 146.1 -0.228113 2.01513 0
M  V30 1537 C 146.433 -1.48648 1.2497 0
M  V30 1538 O 145.708 -1.91459 0.342616 0
M  V30 1539 C 145.991 -0.522884 3.56284 0
M  V30 1540 C 145.844 0.74892 4.43521 0
M  V30 1541 C 147.163 -1.32461 4.19693 0
M  V30 1542 H 144.282 -0.0814343 0.732487 0
M  V30 1543 H 146.924 0.48713 1.83649 0
M  V30 1544 H 145.074 -1.1322 3.71636 0
M  V30 1545 H 146.746 1.38648 4.39971 0
M  V30 1546 H 144.989 1.36986 4.11603 0
M  V30 1547 H 145.66 0.497667 5.49752 0
M  V30 1548 H 148.136 -0.809203 4.08156 0
M  V30 1549 H 147.012 -1.49961 5.28018 0
M  V30 1550 H 147.273 -2.33232 3.75573 0
M  V30 1551 N 146.332 -1.57332 0.0918853 0
M  V30 1552 C 147.743 -1.81496 -0.437739 0
M  V30 1553 C 148.094 -1.00727 -1.6837 0
M  V30 1554 O 147.219 -0.235694 -2.15113 0
M  V30 1555 C 147.814 -3.29197 -0.800939 0
M  V30 1556 C 146.373 -3.54136 -1.27532 0
M  V30 1557 C 145.52 -2.75979 -0.270392 0
M  V30 1558 H 148.471 -1.55494 0.317366 0
M  V30 1559 H 148.492 -3.42344 -1.66074 0
M  V30 1560 H 148.004 -3.87955 0.106078 0
M  V30 1561 H 146.105 -3.00705 -2.20016 0
M  V30 1562 H 146.218 -4.62792 -1.23938 0
M  V30 1563 H 144.582 -2.43349 -0.751872 0
M  V30 1564 H 145.365 -3.37484 0.629248 0
M  V30 1565 N 147.81 0.181792 -1.56548 0
M  V30 1566 C 149.056 0.901431 -1.81665 0
M  V30 1567 C 149.389 1.82347 -0.668075 0
M  V30 1568 O 148.664 1.91669 0.330615 0
M  V30 1569 C 148.947 1.70618 -3.17115 0
M  V30 1570 C 148.8 0.807964 -4.42484 0
M  V30 1571 C 150.119 2.67605 -3.49393 0
M  V30 1572 H 147.238 0.32627 -0.660846 0
M  V30 1573 H 149.88 0.168134 -1.89255 0
M  V30 1574 H 148.03 2.33133 -3.10775 0
M  V30 1575 H 149.702 0.19649 -4.60881 0
M  V30 1576 H 147.945 0.115411 -4.33646 0
M  V30 1577 H 148.616 1.40632 -5.33785 0
M  V30 1578 H 151.092 2.15218 -3.56118 0
M  V30 1579 H 149.968 3.20985 -4.45264 0
M  V30 1580 H 150.229 3.47298 -2.73563 0
M  V30 1581 N 149.288 1.51039 0.449983 0
M  V30 1582 C 150.518 1.66627 1.22143 0
M  V30 1583 C 150.926 0.357776 1.85786 0
M  V30 1584 O 150.269 -0.672424 1.70951 0
M  V30 1585 C 150.331 2.71562 2.35573 0
M  V30 1586 C 149.995 4.14526 1.92399 0
M  V30 1587 C 150.992 4.99717 1.43453 0
M  V30 1588 C 148.677 4.60559 2.00475 0
M  V30 1589 C 150.671 6.28998 1.03155 0
M  V30 1590 C 148.358 5.8984 1.59788 0
M  V30 1591 C 149.356 6.73886 1.11208 0
M  V30 1592 O 149.044 8.0075 0.710935 0
M  V30 1593 H 148.776 0.562635 0.374724 0
M  V30 1594 H 151.33 1.98146 0.541036 0
M  V30 1595 H 149.56 2.3533 3.06849 0
M  V30 1596 H 151.249 2.76156 2.97478 0
M  V30 1597 H 152.015 4.65361 1.36618 0
M  V30 1598 H 147.894 3.95273 2.37235 0
M  V30 1599 H 151.438 6.9455 0.651663 0
M  V30 1600 H 147.335 6.23713 1.66289 0
M  V30 1601 H 148.103 8.142 0.837913 0
M  V30 1602 N 150.766 -0.704594 1.40972 0
M  V30 1603 C 151.991 -1.49858 1.43378 0
M  V30 1604 C 152.416 -1.88061 0.038184 0
M  V30 1605 O 151.774 -1.5402 -0.956425 0
M  V30 1606 C 151.822 -2.74333 2.34038 0
M  V30 1607 O 150.926 -3.7147 1.7912 0
M  V30 1608 H 150.267 -0.45139 0.486974 0
M  V30 1609 H 152.797 -0.866832 1.8533 0
M  V30 1610 H 152.807 -3.22741 2.49604 0
M  V30 1611 H 151.482 -2.45863 3.35446 0
M  V30 1612 H 150.059 -3.30363 1.72958 0
M  V30 1613 N 152.244 -1.26651 -0.937939 0
M  V30 1614 C 153.655 -1.1125 -1.49934 0
M  V30 1615 C 154.006 0.306077 -1.93798 0
M  V30 1616 O 153.131 1.19792 -1.80219 0
M  V30 1617 C 153.726 -2.01339 -2.72485 0
M  V30 1618 C 152.285 -1.90074 -3.24883 0
M  V30 1619 C 151.432 -1.94498 -1.97651 0
M  V30 1620 H 154.383 -1.39693 -0.753091 0
M  V30 1621 H 154.404 -1.56319 -3.46907 0
M  V30 1622 H 153.916 -3.04577 -2.40529 0
M  V30 1623 H 152.017 -0.897827 -3.61621 0
M  V30 1624 H 152.13 -2.75778 -3.9177 0
M  V30 1625 H 150.494 -1.38591 -2.13693 0
M  V30 1626 H 151.277 -2.99372 -1.68022 0
M  V30 1627 N 153.722 1.14298 -1.08507 0
M  V30 1628 C 154.67 2.21483 -0.710483 0
M  V30 1629 C 155.664 1.66998 0.284234 0
M  V30 1630 O 156.87 1.79401 0.146692 0
M  V30 1631 H 153.245 0.721578 -0.211729 0
M  V30 1632 H 155.216 2.50348 -1.62384 0
M  V30 1633 C 153.965 3.4743 -0.137007 0
M  V30 1634 H 153.288 3.89686 -0.893592 0
M  V30 1635 H 154.728 4.2391 0.0872789 0
M  V30 1636 C 153.187 3.17548 1.12538 0
M  V30 1637 O 153.717 3.35437 2.21009 0
M  V30 1638 N 151.923 2.71499 1.03617 0
M  V30 1639 H 151.47 2.57143 0.153403 0
M  V30 1640 H 151.428 2.51881 1.88158 0
M  V30 1641 N 155.201 0.870884 1.31352 0
M  V30 1642 C 156.164 0.332243 2.26779 0
M  V30 1643 C 157.164 -0.517302 1.52252 0
M  V30 1644 O 158.354 -0.326477 1.71113 0
M  V30 1645 C 155.486 -0.528066 3.36785 0
M  V30 1646 H 156.679 1.17469 2.75937 0
M  V30 1647 H 154.232 0.64655 1.423 0
M  V30 1648 H 154.967 -1.39167 2.92922 0
M  V30 1649 H 154.752 0.0802582 3.92018 0
M  V30 1650 H 156.242 -0.897179 4.07849 0
M  V30 1651 N 156.679 -1.44442 0.630414 0
M  V30 1652 C 157.928 -2.01267 0.132073 0
M  V30 1653 C 158.241 -1.50172 -1.25331 0
M  V30 1654 O 159.447 -1.9912 -1.84562 0
M  V30 1655 C 157.903 -3.59422 0.185362 0
M  V30 1656 C 157.511 -4.19514 1.57201 0
M  V30 1657 C 159.255 -4.23724 -0.256553 0
M  V30 1658 C 157.162 -5.69891 1.58045 0
M  V30 1659 H 156.092 -0.752619 0.0456092 0
M  V30 1660 H 158.743 -1.65666 0.789106 0
M  V30 1661 H 157.125 -3.92318 -0.538759 0
M  V30 1662 H 158.299 -3.98156 2.31966 0
M  V30 1663 H 156.614 -3.67496 1.95795 0
M  V30 1664 H 159.211 -5.34019 -0.269767 0
M  V30 1665 H 159.554 -3.96013 -1.28372 0
M  V30 1666 H 160.087 -3.95629 0.41505 0
M  V30 1667 H 156.826 -6.02336 2.58597 0
M  V30 1668 H 156.346 -5.93373 0.875725 0
M  V30 1669 H 158.025 -6.33515 1.31408 0
M  V30 1670 N 158.157 -0.370918 -1.53173 0
M  V30 1671 C 159.12 0.460778 -2.24521 0
M  V30 1672 C 160.12 1.00536 -1.25496 0
M  V30 1673 O 161.31 0.890266 -1.49733 0
M  V30 1674 C 158.442 1.64457 -2.98608 0
M  V30 1675 H 159.635 -0.163613 -2.99453 0
M  V30 1676 H 157.188 -0.122699 -1.55818 0
M  V30 1677 H 157.923 2.30691 -2.2793 0
M  V30 1678 H 157.708 1.26099 -3.7127 0
M  V30 1679 H 159.198 2.23384 -3.5283 0
M  V30 1680 N 159.635 1.57281 -0.100228 0
M  V30 1681 C 160.545 2.17833 0.870965 0
M  V30 1682 C 161.561 1.14921 1.30649 0
M  V30 1683 O 162.737 1.47313 1.37335 0
M  V30 1684 C 159.802 2.75085 2.1102 0
M  V30 1685 C 158.863 3.9297 1.72838 0
M  V30 1686 C 158.096 4.47482 2.90854 0
M  V30 1687 O 158.319 4.00922 4.05731 0
M  V30 1688 O 157.253 5.38433 2.69023 0
M  V30 1689 H 161.079 3.0124 0.38575 0
M  V30 1690 H 158.664 1.48881 0.124397 0
M  V30 1691 H 160.546 3.11656 2.83634 0
M  V30 1692 H 159.221 1.94721 2.58584 0
M  V30 1693 H 158.128 3.61201 0.973883 0
M  V30 1694 H 159.461 4.74713 1.30033 0
M  V30 1695 N 161.113 -0.173488 1.56642 0
M  V30 1696 C 162.063 -1.21941 1.92651 0
M  V30 1697 C 163.047 -1.39912 0.794577 0
M  V30 1698 O 164.239 -1.41919 1.05773 0
M  V30 1699 C 161.368 -2.55935 2.28806 0
M  V30 1700 C 160.454 -2.41667 3.48508 0
M  V30 1701 N 160.845 -1.9711 4.65813 0
M  V30 1702 C 159.143 -2.72499 3.53072 0
M  V30 1703 C 159.844 -1.95253 5.47952 0
M  V30 1704 N 158.82 -2.37575 4.88937 0
M  V30 1705 H 162.622 -0.866581 2.80834 0
M  V30 1706 H 160.136 -0.381776 1.57849 0
M  V30 1707 H 162.133 -3.31511 2.52797 0
M  V30 1708 H 160.793 -2.92022 1.41961 0
M  V30 1709 H 161.804 -1.67481 4.90072 0
M  V30 1710 H 158.481 -3.12639 2.767 0
M  V30 1711 H 159.871 -1.6252 6.51948 0
M  V30 1712 N 162.591 -1.51276 -0.441967 0
M  V30 1713 C 163.554 -1.7167 -1.51862 0
M  V30 1714 C 164.554 -0.586793 -1.49711 0
M  V30 1715 O 165.744 -0.854276 -1.51815 0
M  V30 1716 C 162.876 -1.76889 -2.91416 0
M  V30 1717 H 164.069 -2.67754 -1.35084 0
M  V30 1718 H 161.622 -1.41196 -0.670333 0
M  V30 1719 H 162.357 -0.826026 -3.13604 0
M  V30 1720 H 162.142 -2.59001 -2.94382 0
M  V30 1721 H 163.632 -1.94522 -3.69528 0
M  V30 1722 N 164.069 0.697108 -1.41344 0
M  V30 1723 C 165.032 1.79281 -1.42797 0
M  V30 1724 C 166.032 1.57607 -0.318837 0
M  V30 1725 O 167.222 1.64309 -0.578642 0
M  V30 1726 C 164.354 3.17632 -1.23785 0
M  V30 1727 H 165.547 1.79385 -2.40335 0
M  V30 1728 H 163.1 0.904582 -1.27464 0
M  V30 1729 H 163.835 3.23167 -0.270814 0
M  V30 1730 H 163.62 3.34765 -2.04144 0
M  V30 1731 H 165.11 3.97617 -1.27633 0
M  V30 1732 N 165.547 1.27147 0.931209 0
M  V30 1733 C 166.796 1.12664 1.67302 0
M  V30 1734 C 167.109 -0.327718 1.92835 0
M  V30 1735 O 168.315 -0.593392 2.64936 0
M  V30 1736 C 166.771 1.9683 3.01307 0
M  V30 1737 C 166.379 3.46901 2.83485 0
M  V30 1738 C 168.123 1.90985 3.79111 0
M  V30 1739 C 166.03 4.23279 4.13024 0
M  V30 1740 H 164.96 0.41803 0.627509 0
M  V30 1741 H 167.611 1.51539 1.03481 0
M  V30 1742 H 165.993 1.50797 3.66164 0
M  V30 1743 H 167.167 4.00773 2.27415 0
M  V30 1744 H 165.482 3.54088 2.19113 0
M  V30 1745 H 168.079 2.45328 4.75098 0
M  V30 1746 H 168.422 0.882718 4.06834 0
M  V30 1747 H 168.955 2.34895 3.21044 0
M  V30 1748 H 165.694 5.26503 3.90481 0
M  V30 1749 H 165.214 3.74186 4.6877 0
M  V30 1750 H 166.893 4.32265 4.81411 0
M  V30 1751 N 167.025 -1.13721 1.09112 0
M  V30 1752 C 167.957 -2.1871 0.685467 0
M  V30 1753 C 168.97 -1.60527 -0.271068 0
M  V30 1754 O 170.159 -1.78407 -0.0576148 0
M  V30 1755 C 167.259 -3.38898 -0.0111255 0
M  V30 1756 C 166.432 -4.26597 0.966131 0
M  V30 1757 C 165.491 -5.25324 0.303539 0
M  V30 1758 O 164.517 -5.61213 0.950177 0
M  V30 1759 N 165.719 -5.72779 -0.943651 0
M  V30 1760 H 168.484 -2.54126 1.58871 0
M  V30 1761 H 166.045 -1.29012 0.978143 0
M  V30 1762 H 168.037 -4.02014 -0.465517 0
M  V30 1763 H 166.607 -3.01747 -0.816565 0
M  V30 1764 H 165.827 -3.60306 1.59917 0
M  V30 1765 H 167.115 -4.82048 1.6281 0
M  V30 1766 H 166.513 -5.45762 -1.48862 0
M  V30 1767 H 165.07 -6.37847 -1.34142 0
M  V30 1768 N 168.503 -0.877838 -1.30888 0
M  V30 1769 C 169.466 -0.344265 -2.266 0
M  V30 1770 C 170.466 0.50922 -1.52524 0
M  V30 1771 O 171.656 0.317398 -1.71284 0
M  V30 1772 C 168.788 0.510198 -3.37061 0
M  V30 1773 H 169.981 -1.1893 -2.7531 0
M  V30 1774 H 167.534 -0.654088 -1.41956 0
M  V30 1775 H 168.269 1.37612 -2.93655 0
M  V30 1776 H 168.054 -0.101047 -3.9197 0
M  V30 1777 H 169.544 0.875537 -4.08319 0
M  V30 1778 N 169.982 1.44106 -0.638065 0
M  V30 1779 C 170.945 2.29138 0.0531013 0
M  V30 1780 C 171.945 1.41409 0.765506 0
M  V30 1781 O 173.135 1.63206 0.609046 0
M  V30 1782 C 170.267 3.23144 1.08584 0
M  V30 1783 H 171.46 2.91739 -0.694883 0
M  V30 1784 H 169.013 1.51134 -0.398538 0
M  V30 1785 H 169.748 2.65408 1.86357 0
M  V30 1786 H 169.533 3.87804 0.578852 0
M  V30 1787 H 171.023 3.87004 1.56899 0
M  V30 1788 N 171.46 0.379036 1.52974 0
M  V30 1789 C 172.876 0.0285448 1.59574 0
M  V30 1790 C 173.076 -1.45542 1.39355 0
M  V30 1791 O 172.132 -2.2187 1.20541 0
M  V30 1792 C 173.445 0.496535 2.96572 0
M  V30 1793 C 174.993 0.451909 3.0972 0
M  V30 1794 C 175.468 0.895924 4.49152 0
M  V30 1795 N 176.959 0.851522 4.55306 0
M  V30 1796 C 177.694 1.16661 5.61407 0
M  V30 1797 N 177.19 1.55166 6.752 0
M  V30 1798 N 178.983 1.08853 5.51459 0
M  V30 1799 H 171.134 1.34525 1.64367 0
M  V30 1800 H 173.397 0.550733 0.771619 0
M  V30 1801 H 173.103 1.53258 3.16552 0
M  V30 1802 H 172.977 -0.109802 3.7704 0
M  V30 1803 H 175.364 -0.575029 2.89443 0
M  V30 1804 H 175.445 1.09392 2.3123 0
M  V30 1805 H 175.089 1.92104 4.70168 0
M  V30 1806 H 175.019 0.23103 5.26093 0
M  V30 1807 H 177.51 0.568038 3.73606 0
M  V30 1808 H 177.823 1.776 7.52116 0
M  V30 1809 H 176.168 1.59044 6.76557 0
M  V30 1810 H 179.359 0.786803 4.6144 0
M  V30 1811 H 179.532 1.33742 6.34048 0
M  V30 1812 N 172.938 -1.57226 0.108567 0
M  V30 1813 C 174.184 -1.95121 -0.552761 0
M  V30 1814 C 174.517 -0.991345 -1.66991 0
M  V30 1815 O 173.792 -0.0267211 -1.94482 0
M  V30 1816 C 174.075 -3.43039 -1.09528 0
M  V30 1817 C 173.928 -4.49797 0.0177332 0
M  V30 1818 C 175.247 -3.92567 -1.98945 0
M  V30 1819 H 172.366 -0.709496 -0.199461 0
M  V30 1820 H 175.008 -1.89126 0.182011 0
M  V30 1821 H 173.158 -3.48279 -1.72146 0
M  V30 1822 H 174.83 -4.56661 0.652584 0
M  V30 1823 H 173.073 -4.284 0.682309 0
M  V30 1824 H 173.744 -5.50528 -0.402919 0
M  V30 1825 H 176.22 -3.89565 -1.46214 0
M  V30 1826 H 175.096 -4.96605 -2.33827 0
M  V30 1827 H 175.357 -3.32648 -2.91201 0
M  V30 1828 N 174.416 0.165178 -1.56732 0
M  V30 1829 C 175.346 1.20651 -1.99914 0
M  V30 1830 C 176.327 1.45827 -0.875705 0
M  V30 1831 O 177.512 1.57057 -1.14223 0
M  V30 1832 C 174.642 2.54401 -2.36427 0
M  V30 1833 C 173.596 2.43782 -3.51787 0
M  V30 1834 C 172.922 3.82078 -3.7406 0
M  V30 1835 C 174.222 1.93732 -4.85041 0
M  V30 1836 H 175.916 0.847534 -2.87154 0
M  V30 1837 H 173.462 0.40625 -1.38151 0
M  V30 1838 H 175.415 3.27458 -2.65234 0
M  V30 1839 H 174.139 2.92098 -1.46103 0
M  V30 1840 H 172.798 1.73178 -3.23117 0
M  V30 1841 H 172.446 4.17179 -2.81017 0
M  V30 1842 H 172.146 3.7584 -4.51684 0
M  V30 1843 H 173.67 4.56712 -4.05274 0
M  V30 1844 H 175.084 2.56569 -5.12684 0
M  V30 1845 H 173.481 1.98428 -5.66345 0
M  V30 1846 H 174.551 0.891962 -4.76626 0
M  V30 1847 N 175.894 1.51508 0.433938 0
M  V30 1848 C 177.31 1.39759 0.770682 0
M  V30 1849 C 177.51 0.482594 1.95636 0
M  V30 1850 O 176.566 -0.0609691 2.52426 0
M  V30 1851 C 177.879 2.81851 1.04787 0
M  V30 1852 C 179.427 2.91025 1.1521 0
M  V30 1853 C 179.902 4.34032 1.46219 0
M  V30 1854 N 181.393 4.37154 1.53136 0
M  V30 1855 C 182.128 5.4484 1.78709 0
M  V30 1856 N 181.624 6.62682 2.02051 0
M  V30 1857 N 183.417 5.32324 1.80519 0
M  V30 1858 H 175.568 2.09548 -0.346892 0
M  V30 1859 H 177.831 0.943446 -0.0928074 0
M  V30 1860 H 177.537 3.50815 0.249304 0
M  V30 1861 H 177.411 3.21386 1.97461 0
M  V30 1862 H 179.798 2.22257 1.94128 0
M  V30 1863 H 179.879 2.54983 0.204281 0
M  V30 1864 H 179.523 5.03351 0.678274 0
M  V30 1865 H 179.453 4.6759 2.42212 0
M  V30 1866 H 181.944 3.52197 1.36987 0
M  V30 1867 H 182.257 7.40543 2.20943 0
M  V30 1868 H 180.602 6.65791 1.99366 0
M  V30 1869 H 183.793 4.39246 1.61805 0
M  V30 1870 H 183.966 6.16328 2.00111 0
M  V30 1871 N 177.372 -0.689602 1.41712 0
M  V30 1872 C 178.304 -1.815 1.39966 0
M  V30 1873 C 179.317 -1.59995 0.300917 0
M  V30 1874 O 180.506 -1.69387 0.563039 0
M  V30 1875 C 177.606 -3.18364 1.16179 0
M  V30 1876 C 176.779 -3.66847 2.38206 0
M  V30 1877 C 175.838 -4.82398 2.10186 0
M  V30 1878 O 174.864 -4.93706 2.83272 0
M  V30 1879 N 176.066 -5.70064 1.0958 0
M  V30 1880 H 178.831 -1.83488 2.36965 0
M  V30 1881 H 176.392 -0.872149 1.36401 0
M  V30 1882 H 178.384 -3.93301 0.953756 0
M  V30 1883 H 176.954 -3.11365 0.27756 0
M  V30 1884 H 176.174 -2.82751 2.74673 0
M  V30 1885 H 177.462 -3.95978 3.19498 0
M  V30 1886 H 176.86 -5.63565 0.491019 0
M  V30 1887 H 175.417 -6.44874 0.947656 0
M  V30 1888 N 178.85 -1.27639 -0.924453 0
M  V30 1889 C 180.127 -1.04887 -1.651 0
M  V30 1890 C 180.507 0.415327 -2.06974 0
M  V30 1891 O 179.855 1.39923 -1.80648 0
M  V30 1892 C 180.065 -2.01348 -2.85061 0
M  V30 1893 C 181.413 -2.30899 -3.56329 0
M  V30 1894 O 182.437 -1.99348 -2.95193 0
M  V30 1895 O 181.296 -2.84699 -4.66485 0
M  V30 1896 H 178.39 -0.400083 -0.723784 0
M  V30 1897 H 180.936 -1.38916 -0.974703 0
M  V30 1898 H 179.708 -3.0008 -2.51133 0
M  V30 1899 H 179.331 -1.679 -3.6041 0
M  V30 1900 N 180.328 1.1314 -1.09713 0
M  V30 1901 C 181.275 2.18642 -0.739196 0
M  V30 1902 C 182.245 1.63706 0.280978 0
M  V30 1903 O 183.43 1.90111 0.161946 0
M  V30 1904 C 180.57 3.44685 -0.169102 0
M  V30 1905 C 179.683 4.13711 -1.24367 0
M  V30 1906 C 178.818 5.27379 -0.636019 0
M  V30 1907 C 177.857 5.88259 -1.69169 0
M  V30 1908 N 176.994 6.93352 -1.10485 0
M  V30 1909 H 181.834 2.48607 -1.64312 0
M  V30 1910 H 179.371 1.22066 -0.820875 0
M  V30 1911 H 181.329 4.16815 0.179256 0
M  V30 1912 H 179.959 3.15161 0.698079 0
M  V30 1913 H 179.011 3.39835 -1.70927 0
M  V30 1914 H 180.323 4.55037 -2.04311 0
M  V30 1915 H 179.477 6.06238 -0.236677 0
M  V30 1916 H 178.216 4.8731 0.194928 0
M  V30 1917 H 177.221 5.08092 -2.10055 0
M  V30 1918 H 178.446 6.30399 -2.52536 0
M  V30 1919 H 176.392 6.55335 -0.295234 0
M  V30 1920 H 176.309 7.33236 -1.84121 0
M  V30 1921 H 177.577 7.76057 -0.73181 0
M  V30 1922 N 181.806 0.884767 1.30421 0
M  V30 1923 C 183.222 0.57874 1.48737 0
M  V30 1924 C 183.422 -0.883567 1.81095 0
M  V30 1925 O 182.478 -1.6648 1.89844 0
M  V30 1926 C 183.791 1.49171 2.61091 0
M  V30 1927 C 185.339 1.49532 2.74971 0
M  V30 1928 C 185.814 2.39421 3.90438 0
M  V30 1929 N 187.305 2.37383 3.97748 0
M  V30 1930 C 188.04 3.03647 4.86401 0
M  V30 1931 N 187.536 3.79136 5.79852 0
M  V30 1932 N 189.329 2.9288 4.79768 0
M  V30 1933 H 181.48 1.83075 1.0769 0
M  V30 1934 H 183.743 0.783637 0.533495 0
M  V30 1935 H 183.449 2.53291 2.44001 0
M  V30 1936 H 183.323 1.20113 3.57565 0
M  V30 1937 H 185.71 0.46163 2.91467 0
M  V30 1938 H 185.791 1.8262 1.79119 0
M  V30 1939 H 185.435 3.42874 3.74699 0
M  V30 1940 H 185.365 2.03649 4.85628 0
M  V30 1941 H 187.856 1.82525 3.30897 0
M  V30 1942 H 188.169 4.26789 6.4426 0
M  V30 1943 H 186.514 3.83243 5.79784 0
M  V30 1944 H 189.705 2.33433 4.05742 0
M  V30 1945 H 189.878 3.448 5.4865 0
M  V30 1946 N 183.284 -1.43765 0.645699 0
M  V30 1947 C 184.217 -2.2798 -0.100072 0
M  V30 1948 C 185.195 -1.39391 -0.837194 0
M  V30 1949 O 186.379 -1.68833 -0.838306 0
M  V30 1950 C 183.506 -3.18643 -1.14823 0
M  V30 1951 C 182.552 -4.2344 -0.510009 0
M  V30 1952 S 183.385 -5.30761 0.710824 0
M  V30 1953 C 184.541 -6.24992 -0.33699 0
M  V30 1954 H 184.774 -2.90884 0.614322 0
M  V30 1955 H 182.307 -1.48166 0.434304 0
M  V30 1956 H 184.265 -3.71424 -1.74799 0
M  V30 1957 H 182.926 -2.54932 -1.8349 0
M  V30 1958 H 182.119 -4.86948 -1.29991 0
M  V30 1959 H 181.721 -3.73997 0.0154577 0
M  V30 1960 H 184.013 -6.66691 -1.20537 0
M  V30 1961 H 184.956 -7.07612 0.262879 0
M  V30 1962 H 185.364 -5.60517 -0.669425 0
M  V30 1963 N 184.763 -0.387143 -1.52771 0
M  V30 1964 C 186.04 0.253197 -1.93954 0
M  V30 1965 C 186.42 1.64545 -1.32243 0
M  V30 1966 O 185.768 2.23191 -0.489699 0
M  V30 1967 C 185.978 0.281722 -3.47861 0
M  V30 1968 C 187.326 0.511715 -4.21505 0
M  V30 1969 O 188.35 0.362023 -3.54356 0
M  V30 1970 O 187.209 0.804847 -5.40541 0
M  V30 1971 H 184.303 0.156845 -0.811991 0
M  V30 1972 H 186.849 -0.441494 -1.63856 0
M  V30 1973 H 185.621 -0.693571 -3.85104 0
M  V30 1974 H 185.244 1.02142 -3.84256 0
M  V30 1975 N 186.241 1.57166 -0.116904 0
M  V30 1976 C 187.151 2.18745 0.847812 0
M  V30 1977 C 188.167 1.163 1.29423 0
M  V30 1978 O 189.343 1.48761 1.35765 0
M  V30 1979 C 186.408 2.77307 2.0809 0
M  V30 1980 C 185.469 3.94781 1.68661 0
M  V30 1981 C 184.702 4.50541 2.86091 0
M  V30 1982 O 184.925 4.05202 4.01456 0
M  V30 1983 O 183.859 5.41256 2.63298 0
M  V30 1984 H 187.685 3.01632 0.353778 0
M  V30 1985 H 185.27 1.49005 0.108599 0
M  V30 1986 H 187.152 3.14647 2.80313 0
M  V30 1987 H 185.827 1.97452 2.56504 0
M  V30 1988 H 184.734 3.62214 0.935518 0
M  V30 1989 H 186.067 4.76065 1.24991 0
M  V30 1990 N 187.719 -0.156864 1.56817 0
M  V30 1991 C 188.666 -1.19394 1.97519 0
M  V30 1992 C 189.636 -1.4322 0.841265 0
M  V30 1993 O 190.821 -1.55719 1.10255 0
M  V30 1994 C 187.961 -2.52483 2.35258 0
M  V30 1995 C 187.074 -2.35914 3.61896 0
M  V30 1996 C 186.209 -3.61969 3.88782 0
M  V30 1997 C 185.248 -3.40395 5.08722 0
M  V30 1998 N 184.385 -4.58556 5.31668 0
M  V30 1999 H 189.225 -0.839845 2.85921 0
M  V30 2000 H 186.762 -0.403264 1.41464 0
M  V30 2001 H 188.72 -3.30071 2.55165 0
M  V30 2002 H 187.35 -2.85859 1.49949 0
M  V30 2003 H 186.402 -1.49429 3.49821 0
M  V30 2004 H 187.714 -2.15926 4.49641 0
M  V30 2005 H 186.868 -4.47989 4.09135 0
M  V30 2006 H 185.607 -3.84951 2.9944 0
M  V30 2007 H 184.612 -2.52763 4.88253 0
M  V30 2008 H 185.837 -3.18822 5.99608 0
M  V30 2009 H 183.783 -4.81729 4.45279 0
M  V30 2010 H 183.7 -4.41535 6.13664 0
M  V30 2011 H 184.968 -5.45817 5.5651 0
M  V30 2012 N 189.197 -1.51736 -0.425897 0
M  V30 2013 C 190.13 -1.68574 -1.53812 0
M  V30 2014 C 191.108 -0.53328 -1.53606 0
M  V30 2015 O 192.292 -0.758555 -1.72564 0
M  V30 2016 C 189.419 -1.70977 -2.92377 0
M  V30 2017 C 188.465 -2.92324 -3.10563 0
M  V30 2018 S 189.298 -4.52952 -2.85648 0
M  V30 2019 C 190.454 -4.58117 -4.26474 0
M  V30 2020 H 190.687 -2.62647 -1.39298 0
M  V30 2021 H 188.22 -1.41564 -0.616361 0
M  V30 2022 H 190.178 -1.73047 -3.72243 0
M  V30 2023 H 188.839 -0.78061 -3.04245 0
M  V30 2024 H 188.032 -2.90439 -4.11899 0
M  V30 2025 H 187.634 -2.88055 -2.38538 0
M  V30 2026 H 189.926 -4.34462 -5.19855 0
M  V30 2027 H 190.869 -5.59983 -4.33388 0
M  V30 2028 H 191.277 -3.8732 -4.10662 0
M  V30 2029 N 190.675 0.682077 -1.42076 0
M  V30 2030 C 191.638 1.77756 -1.44691 0
M  V30 2031 C 192.638 1.5726 -0.335535 0
M  V30 2032 O 193.828 1.63686 -0.596037 0
M  V30 2033 C 190.96 3.16301 -1.27146 0
M  V30 2034 H 192.153 1.76826 -2.42224 0
M  V30 2035 H 189.706 0.891012 -1.28416 0
M  V30 2036 H 190.441 3.22862 -0.305075 0
M  V30 2037 H 190.226 3.32581 -2.07683 0
M  V30 2038 H 191.716 3.96241 -1.31843 0
M  V30 2039 N 192.153 1.28127 0.917671 0
M  V30 2040 C 193.1 1.11717 2.0196 0
M  V30 2041 C 194.07 0.0153929 1.66093 0
M  V30 2042 O 195.255 0.179596 1.89953 0
M  V30 2043 C 192.395 0.780927 3.36148 0
M  V30 2044 C 191.508 1.96135 3.84909 0
M  V30 2045 C 190.643 1.56609 5.0759 0
M  V30 2046 C 189.682 2.71339 5.48673 0
M  V30 2047 N 188.819 2.32332 6.62545 0
M  V30 2048 H 193.659 2.06003 2.15329 0
M  V30 2049 H 191.196 1.02535 1.05475 0
M  V30 2050 H 193.154 0.56675 4.13333 0
M  V30 2051 H 191.784 -0.124998 3.22558 0
M  V30 2052 H 190.836 2.28777 3.03916 0
M  V30 2053 H 192.148 2.82165 4.1132 0
M  V30 2054 H 191.302 1.31374 5.92305 0
M  V30 2055 H 190.041 0.677014 4.82978 0
M  V30 2056 H 189.046 2.97276 4.62501 0
M  V30 2057 H 190.271 3.60882 5.75274 0
M  V30 2058 H 188.217 1.45889 6.39572 0
M  V30 2059 H 188.134 3.11899 6.88662 0
M  V30 2060 H 189.402 2.10371 7.50576 0
M  V30 2061 N 193.631 -1.12557 1.10312 0
M  V30 2062 C 195.047 -1.36036 0.834649 0
M  V30 2063 C 195.247 -1.93946 -0.546539 0
M  V30 2064 O 194.303 -2.16484 -1.29966 0
M  V30 2065 C 195.616 -2.30312 1.9333 0
M  V30 2066 C 197.164 -2.43906 1.9616 0
M  V30 2067 C 197.639 -3.41496 3.05195 0
M  V30 2068 N 199.13 -3.49053 3.04494 0
M  V30 2069 C 199.865 -4.24471 3.85502 0
M  V30 2070 N 199.361 -5.02966 4.76442 0
M  V30 2071 N 201.154 -4.19864 3.73725 0
M  V30 2072 H 193.305 -0.733246 1.99342 0
M  V30 2073 H 195.568 -0.385234 0.866198 0
M  V30 2074 H 195.274 -1.94933 2.92735 0
M  V30 2075 H 195.148 -3.30421 1.81939 0
M  V30 2076 H 197.535 -2.78567 0.973886 0
M  V30 2077 H 197.616 -1.4369 2.11629 0
M  V30 2078 H 197.26 -3.07565 4.04186 0
M  V30 2079 H 197.19 -4.41539 2.86968 0
M  V30 2080 H 199.681 -2.93053 2.38596 0
M  V30 2081 H 199.994 -5.57846 5.34815 0
M  V30 2082 H 198.339 -5.02167 4.80472 0
M  V30 2083 H 201.53 -3.57623 3.02032 0
M  V30 2084 H 201.703 -4.78386 4.37093 0
M  V30 2085 N 195.109 -0.891671 -1.2995 0
M  V30 2086 C 196.386 -0.433307 -1.9074 0
M  V30 2087 C 196.766 1.08646 -1.80995 0
M  V30 2088 O 196.114 1.92476 -1.23147 0
M  V30 2089 C 196.324 -0.938895 -3.36134 0
M  V30 2090 C 197.672 -0.977829 -4.13187 0
M  V30 2091 O 198.696 -0.886015 -3.45005 0
M  V30 2092 O 197.555 -1.11453 -5.35015 0
M  V30 2093 H 194.649 -0.133699 -0.816121 0
M  V30 2094 H 197.195 -0.981011 -1.38471 0
M  V30 2095 H 195.967 -1.98281 -3.37343 0
M  V30 2096 H 195.59 -0.37074 -3.95868 0
M  V30 2097 N 196.587 1.43421 -0.653314 0
M  V30 2098 C 197.517 2.33487 0.0246656 0
M  V30 2099 C 198.498 1.49475 0.811863 0
M  V30 2100 O 199.683 1.78139 0.773322 0
M  V30 2101 C 196.813 3.32841 0.99166 0
M  V30 2102 C 195.767 4.26842 0.314568 0
M  V30 2103 C 195.093 5.16236 1.39302 0
M  V30 2104 C 196.393 5.16243 -0.793095 0
M  V30 2105 H 198.087 2.90427 -0.727481 0
M  V30 2106 H 195.633 1.39649 -0.351287 0
M  V30 2107 H 197.586 3.94747 1.47487 0
M  V30 2108 H 196.31 2.74158 1.77497 0
M  V30 2109 H 194.969 3.663 -0.148199 0
M  V30 2110 H 194.617 4.53891 2.16776 0
M  V30 2111 H 194.317 5.79948 0.945223 0
M  V30 2112 H 195.841 5.81015 1.87759 0
M  V30 2113 H 197.255 5.71958 -0.392039 0
M  V30 2114 H 195.652 5.88676 -1.16536 0
M  V30 2115 H 196.722 4.55927 -1.65103 0
M  V30 2116 N 198.065 0.39524 1.52563 0
M  V30 2117 C 199.481 0.0454682 1.59535 0
M  V30 2118 C 199.681 -1.44056 1.4089 0
M  V30 2119 O 198.737 -2.20579 1.22888 0
M  V30 2120 C 200.05 0.527963 2.96029 0
M  V30 2121 C 201.598 0.484733 3.09224 0
M  V30 2122 C 202.073 0.943512 4.48176 0
M  V30 2123 N 203.564 0.899765 4.54377 0
M  V30 2124 C 204.299 1.22609 5.60138 0
M  V30 2125 N 203.795 1.62319 6.73516 0
M  V30 2126 N 205.588 1.14696 5.50274 0
M  V30 2127 H 197.739 1.36261 1.62931 0
M  V30 2128 H 200.002 0.558887 0.765735 0
M  V30 2129 H 199.708 1.56607 3.14908 0
M  V30 2130 H 199.582 -0.0698056 3.77135 0
M  V30 2131 H 201.969 -0.544298 2.90037 0
M  V30 2132 H 202.05 1.11838 2.30056 0
M  V30 2133 H 201.694 1.9708 4.68104 0
M  V30 2134 H 201.624 0.286817 5.25818 0
M  V30 2135 H 204.115 0.607632 3.72983 0
M  V30 2136 H 204.428 1.85567 7.5019 0
M  V30 2137 H 202.773 1.66211 6.74833 0
M  V30 2138 H 205.964 0.835701 4.6058 0
M  V30 2139 H 206.137 1.40459 6.32594 0
M  V30 2140 N 199.544 -1.57102 0.125237 0
M  V30 2141 C 200.79 -1.96488 -0.525753 0
M  V30 2142 C 201.145 -1.00786 -1.6389 0
M  V30 2143 O 200.438 -0.038979 -1.9156 0
M  V30 2144 C 200.632 -3.40096 -1.09862 0
M  V30 2145 C 200.461 -4.4968 -0.0425004 0
M  V30 2146 C 199.231 -5.03781 0.391463 0
M  V30 2147 C 201.429 -5.08936 0.740829 0
M  V30 2148 N 199.411 -5.96948 1.4327 0
M  V30 2149 C 200.782 -5.98105 1.6331 0
M  V30 2150 C 202.837 -4.91576 0.791029 0
M  V30 2151 C 201.54 -6.71774 2.57122 0
M  V30 2152 C 203.566 -5.6593 1.71688 0
M  V30 2153 C 202.928 -6.5479 2.59672 0
M  V30 2154 H 199.027 -0.765072 -0.161831 0
M  V30 2155 H 201.611 -1.93511 0.214801 0
M  V30 2156 H 199.782 -3.43707 -1.80887 0
M  V30 2157 H 201.514 -3.66591 -1.71444 0
M  V30 2158 H 198.269 -4.736 -0.00213584 0
M  V30 2159 H 198.693 -6.48236 1.95243 0
M  V30 2160 H 203.335 -4.22615 0.124915 0
M  V30 2161 H 201.053 -7.39977 3.24744 0
M  V30 2162 H 204.639 -5.54501 1.76125 0
M  V30 2163 H 203.519 -7.11316 3.30149 0
M  V30 2164 N 201.022 0.148545 -1.56898 0
M  V30 2165 C 201.985 1.16736 -1.97244 0
M  V30 2166 C 202.985 1.35947 -0.858777 0
M  V30 2167 O 204.175 1.32966 -1.12542 0
M  V30 2168 C 201.307 2.52798 -2.28705 0
M  V30 2169 H 202.5 0.821279 -2.88435 0
M  V30 2170 H 200.053 0.391831 -1.51309 0
M  V30 2171 H 200.788 2.92381 -1.403 0
M  V30 2172 H 200.573 2.40216 -3.09901 0
M  V30 2173 H 202.063 3.26179 -2.60762 0
M  V30 2174 N 202.5 1.5196 0.417844 0
M  V30 2175 C 203.911 1.57851 0.997 0
M  V30 2176 C 204.262 0.413714 1.91789 0
M  V30 2177 O 203.387 -0.467057 2.113 0
M  V30 2178 C 203.982 2.86085 1.81496 0
M  V30 2179 C 202.541 2.94483 2.34428 0
M  V30 2180 C 201.688 2.52707 1.14169 0
M  V30 2181 H 204.639 1.57455 0.198392 0
M  V30 2182 H 204.66 2.70947 2.67148 0
M  V30 2183 H 204.172 3.70842 1.14446 0
M  V30 2184 H 202.273 2.142 3.04875 0
M  V30 2185 H 202.386 3.98546 2.65891 0
M  V30 2186 H 200.75 2.06353 1.49301 0
M  V30 2187 H 201.533 3.39828 0.486999 0
M  V30 2188 N 203.978 -0.674533 1.42435 0
M  V30 2189 C 205.206 -1.46283 1.46317 0
M  V30 2190 C 205.621 -1.88653 0.0745836 0
M  V30 2191 O 204.978 -1.58151 -0.91074 0
M  V30 2192 C 205.029 -2.71178 2.3905 0
M  V30 2193 O 204.75 -2.30586 3.72507 0
M  V30 2194 C 206.251 -3.64738 2.51955 0
M  V30 2195 H 203.471 -0.450104 0.497642 0
M  V30 2196 H 206.015 -0.828792 1.86953 0
M  V30 2197 H 204.17 -3.3077 2.01667 0
M  V30 2198 H 204.584 -3.11241 4.22172 0
M  V30 2199 H 206.058 -4.49096 3.20962 0
M  V30 2200 H 206.535 -4.10656 1.55752 0
M  V30 2201 H 207.141 -3.11038 2.90061 0
M  V30 2202 N 205.456 -1.28612 -0.910864 0
M  V30 2203 C 206.705 -1.15311 -1.65488 0
M  V30 2204 C 207.018 0.296999 -1.93332 0
M  V30 2205 O 208.224 0.551168 -2.65847 0
M  V30 2206 C 206.68 -2.01599 -2.98137 0
M  V30 2207 C 206.288 -3.51367 -2.7793 0
M  V30 2208 C 208.032 -1.96993 -3.76024 0
M  V30 2209 C 205.939 -4.29797 -4.06237 0
M  V30 2210 H 204.869 -0.42796 -0.620779 0
M  V30 2211 H 207.52 -1.53166 -1.01057 0
M  V30 2212 H 205.902 -1.56603 -3.63719 0
M  V30 2213 H 207.076 -4.0434 -2.21011 0
M  V30 2214 H 205.391 -3.57529 -2.13452 0
M  V30 2215 H 207.988 -2.52856 -4.71135 0
M  V30 2216 H 208.331 -0.94733 -4.05378 0
M  V30 2217 H 208.864 -2.39973 -3.17266 0
M  V30 2218 H 205.603 -5.32648 -3.82055 0
M  V30 2219 H 205.123 -3.81596 -4.62757 0
M  V30 2220 H 206.802 -4.39869 -4.74473 0
M  V30 2221 N 206.934 1.1197 -1.10907 0
M  V30 2222 C 208.182 1.83225 -0.852819 0
M  V30 2223 C 208.503 1.84769 0.623341 0
M  V30 2224 O 207.773 1.3143 1.45269 0
M  V30 2225 H 206.353 0.67849 -0.312507 0
M  V30 2226 H 209.015 1.3556 -1.40033 0
M  V30 2227 H 208.111 2.87265 -1.22005 0
M  V30 2228 N 208.412 0.89855 1.29475 0
M  V30 2229 C 209.828 0.594483 1.48115 0
M  V30 2230 C 210.028 -0.86431 1.82022 0
M  V30 2231 O 209.084 -1.64457 1.91599 0
M  V30 2232 C 210.397 1.51932 2.59494 0
M  V30 2233 C 211.945 1.5244 2.7337 0
M  V30 2234 C 212.42 2.43548 3.87877 0
M  V30 2235 N 213.911 2.41589 3.95208 0
M  V30 2236 C 214.646 3.08789 4.83153 0
M  V30 2237 N 214.142 3.85265 5.75798 0
M  V30 2238 N 215.935 2.97952 4.76635 0
M  V30 2239 H 208.086 1.84207 1.05742 0
M  V30 2240 H 210.349 0.789251 0.525154 0
M  V30 2241 H 210.055 2.55865 2.41301 0
M  V30 2242 H 209.929 1.23899 3.56271 0
M  V30 2243 H 212.316 0.492518 2.90961 0
M  V30 2244 H 212.397 1.8451 1.77172 0
M  V30 2245 H 212.041 3.46829 3.71041 0
M  V30 2246 H 211.971 2.08788 4.83441 0
M  V30 2247 H 214.462 1.86025 3.28943 0
M  V30 2248 H 214.775 4.33598 6.39697 0
M  V30 2249 H 213.12 3.89371 5.75687 0
M  V30 2250 H 216.311 2.37723 4.03244 0
M  V30 2251 H 216.484 3.50599 5.44962 0
M  V30 2252 N 209.89 -1.43072 0.660911 0
M  V30 2253 C 210.8 -2.34585 -0.0264163 0
M  V30 2254 C 211.816 -1.54316 -0.803898 0
M  V30 2255 O 212.992 -1.86939 -0.749391 0
M  V30 2256 C 210.057 -3.32689 -0.975639 0
M  V30 2257 C 209.118 -4.2886 -0.194236 0
M  V30 2258 C 208.351 -5.22278 -1.09825 0
M  V30 2259 O 208.574 -5.20299 -2.33763 0
M  V30 2260 O 207.508 -5.99228 -0.566513 0
M  V30 2261 H 211.334 -2.94869 0.727034 0
M  V30 2262 H 208.919 -1.43342 0.42111 0
M  V30 2263 H 210.801 -3.92995 -1.52094 0
M  V30 2264 H 209.476 -2.74898 -1.70918 0
M  V30 2265 H 208.383 -3.72011 0.394835 0
M  V30 2266 H 209.716 -4.89655 0.499899 0
M  V30 2267 N 211.368 -0.403325 -1.52352 0
M  V30 2268 C 212.614 0.174605 -2.02047 0
M  V30 2269 C 212.947 1.45282 -1.28867 0
M  V30 2270 O 212.222 1.90483 -0.393257 0
M  V30 2271 C 212.505 0.428238 -3.57545 0
M  V30 2272 C 212.358 -0.866248 -4.4138 0
M  V30 2273 C 213.677 1.21287 -4.23057 0
M  V30 2274 H 210.796 0.0619851 -0.734389 0
M  V30 2275 H 213.438 -0.53565 -1.82293 0
M  V30 2276 H 211.588 1.03327 -3.74507 0
M  V30 2277 H 213.26 -1.50265 -4.3614 0
M  V30 2278 H 211.503 -1.47851 -4.07827 0
M  V30 2279 H 212.174 -0.643249 -5.48239 0
M  V30 2280 H 214.65 0.700703 -4.10158 0
M  V30 2281 H 213.526 1.35909 -5.31808 0
M  V30 2282 H 213.787 2.23193 -3.81625 0
M  V30 2283 N 212.846 1.57033 -0.133567 0
M  V30 2284 C 214.262 1.58035 0.222944 0
M  V30 2285 C 214.462 1.14713 1.6566 0
M  V30 2286 O 213.518 0.841218 2.38075 0
M  V30 2287 C 214.831 3.00691 -0.0236116 0
M  V30 2288 C 216.379 3.12973 0.0411512 0
M  V30 2289 C 216.854 4.57654 -0.177899 0
M  V30 2290 N 218.345 4.63033 -0.124365 0
M  V30 2291 C 219.08 5.72771 -0.268553 0
M  V30 2292 N 218.576 6.91206 -0.46972 0
M  V30 2293 N 220.369 5.61718 -0.2071 0
M  V30 2294 H 212.52 1.8349 -1.06981 0
M  V30 2295 H 214.783 0.848677 -0.422436 0
M  V30 2296 H 214.489 3.36726 -1.0153 0
M  V30 2297 H 214.363 3.70614 0.701808 0
M  V30 2298 H 216.75 2.76787 1.02338 0
M  V30 2299 H 216.831 2.45564 -0.716383 0
M  V30 2300 H 216.475 4.94542 -1.15717 0
M  V30 2301 H 216.405 5.23173 0.599797 0
M  V30 2302 H 218.896 3.7789 0.027011 0
M  V30 2303 H 219.209 7.70693 -0.570212 0
M  V30 2304 H 217.554 6.93156 -0.505876 0
M  V30 2305 H 220.745 4.68072 -0.0507986 0
M  V30 2306 H 220.918 6.47195 -0.322909 0
M  V30 2307 N 214.325 -0.140222 1.56975 0
M  V30 2308 C 215.602 -0.880769 1.74648 0
M  V30 2309 C 215.982 -1.99036 0.703404 0
M  V30 2310 O 215.33 -2.26821 -0.27648 0
M  V30 2311 C 215.54 -1.417 3.18939 0
M  V30 2312 C 216.888 -1.87774 3.80823 0
M  V30 2313 O 217.912 -1.51427 3.2241 0
M  V30 2314 O 216.771 -2.54827 4.83452 0
M  V30 2315 H 213.865 -0.416713 0.714338 0
M  V30 2316 H 216.411 -0.125618 1.69234 0
M  V30 2317 H 215.183 -0.619902 3.86359 0
M  V30 2318 H 214.806 -2.23546 3.28805 0
M  V30 2319 N 215.803 -1.52179 -0.40978 0
M  V30 2320 C 216.735 -1.71703 -1.51825 0
M  V30 2321 C 217.748 -0.597445 -1.51441 0
M  V30 2322 O 218.937 -0.872582 -1.55719 0
M  V30 2323 C 216.037 -1.74171 -2.90719 0
M  V30 2324 C 215.21 -3.03156 -3.15302 0
M  V30 2325 C 214.269 -2.97445 -4.34065 0
M  V30 2326 O 213.295 -3.71352 -4.31377 0
M  V30 2327 N 214.497 -2.15191 -5.39141 0
M  V30 2328 H 217.262 -2.67334 -1.35472 0
M  V30 2329 H 214.823 -1.50409 -0.599069 0
M  V30 2330 H 216.815 -1.67884 -3.68235 0
M  V30 2331 H 215.385 -0.860166 -3.00533 0
M  V30 2332 H 214.605 -3.23097 -2.25836 0
M  V30 2333 H 215.893 -3.88484 -3.28569 0
M  V30 2334 H 215.291 -1.54573 -5.44173 0
M  V30 2335 H 213.848 -2.1476 -6.15403 0
M  V30 2336 N 217.281 0.66697 -1.42791 0
M  V30 2337 C 218.527 1.4291 -1.43891 0
M  V30 2338 C 218.86 1.94114 -0.0578972 0
M  V30 2339 O 218.135 1.71414 0.91911 0
M  V30 2340 C 218.418 2.62049 -2.46987 0
M  V30 2341 C 218.271 2.16426 -3.94309 0
M  V30 2342 C 219.59 3.64266 -2.46978 0
M  V30 2343 H 216.709 0.518306 -0.523954 0
M  V30 2344 H 219.351 0.757321 -1.74255 0
M  V30 2345 H 217.501 3.19361 -2.21225 0
M  V30 2346 H 219.173 1.64221 -4.31079 0
M  V30 2347 H 217.416 1.47925 -4.078 0
M  V30 2348 H 218.087 3.02038 -4.62036 0
M  V30 2349 H 220.563 3.16686 -2.69906 0
M  V30 2350 H 219.439 4.45196 -3.21079 0
M  V30 2351 H 219.7 4.15927 -1.49857 0
M  V30 2352 N 218.759 1.29093 0.90403 0
M  V30 2353 C 220.005 1.16986 1.65656 0
M  V30 2354 C 220.338 -0.278925 1.92186 0
M  V30 2355 O 219.613 -1.2019 1.5292 0
M  V30 2356 C 219.896 1.97908 3.0084 0
M  V30 2357 C 219.749 3.50903 2.81403 0
M  V30 2358 C 221.068 1.80208 4.01513 0
M  V30 2359 H 218.187 0.426346 0.601164 0
M  V30 2360 H 220.829 1.58518 1.04747 0
M  V30 2361 H 218.979 1.62616 3.52829 0
M  V30 2362 H 220.651 3.96153 2.36348 0
M  V30 2363 H 218.894 3.76045 2.1627 0
M  V30 2364 H 219.565 4.02791 3.77443 0
M  V30 2365 H 222.041 2.11025 3.58619 0
M  V30 2366 H 220.917 2.39184 4.94047 0
M  V30 2367 H 221.178 0.756119 4.35586 0
M  V30 2368 N 220.237 -1.11381 1.11499 0
M  V30 2369 C 221.485 -1.8277 0.862524 0
M  V30 2370 C 221.806 -1.85097 -0.613534 0
M  V30 2371 O 221.076 -1.32198 -1.4457 0
M  V30 2372 H 219.656 -0.676823 0.316101 0
M  V30 2373 H 222.318 -1.34816 1.4075 0
M  V30 2374 H 221.414 -2.86614 1.23527 0
M  V30 2375 N 221.715 -0.905404 -1.28997 0
M  V30 2376 C 222.961 -0.535039 -1.95615 0
M  V30 2377 C 223.294 0.917404 -1.71165 0
M  V30 2378 O 222.569 1.65123 -1.02785 0
M  V30 2379 C 222.852 -0.834918 -3.50287 0
M  V30 2380 C 222.705 -2.33948 -3.84172 0
M  V30 2381 C 224.024 -0.325318 -4.38896 0
M  V30 2382 H 221.143 -0.195861 -0.710498 0
M  V30 2383 H 223.785 -1.13313 -1.52513 0
M  V30 2384 H 221.935 -0.325904 -3.87131 0
M  V30 2385 H 223.607 -2.91847 -3.57243 0
M  V30 2386 H 221.85 -2.79789 -3.31513 0
M  V30 2387 H 222.521 -2.49987 -4.92149 0
M  V30 2388 H 224.997 -0.761256 -4.09077 0
M  V30 2389 H 223.873 -0.564295 -5.45992 0
M  V30 2390 H 224.134 0.774144 -4.35269 0
M  V30 2391 N 223.193 1.4272 -0.668489 0
M  V30 2392 C 224.439 2.01923 -0.188419 0
M  V30 2393 C 224.772 1.52704 1.19979 0
M  V30 2394 O 224.047 0.726566 1.8042 0
M  V30 2395 C 224.33 3.59451 -0.216085 0
M  V30 2396 C 224.183 4.18864 -1.6393 0
M  V30 2397 C 225.502 4.37903 0.439179 0
M  V30 2398 H 222.621 0.733674 -0.0699412 0
M  V30 2399 H 225.263 1.69822 -0.852076 0
M  V30 2400 H 223.413 3.86929 0.349012 0
M  V30 2401 H 225.085 4.02362 -2.25616 0
M  V30 2402 H 223.328 3.74933 -2.18193 0
M  V30 2403 H 223.999 5.27987 -1.61039 0
M  V30 2404 H 226.475 4.16079 -0.0417878 0
M  V30 2405 H 225.351 5.47519 0.389157 0
M  V30 2406 H 225.612 4.15303 1.51577 0
M  V30 2407 N 224.671 0.411399 1.52136 0
M  V30 2408 C 225.919 -0.163322 2.01439 0
M  V30 2409 C 226.24 -1.45453 1.29879 0
M  V30 2410 O 225.51 -1.91225 0.4254 0
M  V30 2411 H 224.09 -0.0633447 0.744309 0
M  V30 2412 H 226.752 0.548161 1.87033 0
M  V30 2413 H 225.848 -0.357817 3.10042 0
M  V30 2414 N 226.149 -1.5696 0.141893 0
M  V30 2415 C 227.377 -2.00322 -0.517579 0
M  V30 2416 C 227.792 -1.02193 -1.58752 0
M  V30 2417 O 227.149 -0.0181619 -1.82491 0
M  V30 2418 C 227.2 -3.43618 -1.12289 0
M  V30 2419 O 226.921 -4.37995 -0.0956929 0
M  V30 2420 C 228.422 -4.02231 -1.86347 0
M  V30 2421 H 225.642 -0.657243 -0.135177 0
M  V30 2422 H 228.186 -2.03146 0.234973 0
M  V30 2423 H 226.341 -3.41662 -1.82609 0
M  V30 2424 H 226.755 -5.21729 -0.538469 0
M  V30 2425 H 228.229 -5.04509 -2.23997 0
M  V30 2426 H 228.706 -3.42655 -2.74744 0
M  V30 2427 H 229.312 -4.07802 -1.20737 0
M  V30 2428 N 227.627 0.131896 -1.57047 0
M  V30 2429 C 228.875 0.840269 -1.83804 0
M  V30 2430 C 229.196 1.81017 -0.72512 0
M  V30 2431 O 228.466 1.94272 0.251995 0
M  V30 2432 H 227.046 0.313294 -0.678127 0
M  V30 2433 H 229.708 0.122294 -1.94516 0
M  V30 2434 H 228.804 1.39335 -2.79271 0
M  V30 2435 N 229.106 1.52395 0.401703 0
M  V30 2436 C 230.056 1.72649 1.48917 0
M  V30 2437 C 231.04 0.580436 1.50066 0
M  V30 2438 O 232.232 0.83779 1.55917 0
M  V30 2439 C 229.361 1.88729 2.86769 0
M  V30 2440 C 228.447 3.09228 2.90239 0
M  V30 2441 N 228.838 4.31805 2.63396 0
M  V30 2442 C 227.136 3.09214 3.21408 0
M  V30 2443 C 227.837 5.13326 2.73625 0
M  V30 2444 N 226.813 4.48735 3.06819 0
M  V30 2445 H 230.615 2.65058 1.26971 0
M  V30 2446 H 228.129 1.50528 0.609504 0
M  V30 2447 H 230.126 2.01358 3.65049 0
M  V30 2448 H 228.786 0.975252 3.09708 0
M  V30 2449 H 229.797 4.60154 2.37653 0
M  V30 2450 H 226.474 2.27774 3.49893 0
M  V30 2451 H 227.864 6.21003 2.56524 0
M  V30 2452 N 230.584 -0.659388 1.43143 0
M  V30 2453 C 231.833 -1.41518 1.43721 0
M  V30 2454 C 232.146 -1.95499 0.0628176 0
M  V30 2455 O 233.352 -2.71446 -0.0539683 0
M  V30 2456 C 231.808 -2.5608 2.52885 0
M  V30 2457 C 231.416 -2.08733 3.96402 0
M  V30 2458 C 233.16 -3.3349 2.62649 0
M  V30 2459 C 231.067 -3.20469 4.97045 0
M  V30 2460 H 229.997 -0.531705 0.534608 0
M  V30 2461 H 232.648 -0.712343 1.69109 0
M  V30 2462 H 231.03 -3.28805 2.20688 0
M  V30 2463 H 232.204 -1.43059 4.3803 0
M  V30 2464 H 230.519 -1.44219 3.90627 0
M  V30 2465 H 233.116 -4.16734 3.35017 0
M  V30 2466 H 233.459 -3.8111 1.67513 0
M  V30 2467 H 233.992 -2.67842 2.94118 0
M  V30 2468 H 230.731 -2.77824 5.93712 0
M  V30 2469 H 230.251 -3.84874 4.60034 0
M  V30 2470 H 231.93 -3.85698 5.19467 0
M  V30 2471 N 232.062 -1.29571 -0.897171 0
M  V30 2472 C 233.31 -1.17456 -1.64464 0
M  V30 2473 C 233.631 0.273698 -1.9307 0
M  V30 2474 O 232.901 1.18684 -1.55855 0
M  V30 2475 H 231.481 -0.431706 -0.609622 0
M  V30 2476 H 234.143 -1.62531 -1.07562 0
M  V30 2477 H 233.239 -1.72648 -2.59998 0
M  V30 2478 N 233.54 1.10788 -1.12088 0
M  V30 2479 C 234.472 2.16816 -0.743213 0
M  V30 2480 C 235.485 1.6119 0.228412 0
M  V30 2481 O 236.674 1.78497 0.0102931 0
M  V30 2482 C 233.774 3.38809 -0.0787313 0
M  V30 2483 C 232.947 4.23885 -1.0789 0
M  V30 2484 C 232.006 5.24334 -0.442713 0
M  V30 2485 O 231.032 5.58497 -1.09864 0
M  V30 2486 N 232.234 5.75079 0.791457 0
M  V30 2487 H 234.999 2.49825 -1.65552 0
M  V30 2488 H 232.56 1.26373 -1.012 0
M  V30 2489 H 234.552 4.03107 0.358766 0
M  V30 2490 H 233.122 3.03805 0.736275 0
M  V30 2491 H 232.342 3.55939 -1.69414 0
M  V30 2492 H 233.63 4.77562 -1.75533 0
M  V30 2493 H 233.028 5.49517 1.3434 0
M  V30 2494 H 231.585 6.4118 1.17183 0
M  V30 2495 N 235.018 0.912232 1.28515 0
M  V30 2496 C 236.264 0.545405 1.95328 0
M  V30 2497 C 236.597 -0.908313 1.71649 0
M  V30 2498 O 235.872 -1.64575 1.03659 0
M  V30 2499 C 236.155 0.853483 3.4984 0
M  V30 2500 C 236.008 2.35982 3.82926 0
M  V30 2501 C 237.327 0.348589 4.38717 0
M  V30 2502 H 234.446 0.199626 0.709449 0
M  V30 2503 H 237.088 1.1412 1.5191 0
M  V30 2504 H 235.238 0.34643 3.86952 0
M  V30 2505 H 236.91 2.93738 3.55691 0
M  V30 2506 H 235.153 2.81543 3.30024 0
M  V30 2507 H 235.824 2.52593 4.90816 0
M  V30 2508 H 238.3 0.78294 4.08668 0
M  V30 2509 H 237.176 0.593242 5.45685 0
M  V30 2510 H 237.437 -0.751049 4.35674 0
M  V30 2511 N 236.496 -1.42363 0.676048 0
M  V30 2512 C 237.743 -2.01522 0.19883 0
M  V30 2513 C 238.071 -1.53456 -1.19505 0
M  V30 2514 O 237.326 -0.727967 -1.81657 0
M  V30 2515 C 237.625 -3.56929 0.183431 0
M  V30 2516 C 237.291 -4.24431 1.52215 0
M  V30 2517 C 235.953 -4.42585 1.8887 0
M  V30 2518 C 238.305 -4.62459 2.40377 0
M  V30 2519 C 235.633 -4.96039 3.13309 0
M  V30 2520 C 237.985 -5.17294 3.64129 0
M  V30 2521 C 236.649 -5.33661 4.00951 0
M  V30 2522 H 235.919 -0.737419 0.0727571 0
M  V30 2523 H 238.566 -1.70531 0.871281 0
M  V30 2524 H 236.871 -3.87594 -0.572532 0
M  V30 2525 H 238.568 -4.00486 -0.203035 0
M  V30 2526 H 235.158 -4.10661 1.22701 0
M  V30 2527 H 239.342 -4.48105 2.13343 0
M  V30 2528 H 234.598 -5.06896 3.41857 0
M  V30 2529 H 238.772 -5.45704 4.32644 0
M  V30 2530 H 236.399 -5.74845 4.9745 0
M  V30 2531 N 237.974 -0.419461 -1.51915 0
M  V30 2532 C 238.907 0.445751 -2.23804 0
M  V30 2533 C 239.885 1.03951 -1.25031 0
M  V30 2534 O 241.069 1.08541 -1.54114 0
M  V30 2535 C 238.196 1.61964 -2.97465 0
M  V30 2536 C 237.242 1.14828 -4.10751 0
M  V30 2537 S 238.075 0.104938 -5.35397 0
M  V30 2538 C 239.231 1.28391 -6.1259 0
M  V30 2539 H 239.464 -0.164627 -2.96844 0
M  V30 2540 H 236.997 -0.203833 -1.53049 0
M  V30 2541 H 238.955 2.29271 -3.40507 0
M  V30 2542 H 237.616 2.20139 -2.24048 0
M  V30 2543 H 236.809 2.02561 -4.61503 0
M  V30 2544 H 236.411 0.553712 -3.69878 0
M  V30 2545 H 238.703 2.20563 -6.40592 0
M  V30 2546 H 239.646 0.816724 -7.03374 0
M  V30 2547 H 240.054 1.51439 -5.43807 0
M  V30 2548 N 239.452 1.56882 -0.150215 0
M  V30 2549 C 240.868 1.58263 0.20617 0
M  V30 2550 C 241.068 1.16464 1.64434 0
M  V30 2551 O 240.124 0.866422 2.3717 0
M  V30 2552 C 241.437 3.00649 -0.0555025 0
M  V30 2553 C 242.985 3.12999 0.00795388 0
M  V30 2554 C 243.46 4.5744 -0.226429 0
M  V30 2555 N 244.951 4.62875 -0.173469 0
M  V30 2556 C 245.686 5.72454 -0.329288 0
M  V30 2557 N 245.182 6.90669 -0.543005 0
M  V30 2558 N 246.975 5.61467 -0.266666 0
M  V30 2559 H 239.126 1.82345 -1.08922 0
M  V30 2560 H 241.389 0.844149 -0.431413 0
M  V30 2561 H 241.095 3.3563 -1.05096 0
M  V30 2562 H 240.969 3.71337 0.66246 0
M  V30 2563 H 243.356 2.77857 0.993966 0
M  V30 2564 H 243.437 2.4479 -0.742388 0
M  V30 2565 H 243.081 4.93287 -1.20956 0
M  V30 2566 H 243.011 5.2378 0.544274 0
M  V30 2567 H 245.502 3.77898 -0.0130709 0
M  V30 2568 H 245.815 7.70045 -0.651922 0
M  V30 2569 H 244.16 6.92581 -0.579366 0
M  V30 2570 H 247.351 4.67992 -0.100441 0
M  V30 2571 H 247.524 6.46816 -0.391535 0
M  V30 2572 N 240.93 -0.123565 1.57115 0
M  V30 2573 C 242.179 -0.830704 1.83799 0
M  V30 2574 C 242.492 -1.81259 0.735158 0
M  V30 2575 O 243.698 -2.56558 0.888278 0
M  V30 2576 C 242.154 -1.52802 3.25852 0
M  V30 2577 C 241.762 -0.587356 4.44133 0
M  V30 2578 C 243.506 -2.22056 3.61789 0
M  V30 2579 C 241.413 -1.28764 5.77212 0
M  V30 2580 H 240.343 -0.313967 0.685522 0
M  V30 2581 H 242.994 -0.0834359 1.8331 0
M  V30 2582 H 241.376 -2.32175 3.20797 0
M  V30 2583 H 242.55 0.172829 4.60476 0
M  V30 2584 H 240.865 -0.00201892 4.164 0
M  V30 2585 H 243.462 -2.75131 4.58483 0
M  V30 2586 H 243.805 -2.99644 2.88997 0
M  V30 2587 H 244.338 -1.49576 3.68608 0
M  V30 2588 H 241.077 -0.55314 6.53162 0
M  V30 2589 H 240.597 -2.01995 5.64764 0
M  V30 2590 H 242.276 -1.8221 6.20813 0
M  V30 2591 N 242.408 -1.52605 -0.393616 0
M  V30 2592 C 243.341 -1.71798 -1.50202 0
M  V30 2593 C 244.319 -0.565743 -1.52441 0
M  V30 2594 O 245.503 -0.794987 -1.70916 0
M  V30 2595 C 242.63 -1.7714 -2.88685 0
M  V30 2596 C 241.676 -2.98845 -3.04292 0
M  V30 2597 S 242.509 -4.58909 -2.75976 0
M  V30 2598 C 243.665 -4.6706 -4.1666 0
M  V30 2599 H 243.898 -2.65542 -1.33696 0
M  V30 2600 H 241.431 -1.42839 -0.586195 0
M  V30 2601 H 243.389 -1.80903 -3.68489 0
M  V30 2602 H 242.05 -0.844969 -3.02521 0
M  V30 2603 H 241.243 -2.99111 -4.05646 0
M  V30 2604 H 240.845 -2.9305 -2.32374 0
M  V30 2605 H 243.137 -4.45391 -5.10523 0
M  V30 2606 H 244.08 -5.6905 -4.21412 0
M  V30 2607 H 244.488 -3.95944 -4.02354 0
M  V30 2608 N 243.887 0.651787 -1.4349 0
M  V30 2609 C 244.797 1.79368 -1.5121 0
M  V30 2610 C 245.813 1.69361 -0.399093 0
M  V30 2611 O 246.989 1.90505 -0.653431 0
M  V30 2612 C 244.054 3.15653 -1.43401 0
M  V30 2613 C 243.115 3.37446 -2.65384 0
M  V30 2614 C 242.348 4.67229 -2.57939 0
M  V30 2615 O 242.571 5.46676 -1.62792 0
M  V30 2616 O 241.505 4.90773 -3.48462 0
M  V30 2617 H 245.331 1.7581 -2.47638 0
M  V30 2618 H 242.916 0.810447 -1.25507 0
M  V30 2619 H 244.798 3.96935 -1.41494 0
M  V30 2620 H 243.473 3.19798 -0.501085 0
M  V30 2621 H 242.38 2.55923 -2.72863 0
M  V30 2622 H 243.713 3.38148 -3.57654 0
M  V30 2623 N 245.365 1.30045 0.890287 0
M  V30 2624 C 246.613 1.18327 1.63839 0
M  V30 2625 C 246.934 -0.263455 1.93212 0
M  V30 2626 O 246.204 -1.17856 1.56482 0
M  V30 2627 H 244.784 0.434933 0.607324 0
M  V30 2628 H 247.446 1.631 1.06698 0
M  V30 2629 H 246.542 1.74024 2.59079 0
M  V30 2630 N 246.843 -1.10192 1.12674 0
M  V30 2631 C 248.09 -1.82205 0.883606 0
M  V30 2632 C 248.418 -1.8532 -0.590492 0
M  V30 2633 O 247.673 -1.31137 -1.45264 0
M  V30 2634 C 247.972 -3.28552 1.4067 0
M  V30 2635 C 247.638 -3.45582 2.89627 0
M  V30 2636 C 246.3 -3.49937 3.30299 0
M  V30 2637 C 248.652 -3.50768 3.85501 0
M  V30 2638 C 245.98 -3.57049 4.65546 0
M  V30 2639 C 248.332 -3.59414 5.20581 0
M  V30 2640 C 246.996 -3.62034 5.60792 0
M  V30 2641 H 246.266 -0.666735 0.323334 0
M  V30 2642 H 248.913 -1.29868 1.40736 0
M  V30 2643 H 247.218 -3.83473 0.80347 0
M  V30 2644 H 248.915 -3.82788 1.19475 0
M  V30 2645 H 245.505 -3.42871 2.57172 0
M  V30 2646 H 249.689 -3.46651 3.55171 0
M  V30 2647 H 244.945 -3.57361 4.96088 0
M  V30 2648 H 249.119 -3.62371 5.94693 0
M  V30 2649 H 246.746 -3.67298 6.6558 0
M  V30 2650 N 248.321 -0.919034 -1.28029 0
M  V30 2651 C 249.569 -0.553838 -1.94363 0
M  V30 2652 C 249.89 0.906357 -1.72656 0
M  V30 2653 O 249.16 1.64143 -1.0693 0
M  V30 2654 H 247.74 -0.201834 -0.719216 0
M  V30 2655 H 250.402 -1.16954 -1.55909 0
M  V30 2656 H 249.498 -0.752758 -3.02886 0
M  V30 2657 N 249.799 1.42003 -0.683588 0
M  V30 2658 C 250.762 2.29191 -0.0198243 0
M  V30 2659 C 251.762 1.43773 0.72013 0
M  V30 2660 O 252.952 1.65061 0.556815 0
M  V30 2661 C 250.084 3.26435 0.982487 0
M  V30 2662 H 251.277 2.8938 -0.787345 0
M  V30 2663 H 248.83 1.49789 -0.446418 0
M  V30 2664 H 249.565 2.71203 1.77819 0
M  V30 2665 H 249.35 3.89449 0.455182 0
M  V30 2666 H 250.84 3.918 1.44508 0
M  V30 2667 N 251.277 0.427512 1.51691 0
M  V30 2668 C 252.224 -0.388867 2.275 0
M  V30 2669 C 253.194 -1.02532 1.30677 0
M  V30 2670 O 254.379 -1.0461 1.59566 0
M  V30 2671 C 251.519 -1.48954 3.11298 0
M  V30 2672 C 250.632 -0.872194 4.23104 0
M  V30 2673 C 249.767 -1.94709 4.94228 0
M  V30 2674 C 248.806 -1.30766 5.97969 0
M  V30 2675 N 247.943 -2.32349 6.62539 0
M  V30 2676 H 252.783 0.263997 2.96828 0
M  V30 2677 H 250.32 0.142033 1.46413 0
M  V30 2678 H 252.278 -2.13887 3.58201 0
M  V30 2679 H 250.908 -2.11217 2.44105 0
M  V30 2680 H 249.96 -0.111419 3.80237 0
M  V30 2681 H 251.272 -0.365264 4.97461 0
M  V30 2682 H 250.426 -2.67327 5.44629 0
M  V30 2683 H 249.165 -2.48773 4.1948 0
M  V30 2684 H 248.17 -0.566902 5.4687 0
M  V30 2685 H 249.395 -0.774483 6.74669 0
M  V30 2686 H 247.341 -2.85511 5.90609 0
M  V30 2687 H 247.258 -1.8652 7.3263 0
M  V30 2688 H 248.526 -3.04481 7.17574 0
M  V30 2689 N 252.755 -1.56801 0.158532 0
M  V30 2690 C 254.001 -1.96781 -0.490405 0
M  V30 2691 C 254.334 -1.04397 -1.63753 0
M  V30 2692 O 253.609 -0.0885805 -1.94298 0
M  V30 2693 C 253.892 -3.4635 -0.985594 0
M  V30 2694 C 253.745 -4.49512 0.160824 0
M  V30 2695 C 255.064 -3.98697 -1.86355 0
M  V30 2696 H 252.183 -0.715482 -0.176788 0
M  V30 2697 H 254.825 -1.88451 0.242088 0
M  V30 2698 H 252.975 -3.53579 -1.60978 0
M  V30 2699 H 254.647 -4.54353 0.797537 0
M  V30 2700 H 252.89 -4.26013 0.818256 0
M  V30 2701 H 253.561 -5.51531 -0.227569 0
M  V30 2702 H 256.037 -3.94019 -1.33746 0
M  V30 2703 H 254.913 -5.03792 -2.17909 0
M  V30 2704 H 255.174 -3.41744 -2.8047 0
M  V30 2705 N 254.233 0.115231 -1.57178 0
M  V30 2706 C 255.482 0.820945 -1.84237 0
M  V30 2707 C 255.795 1.80866 -0.744761 0
M  V30 2708 O 257.001 2.56083 -0.901871 0
M  V30 2709 C 255.457 1.51072 -3.26658 0
M  V30 2710 C 255.065 0.563795 -4.44438 0
M  V30 2711 C 256.809 2.20134 -3.62962 0
M  V30 2712 C 254.716 1.25701 -5.77887 0
M  V30 2713 H 253.646 0.310328 -0.687177 0
M  V30 2714 H 256.297 0.0737134 -1.83352 0
M  V30 2715 H 254.679 2.30471 -3.22024 0
M  V30 2716 H 255.853 -0.197247 -4.60378 0
M  V30 2717 H 254.168 -0.0200638 -4.16395 0
M  V30 2718 H 256.765 2.72696 -4.59936 0
M  V30 2719 H 257.108 2.98107 -2.90582 0
M  V30 2720 H 257.641 1.47619 -3.69396 0
M  V30 2721 H 254.38 0.518493 -6.53446 0
M  V30 2722 H 253.9 1.98997 -5.65827 0
M  V30 2723 H 255.579 1.78915 -6.2177 0
M  V30 2724 N 255.711 1.52812 0.385517 0
M  V30 2725 C 256.674 1.77188 1.45386 0
M  V30 2726 C 257.674 0.641953 1.4743 0
M  V30 2727 O 258.864 0.910033 1.4854 0
M  V30 2728 C 255.996 1.87582 2.8465 0
M  V30 2729 H 257.189 2.72583 1.25054 0
M  V30 2730 H 254.742 1.43586 0.617467 0
M  V30 2731 H 255.477 0.941849 3.10322 0
M  V30 2732 H 255.262 2.69748 2.84567 0
M  V30 2733 H 256.752 2.08102 3.62054 0
M  V30 2734 N 257.189 -0.644168 1.43834 0
M  V30 2735 C 258.419 -1.42939 1.49171 0
M  V30 2736 C 258.827 -1.88874 0.111048 0
M  V30 2737 O 258.17 -1.60656 -0.8908 0
M  V30 2738 C 258.232 -2.69151 2.38324 0
M  V30 2739 C 257.896 -2.45097 3.85715 0
M  V30 2740 C 258.893 -2.07747 4.76589 0
M  V30 2741 C 256.578 -2.59141 4.30292 0
M  V30 2742 C 258.572 -1.8475 6.10038 0
M  V30 2743 C 256.259 -2.35759 5.63792 0
M  V30 2744 C 257.257 -1.9862 6.53482 0
M  V30 2745 O 256.945 -1.75489 7.84512 0
M  V30 2746 H 256.677 -0.445271 0.508635 0
M  V30 2747 H 259.231 -0.79621 1.8934 0
M  V30 2748 H 257.461 -3.3506 1.93058 0
M  V30 2749 H 259.15 -3.31123 2.3476 0
M  V30 2750 H 259.916 -1.96465 4.43426 0
M  V30 2751 H 255.795 -2.87022 3.60749 0
M  V30 2752 H 259.339 -1.55686 6.80006 0
M  V30 2753 H 255.236 -2.46646 5.9652 0
M  V30 2754 H 256.004 -1.89841 7.9618 0
M  V30 2755 N 258.668 -1.30515 -0.883378 0
M  V30 2756 C 259.945 -1.10086 -1.6168 0
M  V30 2757 C 260.325 0.349269 -2.08191 0
M  V30 2758 O 259.673 1.34105 -1.85008 0
M  V30 2759 C 259.883 -2.10315 -2.78511 0
M  V30 2760 C 261.231 -2.42119 -3.48803 0
M  V30 2761 O 262.255 -2.08638 -2.88702 0
M  V30 2762 O 261.114 -2.99396 -4.57192 0
M  V30 2763 H 258.208 -0.422907 -0.710689 0
M  V30 2764 H 260.754 -1.41947 -0.930015 0
M  V30 2765 H 259.526 -3.07917 -2.41459 0
M  V30 2766 H 259.149 -1.79282 -3.54886 0
M  V30 2767 N 260.146 1.09593 -1.13257 0
M  V30 2768 C 261.395 1.81105 -0.887917 0
M  V30 2769 C 261.708 1.86563 0.587672 0
M  V30 2770 O 262.914 2.54367 0.949204 0
M  V30 2771 C 261.37 3.25338 -1.53895 0
M  V30 2772 C 260.978 3.28151 -3.04994 0
M  V30 2773 C 262.722 4.01617 -1.37492 0
M  V30 2774 C 260.629 4.66897 -3.6299 0
M  V30 2775 H 259.559 0.678661 -0.328534 0
M  V30 2776 H 262.21 1.23183 -1.36008 0
M  V30 2777 H 260.592 3.8331 -0.994446 0
M  V30 2778 H 261.766 2.79953 -3.66009 0
M  V30 2779 H 260.081 2.65361 -3.20893 0
M  V30 2780 H 262.678 5.04119 -1.78235 0
M  V30 2781 H 263.021 4.15072 -0.31957 0
M  V30 2782 H 263.554 3.50082 -1.88912 0
M  V30 2783 H 260.293 4.58643 -4.68323 0
M  V30 2784 H 259.813 5.15426 -3.06752 0
M  V30 2785 H 261.492 5.3587 -3.62563 0
M  V30 2786 N 261.624 0.925811 1.2754 0
M  V30 2787 C 262.871 0.565255 1.94451 0
M  V30 2788 C 263.199 -0.89316 1.7278 0
M  V30 2789 O 262.454 -1.65213 1.04895 0
M  V30 2790 C 262.753 0.835296 3.47502 0
M  V30 2791 C 262.419 2.27515 3.89291 0
M  V30 2792 C 261.081 2.66879 4.00411 0
M  V30 2793 C 263.433 3.21158 4.10496 0
M  V30 2794 C 260.761 3.99014 4.30122 0
M  V30 2795 C 263.113 4.52871 4.4169 0
M  V30 2796 C 261.777 4.92072 4.51023 0
M  V30 2797 H 261.047 0.206841 0.711546 0
M  V30 2798 H 263.694 1.16942 1.51647 0
M  V30 2799 H 261.999 0.148442 3.91519 0
M  V30 2800 H 263.696 0.535322 3.97411 0
M  V30 2801 H 260.286 1.95976 3.81171 0
M  V30 2802 H 264.47 2.9195 4.01346 0
M  V30 2803 H 259.726 4.2907 4.35556 0
M  V30 2804 H 263.9 5.25436 4.57045 0
M  V30 2805 H 261.527 5.9449 4.738 0
M  V30 2806 N 263.102 -1.41638 0.69111 0
M  V30 2807 C 264.049 -2.30789 0.0229705 0
M  V30 2808 C 265.019 -1.46863 -0.775911 0
M  V30 2809 O 266.204 -1.75661 -0.74485 0
M  V30 2810 C 263.344 -3.32868 -0.910666 0
M  V30 2811 C 262.457 -4.31875 -0.103874 0
M  V30 2812 C 261.592 -5.21024 -1.03475 0
M  V30 2813 C 260.631 -6.11702 -0.220598 0
M  V30 2814 N 259.768 -6.93349 -1.10504 0
M  V30 2815 H 264.608 -2.87366 0.788978 0
M  V30 2816 H 262.145 -1.41535 0.400794 0
M  V30 2817 H 264.103 -3.90596 -1.46597 0
M  V30 2818 H 262.733 -2.77851 -1.64312 0
M  V30 2819 H 261.785 -3.76131 0.568285 0
M  V30 2820 H 263.097 -4.96003 0.527504 0
M  V30 2821 H 262.251 -5.83565 -1.65943 0
M  V30 2822 H 260.99 -4.57112 -1.69999 0
M  V30 2823 H 259.995 -5.48215 0.417187 0
M  V30 2824 H 261.22 -6.77668 0.440784 0
M  V30 2825 H 259.166 -6.3205 -1.75638 0
M  V30 2826 H 259.083 -7.54146 -0.529125 0
M  V30 2827 H 260.351 -7.60362 -1.71667 0
M  V30 2828 N 264.58 -0.43555 -1.51462 0
M  V30 2829 C 265.528 0.391205 -2.29287 0
M  V30 2830 C 266.522 1.02247 -1.35062 0
M  V30 2831 O 267.728 0.957646 -1.52411 0
M  V30 2832 H 264.103 0.144968 -0.737895 0
M  V30 2833 H 266.074 -0.286051 -2.97026 0
M  V30 2834 C 264.823 1.48096 -3.14583 0
M  V30 2835 H 264.146 1.00457 -3.86973 0
M  V30 2836 H 265.586 2.03273 -3.72097 0
M  V30 2837 C 264.045 2.46321 -2.29843 0
M  V30 2838 O 264.575 3.50815 -1.95682 0
M  V30 2839 N 262.781 2.17166 -1.931 0
M  V30 2840 H 262.328 1.32218 -2.21079 0
M  V30 2841 H 262.286 2.83127 -1.36698 0
M  V30 2842 N 266.058 1.56714 -0.166846 0
M  V30 2843 C 267.469 1.83378 0.350646 0
M  V30 2844 C 267.82 1.08646 1.63372 0
M  V30 2845 O 266.945 0.338058 2.13743 0
M  V30 2846 C 267.54 3.32643 0.642963 0
M  V30 2847 C 266.099 3.59818 1.10491 0
M  V30 2848 C 265.246 2.76954 0.138411 0
M  V30 2849 H 268.197 1.53803 -0.391193 0
M  V30 2850 H 268.218 3.49878 1.49551 0
M  V30 2851 H 267.73 3.87007 -0.291055 0
M  V30 2852 H 265.831 3.1086 2.05418 0
M  V30 2853 H 265.944 4.68178 1.01716 0
M  V30 2854 H 264.308 2.4666 0.634911 0
M  V30 2855 H 265.091 3.34097 -0.789549 0
M  V30 2856 N 267.536 -0.106894 1.57237 0
M  V30 2857 C 268.446 -1.14911 2.0453 0
M  V30 2858 C 269.462 -1.44592 0.96795 0
M  V30 2859 O 270.638 -1.55468 1.2803 0
M  V30 2860 C 267.703 -2.45272 2.45036 0
M  V30 2861 C 266.764 -2.22879 3.66911 0
M  V30 2862 C 265.997 -3.47024 4.05475 0
M  V30 2863 O 266.22 -4.54804 3.44252 0
M  V30 2864 O 265.154 -3.3731 4.98504 0
M  V30 2865 H 268.98 -0.777461 2.9358 0
M  V30 2866 H 266.565 -0.318563 1.45964 0
M  V30 2867 H 268.447 -3.22055 2.71769 0
M  V30 2868 H 267.122 -2.81886 1.59129 0
M  V30 2869 H 266.029 -1.43915 3.45311 0
M  V30 2870 H 267.362 -1.91163 4.53561 0
M  V30 2871 N 269.014 -1.53014 -0.377408 0
M  V30 2872 C 269.944 -1.81589 -1.46791 0
M  V30 2873 C 270.925 -0.668622 -1.56408 0
M  V30 2874 O 272.11 -0.917337 -1.71168 0
M  V30 2875 C 269.24 -1.99519 -2.8427 0
M  V30 2876 C 268.194 -3.15249 -2.89486 0
M  V30 2877 C 267.52 -3.18451 -4.29527 0
M  V30 2878 C 268.82 -4.54084 -2.58079 0
M  V30 2879 H 270.514 -2.7291 -1.23127 0
M  V30 2880 H 268.06 -1.31319 -0.590883 0
M  V30 2881 H 270.013 -2.18092 -3.60575 0
M  V30 2882 H 268.737 -1.04897 -3.09296 0
M  V30 2883 H 267.396 -2.96477 -2.15631 0
M  V30 2884 H 267.044 -2.2149 -4.5161 0
M  V30 2885 H 266.744 -3.962 -4.33934 0
M  V30 2886 H 268.268 -3.39193 -5.07721 0
M  V30 2887 H 269.682 -4.72899 -3.24098 0
M  V30 2888 H 268.079 -5.33987 -2.7382 0
M  V30 2889 H 269.149 -4.60006 -1.53372 0
M  V30 2890 N 270.492 0.636531 -1.44174 0
M  V30 2891 C 271.402 1.77754 -1.53103 0
M  V30 2892 C 272.418 1.68928 -0.417034 0
M  V30 2893 O 273.594 1.89801 -0.6736 0
M  V30 2894 C 270.659 3.14115 -1.46741 0
M  V30 2895 C 269.72 3.34612 -2.68948 0
M  V30 2896 C 268.953 4.64467 -2.6288 0
M  V30 2897 O 269.176 5.44919 -1.68581 0
M  V30 2898 O 268.11 4.87049 -3.53648 0
M  V30 2899 H 271.936 1.73174 -2.49489 0
M  V30 2900 H 269.521 0.79709 -1.2636 0
M  V30 2901 H 271.403 3.95412 -1.45696 0
M  V30 2902 H 270.078 3.19249 -0.534975 0
M  V30 2903 H 268.985 2.53014 -2.75562 0
M  V30 2904 H 270.318 3.34336 -3.61221 0
M  V30 2905 N 271.97 1.30982 0.876444 0
M  V30 2906 C 272.917 1.18085 1.98304 0
M  V30 2907 C 273.887 0.0682263 1.6596 0
M  V30 2908 O 275.072 0.239937 1.89285 0
M  V30 2909 C 272.212 0.887475 3.33493 0
M  V30 2910 C 271.325 2.08281 3.78475 0
M  V30 2911 C 270.46 1.72678 5.0235 0
M  V30 2912 C 269.499 2.88657 5.39762 0
M  V30 2913 N 268.636 2.53292 6.54819 0
M  V30 2914 H 273.476 2.1275 2.08666 0
M  V30 2915 H 271.013 1.05839 1.02159 0
M  V30 2916 H 272.971 0.697961 4.1132 0
M  V30 2917 H 271.601 -0.022315 3.22792 0
M  V30 2918 H 270.653 2.3833 2.96484 0
M  V30 2919 H 271.965 2.95108 4.02135 0
M  V30 2920 H 271.119 1.50151 5.87826 0
M  V30 2921 H 269.858 0.830327 4.8058 0
M  V30 2922 H 268.863 3.1184 4.52809 0
M  V30 2923 H 270.088 3.79002 5.63502 0
M  V30 2924 H 268.034 1.66163 6.34607 0
M  V30 2925 H 267.951 3.3365 6.7839 0
M  V30 2926 H 269.219 2.34143 7.43503 0
M  V30 2927 N 273.449 -1.08991 1.13837 0
M  V30 2928 C 274.396 -2.15748 0.819835 0
M  V30 2929 C 275.366 -1.64636 -0.220026 0
M  V30 2930 O 276.551 -1.90582 -0.0912757 0
M  V30 2931 C 273.691 -3.4382 0.296913 0
M  V30 2932 C 272.804 -4.0881 1.39636 0
M  V30 2933 C 271.939 -5.24655 0.831314 0
M  V30 2934 C 270.978 -5.81575 1.90886 0
M  V30 2935 N 270.115 -6.88774 1.36142 0
M  V30 2936 H 274.955 -2.42338 1.73426 0
M  V30 2937 H 272.492 -1.18935 0.865613 0
M  V30 2938 H 274.45 -4.17193 -0.0244339 0
M  V30 2939 H 273.08 -3.17535 -0.580628 0
M  V30 2940 H 272.132 -3.33258 1.83422 0
M  V30 2941 H 273.444 -4.47141 2.21058 0
M  V30 2942 H 272.598 -6.04942 0.461515 0
M  V30 2943 H 271.337 -4.87698 -0.013932 0
M  V30 2944 H 270.342 -4.99946 2.28767 0
M  V30 2945 H 271.567 -6.20592 2.75758 0
M  V30 2946 H 269.513 -6.53788 0.538254 0
M  V30 2947 H 269.43 -7.25898 2.11208 0
M  V30 2948 H 270.698 -7.72806 1.01933 0
M  V30 2949 N 274.927 -0.932562 -1.27047 0
M  V30 2950 C 276.175 -0.574422 -1.93765 0
M  V30 2951 C 276.496 0.887993 -1.73608 0
M  V30 2952 O 275.766 1.62999 -1.08665 0
M  V30 2953 H 274.346 -0.209451 -0.717035 0
M  V30 2954 H 277.008 -1.18601 -1.5466 0
M  V30 2955 H 276.104 -0.784841 -3.02071 0
M  V30 2956 N 276.405 1.4127 -0.698611 0
M  V30 2957 C 277.635 2.05205 -0.239644 0
M  V30 2958 C 278.043 1.52684 1.11733 0
M  V30 2959 O 277.386 0.671222 1.70998 0
M  V30 2960 C 277.448 3.59289 -0.123126 0
M  V30 2961 C 277.112 4.34619 -1.41263 0
M  V30 2962 C 278.109 4.63701 -2.35111 0
M  V30 2963 C 275.794 4.73837 -1.66684 0
M  V30 2964 C 277.788 5.30966 -3.52639 0
M  V30 2965 C 275.475 5.40837 -2.84498 0
M  V30 2966 C 276.473 5.69329 -3.77298 0
M  V30 2967 O 276.161 6.34949 -4.93047 0
M  V30 2968 H 275.893 0.66723 -0.108537 0
M  V30 2969 H 278.447 1.81974 -0.952602 0
M  V30 2970 H 276.677 3.81272 0.645628 0
M  V30 2971 H 278.366 4.04797 0.299056 0
M  V30 2972 H 279.132 4.33882 -2.16729 0
M  V30 2973 H 275.011 4.51039 -0.953135 0
M  V30 2974 H 278.555 5.53121 -4.25091 0
M  V30 2975 H 274.452 5.70075 -3.02795 0
M  V30 2976 H 275.22 6.53445 -4.92902 0
M  V30 2977 N 277.883 0.443576 1.51229 0
M  V30 2978 C 279.113 -0.119117 2.06256 0
M  V30 2979 C 279.521 -1.36471 1.31043 0
M  V30 2980 O 278.864 -1.80034 0.365151 0
M  V30 2981 C 278.926 -0.500546 3.55998 0
M  V30 2982 C 278.59 0.639125 4.52509 0
M  V30 2983 C 279.587 1.51311 4.97394 0
M  V30 2984 C 277.272 0.821632 4.95535 0
M  V30 2985 C 279.266 2.55425 5.83984 0
M  V30 2986 C 276.953 1.86603 5.81913 0
M  V30 2987 C 277.951 2.73072 6.26036 0
M  V30 2988 O 277.639 3.75718 7.10698 0
M  V30 2989 H 277.371 -0.00857665 0.675946 0
M  V30 2990 H 279.925 0.623288 1.95715 0
M  V30 2991 H 278.155 -1.29575 3.64345 0
M  V30 2992 H 279.844 -0.995116 3.93513 0
M  V30 2993 H 280.61 1.38367 4.64844 0
M  V30 2994 H 276.489 0.158149 4.60729 0
M  V30 2995 H 280.033 3.22949 6.18344 0
M  V30 2996 H 275.93 1.99564 6.13876 0
M  V30 2997 H 276.698 3.72374 7.2889 0
M  V30 2998 N 279.361 -1.56624 0.175154 0
M  V30 2999 C 280.607 -1.9729 -0.469506 0
M  V30 3000 C 280.94 -1.06128 -1.62636 0
M  V30 3001 O 280.215 -0.109183 -1.94193 0
M  V30 3002 C 280.498 -3.47375 -0.948804 0
M  V30 3003 C 280.351 -4.49317 0.208491 0
M  V30 3004 C 281.67 -4.00652 -1.82116 0
M  V30 3005 H 278.789 -0.717317 -0.16919 0
M  V30 3006 H 281.431 -1.88184 0.262062 0
M  V30 3007 H 279.581 -3.55267 -1.57219 0
M  V30 3008 H 281.253 -4.53482 0.845682 0
M  V30 3009 H 279.496 -4.25121 0.863395 0
M  V30 3010 H 280.167 -5.51741 -0.169059 0
M  V30 3011 H 282.643 -3.95416 -1.2956 0
M  V30 3012 H 281.519 -5.06075 -2.12554 0
M  V30 3013 H 281.78 -3.44699 -2.7683 0
M  V30 3014 N 280.839 0.0985539 -1.57292 0
M  V30 3015 C 282.116 0.834155 -1.76921 0
M  V30 3016 C 282.496 1.97101 -0.755928 0
M  V30 3017 O 281.844 2.27474 0.216245 0
M  V30 3018 C 282.054 1.33194 -3.22584 0
M  V30 3019 C 283.402 1.77611 -3.85668 0
M  V30 3020 O 284.426 1.42825 -3.26312 0
M  V30 3021 O 283.285 2.4192 -4.90038 0
M  V30 3022 H 280.379 0.397628 -0.725135 0
M  V30 3023 H 282.925 0.0807044 -1.69508 0
M  V30 3024 H 281.697 0.517248 -3.87866 0
M  V30 3025 H 281.32 2.1475 -3.34616 0
M  V30 3026 N 282.317 1.53212 0.369288 0
M  V30 3027 C 283.542 1.73423 1.1375 0
M  V30 3028 C 283.967 0.460404 1.82378 0
M  V30 3029 O 283.325 -0.585298 1.71592 0
M  V30 3030 C 283.373 2.89769 2.1463 0
M  V30 3031 O 282.477 2.58119 3.21634 0
M  V30 3032 H 281.818 0.576061 0.330227 0
M  V30 3033 H 284.348 2.00083 0.427547 0
M  V30 3034 H 284.358 3.15829 2.58294 0
M  V30 3035 H 283.033 3.8217 1.64071 0
M  V30 3036 H 281.61 2.42864 2.82969 0
M  V30 3037 N 283.795 -0.628877 1.44509 0
M  V30 3038 C 284.725 -1.75187 1.54376 0
M  V30 3039 C 285.706 -1.65411 0.396618 0
M  V30 3040 O 286.891 -1.84137 0.617031 0
M  V30 3041 C 284.021 -3.13725 1.48976 0
M  V30 3042 C 282.975 -3.38291 2.62189 0
M  V30 3043 C 282.301 -4.76883 2.41841 0
M  V30 3044 C 283.601 -3.30632 4.04326 0
M  V30 3045 H 285.295 -1.67187 2.48373 0
M  V30 3046 H 282.841 -0.802909 1.19538 0
M  V30 3047 H 284.794 -3.92064 1.54478 0
M  V30 3048 H 283.518 -3.22515 0.514961 0
M  V30 3049 H 282.177 -2.62334 2.56079 0
M  V30 3050 H 281.825 -4.82378 1.42548 0
M  V30 3051 H 281.525 -4.94278 3.17747 0
M  V30 3052 H 283.049 -5.57449 2.49165 0
M  V30 3053 H 284.463 -3.98873 4.11793 0
M  V30 3054 H 282.86 -3.59561 4.80454 0
M  V30 3055 H 283.93 -2.28404 4.27738 0
M  V30 3056 N 285.273 -1.31445 -0.869486 0
M  V30 3057 C 286.55 -1.11795 -1.60503 0
M  V30 3058 C 286.93 0.327168 -2.08549 0
M  V30 3059 O 286.278 1.32135 -1.8642 0
M  V30 3060 C 286.488 -2.13258 -2.76265 0
M  V30 3061 C 287.836 -2.45805 -3.46215 0
M  V30 3062 O 288.86 -2.11688 -2.86473 0
M  V30 3063 O 287.719 -3.04228 -4.5399 0
M  V30 3064 H 284.813 -0.430421 -0.706163 0
M  V30 3065 H 287.359 -1.42925 -0.914907 0
M  V30 3066 H 286.131 -3.10461 -2.3818 0
M  V30 3067 H 285.754 -1.83035 -3.52964 0
M  V30 3068 N 286.751 1.08385 -1.14413 0
M  V30 3069 C 288.028 1.77429 -0.823297 0
M  V30 3070 C 288.408 1.9974 0.683163 0
M  V30 3071 O 287.756 1.60739 1.62405 0
M  V30 3072 C 287.966 3.09004 -1.62227 0
M  V30 3073 C 289.314 3.83532 -1.82177 0
M  V30 3074 O 290.338 3.18786 -1.58915 0
M  V30 3075 O 289.197 4.99792 -2.21067 0
M  V30 3076 H 286.291 0.769999 -0.301712 0
M  V30 3077 H 288.837 1.14846 -1.24934 0
M  V30 3078 H 287.609 2.88316 -2.64555 0
M  V30 3079 H 287.232 3.79316 -1.19187 0
M  V30 3080 N 288.23 0.939286 1.26551 0
M  V30 3081 C 289.16 0.465044 2.28822 0
M  V30 3082 C 290.141 -0.480692 1.63167 0
M  V30 3083 O 291.326 -0.382955 1.90387 0
M  V30 3084 C 288.456 -0.27234 3.46231 0
M  V30 3085 C 287.41 0.58666 4.2396 0
M  V30 3086 C 286.736 -0.280573 5.33963 0
M  V30 3087 C 288.036 1.85704 4.88171 0
M  V30 3088 H 289.73 1.31979 2.68741 0
M  V30 3089 H 287.276 0.636061 1.29191 0
M  V30 3090 H 289.229 -0.615133 4.16886 0
M  V30 3091 H 287.953 -1.16121 3.0526 0
M  V30 3092 H 286.612 0.91232 3.55067 0
M  V30 3093 H 286.26 -1.16874 4.89234 0
M  V30 3094 H 285.96 0.29076 5.8688 0
M  V30 3095 H 287.484 -0.618678 6.07458 0
M  V30 3096 H 288.898 1.58161 5.51052 0
M  V30 3097 H 287.295 2.37279 5.51197 0
M  V30 3098 H 288.365 2.56957 4.11219 0
M  V30 3099 N 289.708 -1.40897 0.706093 0
M  V30 3100 C 290.938 -2.05075 0.250523 0
M  V30 3101 C 291.346 -1.53275 -1.10921 0
M  V30 3102 O 290.689 -0.680281 -1.7064 0
M  V30 3103 C 290.751 -3.59219 0.142178 0
M  V30 3104 C 290.415 -4.33864 1.43566 0
M  V30 3105 C 291.412 -4.62448 2.37566 0
M  V30 3106 C 289.097 -4.72946 1.69195 0
M  V30 3107 C 291.091 -5.29088 3.5545 0
M  V30 3108 C 288.778 -5.3932 2.87362 0
M  V30 3109 C 289.776 -5.6732 3.80312 0
M  V30 3110 O 289.464 -6.32325 4.96408 0
M  V30 3111 H 289.196 -0.666645 0.112074 0
M  V30 3112 H 291.75 -1.81467 0.962239 0
M  V30 3113 H 289.98 -3.81609 -0.6254 0
M  V30 3114 H 291.669 -4.0495 -0.277584 0
M  V30 3115 H 292.435 -4.32727 2.19027 0
M  V30 3116 H 288.314 -4.50527 0.977042 0
M  V30 3117 H 291.858 -5.50859 4.28018 0
M  V30 3118 H 287.755 -5.68461 3.05814 0
M  V30 3119 H 288.523 -6.50821 4.9636 0
M  V30 3120 N 291.186 -0.45159 -1.50991 0
M  V30 3121 C 292.133 0.352625 -2.2809 0
M  V30 3122 C 293.103 1.0044 -1.32291 0
M  V30 3123 O 294.288 1.02058 -1.6121 0
M  V30 3124 C 291.428 1.43983 -3.13629 0
M  V30 3125 C 290.541 0.804772 -4.24438 0
M  V30 3126 C 289.676 1.86822 -4.97263 0
M  V30 3127 C 288.715 1.21236 -5.99973 0
M  V30 3128 N 287.852 2.2178 -6.66152 0
M  V30 3129 H 292.692 -0.311186 -2.96371 0
M  V30 3130 H 290.229 -0.165308 -1.46168 0
M  V30 3131 H 292.187 2.08161 -3.61559 0
M  V30 3132 H 290.817 2.07307 -2.47434 0
M  V30 3133 H 289.869 0.0509129 -3.80366 0
M  V30 3134 H 291.181 0.286076 -4.97979 0
M  V30 3135 H 290.335 2.58628 -5.48813 0
M  V30 3136 H 289.074 2.42068 -4.23385 0
M  V30 3137 H 288.079 0.479828 -5.47702 0
M  V30 3138 H 289.304 0.667051 -6.75816 0
M  V30 3139 H 287.25 2.76079 -5.95077 0
M  V30 3140 H 287.167 1.74841 -7.35504 0
M  V30 3141 H 288.435 2.93026 -7.22327 0
M  V30 3142 N 292.664 1.56529 -0.183458 0
M  V30 3143 C 293.596 2.15747 0.773697 0
M  V30 3144 C 294.609 1.1162 1.1851 0
M  V30 3145 O 295.798 1.3876 1.12285 0
M  V30 3146 C 292.898 2.6952 2.05456 0
M  V30 3147 C 292.071 3.98429 1.8048 0
M  V30 3148 C 291.13 4.37145 2.92901 0
M  V30 3149 O 290.156 5.04791 2.6301 0
M  V30 3150 N 291.358 3.99695 4.2098 0
M  V30 3151 H 294.123 2.98505 0.26736 0
M  V30 3152 H 291.684 1.619 -0.0010878 0
M  V30 3153 H 293.676 2.92412 2.79781 0
M  V30 3154 H 292.246 1.91282 2.47245 0
M  V30 3155 H 291.466 3.8379 0.899947 0
M  V30 3156 H 292.754 4.82597 1.61175 0
M  V30 3157 H 292.152 3.4526 4.48121 0
M  V30 3158 H 290.709 4.27562 4.9197 0
M  V30 3159 N 294.142 -0.090211 1.57342 0
M  V30 3160 C 295.105 -1.09335 2.01441 0
M  V30 3161 C 296.105 -1.32666 0.908641 0
M  V30 3162 O 297.295 -1.28697 1.174 0
M  V30 3163 C 294.427 -2.44136 2.3793 0
M  V30 3164 H 295.62 -0.713662 2.91285 0
M  V30 3165 H 293.173 -0.335404 1.52659 0
M  V30 3166 H 293.908 -2.86972 1.51055 0
M  V30 3167 H 293.693 -2.28548 3.18603 0
M  V30 3168 H 295.183 -3.16277 2.72688 0
M  V30 3169 N 295.62 -1.53406 -0.361157 0
M  V30 3170 C 296.897 -1.60411 -1.11927 0
M  V30 3171 C 297.277 -0.414385 -2.06993 0
M  V30 3172 O 296.625 0.594976 -2.20618 0
M  V30 3173 C 296.835 -2.95652 -1.85448 0
M  V30 3174 C 298.183 -3.50386 -2.39823 0
M  V30 3175 O 299.207 -2.97711 -1.95568 0
M  V30 3176 O 298.066 -4.42482 -3.20737 0
M  V30 3177 H 295.16 -0.64811 -0.513695 0
M  V30 3178 H 297.706 -1.65749 -0.364065 0
M  V30 3179 H 296.478 -3.73682 -1.16091 0
M  V30 3180 H 296.101 -2.93825 -2.67866 0
M  V30 3181 N 297.098 0.621204 -1.44841 0
M  V30 3182 C 298.344 1.3826 -1.48365 0
M  V30 3183 C 298.677 1.93831 -0.119624 0
M  V30 3184 O 297.952 1.74251 0.864111 0
M  V30 3185 C 298.235 2.54058 -2.55199 0
M  V30 3186 C 298.088 2.03772 -4.00995 0
M  V30 3187 C 299.407 3.56225 -2.58442 0
M  V30 3188 H 296.526 0.501374 -0.540179 0
M  V30 3189 H 299.168 0.7015 -1.76576 0
M  V30 3190 H 297.318 3.12162 -2.31274 0
M  V30 3191 H 298.99 1.50423 -4.36086 0
M  V30 3192 H 297.233 1.34876 -4.12299 0
M  V30 3193 H 297.904 2.87185 -4.71411 0
M  V30 3194 H 300.38 3.07939 -2.79844 0
M  V30 3195 H 299.256 4.34756 -3.3508 0
M  V30 3196 H 299.517 4.10949 -1.63013 0
M  V30 3197 N 298.576 1.31904 0.862503 0
M  V30 3198 C 299.825 1.21373 1.61094 0
M  V30 3199 C 300.138 -0.22504 1.94301 0
M  V30 3200 O 301.344 -0.452121 2.67709 0
M  V30 3201 C 299.8 2.12525 2.9045 0
M  V30 3202 C 299.408 3.61441 2.64697 0
M  V30 3203 C 301.152 2.10813 3.68454 0
M  V30 3204 C 299.059 4.44578 3.90006 0
M  V30 3205 H 297.989 0.450705 0.604468 0
M  V30 3206 H 300.64 1.56811 0.953027 0
M  V30 3207 H 299.022 1.69994 3.57656 0
M  V30 3208 H 300.196 4.12264 2.05851 0
M  V30 3209 H 298.511 3.65205 2.00036 0
M  V30 3210 H 301.108 2.70167 4.61426 0
M  V30 3211 H 301.451 1.09713 4.01583 0
M  V30 3212 H 301.984 2.51583 3.08141 0
M  V30 3213 H 298.723 5.46461 3.62023 0
M  V30 3214 H 298.243 3.98508 4.48276 0
M  V30 3215 H 299.922 4.57176 4.5782 0
M  V30 3216 N 300.054 -1.07777 1.14986 0
M  V30 3217 C 301.279 -1.84558 0.946213 0
M  V30 3218 C 301.704 -1.81323 -0.500362 0
M  V30 3219 O 301.062 -1.20301 -1.35637 0
M  V30 3220 C 301.11 -3.29736 1.45968 0
M  V30 3221 O 300.214 -4.07149 0.65601 0
M  V30 3222 H 299.555 -0.571641 0.33782 0
M  V30 3223 H 302.085 -1.35991 1.52865 0
M  V30 3224 H 302.095 -3.80574 1.47063 0
M  V30 3225 H 300.77 -3.31406 2.51283 0
M  V30 3226 H 299.347 -3.65994 0.714322 0
M  V30 3227 N 301.532 -0.945985 -1.26051 0
M  V30 3228 C 302.462 -0.477172 -2.28572 0
M  V30 3229 C 303.443 0.472032 -1.63419 0
M  V30 3230 O 304.628 0.372853 -1.90587 0
M  V30 3231 C 301.758 0.253975 -3.4637 0
M  V30 3232 C 300.712 -0.609135 -4.23643 0
M  V30 3233 C 300.038 0.252252 -5.34105 0
M  V30 3234 C 301.338 -1.8829 -4.8718 0
M  V30 3235 H 303.032 -1.33402 -2.68038 0
M  V30 3236 H 300.578 -0.642904 -1.28852 0
M  V30 3237 H 302.531 0.593016 -4.17207 0
M  V30 3238 H 301.255 1.145 -3.05871 0
M  V30 3239 H 299.914 -0.931138 -3.54578 0
M  V30 3240 H 299.562 1.14278 -4.89846 0
M  V30 3241 H 299.262 -0.32188 -5.86718 0
M  V30 3242 H 300.786 0.586454 -6.07777 0
M  V30 3243 H 302.2 -1.61081 -5.50205 0
M  V30 3244 H 300.597 -2.40199 -5.49931 0
M  V30 3245 H 301.667 -2.59134 -4.09851 0
M  V30 3246 N 303.011 1.40521 -0.713556 0
M  V30 3247 C 303.961 2.27971 -0.036165 0
M  V30 3248 C 304.945 1.43151 0.734623 0
M  V30 3249 O 306.137 1.66261 0.607158 0
M  V30 3250 C 303.266 3.31661 0.886331 0
M  V30 3251 C 302.352 4.23955 0.110836 0
M  V30 3252 N 302.743 4.97641 -0.904847 0
M  V30 3253 C 301.041 4.44674 0.343692 0
M  V30 3254 C 301.742 5.65322 -1.37064 0
M  V30 3255 N 300.718 5.39162 -0.693168 0
M  V30 3256 H 304.52 2.82384 -0.814645 0
M  V30 3257 H 302.034 1.52948 -0.545963 0
M  V30 3258 H 304.031 3.93154 1.38692 0
M  V30 3259 H 302.691 2.78808 1.66421 0
M  V30 3260 H 303.702 5.01689 -1.28563 0
M  V30 3261 H 300.379 4.02801 1.09805 0
M  V30 3262 H 301.769 6.34359 -2.21447 0
M  V30 3263 N 304.489 0.459591 1.5075 0
M  V30 3264 C 305.735 -0.0994966 2.02556 0
M  V30 3265 C 306.068 -1.40399 1.3417 0
M  V30 3266 O 305.343 -1.88892 0.463683 0
M  V30 3267 C 305.626 -0.295242 3.58888 0
M  V30 3268 C 305.479 1.02947 4.37861 0
M  V30 3269 C 306.798 -1.05502 4.27267 0
M  V30 3270 H 303.917 -0.034686 0.736183 0
M  V30 3271 H 306.559 0.602938 1.8018 0
M  V30 3272 H 304.709 -0.893563 3.78084 0
M  V30 3273 H 306.381 1.66348 4.30263 0
M  V30 3274 H 304.624 1.62885 4.02058 0
M  V30 3275 H 305.295 0.846281 5.45474 0
M  V30 3276 H 307.771 -0.547993 4.12476 0
M  V30 3277 H 306.647 -1.16077 5.36486 0
M  V30 3278 H 306.908 -2.08875 3.89645 0
M  V30 3279 N 305.967 -1.56429 0.191757 0
M  V30 3280 C 307.378 -1.83912 -0.321428 0
M  V30 3281 C 307.729 -1.11231 -1.61623 0
M  V30 3282 O 306.854 -0.37202 -2.13178 0
M  V30 3283 C 307.449 -3.33624 -0.589961 0
M  V30 3284 C 306.008 -3.6153 -1.04753 0
M  V30 3285 C 305.155 -2.7714 -0.0943327 0
M  V30 3286 H 308.106 -1.53161 0.415612 0
M  V30 3287 H 308.127 -3.52213 -1.43966 0
M  V30 3288 H 307.639 -3.86495 0.352588 0
M  V30 3289 H 305.74 -3.14089 -2.00447 0
M  V30 3290 H 305.853 -4.69737 -0.942549 0
M  V30 3291 H 304.217 -2.47638 -0.595589 0
M  V30 3292 H 305 -3.32799 0.842601 0
M  V30 3293 N 307.445 0.0818655 -1.57387 0
M  V30 3294 C 308.722 0.815343 -1.77796 0
M  V30 3295 C 309.102 1.96289 -0.77679 0
M  V30 3296 O 308.45 2.27691 0.192106 0
M  V30 3297 C 308.66 1.29765 -3.23978 0
M  V30 3298 C 310.008 1.7351 -3.8753 0
M  V30 3299 O 311.032 1.39356 -3.27808 0
M  V30 3300 O 309.891 2.36708 -4.92576 0
M  V30 3301 H 306.985 0.389914 -0.729312 0
M  V30 3302 H 309.531 0.0627213 -1.69584 0
M  V30 3303 H 308.303 0.47608 -3.88393 0
M  V30 3304 H 307.926 2.11189 -3.36875 0
M  V30 3305 N 308.923 1.53595 0.353017 0
M  V30 3306 C 310.169 1.70638 1.09593 0
M  V30 3307 C 310.502 0.463286 1.88593 0
M  V30 3308 O 309.777 -0.539597 1.86865 0
M  V30 3309 C 310.06 2.96406 2.04489 0
M  V30 3310 C 309.913 4.30901 1.29014 0
M  V30 3311 C 311.232 3.17812 3.0444 0
M  V30 3312 H 308.351 0.620913 0.397034 0
M  V30 3313 H 310.993 1.86254 0.375446 0
M  V30 3314 H 309.143 2.83223 2.65927 0
M  V30 3315 H 310.815 4.55917 0.702638 0
M  V30 3316 H 309.058 4.29741 0.592071 0
M  V30 3317 H 309.729 5.1506 1.98537 0
M  V30 3318 H 312.205 3.30263 2.53112 0
M  V30 3319 H 311.081 4.07223 3.6805 0
M  V30 3320 H 311.342 2.33669 3.75301 0
M  V30 3321 N 310.401 -0.613514 1.45168 0
M  V30 3322 C 311.812 -1.19539 1.43413 0
M  V30 3323 C 312.163 -1.95558 0.158632 0
M  V30 3324 O 311.288 -2.0335 -0.740119 0
M  V30 3325 C 311.883 -2.17445 2.59813 0
M  V30 3326 C 310.442 -2.71022 2.61197 0
M  V30 3327 C 309.589 -1.46323 2.35552 0
M  V30 3328 H 312.54 -0.403163 1.53494 0
M  V30 3329 H 312.561 -3.00373 2.33574 0
M  V30 3330 H 312.073 -1.62089 3.52631 0
M  V30 3331 H 310.174 -3.30332 1.7237 0
M  V30 3332 H 310.287 -3.15859 3.60236 0
M  V30 3333 H 308.651 -1.75072 1.84992 0
M  V30 3334 H 309.434 -0.92844 3.30507 0
M  V30 3335 N 311.879 -1.3236 -0.855495 0
M  V30 3336 C 312.842 -1.21164 -1.94556 0
M  V30 3337 C 313.842 -0.134908 -1.60233 0
M  V30 3338 O 315.032 -0.385249 -1.69887 0
M  V30 3339 C 312.164 -0.863192 -3.29791 0
M  V30 3340 H 313.357 -2.18038 -2.05911 0
M  V30 3341 H 310.91 -1.16179 -1.04557 0
M  V30 3342 H 311.645 0.103769 -3.24134 0
M  V30 3343 H 311.43 -1.64166 -3.56078 0
M  V30 3344 H 312.92 -0.809156 -4.09686 0
M  V30 3345 N 313.357 1.07166 -1.15556 0
M  V30 3346 C 314.305 2.16517 -0.8499 0
M  V30 3347 C 315.299 1.68468 0.177454 0
M  V30 3348 O 316.505 1.79971 0.0323026 0
M  V30 3349 H 312.88 0.706652 -0.25719 0
M  V30 3350 H 314.851 2.39514 -1.77976 0
M  V30 3351 C 313.6 3.45855 -0.357682 0
M  V30 3352 H 312.923 3.83214 -1.13961 0
M  V30 3353 H 314.363 4.23607 -0.182489 0
M  V30 3354 C 312.822 3.24062 0.921152 0
M  V30 3355 O 313.352 3.48813 1.9923 0
M  V30 3356 N 311.558 2.77539 0.86141 0
M  V30 3357 H 311.105 2.57598 -0.0104408 0
M  V30 3358 H 311.063 2.63337 1.71758 0
M  V30 3359 N 314.835 0.952656 1.25548 0
M  V30 3360 C 316.081 0.607272 1.93494 0
M  V30 3361 C 316.414 -0.853245 1.74452 0
M  V30 3362 O 315.689 -1.61194 1.08843 0
M  V30 3363 C 315.972 0.96435 3.46947 0
M  V30 3364 C 315.825 2.48045 3.75225 0
M  V30 3365 C 317.144 0.487987 4.37386 0
M  V30 3366 H 314.263 0.222096 0.702739 0
M  V30 3367 H 316.905 1.18895 1.48203 0
M  V30 3368 H 315.055 0.469361 3.85654 0
M  V30 3369 H 316.727 3.04905 3.46166 0
M  V30 3370 H 314.97 2.919 3.209 0
M  V30 3371 H 315.641 2.6808 4.82532 0
M  V30 3372 H 318.117 0.912558 4.0597 0
M  V30 3373 H 316.993 0.766547 5.43521 0
M  V30 3374 H 317.254 -0.612063 4.37843 0
M  V30 3375 N 316.313 -1.40141 0.720998 0
M  V30 3376 C 317.263 -2.27949 0.0482544 0
M  V30 3377 C 318.247 -1.43538 -0.727021 0
M  V30 3378 O 319.439 -1.6658 -0.598332 0
M  V30 3379 C 316.568 -3.32126 -0.868729 0
M  V30 3380 C 315.654 -4.24008 -0.0883515 0
M  V30 3381 N 316.045 -4.97154 0.931226 0
M  V30 3382 C 314.343 -4.4485 -0.320105 0
M  V30 3383 C 315.044 -5.64587 1.4006 0
M  V30 3384 N 314.02 -5.38787 0.721752 0
M  V30 3385 H 317.822 -2.81948 0.829609 0
M  V30 3386 H 315.336 -1.52656 0.554067 0
M  V30 3387 H 317.333 -3.93884 -1.36605 0
M  V30 3388 H 315.993 -2.79687 -1.6494 0
M  V30 3389 H 317.004 -5.01 1.31222 0
M  V30 3390 H 313.681 -4.03378 -1.07668 0
M  V30 3391 H 315.071 -6.33175 2.24808 0
M  V30 3392 N 317.792 -0.46758 -1.50504 0
M  V30 3393 C 318.725 0.374324 -2.25109 0
M  V30 3394 C 319.703 0.99921 -1.28275 0
M  V30 3395 O 320.887 1.03583 -1.57489 0
M  V30 3396 C 318.014 1.52419 -3.02467 0
M  V30 3397 C 317.06 1.01702 -4.14197 0
M  V30 3398 S 317.893 -0.0654477 -5.3546 0
M  V30 3399 C 319.049 1.08837 -6.16365 0
M  V30 3400 H 319.282 -0.258983 -2.9617 0
M  V30 3401 H 316.815 -0.252421 -1.52323 0
M  V30 3402 H 318.773 2.18322 -3.47628 0
M  V30 3403 H 317.434 2.129 -2.30938 0
M  V30 3404 H 316.627 1.87776 -4.67714 0
M  V30 3405 H 316.229 0.435757 -3.71453 0
M  V30 3406 H 318.521 2.00071 -6.47285 0
M  V30 3407 H 319.464 0.592538 -7.05616 0
M  V30 3408 H 319.872 1.34061 -5.4835 0
M  V30 3409 N 319.27 1.56325 -0.20005 0
M  V30 3410 C 320.519 1.96895 0.437652 0
M  V30 3411 C 320.832 1.08999 1.62415 0
M  V30 3412 O 322.038 1.39372 2.32997 0
M  V30 3413 C 320.494 3.50198 0.830025 0
M  V30 3414 C 320.102 4.46765 -0.332461 0
M  V30 3415 C 321.846 3.99526 1.43453 0
M  V30 3416 C 319.753 5.91344 0.0811468 0
M  V30 3417 H 318.683 0.735209 0.167282 0
M  V30 3418 H 321.334 1.81148 -0.292853 0
M  V30 3419 H 319.716 3.61467 1.61734 0
M  V30 3420 H 320.89 4.47231 -1.11 0
M  V30 3421 H 319.205 4.07657 -0.848789 0
M  V30 3422 H 321.802 5.05025 1.75652 0
M  V30 3423 H 322.145 3.44122 2.34277 0
M  V30 3424 H 322.678 3.91393 0.71109 0
M  V30 3425 H 319.417 6.50685 -0.793033 0
M  V30 3426 H 318.937 5.94121 0.823445 0
M  V30 3427 H 320.616 6.44945 0.515252 0
M  V30 3428 N 320.748 -0.0735177 1.57428 0
M  V30 3429 C 321.696 -1.10628 2.04607 0
M  V30 3430 C 322.69 -1.40181 0.951088 0
M  V30 3431 O 323.896 -1.39608 1.1362 0
M  V30 3432 H 320.271 -0.374088 0.652351 0
M  V30 3433 H 322.242 -0.682218 2.90497 0
M  V30 3434 C 320.991 -2.41212 2.50423 0
M  V30 3435 H 320.314 -2.19322 3.34272 0
M  V30 3436 H 321.754 -3.11927 2.87189 0
M  V30 3437 C 320.213 -3.0705 1.38644 0
M  V30 3438 O 320.743 -3.95056 0.727582 0
M  V30 3439 N 318.949 -2.67645 1.132 0
M  V30 3440 H 318.496 -1.96169 1.66959 0
M  V30 3441 H 318.454 -3.1202 0.386147 0
M  V30 3442 N 322.226 -1.5378 -0.344866 0
M  V30 3443 C 323.503 -1.61589 -1.10219 0
M  V30 3444 C 323.883 -0.436316 -2.06542 0
M  V30 3445 O 323.231 0.571543 -2.21237 0
M  V30 3446 C 323.441 -2.97602 -1.82301 0
M  V30 3447 C 324.789 -3.5291 -2.36093 0
M  V30 3448 O 325.813 -2.99768 -1.924 0
M  V30 3449 O 324.672 -4.45859 -3.16026 0
M  V30 3450 H 321.766 -0.653522 -0.506792 0
M  V30 3451 H 324.312 -1.66126 -0.346465 0
M  V30 3452 H 323.084 -3.74893 -1.12121 0
M  V30 3453 H 322.707 -2.9665 -2.64735 0
M  V30 3454 N 323.704 0.605807 -1.45491 0
M  V30 3455 C 324.651 1.7164 -1.54299 0
M  V30 3456 C 325.621 1.61486 -0.388761 0
M  V30 3457 O 326.806 1.81039 -0.602445 0
M  V30 3458 C 323.946 3.09953 -1.51734 0
M  V30 3459 C 323.059 3.309 -2.77721 0
M  V30 3460 C 322.194 4.59329 -2.66816 0
M  V30 3461 C 321.233 4.7354 -3.87848 0
M  V30 3462 N 320.37 5.9327 -3.75467 0
M  V30 3463 H 325.21 1.63449 -2.49176 0
M  V30 3464 H 322.747 0.796957 -1.23641 0
M  V30 3465 H 324.705 3.89977 -1.48235 0
M  V30 3466 H 323.335 3.17098 -0.604068 0
M  V30 3467 H 322.387 2.44639 -2.913 0
M  V30 3468 H 323.699 3.37274 -3.67488 0
M  V30 3469 H 322.853 5.4755 -2.61292 0
M  V30 3470 H 321.592 4.55355 -1.74651 0
M  V30 3471 H 320.597 3.83741 -3.93729 0
M  V30 3472 H 321.822 4.79309 -4.81082 0
M  V30 3473 H 319.768 5.90338 -2.86072 0
M  V30 3474 H 319.685 6.00811 -4.5887 0
M  V30 3475 H 320.953 6.83984 -3.73879 0
M  V30 3476 N 325.182 1.32811 0.848464 0
M  V30 3477 C 326.407 1.26882 1.6406 0
M  V30 3478 C 326.832 -0.15913 1.87426 0
M  V30 3479 O 326.19 -1.11258 1.43148 0
M  V30 3480 C 326.238 2.03997 2.97351 0
M  V30 3481 O 325.342 1.39201 3.88197 0
M  V30 3482 H 324.683 0.436982 0.499943 0
M  V30 3483 H 327.213 1.75224 1.0563 0
M  V30 3484 H 327.223 2.14403 3.47124 0
M  V30 3485 H 325.898 3.0783 2.79666 0
M  V30 3486 H 324.475 1.37381 3.46671 0
M  V30 3487 N 326.66 -1.06551 1.16123 0
M  V30 3488 C 327.909 -1.78687 0.935622 0
M  V30 3489 C 328.222 -1.88056 -0.538001 0
M  V30 3490 O 329.428 -2.56794 -0.88143 0
M  V30 3491 C 327.884 -3.21143 1.62466 0
M  V30 3492 C 327.492 -3.19949 3.13587 0
M  V30 3493 C 329.236 -3.9783 1.48092 0
M  V30 3494 C 327.143 -4.57108 3.75241 0
M  V30 3495 H 326.073 -0.669712 0.346412 0
M  V30 3496 H 328.724 -1.19534 1.39226 0
M  V30 3497 H 327.106 -3.80539 1.09572 0
M  V30 3498 H 328.28 -2.70151 3.73303 0
M  V30 3499 H 326.595 -2.5676 3.27816 0
M  V30 3500 H 329.192 -4.99217 1.91538 0
M  V30 3501 H 329.535 -4.14078 0.429507 0
M  V30 3502 H 330.068 -3.4495 1.98127 0
M  V30 3503 H 326.807 -4.46065 4.80319 0
M  V30 3504 H 326.327 -5.07111 3.20309 0
M  V30 3505 H 328.006 -5.26069 3.76644 0
M  V30 3506 N 328.138 -0.959301 -1.25041 0
M  V30 3507 C 329.101 -0.487677 -2.23952 0
M  V30 3508 C 330.101 0.41119 -1.55454 0
M  V30 3509 O 331.291 0.207825 -1.72956 0
M  V30 3510 C 328.423 0.294807 -3.39623 0
M  V30 3511 H 329.616 -1.36198 -2.67189 0
M  V30 3512 H 327.169 -0.743042 -1.37508 0
M  V30 3513 H 327.904 1.18658 -3.01813 0
M  V30 3514 H 327.689 -0.35012 -3.90534 0
M  V30 3515 H 329.179 0.614089 -4.1306 0
M  V30 3516 N 329.616 1.39756 -0.72842 0
M  V30 3517 C 330.526 2.34444 -0.0855374 0
M  V30 3518 C 331.542 1.57976 0.729356 0
M  V30 3519 O 332.718 1.90301 0.659346 0
M  V30 3520 C 329.783 3.36965 0.815798 0
M  V30 3521 C 328.844 4.29299 -0.0105996 0
M  V30 3522 C 328.077 5.26923 0.84781 0
M  V30 3523 O 328.3 5.30859 2.08673 0
M  V30 3524 O 327.234 6.01249 0.279969 0
M  V30 3525 H 331.06 2.91065 -0.866892 0
M  V30 3526 H 328.645 1.4117 -0.48902 0
M  V30 3527 H 330.527 3.99804 1.33171 0
M  V30 3528 H 329.202 2.82739 1.57608 0
M  V30 3529 H 328.109 3.69703 -0.571877 0
M  V30 3530 H 329.442 4.86712 -0.73295 0
M  V30 3531 N 331.094 0.475555 1.50254 0
M  V30 3532 C 332.027 -0.362381 2.25304 0
M  V30 3533 C 333.005 -0.992393 1.28803 0
M  V30 3534 O 334.189 -1.02746 1.58036 0
M  V30 3535 C 331.316 -1.50813 3.03271 0
M  V30 3536 C 330.362 -0.995044 4.1473 0
M  V30 3537 S 331.195 0.0938436 5.35418 0
M  V30 3538 C 332.351 -1.05567 6.16933 0
M  V30 3539 H 332.584 0.274686 2.96028 0
M  V30 3540 H 330.117 0.260495 1.52187 0
M  V30 3541 H 332.075 -2.16476 3.48781 0
M  V30 3542 H 330.736 -2.11672 2.32064 0
M  V30 3543 H 329.929 -1.85293 4.68703 0
M  V30 3544 H 329.531 -0.416052 3.71679 0
M  V30 3545 H 331.823 -1.96636 6.48337 0
M  V30 3546 H 332.766 -0.555109 7.05921 0
M  V30 3547 H 333.174 -1.31151 5.49053 0
M  V30 3548 N 332.573 -1.56217 0.208337 0
M  V30 3549 C 333.52 -2.19699 -0.707192 0
M  V30 3550 C 334.49 -1.14836 -1.20008 0
M  V30 3551 O 335.675 -1.4314 -1.26157 0
M  V30 3552 C 332.815 -2.87061 -1.91546 0
M  V30 3553 C 331.928 -4.06483 -1.46271 0
M  V30 3554 C 331.063 -4.61665 -2.62752 0
M  V30 3555 C 330.102 -5.73417 -2.14147 0
M  V30 3556 N 329.239 -6.22948 -3.23853 0
M  V30 3557 H 334.079 -2.97575 -0.159111 0
M  V30 3558 H 331.616 -1.46948 -0.0667874 0
M  V30 3559 H 333.574 -3.24294 -2.62468 0
M  V30 3560 H 332.204 -2.11725 -2.43664 0
M  V30 3561 H 331.256 -3.74825 -0.648886 0
M  V30 3562 H 332.568 -4.87271 -1.06622 0
M  V30 3563 H 331.722 -5.01272 -3.41776 0
M  V30 3564 H 330.461 -3.80013 -3.05682 0
M  V30 3565 H 329.466 -5.33326 -1.33581 0
M  V30 3566 H 330.691 -6.56897 -1.72232 0
M  V30 3567 H 328.637 -5.44213 -3.6629 0
M  V30 3568 H 328.554 -6.98823 -2.88414 0
M  V30 3569 H 329.822 -6.6721 -4.03052 0
M  V30 3570 N 334.051 0.0651679 -1.57465 0
M  V30 3571 C 335.328 0.79644 -1.78651 0
M  V30 3572 C 335.708 1.95454 -0.797566 0
M  V30 3573 O 335.056 2.27882 0.167946 0
M  V30 3574 C 335.266 1.26322 -3.25337 0
M  V30 3575 C 336.614 1.6939 -3.89348 0
M  V30 3576 O 337.638 1.35872 -3.29268 0
M  V30 3577 O 336.497 2.31471 -4.95059 0
M  V30 3578 H 333.591 0.382157 -0.733407 0
M  V30 3579 H 336.137 0.0447311 -1.69641 0
M  V30 3580 H 334.909 0.434859 -3.88876 0
M  V30 3581 H 334.532 2.07604 -3.39096 0
M  V30 3582 N 335.529 1.53961 0.336706 0
M  V30 3583 C 336.777 1.71197 1.07405 0
M  V30 3584 C 337.098 0.481475 1.88962 0
M  V30 3585 O 336.368 -0.504585 1.8929 0
M  V30 3586 H 334.948 0.631185 0.399517 0
M  V30 3587 H 337.61 1.91232 0.376323 0
M  V30 3588 H 336.706 2.58587 1.74755 0
M  V30 3589 N 337.007 -0.598083 1.45811 0
M  V30 3590 C 338.253 -1.35882 1.50545 0
M  V30 3591 C 338.586 -1.93616 0.150445 0
M  V30 3592 O 337.861 -1.75604 -0.83628 0
M  V30 3593 C 338.144 -2.49966 2.59208 0
M  V30 3594 C 337.997 -1.97367 4.04186 0
M  V30 3595 C 339.316 -3.52068 2.64076 0
M  V30 3596 H 336.435 -0.492717 0.548087 0
M  V30 3597 H 339.077 -0.673319 1.77669 0
M  V30 3598 H 337.227 -3.08443 2.3621 0
M  V30 3599 H 338.899 -1.43466 4.38423 0
M  V30 3600 H 337.142 -1.283 4.14393 0
M  V30 3601 H 337.813 -2.79649 4.75921 0
M  V30 3602 H 340.289 -3.03448 2.84708 0
M  V30 3603 H 339.165 -4.2937 3.41954 0
M  V30 3604 H 339.426 -4.08304 1.69531 0
M  V30 3605 N 338.485 -1.33259 -0.841409 0
M  V30 3606 C 339.731 -1.24757 -1.59886 0
M  V30 3607 C 340.064 0.186913 -1.93298 0
M  V30 3608 O 339.339 1.12757 -1.5848 0
M  V30 3609 C 339.622 -2.12036 -2.91055 0
M  V30 3610 C 339.475 -3.63929 -2.6434 0
M  V30 3611 C 340.794 -1.9916 -3.92458 0
M  V30 3612 H 337.913 -0.454542 -0.580138 0
M  V30 3613 H 340.555 -1.63335 -0.970647 0
M  V30 3614 H 338.705 -1.79265 -3.44669 0
M  V30 3615 H 340.377 -4.06978 -2.17178 0
M  V30 3616 H 338.62 -3.85935 -1.98082 0
M  V30 3617 H 339.291 -4.20341 -3.57796 0
M  V30 3618 H 341.767 -2.27895 -3.48143 0
M  V30 3619 H 340.643 -2.62484 -4.82072 0
M  V30 3620 H 340.904 -0.963082 -4.31482 0
M  V30 3621 N 339.963 1.05934 -1.16686 0
M  V30 3622 C 341.212 1.78188 -0.945085 0
M  V30 3623 C 341.525 1.88338 0.528021 0
M  V30 3624 O 342.731 2.57258 0.867799 0
M  V30 3625 C 341.187 3.20277 -1.64167 0
M  V30 3626 C 340.795 3.18281 -3.15279 0
M  V30 3627 C 342.539 3.97039 -1.502 0
M  V30 3628 C 340.446 4.55112 -3.7766 0
M  V30 3629 H 339.376 0.667866 -0.349959 0
M  V30 3630 H 342.027 1.18794 -1.39858 0
M  V30 3631 H 340.409 3.79952 -1.11589 0
M  V30 3632 H 341.583 2.68167 -3.74731 0
M  V30 3633 H 339.898 2.55018 -3.29173 0
M  V30 3634 H 342.495 4.98194 -1.94183 0
M  V30 3635 H 342.838 4.13845 -0.451461 0
M  V30 3636 H 343.371 3.43894 -1.99954 0
M  V30 3637 H 340.11 4.43512 -4.82677 0
M  V30 3638 H 339.63 5.05406 -3.22994 0
M  V30 3639 H 341.309 5.24064 -3.79428 0
M  V30 3640 N 341.441 0.965919 1.2453 0
M  V30 3641 C 342.687 0.62776 1.92839 0
M  V30 3642 C 343.02 -0.834694 1.75347 0
M  V30 3643 O 342.295 -1.60031 1.10546 0
M  V30 3644 C 342.578 1.00109 3.45905 0
M  V30 3645 C 342.431 2.52011 3.72573 0
M  V30 3646 C 343.75 0.53435 4.36844 0
M  V30 3647 H 340.869 0.229537 0.700344 0
M  V30 3648 H 343.511 1.2046 1.46933 0
M  V30 3649 H 341.661 0.510238 3.85135 0
M  V30 3650 H 343.333 3.08559 3.42912 0
M  V30 3651 H 341.576 2.95287 3.17786 0
M  V30 3652 H 342.247 2.73183 4.79661 0
M  V30 3653 H 344.723 0.955565 4.04979 0
M  V30 3654 H 343.599 0.824152 5.42678 0
M  V30 3655 H 343.86 -0.565589 4.38467 0
M  V30 3656 N 342.919 -1.39368 0.735821 0
M  V30 3657 C 343.867 -2.32443 0.0855131 0
M  V30 3658 C 344.861 -1.53104 -0.724954 0
M  V30 3659 O 346.067 -1.68762 -0.626047 0
M  V30 3660 H 342.442 -0.751948 0.00885257 0
M  V30 3661 H 344.413 -2.84916 0.886883 0
M  V30 3662 C 343.162 -3.38206 -0.806983 0
M  V30 3663 H 342.485 -3.99335 -0.19274 0
M  V30 3664 H 343.925 -4.05779 -1.2296 0
M  V30 3665 C 342.384 -2.75321 -1.94165 0
M  V30 3666 O 342.914 -2.63231 -3.03435 0
M  V30 3667 N 341.12 -2.33396 -1.73132 0
M  V30 3668 H 340.667 -2.4343 -0.842596 0
M  V30 3669 H 340.625 -1.91661 -2.49225 0
M  V30 3670 N 344.397 -0.483516 -1.5 0
M  V30 3671 C 345.637 0.0657469 -2.04294 0
M  V30 3672 C 346.001 1.35869 -1.35659 0
M  V30 3673 O 347.202 1.99111 -1.80578 0
M  V30 3674 C 345.473 0.232758 -3.56641 0
M  V30 3675 S 347.032 0.738788 -4.32536 0
M  V30 3676 H 343.85 0.0100755 -0.710929 0
M  V30 3677 H 346.452 -0.653494 -1.84254 0
M  V30 3678 H 345.156 -0.713847 -4.04144 0
M  V30 3679 H 344.687 0.977751 -3.81056 0
M  V30 3680 H 346.702 2.01048 -4.53645 0
M  V30 3681 N 345.875 1.56104 -0.216619 0
M  V30 3682 C 347.1 2.0301 0.424462 0
M  V30 3683 C 347.525 1.0955 1.52907 0
M  V30 3684 O 346.883 0.0827914 1.81111 0
M  V30 3685 C 346.931 3.4819 0.937883 0
M  V30 3686 O 346.035 3.57865 2.04955 0
M  V30 3687 H 345.376 0.656925 0.0966755 0
M  V30 3688 H 347.906 2.01859 -0.33381 0
M  V30 3689 H 347.916 3.88413 1.24897 0
M  V30 3690 H 346.591 4.15699 0.129387 0
M  V30 3691 H 345.168 3.29527 1.74546 0
M  V30 3692 N 347.353 -0.0568162 1.57498 0
M  V30 3693 C 348.769 -0.411933 1.54192 0
M  V30 3694 C 348.969 -1.78287 0.938942 0
M  V30 3695 O 348.025 -2.46483 0.547919 0
M  V30 3696 C 349.338 -0.339244 2.9878 0
M  V30 3697 C 350.886 -0.418348 3.10192 0
M  V30 3698 C 351.361 -0.375407 4.56459 0
M  V30 3699 N 352.852 -0.435038 4.61153 0
M  V30 3700 C 353.587 -0.424265 5.71828 0
M  V30 3701 N 353.083 -0.367418 6.91825 0
M  V30 3702 N 354.876 -0.471938 5.60115 0
M  V30 3703 H 347.027 0.840684 1.95055 0
M  V30 3704 H 349.29 0.316987 0.893433 0
M  V30 3705 H 348.996 0.601742 3.46514 0
M  V30 3706 H 348.87 -1.14371 3.59443 0
M  V30 3707 H 351.257 -1.34976 2.62422 0
M  V30 3708 H 351.338 0.414962 2.52412 0
M  V30 3709 H 350.982 0.552219 5.04889 0
M  V30 3710 H 350.912 -1.22645 5.12119 0
M  V30 3711 H 353.403 -0.482612 3.74806 0
M  V30 3712 H 353.716 -0.363535 7.71944 0
M  V30 3713 H 352.061 -0.333879 6.94198 0
M  V30 3714 H 355.252 -0.514145 4.65268 0
M  V30 3715 H 355.425 -0.460073 6.46365 0
M  V30 3716 N 348.832 -1.54138 -0.328536 0
M  V30 3717 C 350.08 -1.71765 -1.06496 0
M  V30 3718 C 350.401 -0.49149 -1.88704 0
M  V30 3719 O 349.671 0.494539 -1.89555 0
M  V30 3720 H 348.251 -0.633295 -0.396164 0
M  V30 3721 H 350.913 -1.91429 -0.366176 0
M  V30 3722 H 350.009 -2.5951 -1.73381 0
M  V30 3723 N 350.31 0.590341 -1.46126 0
M  V30 3724 C 351.726 0.912917 -1.30912 0
M  V30 3725 C 351.926 1.99616 -0.274893 0
M  V30 3726 O 350.982 2.50397 0.325197 0
M  V30 3727 C 352.295 1.3375 -2.69317 0
M  V30 3728 C 353.843 1.45077 -2.77348 0
M  V30 3729 C 354.318 1.90904 -4.16317 0
M  V30 3730 N 355.809 1.9811 -4.18696 0
M  V30 3731 C 356.544 2.34828 -5.23109 0
M  V30 3732 N 356.04 2.70393 -6.37856 0
M  V30 3733 N 357.833 2.35317 -5.10473 0
M  V30 3734 H 349.984 -0.125358 -2.1203 0
M  V30 3735 H 352.247 0.00658481 -0.947977 0
M  V30 3736 H 351.953 0.615614 -3.4627 0
M  V30 3737 H 351.827 2.30058 -2.9892 0
M  V30 3738 H 354.214 2.16353 -2.00687 0
M  V30 3739 H 354.295 0.4704 -2.51438 0
M  V30 3740 H 353.939 1.20209 -4.9347 0
M  V30 3741 H 353.869 2.89886 -4.39629 0
M  V30 3742 H 356.36 1.73146 -3.359 0
M  V30 3743 H 356.673 2.97341 -7.13308 0
M  V30 3744 H 355.018 2.68048 -6.41229 0
M  V30 3745 H 358.209 2.0695 -4.19868 0
M  V30 3746 H 358.382 2.63605 -5.9196 0
M  V30 3747 N 351.788 1.33704 0.83433 0
M  V30 3748 C 352.718 1.26967 1.95963 0
M  V30 3749 C 353.699 0.149337 1.69443 0
M  V30 3750 O 354.884 0.339852 1.91203 0
M  V30 3751 C 352.014 1.01275 3.32206 0
M  V30 3752 C 350.968 2.09652 3.73136 0
M  V30 3753 C 350.294 1.69166 5.07235 0
M  V30 3754 C 351.594 3.51372 3.86439 0
M  V30 3755 H 353.288 2.2112 2.01857 0
M  V30 3756 H 350.834 1.06447 0.969793 0
M  V30 3757 H 352.787 0.952106 4.10503 0
M  V30 3758 H 351.511 0.0356203 3.26581 0
M  V30 3759 H 350.17 2.14766 2.97104 0
M  V30 3760 H 349.818 0.701437 4.98085 0
M  V30 3761 H 349.518 2.41694 5.35591 0
M  V30 3762 H 351.042 1.64576 5.88003 0
M  V30 3763 H 352.456 3.48734 4.55036 0
M  V30 3764 H 350.853 4.22425 4.26236 0
M  V30 3765 H 351.923 3.89546 2.88759 0
M  V30 3766 N 353.266 -1.05314 1.17247 0
M  V30 3767 C 354.512 -1.78557 0.961513 0
M  V30 3768 C 354.845 -1.87419 -0.508697 0
M  V30 3769 O 354.12 -1.37307 -1.37757 0
M  V30 3770 C 354.403 -3.22514 1.60176 0
M  V30 3771 C 354.256 -3.21673 3.14399 0
M  V30 3772 C 355.575 -4.20318 1.30463 0
M  V30 3773 H 352.694 -0.6482 0.350723 0
M  V30 3774 H 355.336 -1.23102 1.44727 0
M  V30 3775 H 353.486 -3.69867 1.18871 0
M  V30 3776 H 355.158 -2.82405 3.64753 0
M  V30 3777 H 353.401 -2.60048 3.47214 0
M  V30 3778 H 354.072 -4.23271 3.54324 0
M  V30 3779 H 356.548 -3.81454 1.66229 0
M  V30 3780 H 355.424 -5.19289 1.77848 0
M  V30 3781 H 355.685 -4.41526 0.22521 0
M  V30 3782 N 354.744 -0.972509 -1.24016 0
M  V30 3783 C 356.021 -0.553733 -1.87598 0
M  V30 3784 C 356.401 0.969158 -1.87538 0
M  V30 3785 O 355.749 1.84255 -1.35139 0
M  V30 3786 C 355.959 -1.15076 -3.29482 0
M  V30 3787 C 357.307 -1.23862 -4.06132 0
M  V30 3788 O 358.331 -1.10363 -3.38672 0
M  V30 3789 O 357.19 -1.45252 -5.26844 0
M  V30 3790 H 354.284 -0.185331 -0.805966 0
M  V30 3791 H 356.83 -1.06709 -1.31952 0
M  V30 3792 H 355.602 -2.19333 -3.2405 0
M  V30 3793 H 355.225 -0.621746 -3.92709 0
M  V30 3794 N 356.222 1.38976 -0.743202 0
M  V30 3795 C 357.45 2.04636 -0.30525 0
M  V30 3796 C 357.865 1.56044 1.06281 0
M  V30 3797 O 357.222 0.728921 1.67311 0
M  V30 3798 C 357.273 3.60193 -0.307177 0
M  V30 3799 O 356.994 4.06998 -1.62124 0
M  V30 3800 C 358.495 4.4306 0.145928 0
M  V30 3801 H 355.715 0.65788 -0.132041 0
M  V30 3802 H 358.259 1.77866 -1.00915 0
M  V30 3803 H 356.414 3.85835 0.347898 0
M  V30 3804 H 356.828 5.01371 -1.54036 0
M  V30 3805 H 358.302 5.51921 0.0934183 0
M  V30 3806 H 358.779 4.22706 1.19231 0
M  V30 3807 H 359.385 4.22584 -0.479886 0
M  V30 3808 N 357.7 0.491464 1.49741 0
M  V30 3809 C 358.977 -0.118984 1.95238 0
M  V30 3810 C 359.357 -1.55044 1.43264 0
M  V30 3811 O 358.705 -2.19287 0.642287 0
M  V30 3812 C 358.915 -0.0414187 3.48975 0
M  V30 3813 C 360.263 -0.220133 4.24029 0
M  V30 3814 O 361.287 -0.117055 3.56008 0
M  V30 3815 O 360.146 -0.430567 5.44801 0
M  V30 3816 H 357.24 -0.100536 0.820866 0
M  V30 3817 H 359.786 0.553322 1.60426 0
M  V30 3818 H 358.558 0.957214 3.79412 0
M  V30 3819 H 358.181 -0.754292 3.9038 0
M  V30 3820 N 359.178 -1.55987 0.224894 0
M  V30 3821 C 360.141 -2.19178 -0.670348 0
M  V30 3822 C 361.141 -1.15461 -1.11917 0
M  V30 3823 O 362.331 -1.40675 -1.02743 0
M  V30 3824 C 359.463 -2.81777 -1.9187 0
M  V30 3825 H 360.656 -2.99662 -0.119364 0
M  V30 3826 H 358.209 -1.5628 -0.0247128 0
M  V30 3827 H 358.944 -2.05172 -2.51147 0
M  V30 3828 H 358.729 -3.57732 -1.60531 0
M  V30 3829 H 360.219 -3.30205 -2.55645 0
M  V30 3830 N 360.656 0.0484629 -1.57525 0
M  V30 3831 C 361.902 0.744226 -1.88651 0
M  V30 3832 C 362.235 1.76029 -0.820212 0
M  V30 3833 O 361.51 1.93782 0.166985 0
M  V30 3834 C 361.793 1.43128 -3.30434 0
M  V30 3835 C 361.646 0.43005 -4.47739 0
M  V30 3836 C 362.965 2.37031 -3.70816 0
M  V30 3837 H 360.084 0.269089 -0.68612 0
M  V30 3838 H 362.726 0.00713532 -1.89999 0
M  V30 3839 H 360.876 2.05956 -3.29415 0
M  V30 3840 H 362.548 -0.194816 -4.60888 0
M  V30 3841 H 360.791 -0.252522 -4.33064 0
M  V30 3842 H 361.462 0.948874 -5.43783 0
M  V30 3843 H 363.938 1.84263 -3.73077 0
M  V30 3844 H 362.814 2.82094 -4.70865 0
M  V30 3845 H 363.075 3.22864 -3.02012 0
M  V30 3846 N 362.134 1.5431 0.320358 0
M  V30 3847 C 363.383 1.7188 1.05546 0
M  V30 3848 C 363.696 0.501143 1.89071 0
M  V30 3849 O 364.902 0.558258 2.65699 0
M  V30 3850 C 363.358 3.04025 1.92605 0
M  V30 3851 C 362.966 4.33207 1.14176 0
M  V30 3852 C 364.71 3.30959 2.65832 0
M  V30 3853 C 362.617 5.56412 2.00399 0
M  V30 3854 H 361.547 0.640547 0.397763 0
M  V30 3855 H 364.198 1.80802 0.313522 0
M  V30 3856 H 362.58 2.89019 2.7071 0
M  V30 3857 H 363.754 4.58989 0.40819 0
M  V30 3858 H 362.069 4.13062 0.526165 0
M  V30 3859 H 364.666 4.20203 3.30656 0
M  V30 3860 H 365.009 2.48979 3.33639 0
M  V30 3861 H 365.542 3.46847 1.94787 0
M  V30 3862 H 362.281 6.41004 1.37094 0
M  V30 3863 H 361.801 5.34844 2.7148 0
M  V30 3864 H 363.48 5.92938 2.58908 0
M  V30 3865 N 363.613 -0.582584 1.46437 0
M  V30 3866 C 365.029 -0.905962 1.31394 0
M  V30 3867 C 365.229 -1.99468 0.285476 0
M  V30 3868 O 364.285 -2.50566 -0.311914 0
M  V30 3869 C 365.598 -1.3232 2.70022 0
M  V30 3870 C 367.146 -1.43604 2.78113 0
M  V30 3871 C 367.621 -1.88694 4.17323 0
M  V30 3872 N 369.112 -1.95887 4.19741 0
M  V30 3873 C 369.847 -2.32051 5.24347 0
M  V30 3874 N 369.343 -2.67006 6.39281 0
M  V30 3875 N 371.136 -2.32606 5.11713 0
M  V30 3876 H 363.287 0.1366 2.1196 0
M  V30 3877 H 365.55 -0.00155736 0.947999 0
M  V30 3878 H 365.256 -0.597242 3.46592 0
M  V30 3879 H 365.13 -2.28469 3.00136 0
M  V30 3880 H 367.517 -2.15286 2.01832 0
M  V30 3881 H 367.598 -0.457059 2.51684 0
M  V30 3882 H 367.242 -1.1759 4.941 0
M  V30 3883 H 367.172 -2.8755 4.4116 0
M  V30 3884 H 369.663 -1.71362 3.36814 0
M  V30 3885 H 369.976 -2.93554 7.14875 0
M  V30 3886 H 368.321 -2.64644 6.42642 0
M  V30 3887 H 371.512 -2.04721 4.2096 0
M  V30 3888 H 371.685 -2.60462 5.93349 0
M  V30 3889 N 365.091 -1.34144 -0.827227 0
M  V30 3890 C 366.339 -1.26009 -1.58007 0
M  V30 3891 C 366.66 0.170971 -1.94249 0
M  V30 3892 O 365.93 1.10256 -1.61927 0
M  V30 3893 H 364.51 -0.463414 -0.585881 0
M  V30 3894 H 367.172 -1.68005 -0.987951 0
M  V30 3895 H 366.268 -1.86187 -2.50481 0
M  V30 3896 N 366.569 1.04691 -1.17803 0
M  V30 3897 C 367.499 2.14494 -0.92275 0
M  V30 3898 C 368.48 1.69546 0.137179 0
M  V30 3899 O 369.665 1.94195 -0.0141108 0
M  V30 3900 C 366.795 3.44491 -0.440803 0
M  V30 3901 C 365.749 4.03031 -1.4405 0
M  V30 3902 C 365.075 5.28432 -0.81631 0
M  V30 3903 C 366.375 4.39932 -2.81527 0
M  V30 3904 H 368.069 2.36107 -1.84103 0
M  V30 3905 H 365.615 1.1347 -0.886599 0
M  V30 3906 H 367.568 4.2066 -0.249602 0
M  V30 3907 H 366.292 3.22546 0.513025 0
M  V30 3908 H 364.951 3.28937 -1.61853 0
M  V30 3909 H 364.599 5.02792 0.144511 0
M  V30 3910 H 364.299 5.68559 -1.48371 0
M  V30 3911 H 365.823 6.07284 -0.635496 0
M  V30 3912 H 367.237 5.07113 -2.67412 0
M  V30 3913 H 365.634 4.9109 -3.44892 0
M  V30 3914 H 366.704 3.50045 -3.35554 0
M  V30 3915 N 368.047 0.979072 1.23499 0
M  V30 3916 C 369.324 0.563674 1.87302 0
M  V30 3917 C 369.704 -0.959199 1.88049 0
M  V30 3918 O 369.052 -1.83535 1.36114 0
M  V30 3919 C 369.262 1.16822 3.28867 0
M  V30 3920 C 370.61 1.26014 4.0547 0
M  V30 3921 O 371.634 1.12158 3.38082 0
M  V30 3922 O 370.493 1.48044 5.26066 0
M  V30 3923 H 367.587 0.189602 0.804972 0
M  V30 3924 H 370.133 1.07407 1.31384 0
M  V30 3925 H 368.905 2.21049 3.22883 0
M  V30 3926 H 368.528 0.642564 3.92373 0
M  V30 3927 N 369.525 -1.3858 0.750561 0
M  V30 3928 C 370.75 -2.04997 0.314812 0
M  V30 3929 C 371.175 -1.56235 -1.04749 0
M  V30 3930 O 370.533 -0.712981 -1.66692 0
M  V30 3931 C 370.581 -3.58961 0.343415 0
M  V30 3932 O 369.685 -4.07025 -0.663628 0
M  V30 3933 H 369.026 -0.649081 0.139962 0
M  V30 3934 H 371.556 -1.77313 1.02084 0
M  V30 3935 H 371.566 -4.07542 0.193233 0
M  V30 3936 H 370.241 -3.93811 1.33738 0
M  V30 3937 H 368.818 -3.6982 -0.478307 0
M  V30 3938 N 371.003 -0.499398 -1.49478 0
M  V30 3939 C 372.251 0.0455996 -2.02049 0
M  V30 3940 C 372.572 1.37633 -1.38138 0
M  V30 3941 O 371.842 1.8842 -0.536166 0
M  V30 3942 H 370.422 0.0198416 -0.746736 0
M  V30 3943 H 373.084 -0.656274 -1.83519 0
M  V30 3944 H 372.18 0.176445 -3.11601 0
M  V30 3945 N 372.481 1.55866 -0.233164 0
M  V30 3946 C 373.428 2.20796 0.67215 0
M  V30 3947 C 374.398 1.16731 1.18166 0
M  V30 3948 O 375.583 1.45129 1.23864 0
M  V30 3949 C 372.723 2.90072 1.86955 0
M  V30 3950 C 371.836 4.08759 1.39786 0
M  V30 3951 C 370.971 4.65787 2.55374 0
M  V30 3952 C 370.01 5.76752 2.04998 0
M  V30 3953 N 369.147 6.28021 3.13901 0
M  V30 3954 H 373.987 2.9779 0.111749 0
M  V30 3955 H 371.524 1.47036 0.0434007 0
M  V30 3956 H 373.482 3.28428 2.57276 0
M  V30 3957 H 372.112 2.15575 2.40265 0
M  V30 3958 H 371.164 3.7581 0.589173 0
M  V30 3959 H 372.476 4.88906 0.98856 0
M  V30 3960 H 371.63 5.06646 3.33758 0
M  V30 3961 H 370.369 3.84828 2.99598 0
M  V30 3962 H 369.374 5.35383 1.25079 0
M  V30 3963 H 370.599 6.59553 1.61759 0
M  V30 3964 H 368.545 5.49971 3.57586 0
M  V30 3965 H 368.462 7.03323 2.7726 0
M  V30 3966 H 369.73 6.73538 3.92386 0
M  V30 3967 N 373.959 -0.0401083 1.57549 0
M  V30 3968 C 375.208 -0.732108 1.87944 0
M  V30 3969 C 375.521 -1.77107 0.830206 0
M  V30 3970 O 376.727 -2.51488 1.02302 0
M  V30 3971 C 375.183 -1.35315 3.33494 0
M  V30 3972 C 374.791 -0.351105 4.46622 0
M  V30 3973 C 376.535 -2.02566 3.73051 0
M  V30 3974 C 374.442 -0.979859 5.83226 0
M  V30 3975 H 373.372 -0.277188 0.701201 0
M  V30 3976 H 376.023 0.0138501 1.83495 0
M  V30 3977 H 374.405 -2.14844 3.32653 0
M  V30 3978 H 375.579 0.416674 4.58912 0
M  V30 3979 H 373.894 0.218708 4.15825 0
M  V30 3980 H 376.491 -2.50441 4.72423 0
M  V30 3981 H 376.834 -2.83904 3.04474 0
M  V30 3982 H 377.367 -1.29827 3.76018 0
M  V30 3983 H 374.106 -0.206135 6.55176 0
M  V30 3984 H 373.626 -1.71774 5.74677 0
M  V30 3985 H 375.305 -1.49046 6.29599 0
M  V30 3986 N 375.437 -1.54477 -0.31217 0
M  V30 3987 C 376.684 -1.73227 -1.04875 0
M  V30 3988 C 377.012 -0.512042 -1.87639 0
M  V30 3989 O 376.267 0.506131 -1.89042 0
M  V30 3990 C 376.566 -2.967 -1.99258 0
M  V30 3991 C 376.232 -4.30974 -1.32559 0
M  V30 3992 C 374.894 -4.67477 -1.141 0
M  V30 3993 C 377.246 -5.14258 -0.847835 0
M  V30 3994 C 374.574 -5.84852 -0.465326 0
M  V30 3995 C 376.926 -6.32327 -0.185931 0
M  V30 3996 C 375.59 -6.67499 0.0107077 0
M  V30 3997 H 374.86 -0.633881 -0.383765 0
M  V30 3998 H 377.507 -1.88727 -0.324731 0
M  V30 3999 H 375.812 -2.75935 -2.7815 0
M  V30 4000 H 377.509 -3.08401 -2.563 0
M  V30 4001 H 374.099 -4.02262 -1.4793 0
M  V30 4002 H 378.283 -4.86565 -0.978192 0
M  V30 4003 H 373.539 -6.10654 -0.301883 0
M  V30 4004 H 377.713 -6.96135 0.192211 0
M  V30 4005 H 375.34 -7.58306 0.536287 0
M  V30 4006 N 376.915 0.57481 -1.46744 0
M  V30 4007 C 378.163 1.33009 -1.52161 0
M  V30 4008 C 378.484 1.94185 -0.178092 0
M  V30 4009 O 377.754 1.7899 0.796196 0
M  V30 4010 H 376.334 0.493873 -0.560445 0
M  V30 4011 H 378.996 0.672589 -1.82927 0
M  V30 4012 H 378.092 2.13273 -2.27862 0
M  V30 4013 N 378.394 1.34581 0.820102 0
M  V30 4014 C 379.641 1.27096 1.57648 0
M  V30 4015 C 379.969 -0.158317 1.93855 0
M  V30 4016 O 379.224 -1.12028 1.60463 0
M  V30 4017 C 379.523 2.10997 2.8847 0
M  V30 4018 C 379.189 3.59966 2.71543 0
M  V30 4019 C 377.851 4.00575 2.66634 0
M  V30 4020 C 380.203 4.54548 2.55021 0
M  V30 4021 C 377.531 5.33953 2.43128 0
M  V30 4022 C 379.883 5.88109 2.33047 0
M  V30 4023 C 378.547 6.27878 2.26552 0
M  V30 4024 H 377.817 0.465078 0.576874 0
M  V30 4025 H 380.464 1.6635 0.948671 0
M  V30 4026 H 378.769 1.6458 3.55557 0
M  V30 4027 H 380.466 2.0255 3.46084 0
M  V30 4028 H 377.056 3.27733 2.76205 0
M  V30 4029 H 381.24 4.24069 2.57835 0
M  V30 4030 H 376.496 5.63781 2.3656 0
M  V30 4031 H 380.67 6.60985 2.19251 0
M  V30 4032 H 378.297 7.31162 2.081 0
M  V30 4033 N 379.872 -1.04064 1.18357 0
M  V30 4034 C 381.118 -1.77528 0.980397 0
M  V30 4035 C 381.451 -1.87948 -0.48879 0
M  V30 4036 O 380.726 -1.3876 -1.36293 0
M  V30 4037 C 381.009 -3.20797 1.63588 0
M  V30 4038 C 380.862 -3.1832 3.17793 0
M  V30 4039 C 382.181 -4.18911 1.34914 0
M  V30 4040 H 379.3 -0.644443 0.357578 0
M  V30 4041 H 381.942 -1.2156 1.46024 0
M  V30 4042 H 380.092 -3.68586 1.22788 0
M  V30 4043 H 381.764 -2.78521 3.67728 0
M  V30 4044 H 380.007 -2.56351 3.49952 0
M  V30 4045 H 380.678 -4.19489 3.58794 0
M  V30 4046 H 383.154 -3.7967 1.70265 0
M  V30 4047 H 382.03 -5.17374 1.83346 0
M  V30 4048 H 382.291 -4.41262 0.272027 0
M  V30 4049 N 381.35 -0.985608 -1.22978 0
M  V30 4050 C 382.283 -0.47487 -2.23204 0
M  V30 4051 C 383.261 0.460865 -1.55932 0
M  V30 4052 O 384.445 0.388105 -1.84461 0
M  V30 4053 C 381.572 0.312427 -3.37256 0
M  V30 4054 C 380.618 -0.568219 -4.22698 0
M  V30 4055 S 381.451 -2.01919 -4.95973 0
M  V30 4056 C 382.607 -1.24118 -6.1347 0
M  V30 4057 H 382.84 -1.32419 -2.66181 0
M  V30 4058 H 380.373 -0.792005 -1.32539 0
M  V30 4059 H 382.331 0.760645 -4.03391 0
M  V30 4060 H 380.992 1.13693 -2.92801 0
M  V30 4061 H 380.185 0.0371657 -5.03986 0
M  V30 4062 H 379.787 -0.952897 -3.61657 0
M  V30 4063 H 382.079 -0.505121 -6.75614 0
M  V30 4064 H 383.022 -2.02907 -6.78406 0
M  V30 4065 H 383.43 -0.757669 -5.59392 0
M  V30 4066 N 382.828 1.3818 -0.7579 0
M  V30 4067 C 384.105 1.94106 -0.241306 0
M  V30 4068 C 384.485 1.69282 1.26122 0
M  V30 4069 O 383.833 1.03378 2.03777 0
M  V30 4070 C 384.043 3.43809 -0.59967 0
M  V30 4071 C 385.391 4.20868 -0.561717 0
M  V30 4072 O 386.415 3.5211 -0.538222 0
M  V30 4073 O 385.274 5.43451 -0.576478 0
M  V30 4074 H 382.368 0.825376 -0.0518042 0
M  V30 4075 H 384.914 1.47548 -0.838315 0
M  V30 4076 H 383.686 3.55403 -1.6372 0
M  V30 4077 H 383.309 3.97592 0.0251197 0
M  V30 4078 N 384.306 0.507319 1.49211 0
M  V30 4079 C 385.534 -0.0315749 2.06876 0
M  V30 4080 C 385.949 -1.30241 1.36685 0
M  V30 4081 O 385.306 -1.76937 0.447152 0
M  V30 4082 C 385.357 -0.282627 3.60393 0
M  V30 4083 O 385.078 0.937835 4.27944 0
M  V30 4084 C 386.579 -0.864453 4.3479 0
M  V30 4085 H 383.799 0.0233048 0.670595 0
M  V30 4086 H 386.343 0.706484 1.91909 0
M  V30 4087 H 384.498 -0.97068 3.75042 0
M  V30 4088 H 384.912 0.704567 5.19746 0
M  V30 4089 H 386.386 -0.989664 5.43056 0
M  V30 4090 H 386.863 -1.86382 3.97692 0
M  V30 4091 H 387.469 -0.213672 4.24763 0
M  V30 4092 N 385.784 -1.5574 0.241426 0
M  V30 4093 C 387.014 -2.02913 -0.38857 0
M  V30 4094 C 387.422 -1.12014 -1.52478 0
M  V30 4095 O 386.765 -0.125903 -1.83268 0
M  V30 4096 C 386.827 -3.4636 -0.963075 0
M  V30 4097 C 386.491 -4.56982 0.0401916 0
M  V30 4098 C 387.488 -5.12941 0.847766 0
M  V30 4099 C 385.173 -5.0203 0.164699 0
M  V30 4100 C 387.167 -6.12437 1.76636 0
M  V30 4101 C 384.854 -6.01358 1.0868 0
M  V30 4102 C 385.852 -6.5644 1.88616 0
M  V30 4103 O 385.54 -7.53831 2.79273 0
M  V30 4104 H 385.272 -0.668983 -0.0971452 0
M  V30 4105 H 387.826 -2.02198 0.361248 0
M  V30 4106 H 386.056 -3.44206 -1.76235 0
M  V30 4107 H 387.745 -3.77065 -1.50257 0
M  V30 4108 H 388.511 -4.78974 0.762133 0
M  V30 4109 H 384.39 -4.58824 -0.447411 0
M  V30 4110 H 387.934 -6.55355 2.39071 0
M  V30 4111 H 383.831 -6.34746 1.17338 0
M  V30 4112 H 384.599 -7.71428 2.73572 0
M  V30 4113 N 387.262 0.0317525 -1.57568 0
M  V30 4114 C 388.172 1.05021 -2.0978 0
M  V30 4115 C 389.188 1.39809 -1.03583 0
M  V30 4116 O 390.364 1.49182 -1.35302 0
M  V30 4117 C 387.429 2.33301 -2.56459 0
M  V30 4118 C 386.49 2.0512 -3.77127 0
M  V30 4119 C 385.723 3.27283 -4.2157 0
M  V30 4120 O 385.946 4.37861 -3.65559 0
M  V30 4121 O 384.88 3.13141 -5.14029 0
M  V30 4122 H 388.706 0.636505 -2.96955 0
M  V30 4123 H 386.291 0.248559 -1.47318 0
M  V30 4124 H 388.173 3.08722 -2.86825 0
M  V30 4125 H 386.848 2.73973 -1.72397 0
M  V30 4126 H 385.755 1.27276 -3.51784 0
M  V30 4127 H 387.088 1.69305 -4.62165 0
M  V30 4128 N 388.74 1.54641 0.303973 0
M  V30 4129 C 390.017 1.64455 1.05896 0
M  V30 4130 C 390.397 0.490923 2.05312 0
M  V30 4131 O 389.745 -0.512685 2.22674 0
M  V30 4132 C 389.955 3.02331 1.74347 0
M  V30 4133 C 391.303 3.59045 2.26653 0
M  V30 4134 O 392.327 3.04764 1.84384 0
M  V30 4135 O 391.186 4.54081 3.04093 0
M  V30 4136 H 388.28 0.666729 0.489287 0
M  V30 4137 H 390.826 1.66986 0.302298 0
M  V30 4138 H 389.598 3.77734 1.02142 0
M  V30 4139 H 389.221 3.03565 2.56777 0
M  V30 4140 N 390.218 -0.567019 1.47046 0
M  V30 4141 C 391.128 -1.70247 1.6141 0
M  V30 4142 C 392.144 -1.66746 0.497157 0
M  V30 4143 O 393.32 -1.86371 0.763389 0
M  V30 4144 C 390.385 -3.06756 1.61561 0
M  V30 4145 C 389.446 -3.21399 2.84607 0
M  V30 4146 C 388.679 -4.51396 2.84741 0
M  V30 4147 O 388.902 -5.36255 1.94388 0
M  V30 4148 O 387.836 -4.69621 3.76483 0
M  V30 4149 H 391.662 -1.61073 2.57467 0
M  V30 4150 H 389.247 -0.735894 1.30019 0
M  V30 4151 H 391.129 -3.8801 1.64396 0
M  V30 4152 H 389.804 -3.16333 0.686684 0
M  V30 4153 H 388.711 -2.39579 2.8732 0
M  V30 4154 H 390.044 -3.16721 3.76761 0
M  V30 4155 N 391.696 -1.35014 -0.812953 0
M  V30 4156 C 392.942 -1.2812 -1.57204 0
M  V30 4157 C 393.275 0.145869 -1.93651 0
M  V30 4158 O 392.55 1.0937 -1.60836 0
M  V30 4159 C 392.833 -2.18162 -2.86492 0
M  V30 4160 C 392.686 -3.69454 -2.56561 0
M  V30 4161 C 394.005 -2.07439 -3.88145 0
M  V30 4162 H 391.124 -0.466746 -0.570366 0
M  V30 4163 H 393.766 -1.65357 -0.935783 0
M  V30 4164 H 391.916 -1.86535 -3.40789 0
M  V30 4165 H 393.588 -4.11493 -2.08497 0
M  V30 4166 H 391.831 -3.9005 -1.89851 0
M  V30 4167 H 392.502 -4.27835 -3.48799 0
M  V30 4168 H 394.978 -2.35228 -3.4323 0
M  V30 4169 H 393.854 -2.7265 -4.76396 0
M  V30 4170 H 394.115 -1.05439 -4.29343 0
M  V30 4171 N 393.175 1.03435 -1.18907 0
M  V30 4172 C 394.423 1.76394 -0.986382 0
M  V30 4173 C 394.744 1.88883 0.484567 0
M  V30 4174 O 394.014 1.41843 1.3512 0
M  V30 4175 H 392.594 0.65344 -0.361975 0
M  V30 4176 H 395.256 1.248 -1.49703 0
M  V30 4177 H 394.352 2.77424 -1.42978 0
M  V30 4178 N 394.653 0.992116 1.22453 0
M  V30 4179 C 395.899 0.668523 1.91464 0
M  V30 4180 C 396.232 -0.797313 1.77078 0
M  V30 4181 O 395.507 -1.5765 1.13916 0
M  V30 4182 C 395.79 1.07424 3.43703 0
M  V30 4183 C 395.643 2.59857 3.67143 0
M  V30 4184 C 396.962 0.626891 4.35612 0
M  V30 4185 H 394.081 0.244341 0.695318 0
M  V30 4186 H 396.723 1.2355 1.44345 0
M  V30 4187 H 394.873 0.591816 3.83966 0
M  V30 4188 H 396.545 3.15764 3.3629 0
M  V30 4189 H 394.788 3.01961 3.11451 0
M  V30 4190 H 395.459 2.83296 4.73759 0
M  V30 4191 H 397.935 1.04125 4.02861 0
M  V30 4192 H 396.811 0.939076 5.40807 0
M  V30 4193 H 397.072 -0.472457 4.39568 0
M  V30 4194 N 396.131 -1.37776 0.765217 0
M  V30 4195 C 397.378 -1.99849 0.326588 0
M  V30 4196 C 397.706 -1.60746 -1.09504 0
M  V30 4197 O 396.961 -0.84202 -1.76659 0
M  V30 4198 C 397.26 -3.5504 0.410053 0
M  V30 4199 C 396.926 -4.13891 1.78899 0
M  V30 4200 C 395.588 -4.29678 2.16635 0
M  V30 4201 C 397.94 -4.46236 2.69301 0
M  V30 4202 C 395.268 -4.7511 3.44221 0
M  V30 4203 C 397.62 -4.93089 3.9629 0
M  V30 4204 C 396.284 -5.07082 4.34078 0
M  V30 4205 H 395.554 -0.7313 0.119507 0
M  V30 4206 H 398.201 -1.64645 0.977968 0
M  V30 4207 H 396.506 -3.90451 -0.324878 0
M  V30 4208 H 398.203 -4.00966 0.0520699 0
M  V30 4209 H 394.793 -4.02026 1.48569 0
M  V30 4210 H 398.977 -4.3363 2.41409 0
M  V30 4211 H 394.233 -4.84129 3.73402 0
M  V30 4212 H 398.407 -5.17084 4.66472 0
M  V30 4213 H 396.034 -5.42046 5.33001 0
M  V30 4214 N 397.609 -0.515225 -1.4894 0
M  V30 4215 C 398.557 0.269115 -2.31038 0
M  V30 4216 C 399.551 0.949443 -1.40292 0
M  V30 4217 O 400.757 0.87551 -1.57273 0
M  V30 4218 H 397.132 0.10565 -0.744542 0
M  V30 4219 H 399.103 -0.443096 -2.95092 0
M  V30 4220 C 397.852 1.31213 -3.21991 0
M  V30 4221 H 397.175 0.798034 -3.91754 0
M  V30 4222 H 398.615 1.83263 -3.82349 0
M  V30 4223 C 397.074 2.33791 -2.42576 0
M  V30 4224 O 397.604 3.3995 -2.14003 0
M  V30 4225 N 395.81 2.06625 -2.0434 0
M  V30 4226 H 395.357 1.20314 -2.27777 0
M  V30 4227 H 395.315 2.75483 -1.51514 0
M  V30 4228 N 399.087 1.5561 -0.249682 0
M  V30 4229 C 400.034 2.21496 0.648694 0
M  V30 4230 C 401.004 1.17977 1.16921 0
M  V30 4231 O 402.189 1.46434 1.22318 0
M  V30 4232 C 399.329 2.92039 1.83868 0
M  V30 4233 C 398.442 4.10219 1.35442 0
M  V30 4234 C 397.577 4.6847 2.50419 0
M  V30 4235 C 396.616 5.78893 1.98869 0
M  V30 4236 N 395.753 6.31315 3.07223 0
M  V30 4237 H 400.593 2.97892 0.0801582 0
M  V30 4238 H 398.13 1.47074 0.0278031 0
M  V30 4239 H 400.088 3.31138 2.53778 0
M  V30 4240 H 398.718 2.18111 2.37965 0
M  V30 4241 H 397.77 3.76413 0.54928 0
M  V30 4242 H 399.082 4.89927 0.936649 0
M  V30 4243 H 398.236 5.10158 3.28366 0
M  V30 4244 H 396.975 3.87984 2.95499 0
M  V30 4245 H 395.98 5.3668 1.19393 0
M  V30 4246 H 397.205 6.61232 1.54755 0
M  V30 4247 H 395.151 5.53733 3.51732 0
M  V30 4248 H 395.068 7.06224 2.69784 0
M  V30 4249 H 396.336 6.77662 3.8522 0
M  V30 4250 N 400.565 -0.0233959 1.57583 0
M  V30 4251 C 401.842 -0.748794 1.807 0
M  V30 4252 C 402.222 -1.9327 0.849106 0
M  V30 4253 O 401.57 -2.28247 -0.107468 0
M  V30 4254 C 401.78 -1.17651 3.28571 0
M  V30 4255 C 403.128 -1.59008 3.93702 0
M  V30 4256 O 404.152 -1.27094 3.32755 0
M  V30 4257 O 403.011 -2.18264 5.01022 0
M  V30 4258 H 400.105 -0.362578 0.743281 0
M  V30 4259 H 402.651 0.000261958 1.697 0
M  V30 4260 H 401.423 -0.331603 3.89892 0
M  V30 4261 H 401.046 -1.98541 3.44481 0
M  V30 4262 N 402.043 -1.548 -0.295768 0
M  V30 4263 C 403.289 -1.75517 -1.02789 0
M  V30 4264 C 403.644 -0.537266 -1.84746 0
M  V30 4265 O 402.937 0.470299 -1.85738 0
M  V30 4266 C 403.131 -2.98797 -1.961 0
M  V30 4267 C 402.96 -4.3246 -1.23321 0
M  V30 4268 C 401.73 -4.96131 -0.95822 0
M  V30 4269 C 403.928 -5.10365 -0.635024 0
M  V30 4270 N 401.91 -6.1357 -0.201257 0
M  V30 4271 C 403.281 -6.19999 -0.0110937 0
M  V30 4272 C 405.336 -4.94957 -0.540594 0
M  V30 4273 C 404.039 -7.15904 0.698136 0
M  V30 4274 C 406.065 -5.91197 0.154992 0
M  V30 4275 C 405.427 -7.00203 0.767752 0
M  V30 4276 H 401.526 -0.694786 -0.358882 0
M  V30 4277 H 404.11 -1.92281 -0.305943 0
M  V30 4278 H 402.281 -2.83448 -2.6554 0
M  V30 4279 H 404.013 -3.08017 -2.62502 0
M  V30 4280 H 400.768 -4.56595 -1.25771 0
M  V30 4281 H 401.192 -6.76802 0.16389 0
M  V30 4282 H 405.834 -4.10803 -1.00003 0
M  V30 4283 H 403.552 -7.99595 1.16933 0
M  V30 4284 H 407.138 -5.81353 0.228069 0
M  V30 4285 H 406.018 -7.73393 1.29743 0
M  V30 4286 N 403.521 0.559213 -1.47345 0
M  V30 4287 C 404.431 1.69388 -1.62311 0
M  V30 4288 C 405.447 1.6648 -0.505993 0
M  V30 4289 O 406.623 1.85964 -0.773262 0
M  V30 4290 C 403.688 3.05894 -1.63185 0
M  V30 4291 C 402.749 3.19885 -2.86307 0
M  V30 4292 C 401.982 4.49879 -2.87131 0
M  V30 4293 O 402.205 5.35217 -1.97229 0
M  V30 4294 O 401.139 4.67618 -3.78968 0
M  V30 4295 H 404.965 1.59706 -2.58317 0
M  V30 4296 H 402.55 0.728989 -1.30407 0
M  V30 4297 H 404.432 3.87133 -1.66451 0
M  V30 4298 H 403.107 3.15964 -0.70345 0
M  V30 4299 H 402.014 2.38052 -2.88587 0
M  V30 4300 H 403.347 3.14718 -3.78435 0
M  V30 4301 N 404.999 1.35443 0.805782 0
M  V30 4302 C 406.247 1.28507 1.55982 0
M  V30 4303 C 406.568 -0.140046 1.94496 0
M  V30 4304 O 405.838 -1.07666 1.63661 0
M  V30 4305 H 404.418 0.472676 0.578434 0
M  V30 4306 H 407.08 1.69555 0.961098 0
M  V30 4307 H 406.176 1.90148 2.47488 0
M  V30 4308 N 406.477 -1.02803 1.19454 0
M  V30 4309 C 407.424 -2.11099 0.933046 0
M  V30 4310 C 408.394 -1.65571 -0.132447 0
M  V30 4311 O 409.579 -1.90797 0.00987576 0
M  V30 4312 C 406.719 -3.41763 0.478747 0
M  V30 4313 C 405.832 -4.00833 1.6111 0
M  V30 4314 C 404.967 -5.19511 1.10825 0
M  V30 4315 C 404.006 -5.70639 2.21445 0
M  V30 4316 N 403.143 -6.80589 1.72461 0
M  V30 4317 H 407.983 -2.32804 1.86028 0
M  V30 4318 H 405.52 -1.14179 0.927441 0
M  V30 4319 H 407.478 -4.16736 0.196745 0
M  V30 4320 H 406.108 -3.20166 -0.411493 0
M  V30 4321 H 405.16 -3.23066 2.00829 0
M  V30 4322 H 406.472 -4.34794 2.4445 0
M  V30 4323 H 405.626 -6.01645 0.781533 0
M  V30 4324 H 404.365 -4.87086 0.244606 0
M  V30 4325 H 403.37 -4.87116 2.54947 0
M  V30 4326 H 404.595 -6.05102 3.08267 0
M  V30 4327 H 402.541 -6.50016 0.884056 0
M  V30 4328 H 402.458 -7.13681 2.49389 0
M  V30 4329 H 403.726 -7.66317 1.42755 0
M  V30 4330 N 407.956 -0.998596 -1.21925 0
M  V30 4331 C 408.866 -0.562736 -2.27751 0
M  V30 4332 C 409.882 0.391203 -1.69545 0
M  V30 4333 O 411.058 0.256625 -1.99758 0
M  V30 4334 C 408.123 0.11012 -3.46525 0
M  V30 4335 C 407.184 -0.887495 -4.20026 0
M  V30 4336 C 406.417 -0.246654 -5.3313 0
M  V30 4337 O 406.64 0.958088 -5.62296 0
M  V30 4338 O 405.574 -0.954374 -5.94286 0
M  V30 4339 H 409.4 -1.44329 -2.67213 0
M  V30 4340 H 406.985 -0.767135 -1.28201 0
M  V30 4341 H 408.867 0.486756 -4.18579 0
M  V30 4342 H 407.542 0.965154 -3.08976 0
M  V30 4343 H 406.449 -1.31517 -3.5022 0
M  V30 4344 H 407.782 -1.71191 -4.6147 0
M  V30 4345 N 409.434 1.37368 -0.772513 0
M  V30 4346 C 410.681 1.99673 -0.337182 0
M  V30 4347 C 411.009 1.61324 1.0865 0
M  V30 4348 O 410.264 0.851377 1.7621 0
M  V30 4349 C 410.563 3.54817 -0.428876 0
M  V30 4350 C 410.229 4.12936 -1.81092 0
M  V30 4351 C 408.891 4.28523 -2.1891 0
M  V30 4352 C 411.243 4.44801 -2.71664 0
M  V30 4353 C 408.571 4.73277 -3.46735 0
M  V30 4354 C 410.923 4.90981 -3.98899 0
M  V30 4355 C 409.587 5.04773 -4.36761 0
M  V30 4356 H 408.857 0.730656 -0.123384 0
M  V30 4357 H 411.504 1.64124 -0.986686 0
M  V30 4358 H 409.809 3.90618 0.304167 0
M  V30 4359 H 411.506 4.00933 -0.0733334 0
M  V30 4360 H 408.096 4.01233 -1.50699 0
M  V30 4361 H 412.28 4.32344 -2.43706 0
M  V30 4362 H 407.536 4.82142 -3.75964 0
M  V30 4363 H 411.71 5.14603 -4.69208 0
M  V30 4364 H 409.337 5.39211 -5.35868 0
M  V30 4365 N 410.912 0.523116 1.48665 0
M  V30 4366 C 412.323 0.0808997 1.86525 0
M  V30 4367 C 412.674 -1.33975 1.43336 0
M  V30 4368 O 411.799 -2.00221 0.821009 0
M  V30 4369 C 412.394 0.140037 3.3851 0
M  V30 4370 C 410.953 -0.246948 3.75589 0
M  V30 4371 C 410.1 0.502845 2.72703 0
M  V30 4372 H 413.051 0.734736 1.40667 0
M  V30 4373 H 413.072 -0.649945 3.74908 0
M  V30 4374 H 412.584 1.17412 3.69914 0
M  V30 4375 H 410.685 -1.28343 3.49798 0
M  V30 4376 H 410.798 0.0878859 4.79019 0
M  V30 4377 H 409.162 -0.0500581 2.54651 0
M  V30 4378 H 409.945 1.53743 3.0695 0
M  V30 4379 N 412.39 -1.55475 0.257931 0
M  V30 4380 C 413.667 -1.91155 -0.414629 0
M  V30 4381 C 414.047 -1.18008 -1.75035 0
M  V30 4382 O 413.395 -0.301193 -2.26506 0
M  V30 4383 C 413.605 -3.44283 -0.571859 0
M  V30 4384 C 414.953 -4.15744 -0.862678 0
M  V30 4385 O 415.977 -3.50083 -0.657314 0
M  V30 4386 O 414.836 -5.31909 -1.2544 0
M  V30 4387 H 411.93 -0.796016 -0.22425 0
M  V30 4388 H 414.476 -1.66976 0.302814 0
M  V30 4389 H 413.248 -3.89558 0.368844 0
M  V30 4390 H 412.871 -3.7436 -1.33943 0
M  V30 4391 N 413.868 0.0150385 -1.57593 0
M  V30 4392 C 414.815 1.01126 -2.07466 0
M  V30 4393 C 415.785 1.35064 -0.966794 0
M  V30 4394 O 416.97 1.4516 -1.23827 0
M  V30 4395 C 414.11 2.30276 -2.57035 0
M  V30 4396 C 413.223 2.02373 -3.81666 0
M  V30 4397 C 412.358 3.25496 -4.19793 0
M  V30 4398 C 411.397 2.93211 -5.37303 0
M  V30 4399 N 410.534 4.08826 -5.70794 0
M  V30 4400 H 415.374 0.57901 -2.92321 0
M  V30 4401 H 412.911 0.27426 -1.44521 0
M  V30 4402 H 414.869 3.05757 -2.83846 0
M  V30 4403 H 413.499 2.71197 -1.75077 0
M  V30 4404 H 412.551 1.17327 -3.61854 0
M  V30 4405 H 413.863 1.74567 -4.67256 0
M  V30 4406 H 413.017 4.09333 -4.47807 0
M  V30 4407 H 411.756 3.56428 -3.32882 0
M  V30 4408 H 410.761 2.07777 -5.09027 0
M  V30 4409 H 411.986 2.63542 -6.25877 0
M  V30 4410 H 409.932 4.39682 -4.86842 0
M  V30 4411 H 409.849 3.84491 -6.50924 0
M  V30 4412 H 411.117 4.93496 -6.03392 0
M  V30 4413 N 415.346 1.54954 0.287554 0
M  V30 4414 C 416.762 1.46469 0.633964 0
M  V30 4415 C 416.962 0.666865 1.90145 0
M  V30 4416 O 416.018 0.179906 2.51858 0
M  V30 4417 C 417.331 2.90556 0.774454 0
M  V30 4418 C 418.879 3.00681 0.869462 0
M  V30 4419 C 419.354 4.45993 1.04184 0
M  V30 4420 N 420.845 4.4976 1.10772 0
M  V30 4421 C 421.58 5.59393 1.25964 0
M  V30 4422 N 421.076 6.78923 1.37968 0
M  V30 4423 N 422.869 5.47107 1.28959 0
M  V30 4424 H 415.02 2.05288 -0.545041 0
M  V30 4425 H 417.283 0.930305 -0.182308 0
M  V30 4426 H 416.989 3.51594 -0.086207 0
M  V30 4427 H 416.863 3.38743 1.6593 0
M  V30 4428 H 419.25 2.39749 1.7206 0
M  V30 4429 H 419.331 2.55769 -0.0396831 0
M  V30 4430 H 418.975 5.07524 0.195422 0
M  V30 4431 H 418.905 4.88548 1.96542 0
M  V30 4432 H 421.396 3.63651 1.02794 0
M  V30 4433 H 421.709 7.58231 1.49353 0
M  V30 4434 H 420.054 6.81763 1.34999 0
M  V30 4435 H 423.245 4.52668 1.19202 0
M  V30 4436 H 423.418 6.32595 1.40455 0
M  V30 4437 N 416.824 -0.551391 1.4764 0
M  V30 4438 C 417.754 -1.66757 1.63445 0
M  V30 4439 C 418.735 -1.63077 0.483742 0
M  V30 4440 O 419.92 -1.80607 0.71377 0
M  V30 4441 C 417.05 -3.05387 1.65396 0
M  V30 4442 C 416.004 -3.23918 2.79752 0
M  V30 4443 C 415.33 -4.63393 2.66779 0
M  V30 4444 C 416.63 -3.08735 4.21284 0
M  V30 4445 H 418.324 -1.53786 2.56886 0
M  V30 4446 H 415.87 -0.738415 1.23626 0
M  V30 4447 H 417.823 -3.83325 1.75043 0
M  V30 4448 H 416.547 -3.19332 0.685195 0
M  V30 4449 H 415.206 -2.48391 2.69625 0
M  V30 4450 H 414.854 -4.74144 1.67918 0
M  V30 4451 H 414.554 -4.7674 3.43501 0
M  V30 4452 H 416.078 -5.43458 2.78364 0
M  V30 4453 H 417.492 -3.76484 4.32357 0
M  V30 4454 H 415.889 -3.33588 4.98838 0
M  V30 4455 H 416.959 -2.0541 4.39243 0
M  V30 4456 N 418.302 -1.35869 -0.798587 0
M  V30 4457 C 419.265 -1.29307 -1.89242 0
M  V30 4458 C 420.265 -0.202747 -1.59517 0
M  V30 4459 O 421.455 -0.456957 -1.681 0
M  V30 4460 C 418.587 -1.00229 -3.25833 0
M  V30 4461 H 419.78 -2.26576 -1.96478 0
M  V30 4462 H 417.333 -1.20509 -0.995358 0
M  V30 4463 H 418.068 -0.033801 -3.24282 0
M  V30 4464 H 417.853 -1.79121 -3.48795 0
M  V30 4465 H 419.343 -0.98219 -4.05885 0
M  V30 4466 N 419.78 1.02168 -1.19998 0
M  V30 4467 C 421.057 1.72816 -0.916191 0
M  V30 4468 C 421.437 2.03081 0.576325 0
M  V30 4469 O 420.785 1.69122 1.53656 0
M  V30 4470 C 420.995 2.9997 -1.78378 0
M  V30 4471 C 422.343 3.73336 -2.02251 0
M  V30 4472 O 423.367 3.09914 -1.75589 0
M  V30 4473 O 422.226 4.87371 -2.47249 0
M  V30 4474 H 419.32 0.752924 -0.342103 0
M  V30 4475 H 421.866 1.08062 -1.30846 0
M  V30 4476 H 420.638 2.73888 -2.79466 0
M  V30 4477 H 420.261 3.72464 -1.39126 0
M  V30 4478 N 421.258 1.00505 1.21394 0
M  V30 4479 C 422.188 0.585684 2.26035 0
M  V30 4480 C 423.169 -0.393525 1.65485 0
M  V30 4481 O 424.354 -0.281497 1.92149 0
M  V30 4482 C 421.484 -0.0884283 3.47187 0
M  V30 4483 C 420.438 0.810567 4.20254 0
M  V30 4484 C 419.764 0.00286382 5.347 0
M  V30 4485 C 421.064 2.1132 4.77641 0
M  V30 4486 H 422.758 1.46039 2.61368 0
M  V30 4487 H 420.304 0.703648 1.25638 0
M  V30 4488 H 422.257 -0.393286 4.19561 0
M  V30 4489 H 420.981 -0.997766 3.10986 0
M  V30 4490 H 419.64 1.09925 3.49731 0
M  V30 4491 H 419.288 -0.907765 4.94741 0
M  V30 4492 H 418.988 0.601444 5.84514 0
M  V30 4493 H 420.512 -0.295808 6.09883 0
M  V30 4494 H 421.926 1.87148 5.41893 0
M  V30 4495 H 420.323 2.66164 5.37845 0
M  V30 4496 H 421.393 2.78393 3.9702 0
M  V30 4497 N 422.737 -1.36956 0.779787 0
M  V30 4498 C 423.986 -1.98738 0.344405 0
M  V30 4499 C 424.299 -1.62596 -1.08728 0
M  V30 4500 O 425.505 -2.1754 -1.62445 0
M  V30 4501 C 423.961 -3.5544 0.564829 0
M  V30 4502 C 423.569 -4.00514 2.0073 0
M  V30 4503 C 425.313 -4.24059 0.193471 0
M  V30 4504 C 423.22 -5.49957 2.17489 0
M  V30 4505 H 422.15 -0.743561 0.12503 0
M  V30 4506 H 424.801 -1.56381 0.960057 0
M  V30 4507 H 423.183 -3.95817 -0.120397 0
M  V30 4508 H 424.357 -3.71362 2.72814 0
M  V30 4509 H 422.672 -3.44703 2.336 0
M  V30 4510 H 425.269 -5.33874 0.297097 0
M  V30 4511 H 425.612 -4.07378 -0.857263 0
M  V30 4512 H 426.145 -3.89012 0.831556 0
M  V30 4513 H 422.884 -5.71574 3.2091 0
M  V30 4514 H 422.404 -5.80767 1.49899 0
M  V30 4515 H 424.083 -6.16043 1.97738 0
M  V30 4516 N 424.215 -0.530993 -1.48385 0
M  V30 4517 C 425.492 0.0671788 -1.95485 0
M  V30 4518 C 425.872 1.51191 -1.47324 0
M  V30 4519 O 425.22 2.17507 -0.700202 0
M  V30 4520 C 425.43 -0.0511206 -3.48963 0
M  V30 4521 C 426.778 0.107632 -4.24464 0
M  V30 4522 O 427.802 0.0226248 -3.56193 0
M  V30 4523 O 426.661 0.285972 -5.45751 0
M  V30 4524 H 423.755 0.0787365 -0.823243 0
M  V30 4525 H 426.301 -0.595662 -1.58902 0
M  V30 4526 H 425.073 -1.05747 -3.7674 0
M  V30 4527 H 424.696 0.650525 -3.92242 0
M  V30 4528 N 425.693 1.55336 -0.266172 0
M  V30 4529 C 427.109 1.59356 0.0882065 0
M  V30 4530 C 427.309 1.2834 1.55342 0
M  V30 4531 O 426.365 1.03996 2.30089 0
M  V30 4532 C 427.678 2.99409 -0.278364 0
M  V30 4533 C 429.226 3.12196 -0.224243 0
M  V30 4534 C 429.701 4.545 -0.565123 0
M  V30 4535 N 431.192 4.60313 -0.51634 0
M  V30 4536 C 431.927 5.68434 -0.753013 0
M  V30 4537 N 431.423 6.84738 -1.05383 0
M  V30 4538 N 433.216 5.57942 -0.682414 0
M  V30 4539 H 425.367 1.73764 -1.22147 0
M  V30 4540 H 427.63 0.809822 -0.492841 0
M  V30 4541 H 427.336 3.2691 -1.29703 0
M  V30 4542 H 427.21 3.75228 0.385186 0
M  V30 4543 H 429.597 2.84464 0.78512 0
M  V30 4544 H 429.678 2.38609 -0.921922 0
M  V30 4545 H 429.322 4.82956 -1.57213 0
M  V30 4546 H 429.252 5.26374 0.154248 0
M  V30 4547 H 431.743 3.7676 -0.29335 0
M  V30 4548 H 432.056 7.63088 -1.22133 0
M  V30 4549 H 430.401 6.86375 -1.09151 0
M  V30 4550 H 433.592 4.65958 -0.44731 0
M  V30 4551 H 433.765 6.4213 -0.870248 0
M  V30 4552 N 427.171 -0.0066808 1.57599 0
M  V30 4553 C 428.582 -0.550379 1.78403 0
M  V30 4554 C 428.933 -1.74339 0.900014 0
M  V30 4555 O 428.058 -2.16166 0.100713 0
M  V30 4556 C 428.653 -1.00523 3.23544 0
M  V30 4557 C 427.212 -1.49428 3.45468 0
M  V30 4558 C 426.359 -0.442444 2.73748 0
M  V30 4559 H 429.31 0.219508 1.57175 0
M  V30 4560 H 429.331 -1.87157 3.31289 0
M  V30 4561 H 428.843 -0.136735 3.87859 0
M  V30 4562 H 426.944 -2.3839 2.86358 0
M  V30 4563 H 427.057 -1.52635 4.54136 0
M  V30 4564 H 425.421 -0.902578 2.38171 0
M  V30 4565 H 426.204 0.416973 3.40758 0
M  V30 4566 N 428.649 -1.55105 -0.279332 0
M  V30 4567 C 429.597 -1.88333 -1.36505 0
M  V30 4568 C 430.591 -0.759043 -1.51443 0
M  V30 4569 O 431.797 -0.943312 -1.53302 0
M  V30 4570 H 428.172 -0.59766 -0.456406 0
M  V30 4571 H 430.143 -2.79041 -1.05728 0
M  V30 4572 C 428.892 -2.16628 -2.7197 0
M  V30 4573 H 428.215 -3.02624 -2.61264 0
M  V30 4574 H 429.655 -2.43803 -3.46895 0
M  V30 4575 C 428.114 -0.971807 -3.22579 0
M  V30 4576 O 428.644 -0.203228 -4.01186 0
M  V30 4577 N 426.85 -0.771238 -2.80179 0
M  V30 4578 H 426.397 -1.39792 -2.1637 0
M  V30 4579 H 426.355 0.0263667 -3.14389 0
M  V30 4580 N 430.127 0.543554 -1.4793 0
M  V30 4581 C 431.373 1.30201 -1.55485 0
M  V30 4582 C 431.706 1.92925 -0.222201 0
M  V30 4583 O 430.981 1.78586 0.77053 0
M  V30 4584 C 431.264 2.40174 -2.68307 0
M  V30 4585 C 431.117 1.8223 -4.11233 0
M  V30 4586 C 432.436 3.42024 -2.76961 0
M  V30 4587 H 429.555 0.472036 -0.565996 0
M  V30 4588 H 432.197 0.606914 -1.80046 0
M  V30 4589 H 430.347 2.99463 -2.47495 0
M  V30 4590 H 432.019 1.27096 -4.43446 0
M  V30 4591 H 430.262 1.12832 -4.18869 0
M  V30 4592 H 430.933 2.61793 -4.85972 0
M  V30 4593 H 433.409 2.92672 -2.95774 0
M  V30 4594 H 432.285 4.16383 -3.57654 0
M  V30 4595 H 432.546 4.0173 -1.84568 0
M  V30 4596 N 431.605 1.3629 0.791371 0
M  V30 4597 C 432.535 1.33137 1.91825 0
M  V30 4598 C 433.516 0.203168 1.68882 0
M  V30 4599 O 434.701 0.400509 1.90025 0
M  V30 4600 C 431.831 1.11793 3.28816 0
M  V30 4601 C 430.785 2.21417 3.66277 0
M  V30 4602 C 430.111 1.85218 5.01596 0
M  V30 4603 C 431.411 3.63489 3.75064 0
M  V30 4604 H 433.105 2.2743 1.9472 0
M  V30 4605 H 430.651 1.09479 0.935437 0
M  V30 4606 H 432.604 1.08222 4.07266 0
M  V30 4607 H 431.328 0.139501 3.26302 0
M  V30 4608 H 429.987 2.2411 2.90121 0
M  V30 4609 H 429.635 0.859544 4.95602 0
M  V30 4610 H 429.335 2.58611 5.27631 0
M  V30 4611 H 430.859 1.832 5.82469 0
M  V30 4612 H 432.273 3.63034 4.43711 0
M  V30 4613 H 430.67 4.35771 4.12582 0
M  V30 4614 H 431.74 3.98536 2.76219 0
M  V30 4615 N 433.083 -1.0153 1.20538 0
M  V30 4616 C 434.329 -1.75408 1.01783 0
M  V30 4617 C 434.662 -1.88943 -0.448814 0
M  V30 4618 O 433.937 -1.4162 -1.33319 0
M  V30 4619 C 434.22 -3.17255 1.70356 0
M  V30 4620 C 434.073 -3.11508 3.24473 0
M  V30 4621 C 435.392 -4.15955 1.43769 0
M  V30 4622 H 432.511 -0.636713 0.371167 0
M  V30 4623 H 435.153 -1.18436 1.4857 0
M  V30 4624 H 433.303 -3.65898 1.30578 0
M  V30 4625 H 434.975 -2.70658 3.73553 0
M  V30 4626 H 433.218 -2.4887 3.55311 0
M  V30 4627 H 433.889 -4.11784 3.67611 0
M  V30 4628 H 436.365 -3.75973 1.7828 0
M  V30 4629 H 435.241 -5.13368 1.94279 0
M  V30 4630 H 435.502 -4.40586 0.365564 0
M  V30 4631 N 434.561 -1.01147 -1.20859 0
M  V30 4632 C 435.789 -0.716911 -1.94082 0
M  V30 4633 C 436.204 0.721568 -1.74467 0
M  V30 4634 O 435.561 1.48889 -1.05539 0
M  V30 4635 C 435.612 -1.03662 -3.46318 0
M  V30 4636 O 435.333 -2.4186 -3.65288 0
M  V30 4637 C 436.834 -0.762386 -4.36695 0
M  V30 4638 H 434.054 -0.26367 -0.617024 0
M  V30 4639 H 436.598 -1.35127 -1.53496 0
M  V30 4640 H 434.753 -0.447757 -3.84804 0
M  V30 4641 H 435.167 -2.53224 -4.59323 0
M  V30 4642 H 436.641 -1.03621 -5.42187 0
M  V30 4643 H 437.118 0.303514 -4.3815 0
M  V30 4644 H 437.724 -1.33316 -4.03865 0
M  V30 4645 N 436.039 1.36541 -0.78704 0
M  V30 4646 C 437.45 1.81873 -0.421807 0
M  V30 4647 C 437.801 1.65487 1.05397 0
M  V30 4648 O 436.926 1.17448 1.81755 0
M  V30 4649 C 437.521 3.30192 -0.758841 0
M  V30 4650 C 436.08 3.73743 -0.446468 0
M  V30 4651 C 435.227 2.58844 -0.994728 0
M  V30 4652 H 438.178 1.24796 -0.98039 0
M  V30 4653 H 438.199 3.80468 -0.0490648 0
M  V30 4654 H 437.711 3.42087 -1.83299 0
M  V30 4655 H 435.812 3.6741 0.619739 0
M  V30 4656 H 435.925 4.69272 -0.965415 0
M  V30 4657 H 434.289 2.51245 -0.418087 0
M  V30 4658 H 435.072 2.73525 -2.07458 0
M  V30 4659 N 437.518 0.538854 1.48102 0
M  V30 4660 C 438.468 -0.23907 2.26743 0
M  V30 4661 C 439.452 -0.901923 1.33245 0
M  V30 4662 O 440.644 -0.803263 1.57723 0
M  V30 4663 C 437.773 -1.2799 3.18549 0
M  V30 4664 C 436.859 -0.621388 4.19523 0
M  V30 4665 N 437.25 0.298004 5.04921 0
M  V30 4666 C 435.548 -0.877533 4.37282 0
M  V30 4667 C 436.249 0.678757 5.77726 0
M  V30 4668 N 435.225 0.0377881 5.43587 0
M  V30 4669 H 439.027 0.468096 2.90148 0
M  V30 4670 H 436.541 0.357497 1.58416 0
M  V30 4671 H 438.538 -1.851 3.73555 0
M  V30 4672 H 437.198 -1.98835 2.567 0
M  V30 4673 H 438.209 0.671126 5.13533 0
M  V30 4674 H 434.886 -1.57588 3.86616 0
M  V30 4675 H 436.276 1.43316 6.56437 0
M  V30 4676 N 438.996 -1.55193 0.274407 0
M  V30 4677 C 440.224 -2.03987 -0.345943 0
M  V30 4678 C 440.639 -1.15279 -1.4952 0
M  V30 4679 O 439.996 -0.172759 -1.8168 0
M  V30 4680 C 440.047 -3.51898 -0.827631 0
M  V30 4681 O 439.768 -4.37231 0.275855 0
M  V30 4682 C 441.269 -4.16577 -1.51587 0
M  V30 4683 H 438.489 -0.666335 -0.0789892 0
M  V30 4684 H 441.033 -2.00423 0.406294 0
M  V30 4685 H 439.188 -3.55909 -1.52996 0
M  V30 4686 H 439.602 -5.24415 -0.0943638 0
M  V30 4687 H 441.076 -5.21678 -1.80433 0
M  V30 4688 H 441.553 -3.64707 -2.44716 0
M  V30 4689 H 442.159 -4.16568 -0.857409 0
M  V30 4690 N 440.474 -0.00167713 -1.576 0
M  V30 4691 C 441.437 0.974046 -2.07473 0
M  V30 4692 C 442.437 1.27143 -0.984444 0
M  V30 4693 O 443.627 1.21633 -1.24703 0
M  V30 4694 C 440.759 2.29849 -2.51759 0
M  V30 4695 H 441.952 0.54262 -2.9495 0
M  V30 4696 H 439.505 0.245829 -1.54355 0
M  V30 4697 H 440.24 2.77677 -1.67529 0
M  V30 4698 H 440.025 2.09584 -3.31386 0
M  V30 4699 H 441.515 2.9984 -2.90664 0
M  V30 4700 N 441.952 1.55251 0.271103 0
M  V30 4701 C 443.199 1.75946 1.00245 0
M  V30 4702 C 443.527 0.561611 1.86215 0
M  V30 4703 O 442.782 -0.455832 1.90317 0
M  V30 4704 C 443.081 3.01879 1.91321 0
M  V30 4705 C 442.747 4.34337 1.21086 0
M  V30 4706 C 441.409 4.70338 1.01666 0
M  V30 4707 C 443.761 5.16325 0.71119 0
M  V30 4708 C 441.089 5.8588 0.310099 0
M  V30 4709 C 443.441 6.32597 0.0182157 0
M  V30 4710 C 442.105 6.67236 -0.18768 0
M  V30 4711 H 441.375 0.643833 0.366824 0
M  V30 4712 H 444.022 1.89521 0.27458 0
M  V30 4713 H 442.327 2.83212 2.70736 0
M  V30 4714 H 444.024 3.15088 2.48033 0
M  V30 4715 H 440.614 4.06043 1.37213 0
M  V30 4716 H 444.798 4.88987 0.848844 0
M  V30 4717 H 440.054 6.1124 0.139873 0
M  V30 4718 H 444.228 6.9538 -0.376711 0
M  V30 4719 H 441.855 7.56618 -0.73715 0
M  V30 4720 N 443.43 -0.535701 1.48216 0
M  V30 4721 C 444.66 -1.3148 1.59363 0
M  V30 4722 C 445.068 -1.8753 0.250844 0
M  V30 4723 O 444.411 -1.66821 -0.769174 0
M  V30 4724 C 444.473 -2.50731 2.57632 0
M  V30 4725 C 444.137 -2.15811 4.02833 0
M  V30 4726 C 445.134 -1.71822 4.90686 0
M  V30 4727 C 442.819 -2.26509 4.48329 0
M  V30 4728 C 444.813 -1.3899 6.22062 0
M  V30 4729 C 442.5 -1.93289 5.79726 0
M  V30 4730 C 443.498 -1.49599 6.66415 0
M  V30 4731 O 443.186 -1.16812 7.95368 0
M  V30 4732 H 442.918 -0.406315 0.540263 0
M  V30 4733 H 445.472 -0.653569 1.94725 0
M  V30 4734 H 443.702 -3.19817 2.1738 0
M  V30 4735 H 445.391 -3.12797 2.58675 0
M  V30 4736 H 446.157 -1.63031 4.56778 0
M  V30 4737 H 442.036 -2.59471 3.81045 0
M  V30 4738 H 445.58 -1.04816 6.89681 0
M  V30 4739 H 441.477 -2.01718 6.13172 0
M  V30 4740 H 442.245 -1.30259 8.08069 0
M  V30 4741 N 444.908 -1.36708 -0.784132 0
M  V30 4742 C 446.136 -1.34398 -1.57305 0
M  V30 4743 C 446.551 0.0735577 -1.88657 0
M  V30 4744 O 445.908 1.03193 -1.50524 0
M  V30 4745 C 445.959 -2.17053 -2.89085 0
M  V30 4746 O 445.68 -3.53281 -2.59083 0
M  V30 4747 C 447.181 -2.22583 -3.83369 0
M  V30 4748 H 444.401 -0.460819 -0.487736 0
M  V30 4749 H 446.945 -1.79879 -0.972819 0
M  V30 4750 H 445.1 -1.75113 -3.45564 0
M  V30 4751 H 445.514 -3.9647 -3.43383 0
M  V30 4752 H 446.988 -2.84763 -4.72878 0
M  V30 4753 H 447.465 -1.23075 -4.21603 0
M  V30 4754 H 448.071 -2.64781 -3.32823 0
M  V30 4755 N 446.386 1.0089 -1.21074 0
M  V30 4756 C 447.614 1.78191 -1.05145 0
M  V30 4757 C 448.029 1.84537 0.398952 0
M  V30 4758 O 447.386 1.30393 1.27687 0
M  V30 4759 C 447.437 3.22288 -1.63746 0
M  V30 4760 O 447.158 3.16315 -3.03111 0
M  V30 4761 C 448.659 4.16106 -1.52875 0
M  V30 4762 H 445.879 0.560129 -0.369454 0
M  V30 4763 H 448.423 1.26945 -1.60328 0
M  V30 4764 H 446.578 3.70655 -1.12664 0
M  V30 4765 H 446.992 4.06817 -3.31059 0
M  V30 4766 H 448.466 5.15026 -1.98626 0
M  V30 4767 H 448.943 4.36541 -0.482521 0
M  V30 4768 H 449.549 3.73625 -2.03185 0
M  V30 4769 N 447.864 1.01787 1.20321 0
M  V30 4770 C 448.814 0.559976 2.21016 0
M  V30 4771 C 449.798 -0.385366 1.56217 0
M  V30 4772 O 450.99 -0.208126 1.75772 0
M  V30 4773 C 448.119 -0.0990553 3.43157 0
M  V30 4774 C 447.205 0.86807 4.15121 0
M  V30 4775 N 447.596 2.0261 4.63447 0
M  V30 4776 C 445.894 0.689162 4.40643 0
M  V30 4777 C 446.595 2.63518 5.18588 0
M  V30 4778 N 445.571 1.91569 5.08726 0
M  V30 4779 H 449.373 1.44281 2.56048 0
M  V30 4780 H 446.887 0.883381 1.36272 0
M  V30 4781 H 448.884 -0.444643 4.14522 0
M  V30 4782 H 447.544 -0.977709 3.0963 0
M  V30 4783 H 448.555 2.40598 4.58621 0
M  V30 4784 H 445.232 -0.14133 4.17261 0
M  V30 4785 H 446.622 3.61527 5.66346 0
M  V30 4786 N 449.342 -1.36122 0.79427 0
M  V30 4787 C 450.305 -2.28309 0.201889 0
M  V30 4788 C 451.305 -1.49041 -0.603603 0
M  V30 4789 O 452.495 -1.68964 -0.423888 0
M  V30 4790 C 449.627 -3.3321 -0.719978 0
M  V30 4791 H 450.82 -2.82208 1.01481 0
M  V30 4792 H 448.373 -1.45768 0.564037 0
M  V30 4793 H 449.108 -2.84475 -1.55706 0
M  V30 4794 H 448.893 -3.91835 -0.144266 0
M  V30 4795 H 450.383 -4.02044 -1.12916 0
M  V30 4796 N 450.82 -0.546701 -1.47814 0
M  V30 4797 C 452.066 -0.0187684 -2.02791 0
M  V30 4798 C 452.399 1.32338 -1.42128 0
M  V30 4799 O 451.674 1.85867 -0.573023 0
M  V30 4800 C 451.957 0.0854985 -3.59998 0
M  V30 4801 C 451.81 -1.283 -4.31114 0
M  V30 4802 C 453.129 0.80412 -4.32691 0
M  V30 4803 H 450.248 -0.0082946 -0.736953 0
M  V30 4804 H 452.89 -0.706962 -1.76358 0
M  V30 4805 H 451.04 0.671609 -3.82651 0
M  V30 4806 H 452.712 -1.91151 -4.19832 0
M  V30 4807 H 450.955 -1.86049 -3.91878 0
M  V30 4808 H 451.626 -1.16287 -5.39612 0
M  V30 4809 H 454.102 0.306576 -4.14969 0
M  V30 4810 H 452.978 0.846011 -5.42341 0
M  V30 4811 H 453.239 1.85802 -4.01161 0
M  V30 4812 N 452.299 1.55045 -0.282633 0
M  V30 4813 C 453.715 1.59441 0.0712997 0
M  V30 4814 C 453.915 1.2998 1.53972 0
M  V30 4815 O 452.971 1.06431 2.28973 0
M  V30 4816 C 454.284 2.99097 -0.310104 0
M  V30 4817 C 455.832 3.1194 -0.257343 0
M  V30 4818 C 456.307 4.53875 -0.613297 0
M  V30 4819 N 457.798 4.5974 -0.565134 0
M  V30 4820 C 458.533 5.67603 -0.81326 0
M  V30 4821 N 458.029 6.83582 -1.1264 0
M  V30 4822 N 459.822 5.57187 -0.741553 0
M  V30 4823 H 451.973 1.72458 -1.23984 0
M  V30 4824 H 454.236 0.804549 -0.501403 0
M  V30 4825 H 453.942 3.25516 -1.33163 0
M  V30 4826 H 453.816 3.75616 0.345366 0
M  V30 4827 H 456.203 2.85281 0.754905 0
M  V30 4828 H 456.284 2.37618 -0.947178 0
M  V30 4829 H 455.928 4.81261 -1.62327 0
M  V30 4830 H 455.858 5.26508 0.09841 0
M  V30 4831 H 458.349 3.76427 -0.333294 0
M  V30 4832 H 458.662 7.6175 -1.30219 0
M  V30 4833 H 457.007 6.85179 -1.16425 0
M  V30 4834 H 460.198 4.65457 -0.496705 0
M  V30 4835 H 460.371 6.41171 -0.938306 0
M  V30 4836 N 453.777 0.010035 1.57597 0
M  V30 4837 C 454.725 -0.996272 2.10184 0
M  V30 4838 C 455.719 -1.34942 1.02406 0
M  V30 4839 O 456.925 -1.33389 1.20861 0
M  V30 4840 H 453.3 -0.338982 0.671264 0
M  V30 4841 H 455.271 -0.527272 2.93705 0
M  V30 4842 C 454.02 -2.27599 2.62857 0
M  V30 4843 H 453.343 -2.01295 3.45428 0
M  V30 4844 H 454.783 -2.96265 3.0332 0
M  V30 4845 C 453.242 -2.99269 1.54725 0
M  V30 4846 O 453.772 -3.90644 0.93597 0
M  V30 4847 N 451.978 -2.61269 1.27228 0
M  V30 4848 H 451.525 -1.87043 1.77123 0
M  V30 4849 H 451.483 -3.09534 0.550999 0
M  V30 4850 N 455.255 -1.55392 -0.262866 0
M  V30 4851 C 456.188 -1.8391 -1.35101 0
M  V30 4852 C 457.166 -0.692901 -1.47097 0
M  V30 4853 O 458.35 -0.936979 -1.63563 0
M  V30 4854 C 455.477 -2.00969 -2.72634 0
M  V30 4855 C 454.523 -3.23559 -2.7787 0
M  V30 4856 S 455.356 -4.80647 -2.3609 0
M  V30 4857 C 456.512 -5.00692 -3.75578 0
M  V30 4858 H 456.745 -2.75918 -1.1071 0
M  V30 4859 H 454.278 -1.47294 -0.463029 0
M  V30 4860 H 456.236 -2.11482 -3.51832 0
M  V30 4861 H 454.897 -1.09832 -2.94272 0
M  V30 4862 H 454.09 -3.32413 -3.78837 0
M  V30 4863 H 453.692 -3.11689 -2.06702 0
M  V30 4864 H 455.984 -4.87055 -4.70939 0
M  V30 4865 H 456.927 -6.02717 -3.71669 0
M  V30 4866 H 457.335 -4.28619 -3.6735 0
M  V30 4867 N 456.733 0.527833 -1.48498 0
M  V30 4868 C 457.979 1.28545 -1.56857 0
M  V30 4869 C 458.312 1.92678 -0.242651 0
M  V30 4870 O 457.587 1.79394 0.751545 0
M  V30 4871 C 457.87 2.37314 -2.70839 0
M  V30 4872 C 457.723 1.77858 -4.13142 0
M  V30 4873 C 459.042 3.39068 -2.80573 0
M  V30 4874 H 456.161 0.466006 -0.570971 0
M  V30 4875 H 458.803 0.587784 -1.8068 0
M  V30 4876 H 456.953 2.96821 -2.50658 0
M  V30 4877 H 458.625 1.22385 -4.44769 0
M  V30 4878 H 456.868 1.08383 -4.20042 0
M  V30 4879 H 457.539 2.56624 -4.88721 0
M  V30 4880 H 460.015 2.89518 -2.98862 0
M  V30 4881 H 458.891 4.12566 -3.6205 0
M  V30 4882 H 459.152 3.9975 -1.88818 0
M  V30 4883 N 458.211 1.37122 0.776871 0
M  V30 4884 C 459.457 1.32243 1.53752 0
M  V30 4885 C 459.79 -0.0944745 1.9397 0
M  V30 4886 O 459.065 -1.05068 1.6368 0
M  V30 4887 C 459.348 2.25681 2.80607 0
M  V30 4888 C 459.201 3.76127 2.46676 0
M  V30 4889 C 460.52 2.17657 3.82509 0
M  V30 4890 H 457.639 0.481704 0.557791 0
M  V30 4891 H 460.281 1.6778 0.891612 0
M  V30 4892 H 458.431 1.95505 3.35723 0
M  V30 4893 H 460.103 4.16877 1.97513 0
M  V30 4894 H 458.346 3.94946 1.79443 0
M  V30 4895 H 459.017 4.36933 3.37333 0
M  V30 4896 H 461.493 2.44245 3.36873 0
M  V30 4897 H 460.369 2.85185 4.69 0
M  V30 4898 H 460.63 1.16785 4.26396 0
M  V30 4899 N 459.689 -1.00246 1.21608 0
M  V30 4900 C 460.636 -2.09073 0.977613 0
M  V30 4901 C 461.606 -1.65815 -0.097297 0
M  V30 4902 O 462.791 -1.90734 0.0503445 0
M  V30 4903 C 459.931 -3.40671 0.551133 0
M  V30 4904 C 459.044 -3.97326 1.69576 0
M  V30 4905 C 458.179 -5.17043 1.2182 0
M  V30 4906 C 457.218 -5.65813 2.335 0
M  V30 4907 N 456.355 -6.76778 1.86859 0
M  V30 4908 H 461.195 -2.28806 1.90924 0
M  V30 4909 H 458.732 -1.12186 0.951452 0
M  V30 4910 H 460.69 -4.16225 0.285097 0
M  V30 4911 H 459.32 -3.20967 -0.343489 0
M  V30 4912 H 458.372 -3.18734 2.07637 0
M  V30 4913 H 459.684 -4.29511 2.53617 0
M  V30 4914 H 458.838 -5.99852 0.908975 0
M  V30 4915 H 457.577 -4.86458 0.347869 0
M  V30 4916 H 456.582 -4.81599 2.65222 0
M  V30 4917 H 457.807 -5.98427 3.21033 0
M  V30 4918 H 455.753 -6.47994 1.02174 0
M  V30 4919 H 455.67 -7.08231 2.64471 0
M  V30 4920 H 456.938 -7.63116 1.58978 0
M  V30 4921 N 461.167 -1.02423 -1.1978 0
M  V30 4922 C 462.13 -0.605703 -2.21052 0
M  V30 4923 C 463.13 0.328209 -1.57415 0
M  V30 4924 O 464.32 0.115853 -1.73814 0
M  V30 4925 C 461.452 0.114366 -3.40708 0
M  V30 4926 H 462.645 -1.5017 -2.59594 0
M  V30 4927 H 460.198 -0.814888 -1.33376 0
M  V30 4928 H 460.933 1.02492 -3.07678 0
M  V30 4929 H 460.718 -0.556641 -3.88129 0
M  V30 4930 H 462.208 0.394272 -4.15735 0
M  V30 4931 N 462.645 1.35699 -0.801477 0
M  V30 4932 C 463.892 1.98913 -0.379459 0
M  V30 4933 C 464.22 1.63592 1.05204 0
M  V30 4934 O 463.475 0.888563 1.74365 0
M  V30 4935 C 463.774 3.53828 -0.504041 0
M  V30 4936 C 463.44 4.09002 -1.8981 0
M  V30 4937 C 462.102 4.23783 -2.27951 0
M  V30 4938 C 464.454 4.38939 -2.81038 0
M  V30 4939 C 461.782 4.65816 -3.56696 0
M  V30 4940 C 464.134 4.82409 -4.09224 0
M  V30 4941 C 462.798 4.95395 -4.4737 0
M  V30 4942 H 462.068 0.727874 -0.138854 0
M  V30 4943 H 464.715 1.61994 -1.02128 0
M  V30 4944 H 463.02 3.91175 0.221242 0
M  V30 4945 H 464.717 4.00687 -0.158361 0
M  V30 4946 H 461.307 3.97946 -1.59176 0
M  V30 4947 H 465.491 4.27077 -2.52821 0
M  V30 4948 H 460.747 4.74059 -3.86106 0
M  V30 4949 H 464.921 5.04535 -4.80018 0
M  V30 4950 H 462.548 5.27724 -5.47185 0
M  V30 4951 N 464.123 0.554532 1.47522 0
M  V30 4952 C 465.071 -0.207765 2.3167 0
M  V30 4953 C 466.065 -0.911914 1.4276 0
M  V30 4954 O 467.271 -0.833504 1.59539 0
M  V30 4955 H 463.646 -0.0858726 0.747081 0
M  V30 4956 H 465.617 0.521178 2.93813 0
M  V30 4957 C 464.366 -1.2263 3.25357 0
M  V30 4958 H 463.689 -0.693887 3.93732 0
M  V30 4959 H 465.129 -1.73062 3.87073 0
M  V30 4960 C 463.588 -2.27278 2.4869 0
M  V30 4961 O 464.118 -3.34156 2.22941 0
M  V30 4962 N 462.324 -2.01134 2.09746 0
M  V30 4963 H 461.871 -1.14232 2.30887 0
M  V30 4964 H 461.829 -2.71369 1.58765 0
M  V30 4965 N 465.601 -1.54893 0.290851 0
M  V30 4966 C 466.549 -2.24579 -0.605576 0
M  V30 4967 C 467.543 -1.24824 -1.14522 0
M  V30 4968 O 468.749 -1.42706 -1.09704 0
M  V30 4969 H 465.124 -0.720946 -0.213872 0
M  V30 4970 H 467.095 -2.984 0.0048173 0
M  V30 4971 C 465.844 -2.99224 -1.77088 0
M  V30 4972 H 465.167 -3.75782 -1.36484 0
M  V30 4973 H 466.607 -3.51281 -2.3744 0
M  V30 4974 C 465.066 -2.05602 -2.66888 0
M  V30 4975 O 465.596 -1.61745 -3.67698 0
M  V30 4976 N 463.802 -1.71771 -2.34399 0
M  V30 4977 H 463.349 -2.07633 -1.52468 0
M  V30 4978 H 463.307 -1.09403 -2.94751 0
M  V30 4979 N 467.08 -0.0183926 -1.57589 0
M  V30 4980 C 468.028 0.985111 -2.10709 0
M  V30 4981 C 469.022 1.34397 -1.0312 0
M  V30 4982 O 470.228 1.32746 -1.21567 0
M  V30 4983 H 466.603 0.335418 -0.673052 0
M  V30 4984 H 468.574 0.511689 -2.9398 0
M  V30 4985 C 467.323 2.26202 -2.64061 0
M  V30 4986 H 466.646 1.9946 -3.4649 0
M  V30 4987 H 468.086 2.94652 -3.04887 0
M  V30 4988 C 466.545 2.98444 -1.5631 0
M  V30 4989 O 467.075 3.90142 -0.956674 0
M  V30 4990 N 465.281 2.6059 -1.28612 0
M  V30 4991 H 464.828 1.86101 -1.78112 0
M  V30 4992 H 464.786 3.09238 -0.567406 0
M  V30 4993 N 468.558 1.5553 0.254621 0
M  V30 4994 C 469.488 1.9268 1.31897 0
M  V30 4995 C 470.469 0.790797 1.506 0
M  V30 4996 O 471.654 1.05045 1.63337 0
M  V30 4997 C 468.784 2.21477 2.67517 0
M  V30 4998 C 467.738 3.37256 2.63519 0
M  V30 4999 C 467.064 3.51576 4.02862 0
M  V30 5000 C 468.364 4.73157 2.21179 0
M  V30 5001 H 470.058 2.81832 1.01051 0
M  V30 5002 H 467.604 1.35599 0.484662 0
M  V30 5003 H 469.557 2.46055 3.42104 0
M  V30 5004 H 468.281 1.29144 2.99982 0
M  V30 5005 H 466.94 3.12675 1.9139 0
M  V30 5006 H 466.588 2.56676 4.32581 0
M  V30 5007 H 466.288 4.2943 4.01078 0
M  V30 5008 H 467.812 3.78467 4.79161 0
M  V30 5009 H 469.226 4.97158 2.85494 0
M  V30 5010 H 467.623 5.54058 2.30521 0
M  V30 5011 H 468.693 4.70739 1.16332 0
M  V30 5012 N 470.036 -0.519951 1.48776 0
M  V30 5013 C 470.983 -1.62352 1.64044 0
M  V30 5014 C 471.953 -1.58945 0.482251 0
M  V30 5015 O 473.138 -1.77219 0.706971 0
M  V30 5016 C 470.278 -3.00579 1.69547 0
M  V30 5017 C 469.391 -3.14145 2.96541 0
M  V30 5018 C 468.526 -4.42991 2.93142 0
M  V30 5019 C 467.565 -4.50122 4.14797 0
M  V30 5020 N 466.702 -5.7037 4.09418 0
M  V30 5021 H 471.542 -1.48643 2.58281 0
M  V30 5022 H 469.079 -0.723516 1.28077 0
M  V30 5023 H 471.037 -3.80671 1.70719 0
M  V30 5024 H 469.667 -3.13036 0.787918 0
M  V30 5025 H 468.719 -2.27239 3.05068 0
M  V30 5026 H 470.031 -3.15275 3.86527 0
M  V30 5027 H 469.185 -5.31385 2.92772 0
M  V30 5028 H 467.924 -4.44398 2.00902 0
M  V30 5029 H 466.929 -3.60133 4.15433 0
M  V30 5030 H 468.154 -4.50445 5.08208 0
M  V30 5031 H 466.1 -5.72655 3.20004 0
M  V30 5032 H 466.017 -5.73036 4.93119 0
M  V30 5033 H 467.285 -6.61023 4.13121 0
M  V30 5034 N 471.514 -1.37532 -0.769588 0
M  V30 5035 C 472.444 -1.36172 -1.89682 0
M  V30 5036 C 473.425 -0.23001 -1.68538 0
M  V30 5037 O 474.61 -0.43069 -1.89364 0
M  V30 5038 C 471.74 -1.1701 -3.26995 0
M  V30 5039 C 470.694 -2.27216 -3.62708 0
M  V30 5040 C 470.02 -1.93174 -4.98586 0
M  V30 5041 C 471.32 -3.6941 -3.69234 0
M  V30 5042 H 473.014 -2.30499 -1.91078 0
M  V30 5043 H 470.56 -1.10953 -0.917902 0
M  V30 5044 H 472.513 -1.14688 -4.05493 0
M  V30 5045 H 471.237 -0.191395 -3.26039 0
M  V30 5046 H 469.896 -2.28697 -2.86519 0
M  V30 5047 H 469.544 -0.938281 -4.94171 0
M  V30 5048 H 469.244 -2.66973 -5.23449 0
M  V30 5049 H 470.768 -1.92443 -5.79481 0
M  V30 5050 H 472.182 -3.70047 -4.37879 0
M  V30 5051 H 470.579 -4.4228 -4.05597 0
M  V30 5052 H 471.649 -4.0288 -2.69844 0
M  V30 5053 N 472.992 0.995999 -1.22138 0
M  V30 5054 C 474.241 1.72928 -1.03821 0
M  V30 5055 C 474.554 1.90872 0.427444 0
M  V30 5056 O 475.76 2.61496 0.730212 0
M  V30 5057 C 474.216 3.11124 -1.80913 0
M  V30 5058 C 473.824 3.01122 -3.31707 0
M  V30 5059 C 475.568 3.8852 -1.71035 0
M  V30 5060 C 473.475 4.34453 -4.01253 0
M  V30 5061 H 472.405 0.648376 -0.384869 0
M  V30 5062 H 475.056 1.11213 -1.45959 0
M  V30 5063 H 473.438 3.73503 -1.31573 0
M  V30 5064 H 474.612 2.47926 -3.88419 0
M  V30 5065 H 472.927 2.3721 -3.42228 0
M  V30 5066 H 475.524 4.872 -2.20318 0
M  V30 5067 H 475.867 4.1087 -0.670196 0
M  V30 5068 H 476.4 3.32812 -2.17902 0
M  V30 5069 H 473.139 4.17303 -5.05508 0
M  V30 5070 H 472.659 4.87574 -3.49331 0
M  V30 5071 H 474.338 5.03215 -4.06674 0
M  V30 5072 N 474.47 1.03057 1.19235 0
M  V30 5073 C 475.418 0.606391 2.24557 0
M  V30 5074 C 476.412 -0.361826 1.65491 0
M  V30 5075 O 477.618 -0.23022 1.78522 0
M  V30 5076 H 473.993 0.177838 0.730669 0
M  V30 5077 H 475.964 1.50529 2.5765 0
M  V30 5078 C 474.713 -0.0252127 3.47691 0
M  V30 5079 H 474.036 0.710838 3.9343 0
M  V30 5080 H 475.476 -0.284931 4.23042 0
M  V30 5081 C 473.935 -1.27229 3.11953 0
M  V30 5082 O 474.465 -2.36416 3.24762 0
M  V30 5083 N 472.671 -1.16169 2.6637 0
M  V30 5084 H 472.218 -0.273189 2.56147 0
M  V30 5085 H 472.176 -1.99703 2.42829 0
M  V30 5086 N 475.948 -1.35272 0.808662 0
M  V30 5087 C 477.196 -1.98316 0.389233 0
M  V30 5088 C 477.517 -1.64465 -1.04767 0
M  V30 5089 O 476.787 -0.928175 -1.72516 0
M  V30 5090 H 475.367 -0.733585 0.140935 0
M  V30 5091 H 478.029 -1.6515 1.03496 0
M  V30 5092 H 477.125 -3.08123 0.496631 0
M  V30 5093 N 477.426 -0.562348 -1.47226 0
M  V30 5094 C 478.336 0.185466 -2.33866 0
M  V30 5095 C 479.352 0.906713 -1.48508 0
M  V30 5096 O 480.528 0.874458 -1.81425 0
M  V30 5097 C 477.593 1.19904 -3.25306 0
M  V30 5098 C 476.654 0.484669 -4.26555 0
M  V30 5099 C 475.887 1.44996 -5.13626 0
M  V30 5100 O 476.11 2.68515 -5.03245 0
M  V30 5101 O 475.044 0.971642 -5.94006 0
M  V30 5102 H 478.87 -0.525361 -2.99121 0
M  V30 5103 H 476.455 -0.322916 -1.45868 0
M  V30 5104 H 478.337 1.78399 -3.81774 0
M  V30 5105 H 477.012 1.8917 -2.62672 0
M  V30 5106 H 475.919 -0.141605 -3.73832 0
M  V30 5107 H 477.252 -0.166634 -4.91918 0
M  V30 5108 N 478.904 1.54736 -0.299062 0
M  V30 5109 C 479.851 2.23448 0.577899 0
M  V30 5110 C 480.821 1.21637 1.13109 0
M  V30 5111 O 482.006 1.50252 1.17597 0
M  V30 5112 C 479.146 2.9774 1.74484 0
M  V30 5113 C 478.259 4.1432 1.22323 0
M  V30 5114 C 477.394 4.76199 2.35388 0
M  V30 5115 C 476.433 5.84927 1.80351 0
M  V30 5116 N 475.57 6.4077 2.86982 0
M  V30 5117 H 480.41 2.97996 -0.0146545 0
M  V30 5118 H 477.947 1.47088 -0.0190013 0
M  V30 5119 H 479.905 3.39045 2.43114 0
M  V30 5120 H 478.535 2.25572 2.30905 0
M  V30 5121 H 477.587 3.7797 0.429249 0
M  V30 5122 H 478.899 4.92659 0.780309 0
M  V30 5123 H 478.053 5.20346 3.11969 0
M  V30 5124 H 476.792 3.97188 2.83006 0
M  V30 5125 H 475.797 5.40207 1.02259 0
M  V30 5126 H 477.022 6.65821 1.3364 0
M  V30 5127 H 474.968 5.64643 3.33938 0
M  V30 5128 H 474.885 7.1445 2.4718 0
M  V30 5129 H 476.153 6.89574 3.63466 0
M  V30 5130 N 480.382 0.0267497 1.57577 0
M  V30 5131 C 481.793 -0.512413 1.79531 0
M  V30 5132 C 482.144 -1.72391 0.936791 0
M  V30 5133 O 481.269 -2.15903 0.146543 0
M  V30 5134 C 481.864 -0.936378 3.25603 0
M  V30 5135 C 480.423 -1.42067 3.4856 0
M  V30 5136 C 479.57 -0.384278 2.74624 0
M  V30 5137 H 482.521 0.252797 1.56674 0
M  V30 5138 H 482.542 -1.80088 3.35184 0
M  V30 5139 H 482.054 -0.0544332 3.88062 0
M  V30 5140 H 480.155 -2.32262 2.9135 0
M  V30 5141 H 480.268 -1.42968 4.57271 0
M  V30 5142 H 478.632 -0.851855 2.40032 0
M  V30 5143 H 479.415 0.489159 3.39797 0
M  V30 5144 N 481.861 -1.55662 -0.24637 0
M  V30 5145 C 483.138 -1.68272 -0.997198 0
M  V30 5146 C 483.518 -0.566785 -2.03349 0
M  V30 5147 O 482.866 0.429688 -2.24424 0
M  V30 5148 C 483.076 -3.08594 -1.63006 0
M  V30 5149 C 484.424 -3.6721 -2.13171 0
M  V30 5150 O 485.448 -3.11397 -1.72946 0
M  V30 5151 O 484.307 -4.65054 -2.87031 0
M  V30 5152 H 481.401 -0.684429 -0.464205 0
M  V30 5153 H 483.947 -1.67993 -0.240114 0
M  V30 5154 H 482.719 -3.81264 -0.880527 0
M  V30 5155 H 482.342 -3.12886 -2.45333 0
M  V30 5156 N 483.339 0.512053 -1.4905 0
M  V30 5157 C 484.564 1.2959 -1.6193 0
M  V30 5158 C 484.989 1.85906 -0.286454 0
M  V30 5159 O 484.347 1.65312 0.744426 0
M  V30 5160 C 484.395 2.40987 -2.68249 0
M  V30 5161 O 483.499 3.44531 -2.26654 0
M  V30 5162 H 482.84 0.383053 -0.542371 0
M  V30 5163 H 485.37 0.614231 -1.95162 0
M  V30 5164 H 485.38 2.86913 -2.90078 0
M  V30 5165 H 484.055 1.99361 -3.65004 0
M  V30 5166 H 482.632 3.046 -2.15112 0
M  V30 5167 N 484.817 1.37938 0.762283 0
M  V30 5168 C 486.228 1.30094 1.33912 0
M  V30 5169 C 486.579 -0.0472026 1.96143 0
M  V30 5170 O 485.704 -0.94917 1.94473 0
M  V30 5171 C 486.299 2.35592 2.43478 0
M  V30 5172 C 484.858 2.31353 2.96905 0
M  V30 5173 C 484.005 2.18919 1.70205 0
M  V30 5174 H 486.956 1.48423 0.561816 0
M  V30 5175 H 486.977 2.00806 3.23199 0
M  V30 5176 H 486.489 3.33701 1.98155 0
M  V30 5177 H 484.59 1.36799 3.46579 0
M  V30 5178 H 484.703 3.25147 3.51875 0
M  V30 5179 H 483.067 1.65624 1.93496 0
M  V30 5180 H 483.85 3.18956 1.26973 0
M  V30 5181 N 486.295 -0.989507 1.22664 0
M  V30 5182 C 487.541 -1.7321 1.05481 0
M  V30 5183 C 487.874 -1.89852 -0.408635 0
M  V30 5184 O 487.149 -1.44416 -1.30285 0
M  V30 5185 C 487.432 -3.1357 1.77047 0
M  V30 5186 C 487.285 -3.04555 3.31008 0
M  V30 5187 C 488.604 -4.12812 1.5256 0
M  V30 5188 H 485.723 -0.628697 0.384589 0
M  V30 5189 H 488.365 -1.15258 1.51049 0
M  V30 5190 H 486.515 -3.63046 1.3831 0
M  V30 5191 H 488.187 -2.62674 3.7921 0
M  V30 5192 H 486.43 -2.41278 3.6051 0
M  V30 5193 H 487.101 -4.03894 3.76263 0
M  V30 5194 H 489.577 -3.72106 1.86215 0
M  V30 5195 H 488.453 -5.09132 2.05124 0
M  V30 5196 H 488.714 -4.39711 0.458936 0
M  V30 5197 N 487.773 -1.03688 -1.18687 0
M  V30 5198 C 488.736 -0.629115 -2.20397 0
M  V30 5199 C 489.736 0.311495 -1.57754 0
M  V30 5200 O 490.926 0.0974107 -1.73927 0
M  V30 5201 C 488.058 0.0782231 -3.4081 0
M  V30 5202 H 489.251 -1.52915 -2.57987 0
M  V30 5203 H 486.804 -0.828988 -1.32505 0
M  V30 5204 H 487.539 0.992233 -3.08748 0
M  V30 5205 H 487.324 -0.597776 -3.87517 0
M  V30 5206 H 488.814 0.350156 -4.16129 0
M  V30 5207 N 489.251 1.34841 -0.815825 0
M  V30 5208 C 490.181 2.32187 -0.247298 0
M  V30 5209 C 491.162 1.5791 0.632344 0
M  V30 5210 O 492.347 1.8593 0.560698 0
M  V30 5211 C 489.477 3.42122 0.597466 0
M  V30 5212 C 488.431 4.27602 -0.184446 0
M  V30 5213 C 487.757 5.28942 0.782609 0
M  V30 5214 C 489.057 5.03502 -1.38865 0
M  V30 5215 H 490.751 2.79985 -1.06061 0
M  V30 5216 H 488.297 1.34611 -0.511461 0
M  V30 5217 H 490.25 4.09232 1.00533 0
M  V30 5218 H 488.974 2.92956 1.44376 0
M  V30 5219 H 487.633 3.62085 -0.573592 0
M  V30 5220 H 487.281 4.7604 1.62466 0
M  V30 5221 H 486.981 5.87008 0.263695 0
M  V30 5222 H 488.505 5.98922 1.18848 0
M  V30 5223 H 489.919 5.63506 -1.05518 0
M  V30 5224 H 488.316 5.71108 -1.8427 0
M  V30 5225 H 489.386 4.33608 -2.17054 0
M  V30 5226 N 490.729 0.570148 1.46925 0
M  V30 5227 C 491.677 -0.183181 2.31878 0
M  V30 5228 C 492.671 -0.896721 1.43719 0
M  V30 5229 O 493.877 -0.816536 1.60414 0
M  V30 5230 H 490.252 -0.077944 0.74795 0
M  V30 5231 H 492.223 0.552312 2.93244 0
M  V30 5232 C 490.972 -1.19172 3.2664 0
M  V30 5233 H 490.295 -0.652088 3.94446 0
M  V30 5234 H 491.735 -1.68946 3.88887 0
M  V30 5235 C 490.194 -2.24627 2.51086 0
M  V30 5236 O 490.724 -3.31773 2.26472 0
M  V30 5237 N 488.93 -1.98898 2.11867 0
M  V30 5238 H 488.477 -1.11777 2.32086 0
M  V30 5239 H 488.435 -2.6967 1.61634 0
M  V30 5240 N 492.207 -1.54576 0.307264 0
M  V30 5241 C 493.154 -2.23751 -0.56604 0
M  V30 5242 C 494.124 -1.22235 -1.12462 0
M  V30 5243 O 495.309 -1.50873 -1.16799 0
M  V30 5244 C 492.449 -2.98661 -1.72903 0
M  V30 5245 C 491.562 -4.14963 -1.20124 0
M  V30 5246 C 490.697 -4.77441 -2.3286 0
M  V30 5247 C 489.736 -5.85875 -1.77247 0
M  V30 5248 N 488.873 -6.42282 -2.8358 0
M  V30 5249 H 493.713 -2.97984 0.0304578 0
M  V30 5250 H 491.25 -1.47076 0.0268015 0
M  V30 5251 H 493.208 -3.40329 -2.41313 0
M  V30 5252 H 491.838 -2.26793 -2.29706 0
M  V30 5253 H 490.89 -3.78193 -0.409198 0
M  V30 5254 H 492.202 -4.93066 -0.754171 0
M  V30 5255 H 491.356 -5.21993 -3.09205 0
M  V30 5256 H 490.095 -3.98684 -2.80896 0
M  V30 5257 H 489.1 -5.40741 -0.993926 0
M  V30 5258 H 490.325 -6.6652 -1.30107 0
M  V30 5259 H 488.271 -5.66406 -3.30939 0
M  V30 5260 H 488.188 -7.1575 -2.43388 0
M  V30 5261 H 489.456 -6.91492 -3.59804 0
M  V30 5262 N 493.685 -0.035106 -1.57561 0
M  V30 5263 C 494.633 0.962707 -2.11742 0
M  V30 5264 C 495.627 1.33296 -1.0454 0
M  V30 5265 O 496.833 1.31449 -1.22968 0
M  V30 5266 H 493.208 0.32826 -0.676572 0
M  V30 5267 H 495.179 0.48048 -2.94506 0
M  V30 5268 C 493.928 2.23388 -2.66445 0
M  V30 5269 H 493.251 1.95774 -3.48587 0
M  V30 5270 H 494.691 2.91402 -3.07995 0
M  V30 5271 C 493.15 2.96769 -1.59467 0
M  V30 5272 O 493.68 3.89105 -0.998 0
M  V30 5273 N 491.886 2.59212 -1.31369 0
M  V30 5274 H 491.433 1.84202 -1.80076 0
M  V30 5275 H 491.391 3.08618 -0.600173 0
M  V30 5276 N 495.163 1.55791 0.238111 0
M  V30 5277 C 496.11 1.9105 1.29493 0
M  V30 5278 C 497.08 0.765733 1.47397 0
M  V30 5279 O 498.265 1.02017 1.61236 0
M  V30 5280 C 495.405 2.21826 2.64362 0
M  V30 5281 C 494.518 3.49153 2.54394 0
M  V30 5282 C 493.653 3.69455 3.81676 0
M  V30 5283 C 492.692 4.90353 3.66361 0
M  V30 5284 N 491.829 5.07131 4.85554 0
M  V30 5285 H 496.669 2.81172 0.987233 0
M  V30 5286 H 494.206 1.39179 0.476203 0
M  V30 5287 H 496.164 2.37675 3.4288 0
M  V30 5288 H 494.794 1.34897 2.93262 0
M  V30 5289 H 493.846 3.41587 1.67399 0
M  V30 5290 H 495.158 4.37818 2.38991 0
M  V30 5291 H 494.312 3.85311 4.68636 0
M  V30 5292 H 493.051 2.7904 3.99985 0
M  V30 5293 H 492.056 4.74464 2.77784 0
M  V30 5294 H 493.281 5.82237 3.49538 0
M  V30 5295 H 491.227 4.19654 5.04209 0
M  V30 5296 H 491.144 5.89899 4.72816 0
M  V30 5297 H 492.412 5.27407 5.73988 0
M  V30 5298 N 496.642 -0.504142 1.49319 0
M  V30 5299 C 497.889 -1.25846 1.58647 0
M  V30 5300 C 498.217 -1.92592 0.27177 0
M  V30 5301 O 497.472 -1.81167 -0.74007 0
M  V30 5302 C 497.771 -2.35021 2.69258 0
M  V30 5303 C 497.437 -1.85755 4.1086 0
M  V30 5304 C 496.099 -1.72038 4.49395 0
M  V30 5305 C 498.451 -1.48844 4.99495 0
M  V30 5306 C 495.779 -1.19783 5.74342 0
M  V30 5307 C 498.131 -0.980422 6.24956 0
M  V30 5308 C 496.795 -0.829622 6.62324 0
M  V30 5309 H 496.065 -0.460505 0.580531 0
M  V30 5310 H 498.712 -0.559716 1.83138 0
M  V30 5311 H 497.017 -3.10672 2.38726 0
M  V30 5312 H 498.714 -2.93083 2.73685 0
M  V30 5313 H 495.304 -1.9739 3.80441 0
M  V30 5314 H 499.488 -1.5829 4.70381 0
M  V30 5315 H 494.744 -1.06817 6.01997 0
M  V30 5316 H 498.918 -0.685608 6.93017 0
M  V30 5317 H 496.545 -0.42253 7.59025 0
M  V30 5318 O 498.159 -1.47868 -0.649398 0
M  V30 5319 H 498.85 -1.43327 -1.30297 0
M  V30 END ATOM
M  V30 BEGIN BOND
M  V30 END BOND
M  V30 END CTAB
M  END
$$$$
