drugbank_target|Q5T4S7 E3 ubiquitin-protein ligase UBR4 (DB04959; DB05483)
 OpenBabel12092120213D

  0  0  0     0  0            999 V3000
M  V30 BEGIN CTAB
M  V30 COUNTS 80506 81257 0 0 0
M  V30 BEGIN ATOM
M  V30 1 H -0.908 1.98254 -0.117106 0
M  V30 2 N 0 1.576 0 0
M  V30 3 C 0.933 2.03868 1.02534 0
M  V30 4 C 1.911 0.928543 1.3348 0
M  V30 5 O 3.095 1.19667 1.45644 0
M  V30 6 C 0.222 2.43627 2.35294 0
M  V30 7 C -0.732 3.65373 2.2001 0
M  V30 8 S 0.101 5.13292 1.52614 0
M  V30 9 C 1.257 5.56322 2.86805 0
M  V30 10 H 1.49 2.90518 0.631377 0
M  V30 11 H -0.977 1.52953 0.210867 0
M  V30 12 H 0.981 2.67203 3.11629 0
M  V30 13 H -0.358 1.57376 2.7183 0
M  V30 14 H -1.165 3.90944 3.18086 0
M  V30 15 H -1.563 3.418 1.51819 0
M  V30 16 H 0.729 5.58782 3.83104 0
M  V30 17 H 1.672 6.56266 2.65933 0
M  V30 18 H 2.08 4.83886 2.90714 0
M  V30 19 N 1.4781 -0.272755 1.55222 0
M  V30 20 C 2.4411 -1.32041 1.87344 0
M  V30 21 C 3.4411 -1.42342 0.74803 0
M  V30 22 O 4.6311 -1.41488 1.0162 0
M  V30 23 C 1.7631 -2.70173 2.07893 0
M  V30 24 H 2.9561 -1.04789 2.80997 0
M  V30 25 H 0.5091 -0.51083 1.47717 0
M  V30 26 H 1.2441 -3.02605 1.16622 0
M  V30 27 H 1.0291 -2.64082 2.89833 0
M  V30 28 H 2.5191 -3.45869 2.34017 0
M  V30 29 N 2.9562 -1.48159 -0.537278 0
M  V30 30 C 4.1842 -1.59454 -1.31841 0
M  V30 31 C 4.5992 -0.252065 -1.8711 0
M  V30 32 O 3.9562 0.757621 -1.66031 0
M  V30 33 C 4.0072 -2.63546 -2.47439 0
M  V30 34 O 3.7282 -3.92583 -1.94449 0
M  V30 35 C 5.2292 -2.85212 -3.39366 0
M  V30 36 H 2.4492 -0.53785 -0.401196 0
M  V30 37 H 4.9932 -1.93932 -0.648891 0
M  V30 38 H 3.1482 -2.31946 -3.1029 0
M  V30 39 H 3.5622 -4.49629 -2.70063 0
M  V30 40 H 5.0362 -3.61863 -4.16844 0
M  V30 41 H 5.5132 -1.93765 -3.94147 0
M  V30 42 H 6.1192 -3.18086 -2.82314 0
M  V30 43 N 4.4343 0.785586 -1.36625 0
M  V30 44 C 5.6593 1.57963 -1.34397 0
M  V30 45 C 6.0843 1.87964 0.071526 0
M  V30 46 O 5.4423 1.48182 1.0446 0
M  V30 47 C 5.4903 2.87511 -2.17646 0
M  V30 48 O 4.5943 3.81281 -1.57158 0
M  V30 49 H 3.9353 0.479014 -0.459828 0
M  V30 50 H 6.4653 0.973411 -1.79961 0
M  V30 51 H 6.4753 3.36745 -2.30362 0
M  V30 52 H 5.1503 2.65002 -3.20541 0
M  V30 53 H 3.7273 3.39885 -1.53403 0
M  V30 54 N 5.9124 1.20967 1.01018 0
M  V30 55 C 7.1604 1.02172 1.74371 0
M  V30 56 C 7.4814 -0.446414 1.89821 0
M  V30 57 O 6.7514 -1.32234 1.44537 0
M  V30 58 H 5.3314 0.375066 0.646014 0
M  V30 59 H 7.9934 1.52187 1.21758 0
M  V30 60 H 7.0894 1.48538 2.74487 0
M  V30 61 N 7.3905 -1.2043 1.01659 0
M  V30 62 C 8.6385 -1.89423 0.704522 0
M  V30 63 C 8.9595 -1.79231 -0.768197 0
M  V30 64 O 8.2295 -1.1947 -1.55254 0
M  V30 65 H 6.8095 -0.701178 0.257602 0
M  V30 66 H 9.4715 -1.4626 1.28818 0
M  V30 67 H 8.5675 -2.96052 0.987916 0
M  V30 68 N 8.8686 -0.792821 -1.36206 0
M  V30 69 C 9.7786 -0.194808 -2.3379 0
M  V30 70 C 10.7946 0.654869 -1.61206 0
M  V30 71 O 11.9706 0.569856 -1.9317 0
M  V30 72 C 9.0356 0.657721 -3.40404 0
M  V30 73 C 8.0966 -0.210849 -4.28782 0
M  V30 74 C 7.3296 0.601086 -5.30304 0
M  V30 75 O 7.5526 1.83682 -5.40016 0
M  V30 76 O 6.4866 -0.000808277 -6.019 0
M  V30 77 H 10.3126 -1.00172 -2.86704 0
M  V30 78 H 7.8976 -0.554341 -1.38735 0
M  V30 79 H 9.7796 1.14375 -4.05581 0
M  V30 80 H 8.4546 1.44247 -2.89784 0
M  V30 81 H 7.3616 -0.743714 -3.66633 0
M  V30 82 H 8.6946 -0.959195 -4.82763 0
M  V30 83 N 10.3467 1.47872 -0.545128 0
M  V30 84 C 11.2567 2.33633 0.212746 0
M  V30 85 C 12.2727 1.4744 0.923983 0
M  V30 86 O 13.4487 1.80393 0.895572 0
M  V30 87 C 10.5137 3.23884 1.23693 0
M  V30 88 C 9.5747 4.25961 0.534417 0
M  V30 89 C 8.8077 5.11899 1.5098 0
M  V30 90 O 9.0307 5.00077 2.7437 0
M  V30 91 O 7.9647 5.92831 1.0409 0
M  V30 92 H 11.7907 2.99714 -0.490416 0
M  V30 93 H 9.3757 1.46235 -0.305871 0
M  V30 94 H 11.2577 3.79666 1.82843 0
M  V30 95 H 9.9327 2.60446 1.92222 0
M  V30 96 H 8.8397 3.73972 -0.0979679 0
M  V30 97 H 10.1727 4.92079 -0.109213 0
M  V30 98 N 11.8248 0.280983 1.55075 0
M  V30 99 C 12.7878 -0.590896 2.21452 0
M  V30 100 C 13.7878 -1.07682 1.19421 0
M  V30 101 O 14.9778 -0.97605 1.44288 0
M  V30 102 C 12.1098 -1.81587 2.88511 0
M  V30 103 H 13.3028 -0.0112554 2.99898 0
M  V30 104 H 10.8558 0.0316438 1.56268 0
M  V30 105 H 11.5908 -2.43587 2.14093 0
M  V30 106 H 11.3758 -1.4753 3.63287 0
M  V30 107 H 12.8658 -2.43575 3.39206 0
M  V30 108 N 13.3029 -1.57598 0.00835791 0
M  V30 109 C 14.2659 -2.07884 -0.965242 0
M  V30 110 C 15.2659 -0.989825 -1.26725 0
M  V30 111 O 16.4559 -1.25218 -1.21104 0
M  V30 112 C 13.5879 -2.52731 -2.28779 0
M  V30 113 H 14.7809 -2.95178 -0.530112 0
M  V30 114 H 12.3339 -1.54458 -0.239283 0
M  V30 115 H 13.0689 -1.68705 -2.76964 0
M  V30 116 H 12.8539 -3.32272 -2.08177 0
M  V30 117 H 14.3439 -2.91933 -2.98605 0
M  V30 118 N 14.781 0.264519 -1.55364 0
M  V30 119 C 15.744 1.31046 -1.88042 0
M  V30 120 C 16.744 1.41943 -0.755569 0
M  V30 121 O 17.934 1.40947 -1.02369 0
M  V30 122 C 15.066 2.69067 -2.09323 0
M  V30 123 H 16.259 1.03297 -2.81549 0
M  V30 124 H 13.812 0.502989 -1.47986 0
M  V30 125 H 14.547 3.01982 -1.18226 0
M  V30 126 H 14.332 2.62542 -2.91229 0
M  V30 127 H 15.822 3.44623 -2.35848 0
M  V30 128 N 16.2591 1.48442 0.529413 0
M  V30 129 C 17.2221 1.62524 1.61612 0
M  V30 130 C 18.2221 0.498509 1.52877 0
M  V30 131 O 19.4121 0.76431 1.56537 0
M  V30 132 C 16.5441 1.59597 3.01233 0
M  V30 133 H 17.7371 2.59423 1.50465 0
M  V30 134 H 15.2901 1.37047 0.751514 0
M  V30 135 H 16.0251 0.641781 3.17886 0
M  V30 136 H 15.8101 2.41397 3.08982 0
M  V30 137 H 17.3001 1.72646 3.80241 0
M  V30 138 N 17.7372 -0.778329 1.37039 0
M  V30 139 C 18.7002 -1.87301 1.32102 0
M  V30 140 C 19.7002 -1.59198 0.226405 0
M  V30 141 O 20.8902 -1.67403 0.481861 0
M  V30 142 C 18.0222 -3.24309 1.05055 0
M  V30 143 H 19.2152 -1.93093 2.29467 0
M  V30 144 H 16.7682 -0.977358 1.21973 0
M  V30 145 H 17.5032 -3.24196 0.0819373 0
M  V30 146 H 17.2882 -3.46098 1.84279 0
M  V30 147 H 18.7782 -4.04382 1.04234 0
M  V30 148 N 19.2153 -1.21501 -1.00376 0
M  V30 149 C 20.6263 -1.03146 -1.55621 0
M  V30 150 C 20.9773 0.408375 -1.91903 0
M  V30 151 O 20.1023 1.29177 -1.73616 0
M  V30 152 C 20.6973 -1.86612 -2.82775 0
M  V30 153 C 19.2563 -1.72586 -3.34501 0
M  V30 154 C 18.4033 -1.83747 -2.07683 0
M  V30 155 H 21.3543 -1.35505 -0.826081 0
M  V30 156 H 21.3753 -1.3771 -3.54706 0
M  V30 157 H 20.8873 -2.91399 -2.56336 0
M  V30 158 H 18.9883 -0.704877 -3.65872 0
M  V30 159 H 19.1013 -2.54623 -4.05837 0
M  V30 160 H 17.4653 -1.27069 -2.20739 0
M  V30 161 H 18.2483 -2.90044 -1.83655 0
M  V30 162 N 20.6934 1.19889 -1.02296 0
M  V30 163 C 21.6564 2.21116 -0.603351 0
M  V30 164 C 22.6564 1.5738 0.329884 0
M  V30 165 O 23.8464 1.73802 0.117702 0
M  V30 166 C 20.9784 3.40696 0.117992 0
M  V30 167 H 22.1714 2.59754 -1.49893 0
M  V30 168 H 19.7244 1.33463 -0.813468 0
M  V30 169 H 20.4594 3.07569 1.0282 0
M  V30 170 H 20.2444 3.88188 -0.552511 0
M  V30 171 H 21.7344 4.15692 0.398696 0
M  V30 172 N 22.1715 0.800033 1.35784 0
M  V30 173 C 23.5825 0.439142 1.81462 0
M  V30 174 C 23.9335 -1.03813 1.66485 0
M  V30 175 O 23.0585 -1.80626 1.19177 0
M  V30 176 C 23.6535 0.790314 3.29453 0
M  V30 177 C 22.2125 0.482111 3.733 0
M  V30 178 C 21.3595 1.01938 2.57883 0
M  V30 179 H 24.3105 0.992254 1.23855 0
M  V30 180 H 24.3315 0.0853677 3.80404 0
M  V30 181 H 23.8435 1.86554 3.40322 0
M  V30 182 H 21.9445 -0.584652 3.67984 0
M  V30 183 H 22.0575 1.01015 4.6833 0
M  V30 184 H 20.4215 0.442043 2.50835 0
M  V30 185 H 21.2045 2.10059 2.71533 0
M  V30 186 N 23.6496 -1.47581 0.552962 0
M  V30 187 C 24.8976 -2.02082 0.0272703 0
M  V30 188 C 25.2186 -1.4301 -1.32563 0
M  V30 189 O 24.4886 -0.603745 -1.86365 0
M  V30 190 H 23.0686 -0.746966 0.00709182 0
M  V30 191 H 25.7306 -1.81033 0.722008 0
M  V30 192 H 24.8266 -3.12034 -0.0639951 0
M  V30 193 N 25.1277 -0.289203 -1.54924 0
M  V30 194 C 26.3557 0.326463 -2.04308 0
M  V30 195 C 26.7707 1.48413 -1.16701 0
M  V30 196 O 26.1277 1.81507 -0.190087 0
M  V30 197 C 26.1787 0.794014 -3.52672 0
M  V30 198 O 25.8997 -0.317564 -4.36948 0
M  V30 199 C 27.4007 1.47605 -4.18004 0
M  V30 200 H 24.6207 0.0726272 -0.667058 0
M  V30 201 H 27.1647 -0.425401 -2.00026 0
M  V30 202 H 25.3197 1.49593 -3.57352 0
M  V30 203 H 25.7337 0.0443186 -5.24481 0
M  V30 204 H 27.2077 1.75447 -5.23376 0
M  V30 205 H 27.6847 2.41224 -3.67025 0
M  V30 206 H 28.2907 0.81762 -4.17367 0
M  V30 207 N 26.6058 1.57591 -0.0167156 0
M  V30 208 C 28.0168 1.79201 0.523834 0
M  V30 209 C 28.3678 0.925796 1.72984 0
M  V30 210 O 27.4928 0.132792 2.15992 0
M  V30 211 C 28.0878 3.25 0.957091 0
M  V30 212 C 26.6468 3.47648 1.44283 0
M  V30 213 C 25.7938 2.74374 0.401757 0
M  V30 214 H 28.7448 1.56831 -0.242816 0
M  V30 215 H 28.7658 3.34031 1.82219 0
M  V30 216 H 28.2778 3.88019 0.0791415 0
M  V30 217 H 26.3788 2.89866 2.34113 0
M  V30 218 H 26.4918 4.56352 1.45877 0
M  V30 219 H 24.8558 2.39485 0.867121 0
M  V30 220 H 25.6388 3.40102 -0.467513 0
M  V30 221 N 28.0839 -0.256276 1.55502 0
M  V30 222 C 29.0469 -1.30047 1.88734 0
M  V30 223 C 30.0469 -1.4154 0.763086 0
M  V30 224 O 31.2369 -1.40403 1.03115 0
M  V30 225 C 28.3689 -2.67953 2.10747 0
M  V30 226 H 29.5619 -1.01802 2.82093 0
M  V30 227 H 27.1149 -0.495134 1.4825 0
M  V30 228 H 27.8499 -3.01351 1.19825 0
M  V30 229 H 27.6349 -2.60993 2.92617 0
M  V30 230 H 29.1249 -3.43368 2.37673 0
M  V30 231 N 29.562 -1.4872 -0.521534 0
M  V30 232 C 30.79 -1.60843 -1.30142 0
M  V30 233 C 31.205 -0.271897 -1.86832 0
M  V30 234 O 30.562 0.739969 -1.66825 0
M  V30 235 C 30.613 -2.66155 -2.4463 0
M  V30 236 O 30.334 -3.94623 -1.90275 0
M  V30 237 C 31.835 -2.88795 -3.36322 0
M  V30 238 H 29.055 -0.542075 -0.395468 0
M  V30 239 H 31.599 -1.94609 -0.628285 0
M  V30 240 H 29.754 -2.35224 -3.07812 0
M  V30 241 H 30.168 -4.52468 -2.65279 0
M  V30 242 H 31.642 -3.66264 -4.12983 0
M  V30 243 H 32.119 -1.97934 -3.9207 0
M  V30 244 H 32.725 -3.21063 -2.78924 0
M  V30 245 N 31.0401 0.771051 -1.3745 0
M  V30 246 C 32.2881 1.52661 -1.32435 0
M  V30 247 C 32.6091 1.9479 0.0905024 0
M  V30 248 O 31.8791 1.66348 1.03466 0
M  V30 249 H 30.4591 0.566218 -0.487244 0
M  V30 250 H 33.1211 0.917636 -1.71946 0
M  V30 251 H 32.2171 2.42568 -1.96385 0
M  V30 252 N 32.5182 1.22032 0.997298 0
M  V30 253 C 33.4812 0.987909 2.06816 0
M  V30 254 C 34.4812 -0.0440084 1.6074 0
M  V30 255 O 35.6712 0.194053 1.73116 0
M  V30 256 C 32.8032 0.49132 3.37341 0
M  V30 257 H 33.9962 1.93803 2.28868 0
M  V30 258 H 31.5492 1.03838 1.16822 0
M  V30 259 H 32.2842 -0.463364 3.20973 0
M  V30 260 H 32.0692 1.23575 3.72118 0
M  V30 261 H 33.5592 0.348824 4.16141 0
M  V30 262 N 33.9963 -1.19345 1.0293 0
M  V30 263 C 35.2733 -1.84811 0.640642 0
M  V30 264 C 35.6533 -1.91855 -0.88062 0
M  V30 265 O 35.0013 -1.43587 -1.7775 0
M  V30 266 C 35.2113 -3.23755 1.30321 0
M  V30 267 C 36.5593 -3.99912 1.42673 0
M  V30 268 O 37.5833 -3.33155 1.26041 0
M  V30 269 O 36.4423 -5.19494 1.6967 0
M  V30 270 H 33.5363 -0.796443 0.222726 0
M  V30 271 H 36.0823 -1.26831 1.12748 0
M  V30 272 H 34.8543 -3.13466 2.34211 0
M  V30 273 H 34.4773 -3.89381 0.804261 0
M  V30 274 N 35.4744 -0.807222 -1.35358 0
M  V30 275 C 36.7024 -0.400377 -2.02989 0
M  V30 276 C 37.1174 0.988859 -1.60832 0
M  V30 277 O 36.4744 1.63729 -0.806175 0
M  V30 278 C 36.5254 -0.474867 -3.58368 0
M  V30 279 O 36.2464 -1.80933 -3.98992 0
M  V30 280 C 37.7474 -0.0609112 -4.43258 0
M  V30 281 H 34.9674 -0.162587 -0.651004 0
M  V30 282 H 37.5114 -1.09102 -1.72965 0
M  V30 283 H 35.6664 0.167534 -3.87038 0
M  V30 284 H 36.0804 -1.77256 -4.9364 0
M  V30 285 H 37.5544 -0.164145 -5.51756 0
M  V30 286 H 38.0314 0.993831 -4.27808 0
M  V30 287 H 38.6374 -0.676492 -4.19885 0
M  V30 288 N 36.9525 1.47285 -0.560781 0
M  V30 289 C 38.1805 2.06855 -0.0430262 0
M  V30 290 C 38.5955 1.41291 1.25229 0
M  V30 291 O 37.9525 0.510648 1.7521 0
M  V30 292 C 38.0035 3.61178 0.152518 0
M  V30 293 O 37.7245 4.24285 -1.0915 0
M  V30 294 C 39.2255 4.37624 0.707145 0
M  V30 295 H 36.4455 0.669319 -0.0474652 0
M  V30 296 H 38.9895 1.89237 -0.77521 0
M  V30 297 H 37.1445 3.78298 0.834843 0
M  V30 298 H 37.5585 5.16868 -0.891482 0
M  V30 299 H 39.0325 5.46271 0.793244 0
M  V30 300 H 39.5095 4.04152 1.71923 0
M  V30 301 H 40.1155 4.25257 0.0604027 0
M  V30 302 N 38.4306 0.297415 1.54768 0
M  V30 303 C 39.8416 -0.195947 1.85669 0
M  V30 304 C 40.1926 -1.53707 1.21937 0
M  V30 305 O 39.3176 -2.10164 0.515754 0
M  V30 306 C 39.9126 -0.362318 3.36857 0
M  V30 307 C 38.4716 -0.799901 3.67802 0
M  V30 308 C 37.6186 0.0938578 2.77141 0
M  V30 309 H 40.5696 0.518538 1.4999 0
M  V30 310 H 40.5906 -1.19745 3.61167 0
M  V30 311 H 40.1026 0.613921 3.83214 0
M  V30 312 H 38.2036 -1.78682 3.26961 0
M  V30 313 H 38.3166 -0.621773 4.75048 0
M  V30 314 H 36.6806 -0.426254 2.51108 0
M  V30 315 H 37.4636 1.06639 3.26318 0
M  V30 316 N 39.9087 -1.5758 0.0250728 0
M  V30 317 C 41.1567 -1.91255 -0.653151 0
M  V30 318 C 41.4777 -0.901691 -1.729 0
M  V30 319 O 40.7477 0.0573785 -1.95816 0
M  V30 320 H 39.3277 -0.705942 -0.244243 0
M  V30 321 H 41.9897 -1.94767 0.0719209 0
M  V30 322 H 41.0857 -2.91752 -1.10847 0
M  V30 323 N 41.3868 0.248026 -1.55636 0
M  V30 324 C 42.6328 0.973427 -1.78594 0
M  V30 325 C 42.9878 1.83007 -0.593823 0
M  V30 326 O 42.2808 1.87097 0.412961 0
M  V30 327 C 42.4748 1.86819 -3.04686 0
M  V30 328 C 42.3038 1.09965 -4.36048 0
M  V30 329 C 41.0738 0.805204 -4.98843 0
M  V30 330 C 43.2718 0.477783 -5.12076 0
M  V30 331 N 41.2538 0.0124859 -6.13899 0
M  V30 332 C 42.6248 -0.179565 -6.1974 0
M  V30 333 C 44.6798 0.388136 -4.96385 0
M  V30 334 C 43.3828 -0.91795 -7.13419 0
M  V30 335 C 45.4088 -0.336716 -5.90441 0
M  V30 336 C 44.7708 -0.982705 -6.97511 0
M  V30 337 H 40.8698 0.337348 -0.705493 0
M  V30 338 H 43.4538 0.24667 -1.93131 0
M  V30 339 H 41.6248 2.56698 -2.9148 0
M  V30 340 H 43.3568 2.52907 -3.15944 0
M  V30 341 H 40.1118 1.11671 -4.60246 0
M  V30 342 H 40.5358 -0.371933 -6.75978 0
M  V30 343 H 45.1778 0.873237 -4.13684 0
M  V30 344 H 42.8958 -1.41466 -7.95621 0
M  V30 345 H 46.4818 -0.406731 -5.80377 0
M  V30 346 H 45.3618 -1.53464 -7.69037 0
M  V30 347 N 42.8649 1.48995 0.513639 0
M  V30 348 C 43.7749 1.67443 1.64317 0
M  V30 349 C 44.7909 0.556947 1.64846 0
M  V30 350 O 45.9669 0.830082 1.83498 0
M  V30 351 C 43.0319 1.72515 3.00732 0
M  V30 352 C 42.0929 2.96009 3.1093 0
M  V30 353 C 41.3259 3.00829 4.40837 0
M  V30 354 O 41.5489 2.13594 5.28898 0
M  V30 355 O 40.4829 3.93168 4.55744 0
M  V30 356 H 44.3089 2.63106 1.51687 0
M  V30 357 H 41.8939 1.32588 0.688543 0
M  V30 358 H 43.7759 1.78277 3.81831 0
M  V30 359 H 42.4509 0.800278 3.13651 0
M  V30 360 H 41.3579 2.9577 2.29065 0
M  V30 361 H 42.6909 3.87934 3.02933 0
M  V30 362 N 44.343 -0.763751 1.37857 0
M  V30 363 C 45.589 -1.52483 1.33704 0
M  V30 364 C 45.922 -1.94051 -0.0759612 0
M  V30 365 O 45.197 -1.64675 -1.03501 0
M  V30 366 C 45.48 -2.78441 2.28348 0
M  V30 367 C 45.333 -2.43075 3.78463 0
M  V30 368 C 46.652 -3.80415 2.21298 0
M  V30 369 H 43.771 -0.553169 0.487005 0
M  V30 370 H 46.413 -0.875562 1.68624 0
M  V30 371 H 44.563 -3.33842 1.987 0
M  V30 372 H 46.235 -1.93527 4.18742 0
M  V30 373 H 44.478 -1.75666 3.96641 0
M  V30 374 H 45.149 -3.33149 4.40132 0
M  V30 375 H 47.625 -3.34527 2.47449 0
M  V30 376 H 46.501 -4.66257 2.89647 0
M  V30 377 H 46.762 -4.25262 1.20849 0
M  V30 378 N 45.8211 -1.22559 -0.990812 0
M  V30 379 C 46.7841 -0.998863 -2.0629 0
M  V30 380 C 47.7841 0.0354834 -1.60761 0
M  V30 381 O 48.9741 -0.203231 -1.7301 0
M  V30 382 C 46.1061 -0.509203 -3.37076 0
M  V30 383 H 47.2991 -1.95014 -2.27837 0
M  V30 384 H 44.8521 -1.04456 -1.16269 0
M  V30 385 H 45.5871 0.446335 -3.21214 0
M  V30 386 H 45.3721 -1.25547 -3.71457 0
M  V30 387 H 46.8621 -0.370888 -4.1595 0
M  V30 388 N 47.2992 1.18797 -1.03562 0
M  V30 389 C 48.5452 1.8893 -0.737113 0
M  V30 390 C 48.8782 1.79837 0.732956 0
M  V30 391 O 48.1532 1.19525 1.5344 0
M  V30 392 C 48.4362 3.39607 -1.19745 0
M  V30 393 C 48.2892 3.57537 -2.72924 0
M  V30 394 C 49.6082 4.33069 -0.783526 0
M  V30 395 H 46.7272 0.686057 -0.269249 0
M  V30 396 H 49.3692 1.39797 -1.28673 0
M  V30 397 H 47.5192 3.81583 -0.729855 0
M  V30 398 H 49.1912 3.24688 -3.27682 0
M  V30 399 H 47.4342 3.00363 -3.12993 0
M  V30 400 H 48.1052 4.63238 -3.00191 0
M  V30 401 H 50.5812 3.98846 -1.18581 0
M  V30 402 H 49.4572 5.3707 -1.13343 0
M  V30 403 H 49.7182 4.40986 0.313681 0
M  V30 404 N 48.7773 0.814389 1.34928 0
M  V30 405 C 50.1933 0.499084 1.51596 0
M  V30 406 C 50.3933 -0.978319 1.76157 0
M  V30 407 O 49.4493 -1.76309 1.80752 0
M  V30 408 C 50.7623 1.35121 2.68631 0
M  V30 409 C 52.3103 1.34746 2.82511 0
M  V30 410 C 52.7853 2.18388 4.0258 0
M  V30 411 N 54.2763 2.15966 4.09772 0
M  V30 412 C 55.0113 2.77437 5.01813 0
M  V30 413 N 54.5073 3.47866 5.99134 0
M  V30 414 N 56.3003 2.67037 4.94619 0
M  V30 415 H 48.4513 1.7711 1.17243 0
M  V30 416 H 50.7143 0.754256 0.574284 0
M  V30 417 H 50.4203 2.40001 2.57085 0
M  V30 418 H 50.2943 1.00991 3.63429 0
M  V30 419 H 52.6813 0.30648 2.93504 0
M  V30 420 H 52.7623 1.72869 1.88547 0
M  V30 421 H 52.4063 3.2253 3.92347 0
M  V30 422 H 52.3363 1.77621 4.9574 0
M  V30 423 H 54.8273 1.64729 3.40107 0
M  V30 424 H 55.1403 3.92038 6.65977 0
M  V30 425 H 53.4853 3.51972 5.99284 0
M  V30 426 H 56.6763 2.11597 4.17546 0
M  V30 427 H 56.8493 3.15232 5.66156 0
M  V30 428 N 50.2554 -1.46986 0.568584 0
M  V30 429 C 51.6664 -1.86188 0.138219 0
M  V30 430 C 52.0174 -1.47388 -1.29504 0
M  V30 431 O 51.1424 -0.88219 -1.97602 0
M  V30 432 C 51.7374 -3.3792 0.244065 0
M  V30 433 C 50.2964 -3.76171 -0.131335 0
M  V30 434 C 49.4434 -2.71027 0.586465 0
M  V30 435 H 52.3944 -1.38342 0.777645 0
M  V30 436 H 52.4154 -3.76729 -0.534351 0
M  V30 437 H 51.9274 -3.66128 1.28731 0
M  V30 438 H 50.0284 -3.5358 -1.17526 0
M  V30 439 H 50.1414 -4.78523 0.235146 0
M  V30 440 H 48.5054 -2.54684 0.0282722 0
M  V30 441 H 49.2884 -3.02077 1.63109 0
M  V30 442 N 51.7335 -0.305618 -1.54608 0
M  V30 443 C 52.6635 0.561482 -2.26649 0
M  V30 444 C 53.6445 1.13415 -1.26772 0
M  V30 445 O 54.8295 1.16262 -1.55553 0
M  V30 446 C 51.9595 1.73122 -3.01075 0
M  V30 447 C 50.9135 1.2887 -4.08138 0
M  V30 448 C 50.2395 2.54396 -4.70305 0
M  V30 449 C 51.5395 0.416578 -5.20636 0
M  V30 450 H 53.2335 -0.0393902 -2.99374 0
M  V30 451 H 50.7795 -0.020385 -1.43986 0
M  V30 452 H 52.7325 2.34396 -3.50195 0
M  V30 453 H 51.4565 2.3584 -2.25936 0
M  V30 454 H 50.1155 0.698991 -3.59875 0
M  V30 455 H 49.7635 3.15439 -3.918 0
M  V30 456 H 49.4635 2.25486 -5.42614 0
M  V30 457 H 50.9875 3.16464 -5.2219 0
M  V30 458 H 52.4015 0.935116 -5.65622 0
M  V30 459 H 50.7985 0.221046 -5.99693 0
M  V30 460 H 51.8685 -0.557162 -4.81688 0
M  V30 461 N 53.2116 1.57565 -0.0334293 0
M  V30 462 C 54.1416 2.13511 0.945265 0
M  V30 463 C 55.1226 1.05231 1.33643 0
M  V30 464 O 56.3076 1.33084 1.41429 0
M  V30 465 C 53.4376 2.6657 2.22616 0
M  V30 466 C 52.3916 3.79676 1.97561 0
M  V30 467 C 51.7176 4.1918 3.31952 0
M  V30 468 C 53.0176 5.0557 1.31135 0
M  V30 469 H 54.7116 2.95538 0.479325 0
M  V30 470 H 52.2576 1.42166 0.229115 0
M  V30 471 H 54.2106 3.04344 2.91466 0
M  V30 472 H 52.9346 1.8171 2.71384 0
M  V30 473 H 51.5936 3.42347 1.31127 0
M  V30 474 H 51.2416 3.31296 3.78487 0
M  V30 475 H 50.9416 4.95402 3.15992 0
M  V30 476 H 52.4656 4.59541 4.02063 0
M  V30 477 H 53.8796 5.40903 1.89992 0
M  V30 478 H 52.2766 5.86818 1.25559 0
M  V30 479 H 53.3466 4.84062 0.284894 0
M  V30 480 N 54.6897 -0.239769 1.55765 0
M  V30 481 C 55.9147 -0.988373 1.82335 0
M  V30 482 C 56.3397 -1.77886 0.611421 0
M  V30 483 O 55.6977 -1.75889 -0.439639 0
M  V30 484 C 55.7457 -1.89627 3.06715 0
M  V30 485 O 54.8497 -2.98904 2.84131 0
M  V30 486 H 54.1907 -0.280858 0.601677 0
M  V30 487 H 56.7207 -0.258597 2.02959 0
M  V30 488 H 56.7307 -2.30957 3.36338 0
M  V30 489 H 55.4057 -1.31511 3.9456 0
M  V30 490 H 53.9827 -2.61651 2.65694 0
M  V30 491 N 56.1678 -1.49265 -0.50573 0
M  V30 492 C 57.1308 -1.65075 -1.59006 0
M  V30 493 C 58.1308 -0.522768 -1.52065 0
M  V30 494 O 59.3208 -0.789117 -1.55302 0
M  V30 495 C 56.4528 -1.64369 -2.98656 0
M  V30 496 H 57.6458 -2.61784 -1.46319 0
M  V30 497 H 55.1988 -1.38226 -0.729616 0
M  V30 498 H 55.9338 -0.692272 -3.16825 0
M  V30 499 H 55.7188 -2.46282 -3.05103 0
M  V30 500 H 57.2088 -1.78674 -3.77446 0
M  V30 501 N 57.6459 0.756429 -1.3826 0
M  V30 502 C 58.8709 1.55077 -1.37717 0
M  V30 503 C 59.2959 1.88073 0.03164 0
M  V30 504 O 58.6539 1.50364 1.01293 0
M  V30 505 C 58.7019 2.8283 -2.23695 0
M  V30 506 O 57.8059 3.77862 -1.6521 0
M  V30 507 H 57.1469 0.469152 -0.469885 0
M  V30 508 H 59.6769 0.935019 -1.81985 0
M  V30 509 H 59.6869 3.31783 -2.37453 0
M  V30 510 H 58.3619 2.58144 -3.2609 0
M  V30 511 H 56.9389 3.36555 -1.60578 0
M  V30 512 N 59.124 1.23083 0.984299 0
M  V30 513 C 60.354 1.08556 1.75781 0
M  V30 514 C 60.762 -0.366171 1.85623 0
M  V30 515 O 60.105 -1.26524 1.33182 0
M  V30 516 C 60.167 1.63208 3.20318 0
M  V30 517 C 59.831 3.11922 3.33997 0
M  V30 518 C 60.828 4.09259 3.2063 0
M  V30 519 C 58.513 3.51552 3.58771 0
M  V30 520 C 60.507 5.4421 3.31835 0
M  V30 521 C 58.194 4.86649 3.69616 0
M  V30 522 C 59.192 5.82787 3.56157 0
M  V30 523 O 58.88 7.15431 3.66626 0
M  V30 524 H 58.612 0.380713 0.5586 0
M  V30 525 H 61.166 1.63321 1.2456 0
M  V30 526 H 59.396 1.0286 3.72769 0
M  V30 527 H 61.085 1.44216 3.79416 0
M  V30 528 H 61.851 3.79984 3.01392 0
M  V30 529 H 57.73 2.77239 3.6832 0
M  V30 530 H 61.274 6.1923 3.21247 0
M  V30 531 H 57.171 5.15601 3.88363 0
M  V30 532 H 57.939 7.23127 3.83445 0
M  V30 533 N 60.6021 -1.18246 1.0419 0
M  V30 534 C 61.8271 -1.92736 0.765996 0
M  V30 535 C 62.2521 -1.75728 -0.67091 0
M  V30 536 O 61.6101 -1.06825 -1.46486 0
M  V30 537 C 61.6581 -3.42148 1.13875 0
M  V30 538 O 60.7621 -4.11548 0.264954 0
M  V30 539 H 60.1031 -0.601238 0.281797 0
M  V30 540 H 62.6331 -1.49942 1.39207 0
M  V30 541 H 62.6431 -3.92858 1.1012 0
M  V30 542 H 61.3181 -3.53848 2.18551 0
M  V30 543 H 59.8951 -3.71137 0.362226 0
M  V30 544 N 62.0802 -0.821533 -1.34494 0
M  V30 545 C 63.0432 -0.247847 -2.27856 0
M  V30 546 C 64.0432 0.573453 -1.50227 0
M  V30 547 O 65.2332 0.389759 -1.69784 0
M  V30 548 C 62.3652 0.652698 -3.34593 0
M  V30 549 H 63.5582 -1.07146 -2.80107 0
M  V30 550 H 61.1112 -0.593291 -1.44602 0
M  V30 551 H 61.8462 1.49943 -2.87555 0
M  V30 552 H 61.6312 0.065292 -3.92046 0
M  V30 553 H 63.1212 1.04793 -4.04238 0
M  V30 554 N 63.5583 1.46682 -0.576371 0
M  V30 555 C 64.8053 2.02412 -0.0595339 0
M  V30 556 C 65.1333 1.44859 1.29793 0
M  V30 557 O 64.3883 0.601099 1.8624 0
M  V30 558 C 64.6873 3.57345 0.062886 0
M  V30 559 C 64.3533 4.33908 -1.22616 0
M  V30 560 C 63.0153 4.54544 -1.57933 0
M  V30 561 C 65.3673 4.77919 -2.07948 0
M  V30 562 C 62.6953 5.16444 -2.78393 0
M  V30 563 C 65.0473 5.41149 -3.27629 0
M  V30 564 C 63.7113 5.60014 -3.63236 0
M  V30 565 H 62.9813 0.74068 -0.021785 0
M  V30 566 H 65.6283 1.76128 -0.751735 0
M  V30 567 H 63.9333 3.82729 0.838178 0
M  V30 568 H 65.6303 3.98136 0.478439 0
M  V30 569 H 62.2203 4.18138 -0.941202 0
M  V30 570 H 66.4043 4.61738 -1.81967 0
M  V30 571 H 61.6603 5.29242 -3.06126 0
M  V30 572 H 65.8343 5.74211 -3.94023 0
M  V30 573 H 63.4613 6.07748 -4.56669 0
M  V30 574 N 65.0364 0.313813 1.54444 0
M  V30 575 C 65.9464 -0.565714 2.27677 0
M  V30 576 C 66.9624 -1.13754 1.31666 0
M  V30 577 O 68.1384 -1.15959 1.64668 0
M  V30 578 C 65.2034 -1.71528 3.01296 0
M  V30 579 C 64.2644 -1.17624 4.12872 0
M  V30 580 C 63.4974 -2.27102 4.8297 0
M  V30 581 O 63.7204 -3.47256 4.52514 0
M  V30 582 O 62.6544 -1.9307 5.70094 0
M  V30 583 H 66.4804 0.0287296 3.03686 0
M  V30 584 H 64.0654 0.0798312 1.49187 0
M  V30 585 H 65.9474 -2.38476 3.4743 0
M  V30 586 H 64.6224 -2.29608 2.2817 0
M  V30 587 H 63.5294 -0.472124 3.71109 0
M  V30 588 H 64.8624 -0.640695 4.88012 0
M  V30 589 N 66.5145 -1.57545 0.0417849 0
M  V30 590 C 67.4475 -2.06514 -0.970928 0
M  V30 591 C 68.4255 -0.963607 -1.30971 0
M  V30 592 O 69.6095 -1.23486 -1.4242 0
M  V30 593 C 66.7365 -2.4978 -2.28752 0
M  V30 594 C 65.7825 -3.71078 -2.10246 0
M  V30 595 S 66.6155 -5.17158 -1.38952 0
M  V30 596 C 67.7715 -5.6373 -2.71954 0
M  V30 597 H 68.0045 -2.9209 -0.554129 0
M  V30 598 H 65.5375 -1.53459 -0.17024 0
M  V30 599 H 67.4955 -2.75371 -3.04435 0
M  V30 600 H 66.1565 -1.64527 -2.67562 0
M  V30 601 H 65.3495 -3.9924 -3.07609 0
M  V30 602 H 64.9515 -3.45705 -1.42704 0
M  V30 603 H 67.2435 -5.68743 -3.68154 0
M  V30 604 H 68.1865 -6.63086 -2.4844 0
M  V30 605 H 68.5945 -4.91424 -2.77782 0
M  V30 606 N 67.9926 0.231505 -1.5589 0
M  V30 607 C 68.9396 1.28682 -1.91598 0
M  V30 608 C 69.9096 1.47071 -0.771974 0
M  V30 609 O 71.0946 1.60802 -1.027 0
M  V30 610 C 68.2346 2.6342 -2.22944 0
M  V30 611 C 67.3476 2.52912 -3.50228 0
M  V30 612 C 66.4826 3.80106 -3.7107 0
M  V30 613 C 65.5216 3.64279 -4.91902 0
M  V30 614 N 64.6586 4.834 -5.09184 0
M  V30 615 H 69.4986 0.975305 -2.81588 0
M  V30 616 H 67.0356 0.470299 -1.39379 0
M  V30 617 H 68.9936 3.41869 -2.39126 0
M  V30 618 H 67.6236 2.92687 -1.36139 0
M  V30 619 H 66.6756 1.6595 -3.42294 0
M  V30 620 H 67.9876 2.37133 -4.38827 0
M  V30 621 H 67.1416 4.66999 -3.87295 0
M  V30 622 H 65.8806 3.98799 -2.80733 0
M  V30 623 H 64.8856 2.7577 -4.75637 0
M  V30 624 H 66.1106 3.47067 -5.83714 0
M  V30 625 H 64.0566 5.02425 -4.21788 0
M  V30 626 H 63.9736 4.70311 -5.91898 0
M  V30 627 H 65.2416 5.71747 -5.29835 0
M  V30 628 N 69.4707 1.49531 0.497807 0
M  V30 629 C 70.3807 1.69176 1.62532 0
M  V30 630 C 71.3967 0.5744 1.64246 0
M  V30 631 O 72.5727 0.849497 1.82608 0
M  V30 632 C 69.6377 1.75695 2.98885 0
M  V30 633 C 68.6987 2.9929 3.07773 0
M  V30 634 C 67.9317 3.05488 4.37622 0
M  V30 635 O 68.1547 2.19192 5.26603 0
M  V30 636 O 67.0887 3.9798 4.51548 0
M  V30 637 H 70.9147 2.647 1.48887 0
M  V30 638 H 68.4997 1.3331 0.674441 0
M  V30 639 H 70.3817 1.82317 3.79919 0
M  V30 640 H 69.0567 0.8335 3.12785 0
M  V30 641 H 67.9637 2.98183 2.25915 0
M  V30 642 H 69.2967 3.91125 2.98801 0
M  V30 643 N 70.9488 -0.749086 1.3866 0
M  V30 644 C 71.8788 -1.8764 1.38973 0
M  V30 645 C 72.8598 -1.68178 0.255004 0
M  V30 646 O 74.0448 -1.88704 0.458754 0
M  V30 647 C 71.1748 -3.25222 1.21851 0
M  V30 648 C 70.1288 -3.59295 2.32575 0
M  V30 649 C 69.4548 -4.95663 2.00555 0
M  V30 650 C 70.7548 -3.63709 3.7485 0
M  V30 651 H 72.4488 -1.87635 2.3331 0
M  V30 652 H 69.9948 -0.901329 1.12303 0
M  V30 653 H 71.9478 -4.03746 1.20695 0
M  V30 654 H 70.6718 -3.25719 0.239775 0
M  V30 655 H 69.3308 -2.83093 2.32925 0
M  V30 656 H 68.9788 -4.92724 1.01154 0
M  V30 657 H 68.6788 -5.19429 2.74714 0
M  V30 658 H 70.2028 -5.7656 2.01024 0
M  V30 659 H 71.6168 -4.32338 3.76506 0
M  V30 660 H 70.0138 -3.98986 4.48252 0
M  V30 661 H 71.0838 -2.63834 4.06841 0
M  V30 662 N 72.4269 -1.23603 -0.977757 0
M  V30 663 C 73.8379 -1.06424 -1.53398 0
M  V30 664 C 74.1889 0.367578 -1.92726 0
M  V30 665 O 73.3139 1.25465 -1.76316 0
M  V30 666 C 73.9089 -1.92568 -2.78753 0
M  V30 667 C 72.4679 -1.79642 -3.30765 0
M  V30 668 C 71.6149 -1.88111 -2.03739 0
M  V30 669 H 74.5659 -1.37227 -0.797152 0
M  V30 670 H 74.5869 -1.45203 -3.51705 0
M  V30 671 H 74.0989 -2.96771 -2.50098 0
M  V30 672 H 72.1999 -0.782325 -3.64294 0
M  V30 673 H 72.3129 -2.63174 -4.00345 0
M  V30 674 H 70.6769 -1.31723 -2.17994 0
M  V30 675 H 71.4599 -2.93875 -1.77461 0
M  V30 676 N 73.905 1.17692 -1.04816 0
M  V30 677 C 74.837 2.21103 -0.603822 0
M  V30 678 C 75.85 1.59411 0.33046 0
M  V30 679 O 77.039 1.7807 0.12379 0
M  V30 680 C 74.139 3.38623 0.136898 0
M  V30 681 C 73.312 4.29888 -0.807137 0
M  V30 682 C 72.371 5.26088 -0.10836 0
M  V30 683 O 71.397 5.64353 -0.741232 0
M  V30 684 N 72.599 5.68882 1.15558 0
M  V30 685 H 75.364 2.59848 -1.49329 0
M  V30 686 H 72.925 1.32553 -0.929587 0
M  V30 687 H 74.917 4.00009 0.614401 0
M  V30 688 H 73.487 2.98508 0.927993 0
M  V30 689 H 72.707 3.65993 -1.46434 0
M  V30 690 H 73.995 4.87759 -1.44807 0
M  V30 691 H 73.393 5.39861 1.69015 0
M  V30 692 H 71.95 6.32429 1.57722 0
M  V30 693 N 75.3831 0.828654 1.34056 0
M  V30 694 C 76.3131 0.269443 2.3194 0
M  V30 695 C 77.2941 -0.617247 1.58506 0
M  V30 696 O 78.4791 -0.542931 1.86456 0
M  V30 697 C 75.6091 -0.564793 3.42677 0
M  V30 698 C 74.5631 0.225241 4.27407 0
M  V30 699 C 73.8891 -0.7321 5.29664 0
M  V30 700 C 75.1891 1.43663 5.02154 0
M  V30 701 H 76.8831 1.08728 2.7896 0
M  V30 702 H 74.4291 0.524283 1.34117 0
M  V30 703 H 76.3821 -0.966233 4.10173 0
M  V30 704 H 75.1061 -1.41574 2.9432 0
M  V30 705 H 73.7651 0.608117 3.61521 0
M  V30 706 H 73.4131 -1.57916 4.77568 0
M  V30 707 H 73.1131 -0.20767 5.87233 0
M  V30 708 H 74.6371 -1.13128 6.00029 0
M  V30 709 H 76.0511 1.1089 5.62473 0
M  V30 710 H 74.4481 1.89711 5.69324 0
M  V30 711 H 75.5181 2.21181 4.31517 0
M  V30 712 N 76.8612 -1.46375 0.584142 0
M  V30 713 C 78.1072 -2.02678 0.0703716 0
M  V30 714 C 78.4402 -1.4545 -1.28678 0
M  V30 715 O 77.7152 -0.62014 -1.84349 0
M  V30 716 C 77.9982 -3.60099 0.00614674 0
M  V30 717 C 77.8512 -4.27709 1.3923 0
M  V30 718 C 79.1702 -4.34598 -0.693742 0
M  V30 719 H 76.2892 -0.736504 0.027047 0
M  V30 720 H 78.9312 -1.74501 0.751615 0
M  V30 721 H 77.0812 -3.84236 -0.574009 0
M  V30 722 H 78.7532 -4.14832 2.01773 0
M  V30 723 H 76.9962 -3.87016 1.95962 0
M  V30 724 H 77.6672 -5.36478 1.29982 0
M  V30 725 H 80.1432 -4.15615 -0.200869 0
M  V30 726 H 79.0192 -5.44318 -0.707714 0
M  V30 727 H 79.2802 -4.05759 -1.75533 0
M  V30 728 N 78.3393 -0.321999 -1.54275 0
M  V30 729 C 79.3023 0.531975 -2.22941 0
M  V30 730 C 80.3023 1.04478 -1.22234 0
M  V30 731 O 81.4923 0.937452 -1.46825 0
M  V30 732 C 78.6243 1.73874 -2.93224 0
M  V30 733 H 79.8173 -0.0682612 -2.99822 0
M  V30 734 H 77.3703 -0.0730644 -1.56129 0
M  V30 735 H 78.1053 2.37825 -2.20476 0
M  V30 736 H 77.8903 1.37847 -3.6707 0
M  V30 737 H 79.3803 2.34496 -3.45545 0
M  V30 738 N 79.8174 1.5752 -0.0501392 0
M  V30 739 C 81.0424 1.97376 0.636997 0
M  V30 740 C 81.4674 0.927466 1.63645 0
M  V30 741 O 80.8254 -0.10941 1.8097 0
M  V30 742 C 80.8734 3.36304 1.30123 0
M  V30 743 O 79.9774 3.34156 2.41689 0
M  V30 744 H 79.3184 0.642998 0.165679 0
M  V30 745 H 81.8484 2.04258 -0.118233 0
M  V30 746 H 81.8584 3.73008 1.65315 0
M  V30 747 H 80.5334 4.11993 0.568746 0
M  V30 748 H 79.1104 3.09196 2.08451 0
M  V30 749 N 81.2955 -0.223234 1.56011 0
M  V30 750 C 82.5415 -0.949279 1.79211 0
M  V30 751 C 82.8745 -1.84054 0.619494 0
M  V30 752 O 82.1495 -1.90726 -0.381317 0
M  V30 753 C 82.4325 -1.78965 3.12479 0
M  V30 754 C 82.2855 -0.924997 4.40186 0
M  V30 755 C 83.6045 -2.76774 3.42175 0
M  V30 756 H 80.7235 -0.343676 0.651963 0
M  V30 757 H 83.3655 -0.218253 1.88742 0
M  V30 758 H 81.5155 -2.41291 3.04485 0
M  V30 759 H 83.1875 -0.318615 4.60198 0
M  V30 760 H 81.4305 -0.230344 4.33188 0
M  V30 761 H 82.1015 -1.54735 5.29869 0
M  V30 762 H 84.5775 -2.24584 3.50287 0
M  V30 763 H 83.4535 -3.32678 4.36597 0
M  V30 764 H 83.7145 -3.54429 2.64258 0
M  V30 765 N 82.7736 -1.49793 -0.48987 0
M  V30 766 C 84.0226 -1.59085 -1.23995 0
M  V30 767 C 84.3356 -0.287907 -1.9347 0
M  V30 768 O 85.5416 -0.259506 -2.70257 0
M  V30 769 C 83.9976 -2.80736 -2.252 0
M  V30 770 C 83.6056 -4.17833 -1.61614 0
M  V30 771 C 85.3496 -2.99364 -3.00967 0
M  V30 772 C 83.2566 -5.30693 -2.60996 0
M  V30 773 H 82.1866 -0.592372 -0.466488 0
M  V30 774 H 84.8376 -1.76197 -0.51252 0
M  V30 775 H 83.2196 -2.57142 -3.01154 0
M  V30 776 H 84.3936 -4.51608 -0.915774 0
M  V30 777 H 82.7086 -4.04656 -0.981977 0
M  V30 778 H 85.3056 -3.80851 -3.75308 0
M  V30 779 H 85.6486 -2.10356 -3.59244 0
M  V30 780 H 86.1816 -3.2305 -2.32128 0
M  V30 781 H 82.9206 -6.21796 -2.07485 0
M  V30 782 H 82.4406 -5.01359 -3.2924 0
M  V30 783 H 84.1196 -5.6049 -3.23202 0
M  V30 784 N 84.2517 0.741722 -1.39055 0
M  V30 785 C 85.1617 1.88621 -1.39496 0
M  V30 786 C 86.1777 1.71557 -0.290578 0
M  V30 787 O 87.3537 1.94275 -0.530954 0
M  V30 788 C 84.4187 3.24134 -1.23037 0
M  V30 789 C 83.4797 3.5364 -2.43387 0
M  V30 790 C 82.7127 4.82687 -2.27703 0
M  V30 791 O 82.9357 5.55922 -1.27696 0
M  V30 792 O 81.8697 5.1194 -3.16545 0
M  V30 793 H 85.6957 1.91203 -2.35956 0
M  V30 794 H 83.2807 0.888625 -1.20099 0
M  V30 795 H 85.1627 4.0513 -1.15964 0
M  V30 796 H 83.8377 3.22337 -0.296691 0
M  V30 797 H 82.7447 2.72758 -2.56035 0
M  V30 798 H 84.0777 3.60209 -3.35425 0
M  V30 799 N 85.7298 1.2412 0.971189 0
M  V30 800 C 86.9548 1.10667 1.75407 0
M  V30 801 C 87.3798 -0.337048 1.85056 0
M  V30 802 O 86.7378 -1.24396 1.31892 0
M  V30 803 C 86.7858 1.74726 3.15441 0
M  V30 804 O 85.8898 1.01566 3.99697 0
M  V30 805 H 85.2308 0.387341 0.539317 0
M  V30 806 H 87.7608 1.64358 1.2185 0
M  V30 807 H 87.7708 1.80341 3.6598 0
M  V30 808 H 86.4458 2.79773 3.07734 0
M  V30 809 H 85.0228 1.03713 3.58187 0
M  V30 810 N 87.2079 -1.17134 1.05439 0
M  V30 811 C 88.1179 -2.24878 0.668365 0
M  V30 812 C 89.1339 -1.71186 -0.311687 0
M  V30 813 O 90.3099 -2.00738 -0.163161 0
M  V30 814 C 87.3749 -3.46662 0.051648 0
M  V30 815 C 86.4359 -4.15429 1.08246 0
M  V30 816 C 85.6689 -5.31399 0.495082 0
M  V30 817 O 85.8919 -5.66153 -0.694743 0
M  V30 818 O 84.8259 -5.89187 1.23056 0
M  V30 819 H 88.6519 -2.60189 1.56637 0
M  V30 820 H 86.2369 -1.24482 0.826104 0
M  V30 821 H 88.1189 -4.20394 -0.290966 0
M  V30 822 H 86.7939 -3.13142 -0.819971 0
M  V30 823 H 85.7009 -3.43704 1.47711 0
M  V30 824 H 87.0339 -4.52982 1.92532 0
M  V30 825 N 88.686 -0.835752 -1.33615 0
M  V30 826 C 89.911 -0.442389 -2.02627 0
M  V30 827 C 90.336 0.947735 -1.62479 0
M  V30 828 O 89.694 1.61907 -0.815826 0
M  V30 829 C 89.742 -0.567216 -3.56111 0
M  V30 830 O 88.846 0.407799 -4.10379 0
M  V30 831 H 88.187 -0.180278 -0.639059 0
M  V30 832 H 90.717 -1.12972 -1.70583 0
M  V30 833 H 90.727 -0.447708 -4.05536 0
M  V30 834 H 89.402 -1.58103 -3.84677 0
M  V30 835 H 87.979 0.246107 -3.72087 0
M  V30 836 N 90.1641 1.46063 -0.591896 0
M  V30 837 C 91.0741 2.34192 0.13831 0
M  V30 838 C 92.0901 1.50305 0.876608 0
M  V30 839 O 93.2661 1.8315 0.837728 0
M  V30 840 C 90.3311 3.27656 1.13326 0
M  V30 841 C 89.3921 4.27445 0.39863 0
M  V30 842 C 88.6251 5.16443 1.34618 0
M  V30 843 O 88.8481 5.08553 2.58321 0
M  V30 844 O 87.7821 5.95843 0.851768 0
M  V30 845 H 91.6081 2.98002 -0.58552 0
M  V30 846 H 89.1931 1.45188 -0.352239 0
M  V30 847 H 91.0751 3.85291 1.70671 0
M  V30 848 H 89.7501 2.6643 1.83839 0
M  V30 849 H 88.6571 3.73471 -0.216895 0
M  V30 850 H 89.9901 4.91482 -0.265709 0
M  V30 851 N 91.6422 0.330177 1.54103 0
M  V30 852 C 92.8912 -0.271336 1.99867 0
M  V30 853 C 93.2042 -1.52723 1.22209 0
M  V30 854 O 94.4102 -2.20515 1.58383 0
M  V30 855 C 92.8662 -0.534032 3.55916 0
M  V30 856 C 92.4742 0.705193 4.42415 0
M  V30 857 C 94.2182 -1.09514 4.1013 0
M  V30 858 C 92.1252 0.414035 5.89949 0
M  V30 859 H 91.0552 -0.105166 0.74663 0
M  V30 860 H 93.7062 0.443429 1.78062 0
M  V30 861 H 92.0882 -1.30915 3.73734 0
M  V30 862 H 93.2622 1.4804 4.36372 0
M  V30 863 H 91.5772 1.18698 3.99124 0
M  V30 864 H 94.1742 -1.3277 5.17954 0
M  V30 865 H 94.5172 -2.04656 3.62521 0
M  V30 866 H 95.0502 -0.381038 3.95971 0
M  V30 867 H 91.7892 1.33481 6.41766 0
M  V30 868 H 91.3092 -0.323336 5.98928 0
M  V30 869 H 92.9882 0.0263105 6.46995 0
M  V30 870 N 93.1203 -1.57491 0.0584922 0
M  V30 871 C 94.0503 -2.14988 -0.911178 0
M  V30 872 C 95.0313 -1.07343 -1.31952 0
M  V30 873 O 96.2163 -1.35318 -1.39294 0
M  V30 874 C 93.3463 -2.70078 -2.18347 0
M  V30 875 C 92.3003 -3.82771 -1.91495 0
M  V30 876 C 91.6263 -4.24408 -3.25241 0
M  V30 877 C 92.9263 -5.07592 -1.23075 0
M  V30 878 H 94.6203 -2.96263 -0.432246 0
M  V30 879 H 92.1663 -1.42512 -0.206469 0
M  V30 880 H 94.1193 -3.08943 -2.86587 0
M  V30 881 H 92.8433 -1.86005 -2.68458 0
M  V30 882 H 91.5023 -3.44389 -1.25664 0
M  V30 883 H 91.1503 -3.37275 -3.73168 0
M  V30 884 H 90.8503 -5.00366 -3.08071 0
M  V30 885 H 92.3743 -4.65879 -3.94701 0
M  V30 886 H 93.7883 -5.43857 -1.81362 0
M  V30 887 H 92.1853 -5.88741 -1.16207 0
M  V30 888 H 93.2553 -4.84454 -0.207847 0
M  V30 889 N 94.5984 0.214957 -1.56127 0
M  V30 890 C 95.5484 1.27006 -1.8935 0
M  V30 891 C 96.5324 1.41969 -0.757202 0
M  V30 892 O 97.7244 1.44673 -1.01973 0
M  V30 893 C 94.8534 2.61911 -2.2194 0
M  V30 894 C 93.9394 2.50822 -3.41978 0
M  V30 895 N 94.3304 2.09391 -4.60423 0
M  V30 896 C 92.6284 2.81765 -3.45723 0
M  V30 897 C 93.3294 2.09712 -5.42582 0
M  V30 898 N 92.3054 2.50454 -4.82466 0
M  V30 899 H 96.1074 0.940734 -2.78437 0
M  V30 900 H 93.6214 0.423492 -1.56781 0
M  V30 901 H 95.6184 3.38096 -2.43919 0
M  V30 902 H 94.2784 2.95684 -1.34169 0
M  V30 903 H 95.2894 1.80416 -4.85459 0
M  V30 904 H 91.9664 3.19865 -2.68314 0
M  V30 905 H 93.3564 1.79748 -6.4741 0
M  V30 906 N 96.0765 1.50051 0.48192 0
M  V30 907 C 97.0265 1.64512 1.5786 0
M  V30 908 C 98.0105 0.500073 1.52932 0
M  V30 909 O 99.2025 0.753964 1.60139 0
M  V30 910 C 96.3315 1.73263 2.9637 0
M  V30 911 C 95.4175 2.93409 3.06222 0
M  V30 912 N 95.8085 4.17236 2.85915 0
M  V30 913 C 94.1065 2.91742 3.37346 0
M  V30 914 C 94.8075 4.981 3.00451 0
M  V30 915 N 93.7835 4.3184 3.30174 0
M  V30 916 H 97.5855 2.57955 1.40842 0
M  V30 917 H 95.0995 1.47086 0.688439 0
M  V30 918 H 97.0965 1.81724 3.75209 0
M  V30 919 H 95.7565 0.809711 3.14442 0
M  V30 920 H 96.7675 4.46909 2.6171 0
M  V30 921 H 93.4445 2.08907 3.61475 0
M  V30 922 H 94.8345 6.06532 2.89082 0
M  V30 923 N 97.5546 -0.734337 1.39446 0
M  V30 924 C 98.4646 -1.87879 1.40495 0
M  V30 925 C 99.4806 -1.714 0.299672 0
M  V30 926 O 100.657 -1.93991 0.541249 0
M  V30 927 C 97.7216 -3.23477 1.24754 0
M  V30 928 C 96.7826 -3.52344 2.45259 0
M  V30 929 C 96.0156 -4.81473 2.30259 0
M  V30 930 O 96.2386 -5.55237 1.30643 0
M  V30 931 O 95.1726 -5.10254 3.19256 0
M  V30 932 H 98.9986 -1.89949 2.36966 0
M  V30 933 H 96.5836 -0.882243 1.20569 0
M  V30 934 H 98.4656 -4.04509 1.18111 0
M  V30 935 H 97.1406 -3.22176 0.313781 0
M  V30 936 H 96.0476 -2.71396 2.57478 0
M  V30 937 H 97.3806 -3.58426 3.37331 0
M  V30 938 N 99.0327 -1.24633 -0.964593 0
M  V30 939 C 99.9797 -1.04144 -2.05968 0
M  V30 940 C 100.95 0.046262 -1.66036 0
M  V30 941 O 102.135 -0.108972 -1.90489 0
M  V30 942 C 99.2747 -0.65563 -3.38815 0
M  V30 943 C 98.3877 -1.81714 -3.91923 0
M  V30 944 C 97.5227 -1.37662 -5.13052 0
M  V30 945 C 96.5617 -2.50788 -5.58365 0
M  V30 946 N 95.6987 -2.07582 -6.70712 0
M  V30 947 H 100.539 -1.9787 -2.22827 0
M  V30 948 H 98.0757 -0.9855 -1.09208 0
M  V30 949 H 100.034 -0.412954 -4.15151 0
M  V30 950 H 98.6637 0.244627 -3.21872 0
M  V30 951 H 97.7157 -2.1734 -3.12198 0
M  V30 952 H 99.0277 -2.66705 -4.21509 0
M  V30 953 H 98.1817 -1.093 -5.96773 0
M  V30 954 H 96.9207 -0.497293 -4.85158 0
M  V30 955 H 95.9257 -2.79906 -4.73215 0
M  V30 956 H 97.1507 -3.39283 -5.88272 0
M  V30 957 H 95.0967 -1.22051 -6.44546 0
M  V30 958 H 95.0137 -2.86125 -6.99763 0
M  V30 959 H 96.2817 -1.82369 -7.57867 0
M  V30 960 N 100.511 1.16574 -1.06058 0
M  V30 961 C 101.443 2.2045 -0.627239 0
M  V30 962 C 102.456 1.59752 0.313534 0
M  V30 963 O 103.645 1.78192 0.104896 0
M  V30 964 C 100.745 3.3875 0.100974 0
M  V30 965 C 99.9178 4.29008 -0.852687 0
M  V30 966 C 98.9768 5.25944 -0.164152 0
M  V30 967 O 98.0028 5.63535 -0.801047 0
M  V30 968 N 99.2048 5.70075 1.09518 0
M  V30 969 H 101.97 2.58249 -1.52077 0
M  V30 970 H 99.5308 1.3156 -0.943594 0
M  V30 971 H 101.523 4.00638 0.57194 0
M  V30 972 H 100.093 2.99476 0.89628 0
M  V30 973 H 99.3128 3.64419 -1.50308 0
M  V30 974 H 100.601 4.86195 -1.49972 0
M  V30 975 H 99.9988 5.41624 1.6328 0
M  V30 976 H 98.5558 6.34067 1.51006 0
M  V30 977 N 101.989 0.842826 1.3317 0
M  V30 978 C 103.219 0.453397 2.01564 0
M  V30 979 C 103.627 -0.951147 1.63554 0
M  V30 980 O 102.97 -1.63021 0.846746 0
M  V30 981 C 103.032 0.499013 3.5602 0
M  V30 982 C 102.696 1.86037 4.1742 0
M  V30 983 C 103.693 2.82416 4.36506 0
M  V30 984 C 101.378 2.15428 4.53757 0
M  V30 985 C 103.372 4.06346 4.91082 0
M  V30 986 C 101.059 3.39615 5.0804 0
M  V30 987 C 102.057 4.3489 5.26649 0
M  V30 988 O 101.745 5.5688 5.79776 0
M  V30 989 H 101.477 0.177871 0.652179 0
M  V30 990 H 104.031 1.13808 1.70988 0
M  V30 991 H 102.261 -0.242467 3.85939 0
M  V30 992 H 103.95 0.126852 4.05702 0
M  V30 993 H 104.716 2.6101 4.08777 0
M  V30 994 H 100.595 1.42061 4.38565 0
M  V30 995 H 104.139 4.80722 5.05522 0
M  V30 996 H 100.036 3.60876 5.352 0
M  V30 997 H 100.804 5.58674 5.98185 0
M  V30 998 N 103.467 -1.45747 0.599634 0
M  V30 999 C 104.377 -2.34262 -0.125888 0
M  V30 1000 C 105.393 -1.50768 -0.868625 0
M  V30 1001 O 106.569 -1.83592 -0.828003 0
M  V30 1002 C 103.634 -3.28252 -1.11587 0
M  V30 1003 C 102.695 -4.27651 -0.375956 0
M  V30 1004 C 101.928 -5.1715 -1.31877 0
M  V30 1005 O 102.151 -5.09916 -2.55621 0
M  V30 1006 O 101.085 -5.96286 -0.820157 0
M  V30 1007 H 104.911 -2.97688 0.601315 0
M  V30 1008 H 102.496 -1.44999 0.359934 0
M  V30 1009 H 104.378 -3.86191 -1.68626 0
M  V30 1010 H 103.053 -2.67401 -1.82424 0
M  V30 1011 H 101.96 -3.7335 0.236698 0
M  V30 1012 H 103.293 -4.91334 0.29177 0
M  V30 1013 N 104.945 -0.338344 -1.53925 0
M  V30 1014 C 106.356 0.146651 -1.86123 0
M  V30 1015 C 106.707 1.5042 -1.2597 0
M  V30 1016 O 105.832 2.08723 -0.571294 0
M  V30 1017 C 106.427 0.272879 -3.37699 0
M  V30 1018 C 104.986 0.702103 -3.69794 0
M  V30 1019 C 104.133 -0.167304 -2.76795 0
M  V30 1020 H 107.084 -0.558123 -1.48562 0
M  V30 1021 H 107.105 1.10128 -3.64214 0
M  V30 1022 H 106.617 -0.715307 -3.81451 0
M  V30 1023 H 104.718 1.6995 -3.31584 0
M  V30 1024 H 104.831 0.495604 -4.7653 0
M  V30 1025 H 103.195 0.359527 -2.5215 0
M  V30 1026 H 103.978 -1.15253 -3.23375 0
M  V30 1027 N 106.423 1.57458 -0.0668435 0
M  V30 1028 C 107.67 1.93301 0.603406 0
M  V30 1029 C 107.998 0.946486 1.69917 0
M  V30 1030 O 107.253 -0.0387021 1.95662 0
M  V30 1031 C 107.552 3.35784 1.22409 0
M  V30 1032 C 107.218 4.50179 0.254955 0
M  V30 1033 C 105.88 4.81199 -0.0116746 0
M  V30 1034 C 108.232 5.19598 -0.408338 0
M  V30 1035 C 105.56 5.78978 -0.94877 0
M  V30 1036 C 107.912 6.18381 -1.33372 0
M  V30 1037 C 106.576 6.47821 -1.60887 0
M  V30 1038 H 105.846 0.707338 0.220802 0
M  V30 1039 H 108.493 1.91012 -0.136665 0
M  V30 1040 H 106.798 3.34515 2.03978 0
M  V30 1041 H 108.495 3.60804 1.74989 0
M  V30 1042 H 105.085 4.25983 0.472954 0
M  V30 1043 H 109.269 4.95832 -0.215456 0
M  V30 1044 H 104.525 6.00115 -1.16925 0
M  V30 1045 H 108.699 6.71277 -1.85367 0
M  V30 1046 H 106.326 7.23399 -2.33661 0
M  V30 1047 N 107.901 -0.206675 1.56239 0
M  V30 1048 C 109.131 -0.943975 1.83773 0
M  V30 1049 C 109.539 -1.77841 0.645703 0
M  V30 1050 O 108.882 -1.79403 -0.395008 0
M  V30 1051 C 108.944 -1.899 3.05251 0
M  V30 1052 C 108.608 -1.24764 4.39639 0
M  V30 1053 C 109.605 -0.630216 5.16066 0
M  V30 1054 C 107.29 -1.25496 4.8637 0
M  V30 1055 C 109.284 -0.0287946 6.37393 0
M  V30 1056 C 106.971 -0.649698 6.07637 0
M  V30 1057 C 107.969 -0.0376845 6.8299 0
M  V30 1058 O 107.657 0.55812 8.0196 0
M  V30 1059 H 107.389 -0.281508 0.614597 0
M  V30 1060 H 109.943 -0.222458 2.04192 0
M  V30 1061 H 108.173 -2.6599 2.80689 0
M  V30 1062 H 109.862 -2.5031 3.1953 0
M  V30 1063 H 110.628 -0.616785 4.81062 0
M  V30 1064 H 106.507 -1.72072 4.27683 0
M  V30 1065 H 110.051 0.449518 6.9615 0
M  V30 1066 H 105.948 -0.660592 6.42111 0
M  V30 1067 H 106.716 0.453891 8.17241 0
M  V30 1068 N 109.379 -1.50304 -0.473955 0
M  V30 1069 C 110.604 -1.65175 -1.25427 0
M  V30 1070 C 111.029 -0.333673 -1.85117 0
M  V30 1071 O 110.387 0.702114 -1.67153 0
M  V30 1072 C 110.435 -2.74295 -2.34082 0
M  V30 1073 O 109.539 -2.35349 -3.38651 0
M  V30 1074 H 108.88 -0.551944 -0.369126 0
M  V30 1075 H 111.41 -1.96662 -0.564364 0
M  V30 1076 H 111.42 -2.97285 -2.79438 0
M  V30 1077 H 110.095 -3.69959 -1.90008 0
M  V30 1078 H 108.672 -2.22794 -2.99027 0
M  V30 1079 N 110.857 0.726932 -1.39834 0
M  V30 1080 C 112.082 1.52121 -1.40976 0
M  V30 1081 C 112.507 1.88098 -0.00826029 0
M  V30 1082 O 111.865 1.52479 0.980807 0
M  V30 1083 C 111.913 2.78021 -2.29644 0
M  V30 1084 O 111.017 3.74272 -1.73188 0
M  V30 1085 H 110.358 0.45908 -0.479731 0
M  V30 1086 H 112.888 0.896207 -1.83927 0
M  V30 1087 H 112.898 3.26671 -2.44438 0
M  V30 1088 H 111.573 2.51169 -3.31492 0
M  V30 1089 H 110.15 3.33073 -1.6768 0
M  V30 1090 N 112.336 1.25143 0.95797 0
M  V30 1091 C 113.583 1.09692 1.70217 0
M  V30 1092 C 113.911 -0.362654 1.91089 0
M  V30 1093 O 113.166 -1.28386 1.47701 0
M  V30 1094 C 113.465 1.79272 3.09187 0
M  V30 1095 C 113.131 3.29196 3.08125 0
M  V30 1096 C 111.793 3.70096 3.07543 0
M  V30 1097 C 114.145 4.24995 3.0171 0
M  V30 1098 C 111.473 5.05213 2.9829 0
M  V30 1099 C 113.825 5.60132 2.93999 0
M  V30 1100 C 112.489 6.00365 2.9175 0
M  V30 1101 H 111.759 0.401393 0.622868 0
M  V30 1102 H 114.406 1.55372 1.11945 0
M  V30 1103 H 112.711 1.26014 3.70982 0
M  V30 1104 H 114.408 1.64773 3.65583 0
M  V30 1105 H 110.998 2.96651 3.09348 0
M  V30 1106 H 115.182 3.9439 3.01281 0
M  V30 1107 H 110.438 5.35569 2.94916 0
M  V30 1108 H 114.612 6.3406 2.87996 0
M  V30 1109 H 112.239 7.05023 2.84336 0
M  V30 1110 N 113.814 -1.1601 1.06675 0
M  V30 1111 C 115.06 -1.86909 0.786945 0
M  V30 1112 C 115.393 -1.81717 -0.685018 0
M  V30 1113 O 114.668 -1.23551 -1.50218 0
M  V30 1114 C 114.951 -3.36313 1.28707 0
M  V30 1115 C 114.804 -3.50175 2.82308 0
M  V30 1116 C 116.123 -4.3084 0.898071 0
M  V30 1117 H 113.242 -0.678677 0.287343 0
M  V30 1118 H 115.884 -1.36336 1.32334 0
M  V30 1119 H 114.034 -3.79513 0.830768 0
M  V30 1120 H 115.706 -3.15886 3.36175 0
M  V30 1121 H 113.949 -2.91959 3.20847 0
M  V30 1122 H 114.62 -4.55116 3.12368 0
M  V30 1123 H 117.096 -3.95561 1.29114 0
M  V30 1124 H 115.972 -5.33876 1.27543 0
M  V30 1125 H 116.233 -4.41662 -0.196651 0
M  V30 1126 N 115.292 -0.849877 -1.32721 0
M  V30 1127 C 116.255 -0.296122 -2.27279 0
M  V30 1128 C 117.255 0.541458 -1.5141 0
M  V30 1129 O 118.445 0.353658 -1.70572 0
M  V30 1130 C 115.577 0.581579 -3.35902 0
M  V30 1131 H 116.77 -1.13064 -2.77771 0
M  V30 1132 H 114.323 -0.62383 -1.43311 0
M  V30 1133 H 115.058 1.43809 -2.9067 0
M  V30 1134 H 114.843 -0.0178814 -3.92096 0
M  V30 1135 H 116.333 0.961951 -4.0637 0
M  V30 1136 N 116.77 1.45427 -0.607355 0
M  V30 1137 C 117.7 2.3329 0.0989352 0
M  V30 1138 C 118.681 1.46816 0.859007 0
M  V30 1139 O 119.866 1.75588 0.829604 0
M  V30 1140 C 116.996 3.29518 1.09705 0
M  V30 1141 C 115.95 4.25626 0.450206 0
M  V30 1142 C 115.276 5.11542 1.55655 0
M  V30 1143 C 116.576 5.18505 -0.628455 0
M  V30 1144 H 118.27 2.92595 -0.634716 0
M  V30 1145 H 115.816 1.40696 -0.306681 0
M  V30 1146 H 117.769 3.89855 1.59971 0
M  V30 1147 H 116.493 2.68372 1.86129 0
M  V30 1148 H 115.152 3.66586 -0.0315886 0
M  V30 1149 H 114.8 4.46765 2.31107 0
M  V30 1150 H 114.5 5.76647 1.12925 0
M  V30 1151 H 116.024 5.74748 2.06148 0
M  V30 1152 H 117.438 5.72916 -0.209877 0
M  V30 1153 H 115.835 5.92085 -0.977489 0
M  V30 1154 H 116.905 4.60948 -1.50514 0
M  V30 1155 N 118.248 0.346503 1.53744 0
M  V30 1156 C 119.473 -0.253074 2.0585 0
M  V30 1157 C 119.898 -1.43202 1.21962 0
M  V30 1158 O 119.256 -1.79783 0.234073 0
M  V30 1159 C 119.304 -0.643193 3.54817 0
M  V30 1160 O 118.408 -1.74286 3.73762 0
M  V30 1161 H 117.749 -0.0413583 0.662711 0
M  V30 1162 H 120.279 0.501574 1.98357 0
M  V30 1163 H 120.289 -0.919526 3.97503 0
M  V30 1164 H 118.964 0.218966 4.15323 0
M  V30 1165 H 117.541 -1.46356 3.42979 0
M  V30 1166 N 119.726 -1.57421 0.075193 0
M  V30 1167 C 120.954 -1.97946 -0.602076 0
M  V30 1168 C 121.369 -0.953674 -1.62943 0
M  V30 1169 O 120.726 0.0592551 -1.82404 0
M  V30 1170 C 120.777 -3.38546 -1.26762 0
M  V30 1171 O 120.498 -4.37195 -0.281376 0
M  V30 1172 C 121.999 -3.93966 -2.03239 0
M  V30 1173 H 119.219 -0.650918 -0.162931 0
M  V30 1174 H 121.763 -2.03959 0.148601 0
M  V30 1175 H 119.918 -3.33609 -1.96936 0
M  V30 1176 H 120.332 -5.18975 -0.759267 0
M  V30 1177 H 121.806 -4.94555 -2.45193 0
M  V30 1178 H 122.283 -3.30693 -2.8903 0
M  V30 1179 H 122.889 -4.02315 -1.37924 0
M  V30 1180 N 121.204 0.198386 -1.56346 0
M  V30 1181 C 122.154 1.2499 -1.90687 0
M  V30 1182 C 123.138 1.41158 -0.772217 0
M  V30 1183 O 124.33 1.43584 -1.03502 0
M  V30 1184 C 121.459 2.59542 -2.24706 0
M  V30 1185 C 120.545 2.47181 -3.44619 0
M  V30 1186 N 120.936 2.04495 -4.62618 0
M  V30 1187 C 119.234 2.78082 -3.48692 0
M  V30 1188 C 119.935 2.03945 -5.44776 0
M  V30 1189 N 118.911 2.45323 -4.85095 0
M  V30 1190 H 122.713 0.911149 -2.7942 0
M  V30 1191 H 120.227 0.40684 -1.57221 0
M  V30 1192 H 122.224 3.3549 -2.47491 0
M  V30 1193 H 120.884 2.94244 -1.37298 0
M  V30 1194 H 121.895 1.75256 -4.87345 0
M  V30 1195 H 118.572 3.17002 -2.71691 0
M  V30 1196 H 119.962 1.72872 -6.4928 0
M  V30 1197 N 122.682 1.50554 0.465978 0
M  V30 1198 C 123.912 1.65323 1.23903 0
M  V30 1199 C 124.32 0.338051 1.86155 0
M  V30 1200 O 123.663 -0.690518 1.70228 0
M  V30 1201 C 123.725 2.69048 2.3844 0
M  V30 1202 C 123.389 4.12462 1.96784 0
M  V30 1203 C 124.386 4.98168 1.48745 0
M  V30 1204 C 122.071 4.58407 2.05349 0
M  V30 1205 C 124.065 6.27868 1.0982 0
M  V30 1206 C 121.752 5.88112 1.66035 0
M  V30 1207 C 122.75 6.72668 1.18349 0
M  V30 1208 O 122.438 7.99951 0.795825 0
M  V30 1209 H 122.17 0.558629 0.38067 0
M  V30 1210 H 124.724 1.97561 0.562022 0
M  V30 1211 H 122.954 2.32062 3.09328 0
M  V30 1212 H 124.643 2.72985 3.0039 0
M  V30 1213 H 125.409 4.63885 1.41546 0
M  V30 1214 H 121.288 3.92735 2.41414 0
M  V30 1215 H 124.832 6.93819 0.725293 0
M  V30 1216 H 120.729 6.21914 1.72895 0
M  V30 1217 H 121.497 8.13265 0.924222 0
M  V30 1218 N 124.16 -0.719506 1.40217 0
M  V30 1219 C 125.409 -1.47486 1.37589 0
M  V30 1220 C 125.722 -1.9559 -0.0201568 0
M  V30 1221 O 126.928 -2.70973 -0.169049 0
M  V30 1222 C 125.384 -2.66575 2.41796 0
M  V30 1223 C 124.992 -2.25358 3.87192 0
M  V30 1224 C 126.736 -3.4433 2.48269 0
M  V30 1225 C 124.643 -3.41262 4.83005 0
M  V30 1226 H 123.573 -0.553901 0.511576 0
M  V30 1227 H 126.224 -0.783427 1.65936 0
M  V30 1228 H 124.606 -3.3787 2.06543 0
M  V30 1229 H 125.78 -1.61509 4.31569 0
M  V30 1230 H 124.095 -1.60657 3.84159 0
M  V30 1231 H 126.692 -4.30569 3.17041 0
M  V30 1232 H 127.035 -3.87872 1.51198 0
M  V30 1233 H 127.568 -2.80076 2.82493 0
M  V30 1234 H 124.307 -3.02755 5.81394 0
M  V30 1235 H 123.827 -4.0404 4.43297 0
M  V30 1236 H 125.506 -4.07383 5.02641 0
M  V30 1237 N 125.638 -1.25649 -0.95132 0
M  V30 1238 C 126.866 -1.13343 -1.73092 0
M  V30 1239 C 127.281 0.312434 -1.86197 0
M  V30 1240 O 126.638 1.21465 -1.36207 0
M  V30 1241 C 126.689 -1.78602 -3.14299 0
M  V30 1242 O 126.41 -3.17537 -3.01831 0
M  V30 1243 C 127.911 -1.72119 -4.08522 0
M  V30 1244 H 125.131 -0.395181 -0.542285 0
M  V30 1245 H 127.675 -1.66076 -1.19328 0
M  V30 1246 H 125.83 -1.29832 -3.64996 0
M  V30 1247 H 126.244 -3.49676 -3.90931 0
M  V30 1248 H 127.718 -2.22435 -5.052 0
M  V30 1249 H 128.195 -0.685635 -4.33815 0
M  V30 1250 H 128.801 -2.20393 -3.63741 0
M  V30 1251 N 127.117 1.15442 -1.07289 0
M  V30 1252 C 128.345 1.90096 -0.81676 0
M  V30 1253 C 128.76 1.7798 0.629966 0
M  V30 1254 O 128.117 1.1313 1.43206 0
M  V30 1255 C 128.168 3.40466 -1.21512 0
M  V30 1256 O 127.889 3.52232 -2.60508 0
M  V30 1257 C 129.39 4.32145 -0.988198 0
M  V30 1258 H 126.61 0.602495 -0.295366 0
M  V30 1259 H 129.154 1.4627 -1.42918 0
M  V30 1260 H 127.309 3.81958 -0.647039 0
M  V30 1261 H 127.723 4.45549 -2.76742 0
M  V30 1262 H 129.197 5.36072 -1.31645 0
M  V30 1263 H 129.674 4.39135 0.0755063 0
M  V30 1264 H 130.28 3.96395 -1.54115 0
M  V30 1265 N 128.595 0.856903 1.32268 0
M  V30 1266 C 129.841 0.462069 1.97466 0
M  V30 1267 C 130.174 -0.980298 1.67642 0
M  V30 1268 O 129.449 -1.68824 0.965858 0
M  V30 1269 C 129.732 0.704336 3.53145 0
M  V30 1270 C 129.585 2.19529 3.9259 0
M  V30 1271 C 130.904 0.1622 4.39801 0
M  V30 1272 H 128.023 0.169357 0.717278 0
M  V30 1273 H 130.665 1.07574 1.56614 0
M  V30 1274 H 128.815 0.181999 3.88073 0
M  V30 1275 H 130.487 2.78387 3.67829 0
M  V30 1276 H 128.73 2.67292 3.41668 0
M  V30 1277 H 129.401 2.31549 5.01088 0
M  V30 1278 H 131.877 0.608905 4.11621 0
M  V30 1279 H 130.753 0.361265 5.4771 0
M  V30 1280 H 131.014 -0.935158 4.32096 0
M  V30 1281 N 130.073 -1.45103 0.615059 0
M  V30 1282 C 131.313 -2.04069 0.116282 0
M  V30 1283 C 131.677 -1.4721 -1.2326 0
M  V30 1284 O 132.878 -1.97577 -1.82255 0
M  V30 1285 C 131.149 -3.57298 0.085482 0
M  V30 1286 S 132.708 -4.37394 -0.351015 0
M  V30 1287 H 129.526 -0.709006 0.0532183 0
M  V30 1288 H 132.128 -1.77709 0.81484 0
M  V30 1289 H 130.832 -3.9619 1.0706 0
M  V30 1290 H 130.363 -3.88244 -0.634835 0
M  V30 1291 H 132.378 -4.69734 -1.59889 0
M  V30 1292 N 131.551 -0.354651 -1.53558 0
M  V30 1293 C 132.776 0.242153 -2.05981 0
M  V30 1294 C 133.201 1.42553 -1.2272 0
M  V30 1295 O 132.559 1.79656 -0.243604 0
M  V30 1296 C 132.607 0.624367 -3.55154 0
M  V30 1297 O 131.711 1.72301 -3.74681 0
M  V30 1298 H 131.052 0.0378432 -0.662921 0
M  V30 1299 H 133.582 -0.512087 -1.98088 0
M  V30 1300 H 133.592 0.898433 -3.97985 0
M  V30 1301 H 132.267 -0.240989 -4.15201 0
M  V30 1302 H 130.844 1.44535 -3.4375 0
M  V30 1303 N 133.029 1.57378 -0.0835403 0
M  V30 1304 C 133.959 2.1641 0.87686 0
M  V30 1305 C 134.94 1.09429 1.30228 0
M  V30 1306 O 136.125 1.37516 1.37124 0
M  V30 1307 C 133.255 2.73517 2.14022 0
M  V30 1308 C 132.209 3.85769 1.85381 0
M  V30 1309 C 131.535 4.29529 3.18448 0
M  V30 1310 C 132.835 5.09486 1.14984 0
M  V30 1311 H 134.529 2.96914 0.385059 0
M  V30 1312 H 132.075 1.42823 0.18377 0
M  V30 1313 H 134.028 3.13463 2.81636 0
M  V30 1314 H 132.752 1.90252 2.65465 0
M  V30 1315 H 131.411 3.46345 1.20169 0
M  V30 1316 H 131.059 3.43169 3.67755 0
M  V30 1317 H 130.759 5.05204 3.00071 0
M  V30 1318 H 132.283 4.72099 3.8724 0
M  V30 1319 H 133.697 5.46674 1.72687 0
M  V30 1320 H 132.094 5.90515 1.06826 0
M  V30 1321 H 133.164 4.84724 0.130749 0
M  V30 1322 N 134.507 -0.190092 1.56449 0
M  V30 1323 C 135.756 -0.907912 1.80111 0
M  V30 1324 C 136.069 -1.84214 0.657619 0
M  V30 1325 O 137.275 -2.60094 0.778663 0
M  V30 1326 C 135.731 -1.66485 3.19078 0
M  V30 1327 C 135.339 -0.7752 4.41242 0
M  V30 1328 C 137.083 -2.37201 3.52045 0
M  V30 1329 C 134.99 -1.53129 5.71231 0
M  V30 1330 H 133.92 -0.34276 0.671589 0
M  V30 1331 H 136.571 -0.161109 1.82791 0
M  V30 1332 H 134.953 -2.45572 3.10661 0
M  V30 1333 H 136.127 -0.0226298 4.60794 0
M  V30 1334 H 134.442 -0.178627 4.16017 0
M  V30 1335 H 137.039 -2.94329 4.46402 0
M  V30 1336 H 137.382 -3.11632 2.76028 0
M  V30 1337 H 137.915 -1.65075 3.61932 0
M  V30 1338 H 134.654 -0.82967 6.50228 0
M  V30 1339 H 134.174 -2.25767 5.55688 0
M  V30 1340 H 135.853 -2.08377 6.12526 0
M  V30 1341 N 135.985 -1.50799 -0.457987 0
M  V30 1342 C 137.396 -1.55152 -1.0385 0
M  V30 1343 C 137.747 -0.362719 -1.92818 0
M  V30 1344 O 136.872 0.522915 -2.09987 0
M  V30 1345 C 137.467 -2.81173 -1.89017 0
M  V30 1346 C 136.026 -2.88164 -2.42154 0
M  V30 1347 C 135.173 -2.49591 -1.20829 0
M  V30 1348 H 138.124 -1.56874 -0.240068 0
M  V30 1349 H 138.145 -2.63769 -2.74238 0
M  V30 1350 H 137.657 -3.67677 -1.24238 0
M  V30 1351 H 135.758 -2.06042 -3.10447 0
M  V30 1352 H 135.871 -3.91356 -2.76364 0
M  V30 1353 H 134.235 -2.02322 -1.54719 0
M  V30 1354 H 135.018 -3.38418 -0.576927 0
M  V30 1355 N 137.463 0.71206 -1.40597 0
M  V30 1356 C 138.879 1.02058 -1.22704 0
M  V30 1357 C 139.079 2.01228 -0.104729 0
M  V30 1358 O 138.135 2.4674 0.53624 0
M  V30 1359 C 139.448 1.56094 -2.57012 0
M  V30 1360 C 140.996 1.6806 -2.64054 0
M  V30 1361 C 141.471 2.25501 -3.9864 0
M  V30 1362 N 142.962 2.32882 -4.004 0
M  V30 1363 C 143.697 2.78317 -5.01325 0
M  V30 1364 N 143.193 3.23478 -6.12645 0
M  V30 1365 N 144.986 2.77733 -4.88693 0
M  V30 1366 H 137.137 0.0547896 -2.12329 0
M  V30 1367 H 139.4 0.0869027 -0.944008 0
M  V30 1368 H 139.106 0.906865 -3.39807 0
M  V30 1369 H 138.98 2.54564 -2.78347 0
M  V30 1370 H 141.367 2.32583 -1.81629 0
M  V30 1371 H 141.448 0.681802 -2.46546 0
M  V30 1372 H 141.092 1.61598 -4.81506 0
M  V30 1373 H 141.022 3.26102 -4.13479 0
M  V30 1374 H 143.513 2.00991 -3.20017 0
M  V30 1375 H 143.826 3.56725 -6.85542 0
M  V30 1376 H 142.171 3.21429 -6.16205 0
M  V30 1377 H 145.362 2.4179 -4.00818 0
M  V30 1378 H 145.535 3.12826 -5.67489 0
M  V30 1379 N 138.941 1.26152 0.944643 0
M  V30 1380 C 139.889 1.07215 2.06417 0
M  V30 1381 C 140.883 9.2007e-05 1.694 0
M  V30 1382 O 142.089 0.1565 1.79318 0
M  V30 1383 H 138.464 0.329837 0.675805 0
M  V30 1384 H 140.435 2.02099 2.19541 0
M  V30 1385 C 139.184 0.718197 3.40202 0
M  V30 1386 H 138.507 1.53497 3.69159 0
M  V30 1387 H 139.947 0.625459 4.19361 0
M  V30 1388 C 138.406 -0.576435 3.31932 0
M  V30 1389 O 138.936 -1.61574 3.67773 0
M  V30 1390 N 137.142 -0.565781 2.85039 0
M  V30 1391 H 136.689 0.280367 2.5607 0
M  V30 1392 H 136.647 -1.43213 2.79888 0
M  V30 1393 N 140.419 -1.14872 1.07899 0
M  V30 1394 C 141.351 -2.19425 0.662231 0
M  V30 1395 C 142.364 -1.60231 -0.288079 0
M  V30 1396 O 143.553 -1.78336 -0.076534 0
M  V30 1397 C 140.653 -3.38867 -0.0470695 0
M  V30 1398 C 139.826 -4.27597 0.920831 0
M  V30 1399 C 138.885 -5.25616 0.247805 0
M  V30 1400 O 137.911 -5.62189 0.890599 0
M  V30 1401 N 139.113 -5.71746 -1.00435 0
M  V30 1402 H 141.878 -2.55797 1.56166 0
M  V30 1403 H 139.439 -1.30042 0.964404 0
M  V30 1404 H 141.431 -4.01497 -0.50813 0
M  V30 1405 H 140.001 -3.00864 -0.848523 0
M  V30 1406 H 139.221 -3.61982 1.56087 0
M  V30 1407 H 140.509 -4.83748 1.57688 0
M  V30 1408 H 139.907 -5.44153 -1.54642 0
M  V30 1409 H 138.464 -6.36389 -1.40899 0
M  V30 1410 N 141.898 -0.863906 -1.31812 0
M  V30 1411 C 142.828 -0.330843 -2.31144 0
M  V30 1412 C 143.809 0.575005 -1.60087 0
M  V30 1413 O 144.994 0.493304 -1.8783 0
M  V30 1414 C 142.124 0.47374 -3.44054 0
M  V30 1415 C 141.078 -0.338481 -4.26659 0
M  V30 1416 C 140.404 0.591412 -5.31419 0
M  V30 1417 C 141.704 -1.56926 -4.98168 0
M  V30 1418 H 143.398 -1.16086 -2.75979 0
M  V30 1419 H 140.944 -0.559657 -1.32679 0
M  V30 1420 H 142.897 0.857143 -4.12591 0
M  V30 1421 H 141.621 1.33721 -2.9797 0
M  V30 1422 H 140.28 -0.703754 -3.59782 0
M  V30 1423 H 139.928 1.45199 -4.81587 0
M  V30 1424 H 139.628 0.0519022 -5.87577 0
M  V30 1425 H 141.152 0.97179 -6.02817 0
M  V30 1426 H 142.566 -1.25764 -5.59336 0
M  V30 1427 H 140.963 -2.04739 -5.64094 0
M  V30 1428 H 142.033 -2.32544 -4.25501 0
M  V30 1429 N 143.376 1.44774 -0.622745 0
M  V30 1430 C 144.308 2.28856 0.125485 0
M  V30 1431 C 145.321 1.40811 0.817069 0
M  V30 1432 O 146.51 1.65044 0.679918 0
M  V30 1433 C 143.61 3.16963 1.19949 0
M  V30 1434 C 142.783 4.33374 0.592064 0
M  V30 1435 C 141.842 5.02577 1.55893 0
M  V30 1436 O 140.868 5.58873 1.07933 0
M  V30 1437 N 142.07 5.03256 2.89334 0
M  V30 1438 H 144.835 2.93713 -0.596068 0
M  V30 1439 H 142.396 1.55129 -0.463303 0
M  V30 1440 H 144.388 3.60123 1.84644 0
M  V30 1441 H 142.958 2.53913 1.82337 0
M  V30 1442 H 142.178 3.93509 -0.233322 0
M  V30 1443 H 143.466 5.08527 0.166738 0
M  V30 1444 H 142.864 4.58836 3.30887 0
M  V30 1445 H 141.421 5.50232 3.49412 0
M  V30 1446 N 144.854 0.36279 1.53368 0
M  V30 1447 C 146.079 -0.231226 2.06107 0
M  V30 1448 C 146.504 -1.419 1.23474 0
M  V30 1449 O 145.862 -1.79524 0.253128 0
M  V30 1450 C 145.91 -0.605523 3.5548 0
M  V30 1451 O 145.014 -1.70312 3.7559 0
M  V30 1452 H 144.355 -0.034327 0.663112 0
M  V30 1453 H 146.885 0.522584 1.97814 0
M  V30 1454 H 146.895 -0.877314 3.98456 0
M  V30 1455 H 145.57 0.263004 4.15068 0
M  V30 1456 H 144.147 -1.4271 3.44512 0
M  V30 1457 N 146.332 -1.57332 0.0918853 0
M  V30 1458 C 147.578 -1.94524 -0.573425 0
M  V30 1459 C 147.911 -0.973578 -1.68033 0
M  V30 1460 O 147.186 -0.00609226 -1.94499 0
M  V30 1461 C 147.469 -3.41858 -1.13161 0
M  V30 1462 C 147.322 -4.4979 -0.0299747 0
M  V30 1463 C 148.641 -3.90435 -2.03098 0
M  V30 1464 H 145.76 -0.70734 -0.206975 0
M  V30 1465 H 148.402 -1.89309 0.161942 0
M  V30 1466 H 146.552 -3.46433 -1.7583 0
M  V30 1467 H 148.224 -4.57327 0.604112 0
M  V30 1468 H 146.467 -4.291 0.636833 0
M  V30 1469 H 147.138 -5.50069 -0.461287 0
M  V30 1470 H 149.614 -3.87992 -1.50338 0
M  V30 1471 H 148.49 -4.94097 -2.39081 0
M  V30 1472 H 148.751 -3.29541 -2.94712 0
M  V30 1473 N 147.81 0.181792 -1.56548 0
M  V30 1474 C 148.773 1.20894 -1.94724 0
M  V30 1475 C 149.773 1.37738 -0.829747 0
M  V30 1476 O 150.963 1.35323 -1.09697 0
M  V30 1477 C 148.095 2.57593 -2.23291 0
M  V30 1478 H 149.288 0.882275 -2.86629 0
M  V30 1479 H 146.841 0.423838 -1.50444 0
M  V30 1480 H 147.576 2.95291 -1.34067 0
M  V30 1481 H 147.361 2.46735 -3.04736 0
M  V30 1482 H 148.851 3.31637 -2.53785 0
M  V30 1483 N 149.288 1.51039 0.449983 0
M  V30 1484 C 150.251 1.70863 1.5277 0
M  V30 1485 C 151.251 0.578846 1.5002 0
M  V30 1486 O 152.441 0.846213 1.52266 0
M  V30 1487 C 149.573 1.75341 2.9235 0
M  V30 1488 H 150.766 2.67034 1.36502 0
M  V30 1489 H 148.319 1.40838 0.677812 0
M  V30 1490 H 149.054 0.809383 3.14037 0
M  V30 1491 H 148.839 2.57436 2.95752 0
M  V30 1492 H 150.329 1.92559 3.70555 0
M  V30 1493 N 150.766 -0.704594 1.40972 0
M  V30 1494 C 151.729 -1.80035 1.41845 0
M  V30 1495 C 152.729 -1.57774 0.310474 0
M  V30 1496 O 153.919 -1.64613 0.56992 0
M  V30 1497 C 151.051 -3.18284 1.22098 0
M  V30 1498 H 152.244 -1.80658 2.3938 0
M  V30 1499 H 149.797 -0.911329 1.26982 0
M  V30 1500 H 150.532 -3.23306 0.253672 0
M  V30 1501 H 150.317 -3.35843 2.02366 0
M  V30 1502 H 151.807 -3.98289 1.25522 0
M  V30 1503 N 152.244 -1.26651 -0.937939 0
M  V30 1504 C 153.484 -1.13611 -1.69917 0
M  V30 1505 C 153.848 0.314687 -1.89404 0
M  V30 1506 O 155.049 0.567285 -2.62746 0
M  V30 1507 C 153.32 -1.88742 -3.03498 0
M  V30 1508 S 154.879 -1.91794 -3.94665 0
M  V30 1509 H 151.697 -0.405767 -0.583844 0
M  V30 1510 H 154.299 -1.60416 -1.11745 0
M  V30 1511 H 153.003 -2.9336 -2.86999 0
M  V30 1512 H 152.534 -1.42391 -3.66727 0
M  V30 1513 H 154.549 -1.00698 -4.85875 0
M  V30 1514 N 153.722 1.14298 -1.08507 0
M  V30 1515 C 154.669 2.19414 -0.715965 0
M  V30 1516 C 155.639 1.63399 0.298326 0
M  V30 1517 O 156.824 1.89929 0.182101 0
M  V30 1518 C 153.964 3.44845 -0.132534 0
M  V30 1519 C 153.077 4.15007 -1.19973 0
M  V30 1520 C 152.212 5.28024 -0.580048 0
M  V30 1521 C 151.251 5.9002 -1.62921 0
M  V30 1522 N 150.388 6.94485 -1.03125 0
M  V30 1523 H 155.228 2.50336 -1.61666 0
M  V30 1524 H 152.765 1.2293 -0.807882 0
M  V30 1525 H 154.723 4.16601 0.223454 0
M  V30 1526 H 153.353 3.14403 0.731467 0
M  V30 1527 H 152.405 3.41629 -1.67313 0
M  V30 1528 H 153.717 4.57178 -1.99473 0
M  V30 1529 H 152.871 6.06455 -0.172364 0
M  V30 1530 H 151.61 4.87076 0.246603 0
M  V30 1531 H 150.615 5.10291 -2.04654 0
M  V30 1532 H 151.84 6.33042 -2.45835 0
M  V30 1533 H 149.786 6.55612 -0.225711 0
M  V30 1534 H 149.703 7.35148 -1.76334 0
M  V30 1535 H 150.971 7.7679 -0.649458 0
M  V30 1536 N 155.201 0.870884 1.31352 0
M  V30 1537 C 156.447 0.482987 1.96965 0
M  V30 1538 C 156.78 -0.962462 1.68672 0
M  V30 1539 O 156.055 -1.6779 0.98371 0
M  V30 1540 C 156.338 0.741752 3.52378 0
M  V30 1541 C 156.191 2.2368 3.9024 0
M  V30 1542 C 157.51 0.208838 4.39604 0
M  V30 1543 H 154.629 0.176955 0.715441 0
M  V30 1544 H 157.271 1.09229 1.55464 0
M  V30 1545 H 155.421 0.223149 3.87859 0
M  V30 1546 H 157.093 2.82273 3.64856 0
M  V30 1547 H 155.336 2.70901 3.38814 0
M  V30 1548 H 156.007 2.3685 4.98604 0
M  V30 1549 H 158.483 0.652529 4.10952 0
M  V30 1550 H 157.359 0.419336 5.47296 0
M  V30 1551 H 157.62 -0.889275 4.33064 0
M  V30 1552 N 156.679 -1.44442 0.630414 0
M  V30 1553 C 157.609 -2.33418 -0.0618083 0
M  V30 1554 C 158.59 -1.48165 -0.835541 0
M  V30 1555 O 159.775 -1.76886 -0.801564 0
M  V30 1556 C 156.905 -3.31222 -1.04449 0
M  V30 1557 C 155.859 -4.26288 -0.382436 0
M  V30 1558 C 155.185 -5.13954 -1.47497 0
M  V30 1559 C 156.485 -5.1744 0.710865 0
M  V30 1560 H 158.179 -2.91548 0.681184 0
M  V30 1561 H 155.725 -1.40191 0.329026 0
M  V30 1562 H 157.678 -3.92351 -1.53748 0
M  V30 1563 H 156.402 -2.71299 -1.81836 0
M  V30 1564 H 155.061 -3.6649 0.0899054 0
M  V30 1565 H 154.709 -4.50385 -2.2397 0
M  V30 1566 H 154.409 -5.7837 -1.03737 0
M  V30 1567 H 155.933 -5.77955 -1.96979 0
M  V30 1568 H 157.347 -5.72509 0.300996 0
M  V30 1569 H 155.744 -5.90455 1.07156 0
M  V30 1570 H 156.814 -4.58496 1.57829 0
M  V30 1571 N 158.157 -0.370918 -1.53173 0
M  V30 1572 C 159.406 0.218249 -2.00516 0
M  V30 1573 C 159.719 1.49429 -1.26215 0
M  V30 1574 O 160.925 2.16239 -1.64174 0
M  V30 1575 C 159.381 0.43948 -3.57207 0
M  V30 1576 C 158.989 -0.822244 -4.4039 0
M  V30 1577 C 160.733 0.986012 -4.1289 0
M  V30 1578 C 158.64 -0.570304 -5.88644 0
M  V30 1579 H 157.57 0.0853333 -0.749156 0
M  V30 1580 H 160.221 -0.490483 -1.76823 0
M  V30 1581 H 158.603 1.20961 -3.77074 0
M  V30 1582 H 159.777 -1.59557 -4.32294 0
M  V30 1583 H 158.092 -1.29238 -3.95836 0
M  V30 1584 H 160.689 1.18991 -5.21292 0
M  V30 1585 H 161.032 1.94972 -3.6782 0
M  V30 1586 H 161.565 0.27592 -3.96842 0
M  V30 1587 H 158.304 -1.50449 -6.38001 0
M  V30 1588 H 157.824 0.164427 -5.99575 0
M  V30 1589 H 159.503 -0.19784 -6.46697 0
M  V30 1590 N 159.635 1.57281 -0.100228 0
M  V30 1591 C 160.545 2.17833 0.870965 0
M  V30 1592 C 161.561 1.14921 1.30649 0
M  V30 1593 O 162.737 1.47313 1.37335 0
M  V30 1594 C 159.802 2.75085 2.1102 0
M  V30 1595 C 158.863 3.9297 1.72838 0
M  V30 1596 C 158.096 4.47482 2.90854 0
M  V30 1597 O 158.319 4.00922 4.05731 0
M  V30 1598 O 157.253 5.38433 2.69023 0
M  V30 1599 H 161.079 3.0124 0.38575 0
M  V30 1600 H 158.664 1.48881 0.124397 0
M  V30 1601 H 160.546 3.11656 2.83634 0
M  V30 1602 H 159.221 1.94721 2.58584 0
M  V30 1603 H 158.128 3.61201 0.973883 0
M  V30 1604 H 159.461 4.74713 1.30033 0
M  V30 1605 N 161.113 -0.173488 1.56642 0
M  V30 1606 C 162.36 -0.890465 1.81871 0
M  V30 1607 C 162.688 -1.82339 0.67696 0
M  V30 1608 O 161.943 -1.92795 -0.335926 0
M  V30 1609 C 162.242 -1.72069 3.13252 0
M  V30 1610 C 161.908 -0.936878 4.41059 0
M  V30 1611 C 160.57 -0.720545 4.75775 0
M  V30 1612 C 162.922 -0.386919 5.19762 0
M  V30 1613 C 160.25 0.0568829 5.86672 0
M  V30 1614 C 162.602 0.37741 6.31473 0
M  V30 1615 C 161.266 0.604563 6.64757 0
M  V30 1616 H 160.536 -0.325844 0.665512 0
M  V30 1617 H 163.183 -0.155527 1.90867 0
M  V30 1618 H 161.488 -2.52496 2.99588 0
M  V30 1619 H 163.185 -2.27844 3.29982 0
M  V30 1620 H 159.775 -1.11553 4.13828 0
M  V30 1621 H 163.959 -0.541398 4.93338 0
M  V30 1622 H 159.215 0.242635 6.10918 0
M  V30 1623 H 163.389 0.810825 6.91664 0
M  V30 1624 H 161.016 1.20885 7.50527 0
M  V30 1625 N 162.591 -1.51276 -0.441967 0
M  V30 1626 C 163.816 -1.67799 -1.21895 0
M  V30 1627 C 164.241 -0.372864 -1.84367 0
M  V30 1628 O 163.599 0.666501 -1.68604 0
M  V30 1629 C 163.647 -2.79199 -2.28211 0
M  V30 1630 O 162.751 -2.42479 -3.33583 0
M  V30 1631 H 162.092 -0.559649 -0.357336 0
M  V30 1632 H 164.622 -1.97815 -0.522522 0
M  V30 1633 H 164.632 -3.03146 -2.73069 0
M  V30 1634 H 163.307 -3.73906 -1.82118 0
M  V30 1635 H 161.884 -2.29087 -2.94234 0
M  V30 1636 N 164.069 0.697108 -1.41344 0
M  V30 1637 C 164.999 1.82353 -1.45841 0
M  V30 1638 C 165.98 1.67115 -0.317247 0
M  V30 1639 O 167.165 1.86871 -0.528474 0
M  V30 1640 C 164.295 3.20476 -1.33838 0
M  V30 1641 C 163.249 3.50415 -2.4575 0
M  V30 1642 C 162.575 4.87878 -2.18813 0
M  V30 1643 C 163.875 3.49546 -3.88091 0
M  V30 1644 H 165.569 1.78846 -2.40113 0
M  V30 1645 H 163.115 0.859028 -1.15571 0
M  V30 1646 H 165.068 3.98988 -1.35596 0
M  V30 1647 H 163.792 3.24604 -0.360498 0
M  V30 1648 H 162.451 2.74253 -2.43271 0
M  V30 1649 H 162.099 4.8863 -1.19371 0
M  V30 1650 H 161.799 5.08875 -2.93803 0
M  V30 1651 H 163.323 5.68702 -2.22284 0
M  V30 1652 H 164.737 4.18066 -3.92293 0
M  V30 1653 H 163.134 3.82075 -4.62751 0
M  V30 1654 H 164.204 2.48552 -4.16353 0
M  V30 1655 N 165.547 1.27147 0.931209 0
M  V30 1656 C 166.477 1.12081 2.04842 0
M  V30 1657 C 167.458 0.0232364 1.70084 0
M  V30 1658 O 168.643 0.197085 1.93197 0
M  V30 1659 C 165.773 0.76354 3.38803 0
M  V30 1660 C 164.727 1.81396 3.87659 0
M  V30 1661 C 164.053 1.31075 5.18385 0
M  V30 1662 C 165.353 3.21739 4.11438 0
M  V30 1663 H 167.047 2.05537 2.17703 0
M  V30 1664 H 164.593 0.989603 1.04608 0
M  V30 1665 H 166.546 0.644982 4.16435 0
M  V30 1666 H 165.27 -0.206727 3.25945 0
M  V30 1667 H 163.929 1.92136 3.12217 0
M  V30 1668 H 163.577 0.330037 5.01916 0
M  V30 1669 H 163.277 2.013 5.52044 0
M  V30 1670 H 164.801 1.20506 5.98591 0
M  V30 1671 H 166.215 3.14019 4.79651 0
M  V30 1672 H 164.612 3.89644 4.56397 0
M  V30 1673 H 165.682 3.67054 3.16859 0
M  V30 1674 N 167.025 -1.13721 1.09112 0
M  V30 1675 C 168.441 -1.36914 0.820174 0
M  V30 1676 C 168.641 -1.93356 -0.567079 0
M  V30 1677 O 167.697 -2.15093 -1.32255 0
M  V30 1678 C 169.01 -2.3235 1.90877 0
M  V30 1679 C 170.558 -2.45973 1.93562 0
M  V30 1680 C 171.033 -3.44714 3.01556 0
M  V30 1681 N 172.524 -3.52263 3.00775 0
M  V30 1682 C 173.259 -4.28536 3.80978 0
M  V30 1683 N 172.755 -5.07991 4.71081 0
M  V30 1684 N 174.548 -4.23804 3.69251 0
M  V30 1685 H 166.699 -0.754348 1.98553 0
M  V30 1686 H 168.962 -0.3944 0.862063 0
M  V30 1687 H 168.668 -1.98027 2.90651 0
M  V30 1688 H 168.542 -3.32332 1.78424 0
M  V30 1689 H 170.929 -2.79584 0.944286 0
M  V30 1690 H 171.01 -1.45926 2.10093 0
M  V30 1691 H 170.654 -3.11835 4.00901 0
M  V30 1692 H 170.584 -4.44558 2.82269 0
M  V30 1693 H 173.075 -2.95567 2.35475 0
M  V30 1694 H 173.388 -5.63487 5.28869 0
M  V30 1695 H 171.733 -5.07235 4.75119 0
M  V30 1696 H 174.924 -3.60806 2.98222 0
M  V30 1697 H 175.097 -4.82995 4.31995 0
M  V30 1698 N 168.503 -0.877838 -1.30888 0
M  V30 1699 C 169.433 -0.35534 -2.3078 0
M  V30 1700 C 170.414 0.557994 -1.60687 0
M  V30 1701 O 171.599 0.473355 -1.88343 0
M  V30 1702 C 168.729 0.437221 -3.44537 0
M  V30 1703 C 167.683 -0.383715 -4.26276 0
M  V30 1704 C 167.009 0.535014 -5.32017 0
M  V30 1705 C 168.309 -1.62201 -4.96476 0
M  V30 1706 H 170.003 -1.19007 -2.74732 0
M  V30 1707 H 167.549 -0.573698 -1.32078 0
M  V30 1708 H 169.502 0.813334 -4.13477 0
M  V30 1709 H 168.226 1.30553 -2.99372 0
M  V30 1710 H 166.885 -0.741874 -3.59015 0
M  V30 1711 H 166.533 1.40083 -4.831 0
M  V30 1712 H 166.233 -0.0104211 -5.87599 0
M  V30 1713 H 167.757 0.907799 -6.03814 0
M  V30 1714 H 169.171 -1.31689 -5.5797 0
M  V30 1715 H 167.568 -2.10711 -5.61891 0
M  V30 1716 H 168.638 -2.37044 -4.23011 0
M  V30 1717 N 169.982 1.44106 -0.638065 0
M  V30 1718 C 170.892 2.34513 0.0637334 0
M  V30 1719 C 171.908 1.53018 0.828346 0
M  V30 1720 O 173.084 1.85723 0.779036 0
M  V30 1721 C 170.149 3.31095 1.02844 0
M  V30 1722 C 169.21 4.28497 0.26244 0
M  V30 1723 C 168.443 5.20465 1.1812 0
M  V30 1724 O 168.666 5.16514 2.42011 0
M  V30 1725 O 167.6 5.98251 0.661774 0
M  V30 1726 H 171.426 2.95989 -0.68003 0
M  V30 1727 H 169.011 1.43994 -0.398252 0
M  V30 1728 H 170.893 3.90526 1.58327 0
M  V30 1729 H 169.568 2.72144 1.7527 0
M  V30 1730 H 168.475 3.72592 -0.335602 0
M  V30 1731 H 169.808 4.90388 -0.421936 0
M  V30 1732 N 171.46 0.379036 1.52974 0
M  V30 1733 C 172.408 -0.476033 2.27677 0
M  V30 1734 C 173.402 -1.0719 1.31174 0
M  V30 1735 O 174.608 -1.01355 1.48752 0
M  V30 1736 H 170.983 -0.172255 0.732006 0
M  V30 1737 H 172.954 0.175615 2.97883 0
M  V30 1738 C 171.703 -1.5967 3.0887 0
M  V30 1739 H 171.026 -1.1475 3.82978 0
M  V30 1740 H 172.466 -2.16943 3.64296 0
M  V30 1741 C 170.925 -2.54682 2.20542 0
M  V30 1742 O 171.455 -3.57836 1.82527 0
M  V30 1743 N 169.661 -2.24183 1.84907 0
M  V30 1744 H 169.208 -1.40333 2.1602 0
M  V30 1745 H 169.166 -2.88006 1.26096 0
M  V30 1746 N 172.938 -1.57226 0.108567 0
M  V30 1747 C 174.349 -1.8195 -0.418464 0
M  V30 1748 C 174.7 -1.02508 -1.67292 0
M  V30 1749 O 173.825 -0.258496 -2.14851 0
M  V30 1750 C 174.42 -3.30028 -0.765979 0
M  V30 1751 C 172.979 -3.55469 -1.23769 0
M  V30 1752 C 172.126 -2.7625 -0.241106 0
M  V30 1753 H 175.077 -1.55149 0.33384 0
M  V30 1754 H 175.098 -3.44086 -1.62434 0
M  V30 1755 H 174.61 -3.87821 0.147219 0
M  V30 1756 H 172.711 -3.03022 -2.16814 0
M  V30 1757 H 172.824 -4.6408 -1.19022 0
M  V30 1758 H 171.188 -2.44133 -0.72602 0
M  V30 1759 H 171.971 -3.36797 0.665007 0
M  V30 1760 N 174.416 0.165178 -1.56732 0
M  V30 1761 C 175.693 0.908443 -1.73224 0
M  V30 1762 C 176.073 2.0013 -0.67165 0
M  V30 1763 O 175.421 2.26353 0.31253 0
M  V30 1764 C 175.631 1.46756 -3.16644 0
M  V30 1765 C 176.979 1.93809 -3.77787 0
M  V30 1766 O 178.003 1.56537 -3.1996 0
M  V30 1767 O 176.862 2.62486 -4.79336 0
M  V30 1768 H 173.956 0.428025 -0.707618 0
M  V30 1769 H 176.502 0.152526 -1.69013 0
M  V30 1770 H 175.274 0.68129 -3.85323 0
M  V30 1771 H 174.897 2.28749 -3.25207 0
M  V30 1772 N 175.894 1.51508 0.433938 0
M  V30 1773 C 176.804 1.75917 1.5521 0
M  V30 1774 C 177.82 0.643545 1.61662 0
M  V30 1775 O 178.996 0.926183 1.7884 0
M  V30 1776 C 176.061 1.88213 2.91164 0
M  V30 1777 C 175.122 3.12074 2.94802 0
M  V30 1778 C 174.355 3.23774 4.24271 0
M  V30 1779 O 174.578 2.4133 5.16833 0
M  V30 1780 O 173.512 4.16774 4.34262 0
M  V30 1781 H 177.338 2.70777 1.37527 0
M  V30 1782 H 174.923 1.36051 0.617293 0
M  V30 1783 H 176.805 1.98267 3.71845 0
M  V30 1784 H 175.48 0.965413 3.08968 0
M  V30 1785 H 174.387 3.07497 2.13065 0
M  V30 1786 H 175.72 4.03446 2.81943 0
M  V30 1787 N 177.372 -0.689602 1.41712 0
M  V30 1788 C 178.335 -1.78521 1.43746 0
M  V30 1789 C 179.335 -1.57436 0.327191 0
M  V30 1790 O 180.525 -1.64 0.587348 0
M  V30 1791 C 177.657 -3.16971 1.25467 0
M  V30 1792 H 178.85 -1.78108 2.41283 0
M  V30 1793 H 176.403 -0.89781 1.27942 0
M  V30 1794 H 177.138 -3.23019 0.287948 0
M  V30 1795 H 176.923 -3.33678 2.05917 0
M  V30 1796 H 178.413 -3.96935 1.2974 0
M  V30 1797 N 178.85 -1.27639 -0.924453 0
M  V30 1798 C 180.09 -1.15407 -1.68703 0
M  V30 1799 C 180.454 0.294581 -1.89727 0
M  V30 1800 O 181.655 0.539385 -2.63333 0
M  V30 1801 C 179.926 -1.9195 -3.0148 0
M  V30 1802 S 181.485 -1.95969 -3.92609 0
M  V30 1803 H 178.303 -0.411937 -0.579507 0
M  V30 1804 H 180.905 -1.61592 -1.10038 0
M  V30 1805 H 179.609 -2.96387 -2.83871 0
M  V30 1806 H 179.14 -1.46272 -3.65196 0
M  V30 1807 H 181.155 -1.05846 -4.84779 0
M  V30 1808 N 180.328 1.1314 -1.09713 0
M  V30 1809 C 181.291 2.16831 -0.742751 0
M  V30 1810 C 182.291 1.59159 0.229129 0
M  V30 1811 O 183.481 1.74199 0.00693237 0
M  V30 1812 C 180.613 3.40756 -0.0989168 0
M  V30 1813 H 181.806 2.49695 -1.66109 0
M  V30 1814 H 179.359 1.2802 -0.896699 0
M  V30 1815 H 180.094 3.13485 0.830514 0
M  V30 1816 H 179.879 3.83888 -0.798265 0
M  V30 1817 H 181.369 4.17386 0.133524 0
M  V30 1818 N 181.806 0.884767 1.30421 0
M  V30 1819 C 183.052 0.503851 1.96441 0
M  V30 1820 C 183.385 -0.944518 1.69684 0
M  V30 1821 O 182.66 -1.66737 1.00145 0
M  V30 1822 C 182.943 0.779085 3.51571 0
M  V30 1823 C 182.796 2.27807 3.87846 0
M  V30 1824 C 184.115 0.255452 4.39358 0
M  V30 1825 H 181.234 0.184533 0.713524 0
M  V30 1826 H 183.876 1.10872 1.54297 0
M  V30 1827 H 182.026 0.264274 3.876 0
M  V30 1828 H 183.698 2.86127 3.61841 0
M  V30 1829 H 181.941 2.74479 3.35922 0
M  V30 1830 H 182.612 2.42125 4.96064 0
M  V30 1831 H 185.088 0.696079 4.10236 0
M  V30 1832 H 183.964 0.477361 5.4682 0
M  V30 1833 H 184.225 -0.843293 4.33983 0
M  V30 1834 N 183.284 -1.43765 0.645699 0
M  V30 1835 C 184.509 -2.06767 0.161883 0
M  V30 1836 C 184.934 -1.48034 -1.16049 0
M  V30 1837 O 184.292 -0.587369 -1.71522 0
M  V30 1838 C 184.34 -3.60519 0.0762003 0
M  V30 1839 O 183.444 -4.00982 -0.963721 0
M  V30 1840 H 182.785 -0.657675 0.091429 0
M  V30 1841 H 185.315 -1.84397 0.886499 0
M  V30 1842 H 185.325 -4.07853 -0.109604 0
M  V30 1843 H 184 -4.02646 1.04157 0
M  V30 1844 H 182.577 -3.65253 -0.751312 0
M  V30 1845 N 184.763 -0.387143 -1.52771 0
M  V30 1846 C 185.695 0.484089 -2.2403 0
M  V30 1847 C 186.708 1.02849 -1.26198 0
M  V30 1848 O 187.897 0.931186 -1.52286 0
M  V30 1849 C 184.997 1.68337 -2.94136 0
M  V30 1850 C 184.17 1.26672 -4.18656 0
M  V30 1851 C 183.229 2.33045 -4.7178 0
M  V30 1852 O 182.255 1.94541 -5.34923 0
M  V30 1853 N 183.457 3.64929 -4.5145 0
M  V30 1854 H 186.222 -0.126404 -2.99433 0
M  V30 1855 H 183.783 -0.213392 -1.60488 0
M  V30 1856 H 185.775 2.39019 -3.26577 0
M  V30 1857 H 184.345 2.20025 -2.22053 0
M  V30 1858 H 183.565 0.388878 -3.92277 0
M  V30 1859 H 184.853 0.964964 -4.99566 0
M  V30 1860 H 184.251 3.98974 -4.01044 0
M  V30 1861 H 182.808 4.31651 -4.88386 0
M  V30 1862 N 186.241 1.57166 -0.116904 0
M  V30 1863 C 187.188 2.15202 0.83408 0
M  V30 1864 C 188.158 1.07644 1.26499 0
M  V30 1865 O 189.343 1.35541 1.34288 0
M  V30 1866 C 186.483 2.75405 2.07957 0
M  V30 1867 C 185.596 3.97264 1.69721 0
M  V30 1868 C 184.731 4.45561 2.89221 0
M  V30 1869 C 183.77 5.59956 2.47215 0
M  V30 1870 N 182.907 6.03006 3.59622 0
M  V30 1871 H 187.747 2.96141 0.332335 0
M  V30 1872 H 185.284 1.46309 0.152349 0
M  V30 1873 H 187.242 3.08439 2.80929 0
M  V30 1874 H 185.872 1.97159 2.55594 0
M  V30 1875 H 184.924 3.70404 0.866316 0
M  V30 1876 H 186.236 4.80226 1.34849 0
M  V30 1877 H 185.39 4.80493 3.7042 0
M  V30 1878 H 184.129 3.61544 3.27318 0
M  V30 1879 H 183.134 5.2463 1.64448 0
M  V30 1880 H 184.359 6.45738 2.10238 0
M  V30 1881 H 182.305 5.21931 3.97396 0
M  V30 1882 H 182.222 6.80819 3.28667 0
M  V30 1883 H 183.49 6.42576 4.41267 0
M  V30 1884 N 187.719 -0.156864 1.56817 0
M  V30 1885 C 188.669 -1.19891 1.93934 0
M  V30 1886 C 189.653 -1.39061 0.809372 0
M  V30 1887 O 190.845 -1.40789 1.07273 0
M  V30 1888 C 187.974 -2.53493 2.31508 0
M  V30 1889 C 187.06 -2.37957 3.51052 0
M  V30 1890 N 187.451 -1.92158 4.67877 0
M  V30 1891 C 185.749 -2.68739 3.55943 0
M  V30 1892 C 186.45 -1.8943 5.49992 0
M  V30 1893 N 185.426 -2.32375 4.91429 0
M  V30 1894 H 189.228 -0.836746 2.81737 0
M  V30 1895 H 186.742 -0.365012 1.58245 0
M  V30 1896 H 188.739 -3.28811 2.56299 0
M  V30 1897 H 187.399 -2.905 1.45051 0
M  V30 1898 H 188.41 -1.62274 4.91821 0
M  V30 1899 H 185.087 -3.09687 2.80001 0
M  V30 1900 H 186.477 -1.55596 6.53636 0
M  V30 1901 N 189.197 -1.51736 -0.425897 0
M  V30 1902 C 190.127 -1.76827 -1.52494 0
M  V30 1903 C 191.108 -0.618524 -1.58456 0
M  V30 1904 O 192.293 -0.862416 -1.74 0
M  V30 1905 C 189.423 -1.90374 -2.90474 0
M  V30 1906 C 188.377 -3.0588 -2.99369 0
M  V30 1907 C 187.703 -3.04625 -4.3944 0
M  V30 1908 C 189.003 -4.45644 -2.72394 0
M  V30 1909 H 190.697 -2.68855 -1.31748 0
M  V30 1910 H 188.243 -1.29372 -0.632362 0
M  V30 1911 H 190.196 -2.0651 -3.6733 0
M  V30 1912 H 188.92 -0.95004 -3.12477 0
M  V30 1913 H 187.579 -2.89467 -2.24954 0
M  V30 1914 H 187.227 -2.0701 -4.58428 0
M  V30 1915 H 186.927 -3.82195 -4.46319 0
M  V30 1916 H 188.451 -3.22869 -5.18255 0
M  V30 1917 H 189.865 -4.62348 -3.38979 0
M  V30 1918 H 188.262 -5.25006 -2.9067 0
M  V30 1919 H 189.332 -4.54893 -1.67929 0
M  V30 1920 N 190.675 0.682077 -1.42076 0
M  V30 1921 C 191.924 1.43786 -1.41451 0
M  V30 1922 C 192.237 1.95574 -0.0317074 0
M  V30 1923 O 193.443 2.71326 0.0971462 0
M  V30 1924 C 191.899 2.60071 -2.48779 0
M  V30 1925 C 191.507 2.15013 -3.93031 0
M  V30 1926 C 193.251 3.37626 -2.57311 0
M  V30 1927 C 191.158 3.28336 -4.91883 0
M  V30 1928 H 190.088 0.540143 -0.526082 0
M  V30 1929 H 192.739 0.739157 -1.67955 0
M  V30 1930 H 191.121 3.32275 -2.15429 0
M  V30 1931 H 192.295 1.5001 -4.35699 0
M  V30 1932 H 190.61 1.50416 -3.88284 0
M  V30 1933 H 193.207 4.22012 -3.28345 0
M  V30 1934 H 193.55 3.83727 -1.61429 0
M  V30 1935 H 194.083 2.72488 -2.89819 0
M  V30 1936 H 190.822 2.87234 -5.89217 0
M  V30 1937 H 190.342 3.92145 -4.53853 0
M  V30 1938 H 192.021 3.93913 -5.13265 0
M  V30 1939 N 192.153 1.28127 0.917671 0
M  V30 1940 C 193.083 1.14248 2.03641 0
M  V30 1941 C 194.064 0.0412748 1.7005 0
M  V30 1942 O 195.249 0.217566 1.92977 0
M  V30 1943 C 192.379 0.799431 3.37974 0
M  V30 1944 C 191.333 1.85497 3.85713 0
M  V30 1945 C 190.659 1.36565 5.16966 0
M  V30 1946 C 191.959 3.26085 4.08002 0
M  V30 1947 H 193.653 2.07835 2.15511 0
M  V30 1948 H 191.199 1.00064 1.03553 0
M  V30 1949 H 193.152 0.689114 4.15727 0
M  V30 1950 H 191.876 -0.172145 3.26146 0
M  V30 1951 H 190.535 1.95437 3.10161 0
M  V30 1952 H 190.183 0.383253 5.01538 0
M  V30 1953 H 189.883 2.07143 5.49878 0
M  V30 1954 H 191.407 1.26848 5.97279 0
M  V30 1955 H 192.821 3.19089 4.76293 0
M  V30 1956 H 191.218 3.94462 4.52238 0
M  V30 1957 H 192.288 3.70394 3.12948 0
M  V30 1958 N 193.631 -1.12557 1.10312 0
M  V30 1959 C 194.561 -2.20341 0.772798 0
M  V30 1960 C 195.542 -1.68198 -0.25365 0
M  V30 1961 O 196.727 -1.93831 -0.119699 0
M  V30 1962 C 193.857 -3.46709 0.202443 0
M  V30 1963 C 192.811 -4.11996 1.15943 0
M  V30 1964 C 192.137 -5.328 0.450345 0
M  V30 1965 C 193.437 -4.5828 2.50552 0
M  V30 1966 H 195.131 -2.48229 1.674 0
M  V30 1967 H 192.677 -1.19308 0.806326 0
M  V30 1968 H 194.63 -4.2138 -0.0407752 0
M  V30 1969 H 193.354 -3.18245 -0.734001 0
M  V30 1970 H 192.013 -3.39305 1.38808 0
M  V30 1971 H 191.661 -5.00602 -0.490531 0
M  V30 1972 H 191.361 -5.7743 1.08851 0
M  V30 1973 H 192.885 -6.10219 0.215642 0
M  V30 1974 H 194.299 -5.2433 2.31843 0
M  V30 1975 H 192.696 -5.13683 3.10242 0
M  V30 1976 H 193.766 -3.72329 3.10643 0
M  V30 1977 N 195.109 -0.891671 -1.2995 0
M  V30 1978 C 196.358 -0.509521 -1.95158 0
M  V30 1979 C 196.671 0.947388 -1.71125 0
M  V30 1980 O 197.877 1.43669 -2.30372 0
M  V30 1981 C 196.333 -0.860315 -3.49466 0
M  V30 1982 C 195.941 -2.33545 -3.8231 0
M  V30 1983 C 197.685 -0.547687 -4.20952 0
M  V30 1984 C 195.592 -2.62752 -5.29826 0
M  V30 1985 H 194.522 -0.18682 -0.730489 0
M  V30 1986 H 197.173 -1.08756 -1.47798 0
M  V30 1987 H 195.555 -0.211285 -3.95436 0
M  V30 1988 H 196.729 -3.02936 -3.47227 0
M  V30 1989 H 195.044 -2.61629 -3.23944 0
M  V30 1990 H 197.641 -0.742854 -5.29515 0
M  V30 1991 H 197.984 0.51332 -4.13123 0
M  V30 1992 H 198.517 -1.1542 -3.80688 0
M  V30 1993 H 195.256 -3.6762 -5.42712 0
M  V30 1994 H 194.776 -1.97977 -5.66185 0
M  V30 1995 H 196.455 -2.48601 -5.97333 0
M  V30 1996 N 196.587 1.43421 -0.653314 0
M  V30 1997 C 197.534 2.30768 0.0382271 0
M  V30 1998 C 198.504 1.44755 0.814576 0
M  V30 1999 O 199.689 1.73624 0.791162 0
M  V30 2000 C 196.829 3.30336 0.998599 0
M  V30 2001 C 195.942 4.31448 0.218342 0
M  V30 2002 C 195.077 5.18098 1.17252 0
M  V30 2003 C 194.116 6.10902 0.382702 0
M  V30 2004 N 193.253 6.90176 1.28848 0
M  V30 2005 H 198.093 2.89357 -0.712511 0
M  V30 2006 H 195.63 1.42548 -0.363128 0
M  V30 2007 H 197.588 3.86572 1.56901 0
M  V30 2008 H 196.218 2.73397 1.71621 0
M  V30 2009 H 195.27 3.77506 -0.46836 0
M  V30 2010 H 196.582 4.97227 -0.395812 0
M  V30 2011 H 195.736 5.7896 1.81356 0
M  V30 2012 H 194.475 4.52444 1.82058 0
M  V30 2013 H 193.48 5.49128 -0.27169 0
M  V30 2014 H 194.705 6.78598 -0.260957 0
M  V30 2015 H 192.651 6.27171 1.92334 0
M  V30 2016 H 192.568 7.52478 0.728887 0
M  V30 2017 H 193.836 7.55543 1.91766 0
M  V30 2018 N 198.065 0.39524 1.52563 0
M  V30 2019 C 199.313 -0.184678 2.01254 0
M  V30 2020 C 199.634 -1.46822 1.28329 0
M  V30 2021 O 198.904 -1.91666 0.405094 0
M  V30 2022 H 197.484 -0.0712355 0.743596 0
M  V30 2023 H 200.146 0.528293 1.87603 0
M  V30 2024 H 199.242 -0.390681 3.09645 0
M  V30 2025 N 199.544 -1.57102 0.125237 0
M  V30 2026 C 200.474 -2.18659 -0.819174 0
M  V30 2027 C 201.455 -1.12843 -1.27281 0
M  V30 2028 O 202.64 -1.41104 -1.33429 0
M  V30 2029 C 199.77 -2.79096 -2.06695 0
M  V30 2030 C 198.724 -3.90548 -1.75088 0
M  V30 2031 C 198.05 -4.37821 -3.06948 0
M  V30 2032 C 199.35 -5.12356 -1.01435 0
M  V30 2033 H 201.044 -2.9783 -0.306202 0
M  V30 2034 H 198.59 -1.4326 -0.145839 0
M  V30 2035 H 200.543 -3.2082 -2.73226 0
M  V30 2036 H 199.267 -1.97223 -2.60328 0
M  V30 2037 H 197.926 -3.49409 -1.10944 0
M  V30 2038 H 197.574 -3.52799 -3.58527 0
M  V30 2039 H 197.274 -5.12982 -2.86571 0
M  V30 2040 H 198.798 -4.822 -3.74587 0
M  V30 2041 H 200.212 -5.5106 -1.58132 0
M  V30 2042 H 198.609 -5.9314 -0.911319 0
M  V30 2043 H 199.679 -4.849 -0.00218681 0
M  V30 2044 N 201.022 0.148545 -1.56898 0
M  V30 2045 C 202.262 0.86765 -1.85071 0
M  V30 2046 C 202.626 1.78417 -0.709317 0
M  V30 2047 O 203.827 2.54261 -0.872049 0
M  V30 2048 C 202.098 1.62306 -3.1842 0
M  V30 2049 S 203.657 2.3878 -3.68143 0
M  V30 2050 H 200.475 0.290174 -0.649092 0
M  V30 2051 H 203.077 0.127755 -1.95082 0
M  V30 2052 H 201.781 0.941192 -3.99462 0
M  V30 2053 H 201.312 2.4039 -3.1141 0
M  V30 2054 H 203.327 3.63942 -3.37285 0
M  V30 2055 N 202.5 1.5196 0.417844 0
M  V30 2056 C 203.728 1.69426 1.18753 0
M  V30 2057 C 204.143 0.399955 1.84515 0
M  V30 2058 O 203.5 -0.623288 1.71527 0
M  V30 2059 C 203.551 2.82375 2.25714 0
M  V30 2060 O 203.272 4.06793 1.62638 0
M  V30 2061 C 204.773 3.11277 3.15628 0
M  V30 2062 H 201.993 0.568031 0.357186 0
M  V30 2063 H 204.537 1.98475 0.49273 0
M  V30 2064 H 202.692 2.5587 2.90877 0
M  V30 2065 H 203.106 4.69667 2.3348 0
M  V30 2066 H 204.58 3.93843 3.86771 0
M  V30 2067 H 205.057 2.24473 3.77503 0
M  V30 2068 H 205.663 3.39515 2.56144 0
M  V30 2069 N 203.978 -0.674533 1.42435 0
M  V30 2070 C 205.226 -1.43175 1.42637 0
M  V30 2071 C 205.547 -1.94951 0.0438992 0
M  V30 2072 O 204.817 -1.7308 -0.917607 0
M  V30 2073 H 203.397 -0.531307 0.525092 0
M  V30 2074 H 206.059 -0.797006 1.77859 0
M  V30 2075 H 205.155 -2.28463 2.12629 0
M  V30 2076 N 205.456 -1.28612 -0.910864 0
M  V30 2077 C 206.696 -1.1719 -1.67469 0
M  V30 2078 C 207.06 0.274441 -1.90028 0
M  V30 2079 O 208.261 0.511425 -2.6389 0
M  V30 2080 C 206.532 -1.95137 -2.99427 0
M  V30 2081 S 208.091 -2.00122 -3.90508 0
M  V30 2082 H 204.909 -0.41806 -0.575106 0
M  V30 2083 H 207.511 -1.6275 -1.08317 0
M  V30 2084 H 206.215 -2.99381 -2.80712 0
M  V30 2085 H 205.746 -1.50137 -3.63624 0
M  V30 2086 H 207.761 -1.10981 -4.8363 0
M  V30 2087 N 206.934 1.1197 -1.10907 0
M  V30 2088 C 208.159 1.87942 -0.877064 0
M  V30 2089 C 208.584 1.79341 0.567314 0
M  V30 2090 O 207.942 1.15184 1.40009 0
M  V30 2091 C 207.99 3.34926 -1.33629 0
M  V30 2092 O 207.094 4.09303 -0.504447 0
M  V30 2093 H 206.435 0.583785 -0.316371 0
M  V30 2094 H 208.965 1.4157 -1.47712 0
M  V30 2095 H 208.975 3.8577 -1.32837 0
M  V30 2096 H 207.65 3.40504 -2.3881 0
M  V30 2097 H 206.227 3.68393 -0.577993 0
M  V30 2098 N 208.412 0.89855 1.29475 0
M  V30 2099 C 209.828 0.594483 1.48115 0
M  V30 2100 C 210.028 -0.86431 1.82022 0
M  V30 2101 O 209.084 -1.64457 1.91599 0
M  V30 2102 C 210.397 1.51932 2.59494 0
M  V30 2103 C 211.945 1.5244 2.7337 0
M  V30 2104 C 212.42 2.43548 3.87877 0
M  V30 2105 N 213.911 2.41589 3.95208 0
M  V30 2106 C 214.646 3.08789 4.83153 0
M  V30 2107 N 214.142 3.85265 5.75798 0
M  V30 2108 N 215.935 2.97952 4.76635 0
M  V30 2109 H 208.086 1.84207 1.05742 0
M  V30 2110 H 210.349 0.789251 0.525154 0
M  V30 2111 H 210.055 2.55865 2.41301 0
M  V30 2112 H 209.929 1.23899 3.56271 0
M  V30 2113 H 212.316 0.492518 2.90961 0
M  V30 2114 H 212.397 1.8451 1.77172 0
M  V30 2115 H 212.041 3.46829 3.71041 0
M  V30 2116 H 211.971 2.08788 4.83441 0
M  V30 2117 H 214.462 1.86025 3.28943 0
M  V30 2118 H 214.775 4.33598 6.39697 0
M  V30 2119 H 213.12 3.89371 5.75687 0
M  V30 2120 H 216.311 2.37723 4.03244 0
M  V30 2121 H 216.484 3.50599 5.44962 0
M  V30 2122 N 209.89 -1.43072 0.660911 0
M  V30 2123 C 210.82 -2.33497 -0.0122829 0
M  V30 2124 C 211.801 -1.49903 -0.803925 0
M  V30 2125 O 212.986 -1.78546 -0.763864 0
M  V30 2126 C 210.116 -3.33363 -0.973994 0
M  V30 2127 C 209.07 -4.27003 -0.291928 0
M  V30 2128 C 208.396 -5.16967 -1.36562 0
M  V30 2129 C 209.696 -5.15816 0.820462 0
M  V30 2130 H 211.39 -2.90038 0.742873 0
M  V30 2131 H 208.936 -1.39461 0.358688 0
M  V30 2132 H 210.889 -3.95524 -1.45392 0
M  V30 2133 H 209.613 -2.75095 -1.7604 0
M  V30 2134 H 208.272 -3.66217 0.167623 0
M  V30 2135 H 207.92 -4.55034 -2.14366 0
M  V30 2136 H 207.62 -5.80441 -0.914454 0
M  V30 2137 H 209.144 -5.82003 -1.84675 0
M  V30 2138 H 210.558 -5.71742 0.422366 0
M  V30 2139 H 208.955 -5.8805 1.19656 0
M  V30 2140 H 210.025 -4.55045 1.67518 0
M  V30 2141 N 211.368 -0.403325 -1.52352 0
M  V30 2142 C 212.645 0.232611 -1.94212 0
M  V30 2143 C 213.025 1.63133 -1.33981 0
M  V30 2144 O 212.373 2.22659 -0.513344 0
M  V30 2145 C 212.583 0.244811 -3.4814 0
M  V30 2146 C 213.931 0.46698 -4.22024 0
M  V30 2147 O 214.955 0.324419 -3.5472 0
M  V30 2148 O 213.814 0.74747 -5.41364 0
M  V30 2149 H 210.908 0.148223 -0.813609 0
M  V30 2150 H 213.454 -0.458848 -1.63379 0
M  V30 2151 H 212.226 -0.734378 -3.84347 0
M  V30 2152 H 211.849 0.980611 -3.85318 0
M  V30 2153 N 212.846 1.57033 -0.133567 0
M  V30 2154 C 214.262 1.58035 0.222944 0
M  V30 2155 C 214.462 1.14713 1.6566 0
M  V30 2156 O 213.518 0.841218 2.38075 0
M  V30 2157 C 214.831 3.00691 -0.0236116 0
M  V30 2158 C 216.379 3.12973 0.0411512 0
M  V30 2159 C 216.854 4.57654 -0.177899 0
M  V30 2160 N 218.345 4.63033 -0.124365 0
M  V30 2161 C 219.08 5.72771 -0.268553 0
M  V30 2162 N 218.576 6.91206 -0.46972 0
M  V30 2163 N 220.369 5.61718 -0.2071 0
M  V30 2164 H 212.52 1.8349 -1.06981 0
M  V30 2165 H 214.783 0.848677 -0.422436 0
M  V30 2166 H 214.489 3.36726 -1.0153 0
M  V30 2167 H 214.363 3.70614 0.701808 0
M  V30 2168 H 216.75 2.76787 1.02338 0
M  V30 2169 H 216.831 2.45564 -0.716383 0
M  V30 2170 H 216.475 4.94542 -1.15717 0
M  V30 2171 H 216.405 5.23173 0.599797 0
M  V30 2172 H 218.896 3.7789 0.027011 0
M  V30 2173 H 219.209 7.70693 -0.570212 0
M  V30 2174 H 217.554 6.93156 -0.505876 0
M  V30 2175 H 220.745 4.68072 -0.0507986 0
M  V30 2176 H 220.918 6.47195 -0.322909 0
M  V30 2177 N 214.325 -0.140222 1.56975 0
M  V30 2178 C 215.553 -0.866437 1.87884 0
M  V30 2179 C 215.968 -1.74428 0.722517 0
M  V30 2180 O 215.325 -1.79891 -0.30749 0
M  V30 2181 C 215.376 -1.71753 3.18093 0
M  V30 2182 O 215.097 -0.875056 4.29272 0
M  V30 2183 C 216.598 -2.55074 3.62563 0
M  V30 2184 H 213.818 -0.25019 0.622612 0
M  V30 2185 H 216.362 -0.130977 2.0408 0
M  V30 2186 H 214.517 -2.40598 3.03631 0
M  V30 2187 H 214.931 -1.46002 5.03769 0
M  V30 2188 H 216.405 -3.10356 4.5649 0
M  V30 2189 H 216.882 -3.31434 2.88181 0
M  V30 2190 H 217.488 -1.91509 3.79743 0
M  V30 2191 N 215.803 -1.52179 -0.40978 0
M  V30 2192 C 216.713 -1.78364 -1.52392 0
M  V30 2193 C 217.729 -0.669183 -1.60617 0
M  V30 2194 O 218.905 -0.954518 -1.77344 0
M  V30 2195 C 215.97 -1.92822 -2.88133 0
M  V30 2196 C 215.031 -3.16725 -2.898 0
M  V30 2197 C 214.264 -3.30483 -4.19067 0
M  V30 2198 O 214.487 -2.49522 -5.12928 0
M  V30 2199 O 213.421 -4.2363 -4.27576 0
M  V30 2200 H 217.247 -2.72931 -1.33201 0
M  V30 2201 H 214.832 -1.37016 -0.59557 0
M  V30 2202 H 216.714 -2.04157 -3.68643 0
M  V30 2203 H 215.389 -1.01444 -3.07393 0
M  V30 2204 H 214.296 -3.10848 -2.08146 0
M  V30 2205 H 215.629 -4.07881 -2.75489 0
M  V30 2206 N 217.281 0.66697 -1.42791 0
M  V30 2207 C 218.53 1.42278 -1.42968 0
M  V30 2208 C 218.843 1.9553 -0.0524489 0
M  V30 2209 O 220.049 2.71414 0.068363 0
M  V30 2210 C 218.505 2.57418 -2.51524 0
M  V30 2211 C 218.113 2.10832 -3.9529 0
M  V30 2212 C 219.857 3.34878 -2.60877 0
M  V30 2213 C 217.764 3.23101 -4.95338 0
M  V30 2214 H 216.694 0.534533 -0.531781 0
M  V30 2215 H 219.345 0.721302 -1.68729 0
M  V30 2216 H 217.727 3.29971 -2.18941 0
M  V30 2217 H 218.901 1.4538 -4.37266 0
M  V30 2218 H 217.216 1.46289 -3.89857 0
M  V30 2219 H 219.813 4.18505 -3.32802 0
M  V30 2220 H 220.156 3.81993 -1.6549 0
M  V30 2221 H 220.689 2.69398 -2.92693 0
M  V30 2222 H 217.428 2.80969 -5.9223 0
M  V30 2223 H 216.948 3.87309 -4.57987 0
M  V30 2224 H 218.627 3.88447 -5.17415 0
M  V30 2225 N 218.759 1.29093 0.90403 0
M  V30 2226 C 220.008 1.16187 1.64874 0
M  V30 2227 C 220.321 -0.286742 1.93487 0
M  V30 2228 O 221.527 -0.537062 2.66135 0
M  V30 2229 C 219.983 2.03177 2.97064 0
M  V30 2230 C 219.591 3.52836 2.76062 0
M  V30 2231 C 221.335 1.98984 3.74974 0
M  V30 2232 C 219.242 4.31945 4.03952 0
M  V30 2233 H 218.172 0.431246 0.618501 0
M  V30 2234 H 220.823 1.53699 1.00243 0
M  V30 2235 H 219.205 1.5853 3.62883 0
M  V30 2236 H 220.379 4.05507 2.18863 0
M  V30 2237 H 218.694 3.58656 2.11553 0
M  V30 2238 H 221.291 2.55351 4.69787 0
M  V30 2239 H 221.634 0.968815 4.0487 0
M  V30 2240 H 222.167 2.41652 3.15989 0
M  V30 2241 H 218.906 5.34667 3.79225 0
M  V30 2242 H 218.426 3.84045 4.60727 0
M  V30 2243 H 220.105 4.42379 4.72133 0
M  V30 2244 N 220.237 -1.11381 1.11499 0
M  V30 2245 C 221.465 -1.86934 0.88675 0
M  V30 2246 C 221.88 -1.80195 -0.563476 0
M  V30 2247 O 221.237 -1.18367 -1.38908 0
M  V30 2248 C 221.288 -3.35722 1.34064 0
M  V30 2249 O 221.009 -3.4232 2.73401 0
M  V30 2250 C 222.51 -4.2818 1.14791 0
M  V30 2251 H 219.73 -0.591117 0.317523 0
M  V30 2252 H 222.274 -1.40865 1.48248 0
M  V30 2253 H 220.429 -3.79294 0.788355 0
M  V30 2254 H 220.843 -4.34971 2.93087 0
M  V30 2255 H 222.317 -5.30817 1.5145 0
M  V30 2256 H 222.794 -4.39113 0.0875279 0
M  V30 2257 H 223.4 -3.90402 1.68721 0
M  V30 2258 N 221.715 -0.905404 -1.28997 0
M  V30 2259 C 222.962 -0.534248 -1.95325 0
M  V30 2260 C 223.29 0.920535 -1.71337 0
M  V30 2261 O 222.545 1.66861 -1.02254 0
M  V30 2262 C 222.844 -0.779906 -3.48787 0
M  V30 2263 C 222.51 -2.21293 -3.92861 0
M  V30 2264 C 221.172 -2.60475 -4.04606 0
M  V30 2265 C 223.524 -3.14587 -4.15553 0
M  V30 2266 C 220.852 -3.9212 -4.36416 0
M  V30 2267 C 223.204 -4.45787 -4.48839 0
M  V30 2268 C 221.868 -4.84834 -4.58794 0
M  V30 2269 H 221.138 -0.195495 -0.714747 0
M  V30 2270 H 223.785 -1.14514 -1.53488 0
M  V30 2271 H 222.09 -0.0861365 -3.91705 0
M  V30 2272 H 223.787 -0.472029 -3.98212 0
M  V30 2273 H 220.377 -1.89887 -3.84241 0
M  V30 2274 H 224.561 -2.85528 -4.0594 0
M  V30 2275 H 219.817 -4.22086 -4.42327 0
M  V30 2276 H 223.991 -5.18098 -4.65346 0
M  V30 2277 H 221.618 -5.86877 -4.83197 0
M  V30 2278 N 223.193 1.4272 -0.668489 0
M  V30 2279 C 224.421 2.05966 -0.196348 0
M  V30 2280 C 224.836 1.50191 1.14403 0
M  V30 2281 O 224.193 0.639208 1.7094 0
M  V30 2282 C 224.244 3.61314 -0.115815 0
M  V30 2283 O 223.965 4.1502 -1.40322 0
M  V30 2284 C 225.466 4.41663 0.380579 0
M  V30 2285 H 222.686 0.663954 -0.0969829 0
M  V30 2286 H 225.23 1.82966 -0.913446 0
M  V30 2287 H 223.385 3.83448 0.551931 0
M  V30 2288 H 223.799 5.08832 -1.27243 0
M  V30 2289 H 225.273 5.5065 0.385848 0
M  V30 2290 H 225.75 4.15792 1.41471 0
M  V30 2291 H 226.356 4.24534 -0.255209 0
M  V30 2292 N 224.671 0.411399 1.52136 0
M  V30 2293 C 225.634 -0.401089 2.25663 0
M  V30 2294 C 226.634 -0.971732 1.28117 0
M  V30 2295 O 227.824 -0.850254 1.52041 0
M  V30 2296 C 224.956 -1.56483 3.02863 0
M  V30 2297 H 226.149 0.24295 2.98914 0
M  V30 2298 H 223.702 0.163968 1.55438 0
M  V30 2299 H 224.437 -2.24567 2.33967 0
M  V30 2300 H 224.222 -1.16211 3.74483 0
M  V30 2301 H 225.712 -2.13951 3.58629 0
M  V30 2302 N 226.149 -1.5696 0.141893 0
M  V30 2303 C 227.082 -2.12271 -0.837627 0
M  V30 2304 C 228.06 -1.04495 -1.24578 0
M  V30 2305 O 229.244 -1.32293 -1.34278 0
M  V30 2306 C 226.371 -2.63822 -2.12404 0
M  V30 2307 C 225.417 -3.83698 -1.86221 0
M  V30 2308 S 226.25 -5.24948 -1.05781 0
M  V30 2309 C 227.406 -5.79884 -2.35552 0
M  V30 2310 H 227.639 -2.95023 -0.367249 0
M  V30 2311 H 225.172 -1.54231 -0.0723014 0
M  V30 2312 H 227.13 -2.94175 -2.86307 0
M  V30 2313 H 225.791 -1.8121 -2.56557 0
M  V30 2314 H 224.984 -4.17995 -2.81596 0
M  V30 2315 H 224.586 -3.5408 -1.20429 0
M  V30 2316 H 226.878 -5.91005 -3.31239 0
M  V30 2317 H 227.821 -6.77544 -2.05767 0
M  V30 2318 H 228.229 -5.08095 -2.45967 0
M  V30 2319 N 227.627 0.131896 -1.57047 0
M  V30 2320 C 228.56 1.19236 -1.94571 0
M  V30 2321 C 229.538 1.40782 -0.813576 0
M  V30 2322 O 230.722 1.55148 -1.07058 0
M  V30 2323 C 227.849 2.54858 -2.23081 0
M  V30 2324 C 226.895 2.49817 -3.45679 0
M  V30 2325 S 227.728 1.95036 -4.98719 0
M  V30 2326 C 228.884 3.32357 -5.30367 0
M  V30 2327 H 229.117 0.872297 -2.84215 0
M  V30 2328 H 226.65 0.338134 -1.50652 0
M  V30 2329 H 228.608 3.32898 -2.40185 0
M  V30 2330 H 227.269 2.84047 -1.34074 0
M  V30 2331 H 226.462 3.49688 -3.62952 0
M  V30 2332 H 226.064 1.79892 -3.27895 0
M  V30 2333 H 228.356 4.28525 -5.2476 0
M  V30 2334 H 229.299 3.19923 -6.31708 0
M  V30 2335 H 229.707 3.3019 -4.57859 0
M  V30 2336 N 229.106 1.52395 0.401703 0
M  V30 2337 C 230.053 1.76268 1.48991 0
M  V30 2338 C 231.023 0.605386 1.54675 0
M  V30 2339 O 232.208 0.843742 1.7113 0
M  V30 2340 C 229.348 1.92592 2.86361 0
M  V30 2341 C 228.461 3.20259 2.89928 0
M  V30 2342 C 227.596 3.26972 4.18644 0
M  V30 2343 C 226.635 4.48812 4.16214 0
M  V30 2344 N 225.772 4.52877 5.36514 0
M  V30 2345 H 230.612 2.6914 1.27935 0
M  V30 2346 H 228.149 1.33355 0.620871 0
M  V30 2347 H 230.107 2.0004 3.66115 0
M  V30 2348 H 228.737 1.03093 3.05895 0
M  V30 2349 H 227.789 3.21945 2.02621 0
M  V30 2350 H 229.101 4.10056 2.83999 0
M  V30 2351 H 228.255 3.33533 5.06794 0
M  V30 2352 H 226.994 2.35126 4.27278 0
M  V30 2353 H 225.999 4.4239 3.26453 0
M  V30 2354 H 227.224 5.41961 4.09213 0
M  V30 2355 H 225.17 3.63917 5.45802 0
M  V30 2356 H 225.087 5.36529 5.32609 0
M  V30 2357 H 226.355 4.63676 6.26597 0
M  V30 2358 N 230.584 -0.659388 1.43143 0
M  V30 2359 C 231.809 -1.45221 1.48073 0
M  V30 2360 C 232.234 -1.87845 0.097995 0
M  V30 2361 O 231.592 -1.56985 -0.90694 0
M  V30 2362 C 231.64 -2.66748 2.42647 0
M  V30 2363 O 230.744 -3.65583 1.90848 0
M  V30 2364 H 230.085 -0.435669 0.501088 0
M  V30 2365 H 232.615 -0.807432 1.87994 0
M  V30 2366 H 232.625 -3.14637 2.59745 0
M  V30 2367 H 231.3 -2.35067 3.43098 0
M  V30 2368 H 229.877 -3.24693 1.83381 0
M  V30 2369 N 232.062 -1.29571 -0.897171 0
M  V30 2370 C 233.025 -1.14913 -1.98312 0
M  V30 2371 C 234.025 -0.0838629 -1.60581 0
M  V30 2372 O 235.215 -0.331006 -1.71026 0
M  V30 2373 C 232.347 -0.757835 -3.3237 0
M  V30 2374 H 233.54 -2.11377 -2.12743 0
M  V30 2375 H 231.093 -1.12793 -1.08201 0
M  V30 2376 H 231.828 0.206837 -3.2364 0
M  V30 2377 H 231.613 -1.52755 -3.61121 0
M  V30 2378 H 233.103 -0.678408 -4.12053 0
M  V30 2379 N 233.54 1.10788 -1.12088 0
M  V30 2380 C 234.487 2.17025 -0.785407 0
M  V30 2381 C 235.457 1.64265 0.246191 0
M  V30 2382 O 236.642 1.90412 0.121584 0
M  V30 2383 C 233.782 3.44249 -0.242177 0
M  V30 2384 C 232.895 4.1098 -1.33115 0
M  V30 2385 C 232.03 5.25911 -0.747741 0
M  V30 2386 C 231.069 5.84538 -1.81609 0
M  V30 2387 N 230.206 6.90853 -1.25167 0
M  V30 2388 H 235.046 2.45066 -1.69548 0
M  V30 2389 H 232.583 1.20297 -0.846582 0
M  V30 2390 H 234.541 4.17101 0.0908026 0
M  V30 2391 H 233.171 3.16571 0.631072 0
M  V30 2392 H 232.223 3.36133 -1.78097 0
M  V30 2393 H 233.535 4.50601 -2.13917 0
M  V30 2394 H 232.689 6.056 -0.365216 0
M  V30 2395 H 231.428 4.87614 0.0915188 0
M  V30 2396 H 230.433 5.03522 -2.20785 0
M  V30 2397 H 231.658 6.249 -2.6585 0
M  V30 2398 H 229.604 6.54562 -0.434174 0
M  V30 2399 H 229.521 7.29166 -1.99633 0
M  V30 2400 H 230.789 7.7433 -0.896259 0
M  V30 2401 N 235.018 0.912232 1.28515 0
M  V30 2402 C 235.948 0.416403 2.29757 0
M  V30 2403 C 236.929 -0.515194 1.6211 0
M  V30 2404 O 238.114 -0.423253 1.89532 0
M  V30 2405 C 235.244 -0.34572 3.45575 0
M  V30 2406 C 234.198 0.496599 4.25109 0
M  V30 2407 C 233.524 -0.393771 5.33248 0
M  V30 2408 C 234.824 1.75307 4.92001 0
M  V30 2409 H 236.518 1.26249 2.7148 0
M  V30 2410 H 234.064 0.608515 1.30511 0
M  V30 2411 H 236.017 -0.703422 4.15488 0
M  V30 2412 H 234.741 -1.2257 3.02728 0
M  V30 2413 H 233.4 0.8368 3.56922 0
M  V30 2414 H 233.048 -1.27225 4.86644 0
M  V30 2415 H 232.748 0.166209 5.87365 0
M  V30 2416 H 234.272 -0.747389 6.06009 0
M  V30 2417 H 235.686 1.46437 5.54283 0
M  V30 2418 H 234.083 2.25534 5.56106 0
M  V30 2419 H 235.153 2.48176 4.16577 0
M  V30 2420 N 236.496 -1.42363 0.676048 0
M  V30 2421 C 237.907 -1.84649 0.275948 0
M  V30 2422 C 238.258 -1.56588 -1.18214 0
M  V30 2423 O 237.383 -1.02634 -1.90513 0
M  V30 2424 C 237.978 -3.35178 0.494053 0
M  V30 2425 C 236.537 -3.76109 0.148061 0
M  V30 2426 C 235.684 -2.65931 0.785891 0
M  V30 2427 H 238.635 -1.32192 0.878121 0
M  V30 2428 H 238.656 -3.79655 -0.25343 0
M  V30 2429 H 238.168 -3.55571 1.55535 0
M  V30 2430 H 236.269 -3.61323 -0.909742 0
M  V30 2431 H 236.382 -4.7546 0.589454 0
M  V30 2432 H 234.746 -2.53773 0.217113 0
M  V30 2433 H 235.529 -2.89146 1.85067 0
M  V30 2434 N 237.974 -0.419461 -1.51915 0
M  V30 2435 C 238.906 0.43646 -2.25006 0
M  V30 2436 C 239.919 1.00149 -1.28351 0
M  V30 2437 O 241.108 0.898674 -1.54227 0
M  V30 2438 C 238.208 1.6206 -2.9764 0
M  V30 2439 C 237.381 1.17763 -4.21249 0
M  V30 2440 C 236.44 2.22985 -4.76617 0
M  V30 2441 O 235.466 1.83151 -5.38929 0
M  V30 2442 N 236.668 3.55271 -4.59089 0
M  V30 2443 H 239.433 -0.18989 -2.99098 0
M  V30 2444 H 236.994 -0.247386 -1.59999 0
M  V30 2445 H 238.986 2.32038 -3.31573 0
M  V30 2446 H 237.556 2.15266 -2.2667 0
M  V30 2447 H 236.776 0.305582 -3.93014 0
M  V30 2448 H 238.064 0.858781 -5.015 0
M  V30 2449 H 237.462 3.90377 -4.09417 0
M  V30 2450 H 236.019 4.21195 -4.97432 0
M  V30 2451 N 239.452 1.56882 -0.150215 0
M  V30 2452 C 240.68 2.00593 0.506948 0
M  V30 2453 C 241.095 1.03033 1.58208 0
M  V30 2454 O 240.452 0.0278396 1.82479 0
M  V30 2455 C 240.503 3.44209 1.10465 0
M  V30 2456 O 240.224 4.3804 0.0724636 0
M  V30 2457 C 241.725 4.03214 1.84211 0
M  V30 2458 H 238.945 0.65795 0.13169 0
M  V30 2459 H 241.489 2.03018 -0.245743 0
M  V30 2460 H 239.644 3.42625 1.80795 0
M  V30 2461 H 240.058 5.22007 0.510793 0
M  V30 2462 H 241.532 5.0569 2.21318 0
M  V30 2463 H 242.009 3.44107 2.72923 0
M  V30 2464 H 242.615 4.08437 1.18572 0
M  V30 2465 N 240.93 -0.123565 1.57115 0
M  V30 2466 C 242.176 -0.833386 1.84885 0
M  V30 2467 C 242.509 -1.79742 0.735292 0
M  V30 2468 O 241.784 -1.92764 -0.25925 0
M  V30 2469 C 242.067 -1.5873 3.23228 0
M  V30 2470 C 241.92 -0.643183 4.45178 0
M  V30 2471 C 243.239 -2.54453 3.59085 0
M  V30 2472 H 240.358 -0.301518 0.6725 0
M  V30 2473 H 243 -0.097778 1.89748 0
M  V30 2474 H 241.15 -2.21438 3.19214 0
M  V30 2475 H 242.822 -0.0253015 4.61293 0
M  V30 2476 H 241.065 0.0456139 4.33776 0
M  V30 2477 H 241.736 -1.20724 5.38637 0
M  V30 2478 H 244.212 -2.01853 3.63861 0
M  V30 2479 H 243.088 -3.04238 4.5687 0
M  V30 2480 H 243.349 -3.36906 2.86264 0
M  V30 2481 N 242.408 -1.52605 -0.393616 0
M  V30 2482 C 243.355 -1.77055 -1.48054 0
M  V30 2483 C 244.325 -0.61358 -1.54352 0
M  V30 2484 O 245.51 -0.852806 -1.70681 0
M  V30 2485 C 242.65 -1.94108 -2.85335 0
M  V30 2486 C 241.763 -3.21792 -2.88226 0
M  V30 2487 C 240.898 -3.29188 -4.16904 0
M  V30 2488 C 239.937 -4.51013 -4.13828 0
M  V30 2489 N 239.074 -4.55716 -5.34105 0
M  V30 2490 H 243.914 -2.69815 -1.26506 0
M  V30 2491 H 241.451 -1.33683 -0.61379 0
M  V30 2492 H 243.409 -2.01979 -3.65049 0
M  V30 2493 H 242.039 -1.04713 -3.05344 0
M  V30 2494 H 241.091 -3.23015 -2.00911 0
M  V30 2495 H 242.403 -4.11557 -2.8182 0
M  V30 2496 H 241.557 -3.36216 -5.05018 0
M  V30 2497 H 240.296 -2.37389 -4.26026 0
M  V30 2498 H 239.301 -4.44115 -3.24102 0
M  V30 2499 H 240.526 -5.44123 -4.06333 0
M  V30 2500 H 238.472 -3.66807 -5.43865 0
M  V30 2501 H 238.389 -5.39346 -5.29756 0
M  V30 2502 H 239.657 -4.66993 -6.2413 0
M  V30 2503 N 243.887 0.651787 -1.4349 0
M  V30 2504 C 245.115 1.43937 -1.48626 0
M  V30 2505 C 245.53 1.8851 -0.104587 0
M  V30 2506 O 244.887 1.5958 0.885464 0
M  V30 2507 C 244.938 2.6734 -2.43334 0
M  V30 2508 O 244.659 2.24631 -3.76128 0
M  V30 2509 C 246.16 3.60683 -2.57726 0
M  V30 2510 H 243.38 0.44213 -0.504739 0
M  V30 2511 H 245.924 0.798944 -1.88248 0
M  V30 2512 H 244.079 3.2752 -2.06904 0
M  V30 2513 H 244.493 3.04485 -4.2707 0
M  V30 2514 H 245.967 4.43933 -3.28067 0
M  V30 2515 H 246.444 4.08126 -1.62265 0
M  V30 2516 H 247.05 3.06384 -2.94973 0
M  V30 2517 N 245.365 1.30045 0.890287 0
M  V30 2518 C 246.295 1.18541 2.01172 0
M  V30 2519 C 247.276 0.0773356 1.69924 0
M  V30 2520 O 248.461 0.25845 1.92473 0
M  V30 2521 C 245.591 0.870941 3.36202 0
M  V30 2522 C 244.545 1.93637 3.81692 0
M  V30 2523 C 243.871 1.475 5.13953 0
M  V30 2524 C 245.171 3.34666 4.00994 0
M  V30 2525 H 246.865 2.12359 2.11054 0
M  V30 2526 H 244.411 1.02238 1.01407 0
M  V30 2527 H 246.364 0.777141 4.14172 0
M  V30 2528 H 245.088 -0.102926 3.26438 0
M  V30 2529 H 243.747 2.01972 3.05946 0
M  V30 2530 H 243.395 0.489551 5.00612 0
M  V30 2531 H 243.095 2.1876 5.4536 0
M  V30 2532 H 244.619 1.39489 5.94454 0
M  V30 2533 H 246.033 3.2912 4.69417 0
M  V30 2534 H 244.43 4.03966 4.43769 0
M  V30 2535 H 245.5 3.76949 3.05021 0
M  V30 2536 N 246.843 -1.10192 1.12674 0
M  V30 2537 C 248.068 -1.86523 0.906853 0
M  V30 2538 C 248.493 -1.80221 -0.538711 0
M  V30 2539 O 247.851 -1.17396 -1.38158 0
M  V30 2540 C 247.899 -3.32758 1.3894 0
M  V30 2541 O 247.003 -4.08449 0.5695 0
M  V30 2542 H 246.344 -0.578678 0.325619 0
M  V30 2543 H 248.874 -1.39203 1.49946 0
M  V30 2544 H 248.884 -3.83608 1.38958 0
M  V30 2545 H 247.559 -3.36661 2.44197 0
M  V30 2546 H 246.136 -3.67427 0.636528 0
M  V30 2547 N 248.321 -0.919034 -1.28029 0
M  V30 2548 C 249.598 -0.473668 -1.89778 0
M  V30 2549 C 249.978 1.04783 -1.83259 0
M  V30 2550 O 249.326 1.8982 -1.27202 0
M  V30 2551 C 249.536 -1.00998 -3.34066 0
M  V30 2552 C 250.884 -1.06525 -4.1102 0
M  V30 2553 O 251.908 -0.958996 -3.43048 0
M  V30 2554 O 250.767 -1.22776 -5.3253 0
M  V30 2555 H 247.861 -0.15098 -0.813101 0
M  V30 2556 H 250.407 -1.01016 -1.36359 0
M  V30 2557 H 249.179 -2.05392 -3.33061 0
M  V30 2558 H 248.802 -0.454626 -3.94992 0
M  V30 2559 N 249.799 1.42003 -0.683588 0
M  V30 2560 C 251.045 2.01712 -0.209825 0
M  V30 2561 C 251.378 1.53968 1.18353 0
M  V30 2562 O 250.653 0.745661 1.79639 0
M  V30 2563 C 250.936 3.59202 -0.254197 0
M  V30 2564 C 250.789 4.17102 -1.68363 0
M  V30 2565 C 252.108 4.38344 0.392709 0
M  V30 2566 H 249.227 0.732891 -0.0777189 0
M  V30 2567 H 251.869 1.68909 -0.87004 0
M  V30 2568 H 250.019 3.87278 0.307954 0
M  V30 2569 H 251.691 3.99946 -2.29871 0
M  V30 2570 H 249.934 3.72597 -2.22157 0
M  V30 2571 H 250.605 5.26249 -1.6663 0
M  V30 2572 H 253.081 4.16011 -0.0859162 0
M  V30 2573 H 251.957 5.47901 0.331063 0
M  V30 2574 H 252.218 4.16887 1.47164 0
M  V30 2575 N 251.277 0.427512 1.51691 0
M  V30 2576 C 252.187 -0.39527 2.31246 0
M  V30 2577 C 253.203 -1.03674 1.39742 0
M  V30 2578 O 254.379 -1.03425 1.72816 0
M  V30 2579 C 251.444 -1.48706 3.13189 0
M  V30 2580 C 250.505 -0.866743 4.20459 0
M  V30 2581 C 249.738 -1.90651 4.98486 0
M  V30 2582 O 249.961 -3.12733 4.77026 0
M  V30 2583 O 248.895 -1.5025 5.82845 0
M  V30 2584 H 252.721 0.253918 3.02637 0
M  V30 2585 H 250.306 0.190274 1.48183 0
M  V30 2586 H 252.188 -2.12047 3.64162 0
M  V30 2587 H 250.863 -2.12051 2.44573 0
M  V30 2588 H 249.77 -0.195544 3.73589 0
M  V30 2589 H 251.103 -0.276934 4.9142 0
M  V30 2590 N 252.755 -1.56801 0.158532 0
M  V30 2591 C 254.032 -1.88131 -0.535357 0
M  V30 2592 C 254.412 -1.06638 -1.82186 0
M  V30 2593 O 253.76 -0.156533 -2.27963 0
M  V30 2594 C 253.97 -3.39949 -0.789653 0
M  V30 2595 C 255.318 -4.09416 -1.12533 0
M  V30 2596 O 256.342 -3.45194 -0.878622 0
M  V30 2597 O 255.201 -5.22855 -1.59014 0
M  V30 2598 H 252.295 -0.780143 -0.27442 0
M  V30 2599 H 254.841 -1.68564 0.19601 0
M  V30 2600 H 253.613 -3.91115 0.120353 0
M  V30 2601 H 253.236 -3.65084 -1.57479 0
M  V30 2602 N 254.233 0.115231 -1.57178 0
M  V30 2603 C 255.165 1.16694 -1.97269 0
M  V30 2604 C 256.178 1.37445 -0.872502 0
M  V30 2605 O 257.367 1.36454 -1.15077 0
M  V30 2606 C 254.467 2.52627 -2.25905 0
M  V30 2607 C 253.64 2.52427 -3.57211 0
M  V30 2608 C 252.699 3.70134 -3.74016 0
M  V30 2609 O 251.725 3.53546 -4.46087 0
M  V30 2610 N 252.927 4.88844 -3.13068 0
M  V30 2611 H 255.692 0.82588 -2.88096 0
M  V30 2612 H 253.253 0.304461 -1.59011 0
M  V30 2613 H 255.245 3.29937 -2.34359 0
M  V30 2614 H 253.815 2.789 -1.41186 0
M  V30 2615 H 253.035 1.60805 -3.5991 0
M  V30 2616 H 254.323 2.49353 -4.43509 0
M  V30 2617 H 253.721 5.05225 -2.54489 0
M  V30 2618 H 252.278 5.63817 -3.27037 0
M  V30 2619 N 255.711 1.52812 0.385517 0
M  V30 2620 C 256.658 1.77838 1.47113 0
M  V30 2621 C 257.628 0.621757 1.54024 0
M  V30 2622 O 258.813 0.861846 1.70226 0
M  V30 2623 C 255.953 1.95618 2.84302 0
M  V30 2624 C 255.066 3.23316 2.86515 0
M  V30 2625 C 254.201 3.31394 4.15152 0
M  V30 2626 C 253.24 4.53201 4.1143 0
M  V30 2627 N 252.377 4.58542 5.3168 0
M  V30 2628 H 257.217 2.70482 1.25073 0
M  V30 2629 H 254.754 1.34006 0.606692 0
M  V30 2630 H 256.712 2.03912 3.63972 0
M  V30 2631 H 255.342 1.06331 3.04784 0
M  V30 2632 H 254.394 3.24076 1.99195 0
M  V30 2633 H 255.706 4.13045 2.79634 0
M  V30 2634 H 254.86 3.3889 5.03228 0
M  V30 2635 H 253.599 2.39645 4.24761 0
M  V30 2636 H 252.604 4.45827 3.21742 0
M  V30 2637 H 253.829 5.46271 4.03442 0
M  V30 2638 H 251.775 3.69686 5.41912 0
M  V30 2639 H 251.692 5.42148 5.26889 0
M  V30 2640 H 252.96 4.70296 6.21644 0
M  V30 2641 N 257.189 -0.644168 1.43834 0
M  V30 2642 C 258.099 -1.78563 1.52159 0
M  V30 2643 C 259.115 -1.69147 0.408069 0
M  V30 2644 O 260.291 -1.90156 0.663524 0
M  V30 2645 C 257.356 -3.14888 1.45073 0
M  V30 2646 C 256.417 -3.36034 2.6717 0
M  V30 2647 C 255.65 -4.65855 2.60413 0
M  V30 2648 O 255.873 -5.45805 1.65689 0
M  V30 2649 O 254.807 -4.88918 3.5106 0
M  V30 2650 H 258.633 -1.74494 2.48567 0
M  V30 2651 H 256.218 -0.80378 1.25935 0
M  V30 2652 H 258.1 -3.96179 1.43597 0
M  V30 2653 H 256.775 -3.19528 0.518037 0
M  V30 2654 H 255.682 -2.54472 2.74217 0
M  V30 2655 H 257.015 -3.36247 3.59442 0
M  V30 2656 N 258.668 -1.30515 -0.883378 0
M  V30 2657 C 259.598 -1.19607 -2.00541 0
M  V30 2658 C 260.579 -0.086346 -1.69881 0
M  V30 2659 O 261.764 -0.268654 -1.92333 0
M  V30 2660 C 258.894 -0.888758 -3.35736 0
M  V30 2661 C 257.848 -1.95659 -3.8066 0
M  V30 2662 C 257.174 -1.50224 -5.13164 0
M  V30 2663 C 258.474 -3.36788 -3.99213 0
M  V30 2664 H 260.168 -2.13476 -2.09925 0
M  V30 2665 H 257.714 -1.02775 -1.00863 0
M  V30 2666 H 259.667 -0.799094 -4.13754 0
M  V30 2667 H 258.391 0.0856125 -3.26488 0
M  V30 2668 H 257.05 -2.03591 -3.04871 0
M  V30 2669 H 256.698 -0.516092 -5.00345 0
M  V30 2670 H 256.398 -2.2165 -5.44192 0
M  V30 2671 H 257.922 -1.42639 -5.93706 0
M  V30 2672 H 259.336 -3.31605 -4.67665 0
M  V30 2673 H 257.733 -4.06314 -4.41621 0
M  V30 2674 H 258.803 -3.78561 -3.03017 0
M  V30 2675 N 260.146 1.09593 -1.13257 0
M  V30 2676 C 261.109 2.14359 -0.811358 0
M  V30 2677 C 262.109 1.59808 0.178377 0
M  V30 2678 O 263.299 1.74132 -0.0484911 0
M  V30 2679 C 260.431 3.40269 -0.207276 0
M  V30 2680 H 261.624 2.44284 -1.73969 0
M  V30 2681 H 259.177 1.25102 -0.936973 0
M  V30 2682 H 259.912 3.15969 0.73036 0
M  V30 2683 H 259.697 3.81154 -0.919992 0
M  V30 2684 H 261.187 4.176 0.000667944 0
M  V30 2685 N 261.624 0.925811 1.2754 0
M  V30 2686 C 262.849 0.580924 1.99098 0
M  V30 2687 C 263.274 -0.833555 1.68622 0
M  V30 2688 O 262.632 -1.55903 0.925422 0
M  V30 2689 C 262.68 0.811186 3.51358 0
M  V30 2690 O 261.784 -0.124129 4.12213 0
M  V30 2691 H 261.125 0.223873 0.625122 0
M  V30 2692 H 263.655 1.24455 1.62395 0
M  V30 2693 H 263.665 0.72601 4.01489 0
M  V30 2694 H 262.34 1.84227 3.72872 0
M  V30 2695 H 260.917 0.0108006 3.72898 0
M  V30 2696 N 263.102 -1.41638 0.69111 0
M  V30 2697 C 264.513 -1.84346 0.295517 0
M  V30 2698 C 264.864 -1.57833 -1.16547 0
M  V30 2699 O 263.989 -1.04648 -1.89414 0
M  V30 2700 C 264.584 -3.34636 0.529575 0
M  V30 2701 C 263.143 -3.7593 0.187944 0
M  V30 2702 C 262.29 -2.65082 0.814052 0
M  V30 2703 H 265.241 -1.31253 0.892092 0
M  V30 2704 H 265.262 -3.79903 -0.213148 0
M  V30 2705 H 264.774 -3.53901 1.59297 0
M  V30 2706 H 262.875 -3.62268 -0.871367 0
M  V30 2707 H 262.988 -4.74808 0.63985 0
M  V30 2708 H 261.352 -2.53528 0.244017 0
M  V30 2709 H 262.135 -2.87167 1.88123 0
M  V30 2710 N 264.58 -0.43555 -1.51462 0
M  V30 2711 C 265.826 0.131709 -2.02372 0
M  V30 2712 C 266.159 1.42516 -1.3192 0
M  V30 2713 O 265.434 1.89606 -0.433573 0
M  V30 2714 C 265.717 0.352301 -3.58373 0
M  V30 2715 C 265.57 -0.959676 -4.39443 0
M  V30 2716 C 266.889 1.12286 -4.25535 0
M  V30 2717 H 264.008 0.0463936 -0.735538 0
M  V30 2718 H 266.65 -0.574197 -1.81116 0
M  V30 2719 H 264.8 0.9536 -3.76615 0
M  V30 2720 H 266.472 -1.59482 -4.32855 0
M  V30 2721 H 264.715 -1.56468 -4.04599 0
M  V30 2722 H 265.386 -0.759394 -5.46752 0
M  V30 2723 H 267.862 0.613545 -4.11552 0
M  V30 2724 H 266.738 1.24598 -5.34571 0
M  V30 2725 H 266.999 2.15048 -3.86273 0
M  V30 2726 N 266.058 1.56714 -0.166846 0
M  V30 2727 C 267.283 2.01557 0.488833 0
M  V30 2728 C 267.708 1.0463 1.56314 0
M  V30 2729 O 267.066 0.0251304 1.81283 0
M  V30 2730 C 267.114 3.4503 1.04818 0
M  V30 2731 O 266.218 3.51163 2.16236 0
M  V30 2732 H 265.559 0.653516 0.117526 0
M  V30 2733 H 268.089 2.02818 -0.269421 0
M  V30 2734 H 268.099 3.84243 1.37191 0
M  V30 2735 H 266.774 4.15077 0.261572 0
M  V30 2736 H 265.351 3.23807 1.84942 0
M  V30 2737 N 267.536 -0.106894 1.57237 0
M  V30 2738 C 268.947 -0.662723 1.74542 0
M  V30 2739 C 269.298 -1.7971 0.787319 0
M  V30 2740 O 268.423 -2.16368 -0.0369636 0
M  V30 2741 C 269.018 -1.20896 3.16496 0
M  V30 2742 C 267.577 -1.71096 3.35266 0
M  V30 2743 C 266.724 -0.615642 2.7038 0
M  V30 2744 H 269.675 0.119106 1.58252 0
M  V30 2745 H 269.696 -2.07847 3.18716 0
M  V30 2746 H 269.208 -0.383122 3.86204 0
M  V30 2747 H 267.309 -2.56119 2.70618 0
M  V30 2748 H 267.422 -1.81208 4.43509 0
M  V30 2749 H 265.786 -1.05222 2.31949 0
M  V30 2750 H 266.569 0.199419 3.4272 0
M  V30 2751 N 269.014 -1.53014 -0.377408 0
M  V30 2752 C 269.924 -1.81557 -1.48574 0
M  V30 2753 C 270.94 -0.703102 -1.59162 0
M  V30 2754 O 272.116 -0.99192 -1.75279 0
M  V30 2755 C 269.181 -1.9889 -2.83978 0
M  V30 2756 C 268.242 -3.22801 -2.83016 0
M  V30 2757 C 267.475 -3.39298 -4.11962 0
M  V30 2758 O 267.698 -2.60345 -5.0752 0
M  V30 2759 O 266.632 -4.32604 -4.18494 0
M  V30 2760 H 270.458 -2.75695 -1.27382 0
M  V30 2761 H 268.043 -1.38248 -0.566373 0
M  V30 2762 H 269.925 -2.11931 -3.6423 0
M  V30 2763 H 268.6 -1.07942 -3.05172 0
M  V30 2764 H 267.507 -3.15193 -2.01505 0
M  V30 2765 H 268.84 -4.13632 -2.66775 0
M  V30 2766 N 270.492 0.636531 -1.44174 0
M  V30 2767 C 271.422 1.76003 -1.53444 0
M  V30 2768 C 272.403 1.65619 -0.387841 0
M  V30 2769 O 273.588 1.84461 -0.607257 0
M  V30 2770 C 270.718 3.14511 -1.4731 0
M  V30 2771 C 269.672 3.39677 -2.60391 0
M  V30 2772 C 268.998 4.78159 -2.39308 0
M  V30 2773 C 270.298 3.32772 -4.02567 0
M  V30 2774 H 271.992 1.68501 -2.47483 0
M  V30 2775 H 269.538 0.809237 -1.19111 0
M  V30 2776 H 271.491 3.92878 -1.52397 0
M  V30 2777 H 270.215 3.22783 -0.49785 0
M  V30 2778 H 268.874 2.63688 -2.54684 0
M  V30 2779 H 268.522 4.83128 -1.39988 0
M  V30 2780 H 268.222 4.95956 -3.15122 0
M  V30 2781 H 269.746 5.58762 -2.46205 0
M  V30 2782 H 271.16 4.01051 -4.09672 0
M  V30 2783 H 269.557 3.62104 -4.7854 0
M  V30 2784 H 270.627 2.30669 -4.2652 0
M  V30 2785 N 271.97 1.30982 0.876444 0
M  V30 2786 C 273.386 1.09498 1.16113 0
M  V30 2787 C 273.586 -0.13875 2.01022 0
M  V30 2788 O 272.642 -0.829935 2.38471 0
M  V30 2789 C 273.955 2.36308 1.85954 0
M  V30 2790 C 275.503 2.41856 1.98683 0
M  V30 2791 C 275.978 3.6853 2.71937 0
M  V30 2792 N 277.469 3.69387 2.79477 0
M  V30 2793 C 278.204 4.64096 3.36753 0
M  V30 2794 N 277.7 5.69155 3.95012 0
M  V30 2795 N 279.493 4.51626 3.3465 0
M  V30 2796 H 271.644 2.10118 0.310494 0
M  V30 2797 H 273.907 0.926634 0.200131 0
M  V30 2798 H 273.613 3.26388 1.31011 0
M  V30 2799 H 273.487 2.4561 2.86278 0
M  V30 2800 H 275.874 1.52249 2.52793 0
M  V30 2801 H 275.955 2.36523 0.9742 0
M  V30 2802 H 275.599 4.58499 2.18496 0
M  V30 2803 H 275.529 3.71127 3.73593 0
M  V30 2804 H 278.02 2.93438 2.38123 0
M  V30 2805 H 278.333 6.3751 4.36808 0
M  V30 2806 H 276.678 5.72937 3.93406 0
M  V30 2807 H 279.869 3.68728 2.8837 0
M  V30 2808 H 280.042 5.25614 3.7899 0
M  V30 2809 N 273.449 -1.08991 1.13837 0
M  V30 2810 C 274.381 -2.15606 0.777612 0
M  V30 2811 C 275.394 -1.61533 -0.202739 0
M  V30 2812 O 276.583 -1.78491 0.0181055 0
M  V30 2813 C 273.683 -3.3864 0.132623 0
M  V30 2814 C 272.856 -4.22115 1.1462 0
M  V30 2815 C 271.915 -5.23564 0.526074 0
M  V30 2816 O 270.941 -5.56678 1.18735 0
M  V30 2817 N 272.143 -5.76266 -0.699866 0
M  V30 2818 H 274.908 -2.47159 1.69506 0
M  V30 2819 H 272.469 -1.24747 1.03198 0
M  V30 2820 H 274.461 -4.03626 -0.29459 0
M  V30 2821 H 273.031 -3.04938 -0.687849 0
M  V30 2822 H 272.251 -3.53199 1.75055 0
M  V30 2823 H 273.539 -4.74709 1.83109 0
M  V30 2824 H 272.937 -5.51585 -1.25581 0
M  V30 2825 H 271.494 -6.42963 -1.06968 0
M  V30 2826 N 274.927 -0.932562 -1.27047 0
M  V30 2827 C 275.874 -0.434072 -2.26681 0
M  V30 2828 C 276.844 0.501639 -1.58344 0
M  V30 2829 O 278.029 0.419734 -1.86126 0
M  V30 2830 C 275.169 0.30261 -3.43771 0
M  V30 2831 C 274.282 -0.667774 -4.26808 0
M  V30 2832 C 273.417 0.0892393 -5.31125 0
M  V30 2833 C 272.456 -0.873532 -6.05835 0
M  V30 2834 N 271.593 -0.148832 -7.01942 0
M  V30 2835 H 276.433 -1.28868 -2.68695 0
M  V30 2836 H 273.97 -0.646713 -1.32121 0
M  V30 2837 H 275.928 0.746092 -4.10474 0
M  V30 2838 H 274.558 1.12142 -3.02695 0
M  V30 2839 H 273.61 -1.22978 -3.59973 0
M  V30 2840 H 274.922 -1.40337 -4.78651 0
M  V30 2841 H 274.076 0.592409 -6.03801 0
M  V30 2842 H 272.815 0.85777 -4.80097 0
M  V30 2843 H 271.82 -1.38791 -5.31994 0
M  V30 2844 H 273.045 -1.64193 -6.58952 0
M  V30 2845 H 270.991 0.601365 -6.53238 0
M  V30 2846 H 270.908 -0.82391 -7.51497 0
M  V30 2847 H 272.176 0.333527 -7.78786 0
M  V30 2848 N 276.405 1.4127 -0.698611 0
M  V30 2849 C 277.315 2.34573 -0.0357891 0
M  V30 2850 C 278.331 1.56393 0.762701 0
M  V30 2851 O 279.507 1.8886 0.699564 0
M  V30 2852 C 276.572 3.35159 0.887089 0
M  V30 2853 C 275.633 4.29225 0.0804634 0
M  V30 2854 C 274.866 5.25006 0.959387 0
M  V30 2855 O 275.089 5.26314 2.19886 0
M  V30 2856 O 274.023 6.00519 0.407439 0
M  V30 2857 H 277.849 2.92838 -0.804957 0
M  V30 2858 H 275.434 1.42175 -0.458966 0
M  V30 2859 H 277.316 3.9689 1.41621 0
M  V30 2860 H 275.991 2.79333 1.6357 0
M  V30 2861 H 274.898 3.70833 -0.493328 0
M  V30 2862 H 276.231 4.88157 -0.629547 0
M  V30 2863 N 277.883 0.443576 1.51229 0
M  V30 2864 C 279.129 -0.120975 2.02439 0
M  V30 2865 C 279.462 -1.41815 1.32674 0
M  V30 2866 O 278.737 -1.89373 0.443622 0
M  V30 2867 C 279.02 -0.333291 3.58554 0
M  V30 2868 C 278.873 0.982968 4.38928 0
M  V30 2869 C 280.192 -1.10028 4.26124 0
M  V30 2870 H 277.311 -0.0424923 0.735774 0
M  V30 2871 H 279.953 0.583794 1.80809 0
M  V30 2872 H 278.103 -0.933614 3.77115 0
M  V30 2873 H 279.775 1.61775 4.32003 0
M  V30 2874 H 278.018 1.58611 4.03763 0
M  V30 2875 H 278.689 0.788379 5.46341 0
M  V30 2876 H 281.165 -0.591711 4.11871 0
M  V30 2877 H 280.041 -1.21761 5.35225 0
M  V30 2878 H 280.302 -2.12996 3.87408 0
M  V30 2879 N 279.361 -1.56624 0.175154 0
M  V30 2880 C 280.293 -2.15333 -0.785128 0
M  V30 2881 C 281.306 -1.1099 -1.19101 0
M  V30 2882 O 282.495 -1.38162 -1.13019 0
M  V30 2883 C 279.595 -2.68427 -2.06882 0
M  V30 2884 C 278.768 -3.97466 -1.8259 0
M  V30 2885 C 277.827 -4.35585 -2.95215 0
M  V30 2886 O 276.853 -5.03389 -2.65684 0
M  V30 2887 N 278.055 -3.97457 -4.23094 0
M  V30 2888 H 280.82 -2.98359 -0.283187 0
M  V30 2889 H 278.381 -1.61898 -0.00749817 0
M  V30 2890 H 280.373 -2.90924 -2.81328 0
M  V30 2891 H 278.943 -1.89968 -2.48256 0
M  V30 2892 H 278.163 -3.83307 -0.920287 0
M  V30 2893 H 279.451 -4.81736 -1.63733 0
M  V30 2894 H 278.849 -3.42878 -4.49945 0
M  V30 2895 H 277.406 -4.24947 -4.9423 0
M  V30 2896 N 280.839 0.0985539 -1.57292 0
M  V30 2897 C 281.772 1.15082 -1.97057 0
M  V30 2898 C 282.75 1.39025 -0.843255 0
M  V30 2899 O 283.934 1.52842 -1.10325 0
M  V30 2900 C 281.061 2.50069 -2.28437 0
M  V30 2901 C 280.107 2.42428 -3.509 0
M  V30 2902 S 280.94 1.84414 -5.02744 0
M  V30 2903 C 282.096 3.21032 -5.37298 0
M  V30 2904 H 282.329 0.811815 -2.86002 0
M  V30 2905 H 279.862 0.306102 -1.51335 0
M  V30 2906 H 281.82 3.27729 -2.47192 0
M  V30 2907 H 280.481 2.8114 -1.40069 0
M  V30 2908 H 279.674 3.41911 -3.70288 0
M  V30 2909 H 279.276 1.72896 -3.31637 0
M  V30 2910 H 281.568 4.17297 -5.33731 0
M  V30 2911 H 282.511 3.06452 -6.38352 0
M  V30 2912 H 282.919 3.20404 -4.64759 0
M  V30 2913 N 282.317 1.53212 0.369288 0
M  V30 2914 C 283.265 1.80054 1.47253 0
M  V30 2915 C 284.259 0.669456 1.55611 0
M  V30 2916 O 285.465 0.852328 1.58541 0
M  V30 2917 H 281.84 0.570034 0.490475 0
M  V30 2918 H 283.811 2.72403 1.21817 0
M  V30 2919 C 282.56 2.00403 2.84137 0
M  V30 2920 H 281.883 2.86876 2.78464 0
M  V30 2921 H 283.323 2.23164 3.60519 0
M  V30 2922 C 281.782 0.782081 3.27697 0
M  V30 2923 O 282.312 -0.0310205 4.01688 0
M  V30 2924 N 280.518 0.606573 2.84199 0
M  V30 2925 H 280.065 1.26939 2.24152 0
M  V30 2926 H 280.023 -0.20962 3.137 0
M  V30 2927 N 283.795 -0.628877 1.44509 0
M  V30 2928 C 285.042 -1.38839 1.47411 0
M  V30 2929 C 285.37 -1.94202 0.10757 0
M  V30 2930 O 284.625 -1.74243 -0.890947 0
M  V30 2931 C 284.924 -2.56995 2.48371 0
M  V30 2932 C 284.59 -2.19908 3.93639 0
M  V30 2933 C 283.252 -2.09506 4.33198 0
M  V30 2934 C 285.604 -1.9064 4.85083 0
M  V30 2935 C 282.932 -1.68028 5.62124 0
M  V30 2936 C 285.284 -1.50655 6.14399 0
M  V30 2937 C 283.948 -1.38796 6.5291 0
M  V30 2938 H 283.218 -0.508048 0.539414 0
M  V30 2939 H 285.865 -0.712913 1.77735 0
M  V30 2940 H 284.17 -3.29786 2.11538 0
M  V30 2941 H 285.867 -3.15223 2.47861 0
M  V30 2942 H 282.457 -2.28922 3.62343 0
M  V30 2943 H 286.641 -1.97585 4.55273 0
M  V30 2944 H 281.897 -1.57452 5.90778 0
M  V30 2945 H 286.071 -1.27048 6.84713 0
M  V30 2946 H 283.698 -1.06429 7.52713 0
M  V30 2947 N 285.273 -1.31445 -0.869486 0
M  V30 2948 C 286.203 -1.21727 -1.99261 0
M  V30 2949 C 287.184 -0.104359 -1.6978 0
M  V30 2950 O 288.369 -0.289038 -1.92037 0
M  V30 2951 C 285.499 -0.924317 -3.34774 0
M  V30 2952 C 284.453 -1.99685 -3.78563 0
M  V30 2953 C 283.779 -1.55658 -5.11541 0
M  V30 2954 C 285.079 -3.41003 -3.95619 0
M  V30 2955 H 286.773 -2.1569 -2.07649 0
M  V30 2956 H 284.319 -1.03839 -0.997675 0
M  V30 2957 H 286.272 -0.842934 -4.12883 0
M  V30 2958 H 284.996 0.0509793 -3.2656 0
M  V30 2959 H 283.655 -2.06813 -3.02694 0
M  V30 2960 H 283.303 -0.569132 -4.9977 0
M  V30 2961 H 283.003 -2.27409 -5.41811 0
M  V30 2962 H 284.527 -1.48928 -5.92159 0
M  V30 2963 H 285.941 -3.36547 -4.64122 0
M  V30 2964 H 284.338 -4.10975 -4.37286 0
M  V30 2965 H 285.408 -3.81754 -2.98985 0
M  V30 2966 N 286.751 1.08385 -1.14413 0
M  V30 2967 C 287.699 2.17406 -0.826888 0
M  V30 2968 C 288.693 1.6827 0.195312 0
M  V30 2969 O 289.899 1.79927 0.0513892 0
M  V30 2970 H 286.274 0.70934 -0.249681 0
M  V30 2971 H 288.245 2.41388 -1.75426 0
M  V30 2972 C 286.994 3.46215 -0.320979 0
M  V30 2973 H 286.317 3.84401 -1.0989 0
M  V30 2974 H 287.757 4.23777 -0.137549 0
M  V30 2975 C 286.216 3.23067 0.955472 0
M  V30 2976 O 286.746 3.4668 2.02918 0
M  V30 2977 N 284.952 2.7661 0.890798 0
M  V30 2978 H 284.499 2.57594 0.0168815 0
M  V30 2979 H 284.457 2.61501 1.74542 0
M  V30 2980 N 288.23 0.939286 1.26551 0
M  V30 2981 C 289.162 0.404704 2.25599 0
M  V30 2982 C 290.175 -0.470983 1.55838 0
M  V30 2983 O 291.364 -0.281734 1.76263 0
M  V30 2984 C 288.464 -0.43764 3.36062 0
M  V30 2985 C 287.637 0.421449 4.35365 0
M  V30 2986 C 286.696 -0.36015 5.24966 0
M  V30 2987 O 285.722 0.236167 5.6871 0
M  V30 2988 N 286.924 -1.65715 5.56344 0
M  V30 2989 H 289.689 1.25618 2.72103 0
M  V30 2990 H 287.25 0.807963 1.40298 0
M  V30 2991 H 289.242 -0.967866 3.92956 0
M  V30 2992 H 287.812 -1.18991 2.89067 0
M  V30 2993 H 287.032 1.1329 3.7757 0
M  V30 2994 H 288.32 1.00835 4.98708 0
M  V30 2995 H 287.718 -2.16378 5.22682 0
M  V30 2996 H 286.275 -2.13366 6.15888 0
M  V30 2997 N 289.708 -1.40897 0.706093 0
M  V30 2998 C 290.638 -2.33418 0.0620085 0
M  V30 2999 C 291.619 -1.52385 -0.755827 0
M  V30 3000 O 292.804 -1.80886 -0.706674 0
M  V30 3001 C 289.934 -3.36293 -0.867445 0
M  V30 3002 C 288.888 -4.27716 -0.155932 0
M  V30 3003 C 288.214 -5.2105 -1.20046 0
M  V30 3004 C 289.514 -5.12944 0.984149 0
M  V30 3005 H 291.208 -2.87527 0.83477 0
M  V30 3006 H 288.754 -1.38249 0.402875 0
M  V30 3007 H 290.707 -3.99949 -1.32735 0
M  V30 3008 H 289.431 -2.80556 -1.67199 0
M  V30 3009 H 288.09 -3.65498 0.284047 0
M  V30 3010 H 287.738 -4.61624 -1.99781 0
M  V30 3011 H 287.438 -5.83056 -0.729328 0
M  V30 3012 H 288.962 -5.87584 -1.66066 0
M  V30 3013 H 290.376 -5.70109 0.604048 0
M  V30 3014 H 288.773 -5.83945 1.38304 0
M  V30 3015 H 289.843 -4.49485 1.81911 0
M  V30 3016 N 291.186 -0.45159 -1.50991 0
M  V30 3017 C 292.414 0.108334 -2.06616 0
M  V30 3018 C 292.829 1.35224 -1.31757 0
M  V30 3019 O 292.186 1.78475 -0.381174 0
M  V30 3020 C 292.237 0.41619 -3.59096 0
M  V30 3021 O 291.958 -0.778361 -4.3113 0
M  V30 3022 C 293.459 1.02523 -4.31282 0
M  V30 3023 H 290.679 0.00159995 -0.670998 0
M  V30 3024 H 293.223 -0.634771 -1.94399 0
M  V30 3025 H 291.378 1.10921 -3.71181 0
M  V30 3026 H 291.792 -0.511181 -5.22003 0
M  V30 3027 H 293.266 1.19053 -5.39009 0
M  V30 3028 H 293.743 2.01013 -3.905 0
M  V30 3029 H 294.349 0.371173 -4.23677 0
M  V30 3030 N 292.664 1.56529 -0.183458 0
M  V30 3031 C 293.889 2.02064 0.467428 0
M  V30 3032 C 294.314 1.06282 1.55196 0
M  V30 3033 O 293.672 0.0443565 1.81246 0
M  V30 3034 C 293.72 3.46122 1.01153 0
M  V30 3035 O 292.824 3.53437 2.12499 0
M  V30 3036 H 292.165 0.654726 0.110588 0
M  V30 3037 H 294.695 2.02521 -0.290917 0
M  V30 3038 H 294.705 3.85676 1.33108 0
M  V30 3039 H 293.38 4.15331 0.217533 0
M  V30 3040 H 291.957 3.2575 1.81497 0
M  V30 3041 N 294.142 -0.090211 1.57342 0
M  V30 3042 C 295.388 -0.793982 1.86611 0
M  V30 3043 C 295.721 -1.78142 0.773252 0
M  V30 3044 O 294.996 -1.93271 -0.218304 0
M  V30 3045 C 295.279 -1.51839 3.26523 0
M  V30 3046 C 295.132 -0.548609 4.46442 0
M  V30 3047 C 296.451 -2.46779 3.64401 0
M  V30 3048 H 293.57 -0.287186 0.678744 0
M  V30 3049 H 296.212 -0.0575076 1.89913 0
M  V30 3050 H 294.362 -2.14617 3.23839 0
M  V30 3051 H 296.034 0.0725513 4.61243 0
M  V30 3052 H 294.277 0.137614 4.33582 0
M  V30 3053 H 294.948 -1.09271 5.41076 0
M  V30 3054 H 297.424 -1.94089 3.68061 0
M  V30 3055 H 296.3 -2.94479 4.63221 0
M  V30 3056 H 296.561 -3.30758 2.93346 0
M  V30 3057 N 295.62 -1.53406 -0.361157 0
M  V30 3058 C 296.867 -1.69802 -1.10333 0
M  V30 3059 C 297.195 -0.452087 -1.89173 0
M  V30 3060 O 296.45 0.566017 -1.87336 0
M  V30 3061 C 296.749 -2.90211 -2.08596 0
M  V30 3062 C 296.415 -4.26539 -1.46203 0
M  V30 3063 C 295.077 -4.6361 -1.28915 0
M  V30 3064 C 297.429 -5.113 -1.01101 0
M  V30 3065 C 294.757 -5.83075 -0.651157 0
M  V30 3066 C 297.109 -6.31415 -0.387007 0
M  V30 3067 C 295.773 -6.67195 -0.201657 0
M  V30 3068 H 295.043 -0.621351 -0.403737 0
M  V30 3069 H 297.69 -1.87598 -0.384609 0
M  V30 3070 H 295.995 -2.66946 -2.86788 0
M  V30 3071 H 297.692 -3.00091 -2.65982 0
M  V30 3072 H 294.282 -3.97352 -1.60653 0
M  V30 3073 H 298.466 -4.83206 -1.13249 0
M  V30 3074 H 293.722 -6.09385 -0.496006 0
M  V30 3075 H 297.896 -6.96394 -0.0293563 0
M  V30 3076 H 295.523 -7.59628 0.294766 0
M  V30 3077 N 297.098 0.621204 -1.44841 0
M  V30 3078 C 298.046 1.75385 -1.52784 0
M  V30 3079 C 299.04 1.64639 -0.398779 0
M  V30 3080 O 300.246 1.70598 -0.574137 0
M  V30 3081 H 296.621 0.579193 -0.479625 0
M  V30 3082 H 298.592 1.6581 -2.48092 0
M  V30 3083 C 297.341 3.13742 -1.4987 0
M  V30 3084 H 296.664 3.22663 -2.36069 0
M  V30 3085 H 298.104 3.92861 -1.59487 0
M  V30 3086 C 296.563 3.36175 -0.220973 0
M  V30 3087 O 297.093 3.95469 0.704782 0
M  V30 3088 N 295.299 2.90348 -0.120963 0
M  V30 3089 H 294.846 2.42278 -0.875162 0
M  V30 3090 H 294.804 3.05732 0.733168 0
M  V30 3091 N 298.576 1.31904 0.862503 0
M  V30 3092 C 299.987 1.19803 1.43193 0
M  V30 3093 C 300.338 -0.192567 1.95253 0
M  V30 3094 O 299.463 -1.09081 1.86896 0
M  V30 3095 C 300.058 2.16883 2.60283 0
M  V30 3096 C 298.617 2.08692 3.13248 0
M  V30 3097 C 297.764 2.05691 1.85975 0
M  V30 3098 H 300.715 1.43846 0.670365 0
M  V30 3099 H 300.736 1.76278 3.37204 0
M  V30 3100 H 300.248 3.18083 2.22363 0
M  V30 3101 H 298.349 1.10713 3.55771 0
M  V30 3102 H 298.462 2.9815 3.75025 0
M  V30 3103 H 296.826 1.50814 2.05249 0
M  V30 3104 H 297.609 3.08659 1.50282 0
M  V30 3105 N 300.054 -1.07777 1.14986 0
M  V30 3106 C 301.47 -1.32373 0.891596 0
M  V30 3107 C 301.67 -1.9609 -0.463788 0
M  V30 3108 O 300.726 -2.21801 -1.20667 0
M  V30 3109 C 302.039 -2.21905 2.02925 0
M  V30 3110 C 303.587 -2.35367 2.06329 0
M  V30 3111 C 304.062 -3.28245 3.19405 0
M  V30 3112 N 305.553 -3.35824 3.19024 0
M  V30 3113 C 306.288 -4.07739 4.03158 0
M  V30 3114 N 305.784 -4.82306 4.97346 0
M  V30 3115 N 307.577 -4.03635 3.91197 0
M  V30 3116 H 299.728 -0.648039 2.02273 0
M  V30 3117 H 301.991 -0.348149 0.881757 0
M  V30 3118 H 301.697 -1.82342 3.0074 0
M  V30 3119 H 301.571 -3.22407 1.95789 0
M  V30 3120 H 303.958 -2.74186 1.09116 0
M  V30 3121 H 304.039 -1.34585 2.17533 0
M  V30 3122 H 303.683 -2.90146 4.16867 0
M  V30 3123 H 303.613 -4.28971 3.05437 0
M  V30 3124 H 306.104 -2.8267 2.50811 0
M  V30 3125 H 306.417 -5.34661 5.57994 0
M  V30 3126 H 304.762 -4.81337 5.01338 0
M  V30 3127 H 307.953 -3.44491 3.16928 0
M  V30 3128 H 308.126 -4.59417 4.5699 0
M  V30 3129 N 301.532 -0.945985 -1.26051 0
M  V30 3130 C 302.76 -0.613025 -1.9761 0
M  V30 3131 C 303.175 0.813035 -1.70397 0
M  V30 3132 O 302.532 1.54274 -0.974979 0
M  V30 3133 C 302.583 -0.85159 -3.51326 0
M  V30 3134 O 302.304 -2.22157 -3.77595 0
M  V30 3135 C 303.805 -0.529831 -4.40122 0
M  V30 3136 H 301.025 -0.230593 -0.630133 0
M  V30 3137 H 303.569 -1.268 -1.60443 0
M  V30 3138 H 301.724 -0.243151 -3.86636 0
M  V30 3139 H 302.138 -2.2852 -4.721 0
M  V30 3140 H 303.612 -0.747348 -5.46917 0
M  V30 3141 H 304.089 0.535341 -4.35925 0
M  V30 3142 H 304.695 -1.11721 -4.10364 0
M  V30 3143 N 303.011 1.40521 -0.713556 0
M  V30 3144 C 304.257 2.01221 -0.252564 0
M  V30 3145 C 304.59 1.56444 1.1506 0
M  V30 3146 O 303.865 0.783597 1.78017 0
M  V30 3147 C 304.148 3.58582 -0.330332 0
M  V30 3148 C 304.001 4.13437 -1.77173 0
M  V30 3149 C 305.32 4.39079 0.299641 0
M  V30 3150 H 302.439 0.731077 -0.0932471 0
M  V30 3151 H 305.081 1.67026 -0.905673 0
M  V30 3152 H 303.231 3.87844 0.225737 0
M  V30 3153 H 304.903 3.9498 -2.38303 0
M  V30 3154 H 303.146 3.67801 -2.3001 0
M  V30 3155 H 303.817 5.22597 -1.77755 0
M  V30 3156 H 306.293 4.15735 -0.174139 0
M  V30 3157 H 305.169 5.4848 0.214771 0
M  V30 3158 H 305.43 4.19915 1.38288 0
M  V30 3159 N 304.489 0.459591 1.5075 0
M  V30 3160 C 305.452 -0.329093 2.26825 0
M  V30 3161 C 306.452 -0.930481 1.31144 0
M  V30 3162 O 307.642 -0.801453 1.54669 0
M  V30 3163 C 304.774 -1.46768 3.07688 0
M  V30 3164 H 305.967 0.337924 2.9799 0
M  V30 3165 H 303.52 0.213336 1.54837 0
M  V30 3166 H 304.255 -2.17009 2.40993 0
M  V30 3167 H 304.04 -1.04238 3.77991 0
M  V30 3168 H 305.53 -2.02433 3.65254 0
M  V30 3169 N 305.967 -1.56429 0.191757 0
M  V30 3170 C 307.192 -2.02309 -0.456706 0
M  V30 3171 C 307.617 -1.07103 -1.5463 0
M  V30 3172 O 306.975 -0.0539677 -1.8122 0
M  V30 3173 C 307.023 -3.46654 -0.993159 0
M  V30 3174 O 306.127 -3.54559 -2.10622 0
M  V30 3175 H 305.468 -0.655303 -0.107114 0
M  V30 3176 H 307.998 -2.02364 0.301653 0
M  V30 3177 H 308.008 -3.86377 -1.31061 0
M  V30 3178 H 306.683 -4.1544 -0.195504 0
M  V30 3179 H 305.26 -3.26708 -1.79767 0
M  V30 3180 N 307.445 0.0818655 -1.57387 0
M  V30 3181 C 308.377 1.12484 -1.997 0
M  V30 3182 C 309.39 1.35564 -0.90146 0
M  V30 3183 O 310.579 1.33982 -1.17945 0
M  V30 3184 C 307.679 2.47778 -2.31213 0
M  V30 3185 C 306.852 2.44793 -3.62485 0
M  V30 3186 C 305.911 3.62117 -3.81782 0
M  V30 3187 O 304.937 3.44005 -4.53486 0
M  V30 3188 N 306.139 4.82094 -3.23367 0
M  V30 3189 H 308.904 0.764585 -2.89783 0
M  V30 3190 H 306.465 0.270664 -1.59621 0
M  V30 3191 H 308.457 3.24891 -2.41304 0
M  V30 3192 H 307.027 2.75843 -1.4707 0
M  V30 3193 H 306.247 1.53134 -3.6324 0
M  V30 3194 H 307.535 2.39889 -4.48699 0
M  V30 3195 H 306.933 4.99713 -2.65148 0
M  V30 3196 H 305.49 5.56753 -3.38923 0
M  V30 3197 N 308.923 1.53595 0.353017 0
M  V30 3198 C 310.334 1.61937 0.929153 0
M  V30 3199 C 310.685 0.494686 1.89861 0
M  V30 3200 O 309.81 -0.377017 2.1309 0
M  V30 3201 C 310.405 2.93526 1.69199 0
M  V30 3202 C 308.964 3.04161 2.21727 0
M  V30 3203 C 308.111 2.57322 1.03348 0
M  V30 3204 H 311.062 1.58155 0.131431 0
M  V30 3205 H 311.083 2.82034 2.55416 0
M  V30 3206 H 310.595 3.75362 0.986144 0
M  V30 3207 H 308.696 2.26938 2.95516 0
M  V30 3208 H 308.809 4.09465 2.48748 0
M  V30 3209 H 307.173 2.12499 1.40414 0
M  V30 3210 H 307.956 3.41588 0.342428 0
M  V30 3211 N 310.401 -0.613514 1.45168 0
M  V30 3212 C 311.65 -1.36874 1.4815 0
M  V30 3213 C 311.963 -1.952 0.124982 0
M  V30 3214 O 313.169 -2.71481 0.0324176 0
M  V30 3215 C 311.625 -2.47905 2.60904 0
M  V30 3216 C 311.233 -1.96016 4.02842 0
M  V30 3217 C 312.977 -3.24965 2.73126 0
M  V30 3218 C 310.884 -3.04494 5.06988 0
M  V30 3219 H 309.814 -0.514428 0.551253 0
M  V30 3220 H 312.465 -0.658182 1.7129 0
M  V30 3221 H 310.847 -3.21618 2.31037 0
M  V30 3222 H 312.021 -1.29051 4.4236 0
M  V30 3223 H 310.336 -1.31719 3.95018 0
M  V30 3224 H 312.933 -4.05865 3.48106 0
M  V30 3225 H 313.276 -3.75588 1.79553 0
M  V30 3226 H 313.809 -2.5835 3.0249 0
M  V30 3227 H 310.548 -2.58795 6.0225 0
M  V30 3228 H 310.068 -3.70044 4.72046 0
M  V30 3229 H 311.747 -3.68976 5.31475 0
M  V30 3230 N 311.879 -1.3236 -0.855495 0
M  V30 3231 C 313.104 -1.2601 -1.64731 0
M  V30 3232 C 313.529 0.169068 -1.87339 0
M  V30 3233 O 312.887 1.12016 -1.42556 0
M  V30 3234 C 312.935 -2.02417 -2.98429 0
M  V30 3235 O 312.039 -1.3714 -3.8893 0
M  V30 3236 H 311.38 -0.434325 -0.502253 0
M  V30 3237 H 313.91 -1.74661 -1.06558 0
M  V30 3238 H 313.92 -2.12559 -3.48257 0
M  V30 3239 H 312.595 -3.06343 -2.81295 0
M  V30 3240 H 311.172 -1.3554 -3.47395 0
M  V30 3241 N 313.357 1.07166 -1.15556 0
M  V30 3242 C 314.585 1.83514 -0.955519 0
M  V30 3243 C 315 1.82163 0.49621 0
M  V30 3244 O 314.357 1.23441 1.34419 0
M  V30 3245 C 314.408 3.30515 -1.46432 0
M  V30 3246 O 314.129 3.31937 -2.85918 0
M  V30 3247 C 315.63 4.23625 -1.30603 0
M  V30 3248 H 312.85 0.578926 -0.339244 0
M  V30 3249 H 315.394 1.35265 -1.53374 0
M  V30 3250 H 313.549 3.76106 -0.928584 0
M  V30 3251 H 313.963 4.23794 -3.09029 0
M  V30 3252 H 315.437 5.24831 -1.71047 0
M  V30 3253 H 315.914 4.38485 -0.250441 0
M  V30 3254 H 316.52 3.83871 -1.83094 0
M  V30 3255 N 314.835 0.952656 1.25548 0
M  V30 3256 C 315.767 0.428609 2.25157 0
M  V30 3257 C 316.78 -0.454428 1.56329 0
M  V30 3258 O 317.969 -0.263023 1.76552 0
M  V30 3259 C 315.069 -0.401972 3.36508 0
M  V30 3260 C 314.242 0.467601 4.34893 0
M  V30 3261 C 313.301 -0.30445 5.25319 0
M  V30 3262 O 312.327 0.296473 5.68427 0
M  V30 3263 N 313.529 -1.59805 5.5807 0
M  V30 3264 H 316.294 1.28497 2.70756 0
M  V30 3265 H 313.855 0.822798 1.39433 0
M  V30 3266 H 315.847 -0.926134 3.9396 0
M  V30 3267 H 314.417 -1.15918 2.90313 0
M  V30 3268 H 313.637 1.17288 3.76347 0
M  V30 3269 H 314.925 1.06119 4.97611 0
M  V30 3270 H 314.323 -2.10823 5.24948 0
M  V30 3271 H 312.88 -2.06822 6.18116 0
M  V30 3272 N 316.313 -1.40141 0.720998 0
M  V30 3273 C 317.541 -2.05096 0.272656 0
M  V30 3274 C 317.956 -1.54334 -1.0875 0
M  V30 3275 O 317.313 -0.702211 -1.6845 0
M  V30 3276 C 317.364 -3.60636 0.249835 0
M  V30 3277 O 317.085 -4.09526 1.55629 0
M  V30 3278 C 318.586 -4.42772 -0.216396 0
M  V30 3279 H 315.806 -0.659897 0.121558 0
M  V30 3280 H 318.35 -1.79449 0.980723 0
M  V30 3281 H 316.505 -3.85232 -0.409237 0
M  V30 3282 H 316.919 -5.03758 1.4604 0
M  V30 3283 H 318.393 -5.51702 -0.181212 0
M  V30 3284 H 318.87 -4.20756 -1.25941 0
M  V30 3285 H 319.476 -4.23294 0.412596 0
M  V30 3286 N 317.792 -0.46758 -1.50504 0
M  V30 3287 C 318.722 0.318381 -2.31319 0
M  V30 3288 C 319.703 0.993564 -1.38066 0
M  V30 3289 O 320.888 0.991411 -1.66987 0
M  V30 3290 C 318.018 1.40275 -3.17711 0
M  V30 3291 C 316.972 0.849373 -4.19487 0
M  V30 3292 C 316.298 2.03177 -4.94594 0
M  V30 3293 C 317.598 -0.136942 -5.2212 0
M  V30 3294 H 319.292 -0.356106 -2.97275 0
M  V30 3295 H 316.838 -0.172703 -1.42961 0
M  V30 3296 H 318.791 1.96004 -3.73042 0
M  V30 3297 H 317.515 2.10596 -2.49634 0
M  V30 3298 H 316.174 0.314076 -3.65252 0
M  V30 3299 H 315.822 2.72187 -4.22993 0
M  V30 3300 H 315.522 1.66774 -5.63436 0
M  V30 3301 H 317.046 2.59403 -5.52759 0
M  V30 3302 H 318.46 0.331056 -5.72343 0
M  V30 3303 H 316.857 -0.41507 -5.98663 0
M  V30 3304 H 317.927 -1.06398 -4.73083 0
M  V30 3305 N 319.27 1.56325 -0.20005 0
M  V30 3306 C 320.516 1.98012 0.438059 0
M  V30 3307 C 320.849 1.08702 1.60927 0
M  V30 3308 O 320.124 0.140064 1.93995 0
M  V30 3309 C 320.407 3.48841 0.893419 0
M  V30 3310 C 320.26 4.48928 -0.279947 0
M  V30 3311 C 321.579 4.03498 1.75719 0
M  V30 3312 H 318.698 0.719918 0.157757 0
M  V30 3313 H 321.34 1.87743 -0.291968 0
M  V30 3314 H 319.49 3.57723 1.51547 0
M  V30 3315 H 321.162 4.52079 -0.91772 0
M  V30 3316 H 319.405 4.23694 -0.930919 0
M  V30 3317 H 320.076 5.5194 0.0812601 0
M  V30 3318 H 322.552 3.97427 1.23253 0
M  V30 3319 H 321.428 5.09393 2.04476 0
M  V30 3320 H 321.689 3.4906 2.71311 0
M  V30 3321 N 320.748 -0.0735177 1.57428 0
M  V30 3322 C 321.658 -1.10547 2.06922 0
M  V30 3323 C 322.674 -1.42506 0.998402 0
M  V30 3324 O 323.85 -1.52717 1.31299 0
M  V30 3325 C 320.915 -2.40019 2.50184 0
M  V30 3326 C 319.976 -2.15046 3.71556 0
M  V30 3327 C 319.209 -3.38345 4.12745 0
M  V30 3328 O 319.432 -4.47399 3.53822 0
M  V30 3329 O 318.366 -3.2666 5.05546 0
M  V30 3330 H 322.192 -0.715013 2.95163 0
M  V30 3331 H 319.777 -0.287531 1.46607 0
M  V30 3332 H 321.659 -3.16218 2.78539 0
M  V30 3333 H 320.334 -2.78447 1.65072 0
M  V30 3334 H 319.241 -1.36558 3.48285 0
M  V30 3335 H 320.574 -1.81499 4.57514 0
M  V30 3336 N 322.226 -1.5378 -0.344866 0
M  V30 3337 C 323.474 -1.70625 -1.08311 0
M  V30 3338 C 323.795 -0.471447 -1.89215 0
M  V30 3339 O 323.065 0.514616 -1.8902 0
M  V30 3340 H 321.645 -0.629058 -0.402859 0
M  V30 3341 H 324.307 -1.9103 -0.386459 0
M  V30 3342 H 323.403 -2.57656 -1.76124 0
M  V30 3343 N 323.704 0.605807 -1.45491 0
M  V30 3344 C 324.614 1.74466 -1.56839 0
M  V30 3345 C 325.63 1.68006 -0.452772 0
M  V30 3346 O 326.806 1.8833 -0.713708 0
M  V30 3347 C 323.871 3.10931 -1.53371 0
M  V30 3348 C 322.932 3.28832 -2.75986 0
M  V30 3349 C 322.165 4.58787 -2.72673 0
M  V30 3350 O 322.388 5.4122 -1.80102 0
M  V30 3351 O 321.322 4.79438 -3.63899 0
M  V30 3352 H 325.148 1.67843 -2.53106 0
M  V30 3353 H 322.733 0.770108 -1.28022 0
M  V30 3354 H 324.615 3.92233 -1.54051 0
M  V30 3355 H 323.29 3.18042 -0.602572 0
M  V30 3356 H 322.197 2.47112 -2.80867 0
M  V30 3357 H 323.53 3.26599 -3.68231 0
M  V30 3358 N 325.182 1.32811 0.848464 0
M  V30 3359 C 326.13 1.22231 1.97895 0
M  V30 3360 C 327.124 0.125749 1.68933 0
M  V30 3361 O 328.33 0.289083 1.77663 0
M  V30 3362 H 324.705 0.379058 0.649476 0
M  V30 3363 H 326.676 2.17828 2.03945 0
M  V30 3364 C 325.425 0.968572 3.33937 0
M  V30 3365 H 324.748 1.80458 3.56756 0
M  V30 3366 H 326.188 0.934808 4.13567 0
M  V30 3367 C 324.647 -0.328628 3.35293 0
M  V30 3368 O 325.177 -1.33848 3.78745 0
M  V30 3369 N 323.383 -0.352788 2.88451 0
M  V30 3370 H 322.93 0.469541 2.53285 0
M  V30 3371 H 322.888 -1.22057 2.89741 0
M  V30 3372 N 326.66 -1.06551 1.16123 0
M  V30 3373 C 327.937 -1.76097 0.85142 0
M  V30 3374 C 328.317 -2.00802 -0.6513 0
M  V30 3375 O 327.665 -1.63302 -1.59827 0
M  V30 3376 C 327.875 -3.06384 1.67122 0
M  V30 3377 C 329.223 -3.80585 1.88255 0
M  V30 3378 O 330.247 -3.16218 1.63966 0
M  V30 3379 O 329.106 -4.96212 2.2899 0
M  V30 3380 H 326.2 -0.765102 0.313923 0
M  V30 3381 H 328.746 -1.12844 1.26745 0
M  V30 3382 H 327.518 -2.84071 2.69108 0
M  V30 3383 H 327.141 -3.77371 1.25206 0
M  V30 3384 N 328.138 -0.959301 -1.25041 0
M  V30 3385 C 329.048 -0.489994 -2.29426 0
M  V30 3386 C 330.064 0.444944 -1.68215 0
M  V30 3387 O 331.24 0.320046 -1.98841 0
M  V30 3388 C 328.305 0.220309 -3.45999 0
M  V30 3389 C 327.366 -0.753418 -4.22637 0
M  V30 3390 C 326.599 -0.076918 -5.33645 0
M  V30 3391 O 326.822 1.13649 -5.58963 0
M  V30 3392 O 325.756 -0.764824 -5.97021 0
M  V30 3393 H 329.582 -1.35755 -2.71669 0
M  V30 3394 H 327.167 -0.725961 -1.30576 0
M  V30 3395 H 329.049 0.619677 -4.16819 0
M  V30 3396 H 327.724 1.06296 -3.0575 0
M  V30 3397 H 326.631 -1.20308 -3.54227 0
M  V30 3398 H 327.964 -1.56423 -4.66683 0
M  V30 3399 N 329.616 1.39756 -0.72842 0
M  V30 3400 C 330.548 2.29157 -0.0446202 0
M  V30 3401 C 331.561 1.46484 0.710367 0
M  V30 3402 O 332.75 1.69632 0.55562 0
M  V30 3403 C 329.85 3.24987 0.961071 0
M  V30 3404 C 329.023 4.36572 0.268967 0
M  V30 3405 C 328.082 5.12756 1.18184 0
M  V30 3406 O 327.108 5.6534 0.661794 0
M  V30 3407 N 328.31 5.23331 2.51206 0
M  V30 3408 H 331.075 2.88482 -0.812295 0
M  V30 3409 H 328.636 1.51265 -0.577098 0
M  V30 3410 H 330.628 3.72827 1.57423 0
M  V30 3411 H 329.198 2.66739 1.63 0
M  V30 3412 H 328.418 3.90694 -0.524574 0
M  V30 3413 H 329.706 5.08363 -0.210934 0
M  V30 3414 H 329.104 4.82116 2.9594 0
M  V30 3415 H 327.661 5.74634 3.07634 0
M  V30 3416 N 331.094 0.475555 1.50254 0
M  V30 3417 C 332.319 -0.0777042 2.07254 0
M  V30 3418 C 332.744 -1.3235 1.3366 0
M  V30 3419 O 332.102 -1.77152 0.385597 0
M  V30 3420 C 332.15 -0.340169 3.58992 0
M  V30 3421 O 331.254 -1.41982 3.87188 0
M  V30 3422 H 330.595 0.0149556 0.663832 0
M  V30 3423 H 333.125 0.667878 1.93392 0
M  V30 3424 H 333.135 -0.579332 4.03866 0
M  V30 3425 H 331.81 0.570167 4.11973 0
M  V30 3426 H 330.387 -1.16762 3.54148 0
M  V30 3427 N 332.573 -1.56217 0.208337 0
M  V30 3428 C 333.798 -2.02782 -0.435222 0
M  V30 3429 C 334.223 -1.08738 -1.53485 0
M  V30 3430 O 333.581 -0.0731855 -1.81152 0
M  V30 3431 C 333.629 -3.47687 -0.956335 0
M  V30 3432 O 332.733 -3.56773 -2.06849 0
M  V30 3433 H 332.074 -0.656403 -0.100158 0
M  V30 3434 H 334.604 -2.02033 0.3231 0
M  V30 3435 H 334.614 -3.87745 -1.26955 0
M  V30 3436 H 333.289 -4.15624 -0.15143 0
M  V30 3437 H 331.866 -3.28597 -1.76292 0
M  V30 3438 N 334.051 0.0651679 -1.57465 0
M  V30 3439 C 335.279 0.775808 -1.91804 0
M  V30 3440 C 335.694 1.70782 -0.804916 0
M  V30 3441 O 335.051 1.81153 0.221311 0
M  V30 3442 C 335.102 1.56381 -3.25925 0
M  V30 3443 O 334.823 0.669248 -4.32958 0
M  V30 3444 C 336.324 2.37485 -3.7432 0
M  V30 3445 H 333.544 0.2202 -0.63384 0
M  V30 3446 H 336.088 0.0334587 -2.04473 0
M  V30 3447 H 334.243 2.25837 -3.14764 0
M  V30 3448 H 334.657 1.21801 -5.10162 0
M  V30 3449 H 336.131 2.88223 -4.70778 0
M  V30 3450 H 336.608 3.17307 -3.03666 0
M  V30 3451 H 337.214 1.73173 -3.88447 0
M  V30 3452 N 335.529 1.53961 0.336706 0
M  V30 3453 C 336.806 1.62171 1.09361 0
M  V30 3454 C 337.186 0.447263 2.06307 0
M  V30 3455 O 336.534 -0.559802 2.21537 0
M  V30 3456 C 336.744 2.98565 1.80721 0
M  V30 3457 C 338.092 3.54157 2.34218 0
M  V30 3458 O 339.116 3.00784 1.90807 0
M  V30 3459 O 337.975 4.47528 3.13657 0
M  V30 3460 H 335.069 0.6562 0.503319 0
M  V30 3461 H 337.615 1.66307 0.33765 0
M  V30 3462 H 336.387 3.75482 1.10132 0
M  V30 3463 H 336.01 2.9805 2.63158 0
M  V30 3464 N 337.007 -0.598083 1.45811 0
M  V30 3465 C 337.939 -1.72231 1.51225 0
M  V30 3466 C 338.952 -1.57757 0.402059 0
M  V30 3467 O 340.141 -1.65464 0.669624 0
M  V30 3468 C 337.241 -3.10331 1.3619 0
M  V30 3469 C 336.414 -3.50955 2.61054 0
M  V30 3470 C 335.473 -4.68055 2.40439 0
M  V30 3471 O 334.499 -4.74691 3.14097 0
M  V30 3472 N 335.701 -5.61941 1.45612 0
M  V30 3473 H 338.466 -1.68046 2.48154 0
M  V30 3474 H 336.027 -0.783637 1.41671 0
M  V30 3475 H 338.019 -3.86439 1.20195 0
M  V30 3476 H 336.589 -3.0897 0.475015 0
M  V30 3477 H 335.809 -2.64711 2.92099 0
M  V30 3478 H 337.097 -3.74858 3.44034 0
M  V30 3479 H 336.495 -5.59301 0.848431 0
M  V30 3480 H 335.052 -6.37542 1.35585 0
M  V30 3481 N 338.485 -1.33259 -0.841409 0
M  V30 3482 C 339.448 -1.23221 -1.9326 0
M  V30 3483 C 340.448 -0.151895 -1.60081 0
M  V30 3484 O 341.638 -0.403246 -1.69468 0
M  V30 3485 C 338.77 -0.898123 -3.28856 0
M  V30 3486 H 339.963 -2.2021 -2.03587 0
M  V30 3487 H 337.516 -1.17281 -1.03319 0
M  V30 3488 H 338.251 0.0693841 -3.24226 0
M  V30 3489 H 338.036 -1.67934 -3.54317 0
M  V30 3490 H 339.526 -0.852563 -4.08805 0
M  V30 3491 N 339.963 1.05934 -1.16686 0
M  V30 3492 C 341.188 1.83029 -0.975455 0
M  V30 3493 C 341.613 1.82096 0.471452 0
M  V30 3494 O 340.971 1.22443 1.33706 0
M  V30 3495 C 341.019 3.27372 -1.51195 0
M  V30 3496 O 340.123 4.06054 -0.720701 0
M  V30 3497 H 339.464 0.566194 -0.346872 0
M  V30 3498 H 341.994 1.33541 -1.55009 0
M  V30 3499 H 342.004 3.78186 -1.53099 0
M  V30 3500 H 340.679 3.27366 -2.56523 0
M  V30 3501 H 339.256 3.64812 -0.772458 0
M  V30 3502 N 341.441 0.965919 1.2453 0
M  V30 3503 C 342.404 0.499547 2.2369 0
M  V30 3504 C 343.404 -0.40294 1.5567 0
M  V30 3505 O 344.594 -0.19865 1.73064 0
M  V30 3506 C 341.726 -0.276792 3.39774 0
M  V30 3507 H 342.919 1.37613 2.66463 0
M  V30 3508 H 340.472 0.750324 1.37112 0
M  V30 3509 H 341.207 -1.17055 3.02438 0
M  V30 3510 H 340.992 0.370826 3.90343 0
M  V30 3511 H 342.482 -0.592175 4.1338 0
M  V30 3512 N 342.919 -1.39368 0.735821 0
M  V30 3513 C 344.168 -1.99733 0.281004 0
M  V30 3514 C 344.481 -1.59055 -1.13846 0
M  V30 3515 O 345.687 -2.12262 -1.69284 0
M  V30 3516 C 344.143 -3.57057 0.451462 0
M  V30 3517 C 343.751 -4.06697 1.87886 0
M  V30 3518 C 345.495 -4.2446 0.0584616 0
M  V30 3519 C 343.402 -5.56598 1.99883 0
M  V30 3520 H 342.332 -0.747163 0.101311 0
M  V30 3521 H 344.983 -1.59357 0.909819 0
M  V30 3522 H 343.365 -3.95234 -0.246263 0
M  V30 3523 H 344.539 -3.79853 2.60861 0
M  V30 3524 H 342.854 -3.5196 2.22515 0
M  V30 3525 H 345.451 -5.34549 0.127099 0
M  V30 3526 H 345.794 -4.04444 -0.986433 0
M  V30 3527 H 346.327 -3.9146 0.707374 0
M  V30 3528 H 343.066 -5.81494 3.02564 0
M  V30 3529 H 342.586 -5.85242 1.31346 0
M  V30 3530 H 344.265 -6.22022 1.78039 0
M  V30 3531 N 344.397 -0.483516 -1.5 0
M  V30 3532 C 345.344 0.304164 -2.28787 0
M  V30 3533 C 346.314 0.976114 -1.34392 0
M  V30 3534 O 347.499 0.986156 -1.63339 0
M  V30 3535 C 344.639 1.37298 -3.16612 0
M  V30 3536 C 343.752 0.714561 -4.26049 0
M  V30 3537 C 342.887 1.76232 -5.01114 0
M  V30 3538 C 341.926 1.08483 -6.0241 0
M  V30 3539 N 341.063 2.076 -6.70706 0
M  V30 3540 H 345.903 -0.373981 -2.95644 0
M  V30 3541 H 343.44 -0.196275 -1.45785 0
M  V30 3542 H 345.398 2.00445 -3.65893 0
M  V30 3543 H 344.028 2.02012 -2.51776 0
M  V30 3544 H 343.08 -0.0297798 -3.80388 0
M  V30 3545 H 344.392 0.180383 -4.98474 0
M  V30 3546 H 343.546 2.46929 -5.54176 0
M  V30 3547 H 342.285 2.33033 -4.28424 0
M  V30 3548 H 341.29 0.363545 -5.48597 0
M  V30 3549 H 342.515 0.523551 -6.77079 0
M  V30 3550 H 340.461 2.63394 -6.00799 0
M  V30 3551 H 340.378 1.59201 -7.39047 0
M  V30 3552 H 341.646 2.77639 -7.2838 0
M  V30 3553 N 345.875 1.56104 -0.216619 0
M  V30 3554 C 347.103 2.02563 0.421413 0
M  V30 3555 C 347.518 1.0965 1.53695 0
M  V30 3556 O 346.875 0.10521 1.82196 0
M  V30 3557 C 346.926 3.48584 0.957665 0
M  V30 3558 O 346.647 4.37953 -0.113389 0
M  V30 3559 C 348.148 4.10664 1.66943 0
M  V30 3560 H 345.368 0.662944 0.103665 0
M  V30 3561 H 347.912 2.01793 -0.331629 0
M  V30 3562 H 346.067 3.49985 1.661 0
M  V30 3563 H 346.481 5.23704 0.288932 0
M  V30 3564 H 347.955 5.14622 1.99671 0
M  V30 3565 H 348.432 3.55373 2.58083 0
M  V30 3566 H 349.038 4.13098 1.01142 0
M  V30 3567 N 347.353 -0.0568162 1.57498 0
M  V30 3568 C 348.3 -1.06591 2.04712 0
M  V30 3569 C 349.27 -1.3758 0.930644 0
M  V30 3570 O 350.455 -1.48392 1.19935 0
M  V30 3571 C 347.595 -2.3701 2.50839 0
M  V30 3572 C 346.708 -2.12421 3.76167 0
M  V30 3573 C 345.843 -3.36511 4.11015 0
M  V30 3574 C 344.882 -3.07353 5.2934 0
M  V30 3575 N 344.019 -4.23816 5.59754 0
M  V30 3576 H 348.859 -0.65631 2.90683 0
M  V30 3577 H 346.396 -0.312481 1.43743 0
M  V30 3578 H 348.354 -3.13175 2.7564 0
M  V30 3579 H 346.984 -2.75744 1.67825 0
M  V30 3580 H 346.036 -1.2688 3.58616 0
M  V30 3581 H 347.348 -1.86894 4.62463 0
M  V30 3582 H 346.502 -4.21062 4.36797 0
M  V30 3583 H 345.241 -3.65128 3.23315 0
M  V30 3584 H 344.246 -2.212 5.03339 0
M  V30 3585 H 345.471 -2.80043 6.1867 0
M  V30 3586 H 343.417 -4.52436 4.75014 0
M  V30 3587 H 343.334 -4.01614 6.40501 0
M  V30 3588 H 344.602 -5.0932 5.90096 0
M  V30 3589 N 348.832 -1.54138 -0.328536 0
M  V30 3590 C 349.78 -1.83894 -1.42428 0
M  V30 3591 C 350.774 -0.710478 -1.53781 0
M  V30 3592 O 351.98 -0.894062 -1.56226 0
M  V30 3593 H 348.355 -0.582837 -0.475189 0
M  V30 3594 H 350.326 -2.75537 -1.14552 0
M  V30 3595 C 349.075 -2.07866 -2.78724 0
M  V30 3596 H 348.398 -2.94158 -2.7076 0
M  V30 3597 H 349.838 -2.32644 -3.54476 0
M  V30 3598 C 348.297 -0.868689 -3.25508 0
M  V30 3599 O 348.827 -0.0754908 -4.01629 0
M  V30 3600 N 347.033 -0.681711 -2.82491 0
M  V30 3601 H 346.58 -1.32838 -2.20708 0
M  V30 3602 H 346.538 0.126374 -3.14146 0
M  V30 3603 N 350.31 0.590341 -1.46126 0
M  V30 3604 C 351.556 1.35082 -1.51264 0
M  V30 3605 C 351.889 1.93534 -0.160711 0
M  V30 3606 O 351.164 1.76045 0.826956 0
M  V30 3607 C 351.447 2.48588 -2.6053 0
M  V30 3608 C 351.3 1.95221 -4.05227 0
M  V30 3609 C 352.619 3.50662 -2.6594 0
M  V30 3610 H 349.738 0.489803 -0.550692 0
M  V30 3611 H 352.38 0.663887 -1.78024 0
M  V30 3612 H 350.53 3.07186 -2.37843 0
M  V30 3613 H 352.202 1.41139 -4.39178 0
M  V30 3614 H 350.445 1.26101 -4.15068 0
M  V30 3615 H 351.116 2.77121 -4.77397 0
M  V30 3616 H 353.592 3.01934 -2.86313 0
M  V30 3617 H 352.468 4.27551 -3.44226 0
M  V30 3618 H 352.729 4.07399 -1.71694 0
M  V30 3619 N 351.788 1.33704 0.83433 0
M  V30 3620 C 353.035 1.25417 1.58987 0
M  V30 3621 C 353.363 -0.178869 1.93676 0
M  V30 3622 O 352.618 -1.13723 1.59265 0
M  V30 3623 C 352.917 2.07926 2.90692 0
M  V30 3624 C 352.583 3.57066 2.75345 0
M  V30 3625 C 351.245 3.97724 2.70867 0
M  V30 3626 C 353.597 4.51817 2.59828 0
M  V30 3627 C 350.925 5.31344 2.48778 0
M  V30 3628 C 353.277 5.85604 2.39272 0
M  V30 3629 C 351.941 6.25439 2.33199 0
M  V30 3630 H 351.211 0.458934 0.581774 0
M  V30 3631 H 353.858 1.65335 0.966261 0
M  V30 3632 H 352.163 1.608 3.57282 0
M  V30 3633 H 353.86 1.98868 3.48213 0
M  V30 3634 H 350.45 3.24785 2.79665 0
M  V30 3635 H 354.634 4.21311 2.62319 0
M  V30 3636 H 349.89 5.61241 2.42526 0
M  V30 3637 H 354.064 6.58623 2.2625 0
M  V30 3638 H 351.691 7.28914 2.15843 0
M  V30 3639 N 353.266 -1.05314 1.17247 0
M  V30 3640 C 354.515 -1.77685 0.954521 0
M  V30 3641 C 354.828 -1.88616 -0.518025 0
M  V30 3642 O 356.034 -2.57714 -0.854144 0
M  V30 3643 C 354.49 -3.19402 1.65863 0
M  V30 3644 C 354.098 -3.16605 3.16963 0
M  V30 3645 C 355.842 -3.96237 1.52303 0
M  V30 3646 C 353.749 -4.53103 3.80068 0
M  V30 3647 H 352.679 -0.666 0.353496 0
M  V30 3648 H 355.33 -1.1805 1.40486 0
M  V30 3649 H 353.712 -3.79355 1.13602 0
M  V30 3650 H 354.886 -2.66176 3.76148 0
M  V30 3651 H 353.201 -2.53268 3.30521 0
M  V30 3652 H 355.798 -4.97157 1.96822 0
M  V30 3653 H 356.141 -4.136 0.473401 0
M  V30 3654 H 356.674 -3.42829 2.01775 0
M  V30 3655 H 353.413 -4.40946 4.85023 0
M  V30 3656 H 352.933 -5.03686 3.2567 0
M  V30 3657 H 354.612 -5.22045 3.82202 0
M  V30 3658 N 354.744 -0.972509 -1.24016 0
M  V30 3659 C 355.707 -0.511403 -2.23422 0
M  V30 3660 C 356.707 0.394679 -1.55881 0
M  V30 3661 O 357.897 0.189469 -1.73167 0
M  V30 3662 C 355.029 0.258769 -3.39916 0
M  V30 3663 H 356.222 -1.39024 -2.6573 0
M  V30 3664 H 353.775 -0.757585 -1.36713 0
M  V30 3665 H 354.51 1.1545 -3.03054 0
M  V30 3666 H 354.295 -0.391522 -3.9014 0
M  V30 3667 H 355.785 0.570244 -4.13688 0
M  V30 3668 N 356.222 1.38976 -0.743202 0
M  V30 3669 C 357.154 2.29096 -0.0689228 0
M  V30 3670 C 358.167 1.47229 0.694791 0
M  V30 3671 O 359.356 1.70212 0.537597 0
M  V30 3672 C 356.456 3.25988 0.926548 0
M  V30 3673 C 355.629 4.36833 0.222647 0
M  V30 3674 C 354.688 5.13981 1.12739 0
M  V30 3675 O 353.714 5.6601 0.601795 0
M  V30 3676 N 354.916 5.25966 2.45641 0
M  V30 3677 H 357.681 2.87604 -0.842846 0
M  V30 3678 H 355.242 1.50645 -0.593109 0
M  V30 3679 H 357.234 3.74476 1.5346 0
M  V30 3680 H 355.804 2.68453 1.60162 0
M  V30 3681 H 355.024 3.90116 -0.565983 0
M  V30 3682 H 356.312 5.0811 -0.264841 0
M  V30 3683 H 355.71 4.85228 2.9081 0
M  V30 3684 H 354.267 5.77865 3.01522 0
M  V30 3685 N 357.7 0.491464 1.49741 0
M  V30 3686 C 358.648 -0.305837 2.30581 0
M  V30 3687 C 359.642 -0.971642 1.38764 0
M  V30 3688 O 360.848 -0.90042 1.5586 0
M  V30 3689 H 357.223 -0.117482 0.742767 0
M  V30 3690 H 359.194 0.396093 2.95759 0
M  V30 3691 C 357.943 -1.36319 3.19863 0
M  V30 3692 H 357.266 -0.860258 3.90435 0
M  V30 3693 H 358.706 -1.89323 3.79385 0
M  V30 3694 C 357.165 -2.37621 2.38826 0
M  V30 3695 O 357.695 -3.43311 2.08567 0
M  V30 3696 N 355.901 -2.09849 2.01026 0
M  V30 3697 H 355.448 -1.23922 2.25834 0
M  V30 3698 H 355.406 -2.77859 1.47112 0
M  V30 3699 N 359.178 -1.55987 0.224894 0
M  V30 3700 C 360.424 -1.98684 -0.406502 0
M  V30 3701 C 360.757 -1.11248 -1.59177 0
M  V30 3702 O 360.032 -0.170909 -1.93748 0
M  V30 3703 C 360.315 -3.50218 -0.837808 0
M  V30 3704 C 360.168 -4.48426 0.351332 0
M  V30 3705 C 361.487 -4.06243 -1.69278 0
M  V30 3706 H 358.606 -0.722337 -0.146283 0
M  V30 3707 H 361.248 -1.87255 0.321799 0
M  V30 3708 H 359.398 -3.60089 -1.45837 0
M  V30 3709 H 361.07 -4.50562 0.989526 0
M  V30 3710 H 359.313 -4.22159 0.998207 0
M  V30 3711 H 359.984 -5.52 0.00655905 0
M  V30 3712 H 362.46 -3.99337 -1.16914 0
M  V30 3713 H 361.336 -5.12581 -1.96346 0
M  V30 3714 H 361.597 -3.53332 -2.65723 0
M  V30 3715 N 360.656 0.0484629 -1.57525 0
M  V30 3716 C 361.619 1.03956 -2.04269 0
M  V30 3717 C 362.619 1.30211 -0.943496 0
M  V30 3718 O 363.809 1.25539 -1.20771 0
M  V30 3719 C 360.941 2.37742 -2.44319 0
M  V30 3720 H 362.134 0.636182 -2.93075 0
M  V30 3721 H 359.687 0.294811 -1.53494 0
M  V30 3722 H 360.422 2.82866 -1.5861 0
M  V30 3723 H 360.207 2.20021 -3.24551 0
M  V30 3724 H 361.697 3.08936 -2.80978 0
M  V30 3725 N 362.134 1.5431 0.320358 0
M  V30 3726 C 363.359 1.76954 1.08175 0
M  V30 3727 C 363.784 0.518193 1.80821 0
M  V30 3728 O 363.142 -0.530411 1.73368 0
M  V30 3729 C 363.19 2.96451 2.05303 0
M  V30 3730 O 362.294 2.68221 3.13259 0
M  V30 3731 H 361.635 0.586275 0.311733 0
M  V30 3732 H 364.165 2.01342 0.363676 0
M  V30 3733 H 364.175 3.23887 2.48116 0
M  V30 3734 H 362.85 3.87196 1.51829 0
M  V30 3735 H 361.427 2.51744 2.75099 0
M  V30 3736 N 363.613 -0.582584 1.46437 0
M  V30 3737 C 364.543 -1.70187 1.59871 0
M  V30 3738 C 365.524 -1.64066 0.449042 0
M  V30 3739 O 366.709 -1.82081 0.6753 0
M  V30 3740 C 363.839 -3.08827 1.58881 0
M  V30 3741 C 362.793 -3.29779 2.72819 0
M  V30 3742 C 362.119 -4.68947 2.5689 0
M  V30 3743 C 363.419 -3.17601 4.1464 0
M  V30 3744 H 365.113 -1.592 2.53566 0
M  V30 3745 H 362.659 -0.764472 1.22032 0
M  V30 3746 H 364.612 -3.86951 1.66873 0
M  V30 3747 H 363.336 -3.20713 0.617306 0
M  V30 3748 H 361.995 -2.54054 2.64296 0
M  V30 3749 H 361.643 -4.77599 1.57823 0
M  V30 3750 H 361.343 -4.83919 3.33312 0
M  V30 3751 H 362.867 -5.4924 2.66773 0
M  V30 3752 H 364.281 -3.8557 4.24274 0
M  V30 3753 H 362.678 -3.44094 4.9165 0
M  V30 3754 H 363.748 -2.14681 4.34788 0
M  V30 3755 N 365.091 -1.34144 -0.827227 0
M  V30 3756 C 366.023 -1.21206 -1.9453 0
M  V30 3757 C 367.036 -0.140176 -1.62195 0
M  V30 3758 O 368.225 -0.391647 -1.7415 0
M  V30 3759 C 365.325 -0.839141 -3.28347 0
M  V30 3760 C 364.498 -2.0051 -3.88734 0
M  V30 3761 C 363.557 -1.61128 -5.00923 0
M  V30 3762 O 362.583 -2.32726 -5.19449 0
M  V30 3763 N 363.785 -0.522958 -5.7814 0
M  V30 3764 H 366.55 -2.17525 -2.06162 0
M  V30 3765 H 364.111 -1.27043 -1.00358 0
M  V30 3766 H 366.103 -0.557556 -4.00841 0
M  V30 3767 H 364.673 0.0337293 -3.12582 0
M  V30 3768 H 363.893 -2.45166 -3.08686 0
M  V30 3769 H 365.181 -2.78498 -4.25812 0
M  V30 3770 H 364.579 0.0723518 -5.65654 0
M  V30 3771 H 363.136 -0.301089 -6.51104 0
M  V30 3772 N 366.569 1.04691 -1.17803 0
M  V30 3773 C 367.479 2.16057 -0.914151 0
M  V30 3774 C 368.495 1.73589 0.119503 0
M  V30 3775 O 369.671 2.01308 -0.0609468 0
M  V30 3776 C 366.736 3.4394 -0.436603 0
M  V30 3777 C 365.797 4.00825 -1.53746 0
M  V30 3778 C 365.03 5.22604 -1.0826 0
M  V30 3779 O 365.253 5.70367 0.0612244 0
M  V30 3780 O 364.187 5.7186 -1.87775 0
M  V30 3781 H 368.013 2.41169 -1.84584 0
M  V30 3782 H 365.598 1.1453 -0.959334 0
M  V30 3783 H 367.48 4.21024 -0.178057 0
M  V30 3784 H 366.155 3.20316 0.466869 0
M  V30 3785 H 365.062 3.25158 -1.84995 0
M  V30 3786 H 366.395 4.28778 -2.41683 0
M  V30 3787 N 368.047 0.979072 1.23499 0
M  V30 3788 C 368.977 0.537606 2.27227 0
M  V30 3789 C 369.958 -0.428539 1.64613 0
M  V30 3790 O 371.143 -0.322191 1.91509 0
M  V30 3791 C 368.273 -0.162052 3.46922 0
M  V30 3792 C 367.227 0.721242 4.21879 0
M  V30 3793 C 366.553 -0.110555 5.34586 0
M  V30 3794 C 367.853 2.01141 4.82016 0
M  V30 3795 H 369.547 1.40462 2.64406 0
M  V30 3796 H 367.093 0.67684 1.27102 0
M  V30 3797 H 369.046 -0.482192 4.18632 0
M  V30 3798 H 367.77 -1.06351 3.08799 0
M  V30 3799 H 366.429 1.02482 3.51984 0
M  V30 3800 H 366.077 -1.0125 4.92704 0
M  V30 3801 H 365.777 0.477325 5.85658 0
M  V30 3802 H 367.301 -0.425107 6.09118 0
M  V30 3803 H 368.715 1.75612 5.45741 0
M  V30 3804 H 367.112 2.54695 5.43369 0
M  V30 3805 H 368.182 2.69909 4.02836 0
M  V30 3806 N 369.525 -1.3858 0.750561 0
M  V30 3807 C 370.773 -1.99789 0.30477 0
M  V30 3808 C 371.094 -1.59874 -1.11649 0
M  V30 3809 O 370.364 -0.85417 -1.76297 0
M  V30 3810 H 368.944 -0.738902 0.109694 0
M  V30 3811 H 371.606 -1.69391 0.963983 0
M  V30 3812 H 370.702 -3.09952 0.365499 0
M  V30 3813 N 371.003 -0.499398 -1.49478 0
M  V30 3814 C 372.251 0.0455996 -2.02049 0
M  V30 3815 C 372.572 1.37633 -1.38138 0
M  V30 3816 O 371.842 1.8842 -0.536166 0
M  V30 3817 H 370.422 0.0198416 -0.746736 0
M  V30 3818 H 373.084 -0.656274 -1.83519 0
M  V30 3819 H 372.18 0.176445 -3.11601 0
M  V30 3820 N 372.481 1.55866 -0.233164 0
M  V30 3821 C 373.706 2.03449 0.402906 0
M  V30 3822 C 374.131 1.11166 1.51736 0
M  V30 3823 O 373.489 0.101996 1.81013 0
M  V30 3824 C 373.537 3.49165 0.9009 0
M  V30 3825 O 372.641 3.60019 2.01147 0
M  V30 3826 H 371.982 0.657913 0.0897025 0
M  V30 3827 H 374.512 2.01493 -0.355201 0
M  V30 3828 H 374.522 3.89716 1.2077 0
M  V30 3829 H 373.197 4.15813 0.0852889 0
M  V30 3830 H 371.774 3.3136 1.71042 0
M  V30 3831 N 373.959 -0.0401083 1.57549 0
M  V30 3832 C 374.869 -1.06133 2.0922 0
M  V30 3833 C 375.885 -1.40356 1.0284 0
M  V30 3834 O 377.061 -1.49897 1.34509 0
M  V30 3835 C 374.126 -2.34658 2.55218 0
M  V30 3836 C 373.187 -2.07117 3.76033 0
M  V30 3837 C 372.42 -3.29514 4.19829 0
M  V30 3838 O 372.643 -4.39794 3.63232 0
M  V30 3839 O 371.577 -3.15863 5.12362 0
M  V30 3840 H 375.403 -0.652244 2.96613 0
M  V30 3841 H 372.988 -0.256368 1.47184 0
M  V30 3842 H 374.87 -3.10239 2.85184 0
M  V30 3843 H 373.545 -2.74883 1.70941 0
M  V30 3844 H 372.452 -1.29139 3.51104 0
M  V30 3845 H 373.785 -1.71754 4.61261 0
M  V30 3846 N 375.437 -1.54477 -0.31217 0
M  V30 3847 C 376.384 -1.84655 -1.38461 0
M  V30 3848 C 377.354 -0.694536 -1.50882 0
M  V30 3849 O 378.539 -0.942081 -1.6592 0
M  V30 3850 C 375.679 -2.0896 -2.74645 0
M  V30 3851 C 374.792 -3.36618 -2.70763 0
M  V30 3852 C 373.927 -3.50824 -3.98868 0
M  V30 3853 C 372.966 -4.72315 -3.89339 0
M  V30 3854 N 372.103 -4.83387 -5.09197 0
M  V30 3855 H 376.943 -2.76142 -1.12026 0
M  V30 3856 H 374.48 -1.36748 -0.542065 0
M  V30 3857 H 376.438 -2.21045 -3.53829 0
M  V30 3858 H 375.068 -1.20752 -2.99364 0
M  V30 3859 H 374.12 -3.33211 -1.83506 0
M  V30 3860 H 375.432 -4.25917 -2.59608 0
M  V30 3861 H 374.586 -3.62513 -4.86486 0
M  V30 3862 H 373.325 -2.59638 -4.12843 0
M  V30 3863 H 372.33 -4.6067 -3.00105 0
M  V30 3864 H 373.555 -5.64897 -3.76919 0
M  V30 3865 H 371.501 -3.9512 -5.23657 0
M  V30 3866 H 371.418 -5.66669 -5.00422 0
M  V30 3867 H 372.686 -4.9942 -5.98498 0
M  V30 3868 N 376.915 0.57481 -1.46744 0
M  V30 3869 C 377.845 1.69337 -1.60771 0
M  V30 3870 C 378.826 1.63825 -0.457736 0
M  V30 3871 O 380.011 1.8172 -0.684947 0
M  V30 3872 C 377.141 3.0798 -1.60517 0
M  V30 3873 C 376.095 3.28327 -2.74564 0
M  V30 3874 C 375.421 4.67578 -2.59373 0
M  V30 3875 C 376.721 3.15398 -4.16319 0
M  V30 3876 H 378.415 1.57853 -2.54407 0
M  V30 3877 H 375.961 0.75799 -1.22436 0
M  V30 3878 H 377.914 3.86061 -1.68923 0
M  V30 3879 H 376.638 3.20381 -0.634305 0
M  V30 3880 H 375.297 2.52649 -2.65639 0
M  V30 3881 H 374.945 4.76755 -1.60353 0
M  V30 3882 H 374.645 4.82144 -3.35873 0
M  V30 3883 H 376.169 5.47817 -2.69682 0
M  V30 3884 H 377.583 3.83315 -4.26313 0
M  V30 3885 H 375.98 3.41482 -4.93468 0
M  V30 3886 H 377.05 2.12372 -4.3592 0
M  V30 3887 N 378.394 1.34581 0.820102 0
M  V30 3888 C 379.324 1.29038 1.94606 0
M  V30 3889 C 380.305 0.1673 1.69275 0
M  V30 3890 O 381.49 0.360112 1.90832 0
M  V30 3891 C 378.62 1.04793 3.31113 0
M  V30 3892 C 377.574 2.13597 3.70891 0
M  V30 3893 C 376.9 1.74537 5.05412 0
M  V30 3894 C 378.2 3.55451 3.8269 0
M  V30 3895 H 379.894 2.23248 1.99501 0
M  V30 3896 H 377.44 1.0747 0.958449 0
M  V30 3897 H 379.393 0.995592 4.0947 0
M  V30 3898 H 378.117 0.0702565 3.26524 0
M  V30 3899 H 376.776 2.17905 2.9481 0
M  V30 3900 H 376.424 0.754226 4.97313 0
M  V30 3901 H 376.124 2.47361 5.32997 0
M  V30 3902 H 377.648 1.70803 5.86224 0
M  V30 3903 H 379.062 3.5354 4.51312 0
M  V30 3904 H 377.459 4.26922 4.21732 0
M  V30 3905 H 378.529 3.92587 2.84611 0
M  V30 3906 N 379.872 -1.04064 1.18357 0
M  V30 3907 C 381.288 -1.2947 0.933258 0
M  V30 3908 C 381.488 -1.97466 -0.401169 0
M  V30 3909 O 380.544 -2.25528 -1.13549 0
M  V30 3910 C 381.857 -2.15337 2.09882 0
M  V30 3911 C 383.405 -2.28683 2.13712 0
M  V30 3912 C 383.88 -3.17917 3.29686 0
M  V30 3913 N 385.371 -3.25504 3.29547 0
M  V30 3914 C 386.106 -3.94706 4.15926 0
M  V30 3915 N 385.602 -4.66239 5.12439 0
M  V30 3916 N 387.395 -3.90986 4.0384 0
M  V30 3917 H 379.546 -0.583359 2.04232 0
M  V30 3918 H 381.809 -0.319921 0.892387 0
M  V30 3919 H 381.515 -1.72682 3.06389 0
M  V30 3920 H 381.389 -3.16015 2.05947 0
M  V30 3921 H 383.776 -2.70575 1.17784 0
M  V30 3922 H 383.857 -1.27596 2.21705 0
M  V30 3923 H 383.501 -2.76736 4.25887 0
M  V30 3924 H 383.431 -4.19036 3.1893 0
M  V30 3925 H 385.922 -2.74547 2.59677 0
M  V30 3926 H 386.235 -5.16638 5.74722 0
M  V30 3927 H 384.58 -4.65143 5.16398 0
M  V30 3928 H 387.771 -3.34234 3.27727 0
M  V30 3929 H 387.944 -4.44646 4.71375 0
M  V30 3930 N 381.35 -0.985608 -1.22978 0
M  V30 3931 C 382.596 -0.65836 -1.91816 0
M  V30 3932 C 382.929 0.806692 -1.76653 0
M  V30 3933 O 382.204 1.58252 -1.13078 0
M  V30 3934 C 382.487 -1.056 -3.44268 0
M  V30 3935 C 382.34 -2.57906 -3.68516 0
M  V30 3936 C 383.659 -0.603781 -4.35939 0
M  V30 3937 H 380.778 -0.24065 -0.696604 0
M  V30 3938 H 383.42 -1.22783 -1.44998 0
M  V30 3939 H 381.57 -0.571445 -3.84274 0
M  V30 3940 H 383.242 -3.13976 -3.3796 0
M  V30 3941 H 381.485 -3.00305 -3.13048 0
M  V30 3942 H 382.156 -2.80779 -4.75255 0
M  V30 3943 H 384.632 -1.01987 -4.03408 0
M  V30 3944 H 383.508 -0.910383 -5.41298 0
M  V30 3945 H 383.769 0.495761 -4.39312 0
M  V30 3946 N 382.828 1.3818 -0.7579 0
M  V30 3947 C 384.068 2.01864 -0.320968 0
M  V30 3948 C 384.432 1.58863 1.07827 0
M  V30 3949 O 385.633 2.14908 1.61456 0
M  V30 3950 C 383.904 3.54626 -0.44446 0
M  V30 3951 S 385.463 4.38706 -0.0907467 0
M  V30 3952 H 382.281 0.700056 -0.124268 0
M  V30 3953 H 384.883 1.68611 -0.989468 0
M  V30 3954 H 383.587 3.83411 -1.4637 0
M  V30 3955 H 383.118 3.92661 0.241073 0
M  V30 3956 H 385.133 4.83435 1.11826 0
M  V30 3957 N 384.306 0.507319 1.49211 0
M  V30 3958 C 385.236 -0.256939 2.32082 0
M  V30 3959 C 386.217 -0.956609 1.40652 0
M  V30 3960 O 387.402 -0.946788 1.69557 0
M  V30 3961 C 384.532 -1.31802 3.21318 0
M  V30 3962 C 383.486 -0.737855 4.21592 0
M  V30 3963 C 382.812 -1.89992 4.99807 0
M  V30 3964 C 384.112 0.275325 5.21574 0
M  V30 3965 H 385.806 0.434798 2.96226 0
M  V30 3966 H 383.352 0.210546 1.42452 0
M  V30 3967 H 385.305 -1.86045 3.78107 0
M  V30 3968 H 384.029 -2.03903 2.5513 0
M  V30 3969 H 382.688 -0.217126 3.65956 0
M  V30 3970 H 382.336 -2.60877 4.30061 0
M  V30 3971 H 382.036 -1.51777 5.6766 0
M  V30 3972 H 383.56 -2.44657 5.59442 0
M  V30 3973 H 384.974 -0.179193 5.7302 0
M  V30 3974 H 383.371 0.573649 5.97352 0
M  V30 3975 H 384.441 1.18903 4.70096 0
M  V30 3976 N 385.784 -1.5574 0.241426 0
M  V30 3977 C 386.732 -2.22538 -0.676718 0
M  V30 3978 C 387.726 -1.21117 -1.18436 0
M  V30 3979 O 388.932 -1.39144 -1.14188 0
M  V30 3980 H 385.307 -0.713776 -0.236701 0
M  V30 3981 H 387.278 -2.98264 -0.0901187 0
M  V30 3982 C 386.027 -2.93439 -1.86518 0
M  V30 3983 H 385.35 -3.7125 -1.4837 0
M  V30 3984 H 386.79 -3.43549 -2.48495 0
M  V30 3985 C 385.249 -1.97008 -2.73294 0
M  V30 3986 O 385.779 -1.49965 -3.72657 0
M  V30 3987 N 383.985 -1.64227 -2.39745 0
M  V30 3988 H 383.532 -2.02677 -1.58996 0
M  V30 3989 H 383.49 -0.999708 -2.98083 0
M  V30 3990 N 387.262 0.0317525 -1.57568 0
M  V30 3991 C 388.192 1.03274 -2.0942 0
M  V30 3992 C 389.173 1.3788 -0.996143 0
M  V30 3993 O 390.358 1.46811 -1.27122 0
M  V30 3994 C 387.488 2.33448 -2.57137 0
M  V30 3995 C 386.442 2.13091 -3.71182 0
M  V30 3996 C 385.768 3.49001 -4.05095 0
M  V30 3997 C 387.068 1.51928 -4.99715 0
M  V30 3998 H 388.762 0.60112 -2.93303 0
M  V30 3999 H 386.308 0.287705 -1.41097 0
M  V30 4000 H 388.261 3.03802 -2.92032 0
M  V30 4001 H 386.985 2.78665 -1.70333 0
M  V30 4002 H 385.644 1.45171 -3.36632 0
M  V30 4003 H 385.292 3.91862 -3.15362 0
M  V30 4004 H 384.992 3.36207 -4.81911 0
M  V30 4005 H 386.516 4.20721 -4.42522 0
M  V30 4006 H 387.93 2.12196 -5.32584 0
M  V30 4007 H 386.327 1.49716 -5.81124 0
M  V30 4008 H 387.397 0.484811 -4.8247 0
M  V30 4009 N 388.74 1.54641 0.303973 0
M  V30 4010 C 390.151 1.64811 0.877163 0
M  V30 4011 C 390.502 0.554838 1.88191 0
M  V30 4012 O 389.627 -0.309033 2.14182 0
M  V30 4013 C 390.222 2.9876 1.59775 0
M  V30 4014 C 388.781 3.11061 2.11938 0
M  V30 4015 C 387.928 2.60479 0.951097 0
M  V30 4016 H 390.879 1.58493 0.0810486 0
M  V30 4017 H 390.9 2.90017 2.46314 0
M  V30 4018 H 390.412 3.7831 0.866226 0
M  V30 4019 H 388.513 2.36225 2.88146 0
M  V30 4020 H 388.626 4.17171 2.35595 0
M  V30 4021 H 386.99 2.16859 1.33583 0
M  V30 4022 H 387.773 3.42504 0.233581 0
M  V30 4023 N 390.218 -0.567019 1.47046 0
M  V30 4024 C 391.448 -1.34831 1.56538 0
M  V30 4025 C 391.856 -1.8802 0.21101 0
M  V30 4026 O 391.199 -1.65152 -0.804387 0
M  V30 4027 C 391.261 -2.56139 2.52256 0
M  V30 4028 C 390.925 -2.24307 3.98165 0
M  V30 4029 C 391.922 -1.82192 4.86931 0
M  V30 4030 C 389.607 -2.35968 4.43423 0
M  V30 4031 C 391.601 -1.52153 6.18973 0
M  V30 4032 C 389.288 -2.05542 5.75496 0
M  V30 4033 C 390.286 -1.63701 6.63092 0
M  V30 4034 O 389.974 -1.33657 7.92711 0
M  V30 4035 H 389.706 -0.417683 0.531523 0
M  V30 4036 H 392.26 -0.694726 1.93294 0
M  V30 4037 H 390.49 -3.24356 2.10548 0
M  V30 4038 H 392.179 -3.18214 2.51982 0
M  V30 4039 H 392.945 -1.72684 4.53217 0
M  V30 4040 H 388.824 -2.67495 3.75456 0
M  V30 4041 H 392.368 -1.19421 6.87302 0
M  V30 4042 H 388.265 -2.14679 6.08755 0
M  V30 4043 H 389.033 -1.4737 8.05124 0
M  V30 4044 N 391.696 -1.35014 -0.812953 0
M  V30 4045 C 392.943 -1.27931 -1.56971 0
M  V30 4046 C 393.271 0.148034 -1.93936 0
M  V30 4047 O 392.526 1.11175 -1.61054 0
M  V30 4048 C 392.825 -2.12524 -2.87347 0
M  V30 4049 C 392.491 -3.61401 -2.6963 0
M  V30 4050 C 391.153 -4.01983 -2.64506 0
M  V30 4051 C 393.505 -4.55894 -2.52607 0
M  V30 4052 C 390.833 -5.35235 -2.40293 0
M  V30 4053 C 393.185 -5.89336 -2.29925 0
M  V30 4054 C 391.849 -6.2907 -2.23219 0
M  V30 4055 H 391.119 -0.468131 -0.574399 0
M  V30 4056 H 393.766 -1.66851 -0.939836 0
M  V30 4057 H 392.071 -1.66463 -3.54679 0
M  V30 4058 H 393.768 -2.04383 -3.45005 0
M  V30 4059 H 390.358 -3.29193 -2.74463 0
M  V30 4060 H 394.542 -4.25431 -2.55583 0
M  V30 4061 H 389.798 -5.65028 -2.33566 0
M  V30 4062 H 393.972 -6.62139 -2.15743 0
M  V30 4063 H 391.599 -7.32256 -2.04219 0
M  V30 4064 N 393.175 1.03435 -1.18907 0
M  V30 4065 C 394.105 2.13503 -0.945448 0
M  V30 4066 C 395.086 1.69682 0.119189 0
M  V30 4067 O 396.271 1.94169 -0.034707 0
M  V30 4068 C 393.401 3.44004 -0.477316 0
M  V30 4069 C 392.355 4.0148 -1.48316 0
M  V30 4070 C 391.681 5.27537 -0.872311 0
M  V30 4071 C 392.981 4.36921 -2.86177 0
M  V30 4072 H 394.675 2.34141 -1.86597 0
M  V30 4073 H 392.221 1.12523 -0.898584 0
M  V30 4074 H 394.174 4.20372 -0.294204 0
M  V30 4075 H 392.898 3.23072 0.478786 0
M  V30 4076 H 391.557 3.27201 -1.65332 0
M  V30 4077 H 391.205 5.02917 0.0911752 0
M  V30 4078 H 390.905 5.66954 -1.54393 0
M  V30 4079 H 392.429 6.06576 -0.699871 0
M  V30 4080 H 393.843 5.04248 -2.72776 0
M  V30 4081 H 392.24 4.87405 -3.50081 0
M  V30 4082 H 393.31 3.46466 -3.39248 0
M  V30 4083 N 394.653 0.992116 1.22453 0
M  V30 4084 C 396.069 0.702713 1.43297 0
M  V30 4085 C 396.269 -0.726909 1.87932 0
M  V30 4086 O 395.325 -1.49792 2.0327 0
M  V30 4087 C 396.638 1.70762 2.47509 0
M  V30 4088 C 398.186 1.72298 2.61309 0
M  V30 4089 C 398.661 2.71649 3.68742 0
M  V30 4090 N 400.152 2.70239 3.76199 0
M  V30 4091 C 400.887 3.43778 4.58917 0
M  V30 4092 N 400.383 4.26914 5.45633 0
M  V30 4093 N 402.176 3.32487 4.5322 0
M  V30 4094 H 394.327 1.91543 0.917871 0
M  V30 4095 H 396.59 0.826031 0.465162 0
M  V30 4096 H 396.296 2.73059 2.21657 0
M  V30 4097 H 396.17 1.49985 3.46099 0
M  V30 4098 H 398.557 0.706989 2.86506 0
M  V30 4099 H 398.638 1.97143 1.62997 0
M  V30 4100 H 398.282 3.73397 3.44292 0
M  V30 4101 H 398.212 2.44074 4.66622 0
M  V30 4102 H 400.703 2.09912 3.14237 0
M  V30 4103 H 401.016 4.79855 6.05771 0
M  V30 4104 H 399.361 4.31002 5.45218 0
M  V30 4105 H 402.552 2.6698 3.84499 0
M  V30 4106 H 402.725 3.90058 5.17454 0
M  V30 4107 N 396.131 -1.37776 0.765217 0
M  V30 4108 C 397.361 -2.03828 0.337277 0
M  V30 4109 C 397.769 -1.57841 -1.04321 0
M  V30 4110 O 397.112 -0.752043 -1.67601 0
M  V30 4111 C 397.174 -3.58292 0.294407 0
M  V30 4112 C 396.838 -4.27384 1.61838 0
M  V30 4113 C 397.835 -4.51956 2.56967 0
M  V30 4114 C 395.52 -4.65345 1.89102 0
M  V30 4115 C 397.514 -5.13536 3.77571 0
M  V30 4116 C 395.201 -5.26647 3.09978 0
M  V30 4117 C 396.199 -5.50679 4.04032 0
M  V30 4118 O 395.887 -6.10702 5.2278 0
M  V30 4119 H 395.619 -0.661292 0.140248 0
M  V30 4120 H 398.173 -1.77222 1.03834 0
M  V30 4121 H 396.403 -3.83918 -0.462983 0
M  V30 4122 H 398.092 -4.05763 -0.105581 0
M  V30 4123 H 398.858 -4.23048 2.37183 0
M  V30 4124 H 394.737 -4.45978 1.16725 0
M  V30 4125 H 398.281 -5.3221 4.50997 0
M  V30 4126 H 394.178 -5.54979 3.29649 0
M  V30 4127 H 394.946 -6.29183 5.23517 0
M  V30 4128 N 397.609 -0.515225 -1.4894 0
M  V30 4129 C 398.858 0.0261361 -2.01683 0
M  V30 4130 C 399.171 1.36719 -1.39883 0
M  V30 4131 O 400.377 1.99606 -1.84037 0
M  V30 4132 C 398.833 0.0970111 -3.59769 0
M  V30 4133 C 398.441 -1.23825 -4.30548 0
M  V30 4134 C 400.185 0.587981 -4.20408 0
M  V30 4135 C 398.092 -1.12877 -5.80528 0
M  V30 4136 H 397.022 0.0135398 -0.753878 0
M  V30 4137 H 399.673 -0.656787 -1.71343 0
M  V30 4138 H 398.055 0.844694 -3.86886 0
M  V30 4139 H 399.229 -2.00034 -4.15118 0
M  V30 4140 H 397.544 -1.66379 -3.81716 0
M  V30 4141 H 400.141 0.68763 -5.3026 0
M  V30 4142 H 400.484 1.59026 -3.84729 0
M  V30 4143 H 401.017 -0.103582 -3.97665 0
M  V30 4144 H 397.756 -2.10575 -6.20756 0
M  V30 4145 H 397.276 -0.407799 -5.98412 0
M  V30 4146 H 398.955 -0.813332 -6.41868 0
M  V30 4147 N 399.087 1.5561 -0.249682 0
M  V30 4148 C 400.035 2.22894 0.664906 0
M  V30 4149 C 401.029 1.21743 1.17792 0
M  V30 4150 O 402.235 1.39748 1.13449 0
M  V30 4151 H 398.61 0.715022 0.232912 0
M  V30 4152 H 400.581 2.98307 0.0742998 0
M  V30 4153 C 399.33 2.94424 1.84959 0
M  V30 4154 H 398.653 3.72031 1.46399 0
M  V30 4155 H 400.093 3.44862 2.4667 0
M  V30 4156 C 398.552 1.98454 2.72245 0
M  V30 4157 O 399.082 1.51939 3.71857 0
M  V30 4158 N 397.288 1.65496 2.38871 0
M  V30 4159 H 396.835 2.03517 1.57919 0
M  V30 4160 H 396.793 1.0155 2.97548 0
M  V30 4161 N 400.565 -0.0233959 1.57583 0
M  V30 4162 C 401.981 -0.379134 1.55031 0
M  V30 4163 C 402.181 -1.76255 0.976548 0
M  V30 4164 O 401.237 -2.45266 0.600078 0
M  V30 4165 C 402.55 -0.275792 2.99433 0
M  V30 4166 C 404.098 -0.352458 3.11009 0
M  V30 4167 C 404.573 -0.278501 4.57152 0
M  V30 4168 N 406.064 -0.337123 4.61972 0
M  V30 4169 C 406.799 -0.302876 5.726 0
M  V30 4170 N 406.295 -0.220589 6.92449 0
M  V30 4171 N 408.088 -0.353023 5.6099 0
M  V30 4172 H 400.239 0.881869 1.93227 0
M  V30 4173 H 402.502 0.335867 0.886509 0
M  V30 4174 H 402.208 0.675108 3.4516 0
M  V30 4175 H 402.082 -1.06721 3.61788 0
M  V30 4176 H 404.469 -1.29379 2.65226 0
M  V30 4177 H 404.55 0.468409 2.51475 0
M  V30 4178 H 404.194 0.659189 5.03604 0
M  V30 4179 H 404.124 -1.11755 5.14605 0
M  V30 4180 H 406.615 -0.403002 3.75745 0
M  V30 4181 H 406.928 -0.199713 7.72542 0
M  V30 4182 H 405.273 -0.186555 6.9475 0
M  V30 4183 H 408.464 -0.415339 4.66254 0
M  V30 4184 H 408.637 -0.322866 6.47195 0
M  V30 4185 N 402.043 -1.548 -0.295768 0
M  V30 4186 C 403.29 -1.74329 -1.03032 0
M  V30 4187 C 403.618 -0.531915 -1.87085 0
M  V30 4188 O 402.873 0.486052 -1.89568 0
M  V30 4189 C 403.172 -2.98797 -1.961 0
M  V30 4190 C 402.838 -4.32356 -1.2798 0
M  V30 4191 C 401.5 -4.68661 -1.09135 0
M  V30 4192 C 403.852 -5.15128 -0.793243 0
M  V30 4193 C 401.18 -5.85312 -0.403269 0
M  V30 4194 C 403.532 -6.32488 -0.118854 0
M  V30 4195 C 402.196 -6.6745 0.0815043 0
M  V30 4196 H 401.466 -0.637916 -0.37702 0
M  V30 4197 H 404.113 -1.8906 -0.304696 0
M  V30 4198 H 402.418 -2.78869 -2.75207 0
M  V30 4199 H 404.115 -3.11102 -2.53015 0
M  V30 4200 H 400.705 -4.03808 -1.43655 0
M  V30 4201 H 404.889 -4.87575 -0.92653 0
M  V30 4202 H 400.145 -6.1094 -0.237098 0
M  V30 4203 H 404.319 -6.95892 0.266035 0
M  V30 4204 H 401.946 -7.57695 0.616685 0
M  V30 4205 N 403.521 0.559213 -1.47345 0
M  V30 4206 C 404.453 1.68161 -1.55738 0
M  V30 4207 C 405.466 1.56636 -0.443744 0
M  V30 4208 O 406.655 1.6363 -0.713258 0
M  V30 4209 C 403.755 3.06611 -1.4437 0
M  V30 4210 C 402.928 3.4391 -2.70268 0
M  V30 4211 C 401.987 4.61515 -2.52765 0
M  V30 4212 O 401.013 4.66197 -3.26572 0
M  V30 4213 N 402.215 5.57883 -1.6046 0
M  V30 4214 H 404.98 1.61408 -2.52522 0
M  V30 4215 H 402.541 0.7458 -1.43699 0
M  V30 4216 H 404.533 3.83117 -1.30398 0
M  V30 4217 H 403.103 3.07602 -0.556766 0
M  V30 4218 H 402.323 2.56873 -2.99015 0
M  V30 4219 H 403.611 3.65605 -3.53851 0
M  V30 4220 H 403.009 5.56855 -0.996422 0
M  V30 4221 H 401.566 6.33723 -1.52441 0
M  V30 4222 N 404.999 1.35443 0.805782 0
M  V30 4223 C 406.276 1.19325 1.54987 0
M  V30 4224 C 406.656 -0.227294 2.09873 0
M  V30 4225 O 406.004 -1.2309 1.92512 0
M  V30 4226 C 406.214 2.26196 2.65775 0
M  V30 4227 C 407.562 2.62043 3.34094 0
M  V30 4228 O 408.586 2.25115 2.76046 0
M  V30 4229 O 407.445 3.25542 4.38958 0
M  V30 4230 H 404.539 0.463623 0.684823 0
M  V30 4231 H 407.085 1.47127 0.845674 0
M  V30 4232 H 405.857 3.21471 2.23096 0
M  V30 4233 H 405.48 1.99667 3.43829 0
M  V30 4234 N 406.477 -1.02803 1.19454 0
M  V30 4235 C 407.44 -2.09264 0.934955 0
M  V30 4236 C 408.44 -1.60576 -0.0849015 0
M  V30 4237 O 409.63 -1.73554 0.149933 0
M  V30 4238 C 406.762 -3.38482 0.40531 0
M  V30 4239 H 407.955 -2.33726 1.87916 0
M  V30 4240 H 405.508 -1.19426 1.00832 0
M  V30 4241 H 406.243 -3.19689 -0.544899 0
M  V30 4242 H 406.028 -3.75142 1.14065 0
M  V30 4243 H 407.518 -4.16894 0.242806 0
M  V30 4244 N 407.956 -0.998596 -1.21925 0
M  V30 4245 C 409.202 -0.678667 -1.91107 0
M  V30 4246 C 409.535 0.78791 -1.77498 0
M  V30 4247 O 408.81 1.57043 -1.1475 0
M  V30 4248 C 409.093 -1.09245 -3.43129 0
M  V30 4249 C 408.946 -2.61801 -3.6576 0
M  V30 4250 C 410.265 -0.649984 -4.35274 0
M  V30 4251 H 407.384 -0.248025 -0.694012 0
M  V30 4252 H 410.026 -1.24314 -1.43688 0
M  V30 4253 H 408.176 -0.612171 -3.83647 0
M  V30 4254 H 409.848 -3.17543 -3.34611 0
M  V30 4255 H 408.091 -3.03609 -3.09845 0
M  V30 4256 H 408.762 -2.85804 -4.7225 0
M  V30 4257 H 411.238 -1.0626 -4.02303 0
M  V30 4258 H 410.114 -0.967743 -5.40302 0
M  V30 4259 H 410.375 0.449139 -4.39813 0
M  V30 4260 N 409.434 1.37368 -0.772513 0
M  V30 4261 C 410.364 2.32856 -0.173304 0
M  V30 4262 C 411.345 1.55818 0.682262 0
M  V30 4263 O 412.53 1.84052 0.619566 0
M  V30 4264 C 409.66 3.40048 0.706007 0
M  V30 4265 C 408.614 4.27973 -0.0483144 0
M  V30 4266 C 407.94 5.26184 0.950491 0
M  V30 4267 C 409.24 5.07665 -1.22776 0
M  V30 4268 H 410.934 2.83217 -0.971002 0
M  V30 4269 H 408.48 1.3617 -0.468377 0
M  V30 4270 H 410.433 4.05827 1.13501 0
M  V30 4271 H 409.157 2.88214 1.53623 0
M  V30 4272 H 407.816 3.63726 -0.458107 0
M  V30 4273 H 407.464 4.7063 1.77529 0
M  V30 4274 H 407.164 5.85872 0.450314 0
M  V30 4275 H 408.688 5.94838 1.37842 0
M  V30 4276 H 410.102 5.66578 -0.875366 0
M  V30 4277 H 408.499 5.76681 -1.66007 0
M  V30 4278 H 409.569 4.40294 -2.03149 0
M  V30 4279 N 410.912 0.523116 1.48665 0
M  V30 4280 C 411.875 -0.232592 2.28017 0
M  V30 4281 C 412.875 -0.874021 1.34972 0
M  V30 4282 O 414.065 -0.735132 1.57929 0
M  V30 4283 C 411.197 -1.33586 3.13636 0
M  V30 4284 H 412.39 0.464008 2.96289 0
M  V30 4285 H 409.943 0.278816 1.53793 0
M  V30 4286 H 410.678 -2.06593 2.4998 0
M  V30 4287 H 410.463 -0.881125 3.82071 0
M  V30 4288 H 411.953 -1.86759 3.73511 0
M  V30 4289 N 412.39 -1.55475 0.257931 0
M  V30 4290 C 413.338 -2.23244 -0.653076 0
M  V30 4291 C 414.332 -1.22366 -1.17144 0
M  V30 4292 O 415.538 -1.40347 -1.12706 0
M  V30 4293 H 411.913 -0.716247 -0.229117 0
M  V30 4294 H 413.884 -2.98343 -0.0584788 0
M  V30 4295 C 412.633 -2.95401 -1.83395 0
M  V30 4296 H 411.956 -3.72802 -1.44424 0
M  V30 4297 H 413.396 -3.46165 -2.44838 0
M  V30 4298 C 411.855 -1.99895 -2.71189 0
M  V30 4299 O 412.385 -1.53909 -3.71046 0
M  V30 4300 N 410.591 -1.6676 -2.3799 0
M  V30 4301 H 410.138 -2.04352 -1.56837 0
M  V30 4302 H 410.096 -1.03127 -2.97005 0
M  V30 4303 N 413.868 0.0150385 -1.57593 0
M  V30 4304 C 415.093 0.718067 -1.94573 0
M  V30 4305 C 415.518 1.6734 -0.859005 0
M  V30 4306 O 414.876 1.80362 0.184147 0
M  V30 4307 C 414.924 1.43918 -3.30636 0
M  V30 4308 O 414.028 2.55299 -3.23876 0
M  V30 4309 H 413.369 0.192125 -0.635597 0
M  V30 4310 H 415.899 -0.0336708 -2.04572 0
M  V30 4311 H 415.909 1.80598 -3.65853 0
M  V30 4312 H 414.584 0.738619 -4.09289 0
M  V30 4313 H 413.161 2.21058 -3.00312 0
M  V30 4314 N 415.346 1.54954 0.287554 0
M  V30 4315 C 416.593 1.74873 1.02106 0
M  V30 4316 C 416.921 0.541829 1.86801 0
M  V30 4317 O 416.176 -0.475992 1.89823 0
M  V30 4318 C 416.475 2.99833 1.94512 0
M  V30 4319 C 416.141 4.33029 1.25686 0
M  V30 4320 C 414.803 4.69233 1.06649 0
M  V30 4321 C 417.155 5.15542 0.765913 0
M  V30 4322 C 414.483 5.85518 0.372222 0
M  V30 4323 C 416.835 6.32542 0.0853101 0
M  V30 4324 C 415.499 6.67398 -0.1169 0
M  V30 4325 H 414.769 0.639906 0.373632 0
M  V30 4326 H 417.416 1.89219 0.294665 0
M  V30 4327 H 415.721 2.80325 2.73725 0
M  V30 4328 H 417.418 3.1244 2.51361 0
M  V30 4329 H 414.008 4.04564 1.41512 0
M  V30 4330 H 418.192 4.88059 0.90066 0
M  V30 4331 H 413.448 6.11057 0.204695 0
M  V30 4332 H 417.622 6.95741 -0.302936 0
M  V30 4333 H 415.249 7.57357 -0.656859 0
M  V30 4334 N 416.824 -0.551391 1.4764 0
M  V30 4335 C 418.071 -1.3083 1.54563 0
M  V30 4336 C 418.399 -1.93359 0.210361 0
M  V30 4337 O 417.654 -1.78721 -0.797332 0
M  V30 4338 C 417.953 -2.43469 2.61644 0
M  V30 4339 C 417.619 -1.98732 4.04742 0
M  V30 4340 C 416.281 -1.86248 4.43695 0
M  V30 4341 C 418.633 -1.64659 4.94507 0
M  V30 4342 C 415.961 -1.37995 5.70241 0
M  V30 4343 C 418.313 -1.17875 6.21521 0
M  V30 4344 C 416.977 -1.03992 6.5935 0
M  V30 4345 H 416.247 -0.478741 0.565587 0
M  V30 4346 H 418.894 -0.617697 1.81264 0
M  V30 4347 H 417.199 -3.18109 2.28722 0
M  V30 4348 H 418.896 -3.01642 2.64222 0
M  V30 4349 H 415.486 -2.09393 3.73968 0
M  V30 4350 H 419.67 -1.73174 4.65107 0
M  V30 4351 H 414.926 -1.25915 5.98294 0
M  V30 4352 H 419.1 -0.905739 6.90485 0
M  V30 4353 H 416.727 -0.663794 7.57296 0
M  V30 4354 N 418.302 -1.35869 -0.798587 0
M  V30 4355 C 419.551 -1.28921 -1.5512 0
M  V30 4356 C 419.864 0.13208 -1.95154 0
M  V30 4357 O 421.07 0.323879 -2.69561 0
M  V30 4358 C 419.526 -2.26141 -2.79979 0
M  V30 4359 C 419.134 -3.73658 -2.47151 0
M  V30 4360 C 420.878 -2.28152 -3.57976 0
M  V30 4361 C 418.785 -4.62679 -3.6835 0
M  V30 4362 H 417.715 -0.479031 -0.582276 0
M  V30 4363 H 420.366 -1.61179 -0.877125 0
M  V30 4364 H 418.748 -1.86865 -3.49138 0
M  V30 4365 H 419.922 -4.21616 -1.85947 0
M  V30 4366 H 418.237 -3.74333 -1.82383 0
M  V30 4367 H 420.834 -2.91875 -4.4801 0
M  V30 4368 H 421.177 -1.28748 -3.95891 0
M  V30 4369 H 421.71 -2.65998 -2.95787 0
M  V30 4370 H 418.449 -5.63111 -3.35538 0
M  V30 4371 H 417.969 -4.19442 -4.28752 0
M  V30 4372 H 419.648 -4.78498 -4.35487 0
M  V30 4373 N 419.78 1.02168 -1.19998 0
M  V30 4374 C 420.713 2.10232 -0.887558 0
M  V30 4375 C 421.691 1.61827 0.158317 0
M  V30 4376 O 422.875 1.88471 0.0330249 0
M  V30 4377 C 420.002 3.37092 -0.32964 0
M  V30 4378 C 419.048 4.0438 -1.3557 0
M  V30 4379 S 419.881 4.48956 -2.91888 0
M  V30 4380 C 421.037 5.79024 -2.37658 0
M  V30 4381 H 421.27 2.36409 -1.80272 0
M  V30 4382 H 418.803 1.15211 -1.0279 0
M  V30 4383 H 420.761 4.10498 -0.0142824 0
M  V30 4384 H 419.422 3.08996 0.563941 0
M  V30 4385 H 418.615 4.95632 -0.9146 0
M  V30 4386 H 418.217 3.37176 -1.61828 0
M  V30 4387 H 420.509 6.53942 -1.77103 0
M  V30 4388 H 421.452 6.27924 -3.27287 0
M  V30 4389 H 421.86 5.35043 -1.79971 0
M  V30 4390 N 421.258 1.00505 1.21394 0
M  V30 4391 C 422.669 0.721082 1.72213 0
M  V30 4392 C 423.02 -0.761263 1.80829 0
M  V30 4393 O 422.145 -1.59464 1.46288 0
M  V30 4394 C 422.74 1.30228 3.12772 0
M  V30 4395 C 421.299 1.06743 3.60947 0
M  V30 4396 C 420.446 1.41507 2.38477 0
M  V30 4397 H 423.397 1.17594 1.06571 0
M  V30 4398 H 423.418 0.686955 3.74247 0
M  V30 4399 H 422.93 2.38115 3.06468 0
M  V30 4400 H 421.031 0.00572162 3.726 0
M  V30 4401 H 421.144 1.73936 4.46411 0
M  V30 4402 H 419.508 0.833852 2.40664 0
M  V30 4403 H 420.291 2.50424 2.34824 0
M  V30 4404 N 422.737 -1.36956 0.779787 0
M  V30 4405 C 423.7 -2.2851 0.177662 0
M  V30 4406 C 424.7 -1.48393 -0.619377 0
M  V30 4407 O 425.89 -1.68505 -0.441785 0
M  V30 4408 C 423.022 -3.32428 -0.755279 0
M  V30 4409 H 424.215 -2.83269 0.984823 0
M  V30 4410 H 421.768 -1.46358 0.548544 0
M  V30 4411 H 422.503 -2.82808 -1.58714 0
M  V30 4412 H 422.288 -3.91659 -0.185817 0
M  V30 4413 H 423.778 -4.00824 -1.17174 0
M  V30 4414 N 424.215 -0.530993 -1.48385 0
M  V30 4415 C 425.443 -0.00134122 -2.069 0
M  V30 4416 C 425.858 1.2805 -1.3874 0
M  V30 4417 O 425.215 1.76204 -0.475244 0
M  V30 4418 C 425.266 0.225256 -3.60798 0
M  V30 4419 O 424.987 -1.0058 -4.26398 0
M  V30 4420 C 426.488 0.795172 -4.3611 0
M  V30 4421 H 423.708 -0.0339704 -0.67014 0
M  V30 4422 H 426.252 -0.736926 -1.90761 0
M  V30 4423 H 424.407 0.910891 -3.76539 0
M  V30 4424 H 424.821 -0.787165 -5.1856 0
M  V30 4425 H 426.295 0.903143 -5.44562 0
M  V30 4426 H 426.772 1.80031 -4.00606 0
M  V30 4427 H 427.378 0.146069 -4.25049 0
M  V30 4428 N 425.693 1.55336 -0.266172 0
M  V30 4429 C 426.939 1.99692 0.353681 0
M  V30 4430 C 427.272 1.1543 1.56172 0
M  V30 4431 O 426.547 0.222218 1.93226 0
M  V30 4432 C 426.83 3.52316 0.74466 0
M  V30 4433 C 426.683 4.47337 -0.470101 0
M  V30 4434 C 428.002 4.10588 1.58447 0
M  V30 4435 H 425.121 0.725961 0.12708 0
M  V30 4436 H 427.763 1.86336 -0.371333 0
M  V30 4437 H 425.913 3.63829 1.36239 0
M  V30 4438 H 427.585 4.4778 -1.10864 0
M  V30 4439 H 425.828 4.19364 -1.10978 0
M  V30 4440 H 426.499 5.51788 -0.15291 0
M  V30 4441 H 428.975 4.02297 1.06286 0
M  V30 4442 H 427.851 5.17607 1.82686 0
M  V30 4443 H 428.112 3.60253 2.56262 0
M  V30 4444 N 427.171 -0.0066808 1.57599 0
M  V30 4445 C 428.134 -0.985035 2.06953 0
M  V30 4446 C 429.134 -1.27663 0.977687 0
M  V30 4447 O 430.324 -1.22293 1.24057 0
M  V30 4448 C 427.456 -2.3118 2.50536 0
M  V30 4449 H 428.649 -0.558255 2.94658 0
M  V30 4450 H 426.202 -0.254011 1.54222 0
M  V30 4451 H 426.937 -2.78561 1.66054 0
M  V30 4452 H 426.722 -2.11338 3.3027 0
M  V30 4453 H 428.212 -3.01377 2.8907 0
M  V30 4454 N 428.649 -1.55105 -0.279332 0
M  V30 4455 C 429.926 -1.66119 -1.03267 0
M  V30 4456 C 430.306 -0.523525 -2.04505 0
M  V30 4457 O 429.654 0.477194 -2.23462 0
M  V30 4458 C 429.864 -3.05067 -1.69515 0
M  V30 4459 C 431.212 -3.62606 -2.20912 0
M  V30 4460 O 432.236 -3.07659 -1.79512 0
M  V30 4461 O 431.095 -4.58861 -2.96831 0
M  V30 4462 H 428.189 -0.674429 -0.478618 0
M  V30 4463 H 430.735 -1.67446 -0.275694 0
M  V30 4464 H 429.507 -3.79311 -0.9612 0
M  V30 4465 H 429.13 -3.07611 -2.51915 0
M  V30 4466 N 430.127 0.543554 -1.4793 0
M  V30 4467 C 431.09 1.63156 -1.60975 0
M  V30 4468 C 432.09 1.53346 -0.483899 0
M  V30 4469 O 433.28 1.5726 -0.749339 0
M  V30 4470 C 430.412 3.02743 -1.56716 0
M  V30 4471 H 431.605 1.52934 -2.57975 0
M  V30 4472 H 429.158 0.764557 -1.36324 0
M  V30 4473 H 429.893 3.18484 -0.611418 0
M  V30 4474 H 429.678 3.11272 -2.38438 0
M  V30 4475 H 431.168 3.81871 -1.6901 0
M  V30 4476 N 431.605 1.3629 0.791371 0
M  V30 4477 C 432.833 1.33562 1.58016 0
M  V30 4478 C 433.248 -0.0835616 1.88615 0
M  V30 4479 O 432.605 -1.0399 1.49974 0
M  V30 4480 C 432.656 2.15517 2.90232 0
M  V30 4481 O 432.377 3.51902 2.60953 0
M  V30 4482 C 433.878 2.20546 3.84544 0
M  V30 4483 H 431.098 0.458226 0.490173 0
M  V30 4484 H 433.642 1.79361 0.982345 0
M  V30 4485 H 431.797 1.73278 3.46487 0
M  V30 4486 H 432.211 3.94644 3.4548 0
M  V30 4487 H 433.685 2.82252 4.74382 0
M  V30 4488 H 434.162 1.20838 4.2225 0
M  V30 4489 H 434.768 2.63013 3.34222 0
M  V30 4490 N 433.083 -1.0153 1.20538 0
M  V30 4491 C 434.046 -2.0826 0.957098 0
M  V30 4492 C 435.046 -1.60657 -0.0678655 0
M  V30 4493 O 436.236 -1.73385 0.168332 0
M  V30 4494 C 433.368 -3.38033 0.441188 0
M  V30 4495 H 434.561 -2.31719 1.90384 0
M  V30 4496 H 432.114 -1.1835 1.02093 0
M  V30 4497 H 432.849 -3.20249 -0.510961 0
M  V30 4498 H 432.634 -3.73911 1.18038 0
M  V30 4499 H 434.124 -4.16613 0.287009 0
M  V30 4500 N 434.561 -1.01147 -1.20859 0
M  V30 4501 C 435.807 -0.698899 -1.90377 0
M  V30 4502 C 436.14 0.76904 -1.78324 0
M  V30 4503 O 435.415 1.55817 -1.16409 0
M  V30 4504 C 435.698 -1.12878 -3.41951 0
M  V30 4505 C 435.551 -2.65665 -3.62963 0
M  V30 4506 C 436.87 -0.696114 -4.3456 0
M  V30 4507 H 433.989 -0.255372 -0.691342 0
M  V30 4508 H 436.631 -1.25831 -1.42361 0
M  V30 4509 H 434.781 -0.652827 -3.82976 0
M  V30 4510 H 436.453 -3.21074 -3.31224 0
M  V30 4511 H 434.696 -3.06878 -3.06608 0
M  V30 4512 H 435.367 -2.90797 -4.69192 0
M  V30 4513 H 437.843 -1.10521 -4.01154 0
M  V30 4514 H 436.719 -1.025 -5.39245 0
M  V30 4515 H 436.98 0.402465 -4.40264 0
M  V30 4516 N 436.039 1.36541 -0.78704 0
M  V30 4517 C 437.455 1.52571 -0.46844 0
M  V30 4518 C 437.655 1.7415 1.01361 0
M  V30 4519 O 436.711 1.77163 1.79915 0
M  V30 4520 C 438.024 2.71299 -1.29682 0
M  V30 4521 C 439.572 2.85169 -1.29027 0
M  V30 4522 C 440.047 4.06898 -2.10233 0
M  V30 4523 N 441.538 4.1404 -2.07666 0
M  V30 4524 C 442.273 5.07301 -2.67271 0
M  V30 4525 N 441.769 6.06021 -3.35724 0
M  V30 4526 N 443.562 4.99898 -2.57018 0
M  V30 4527 H 435.713 1.20788 -1.74711 0
M  V30 4528 H 437.976 0.589364 -0.742532 0
M  V30 4529 H 437.682 2.61868 -2.34773 0
M  V30 4530 H 437.556 3.6539 -0.936479 0
M  V30 4531 H 439.943 2.94062 -0.247284 0
M  V30 4532 H 440.024 1.91992 -1.69035 0
M  V30 4533 H 439.668 3.98766 -3.1456 0
M  V30 4534 H 439.598 4.99218 -1.67597 0
M  V30 4535 H 442.089 3.43357 -1.57843 0
M  V30 4536 H 442.402 6.73741 -3.78541 0
M  V30 4537 H 440.747 6.06253 -3.39826 0
M  V30 4538 H 443.938 4.21724 -2.03142 0
M  V30 4539 H 444.111 5.72392 -3.03761 0
M  V30 4540 N 437.518 0.538854 1.48102 0
M  V30 4541 C 438.466 -0.232325 2.31437 0
M  V30 4542 C 439.46 -0.927004 1.41785 0
M  V30 4543 O 440.666 -0.850378 1.58646 0
M  V30 4544 H 437.041 -0.0937916 0.746128 0
M  V30 4545 H 439.012 0.489986 2.9435 0
M  V30 4546 C 437.761 -1.26074 3.24038 0
M  V30 4547 H 437.084 -0.735609 3.92974 0
M  V30 4548 H 438.524 -1.77157 3.85216 0
M  V30 4549 C 436.983 -2.29902 2.46265 0
M  V30 4550 O 437.513 -3.36502 2.19384 0
M  V30 4551 N 435.719 -2.03348 2.07601 0
M  V30 4552 H 435.266 -1.16675 2.29662 0
M  V30 4553 H 435.224 -2.73038 1.55877 0
M  V30 4554 N 438.996 -1.55193 0.274407 0
M  V30 4555 C 440.244 -1.99187 -0.341902 0
M  V30 4556 C 440.565 -1.16422 -1.56431 0
M  V30 4557 O 439.835 -0.253573 -1.94252 0
M  V30 4558 H 438.415 -0.735721 -0.129317 0
M  V30 4559 H 441.077 -1.91168 0.379578 0
M  V30 4560 H 440.173 -3.05629 -0.632253 0
M  V30 4561 N 440.474 -0.00167713 -1.576 0
M  V30 4562 C 441.721 0.68282 -1.90641 0
M  V30 4563 C 442.049 1.73686 -0.875415 0
M  V30 4564 O 441.304 1.95334 0.119575 0
M  V30 4565 C 441.603 1.36189 -3.30435 0
M  V30 4566 C 441.269 0.440887 -4.48739 0
M  V30 4567 C 439.931 0.187312 -4.80835 0
M  V30 4568 C 442.283 -0.193134 -5.20842 0
M  V30 4569 C 439.611 -0.70855 -5.82406 0
M  V30 4570 C 441.963 -1.07688 -6.23367 0
M  V30 4571 C 440.627 -1.33962 -6.53919 0
M  V30 4572 H 439.897 0.249862 -0.697603 0
M  V30 4573 H 442.544 -0.0575642 -1.91413 0
M  V30 4574 H 440.849 2.17636 -3.25794 0
M  V30 4575 H 442.546 1.89759 -3.5326 0
M  V30 4576 H 439.136 0.648694 -4.23663 0
M  V30 4577 H 443.32 -0.0102445 -4.96299 0
M  V30 4578 H 438.576 -0.920097 -6.04437 0
M  V30 4579 H 442.75 -1.57451 -6.78367 0
M  V30 4580 H 440.377 -2.03549 -7.32442 0
M  V30 4581 N 441.952 1.55251 0.271103 0
M  V30 4582 C 442.902 1.84649 1.33749 0
M  V30 4583 C 443.886 0.705529 1.44607 0
M  V30 4584 O 445.078 0.966916 1.48256 0
M  V30 4585 C 442.207 2.12354 2.69742 0
M  V30 4586 C 441.293 3.32714 2.62988 0
M  V30 4587 N 441.684 4.52575 2.25853 0
M  V30 4588 C 439.982 3.35341 2.94045 0
M  V30 4589 C 440.683 5.34669 2.29136 0
M  V30 4590 N 439.659 4.73123 2.67685 0
M  V30 4591 H 443.461 2.74865 1.0405 0
M  V30 4592 H 440.975 1.55152 0.479738 0
M  V30 4593 H 442.972 2.31572 3.4667 0
M  V30 4594 H 441.632 1.23422 3.00328 0
M  V30 4595 H 442.643 4.78639 1.978 0
M  V30 4596 H 439.32 2.56608 3.2933 0
M  V30 4597 H 440.71 6.40509 2.02971 0
M  V30 4598 N 443.43 -0.535701 1.48216 0
M  V30 4599 C 444.655 -1.32149 1.59848 0
M  V30 4600 C 445.08 -1.86338 0.256842 0
M  V30 4601 O 444.438 -1.64107 -0.770632 0
M  V30 4602 C 444.486 -2.45224 2.64381 0
M  V30 4603 O 443.59 -3.48093 2.21144 0
M  V30 4604 H 442.931 -0.391634 0.536208 0
M  V30 4605 H 445.461 -0.645202 1.94161 0
M  V30 4606 H 445.471 -2.91491 2.85476 0
M  V30 4607 H 444.146 -2.05143 3.61786 0
M  V30 4608 H 442.723 -3.07984 2.10239 0
M  V30 4609 N 444.908 -1.36708 -0.784132 0
M  V30 4610 C 445.838 -1.34153 -1.91116 0
M  V30 4611 C 446.819 -0.212121 -1.68772 0
M  V30 4612 O 448.004 -0.410581 -1.8981 0
M  V30 4613 C 445.134 -1.13535 -3.28218 0
M  V30 4614 C 444.088 -2.23356 -3.65097 0
M  V30 4615 C 443.414 -1.87875 -5.00607 0
M  V30 4616 C 444.714 -3.65473 -3.73131 0
M  V30 4617 H 446.408 -2.28459 -1.93512 0
M  V30 4618 H 443.954 -1.09973 -0.929618 0
M  V30 4619 H 445.907 -1.10381 -4.06687 0
M  V30 4620 H 444.631 -0.156804 -3.26223 0
M  V30 4621 H 443.29 -2.25645 -2.88929 0
M  V30 4622 H 442.938 -0.885814 -4.95139 0
M  V30 4623 H 442.638 -2.61406 -5.26252 0
M  V30 4624 H 444.162 -1.86286 -5.81489 0
M  V30 4625 H 445.576 -3.65382 -4.41779 0
M  V30 4626 H 443.973 -4.37953 -4.10265 0
M  V30 4627 H 445.043 -3.99995 -2.74102 0
M  V30 4628 N 446.386 1.0089 -1.21074 0
M  V30 4629 C 447.632 1.74866 -1.02712 0
M  V30 4630 C 447.965 1.89178 0.438787 0
M  V30 4631 O 447.24 1.42325 1.32567 0
M  V30 4632 C 447.523 3.16347 -1.72036 0
M  V30 4633 C 447.376 3.09782 -3.26121 0
M  V30 4634 C 448.695 4.15187 -1.45973 0
M  V30 4635 H 445.814 0.634736 -0.374539 0
M  V30 4636 H 448.456 1.17646 -1.49196 0
M  V30 4637 H 446.606 3.65201 -1.32517 0
M  V30 4638 H 448.278 2.68673 -3.74983 0
M  V30 4639 H 446.521 2.46982 -3.56626 0
M  V30 4640 H 447.192 4.09829 -3.6979 0
M  V30 4641 H 449.668 3.75022 -1.80272 0
M  V30 4642 H 448.544 5.12331 -1.96999 0
M  V30 4643 H 448.805 4.40386 -0.388924 0
M  V30 4644 N 447.864 1.01787 1.20321 0
M  V30 4645 C 449.113 0.703249 1.89043 0
M  V30 4646 C 449.426 -0.770445 1.79787 0
M  V30 4647 O 450.632 -1.19767 2.43656 0
M  V30 4648 C 449.088 1.20749 3.3904 0
M  V30 4649 C 448.696 2.70817 3.56878 0
M  V30 4650 C 450.44 0.968352 4.13308 0
M  V30 4651 C 448.347 3.14716 5.00708 0
M  V30 4652 H 447.277 0.259354 0.707991 0
M  V30 4653 H 449.928 1.23072 1.36108 0
M  V30 4654 H 448.31 0.607989 3.91305 0
M  V30 4655 H 449.484 3.36327 3.14993 0
M  V30 4656 H 447.799 2.92888 2.95983 0
M  V30 4657 H 450.396 1.27173 5.19356 0
M  V30 4658 H 450.739 -0.095149 4.16191 0
M  V30 4659 H 451.272 1.53129 3.67146 0
M  V30 4660 H 448.011 4.20347 5.02979 0
M  V30 4661 H 447.531 2.53927 5.43398 0
M  V30 4662 H 449.21 3.07426 5.69296 0
M  V30 4663 N 449.342 -1.36122 0.79427 0
M  V30 4664 C 450.619 -1.93398 0.292685 0
M  V30 4665 C 450.999 -1.72567 -1.21589 0
M  V30 4666 O 450.347 -1.08745 -2.00965 0
M  V30 4667 C 450.557 -3.42099 0.690614 0
M  V30 4668 C 451.905 -4.19231 0.673105 0
M  V30 4669 O 452.929 -3.50559 0.631389 0
M  V30 4670 O 451.788 -5.41732 0.720362 0
M  V30 4671 H 448.882 -0.823712 0.0736693 0
M  V30 4672 H 451.428 -1.45273 0.87714 0
M  V30 4673 H 450.2 -3.50938 1.73085 0
M  V30 4674 H 449.823 -3.97519 0.0803036 0
M  V30 4675 N 450.82 -0.546701 -1.47814 0
M  V30 4676 C 452.066 -0.0187684 -2.02791 0
M  V30 4677 C 452.399 1.32338 -1.42128 0
M  V30 4678 O 451.674 1.85867 -0.573023 0
M  V30 4679 C 451.957 0.0854985 -3.59998 0
M  V30 4680 C 451.81 -1.283 -4.31114 0
M  V30 4681 C 453.129 0.80412 -4.32691 0
M  V30 4682 H 450.248 -0.0082946 -0.736953 0
M  V30 4683 H 452.89 -0.706962 -1.76358 0
M  V30 4684 H 451.04 0.671609 -3.82651 0
M  V30 4685 H 452.712 -1.91151 -4.19832 0
M  V30 4686 H 450.955 -1.86049 -3.91878 0
M  V30 4687 H 451.626 -1.16287 -5.39612 0
M  V30 4688 H 454.102 0.306576 -4.14969 0
M  V30 4689 H 452.978 0.846011 -5.42341 0
M  V30 4690 H 453.239 1.85802 -4.01161 0
M  V30 4691 N 452.299 1.55045 -0.282633 0
M  V30 4692 C 453.527 2.04168 0.33512 0
M  V30 4693 C 453.942 1.16071 1.48906 0
M  V30 4694 O 453.299 0.182391 1.81586 0
M  V30 4695 C 453.35 3.52332 0.808957 0
M  V30 4696 O 453.071 4.37078 -0.299038 0
M  V30 4697 C 454.572 4.17375 1.49375 0
M  V30 4698 H 451.792 0.666744 0.0754543 0
M  V30 4699 H 454.336 2.00205 -0.416918 0
M  V30 4700 H 452.491 3.56715 1.51106 0
M  V30 4701 H 452.905 5.24458 0.0665514 0
M  V30 4702 H 454.379 5.22627 1.77664 0
M  V30 4703 H 454.856 3.65999 2.42778 0
M  V30 4704 H 455.462 4.17016 0.835305 0
M  V30 4705 N 453.777 0.010035 1.57597 0
M  V30 4706 C 454.71 -1.01234 2.04516 0
M  V30 4707 C 455.688 -1.32886 0.937024 0
M  V30 4708 O 456.872 -1.44879 1.20592 0
M  V30 4709 C 453.999 -2.33738 2.45121 0
M  V30 4710 C 453.045 -2.17679 3.66767 0
M  V30 4711 S 453.878 -1.49343 5.14254 0
M  V30 4712 C 455.034 -2.83256 5.58137 0
M  V30 4713 H 455.267 -0.612866 2.90914 0
M  V30 4714 H 452.8 -0.201124 1.53084 0
M  V30 4715 H 454.758 -3.09922 2.69182 0
M  V30 4716 H 453.419 -2.70823 1.59103 0
M  V30 4717 H 452.612 -3.1559 3.92962 0
M  V30 4718 H 452.214 -1.4964 3.42759 0
M  V30 4719 H 454.506 -3.79538 5.6121 0
M  V30 4720 H 455.449 -2.61749 6.57946 0
M  V30 4721 H 455.857 -2.87627 4.85727 0
M  V30 4722 N 455.255 -1.55392 -0.262866 0
M  V30 4723 C 456.218 -1.88181 -1.30846 0
M  V30 4724 C 457.218 -0.757079 -1.41862 0
M  V30 4725 O 458.408 -1.02519 -1.40838 0
M  V30 4726 C 455.54 -2.09609 -2.68844 0
M  V30 4727 H 456.733 -2.81659 -1.02997 0
M  V30 4728 H 454.286 -1.48039 -0.501414 0
M  V30 4729 H 455.021 -1.18547 -3.01856 0
M  V30 4730 H 454.806 -2.91508 -2.62231 0
M  V30 4731 H 456.296 -2.36215 -3.44372 0
M  V30 4732 N 456.733 0.527833 -1.48498 0
M  V30 4733 C 457.663 1.64136 -1.66077 0
M  V30 4734 C 458.644 1.62286 -0.509625 0
M  V30 4735 O 459.829 1.79449 -0.742413 0
M  V30 4736 C 456.959 3.02717 -1.70234 0
M  V30 4737 C 455.913 3.19426 -2.8487 0
M  V30 4738 C 455.239 4.5909 -2.74118 0
M  V30 4739 C 456.539 3.01993 -4.26142 0
M  V30 4740 H 458.233 1.4968 -2.593 0
M  V30 4741 H 455.779 0.718654 -1.24785 0
M  V30 4742 H 457.732 3.80491 -1.8112 0
M  V30 4743 H 456.456 3.18201 -0.735911 0
M  V30 4744 H 455.115 2.4407 -2.73542 0
M  V30 4745 H 454.763 4.71413 -1.7544 0
M  V30 4746 H 454.463 4.71214 -3.51042 0
M  V30 4747 H 455.987 5.3896 -2.86974 0
M  V30 4748 H 457.401 3.69558 -4.38292 0
M  V30 4749 H 455.798 3.2561 -5.04082 0
M  V30 4750 H 456.868 1.98396 -4.42456 0
M  V30 4751 N 458.211 1.37122 0.776871 0
M  V30 4752 C 459.488 1.22586 1.52421 0
M  V30 4753 C 459.868 -0.182726 2.10308 0
M  V30 4754 O 459.216 -1.18979 1.9508 0
M  V30 4755 C 459.426 2.31782 2.60918 0
M  V30 4756 C 460.774 2.69071 3.2846 0
M  V30 4757 O 461.798 2.3092 2.71209 0
M  V30 4758 O 460.657 3.3478 4.31954 0
M  V30 4759 H 457.751 0.478045 0.674835 0
M  V30 4760 H 460.297 1.48888 0.814275 0
M  V30 4761 H 459.069 3.26131 2.16227 0
M  V30 4762 H 458.692 2.06916 3.39517 0
M  V30 4763 N 459.689 -1.00246 1.21608 0
M  V30 4764 C 460.917 -1.77631 1.06089 0
M  V30 4765 C 461.332 -1.84746 -0.38916 0
M  V30 4766 O 460.689 -1.31068 -1.26994 0
M  V30 4767 C 460.74 -3.21415 1.65453 0
M  V30 4768 O 460.461 -3.14703 3.04785 0
M  V30 4769 C 461.962 -4.15289 1.55079 0
M  V30 4770 H 459.182 -0.558162 0.37242 0
M  V30 4771 H 461.726 -1.26093 1.60999 0
M  V30 4772 H 459.881 -3.70053 1.14629 0
M  V30 4773 H 460.295 -4.05056 3.33212 0
M  V30 4774 H 461.769 -5.13965 2.01355 0
M  V30 4775 H 462.246 -4.36279 0.505665 0
M  V30 4776 H 462.852 -3.72543 2.05163 0
M  V30 4777 N 461.167 -1.02423 -1.1978 0
M  V30 4778 C 462.097 -0.62157 -2.25075 0
M  V30 4779 C 463.078 0.367148 -1.6609 0
M  V30 4780 O 464.263 0.250892 -1.92573 0
M  V30 4781 C 461.393 0.0331826 -3.47284 0
M  V30 4782 C 460.347 -0.877323 -4.18912 0
M  V30 4783 C 459.673 -0.0879296 -5.34628 0
M  V30 4784 C 460.973 -2.18892 -4.74219 0
M  V30 4785 H 462.667 -1.50179 -2.59011 0
M  V30 4786 H 460.213 -0.723547 -1.24502 0
M  V30 4787 H 462.166 0.326488 -4.20133 0
M  V30 4788 H 460.89 0.948164 -3.12534 0
M  V30 4789 H 459.549 -1.15475 -3.47938 0
M  V30 4790 H 459.197 0.828941 -4.96123 0
M  V30 4791 H 458.897 -0.694359 -5.83483 0
M  V30 4792 H 460.421 0.198743 -6.10276 0
M  V30 4793 H 461.835 -1.95746 -5.38847 0
M  V30 4794 H 460.232 -2.74686 -5.33542 0
M  V30 4795 H 461.302 -2.84674 -3.92541 0
M  V30 4796 N 462.645 1.35699 -0.801477 0
M  V30 4797 C 463.87 2.03687 -0.390678 0
M  V30 4798 C 464.295 1.60015 0.988778 0
M  V30 4799 O 463.653 0.774357 1.63931 0
M  V30 4800 C 463.701 3.57439 -0.476404 0
M  V30 4801 O 462.805 4.09208 0.512106 0
M  V30 4802 H 462.146 0.64344 -0.163956 0
M  V30 4803 H 464.676 1.73403 -1.08594 0
M  V30 4804 H 464.686 4.06544 -0.344357 0
M  V30 4805 H 463.361 3.88576 -1.48262 0
M  V30 4806 H 461.938 3.7134 0.340721 0
M  V30 4807 N 464.123 0.554532 1.47522 0
M  V30 4808 C 465.053 -0.182974 2.32782 0
M  V30 4809 C 466.034 -0.911377 1.43624 0
M  V30 4810 O 467.219 -0.892366 1.72483 0
M  V30 4811 C 464.349 -1.21513 3.25349 0
M  V30 4812 C 463.303 -0.603355 4.23726 0
M  V30 4813 C 462.629 -1.73995 5.05598 0
M  V30 4814 C 463.929 0.441121 5.20434 0
M  V30 4815 H 465.623 0.52882 2.94693 0
M  V30 4816 H 463.169 0.255759 1.41711 0
M  V30 4817 H 465.122 -1.73922 3.83835 0
M  V30 4818 H 463.846 -1.95683 2.61487 0
M  V30 4819 H 462.505 -0.10059 3.66462 0
M  V30 4820 H 462.153 -2.47063 4.38143 0
M  V30 4821 H 461.853 -1.3364 5.72201 0
M  V30 4822 H 463.377 -2.26735 5.66942 0
M  V30 4823 H 464.791 0.00319931 5.733 0
M  V30 4824 H 463.188 0.763402 5.95224 0
M  V30 4825 H 464.258 1.33799 4.66075 0
M  V30 4826 N 465.601 -1.54893 0.290851 0
M  V30 4827 C 467.012 -1.85584 -0.203816 0
M  V30 4828 C 467.363 -1.21285 -1.54222 0
M  V30 4829 O 466.488 -0.506841 -2.10381 0
M  V30 4830 C 467.083 -3.367 -0.376595 0
M  V30 4831 C 465.642 -3.6746 -0.815485 0
M  V30 4832 C 464.789 -2.77178 0.0821087 0
M  V30 4833 H 467.74 -1.50208 0.512175 0
M  V30 4834 H 467.761 -3.60656 -1.21275 0
M  V30 4835 H 467.273 -3.8347 0.59767 0
M  V30 4836 H 465.374 -3.26201 -1.80066 0
M  V30 4837 H 465.487 -4.7478 -0.641905 0
M  V30 4838 H 463.851 -2.50925 -0.436895 0
M  V30 4839 H 464.634 -3.26767 1.05254 0
M  V30 4840 N 467.08 -0.0183926 -1.57589 0
M  V30 4841 C 468.326 0.663543 -1.91638 0
M  V30 4842 C 468.659 1.72392 -0.894134 0
M  V30 4843 O 467.934 1.94316 0.0846449 0
M  V30 4844 C 468.217 1.28984 -3.36207 0
M  V30 4845 C 468.07 0.239761 -4.49161 0
M  V30 4846 C 469.389 2.2109 -3.80536 0
M  V30 4847 H 466.508 0.239746 -0.696915 0
M  V30 4848 H 469.15 -0.073456 -1.89858 0
M  V30 4849 H 467.3 1.91799 -3.37854 0
M  V30 4850 H 468.972 -0.390119 -4.59647 0
M  V30 4851 H 467.215 -0.435972 -4.31604 0
M  V30 4852 H 467.886 0.717383 -5.47319 0
M  V30 4853 H 470.362 1.68273 -3.80557 0
M  V30 4854 H 469.238 2.61869 -4.82406 0
M  V30 4855 H 469.499 3.09764 -3.15434 0
M  V30 4856 N 468.558 1.5553 0.254621 0
M  V30 4857 C 469.488 1.9268 1.31897 0
M  V30 4858 C 470.469 0.790797 1.506 0
M  V30 4859 O 471.654 1.05045 1.63337 0
M  V30 4860 C 468.784 2.21477 2.67517 0
M  V30 4861 C 467.738 3.37256 2.63519 0
M  V30 4862 C 467.064 3.51576 4.02862 0
M  V30 4863 C 468.364 4.73157 2.21179 0
M  V30 4864 H 470.058 2.81832 1.01051 0
M  V30 4865 H 467.604 1.35599 0.484662 0
M  V30 4866 H 469.557 2.46055 3.42104 0
M  V30 4867 H 468.281 1.29144 2.99982 0
M  V30 4868 H 466.94 3.12675 1.9139 0
M  V30 4869 H 466.588 2.56676 4.32581 0
M  V30 4870 H 466.288 4.2943 4.01078 0
M  V30 4871 H 467.812 3.78467 4.79161 0
M  V30 4872 H 469.226 4.97158 2.85494 0
M  V30 4873 H 467.623 5.54058 2.30521 0
M  V30 4874 H 468.693 4.70739 1.16332 0
M  V30 4875 N 470.036 -0.519951 1.48776 0
M  V30 4876 C 470.946 -1.65025 1.66745 0
M  V30 4877 C 471.962 -1.6508 0.549954 0
M  V30 4878 O 473.138 -1.83848 0.822295 0
M  V30 4879 C 470.203 -3.0146 1.71238 0
M  V30 4880 C 469.264 -3.12182 2.94688 0
M  V30 4881 C 468.497 -4.42109 2.98958 0
M  V30 4882 O 468.72 -5.29799 2.1135 0
M  V30 4883 O 467.654 -4.57406 3.91233 0
M  V30 4884 H 471.48 -1.52801 2.62461 0
M  V30 4885 H 469.065 -0.694157 1.32294 0
M  V30 4886 H 470.947 -3.82584 1.76657 0
M  V30 4887 H 469.622 -3.13988 0.786975 0
M  V30 4888 H 468.529 -2.30316 2.94797 0
M  V30 4889 H 469.862 -3.04574 3.86646 0
M  V30 4890 N 471.514 -1.37532 -0.769588 0
M  V30 4891 C 472.925 -1.29382 -1.346 0
M  V30 4892 C 473.276 0.0576039 -1.96115 0
M  V30 4893 O 472.401 0.95947 -1.93967 0
M  V30 4894 C 472.996 -2.34298 -2.44724 0
M  V30 4895 C 471.555 -2.29776 -2.98128 0
M  V30 4896 C 470.702 -2.18013 -1.71364 0
M  V30 4897 H 473.653 -1.48123 -0.56968 0
M  V30 4898 H 473.674 -1.99089 -3.24259 0
M  V30 4899 H 473.186 -3.32645 -1.99922 0
M  V30 4900 H 471.287 -1.34959 -3.47299 0
M  V30 4901 H 471.4 -3.23276 -3.53595 0
M  V30 4902 H 469.764 -1.64595 -1.94372 0
M  V30 4903 H 470.547 -3.18278 -1.28662 0
M  V30 4904 N 472.992 0.995999 -1.22138 0
M  V30 4905 C 473.922 2.10387 -1.01289 0
M  V30 4906 C 474.903 1.69975 0.0651454 0
M  V30 4907 O 476.088 1.9396 -0.0964628 0
M  V30 4908 C 473.218 3.42312 -0.586517 0
M  V30 4909 C 472.172 3.96558 -1.61014 0
M  V30 4910 C 471.498 5.24494 -1.0397 0
M  V30 4911 C 472.798 4.27595 -2.99933 0
M  V30 4912 H 474.492 2.28086 -1.93951 0
M  V30 4913 H 472.038 1.09607 -0.933928 0
M  V30 4914 H 473.991 4.19223 -0.427793 0
M  V30 4915 H 472.715 3.24431 0.375761 0
M  V30 4916 H 471.374 3.21776 -1.75658 0
M  V30 4917 H 471.022 5.02953 -0.0688703 0
M  V30 4918 H 470.722 5.61755 -1.72352 0
M  V30 4919 H 472.246 6.04042 -0.892494 0
M  V30 4920 H 473.66 4.95315 -2.8868 0
M  V30 4921 H 472.057 4.76021 -3.6541 0
M  V30 4922 H 473.127 3.35498 -3.50099 0
M  V30 4923 N 474.47 1.03057 1.19235 0
M  V30 4924 C 475.418 0.606391 2.24557 0
M  V30 4925 C 476.412 -0.361826 1.65491 0
M  V30 4926 O 477.618 -0.23022 1.78522 0
M  V30 4927 H 473.993 0.177838 0.730669 0
M  V30 4928 H 475.964 1.50529 2.5765 0
M  V30 4929 C 474.713 -0.0252127 3.47691 0
M  V30 4930 H 474.036 0.710838 3.9343 0
M  V30 4931 H 475.476 -0.284931 4.23042 0
M  V30 4932 C 473.935 -1.27229 3.11953 0
M  V30 4933 O 474.465 -2.36416 3.24762 0
M  V30 4934 N 472.671 -1.16169 2.6637 0
M  V30 4935 H 472.218 -0.273189 2.56147 0
M  V30 4936 H 472.176 -1.99703 2.42829 0
M  V30 4937 N 475.948 -1.35272 0.808662 0
M  V30 4938 C 477.359 -1.81179 0.450688 0
M  V30 4939 C 477.71 -1.67143 -1.02751 0
M  V30 4940 O 476.835 -1.20325 -1.79864 0
M  V30 4941 C 477.43 -3.28943 0.811275 0
M  V30 4942 C 475.989 -3.72985 0.505871 0
M  V30 4943 C 475.136 -2.57229 1.03578 0
M  V30 4944 H 478.087 -1.2322 1.00012 0
M  V30 4945 H 478.108 -3.80342 0.109588 0
M  V30 4946 H 477.62 -3.39127 1.88718 0
M  V30 4947 H 475.721 -3.68349 -0.561209 0
M  V30 4948 H 475.834 -4.67677 1.03995 0
M  V30 4949 H 474.198 -2.50548 0.458005 0
M  V30 4950 H 474.981 -2.7019 2.11784 0
M  V30 4951 N 477.426 -0.562348 -1.47226 0
M  V30 4952 C 478.651 -0.0432632 -2.07355 0
M  V30 4953 C 479.076 1.24332 -1.41149 0
M  V30 4954 O 478.434 1.74603 -0.488226 0
M  V30 4955 C 478.482 0.130288 -3.60365 0
M  V30 4956 O 477.586 1.19166 -3.94808 0
M  V30 4957 H 476.927 -0.0536334 -0.66183 0
M  V30 4958 H 479.457 -0.779495 -1.89169 0
M  V30 4959 H 479.467 0.342881 -4.06557 0
M  V30 4960 H 478.142 -0.809389 -4.07948 0
M  V30 4961 H 476.719 0.959153 -3.60354 0
M  V30 4962 N 478.904 1.54736 -0.299062 0
M  V30 4963 C 480.32 1.59507 0.0543849 0
M  V30 4964 C 480.52 1.31606 1.52585 0
M  V30 4965 O 479.576 1.08853 2.27832 0
M  V30 4966 C 480.889 2.98751 -0.34181 0
M  V30 4967 C 482.437 3.1165 -0.290414 0
M  V30 4968 C 482.912 4.53199 -0.661402 0
M  V30 4969 N 484.403 4.59114 -0.613863 0
M  V30 4970 C 485.138 5.66709 -0.873417 0
M  V30 4971 N 484.634 6.82349 -1.19884 0
M  V30 4972 N 486.427 5.56369 -0.800608 0
M  V30 4973 H 478.578 1.71133 -1.25806 0
M  V30 4974 H 480.841 0.799186 -0.509908 0
M  V30 4975 H 480.547 3.24085 -1.36608 0
M  V30 4976 H 480.421 3.75961 0.305508 0
M  V30 4977 H 482.808 2.86066 0.724605 0
M  V30 4978 H 482.889 2.366 -0.972327 0
M  V30 4979 H 482.533 4.79513 -1.67422 0
M  V30 4980 H 482.463 5.26583 0.0425612 0
M  V30 4981 H 484.954 3.76053 -0.3732 0
M  V30 4982 H 485.267 7.60326 -1.38291 0
M  V30 4983 H 483.612 6.83906 -1.23685 0
M  V30 4984 H 486.803 4.64904 -0.546045 0
M  V30 4985 H 486.976 6.40139 -1.00626 0
M  V30 4986 N 480.382 0.0267497 1.57577 0
M  V30 4987 C 481.312 -0.954308 2.13108 0
M  V30 4988 C 482.293 -1.34088 1.04663 0
M  V30 4989 O 483.478 -1.41992 1.32484 0
M  V30 4990 C 480.608 -2.23744 2.65624 0
M  V30 4991 C 479.562 -1.99168 3.78835 0
M  V30 4992 C 478.888 -3.33726 4.17769 0
M  V30 4993 C 480.188 -1.33277 5.0501 0
M  V30 4994 H 481.882 -0.491848 2.95332 0
M  V30 4995 H 479.428 -0.23514 1.42067 0
M  V30 4996 H 481.381 -2.92754 3.03106 0
M  V30 4997 H 480.105 -2.72151 1.80558 0
M  V30 4998 H 478.764 -1.32577 3.41788 0
M  V30 4999 H 478.412 -3.79888 3.29688 0
M  V30 5000 H 478.112 -3.18089 4.94058 0
M  V30 5001 H 479.636 -4.04008 4.57832 0
M  V30 5002 H 481.05 -1.92283 5.40093 0
M  V30 5003 H 479.447 -1.28045 5.8628 0
M  V30 5004 H 480.517 -0.305411 4.83937 0
M  V30 5005 N 481.861 -1.55662 -0.24637 0
M  V30 5006 C 482.793 -1.86811 -1.32794 0
M  V30 5007 C 483.806 -0.754413 -1.44265 0
M  V30 5008 O 484.995 -1.03253 -1.45606 0
M  V30 5009 C 482.095 -2.0397 -2.70646 0
M  V30 5010 C 481.268 -3.34832 -2.81436 0
M  V30 5011 C 480.327 -3.41727 -4.00136 0
M  V30 5012 O 479.353 -4.14934 -3.89639 0
M  V30 5013 N 480.555 -2.71058 -5.1333 0
M  V30 5014 H 483.32 -2.80174 -1.06409 0
M  V30 5015 H 480.881 -1.55906 -0.43647 0
M  V30 5016 H 482.873 -2.05924 -3.48393 0
M  V30 5017 H 481.443 -1.1735 -2.89738 0
M  V30 5018 H 480.663 -3.4519 -1.90361 0
M  V30 5019 H 481.951 -4.21085 -2.85595 0
M  V30 5020 H 481.349 -2.11314 -5.2475 0
M  V30 5021 H 479.906 -2.78704 -5.89209 0
M  V30 5022 N 483.339 0.512053 -1.4905 0
M  V30 5023 C 484.616 1.27337 -1.48474 0
M  V30 5024 C 484.996 2.1009 -0.206301 0
M  V30 5025 O 484.344 2.136 0.811609 0
M  V30 5026 C 484.554 2.13954 -2.75726 0
M  V30 5027 C 485.902 2.73507 -3.24776 0
M  V30 5028 O 486.926 2.24229 -2.76767 0
M  V30 5029 O 485.785 3.63186 -4.08361 0
M  V30 5030 H 482.879 0.575652 -0.593762 0
M  V30 5031 H 485.425 0.527232 -1.61302 0
M  V30 5032 H 484.197 1.52709 -3.60272 0
M  V30 5033 H 483.82 2.95782 -2.65705 0
M  V30 5034 N 484.817 1.37938 0.762283 0
M  V30 5035 C 486.063 1.33866 1.52341 0
M  V30 5036 C 486.396 -0.0738961 1.94059 0
M  V30 5037 O 485.671 -1.03326 1.64785 0
M  V30 5038 C 485.954 2.28644 2.78197 0
M  V30 5039 C 485.807 3.78722 2.42672 0
M  V30 5040 C 487.126 2.21702 3.80179 0
M  V30 5041 H 484.245 0.487593 0.55265 0
M  V30 5042 H 486.887 1.68717 0.873767 0
M  V30 5043 H 485.037 1.99055 3.33631 0
M  V30 5044 H 486.709 4.18948 1.93081 0
M  V30 5045 H 484.952 3.96827 1.75244 0
M  V30 5046 H 485.623 4.40486 3.3268 0
M  V30 5047 H 488.099 2.47805 3.34263 0
M  V30 5048 H 486.975 2.90143 4.65949 0
M  V30 5049 H 487.236 1.21301 4.25133 0
M  V30 5050 N 486.295 -0.989507 1.22664 0
M  V30 5051 C 487.523 -1.76496 1.07967 0
M  V30 5052 C 487.938 -1.85148 -0.369543 0
M  V30 5053 O 487.295 -1.32408 -1.25596 0
M  V30 5054 C 487.346 -3.19642 1.68853 0
M  V30 5055 O 487.067 -3.11453 3.08105 0
M  V30 5056 C 488.568 -4.13621 1.59475 0
M  V30 5057 H 485.788 -0.55418 0.378319 0
M  V30 5058 H 488.332 -1.24378 1.62328 0
M  V30 5059 H 486.487 -3.68816 1.18547 0
M  V30 5060 H 486.901 -4.01499 3.37489 0
M  V30 5061 H 488.375 -5.11801 2.06795 0
M  V30 5062 H 488.852 -4.35718 0.55191 0
M  V30 5063 H 489.458 -3.70346 2.09103 0
M  V30 5064 N 487.773 -1.03688 -1.18687 0
M  V30 5065 C 489.019 -0.739123 -1.88851 0
M  V30 5066 C 489.352 0.731042 -1.79915 0
M  V30 5067 O 488.627 1.53313 -1.19688 0
M  V30 5068 C 488.91 -1.20106 -3.3948 0
M  V30 5069 C 488.763 -2.73304 -3.57246 0
M  V30 5070 C 490.082 -0.788134 -4.32986 0
M  V30 5071 H 487.201 -0.269978 -0.68577 0
M  V30 5072 H 489.843 -1.28822 -1.3966 0
M  V30 5073 H 487.993 -0.733915 -3.81505 0
M  V30 5074 H 489.665 -3.28027 -3.24339 0
M  V30 5075 H 487.908 -3.13313 -3.00029 0
M  V30 5076 H 488.579 -3.00684 -4.62918 0
M  V30 5077 H 491.055 -1.19005 -3.98719 0
M  V30 5078 H 489.931 -1.13915 -5.36949 0
M  V30 5079 H 490.192 0.308988 -4.41019 0
M  V30 5080 N 489.251 1.34841 -0.815825 0
M  V30 5081 C 490.181 2.32187 -0.247298 0
M  V30 5082 C 491.162 1.5791 0.632344 0
M  V30 5083 O 492.347 1.8593 0.560698 0
M  V30 5084 C 489.477 3.42122 0.597466 0
M  V30 5085 C 488.431 4.27602 -0.184446 0
M  V30 5086 C 487.757 5.28942 0.782609 0
M  V30 5087 C 489.057 5.03502 -1.38865 0
M  V30 5088 H 490.751 2.79985 -1.06061 0
M  V30 5089 H 488.297 1.34611 -0.511461 0
M  V30 5090 H 490.25 4.09232 1.00533 0
M  V30 5091 H 488.974 2.92956 1.44376 0
M  V30 5092 H 487.633 3.62085 -0.573592 0
M  V30 5093 H 487.281 4.7604 1.62466 0
M  V30 5094 H 486.981 5.87008 0.263695 0
M  V30 5095 H 488.505 5.98922 1.18848 0
M  V30 5096 H 489.919 5.63506 -1.05518 0
M  V30 5097 H 488.316 5.71108 -1.8427 0
M  V30 5098 H 489.386 4.33608 -2.17054 0
M  V30 5099 N 490.729 0.570148 1.46925 0
M  V30 5100 C 491.954 0.0542592 2.07329 0
M  V30 5101 C 492.379 -1.23582 1.41806 0
M  V30 5102 O 491.737 -1.74341 0.497479 0
M  V30 5103 C 491.785 -0.111175 3.60429 0
M  V30 5104 O 490.889 -1.17071 3.95434 0
M  V30 5105 H 490.23 0.0571425 0.661537 0
M  V30 5106 H 492.76 0.789516 1.88753 0
M  V30 5107 H 492.77 -0.321315 4.06733 0
M  V30 5108 H 491.445 0.831012 4.07513 0
M  V30 5109 H 490.022 -0.940029 3.60857 0
M  V30 5110 N 492.207 -1.54576 0.307264 0
M  V30 5111 C 493.137 -2.26708 -0.55907 0
M  V30 5112 C 494.118 -1.26893 -1.1328 0
M  V30 5113 O 495.303 -1.55677 -1.16097 0
M  V30 5114 C 492.433 -3.01259 -1.72801 0
M  V30 5115 C 491.387 -4.08275 -1.28435 0
M  V30 5116 C 490.713 -4.70575 -2.53895 0
M  V30 5117 C 492.013 -5.2068 -0.411038 0
M  V30 5118 H 493.707 -2.9937 0.042576 0
M  V30 5119 H 491.253 -1.43983 0.0219173 0
M  V30 5120 H 493.206 -3.50444 -2.34023 0
M  V30 5121 H 491.93 -2.26187 -2.356 0
M  V30 5122 H 490.589 -3.59949 -0.695161 0
M  V30 5123 H 490.237 -3.92136 -3.15021 0
M  V30 5124 H 489.937 -5.42854 -2.24908 0
M  V30 5125 H 491.461 -5.22527 -3.15908 0
M  V30 5126 H 492.875 -5.65721 -0.929097 0
M  V30 5127 H 491.272 -5.99716 -0.214664 0
M  V30 5128 H 492.342 -4.81629 0.562287 0
M  V30 5129 N 493.685 -0.035106 -1.57561 0
M  V30 5130 C 494.91 0.655802 -1.96759 0
M  V30 5131 C 495.335 1.64523 -0.911809 0
M  V30 5132 O 494.693 1.80857 0.126673 0
M  V30 5133 C 494.741 1.33326 -3.35047 0
M  V30 5134 O 493.845 2.44866 -3.31835 0
M  V30 5135 H 493.186 0.171807 -0.641388 0
M  V30 5136 H 495.716 -0.0987369 -2.04362 0
M  V30 5137 H 495.726 1.68867 -3.71413 0
M  V30 5138 H 494.401 0.608033 -4.11431 0
M  V30 5139 H 492.978 2.11392 -3.07193 0
M  V30 5140 N 495.163 1.55791 0.238111 0
M  V30 5141 C 496.403 1.79801 0.972163 0
M  V30 5142 C 496.767 0.606027 1.82185 0
M  V30 5143 O 497.968 0.725079 2.58836 0
M  V30 5144 C 496.239 3.08608 1.80266 0
M  V30 5145 S 497.798 3.53872 2.59461 0
M  V30 5146 H 494.616 0.631418 0.326852 0
M  V30 5147 H 497.218 1.94031 0.239212 0
M  V30 5148 H 495.922 3.93419 1.1683 0
M  V30 5149 H 495.453 2.9714 2.57821 0
M  V30 5150 H 497.468 3.15899 3.82651 0
M  V30 5151 N 496.642 -0.504142 1.49319 0
M  V30 5152 C 497.572 -1.61473 1.68667 0
M  V30 5153 C 498.553 -1.61455 0.535378 0
M  V30 5154 O 499.738 -1.78245 0.770868 0
M  V30 5155 C 496.868 -2.99971 1.75028 0
M  V30 5156 C 495.822 -3.14854 2.89916 0
M  V30 5157 C 495.148 -4.54671 2.81387 0
M  V30 5158 C 496.448 -2.95176 4.30893 0
M  V30 5159 H 498.142 -1.45535 2.61648 0
M  V30 5160 H 495.688 -0.698711 1.25913 0
M  V30 5161 H 497.641 -3.77562 1.8715 0
M  V30 5162 H 496.365 -3.1699 0.786441 0
M  V30 5163 H 495.024 -2.39687 2.77391 0
M  V30 5164 H 494.672 -4.68562 1.82917 0
M  V30 5165 H 494.372 -4.6557 3.58494 0
M  V30 5166 H 495.896 -5.34327 2.95512 0
M  V30 5167 H 497.31 -3.62538 4.44116 0
M  V30 5168 H 495.707 -3.17549 5.09198 0
M  V30 5169 H 496.777 -1.91332 4.45556 0
M  V30 5170 N 498.12 -1.38341 -0.754957 0
M  V30 5171 C 499.35 -1.37504 -1.54195 0
M  V30 5172 C 499.758 0.0373787 -1.89163 0
M  V30 5173 O 499.101 1.01402 -1.53178 0
M  V30 5174 C 499.163 -2.16488 -2.87008 0
M  V30 5175 C 498.827 -3.65311 -2.74585 0
M  V30 5176 C 499.824 -4.58834 -2.44474 0
M  V30 5177 C 497.509 -4.08649 -2.9208 0
M  V30 5178 C 499.503 -5.93675 -2.32011 0
M  V30 5179 C 497.19 -5.43571 -2.79237 0
M  V30 5180 C 498.188 -6.35898 -2.49245 0
M  V30 5181 O 497.876 -7.68338 -2.36458 0
M  V30 5182 H 497.608 -0.472159 -0.483779 0
M  V30 5183 H 500.162 -1.82515 -0.94221 0
M  V30 5184 H 498.392 -1.66194 -3.49166 0
M  V30 5185 H 500.081 -2.08076 -3.4851 0
M  V30 5186 H 500.847 -4.26657 -2.30627 0
M  V30 5187 H 496.726 -3.37134 -3.14422 0
M  V30 5188 H 500.27 -6.65706 -2.08522 0
M  V30 5189 H 496.167 -5.75345 -2.92657 0
M  V30 5190 H 496.935 -7.78845 -2.5168 0
M  V30 5191 N 499.598 0.982988 -1.23187 0
M  V30 5192 C 500.561 2.05649 -1.01198 0
M  V30 5193 C 501.561 1.6078 0.0252464 0
M  V30 5194 O 502.751 1.72878 -0.214243 0
M  V30 5195 C 499.883 3.36744 -0.530656 0
M  V30 5196 H 501.076 2.2659 -1.96461 0
M  V30 5197 H 498.629 1.15602 -1.05195 0
M  V30 5198 H 499.364 3.21492 0.425873 0
M  V30 5199 H 499.149 3.7065 -1.2791 0
M  V30 5200 H 500.639 4.15705 -0.397366 0
M  V30 5201 N 501.076 1.04316 1.18135 0
M  V30 5202 C 502.324 0.746542 1.87806 0
M  V30 5203 C 502.645 -0.728082 1.80898 0
M  V30 5204 O 501.915 -1.52554 1.22899 0
M  V30 5205 H 500.495 0.273157 0.695265 0
M  V30 5206 H 503.157 1.32044 1.43354 0
M  V30 5207 H 502.253 1.05362 2.93778 0
M  V30 5208 N 502.554 -1.34406 0.822964 0
M  V30 5209 C 503.8 -1.98578 0.411666 0
M  V30 5210 C 504.133 -1.65093 -1.02264 0
M  V30 5211 O 503.408 -0.92258 -1.71227 0
M  V30 5212 C 503.691 -3.54823 0.614235 0
M  V30 5213 C 503.544 -3.9805 2.09466 0
M  V30 5214 C 504.863 -4.40071 0.050221 0
M  V30 5215 H 501.982 -0.721355 0.151047 0
M  V30 5216 H 504.624 -1.59301 1.03554 0
M  V30 5217 H 502.774 -3.88411 0.0831774 0
M  V30 5218 H 504.446 -3.74795 2.68936 0
M  V30 5219 H 502.689 -3.4836 2.5851 0
M  V30 5220 H 503.36 -5.06819 2.18721 0
M  V30 5221 H 505.836 -4.13037 0.503953 0
M  V30 5222 H 504.712 -5.48452 0.221759 0
M  V30 5223 H 504.973 -4.29576 -1.04482 0
M  V30 5224 N 504.032 -0.577932 -1.46621 0
M  V30 5225 C 505.257 -0.0652536 -2.07297 0
M  V30 5226 C 505.682 1.22828 -1.4246 0
M  V30 5227 O 505.04 1.74075 -0.506718 0
M  V30 5228 C 505.088 0.0920589 -3.60482 0
M  V30 5229 O 504.192 1.14972 -3.96049 0
M  V30 5230 H 503.533 -0.06065 -0.661224 0
M  V30 5231 H 506.063 -0.799515 -1.88332 0
M  V30 5232 H 506.073 0.299741 -4.06897 0
M  V30 5233 H 504.748 -0.852612 -4.07067 0
M  V30 5234 H 503.325 0.920879 -3.61351 0
M  V30 5235 N 505.51 1.54411 -0.315457 0
M  V30 5236 C 506.756 2.00716 0.289972 0
M  V30 5237 C 507.089 1.2034 1.5242 0
M  V30 5238 O 506.364 0.283579 1.92422 0
M  V30 5239 C 506.647 3.54507 0.632196 0
M  V30 5240 C 506.5 4.45615 -0.61218 0
M  V30 5241 C 507.819 4.15421 1.45305 0
M  V30 5242 H 504.938 0.729637 0.10392 0
M  V30 5243 H 507.58 1.8506 -0.430427 0
M  V30 5244 H 505.73 3.67979 1.24595 0
M  V30 5245 H 507.402 4.44026 -1.25053 0
M  V30 5246 H 505.645 4.15621 -1.24264 0
M  V30 5247 H 506.316 5.51022 -0.328379 0
M  V30 5248 H 508.792 4.05474 0.934331 0
M  V30 5249 H 507.668 5.23157 1.66127 0
M  V30 5250 H 507.929 3.68223 2.44671 0
M  V30 5251 N 506.988 0.0434614 1.5754 0
M  V30 5252 C 507.951 -0.918696 2.09982 0
M  V30 5253 C 508.951 -1.24488 1.01781 0
M  V30 5254 O 510.141 -1.18284 1.27885 0
M  V30 5255 C 507.273 -2.23093 2.57764 0
M  V30 5256 H 508.466 -0.464229 2.96285 0
M  V30 5257 H 506.019 -0.204818 1.54952 0
M  V30 5258 H 506.754 -2.73137 1.74832 0
M  V30 5259 H 506.539 -2.00724 3.36827 0
M  V30 5260 H 508.029 -2.92028 2.98512 0
M  V30 5261 N 508.466 -1.55915 -0.229846 0
M  V30 5262 C 509.694 -1.82617 -0.972562 0
M  V30 5263 C 510.109 -0.621488 -1.78278 0
M  V30 5264 O 509.466 0.409956 -1.77836 0
M  V30 5265 C 509.517 -3.0774 -1.89679 0
M  V30 5266 O 509.238 -4.23559 -1.11934 0
M  V30 5267 C 510.739 -3.47368 -2.75409 0
M  V30 5268 H 507.959 -0.60727 -0.285419 0
M  V30 5269 H 510.503 -2.02996 -0.247579 0
M  V30 5270 H 508.658 -2.89361 -2.57583 0
M  V30 5271 H 509.072 -4.94586 -1.74599 0
M  V30 5272 H 510.546 -4.37977 -3.35977 0
M  V30 5273 H 511.023 -2.68737 -3.47386 0
M  V30 5274 H 511.629 -3.68158 -2.12931 0
M  V30 5275 N 509.944 0.496216 -1.49584 0
M  V30 5276 C 511.184 1.26015 -1.60933 0
M  V30 5277 C 511.548 1.89772 -0.291646 0
M  V30 5278 O 512.749 2.67334 -0.280357 0
M  V30 5279 C 511.02 2.29506 -2.73974 0
M  V30 5280 S 512.579 3.15175 -3.05303 0
M  V30 5281 H 509.397 0.428194 -0.567601 0
M  V30 5282 H 511.999 0.561484 -1.87263 0
M  V30 5283 H 510.703 1.81205 -3.68229 0
M  V30 5284 H 510.234 3.04036 -2.49651 0
M  V30 5285 H 512.249 4.30244 -2.47193 0
M  V30 5286 N 511.423 1.38739 0.74761 0
M  V30 5287 C 512.356 1.3083 1.86972 0
M  V30 5288 C 513.334 0.184229 1.61553 0
M  V30 5289 O 514.518 0.36256 1.8498 0
M  V30 5290 C 511.645 1.02854 3.22705 0
M  V30 5291 C 510.691 2.17281 3.67003 0
M  V30 5292 S 511.524 3.79468 3.77842 0
M  V30 5293 C 512.68 3.53692 5.16385 0
M  V30 5294 H 512.913 2.258 1.93395 0
M  V30 5295 H 510.446 1.24646 0.911199 0
M  V30 5296 H 512.404 0.87397 4.01089 0
M  V30 5297 H 511.065 0.0959295 3.13953 0
M  V30 5298 H 510.258 1.93267 4.65472 0
M  V30 5299 H 509.86 2.28876 2.9579 0
M  V30 5300 H 512.152 3.10176 6.02327 0
M  V30 5301 H 513.095 4.51576 5.45422 0
M  V30 5302 H 513.503 2.8807 4.85464 0
M  V30 5303 N 512.901 -0.976442 1.23707 0
M  V30 5304 C 513.864 -2.0511 1.02287 0
M  V30 5305 C 514.864 -1.60791 -0.0167195 0
M  V30 5306 O 516.054 -1.72761 0.223408 0
M  V30 5307 C 513.186 -3.36458 0.548507 0
M  V30 5308 H 514.379 -2.25545 1.9766 0
M  V30 5309 H 511.932 -1.15042 1.05806 0
M  V30 5310 H 512.667 -3.21713 -0.408818 0
M  V30 5311 H 512.452 -3.69967 1.29874 0
M  V30 5312 H 513.942 -4.15489 0.419406 0
M  V30 5313 N 514.379 -1.04941 -1.1758 0
M  V30 5314 C 515.628 -0.753124 -1.87112 0
M  V30 5315 C 515.941 0.722507 -1.81767 0
M  V30 5316 O 517.147 1.13265 -2.46746 0
M  V30 5317 C 515.603 -1.29695 -3.35719 0
M  V30 5318 C 515.211 -2.80184 -3.49572 0
M  V30 5319 C 516.955 -1.07759 -4.10595 0
M  V30 5320 C 514.862 -3.2788 -4.92187 0
M  V30 5321 H 513.792 -0.278034 -0.700866 0
M  V30 5322 H 516.443 -1.26637 -1.32798 0
M  V30 5323 H 514.825 -0.711522 -3.89555 0
M  V30 5324 H 515.999 -3.44561 -3.05965 0
M  V30 5325 H 514.314 -3.00632 -2.88113 0
M  V30 5326 H 516.911 -1.40899 -5.15802 0
M  V30 5327 H 517.254 -0.0152302 -4.16297 0
M  V30 5328 H 517.787 -1.62809 -3.62957 0
M  V30 5329 H 514.526 -4.33535 -4.91658 0
M  V30 5330 H 514.046 -2.68245 -5.36475 0
M  V30 5331 H 515.725 -3.22412 -5.60945 0
M  V30 5332 N 515.857 1.33968 -0.830081 0
M  V30 5333 C 516.787 2.31911 -0.271911 0
M  V30 5334 C 517.768 1.58571 0.61556 0
M  V30 5335 O 518.953 1.86514 0.540946 0
M  V30 5336 C 516.083 3.42737 0.561146 0
M  V30 5337 C 515.037 4.27383 -0.229789 0
M  V30 5338 C 514.363 5.29742 0.726463 0
M  V30 5339 C 515.663 5.02 -1.44197 0
M  V30 5340 H 517.357 2.78844 -1.09025 0
M  V30 5341 H 514.903 1.34061 -0.52571 0
M  V30 5342 H 516.856 4.10276 0.961867 0
M  V30 5343 H 515.58 2.94471 1.41261 0
M  V30 5344 H 514.239 3.61456 -0.611964 0
M  V30 5345 H 513.887 4.77736 1.57408 0
M  V30 5346 H 513.587 5.87255 0.20142 0
M  V30 5347 H 515.111 6.00149 1.12489 0
M  V30 5348 H 516.525 5.62355 -1.11488 0
M  V30 5349 H 514.922 5.69122 -1.90317 0
M  V30 5350 H 515.992 4.31281 -2.2164 0
M  V30 5351 N 517.335 0.585699 1.46312 0
M  V30 5352 C 518.285 -0.166813 2.27389 0
M  V30 5353 C 519.269 -0.859076 1.36047 0
M  V30 5354 O 520.461 -0.752678 1.60199 0
M  V30 5355 C 517.59 -1.17791 3.2246 0
M  V30 5356 C 516.676 -0.487605 4.21288 0
M  V30 5357 N 517.067 0.45849 5.03718 0
M  V30 5358 C 515.365 -0.737971 4.39852 0
M  V30 5359 C 516.066 0.862213 5.75275 0
M  V30 5360 N 515.042 0.210707 5.43191 0
M  V30 5361 H 518.844 0.560167 2.88512 0
M  V30 5362 H 516.358 0.407715 1.57199 0
M  V30 5363 H 518.355 -1.73122 3.79255 0
M  V30 5364 H 517.015 -1.90568 2.62896 0
M  V30 5365 H 518.026 0.834163 5.11138 0
M  V30 5366 H 514.703 -1.45209 3.91434 0
M  V30 5367 H 516.093 1.64128 6.51546 0
M  V30 5368 N 518.813 -1.54241 0.323641 0
M  V30 5369 C 520.059 -2.00867 -0.279323 0
M  V30 5370 C 520.392 -1.21146 -1.5178 0
M  V30 5371 O 519.667 -0.29378 -1.92269 0
M  V30 5372 C 519.95 -3.54837 -0.613387 0
M  V30 5373 C 519.803 -4.45284 0.635803 0
M  V30 5374 C 521.122 -4.16186 -1.43099 0
M  V30 5375 H 518.241 -0.730177 -0.100049 0
M  V30 5376 H 520.883 -1.84829 0.440235 0
M  V30 5377 H 519.033 -3.68634 -1.22641 0
M  V30 5378 H 520.705 -4.43357 1.27406 0
M  V30 5379 H 518.948 -4.14956 1.26466 0
M  V30 5380 H 519.619 -5.5084 0.357597 0
M  V30 5381 H 522.095 -4.05964 -0.912814 0
M  V30 5382 H 520.971 -5.24031 -1.6335 0
M  V30 5383 H 521.232 -3.69516 -2.42715 0
M  V30 5384 N 520.291 -0.0518155 -1.57515 0
M  V30 5385 C 521.539 0.620595 -1.92336 0
M  V30 5386 C 521.86 1.71345 -0.930907 0
M  V30 5387 O 521.13 1.95885 0.0241341 0
M  V30 5388 H 519.71 0.232226 -0.709986 0
M  V30 5389 H 522.372 -0.104969 -1.94617 0
M  V30 5390 H 521.468 1.05879 -2.93592 0
M  V30 5391 N 521.769 1.56035 0.221574 0
M  V30 5392 C 522.994 1.83476 0.967026 0
M  V30 5393 C 523.419 0.632139 1.7716 0
M  V30 5394 O 522.777 -0.419082 1.7639 0
M  V30 5395 C 522.825 3.08907 1.86034 0
M  V30 5396 O 521.929 2.876 2.95567 0
M  V30 5397 H 521.27 0.604913 0.273817 0
M  V30 5398 H 523.8 2.03247 0.234893 0
M  V30 5399 H 523.81 3.3901 2.27016 0
M  V30 5400 H 522.485 3.96068 1.26898 0
M  V30 5401 H 521.062 2.6873 2.58532 0
M  V30 5402 N 523.247 -0.488276 1.49845 0
M  V30 5403 C 524.21 -1.57069 1.66919 0
M  V30 5404 C 525.21 -1.51445 0.540479 0
M  V30 5405 O 526.4 -1.5437 0.807188 0
M  V30 5406 C 523.532 -2.96718 1.67844 0
M  V30 5407 H 524.725 -1.43254 2.63474 0
M  V30 5408 H 522.278 -0.713435 1.39068 0
M  V30 5409 H 523.013 -3.15996 0.7292 0
M  V30 5410 H 522.798 -3.02208 2.49826 0
M  V30 5411 H 524.288 -3.75335 1.83066 0
M  V30 5412 N 524.725 -1.39134 -0.740242 0
M  V30 5413 C 525.657 -1.33332 -1.86428 0
M  V30 5414 C 526.67 -0.243042 -1.60976 0
M  V30 5415 O 527.859 -0.501608 -1.71307 0
M  V30 5416 C 524.959 -1.04626 -3.22346 0
M  V30 5417 C 524.132 -2.24826 -3.75196 0
M  V30 5418 C 523.191 -1.92659 -4.89662 0
M  V30 5419 O 522.217 -2.6529 -5.03597 0
M  V30 5420 N 523.419 -0.889575 -5.73643 0
M  V30 5421 H 526.184 -2.30196 -1.91911 0
M  V30 5422 H 523.745 -1.33168 -0.920756 0
M  V30 5423 H 525.737 -0.811347 -3.96484 0
M  V30 5424 H 524.307 -0.165129 -3.12164 0
M  V30 5425 H 523.527 -2.64301 -2.9247 0
M  V30 5426 H 524.815 -3.05015 -4.07239 0
M  V30 5427 H 524.213 -0.287529 -5.64969 0
M  V30 5428 H 522.77 -0.714557 -6.47871 0
M  V30 5429 N 526.204 0.969867 -1.24223 0
M  V30 5430 C 527.136 2.0669 -0.99055 0
M  V30 5431 C 528.149 1.62753 0.0392222 0
M  V30 5432 O 529.338 1.77403 -0.197561 0
M  V30 5433 C 526.438 3.35589 -0.472594 0
M  V30 5434 C 525.611 4.08444 -1.56499 0
M  V30 5435 C 524.67 5.15616 -1.05007 0
M  V30 5436 O 523.696 5.41911 -1.7413 0
M  V30 5437 N 524.898 5.80383 0.116641 0
M  V30 5438 H 527.663 2.28855 -1.93508 0
M  V30 5439 H 525.224 1.13733 -1.15223 0
M  V30 5440 H 527.216 4.04542 -0.112919 0
M  V30 5441 H 525.786 3.10311 0.377617 0
M  V30 5442 H 525.006 3.33798 -2.09696 0
M  V30 5443 H 526.294 4.53882 -2.29932 0
M  V30 5444 H 525.692 5.6142 0.694589 0
M  V30 5445 H 524.249 6.50462 0.417483 0
M  V30 5446 N 527.682 1.05563 1.17022 0
M  V30 5447 C 528.928 0.769074 1.87652 0
M  V30 5448 C 529.261 -0.702326 1.81055 0
M  V30 5449 O 528.536 -1.5139 1.22112 0
M  V30 5450 C 528.819 1.25492 3.37526 0
M  V30 5451 C 528.672 2.78953 3.52853 0
M  V30 5452 C 529.991 0.856919 4.31677 0
M  V30 5453 H 527.11 0.280854 0.681388 0
M  V30 5454 H 529.752 1.31027 1.37593 0
M  V30 5455 H 527.902 0.794516 3.80289 0
M  V30 5456 H 529.574 3.33146 3.19079 0
M  V30 5457 H 527.817 3.18046 2.95007 0
M  V30 5458 H 528.488 3.08011 4.58076 0
M  V30 5459 H 530.964 1.25334 3.96775 0
M  V30 5460 H 529.84 1.22443 5.35069 0
M  V30 5461 H 530.101 -0.238787 4.41455 0
M  V30 5462 N 529.16 -1.33526 0.837174 0
M  V30 5463 C 530.576 -1.50727 0.524743 0
M  V30 5464 C 530.776 -1.77792 -0.948279 0
M  V30 5465 O 529.832 -1.83719 -1.73216 0
M  V30 5466 C 531.145 -2.66299 1.39661 0
M  V30 5467 C 532.693 -2.80183 1.39521 0
M  V30 5468 C 533.168 -3.98815 2.25189 0
M  V30 5469 N 534.659 -4.06047 2.2289 0
M  V30 5470 C 535.394 -4.97032 2.85915 0
M  V30 5471 N 534.89 -5.93143 3.57985 0
M  V30 5472 N 536.683 -4.90015 2.75394 0
M  V30 5473 H 528.834 -1.1422 1.79074 0
M  V30 5474 H 531.097 -0.561399 0.763894 0
M  V30 5475 H 530.803 -2.52974 2.4433 0
M  V30 5476 H 530.677 -3.61663 1.07145 0
M  V30 5477 H 533.064 -2.92942 0.356253 0
M  V30 5478 H 533.145 -1.85586 1.76044 0
M  V30 5479 H 532.789 -3.86817 3.29143 0
M  V30 5480 H 532.719 -4.92654 1.86009 0
M  V30 5481 H 535.21 -3.37262 1.70478 0
M  V30 5482 H 535.523 -6.59227 4.03286 0
M  V30 5483 H 533.868 -5.93223 3.62093 0
M  V30 5484 H 537.059 -4.13894 2.18654 0
M  V30 5485 H 537.232 -5.60724 3.24796 0
M  V30 5486 N 530.638 -0.59345 -1.46 0
M  V30 5487 C 531.866 -0.0890934 -2.06708 0
M  V30 5488 C 532.281 1.2205 -1.44046 0
M  V30 5489 O 531.638 1.74029 -0.549551 0
M  V30 5490 C 531.689 0.0720263 -3.61428 0
M  V30 5491 O 531.41 -1.18574 -4.21748 0
M  V30 5492 C 532.911 0.609487 -4.3909 0
M  V30 5493 H 530.131 -0.0623628 -0.668096 0
M  V30 5494 H 532.675 -0.817171 -1.87464 0
M  V30 5495 H 530.83 0.750369 -3.80063 0
M  V30 5496 H 531.244 -1.0064 -5.14754 0
M  V30 5497 H 532.718 0.671363 -5.47902 0
M  V30 5498 H 533.195 1.62878 -4.07882 0
M  V30 5499 H 533.801 -0.03434 -4.25286 0
M  V30 5500 N 532.116 1.54067 -0.331816 0
M  V30 5501 C 533.364 2.00319 0.267739 0
M  V30 5502 C 533.685 1.22148 1.52003 0
M  V30 5503 O 532.955 0.325494 1.93177 0
M  V30 5504 H 531.535 0.740014 0.101922 0
M  V30 5505 H 534.197 1.89628 -0.450267 0
M  V30 5506 H 533.293 3.07765 0.518385 0
M  V30 5507 N 533.594 0.0601682 1.57485 0
M  V30 5508 C 534.819 -0.624416 1.97777 0
M  V30 5509 C 535.244 -1.63051 0.937867 0
M  V30 5510 O 534.602 -1.81036 -0.0978845 0
M  V30 5511 C 534.65 -1.27979 3.37126 0
M  V30 5512 O 533.754 -2.39556 3.35688 0
M  V30 5513 H 533.095 -0.161581 0.64404 0
M  V30 5514 H 535.625 0.131237 2.04179 0
M  V30 5515 H 535.635 -1.62937 3.74053 0
M  V30 5516 H 534.31 -0.542501 4.12347 0
M  V30 5517 H 532.887 -2.06478 3.10517 0
M  V30 5518 N 535.072 -1.5615 -0.213296 0
M  V30 5519 C 536.3 -1.83638 -0.953139 0
M  V30 5520 C 536.715 -0.640362 -1.77609 0
M  V30 5521 O 536.072 0.391071 -1.78261 0
M  V30 5522 C 536.123 -3.09735 -1.86405 0
M  V30 5523 O 535.844 -4.24723 -1.07435 0
M  V30 5524 C 537.345 -3.5027 -2.71709 0
M  V30 5525 H 534.565 -0.610263 -0.278962 0
M  V30 5526 H 537.109 -2.03247 -0.226035 0
M  V30 5527 H 535.264 -2.92077 -2.545 0
M  V30 5528 H 535.678 -4.9641 -1.69343 0
M  V30 5529 H 537.152 -4.41515 -3.31313 0
M  V30 5530 H 537.629 -2.72406 -3.44516 0
M  V30 5531 H 538.235 -3.70396 -2.09015 0
M  V30 5532 N 536.55 0.480323 -1.50102 0
M  V30 5533 C 537.775 1.26126 -1.64642 0
M  V30 5534 C 538.2 1.85257 -0.325823 0
M  V30 5535 O 537.558 1.66854 0.709194 0
M  V30 5536 C 537.606 2.35243 -2.73301 0
M  V30 5537 O 536.71 3.39646 -2.33911 0
M  V30 5538 H 536.051 0.371463 -0.550374 0
M  V30 5539 H 538.581 0.572696 -1.96421 0
M  V30 5540 H 538.591 2.80695 -2.96098 0
M  V30 5541 H 537.266 1.91574 -3.6915 0
M  V30 5542 H 535.843 2.99969 -2.21525 0
M  V30 5543 N 538.028 1.39524 0.732853 0
M  V30 5544 C 539.253 1.40329 1.52717 0
M  V30 5545 C 539.678 0.000286574 1.881 0
M  V30 5546 O 539.036 -0.987262 1.52062 0
M  V30 5547 C 539.084 2.28464 2.78992 0
M  V30 5548 O 538.188 1.716 3.75003 0
M  V30 5549 H 537.529 0.47778 0.461109 0
M  V30 5550 H 540.059 1.83546 0.903996 0
M  V30 5551 H 540.069 2.43051 3.27705 0
M  V30 5552 H 538.744 3.30425 2.52572 0
M  V30 5553 H 537.321 1.66267 3.33781 0
M  V30 5554 N 539.506 -0.963266 1.24736 0
M  V30 5555 C 540.453 -2.05857 1.04363 0
M  V30 5556 C 541.423 -1.6604 -0.0444951 0
M  V30 5557 O 542.608 -1.90477 0.110999 0
M  V30 5558 C 539.748 -3.38745 0.659235 0
M  V30 5559 C 538.861 -3.9173 1.82131 0
M  V30 5560 C 537.996 -5.12906 1.38208 0
M  V30 5561 C 537.035 -5.58098 2.51382 0
M  V30 5562 N 536.172 -6.7049 2.08295 0
M  V30 5563 H 541.012 -2.22616 1.98107 0
M  V30 5564 H 538.549 -1.09103 0.986661 0
M  V30 5565 H 540.507 -4.15107 0.417371 0
M  V30 5566 H 539.137 -3.21898 -0.241201 0
M  V30 5567 H 538.189 -3.11966 2.17672 0
M  V30 5568 H 539.501 -4.21225 2.67153 0
M  V30 5569 H 538.655 -5.96657 1.09935 0
M  V30 5570 H 537.394 -4.85105 0.502456 0
M  V30 5571 H 536.399 -4.72917 2.80409 0
M  V30 5572 H 537.624 -5.87911 3.39909 0
M  V30 5573 H 535.57 -6.44416 1.22737 0
M  V30 5574 H 535.487 -6.99458 2.86869 0
M  V30 5575 H 536.755 -7.57672 1.83175 0
M  V30 5576 N 540.985 -1.06182 -1.16461 0
M  V30 5577 C 541.895 -0.682671 -2.24448 0
M  V30 5578 C 542.911 0.30078 -1.71381 0
M  V30 5579 O 544.087 0.150376 -2.00838 0
M  V30 5580 C 541.152 -0.0737202 -3.46622 0
M  V30 5581 C 540.213 -1.10889 -4.14731 0
M  V30 5582 C 539.446 -0.528908 -5.31073 0
M  V30 5583 O 539.669 0.65868 -5.66584 0
M  V30 5584 O 538.603 -1.26805 -5.88391 0
M  V30 5585 H 542.429 -1.58291 -2.59187 0
M  V30 5586 H 540.014 -0.834013 -1.23954 0
M  V30 5587 H 541.896 0.264192 -4.20571 0
M  V30 5588 H 540.571 0.800015 -3.13658 0
M  V30 5589 H 539.478 -1.49896 -3.42756 0
M  V30 5590 H 540.811 -1.95412 -4.51747 0
M  V30 5591 N 542.463 1.3308 -0.844243 0
M  V30 5592 C 543.74 1.92178 -0.364261 0
M  V30 5593 C 544.12 1.76961 1.15101 0
M  V30 5594 O 543.468 1.16128 1.9679 0
M  V30 5595 C 543.678 3.393 -0.817106 0
M  V30 5596 C 545.026 4.16444 -0.828236 0
M  V30 5597 O 546.05 3.47975 -0.761062 0
M  V30 5598 O 544.909 5.38685 -0.920926 0
M  V30 5599 H 542.003 0.820411 -0.10419 0
M  V30 5600 H 544.549 1.41918 -0.930453 0
M  V30 5601 H 543.321 3.44272 -1.85991 0
M  V30 5602 H 542.944 3.96947 -0.227785 0
M  V30 5603 N 543.941 0.601185 1.45683 0
M  V30 5604 C 545.218 0.0261659 1.95582 0
M  V30 5605 C 545.598 -1.4399 1.5437 0
M  V30 5606 O 544.946 -2.13919 0.80318 0
M  V30 5607 C 545.156 0.217557 3.48321 0
M  V30 5608 C 546.504 0.0950076 4.24494 0
M  V30 5609 O 547.528 0.147345 3.55895 0
M  V30 5610 O 546.387 -0.025261 5.46494 0
M  V30 5611 H 543.481 -0.0393688 0.826062 0
M  V30 5612 H 546.027 0.670798 1.55879 0
M  V30 5613 H 544.799 1.23601 3.71266 0
M  V30 5614 H 544.422 -0.46264 3.94899 0
M  V30 5615 N 545.419 -1.53889 0.339982 0
M  V30 5616 C 546.649 -2.04973 -0.258738 0
M  V30 5617 C 547.057 -1.21485 -1.45045 0
M  V30 5618 O 546.4 -0.2422 -1.82096 0
M  V30 5619 C 546.462 -3.51783 -0.740853 0
M  V30 5620 C 546.126 -4.55802 0.330734 0
M  V30 5621 C 547.123 -5.06512 1.17226 0
M  V30 5622 C 544.808 -4.99966 0.483637 0
M  V30 5623 C 546.802 -5.99963 2.15227 0
M  V30 5624 C 544.489 -5.93229 1.46704 0
M  V30 5625 C 545.487 -6.43115 2.29981 0
M  V30 5626 O 545.175 -7.34545 3.26649 0
M  V30 5627 H 544.907 -0.673807 -0.0544037 0
M  V30 5628 H 547.461 -1.99492 0.489107 0
M  V30 5629 H 545.691 -3.54717 -1.53988 0
M  V30 5630 H 547.38 -3.85857 -1.25973 0
M  V30 5631 H 548.146 -4.73158 1.0652 0
M  V30 5632 H 544.025 -4.6074 -0.15471 0
M  V30 5633 H 547.569 -6.38825 2.80265 0
M  V30 5634 H 543.466 -6.25998 1.57468 0
M  V30 5635 H 544.234 -7.52468 3.22078 0
M  V30 5636 N 546.897 -0.0685191 -1.57451 0
M  V30 5637 C 547.807 0.914677 -2.16034 0
M  V30 5638 C 548.823 1.32938 -1.12265 0
M  V30 5639 O 549.999 1.40275 -1.44516 0
M  V30 5640 C 547.064 2.16519 -2.70777 0
M  V30 5641 C 546.125 1.80721 -3.89408 0
M  V30 5642 C 545.358 2.9981 -4.41531 0
M  V30 5643 O 545.581 4.13727 -3.92666 0
M  V30 5644 O 544.515 2.79817 -5.32903 0
M  V30 5645 H 548.341 0.446364 -3.00402 0
M  V30 5646 H 545.926 0.154367 -1.486 0
M  V30 5647 H 547.808 2.89856 -3.05878 0
M  V30 5648 H 546.483 2.62454 -1.89471 0
M  V30 5649 H 545.39 1.04646 -3.59166 0
M  V30 5650 H 546.723 1.39571 -4.71997 0
M  V30 5651 N 548.375 1.56261 0.205012 0
M  V30 5652 C 549.6 1.84491 0.947512 0
M  V30 5653 C 550.025 0.650894 1.76479 0
M  V30 5654 O 549.383 -0.40035 1.76824 0
M  V30 5655 C 549.431 3.10863 1.82747 0
M  V30 5656 O 548.535 2.90719 2.925 0
M  V30 5657 H 547.876 0.607783 0.267386 0
M  V30 5658 H 550.406 2.03485 0.213323 0
M  V30 5659 H 550.416 3.41399 2.23407 0
M  V30 5660 H 549.091 3.97392 1.2269 0
M  V30 5661 H 547.668 2.71457 2.55667 0
M  V30 5662 N 549.853 -0.472356 1.50355 0
M  V30 5663 C 551.13 -1.23356 1.51798 0
M  V30 5664 C 551.51 -2.09469 0.26193 0
M  V30 5665 O 550.858 -2.15677 -0.754691 0
M  V30 5666 C 551.068 -2.06568 2.81302 0
M  V30 5667 C 552.416 -2.648 3.31913 0
M  V30 5668 O 553.44 -2.16812 2.82614 0
M  V30 5669 O 552.299 -3.52231 4.17846 0
M  V30 5670 H 549.393 -0.559707 0.608816 0
M  V30 5671 H 551.939 -0.48428 1.62643 0
M  V30 5672 H 550.711 -1.43103 3.64194 0
M  V30 5673 H 550.334 -2.88633 2.73454 0
M  V30 5674 N 551.331 -1.39911 -0.725443 0
M  V30 5675 C 552.294 -1.39156 -1.82121 0
M  V30 5676 C 553.294 -0.287018 -1.58218 0
M  V30 5677 O 554.484 -0.545421 -1.65441 0
M  V30 5678 C 551.616 -1.1736 -3.20062 0
M  V30 5679 H 552.809 -2.36672 -1.84191 0
M  V30 5680 H 550.362 -1.25615 -0.930079 0
M  V30 5681 H 551.097 -0.205648 -3.23647 0
M  V30 5682 H 550.882 -1.97358 -3.3881 0
M  V30 5683 H 552.372 -1.19596 -4.00108 0
M  V30 5684 N 552.809 0.956637 -1.25245 0
M  V30 5685 C 553.772 2.03457 -1.05537 0
M  V30 5686 C 554.772 1.60798 -0.00886317 0
M  V30 5687 O 555.962 1.72384 -0.250865 0
M  V30 5688 C 553.094 3.35543 -0.601965 0
M  V30 5689 H 554.287 2.22372 -2.01223 0
M  V30 5690 H 551.84 1.13344 -1.07623 0
M  V30 5691 H 552.575 3.22323 0.357584 0
M  V30 5692 H 552.36 3.67854 -1.35743 0
M  V30 5693 H 553.85 4.14769 -0.485454 0
M  V30 5694 N 554.287 1.06798 1.15896 0
M  V30 5695 C 555.515 0.808694 1.90441 0
M  V30 5696 C 555.93 -0.637506 1.77711 0
M  V30 5697 O 555.287 -1.43684 1.12522 0
M  V30 5698 C 555.338 1.20068 3.40978 0
M  V30 5699 O 555.059 2.59013 3.53333 0
M  V30 5700 C 556.56 0.96987 4.3256 0
M  V30 5701 H 553.78 0.292809 0.603742 0
M  V30 5702 H 556.324 1.42296 1.46874 0
M  V30 5703 H 554.479 0.630842 3.82229 0
M  V30 5704 H 554.893 2.7485 4.46719 0
M  V30 5705 H 556.367 1.29371 5.36626 0
M  V30 5706 H 556.844 -0.0941209 4.39099 0
M  V30 5707 H 557.45 1.52433 3.97044 0
M  V30 5708 N 555.766 -1.3263 0.851289 0
M  V30 5709 C 557.015 -1.96633 0.449267 0
M  V30 5710 C 557.328 -1.68131 -0.999562 0
M  V30 5711 O 558.534 -2.25845 -1.50685 0
M  V30 5712 C 556.99 -3.51946 0.752446 0
M  V30 5713 C 556.598 -3.89311 2.21678 0
M  V30 5714 C 558.342 -4.22437 0.417983 0
M  V30 5715 C 556.249 -5.37655 2.46336 0
M  V30 5716 H 555.179 -0.735888 0.164269 0
M  V30 5717 H 557.83 -1.51073 1.0416 0
M  V30 5718 H 556.212 -3.95899 0.0895858 0
M  V30 5719 H 557.386 -3.56378 2.92115 0
M  V30 5720 H 555.701 -3.31836 2.51543 0
M  V30 5721 H 558.298 -5.31549 0.579674 0
M  V30 5722 H 558.641 -4.11349 -0.640115 0
M  V30 5723 H 559.174 -3.84057 1.03659 0
M  V30 5724 H 555.913 -5.5376 3.50757 0
M  V30 5725 H 555.433 -5.72005 1.80473 0
M  V30 5726 H 557.112 -6.04695 2.30115 0
M  V30 5727 N 557.244 -0.608902 -1.45362 0
M  V30 5728 C 558.49 -0.104762 -2.02529 0
M  V30 5729 C 558.823 1.26191 -1.47613 0
M  V30 5730 O 558.098 1.8327 -0.65134 0
M  V30 5731 C 558.381 -0.0672661 -3.60037 0
M  V30 5732 C 558.234 -1.4647 -4.25284 0
M  V30 5733 C 559.553 0.619877 -4.35713 0
M  V30 5734 H 556.672 -0.0395438 -0.735938 0
M  V30 5735 H 559.314 -0.781126 -1.73201 0
M  V30 5736 H 557.464 0.50871 -3.85155 0
M  V30 5737 H 559.136 -2.08785 -4.11347 0
M  V30 5738 H 557.379 -2.02502 -3.83634 0
M  V30 5739 H 558.05 -1.39069 -5.34195 0
M  V30 5740 H 560.526 0.130297 -4.15896 0
M  V30 5741 H 559.402 0.615224 -5.45441 0
M  V30 5742 H 559.663 1.68621 -4.0868 0
M  V30 5743 N 558.722 1.53707 -0.348139 0
M  V30 5744 C 559.654 2.22725 0.540946 0
M  V30 5745 C 560.667 1.2354 1.06027 0
M  V30 5746 O 561.856 1.49867 0.96964 0
M  V30 5747 C 558.956 2.89756 1.75768 0
M  V30 5748 C 558.129 4.15297 1.37285 0
M  V30 5749 C 557.188 4.65697 2.44976 0
M  V30 5750 O 556.214 5.29798 2.08092 0
M  V30 5751 N 557.416 4.42017 3.763 0
M  V30 5752 H 560.181 2.99658 -0.0501592 0
M  V30 5753 H 557.742 1.60979 -0.17248 0
M  V30 5754 H 559.734 3.20388 2.47252 0
M  V30 5755 H 558.304 2.16382 2.25605 0
M  V30 5756 H 557.524 3.9116 0.488584 0
M  V30 5757 H 558.812 4.96948 1.09179 0
M  V30 5758 H 558.21 3.9076 4.09051 0
M  V30 5759 H 556.767 4.77242 4.4394 0
M  V30 5760 N 560.2 0.0768682 1.57412 0
M  V30 5761 C 561.147 -0.888577 2.13009 0
M  V30 5762 C 562.117 -1.29198 1.0439 0
M  V30 5763 O 563.302 -1.37694 1.3208 0
M  V30 5764 C 560.442 -2.14899 2.70023 0
M  V30 5765 C 559.555 -1.79777 3.92816 0
M  V30 5766 C 558.69 -3.00467 4.38056 0
M  V30 5767 C 557.729 -2.61385 5.53484 0
M  V30 5768 N 556.866 -3.74851 5.93659 0
M  V30 5769 H 561.706 -0.407593 2.95199 0
M  V30 5770 H 559.243 -0.189534 1.45874 0
M  V30 5771 H 561.201 -2.88688 3.0119 0
M  V30 5772 H 559.831 -2.60529 1.9059 0
M  V30 5773 H 558.883 -0.960301 3.68079 0
M  V30 5774 H 560.195 -1.47027 4.76639 0
M  V30 5775 H 559.349 -3.82529 4.7091 0
M  V30 5776 H 558.088 -3.36413 3.53097 0
M  V30 5777 H 557.093 -1.77746 5.20275 0
M  V30 5778 H 558.318 -2.26603 6.40178 0
M  V30 5779 H 556.264 -4.1055 5.11649 0
M  V30 5780 H 556.181 -3.45887 6.72234 0
M  V30 5781 H 557.449 -4.57477 6.31138 0
M  V30 5782 N 561.678 -1.56367 -0.196722 0
M  V30 5783 C 562.918 -1.82315 -0.92415 0
M  V30 5784 C 563.282 -0.654117 -1.80514 0
M  V30 5785 O 564.483 -0.79345 -2.56823 0
M  V30 5786 C 562.754 -3.13279 -1.72021 0
M  V30 5787 S 564.313 -3.60627 -2.49988 0
M  V30 5788 H 561.131 -0.639862 -0.309997 0
M  V30 5789 H 563.733 -1.94597 -0.187684 0
M  V30 5790 H 562.437 -3.96379 -1.06358 0
M  V30 5791 H 561.968 -3.03871 -2.49852 0
M  V30 5792 H 563.983 -3.25934 -3.74141 0
M  V30 5793 N 563.156 0.464375 -1.50603 0
M  V30 5794 C 564.086 1.56944 -1.72889 0
M  V30 5795 C 565.067 1.59979 -0.577997 0
M  V30 5796 O 566.252 1.76138 -0.817855 0
M  V30 5797 C 563.382 2.95225 -1.8292 0
M  V30 5798 C 562.336 3.07056 -2.98162 0
M  V30 5799 C 561.662 4.47051 -2.93343 0
M  V30 5800 C 562.962 2.83648 -4.38567 0
M  V30 5801 H 564.656 1.38547 -2.65415 0
M  V30 5802 H 562.202 0.665082 -1.27721 0
M  V30 5803 H 564.155 3.72467 -1.97095 0
M  V30 5804 H 562.879 3.14793 -0.870209 0
M  V30 5805 H 561.538 2.32248 -2.83648 0
M  V30 5806 H 561.186 4.63547 -1.95276 0
M  V30 5807 H 560.886 4.55902 -3.70712 0
M  V30 5808 H 562.41 5.26304 -3.09575 0
M  V30 5809 H 563.824 3.50636 -4.53572 0
M  V30 5810 H 562.221 3.03937 -5.17438 0
M  V30 5811 H 563.291 1.79451 -4.50472 0
M  V30 5812 N 564.634 1.40294 0.718013 0
M  V30 5813 C 565.544 1.42678 1.86226 0
M  V30 5814 C 566.56 0.319655 1.71039 0
M  V30 5815 O 567.736 0.563852 1.93346 0
M  V30 5816 C 564.801 1.2852 3.21999 0
M  V30 5817 C 563.862 2.49354 3.49458 0
M  V30 5818 C 563.095 2.35863 4.78753 0
M  V30 5819 O 563.318 1.37114 5.53675 0
M  V30 5820 O 562.252 3.25189 5.06494 0
M  V30 5821 H 566.078 2.39167 1.87171 0
M  V30 5822 H 563.663 1.2159 0.868112 0
M  V30 5823 H 565.545 1.22824 4.03103 0
M  V30 5824 H 564.22 0.351359 3.21787 0
M  V30 5825 H 563.127 2.60628 2.68373 0
M  V30 5826 H 564.46 3.41491 3.54464 0
M  V30 5827 N 566.112 -0.949982 1.2575 0
M  V30 5828 C 567.361 -1.68956 1.10168 0
M  V30 5829 C 567.674 -1.92327 -0.356309 0
M  V30 5830 O 568.88 -2.64026 -0.632657 0
M  V30 5831 C 567.336 -3.04196 1.92336 0
M  V30 5832 C 566.944 -2.88603 3.42655 0
M  V30 5833 C 568.688 -3.81904 1.85336 0
M  V30 5834 C 566.595 -4.19262 4.17101 0
M  V30 5835 H 565.525 -0.633645 0.408668 0
M  V30 5836 H 568.176 -1.05719 1.49986 0
M  V30 5837 H 566.558 -3.68363 1.45344 0
M  V30 5838 H 567.732 -2.3334 3.97353 0
M  V30 5839 H 566.047 -2.24345 3.50796 0
M  V30 5840 H 568.644 -4.78688 2.38248 0
M  V30 5841 H 568.987 -4.08099 0.822226 0
M  V30 5842 H 569.52 -3.24495 2.30104 0
M  V30 5843 H 566.259 -3.98254 5.20648 0
M  V30 5844 H 565.779 -4.74273 3.67186 0
M  V30 5845 H 567.458 -4.87775 4.25071 0
M  V30 5846 N 567.59 -1.07411 -1.15328 0
M  V30 5847 C 568.82 -0.817595 -1.89734 0
M  V30 5848 C 569.228 0.63297 -1.78298 0
M  V30 5849 O 568.571 1.44594 -1.13306 0
M  V30 5850 C 568.633 -1.14748 -3.40695 0
M  V30 5851 C 568.297 -2.59876 -3.75917 0
M  V30 5852 C 569.294 -3.58122 -3.76888 0
M  V30 5853 C 566.979 -2.95469 -4.06206 0
M  V30 5854 C 568.973 -4.89996 -4.07655 0
M  V30 5855 C 566.66 -4.2754 -4.36638 0
M  V30 5856 C 567.658 -5.24614 -4.37344 0
M  V30 5857 O 567.346 -6.54312 -4.67045 0
M  V30 5858 H 567.078 -0.295175 -0.608151 0
M  V30 5859 H 569.632 -1.43409 -1.47048 0
M  V30 5860 H 567.862 -0.47395 -3.83785 0
M  V30 5861 H 569.551 -0.873397 -3.96392 0
M  V30 5862 H 570.317 -3.31966 -3.53587 0
M  V30 5863 H 566.196 -2.20558 -4.04815 0
M  V30 5864 H 569.74 -5.65759 -4.08121 0
M  V30 5865 H 565.637 -4.53449 -4.59407 0
M  V30 5866 H 566.405 -6.59473 -4.84807 0
M  V30 5867 N 569.068 1.32177 -0.85831 0
M  V30 5868 C 570.345 1.91781 -0.384624 0
M  V30 5869 C 570.725 1.78171 1.13217 0
M  V30 5870 O 570.073 1.18209 1.95548 0
M  V30 5871 C 570.283 3.38414 -0.853047 0
M  V30 5872 C 571.631 4.15542 -0.872359 0
M  V30 5873 O 572.655 3.47148 -0.797926 0
M  V30 5874 O 571.514 5.37678 -0.978009 0
M  V30 5875 H 568.608 0.819259 -0.112886 0
M  V30 5876 H 571.154 1.40923 -0.945453 0
M  V30 5877 H 569.926 3.4228 -1.89632 0
M  V30 5878 H 569.549 3.96683 -0.269874 0
M  V30 5879 N 570.547 0.616602 1.45037 0
M  V30 5880 C 571.48 -0.145984 2.27733 0
M  V30 5881 C 572.458 -0.865108 1.37676 0
M  V30 5882 O 573.642 -0.872152 1.6711 0
M  V30 5883 C 570.769 -1.2122 3.16265 0
M  V30 5884 C 569.815 -0.595218 4.22326 0
M  V30 5885 S 570.648 0.603744 5.32086 0
M  V30 5886 C 571.804 -0.462842 6.24186 0
M  V30 5887 H 572.037 0.555591 2.92062 0
M  V30 5888 H 569.57 0.404364 1.49011 0
M  V30 5889 H 571.528 -1.82247 3.67827 0
M  V30 5890 H 570.189 -1.88589 2.51183 0
M  V30 5891 H 569.382 -1.39775 4.8423 0
M  V30 5892 H 568.984 -0.0598965 3.73952 0
M  V30 5893 H 571.276 -1.33945 6.64127 0
M  V30 5894 H 572.219 0.120259 7.07998 0
M  V30 5895 H 572.627 -0.782219 5.59054 0
M  V30 5896 N 572.025 -1.5352 0.356285 0
M  V30 5897 C 573.274 -2.00298 -0.237373 0
M  V30 5898 C 573.587 -1.24784 -1.50627 0
M  V30 5899 O 574.793 -1.62103 -2.17795 0
M  V30 5900 C 573.249 -3.56771 -0.473545 0
M  V30 5901 C 572.857 -4.41154 0.780183 0
M  V30 5902 C 574.601 -4.1193 -1.02537 0
M  V30 5903 C 572.508 -5.89161 0.514108 0
M  V30 5904 H 571.438 -0.748307 -0.092478 0
M  V30 5905 H 574.089 -1.77283 0.473588 0
M  V30 5906 H 572.471 -3.75902 -1.24553 0
M  V30 5907 H 573.645 -4.33797 1.55425 0
M  V30 5908 H 571.96 -3.97052 1.25455 0
M  V30 5909 H 574.557 -5.20133 -1.2396 0
M  V30 5910 H 574.9 -3.65943 -1.98473 0
M  V30 5911 H 575.433 -3.96561 -0.313775 0
M  V30 5912 H 572.172 -6.39408 1.44355 0
M  V30 5913 H 571.692 -5.9939 -0.221632 0
M  V30 5914 H 573.371 -6.46857 0.136122 0
M  V30 5915 N 573.503 -0.0852151 -1.57369 0
M  V30 5916 C 574.751 0.579658 -1.93609 0
M  V30 5917 C 575.072 1.69332 -0.967043 0
M  V30 5918 O 574.342 1.95892 -0.0174215 0
M  V30 5919 H 572.922 0.217113 -0.714752 0
M  V30 5920 H 575.584 -0.146226 -1.94351 0
M  V30 5921 H 574.68 0.996276 -2.95771 0
M  V30 5922 N 574.981 1.5647 0.188427 0
M  V30 5923 C 575.913 1.91611 1.25769 0
M  V30 5924 C 576.926 0.807436 1.41366 0
M  V30 5925 O 578.115 1.08586 1.41673 0
M  V30 5926 C 575.215 2.13874 2.6289 0
M  V30 5927 C 574.388 3.45047 2.68815 0
M  V30 5928 C 573.447 3.56342 3.87178 0
M  V30 5929 O 572.473 4.29109 3.73971 0
M  V30 5930 N 573.675 2.89924 5.02916 0
M  V30 5931 H 576.44 2.8393 0.959373 0
M  V30 5932 H 574.001 1.57418 0.378306 0
M  V30 5933 H 575.993 2.18713 3.4051 0
M  V30 5934 H 574.563 1.28022 2.85183 0
M  V30 5935 H 573.783 3.52017 1.77419 0
M  V30 5936 H 575.071 4.31395 2.6977 0
M  V30 5937 H 574.469 2.30644 5.16546 0
M  V30 5938 H 573.026 3.0038 5.78459 0
M  V30 5939 N 576.459 -0.456382 1.50847 0
M  V30 5940 C 577.422 -1.53493 1.70213 0
M  V30 5941 C 578.422 -1.50264 0.572481 0
M  V30 5942 O 579.612 -1.52623 0.839751 0
M  V30 5943 C 576.744 -2.93091 1.741 0
M  V30 5944 H 577.937 -1.37633 2.66453 0
M  V30 5945 H 575.49 -0.683776 1.4055 0
M  V30 5946 H 576.225 -3.14378 0.796063 0
M  V30 5947 H 576.01 -2.9684 2.5618 0
M  V30 5948 H 577.5 -3.71368 1.90987 0
M  V30 5949 N 577.937 -1.40673 -0.710563 0
M  V30 5950 C 579.186 -1.38525 -1.46607 0
M  V30 5951 C 579.499 0.0077024 -1.95598 0
M  V30 5952 O 580.705 0.151792 -2.71075 0
M  V30 5953 C 579.161 -2.43489 -2.6503 0
M  V30 5954 C 578.769 -3.88619 -2.22888 0
M  V30 5955 C 580.513 -2.50456 -3.42742 0
M  V30 5956 C 578.42 -4.85168 -3.3818 0
M  V30 5957 H 577.35 -0.515092 -0.550632 0
M  V30 5958 H 580.001 -1.66431 -0.772846 0
M  V30 5959 H 578.383 -2.0869 -3.36548 0
M  V30 5960 H 579.557 -4.32588 -1.58758 0
M  V30 5961 H 577.872 -3.85174 -1.58208 0
M  V30 5962 H 580.469 -3.19776 -4.28541 0
M  V30 5963 H 580.812 -1.53665 -3.86902 0
M  V30 5964 H 581.345 -2.84271 -2.78271 0
M  V30 5965 H 578.084 -5.8331 -2.99047 0
M  V30 5966 H 577.604 -4.4586 -4.01209 0
M  V30 5967 H 579.283 -5.05225 -4.04174 0
M  V30 5968 N 579.415 0.9433 -1.26252 0
M  V30 5969 C 580.64 1.72898 -1.14547 0
M  V30 5970 C 581.065 1.85761 0.295743 0
M  V30 5971 O 580.423 1.3463 1.21427 0
M  V30 5972 C 580.471 3.11471 -1.8171 0
M  V30 5973 O 579.575 3.97336 -1.10445 0
M  V30 5974 H 578.916 0.530555 -0.399259 0
M  V30 5975 H 581.446 1.18159 -1.67032 0
M  V30 5976 H 581.456 3.61872 -1.88449 0
M  V30 5977 H 580.131 3.01425 -2.86558 0
M  V30 5978 H 578.708 3.55788 -1.11666 0
M  V30 5979 N 580.893 1.08022 1.14757 0
M  V30 5980 C 582.118 0.82895 1.90114 0
M  V30 5981 C 582.543 -0.612772 1.77839 0
M  V30 5982 O 581.901 -1.42895 1.11583 0
M  V30 5983 C 581.949 1.25062 3.38219 0
M  V30 5984 O 581.053 0.400119 4.10454 0
M  V30 5985 H 580.394 0.301412 0.591648 0
M  V30 5986 H 582.924 1.44062 1.45284 0
M  V30 5987 H 582.934 1.22977 3.89025 0
M  V30 5988 H 581.609 2.30067 3.46471 0
M  V30 5989 H 580.186 0.484052 3.69745 0
M  V30 5990 N 582.371 -1.3172 0.865308 0
M  V30 5991 C 583.596 -2.01591 0.487415 0
M  V30 5992 C 584.021 -1.6455 -0.911307 0
M  V30 5993 O 583.379 -0.851689 -1.6005 0
M  V30 5994 C 583.427 -3.54759 0.646401 0
M  V30 5995 O 582.531 -4.11185 -0.316284 0
M  V30 5996 H 581.872 -0.634884 0.194468 0
M  V30 5997 H 584.402 -1.68024 1.16744 0
M  V30 5998 H 584.412 -4.04438 0.537932 0
M  V30 5999 H 583.087 -3.8106 1.66632 0
M  V30 6000 H 581.664 -3.72543 -0.163162 0
M  V30 6001 N 583.85 -0.624285 -1.44708 0
M  V30 6002 C 585.266 -0.289322 -1.56956 0
M  V30 6003 C 585.466 1.20773 -1.61295 0
M  V30 6004 O 584.522 1.9915 -1.55227 0
M  V30 6005 C 585.835 -0.975215 -2.84447 0
M  V30 6006 C 587.383 -0.952709 -2.98148 0
M  V30 6007 C 587.858 -1.61893 -4.28433 0
M  V30 6008 N 589.349 -1.5852 -4.35231 0
M  V30 6009 C 590.084 -2.06969 -5.34744 0
M  V30 6010 N 589.58 -2.63579 -6.40701 0
M  V30 6011 N 591.373 -1.97638 -5.26209 0
M  V30 6012 H 583.524 -1.59612 -1.40135 0
M  V30 6013 H 585.787 -0.669592 -0.671081 0
M  V30 6014 H 585.493 -2.02999 -2.87201 0
M  V30 6015 H 585.367 -0.508749 -3.73753 0
M  V30 6016 H 587.754 0.093568 -2.94952 0
M  V30 6017 H 587.835 -1.4576 -2.10209 0
M  V30 6018 H 587.479 -2.66463 -4.32389 0
M  V30 6019 H 587.409 -1.08893 -5.15218 0
M  V30 6020 H 589.899 -1.17183 -3.59272 0
M  V30 6021 H 590.213 -2.98298 -7.12908 0
M  V30 6022 H 588.558 -2.67626 -6.41406 0
M  V30 6023 H 591.749 -1.5314 -4.42341 0
M  V30 6024 H 591.922 -2.35708 -6.03611 0
M  V30 6025 N 585.328 1.53329 -0.364422 0
M  V30 6026 C 586.744 1.59594 -0.0133165 0
M  V30 6027 C 586.944 1.37959 1.46865 0
M  V30 6028 O 586 1.18418 2.2301 0
M  V30 6029 C 587.313 2.97032 -0.468213 0
M  V30 6030 C 588.861 3.10138 -0.422334 0
M  V30 6031 C 589.336 4.49986 -0.853024 0
M  V30 6032 N 590.827 4.56098 -0.808037 0
M  V30 6033 C 591.562 5.62495 -1.11299 0
M  V30 6034 N 591.058 6.7665 -1.48717 0
M  V30 6035 N 592.851 5.52473 -1.03586 0
M  V30 6036 H 585.002 1.65644 -1.32951 0
M  V30 6037 H 587.265 0.77684 -0.543345 0
M  V30 6038 H 586.971 3.18 -1.5023 0
M  V30 6039 H 586.845 3.76918 0.145775 0
M  V30 6040 H 589.232 2.88881 0.602622 0
M  V30 6041 H 589.313 2.32263 -1.0718 0
M  V30 6042 H 588.957 4.7198 -1.87609 0
M  V30 6043 H 588.887 5.26289 -0.180819 0
M  V30 6044 H 591.378 3.74131 -0.532361 0
M  V30 6045 H 591.691 7.53776 -1.70415 0
M  V30 6046 H 590.036 6.78044 -1.52581 0
M  V30 6047 H 593.227 4.6217 -0.742736 0
M  V30 6048 H 593.4 6.35295 -1.27686 0
M  V30 6049 N 586.806 0.0935595 1.57322 0
M  V30 6050 C 587.769 -0.851426 2.12799 0
M  V30 6051 C 588.769 -1.21187 1.0569 0
M  V30 6052 O 589.959 -1.14156 1.31583 0
M  V30 6053 C 587.091 -2.14779 2.64731 0
M  V30 6054 H 588.284 -0.369733 2.97612 0
M  V30 6055 H 585.837 -0.155417 1.55525 0
M  V30 6056 H 586.572 -2.67437 1.83434 0
M  V30 6057 H 586.357 -1.89907 3.43042 0
M  V30 6058 H 587.847 -2.82383 3.07651 0
M  V30 6059 N 588.284 -1.56567 -0.180126 0
M  V30 6060 C 589.532 -1.81133 -0.896392 0
M  V30 6061 C 589.853 -0.669114 -1.83161 0
M  V30 6062 O 589.123 0.311616 -1.93406 0
M  V30 6063 H 587.703 -0.668172 -0.333999 0
M  V30 6064 H 590.365 -1.94048 -0.182051 0
M  V30 6065 H 589.461 -2.74854 -1.47857 0
M  V30 6066 N 589.762 0.448376 -1.51087 0
M  V30 6067 C 591.01 1.19635 -1.62886 0
M  V30 6068 C 591.331 1.91977 -0.342024 0
M  V30 6069 O 590.601 1.85094 0.641636 0
M  V30 6070 H 589.181 0.444598 -0.600285 0
M  V30 6071 H 591.843 0.515138 -1.87969 0
M  V30 6072 H 590.939 1.93194 -2.45117 0
M  V30 6073 N 591.24 1.41047 0.703093 0
M  V30 6074 C 592.15 1.44645 1.84703 0
M  V30 6075 C 593.166 0.337778 1.7069 0
M  V30 6076 O 594.342 0.584327 1.92737 0
M  V30 6077 C 591.407 1.31928 3.20618 0
M  V30 6078 C 590.468 2.53047 3.46794 0
M  V30 6079 C 589.701 2.40927 4.76224 0
M  V30 6080 O 589.924 1.42978 5.5219 0
M  V30 6081 O 588.858 3.30543 5.03016 0
M  V30 6082 H 592.684 2.41139 1.84624 0
M  V30 6083 H 590.269 1.22504 0.855167 0
M  V30 6084 H 592.151 1.27092 4.01778 0
M  V30 6085 H 590.826 0.385469 3.21397 0
M  V30 6086 H 589.733 2.6346 2.65593 0
M  V30 6087 H 591.066 3.45231 3.50822 0
M  V30 6088 N 592.718 -0.936591 1.26751 0
M  V30 6089 C 593.668 -2.0219 1.05371 0
M  V30 6090 C 594.652 -1.60893 -0.0154112 0
M  V30 6091 O 595.844 -1.75843 0.202085 0
M  V30 6092 C 592.973 -3.36222 0.693541 0
M  V30 6093 C 592.059 -3.8399 1.80035 0
M  V30 6094 N 592.45 -4.0436 3.03852 0
M  V30 6095 C 590.748 -4.12945 1.685 0
M  V30 6096 C 591.449 -4.44 3.75818 0
M  V30 6097 N 590.425 -4.50966 3.03531 0
M  V30 6098 H 594.227 -2.15958 1.99347 0
M  V30 6099 H 591.741 -1.12277 1.17335 0
M  V30 6100 H 593.738 -4.13625 0.521513 0
M  V30 6101 H 592.398 -3.23821 -0.238693 0
M  V30 6102 H 593.409 -3.9092 3.39709 0
M  V30 6103 H 590.086 -4.09308 0.822986 0
M  V30 6104 H 591.476 -4.67914 4.82189 0
M  V30 6105 N 594.196 -1.08629 -1.14182 0
M  V30 6106 C 595.426 -0.837673 -1.88856 0
M  V30 6107 C 595.834 0.614024 -1.78959 0
M  V30 6108 O 595.177 1.43384 -1.14833 0
M  V30 6109 C 595.239 -1.18355 -3.39459 0
M  V30 6110 C 594.903 -2.63848 -3.73139 0
M  V30 6111 C 595.9 -3.62099 -3.73069 0
M  V30 6112 C 593.585 -2.99761 -4.03049 0
M  V30 6113 C 595.579 -4.94292 -4.02435 0
M  V30 6114 C 593.266 -4.32147 -4.32078 0
M  V30 6115 C 594.264 -5.29223 -4.31755 0
M  V30 6116 O 593.952 -6.59229 -4.60079 0
M  V30 6117 H 593.684 -0.301609 -0.604986 0
M  V30 6118 H 596.238 -1.44961 -1.45518 0
M  V30 6119 H 594.468 -0.514628 -3.8326 0
M  V30 6120 H 596.157 -0.915391 -3.95443 0
M  V30 6121 H 596.923 -3.35698 -3.50046 0
M  V30 6122 H 592.802 -2.2484 -4.02453 0
M  V30 6123 H 596.346 -5.70055 -4.02098 0
M  V30 6124 H 592.243 -4.58296 -4.54571 0
M  V30 6125 H 593.011 -6.64578 -4.77785 0
M  V30 6126 N 595.674 1.31259 -0.872281 0
M  V30 6127 C 596.606 2.27396 -0.28697 0
M  V30 6128 C 597.619 1.53181 0.551297 0
M  V30 6129 O 598.808 1.74561 0.372914 0
M  V30 6130 C 595.908 3.33335 0.611617 0
M  V30 6131 C 595.081 4.36966 -0.194729 0
M  V30 6132 C 594.14 5.22387 0.632358 0
M  V30 6133 O 593.166 5.69169 0.0595691 0
M  V30 6134 N 594.368 5.46985 1.94391 0
M  V30 6135 H 597.133 2.78261 -1.11314 0
M  V30 6136 H 594.694 1.44306 -0.733994 0
M  V30 6137 H 596.686 3.87398 1.17068 0
M  V30 6138 H 595.256 2.82496 1.33846 0
M  V30 6139 H 594.476 3.82945 -0.935241 0
M  V30 6140 H 595.764 5.03273 -0.747935 0
M  V30 6141 H 595.162 5.10737 2.43237 0
M  V30 6142 H 593.719 6.03973 2.45071 0
M  V30 6143 N 597.152 0.631951 1.44375 0
M  V30 6144 C 598.1 -0.0846693 2.32446 0
M  V30 6145 C 599.094 -0.834957 1.47393 0
M  V30 6146 O 600.3 -0.747764 1.63733 0
M  V30 6147 H 596.675 -0.0461508 0.750583 0
M  V30 6148 H 598.646 0.67619 2.90638 0
M  V30 6149 C 597.395 -1.05211 3.314 0
M  V30 6150 H 596.718 -0.484203 3.96857 0
M  V30 6151 H 598.158 -1.523 3.95703 0
M  V30 6152 C 596.617 -2.13776 2.60387 0
M  V30 6153 O 597.147 -3.21869 2.4034 0
M  V30 6154 N 595.353 -1.89733 2.20113 0
M  V30 6155 H 594.9 -1.01833 2.36618 0
M  V30 6156 H 594.858 -2.62572 1.72926 0
M  V30 6157 N 598.631 -1.53133 0.372548 0
M  V30 6158 C 599.878 -2.01356 -0.214959 0
M  V30 6159 C 600.206 -1.2596 -1.48204 0
M  V30 6160 O 599.461 -0.343511 -1.92662 0
M  V30 6161 C 599.76 -3.53206 -0.545938 0
M  V30 6162 C 599.426 -4.46511 0.627624 0
M  V30 6163 C 598.088 -4.71737 0.949615 0
M  V30 6164 C 600.44 -5.01666 1.41353 0
M  V30 6165 C 597.768 -5.4937 2.05936 0
M  V30 6166 C 600.12 -5.80511 2.51375 0
M  V30 6167 C 598.784 -6.04022 2.84101 0
M  V30 6168 H 598.054 -0.736813 -0.078659 0
M  V30 6169 H 600.701 -1.84682 0.506447 0
M  V30 6170 H 599.006 -3.67864 -1.34845 0
M  V30 6171 H 600.703 -3.87997 -1.01287 0
M  V30 6172 H 597.293 -4.27029 0.366635 0
M  V30 6173 H 601.477 -4.82117 1.17802 0
M  V30 6174 H 596.733 -5.65803 2.31682 0
M  V30 6175 H 600.907 -6.22255 3.12684 0
M  V30 6176 H 598.534 -6.63962 3.70214 0
M  V30 6177 N 600.109 -0.101901 -1.5727 0
M  V30 6178 C 601.041 0.884723 -2.11436 0
M  V30 6179 C 602.054 1.24149 -1.05314 0
M  V30 6180 O 603.243 1.19341 -1.3274 0
M  V30 6181 C 600.343 2.19179 -2.58484 0
M  V30 6182 C 599.516 2.00933 -3.88516 0
M  V30 6183 C 598.575 3.15213 -4.2134 0
M  V30 6184 O 597.601 2.88877 -4.90448 0
M  V30 6185 N 598.803 4.41174 -3.77288 0
M  V30 6186 H 601.568 0.422058 -2.96713 0
M  V30 6187 H 599.129 0.0830128 -1.61687 0
M  V30 6188 H 601.121 2.94593 -2.77484 0
M  V30 6189 H 599.691 2.56847 -1.7818 0
M  V30 6190 H 598.911 1.09809 -3.78597 0
M  V30 6191 H 600.199 1.86026 -4.73573 0
M  V30 6192 H 599.597 4.6545 -3.21516 0
M  V30 6193 H 598.154 5.13515 -4.01429 0
M  V30 6194 N 601.587 1.56661 0.17182 0
M  V30 6195 C 602.517 1.99401 1.21498 0
M  V30 6196 C 603.498 0.869516 1.46197 0
M  V30 6197 O 604.683 1.13556 1.57539 0
M  V30 6198 C 601.813 2.35346 2.55401 0
M  V30 6199 C 600.767 3.5075 2.45272 0
M  V30 6200 C 600.093 3.72437 3.8366 0
M  V30 6201 C 601.393 4.84216 1.95787 0
M  V30 6202 H 603.087 2.86792 0.859699 0
M  V30 6203 H 600.633 1.37977 0.412103 0
M  V30 6204 H 602.586 2.63843 3.2858 0
M  V30 6205 H 601.31 1.44864 2.92715 0
M  V30 6206 H 599.969 3.2238 1.74547 0
M  V30 6207 H 599.617 2.79246 4.18367 0
M  V30 6208 H 599.317 4.50087 3.77751 0
M  V30 6209 H 600.841 4.03334 4.58426 0
M  V30 6210 H 602.255 5.11592 2.5874 0
M  V30 6211 H 600.652 5.65498 2.00827 0
M  V30 6212 H 601.722 4.76243 0.912159 0
M  V30 6213 N 603.065 -0.440357 1.51323 0
M  V30 6214 C 603.995 -1.54174 1.75364 0
M  V30 6215 C 604.976 -1.59039 0.603375 0
M  V30 6216 O 606.161 -1.74815 0.845774 0
M  V30 6217 C 603.291 -2.92277 1.87593 0
M  V30 6218 C 602.245 -3.02274 3.03009 0
M  V30 6219 C 601.571 -4.42327 3.00418 0
M  V30 6220 C 602.871 -2.76634 4.43024 0
M  V30 6221 H 604.565 -1.34307 2.67585 0
M  V30 6222 H 602.111 -0.644678 1.28763 0
M  V30 6223 H 604.064 -3.69284 2.02995 0
M  V30 6224 H 602.788 -3.13369 0.920179 0
M  V30 6225 H 601.447 -2.27706 2.87307 0
M  V30 6226 H 601.095 -4.60382 2.02626 0
M  V30 6227 H 600.795 -4.49946 3.77918 0
M  V30 6228 H 602.319 -5.21312 3.17909 0
M  V30 6229 H 603.733 -3.43376 4.59093 0
M  V30 6230 H 602.13 -2.95666 5.22208 0
M  V30 6231 H 603.2 -1.72262 4.5327 0
M  V30 6232 N 604.543 -1.41418 -0.695603 0
M  V30 6233 C 605.791 -1.40496 -1.45277 0
M  V30 6234 C 606.112 -0.0149538 -1.94994 0
M  V30 6235 O 605.382 0.9432 -1.71699 0
M  V30 6236 H 603.962 -0.517147 -0.539044 0
M  V30 6237 H 606.624 -1.76656 -0.823321 0
M  V30 6238 H 605.72 -2.09214 -2.31595 0
M  V30 6239 N 606.021 0.929856 -1.27246 0
M  V30 6240 C 606.984 2.01172 -1.09829 0
M  V30 6241 C 607.984 1.60743 -0.0429687 0
M  V30 6242 O 609.174 1.71813 -0.287373 0
M  V30 6243 C 606.306 3.34191 -0.673003 0
M  V30 6244 H 607.499 2.18054 -2.05895 0
M  V30 6245 H 605.052 1.11036 -1.10003 0
M  V30 6246 H 605.787 3.23009 0.289134 0
M  V30 6247 H 605.572 3.64892 -1.43515 0
M  V30 6248 H 607.062 4.13646 -0.573323 0
M  V30 6249 N 607.499 1.09233 1.13605 0
M  V30 6250 C 608.745 0.838255 1.85324 0
M  V30 6251 C 609.1 -0.629314 1.81817 0
M  V30 6252 O 608.393 -1.45729 1.24393 0
M  V30 6253 C 608.587 1.305 3.32723 0
M  V30 6254 C 608.416 2.81641 3.50583 0
M  V30 6255 C 607.186 3.49494 3.64941 0
M  V30 6256 C 609.384 3.79789 3.46792 0
M  V30 6257 N 607.366 4.89082 3.71042 0
M  V30 6258 C 608.737 5.05319 3.59239 0
M  V30 6259 C 610.792 3.72673 3.30181 0
M  V30 6260 C 609.495 6.24574 3.56791 0
M  V30 6261 C 611.521 4.91413 3.29039 0
M  V30 6262 C 610.883 6.15785 3.42035 0
M  V30 6263 H 606.982 0.359572 0.69443 0
M  V30 6264 H 609.566 1.39232 1.36098 0
M  V30 6265 H 607.737 0.778411 3.8052 0
M  V30 6266 H 609.469 0.996465 3.92241 0
M  V30 6267 H 606.224 2.9992 3.66531 0
M  V30 6268 H 606.648 5.61787 3.77789 0
M  V30 6269 H 611.29 2.77444 3.19037 0
M  V30 6270 H 609.008 7.20105 3.66708 0
M  V30 6271 H 612.594 4.87604 3.17386 0
M  V30 6272 H 611.474 7.06126 3.41111 0
M  V30 6273 N 608.977 -1.30795 0.87923 0
M  V30 6274 C 610.217 -1.98155 0.50141 0
M  V30 6275 C 610.581 -1.67925 -0.930863 0
M  V30 6276 O 611.782 -2.28572 -1.41451 0
M  V30 6277 C 610.053 -3.49184 0.761937 0
M  V30 6278 S 611.612 -4.36107 0.485361 0
M  V30 6279 H 608.43 -0.686025 0.186792 0
M  V30 6280 H 611.032 -1.59018 1.13726 0
M  V30 6281 H 609.736 -3.68676 1.80295 0
M  V30 6282 H 609.267 -3.93236 0.113432 0
M  V30 6283 H 611.282 -4.9154 -0.678467 0
M  V30 6284 N 610.455 -0.639598 -1.44038 0
M  V30 6285 C 611.385 0.0469443 -2.33453 0
M  V30 6286 C 612.366 0.82609 -1.48694 0
M  V30 6287 O 613.551 0.790285 -1.77393 0
M  V30 6288 C 610.681 1.02338 -3.3188 0
M  V30 6289 C 609.635 0.355284 -4.26523 0
M  V30 6290 C 608.961 1.44221 -5.14883 0
M  V30 6291 C 610.261 -0.743798 -5.16977 0
M  V30 6292 H 611.955 -0.699735 -2.91108 0
M  V30 6293 H 609.501 -0.337946 -1.39978 0
M  V30 6294 H 611.454 1.51247 -3.93322 0
M  V30 6295 H 610.178 1.80105 -2.72451 0
M  V30 6296 H 608.837 -0.113239 -3.66425 0
M  V30 6297 H 608.485 2.21097 -4.51802 0
M  V30 6298 H 608.185 1.00052 -5.79019 0
M  V30 6299 H 609.709 1.93295 -5.79197 0
M  V30 6300 H 611.123 -0.337444 -5.72306 0
M  V30 6301 H 609.52 -1.10914 -5.89761 0
M  V30 6302 H 610.59 -1.60745 -4.57481 0
M  V30 6303 N 611.933 1.52934 -0.380664 0
M  V30 6304 C 612.863 2.29118 0.450268 0
M  V30 6305 C 613.844 1.32153 1.07096 0
M  V30 6306 O 615.029 1.61038 1.08537 0
M  V30 6307 C 612.159 3.09161 1.58231 0
M  V30 6308 C 611.113 4.13938 1.0881 0
M  V30 6309 C 610.439 4.82153 2.31155 0
M  V30 6310 C 611.739 5.22048 0.162146 0
M  V30 6311 H 613.433 2.98826 -0.185361 0
M  V30 6312 H 610.979 1.43715 -0.0905886 0
M  V30 6313 H 612.932 3.61211 2.17036 0
M  V30 6314 H 611.656 2.3717 2.2454 0
M  V30 6315 H 610.315 3.62855 0.522633 0
M  V30 6316 H 609.963 4.06719 2.95953 0
M  V30 6317 H 609.663 5.52966 1.98752 0
M  V30 6318 H 611.187 5.37004 2.90618 0
M  V30 6319 H 612.601 5.6951 0.658126 0
M  V30 6320 H 610.998 6.00057 -0.0717122 0
M  V30 6321 H 612.068 4.78398 -0.791438 0
M  V30 6322 N 613.412 0.11024 1.57214 0
M  V30 6323 C 614.36 -0.860586 2.16094 0
M  V30 6324 C 615.354 -1.28156 1.1078 0
M  V30 6325 O 616.56 -1.25433 1.29099 0
M  V30 6326 H 612.935 -0.295606 0.691463 0
M  V30 6327 H 614.906 -0.33942 2.96463 0
M  V30 6328 C 613.655 -2.10421 2.768 0
M  V30 6329 H 612.978 -1.7892 3.5753 0
M  V30 6330 H 614.418 -2.76375 3.21547 0
M  V30 6331 C 612.877 -2.88823 1.73444 0
M  V30 6332 O 613.407 -3.839 1.18251 0
M  V30 6333 N 611.613 -2.52649 1.43586 0
M  V30 6334 H 611.16 -1.754 1.8866 0
M  V30 6335 H 611.118 -3.05403 0.746735 0
M  V30 6336 N 614.89 -1.56749 -0.16351 0
M  V30 6337 C 616.115 -1.86938 -0.898264 0
M  V30 6338 C 616.54 -0.697456 -1.74692 0
M  V30 6339 O 615.898 0.353327 -1.77824 0
M  V30 6340 C 615.946 -3.15599 -1.74441 0
M  V30 6341 O 615.05 -2.98371 -2.8469 0
M  V30 6342 H 614.391 -0.614659 -0.251178 0
M  V30 6343 H 616.921 -2.03979 -0.159298 0
M  V30 6344 H 616.931 -3.47202 -2.14277 0
M  V30 6345 H 615.606 -4.00505 -1.1211 0
M  V30 6346 H 614.183 -2.7814 -2.4838 0
M  V30 6347 N 616.368 0.432326 -1.51554 0
M  V30 6348 C 617.298 1.53242 -1.76179 0
M  V30 6349 C 618.279 1.58717 -0.611801 0
M  V30 6350 O 619.464 1.74364 -0.855033 0
M  V30 6351 C 616.594 2.91278 -1.89141 0
M  V30 6352 C 615.548 3.00663 -3.04608 0
M  V30 6353 C 614.874 4.40728 -3.02759 0
M  V30 6354 C 616.174 2.74281 -4.44485 0
M  V30 6355 H 617.868 1.32886 -2.68294 0
M  V30 6356 H 615.414 0.637841 -1.29103 0
M  V30 6357 H 617.367 3.68203 -2.04951 0
M  V30 6358 H 616.091 3.12877 -0.936785 0
M  V30 6359 H 614.75 2.26179 -2.88511 0
M  V30 6360 H 614.398 4.59301 -2.05065 0
M  V30 6361 H 614.098 4.47936 -3.80299 0
M  V30 6362 H 615.622 5.19619 -3.20669 0
M  V30 6363 H 617.036 3.40936 -4.60907 0
M  V30 6364 H 615.433 2.92893 -5.23769 0
M  V30 6365 H 616.503 1.69856 -4.54177 0
M  V30 6366 N 617.846 1.41785 0.688094 0
M  V30 6367 C 619.093 1.41544 1.44816 0
M  V30 6368 C 619.421 0.0271746 1.94481 0
M  V30 6369 O 618.676 -0.962235 1.7041 0
M  V30 6370 C 618.975 2.37532 2.67046 0
M  V30 6371 C 618.641 3.84209 2.35996 0
M  V30 6372 C 617.303 4.24165 2.27239 0
M  V30 6373 C 619.655 4.76785 2.10536 0
M  V30 6374 C 616.983 5.54695 1.91128 0
M  V30 6375 C 619.335 6.07644 1.75931 0
M  V30 6376 C 617.999 6.46613 1.65675 0
M  V30 6377 H 617.269 0.517945 0.529919 0
M  V30 6378 H 619.916 1.74635 0.785797 0
M  V30 6379 H 618.221 1.9772 3.38251 0
M  V30 6380 H 619.918 2.34615 3.25203 0
M  V30 6381 H 616.508 3.52567 2.4371 0
M  V30 6382 H 620.692 4.46714 2.16242 0
M  V30 6383 H 615.948 5.83762 1.81746 0
M  V30 6384 H 620.122 6.78874 1.55252 0
M  V30 6385 H 617.749 7.47668 1.37463 0
M  V30 6386 N 619.324 -0.923095 1.27737 0
M  V30 6387 C 620.254 -2.04124 1.13383 0
M  V30 6388 C 621.235 -1.70066 0.0340658 0
M  V30 6389 O 622.42 -1.93068 0.209383 0
M  V30 6390 C 619.55 -3.3831 0.785097 0
M  V30 6391 C 618.504 -3.86496 1.8386 0
M  V30 6392 C 617.83 -5.1754 1.34373 0
M  V30 6393 C 619.13 -4.09381 3.24353 0
M  V30 6394 H 620.824 -2.1639 2.06919 0
M  V30 6395 H 618.37 -1.03976 0.996243 0
M  V30 6396 H 620.323 -4.16016 0.671485 0
M  V30 6397 H 619.047 -3.2607 -0.185969 0
M  V30 6398 H 617.706 -3.10987 1.9412 0
M  V30 6399 H 617.354 -5.01696 0.361989 0
M  V30 6400 H 617.054 -5.50751 2.04811 0
M  V30 6401 H 618.578 -5.97811 1.24315 0
M  V30 6402 H 619.992 -4.77641 3.17067 0
M  V30 6403 H 618.389 -4.53906 3.92542 0
M  V30 6404 H 619.459 -3.14515 3.69064 0
M  V30 6405 N 620.802 -1.09834 -1.13024 0
M  V30 6406 C 622.051 -0.831806 -1.83749 0
M  V30 6407 C 622.364 0.644763 -1.84668 0
M  V30 6408 O 623.57 1.02697 -2.51327 0
M  V30 6409 C 622.026 -1.43817 -3.29916 0
M  V30 6410 C 621.634 -2.94759 -3.37374 0
M  V30 6411 C 623.378 -1.25077 -4.05655 0
M  V30 6412 C 621.285 -3.48461 -4.77838 0
M  V30 6413 H 620.215 -0.30751 -0.688443 0
M  V30 6414 H 622.866 -1.32156 -1.27307 0
M  V30 6415 H 621.248 -0.876106 -3.86187 0
M  V30 6416 H 622.422 -3.57228 -2.91076 0
M  V30 6417 H 620.737 -3.12581 -2.75103 0
M  V30 6418 H 623.334 -1.62649 -5.09362 0
M  V30 6419 H 623.677 -0.191782 -4.15858 0
M  V30 6420 H 624.21 -1.78057 -3.55725 0
M  V30 6421 H 620.949 -4.53998 -4.72828 0
M  V30 6422 H 620.469 -2.90757 -5.24615 0
M  V30 6423 H 622.148 -3.45914 -5.46766 0
M  V30 6424 N 622.28 1.30327 -0.886154 0
M  V30 6425 C 623.21 2.30549 -0.370028 0
M  V30 6426 C 624.191 1.61039 0.547751 0
M  V30 6427 O 625.376 1.8864 0.461353 0
M  V30 6428 C 622.506 3.44808 0.415275 0
M  V30 6429 C 621.46 4.26024 -0.41085 0
M  V30 6430 C 620.786 5.32347 0.501128 0
M  V30 6431 C 622.086 4.95433 -1.65359 0
M  V30 6432 H 623.78 2.73969 -1.20754 0
M  V30 6433 H 621.326 1.3171 -0.582097 0
M  V30 6434 H 623.279 4.13986 0.78699 0
M  V30 6435 H 622.003 3.00197 1.28644 0
M  V30 6436 H 620.662 3.58535 -0.764719 0
M  V30 6437 H 620.31 4.83982 1.37004 0
M  V30 6438 H 620.01 5.87581 -0.0478356 0
M  V30 6439 H 621.534 6.0438 0.869333 0
M  V30 6440 H 622.948 5.5712 -1.35239 0
M  V30 6441 H 621.345 5.60537 -2.14284 0
M  V30 6442 H 622.415 4.21493 -2.39733 0
M  V30 6443 N 623.758 0.647228 1.43697 0
M  V30 6444 C 624.706 -0.0600105 2.32523 0
M  V30 6445 C 625.7 -0.819277 1.48271 0
M  V30 6446 O 626.906 -0.730356 1.64517 0
M  V30 6447 H 623.281 -0.0381872 0.75103 0
M  V30 6448 H 625.252 0.706978 2.89904 0
M  V30 6449 C 624.001 -1.0169 3.32497 0
M  V30 6450 H 623.324 -0.442083 3.97348 0
M  V30 6451 H 624.764 -1.48095 3.97296 0
M  V30 6452 C 623.223 -2.11002 2.6264 0
M  V30 6453 O 623.753 -3.19302 2.4374 0
M  V30 6454 N 621.959 -1.87388 2.22113 0
M  V30 6455 H 621.506 -0.993174 2.37684 0
M  V30 6456 H 621.464 -2.60723 1.75701 0
M  V30 6457 N 625.236 -1.5273 0.388769 0
M  V30 6458 C 626.166 -2.29353 -0.438111 0
M  V30 6459 C 627.147 -1.32719 -1.06394 0
M  V30 6460 O 628.332 -1.61612 -1.07681 0
M  V30 6461 C 625.462 -3.09995 -1.56589 0
M  V30 6462 C 624.416 -4.14509 -1.06613 0
M  V30 6463 C 623.742 -4.83372 -2.28594 0
M  V30 6464 C 625.042 -5.22127 -0.134459 0
M  V30 6465 H 626.736 -2.98723 0.201206 0
M  V30 6466 H 624.282 -1.43665 0.0982089 0
M  V30 6467 H 626.235 -3.62357 -2.15118 0
M  V30 6468 H 624.959 -2.38357 -2.23279 0
M  V30 6469 H 623.618 -3.63128 -0.503383 0
M  V30 6470 H 623.266 -4.08283 -2.93792 0
M  V30 6471 H 622.966 -5.54012 -1.95817 0
M  V30 6472 H 624.49 -5.38538 -2.87766 0
M  V30 6473 H 625.904 -5.69851 -0.627914 0
M  V30 6474 H 624.301 -6.00011 0.103534 0
M  V30 6475 H 625.371 -4.77971 0.816798 0
M  V30 6476 N 626.714 -0.118576 -1.57153 0
M  V30 6477 C 627.939 0.550582 -1.99958 0
M  V30 6478 C 628.364 1.59458 -0.997736 0
M  V30 6479 O 627.722 1.81274 0.0306269 0
M  V30 6480 C 627.77 1.15379 -3.41643 0
M  V30 6481 O 626.874 2.26932 -3.44348 0
M  V30 6482 H 626.215 0.137567 -0.649593 0
M  V30 6483 H 628.745 -0.206926 -2.03551 0
M  V30 6484 H 628.755 1.48942 -3.79843 0
M  V30 6485 H 627.43 0.389087 -4.14076 0
M  V30 6486 H 626.007 1.94812 -3.17967 0
M  V30 6487 N 628.193 1.56834 0.155195 0
M  V30 6488 C 629.604 1.72421 0.716082 0
M  V30 6489 C 629.955 0.731685 1.82046 0
M  V30 6490 O 629.08 -0.103481 2.16152 0
M  V30 6491 C 629.675 3.12629 1.30571 0
M  V30 6492 C 628.234 3.29846 1.81325 0
M  V30 6493 C 627.381 2.68359 0.698494 0
M  V30 6494 H 630.332 1.58544 -0.0703861 0
M  V30 6495 H 630.353 3.12174 2.1755 0
M  V30 6496 H 629.865 3.84844 0.501701 0
M  V30 6497 H 627.966 2.62614 2.64319 0
M  V30 6498 H 628.079 4.37727 1.9476 0
M  V30 6499 H 626.443 2.28604 1.12305 0
M  V30 6500 H 627.226 3.43171 -0.0939366 0
M  V30 6501 N 629.671 -0.424282 1.51781 0
M  V30 6502 C 630.899 -1.1947 1.68921 0
M  V30 6503 C 631.314 -1.84683 0.39213 0
M  V30 6504 O 630.671 -1.71261 -0.630554 0
M  V30 6505 C 630.722 -2.26909 2.81416 0
M  V30 6506 O 630.443 -1.64361 4.061 0
M  V30 6507 C 631.944 -3.16945 3.09937 0
M  V30 6508 H 629.164 -0.359591 0.566511 0
M  V30 6509 H 631.708 -0.501139 1.98265 0
M  V30 6510 H 629.863 -2.91959 2.54635 0
M  V30 6511 H 630.277 -2.35468 4.68674 0
M  V30 6512 H 631.751 -3.88437 3.922 0
M  V30 6513 H 632.228 -3.78451 2.22871 0
M  V30 6514 H 632.834 -2.57581 3.38426 0
M  V30 6515 N 631.149 -1.42148 -0.680565 0
M  V30 6516 C 632.112 -1.4488 -1.77602 0
M  V30 6517 C 633.112 -0.337209 -1.57224 0
M  V30 6518 O 634.302 -0.597778 -1.63622 0
M  V30 6519 C 631.434 -1.27483 -3.16166 0
M  V30 6520 H 632.627 -2.42412 -1.76568 0
M  V30 6521 H 630.18 -1.28511 -0.889645 0
M  V30 6522 H 630.915 -0.30851 -3.22829 0
M  V30 6523 H 630.7 -2.08037 -3.3236 0
M  V30 6524 H 632.19 -1.32265 -3.96101 0
M  V30 6525 N 632.627 0.916307 -1.28225 0
M  V30 6526 C 633.557 2.0352 -1.14464 0
M  V30 6527 C 634.538 1.70045 -0.0430844 0
M  V30 6528 O 635.723 1.92954 -0.219619 0
M  V30 6529 C 632.853 3.37889 -0.803027 0
M  V30 6530 C 631.807 3.85516 -1.85908 0
M  V30 6531 C 631.133 5.1682 -1.37116 0
M  V30 6532 C 632.433 4.07655 -3.26519 0
M  V30 6533 H 634.127 2.1529 -2.08064 0
M  V30 6534 H 631.673 1.03446 -1.00174 0
M  V30 6535 H 633.626 4.15654 -0.693537 0
M  V30 6536 H 632.35 3.26164 0.168674 0
M  V30 6537 H 631.009 3.09953 -1.95767 0
M  V30 6538 H 630.657 5.01497 -0.38859 0
M  V30 6539 H 630.357 5.49657 -2.07728 0
M  V30 6540 H 631.881 5.97143 -1.27484 0
M  V30 6541 H 633.295 4.75953 -3.19596 0
M  V30 6542 H 631.692 4.51818 -3.94943 0
M  V30 6543 H 632.762 3.12553 -3.70727 0
M  V30 6544 N 634.105 1.10431 1.1244 0
M  V30 6545 C 635.068 0.756542 2.16354 0
M  V30 6546 C 636.068 -0.21899 1.59302 0
M  V30 6547 O 637.258 0.00415969 1.742 0
M  V30 6548 C 634.39 0.120612 3.40687 0
M  V30 6549 H 635.583 1.67696 2.48632 0
M  V30 6550 H 633.136 0.904832 1.27446 0
M  V30 6551 H 633.871 -0.810536 3.14008 0
M  V30 6552 H 633.656 0.822693 3.83372 0
M  V30 6553 H 635.146 -0.106945 4.17463 0
M  V30 6554 N 635.583 -1.29855 0.893053 0
M  V30 6555 C 636.86 -1.90694 0.435336 0
M  V30 6556 C 637.24 -1.8111 -1.08454 0
M  V30 6557 O 636.588 -1.23352 -1.92345 0
M  V30 6558 C 636.798 -3.36033 0.942472 0
M  V30 6559 C 638.146 -4.13083 0.982226 0
M  V30 6560 O 639.17 -3.4491 0.889686 0
M  V30 6561 O 638.029 -5.34896 1.12022 0
M  V30 6562 H 635.123 -0.815978 0.134567 0
M  V30 6563 H 637.669 -1.38367 0.982484 0
M  V30 6564 H 636.441 -3.37132 1.9864 0
M  V30 6565 H 636.064 -3.95828 0.374952 0
M  V30 6566 N 637.061 -0.65484 -1.43351 0
M  V30 6567 C 638.008 0.0357713 -2.30772 0
M  V30 6568 C 638.978 0.813035 -1.44841 0
M  V30 6569 O 640.163 0.789314 -1.73708 0
M  V30 6570 C 637.303 0.995084 -3.30442 0
M  V30 6571 C 636.416 0.21375 -4.31471 0
M  V30 6572 C 635.551 1.16701 -5.18222 0
M  V30 6573 C 634.59 0.376201 -6.10943 0
M  V30 6574 N 633.727 1.28113 -6.90313 0
M  V30 6575 H 638.567 -0.71559 -2.89281 0
M  V30 6576 H 636.104 -0.364645 -1.42509 0
M  V30 6577 H 638.062 1.5649 -3.86739 0
M  V30 6578 H 636.692 1.7133 -2.7358 0
M  V30 6579 H 635.744 -0.472377 -3.77456 0
M  V30 6580 H 637.056 -0.401103 -4.97185 0
M  V30 6581 H 636.21 1.8074 -5.79153 0
M  V30 6582 H 634.949 1.81577 -4.52638 0
M  V30 6583 H 633.954 -0.277534 -5.49099 0
M  V30 6584 H 635.179 -0.268178 -6.7857 0
M  V30 6585 H 633.125 1.91666 -6.27376 0
M  V30 6586 H 633.042 0.720879 -7.52555 0
M  V30 6587 H 634.31 1.90962 -7.55747 0
M  V30 6588 N 638.539 1.52521 -0.396863 0
M  V30 6589 C 639.787 2.01274 0.182536 0
M  V30 6590 C 640.108 1.28485 1.46685 0
M  V30 6591 O 639.378 0.407134 1.91623 0
M  V30 6592 H 637.958 0.743671 0.0704442 0
M  V30 6593 H 640.62 1.87547 -0.530289 0
M  V30 6594 H 639.716 3.09687 0.387385 0
M  V30 6595 N 640.017 0.126909 1.57088 0
M  V30 6596 C 640.964 -0.82036 2.15728 0
M  V30 6597 C 641.934 -1.25811 1.08447 0
M  V30 6598 O 643.119 -1.33422 1.36393 0
M  V30 6599 C 640.259 -2.06199 2.76724 0
M  V30 6600 C 639.372 -1.67188 3.98337 0
M  V30 6601 C 638.507 -2.86378 4.47393 0
M  V30 6602 C 637.546 -2.43644 5.61519 0
M  V30 6603 N 636.683 -3.55775 6.05284 0
M  V30 6604 H 641.523 -0.313472 2.96347 0
M  V30 6605 H 639.06 -0.14303 1.46403 0
M  V30 6606 H 641.018 -2.78959 3.10222 0
M  V30 6607 H 639.648 -2.54333 1.98782 0
M  V30 6608 H 638.7 -0.842714 3.70948 0
M  V30 6609 H 640.012 -1.31789 4.81075 0
M  V30 6610 H 639.166 -3.67353 4.82842 0
M  V30 6611 H 637.905 -3.25009 3.63621 0
M  V30 6612 H 636.91 -1.61104 5.25667 0
M  V30 6613 H 638.135 -2.06122 6.47063 0
M  V30 6614 H 636.081 -3.94065 5.24451 0
M  V30 6615 H 635.998 -3.24325 6.82898 0
M  V30 6616 H 637.266 -4.37166 6.45373 0
M  V30 6617 N 641.495 -1.56914 -0.146875 0
M  V30 6618 C 642.405 -2.0154 -1.20079 0
M  V30 6619 C 643.421 -0.930838 -1.47008 0
M  V30 6620 O 644.597 -1.24032 -1.58676 0
M  V30 6621 C 641.662 -2.38715 -2.51428 0
M  V30 6622 C 640.723 -3.6112 -2.32145 0
M  V30 6623 C 639.956 -3.96512 -3.57231 0
M  V30 6624 O 640.179 -3.32566 -4.63418 0
M  V30 6625 O 639.113 -4.89758 -3.49887 0
M  V30 6626 H 642.939 -2.91506 -0.851924 0
M  V30 6627 H 640.524 -1.45106 -0.355607 0
M  V30 6628 H 642.406 -2.63485 -3.28867 0
M  V30 6629 H 641.081 -1.51903 -2.85845 0
M  V30 6630 H 639.988 -3.41536 -1.52656 0
M  V30 6631 H 641.321 -4.48549 -2.02644 0
M  V30 6632 N 642.974 0.416227 -1.52004 0
M  V30 6633 C 643.921 1.50666 -1.74838 0
M  V30 6634 C 644.891 1.55245 -0.590599 0
M  V30 6635 O 646.076 1.71928 -0.827374 0
M  V30 6636 C 643.216 2.88185 -1.89851 0
M  V30 6637 C 642.329 2.92971 -3.17478 0
M  V30 6638 C 641.464 4.21745 -3.22962 0
M  V30 6639 C 640.503 4.20478 -4.4482 0
M  V30 6640 N 639.64 5.40811 -4.47736 0
M  V30 6641 H 644.48 1.30498 -2.67907 0
M  V30 6642 H 642.017 0.633568 -1.32757 0
M  V30 6643 H 643.975 3.68007 -1.96537 0
M  V30 6644 H 642.605 3.06865 -1.00169 0
M  V30 6645 H 641.657 2.05684 -3.19997 0
M  V30 6646 H 642.969 2.87899 -4.07328 0
M  V30 6647 H 642.123 5.09954 -3.28682 0
M  V30 6648 H 640.862 4.29503 -2.31038 0
M  V30 6649 H 639.867 3.30659 -4.39254 0
M  V30 6650 H 641.092 4.14366 -5.38031 0
M  V30 6651 H 639.038 5.4925 -3.58692 0
M  V30 6652 H 638.955 5.37705 -5.31422 0
M  V30 6653 H 640.223 6.30993 -4.57676 0
M  V30 6654 N 644.452 1.42507 0.673017 0
M  V30 6655 C 645.729 1.33554 1.42908 0
M  V30 6656 C 646.109 -0.0262211 2.11084 0
M  V30 6657 O 645.457 -1.04181 2.03368 0
M  V30 6658 C 645.667 2.50498 2.43006 0
M  V30 6659 C 647.015 2.92694 3.07596 0
M  V30 6660 O 648.039 2.50401 2.53333 0
M  V30 6661 O 646.898 3.65899 4.05931 0
M  V30 6662 H 643.992 0.526785 0.637516 0
M  V30 6663 H 646.538 1.54518 0.701591 0
M  V30 6664 H 645.31 3.41272 1.9144 0
M  V30 6665 H 644.933 2.3153 3.23233 0
M  V30 6666 N 645.93 -0.909495 1.28709 0
M  V30 6667 C 647.341 -1.47419 1.14563 0
M  V30 6668 C 647.692 -1.94432 -0.262832 0
M  V30 6669 O 646.817 -1.82842 -1.15748 0
M  V30 6670 C 647.412 -2.67933 2.07358 0
M  V30 6671 C 645.971 -3.20568 1.97264 0
M  V30 6672 C 645.118 -1.93269 1.98852 0
M  V30 6673 H 648.069 -0.721787 1.41336 0
M  V30 6674 H 648.09 -3.43339 1.64007 0
M  V30 6675 H 647.602 -2.33685 3.09859 0
M  V30 6676 H 645.703 -3.59531 0.978157 0
M  V30 6677 H 645.816 -3.85529 2.84436 0
M  V30 6678 H 644.18 -2.10553 1.43317 0
M  V30 6679 H 644.963 -1.61312 3.0304 0
M  V30 6680 N 647.408 -1.11026 -1.11852 0
M  V30 6681 C 648.338 -0.786812 -2.19844 0
M  V30 6682 C 649.319 0.242935 -1.68356 0
M  V30 6683 O 650.504 0.107355 -1.93903 0
M  V30 6684 C 647.634 -0.224516 -3.46574 0
M  V30 6685 C 646.588 -1.18564 -4.1125 0
M  V30 6686 C 645.914 -0.484261 -5.32503 0
M  V30 6687 C 647.214 -2.53465 -4.56676 0
M  V30 6688 H 648.908 -1.68978 -2.47158 0
M  V30 6689 H 646.454 -0.813906 -1.18792 0
M  V30 6690 H 648.407 0.0139435 -4.21398 0
M  V30 6691 H 647.131 0.713722 -3.18706 0
M  V30 6692 H 645.79 -1.40966 -3.38414 0
M  V30 6693 H 645.438 0.458646 -5.00905 0
M  V30 6694 H 645.138 -1.12526 -5.76725 0
M  V30 6695 H 646.662 -0.254492 -6.10069 0
M  V30 6696 H 648.076 -2.35177 -5.22843 0
M  V30 6697 H 646.473 -3.13507 -5.11697 0
M  V30 6698 H 647.543 -3.13008 -3.70343 0
M  V30 6699 N 648.886 1.2938 -0.899927 0
M  V30 6700 C 649.849 2.25983 -0.382677 0
M  V30 6701 C 650.849 1.53366 0.483259 0
M  V30 6702 O 652.039 1.71798 0.28828 0
M  V30 6703 C 649.171 3.37878 0.452915 0
M  V30 6704 H 650.364 2.73252 -1.23586 0
M  V30 6705 H 647.917 1.40825 -0.678088 0
M  V30 6706 H 648.652 2.95949 1.32608 0
M  V30 6707 H 648.437 3.91742 -0.167562 0
M  V30 6708 H 649.927 4.09746 0.806107 0
M  V30 6709 N 650.364 0.662433 1.43002 0
M  V30 6710 C 651.327 -0.0142016 2.29196 0
M  V30 6711 C 652.327 -0.741394 1.42688 0
M  V30 6712 O 653.517 -0.581257 1.64216 0
M  V30 6713 C 650.649 -1.03084 3.24941 0
M  V30 6714 H 651.842 0.7443 2.90517 0
M  V30 6715 H 649.395 0.424133 1.50435 0
M  V30 6716 H 650.13 -1.81826 2.68533 0
M  V30 6717 H 649.915 -0.512946 3.8873 0
M  V30 6718 H 651.405 -1.50308 3.89612 0
M  V30 6719 N 651.842 -1.52309 0.404946 0
M  V30 6720 C 652.772 -2.29805 -0.41376 0
M  V30 6721 C 653.753 -1.3384 -1.0498 0
M  V30 6722 O 654.938 -1.62745 -1.05961 0
M  V30 6723 C 652.068 -3.11639 -1.53292 0
M  V30 6724 C 651.022 -4.15616 -1.02211 0
M  V30 6725 C 650.348 -4.8577 -2.23455 0
M  V30 6726 C 651.648 -5.2224 -0.0790725 0
M  V30 6727 H 653.342 -2.98493 0.232878 0
M  V30 6728 H 650.888 -1.43552 0.113441 0
M  V30 6729 H 652.841 -3.64618 -2.11262 0
M  V30 6730 H 651.565 -2.40712 -2.20738 0
M  V30 6731 H 650.224 -3.63641 -0.46484 0
M  V30 6732 H 649.872 -4.11376 -2.89445 0
M  V30 6733 H 649.572 -5.56058 -1.89929 0
M  V30 6734 H 651.096 -5.4156 -2.82038 0
M  V30 6735 H 652.51 -5.70485 -0.567438 0
M  V30 6736 H 650.907 -5.99867 0.167167 0
M  V30 6737 H 651.977 -4.77078 0.867447 0
M  V30 6738 N 653.32 -0.135238 -1.57019 0
M  V30 6739 C 654.736 0.221262 -1.58059 0
M  V30 6740 C 654.936 1.65538 -1.14889 0
M  V30 6741 O 653.992 2.37985 -0.843751 0
M  V30 6742 C 655.305 -0.0268114 -3.00688 0
M  V30 6743 C 656.853 0.0378206 -3.12977 0
M  V30 6744 C 657.328 -0.182769 -4.57635 0
M  V30 6745 N 658.819 -0.129292 -4.6302 0
M  V30 6746 C 659.554 -0.274648 -5.72742 0
M  V30 6747 N 659.05 -0.477075 -6.91155 0
M  V30 6748 N 660.843 -0.213077 -5.61696 0
M  V30 6749 H 652.994 -1.07177 -1.83376 0
M  V30 6750 H 655.257 -0.423338 -0.848227 0
M  V30 6751 H 654.963 -1.01889 -3.36618 0
M  V30 6752 H 654.837 0.697863 -3.70688 0
M  V30 6753 H 657.224 1.02043 -2.76896 0
M  V30 6754 H 657.305 -0.718996 -2.45487 0
M  V30 6755 H 656.949 -1.16243 -4.94419 0
M  V30 6756 H 656.879 0.59423 -5.23237 0
M  V30 6757 H 659.37 0.0229896 -3.77893 0
M  V30 6758 H 659.683 -0.578413 -7.70632 0
M  V30 6759 H 658.028 -0.513252 -6.93102 0
M  V30 6760 H 661.219 -0.0557796 -4.68067 0
M  V30 6761 H 661.392 -0.329796 -6.4716 0
M  V30 6762 N 654.798 1.5699 0.138552 0
M  V30 6763 C 656.044 1.84081 0.85099 0
M  V30 6764 C 656.377 0.718107 1.80435 0
M  V30 6765 O 655.652 -0.277633 1.92508 0
M  V30 6766 C 655.935 3.21699 1.61808 0
M  V30 6767 C 655.788 4.44544 0.685633 0
M  V30 6768 C 657.107 3.5664 2.57868 0
M  V30 6769 H 654.226 0.669592 0.307922 0
M  V30 6770 H 656.868 1.89646 0.11588 0
M  V30 6771 H 655.018 3.17086 2.24474 0
M  V30 6772 H 656.69 4.61248 0.0693179 0
M  V30 6773 H 654.933 4.338 -0.00421993 0
M  V30 6774 H 655.604 5.3746 1.25858 0
M  V30 6775 H 658.08 3.61918 2.05316 0
M  V30 6776 H 656.956 4.53946 3.08584 0
M  V30 6777 H 657.217 2.83036 3.39622 0
M  V30 6778 N 656.276 -0.40816 1.52223 0
M  V30 6779 C 657.692 -0.74685 1.41047 0
M  V30 6780 C 657.892 -1.94788 0.51573 0
M  V30 6781 O 656.948 -2.52494 -0.0181156 0
M  V30 6782 C 658.261 -0.999878 2.83589 0
M  V30 6783 C 659.809 -1.10253 2.92939 0
M  V30 6784 C 660.284 -1.38832 4.36451 0
M  V30 6785 N 661.775 -1.45694 4.3969 0
M  V30 6786 C 662.51 -1.69435 5.47795 0
M  V30 6787 N 662.006 -1.90774 6.66016 0
M  V30 6788 N 663.799 -1.71458 5.35312 0
M  V30 6789 H 655.95 0.382409 2.08929 0
M  V30 6790 H 658.213 0.108807 0.941735 0
M  V30 6791 H 657.919 -0.189723 3.51188 0
M  V30 6792 H 657.793 -1.91978 3.24691 0
M  V30 6793 H 660.18 -1.90328 2.2552 0
M  V30 6794 H 660.261 -0.160973 2.55293 0
M  V30 6795 H 659.905 -0.592741 5.04429 0
M  V30 6796 H 659.835 -2.34241 4.71634 0
M  V30 6797 H 662.326 -1.3099 3.54472 0
M  V30 6798 H 662.639 -2.08342 7.44186 0
M  V30 6799 H 660.984 -1.88037 6.69079 0
M  V30 6800 H 664.175 -1.54326 4.41929 0
M  V30 6801 H 664.348 -1.89621 6.19635 0
M  V30 6802 N 657.755 -1.42862 -0.66545 0
M  V30 6803 C 659.032 -1.3431 -1.42197 0
M  V30 6804 C 659.412 0.0150265 -2.11095 0
M  V30 6805 O 658.76 1.03101 -2.03918 0
M  V30 6806 C 658.97 -2.51783 -2.41674 0
M  V30 6807 C 660.318 -2.94321 -3.0604 0
M  V30 6808 O 661.342 -2.51741 -2.52001 0
M  V30 6809 O 660.201 -3.68047 -4.03985 0
M  V30 6810 H 657.295 -0.530159 -0.634713 0
M  V30 6811 H 659.841 -1.54888 -0.693386 0
M  V30 6812 H 658.613 -3.42282 -1.89627 0
M  V30 6813 H 658.236 -2.33241 -3.22001 0
M  V30 6814 N 659.233 0.902656 -1.29189 0
M  V30 6815 C 660.482 1.6475 -1.16362 0
M  V30 6816 C 660.795 1.93517 0.284682 0
M  V30 6817 O 662.001 2.66192 0.534229 0
M  V30 6818 C 660.457 2.96848 -2.03493 0
M  V30 6819 C 660.065 2.75687 -3.5313 0
M  V30 6820 C 661.809 3.74762 -1.99383 0
M  V30 6821 C 659.716 4.03492 -4.32375 0
M  V30 6822 H 658.646 0.618041 -0.431904 0
M  V30 6823 H 661.297 1.0008 -1.53806 0
M  V30 6824 H 659.679 3.62715 -1.58916 0
M  V30 6825 H 660.853 2.18431 -4.05739 0
M  V30 6826 H 659.168 2.11171 -3.58881 0
M  V30 6827 H 661.765 4.69515 -2.5585 0
M  V30 6828 H 662.108 4.04767 -0.973123 0
M  V30 6829 H 662.641 3.15732 -2.41988 0
M  V30 6830 H 659.38 3.78656 -5.3507 0
M  V30 6831 H 658.9 4.60318 -3.84535 0
M  V30 6832 H 660.579 4.71662 -4.42881 0
M  V30 6833 N 660.711 1.11618 1.11262 0
M  V30 6834 C 661.641 0.79846 2.19424 0
M  V30 6835 C 662.622 -0.234003 1.68483 0
M  V30 6836 O 663.807 -0.0970704 1.93957 0
M  V30 6837 C 660.937 0.242892 3.4645 0
M  V30 6838 C 659.891 1.20744 4.10615 0
M  V30 6839 C 659.217 0.512494 5.32238 0
M  V30 6840 C 660.517 2.55884 4.55325 0
M  V30 6841 H 662.211 1.70286 2.46258 0
M  V30 6842 H 659.757 0.820195 1.18359 0
M  V30 6843 H 661.71 0.00840447 4.21399 0
M  V30 6844 H 660.434 -0.696811 3.1908 0
M  V30 6845 H 659.093 1.42759 3.37662 0
M  V30 6846 H 658.741 -0.432075 5.01141 0
M  V30 6847 H 658.441 1.15583 5.7612 0
M  V30 6848 H 659.965 0.286842 6.09926 0
M  V30 6849 H 661.379 2.37946 5.21588 0
M  V30 6850 H 659.776 3.16216 5.10027 0
M  V30 6851 H 660.846 3.14968 3.68678 0
M  V30 6852 N 662.189 -1.289 0.906776 0
M  V30 6853 C 663.414 -1.99939 0.551303 0
M  V30 6854 C 663.839 -1.67366 -0.858496 0
M  V30 6855 O 663.197 -0.902176 -1.57259 0
M  V30 6856 C 663.245 -3.52523 0.758937 0
M  V30 6857 O 662.349 -4.11983 -0.185308 0
M  V30 6858 H 661.69 -0.628376 0.214568 0
M  V30 6859 H 664.22 -1.64225 1.2203 0
M  V30 6860 H 664.23 -4.02522 0.666329 0
M  V30 6861 H 662.905 -3.75566 1.78671 0
M  V30 6862 H 661.482 -3.72873 -0.0445577 0
M  V30 6863 N 663.667 -0.670007 -1.42649 0
M  V30 6864 C 665.083 -0.33911 -1.55956 0
M  V30 6865 C 665.283 1.1558 -1.65056 0
M  V30 6866 O 664.339 1.94111 -1.61485 0
M  V30 6867 C 665.652 -1.06522 -2.812 0
M  V30 6868 C 667.2 -1.04708 -2.94966 0
M  V30 6869 C 667.675 -1.75442 -4.23065 0
M  V30 6870 N 669.166 -1.72286 -4.29967 0
M  V30 6871 C 669.901 -2.23877 -5.27889 0
M  V30 6872 N 669.397 -2.83829 -6.31991 0
M  V30 6873 N 671.19 -2.14279 -5.19654 0
M  V30 6874 H 663.341 -1.6399 -1.34986 0
M  V30 6875 H 665.604 -0.690603 -0.649439 0
M  V30 6876 H 665.31 -2.12033 -2.80597 0
M  V30 6877 H 665.184 -0.627398 -3.71946 0
M  V30 6878 H 667.571 -0.000315966 -2.951 0
M  V30 6879 H 667.652 -1.52374 -2.05465 0
M  V30 6880 H 667.296 -2.80084 -4.23693 0
M  V30 6881 H 667.226 -1.25229 -5.11493 0
M  V30 6882 H 669.717 -1.28554 -3.55362 0
M  V30 6883 H 670.03 -3.20827 -7.03057 0
M  V30 6884 H 668.375 -2.87896 -6.32567 0
M  V30 6885 H 671.566 -1.67135 -4.37245 0
M  V30 6886 H 671.739 -2.54792 -5.95806 0
M  V30 6887 N 665.145 1.52092 -0.413018 0
M  V30 6888 C 666.373 2.06274 0.160881 0
M  V30 6889 C 666.788 1.28273 1.38533 0
M  V30 6890 O 666.145 0.33563 1.79387 0
M  V30 6891 C 666.196 3.57921 0.507443 0
M  V30 6892 O 665.917 4.32971 -0.668388 0
M  V30 6893 C 667.418 4.28533 1.13465 0
M  V30 6894 H 664.638 0.67074 0.0186759 0
M  V30 6895 H 667.182 1.95951 -0.585092 0
M  V30 6896 H 665.337 3.68238 1.20331 0
M  V30 6897 H 665.751 5.23135 -0.378169 0
M  V30 6898 H 667.225 5.35804 1.32732 0
M  V30 6899 H 667.702 3.85258 2.10886 0
M  V30 6900 H 668.308 4.22595 0.478876 0
M  V30 6901 N 666.623 0.143563 1.56945 0
M  V30 6902 C 667.57 -0.797433 2.16586 0
M  V30 6903 C 668.54 -1.24654 1.09775 0
M  V30 6904 O 669.725 -1.31968 1.37801 0
M  V30 6905 C 666.865 -2.03253 2.78895 0
M  V30 6906 C 665.978 -1.62954 4.00087 0
M  V30 6907 C 665.113 -2.81617 4.50406 0
M  V30 6908 C 664.152 -2.37675 5.64072 0
M  V30 6909 N 663.289 -3.49335 6.09023 0
M  V30 6910 H 668.129 -0.282023 2.96662 0
M  V30 6911 H 665.666 -0.127494 1.46546 0
M  V30 6912 H 667.624 -2.75653 3.13163 0
M  V30 6913 H 666.254 -2.52211 2.01469 0
M  V30 6914 H 665.306 -0.803322 3.71821 0
M  V30 6915 H 666.618 -1.26679 4.82446 0
M  V30 6916 H 665.772 -3.62212 4.86711 0
M  V30 6917 H 664.511 -3.21134 3.67048 0
M  V30 6918 H 663.516 -1.55519 5.27346 0
M  V30 6919 H 664.741 -1.99247 6.49213 0
M  V30 6920 H 662.687 -3.8848 5.28601 0
M  V30 6921 H 662.604 -3.17064 6.86299 0
M  V30 6922 H 663.872 -4.30297 6.49973 0
M  V30 6923 N 668.101 -1.57061 -0.130224 0
M  V30 6924 C 669.011 -2.02802 -1.17934 0
M  V30 6925 C 670.027 -0.946378 -1.46013 0
M  V30 6926 O 671.203 -1.25708 -1.57351 0
M  V30 6927 C 668.268 -2.41368 -2.48882 0
M  V30 6928 C 667.329 -3.63561 -2.28301 0
M  V30 6929 C 666.562 -4.00279 -3.53005 0
M  V30 6930 O 666.785 -3.37463 -4.59864 0
M  V30 6931 O 665.719 -4.93441 -3.44673 0
M  V30 6932 H 669.545 -2.92394 -0.820958 0
M  V30 6933 H 667.13 -1.45475 -0.340197 0
M  V30 6934 H 669.012 -2.66958 -3.26054 0
M  V30 6935 H 667.687 -1.54926 -2.84217 0
M  V30 6936 H 666.594 -3.43136 -1.49025 0
M  V30 6937 H 667.927 -4.50673 -1.97875 0
M  V30 6938 N 669.579 0.400081 -1.52437 0
M  V30 6939 C 670.827 1.14392 -1.6661 0
M  V30 6940 C 671.148 1.90792 -0.402927 0
M  V30 6941 O 670.418 1.87042 0.582425 0
M  V30 6942 H 668.998 0.425275 -0.614125 0
M  V30 6943 H 671.66 0.455076 -1.89513 0
M  V30 6944 H 670.756 1.85298 -2.51139 0
M  V30 6945 N 671.057 1.43213 0.657864 0
M  V30 6946 C 672.303 1.44798 1.41991 0
M  V30 6947 C 672.636 0.070256 1.94073 0
M  V30 6948 O 671.911 -0.908177 1.71995 0
M  V30 6949 C 672.194 2.4865 2.60471 0
M  V30 6950 C 672.047 3.95679 2.13911 0
M  V30 6951 C 673.366 2.49292 3.62686 0
M  V30 6952 H 670.485 0.527244 0.514959 0
M  V30 6953 H 673.127 1.74733 0.74621 0
M  V30 6954 H 671.277 2.23254 3.17946 0
M  V30 6955 H 672.949 4.32116 1.61472 0
M  V30 6956 H 671.192 4.08733 1.45325 0
M  V30 6957 H 671.863 4.6395 2.99089 0
M  V30 6958 H 674.339 2.71917 3.14961 0
M  V30 6959 H 673.215 3.23907 4.43143 0
M  V30 6960 H 673.476 1.52502 4.14964 0
M  V30 6961 N 672.536 -0.895792 1.29666 0
M  V30 6962 C 673.784 -1.64339 1.17631 0
M  V30 6963 C 674.105 -1.93099 -0.271643 0
M  V30 6964 O 673.375 -1.55981 -1.18518 0
M  V30 6965 H 671.955 -0.609162 0.432354 0
M  V30 6966 H 674.617 -1.07389 1.62646 0
M  V30 6967 H 673.713 -2.59815 1.72924 0
M  V30 6968 N 674.014 -1.12206 -1.10668 0
M  V30 6969 C 675.239 -0.898938 -1.86906 0
M  V30 6970 C 675.664 0.546346 -1.79991 0
M  V30 6971 O 675.022 1.38655 -1.1681 0
M  V30 6972 C 675.07 -1.37529 -3.33344 0
M  V30 6973 O 674.174 -0.55218 -4.08687 0
M  V30 6974 H 673.515 -0.323163 -0.580053 0
M  V30 6975 H 676.045 -1.49355 -1.39837 0
M  V30 6976 H 676.055 -1.3733 -3.84193 0
M  V30 6977 H 674.73 -2.42767 -3.37693 0
M  V30 6978 H 673.307 -0.620947 -3.67694 0
M  V30 6979 N 675.492 1.28418 -0.913599 0
M  V30 6980 C 676.903 1.77024 -0.593237 0
M  V30 6981 C 677.254 1.74779 0.891441 0
M  V30 6982 O 676.379 1.34237 1.69733 0
M  V30 6983 C 676.974 3.21456 -1.07011 0
M  V30 6984 C 675.533 3.67786 -0.800664 0
M  V30 6985 C 674.68 2.48185 -1.23691 0
M  V30 6986 H 677.631 1.14883 -1.09487 0
M  V30 6987 H 677.652 3.78269 -0.411481 0
M  V30 6988 H 677.164 3.23058 -2.1507 0
M  V30 6989 H 675.265 3.71644 0.266725 0
M  V30 6990 H 675.378 4.57934 -1.4083 0
M  V30 6991 H 673.742 2.46116 -0.655655 0
M  V30 6992 H 674.525 2.52506 -2.32585 0
M  V30 6993 N 676.97 0.677563 1.42291 0
M  V30 6994 C 677.917 0.000947061 2.308 0
M  V30 6995 C 678.887 -0.789889 1.46116 0
M  V30 6996 O 680.072 -0.761578 1.74942 0
M  V30 6997 C 677.212 -0.942387 3.31984 0
M  V30 6998 C 676.325 -0.14508 4.31756 0
M  V30 6999 C 675.46 -1.08442 5.20013 0
M  V30 7000 C 674.499 -0.278958 6.11464 0
M  V30 7001 N 673.636 -1.17115 6.92263 0
M  V30 7002 H 678.476 0.761521 2.88106 0
M  V30 7003 H 676.013 0.38727 1.41911 0
M  V30 7004 H 677.971 -1.50317 3.89179 0
M  V30 7005 H 676.601 -1.66956 2.76271 0
M  V30 7006 H 675.653 0.532368 3.76656 0
M  V30 7007 H 676.965 0.48015 4.96484 0
M  V30 7008 H 676.119 -1.71504 5.81955 0
M  V30 7009 H 674.858 -1.74353 4.55469 0
M  V30 7010 H 673.863 0.364856 5.48588 0
M  V30 7011 H 675.088 0.376099 6.78058 0
M  V30 7012 H 673.034 -1.81661 6.30345 0
M  V30 7013 H 672.951 -0.601063 7.53607 0
M  V30 7014 H 674.219 -1.78915 7.58689 0
M  V30 7015 N 678.448 -1.51871 0.421078 0
M  V30 7016 C 679.378 -2.30231 -0.389363 0
M  V30 7017 C 680.359 -1.34946 -1.03555 0
M  V30 7018 O 681.544 -1.63859 -1.04229 0
M  V30 7019 C 678.674 -3.13247 -1.49979 0
M  V30 7020 C 677.628 -4.16677 -0.977966 0
M  V30 7021 C 676.954 -4.88112 -2.1829 0
M  V30 7022 C 678.254 -5.22295 -0.0236775 0
M  V30 7023 H 679.948 -2.98229 0.264524 0
M  V30 7024 H 677.494 -1.43424 0.12866 0
M  V30 7025 H 679.447 -3.66838 -2.07383 0
M  V30 7026 H 678.171 -2.4304 -2.18173 0
M  V30 7027 H 676.83 -3.64114 -0.426245 0
M  V30 7028 H 676.478 -4.14423 -2.85066 0
M  V30 7029 H 676.178 -5.58041 -1.84021 0
M  V30 7030 H 677.702 -5.44521 -2.76278 0
M  V30 7031 H 679.116 -5.71055 -0.506899 0
M  V30 7032 H 677.513 -5.99656 0.230782 0
M  V30 7033 H 678.583 -4.76131 0.917999 0
M  V30 7034 N 679.926 -0.151884 -1.56866 0
M  V30 7035 C 681.174 0.497021 -1.95893 0
M  V30 7036 C 681.495 1.65078 -1.03799 0
M  V30 7037 O 680.765 1.95642 -0.10049 0
M  V30 7038 H 679.345 0.186603 -0.723318 0
M  V30 7039 H 682.007 -0.228525 -1.93556 0
M  V30 7040 H 681.103 0.869933 -2.99731 0
M  V30 7041 N 681.404 1.57128 0.121893 0
M  V30 7042 C 682.815 1.73902 0.679348 0
M  V30 7043 C 683.166 0.770135 1.80453 0
M  V30 7044 O 682.291 -0.0576083 2.16323 0
M  V30 7045 C 682.886 3.15328 1.2391 0
M  V30 7046 C 681.445 3.33618 1.74288 0
M  V30 7047 C 680.592 2.6978 0.641414 0
M  V30 7048 H 683.543 1.58359 -0.104 0
M  V30 7049 H 683.564 3.16718 2.10879 0
M  V30 7050 H 683.076 3.85821 0.419957 0
M  V30 7051 H 681.177 2.68162 2.58689 0
M  V30 7052 H 681.29 4.4176 1.85432 0
M  V30 7053 H 679.654 2.30935 1.0743 0
M  V30 7054 H 680.437 3.42895 -0.166707 0
M  V30 7055 N 682.882 -0.391992 1.52647 0
M  V30 7056 C 684.13 -1.13507 1.67214 0
M  V30 7057 C 684.451 -1.90575 0.41304 0
M  V30 7058 O 683.721 -1.87348 -0.572498 0
M  V30 7059 H 682.301 -0.422013 0.616372 0
M  V30 7060 H 684.963 -0.44502 1.89751 0
M  V30 7061 H 684.059 -1.83964 2.52118 0
M  V30 7062 N 684.36 -1.4356 -0.65026 0
M  V30 7063 C 685.307 -1.48948 -1.76304 0
M  V30 7064 C 686.277 -0.338919 -1.62605 0
M  V30 7065 O 687.462 -0.54649 -1.82806 0
M  V30 7066 C 684.602 -1.42131 -3.14472 0
M  V30 7067 C 683.715 -2.67415 -3.39284 0
M  V30 7068 C 682.85 -2.52565 -4.67316 0
M  V30 7069 C 681.889 -3.73103 -4.85243 0
M  V30 7070 N 681.026 -3.57046 -6.04535 0
M  V30 7071 H 685.866 -2.44032 -1.71034 0
M  V30 7072 H 683.403 -1.21131 -0.834601 0
M  V30 7073 H 685.361 -1.36172 -3.94351 0
M  V30 7074 H 683.991 -0.506273 -3.18805 0
M  V30 7075 H 683.043 -2.8364 -2.53481 0
M  V30 7076 H 684.355 -3.56943 -3.48415 0
M  V30 7077 H 683.509 -2.44331 -5.55326 0
M  V30 7078 H 682.248 -1.60566 -4.60511 0
M  V30 7079 H 681.253 -3.81743 -3.95667 0
M  V30 7080 H 682.478 -4.66115 -4.93876 0
M  V30 7081 H 680.424 -2.67783 -5.98856 0
M  V30 7082 H 680.341 -4.40178 -6.14638 0
M  V30 7083 H 681.609 -3.52669 -6.95158 0
M  V30 7084 N 685.838 0.888903 -1.30139 0
M  V30 7085 C 687.086 1.63713 -1.18501 0
M  V30 7086 C 687.407 1.9324 0.261399 0
M  V30 7087 O 686.677 1.56608 1.17689 0
M  V30 7088 H 685.257 0.606861 -0.435579 0
M  V30 7089 H 687.919 1.06525 -1.63213 0
M  V30 7090 H 687.015 2.58894 -1.743 0
M  V30 7091 N 687.317 1.12792 1.10072 0
M  V30 7092 C 688.267 0.768086 2.14673 0
M  V30 7093 C 689.251 -0.234716 1.59179 0
M  V30 7094 O 690.443 -0.039643 1.76956 0
M  V30 7095 C 687.572 0.228472 3.42539 0
M  V30 7096 C 686.658 1.25979 4.04957 0
M  V30 7097 N 687.049 2.4586 4.42025 0
M  V30 7098 C 685.347 1.10602 4.32069 0
M  V30 7099 C 686.048 3.11747 4.9111 0
M  V30 7100 N 685.024 2.39185 4.88151 0
M  V30 7101 H 688.826 1.68029 2.4113 0
M  V30 7102 H 686.34 1.00925 1.27232 0
M  V30 7103 H 688.337 -0.0475216 4.16873 0
M  V30 7104 H 686.997 -0.678136 3.1754 0
M  V30 7105 H 688.008 2.83215 4.33601 0
M  V30 7106 H 684.685 0.257021 4.16708 0
M  V30 7107 H 686.075 4.13862 5.29309 0
M  V30 7108 N 688.795 -1.27931 0.920396 0
M  V30 7109 C 689.727 -2.26175 0.371169 0
M  V30 7110 C 690.74 -1.55122 -0.494065 0
M  V30 7111 O 691.929 -1.75825 -0.30787 0
M  V30 7112 C 689.029 -3.35376 -0.487481 0
M  V30 7113 C 688.202 -4.35943 0.356772 0
M  V30 7114 C 687.261 -5.24374 -0.438042 0
M  V30 7115 O 686.287 -5.68998 0.151715 0
M  V30 7116 N 687.489 -5.53823 -1.73956 0
M  V30 7117 H 690.254 -2.73938 1.21564 0
M  V30 7118 H 687.815 -1.41482 0.787047 0
M  V30 7119 H 689.807 -3.91476 -1.02609 0
M  V30 7120 H 688.377 -2.87269 -1.23269 0
M  V30 7121 H 687.597 -3.7921 1.07672 0
M  V30 7122 H 688.885 -5.0015 0.934206 0
M  V30 7123 H 688.283 -5.19413 -2.24114 0
M  V30 7124 H 686.84 -6.12653 -2.22486 0
M  V30 7125 N 690.273 -0.685099 -1.4193 0
M  V30 7126 C 691.521 -0.21124 -2.00993 0
M  V30 7127 C 691.842 1.18985 -1.54491 0
M  V30 7128 O 691.112 1.8009 -0.771 0
M  V30 7129 H 689.692 -0.0751059 -0.743215 0
M  V30 7130 H 692.354 -0.883915 -1.73704 0
M  V30 7131 H 691.45 -0.220513 -3.1132 0
M  V30 7132 N 691.751 1.51645 -0.429126 0
M  V30 7133 C 692.998 2.02015 0.140079 0
M  V30 7134 C 693.326 1.31374 1.43427 0
M  V30 7135 O 692.581 0.414779 1.91254 0
M  V30 7136 C 692.88 3.54989 0.414472 0
M  V30 7137 C 692.546 4.43874 -0.792911 0
M  V30 7138 C 691.208 4.67887 -1.12404 0
M  V30 7139 C 693.56 4.96074 -1.59875 0
M  V30 7140 C 690.888 5.41348 -2.26184 0
M  V30 7141 C 693.24 5.70782 -2.72747 0
M  V30 7142 C 691.904 5.93062 -3.06324 0
M  V30 7143 H 691.174 0.739225 0.0512585 0
M  V30 7144 H 693.821 1.82675 -0.574641 0
M  V30 7145 H 692.126 3.72615 1.21099 0
M  V30 7146 H 693.823 3.91489 0.868173 0
M  V30 7147 H 690.413 4.25374 -0.524871 0
M  V30 7148 H 694.597 4.77412 -1.35614 0
M  V30 7149 H 689.853 5.56815 -2.52522 0
M  V30 7150 H 694.027 6.10221 -3.35564 0
M  V30 7151 H 691.654 6.49764 -3.94602 0
M  V30 7152 N 693.229 0.160201 1.56784 0
M  V30 7153 C 694.477 -0.486625 1.96154 0
M  V30 7154 C 694.798 -1.64525 1.04673 0
M  V30 7155 O 694.068 -1.95586 0.110864 0
M  V30 7156 H 692.648 -0.182764 0.724297 0
M  V30 7157 H 695.31 0.238787 1.93432 0
M  V30 7158 H 694.406 -0.854025 3.00188 0
M  V30 7159 N 694.707 -1.5719 -0.113559 0
M  V30 7160 C 695.953 -1.85412 -0.821597 0
M  V30 7161 C 696.286 -0.746722 -1.7927 0
M  V30 7162 O 695.561 0.246971 -1.92926 0
M  V30 7163 C 695.844 -3.24233 -1.56669 0
M  V30 7164 C 695.697 -4.45578 -0.614823 0
M  V30 7165 C 697.016 -3.60697 -2.52161 0
M  V30 7166 H 694.135 -0.674406 -0.29723 0
M  V30 7167 H 696.777 -1.89807 -0.085694 0
M  V30 7168 H 694.927 -3.20617 -2.19401 0
M  V30 7169 H 696.599 -4.613 0.00407137 0
M  V30 7170 H 694.842 -4.33738 0.0732332 0
M  V30 7171 H 695.513 -5.39395 -1.17292 0
M  V30 7172 H 697.989 -3.65139 -1.99532 0
M  V30 7173 H 696.865 -4.58798 -3.01323 0
M  V30 7174 H 697.126 -2.88403 -3.35076 0
M  V30 7175 N 696.185 0.383891 -1.52853 0
M  V30 7176 C 697.115 1.47559 -1.80965 0
M  V30 7177 C 698.096 1.5669 -0.661986 0
M  V30 7178 O 699.281 1.71556 -0.910072 0
M  V30 7179 C 696.411 2.85114 -1.98312 0
M  V30 7180 C 695.365 2.9082 -3.14019 0
M  V30 7181 C 694.691 4.30873 -3.16627 0
M  V30 7182 C 695.991 2.60001 -4.52986 0
M  V30 7183 H 697.685 1.24283 -2.72386 0
M  V30 7184 H 695.231 0.596445 -1.31067 0
M  V30 7185 H 697.184 3.61496 -2.16561 0
M  V30 7186 H 695.908 3.09738 -1.03585 0
M  V30 7187 H 694.567 2.16886 -2.9556 0
M  V30 7188 H 694.215 4.52545 -2.19573 0
M  V30 7189 H 693.915 4.3561 -3.94357 0
M  V30 7190 H 695.439 5.09154 -3.37038 0
M  V30 7191 H 696.853 3.261 -4.71521 0
M  V30 7192 H 695.25 2.76081 -5.32822 0
M  V30 7193 H 696.32 1.5532 -4.59351 0
M  V30 7194 N 697.663 1.43903 0.642637 0
M  V30 7195 C 698.888 1.49758 1.43483 0
M  V30 7196 C 699.313 0.119911 1.87717 0
M  V30 7197 O 698.671 -0.888558 1.58033 0
M  V30 7198 C 698.719 2.45744 2.63898 0
M  V30 7199 O 697.823 1.95101 3.63331 0
M  V30 7200 H 697.164 0.506138 0.429791 0
M  V30 7201 H 699.694 1.88923 0.785438 0
M  V30 7202 H 699.704 2.63399 3.11584 0
M  V30 7203 H 698.379 3.45818 2.31046 0
M  V30 7204 H 696.956 1.87158 3.22531 0
M  V30 7205 N 699.141 -0.881989 1.30609 0
M  V30 7206 C 700.387 -1.63647 1.19781 0
M  V30 7207 C 700.72 -1.92632 -0.246265 0
M  V30 7208 O 699.995 -1.54938 -1.17577 0
M  V30 7209 C 700.278 -2.97437 2.02985 0
M  V30 7210 C 700.131 -2.75406 3.55628 0
M  V30 7211 C 701.45 -3.98397 1.86997 0
M  V30 7212 H 698.569 -0.593841 0.436488 0
M  V30 7213 H 701.211 -1.02041 1.60273 0
M  V30 7214 H 699.361 -3.50018 1.68581 0
M  V30 7215 H 701.033 -2.2959 4.00107 0
M  V30 7216 H 699.276 -2.09856 3.79662 0
M  V30 7217 H 699.947 -3.70552 4.09139 0
M  V30 7218 H 702.423 -3.54986 2.17081 0
M  V30 7219 H 701.299 -4.89916 2.47536 0
M  V30 7220 H 701.56 -4.3424 0.829943 0
M  V30 7221 N 700.619 -1.13374 -1.09472 0
M  V30 7222 C 701.868 -0.889844 -1.8101 0
M  V30 7223 C 702.181 0.585686 -1.86625 0
M  V30 7224 O 703.387 0.946497 -2.54467 0
M  V30 7225 C 701.843 -1.54241 -3.25174 0
M  V30 7226 C 701.451 -3.05343 -3.27826 0
M  V30 7227 C 703.195 -1.37919 -4.0147 0
M  V30 7228 C 701.102 -3.63486 -4.6651 0
M  V30 7229 H 700.032 -0.329256 -0.678311 0
M  V30 7230 H 702.683 -1.36139 -1.23038 0
M  V30 7231 H 701.065 -0.998525 -3.83204 0
M  V30 7232 H 702.239 -3.66307 -2.79563 0
M  V30 7233 H 700.554 -3.21175 -2.65019 0
M  V30 7234 H 703.151 -1.78771 -5.03929 0
M  V30 7235 H 703.494 -0.323987 -4.15037 0
M  V30 7236 H 704.027 -1.89284 -3.49881 0
M  V30 7237 H 700.766 -4.68811 -4.58145 0
M  V30 7238 H 700.286 -3.073 -5.15099 0
M  V30 7239 H 701.965 -3.63134 -5.35484 0
M  V30 7240 N 702.098 1.27442 -0.927168 0
M  V30 7241 C 703.028 2.29256 -0.443188 0
M  V30 7242 C 704.009 1.62701 0.49624 0
M  V30 7243 O 705.194 1.90013 0.401105 0
M  V30 7244 C 702.324 3.45955 0.305366 0
M  V30 7245 C 701.278 4.24501 -0.546178 0
M  V30 7246 C 700.604 5.33671 0.331512 0
M  V30 7247 C 701.904 4.89921 -1.81037 0
M  V30 7248 H 703.598 2.69988 -1.29409 0
M  V30 7249 H 701.144 1.29792 -0.623705 0
M  V30 7250 H 703.097 4.1628 0.654885 0
M  V30 7251 H 701.821 3.04138 1.19029 0
M  V30 7252 H 700.48 3.55921 -0.878398 0
M  V30 7253 H 700.128 4.88096 1.21537 0
M  V30 7254 H 699.828 5.87131 -0.234746 0
M  V30 7255 H 701.352 6.0684 0.676614 0
M  V30 7256 H 702.766 5.52536 -1.52895 0
M  V30 7257 H 701.163 5.53436 -2.32009 0
M  V30 7258 H 702.233 4.13652 -2.53021 0
M  V30 7259 N 703.576 0.692616 1.41565 0
M  V30 7260 C 704.539 0.0344174 2.29174 0
M  V30 7261 C 705.539 -0.710961 1.44229 0
M  V30 7262 O 706.729 -0.546293 1.65412 0
M  V30 7263 C 703.861 -0.961682 3.27054 0
M  V30 7264 H 705.054 0.805755 2.88873 0
M  V30 7265 H 702.607 0.455947 1.49502 0
M  V30 7266 H 703.342 -1.76089 2.72329 0
M  V30 7267 H 703.127 -0.430375 3.89731 0
M  V30 7268 H 704.617 -1.4201 3.92712 0
M  V30 7269 N 705.054 -1.51416 0.437162 0
M  V30 7270 C 706.002 -2.29328 -0.388765 0
M  V30 7271 C 706.996 -1.35171 -1.02104 0
M  V30 7272 O 708.202 -1.52513 -0.956024 0
M  V30 7273 H 704.577 -0.738048 -0.144183 0
M  V30 7274 H 706.548 -2.96995 0.289212 0
M  V30 7275 C 705.297 -3.14741 -1.47761 0
M  V30 7276 H 704.62 -3.8708 -1.00045 0
M  V30 7277 H 706.06 -3.72313 -2.02877 0
M  V30 7278 C 704.519 -2.30105 -2.46076 0
M  V30 7279 O 705.049 -1.96055 -3.50607 0
M  V30 7280 N 703.255 -1.93331 -2.1696 0
M  V30 7281 H 702.802 -2.2122 -1.31983 0
M  V30 7282 H 702.76 -1.36999 -2.82982 0
M  V30 7283 N 706.532 -0.168513 -1.56696 0
M  V30 7284 C 707.482 0.7751 -2.14421 0
M  V30 7285 C 708.466 1.19476 -1.07769 0
M  V30 7286 O 709.658 1.15759 -1.33898 0
M  V30 7287 C 706.787 2.00549 -2.7863 0
M  V30 7288 C 705.873 1.60795 -3.92436 0
M  V30 7289 N 706.264 0.919812 -4.97366 0
M  V30 7290 C 704.562 1.89917 -4.03544 0
M  V30 7291 C 705.263 0.724485 -5.77171 0
M  V30 7292 N 704.239 1.26505 -5.28675 0
M  V30 7293 H 708.041 0.240349 -2.92916 0
M  V30 7294 H 705.555 0.0322675 -1.62368 0
M  V30 7295 H 707.552 2.6917 -3.1836 0
M  V30 7296 H 706.212 2.54522 -2.01615 0
M  V30 7297 H 707.223 0.578169 -5.14663 0
M  V30 7298 H 703.9 2.45587 -3.37629 0
M  V30 7299 H 705.29 0.180521 -6.71657 0
M  V30 7300 N 708.01 1.57248 0.105221 0
M  V30 7301 C 708.973 2.00388 1.11252 0
M  V30 7302 C 709.973 0.89594 1.33527 0
M  V30 7303 O 711.163 1.16166 1.29811 0
M  V30 7304 C 708.295 2.35589 2.46395 0
M  V30 7305 H 709.488 2.90591 0.741424 0
M  V30 7306 H 707.041 1.52332 0.349956 0
M  V30 7307 H 707.776 1.4831 2.884 0
M  V30 7308 H 707.561 3.16408 2.31578 0
M  V30 7309 H 709.051 2.69658 3.18864 0
M  V30 7310 N 709.488 -0.375779 1.53054 0
M  V30 7311 C 710.737 -1.11674 1.67964 0
M  V30 7312 C 711.05 -1.90755 0.432655 0
M  V30 7313 O 712.256 -2.67538 0.462109 0
M  V30 7314 C 710.712 -2.0344 2.96884 0
M  V30 7315 C 710.32 -1.29719 4.28809 0
M  V30 7316 C 712.064 -2.7759 3.2116 0
M  V30 7317 C 709.971 -2.20327 5.48826 0
M  V30 7318 H 708.901 -0.420597 0.625791 0
M  V30 7319 H 711.552 -0.378499 1.79554 0
M  V30 7320 H 709.934 -2.80953 2.79072 0
M  V30 7321 H 711.108 -0.573394 4.57219 0
M  V30 7322 H 709.423 -0.674735 4.10897 0
M  V30 7323 H 712.02 -3.4559 4.0801 0
M  V30 7324 H 712.363 -3.42399 2.36789 0
M  V30 7325 H 712.896 -2.07164 3.396 0
M  V30 7326 H 709.635 -1.60113 6.35645 0
M  V30 7327 H 709.155 -2.90585 5.2471 0
M  V30 7328 H 710.834 -2.80116 5.83219 0
M  V30 7329 N 710.966 -1.44241 -0.634997 0
M  V30 7330 C 711.913 -1.5081 -1.74714 0
M  V30 7331 C 712.883 -0.356147 -1.62237 0
M  V30 7332 O 714.068 -0.565848 -1.82216 0
M  V30 7333 C 711.208 -1.45458 -3.12947 0
M  V30 7334 C 710.321 -2.70998 -3.36428 0
M  V30 7335 C 709.456 -2.57507 -4.64611 0
M  V30 7336 C 708.495 -3.78229 -4.81258 0
M  V30 7337 N 707.632 -3.63438 -6.00714 0
M  V30 7338 H 712.472 -2.45832 -1.68436 0
M  V30 7339 H 710.009 -1.2201 -0.821706 0
M  V30 7340 H 711.967 -1.40347 -3.92885 0
M  V30 7341 H 710.597 -0.540058 -3.1825 0
M  V30 7342 H 709.649 -2.86312 -2.50458 0
M  V30 7343 H 710.961 -3.60619 -3.44609 0
M  V30 7344 H 710.115 -2.50207 -5.52703 0
M  V30 7345 H 708.854 -1.65441 -4.58782 0
M  V30 7346 H 707.859 -3.85918 -3.91596 0
M  V30 7347 H 709.084 -4.71327 -4.88904 0
M  V30 7348 H 707.03 -2.7412 -5.95982 0
M  V30 7349 H 706.947 -4.46672 -6.09934 0
M  V30 7350 H 708.215 -3.60022 -6.91378 0
M  V30 7351 N 712.444 0.87505 -1.31075 0
M  V30 7352 C 713.374 1.99775 -1.20881 0
M  V30 7353 C 714.355 1.69822 -0.0971612 0
M  V30 7354 O 715.54 1.92158 -0.280895 0
M  V30 7355 C 712.67 3.35163 -0.910118 0
M  V30 7356 C 711.624 3.79406 -1.98078 0
M  V30 7357 C 710.95 5.12197 -1.53488 0
M  V30 7358 C 712.25 3.97061 -3.39323 0
M  V30 7359 H 713.944 2.08562 -2.14808 0
M  V30 7360 H 711.49 1.00207 -1.03415 0
M  V30 7361 H 713.443 4.13237 -0.825423 0
M  V30 7362 H 712.167 3.26536 0.064822 0
M  V30 7363 H 710.826 3.03568 -2.05528 0
M  V30 7364 H 710.474 5.00007 -0.547941 0
M  V30 7365 H 710.174 5.4277 -2.2511 0
M  V30 7366 H 711.698 5.92785 -1.46417 0
M  V30 7367 H 713.112 4.65545 -3.34576 0
M  V30 7368 H 711.509 4.39025 -4.09118 0
M  V30 7369 H 712.579 3.00601 -3.80483 0
M  V30 7370 N 713.922 1.13953 1.08869 0
M  V30 7371 C 714.852 0.844824 2.17681 0
M  V30 7372 C 715.833 -0.198213 1.68941 0
M  V30 7373 O 717.018 -0.0559073 1.9412 0
M  V30 7374 C 714.148 0.316325 3.45856 0
M  V30 7375 C 713.102 1.29426 4.07962 0
M  V30 7376 C 712.428 0.625275 5.31031 0
M  V30 7377 C 713.728 2.65484 4.49795 0
M  V30 7378 H 715.422 1.75471 2.42591 0
M  V30 7379 H 712.968 0.845116 1.16592 0
M  V30 7380 H 714.921 0.0977876 4.21287 0
M  V30 7381 H 713.645 -0.628972 3.20486 0
M  V30 7382 H 712.304 1.49889 3.34558 0
M  V30 7383 H 711.952 -0.325678 5.01945 0
M  V30 7384 H 711.652 1.27777 5.73539 0
M  V30 7385 H 713.176 0.416152 6.0918 0
M  V30 7386 H 714.59 2.48957 5.16424 0
M  V30 7387 H 712.987 3.26963 5.03205 0
M  V30 7388 H 714.057 3.22717 3.61914 0
M  V30 7389 N 715.4 -1.26948 0.933913 0
M  V30 7390 C 716.628 -1.98186 0.59414 0
M  V30 7391 C 717.043 -1.69614 -0.829257 0
M  V30 7392 O 716.4 -0.960213 -1.55197 0
M  V30 7393 C 716.451 -3.52123 0.818026 0
M  V30 7394 O 716.172 -3.79698 2.18543 0
M  V30 7395 C 717.673 -4.40608 0.48781 0
M  V30 7396 H 714.893 -0.632305 0.224569 0
M  V30 7397 H 717.437 -1.61646 1.25263 0
M  V30 7398 H 715.592 -3.86851 0.206246 0
M  V30 7399 H 716.006 -4.7426 2.24005 0
M  V30 7400 H 717.48 -5.47606 0.695126 0
M  V30 7401 H 717.957 -4.35394 -0.576913 0
M  V30 7402 H 718.563 -4.11411 1.078 0
M  V30 7403 N 716.879 -0.700114 -1.41195 0
M  V30 7404 C 718.104 -0.240704 -2.05998 0
M  V30 7405 C 718.529 1.10313 -1.52357 0
M  V30 7406 O 717.887 1.69154 -0.652424 0
M  V30 7407 C 717.935 -0.213783 -3.59966 0
M  V30 7408 O 717.039 0.809933 -4.04368 0
M  V30 7409 H 716.38 -0.116471 -0.653705 0
M  V30 7410 H 718.91 -0.956251 -1.80878 0
M  V30 7411 H 718.92 -0.0461852 -4.07974 0
M  V30 7412 H 717.595 -1.19454 -3.98376 0
M  V30 7413 H 716.172 0.611319 -3.67855 0
M  V30 7414 N 718.357 1.51182 -0.445186 0
M  V30 7415 C 719.287 2.30821 0.352686 0
M  V30 7416 C 720.268 1.36576 1.01395 0
M  V30 7417 O 721.453 1.65497 1.01609 0
M  V30 7418 C 718.583 3.15593 1.44976 0
M  V30 7419 C 717.537 4.1818 0.911553 0
M  V30 7420 C 716.863 4.91523 2.10497 0
M  V30 7421 C 718.163 5.22266 -0.059418 0
M  V30 7422 H 719.857 2.97771 -0.311936 0
M  V30 7423 H 717.403 1.43201 -0.151461 0
M  V30 7424 H 719.356 3.70091 2.01521 0
M  V30 7425 H 718.08 2.4648 2.14278 0
M  V30 7426 H 716.739 3.64746 0.368264 0
M  V30 7427 H 716.387 4.18906 2.78437 0
M  V30 7428 H 716.087 5.60898 1.7512 0
M  V30 7429 H 717.611 5.48847 2.6758 0
M  V30 7430 H 719.025 5.71789 0.415985 0
M  V30 7431 H 717.422 5.99213 -0.326152 0
M  V30 7432 H 718.492 4.7461 -0.993631 0
M  V30 7433 N 719.835 0.176821 1.56605 0
M  V30 7434 C 721.082 -0.466715 1.97048 0
M  V30 7435 C 721.41 -1.6288 1.06302 0
M  V30 7436 O 720.665 -1.95453 0.0982571 0
M  V30 7437 C 720.964 -0.986208 3.43524 0
M  V30 7438 C 720.63 0.0605667 4.50859 0
M  V30 7439 C 719.292 0.348242 4.79938 0
M  V30 7440 C 721.644 0.770794 5.15469 0
M  V30 7441 C 718.972 1.35144 5.70923 0
M  V30 7442 C 721.324 1.76301 6.07537 0
M  V30 7443 C 719.988 2.05808 6.3498 0
M  V30 7444 H 719.258 -0.170783 0.721051 0
M  V30 7445 H 721.905 0.269942 1.89588 0
M  V30 7446 H 720.21 -1.80079 3.47964 0
M  V30 7447 H 721.907 -1.49323 3.72161 0
M  V30 7448 H 718.497 -0.173823 4.28247 0
M  V30 7449 H 722.681 0.56176 4.9311 0
M  V30 7450 H 717.937 1.58616 5.90467 0
M  V30 7451 H 722.111 2.31868 6.56666 0
M  V30 7452 H 719.738 2.8369 7.05283 0
M  V30 7453 N 721.313 -1.57302 -0.09688 0
M  V30 7454 C 722.245 -1.98618 -1.14384 0
M  V30 7455 C 723.258 -0.888483 -1.36418 0
M  V30 7456 O 724.447 -1.16661 -1.35101 0
M  V30 7457 C 721.547 -2.28838 -2.49973 0
M  V30 7458 C 720.72 -3.60132 -2.48241 0
M  V30 7459 C 719.779 -3.7831 -3.65743 0
M  V30 7460 O 718.805 -4.50183 -3.48316 0
M  V30 7461 N 720.007 -3.18752 -4.85157 0
M  V30 7462 H 722.772 -2.8904 -0.792202 0
M  V30 7463 H 720.333 -1.59356 -0.285883 0
M  V30 7464 H 722.325 -2.38193 -3.27179 0
M  V30 7465 H 720.895 -1.44431 -2.77233 0
M  V30 7466 H 720.115 -3.61763 -1.56593 0
M  V30 7467 H 721.403 -4.46389 -2.4416 0
M  V30 7468 H 720.801 -2.60368 -5.0222 0
M  V30 7469 H 719.358 -3.33595 -5.59962 0
M  V30 7470 N 722.791 0.367657 -1.53252 0
M  V30 7471 C 724.068 1.12606 -1.59935 0
M  V30 7472 C 724.448 2.07167 -0.405606 0
M  V30 7473 O 723.796 2.20364 0.604323 0
M  V30 7474 C 724.006 1.86699 -2.94863 0
M  V30 7475 C 725.354 2.41306 -3.49366 0
M  V30 7476 O 726.378 1.96828 -2.96879 0
M  V30 7477 O 725.237 3.2261 -4.41118 0
M  V30 7478 H 722.331 0.516438 -0.645926 0
M  V30 7479 H 724.877 0.371088 -1.65593 0
M  V30 7480 H 723.649 1.17674 -3.73187 0
M  V30 7481 H 723.272 2.6911 -2.92687 0
M  V30 7482 N 724.269 1.44576 0.627338 0
M  V30 7483 C 725.199 1.54562 1.75022 0
M  V30 7484 C 726.18 0.398378 1.65369 0
M  V30 7485 O 727.365 0.61899 1.84071 0
M  V30 7486 C 724.495 1.49309 3.13567 0
M  V30 7487 C 723.449 2.62549 3.38012 0
M  V30 7488 C 722.775 2.42348 4.76625 0
M  V30 7489 C 724.075 4.04678 3.30202 0
M  V30 7490 H 725.769 2.4855 1.66922 0
M  V30 7491 H 723.315 1.19624 0.801636 0
M  V30 7492 H 725.268 1.54895 3.919 0
M  V30 7493 H 723.992 0.518392 3.2246 0
M  V30 7494 H 722.651 2.56358 2.62061 0
M  V30 7495 H 722.299 1.43062 4.82226 0
M  V30 7496 H 721.999 3.18273 4.93939 0
M  V30 7497 H 723.523 2.49758 5.57183 0
M  V30 7498 H 724.937 4.12217 3.98435 0
M  V30 7499 H 723.334 4.80836 3.5905 0
M  V30 7500 H 724.404 4.2798 2.27949 0
M  V30 7501 N 725.747 -0.868086 1.31537 0
M  V30 7502 C 726.679 -1.98165 1.15166 0
M  V30 7503 C 727.692 -1.6255 0.0902335 0
M  V30 7504 O 728.881 -1.75272 0.33791 0
M  V30 7505 C 725.981 -3.30772 0.737776 0
M  V30 7506 C 725.154 -3.94716 1.88462 0
M  V30 7507 C 724.213 -5.05641 1.45648 0
M  V30 7508 O 723.239 -5.2636 2.16642 0
M  V30 7509 N 724.441 -5.79474 0.34493 0
M  V30 7510 H 727.206 -2.12754 2.11083 0
M  V30 7511 H 724.767 -1.04217 1.23897 0
M  V30 7512 H 726.759 -4.02366 0.434032 0
M  V30 7513 H 725.329 -3.1233 -0.129834 0
M  V30 7514 H 724.549 -3.16079 2.35558 0
M  V30 7515 H 725.837 -4.34175 2.65273 0
M  V30 7516 H 725.235 -5.65164 -0.246259 0
M  V30 7517 H 723.792 -6.51722 0.100728 0
M  V30 7518 N 727.225 -1.14528 -1.08264 0
M  V30 7519 C 728.471 -0.91576 -1.80947 0
M  V30 7520 C 728.804 0.55623 -1.86064 0
M  V30 7521 O 728.079 1.41207 -1.33756 0
M  V30 7522 C 728.362 -1.51917 -3.26486 0
M  V30 7523 C 728.215 -3.06111 -3.2957 0
M  V30 7524 C 729.534 -1.19724 -4.23502 0
M  V30 7525 H 726.653 -0.334113 -0.656915 0
M  V30 7526 H 729.295 -1.41547 -1.26746 0
M  V30 7527 H 727.445 -1.0942 -3.72773 0
M  V30 7528 H 729.117 -3.57448 -2.91597 0
M  V30 7529 H 727.36 -3.40483 -2.688 0
M  V30 7530 H 728.031 -3.43438 -4.32151 0
M  V30 7531 H 730.507 -1.56467 -3.85561 0
M  V30 7532 H 729.383 -1.64575 -5.23647 0
M  V30 7533 H 729.644 -0.112771 -4.41956 0
M  V30 7534 N 728.703 1.26451 -0.940633 0
M  V30 7535 C 729.613 2.30128 -0.455881 0
M  V30 7536 C 730.629 1.67536 0.469867 0
M  V30 7537 O 731.805 1.98344 0.349529 0
M  V30 7538 C 728.87 3.45634 0.271648 0
M  V30 7539 C 727.931 4.23709 -0.690594 0
M  V30 7540 C 727.164 5.337 0.00231047 0
M  V30 7541 O 727.387 5.57215 1.21935 0
M  V30 7542 O 726.321 5.98091 -0.676111 0
M  V30 7543 H 730.147 2.73655 -1.31707 0
M  V30 7544 H 727.732 1.3164 -0.706497 0
M  V30 7545 H 729.614 4.15853 0.681486 0
M  V30 7546 H 728.289 3.04138 1.10824 0
M  V30 7547 H 727.196 3.55974 -1.15037 0
M  V30 7548 H 728.529 4.68953 -1.49478 0
M  V30 7549 N 730.181 0.707592 1.40822 0
M  V30 7550 C 731.144 0.0587224 2.29125 0
M  V30 7551 C 732.144 -0.695624 1.44975 0
M  V30 7552 O 733.334 -0.528718 1.65983 0
M  V30 7553 C 730.466 -0.926939 3.28056 0
M  V30 7554 H 731.659 0.836349 2.88002 0
M  V30 7555 H 729.212 0.471778 1.4901 0
M  V30 7556 H 729.947 -1.7319 2.74182 0
M  V30 7557 H 729.732 -0.389015 3.90165 0
M  V30 7558 H 731.222 -1.37837 3.94196 0
M  V30 7559 N 731.66 -1.50943 0.453197 0
M  V30 7560 C 732.59 -2.31005 -0.34044 0
M  V30 7561 C 733.571 -1.37112 -1.00669 0
M  V30 7562 O 734.756 -1.66033 -1.0073 0
M  V30 7563 C 731.886 -3.16358 -1.433 0
M  V30 7564 C 730.84 -4.18658 -0.889363 0
M  V30 7565 C 730.166 -4.92633 -2.07887 0
M  V30 7566 C 731.466 -5.22227 0.0871142 0
M  V30 7567 H 733.16 -2.97601 0.327723 0
M  V30 7568 H 730.706 -1.43119 0.159054 0
M  V30 7569 H 732.659 -3.71155 -1.99555 0
M  V30 7570 H 731.383 -2.47613 -2.12968 0
M  V30 7571 H 730.042 -3.64936 -0.348915 0
M  V30 7572 H 729.69 -4.20376 -2.76211 0
M  V30 7573 H 729.39 -5.61819 -1.72143 0
M  V30 7574 H 730.914 -5.50258 -2.64666 0
M  V30 7575 H 732.328 -5.72001 -0.385656 0
M  V30 7576 H 730.725 -5.99032 0.357926 0
M  V30 7577 H 731.795 -4.74077 1.01879 0
M  V30 7578 N 733.138 -0.185124 -1.56509 0
M  V30 7579 C 734.088 0.752315 -2.15231 0
M  V30 7580 C 735.072 1.18327 -1.0903 0
M  V30 7581 O 736.264 1.14333 -1.35119 0
M  V30 7582 C 733.393 1.97583 -2.80742 0
M  V30 7583 C 732.479 1.56623 -3.94119 0
M  V30 7584 N 732.87 0.867008 -4.98314 0
M  V30 7585 C 731.168 1.85626 -4.05535 0
M  V30 7586 C 731.869 0.663228 -5.77907 0
M  V30 7587 N 730.845 1.20891 -5.29987 0
M  V30 7588 H 734.647 0.209267 -2.93154 0
M  V30 7589 H 732.161 0.0150444 -1.62393 0
M  V30 7590 H 734.158 2.65779 -3.21197 0
M  V30 7591 H 732.818 2.52369 -2.04303 0
M  V30 7592 H 733.829 0.52355 -5.15247 0
M  V30 7593 H 730.506 2.41992 -3.40215 0
M  V30 7594 H 731.896 0.109273 -6.71811 0
M  V30 7595 N 734.616 1.57351 0.0885366 0
M  V30 7596 C 735.563 2.02523 1.10693 0
M  V30 7597 C 736.533 0.902736 1.39427 0
M  V30 7598 O 737.718 1.16921 1.50779 0
M  V30 7599 C 734.858 2.46013 2.42016 0
M  V30 7600 C 733.971 3.7181 2.19957 0
M  V30 7601 C 733.106 4.04152 3.44724 0
M  V30 7602 C 732.145 5.2304 3.17956 0
M  V30 7603 N 731.282 5.51102 4.35007 0
M  V30 7604 H 736.122 2.89302 0.714742 0
M  V30 7605 H 733.659 1.43084 0.341378 0
M  V30 7606 H 735.617 2.69274 3.18665 0
M  V30 7607 H 734.247 1.62235 2.79069 0
M  V30 7608 H 733.299 3.55987 1.34079 0
M  V30 7609 H 734.611 4.58604 1.96173 0
M  V30 7610 H 733.765 4.28225 4.29777 0
M  V30 7611 H 732.504 3.15893 3.71568 0
M  V30 7612 H 731.509 4.98781 2.31296 0
M  V30 7613 H 732.734 6.12902 2.92451 0
M  V30 7614 H 730.68 4.65802 4.61914 0
M  V30 7615 H 730.597 6.3228 4.14437 0
M  V30 7616 H 731.865 5.79714 5.21106 0
M  V30 7617 N 736.094 -0.359525 1.53444 0
M  V30 7618 C 737.342 -1.09935 1.69584 0
M  V30 7619 C 737.663 -1.89656 0.453371 0
M  V30 7620 O 736.933 -1.8852 -0.53263 0
M  V30 7621 H 735.513 -0.408843 0.625185 0
M  V30 7622 H 738.175 -0.40467 1.90653 0
M  V30 7623 H 737.271 -1.78575 2.55964 0
M  V30 7624 N 737.572 -1.44907 -0.619662 0
M  V30 7625 C 738.818 -1.49504 -1.37914 0
M  V30 7626 C 739.173 -0.130158 -1.91959 0
M  V30 7627 O 738.466 0.856263 -1.71402 0
M  V30 7628 C 738.66 -2.50002 -2.55409 0
M  V30 7629 C 738.489 -3.96128 -2.12867 0
M  V30 7630 C 737.259 -4.64204 -1.99606 0
M  V30 7631 C 739.457 -4.85014 -1.71074 0
M  V30 7632 N 737.439 -5.95104 -1.50748 0
M  V30 7633 C 738.81 -6.05447 -1.33544 0
M  V30 7634 C 740.865 -4.71979 -1.58557 0
M  V30 7635 C 739.568 -7.1429 -0.847484 0
M  V30 7636 C 741.594 -5.80858 -1.11165 0
M  V30 7637 C 740.956 -7.00439 -0.745932 0
M  V30 7638 H 737.055 -0.60207 -0.499034 0
M  V30 7639 H 739.639 -1.81305 -0.70968 0
M  V30 7640 H 737.81 -2.20172 -3.19967 0
M  V30 7641 H 739.542 -2.44823 -3.22248 0
M  V30 7642 H 736.297 -4.19182 -2.20417 0
M  V30 7643 H 736.721 -6.64676 -1.28585 0
M  V30 7644 H 741.363 -3.79953 -1.85461 0
M  V30 7645 H 739.081 -8.06116 -0.565974 0
M  V30 7646 H 742.667 -5.72803 -1.01923 0
M  V30 7647 H 741.547 -7.83255 -0.384848 0
M  V30 7648 N 739.05 0.861098 -1.31996 0
M  V30 7649 C 739.96 2.00154 -1.22374 0
M  V30 7650 C 740.976 1.73447 -0.138631 0
M  V30 7651 O 742.152 1.98191 -0.358104 0
M  V30 7652 C 739.217 3.33696 -0.940645 0
M  V30 7653 C 738.278 3.73668 -2.11355 0
M  V30 7654 C 737.511 5.00837 -1.84386 0
M  V30 7655 O 737.734 5.64996 -0.783287 0
M  V30 7656 O 736.668 5.37787 -2.70313 0
M  V30 7657 H 740.494 2.11207 -2.18233 0
M  V30 7658 H 738.079 0.990768 -1.11822 0
M  V30 7659 H 739.961 4.13756 -0.798987 0
M  V30 7660 H 738.636 3.23698 -0.0121636 0
M  V30 7661 H 737.543 2.94211 -2.31065 0
M  V30 7662 H 738.876 3.88303 -3.02459 0
M  V30 7663 N 740.528 1.15101 1.07655 0
M  V30 7664 C 741.756 0.947731 1.83918 0
M  V30 7665 C 742.171 -0.503927 1.81951 0
M  V30 7666 O 741.528 -1.34941 1.2287 0
M  V30 7667 C 741.579 1.4503 3.31132 0
M  V30 7668 O 741.3 2.84508 3.33146 0
M  V30 7669 C 742.801 1.28806 4.24174 0
M  V30 7670 H 740.021 0.336786 0.580358 0
M  V30 7671 H 742.565 1.52799 1.35914 0
M  V30 7672 H 740.72 0.912632 3.76497 0
M  V30 7673 H 741.134 3.0723 4.251 0
M  V30 7674 H 742.608 1.6882 5.25551 0
M  V30 7675 H 743.085 0.231851 4.38588 0
M  V30 7676 H 743.691 1.81465 3.84643 0
M  V30 7677 N 742.006 -1.2595 0.947325 0
M  V30 7678 C 743.283 -1.88676 0.515824 0
M  V30 7679 C 743.663 -1.85547 -1.00675 0
M  V30 7680 O 743.011 -1.31399 -1.8694 0
M  V30 7681 C 743.221 -3.31734 1.08415 0
M  V30 7682 C 744.569 -4.08545 1.15654 0
M  V30 7683 O 745.593 -3.40826 1.03517 0
M  V30 7684 O 744.452 -5.29663 1.34608 0
M  V30 7685 H 741.546 -0.809537 0.169055 0
M  V30 7686 H 744.092 -1.34075 1.04029 0
M  V30 7687 H 742.864 -3.28404 2.1276 0
M  V30 7688 H 742.487 -3.93882 0.542499 0
M  V30 7689 N 743.484 -0.715051 -1.40445 0
M  V30 7690 C 744.732 -0.253826 -2.005 0
M  V30 7691 C 745.053 1.15681 -1.5698 0
M  V30 7692 O 744.323 1.78414 -0.809027 0
M  V30 7693 H 742.903 -0.0908537 -0.741454 0
M  V30 7694 H 745.565 -0.920561 -1.7179 0
M  V30 7695 H 744.661 -0.286499 -3.10782 0
M  V30 7696 N 744.962 1.50701 -0.461195 0
M  V30 7697 C 746.373 1.867 -0.00370227 0
M  V30 7698 C 746.724 1.37673 1.39787 0
M  V30 7699 O 745.849 0.737515 2.03445 0
M  V30 7700 C 746.444 3.388 5.75786e-05 0
M  V30 7701 C 745.003 3.74247 0.402044 0
M  V30 7702 C 744.15 2.74549 -0.389652 0
M  V30 7703 H 747.101 1.43585 -0.675942 0
M  V30 7704 H 747.122 3.719 0.804414 0
M  V30 7705 H 746.634 3.74452 -1.02015 0
M  V30 7706 H 744.735 3.44192 1.42697 0
M  V30 7707 H 744.848 4.78973 0.110265 0
M  V30 7708 H 743.212 2.54226 0.155314 0
M  V30 7709 H 743.995 3.13044 -1.40919 0
M  V30 7710 N 746.441 0.193421 1.56409 0
M  V30 7711 C 747.852 -0.319471 1.83946 0
M  V30 7712 C 748.203 -1.61505 1.11403 0
M  V30 7713 O 747.328 -2.13139 0.374289 0
M  V30 7714 C 747.923 -0.586411 3.33686 0
M  V30 7715 C 746.482 -1.04368 3.61641 0
M  V30 7716 C 745.629 -0.0913834 2.77149 0
M  V30 7717 H 748.58 0.417242 1.53117 0
M  V30 7718 H 748.601 -1.43591 3.52366 0
M  V30 7719 H 748.113 0.356701 3.86457 0
M  V30 7720 H 746.214 -2.00113 3.14302 0
M  V30 7721 H 746.327 -0.937549 4.69837 0
M  V30 7722 H 744.691 -0.592954 2.47702 0
M  V30 7723 H 745.474 0.846142 3.32709 0
M  V30 7724 N 747.919 -1.57396 -0.0801906 0
M  V30 7725 C 748.882 -2.02133 -1.0805 0
M  V30 7726 C 749.882 -0.91707 -1.32085 0
M  V30 7727 O 751.072 -1.18217 -1.27947 0
M  V30 7728 C 748.204 -2.39479 -2.42616 0
M  V30 7729 H 749.397 -2.91733 -0.6951 0
M  V30 7730 H 746.95 -1.52869 -0.325677 0
M  V30 7731 H 747.685 -1.52879 -2.86004 0
M  V30 7732 H 747.47 -3.20052 -2.26515 0
M  V30 7733 H 748.96 -2.74697 -3.14534 0
M  V30 7734 N 749.397 0.351382 -1.53633 0
M  V30 7735 C 750.36 1.41403 -1.80383 0
M  V30 7736 C 751.36 1.45963 -0.674635 0
M  V30 7737 O 752.55 1.46476 -0.942895 0
M  V30 7738 C 749.682 2.80401 -1.93876 0
M  V30 7739 H 750.875 1.18951 -2.75301 0
M  V30 7740 H 748.428 0.58533 -1.44926 0
M  V30 7741 H 749.163 3.08147 -1.01074 0
M  V30 7742 H 748.948 2.78488 -2.7602 0
M  V30 7743 H 750.438 3.57329 -2.16116 0
M  V30 7744 N 750.875 1.45233 0.611969 0
M  V30 7745 C 751.805 1.5641 1.73373 0
M  V30 7746 C 752.786 0.415896 1.64937 0
M  V30 7747 O 753.971 0.638478 1.83404 0
M  V30 7748 C 751.101 1.52627 3.11965 0
M  V30 7749 C 750.055 2.66119 3.35208 0
M  V30 7750 C 749.381 2.4739 4.74028 0
M  V30 7751 C 750.681 4.08157 3.25891 0
M  V30 7752 H 752.375 2.50307 1.64277 0
M  V30 7753 H 749.921 1.20467 0.788904 0
M  V30 7754 H 751.874 1.59043 3.90235 0
M  V30 7755 H 750.598 0.552564 3.21892 0
M  V30 7756 H 749.257 2.59123 2.59327 0
M  V30 7757 H 748.905 1.48168 4.80682 0
M  V30 7758 H 748.605 3.23494 4.90536 0
M  V30 7759 H 750.129 2.55653 5.54503 0
M  V30 7760 H 751.543 4.1642 3.9404 0
M  V30 7761 H 749.94 4.84617 3.5393 0
M  V30 7762 H 751.01 4.30374 2.23397 0
M  V30 7763 N 752.353 -0.854086 1.3245 0
M  V30 7764 C 753.578 -1.64597 1.26185 0
M  V30 7765 C 754.003 -1.87357 -0.167074 0
M  V30 7766 O 753.361 -1.42675 -1.11864 0
M  V30 7767 C 753.409 -2.98213 2.02734 0
M  V30 7768 O 752.513 -3.88784 1.37554 0
M  V30 7769 H 751.854 -0.50179 0.434859 0
M  V30 7770 H 754.384 -1.06372 1.74775 0
M  V30 7771 H 754.394 -3.4803 2.1293 0
M  V30 7772 H 753.069 -2.80969 3.06642 0
M  V30 7773 H 751.646 -3.4725 1.3591 0
M  V30 7774 N 753.831 -1.1567 -1.07043 0
M  V30 7775 C 755.08 -0.928039 -1.79082 0
M  V30 7776 C 755.393 0.545968 -1.87826 0
M  V30 7777 O 756.599 0.892308 -2.56418 0
M  V30 7778 C 755.055 -1.61103 -3.21829 0
M  V30 7779 C 754.663 -3.12228 -3.21275 0
M  V30 7780 C 756.407 -1.46404 -3.98455 0
M  V30 7781 C 754.314 -3.733 -4.58695 0
M  V30 7782 H 753.244 -0.34357 -0.671175 0
M  V30 7783 H 755.895 -1.38718 -1.20123 0
M  V30 7784 H 754.277 -1.07958 -3.81 0
M  V30 7785 H 755.451 -3.72155 -2.71731 0
M  V30 7786 H 753.766 -3.26725 -2.58147 0
M  V30 7787 H 756.363 -1.8942 -5.00024 0
M  V30 7788 H 756.706 -0.41195 -4.14257 0
M  V30 7789 H 757.239 -1.96663 -3.45787 0
M  V30 7790 H 753.978 -4.78423 -4.48098 0
M  V30 7791 H 753.498 -3.18157 -5.08465 0
M  V30 7792 H 755.177 -3.7441 -5.27661 0
M  V30 7793 N 755.309 1.25446 -0.953992 0
M  V30 7794 C 756.242 2.24341 -0.417912 0
M  V30 7795 C 757.22 1.54709 0.5004 0
M  V30 7796 O 758.404 1.83414 0.434923 0
M  V30 7797 C 755.531 3.36352 0.398155 0
M  V30 7798 C 754.577 4.24007 -0.460461 0
M  V30 7799 S 755.41 5.00951 -1.89231 0
M  V30 7800 C 756.566 6.1643 -1.08465 0
M  V30 7801 H 756.799 2.69465 -1.25602 0
M  V30 7802 H 754.332 1.34512 -0.758018 0
M  V30 7803 H 756.29 4.01325 0.863059 0
M  V30 7804 H 754.951 2.89813 1.21108 0
M  V30 7805 H 754.144 5.03728 0.165415 0
M  V30 7806 H 753.746 3.63965 -0.860549 0
M  V30 7807 H 756.038 6.76681 -0.333017 0
M  V30 7808 H 756.981 6.8335 -1.85577 0
M  V30 7809 H 757.389 5.61139 -0.615062 0
M  V30 7810 N 756.787 0.722489 1.40064 0
M  V30 7811 C 757.75 0.0830209 2.2905 0
M  V30 7812 C 758.75 -0.680208 1.45705 0
M  V30 7813 O 759.94 -0.511084 1.66534 0
M  V30 7814 C 757.072 -0.892092 3.29021 0
M  V30 7815 H 758.265 0.866848 2.87099 0
M  V30 7816 H 755.818 0.487556 1.48501 0
M  V30 7817 H 756.553 -1.70273 2.76003 0
M  V30 7818 H 756.338 -0.34761 3.90556 0
M  V30 7819 H 757.828 -1.33648 3.95636 0
M  V30 7820 N 758.265 -1.50454 0.469181 0
M  V30 7821 C 759.197 -2.26319 -0.362247 0
M  V30 7822 C 760.21 -1.31574 -0.958751 0
M  V30 7823 O 761.399 -1.57099 -0.847482 0
M  V30 7824 C 758.499 -3.02808 -1.52187 0
M  V30 7825 C 757.672 -4.24893 -1.03849 0
M  V30 7826 C 756.731 -4.83691 -2.07194 0
M  V30 7827 O 755.757 -5.44659 -1.65333 0
M  V30 7828 N 756.959 -4.70522 -3.39985 0
M  V30 7829 H 759.724 -2.98312 0.288124 0
M  V30 7830 H 757.285 -1.59099 0.299856 0
M  V30 7831 H 759.277 -3.39023 -2.21011 0
M  V30 7832 H 757.847 -2.33625 -2.07697 0
M  V30 7833 H 757.067 -3.93806 -0.176203 0
M  V30 7834 H 758.355 -5.04053 -0.693435 0
M  V30 7835 H 757.753 -4.2203 -3.76706 0
M  V30 7836 H 756.31 -5.11011 -4.04612 0
M  V30 7837 N 759.743 -0.201713 -1.56304 0
M  V30 7838 C 760.968 0.443815 -2.02596 0
M  V30 7839 C 761.393 1.53945 -1.08086 0
M  V30 7840 O 760.751 1.81182 -0.0655056 0
M  V30 7841 C 760.799 0.971066 -3.47279 0
M  V30 7842 O 759.903 2.0836 -3.55893 0
M  V30 7843 H 759.244 0.10294 -0.655972 0
M  V30 7844 H 761.774 -0.314533 -2.02168 0
M  V30 7845 H 761.784 1.28598 -3.87204 0
M  V30 7846 H 760.459 0.169048 -4.15556 0
M  V30 7847 H 759.036 1.77683 -3.27846 0
M  V30 7848 N 761.222 1.57436 0.0718424 0
M  V30 7849 C 762.45 1.91474 0.783932 0
M  V30 7850 C 762.865 0.797669 1.71122 0
M  V30 7851 O 762.222 -0.228989 1.81058 0
M  V30 7852 C 762.273 3.25259 1.57761 0
M  V30 7853 O 761.994 4.3267 0.687596 0
M  V30 7854 C 763.495 3.7331 2.3907 0
M  V30 7855 H 760.715 0.632901 0.222885 0
M  V30 7856 H 763.259 2.04457 0.0421262 0
M  V30 7857 H 761.414 3.13804 2.27169 0
M  V30 7858 H 761.828 5.09641 1.23962 0
M  V30 7859 H 763.302 4.69551 2.90216 0
M  V30 7860 H 763.779 3.02318 3.18591 0
M  V30 7861 H 764.385 3.8771 1.74818 0
M  V30 7862 N 762.7 -0.34323 1.53817 0
M  V30 7863 C 763.925 -1.1079 1.75329 0
M  V30 7864 C 764.35 -1.81571 0.491293 0
M  V30 7865 O 763.708 -1.72561 -0.556089 0
M  V30 7866 C 763.756 -2.09681 2.9337 0
M  V30 7867 O 762.86 -3.17207 2.63541 0
M  V30 7868 H 762.201 -0.320402 0.581583 0
M  V30 7869 H 764.731 -0.393525 2.0078 0
M  V30 7870 H 764.741 -2.52897 3.20168 0
M  V30 7871 H 763.416 -1.5756 3.84899 0
M  V30 7872 H 761.993 -2.78806 2.47632 0
M  V30 7873 N 764.178 -1.45556 -0.604258 0
M  V30 7874 C 765.427 -1.49019 -1.35928 0
M  V30 7875 C 765.74 -0.137409 -1.95117 0
M  V30 7876 O 766.946 -0.0497032 -2.71455 0
M  V30 7877 C 765.402 -2.62477 -2.46239 0
M  V30 7878 C 765.01 -4.04082 -1.93447 0
M  V30 7879 C 766.754 -2.7519 -3.23219 0
M  V30 7880 C 764.661 -5.08917 -3.0126 0
M  V30 7881 H 763.591 -0.554518 -0.510907 0
M  V30 7882 H 766.242 -1.71705 -0.647262 0
M  V30 7883 H 764.624 -2.3308 -3.2014 0
M  V30 7884 H 765.798 -4.43173 -1.26232 0
M  V30 7885 H 764.113 -3.95849 -1.29201 0
M  V30 7886 H 766.71 -3.50683 -4.0364 0
M  V30 7887 H 767.053 -1.81941 -3.74437 0
M  V30 7888 H 767.586 -3.04129 -2.56418 0
M  V30 7889 H 764.325 -6.03886 -2.54955 0
M  V30 7890 H 763.845 -4.74393 -3.67031 0
M  V30 7891 H 765.524 -5.33814 -3.65584 0
M  V30 7892 N 765.656 0.84705 -1.32902 0
M  V30 7893 C 766.588 1.96308 -1.18304 0
M  V30 7894 C 767.601 1.62386 -0.116082 0
M  V30 7895 O 768.79 1.74713 -0.365751 0
M  V30 7896 C 765.89 3.29556 -0.790305 0
M  V30 7897 C 765.063 3.91668 -1.94717 0
M  V30 7898 C 764.122 5.0326 -1.53674 0
M  V30 7899 O 763.148 5.22847 -2.24989 0
M  V30 7900 N 764.35 5.78852 -0.437075 0
M  V30 7901 H 767.115 2.09369 -2.14441 0
M  V30 7902 H 764.676 1.02233 -1.25539 0
M  V30 7903 H 766.668 4.01624 -0.49799 0
M  V30 7904 H 765.238 3.12497 0.0801286 0
M  V30 7905 H 764.458 3.12292 -2.40557 0
M  V30 7906 H 765.746 4.299 -2.72146 0
M  V30 7907 H 765.144 5.65484 0.156316 0
M  V30 7908 H 763.701 6.51479 -0.204399 0
M  V30 7909 N 767.134 1.16236 1.06428 0
M  V30 7910 C 768.55 0.906983 1.31324 0
M  V30 7911 C 768.75 -0.440872 1.96618 0
M  V30 7912 O 767.806 -1.1807 2.23194 0
M  V30 7913 C 769.119 2.05501 2.19522 0
M  V30 7914 C 770.667 2.09061 2.32943 0
M  V30 7915 C 771.142 3.23214 3.24495 0
M  V30 7916 N 772.633 3.22922 3.32078 0
M  V30 7917 C 773.368 4.07889 4.03006 0
M  V30 7918 N 772.864 5.02941 4.76469 0
M  V30 7919 N 774.657 3.95881 3.99043 0
M  V30 7920 H 766.808 2.03015 0.624388 0
M  V30 7921 H 769.071 0.88576 0.337835 0
M  V30 7922 H 768.777 3.02847 1.78819 0
M  V30 7923 H 768.651 1.99538 3.201 0
M  V30 7924 H 771.038 1.12308 2.72893 0
M  V30 7925 H 771.119 2.19089 1.32037 0
M  V30 7926 H 770.763 4.20225 2.85261 0
M  V30 7927 H 770.693 3.10423 4.25377 0
M  V30 7928 H 773.184 2.54093 2.79724 0
M  V30 7929 H 773.497 5.64196 5.28112 0
M  V30 7930 H 771.842 5.06922 4.75453 0
M  V30 7931 H 775.033 3.20927 3.40769 0
M  V30 7932 H 775.206 4.62321 4.54052 0
M  V30 7933 N 768.612 -1.24939 0.960631 0
M  V30 7934 C 769.861 -1.92118 0.614298 0
M  V30 7935 C 770.174 -1.75998 -0.853474 0
M  V30 7936 O 771.38 -2.37804 -1.31003 0
M  V30 7937 C 769.836 -3.44303 1.04801 0
M  V30 7938 C 769.444 -3.69123 2.53875 0
M  V30 7939 C 771.188 -4.17375 0.774497 0
M  V30 7940 C 769.095 -5.14843 2.91016 0
M  V30 7941 H 768.025 -0.719319 0.226045 0
M  V30 7942 H 770.676 -1.41701 1.16589 0
M  V30 7943 H 769.058 -3.93715 0.42479 0
M  V30 7944 H 770.232 -3.30339 3.21267 0
M  V30 7945 H 768.547 -3.09323 2.78762 0
M  V30 7946 H 771.144 -5.24723 1.02808 0
M  V30 7947 H 771.487 -4.15294 -0.289192 0
M  V30 7948 H 772.02 -3.7389 1.35835 0
M  V30 7949 H 768.759 -5.2204 3.96427 0
M  V30 7950 H 768.279 -5.54652 2.28302 0
M  V30 7951 H 769.958 -5.83017 2.80535 0
M  V30 7952 N 770.09 -0.729906 -1.39679 0
M  V30 7953 C 771.022 -0.0470588 -2.29152 0
M  V30 7954 C 772.035 0.708808 -1.4656 0
M  V30 7955 O 773.224 0.553815 -1.69691 0
M  V30 7956 C 770.324 0.957612 -3.25089 0
M  V30 7957 C 769.497 0.264321 -4.36601 0
M  V30 7958 C 768.556 1.17638 -5.12882 0
M  V30 7959 O 767.582 0.655777 -5.6541 0
M  V30 7960 N 768.784 2.50649 -5.23598 0
M  V30 7961 H 771.549 -0.815364 -2.88395 0
M  V30 7962 H 769.11 -0.578707 -1.51204 0
M  V30 7963 H 771.102 1.57026 -3.72995 0
M  V30 7964 H 769.672 1.62716 -2.66912 0
M  V30 7965 H 768.892 -0.528732 -3.90638 0
M  V30 7966 H 770.18 -0.216344 -5.0834 0
M  V30 7967 H 769.578 2.95427 -4.82431 0
M  V30 7968 H 768.135 3.07022 -5.74961 0
M  V30 7969 N 771.568 1.50203 -0.477153 0
M  V30 7970 C 772.984 1.59056 -0.131663 0
M  V30 7971 C 773.184 1.48473 1.36227 0
M  V30 7972 O 772.24 1.34635 2.13611 0
M  V30 7973 C 773.553 2.92741 -0.687254 0
M  V30 7974 C 775.101 3.0615 -0.651223 0
M  V30 7975 C 775.576 4.42419 -1.18446 0
M  V30 7976 N 777.067 4.48847 -1.14413 0
M  V30 7977 C 777.802 5.52689 -1.52717 0
M  V30 7978 N 777.298 6.63754 -1.98499 0
M  V30 7979 N 779.091 5.43267 -1.44282 0
M  V30 7980 H 771.242 1.55325 -1.44872 0
M  V30 7981 H 773.505 0.734395 -0.599473 0
M  V30 7982 H 773.211 3.0598 -1.73405 0
M  V30 7983 H 773.085 3.76961 -0.134215 0
M  V30 7984 H 775.472 2.92556 0.386677 0
M  V30 7985 H 775.553 2.23673 -1.24114 0
M  V30 7986 H 775.197 4.56763 -2.22103 0
M  V30 7987 H 775.127 5.23498 -0.570709 0
M  V30 7988 H 777.618 3.69152 -0.808416 0
M  V30 7989 H 777.931 7.39059 -2.25859 0
M  V30 7990 H 776.276 6.64858 -2.02456 0
M  V30 7991 H 779.467 4.55387 -1.08352 0
M  V30 7992 H 779.64 6.24074 -1.74459 0
M  V30 7993 N 773.046 0.209999 1.56195 0
M  V30 7994 C 773.976 -0.699746 2.22769 0
M  V30 7995 C 774.957 -1.20993 1.1956 0
M  V30 7996 O 776.142 -1.25605 1.48112 0
M  V30 7997 C 773.272 -1.91302 2.89863 0
M  V30 7998 C 772.226 -1.53715 3.99444 0
M  V30 7999 C 771.552 -2.82826 4.53777 0
M  V30 8000 C 772.852 -0.735836 5.17091 0
M  V30 8001 H 774.546 -0.144716 2.9905 0
M  V30 8002 H 772.092 -0.0681645 1.43839 0
M  V30 8003 H 774.045 -2.5548 3.35124 0
M  V30 8004 H 772.769 -2.49283 2.11011 0
M  V30 8005 H 771.428 -0.918892 3.54897 0
M  V30 8006 H 771.076 -3.38927 3.71669 0
M  V30 8007 H 770.776 -2.58415 5.27727 0
M  V30 8008 H 772.3 -3.47966 5.01749 0
M  V30 8009 H 773.714 -1.28105 5.58804 0
M  V30 8010 H 772.111 -0.589272 5.972 0
M  V30 8011 H 773.181 0.260004 4.84202 0
M  V30 8012 N 774.524 -1.57472 -0.0634922 0
M  V30 8013 C 775.773 -1.86837 -0.759928 0
M  V30 8014 C 776.086 -0.803823 -1.7832 0
M  V30 8015 O 777.292 -0.985578 -2.52979 0
M  V30 8016 C 775.748 -3.31448 -1.4025 0
M  V30 8017 C 775.356 -4.46052 -0.417368 0
M  V30 8018 C 777.1 -3.70003 -2.08082 0
M  V30 8019 C 775.007 -5.81707 -1.06633 0
M  V30 8020 H 773.937 -0.697009 -0.287567 0
M  V30 8021 H 776.588 -1.83495 -0.0133914 0
M  V30 8022 H 774.97 -3.29427 -2.19759 0
M  V30 8023 H 776.144 -4.5948 0.348503 0
M  V30 8024 H 774.459 -4.16104 0.156955 0
M  V30 8025 H 777.056 -4.68653 -2.57426 0
M  V30 8026 H 777.399 -3.00226 -2.88393 0
M  V30 8027 H 777.932 -3.7405 -1.35394 0
M  V30 8028 H 774.671 -6.54798 -0.303374 0
M  V30 8029 H 774.191 -5.72064 -1.80286 0
M  V30 8030 H 775.87 -6.27317 -1.58376 0
M  V30 8031 N 776.003 0.335068 -1.53997 0
M  V30 8032 C 777.28 1.09188 -1.62288 0
M  V30 8033 C 777.66 2.0626 -0.449458 0
M  V30 8034 O 777.008 2.21596 0.557444 0
M  V30 8035 C 777.218 1.80403 -2.98757 0
M  V30 8036 C 778.566 2.33841 -3.54406 0
M  V30 8037 O 779.59 1.90487 -3.00987 0
M  V30 8038 O 778.449 3.1318 -4.47862 0
M  V30 8039 H 775.543 0.502621 -0.656736 0
M  V30 8040 H 778.089 0.33588 -1.66343 0
M  V30 8041 H 776.861 1.09732 -3.75599 0
M  V30 8042 H 776.484 2.62841 -2.9833 0
M  V30 8043 N 777.481 1.45874 0.596531 0
M  V30 8044 C 778.706 1.54247 1.38646 0
M  V30 8045 C 779.131 0.179571 1.87241 0
M  V30 8046 O 778.489 -0.837831 1.6078 0
M  V30 8047 C 778.537 2.54015 2.55946 0
M  V30 8048 O 777.641 2.06561 3.5694 0
M  V30 8049 H 776.982 0.519555 0.413471 0
M  V30 8050 H 779.512 1.91327 0.724936 0
M  V30 8051 H 779.522 2.73179 3.03047 0
M  V30 8052 H 778.197 3.52994 2.19928 0
M  V30 8053 H 776.774 1.97324 3.16414 0
M  V30 8054 N 778.959 -0.83999 1.33349 0
M  V30 8055 C 780.205 -1.59753 1.24927 0
M  V30 8056 C 780.538 -1.93318 -0.184855 0
M  V30 8057 O 779.813 -1.586 -1.12589 0
M  V30 8058 C 780.096 -2.90829 2.12345 0
M  V30 8059 C 779.949 -2.63953 3.6421 0
M  V30 8060 C 781.268 -3.92246 1.99577 0
M  V30 8061 H 778.387 -0.579654 0.45516 0
M  V30 8062 H 781.029 -0.968909 1.63439 0
M  V30 8063 H 779.179 -3.44478 1.79631 0
M  V30 8064 H 780.851 -2.16745 4.07209 0
M  V30 8065 H 779.094 -1.97671 3.86146 0
M  V30 8066 H 779.765 -3.57348 4.20721 0
M  V30 8067 H 782.241 -3.479 2.28265 0
M  V30 8068 H 781.117 -4.81793 2.62996 0
M  V30 8069 H 781.378 -4.3138 0.967673 0
M  V30 8070 N 780.437 -1.16799 -1.0581 0
M  V30 8071 C 781.848 -0.95945 -1.60161 0
M  V30 8072 C 782.199 0.49543 -1.89842 0
M  V30 8073 O 781.324 1.36957 -1.67546 0
M  V30 8074 C 781.919 -1.73527 -2.90987 0
M  V30 8075 C 780.478 -1.57158 -3.42021 0
M  V30 8076 C 779.625 -1.74089 -2.15843 0
M  V30 8077 H 782.576 -1.31598 -0.886992 0
M  V30 8078 H 782.597 -1.21397 -3.60615 0
M  V30 8079 H 782.109 -2.79411 -2.69353 0
M  V30 8080 H 780.21 -0.537361 -3.68705 0
M  V30 8081 H 780.323 -2.35858 -4.17022 0
M  V30 8082 H 778.687 -1.16874 -2.26302 0
M  V30 8083 H 779.47 -2.81371 -1.96686 0
M  V30 8084 N 781.915 1.24427 -0.967243 0
M  V30 8085 C 782.845 2.2773 -0.515899 0
M  V30 8086 C 783.826 1.64197 0.444227 0
M  V30 8087 O 785.011 1.91193 0.340451 0
M  V30 8088 C 782.141 3.46751 0.195149 0
M  V30 8089 C 781.095 4.22548 -0.680953 0
M  V30 8090 C 780.421 5.34456 0.161561 0
M  V30 8091 C 781.721 4.83914 -1.96532 0
M  V30 8092 H 783.415 2.65735 -1.37933 0
M  V30 8093 H 780.961 1.27742 -0.664681 0
M  V30 8094 H 782.914 4.18153 0.522117 0
M  V30 8095 H 781.638 3.07771 1.09292 0
M  V30 8096 H 780.297 3.52946 -0.991186 0
M  V30 8097 H 779.945 4.91716 1.05947 0
M  V30 8098 H 779.645 5.86087 -0.421418 0
M  V30 8099 H 781.169 6.08685 0.483211 0
M  V30 8100 H 782.583 5.47392 -1.70396 0
M  V30 8101 H 780.98 5.45775 -2.49499 0
M  V30 8102 H 782.05 4.05393 -2.66053 0
M  V30 8103 N 783.393 0.737304 1.3929 0
M  V30 8104 C 784.326 0.0475454 2.2815 0
M  V30 8105 C 785.304 -0.745314 1.44512 0
M  V30 8106 O 786.488 -0.727387 1.739 0
M  V30 8107 C 783.615 -0.939803 3.254 0
M  V30 8108 C 782.661 -0.235153 4.25851 0
M  V30 8109 S 783.494 1.05252 5.25055 0
M  V30 8110 C 784.65 0.0678242 6.25863 0
M  V30 8111 H 784.883 0.801117 2.86303 0
M  V30 8112 H 782.416 0.529197 1.45048 0
M  V30 8113 H 784.374 -1.50417 3.81949 0
M  V30 8114 H 783.035 -1.66623 2.66262 0
M  V30 8115 H 782.228 -0.982336 4.94334 0
M  V30 8116 H 781.83 0.257245 3.73114 0
M  V30 8117 H 784.122 -0.771779 6.7309 0
M  V30 8118 H 785.065 0.719858 7.04431 0
M  V30 8119 H 785.473 -0.305604 5.63672 0
M  V30 8120 N 784.871 -1.49948 0.485112 0
M  V30 8121 C 785.819 -2.30449 -0.315609 0
M  V30 8122 C 786.813 -1.38351 -0.977516 0
M  V30 8123 O 788.019 -1.55477 -0.907019 0
M  V30 8124 H 784.394 -0.742262 -0.120629 0
M  V30 8125 H 786.365 -2.95925 0.383552 0
M  V30 8126 C 785.114 -3.19283 -1.37673 0
M  V30 8127 H 784.437 -3.90067 -0.876801 0
M  V30 8128 H 785.877 -3.78579 -1.90929 0
M  V30 8129 C 784.336 -2.37817 -2.38631 0
M  V30 8130 O 784.866 -2.0711 -3.44192 0
M  V30 8131 N 783.072 -2.00135 -2.107 0
M  V30 8132 H 782.619 -2.25307 -1.24878 0
M  V30 8133 H 782.577 -1.45933 -2.7848 0
M  V30 8134 N 786.349 -0.21828 -1.56081 0
M  V30 8135 C 787.279 0.687922 -2.23136 0
M  V30 8136 C 788.26 1.20357 -1.202 0
M  V30 8137 O 789.445 1.24817 -1.48776 0
M  V30 8138 C 786.575 1.89762 -2.90874 0
M  V30 8139 C 785.529 1.51595 -4.00254 0
M  V30 8140 C 784.855 2.80415 -4.55271 0
M  V30 8141 C 786.155 0.708404 -5.17474 0
M  V30 8142 H 787.849 0.128854 -2.99123 0
M  V30 8143 H 785.395 0.0605354 -1.43873 0
M  V30 8144 H 787.348 2.53699 -3.36474 0
M  V30 8145 H 786.072 2.4816 -2.1233 0
M  V30 8146 H 784.731 0.900058 -3.55379 0
M  V30 8147 H 784.379 3.36951 -3.73461 0
M  V30 8148 H 784.079 2.55613 -5.2909 0
M  V30 8149 H 785.603 3.453 -5.03587 0
M  V30 8150 H 787.017 1.2514 -5.59476 0
M  V30 8151 H 785.414 0.557593 -5.97504 0
M  V30 8152 H 786.484 -0.285679 -4.84058 0
M  V30 8153 N 787.827 1.57504 0.0551401 0
M  V30 8154 C 788.757 2.07864 1.06372 0
M  V30 8155 C 789.738 0.975565 1.39344 0
M  V30 8156 O 790.923 1.24929 1.48682 0
M  V30 8157 C 788.053 2.53643 2.3724 0
M  V30 8158 C 787.007 3.67978 2.18578 0
M  V30 8159 C 786.333 3.9987 3.54976 0
M  V30 8160 C 787.633 4.97405 1.59329 0
M  V30 8161 H 789.327 2.92379 0.644595 0
M  V30 8162 H 786.873 1.40654 0.308619 0
M  V30 8163 H 788.826 2.8749 3.08103 0
M  V30 8164 H 787.55 1.66177 2.81163 0
M  V30 8165 H 786.209 3.3444 1.50152 0
M  V30 8166 H 785.857 3.0951 3.965 0
M  V30 8167 H 785.557 4.76867 3.43324 0
M  V30 8168 H 787.081 4.36228 4.27244 0
M  V30 8169 H 788.495 5.29375 2.20078 0
M  V30 8170 H 786.892 5.78837 1.58327 0
M  V30 8171 H 787.962 4.81697 0.55638 0
M  V30 8172 N 789.305 -0.326896 1.54172 0
M  V30 8173 C 790.235 -1.40741 1.86317 0
M  V30 8174 C 791.216 -1.54125 0.719684 0
M  V30 8175 O 792.401 -1.6806 0.973117 0
M  V30 8176 C 789.531 -2.77557 2.08757 0
M  V30 8177 C 788.485 -2.78965 3.24596 0
M  V30 8178 C 787.811 -4.18824 3.32401 0
M  V30 8179 C 789.111 -2.4301 4.62324 0
M  V30 8180 H 790.805 -1.14088 2.76811 0
M  V30 8181 H 788.351 -0.547389 1.3319 0
M  V30 8182 H 790.304 -3.53209 2.29829 0
M  V30 8183 H 789.028 -3.0568 1.15009 0
M  V30 8184 H 787.687 -2.05767 3.03406 0
M  V30 8185 H 787.335 -4.44083 2.36218 0
M  V30 8186 H 787.035 -4.20673 4.10253 0
M  V30 8187 H 788.559 -4.96294 3.55703 0
M  V30 8188 H 789.973 -3.08375 4.83299 0
M  V30 8189 H 788.37 -2.56116 5.42701 0
M  V30 8190 H 789.44 -1.38165 4.64799 0
M  V30 8191 N 790.784 -1.46188 -0.588786 0
M  V30 8192 C 792.012 -1.54743 -1.37339 0
M  V30 8193 C 792.427 -0.186446 -1.87877 0
M  V30 8194 O 791.784 0.815247 -1.63279 0
M  V30 8195 C 791.835 -2.54727 -2.56508 0
M  V30 8196 O 791.556 -3.85539 -2.08066 0
M  V30 8197 C 793.057 -2.73163 -3.49137 0
M  V30 8198 H 790.277 -0.523484 -0.419768 0
M  V30 8199 H 792.821 -1.91543 -0.716345 0
M  V30 8200 H 790.976 -2.20948 -3.18215 0
M  V30 8201 H 791.39 -4.39905 -2.85629 0
M  V30 8202 H 792.864 -3.47057 -4.2925 0
M  V30 8203 H 793.341 -1.79856 -4.00685 0
M  V30 8204 H 793.947 -3.08014 -2.9327 0
M  V30 8205 N 792.262 0.832906 -1.33792 0
M  V30 8206 C 793.192 1.95828 -1.27176 0
M  V30 8207 C 794.173 1.69427 -0.15114 0
M  V30 8208 O 795.358 1.91167 -0.341886 0
M  V30 8209 C 792.488 3.32098 -1.01629 0
M  V30 8210 C 791.442 3.72912 -2.10049 0
M  V30 8211 C 790.768 5.07054 -1.69706 0
M  V30 8212 C 792.068 3.86064 -3.51783 0
M  V30 8213 H 793.762 2.01622 -2.21334 0
M  V30 8214 H 791.308 0.96866 -1.0655 0
M  V30 8215 H 793.261 4.10402 -0.956474 0
M  V30 8216 H 791.985 3.26577 -0.0390956 0
M  V30 8217 H 790.644 2.96876 -2.15082 0
M  V30 8218 H 790.292 4.9801 -0.706737 0
M  V30 8219 H 789.992 5.35333 -2.42264 0
M  V30 8220 H 791.516 5.87827 -1.65202 0
M  V30 8221 H 792.93 4.54665 -3.49218 0
M  V30 8222 H 791.327 4.25787 -4.22878 0
M  V30 8223 H 792.397 2.88344 -3.89854 0
M  V30 8224 N 793.74 1.17359 1.05189 0
M  V30 8225 C 794.67 0.91365 2.14883 0
M  V30 8226 C 795.651 -0.144365 1.69486 0
M  V30 8227 O 796.836 0.00587861 1.94199 0
M  V30 8228 C 793.966 0.426196 3.44675 0
M  V30 8229 C 792.92 1.4234 4.03638 0
M  V30 8230 C 792.246 0.793902 5.28773 0
M  V30 8231 C 793.546 2.7966 4.41121 0
M  V30 8232 H 795.24 1.831 2.36885 0
M  V30 8233 H 792.786 0.881781 1.13845 0
M  V30 8234 H 794.739 0.231767 4.20762 0
M  V30 8235 H 793.463 -0.526693 3.22325 0
M  V30 8236 H 792.122 1.60457 3.2962 0
M  V30 8237 H 791.77 -0.165824 5.02727 0
M  V30 8238 H 791.47 1.45959 5.69183 0
M  V30 8239 H 792.994 0.609747 6.07548 0
M  V30 8240 H 794.408 2.6526 5.08242 0
M  V30 8241 H 792.805 3.42807 4.92548 0
M  V30 8242 H 793.875 3.34068 3.51464 0
M  V30 8243 N 795.218 -1.23913 0.973828 0
M  V30 8244 C 796.443 -1.96735 0.656511 0
M  V30 8245 C 796.868 -1.71682 -0.768571 0
M  V30 8246 O 796.226 -0.984267 -1.52256 0
M  V30 8247 C 796.274 -3.48004 0.944735 0
M  V30 8248 O 795.378 -4.12387 0.0333357 0
M  V30 8249 H 794.719 -0.616119 0.247575 0
M  V30 8250 H 797.249 -1.57525 1.30564 0
M  V30 8251 H 797.259 -3.98424 0.87876 0
M  V30 8252 H 795.934 -3.65567 1.98328 0
M  V30 8253 H 794.511 -3.72585 0.153157 0
M  V30 8254 N 796.696 -0.74468 -1.38897 0
M  V30 8255 C 797.924 -0.307428 -2.04603 0
M  V30 8256 C 798.339 1.06115 -1.56157 0
M  V30 8257 O 797.696 1.67233 -0.730701 0
M  V30 8258 C 797.747 -0.31101 -3.6016 0
M  V30 8259 O 797.468 -1.62557 -4.06825 0
M  V30 8260 C 798.969 0.141213 -4.43075 0
M  V30 8261 H 796.189 -0.132741 -0.657739 0
M  V30 8262 H 798.733 -1.01104 -1.77759 0
M  V30 8263 H 796.888 0.343792 -3.85872 0
M  V30 8264 H 797.302 -1.54569 -5.01207 0
M  V30 8265 H 798.776 0.0875449 -5.51931 0
M  V30 8266 H 799.253 1.18782 -4.22833 0
M  V30 8267 H 799.859 -0.484383 -4.22533 0
M  V30 8268 N 798.174 1.49689 -0.493057 0
M  V30 8269 C 799.399 2.07331 0.0535114 0
M  V30 8270 C 799.824 1.35196 1.30781 0
M  V30 8271 O 799.182 0.406246 1.7669 0
M  V30 8272 C 799.23 3.59364 0.29825 0
M  V30 8273 O 798.334 3.88819 1.37454 0
M  V30 8274 H 797.675 0.663612 -0.0227018 0
M  V30 8275 H 800.205 1.926 -0.690402 0
M  V30 8276 H 800.215 4.04515 0.532159 0
M  V30 8277 H 798.89 4.1128 -0.618207 0
M  V30 8278 H 797.467 3.55487 1.12621 0
M  V30 8279 N 799.652 0.226554 1.55963 0
M  V30 8280 C 800.882 -0.407915 2.02533 0
M  V30 8281 C 801.29 -1.53539 1.10554 0
M  V30 8282 O 800.633 -1.8338 0.108409 0
M  V30 8283 C 800.695 -0.996081 3.45425 0
M  V30 8284 C 800.359 -0.00341651 4.57 0
M  V30 8285 C 801.356 0.798782 5.13727 0
M  V30 8286 C 799.041 0.116786 5.02164 0
M  V30 8287 C 801.035 1.70784 6.14094 0
M  V30 8288 C 798.722 1.02937 6.02368 0
M  V30 8289 C 799.72 1.82344 6.5821 0
M  V30 8290 O 799.408 2.72067 7.56462 0
M  V30 8291 H 799.14 -0.103524 0.668026 0
M  V30 8292 H 801.694 0.341937 2.02534 0
M  V30 8293 H 799.924 -1.79512 3.42509 0
M  V30 8294 H 801.613 -1.53848 3.75614 0
M  V30 8295 H 802.379 0.716393 4.7968 0
M  V30 8296 H 798.258 -0.491172 4.58376 0
M  V30 8297 H 801.802 2.32807 6.57607 0
M  V30 8298 H 797.699 1.11276 6.35836 0
M  V30 8299 H 798.467 2.66199 7.74003 0
M  V30 8300 N 801.13 -1.57531 -0.0467866 0
M  V30 8301 C 802.546 -1.54451 -0.402107 0
M  V30 8302 C 802.746 -0.950275 -1.77685 0
M  V30 8303 O 801.802 -0.563602 -2.4613 0
M  V30 8304 C 803.115 -2.9899 -0.320212 0
M  V30 8305 C 804.663 -3.10452 -0.398588 0
M  V30 8306 C 805.138 -4.56689 -0.346335 0
M  V30 8307 N 806.629 -4.6142 -0.405666 0
M  V30 8308 C 807.364 -5.72087 -0.387845 0
M  V30 8309 N 806.86 -6.92045 -0.32336 0
M  V30 8310 N 808.653 -5.60404 -0.436263 0
M  V30 8311 H 800.804 -1.94515 0.853087 0
M  V30 8312 H 803.067 -0.891397 0.322669 0
M  V30 8313 H 802.773 -3.46124 0.623794 0
M  V30 8314 H 802.647 -3.60164 -1.1208 0
M  V30 8315 H 805.034 -2.63276 -1.33302 0
M  V30 8316 H 805.115 -2.52142 0.431026 0
M  V30 8317 H 804.759 -5.04527 0.584356 0
M  V30 8318 H 804.689 -5.12889 -1.19382 0
M  V30 8319 H 807.18 -3.75105 -0.458737 0
M  V30 8320 H 807.493 -7.7216 -0.314375 0
M  V30 8321 H 805.838 -6.94396 -0.28967 0
M  V30 8322 H 809.029 -4.65586 -0.48451 0
M  V30 8323 H 809.202 -6.46645 -0.418907 0
M  V30 8324 N 802.608 0.318715 -1.54344 0
M  V30 8325 C 803.555 1.39242 -1.84066 0
M  V30 8326 C 804.525 1.51175 -0.688134 0
M  V30 8327 O 805.71 1.66318 -0.935039 0
M  V30 8328 C 802.85 2.75528 -2.07794 0
M  V30 8329 C 801.963 2.72187 -3.35467 0
M  V30 8330 C 801.098 4.00352 -3.4913 0
M  V30 8331 C 800.137 3.91338 -4.7066 0
M  V30 8332 N 799.274 5.11242 -4.81224 0
M  V30 8333 H 804.114 1.13196 -2.75664 0
M  V30 8334 H 801.651 0.547857 -1.36517 0
M  V30 8335 H 803.609 3.54763 -2.19543 0
M  V30 8336 H 802.239 2.99873 -1.19482 0
M  V30 8337 H 801.291 1.84917 -3.3243 0
M  V30 8338 H 802.603 2.61411 -4.24812 0
M  V30 8339 H 801.757 4.88019 -3.60448 0
M  V30 8340 H 800.496 4.1394 -2.57886 0
M  V30 8341 H 799.501 3.02055 -4.59394 0
M  V30 8342 H 800.726 3.7931 -5.63294 0
M  V30 8343 H 798.672 5.25327 -3.92897 0
M  V30 8344 H 798.589 5.0282 -5.64543 0
M  V30 8345 H 799.857 6.0061 -4.96879 0
M  V30 8346 N 804.086 1.46499 0.581025 0
M  V30 8347 C 805.049 1.5677 1.672 0
M  V30 8348 C 806.049 0.444716 1.54528 0
M  V30 8349 O 807.239 0.709074 1.59116 0
M  V30 8350 C 804.371 1.4896 3.06633 0
M  V30 8351 H 805.564 2.54 1.5945 0
M  V30 8352 H 803.117 1.34334 0.799003 0
M  V30 8353 H 803.852 0.530168 3.19937 0
M  V30 8354 H 803.637 2.30439 3.17239 0
M  V30 8355 H 805.127 1.59237 3.86048 0
M  V30 8356 N 805.565 -0.825799 1.34232 0
M  V30 8357 C 806.805 -1.59541 1.27773 0
M  V30 8358 C 807.169 -1.91405 -0.150998 0
M  V30 8359 O 808.37 -2.66644 -0.339728 0
M  V30 8360 C 806.641 -2.86183 2.14089 0
M  V30 8361 S 808.2 -3.76751 2.24953 0
M  V30 8362 H 805.018 -0.546871 0.454371 0
M  V30 8363 H 807.62 -0.975677 1.69413 0
M  V30 8364 H 806.324 -2.60767 3.16905 0
M  V30 8365 H 805.855 -3.53155 1.73335 0
M  V30 8366 H 807.87 -4.75442 1.4202 0
M  V30 8367 N 807.043 -1.17915 -1.04565 0
M  V30 8368 C 808.289 -0.972863 -1.77942 0
M  V30 8369 C 808.622 0.496753 -1.87739 0
M  V30 8370 O 807.897 1.3688 -1.38181 0
M  V30 8371 C 808.18 -1.62227 -3.21488 0
M  V30 8372 C 808.033 -3.16441 -3.19664 0
M  V30 8373 C 809.352 -1.33137 -4.19479 0
M  V30 8374 H 806.471 -0.354843 -0.645953 0
M  V30 8375 H 809.113 -1.45508 -1.22178 0
M  V30 8376 H 807.263 -1.21224 -3.69103 0
M  V30 8377 H 808.935 -3.66544 -2.80077 0
M  V30 8378 H 807.178 -3.48863 -2.57832 0
M  V30 8379 H 807.849 -3.57012 -4.21006 0
M  V30 8380 H 810.325 -1.68654 -3.80388 0
M  V30 8381 H 809.201 -1.81151 -5.18146 0
M  V30 8382 H 809.462 -0.253319 -4.41374 0
M  V30 8383 N 808.521 1.23394 -0.980386 0
M  V30 8384 C 809.451 2.2717 -0.540024 0
M  V30 8385 C 810.432 1.64659 0.426787 0
M  V30 8386 O 811.617 1.91543 0.320153 0
M  V30 8387 C 808.747 3.46939 0.15836 0
M  V30 8388 C 807.701 4.21802 -0.725732 0
M  V30 8389 C 807.027 5.34597 0.104866 0
M  V30 8390 C 808.327 4.81802 -2.01654 0
M  V30 8391 H 810.021 2.64257 -1.40743 0
M  V30 8392 H 807.567 1.2703 -0.678193 0
M  V30 8393 H 809.52 4.18683 0.477737 0
M  V30 8394 H 808.244 3.08912 1.06022 0
M  V30 8395 H 806.903 3.51875 -1.02857 0
M  V30 8396 H 806.551 4.92812 1.00726 0
M  V30 8397 H 806.251 5.85607 -0.483557 0
M  V30 8398 H 807.775 6.09163 0.418624 0
M  V30 8399 H 809.189 5.45554 -1.76193 0
M  V30 8400 H 807.586 5.43098 -2.55273 0
M  V30 8401 H 808.656 4.02549 -2.70338 0
M  V30 8402 N 809.999 0.752036 1.385 0
M  V30 8403 C 810.931 0.0835089 2.29048 0
M  V30 8404 C 811.944 -0.685402 1.47669 0
M  V30 8405 O 813.133 -0.526748 1.70551 0
M  V30 8406 C 810.233 -0.905772 3.26572 0
M  V30 8407 C 809.406 -0.194828 4.36966 0
M  V30 8408 C 808.465 -1.09464 5.14688 0
M  V30 8409 O 807.491 -0.565743 5.66381 0
M  V30 8410 N 808.693 -2.42287 5.2752 0
M  V30 8411 H 811.458 0.861142 2.87062 0
M  V30 8412 H 809.019 0.602689 1.50264 0
M  V30 8413 H 811.011 -1.51072 3.75446 0
M  V30 8414 H 809.581 -1.58449 2.69467 0
M  V30 8415 H 808.801 0.590812 3.89747 0
M  V30 8416 H 810.089 0.297189 5.07931 0
M  V30 8417 H 809.487 -2.87715 4.8707 0
M  V30 8418 H 808.044 -2.97836 5.79773 0
M  V30 8419 N 811.477 -1.49425 0.500989 0
M  V30 8420 C 812.893 -1.58826 0.156951 0
M  V30 8421 C 813.093 -1.50622 -1.33848 0
M  V30 8422 O 812.149 -1.38016 -2.11442 0
M  V30 8423 C 813.462 -2.91611 0.73374 0
M  V30 8424 C 815.01 -3.05076 0.699846 0
M  V30 8425 C 815.485 -4.40479 1.2547 0
M  V30 8426 N 816.976 -4.4697 1.2154 0
M  V30 8427 C 817.711 -5.50189 1.6149 0
M  V30 8428 N 817.207 -6.60512 2.09034 0
M  V30 8429 N 819 -5.40903 1.52907 0
M  V30 8430 H 811.151 -1.53001 1.47324 0
M  V30 8431 H 813.414 -0.724765 0.61108 0
M  V30 8432 H 813.12 -3.03182 1.78251 0
M  V30 8433 H 812.994 -3.767 0.19417 0
M  V30 8434 H 815.381 -2.93134 -0.340085 0
M  V30 8435 H 815.462 -2.2167 1.27656 0
M  V30 8436 H 815.106 -4.53172 2.29341 0
M  V30 8437 H 815.036 -5.22524 0.653921 0
M  V30 8438 H 817.527 -3.67819 0.867043 0
M  V30 8439 H 817.84 -7.35372 2.37588 0
M  V30 8440 H 816.185 -6.61553 2.13008 0
M  V30 8441 H 819.376 -4.53606 1.15583 0
M  V30 8442 H 819.549 -6.21219 1.84365 0
M  V30 8443 N 812.955 -0.234822 -1.55841 0
M  V30 8444 C 813.887 0.702346 -2.18174 0
M  V30 8445 C 814.9 1.14776 -1.15457 0
M  V30 8446 O 816.089 1.07662 -1.42377 0
M  V30 8447 C 813.189 1.96483 -2.76129 0
M  V30 8448 C 812.362 1.67283 -4.04148 0
M  V30 8449 C 811.421 2.7837 -4.46539 0
M  V30 8450 O 810.447 2.46272 -5.13166 0
M  V30 8451 N 811.649 4.07611 -4.1332 0
M  V30 8452 H 814.414 0.169074 -2.99223 0
M  V30 8453 H 811.975 -0.0543164 -1.61809 0
M  V30 8454 H 813.967 2.70016 -3.01452 0
M  V30 8455 H 812.537 2.40822 -1.99307 0
M  V30 8456 H 811.757 0.773278 -3.86541 0
M  V30 8457 H 813.045 1.45222 -4.87635 0
M  V30 8458 H 812.443 4.36527 -3.59806 0
M  V30 8459 H 811 4.77646 -4.43506 0
M  V30 8460 N 814.433 1.57553 0.0384317 0
M  V30 8461 C 815.849 1.54663 0.39391 0
M  V30 8462 C 816.049 0.959685 1.77179 0
M  V30 8463 O 815.105 0.576647 2.45827 0
M  V30 8464 C 816.418 2.99156 0.304352 0
M  V30 8465 C 817.966 3.10659 0.382119 0
M  V30 8466 C 818.441 4.56866 0.322111 0
M  V30 8467 N 819.932 4.61629 0.38119 0
M  V30 8468 C 820.667 5.72284 0.357501 0
M  V30 8469 N 820.163 6.92207 0.286654 0
M  V30 8470 N 821.956 5.60628 0.406538 0
M  V30 8471 H 814.107 1.9406 -0.86339 0
M  V30 8472 H 816.37 0.889673 -0.327392 0
M  V30 8473 H 816.076 3.45788 -0.642141 0
M  V30 8474 H 815.95 3.60753 1.10168 0
M  V30 8475 H 818.337 2.6398 1.31904 0
M  V30 8476 H 818.418 2.5191 -0.444391 0
M  V30 8477 H 818.062 5.0421 -0.611104 0
M  V30 8478 H 817.992 5.13515 1.1666 0
M  V30 8479 H 820.483 3.75343 0.438838 0
M  V30 8480 H 820.796 7.72316 0.273421 0
M  V30 8481 H 819.141 6.9454 0.252841 0
M  V30 8482 H 822.332 4.65836 0.459812 0
M  V30 8483 H 822.505 6.46858 0.384608 0
M  V30 8484 N 815.911 -0.310526 1.54511 0
M  V30 8485 C 816.858 -1.38264 1.84802 0
M  V30 8486 C 817.828 -1.50808 0.696141 0
M  V30 8487 O 819.013 -1.6582 0.943846 0
M  V30 8488 C 816.153 -2.74422 2.09252 0
M  V30 8489 C 815.266 -2.70405 3.36906 0
M  V30 8490 C 814.401 -3.98495 3.51248 0
M  V30 8491 C 813.44 -3.88836 4.72729 0
M  V30 8492 N 812.577 -5.08683 4.83928 0
M  V30 8493 H 817.417 -1.11732 2.76261 0
M  V30 8494 H 814.954 -0.540609 1.36806 0
M  V30 8495 H 816.912 -3.53593 2.21422 0
M  V30 8496 H 815.542 -2.99235 1.2107 0
M  V30 8497 H 814.594 -1.83151 3.33406 0
M  V30 8498 H 815.906 -2.59155 4.26193 0
M  V30 8499 H 815.06 -4.861 3.63031 0
M  V30 8500 H 813.799 -4.12567 2.60077 0
M  V30 8501 H 812.804 -2.99615 4.60989 0
M  V30 8502 H 814.029 -3.76318 5.65298 0
M  V30 8503 H 811.975 -5.23236 3.95677 0
M  V30 8504 H 811.892 -4.99819 5.67201 0
M  V30 8505 H 813.16 -5.97966 5.00057 0
M  V30 8506 N 817.389 -1.46805 -0.573248 0
M  V30 8507 C 818.637 -1.52302 -1.32847 0
M  V30 8508 C 818.958 -0.180159 -1.94166 0
M  V30 8509 O 818.228 0.794291 -1.79075 0
M  V30 8510 H 816.808 -0.56097 -0.493276 0
M  V30 8511 H 819.47 -1.82998 -0.670642 0
M  V30 8512 H 818.566 -2.28089 -2.13031 0
M  V30 8513 N 818.867 0.818669 -1.34668 0
M  V30 8514 C 820.092 1.61193 -1.30505 0
M  V30 8515 C 820.517 1.87734 0.117341 0
M  V30 8516 O 819.875 1.45591 1.08042 0
M  V30 8517 C 819.923 2.92733 -2.1057 0
M  V30 8518 O 819.027 3.85 -1.47813 0
M  V30 8519 H 818.368 0.490085 -0.44801 0
M  V30 8520 H 820.898 1.01701 -1.77534 0
M  V30 8521 H 820.908 3.42262 -2.22082 0
M  V30 8522 H 819.583 2.7274 -3.13984 0
M  V30 8523 H 818.16 3.43525 -1.45069 0
M  V30 8524 N 820.346 1.18468 1.03938 0
M  V30 8525 C 821.279 0.856251 2.11527 0
M  V30 8526 C 822.257 -0.182323 1.61575 0
M  V30 8527 O 823.441 -0.061 1.88401 0
M  V30 8528 C 820.568 0.279562 3.37544 0
M  V30 8529 C 819.614 1.29552 4.06348 0
M  V30 8530 S 820.447 2.85191 4.5324 0
M  V30 8531 C 821.603 2.29037 5.82489 0
M  V30 8532 H 821.836 1.76742 2.39059 0
M  V30 8533 H 819.369 1.01068 1.16725 0
M  V30 8534 H 821.327 -0.0466579 4.10473 0
M  V30 8535 H 819.988 -0.60975 3.08125 0
M  V30 8536 H 819.181 0.840922 4.96935 0
M  V30 8537 H 818.783 1.56804 3.39541 0
M  V30 8538 H 821.075 1.67376 6.565 0
M  V30 8539 H 822.018 3.17929 6.32714 0
M  V30 8540 H 822.426 1.72009 5.37655 0
M  V30 8541 N 821.824 -1.22873 0.986916 0
M  V30 8542 C 823.049 -1.96028 0.677341 0
M  V30 8543 C 823.474 -1.72487 -0.750319 0
M  V30 8544 O 822.832 -1.00036 -1.51203 0
M  V30 8545 C 822.88 -3.46983 0.981593 0
M  V30 8546 O 821.984 -4.12328 0.0770729 0
M  V30 8547 H 821.325 -0.613458 0.254096 0
M  V30 8548 H 823.855 -1.56132 1.32227 0
M  V30 8549 H 823.865 -3.9747 0.920969 0
M  V30 8550 H 822.54 -3.63442 2.02194 0
M  V30 8551 H 821.117 -3.72402 0.192666 0
M  V30 8552 N 823.302 -0.75937 -1.38099 0
M  V30 8553 C 824.527 -0.327859 -2.04792 0
M  V30 8554 C 824.952 1.03752 -1.56899 0
M  V30 8555 O 824.31 1.66235 -0.723581 0
M  V30 8556 C 824.358 -0.366264 -3.58735 0
M  V30 8557 O 823.462 0.637697 -4.0744 0
M  V30 8558 H 822.803 -0.144092 -0.648177 0
M  V30 8559 H 825.333 -1.03211 -1.7666 0
M  V30 8560 H 825.343 -0.219179 -4.07411 0
M  V30 8561 H 824.018 -1.36243 -3.92951 0
M  V30 8562 H 822.595 0.454749 -3.70117 0
M  V30 8563 N 824.78 1.49157 -0.508906 0
M  V30 8564 C 826.057 1.95363 0.0961913 0
M  V30 8565 C 826.437 1.45064 1.53362 0
M  V30 8566 O 825.785 0.667835 2.18523 0
M  V30 8567 C 825.995 3.49 0.000688881 0
M  V30 8568 C 827.343 4.24257 0.170632 0
M  V30 8569 O 828.367 3.5612 0.0754994 0
M  V30 8570 O 827.226 5.45267 0.366957 0
M  V30 8571 H 824.32 0.821984 0.0909489 0
M  V30 8572 H 826.866 1.59769 -0.572007 0
M  V30 8573 H 825.638 3.78269 -1.00143 0
M  V30 8574 H 825.261 3.91233 0.708682 0
M  V30 8575 N 826.258 0.243083 1.55714 0
M  V30 8576 C 827.221 -0.644723 2.19945 0
M  V30 8577 C 828.221 -1.10562 1.16759 0
M  V30 8578 O 829.411 -1.01095 1.41865 0
M  V30 8579 C 826.543 -1.88569 2.83997 0
M  V30 8580 H 827.736 -0.0843839 2.99781 0
M  V30 8581 H 825.289 -0.00647246 1.56299 0
M  V30 8582 H 826.024 -2.48736 2.08089 0
M  V30 8583 H 825.809 -1.56345 3.59581 0
M  V30 8584 H 827.299 -2.51774 3.33166 0
M  V30 8585 N 827.736 -1.57571 -0.0300757 0
M  V30 8586 C 828.961 -1.93879 -0.736601 0
M  V30 8587 C 829.386 -0.842998 -1.68152 0
M  V30 8588 O 828.744 0.20135 -1.80178 0
M  V30 8589 C 828.792 -3.29247 -1.47066 0
M  V30 8590 O 827.896 -3.21426 -2.58378 0
M  V30 8591 H 827.237 -0.633735 -0.198181 0
M  V30 8592 H 829.767 -2.04595 0.0141485 0
M  V30 8593 H 829.777 -3.64113 -1.84081 0
M  V30 8594 H 828.452 -4.08565 -0.77764 0
M  V30 8595 H 827.029 -2.98189 -2.23914 0
M  V30 8596 N 829.214 0.302327 -1.54673 0
M  V30 8597 C 830.177 1.35592 -1.8479 0
M  V30 8598 C 831.177 1.43743 -0.72073 0
M  V30 8599 O 832.367 1.43402 -0.989017 0
M  V30 8600 C 829.499 2.74091 -2.02699 0
M  V30 8601 H 830.692 1.10132 -2.78946 0
M  V30 8602 H 828.245 0.538926 -1.46715 0
M  V30 8603 H 828.98 3.04775 -1.10826 0
M  V30 8604 H 828.765 2.69565 -2.8474 0
M  V30 8605 H 830.255 3.50272 -2.27374 0
M  V30 8606 N 830.692 1.47107 0.565454 0
M  V30 8607 C 831.917 1.57153 1.35343 0
M  V30 8608 C 832.342 0.219247 1.86818 0
M  V30 8609 O 831.7 -0.803539 1.62521 0
M  V30 8610 C 831.748 2.59387 2.50501 0
M  V30 8611 O 830.852 2.14086 3.52478 0
M  V30 8612 H 830.193 0.528209 0.402357 0
M  V30 8613 H 832.723 1.92821 0.684189 0
M  V30 8614 H 832.733 2.79546 2.97184 0
M  V30 8615 H 831.408 3.57579 2.12391 0
M  V30 8616 H 829.985 2.03991 3.12157 0
M  V30 8617 N 832.17 -0.811516 1.35101 0
M  V30 8618 C 833.398 -1.59981 1.31201 0
M  V30 8619 C 833.813 -1.8847 -0.111552 0
M  V30 8620 O 833.17 -1.48414 -1.06205 0
M  V30 8621 C 833.221 -2.934 2.11184 0
M  V30 8622 O 832.942 -2.66148 3.4799 0
M  V30 8623 C 834.443 -3.87776 2.14813 0
M  V30 8624 H 831.663 -0.496921 0.450899 0
M  V30 8625 H 834.207 -1.00886 1.77883 0
M  V30 8626 H 832.362 -3.49022 1.68115 0
M  V30 8627 H 832.776 -3.51301 3.89471 0
M  V30 8628 H 834.25 -4.7852 2.75178 0
M  V30 8629 H 834.727 -4.23997 1.14556 0
M  V30 8630 H 835.333 -3.3809 2.58022 0
M  V30 8631 N 833.648 -1.19017 -1.03309 0
M  V30 8632 C 834.925 -0.899659 -1.73682 0
M  V30 8633 C 835.305 0.595677 -2.02521 0
M  V30 8634 O 834.653 1.55263 -1.67648 0
M  V30 8635 C 834.863 -1.75508 -3.01659 0
M  V30 8636 C 836.211 -1.98679 -3.75249 0
M  V30 8637 O 837.235 -1.72624 -3.11576 0
M  V30 8638 O 836.094 -2.42587 -4.89708 0
M  V30 8639 H 833.188 -0.334903 -0.756154 0
M  V30 8640 H 835.734 -1.29809 -1.09305 0
M  V30 8641 H 834.506 -2.7684 -2.76542 0
M  V30 8642 H 834.129 -1.35565 -3.73775 0
M  V30 8643 N 835.127 1.22348 -0.993418 0
M  V30 8644 C 836.352 1.95666 -0.687727 0
M  V30 8645 C 836.777 1.72883 0.741161 0
M  V30 8646 O 836.135 1.00837 1.50671 0
M  V30 8647 C 836.183 3.46457 -0.99998 0
M  V30 8648 O 835.287 4.12281 -0.0989386 0
M  V30 8649 H 834.628 0.612102 -0.257346 0
M  V30 8650 H 837.158 1.55428 -1.33054 0
M  V30 8651 H 837.168 3.96976 -0.942035 0
M  V30 8652 H 835.843 3.62365 -2.04118 0
M  V30 8653 H 834.42 3.72295 -0.212413 0
M  V30 8654 N 836.605 0.766683 1.37694 0
M  V30 8655 C 837.553 0.137269 2.32195 0
M  V30 8656 C 838.547 -0.69067 1.54681 0
M  V30 8657 O 839.753 -0.588299 1.70115 0
M  V30 8658 H 836.128 0.0256003 0.751564 0
M  V30 8659 H 838.099 0.950129 2.82869 0
M  V30 8660 C 836.848 -0.731446 3.39919 0
M  V30 8661 H 836.171 -0.103738 3.99665 0
M  V30 8662 H 837.611 -1.13891 4.08417 0
M  V30 8663 C 836.07 -1.87984 2.79578 0
M  V30 8664 O 836.6 -2.97496 2.69924 0
M  V30 8665 N 834.806 -1.6789 2.37195 0
M  V30 8666 H 834.353 -0.788162 2.45246 0
M  V30 8667 H 834.311 -2.44894 1.97165 0
M  V30 8668 N 838.083 -1.48885 0.516809 0
M  V30 8669 C 839.311 -2.06892 -0.0184017 0
M  V30 8670 C 839.726 -1.37511 -1.29368 0
M  V30 8671 O 839.083 -0.458409 -1.76649 0
M  V30 8672 C 839.134 -3.60566 -0.259673 0
M  V30 8673 O 838.855 -4.27338 0.965065 0
M  V30 8674 C 840.356 -4.35331 -0.836751 0
M  V30 8675 H 837.576 -0.670433 0.0275743 0
M  V30 8676 H 840.12 -1.91455 0.718689 0
M  V30 8677 H 838.275 -3.75653 -0.94678 0
M  V30 8678 H 838.689 -5.19287 0.737647 0
M  V30 8679 H 840.163 -5.43675 -0.955065 0
M  V30 8680 H 840.64 -3.9887 -1.83845 0
M  V30 8681 H 841.246 -4.2489 -0.186622 0
M  V30 8682 N 839.561 -0.251338 -1.55583 0
M  V30 8683 C 840.791 0.375642 -2.03156 0
M  V30 8684 C 841.199 1.51761 -1.12983 0
M  V30 8685 O 840.542 1.83184 -0.13757 0
M  V30 8686 C 840.604 0.941001 -3.46966 0
M  V30 8687 C 840.268 -0.0692886 -4.56947 0
M  V30 8688 C 841.265 -0.88041 -5.12391 0
M  V30 8689 C 838.95 -0.196661 -5.01915 0
M  V30 8690 C 840.944 -1.80532 -6.11299 0
M  V30 8691 C 838.631 -1.12507 -6.00654 0
M  V30 8692 C 839.629 -1.92792 -6.55225 0
M  V30 8693 O 839.317 -2.84067 -7.52038 0
M  V30 8694 H 839.049 0.0928836 -0.669588 0
M  V30 8695 H 841.603 -0.374115 -2.01964 0
M  V30 8696 H 839.833 1.7404 -3.45322 0
M  V30 8697 H 841.522 1.47853 -3.78014 0
M  V30 8698 H 842.288 -0.792615 -4.78479 0
M  V30 8699 H 838.167 0.418187 -4.59099 0
M  V30 8700 H 841.711 -2.43239 -6.5382 0
M  V30 8701 H 837.608 -1.21377 -6.33986 0
M  V30 8702 H 838.376 -2.78479 -7.6967 0
M  V30 8703 N 841.039 1.57585 0.0217189 0
M  V30 8704 C 842.269 1.9359 0.721572 0
M  V30 8705 C 842.677 0.850132 1.69025 0
M  V30 8706 O 842.02 -0.181539 1.82801 0
M  V30 8707 C 842.082 3.25445 1.52729 0
M  V30 8708 C 841.746 4.51251 0.722586 0
M  V30 8709 C 842.743 5.19896 0.0196598 0
M  V30 8710 C 840.428 4.97745 0.674959 0
M  V30 8711 C 842.422 6.33319 -0.720114 0
M  V30 8712 C 840.109 6.11062 -0.068555 0
M  V30 8713 C 841.107 6.78704 -0.764845 0
M  V30 8714 O 840.795 7.89852 -1.49627 0
M  V30 8715 H 840.527 0.643409 0.207366 0
M  V30 8716 H 843.081 2.05391 -0.0189346 0
M  V30 8717 H 841.311 3.0999 2.31178 0
M  V30 8718 H 843 3.46721 2.11044 0
M  V30 8719 H 843.766 4.84977 0.0474394 0
M  V30 8720 H 839.645 4.44934 1.20643 0
M  V30 8721 H 843.189 6.86051 -1.26413 0
M  V30 8722 H 839.086 6.45425 -0.0982318 0
M  V30 8723 H 839.854 8.06251 -1.41071 0
M  V30 8724 N 842.517 -0.29412 1.54831 0
M  V30 8725 C 843.427 -1.3854 1.89325 0
M  V30 8726 C 844.443 -1.55127 0.788133 0
M  V30 8727 O 845.619 -1.6966 1.08524 0
M  V30 8728 C 842.684 -2.72809 2.13954 0
M  V30 8729 C 841.745 -2.65148 3.37631 0
M  V30 8730 C 840.978 -3.93014 3.61076 0
M  V30 8731 O 841.201 -4.927 2.87406 0
M  V30 8732 O 840.135 -3.94491 4.54599 0
M  V30 8733 H 843.961 -1.12289 2.82179 0
M  V30 8734 H 841.546 -0.490793 1.41108 0
M  V30 8735 H 843.428 -3.52238 2.31315 0
M  V30 8736 H 842.103 -2.9889 1.24285 0
M  V30 8737 H 841.01 -1.84168 3.25627 0
M  V30 8738 H 842.343 -2.4402 4.27452 0
M  V30 8739 N 843.995 -1.47404 -0.557645 0
M  V30 8740 C 845.272 -1.44488 -1.31843 0
M  V30 8741 C 845.652 -0.1416 -2.10625 0
M  V30 8742 O 845 0.876908 -2.11004 0
M  V30 8743 C 845.21 -2.69016 -2.22331 0
M  V30 8744 C 846.558 -3.16212 -2.83364 0
M  V30 8745 O 847.582 -2.69741 -2.32634 0
M  V30 8746 O 846.441 -3.96999 -3.75571 0
M  V30 8747 H 843.535 -0.57578 -0.593639 0
M  V30 8748 H 846.081 -1.59605 -0.576584 0
M  V30 8749 H 844.853 -3.55406 -1.63715 0
M  V30 8750 H 844.476 -2.56484 -3.03812 0
M  V30 8751 N 845.473 0.80434 -1.35529 0
M  V30 8752 C 846.75 1.5486 -1.1949 0
M  V30 8753 C 847.13 2.09897 0.22506 0
M  V30 8754 O 846.478 1.92643 1.22886 0
M  V30 8755 C 846.688 2.65535 -2.26478 0
M  V30 8756 C 848.036 3.33814 -2.62399 0
M  V30 8757 O 849.06 2.75807 -2.25409 0
M  V30 8758 O 847.919 4.38612 -3.26009 0
M  V30 8759 H 845.013 0.68433 -0.464351 0
M  V30 8760 H 847.559 0.844107 -1.47217 0
M  V30 8761 H 846.331 2.22754 -3.21709 0
M  V30 8762 H 845.954 3.43617 -2.00033 0
M  V30 8763 N 846.951 1.19563 1.02676 0
M  V30 8764 C 848.198 0.999568 1.7611 0
M  V30 8765 C 848.526 -0.469432 1.8875 0
M  V30 8766 O 847.781 -1.36481 1.40255 0
M  V30 8767 C 848.08 1.61619 3.18769 0
M  V30 8768 C 847.746 3.11366 3.26132 0
M  V30 8769 C 846.408 3.52234 3.27848 0
M  V30 8770 C 848.76 4.07374 3.25109 0
M  V30 8771 C 846.088 4.87658 3.26201 0
M  V30 8772 C 848.44 5.42731 3.25002 0
M  V30 8773 C 847.104 5.83027 3.25017 0
M  V30 8774 H 846.374 0.365768 0.644434 0
M  V30 8775 H 849.021 1.48838 1.20497 0
M  V30 8776 H 847.326 1.04974 3.77476 0
M  V30 8777 H 849.023 1.43975 3.74262 0
M  V30 8778 H 845.613 2.78804 3.25525 0
M  V30 8779 H 849.797 3.76842 3.22961 0
M  V30 8780 H 845.053 5.18156 3.24537 0
M  V30 8781 H 849.227 6.16879 3.23161 0
M  V30 8782 H 846.854 6.87936 3.23494 0
M  V30 8783 N 848.429 -1.21819 0.999893 0
M  V30 8784 C 849.654 -1.95298 0.698094 0
M  V30 8785 C 850.079 -1.73273 -0.731982 0
M  V30 8786 O 849.437 -1.01634 -1.50134 0
M  V30 8787 C 849.485 -3.45922 1.01834 0
M  V30 8788 O 848.589 -4.12223 0.120801 0
M  V30 8789 H 847.93 -0.610729 0.260588 0
M  V30 8790 H 850.46 -1.5472 1.33876 0
M  V30 8791 H 850.47 -3.96471 0.963074 0
M  V30 8792 H 849.145 -3.61278 2.06037 0
M  V30 8793 H 847.722 -3.72177 0.232153 0
M  V30 8794 N 849.908 -0.773975 -1.37286 0
M  V30 8795 C 851.133 -0.349561 -2.04433 0
M  V30 8796 C 851.558 1.02082 -1.5799 0
M  V30 8797 O 850.916 1.65458 -0.741172 0
M  V30 8798 C 850.964 -0.404292 -3.58326 0
M  V30 8799 O 850.068 0.594447 -4.08093 0
M  V30 8800 H 849.409 -0.150959 -0.646612 0
M  V30 8801 H 851.939 -1.05079 -1.75555 0
M  V30 8802 H 851.949 -0.262378 -4.07155 0
M  V30 8803 H 850.624 -1.40403 -3.91484 0
M  V30 8804 H 849.201 0.415468 -3.70578 0
M  V30 8805 N 851.386 1.48609 -0.524698 0
M  V30 8806 C 852.614 2.06899 0.00742946 0
M  V30 8807 C 853.029 1.38196 1.28637 0
M  V30 8808 O 852.386 0.467771 1.76403 0
M  V30 8809 C 852.437 3.60699 0.240548 0
M  V30 8810 O 852.158 4.26821 -0.987715 0
M  V30 8811 C 853.659 4.35769 0.813652 0
M  V30 8812 H 850.879 0.670278 -0.0311294 0
M  V30 8813 H 853.423 1.91071 -0.728832 0
M  V30 8814 H 851.578 3.76149 0.926845 0
M  V30 8815 H 851.992 5.18889 -0.765175 0
M  V30 8816 H 853.466 5.44174 0.926219 0
M  V30 8817 H 853.943 3.9984 1.81728 0
M  V30 8818 H 854.549 4.24983 0.164086 0
M  V30 8819 N 852.864 0.259585 1.55447 0
M  V30 8820 C 853.774 -0.645026 2.25558 0
M  V30 8821 C 854.79 -1.18291 1.27606 0
M  V30 8822 O 855.966 -1.21649 1.6051 0
M  V30 8823 C 853.031 -1.81964 2.9511 0
M  V30 8824 C 852.092 -1.31997 4.08504 0
M  V30 8825 C 851.325 -2.43861 4.74729 0
M  V30 8826 O 851.548 -3.62876 4.40088 0
M  V30 8827 O 850.482 -2.12898 5.6299 0
M  V30 8828 H 854.308 -0.0775399 3.03601 0
M  V30 8829 H 851.893 0.0275859 1.49375 0
M  V30 8830 H 853.775 -2.50485 3.38873 0
M  V30 8831 H 852.45 -2.37451 2.19997 0
M  V30 8832 H 851.357 -0.601676 3.6923 0
M  V30 8833 H 852.69 -0.811045 4.85472 0
M  V30 8834 N 854.342 -1.57594 -0.0133615 0
M  V30 8835 C 855.252 -2.10991 -1.02566 0
M  V30 8836 C 856.268 -1.05208 -1.3859 0
M  V30 8837 O 857.444 -1.37034 -1.47593 0
M  V30 8838 C 854.509 -2.59165 -2.30292 0
M  V30 8839 C 853.57 -3.79495 -2.00704 0
M  V30 8840 C 852.803 -4.25361 -3.22341 0
M  V30 8841 O 853.026 -3.70645 -4.33565 0
M  V30 8842 O 851.96 -5.17649 -3.07121 0
M  V30 8843 H 855.786 -2.97678 -0.601806 0
M  V30 8844 H 853.371 -1.47598 -0.23135 0
M  V30 8845 H 855.253 -2.90409 -3.05354 0
M  V30 8846 H 853.928 -1.75582 -2.71942 0
M  V30 8847 H 852.835 -3.53245 -1.23161 0
M  V30 8848 H 854.168 -4.64109 -1.639 0
M  V30 8849 N 855.82 0.285905 -1.54985 0
M  V30 8850 C 857.097 1.0397 -1.65679 0
M  V30 8851 C 857.477 2.04725 -0.514851 0
M  V30 8852 O 856.825 2.23257 0.486663 0
M  V30 8853 C 857.035 1.70807 -3.04345 0
M  V30 8854 C 858.383 2.22447 -3.61666 0
M  V30 8855 O 859.407 1.80815 -3.06895 0
M  V30 8856 O 858.266 2.98773 -4.57599 0
M  V30 8857 H 855.36 0.481473 -0.672394 0
M  V30 8858 H 857.906 0.282789 -1.67327 0
M  V30 8859 H 856.678 0.977271 -3.789 0
M  V30 8860 H 856.301 2.53217 -3.06541 0
M  V30 8861 N 857.298 1.47698 0.54982 0
M  V30 8862 C 858.523 1.58579 1.33669 0
M  V30 8863 C 858.948 0.239049 1.86575 0
M  V30 8864 O 858.306 -0.786256 1.63364 0
M  V30 8865 C 858.354 2.62029 2.47736 0
M  V30 8866 O 857.458 2.17813 3.50188 0
M  V30 8867 H 856.799 0.532447 0.396732 0
M  V30 8868 H 859.329 1.93536 0.6637 0
M  V30 8869 H 859.339 2.82682 2.94202 0
M  V30 8870 H 858.014 3.59812 2.08586 0
M  V30 8871 H 856.591 2.07291 3.09976 0
M  V30 8872 N 858.776 -0.797141 1.35954 0
M  V30 8873 C 860.001 -1.59097 1.33053 0
M  V30 8874 C 860.426 -1.87897 -0.0874592 0
M  V30 8875 O 859.784 -1.47291 -1.05712 0
M  V30 8876 C 859.832 -2.89346 2.152 0
M  V30 8877 O 858.936 -3.826 1.5392 0
M  V30 8878 H 858.277 -0.482895 0.45575 0
M  V30 8879 H 860.807 -0.988633 1.79129 0
M  V30 8880 H 860.817 -3.38686 2.27499 0
M  V30 8881 H 859.492 -2.6771 3.18283 0
M  V30 8882 H 858.069 -3.41174 1.50516 0
M  V30 8883 N 860.254 -1.20106 -1.0204 0
M  V30 8884 C 861.186 -0.904236 -2.10609 0
M  V30 8885 C 862.199 0.106487 -1.62451 0
M  V30 8886 O 863.388 -0.124035 -1.78069 0
M  V30 8887 C 860.488 -0.333423 -3.37256 0
M  V30 8888 C 859.661 -1.39476 -4.14566 0
M  V30 8889 C 858.72 -0.835961 -5.19517 0
M  V30 8890 O 857.746 -1.51573 -5.48648 0
M  V30 8891 N 858.948 0.356531 -5.79404 0
M  V30 8892 H 861.713 -1.8388 -2.36661 0
M  V30 8893 H 859.274 -1.10422 -1.184 0
M  V30 8894 H 861.266 0.0544571 -4.04663 0
M  V30 8895 H 859.836 0.505608 -3.08484 0
M  V30 8896 H 859.056 -1.95714 -3.42184 0
M  V30 8897 H 860.344 -2.10967 -4.63001 0
M  V30 8898 H 859.742 0.926143 -5.58067 0
M  V30 8899 H 858.299 0.686093 -6.48179 0
M  V30 8900 N 861.732 1.21287 -1.00634 0
M  V30 8901 C 863.009 1.86 -0.605257 0
M  V30 8902 C 863.389 1.90139 0.917072 0
M  V30 8903 O 862.737 1.40169 1.80458 0
M  V30 8904 C 862.947 3.26183 -1.24119 0
M  V30 8905 C 864.295 4.02562 -1.35015 0
M  V30 8906 O 865.319 3.35499 -1.19661 0
M  V30 8907 O 864.178 5.22638 -1.59726 0
M  V30 8908 H 861.272 0.800549 -0.207486 0
M  V30 8909 H 863.818 1.28959 -1.10307 0
M  V30 8910 H 862.59 3.17878 -2.28186 0
M  V30 8911 H 862.213 3.90845 -0.729807 0
M  V30 8912 N 863.21 0.781244 1.36873 0
M  V30 8913 C 864.487 0.274217 1.93668 0
M  V30 8914 C 864.867 -1.2323 1.71399 0
M  V30 8915 O 864.215 -2.01993 1.06822 0
M  V30 8916 C 864.425 0.657939 3.42742 0
M  V30 8917 C 865.773 0.63307 4.19854 0
M  V30 8918 O 866.797 0.597909 3.51146 0
M  V30 8919 O 865.656 0.668636 5.42394 0
M  V30 8920 H 862.75 0.0658059 0.824378 0
M  V30 8921 H 865.296 0.863238 1.46104 0
M  V30 8922 H 864.068 1.69728 3.52573 0
M  V30 8923 H 863.691 0.0423678 3.97577 0
M  V30 8924 N 864.689 -1.48329 0.532571 0
M  V30 8925 C 865.966 -1.95492 -0.0650985 0
M  V30 8926 C 866.346 -1.47485 -1.51034 0
M  V30 8927 O 865.694 -0.702516 -2.17433 0
M  V30 8928 C 865.904 -3.48957 0.0548341 0
M  V30 8929 C 867.252 -4.24475 -0.103115 0
M  V30 8930 O 868.276 -3.56195 -0.0188343 0
M  V30 8931 O 867.135 -5.45781 -0.280164 0
M  V30 8932 H 864.229 -0.823327 -0.0778603 0
M  V30 8933 H 866.775 -1.58839 0.597353 0
M  V30 8934 H 865.547 -3.76628 1.06148 0
M  V30 8935 H 865.17 -3.92311 -0.64635 0
M  V30 8936 N 866.167 -0.267825 -1.55308 0
M  V30 8937 C 867.392 0.357487 -2.04296 0
M  V30 8938 C 867.817 1.49222 -1.14518 0
M  V30 8939 O 867.175 1.80741 -0.142292 0
M  V30 8940 C 867.223 0.822899 -3.51085 0
M  V30 8941 O 866.327 1.93078 -3.6441 0
M  V30 8942 H 865.668 0.075025 -0.659748 0
M  V30 8943 H 868.198 -0.399996 -2.00652 0
M  V30 8944 H 868.208 1.12059 -3.92309 0
M  V30 8945 H 866.883 -0.0073562 -4.15899 0
M  V30 8946 H 865.46 1.63618 -3.35087 0
M  V30 8947 N 867.645 1.57599 0.00500368 0
M  V30 8948 C 868.555 2.11532 1.01446 0
M  V30 8949 C 869.571 1.05941 1.3803 0
M  V30 8950 O 870.747 1.37815 1.46864 0
M  V30 8951 C 867.812 2.60382 2.28915 0
M  V30 8952 C 866.873 3.80554 1.98689 0
M  V30 8953 C 866.106 4.27064 3.20081 0
M  V30 8954 O 866.329 3.72939 4.31593 0
M  V30 8955 O 865.263 5.1927 3.04371 0
M  V30 8956 H 869.089 2.97993 0.586011 0
M  V30 8957 H 866.674 1.47718 0.223519 0
M  V30 8958 H 868.556 2.92024 3.03809 0
M  V30 8959 H 867.231 1.77022 2.71007 0
M  V30 8960 H 866.138 3.53893 1.21286 0
M  V30 8961 H 867.471 4.64972 1.61437 0
M  V30 8962 N 869.123 -0.277682 1.55134 0
M  V30 8963 C 870.534 -0.849063 1.66276 0
M  V30 8964 C 870.885 -1.87223 0.5867 0
M  V30 8965 O 870.01 -2.14676 -0.272635 0
M  V30 8966 C 870.605 -1.54681 3.01429 0
M  V30 8967 C 869.164 -2.06628 3.14614 0
M  V30 8968 C 868.311 -0.906748 2.62056 0
M  V30 8969 H 871.262 -0.0541357 1.58608 0
M  V30 8970 H 871.283 -2.41356 2.94156 0
M  V30 8971 H 870.795 -0.80189 3.79725 0
M  V30 8972 H 868.896 -2.84095 2.41082 0
M  V30 8973 H 869.009 -2.2848 4.2111 0
M  V30 8974 H 867.373 -1.29882 2.19095 0
M  V30 8975 H 868.156 -0.175414 3.42852 0
M  V30 8976 N 870.601 -1.47988 -0.541979 0
M  V30 8977 C 871.85 -1.5465 -1.29485 0
M  V30 8978 C 872.163 -0.220041 -1.94358 0
M  V30 8979 O 873.369 -0.164792 -2.70999 0
M  V30 8980 C 871.825 -2.72685 -2.34885 0
M  V30 8981 C 871.433 -4.11923 -1.76134 0
M  V30 8982 C 873.177 -2.88651 -3.11257 0
M  V30 8983 C 871.084 -5.21237 -2.79404 0
M  V30 8984 H 870.014 -0.575688 -0.486928 0
M  V30 8985 H 872.665 -1.74296 -0.573853 0
M  V30 8986 H 871.047 -2.46448 -3.09966 0
M  V30 8987 H 872.221 -4.48128 -1.07322 0
M  V30 8988 H 870.536 -4.00972 -1.12295 0
M  V30 8989 H 873.133 -3.67487 -3.88404 0
M  V30 8990 H 873.476 -1.97658 -3.66384 0
M  V30 8991 H 874.009 -3.14731 -2.43288 0
M  V30 8992 H 870.748 -6.14156 -2.29113 0
M  V30 8993 H 870.268 -4.89533 -3.4658 0
M  V30 8994 H 871.947 -5.48839 -3.42615 0
M  V30 8995 N 872.079 0.78992 -1.36375 0
M  V30 8996 C 873.009 1.91683 -1.33341 0
M  V30 8997 C 873.99 1.68861 -0.204965 0
M  V30 8998 O 875.175 1.89982 -0.402531 0
M  V30 8999 C 872.305 3.28696 -1.12143 0
M  V30 9000 C 871.259 3.66041 -2.21806 0
M  V30 9001 C 870.585 5.01399 -1.85751 0
M  V30 9002 C 871.885 3.74677 -3.63888 0
M  V30 9003 H 873.579 1.94478 -2.27637 0
M  V30 9004 H 871.125 0.934271 -1.09578 0
M  V30 9005 H 873.078 4.07151 -1.08656 0
M  V30 9006 H 871.802 3.26287 -0.142974 0
M  V30 9007 H 870.461 2.89883 -2.24418 0
M  V30 9008 H 870.109 4.9551 -0.864817 0
M  V30 9009 H 869.809 5.27355 -2.59173 0
M  V30 9010 H 871.333 5.82274 -1.83819 0
M  V30 9011 H 872.747 4.43324 -3.63506 0
M  V30 9012 H 871.144 4.12118 -4.3621 0
M  V30 9013 H 872.214 2.75795 -3.9883 0
M  V30 9014 N 873.557 1.20646 1.01402 0
M  V30 9015 C 874.805 1.01618 1.74695 0
M  V30 9016 C 875.126 -0.452438 1.89679 0
M  V30 9017 O 874.396 -1.32693 1.44116 0
M  V30 9018 H 872.976 0.373013 0.647202 0
M  V30 9019 H 875.638 1.518 1.22241 0
M  V30 9020 H 874.734 1.47666 2.74957 0
M  V30 9021 N 875.035 -1.20752 1.01276 0
M  V30 9022 C 875.967 -2.22798 0.537917 0
M  V30 9023 C 876.98 -1.5836 -0.377638 0
M  V30 9024 O 878.169 -1.77624 -0.176599 0
M  V30 9025 C 875.269 -3.38068 -0.237364 0
M  V30 9026 C 874.442 -4.32095 0.679161 0
M  V30 9027 C 873.501 -5.26178 -0.0478676 0
M  V30 9028 O 872.527 -5.66305 0.573366 0
M  V30 9029 N 873.729 -5.65201 -1.32396 0
M  V30 9030 H 876.494 -2.64166 1.4155 0
M  V30 9031 H 874.055 -1.35254 0.889826 0
M  V30 9032 H 876.047 -3.98009 -0.73288 0
M  V30 9033 H 874.617 -2.95622 -1.0162 0
M  V30 9034 H 873.837 -3.70179 1.35505 0
M  V30 9035 H 875.125 -4.91842 1.30263 0
M  V30 9036 H 874.523 -5.34606 -1.84968 0
M  V30 9037 H 873.08 -6.27468 -1.76428 0
M  V30 9038 N 876.513 -0.788492 -1.36457 0
M  V30 9039 C 877.759 -0.370067 -2.00005 0
M  V30 9040 C 878.114 1.0464 -1.61456 0
M  V30 9041 O 877.407 1.71277 -0.85876 0
M  V30 9042 C 877.601 -0.470255 -3.54293 0
M  V30 9043 C 877.43 -1.89492 -4.07827 0
M  V30 9044 C 876.2 -2.51932 -4.38016 0
M  V30 9045 C 878.398 -2.85692 -4.2765 0
M  V30 9046 N 876.38 -3.85997 -4.77368 0
M  V30 9047 C 877.751 -4.04588 -4.69796 0
M  V30 9048 C 879.806 -2.8276 -4.09818 0
M  V30 9049 C 878.509 -5.2096 -4.95977 0
M  V30 9050 C 880.535 -3.98319 -4.37145 0
M  V30 9051 C 879.897 -5.1596 -4.79547 0
M  V30 9052 H 875.996 -0.182813 -0.760331 0
M  V30 9053 H 878.58 -1.02589 -1.6548 0
M  V30 9054 H 876.751 0.155476 -3.88089 0
M  V30 9055 H 878.483 -0.0281643 -4.0469 0
M  V30 9056 H 875.238 -2.0342 -4.27688 0
M  V30 9057 H 875.662 -4.54971 -5.01329 0
M  V30 9058 H 880.304 -1.92971 -3.76194 0
M  V30 9059 H 878.022 -6.11335 -5.28483 0
M  V30 9060 H 881.608 -3.97411 -4.24919 0
M  V30 9061 H 880.488 -6.03893 -5.00283 0
M  V30 9062 N 877.991 1.48044 -0.54043 0
M  V30 9063 C 879.238 2.02497 -0.0101567 0
M  V30 9064 C 879.566 1.41651 1.33286 0
M  V30 9065 O 878.821 0.555504 1.8765 0
M  V30 9066 C 879.12 3.57085 0.150008 0
M  V30 9067 C 878.786 4.36769 -1.11998 0
M  V30 9068 C 877.448 4.58261 -1.46801 0
M  V30 9069 C 879.8 4.82848 -1.96232 0
M  V30 9070 C 877.128 5.23079 -2.65717 0
M  V30 9071 C 879.48 5.48977 -3.14335 0
M  V30 9072 C 878.144 5.68705 -3.49472 0
M  V30 9073 H 877.414 0.740991 -0.00371661 0
M  V30 9074 H 880.061 1.77909 -0.708562 0
M  V30 9075 H 878.366 3.80572 0.931259 0
M  V30 9076 H 880.063 3.96851 0.575384 0
M  V30 9077 H 876.653 4.20309 -0.838957 0
M  V30 9078 H 880.837 4.66038 -1.70654 0
M  V30 9079 H 876.093 5.36549 -2.93129 0
M  V30 9080 H 880.267 5.83649 -3.79904 0
M  V30 9081 H 877.894 6.18703 -4.41713 0
M  V30 9082 N 879.47 0.276058 1.55163 0
M  V30 9083 C 880.38 -0.621066 2.2623 0
M  V30 9084 C 881.396 -1.16931 1.28853 0
M  V30 9085 O 882.572 -1.1994 1.61791 0
M  V30 9086 C 879.637 -1.78824 2.97023 0
M  V30 9087 C 878.698 -1.27657 4.09881 0
M  V30 9088 C 877.931 -2.38812 4.77289 0
M  V30 9089 O 878.154 -3.58188 4.43912 0
M  V30 9090 O 877.088 -2.06915 5.65217 0
M  V30 9091 H 880.914 -0.0453346 3.03666 0
M  V30 9092 H 878.499 0.0434275 1.49337 0
M  V30 9093 H 880.381 -2.46877 3.41511 0
M  V30 9094 H 879.056 -2.35104 2.22503 0
M  V30 9095 H 877.963 -0.56248 3.69847 0
M  V30 9096 H 879.296 -0.759509 4.86305 0
M  V30 9097 N 880.948 -1.576 0.00335426 0
M  V30 9098 C 881.858 -2.12067 -1.00322 0
M  V30 9099 C 882.874 -1.06672 -1.37467 0
M  V30 9100 O 884.05 -1.38592 -1.46131 0
M  V30 9101 C 881.115 -2.61593 -2.27531 0
M  V30 9102 C 880.176 -3.81602 -1.96668 0
M  V30 9103 C 879.409 -4.28756 -3.17811 0
M  V30 9104 O 879.632 -3.75222 -4.2961 0
M  V30 9105 O 878.566 -5.20877 -3.01613 0
M  V30 9106 H 882.392 -2.98299 -0.570199 0
M  V30 9107 H 879.977 -1.47835 -0.215682 0
M  V30 9108 H 881.859 -2.93631 -3.02256 0
M  V30 9109 H 880.534 -1.78457 -2.70065 0
M  V30 9110 H 879.441 -3.54531 -1.19408 0
M  V30 9111 H 880.774 -4.65822 -1.58968 0
M  V30 9112 N 882.426 0.269451 -1.5528 0
M  V30 9113 C 883.654 1.01872 -1.80082 0
M  V30 9114 C 884.069 1.79802 -0.575917 0
M  V30 9115 O 883.426 1.76735 0.455081 0
M  V30 9116 C 883.477 1.9745 -3.02813 0
M  V30 9117 O 883.198 1.22677 -4.20573 0
M  V30 9118 C 884.699 2.8416 -3.40247 0
M  V30 9119 H 881.919 0.300781 -0.59981 0
M  V30 9120 H 884.463 0.29916 -2.023 0
M  V30 9121 H 882.618 2.64864 -2.82712 0
M  V30 9122 H 883.032 1.87129 -4.89982 0
M  V30 9123 H 884.506 3.47014 -4.29284 0
M  V30 9124 H 884.983 3.54113 -2.59809 0
M  V30 9125 H 885.589 2.22232 -3.6262 0
M  V30 9126 N 883.904 1.48273 0.534124 0
M  V30 9127 C 885.153 1.55334 1.28663 0
M  V30 9128 C 885.466 0.230345 1.94239 0
M  V30 9129 O 886.672 0.179161 2.70908 0
M  V30 9130 C 885.128 2.73927 2.33435 0
M  V30 9131 C 884.736 4.12852 1.73947 0
M  V30 9132 C 886.48 2.90298 3.09722 0
M  V30 9133 C 884.387 5.22711 2.76636 0
M  V30 9134 H 883.317 0.578262 0.483869 0
M  V30 9135 H 885.968 1.74598 0.564602 0
M  V30 9136 H 884.35 2.48089 3.08655 0
M  V30 9137 H 885.524 4.48691 1.04944 0
M  V30 9138 H 883.839 4.01562 1.10167 0
M  V30 9139 H 886.436 3.69542 3.86449 0
M  V30 9140 H 886.779 1.99598 3.6533 0
M  V30 9141 H 887.312 3.16017 2.41616 0
M  V30 9142 H 884.051 6.15362 2.25852 0
M  V30 9143 H 883.571 4.91364 3.43979 0
M  V30 9144 H 885.25 5.50648 3.39699 0
M  V30 9145 N 885.382 -0.782676 1.36792 0
M  V30 9146 C 886.607 -1.57676 1.34733 0
M  V30 9147 C 887.032 -1.87979 -0.0675253 0
M  V30 9148 O 886.39 -1.48404 -1.04144 0
M  V30 9149 C 886.438 -2.87047 2.18257 0
M  V30 9150 O 885.542 -3.80946 1.57969 0
M  V30 9151 H 884.883 -0.478034 0.460846 0
M  V30 9152 H 887.413 -0.969578 1.80168 0
M  V30 9153 H 887.423 -3.36254 2.31079 0
M  V30 9154 H 886.098 -2.64319 3.21104 0
M  V30 9155 H 884.675 -3.39558 1.54126 0
M  V30 9156 N 886.86 -1.21182 -1.00761 0
M  V30 9157 C 888.271 -1.02652 -1.55947 0
M  V30 9158 C 888.622 0.414466 -1.91772 0
M  V30 9159 O 887.747 1.29727 -1.73204 0
M  V30 9160 C 888.342 -1.85713 -2.83366 0
M  V30 9161 C 886.901 -1.71523 -3.35048 0
M  V30 9162 C 886.048 -1.83087 -2.08265 0
M  V30 9163 H 888.999 -1.35242 -0.830379 0
M  V30 9164 H 889.02 -1.36583 -3.55141 0
M  V30 9165 H 888.532 -2.90584 -2.5726 0
M  V30 9166 H 886.633 -0.693257 -3.66094 0
M  V30 9167 H 886.746 -2.53333 -4.06644 0
M  V30 9168 H 885.11 -1.26367 -2.21141 0
M  V30 9169 H 885.893 -2.8946 -1.84575 0
M  V30 9170 N 888.338 1.20213 -1.01915 0
M  V30 9171 C 889.563 1.94163 -0.729076 0
M  V30 9172 C 889.988 1.74416 0.704323 0
M  V30 9173 O 889.346 1.0401 1.48498 0
M  V30 9174 C 889.394 3.44258 -1.07324 0
M  V30 9175 O 888.498 4.11979 -0.186367 0
M  V30 9176 H 887.839 0.606506 -0.270272 0
M  V30 9177 H 890.369 1.52571 -1.3632 0
M  V30 9178 H 890.379 3.94888 -1.02603 0
M  V30 9179 H 889.054 3.57954 -2.11759 0
M  V30 9180 H 887.631 3.7176 -0.291334 0
M  V30 9181 N 889.816 0.795718 1.36037 0
M  V30 9182 C 890.763 0.196548 2.29962 0
M  V30 9183 C 891.733 -0.663213 1.52285 0
M  V30 9184 O 892.918 -0.610574 1.80767 0
M  V30 9185 C 890.058 -0.657639 3.38776 0
M  V30 9186 C 889.171 0.221358 4.31433 0
M  V30 9187 C 888.306 -0.6398 5.27333 0
M  V30 9188 C 887.345 0.240265 6.11628 0
M  V30 9189 N 886.482 -0.580237 6.99698 0
M  V30 9190 H 891.322 1.00295 2.80615 0
M  V30 9191 H 888.859 0.506147 1.38118 0
M  V30 9192 H 890.817 -1.16793 4.00519 0
M  V30 9193 H 889.447 -1.42941 2.89426 0
M  V30 9194 H 888.499 0.84967 3.70789 0
M  V30 9195 H 889.811 0.899195 4.90628 0
M  V30 9196 H 888.965 -1.21566 5.94396 0
M  V30 9197 H 887.704 -1.35124 4.68607 0
M  V30 9198 H 886.709 0.828474 5.43522 0
M  V30 9199 H 887.934 0.949403 6.72431 0
M  V30 9200 H 885.88 -1.27585 6.43473 0
M  V30 9201 H 885.797 0.0397853 7.5599 0
M  V30 9202 H 887.065 -1.13972 7.71123 0
M  V30 9203 N 891.294 -1.47756 0.548274 0
M  V30 9204 C 892.204 -2.33678 -0.207773 0
M  V30 9205 C 893.22 -1.47636 -0.920843 0
M  V30 9206 O 894.396 -1.80583 -0.89173 0
M  V30 9207 C 891.461 -3.24147 -1.23003 0
M  V30 9208 C 890.522 -4.26073 -0.52535 0
M  V30 9209 C 889.755 -5.12219 -1.4989 0
M  V30 9210 O 889.978 -5.0066 -2.73305 0
M  V30 9211 O 888.912 -5.93051 -1.02828 0
M  V30 9212 H 892.738 -2.99609 0.496794 0
M  V30 9213 H 890.323 -1.4617 0.308982 0
M  V30 9214 H 892.205 -3.80055 -1.82034 0
M  V30 9215 H 890.88 -2.60855 -1.91668 0
M  V30 9216 H 889.787 -3.7395 0.105927 0
M  V30 9217 H 891.12 -4.92054 0.119686 0
M  V30 9218 N 892.772 -0.284283 -1.55015 0
M  V30 9219 C 893.719 0.599194 -2.22886 0
M  V30 9220 C 894.689 1.14264 -1.20553 0
M  V30 9221 O 895.874 1.19025 -1.49123 0
M  V30 9222 C 893.014 1.77317 -2.96062 0
M  V30 9223 C 892.127 1.26271 -4.13134 0
M  V30 9224 C 891.262 2.39922 -4.73931 0
M  V30 9225 C 890.301 1.85925 -5.8318 0
M  V30 9226 N 889.438 2.93084 -6.38002 0
M  V30 9227 H 894.278 0.0137816 -2.97997 0
M  V30 9228 H 891.815 -0.00496503 -1.47099 0
M  V30 9229 H 893.773 2.46339 -3.36709 0
M  V30 9230 H 892.403 2.33047 -2.23358 0
M  V30 9231 H 891.455 0.465296 -3.77544 0
M  V30 9232 H 892.767 0.827284 -4.91892 0
M  V30 9233 H 891.921 3.1692 -5.17346 0
M  V30 9234 H 890.66 2.86784 -3.9447 0
M  V30 9235 H 889.665 1.07409 -5.39206 0
M  V30 9236 H 890.89 1.39987 -6.64515 0
M  V30 9237 H 888.836 3.3931 -5.61431 0
M  V30 9238 H 888.753 2.53986 -7.12058 0
M  V30 9239 H 890.021 3.7003 -6.86075 0
M  V30 9240 N 894.251 1.57596 -0.0117121 0
M  V30 9241 C 895.214 2.08089 0.960816 0
M  V30 9242 C 896.214 0.992519 1.26514 0
M  V30 9243 O 897.404 1.25475 1.20837 0
M  V30 9244 C 894.536 2.53217 2.28241 0
M  V30 9245 H 895.729 2.9529 0.523829 0
M  V30 9246 H 893.282 1.54508 0.235995 0
M  V30 9247 H 894.017 1.69294 2.76604 0
M  V30 9248 H 893.802 3.32714 2.0747 0
M  V30 9249 H 895.292 2.92568 2.97983 0
M  V30 9250 N 895.729 -0.261212 1.5542 0
M  V30 9251 C 896.692 -1.30645 1.8832 0
M  V30 9252 C 897.692 -1.41782 0.758588 0
M  V30 9253 O 898.882 -1.40729 1.02669 0
M  V30 9254 C 896.014 -2.6862 2.09895 0
M  V30 9255 H 897.207 -1.02698 2.81768 0
M  V30 9256 H 894.76 -0.499838 1.48092 0
M  V30 9257 H 895.495 -3.0173 1.18868 0
M  V30 9258 H 895.28 -2.61921 2.91787 0
M  V30 9259 H 896.77 -3.44121 2.36581 0
M  V30 9260 N 897.207 -1.48554 -0.526253 0
M  V30 9261 C 898.618 -1.50256 -1.10815 0
M  V30 9262 C 898.969 -0.274445 -1.94271 0
M  V30 9263 O 898.094 0.618094 -2.07385 0
M  V30 9264 C 898.689 -2.72264 -2.01638 0
M  V30 9265 C 897.248 -2.76826 -2.55038 0
M  V30 9266 C 896.395 -2.43823 -1.32081 0
M  V30 9267 H 899.346 -1.55616 -0.31133 0
M  V30 9268 H 899.367 -2.50993 -2.85977 0
M  V30 9269 H 898.879 -3.61632 -1.4087 0
M  V30 9270 H 896.98 -1.91676 -3.19517 0
M  V30 9271 H 897.093 -3.78351 -2.93917 0
M  V30 9272 H 895.457 -1.95058 -1.63781 0
M  V30 9273 H 896.24 -3.35436 -0.730596 0
M  V30 9274 N 898.685 0.775411 -1.37205 0
M  V30 9275 C 900.096 1.35147 -1.28811 0
M  V30 9276 C 900.447 1.96089 0.0659168 0
M  V30 9277 O 899.572 1.93558 0.967684 0
M  V30 9278 C 900.167 2.45715 -2.33258 0
M  V30 9279 C 898.726 2.99099 -2.2851 0
M  V30 9280 C 897.873 1.72286 -2.17285 0
M  V30 9281 H 900.824 0.575954 -1.4788 0
M  V30 9282 H 900.845 3.251 -1.97712 0
M  V30 9283 H 900.357 2.01331 -3.31795 0
M  V30 9284 H 898.458 3.47868 -1.33485 0
M  V30 9285 H 898.571 3.54962 -3.21774 0
M  V30 9286 H 896.935 1.95068 -1.6377 0
M  V30 9287 H 897.718 1.3001 -3.1773 0
M  V30 9288 N 900.163 1.21714 1.00117 0
M  V30 9289 C 901.574 1.03477 1.55401 0
M  V30 9290 C 901.925 -0.40429 1.91989 0
M  V30 9291 O 901.05 -1.28807 1.7389 0
M  V30 9292 C 901.645 1.87213 2.82377 0
M  V30 9293 C 900.204 1.73297 3.34133 0
M  V30 9294 C 899.351 1.84189 2.07291 0
M  V30 9295 H 902.302 1.3568 0.823195 0
M  V30 9296 H 902.323 1.38465 3.54412 0
M  V30 9297 H 901.835 2.91944 2.55715 0
M  V30 9298 H 899.936 0.712662 3.65721 0
M  V30 9299 H 900.049 2.55486 4.05294 0
M  V30 9300 H 898.413 1.27538 2.20468 0
M  V30 9301 H 899.196 2.90435 1.83037 0
M  V30 9302 N 901.641 -1.19671 1.02551 0
M  V30 9303 C 903.052 -1.70964 0.750208 0
M  V30 9304 C 903.403 -1.82095 -0.730461 0
M  V30 9305 O 902.528 -1.48974 -1.56958 0
M  V30 9306 C 903.123 -3.10516 1.35518 0
M  V30 9307 C 901.682 -3.59083 1.12854 0
M  V30 9308 C 900.829 -2.36041 1.45534 0
M  V30 9309 H 903.78 -1.04559 1.19386 0
M  V30 9310 H 903.801 -3.73028 0.750378 0
M  V30 9311 H 903.313 -3.02383 2.43282 0
M  V30 9312 H 901.414 -3.72536 0.0689627 0
M  V30 9313 H 901.527 -4.43395 1.81488 0
M  V30 9314 H 899.891 -2.39214 0.87458 0
M  V30 9315 H 900.674 -2.3054 2.54374 0
M  V30 9316 N 903.119 -0.802921 -1.35613 0
M  V30 9317 C 904.53 -0.443004 -1.81368 0
M  V30 9318 C 904.881 1.03459 -1.66706 0
M  V30 9319 O 904.006 1.80372 -1.19561 0
M  V30 9320 C 904.601 -0.797324 -3.29284 0
M  V30 9321 C 903.16 -0.490055 -3.73196 0
M  V30 9322 C 902.307 -1.02487 -2.57666 0
M  V30 9323 H 905.258 -0.994888 -1.23643 0
M  V30 9324 H 905.279 -0.0934638 -3.80385 0
M  V30 9325 H 904.791 -1.87278 -3.39924 0
M  V30 9326 H 902.892 0.576818 -3.68108 0
M  V30 9327 H 903.005 -1.02012 -4.68114 0
M  V30 9328 H 901.369 -0.44738 -2.5074 0
M  V30 9329 H 902.152 -2.10636 -2.71085 0
M  V30 9330 N 904.597 1.47463 -0.556102 0
M  V30 9331 C 906.008 1.86298 -0.122429 0
M  V30 9332 C 906.359 1.46285 1.30749 0
M  V30 9333 O 905.484 0.865405 1.98342 0
M  V30 9334 C 906.079 3.38115 -0.215407 0
M  V30 9335 C 904.638 3.76046 0.163223 0
M  V30 9336 C 903.785 2.71515 -0.563466 0
M  V30 9337 H 906.736 1.38996 -0.765888 0
M  V30 9338 H 906.757 3.76263 0.566271 0
M  V30 9339 H 906.269 3.67207 -1.25622 0
M  V30 9340 H 904.37 3.5257 1.20519 0
M  V30 9341 H 904.483 4.78705 -0.194568 0
M  V30 9342 H 902.847 2.54699 -0.00667879 0
M  V30 9343 H 903.63 3.03449 -1.60542 0
M  V30 9344 N 906.075 0.2925 1.54862 0
M  V30 9345 C 907.486 -0.201841 1.85606 0
M  V30 9346 C 907.837 -1.54093 1.21449 0
M  V30 9347 O 906.962 -2.10327 0.509079 0
M  V30 9348 C 907.557 -0.373011 3.3674 0
M  V30 9349 C 906.116 -0.811574 3.67547 0
M  V30 9350 C 905.263 0.0850583 2.7717 0
M  V30 9351 H 908.214 0.513774 1.50153 0
M  V30 9352 H 908.235 -1.20892 3.60785 0
M  V30 9353 H 907.747 0.601751 3.83407 0
M  V30 9354 H 905.848 -1.79719 3.26392 0
M  V30 9355 H 905.961 -0.636853 4.74848 0
M  V30 9356 H 904.325 -0.434224 2.50971 0
M  V30 9357 H 905.108 1.05602 3.26654 0
M  V30 9358 N 907.553 -1.57587 0.0200696 0
M  V30 9359 C 908.964 -1.79312 -0.520019 0
M  V30 9360 C 909.315 -0.929475 -1.72787 0
M  V30 9361 O 908.44 -0.137389 -2.15963 0
M  V30 9362 C 909.035 -3.25203 -0.950172 0
M  V30 9363 C 907.594 -3.47954 -1.43543 0
M  V30 9364 C 906.741 -2.74459 -0.395917 0
M  V30 9365 H 909.692 -1.56779 0.246153 0
M  V30 9366 H 909.713 -3.34418 -1.81508 0
M  V30 9367 H 909.225 -3.88035 -0.070883 0
M  V30 9368 H 907.326 -2.90363 -2.33495 0
M  V30 9369 H 907.439 -4.56661 -1.44905 0
M  V30 9370 H 905.803 -2.39669 -0.862022 0
M  V30 9371 H 906.586 -3.40001 0.47475 0
M  V30 9372 N 909.032 0.252966 -1.55557 0
M  V30 9373 C 910.443 0.822503 -1.67606 0
M  V30 9374 C 910.794 1.86265 -0.616411 0
M  V30 9375 O 909.919 2.15082 0.238447 0
M  V30 9376 C 910.514 1.49866 -3.03852 0
M  V30 9377 C 909.073 2.01597 -3.17861 0
M  V30 9378 C 908.22 0.864943 -2.63465 0
M  V30 9379 H 911.171 0.0288958 -1.58674 0
M  V30 9380 H 911.192 2.36646 -2.97958 0
M  V30 9381 H 910.704 0.741378 -3.80953 0
M  V30 9382 H 908.805 2.80224 -2.45571 0
M  V30 9383 H 908.918 2.21752 -4.24692 0
M  V30 9384 H 907.282 1.2638 -2.21134 0
M  V30 9385 H 908.065 0.120847 -3.43087 0
M  V30 9386 N 910.51 1.48831 0.518367 0
M  V30 9387 C 911.44 1.67119 1.63075 0
M  V30 9388 C 912.421 0.519948 1.61958 0
M  V30 9389 O 913.606 0.753824 1.78972 0
M  V30 9390 C 910.736 1.72158 3.01627 0
M  V30 9391 C 909.69 2.86898 3.17606 0
M  V30 9392 C 909.016 2.77035 4.57335 0
M  V30 9393 C 910.316 4.28057 2.99274 0
M  V30 9394 H 912.01 2.60248 1.48025 0
M  V30 9395 H 909.556 1.2524 0.710694 0
M  V30 9396 H 911.509 1.83539 3.7933 0
M  V30 9397 H 910.233 0.756157 3.17726 0
M  V30 9398 H 908.892 2.75091 2.42323 0
M  V30 9399 H 908.54 1.78438 4.70286 0
M  V30 9400 H 908.24 3.54036 4.6897 0
M  V30 9401 H 909.764 2.904 5.37122 0
M  V30 9402 H 911.178 4.40636 3.6676 0
M  V30 9403 H 909.575 5.06145 3.22393 0
M  V30 9404 H 910.645 4.4371 1.95574 0
M  V30 9405 N 911.988 -0.768124 1.37614 0
M  V30 9406 C 912.898 -1.91249 1.35871 0
M  V30 9407 C 913.914 -1.7208 0.257786 0
M  V30 9408 O 915.09 -1.95253 0.493782 0
M  V30 9409 C 912.155 -3.26423 1.16829 0
M  V30 9410 C 911.216 -3.5822 2.36594 0
M  V30 9411 C 910.449 -4.86945 2.1845 0
M  V30 9412 O 910.672 -5.58258 1.17064 0
M  V30 9413 O 909.606 -5.17888 3.06718 0
M  V30 9414 H 913.432 -1.95671 2.32264 0
M  V30 9415 H 911.017 -0.911382 1.18382 0
M  V30 9416 H 912.899 -4.07269 1.08212 0
M  V30 9417 H 911.574 -3.22845 0.235123 0
M  V30 9418 H 910.481 -2.77594 2.50783 0
M  V30 9419 H 911.814 -3.66545 3.2849 0
M  V30 9420 N 913.466 -1.22244 -0.994698 0
M  V30 9421 C 914.691 -1.07299 -1.77487 0
M  V30 9422 C 915.116 0.372302 -1.84379 0
M  V30 9423 O 914.474 1.2689 -1.29494 0
M  V30 9424 C 914.522 -1.68675 -3.18718 0
M  V30 9425 O 913.626 -0.939202 -4.01563 0
M  V30 9426 H 912.967 -0.376979 -0.546611 0
M  V30 9427 H 915.497 -1.62003 -1.24965 0
M  V30 9428 H 915.507 -1.73324 -3.69354 0
M  V30 9429 H 914.182 -2.73849 -3.13017 0
M  V30 9430 H 912.759 -0.968583 -3.60101 0
M  V30 9431 N 914.944 1.19125 -1.03184 0
M  V30 9432 C 916.169 1.93379 -0.749628 0
M  V30 9433 C 916.594 1.75153 0.685785 0
M  V30 9434 O 915.952 1.05579 1.47386 0
M  V30 9435 C 916 3.43101 -1.1097 0
M  V30 9436 O 915.104 4.11758 -0.230053 0
M  V30 9437 H 914.445 0.603605 -0.276689 0
M  V30 9438 H 916.975 1.51116 -1.37931 0
M  V30 9439 H 916.985 3.93778 -1.06785 0
M  V30 9440 H 915.66 3.55688 -2.15544 0
M  V30 9441 H 914.237 3.7143 -0.330748 0
M  V30 9442 N 916.422 0.810101 1.35185 0
M  V30 9443 C 917.833 0.452616 1.81131 0
M  V30 9444 C 918.184 -1.02573 1.67252 0
M  V30 9445 O 917.309 -1.79735 1.20516 0
M  V30 9446 C 917.904 0.814775 3.28857 0
M  V30 9447 C 916.463 0.509839 3.72931 0
M  V30 9448 C 915.61 1.03852 2.57119 0
M  V30 9449 H 918.561 1.00143 1.23114 0
M  V30 9450 H 918.582 0.113635 3.8033 0
M  V30 9451 H 918.094 1.89078 3.38926 0
M  V30 9452 H 916.195 -0.557289 3.68409 0
M  V30 9453 H 916.308 1.04493 4.67566 0
M  V30 9454 H 914.672 0.460671 2.50499 0
M  V30 9455 H 915.455 2.12071 2.69964 0
M  V30 9456 N 917.9 -1.47166 0.563914 0
M  V30 9457 C 919.316 -1.58018 0.224173 0
M  V30 9458 C 919.516 -1.56163 -1.27339 0
M  V30 9459 O 918.572 -1.4686 -2.05398 0
M  V30 9460 C 919.885 -2.88236 0.856762 0
M  V30 9461 C 921.433 -3.01833 0.82861 0
M  V30 9462 C 921.908 -4.34761 1.44039 0
M  V30 9463 N 923.399 -4.41413 1.40388 0
M  V30 9464 C 924.134 -5.42845 1.84681 0
M  V30 9465 N 923.63 -6.51052 2.3686 0
M  V30 9466 N 925.423 -5.33931 1.75711 0
M  V30 9467 H 917.574 -1.46615 1.53681 0
M  V30 9468 H 919.837 -0.698195 0.64127 0
M  V30 9469 H 919.543 -2.95349 1.90949 0
M  V30 9470 H 919.417 -3.75537 0.353766 0
M  V30 9471 H 921.804 -2.94312 -0.215451 0
M  V30 9472 H 921.885 -2.16056 1.36943 0
M  V30 9473 H 921.529 -4.43037 2.48355 0
M  V30 9474 H 921.459 -5.1928 0.874953 0
M  V30 9475 H 923.95 -3.63811 1.02227 0
M  V30 9476 H 924.263 -7.24633 2.68564 0
M  V30 9477 H 922.608 -6.51924 2.40875 0
M  V30 9478 H 925.799 -4.48295 1.34718 0
M  V30 9479 H 925.972 -6.12841 2.10547 0
M  V30 9480 N 919.378 -0.300708 -1.54705 0
M  V30 9481 C 920.624 0.309111 -2.0043 0
M  V30 9482 C 920.957 1.53562 -1.1888 0
M  V30 9483 O 920.232 1.92683 -0.265205 0
M  V30 9484 C 920.515 0.665995 -3.53888 0
M  V30 9485 C 920.368 -0.56963 -4.46178 0
M  V30 9486 C 921.687 1.49262 -4.14016 0
M  V30 9487 H 918.806 0.110878 -0.728612 0
M  V30 9488 H 921.448 -0.412748 -1.85463 0
M  V30 9489 H 919.598 1.281 -3.66773 0
M  V30 9490 H 921.27 -1.20811 -4.45199 0
M  V30 9491 H 919.513 -1.20292 -4.16788 0
M  V30 9492 H 920.184 -0.275785 -5.51311 0
M  V30 9493 H 922.66 0.972979 -4.04564 0
M  V30 9494 H 921.536 1.71111 -5.21548 0
M  V30 9495 H 921.797 2.48174 -3.65872 0
M  V30 9496 N 920.856 1.57574 -0.0284266 0
M  V30 9497 C 921.803 2.10176 0.953658 0
M  V30 9498 C 922.773 1.00367 1.32347 0
M  V30 9499 O 923.958 1.27783 1.4169 0
M  V30 9500 C 921.098 2.63287 2.231 0
M  V30 9501 C 920.211 3.87102 1.91771 0
M  V30 9502 C 919.346 4.28609 3.13795 0
M  V30 9503 C 918.385 5.45184 2.78282 0
M  V30 9504 N 917.522 5.81851 3.92929 0
M  V30 9505 H 922.362 2.93806 0.498176 0
M  V30 9506 H 919.899 1.45222 0.234302 0
M  V30 9507 H 921.857 2.9217 2.97813 0
M  V30 9508 H 920.487 1.82489 2.66266 0
M  V30 9509 H 919.539 3.64952 1.07303 0
M  V30 9510 H 920.851 4.71892 1.61615 0
M  V30 9511 H 920.005 4.58925 3.96829 0
M  V30 9512 H 918.744 3.42585 3.47112 0
M  V30 9513 H 917.749 5.14563 1.93661 0
M  V30 9514 H 918.974 6.32907 2.46182 0
M  V30 9515 H 916.92 4.98782 4.2609 0
M  V30 9516 H 916.837 6.6128 3.66395 0
M  V30 9517 H 918.105 6.16772 4.76669 0
M  V30 9518 N 922.334 -0.244713 1.55689 0
M  V30 9519 C 923.559 -0.994157 1.8202 0
M  V30 9520 C 923.984 -1.78079 0.60577 0
M  V30 9521 O 923.342 -1.75748 -0.445221 0
M  V30 9522 C 923.39 -1.90599 3.06111 0
M  V30 9523 O 922.494 -2.99804 2.8318 0
M  V30 9524 H 921.835 -0.282767 0.600782 0
M  V30 9525 H 924.365 -0.26504 2.02876 0
M  V30 9526 H 924.375 -2.32023 3.35603 0
M  V30 9527 H 923.05 -1.32763 3.9414 0
M  V30 9528 H 921.627 -2.62493 2.64862 0
M  V30 9529 N 923.813 -1.49104 -0.510467 0
M  V30 9530 C 925.224 -1.51423 -1.09215 0
M  V30 9531 C 925.575 -0.295035 -1.93969 0
M  V30 9532 O 924.7 0.596064 -2.08029 0
M  V30 9533 C 925.295 -2.74387 -1.98739 0
M  V30 9534 C 923.854 -2.79515 -2.52088 0
M  V30 9535 C 923.001 -2.4521 -1.29488 0
M  V30 9536 H 925.952 -1.55938 -0.294807 0
M  V30 9537 H 925.973 -2.54012 -2.83298 0
M  V30 9538 H 925.485 -3.63105 -1.37026 0
M  V30 9539 H 923.586 -1.95054 -3.17466 0
M  V30 9540 H 923.699 -3.81447 -2.89887 0
M  V30 9541 H 922.063 -1.96785 -1.61703 0
M  V30 9542 H 922.846 -3.36192 -0.694978 0
M  V30 9543 N 925.291 0.760815 -1.38019 0
M  V30 9544 C 926.516 1.55513 -1.37224 0
M  V30 9545 C 926.941 1.88062 0.037611 0
M  V30 9546 O 926.299 1.50042 1.0177 0
M  V30 9547 C 926.347 2.83539 -2.22796 0
M  V30 9548 O 925.451 3.78384 -1.64009 0
M  V30 9549 H 924.792 0.470642 -0.468393 0
M  V30 9550 H 927.322 0.940792 -1.81687 0
M  V30 9551 H 927.332 3.32535 -2.36399 0
M  V30 9552 H 926.007 2.59178 -3.25269 0
M  V30 9553 H 924.584 3.37063 -1.59508 0
M  V30 9554 N 926.769 1.22769 0.988202 0
M  V30 9555 C 927.716 1.00195 2.07917 0
M  V30 9556 C 928.686 -0.0779391 1.65917 0
M  V30 9557 O 929.871 0.0726005 1.90662 0
M  V30 9558 C 927.011 0.590853 3.40004 0
M  V30 9559 C 926.124 1.74202 3.9532 0
M  V30 9560 C 925.259 1.27846 5.15586 0
M  V30 9561 C 924.298 2.40087 5.63049 0
M  V30 9562 N 923.435 1.94744 6.74551 0
M  V30 9563 H 928.275 1.93581 2.26562 0
M  V30 9564 H 925.812 0.96448 1.11068 0
M  V30 9565 H 927.77 0.333653 4.15864 0
M  V30 9566 H 926.4 -0.306007 3.21346 0
M  V30 9567 H 925.452 2.11342 3.16289 0
M  V30 9568 H 926.764 2.58612 4.26522 0
M  V30 9569 H 925.918 0.978919 5.9875 0
M  V30 9570 H 924.657 0.404617 4.86019 0
M  V30 9571 H 923.662 2.70824 4.78471 0
M  V30 9572 H 924.887 3.27995 5.9464 0
M  V30 9573 H 922.833 1.09729 6.46758 0
M  V30 9574 H 922.75 2.72718 7.05096 0
M  V30 9575 H 924.018 1.67873 7.61209 0
M  V30 9576 N 928.247 -1.18576 1.03814 0
M  V30 9577 C 929.179 -2.21607 0.585055 0
M  V30 9578 C 930.192 -1.59125 -0.343963 0
M  V30 9579 O 931.381 -1.77959 -0.138882 0
M  V30 9580 C 928.481 -3.38495 -0.165602 0
M  V30 9581 C 927.654 -4.30557 0.770662 0
M  V30 9582 C 926.713 -5.26161 0.0637534 0
M  V30 9583 O 925.739 -5.64961 0.693359 0
M  V30 9584 N 926.941 -5.67882 -1.20377 0
M  V30 9585 H 929.706 -2.61104 1.47121 0
M  V30 9586 H 927.267 -1.33336 0.918316 0
M  V30 9587 H 929.259 -3.99474 -0.648292 0
M  V30 9588 H 927.829 -2.97711 -0.953268 0
M  V30 9589 H 927.049 -3.67221 1.43326 0
M  V30 9590 H 928.337 -4.88969 1.40667 0
M  V30 9591 H 927.735 -5.38409 -1.73586 0
M  V30 9592 H 926.292 -6.31069 -1.63079 0
M  V30 9593 N 929.725 -0.817259 -1.34754 0
M  V30 9594 C 930.688 -0.240611 -2.27934 0
M  V30 9595 C 931.688 0.578219 -1.50044 0
M  V30 9596 O 932.878 0.395148 -1.69659 0
M  V30 9597 C 930.01 0.663318 -3.34384 0
M  V30 9598 H 931.203 -1.06257 -2.80445 0
M  V30 9599 H 928.756 -0.588697 -1.4479 0
M  V30 9600 H 929.491 1.50855 -2.87077 0
M  V30 9601 H 929.276 0.0777388 -3.92023 0
M  V30 9602 H 930.766 1.06076 -4.03903 0
M  V30 9603 N 931.203 1.46865 -0.571711 0
M  V30 9604 C 932.614 1.86158 -0.142181 0
M  V30 9605 C 932.965 1.47663 1.2919 0
M  V30 9606 O 932.09 0.886393 1.97413 0
M  V30 9607 C 932.685 3.37867 -0.251256 0
M  V30 9608 C 931.244 3.76198 0.123329 0
M  V30 9609 C 930.391 2.70902 -0.592232 0
M  V30 9610 H 933.342 1.38176 -0.780587 0
M  V30 9611 H 933.363 3.76842 0.526331 0
M  V30 9612 H 932.875 3.65853 -1.2951 0
M  V30 9613 H 930.976 3.53829 1.16773 0
M  V30 9614 H 931.089 4.78471 -0.24533 0
M  V30 9615 H 929.453 2.54678 -0.0336927 0
M  V30 9616 H 930.236 3.01729 -1.63751 0
M  V30 9617 N 932.681 0.308908 1.54543 0
M  V30 9618 C 933.929 -0.297447 1.99899 0
M  V30 9619 C 934.25 -1.53799 1.19878 0
M  V30 9620 O 933.52 -1.93639 0.29678 0
M  V30 9621 H 932.1 -0.112897 0.738419 0
M  V30 9622 H 934.762 0.422067 1.90275 0
M  V30 9623 H 933.858 -0.564016 3.06961 0
M  V30 9624 N 934.159 -1.57557 0.0367827 0
M  V30 9625 C 935.069 -2.14148 -0.958017 0
M  V30 9626 C 936.085 -1.09564 -1.35173 0
M  V30 9627 O 937.261 -1.4166 -1.43158 0
M  V30 9628 C 934.326 -2.6636 -2.21931 0
M  V30 9629 C 933.387 -3.85688 -1.8853 0
M  V30 9630 C 932.62 -4.35401 -3.08645 0
M  V30 9631 O 932.843 -3.8425 -4.21554 0
M  V30 9632 O 931.777 -5.27158 -2.90497 0
M  V30 9633 H 935.603 -2.99442 -0.506797 0
M  V30 9634 H 933.188 -1.48259 -0.184275 0
M  V30 9635 H 935.07 -2.99976 -2.9596 0
M  V30 9636 H 933.745 -1.84145 -2.66219 0
M  V30 9637 H 932.652 -3.56985 -1.11861 0
M  V30 9638 H 933.985 -4.69089 -1.49052 0
M  V30 9639 N 935.637 0.236453 -1.55816 0
M  V30 9640 C 936.584 1.29289 -1.91188 0
M  V30 9641 C 937.554 1.47315 -0.767301 0
M  V30 9642 O 938.739 1.61128 -1.02189 0
M  V30 9643 C 935.879 2.64126 -2.22107 0
M  V30 9644 C 934.992 2.54022 -3.49423 0
M  V30 9645 C 934.127 3.81282 -3.69861 0
M  V30 9646 C 933.166 3.65839 -4.90743 0
M  V30 9647 N 932.303 4.85014 -5.07647 0
M  V30 9648 H 937.143 0.98424 -2.81277 0
M  V30 9649 H 934.68 0.474722 -1.39229 0
M  V30 9650 H 936.638 3.42626 -2.3804 0
M  V30 9651 H 935.268 2.93118 -1.35209 0
M  V30 9652 H 934.32 1.67036 -3.41765 0
M  V30 9653 H 935.632 2.38525 -4.38072 0
M  V30 9654 H 934.786 4.68226 -3.8581 0
M  V30 9655 H 933.525 3.99688 -2.79465 0
M  V30 9656 H 932.53 2.77279 -4.74759 0
M  V30 9657 H 933.755 3.48918 -5.82609 0
M  V30 9658 H 931.701 5.03762 -4.20191 0
M  V30 9659 H 931.618 4.72188 -5.90402 0
M  V30 9660 H 932.886 5.73427 -5.28017 0
M  V30 9661 N 937.115 1.49373 0.502552 0
M  V30 9662 C 938.363 1.58467 1.25429 0
M  V30 9663 C 938.684 0.272593 1.93085 0
M  V30 9664 O 937.954 -0.707947 1.82661 0
M  V30 9665 H 936.534 0.583866 0.46595 0
M  V30 9666 H 939.196 1.8599 0.582568 0
M  V30 9667 H 938.292 2.37993 2.01906 0
M  V30 9668 N 938.594 -0.753485 1.38421 0
M  V30 9669 C 939.542 -1.8886 1.35774 0
M  V30 9670 C 940.536 -1.67639 0.243608 0
M  V30 9671 O 941.742 -1.75206 0.412649 0
M  V30 9672 H 938.117 -0.62137 0.42356 0
M  V30 9673 H 940.088 -1.88209 2.3156 0
M  V30 9674 C 938.837 -3.26344 1.19979 0
M  V30 9675 H 938.16 -3.43259 2.04971 0
M  V30 9676 H 939.6 -4.06015 1.22181 0
M  V30 9677 C 938.059 -3.36771 -0.0932867 0
M  V30 9678 O 938.589 -3.8718 -1.07027 0
M  V30 9679 N 936.795 -2.90212 -0.150154 0
M  V30 9680 H 936.342 -2.4938 0.645562 0
M  V30 9681 H 936.3 -2.97569 -1.0149 0
M  V30 9682 N 940.072 -1.23292 -0.981677 0
M  V30 9683 C 941.321 -1.05832 -1.71705 0
M  V30 9684 C 941.634 0.40514 -1.91358 0
M  V30 9685 O 942.84 0.699645 -2.6233 0
M  V30 9686 C 941.296 -1.84532 -3.08992 0
M  V30 9687 C 940.904 -3.35199 -2.9723 0
M  V30 9688 C 942.648 -1.75557 -3.86497 0
M  V30 9689 C 940.555 -4.06296 -4.29741 0
M  V30 9690 H 939.485 -0.39241 -0.64384 0
M  V30 9691 H 942.136 -1.47247 -1.09502 0
M  V30 9692 H 940.518 -1.35923 -3.71942 0
M  V30 9693 H 941.692 -3.91286 -2.43377 0
M  V30 9694 H 940.007 -3.44973 -2.332 0
M  V30 9695 H 942.604 -2.25989 -4.84596 0
M  V30 9696 H 942.947 -0.718101 -4.1006 0
M  V30 9697 H 943.48 -2.21771 -3.30246 0
M  V30 9698 H 940.219 -5.10344 -4.11375 0
M  V30 9699 H 939.739 -3.54997 -4.83464 0
M  V30 9700 H 941.418 -4.12519 -4.98434 0
M  V30 9701 N 941.55 1.18024 -1.04442 0
M  V30 9702 C 942.48 2.23988 -0.659683 0
M  V30 9703 C 943.461 1.6669 0.338904 0
M  V30 9704 O 944.646 1.92971 0.21817 0
M  V30 9705 C 941.776 3.4729 -0.0257672 0
M  V30 9706 C 940.73 4.17362 -0.948299 0
M  V30 9707 C 940.056 5.34401 -0.17866 0
M  V30 9708 C 941.356 4.70435 -2.26909 0
M  V30 9709 H 943.05 2.56425 -1.54553 0
M  V30 9710 H 940.596 1.23256 -0.744575 0
M  V30 9711 H 942.549 4.20627 0.255131 0
M  V30 9712 H 941.273 3.14098 0.894981 0
M  V30 9713 H 939.932 3.45928 -1.21364 0
M  V30 9714 H 939.58 4.97458 0.744614 0
M  V30 9715 H 939.28 5.8222 -0.793294 0
M  V30 9716 H 940.804 6.10526 0.0951315 0
M  V30 9717 H 942.218 5.35447 -2.04864 0
M  V30 9718 H 940.615 5.28803 -2.83703 0
M  V30 9719 H 941.685 3.87653 -2.91296 0
M  V30 9720 N 943.028 0.824394 1.34319 0
M  V30 9721 C 943.991 0.252696 2.27803 0
M  V30 9722 C 944.991 -0.570254 1.50349 0
M  V30 9723 O 946.181 -0.386145 1.69866 0
M  V30 9724 C 943.313 -0.645575 3.34731 0
M  V30 9725 H 944.506 1.07742 2.79878 0
M  V30 9726 H 942.059 0.596367 1.44475 0
M  V30 9727 H 942.794 -1.4933 2.87873 0
M  V30 9728 H 942.579 -0.0569478 3.92059 0
M  V30 9729 H 944.069 -1.03933 4.0446 0
M  V30 9730 N 944.506 -1.46559 0.579492 0
M  V30 9731 C 945.731 -2.0729 0.0674595 0
M  V30 9732 C 946.156 -1.4259 -1.22677 0
M  V30 9733 O 945.514 -0.50857 -1.74021 0
M  V30 9734 C 945.562 -3.60492 -0.0882227 0
M  V30 9735 O 944.666 -3.96172 -1.14551 0
M  V30 9736 H 944.007 -0.661159 0.0613536 0
M  V30 9737 H 946.537 -1.88247 0.801519 0
M  V30 9738 H 946.547 -4.06929 -0.295411 0
M  V30 9739 H 945.222 -4.06976 0.856943 0
M  V30 9740 H 943.799 -3.61448 -0.917033 0
M  V30 9741 N 945.984 -0.3171 -1.54377 0
M  V30 9742 C 947.4 0.035766 -1.5956 0
M  V30 9743 C 947.6 1.51038 -1.33378 0
M  V30 9744 O 946.656 2.26546 -1.11505 0
M  V30 9745 C 947.969 -0.376652 -2.98332 0
M  V30 9746 C 949.517 -0.326765 -3.1129 0
M  V30 9747 C 949.992 -0.714247 -4.52396 0
M  V30 9748 N 951.483 -0.667402 -4.58367 0
M  V30 9749 C 952.218 -0.939494 -5.65651 0
M  V30 9750 N 951.714 -1.27839 -6.80903 0
M  V30 9751 N 953.507 -0.865484 -5.55397 0
M  V30 9752 H 945.658 -1.27794 -1.69654 0
M  V30 9753 H 947.921 -0.5192 -0.79318 0
M  V30 9754 H 947.627 -1.40381 -3.22469 0
M  V30 9755 H 947.501 0.261611 -3.76292 0
M  V30 9756 H 949.888 0.69117 -2.86892 0
M  V30 9757 H 949.969 -0.999873 -2.35449 0
M  V30 9758 H 949.613 -1.73007 -4.77526 0
M  V30 9759 H 949.543 -0.0188962 -5.26597 0
M  V30 9760 H 952.034 -0.417062 -3.75592 0
M  V30 9761 H 952.347 -1.47155 -7.5866 0
M  V30 9762 H 950.692 -1.31658 -6.82416 0
M  V30 9763 H 953.883 -0.600265 -4.64235 0
M  V30 9764 H 954.056 -1.0809 -6.38921 0
M  V30 9765 N 947.462 1.57535 -0.0451378 0
M  V30 9766 C 948.409 2.11176 0.931313 0
M  V30 9767 C 949.379 1.01765 1.31275 0
M  V30 9768 O 950.564 1.29279 1.40327 0
M  V30 9769 C 947.704 2.65639 2.20295 0
M  V30 9770 C 946.817 3.89114 1.87654 0
M  V30 9771 C 945.952 4.31914 3.09232 0
M  V30 9772 C 944.991 5.48105 2.72484 0
M  V30 9773 N 944.128 5.85986 3.86736 0
M  V30 9774 H 948.968 2.94318 0.466986 0
M  V30 9775 H 946.505 1.45462 0.218886 0
M  V30 9776 H 948.463 2.95312 2.94697 0
M  V30 9777 H 947.093 1.85303 2.64316 0
M  V30 9778 H 946.145 3.6607 1.03427 0
M  V30 9779 H 947.457 4.7358 1.56601 0
M  V30 9780 H 946.611 4.63108 3.91939 0
M  V30 9781 H 945.35 3.46247 3.43459 0
M  V30 9782 H 944.355 5.16589 1.88192 0
M  V30 9783 H 945.58 6.35482 2.39455 0
M  V30 9784 H 943.526 5.03273 4.20775 0
M  V30 9785 H 943.443 6.65129 3.5936 0
M  V30 9786 H 944.711 6.21793 4.701 0
M  V30 9787 N 948.94 -0.228186 1.55939 0
M  V30 9788 C 950.217 -0.977492 1.69424 0
M  V30 9789 C 950.597 -2.02674 0.590479 0
M  V30 9790 O 949.945 -2.2491 -0.403467 0
M  V30 9791 C 950.155 -1.59394 3.10475 0
M  V30 9792 C 951.503 -2.08871 3.69673 0
M  V30 9793 O 952.527 -1.693 3.13394 0
M  V30 9794 O 951.386 -2.81584 4.68372 0
M  V30 9795 H 948.48 -0.456185 0.6898 0
M  V30 9796 H 951.026 -0.220492 1.68261 0
M  V30 9797 H 949.798 -0.835971 3.82266 0
M  V30 9798 H 949.421 -2.41665 3.15727 0
M  V30 9799 N 950.418 -1.49637 -0.494624 0
M  V30 9800 C 951.829 -1.52573 -1.07603 0
M  V30 9801 C 952.18 -0.315591 -1.93645 0
M  V30 9802 O 951.305 0.573966 -2.08649 0
M  V30 9803 C 951.9 -2.7648 -1.95817 0
M  V30 9804 C 950.459 -2.82173 -2.49109 0
M  V30 9805 C 949.606 -2.4657 -1.2688 0
M  V30 9806 H 952.557 -1.56242 -0.278251 0
M  V30 9807 H 952.578 -2.57003 -2.80588 0
M  V30 9808 H 952.09 -3.64538 -1.33167 0
M  V30 9809 H 950.191 -1.9841 -3.15379 0
M  V30 9810 H 950.304 -3.84501 -2.85825 0
M  V30 9811 H 948.668 -1.98489 -1.59607 0
M  V30 9812 H 949.451 -3.3691 -0.659281 0
M  V30 9813 N 951.896 0.746133 -1.38819 0
M  V30 9814 C 952.806 1.89063 -1.38897 0
M  V30 9815 C 953.822 1.71648 -0.28513 0
M  V30 9816 O 954.998 1.94443 -0.524783 0
M  V30 9817 C 952.063 3.24523 -1.22007 0
M  V30 9818 C 951.124 3.54411 -2.42263 0
M  V30 9819 C 950.357 4.83408 -2.26169 0
M  V30 9820 O 950.58 5.56325 -1.25931 0
M  V30 9821 O 949.514 5.12943 -3.14918 0
M  V30 9822 H 953.34 1.91951 -2.35347 0
M  V30 9823 H 950.925 0.892433 -1.19816 0
M  V30 9824 H 952.807 4.05496 -1.14677 0
M  V30 9825 H 951.482 3.2243 -0.286455 0
M  V30 9826 H 950.389 2.73569 -2.55168 0
M  V30 9827 H 951.722 3.61273 -3.3428 0
M  V30 9828 N 953.375 1.23811 0.975125 0
M  V30 9829 C 954.305 1.04846 2.08638 0
M  V30 9830 C 955.286 -0.0362859 1.70061 0
M  V30 9831 O 956.471 0.12937 1.93769 0
M  V30 9832 C 953.601 0.644534 3.41267 0
M  V30 9833 C 952.555 1.67722 3.93768 0
M  V30 9834 C 951.881 1.12857 5.22654 0
M  V30 9835 C 953.181 3.07147 4.22443 0
M  V30 9836 H 954.875 1.97795 2.24761 0
M  V30 9837 H 952.421 0.952397 1.08006 0
M  V30 9838 H 954.374 0.498887 4.18436 0
M  V30 9839 H 953.098 -0.320641 3.25022 0
M  V30 9840 H 951.757 1.81095 3.18748 0
M  V30 9841 H 951.405 0.154227 5.02764 0
M  V30 9842 H 951.105 1.81862 5.58749 0
M  V30 9843 H 952.629 0.994891 6.0244 0
M  V30 9844 H 954.043 2.97045 4.90344 0
M  V30 9845 H 952.44 3.73437 4.6975 0
M  V30 9846 H 953.51 3.55743 3.29507 0
M  V30 9847 N 954.853 -1.17469 1.05066 0
M  V30 9848 C 956.1 -1.87698 0.759987 0
M  V30 9849 C 956.428 -1.80964 -0.712902 0
M  V30 9850 O 955.683 -1.21146 -1.53695 0
M  V30 9851 C 955.982 -3.37211 1.18421 0
M  V30 9852 C 955.648 -3.64148 2.65909 0
M  V30 9853 C 954.31 -3.71209 3.06199 0
M  V30 9854 C 956.662 -3.75724 3.61222 0
M  V30 9855 C 953.99 -3.87334 4.40669 0
M  V30 9856 C 956.342 -3.93368 4.95424 0
M  V30 9857 C 955.006 -3.98667 5.3537 0
M  V30 9858 H 954.276 -0.686835 0.278099 0
M  V30 9859 H 956.923 -1.38975 1.31751 0
M  V30 9860 H 955.228 -3.87982 0.545654 0
M  V30 9861 H 956.925 -3.89911 0.936518 0
M  V30 9862 H 953.515 -3.59276 2.33707 0
M  V30 9863 H 957.699 -3.69591 3.31235 0
M  V30 9864 H 952.955 -3.89685 4.71122 0
M  V30 9865 H 957.129 -4.01267 5.69173 0
M  V30 9866 H 954.756 -4.10915 6.39572 0
M  V30 9867 N 956.331 -0.831506 -1.3388 0
M  V30 9868 C 957.261 -0.274378 -2.31882 0
M  V30 9869 C 958.242 0.613872 -1.58637 0
M  V30 9870 O 959.427 0.538961 -1.86571 0
M  V30 9871 C 956.557 0.557498 -3.42796 0
M  V30 9872 C 955.511 -0.234337 -4.27358 0
M  V30 9873 C 954.837 0.720825 -5.29819 0
M  V30 9874 C 956.137 -1.44732 -5.01847 0
M  V30 9875 H 957.831 -1.09322 -2.78728 0
M  V30 9876 H 955.377 -0.527136 -1.34005 0
M  V30 9877 H 957.33 0.957501 -4.10378 0
M  V30 9878 H 956.054 1.40947 -2.94621 0
M  V30 9879 H 954.713 -0.61581 -3.61391 0
M  V30 9880 H 954.361 1.569 -4.77903 0
M  V30 9881 H 954.061 0.195171 -5.87276 0
M  V30 9882 H 955.585 1.1185 -6.00268 0
M  V30 9883 H 956.999 -1.12087 -5.62236 0
M  V30 9884 H 955.396 -1.90923 -5.68919 0
M  V30 9885 H 956.466 -2.22099 -4.31045 0
M  V30 9886 N 957.809 1.4625 -0.587256 0
M  V30 9887 C 959.057 2.01963 -0.0744273 0
M  V30 9888 C 959.378 1.46065 1.29189 0
M  V30 9889 O 958.648 0.647077 1.84905 0
M  V30 9890 H 957.228 0.746597 -0.0245236 0
M  V30 9891 H 959.89 1.79299 -0.764063 0
M  V30 9892 H 958.986 3.12099 -0.00884894 0
M  V30 9893 N 959.287 0.325282 1.54207 0
M  V30 9894 C 960.217 -0.532574 2.27345 0
M  V30 9895 C 961.198 -1.11791 1.28206 0
M  V30 9896 O 962.383 -1.14272 1.57021 0
M  V30 9897 C 959.513 -1.69274 3.03255 0
M  V30 9898 C 958.467 -1.23662 4.09746 0
M  V30 9899 C 957.793 -2.48386 4.73506 0
M  V30 9900 C 959.093 -0.350244 5.21124 0
M  V30 9901 H 960.787 0.0775108 2.993 0
M  V30 9902 H 958.333 0.0387193 1.43948 0
M  V30 9903 H 960.286 -2.29917 3.53152 0
M  V30 9904 H 959.01 -2.32944 2.28921 0
M  V30 9905 H 957.669 -0.653106 3.60735 0
M  V30 9906 H 957.317 -3.10424 3.95786 0
M  V30 9907 H 957.017 -2.18558 5.45441 0
M  V30 9908 H 958.541 -3.09789 5.26178 0
M  V30 9909 H 959.955 -0.863011 5.66767 0
M  V30 9910 H 958.352 -0.14466 5.99926 0
M  V30 9911 H 959.422 0.618457 4.8094 0
M  V30 9912 N 960.765 -1.57509 0.0534917 0
M  V30 9913 C 961.728 -2.10563 -0.905307 0
M  V30 9914 C 962.728 -1.02571 -1.23838 0
M  V30 9915 O 963.918 -1.28635 -1.17468 0
M  V30 9916 C 961.05 -2.5918 -2.21447 0
M  V30 9917 H 962.243 -2.96575 -0.445354 0
M  V30 9918 H 959.796 -1.55079 -0.194947 0
M  V30 9919 H 960.531 -1.76568 -2.72019 0
M  V30 9920 H 960.316 -3.38098 -1.98575 0
M  V30 9921 H 961.806 -3.00365 -2.90122 0
M  V30 9922 N 962.243 0.219913 -1.56058 0
M  V30 9923 C 963.468 0.965073 -1.83579 0
M  V30 9924 C 963.893 1.77092 -0.634024 0
M  V30 9925 O 963.251 1.76434 0.417205 0
M  V30 9926 C 963.299 1.85705 -3.09105 0
M  V30 9927 O 962.403 2.95261 -2.87914 0
M  V30 9928 H 961.744 0.273173 -0.605204 0
M  V30 9929 H 964.274 0.23273 -2.03272 0
M  V30 9930 H 964.284 2.26655 -3.39252 0
M  V30 9931 H 962.959 1.26476 -3.96203 0
M  V30 9932 H 961.536 2.58246 -2.69005 0
M  V30 9933 N 963.721 1.49897 0.486681 0
M  V30 9934 C 964.669 1.68125 1.60738 0
M  V30 9935 C 965.663 0.547097 1.60322 0
M  V30 9936 O 966.869 0.727153 1.64659 0
M  V30 9937 H 963.244 0.530391 0.533094 0
M  V30 9938 H 965.215 2.62165 1.42521 0
M  V30 9939 C 963.964 1.77827 2.98786 0
M  V30 9940 H 963.287 2.6448 2.99818 0
M  V30 9941 H 964.727 1.94611 3.76699 0
M  V30 9942 C 963.186 0.526287 3.32764 0
M  V30 9943 O 963.716 -0.341607 4.00245 0
M  V30 9944 N 961.922 0.384947 2.88039 0
M  V30 9945 H 961.469 1.09222 2.33299 0
M  V30 9946 H 961.427 -0.451618 3.11139 0
M  V30 9947 N 965.199 -0.738761 1.39212 0
M  V30 9948 C 966.448 -1.49368 1.35543 0
M  V30 9949 C 966.761 -1.95543 -0.0471091 0
M  V30 9950 O 967.967 -2.70714 -0.206376 0
M  V30 9951 C 966.423 -2.69882 2.381 0
M  V30 9952 C 966.031 -2.30672 3.8405 0
M  V30 9953 C 967.775 -3.47718 2.435 0
M  V30 9954 C 965.682 -3.47886 4.78256 0
M  V30 9955 H 964.612 -0.560898 0.503894 0
M  V30 9956 H 967.263 -0.806221 1.6484 0
M  V30 9957 H 965.645 -3.40684 2.01867 0
M  V30 9958 H 966.819 -1.67441 4.29302 0
M  V30 9959 H 965.134 -1.65936 3.81909 0
M  V30 9960 H 967.731 -4.34897 3.11077 0
M  V30 9961 H 968.074 -3.89919 1.45838 0
M  V30 9962 H 968.607 -2.83942 2.78606 0
M  V30 9963 H 965.346 -3.10739 5.77167 0
M  V30 9964 H 964.866 -4.10111 4.37686 0
M  V30 9965 H 966.545 -4.14271 4.96979 0
M  V30 9966 N 966.677 -1.24326 -0.968545 0
M  V30 9967 C 967.607 -1.05951 -2.08079 0
M  V30 9968 C 968.588 0.0272666 -1.70078 0
M  V30 9969 O 969.773 -0.139644 -1.93697 0
M  V30 9970 C 966.903 -0.662623 -3.4092 0
M  V30 9971 C 965.857 -1.69807 -3.92873 0
M  V30 9972 C 965.183 -1.15628 -5.22048 0
M  V30 9973 C 966.483 -3.09383 -4.20808 0
M  V30 9974 H 968.177 -1.98984 -2.23709 0
M  V30 9975 H 965.723 -0.958112 -1.075 0
M  V30 9976 H 967.676 -0.521071 -4.18166 0
M  V30 9977 H 966.4 0.303399 -3.25188 0
M  V30 9978 H 965.059 -1.82783 -3.17783 0
M  V30 9979 H 964.707 -0.180888 -5.02675 0
M  V30 9980 H 964.407 -1.84822 -5.57776 0
M  V30 9981 H 965.931 -1.02683 -6.01904 0
M  V30 9982 H 967.345 -2.99642 -4.88761 0
M  V30 9983 H 965.742 -3.75923 -4.67763 0
M  V30 9984 H 966.812 -3.57486 -3.27616 0
M  V30 9985 N 968.156 1.1691 -1.05688 0
M  V30 9986 C 969.104 2.2315 -0.656262 0
M  V30 9987 C 970.098 1.66256 0.324873 0
M  V30 9988 O 971.304 1.7899 0.190397 0
M  V30 9989 H 967.679 0.726527 -0.19407 0
M  V30 9990 H 969.65 2.54233 -1.56231 0
M  V30 9991 C 968.399 3.47661 -0.0522431 0
M  V30 9992 H 967.722 3.91749 -0.798299 0
M  V30 9993 H 969.162 4.23571 0.190626 0
M  V30 9994 C 967.621 3.14709 1.20248 0
M  V30 9995 O 968.151 3.29947 2.29124 0
M  V30 9996 N 966.357 2.68892 1.10207 0
M  V30 9997 H 965.904 2.56692 0.216063 0
M  V30 9998 H 965.862 2.47218 1.94244 0
M  V30 9999 N 969.634 0.838594 1.33437 0
M  V30 10000 C 970.881 0.434169 1.97791 0
M  V30 10001 C 971.209 -1.00652 1.66431 0
M  V30 10002 O 970.464 -1.71848 0.936309 0
M  V30 10003 C 970.763 0.601425 3.52303 0
M  V30 10004 C 970.429 2.01017 4.03612 0
M  V30 10005 C 969.091 2.39551 4.17336 0
M  V30 10006 C 971.443 2.93035 4.31022 0
M  V30 10007 C 968.771 3.69406 4.55802 0
M  V30 10008 C 971.123 4.22372 4.7094 0
M  V30 10009 C 969.787 4.60862 4.82869 0
M  V30 10010 H 969.057 0.158874 0.723768 0
M  V30 10011 H 971.704 1.06556 1.59116 0
M  V30 10012 H 970.009 -0.113284 3.91636 0
M  V30 10013 H 971.706 0.268798 4.00098 0
M  V30 10014 H 968.296 1.7009 3.93405 0
M  V30 10015 H 972.48 2.64503 4.19943 0
M  V30 10016 H 967.736 3.99033 4.63231 0
M  V30 10017 H 971.91 4.93749 4.91106 0
M  V30 10018 H 969.537 5.6153 5.12433 0
M  V30 10019 N 971.112 -1.45937 0.595003 0
M  V30 10020 C 972.361 -2.01529 0.0829531 0
M  V30 10021 C 972.674 -1.47071 -1.28955 0
M  V30 10022 O 973.88 -1.94561 -1.89363 0
M  V30 10023 C 972.336 -3.59767 0.0976597 0
M  V30 10024 C 971.944 -4.23223 1.46924 0
M  V30 10025 C 973.688 -4.22972 -0.359805 0
M  V30 10026 C 971.595 -5.73576 1.44101 0
M  V30 10027 H 970.525 -0.753508 0.0272425 0
M  V30 10028 H 973.176 -1.67541 0.748473 0
M  V30 10029 H 971.558 -3.90888 -0.634268 0
M  V30 10030 H 972.732 -4.03695 2.22187 0
M  V30 10031 H 971.047 -3.72161 1.86775 0
M  V30 10032 H 973.644 -5.33202 -0.39991 0
M  V30 10033 H 973.987 -3.92765 -1.37991 0
M  V30 10034 H 974.52 -3.96523 0.31845 0
M  V30 10035 H 971.259 -6.08462 2.43831 0
M  V30 10036 H 970.779 -5.95332 0.730767 0
M  V30 10037 H 972.458 -6.36531 1.1592 0
M  V30 10038 N 972.59 -0.333456 -1.54032 0
M  V30 10039 C 973.818 0.267813 -2.05159 0
M  V30 10040 C 974.233 1.4501 -1.20903 0
M  V30 10041 O 973.59 1.80888 -0.241994 0
M  V30 10042 C 973.641 0.69268 -3.54802 0
M  V30 10043 O 973.362 -0.442579 -4.35859 0
M  V30 10044 C 974.863 1.35572 -4.2206 0
M  V30 10045 H 972.083 0.0534924 -0.668864 0
M  V30 10046 H 974.627 -0.482515 -1.98726 0
M  V30 10047 H 972.782 1.39297 -3.6149 0
M  V30 10048 H 973.196 -0.105915 -5.24393 0
M  V30 10049 H 974.67 1.60385 -5.28186 0
M  V30 10050 H 975.147 2.30614 -3.73783 0
M  V30 10051 H 975.753 0.697748 -4.19537 0
M  V30 10052 N 974.068 1.57479 -0.061844 0
M  V30 10053 C 975.293 1.97843 0.622311 0
M  V30 10054 C 975.718 0.939602 1.62951 0
M  V30 10055 O 975.076 -0.095958 1.81046 0
M  V30 10056 C 975.124 3.37262 1.2762 0
M  V30 10057 O 974.228 3.35943 2.39199 0
M  V30 10058 H 973.569 0.644212 0.160896 0
M  V30 10059 H 976.099 2.04165 -0.133409 0
M  V30 10060 H 976.109 3.74226 1.62539 0
M  V30 10061 H 974.784 4.12404 0.538112 0
M  V30 10062 H 973.361 3.10737 2.06148 0
M  V30 10063 N 975.546 -0.211634 1.56173 0
M  V30 10064 C 976.771 -0.955324 1.84088 0
M  V30 10065 C 977.196 -1.76754 0.643407 0
M  V30 10066 O 976.554 -1.76653 -0.407842 0
M  V30 10067 C 976.602 -1.84063 3.10085 0
M  V30 10068 O 975.706 -2.9373 2.89476 0
M  V30 10069 H 975.047 -0.26996 0.606645 0
M  V30 10070 H 977.577 -0.221947 2.03393 0
M  V30 10071 H 977.587 -2.24852 3.40449 0
M  V30 10072 H 976.262 -1.24373 3.96868 0
M  V30 10073 H 974.839 -2.56816 2.7037 0
M  V30 10074 N 977.024 -1.50153 -0.478725 0
M  V30 10075 C 977.957 -1.63089 -1.59616 0
M  V30 10076 C 978.935 -0.479211 -1.55378 0
M  V30 10077 O 980.119 -0.697715 -1.75112 0
M  V30 10078 C 977.246 -1.60643 -2.9818 0
M  V30 10079 C 976.292 -2.81279 -3.206 0
M  V30 10080 S 977.125 -4.42681 -3.0132 0
M  V30 10081 C 978.281 -4.42915 -4.42241 0
M  V30 10082 H 978.514 -2.57612 -1.48402 0
M  V30 10083 H 976.047 -1.39321 -0.665513 0
M  V30 10084 H 978.005 -1.59917 -3.7807 0
M  V30 10085 H 976.666 -0.673684 -3.0679 0
M  V30 10086 H 975.859 -2.7585 -4.21809 0
M  V30 10087 H 975.461 -2.79533 -2.4847 0
M  V30 10088 H 977.753 -4.16007 -5.34737 0
M  V30 10089 H 978.696 -5.44477 -4.52715 0
M  V30 10090 H 979.104 -3.72715 -4.23962 0
M  V30 10091 N 978.502 0.731368 -1.39602 0
M  V30 10092 C 979.432 1.85855 -1.41351 0
M  V30 10093 C 980.413 1.67839 -0.2764 0
M  V30 10094 O 981.598 1.88104 -0.482747 0
M  V30 10095 C 978.728 3.23644 -1.25983 0
M  V30 10096 C 977.682 3.56304 -2.37132 0
M  V30 10097 C 977.008 4.93069 -2.0685 0
M  V30 10098 C 978.308 3.58906 -3.79452 0
M  V30 10099 H 980.002 1.84648 -2.3568 0
M  V30 10100 H 977.548 0.886955 -1.13442 0
M  V30 10101 H 979.501 4.02176 -1.25826 0
M  V30 10102 H 978.225 3.25387 -0.281234 0
M  V30 10103 H 976.884 2.80104 -2.36511 0
M  V30 10104 H 976.532 4.91396 -1.0742 0
M  V30 10105 H 976.232 5.15888 -2.81306 0
M  V30 10106 H 977.756 5.73953 -2.0835 0
M  V30 10107 H 979.17 4.27508 -3.81982 0
M  V30 10108 H 977.567 3.93246 -4.53297 0
M  V30 10109 H 978.637 2.58631 -4.10168 0
M  V30 10110 N 979.98 1.24838 0.961938 0
M  V30 10111 C 980.928 1.0436 2.07874 0
M  V30 10112 C 981.922 -0.0232531 1.69384 0
M  V30 10113 O 983.128 0.131773 1.79517 0
M  V30 10114 H 979.503 0.320492 0.680286 0
M  V30 10115 H 981.474 1.99055 2.22306 0
M  V30 10116 C 980.223 0.671246 3.41159 0
M  V30 10117 H 979.546 1.48395 3.7124 0
M  V30 10118 H 980.986 0.567608 4.20184 0
M  V30 10119 C 979.445 -0.622124 3.31106 0
M  V30 10120 O 979.975 -1.66627 3.65511 0
M  V30 10121 N 978.181 -0.605009 2.84232 0
M  V30 10122 H 977.728 0.245052 2.56432 0
M  V30 10123 H 977.686 -1.47056 2.77888 0
M  V30 10124 N 981.458 -1.16348 1.06306 0
M  V30 10125 C 982.683 -1.91323 0.800636 0
M  V30 10126 C 983.108 -1.7691 -0.639105 0
M  V30 10127 O 982.466 -1.0945 -1.44535 0
M  V30 10128 C 982.514 -3.40038 1.20027 0
M  V30 10129 O 981.618 -4.11003 0.339142 0
M  V30 10130 H 980.959 -0.596057 0.292595 0
M  V30 10131 H 983.489 -1.47406 1.41889 0
M  V30 10132 H 983.499 -3.90808 1.17188 0
M  V30 10133 H 982.174 -3.49848 2.24898 0
M  V30 10134 H 980.751 -3.70423 0.42911 0
M  V30 10135 N 982.937 -0.845659 -1.3299 0
M  V30 10136 C 984.353 -0.53433 -1.5039 0
M  V30 10137 C 984.553 0.936939 -1.78392 0
M  V30 10138 O 983.609 1.72043 -1.84818 0
M  V30 10139 C 984.922 -1.41354 -2.65404 0
M  V30 10140 C 986.47 -1.41303 -2.79289 0
M  V30 10141 C 986.945 -2.27724 -3.97373 0
M  V30 10142 N 988.436 -2.25471 -4.0462 0
M  V30 10143 C 989.171 -2.89074 -4.95201 0
M  V30 10144 N 988.667 -3.61755 -5.90851 0
M  V30 10145 N 990.46 -2.78508 -4.88251 0
M  V30 10146 H 982.611 -1.79798 -1.13078 0
M  V30 10147 H 984.874 -0.767454 -0.556524 0
M  V30 10148 H 984.58 -2.45936 -2.51413 0
M  V30 10149 H 984.454 -1.09445 -3.60973 0
M  V30 10150 H 986.841 -0.374899 -2.92709 0
M  V30 10151 H 986.922 -1.77222 -1.84461 0
M  V30 10152 H 986.566 -3.316 -3.84713 0
M  V30 10153 H 986.496 -1.89142 -4.9146 0
M  V30 10154 H 988.987 -1.72622 -3.3617 0
M  V30 10155 H 989.3 -4.07475 -6.56646 0
M  V30 10156 H 987.645 -3.65863 -5.90906 0
M  V30 10157 H 990.836 -2.21285 -4.12493 0
M  V30 10158 H 991.009 -3.2836 -5.58645 0
M  V30 10159 N 984.415 1.45619 -0.602734 0
M  V30 10160 C 985.363 2.32228 0.131484 0
M  V30 10161 C 986.357 1.45681 0.864484 0
M  V30 10162 O 987.563 1.62193 0.7806 0
M  V30 10163 H 983.938 0.7495 0.0612638 0
M  V30 10164 H 985.909 2.91941 -0.617496 0
M  V30 10165 C 984.658 3.29213 1.11866 0
M  V30 10166 H 983.981 3.95801 0.564061 0
M  V30 10167 H 985.421 3.92554 1.60242 0
M  V30 10168 C 983.88 2.56028 2.18978 0
M  V30 10169 O 984.41 2.33806 3.26646 0
M  V30 10170 N 982.616 2.16245 1.94129 0
M  V30 10171 H 982.163 2.34518 1.06579 0
M  V30 10172 H 982.121 1.67601 2.66003 0
M  V30 10173 N 985.893 0.34162 1.53853 0
M  V30 10174 C 986.841 -0.531412 2.26448 0
M  V30 10175 C 987.835 -1.10357 1.28521 0
M  V30 10176 O 989.041 -1.04953 1.46236 0
M  V30 10177 H 985.416 -0.190054 0.727588 0
M  V30 10178 H 987.387 0.102922 2.98222 0
M  V30 10179 C 986.136 -1.67154 3.04885 0
M  V30 10180 H 985.459 -1.24055 3.80066 0
M  V30 10181 H 986.899 -2.25762 3.58898 0
M  V30 10182 C 985.358 -2.59984 2.14266 0
M  V30 10183 O 985.888 -3.62181 1.73746 0
M  V30 10184 N 984.094 -2.28625 1.79385 0
M  V30 10185 H 983.641 -1.45559 2.12533 0
M  V30 10186 H 983.599 -2.90995 1.19035 0
M  V30 10187 N 987.371 -1.57444 0.0701946 0
M  V30 10188 C 988.618 -1.93429 -0.59929 0
M  V30 10189 C 988.946 -0.9501 -1.69715 0
M  V30 10190 O 988.201 0.0345377 -1.9567 0
M  V30 10191 C 988.5 -3.36044 -1.21694 0
M  V30 10192 C 988.166 -4.50232 -0.245374 0
M  V30 10193 C 986.828 -4.81195 0.0219161 0
M  V30 10194 C 989.18 -5.1951 0.419396 0
M  V30 10195 C 986.508 -5.78775 0.96109 0
M  V30 10196 C 988.86 -6.18095 1.34688 0
M  V30 10197 C 987.524 -6.47477 1.62265 0
M  V30 10198 H 986.794 -0.707807 -0.219296 0
M  V30 10199 H 989.441 -1.90982 0.14073 0
M  V30 10200 H 987.746 -3.34948 -2.03265 0
M  V30 10201 H 989.443 -3.61176 -1.74221 0
M  V30 10202 H 986.033 -4.26082 -0.463887 0
M  V30 10203 H 990.217 -4.95785 0.226009 0
M  V30 10204 H 985.473 -5.99865 1.18202 0
M  V30 10205 H 989.647 -6.7088 1.86795 0
M  V30 10206 H 987.274 -7.229 2.352 0
M  V30 10207 N 988.849 0.203349 -1.56283 0
M  V30 10208 C 990.098 0.92315 -1.79334 0
M  V30 10209 C 990.411 1.84765 -0.641977 0
M  V30 10210 O 991.617 2.60745 -0.756584 0
M  V30 10211 C 990.073 1.69184 -3.17655 0
M  V30 10212 C 989.681 0.812581 -4.40569 0
M  V30 10213 C 991.425 2.40177 -3.50022 0
M  V30 10214 C 989.332 1.57967 -5.69913 0
M  V30 10215 H 988.262 0.348442 -0.668659 0
M  V30 10216 H 990.913 0.1766 -1.82648 0
M  V30 10217 H 989.295 2.48197 -3.08568 0
M  V30 10218 H 990.469 0.0616956 -4.60759 0
M  V30 10219 H 988.784 0.21389 -4.1585 0
M  V30 10220 H 991.381 2.98103 -4.4389 0
M  V30 10221 H 991.724 3.13961 -2.73376 0
M  V30 10222 H 992.257 1.68138 -3.6052 0
M  V30 10223 H 988.996 0.884767 -6.49501 0
M  V30 10224 H 988.516 2.3047 -5.53754 0
M  V30 10225 H 990.195 2.13562 -6.10737 0
M  V30 10226 N 990.327 1.50405 0.470755 0
M  V30 10227 C 991.743 1.37838 0.804534 0
M  V30 10228 C 991.943 0.434743 1.96754 0
M  V30 10229 O 990.999 -0.122507 2.52203 0
M  V30 10230 C 992.312 2.79212 1.11629 0
M  V30 10231 C 993.86 2.88129 1.22272 0
M  V30 10232 C 994.335 4.30337 1.5676 0
M  V30 10233 N 995.826 4.3329 1.63751 0
M  V30 10234 C 996.561 5.4032 1.91942 0
M  V30 10235 N 996.057 6.57558 2.18151 0
M  V30 10236 N 997.85 5.27764 1.93446 0
M  V30 10237 H 990.001 2.10332 -0.295689 0
M  V30 10238 H 992.264 0.945429 -0.0697733 0
M  V30 10239 H 991.97 3.50103 0.334778 0
M  V30 10240 H 991.844 3.16475 2.0524 0
M  V30 10241 H 994.231 2.17457 1.9949 0
M  V30 10242 H 994.312 2.54409 0.2664 0
M  V30 10243 H 993.956 5.01547 0.800817 0
M  V30 10244 H 993.886 4.61545 2.53543 0
M  V30 10245 H 996.377 3.48752 1.45535 0
M  V30 10246 H 996.69 7.34935 2.38936 0
M  V30 10247 H 995.035 6.60732 2.15542 0
M  V30 10248 H 998.226 4.35169 1.72468 0
M  V30 10249 H 998.399 6.11264 2.15081 0
M  V30 10250 N 991.805 -0.723954 1.39988 0
M  V30 10251 C 992.753 -1.85938 1.39749 0
M  V30 10252 C 993.747 -1.67085 0.279112 0
M  V30 10253 O 994.953 -1.74291 0.44972 0
M  V30 10254 H 991.328 -0.612246 0.436644 0
M  V30 10255 H 993.299 -1.83255 2.355 0
M  V30 10256 C 992.048 -3.23726 1.26874 0
M  V30 10257 H 991.371 -3.38835 2.12206 0
M  V30 10258 H 992.811 -4.03332 1.30765 0
M  V30 10259 C 991.27 -3.36893 -0.0218317 0
M  V30 10260 O 991.8 -3.89363 -0.987905 0
M  V30 10261 N 990.006 -2.90465 -0.0885618 0
M  V30 10262 H 989.553 -2.47954 0.698314 0
M  V30 10263 H 989.511 -2.99654 -0.951557 0
M  V30 10264 N 993.283 -1.25346 -0.955304 0
M  V30 10265 C 994.513 -1.12629 -1.732 0
M  V30 10266 C 994.921 0.322748 -1.86427 0
M  V30 10267 O 994.264 1.23381 -1.36099 0
M  V30 10268 C 994.326 -1.7064 -3.16421 0
M  V30 10269 C 993.99 -3.19632 -3.26626 0
M  V30 10270 C 994.987 -4.1663 -3.10991 0
M  V30 10271 C 992.672 -3.59829 -3.50468 0
M  V30 10272 C 994.666 -5.51806 -3.19043 0
M  V30 10273 C 992.353 -4.95143 -3.58157 0
M  V30 10274 C 993.351 -5.90941 -3.42459 0
M  V30 10275 O 993.039 -7.23792 -3.49828 0
M  V30 10276 H 992.771 -0.393646 -0.549562 0
M  V30 10277 H 995.325 -1.66184 -1.20715 0
M  V30 10278 H 993.555 -1.11532 -3.70267 0
M  V30 10279 H 995.244 -1.53032 -3.75947 0
M  V30 10280 H 996.01 -3.86915 -2.92441 0
M  V30 10281 H 991.889 -2.8576 -3.61749 0
M  V30 10282 H 995.433 -6.26559 -3.06707 0
M  V30 10283 H 991.33 -5.24525 -3.76224 0
M  V30 10284 H 992.098 -7.31879 -3.66463 0
M  V30 10285 N 994.761 1.15782 -1.06922 0
M  V30 10286 C 995.691 2.22538 -0.707045 0
M  V30 10287 C 996.672 1.67371 0.303471 0
M  V30 10288 O 997.857 1.9339 0.177189 0
M  V30 10289 C 994.987 3.47158 -0.0994269 0
M  V30 10290 C 993.941 4.15257 -1.03661 0
M  V30 10291 C 993.267 5.33902 -0.291974 0
M  V30 10292 C 994.567 4.65516 -2.36837 0
M  V30 10293 H 996.261 2.53089 -1.59958 0
M  V30 10294 H 993.807 1.21649 -0.770552 0
M  V30 10295 H 995.76 4.21073 0.165852 0
M  V30 10296 H 994.484 3.15926 0.828155 0
M  V30 10297 H 993.143 3.43276 -1.28674 0
M  V30 10298 H 992.791 4.98926 0.638928 0
M  V30 10299 H 992.491 5.80407 -0.916613 0
M  V30 10300 H 994.015 6.1059 -0.0343915 0
M  V30 10301 H 995.429 5.30981 -2.16175 0
M  V30 10302 H 993.826 5.22666 -2.94856 0
M  V30 10303 H 994.896 3.81387 -2.99453 0
M  V30 10304 N 996.239 0.8527 1.3254 0
M  V30 10305 C 997.464 0.468157 2.02047 0
M  V30 10306 C 997.889 -0.926967 1.63673 0
M  V30 10307 O 997.247 -1.60855 0.836378 0
M  V30 10308 C 997.295 0.612519 3.5536 0
M  V30 10309 O 996.399 -0.355506 4.10865 0
M  V30 10310 H 995.74 0.188401 0.636711 0
M  V30 10311 H 998.27 1.15135 1.6913 0
M  V30 10312 H 998.28 0.499315 4.04933 0
M  V30 10313 H 996.955 1.62988 3.82632 0
M  V30 10314 H 995.532 -0.198703 3.7237 0
M  V30 10315 N 997.718 -1.45297 0.610449 0
M  V30 10316 C 998.964 -2.02518 0.106917 0
M  V30 10317 C 999.297 -1.47747 -1.26034 0
M  V30 10318 O 998.572 -0.65329 -1.832 0
M  V30 10319 C 998.855 -3.6003 0.0710975 0
M  V30 10320 C 998.708 -4.25128 1.46922 0
M  V30 10321 C 1000.03 -4.35778 -0.61524 0
M  V30 10322 H 997.146 -0.735896 0.040327 0
M  V30 10323 H 999.788 -1.73117 0.782968 0
M  V30 10324 H 997.938 -3.85209 -0.504611 0
M  V30 10325 H 999.61 -4.11125 2.09223 0
M  V30 10326 H 997.853 -3.83418 2.02911 0
M  V30 10327 H 998.524 -5.34046 1.39637 0
M  V30 10328 H 1001 -4.1591 -0.125871 0
M  V30 10329 H 999.876 -5.45506 -0.609419 0
M  V30 10330 H 1000.14 -4.08859 -1.68186 0
M  V30 10331 N 999.196 -0.349774 -1.5367 0
M  V30 10332 C 1000.42 0.248692 -2.05904 0
M  V30 10333 C 1000.85 1.42942 -1.22267 0
M  V30 10334 O 1000.2 1.79732 -0.237899 0
M  V30 10335 C 1000.25 0.635639 -3.54953 0
M  V30 10336 O 999.356 1.7349 -3.74132 0
M  V30 10337 H 998.697 0.0399477 -0.662797 0
M  V30 10338 H 1001.23 -0.505795 -1.9825 0
M  V30 10339 H 1001.24 0.911064 -3.97698 0
M  V30 10340 H 999.912 -0.227805 -4.15276 0
M  V30 10341 H 998.489 1.45626 -3.43289 0
M  V30 10342 N 1000.67 1.57404 -0.0785433 0
M  V30 10343 C 1001.6 2.16131 0.883726 0
M  V30 10344 C 1002.58 1.09015 1.30575 0
M  V30 10345 O 1003.77 1.3708 1.37559 0
M  V30 10346 C 1000.9 2.72836 2.1489 0
M  V30 10347 C 999.854 3.85178 1.86605 0
M  V30 10348 C 999.18 4.28516 3.1981 0
M  V30 10349 C 1000.48 5.09118 1.16601 0
M  V30 10350 H 1002.17 2.9679 0.394484 0
M  V30 10351 H 999.72 1.42763 0.188304 0
M  V30 10352 H 1001.67 3.12567 2.8263 0
M  V30 10353 H 1000.4 1.89408 2.66068 0
M  V30 10354 H 999.056 3.45962 1.21268 0
M  V30 10355 H 998.704 3.42 3.68843 0
M  V30 10356 H 998.404 5.04249 3.01674 0
M  V30 10357 H 999.928 4.70868 3.88737 0
M  V30 10358 H 1001.34 5.46123 1.74422 0
M  V30 10359 H 999.739 5.90173 1.087 0
M  V30 10360 H 1000.81 4.8468 0.146138 0
M  V30 10361 N 1002.15 -0.195058 1.56388 0
M  V30 10362 C 1003.38 -0.935745 1.85091 0
M  V30 10363 C 1003.8 -1.76061 0.662118 0
M  V30 10364 O 1003.16 -1.77076 -0.389083 0
M  V30 10365 C 1003.21 -1.80764 3.1202 0
M  V30 10366 O 1002.31 -2.90643 2.92575 0
M  V30 10367 H 1001.65 -0.26351 0.609474 0
M  V30 10368 H 1004.18 -0.200362 2.03617 0
M  V30 10369 H 1004.19 -2.21229 3.42815 0
M  V30 10370 H 1002.87 -1.20157 3.98165 0
M  V30 10371 H 1001.44 -2.53934 2.73079 0
M  V30 10372 N 1003.63 -1.50653 -0.462772 0
M  V30 10373 C 1004.54 -1.72923 -1.58539 0
M  V30 10374 C 1005.56 -0.612577 -1.6286 0
M  V30 10375 O 1006.73 -0.891885 -1.80575 0
M  V30 10376 C 1003.8 -1.82623 -2.94703 0
M  V30 10377 C 1002.86 -3.06392 -3.00704 0
M  V30 10378 C 1002.09 -3.15618 -4.30373 0
M  V30 10379 O 1002.31 -2.31423 -5.21344 0
M  V30 10380 O 1001.25 -4.0841 -4.42136 0
M  V30 10381 H 1005.07 -2.68103 -1.42669 0
M  V30 10382 H 1002.66 -1.34848 -0.643144 0
M  V30 10383 H 1004.54 -1.91134 -3.7556 0
M  V30 10384 H 1003.22 -0.906275 -3.10754 0
M  V30 10385 H 1002.12 -3.03375 -2.18894 0
M  V30 10386 H 1003.46 -3.97992 -2.89591 0
M  V30 10387 N 1005.11 0.71652 -1.4037 0
M  V30 10388 C 1006.06 1.82219 -1.37041 0
M  V30 10389 C 1007.04 1.58975 -0.248116 0
M  V30 10390 O 1008.23 1.70164 -0.487147 0
M  V30 10391 C 1005.36 3.20337 -1.23446 0
M  V30 10392 C 1004.45 3.49347 -2.40452 0
M  V30 10393 N 1004.84 3.49179 -3.65934 0
M  V30 10394 C 1003.14 3.798 -2.33811 0
M  V30 10395 C 1003.84 3.76506 -4.43416 0
M  V30 10396 N 1002.82 3.95209 -3.73244 0
M  V30 10397 H 1006.62 1.80421 -2.32003 0
M  V30 10398 H 1004.13 0.915603 -1.34129 0
M  V30 10399 H 1006.13 3.99513 -1.19143 0
M  V30 10400 H 1004.79 3.23362 -0.294497 0
M  V30 10401 H 1005.8 3.30051 -3.99107 0
M  V30 10402 H 1002.48 3.9032 -1.48177 0
M  V30 10403 H 1003.87 3.82689 -5.52267 0
M  V30 10404 N 1006.59 1.25851 0.948643 0
M  V30 10405 C 1007.54 1.03437 2.03187 0
M  V30 10406 C 1008.52 -0.0307632 1.60871 0
M  V30 10407 O 1009.71 0.185296 1.76027 0
M  V30 10408 C 1006.84 0.661426 3.36868 0
M  V30 10409 C 1005.93 1.76363 3.8569 0
M  V30 10410 N 1006.32 2.9998 4.07241 0
M  V30 10411 C 1004.62 1.64552 4.14534 0
M  V30 10412 C 1005.32 3.71564 4.47566 0
M  V30 10413 N 1004.29 2.99214 4.53841 0
M  V30 10414 H 1008.1 1.97277 2.17851 0
M  V30 10415 H 1005.61 1.16258 1.13392 0
M  V30 10416 H 1007.61 0.482021 4.14104 0
M  V30 10417 H 1006.27 -0.269582 3.23579 0
M  V30 10418 H 1007.28 3.35963 3.94143 0
M  V30 10419 H 1003.95 0.783891 4.10075 0
M  V30 10420 H 1005.34 4.77702 4.72494 0
M  V30 10421 N 1008.06 -1.15214 1.07534 0
M  V30 10422 C 1009 -2.18999 0.641461 0
M  V30 10423 C 1009.98 -1.58958 -0.342238 0
M  V30 10424 O 1011.16 -1.86859 -0.248218 0
M  V30 10425 C 1008.29 -3.38651 -0.0577939 0
M  V30 10426 C 1007.33 -4.17225 0.884641 0
M  V30 10427 S 1008.17 -4.79375 2.38663 0
M  V30 10428 C 1009.32 -6.02393 1.69923 0
M  V30 10429 H 1009.55 -2.55464 1.52071 0
M  V30 10430 H 1007.09 -1.26205 0.889481 0
M  V30 10431 H 1009.05 -4.07971 -0.454982 0
M  V30 10432 H 1007.71 -3.00526 -0.913407 0
M  V30 10433 H 1006.9 -5.02837 0.342133 0
M  V30 10434 H 1006.5 -3.53463 1.2223 0
M  V30 10435 H 1008.79 -6.69899 1.01201 0
M  V30 10436 H 1009.74 -6.61216 2.53375 0
M  V30 10437 H 1010.14 -5.52106 1.1764 0
M  V30 10438 N 1009.54 -0.859717 -1.32086 0
M  V30 10439 C 1010.51 -0.313005 -2.27053 0
M  V30 10440 C 1011.51 0.530191 -1.51808 0
M  V30 10441 O 1012.7 0.340972 -1.7083 0
M  V30 10442 C 1009.83 0.5566 -3.36325 0
M  V30 10443 H 1011.02 -1.15125 -2.76923 0
M  V30 10444 H 1008.57 -0.634463 -1.42843 0
M  V30 10445 H 1009.31 1.41645 -2.91731 0
M  V30 10446 H 1009.09 -0.0470197 -3.92072 0
M  V30 10447 H 1010.58 0.931725 -4.07073 0
M  V30 10448 N 1011.02 1.44971 -0.618145 0
M  V30 10449 C 1012.25 2.06527 -0.124165 0
M  V30 10450 C 1012.66 1.46097 1.19588 0
M  V30 10451 O 1012.02 0.57901 1.73071 0
M  V30 10452 C 1012.07 3.61498 0.0106701 0
M  V30 10453 O 1011.79 4.19675 -1.25716 0
M  V30 10454 C 1013.29 4.40061 0.534872 0
M  V30 10455 H 1010.51 0.666941 -0.0736935 0
M  V30 10456 H 1013.06 1.8605 -0.848871 0
M  V30 10457 H 1011.21 3.81282 0.685752 0
M  V30 10458 H 1011.63 5.12972 -1.09362 0
M  V30 10459 H 1013.1 5.48963 0.57827 0
M  V30 10460 H 1013.58 4.10587 1.55931 0
M  V30 10461 H 1014.18 4.25167 -0.10652 0
M  V30 10462 N 1012.5 0.357919 1.53482 0
M  V30 10463 C 1013.43 -0.484231 2.28424 0
M  V30 10464 C 1014.41 -1.09046 1.30548 0
M  V30 10465 O 1015.59 -1.10916 1.59409 0
M  V30 10466 C 1012.72 -1.62803 3.06778 0
M  V30 10467 C 1011.68 -1.14943 4.12277 0
M  V30 10468 C 1011 -2.38287 4.78669 0
M  V30 10469 C 1012.3 -0.239627 5.2175 0
M  V30 10470 H 1014 0.140979 2.99068 0
M  V30 10471 H 1011.54 0.069244 1.43833 0
M  V30 10472 H 1013.5 -2.22374 3.57949 0
M  V30 10473 H 1012.22 -2.28036 2.3381 0
M  V30 10474 H 1010.88 -0.576442 3.6204 0
M  V30 10475 H 1010.53 -3.01959 4.02281 0
M  V30 10476 H 1010.23 -2.06939 5.49955 0
M  V30 10477 H 1011.75 -2.98558 5.32631 0
M  V30 10478 H 1013.17 -0.742597 5.6847 0
M  V30 10479 H 1011.56 -0.0173747 6.00097 0
M  V30 10480 H 1012.63 0.720333 4.7952 0
M  V30 10481 N 1013.98 -1.5736 0.0868897 0
M  V30 10482 C 1014.94 -2.12436 -0.860439 0
M  V30 10483 C 1015.94 -1.05175 -1.21634 0
M  V30 10484 O 1017.13 -1.31098 -1.14713 0
M  V30 10485 C 1014.26 -2.63818 -2.159 0
M  V30 10486 H 1015.45 -2.97453 -0.382346 0
M  V30 10487 H 1013.01 -1.55458 -0.162009 0
M  V30 10488 H 1013.74 -1.82298 -2.68212 0
M  V30 10489 H 1013.53 -3.42234 -1.91359 0
M  V30 10490 H 1015.02 -3.06452 -2.83685 0
M  V30 10491 N 1015.45 0.186762 -1.56489 0
M  V30 10492 C 1016.68 0.925916 -1.85584 0
M  V30 10493 C 1017.1 1.75708 -0.671446 0
M  V30 10494 O 1016.46 1.7728 0.379687 0
M  V30 10495 C 1016.51 1.79107 -3.12975 0
M  V30 10496 O 1015.61 2.89088 -2.94112 0
M  V30 10497 H 1014.96 0.260275 -0.610863 0
M  V30 10498 H 1017.49 0.189561 -2.0372 0
M  V30 10499 H 1017.5 2.19408 -3.43983 0
M  V30 10500 H 1016.17 1.18044 -3.98796 0
M  V30 10501 H 1014.75 2.52482 -2.74422 0
M  V30 10502 N 1016.93 1.50896 0.454776 0
M  V30 10503 C 1018.18 1.61936 1.20248 0
M  V30 10504 C 1018.49 0.332983 1.92745 0
M  V30 10505 O 1019.7 0.322512 2.69578 0
M  V30 10506 C 1018.16 2.85916 2.18587 0
M  V30 10507 C 1017.76 4.21492 1.51818 0
M  V30 10508 C 1019.51 3.06307 2.93898 0
M  V30 10509 C 1017.42 5.3664 2.48539 0
M  V30 10510 H 1016.35 0.603098 0.452536 0
M  V30 10511 H 1019 1.77345 0.471257 0
M  V30 10512 H 1017.38 2.64101 2.95071 0
M  V30 10513 H 1018.55 4.53623 0.810123 0
M  V30 10514 H 1016.87 4.06837 0.887265 0
M  V30 10515 H 1019.46 3.89507 3.66317 0
M  V30 10516 H 1019.81 2.18683 3.54236 0
M  V30 10517 H 1020.34 3.2838 2.24525 0
M  V30 10518 H 1017.08 6.26469 1.92916 0
M  V30 10519 H 1016.6 5.08907 3.17449 0
M  V30 10520 H 1018.28 5.67881 3.10033 0
M  V30 10521 N 1018.41 -0.709066 1.40748 0
M  V30 10522 C 1019.66 -1.4646 1.38681 0
M  V30 10523 C 1019.97 -1.95599 -0.0056209 0
M  V30 10524 O 1021.18 -2.71091 -0.148907 0
M  V30 10525 C 1019.63 -2.64771 2.43771 0
M  V30 10526 C 1019.24 -2.22474 3.88856 0
M  V30 10527 C 1020.99 -3.42475 2.50821 0
M  V30 10528 C 1018.89 -3.37663 4.85528 0
M  V30 10529 H 1017.82 -0.550084 0.515678 0
M  V30 10530 H 1020.47 -0.771074 1.66513 0
M  V30 10531 H 1018.86 -3.36325 2.09048 0
M  V30 10532 H 1020.03 -1.58297 4.32757 0
M  V30 10533 H 1018.35 -1.57798 3.85342 0
M  V30 10534 H 1020.94 -4.28201 3.20232 0
M  V30 10535 H 1021.29 -3.86738 1.54076 0
M  V30 10536 H 1021.82 -2.77969 2.84567 0
M  V30 10537 H 1018.56 -2.98426 5.83628 0
M  V30 10538 H 1018.08 -4.00734 4.46287 0
M  V30 10539 H 1019.76 -4.03636 5.05655 0
M  V30 10540 N 1019.89 -1.26353 -0.941956 0
M  V30 10541 C 1020.84 -1.07842 -2.04056 0
M  V30 10542 C 1021.81 0.0163064 -1.66092 0
M  V30 10543 O 1022.99 -0.143313 -1.90261 0
M  V30 10544 C 1020.13 -0.716636 -3.37577 0
M  V30 10545 C 1019.24 -1.88754 -3.88582 0
M  V30 10546 C 1018.38 -1.46893 -5.10486 0
M  V30 10547 C 1017.42 -2.60819 -5.53751 0
M  V30 10548 N 1016.56 -2.19646 -6.66858 0
M  V30 10549 H 1021.4 -2.01856 -2.19221 0
M  V30 10550 H 1018.93 -1.00504 -1.07412 0
M  V30 10551 H 1020.89 -0.487768 -4.14339 0
M  V30 10552 H 1019.52 0.18653 -3.22261 0
M  V30 10553 H 1018.57 -2.22936 -3.08227 0
M  V30 10554 H 1019.88 -2.74264 -4.1663 0
M  V30 10555 H 1019.04 -1.20047 -5.94705 0
M  V30 10556 H 1017.78 -0.584721 -4.84182 0
M  V30 10557 H 1016.78 -2.88396 -4.6809 0
M  V30 10558 H 1018.01 -3.49838 -5.82057 0
M  V30 10559 H 1015.95 -1.33657 -6.4224 0
M  V30 10560 H 1015.87 -2.987 -6.94489 0
M  V30 10561 H 1017.14 -1.96009 -7.54454 0
M  V30 10562 N 1021.37 1.14642 -1.08144 0
M  V30 10563 C 1022.28 2.23257 -0.720668 0
M  V30 10564 C 1023.29 1.71866 0.271648 0
M  V30 10565 O 1024.47 2.01064 0.116266 0
M  V30 10566 C 1021.53 3.46447 -0.132542 0
M  V30 10567 C 1020.6 4.12789 -1.17913 0
M  V30 10568 C 1019.83 5.30099 -0.618971 0
M  V30 10569 O 1020.05 5.6762 0.562418 0
M  V30 10570 O 1018.99 5.86154 -1.36774 0
M  V30 10571 H 1022.81 2.56463 -1.62667 0
M  V30 10572 H 1020.4 1.22521 -0.854932 0
M  V30 10573 H 1022.28 4.20959 0.19277 0
M  V30 10574 H 1020.95 3.14971 0.746662 0
M  V30 10575 H 1019.86 3.40163 -1.55693 0
M  V30 10576 H 1021.19 4.48365 -2.03051 0
M  V30 10577 N 1022.85 0.866709 1.31628 0
M  V30 10578 C 1024.09 0.476731 1.97117 0
M  V30 10579 C 1024.42 -0.967813 1.68366 0
M  V30 10580 O 1023.7 -1.68101 0.978377 0
M  V30 10581 C 1023.98 0.730561 3.52611 0
M  V30 10582 C 1023.84 2.2244 3.90948 0
M  V30 10583 C 1025.15 0.19488 4.39668 0
M  V30 10584 H 1022.27 0.174682 0.715999 0
M  V30 10585 H 1024.92 1.08735 1.5581 0
M  V30 10586 H 1023.07 0.210834 3.87927 0
M  V30 10587 H 1024.74 2.81113 3.6575 0
M  V30 10588 H 1022.98 2.69824 3.39673 0
M  V30 10589 H 1023.65 2.35266 4.99353 0
M  V30 10590 H 1026.13 0.639478 4.11157 0
M  V30 10591 H 1025 0.401958 5.47426 0
M  V30 10592 H 1025.26 -0.90302 4.32779 0
M  V30 10593 N 1024.32 -1.44642 0.625825 0
M  V30 10594 C 1025.6 -1.9551 0.0593587 0
M  V30 10595 C 1025.98 -1.56792 -1.41349 0
M  V30 10596 O 1025.33 -0.839373 -2.12525 0
M  V30 10597 C 1025.54 -3.47902 0.276647 0
M  V30 10598 C 1026.89 -4.24271 0.167044 0
M  V30 10599 O 1027.91 -3.55594 0.207731 0
M  V30 10600 O 1026.77 -5.46458 0.0675 0
M  V30 10601 H 1023.86 -0.826612 -0.0253422 0
M  V30 10602 H 1026.41 -1.54718 0.697159 0
M  V30 10603 H 1025.18 -3.69115 1.29885 0
M  V30 10604 H 1024.8 -3.95628 -0.395547 0
M  V30 10605 N 1025.8 -0.366053 -1.5329 0
M  V30 10606 C 1026.75 0.480205 -2.25749 0
M  V30 10607 C 1027.72 1.07713 -1.2644 0
M  V30 10608 O 1028.9 1.10953 -1.55222 0
M  V30 10609 C 1026.04 1.61374 -3.05045 0
M  V30 10610 C 1025.16 1.04194 -4.19246 0
M  V30 10611 C 1024.29 2.14462 -4.85983 0
M  V30 10612 C 1023.33 1.5475 -5.92215 0
M  V30 10613 N 1022.47 2.58852 -6.52641 0
M  V30 10614 H 1027.31 -0.144199 -2.97651 0
M  V30 10615 H 1024.84 -0.0829321 -1.46866 0
M  V30 10616 H 1026.8 2.28144 -3.49294 0
M  V30 10617 H 1025.43 2.2088 -2.35397 0
M  V30 10618 H 1024.48 0.264514 -3.79479 0
M  V30 10619 H 1025.8 0.565379 -4.95585 0
M  V30 10620 H 1024.95 2.89051 -5.33418 0
M  V30 10621 H 1023.69 2.6547 -4.09117 0
M  V30 10622 H 1022.69 0.786759 -5.44142 0
M  V30 10623 H 1023.92 1.04566 -6.71001 0
M  V30 10624 H 1021.87 3.09073 -5.78627 0
M  V30 10625 H 1021.78 2.15884 -7.24521 0
M  V30 10626 H 1023.05 3.33142 -7.04724 0
M  V30 10627 N 1027.28 1.57312 -0.0952337 0
M  V30 10628 C 1028.56 1.85822 0.610715 0
M  V30 10629 C 1028.94 0.992114 1.86334 0
M  V30 10630 O 1028.28 0.0645669 2.28409 0
M  V30 10631 C 1028.49 3.36492 0.925967 0
M  V30 10632 C 1029.84 4.0455 1.28936 0
M  V30 10633 O 1030.87 3.41374 1.01698 0
M  V30 10634 O 1029.73 5.16024 1.79949 0
M  V30 10635 H 1026.82 0.768454 0.305626 0
M  V30 10636 H 1029.37 1.69217 -0.127941 0
M  V30 10637 H 1028.14 3.91282 0.0373127 0
M  V30 10638 H 1027.76 3.58443 1.7206 0
M  V30 10639 N 1028.76 -0.17846 1.56586 0
M  V30 10640 C 1030.01 -0.894464 1.81228 0
M  V30 10641 C 1030.33 -1.83089 0.671062 0
M  V30 10642 O 1029.6 -1.93439 -0.309557 0
M  V30 10643 H 1028.18 -0.333288 0.668527 0
M  V30 10644 H 1030.84 -0.179986 1.94067 0
M  V30 10645 H 1029.93 -1.47565 2.75011 0
M  V30 10646 N 1030.24 -1.51135 -0.446768 0
M  V30 10647 C 1031.17 -1.74709 -1.54916 0
M  V30 10648 C 1032.15 -0.596628 -1.59293 0
M  V30 10649 O 1033.33 -0.838356 -1.75172 0
M  V30 10650 C 1030.46 -1.86353 -2.9307 0
M  V30 10651 C 1029.42 -3.01725 -3.03556 0
M  V30 10652 C 1028.74 -2.9854 -4.43597 0
M  V30 10653 C 1030.04 -4.41848 -2.7851 0
M  V30 10654 H 1031.74 -2.67014 -1.3544 0
M  V30 10655 H 1029.28 -1.28489 -0.650131 0
M  V30 10656 H 1031.23 -2.01428 -3.70141 0
M  V30 10657 H 1029.96 -0.906887 -3.13756 0
M  V30 10658 H 1028.62 -2.86339 -2.28922 0
M  V30 10659 H 1028.27 -2.00673 -4.61237 0
M  V30 10660 H 1027.97 -3.76008 -4.51544 0
M  V30 10661 H 1029.49 -3.15696 -5.22655 0
M  V30 10662 H 1030.9 -4.57633 -3.45319 0
M  V30 10663 H 1029.3 -5.2095 -2.97877 0
M  V30 10664 H 1030.37 -4.52536 -1.74182 0
M  V30 10665 N 1031.71 0.701592 -1.41122 0
M  V30 10666 C 1032.66 1.81559 -1.42495 0
M  V30 10667 C 1033.63 1.63722 -0.280078 0
M  V30 10668 O 1034.82 1.84658 -0.480231 0
M  V30 10669 C 1031.96 3.19392 -1.30702 0
M  V30 10670 C 1031.07 3.48704 -2.55009 0
M  V30 10671 C 1030.2 4.76118 -2.35554 0
M  V30 10672 C 1029.24 4.98378 -3.55367 0
M  V30 10673 N 1028.38 6.17014 -3.3502 0
M  V30 10674 H 1033.22 1.7972 -2.37707 0
M  V30 10675 H 1030.76 0.877727 -1.18044 0
M  V30 10676 H 1032.71 3.99004 -1.21867 0
M  V30 10677 H 1031.34 3.20423 -0.391012 0
M  V30 10678 H 1030.4 2.63542 -2.74317 0
M  V30 10679 H 1031.71 3.61057 -3.44151 0
M  V30 10680 H 1030.86 5.63774 -2.24152 0
M  V30 10681 H 1029.6 4.66 -1.43859 0
M  V30 10682 H 1028.61 4.09172 -3.6723 0
M  V30 10683 H 1029.83 5.10359 -4.48007 0
M  V30 10684 H 1027.78 6.0812 -2.4602 0
M  V30 10685 H 1027.69 6.30107 -4.17733 0
M  V30 10686 H 1028.96 7.0742 -3.27379 0
M  V30 10687 N 1033.19 1.2685 0.935242 0
M  V30 10688 C 1034.44 1.12522 1.67878 0
M  V30 10689 C 1034.76 -0.330894 1.92172 0
M  V30 10690 O 1034.03 -1.23259 1.52263 0
M  V30 10691 H 1032.61 0.413418 0.622169 0
M  V30 10692 H 1035.27 1.59267 1.12339 0
M  V30 10693 H 1034.37 1.64853 2.65009 0
M  V30 10694 N 1034.67 -1.14067 1.0875 0
M  V30 10695 C 1035.9 -1.89582 0.841038 0
M  V30 10696 C 1036.32 -1.78226 -0.601436 0
M  V30 10697 O 1035.68 -1.12491 -1.42181 0
M  V30 10698 C 1035.73 -3.37415 1.27213 0
M  V30 10699 O 1034.83 -4.10191 0.426246 0
M  V30 10700 H 1034.17 -0.589716 0.305173 0
M  V30 10701 H 1036.7 -1.44364 1.44984 0
M  V30 10702 H 1036.71 -3.88234 1.25451 0
M  V30 10703 H 1035.39 -3.44999 2.32268 0
M  V30 10704 H 1033.96 -3.69429 0.507585 0
M  V30 10705 N 1036.15 -0.873678 -1.31166 0
M  V30 10706 C 1037.37 -0.500242 -2.01277 0
M  V30 10707 C 1037.8 0.900811 -1.65127 0
M  V30 10708 O 1037.16 1.59504 -0.861862 0
M  V30 10709 C 1037.2 -0.668976 -3.5434 0
M  V30 10710 O 1036.31 0.290096 -4.11378 0
M  V30 10711 H 1035.65 -0.198507 -0.633633 0
M  V30 10712 H 1038.18 -1.17811 -1.67277 0
M  V30 10713 H 1038.19 -0.563673 -4.04088 0
M  V30 10714 H 1036.86 -1.69055 -3.79991 0
M  V30 10715 H 1035.44 0.139437 -3.72639 0
M  V30 10716 N 1037.63 1.44308 -0.633487 0
M  V30 10717 C 1038.9 1.95476 -0.0697262 0
M  V30 10718 C 1039.28 1.57539 1.40516 0
M  V30 10719 O 1038.63 0.850632 2.12077 0
M  V30 10720 C 1038.84 3.4775 -0.295093 0
M  V30 10721 C 1040.19 4.24177 -0.189542 0
M  V30 10722 O 1041.21 3.55479 -0.226586 0
M  V30 10723 O 1040.07 5.46415 -0.096479 0
M  V30 10724 H 1037.17 0.826734 0.0209582 0
M  V30 10725 H 1039.71 1.54347 -0.705354 0
M  V30 10726 H 1038.48 3.6842 -1.31841 0
M  V30 10727 H 1038.11 3.95832 0.37456 0
M  V30 10728 N 1039.1 0.374177 1.53094 0
M  V30 10729 C 1040.01 -0.475935 2.29722 0
M  V30 10730 C 1041.03 -1.085 1.36029 0
M  V30 10731 O 1042.21 -1.09408 1.69091 0
M  V30 10732 C 1039.27 -1.59572 3.07795 0
M  V30 10733 C 1038.33 -1.01332 4.17169 0
M  V30 10734 C 1037.57 -2.07975 4.9151 0
M  V30 10735 O 1037.79 -3.29232 4.65793 0
M  V30 10736 O 1036.72 -1.7055 5.77232 0
M  V30 10737 H 1040.55 0.147877 3.0334 0
M  V30 10738 H 1038.13 0.138312 1.48758 0
M  V30 10739 H 1040.02 -2.24658 3.5652 0
M  V30 10740 H 1038.69 -2.20478 2.37005 0
M  V30 10741 H 1037.6 -0.326133 3.72676 0
M  V30 10742 H 1038.93 -0.4487 4.90151 0
M  V30 10743 N 1040.58 -1.57259 0.103575 0
M  V30 10744 C 1041.49 -2.18018 -0.866327 0
M  V30 10745 C 1042.51 -1.15198 -1.30404 0
M  V30 10746 O 1043.68 -1.47605 -1.37021 0
M  V30 10747 C 1040.75 -2.75533 -2.10434 0
M  V30 10748 C 1039.81 -3.93337 -1.72002 0
M  V30 10749 C 1039.04 -4.481 -2.89901 0
M  V30 10750 O 1039.27 -4.01784 -4.04877 0
M  V30 10751 O 1038.2 -5.39004 -2.67877 0
M  V30 10752 H 1042.03 -3.01322 -0.379338 0
M  V30 10753 H 1039.61 -1.48907 -0.121228 0
M  V30 10754 H 1041.49 -3.12259 -2.8297 0
M  V30 10755 H 1040.17 -1.9527 -2.58169 0
M  V30 10756 H 1039.08 -3.61408 -0.966193 0
M  V30 10757 H 1040.41 -4.74989 -1.29022 0
M  V30 10758 N 1042.06 0.170153 -1.56679 0
M  V30 10759 C 1043.31 0.886592 -1.8206 0
M  V30 10760 C 1043.64 1.82194 -0.680839 0
M  V30 10761 O 1042.89 1.92866 0.331822 0
M  V30 10762 C 1043.19 1.71402 -3.13618 0
M  V30 10763 C 1042.86 0.927489 -4.41258 0
M  V30 10764 C 1041.52 0.710417 -4.75927 0
M  V30 10765 C 1043.87 0.375855 -5.19843 0
M  V30 10766 C 1041.2 -0.0693691 -5.86659 0
M  V30 10767 C 1043.55 -0.390849 -6.31391 0
M  V30 10768 C 1042.21 -0.61871 -6.64626 0
M  V30 10769 H 1041.48 0.324427 -0.666204 0
M  V30 10770 H 1044.13 0.151464 -1.909 0
M  V30 10771 H 1042.44 2.51858 -3.00125 0
M  V30 10772 H 1044.13 2.27141 -3.30466 0
M  V30 10773 H 1040.72 1.10672 -4.14065 0
M  V30 10774 H 1044.91 0.530897 -4.93452 0
M  V30 10775 H 1040.16 -0.255637 -6.10865 0
M  V30 10776 H 1044.34 -0.825544 -6.9149 0
M  V30 10777 H 1041.96 -1.22482 -7.50268 0
M  V30 10778 N 1043.54 1.5137 0.438746 0
M  V30 10779 C 1044.5 1.71993 1.51496 0
M  V30 10780 C 1045.5 0.589978 1.49586 0
M  V30 10781 O 1046.69 0.857505 1.51633 0
M  V30 10782 C 1043.82 1.77508 2.91039 0
M  V30 10783 H 1045.02 2.68041 1.34514 0
M  V30 10784 H 1042.57 1.41338 0.667326 0
M  V30 10785 H 1043.3 0.832698 3.13427 0
M  V30 10786 H 1043.09 2.59627 2.9383 0
M  V30 10787 H 1044.58 1.95308 3.69113 0
M  V30 10788 N 1045.02 -0.694098 1.41492 0
M  V30 10789 C 1045.98 -1.78976 1.43179 0
M  V30 10790 C 1046.98 -1.57539 0.322191 0
M  V30 10791 O 1048.17 -1.64185 0.582138 0
M  V30 10792 C 1045.3 -3.17368 1.2446 0
M  V30 10793 H 1046.49 -1.78874 2.40716 0
M  V30 10794 H 1044.05 -0.901867 1.27656 0
M  V30 10795 H 1044.78 -3.23109 0.277691 0
M  V30 10796 H 1044.57 -3.3433 2.04856 0
M  V30 10797 H 1046.06 -3.97345 1.28479 0
M  V30 10798 N 1046.49 -1.27344 -0.928501 0
M  V30 10799 C 1047.46 -1.10043 -2.01055 0
M  V30 10800 C 1048.46 -0.0446793 -1.60738 0
M  V30 10801 O 1049.65 -0.289202 -1.71783 0
M  V30 10802 C 1046.78 -0.676559 -3.34119 0
M  V30 10803 H 1047.97 -2.06126 -2.17835 0
M  V30 10804 H 1045.53 -1.10121 -1.10919 0
M  V30 10805 H 1046.26 0.285697 -3.23039 0
M  V30 10806 H 1046.05 -1.43903 -3.64739 0
M  V30 10807 H 1047.54 -0.577725 -4.13584 0
M  V30 10808 N 1047.97 1.13488 -1.09353 0
M  V30 10809 C 1048.9 2.20988 -0.75409 0
M  V30 10810 C 1049.88 1.67977 0.267901 0
M  V30 10811 O 1051.07 1.93722 0.136128 0
M  V30 10812 C 1048.2 3.46869 -0.173042 0
M  V30 10813 C 1047.15 4.12965 -1.12446 0
M  V30 10814 C 1046.48 5.33163 -0.405157 0
M  V30 10815 C 1047.78 4.60388 -2.46658 0
M  V30 10816 H 1049.47 2.49639 -1.6529 0
M  V30 10817 H 1047.02 1.19987 -0.796182 0
M  V30 10818 H 1048.97 4.21331 0.0764988 0
M  V30 10819 H 1047.7 3.17611 0.760956 0
M  V30 10820 H 1046.35 3.40469 -1.35927 0
M  V30 10821 H 1046 5.00169 0.532955 0
M  V30 10822 H 1045.7 5.78332 -1.03952 0
M  V30 10823 H 1047.23 6.1038 -0.163899 0
M  V30 10824 H 1048.64 5.26276 -2.27389 0
M  V30 10825 H 1047.04 5.16294 -3.05876 0
M  V30 10826 H 1048.11 3.74949 -3.07476 0
M  V30 10827 N 1049.45 0.880621 1.30701 0
M  V30 10828 C 1050.68 0.51094 2.00182 0
M  V30 10829 C 1051.09 -0.903914 1.66211 0
M  V30 10830 O 1050.43 -1.60529 0.893089 0
M  V30 10831 C 1050.49 0.600775 3.54445 0
M  V30 10832 C 1050.16 1.97915 4.1192 0
M  V30 10833 C 1051.16 2.94802 4.28238 0
M  V30 10834 C 1048.84 2.28336 4.47401 0
M  V30 10835 C 1050.83 4.20245 4.79242 0
M  V30 10836 C 1048.52 3.54026 4.98105 0
M  V30 10837 C 1049.52 4.49796 5.13978 0
M  V30 10838 O 1049.21 5.73256 5.63589 0
M  V30 10839 H 1048.94 0.196477 0.646818 0
M  V30 10840 H 1051.49 1.18659 1.67658 0
M  V30 10841 H 1049.72 -0.131832 3.86475 0
M  V30 10842 H 1051.41 0.242996 4.05172 0
M  V30 10843 H 1052.18 2.7261 4.01134 0
M  V30 10844 H 1048.06 1.54564 4.34317 0
M  V30 10845 H 1051.6 4.95003 4.91546 0
M  V30 10846 H 1047.5 3.76057 5.24644 0
M  V30 10847 H 1048.27 5.75577 5.81939 0
M  V30 10848 N 1050.93 -1.4397 0.641131 0
M  V30 10849 C 1051.88 -2.2786 -0.079879 0
M  V30 10850 C 1052.86 -1.39227 -0.80651 0
M  V30 10851 O 1054.06 -1.62956 -0.690969 0
M  V30 10852 C 1051.18 -3.26722 -1.05394 0
M  V30 10853 C 1050.27 -4.22842 -0.326411 0
M  V30 10854 N 1050.66 -5.016 0.650464 0
M  V30 10855 C 1048.96 -4.42349 -0.569507 0
M  V30 10856 C 1049.66 -5.71563 1.08121 0
M  V30 10857 N 1048.64 -5.41991 0.417932 0
M  V30 10858 H 1052.44 -2.86163 0.669906 0
M  V30 10859 H 1049.95 -1.55528 0.467433 0
M  V30 10860 H 1051.95 -3.85588 -1.58517 0
M  V30 10861 H 1050.61 -2.69979 -1.80392 0
M  V30 10862 H 1051.62 -5.07581 1.0287 0
M  V30 10863 H 1048.3 -3.96693 -1.30159 0
M  V30 10864 H 1049.69 -6.44805 1.88883 0
M  V30 10865 N 1052.41 -0.382291 -1.52893 0
M  V30 10866 C 1053.65 0.202133 -2.01489 0
M  V30 10867 C 1053.98 1.47399 -1.26901 0
M  V30 10868 O 1053.24 1.92439 -0.355771 0
M  V30 10869 C 1053.54 0.523437 -3.53546 0
M  V30 10870 C 1053.2 -0.656042 -4.46102 0
M  V30 10871 C 1051.86 -0.979633 -4.71123 0
M  V30 10872 C 1054.22 -1.44545 -5.00756 0
M  V30 10873 C 1051.54 -2.0943 -5.48047 0
M  V30 10874 C 1053.9 -2.55066 -5.78899 0
M  V30 10875 C 1052.56 -2.87942 -6.02201 0
M  V30 10876 H 1051.83 0.0739659 -0.737299 0
M  V30 10877 H 1054.48 -0.518196 -1.84356 0
M  V30 10878 H 1052.78 1.325 -3.68715 0
M  V30 10879 H 1054.48 0.988148 -3.88634 0
M  V30 10880 H 1051.07 -0.393818 -4.26787 0
M  V30 10881 H 1055.25 -1.20869 -4.81357 0
M  V30 10882 H 1050.51 -2.3528 -5.64317 0
M  V30 10883 H 1054.68 -3.1664 -6.20252 0
M  V30 10884 H 1052.31 -3.74435 -6.61591 0
M  V30 10885 N 1053.89 1.57202 -0.111913 0
M  V30 10886 C 1054.83 2.16186 0.858286 0
M  V30 10887 C 1055.83 1.10917 1.28039 0
M  V30 10888 O 1057.03 1.29233 1.25295 0
M  V30 10889 H 1053.41 0.691777 0.29487 0
M  V30 10890 H 1055.38 2.96499 0.336265 0
M  V30 10891 C 1054.13 2.77024 2.10127 0
M  V30 10892 H 1053.45 3.5772 1.78539 0
M  V30 10893 H 1054.89 3.21841 2.76033 0
M  V30 10894 C 1053.35 1.73752 2.88638 0
M  V30 10895 O 1053.88 1.18659 3.83774 0
M  V30 10896 N 1052.09 1.43855 2.52496 0
M  V30 10897 H 1051.63 1.88846 1.75199 0
M  V30 10898 H 1051.59 0.749985 3.05324 0
M  V30 10899 N 1055.36 -0.161842 1.56767 0
M  V30 10900 C 1056.31 -1.20506 1.93552 0
M  V30 10901 C 1057.3 -1.39317 0.804952 0
M  V30 10902 O 1058.49 -1.41129 1.06825 0
M  V30 10903 C 1055.62 -2.54227 2.30702 0
M  V30 10904 C 1054.7 -2.3907 3.50295 0
M  V30 10905 N 1055.1 -1.93642 4.67265 0
M  V30 10906 C 1053.39 -2.69868 3.55088 0
M  V30 10907 C 1054.09 -1.91175 5.49388 0
M  V30 10908 N 1053.07 -2.33935 4.90689 0
M  V30 10909 H 1056.87 -0.845687 2.8147 0
M  V30 10910 H 1054.39 -0.370034 1.58128 0
M  V30 10911 H 1056.38 -3.29623 2.55254 0
M  V30 10912 H 1055.04 -2.90959 1.44128 0
M  V30 10913 H 1056.05 -1.63834 4.91303 0
M  V30 10914 H 1052.73 -3.10574 2.79016 0
M  V30 10915 H 1054.12 -1.57671 6.53138 0
M  V30 10916 N 1056.84 -1.516 -0.430713 0
M  V30 10917 C 1058.07 -1.687 -1.20644 0
M  V30 10918 C 1058.49 -0.386555 -1.84085 0
M  V30 10919 O 1057.85 0.653952 -1.69095 0
M  V30 10920 C 1057.9 -2.80887 -2.2613 0
M  V30 10921 O 1057 -2.44952 -3.31772 0
M  V30 10922 H 1056.34 -0.562289 -0.353167 0
M  V30 10923 H 1058.87 -1.98198 -0.507807 0
M  V30 10924 H 1058.88 -3.05167 -2.70809 0
M  V30 10925 H 1057.56 -3.75249 -1.79334 0
M  V30 10926 H 1056.13 -2.31267 -2.92523 0
M  V30 10927 N 1058.32 0.686584 -1.41858 0
M  V30 10928 C 1059.25 1.81264 -1.47193 0
M  V30 10929 C 1060.23 1.66875 -0.329657 0
M  V30 10930 O 1061.42 1.86473 -0.542347 0
M  V30 10931 C 1058.55 3.19472 -1.36216 0
M  V30 10932 C 1057.5 3.4858 -2.48347 0
M  V30 10933 C 1056.83 4.86239 -2.22432 0
M  V30 10934 C 1058.13 3.46653 -3.90678 0
M  V30 10935 H 1059.82 1.77057 -2.41436 0
M  V30 10936 H 1057.37 0.850415 -1.16206 0
M  V30 10937 H 1059.32 3.97969 -1.38558 0
M  V30 10938 H 1058.04 3.24327 -0.384611 0
M  V30 10939 H 1056.7 2.72437 -2.45303 0
M  V30 10940 H 1056.35 4.8773 -1.22999 0
M  V30 10941 H 1056.05 5.06677 -2.97577 0
M  V30 10942 H 1057.57 5.67034 -2.26505 0
M  V30 10943 H 1058.99 4.15139 -3.95389 0
M  V30 10944 H 1057.38 3.78625 -4.65578 0
M  V30 10945 H 1058.45 2.45451 -4.18189 0
M  V30 10946 N 1059.8 1.27835 0.921735 0
M  V30 10947 C 1061.04 1.14692 1.67253 0
M  V30 10948 C 1061.38 -0.305384 1.91784 0
M  V30 10949 O 1060.65 -1.22286 1.51249 0
M  V30 10950 C 1060.93 1.93743 3.03539 0
M  V30 10951 C 1060.79 3.46991 2.86212 0
M  V30 10952 C 1062.11 1.74658 4.03959 0
M  V30 10953 H 1059.23 0.418021 0.606983 0
M  V30 10954 H 1061.87 1.5706 1.06922 0
M  V30 10955 H 1060.02 1.57738 3.55037 0
M  V30 10956 H 1061.69 3.92858 2.41785 0
M  V30 10957 H 1059.93 3.73029 2.21432 0
M  V30 10958 H 1060.6 3.97551 3.82958 0
M  V30 10959 H 1063.08 2.06063 3.61493 0
M  V30 10960 H 1061.96 2.32353 4.97296 0
M  V30 10961 H 1062.22 0.696019 4.36587 0
M  V30 10962 N 1061.28 -1.12907 1.09954 0
M  V30 10963 C 1062.5 -1.88138 0.860905 0
M  V30 10964 C 1062.92 -1.79402 -0.588256 0
M  V30 10965 O 1062.28 -1.16442 -1.40526 0
M  V30 10966 C 1062.33 -3.37537 1.29425 0
M  V30 10967 O 1062.05 -3.46056 2.68658 0
M  V30 10968 C 1063.55 -4.29721 1.08879 0
M  V30 10969 H 1060.77 -0.595437 0.309347 0
M  V30 10970 H 1063.31 -1.42894 1.46292 0
M  V30 10971 H 1061.47 -3.80344 0.736009 0
M  V30 10972 H 1061.88 -4.38969 2.87065 0
M  V30 10973 H 1063.36 -5.32854 1.4412 0
M  V30 10974 H 1063.83 -4.39192 0.0270053 0
M  V30 10975 H 1064.44 -3.9269 1.63325 0
M  V30 10976 N 1062.75 -0.88754 -1.30232 0
M  V30 10977 C 1063.98 -0.521562 -2.00735 0
M  V30 10978 C 1064.4 0.883247 -1.66073 0
M  V30 10979 O 1063.76 1.58581 -0.878731 0
M  V30 10980 C 1063.81 -0.706521 -3.53611 0
M  V30 10981 O 1062.91 0.246447 -4.11663 0
M  V30 10982 H 1062.25 -0.205216 -0.631492 0
M  V30 10983 H 1064.78 -1.19579 -1.66018 0
M  V30 10984 H 1064.79 -0.606501 -4.03467 0
M  V30 10985 H 1063.47 -1.73076 -3.78177 0
M  V30 10986 H 1062.05 0.0999062 -3.72766 0
M  V30 10987 N 1064.23 1.43628 -0.648757 0
M  V30 10988 C 1065.51 1.95391 -0.0904551 0
M  V30 10989 C 1065.89 1.59021 1.38837 0
M  V30 10990 O 1065.24 0.873078 2.11163 0
M  V30 10991 C 1065.45 3.47418 -0.33196 0
M  V30 10992 C 1066.8 4.23952 -0.234521 0
M  V30 10993 O 1067.82 3.55218 -0.264276 0
M  V30 10994 O 1066.68 5.46282 -0.154428 0
M  V30 10995 H 1063.77 0.82691 0.0121884 0
M  V30 10996 H 1066.32 1.5359 -0.721685 0
M  V30 10997 H 1065.09 3.67001 -1.35741 0
M  V30 10998 H 1064.71 3.96207 0.332556 0
M  V30 10999 N 1065.71 0.390394 1.52688 0
M  V30 11000 C 1066.64 -0.43567 2.294 0
M  V30 11001 C 1067.62 -1.06253 1.32832 0
M  V30 11002 O 1068.81 -1.07509 1.61726 0
M  V30 11003 C 1065.94 -1.56259 3.10162 0
M  V30 11004 C 1064.89 -1.06172 4.14622 0
M  V30 11005 C 1064.22 -2.2808 4.83615 0
M  V30 11006 C 1065.52 -0.128902 5.22141 0
M  V30 11007 H 1067.21 0.204384 2.98702 0
M  V30 11008 H 1064.76 0.0997377 1.43654 0
M  V30 11009 H 1066.71 -2.14732 3.62585 0
M  V30 11010 H 1065.43 -2.23025 2.38595 0
M  V30 11011 H 1064.09 -0.499518 3.63181 0
M  V30 11012 H 1063.74 -2.93358 4.08595 0
M  V30 11013 H 1063.44 -1.95227 5.5422 0
M  V30 11014 H 1064.96 -2.87193 5.38844 0
M  V30 11015 H 1066.38 -0.621849 5.69917 0
M  V30 11016 H 1064.78 0.109919 5.99999 0
M  V30 11017 H 1065.85 0.821884 4.77884 0
M  V30 11018 N 1067.19 -1.57141 0.120249 0
M  V30 11019 C 1068.12 -2.12454 -0.859987 0
M  V30 11020 C 1069.13 -1.06755 -1.22911 0
M  V30 11021 O 1070.32 -1.34124 -1.17784 0
M  V30 11022 C 1067.42 -2.61024 -2.16147 0
M  V30 11023 C 1066.6 -3.90835 -1.96385 0
M  V30 11024 C 1065.65 -4.2499 -3.10274 0
M  V30 11025 O 1064.68 -4.93786 -2.83133 0
M  V30 11026 N 1065.88 -3.82411 -4.36741 0
M  V30 11027 H 1068.65 -2.97186 -0.387402 0
M  V30 11028 H 1066.21 -1.61773 -0.0641376 0
M  V30 11029 H 1068.2 -2.80903 -2.91334 0
M  V30 11030 H 1066.77 -1.81166 -2.5475 0
M  V30 11031 H 1065.99 -3.79853 -1.05383 0
M  V30 11032 H 1067.28 -4.75712 -1.80487 0
M  V30 11033 H 1066.68 -3.26926 -4.61666 0
M  V30 11034 H 1065.23 -4.07395 -5.08795 0
M  V30 11035 N 1068.67 0.153526 -1.5685 0
M  V30 11036 C 1069.89 0.886343 -1.87507 0
M  V30 11037 C 1070.32 1.74244 -0.708565 0
M  V30 11038 O 1069.67 1.78045 0.341997 0
M  V30 11039 C 1069.72 1.72428 -3.16703 0
M  V30 11040 O 1068.83 2.82784 -3.00178 0
M  V30 11041 H 1068.17 0.247259 -0.616246 0
M  V30 11042 H 1070.7 0.146306 -2.04076 0
M  V30 11043 H 1070.71 2.12062 -3.4856 0
M  V30 11044 H 1069.38 1.09558 -4.01211 0
M  V30 11045 H 1067.96 2.46604 -2.79716 0
M  V30 11046 N 1070.14 1.51827 0.422667 0
M  V30 11047 C 1071.56 1.57533 1.00201 0
M  V30 11048 C 1071.91 0.407623 1.91919 0
M  V30 11049 O 1071.03 -0.473763 2.1115 0
M  V30 11050 C 1071.63 2.85508 1.82403 0
M  V30 11051 C 1070.19 2.93737 2.35362 0
M  V30 11052 C 1069.33 2.52343 1.14971 0
M  V30 11053 H 1072.28 1.57391 0.20339 0
M  V30 11054 H 1072.3 2.70097 2.68007 0
M  V30 11055 H 1071.82 3.70477 1.15623 0
M  V30 11056 H 1069.92 2.13231 3.05554 0
M  V30 11057 H 1070.03 3.977 2.67155 0
M  V30 11058 H 1068.39 2.05878 1.49955 0
M  V30 11059 H 1069.18 3.39672 0.497786 0
M  V30 11060 N 1071.62 -0.679052 1.4222 0
M  V30 11061 C 1072.57 -1.81398 1.45594 0
M  V30 11062 C 1073.56 -1.66112 0.332127 0
M  V30 11063 O 1074.77 -1.72772 0.504942 0
M  V30 11064 H 1071.15 -0.598045 0.455902 0
M  V30 11065 H 1073.12 -1.7567 2.41211 0
M  V30 11066 C 1071.87 -3.19525 1.37109 0
M  V30 11067 H 1071.19 -3.31912 2.22878 0
M  V30 11068 H 1072.63 -3.98967 1.43531 0
M  V30 11069 C 1071.09 -3.36792 0.0853593 0
M  V30 11070 O 1071.62 -3.92309 -0.863532 0
M  V30 11071 N 1069.82 -2.906 0.00389229 0
M  V30 11072 H 1069.37 -2.45607 0.776846 0
M  V30 11073 H 1069.33 -3.0253 -0.855742 0
M  V30 11074 N 1073.1 -1.28322 -0.914942 0
M  V30 11075 C 1074.03 -1.14681 -2.03398 0
M  V30 11076 C 1075.01 -0.0448939 -1.70041 0
M  V30 11077 O 1076.2 -0.221672 -1.92931 0
M  V30 11078 C 1073.33 -0.806623 -3.37803 0
M  V30 11079 C 1072.28 -1.86318 -3.85318 0
M  V30 11080 C 1071.61 -1.37665 -5.16674 0
M  V30 11081 C 1072.91 -3.26953 -4.07307 0
M  V30 11082 H 1074.6 -2.08293 -2.15068 0
M  V30 11083 H 1072.15 -1.00284 -1.03339 0
M  V30 11084 H 1074.1 -0.69796 -4.1558 0
M  V30 11085 H 1072.82 0.165203 -3.26182 0
M  V30 11086 H 1071.48 -1.96096 -3.09745 0
M  V30 11087 H 1071.13 -0.393927 -5.01455 0
M  V30 11088 H 1070.83 -2.08313 -5.49435 0
M  V30 11089 H 1072.35 -1.28119 -5.97007 0
M  V30 11090 H 1073.77 -3.20102 -4.75613 0
M  V30 11091 H 1072.17 -3.95424 -4.51398 0
M  V30 11092 H 1073.24 -3.71059 -3.12159 0
M  V30 11093 N 1074.58 1.12322 -1.10551 0
M  V30 11094 C 1075.51 2.17819 -0.713263 0
M  V30 11095 C 1076.52 1.6086 0.250604 0
M  V30 11096 O 1077.71 1.78466 0.0348909 0
M  V30 11097 C 1074.81 3.38885 -0.0320325 0
M  V30 11098 C 1073.99 4.25332 -1.02038 0
M  V30 11099 C 1073.04 5.24895 -0.370412 0
M  V30 11100 O 1072.07 5.59958 -1.02157 0
M  V30 11101 N 1073.27 5.73934 0.870633 0
M  V30 11102 H 1076.04 2.52083 -1.62094 0
M  V30 11103 H 1073.6 1.27755 -0.994492 0
M  V30 11104 H 1075.59 4.02574 0.414285 0
M  V30 11105 H 1074.16 3.02762 0.778072 0
M  V30 11106 H 1073.38 3.5824 -1.64492 0
M  V30 11107 H 1074.67 4.79936 -1.68936 0
M  V30 11108 H 1074.07 5.47614 1.419 0
M  V30 11109 H 1072.62 6.39504 1.26008 0
M  V30 11110 N 1076.06 0.894434 1.2976 0
M  V30 11111 C 1077 0.357958 2.29829 0
M  V30 11112 C 1078 -0.540093 1.6056 0
M  V30 11113 O 1079.2 -0.423478 1.74948 0
M  V30 11114 H 1075.58 0.0971183 0.745702 0
M  V30 11115 H 1077.55 1.21542 2.72526 0
M  V30 11116 C 1076.3 -0.404126 3.45343 0
M  V30 11117 H 1075.62 0.277671 3.98835 0
M  V30 11118 H 1077.06 -0.744446 4.17413 0
M  V30 11119 C 1075.52 -1.6048 2.96222 0
M  V30 11120 O 1076.05 -2.70414 2.97051 0
M  V30 11121 N 1074.26 -1.44517 2.52117 0
M  V30 11122 H 1073.8 -0.55082 2.51642 0
M  V30 11123 H 1073.76 -2.24987 2.1961 0
M  V30 11124 N 1077.53 -1.43282 0.656365 0
M  V30 11125 C 1078.76 -2.06125 0.178879 0
M  V30 11126 C 1079.18 -1.49216 -1.15672 0
M  V30 11127 O 1078.53 -0.624693 -1.71475 0
M  V30 11128 C 1078.59 -3.614 0.0851785 0
M  V30 11129 O 1078.31 -4.16194 1.36798 0
M  V30 11130 C 1079.81 -4.41325 -0.41801 0
M  V30 11131 H 1077.03 -0.664753 0.0913504 0
M  V30 11132 H 1079.57 -1.83733 0.897901 0
M  V30 11133 H 1077.73 -3.82966 -0.584421 0
M  V30 11134 H 1078.14 -5.09892 1.22924 0
M  V30 11135 H 1079.61 -5.50303 -0.432519 0
M  V30 11136 H 1080.09 -4.14577 -1.44991 0
M  V30 11137 H 1080.7 -4.24735 0.219208 0
M  V30 11138 N 1079.01 -0.398486 -1.52479 0
M  V30 11139 C 1079.94 0.423498 -2.29627 0
M  V30 11140 C 1080.92 1.05547 -1.33394 0
M  V30 11141 O 1082.11 1.0665 -1.62294 0
M  V30 11142 C 1079.24 1.54612 -3.10986 0
M  V30 11143 C 1078.19 1.03971 -4.15179 0
M  V30 11144 C 1077.52 2.25512 -4.84818 0
M  V30 11145 C 1078.82 0.10121 -5.22202 0
M  V30 11146 H 1080.51 -0.220222 -2.98589 0
M  V30 11147 H 1078.06 -0.107355 -1.43599 0
M  V30 11148 H 1080.01 2.12806 -3.63719 0
M  V30 11149 H 1078.74 2.21756 -2.39774 0
M  V30 11150 H 1077.4 0.480251 -3.63441 0
M  V30 11151 H 1077.04 2.91187 -4.10145 0
M  V30 11152 H 1076.74 1.92285 -5.55248 0
M  V30 11153 H 1078.27 2.84331 -5.40359 0
M  V30 11154 H 1079.68 0.591617 -5.70239 0
M  V30 11155 H 1078.08 -0.141737 -5.99933 0
M  V30 11156 H 1079.15 -0.847216 -4.77441 0
M  V30 11157 N 1080.49 1.57075 -0.12858 0
M  V30 11158 C 1081.42 2.18833 0.814519 0
M  V30 11159 C 1082.4 1.13114 1.2704 0
M  V30 11160 O 1083.59 1.41387 1.33129 0
M  V30 11161 C 1080.72 2.79535 2.06101 0
M  V30 11162 C 1079.67 3.9092 1.74257 0
M  V30 11163 C 1079 4.38473 3.06015 0
M  V30 11164 C 1080.3 5.1257 1.00345 0
M  V30 11165 H 1081.99 2.97895 0.299862 0
M  V30 11166 H 1079.54 1.4329 0.14279 0
M  V30 11167 H 1081.49 3.21401 2.72543 0
M  V30 11168 H 1080.21 1.97777 2.59907 0
M  V30 11169 H 1078.87 3.49645 1.102 0
M  V30 11170 H 1078.52 3.53561 3.57776 0
M  V30 11171 H 1078.22 5.13591 2.85479 0
M  V30 11172 H 1079.75 4.82997 3.7356 0
M  V30 11173 H 1081.16 5.51395 1.56959 0
M  V30 11174 H 1079.56 5.93333 0.898693 0
M  V30 11175 H 1080.63 4.84899 -0.0081335 0
M  V30 11176 N 1081.97 -0.145205 1.5693 0
M  V30 11177 C 1082.9 -1.20438 1.95006 0
M  V30 11178 C 1083.91 -1.39085 0.846114 0
M  V30 11179 O 1085.1 -1.38625 1.12452 0
M  V30 11180 C 1082.2 -2.56892 2.21043 0
M  V30 11181 C 1081.38 -2.59197 3.52329 0
M  V30 11182 C 1080.44 -3.77204 3.66884 0
M  V30 11183 O 1079.46 -3.61995 4.39259 0
M  V30 11184 N 1080.66 -4.9473 3.03682 0
M  V30 11185 H 1083.43 -0.880709 2.86467 0
M  V30 11186 H 1080.99 -0.334751 1.58401 0
M  V30 11187 H 1082.98 -3.34349 2.2802 0
M  V30 11188 H 1081.55 -2.81544 1.35838 0
M  V30 11189 H 1080.77 -1.67644 3.56776 0
M  V30 11190 H 1082.06 -2.57771 4.3867 0
M  V30 11191 H 1081.46 -5.09989 2.44801 0
M  V30 11192 H 1080.01 -5.69956 3.16218 0
M  V30 11193 N 1083.45 -1.52049 -0.414609 0
M  V30 11194 C 1084.38 -1.7122 -1.52369 0
M  V30 11195 C 1085.39 -0.592634 -1.5163 0
M  V30 11196 O 1086.58 -0.867634 -1.55995 0
M  V30 11197 C 1083.68 -1.73247 -2.91271 0
M  V30 11198 C 1082.85 -3.02153 -3.16263 0
M  V30 11199 C 1081.91 -2.96066 -4.35007 0
M  V30 11200 O 1080.94 -3.69981 -4.32554 0
M  V30 11201 N 1082.14 -2.13478 -5.39822 0
M  V30 11202 H 1084.91 -2.66902 -1.3632 0
M  V30 11203 H 1082.47 -1.50218 -0.603842 0
M  V30 11204 H 1084.46 -1.66714 -3.68766 0
M  V30 11205 H 1083.03 -0.85062 -3.00804 0
M  V30 11206 H 1082.25 -3.22379 -2.2686 0
M  V30 11207 H 1083.54 -3.87439 -3.29801 0
M  V30 11208 H 1082.94 -1.52844 -5.44661 0
M  V30 11209 H 1081.49 -2.12805 -6.16082 0
M  V30 11210 N 1084.93 0.6715 -1.42579 0
M  V30 11211 C 1085.86 1.79693 -1.49107 0
M  V30 11212 C 1086.84 1.66516 -0.347338 0
M  V30 11213 O 1088.02 1.85887 -0.562094 0
M  V30 11214 C 1085.15 3.1801 -1.39596 0
M  V30 11215 C 1084.11 3.45926 -2.5203 0
M  V30 11216 C 1083.43 4.83852 -2.27577 0
M  V30 11217 C 1084.73 3.4249 -3.94333 0
M  V30 11218 H 1086.43 1.74486 -2.433 0
M  V30 11219 H 1083.97 0.838042 -1.17102 0
M  V30 11220 H 1085.92 3.96478 -1.42771 0
M  V30 11221 H 1084.65 3.23901 -0.418989 0
M  V30 11222 H 1083.31 2.6982 -2.48178 0
M  V30 11223 H 1082.96 4.86398 -1.28165 0
M  V30 11224 H 1082.66 5.03493 -3.02934 0
M  V30 11225 H 1084.18 5.646 -2.32506 0
M  V30 11226 H 1085.59 4.10922 -3.9977 0
M  V30 11227 H 1083.99 3.73666 -4.69568 0
M  V30 11228 H 1085.06 2.41002 -4.20768 0
M  V30 11229 N 1086.4 1.28806 0.908124 0
M  V30 11230 C 1087.65 1.16058 1.65454 0
M  V30 11231 C 1087.97 -0.290057 1.92831 0
M  V30 11232 O 1087.24 -1.20001 1.54843 0
M  V30 11233 H 1085.82 0.426522 0.61326 0
M  V30 11234 H 1088.48 1.61614 1.08936 0
M  V30 11235 H 1087.58 1.70437 2.61453 0
M  V30 11236 N 1087.88 -1.11734 1.11145 0
M  V30 11237 C 1089.13 -1.83677 0.859684 0
M  V30 11238 C 1089.46 -1.84265 -0.613182 0
M  V30 11239 O 1088.74 -1.29351 -1.45254 0
M  V30 11240 C 1089.02 -3.31003 1.41805 0
M  V30 11241 C 1088.87 -3.38827 2.95831 0
M  V30 11242 C 1090.19 -4.26984 1.06645 0
M  V30 11243 H 1087.31 -0.666879 0.313754 0
M  V30 11244 H 1089.95 -1.31038 1.37583 0
M  V30 11245 H 1088.1 -3.75961 0.979054 0
M  V30 11246 H 1089.77 -3.02451 3.48312 0
M  V30 11247 H 1088.02 -2.79143 3.32056 0
M  V30 11248 H 1088.69 -4.42508 3.29986 0
M  V30 11249 H 1091.16 -3.9019 1.44537 0
M  V30 11250 H 1090.04 -5.2846 1.48394 0
M  V30 11251 H 1090.3 -4.42094 -0.0231866 0
M  V30 11252 N 1089.36 -0.901303 -1.29284 0
M  V30 11253 C 1090.32 -0.385081 -2.25942 0
M  V30 11254 C 1091.32 0.481626 -1.53418 0
M  V30 11255 O 1092.51 0.286451 -1.71829 0
M  V30 11256 C 1089.64 0.449319 -3.37926 0
M  V30 11257 H 1090.84 -1.23877 -2.7312 0
M  V30 11258 H 1088.39 -0.679586 -1.40753 0
M  V30 11259 H 1089.13 1.32292 -2.9609 0
M  V30 11260 H 1088.91 -0.171731 -3.91724 0
M  V30 11261 H 1090.4 0.801746 -4.09831 0
M  V30 11262 N 1090.84 1.42931 -0.663954 0
M  V30 11263 C 1092.25 1.84877 -0.260283 0
M  V30 11264 C 1092.6 1.5558 1.19538 0
M  V30 11265 O 1091.72 1.01015 1.91377 0
M  V30 11266 C 1092.32 3.35585 -0.465618 0
M  V30 11267 C 1090.88 3.76221 -0.116169 0
M  V30 11268 C 1090.03 2.66587 -0.763317 0
M  V30 11269 H 1092.98 1.32932 -0.866882 0
M  V30 11270 H 1093 3.79427 0.285608 0
M  V30 11271 H 1092.51 3.56877 -1.52515 0
M  V30 11272 H 1090.61 3.60539 0.940342 0
M  V30 11273 H 1090.72 4.75943 -0.549123 0
M  V30 11274 H 1089.09 2.53948 -0.19559 0
M  V30 11275 H 1089.87 2.90704 -1.82609 0
M  V30 11276 N 1092.32 0.406567 1.52266 0
M  V30 11277 C 1093.56 -0.170053 2.01785 0
M  V30 11278 C 1093.89 -1.45361 1.2923 0
M  V30 11279 O 1093.15 -1.91849 0.386342 0
M  V30 11280 C 1093.44 -0.467124 3.54334 0
M  V30 11281 C 1093.11 0.72693 4.45002 0
M  V30 11282 C 1091.77 1.05446 4.69505 0
M  V30 11283 C 1094.12 1.52493 4.98393 0
M  V30 11284 C 1091.45 2.18123 5.44646 0
M  V30 11285 C 1093.8 2.64244 5.74768 0
M  V30 11286 C 1092.47 2.97486 5.97544 0
M  V30 11287 H 1091.74 -0.0622267 0.738383 0
M  V30 11288 H 1094.39 0.54746 1.83508 0
M  V30 11289 H 1092.69 -1.26617 3.70777 0
M  V30 11290 H 1094.39 -0.926194 3.90157 0
M  V30 11291 H 1090.98 0.461666 4.26106 0
M  V30 11292 H 1095.16 1.28512 4.79373 0
M  V30 11293 H 1090.42 2.44228 5.60502 0
M  V30 11294 H 1094.59 3.26468 6.15136 0
M  V30 11295 H 1092.22 3.84913 6.5555 0
M  V30 11296 N 1093.79 -1.57004 0.136909 0
M  V30 11297 C 1095.02 -2.00587 -0.527209 0
M  V30 11298 C 1095.44 -1.01628 -1.58283 0
M  V30 11299 O 1094.8 0.00946934 -1.81298 0
M  V30 11300 C 1094.85 -3.42967 -1.11384 0
M  V30 11301 O 1093.95 -3.46973 -2.22898 0
M  V30 11302 H 1093.3 -0.651155 -0.129976 0
M  V30 11303 H 1095.83 -2.03296 0.230667 0
M  V30 11304 H 1095.84 -3.81555 -1.44499 0
M  V30 11305 H 1094.51 -4.14502 -0.340736 0
M  V30 11306 H 1093.09 -3.20219 -1.91087 0
M  V30 11307 N 1095.27 0.136881 -1.57004 0
M  V30 11308 C 1096.18 1.18793 -2.023 0
M  V30 11309 C 1097.2 1.46412 -0.94018 0
M  V30 11310 O 1098.37 1.57883 -1.2504 0
M  V30 11311 C 1095.44 2.49903 -2.40311 0
M  V30 11312 C 1094.5 2.29841 -3.6259 0
M  V30 11313 C 1093.73 3.54699 -3.98779 0
M  V30 11314 O 1093.96 4.61291 -3.3551 0
M  V30 11315 O 1092.89 3.46761 -4.91976 0
M  V30 11316 H 1096.72 0.833345 -2.92043 0
M  V30 11317 H 1094.3 0.346361 -1.4533 0
M  V30 11318 H 1096.18 3.27183 -2.65574 0
M  V30 11319 H 1094.86 2.84872 -1.5372 0
M  V30 11320 H 1093.77 1.50478 -3.42501 0
M  V30 11321 H 1095.1 1.99784 -4.4983 0
M  V30 11322 N 1096.75 1.52266 0.40654 0
M  V30 11323 C 1098 1.66123 1.15097 0
M  V30 11324 C 1098.32 0.394836 1.90961 0
M  V30 11325 O 1097.59 -0.590349 1.86793 0
M  V30 11326 H 1096.17 0.612317 0.427875 0
M  V30 11327 H 1098.83 1.89318 0.463106 0
M  V30 11328 H 1097.93 2.50351 1.86361 0
M  V30 11329 N 1098.23 -0.663929 1.42933 0
M  V30 11330 C 1099.64 -1.24484 1.39143 0
M  V30 11331 C 1099.99 -1.95993 0.0901142 0
M  V30 11332 O 1099.12 -2.00636 -0.810812 0
M  V30 11333 C 1099.71 -2.26402 2.52047 0
M  V30 11334 C 1098.27 -2.79995 2.51555 0
M  V30 11335 C 1097.42 -1.54475 2.30289 0
M  V30 11336 H 1100.37 -0.456619 1.51989 0
M  V30 11337 H 1100.39 -3.08361 2.22921 0
M  V30 11338 H 1099.9 -1.74328 3.46744 0
M  V30 11339 H 1098 -3.36161 1.60707 0
M  V30 11340 H 1098.11 -3.2827 3.48964 0
M  V30 11341 H 1096.48 -1.81437 1.78753 0
M  V30 11342 H 1097.26 -1.04351 3.27056 0
M  V30 11343 N 1099.71 -1.29285 -0.901281 0
M  V30 11344 C 1100.95 -1.18348 -1.65424 0
M  V30 11345 C 1101.31 0.26276 -1.90597 0
M  V30 11346 O 1100.6 1.1868 -1.50418 0
M  V30 11347 C 1100.79 -1.92865 -3.00895 0
M  V30 11348 C 1100.62 -3.44588 -2.88945 0
M  V30 11349 C 1099.39 -4.13938 -2.89799 0
M  V30 11350 C 1101.59 -4.40113 -2.66092 0
M  V30 11351 N 1099.57 -5.52036 -2.68569 0
M  V30 11352 C 1100.94 -5.65661 -2.53827 0
M  V30 11353 C 1103 -4.29895 -2.51187 0
M  V30 11354 C 1101.7 -6.8215 -2.28175 0
M  V30 11355 C 1103.73 -5.46134 -2.26917 0
M  V30 11356 C 1103.09 -6.70653 -2.15416 0
M  V30 11357 H 1099.19 -0.48806 -0.611 0
M  V30 11358 H 1101.77 -1.63094 -1.06341 0
M  V30 11359 H 1099.94 -1.50535 -3.58042 0
M  V30 11360 H 1101.68 -1.74207 -3.65286 0
M  V30 11361 H 1098.43 -3.65625 -3.01023 0
M  V30 11362 H 1098.86 -6.24662 -2.61011 0
M  V30 11363 H 1103.5 -3.34321 -2.58823 0
M  V30 11364 H 1101.22 -7.77781 -2.19277 0
M  V30 11365 H 1104.8 -5.40126 -2.1623 0
M  V30 11366 H 1103.68 -7.5908 -1.96896 0
M  V30 11367 N 1101.18 1.11143 -1.11736 0
M  V30 11368 C 1102.6 1.64462 -0.883693 0
M  V30 11369 C 1102.95 1.87324 0.583448 0
M  V30 11370 O 1102.07 1.60975 1.44623 0
M  V30 11371 C 1102.67 2.98765 -1.59764 0
M  V30 11372 C 1101.23 3.4898 -1.41032 0
M  V30 11373 C 1100.37 2.23729 -1.63831 0
M  V30 11374 H 1103.32 0.947415 -1.27317 0
M  V30 11375 H 1103.34 3.65885 -1.04443 0
M  V30 11376 H 1102.86 2.82094 -2.66542 0
M  V30 11377 H 1100.96 3.7081 -0.364781 0
M  V30 11378 H 1101.07 4.27571 -2.16148 0
M  V30 11379 H 1099.43 2.31507 -1.06191 0
M  V30 11380 H 1100.22 2.09597 -2.7189 0
M  V30 11381 N 1102.66 0.908147 1.28804 0
M  V30 11382 C 1103.59 0.409106 2.29888 0
M  V30 11383 C 1104.57 -0.520338 1.61946 0
M  V30 11384 O 1105.76 -0.429268 1.89396 0
M  V30 11385 C 1102.89 -0.35669 3.45463 0
M  V30 11386 C 1101.84 0.4831 4.25265 0
M  V30 11387 C 1101.17 -0.4107 5.3312 0
M  V30 11388 C 1102.47 1.73744 4.92555 0
M  V30 11389 H 1104.16 1.25386 2.7188 0
M  V30 11390 H 1101.71 0.604368 1.30703 0
M  V30 11391 H 1103.66 -0.71661 4.15262 0
M  V30 11392 H 1102.39 -1.2353 3.02337 0
M  V30 11393 H 1101.04 0.825464 3.57186 0
M  V30 11394 H 1100.69 -1.28769 4.86238 0
M  V30 11395 H 1100.39 0.14756 5.87415 0
M  V30 11396 H 1101.92 -0.766626 6.05768 0
M  V30 11397 H 1103.33 1.44676 5.54745 0
M  V30 11398 H 1101.73 2.23767 5.5682 0
M  V30 11399 H 1102.8 2.46853 4.17363 0
M  V30 11400 N 1104.14 -1.42577 0.671525 0
M  V30 11401 C 1105.37 -2.05625 0.20044 0
M  V30 11402 C 1105.78 -1.50524 -1.14626 0
M  V30 11403 O 1105.12 -0.638468 -1.72248 0
M  V30 11404 C 1105.18 -3.59459 0.0545385 0
M  V30 11405 C 1104.85 -4.37236 1.32943 0
M  V30 11406 C 1105.84 -4.68104 2.26219 0
M  V30 11407 C 1103.53 -4.76932 1.57612 0
M  V30 11408 C 1105.52 -5.37599 3.42442 0
M  V30 11409 C 1103.21 -5.46167 2.74125 0
M  V30 11410 C 1104.21 -5.76425 3.66364 0
M  V30 11411 O 1103.9 -6.44242 4.8084 0
M  V30 11412 H 1103.63 -0.66918 0.0957843 0
M  V30 11413 H 1106.18 -1.83759 0.917701 0
M  V30 11414 H 1104.41 -3.79971 -0.718271 0
M  V30 11415 H 1106.1 -4.04152 -0.376251 0
M  V30 11416 H 1106.87 -4.37939 2.08409 0
M  V30 11417 H 1102.75 -4.52776 0.866887 0
M  V30 11418 H 1106.29 -5.61133 4.14458 0
M  V30 11419 H 1102.19 -5.75749 2.91861 0
M  V30 11420 H 1102.96 -6.62732 4.80342 0
M  V30 11421 N 1105.62 -0.414636 -1.52048 0
M  V30 11422 C 1106.87 0.16073 -2.01059 0
M  V30 11423 C 1107.18 1.45753 -1.30443 0
M  V30 11424 O 1108.39 2.11448 -1.703 0
M  V30 11425 C 1106.84 0.336993 -3.58319 0
M  V30 11426 C 1106.45 -0.948037 -4.37854 0
M  V30 11427 C 1108.19 0.867353 -4.15545 0
M  V30 11428 C 1106.1 -0.738662 -5.86769 0
M  V30 11429 H 1105.03 0.0638419 -0.751292 0
M  V30 11430 H 1107.68 -0.540925 -1.75346 0
M  V30 11431 H 1106.06 1.10111 -3.80383 0
M  V30 11432 H 1107.24 -1.71873 -4.27547 0
M  V30 11433 H 1105.55 -1.40522 -3.91972 0
M  V30 11434 H 1108.15 1.04012 -5.24486 0
M  V30 11435 H 1108.49 1.84358 -3.73253 0
M  V30 11436 H 1109.03 0.162148 -3.97469 0
M  V30 11437 H 1105.77 -1.6866 -6.3343 0
M  V30 11438 H 1105.29 -0.00736294 -5.998 0
M  V30 11439 H 1106.96 -0.382978 -6.45866 0
M  V30 11440 N 1107.1 1.56929 -0.145233 0
M  V30 11441 C 1108.05 2.13246 0.806846 0
M  V30 11442 C 1109.03 1.05984 1.21063 0
M  V30 11443 O 1110.22 1.32165 1.17734 0
M  V30 11444 C 1107.35 2.75622 2.04663 0
M  V30 11445 C 1106.44 3.90006 1.66603 0
M  V30 11446 N 1106.83 4.95946 0.993545 0
M  V30 11447 C 1105.13 4.0068 1.95886 0
M  V30 11448 C 1105.83 5.76032 0.810087 0
M  V30 11449 N 1104.8 5.26739 1.34339 0
M  V30 11450 H 1108.61 2.92527 0.283806 0
M  V30 11451 H 1106.12 1.62302 0.0563676 0
M  V30 11452 H 1108.12 3.14329 2.73867 0
M  V30 11453 H 1106.78 1.97815 2.57487 0
M  V30 11454 H 1107.79 5.13748 0.654508 0
M  V30 11455 H 1104.46 3.33946 2.50572 0
M  V30 11456 H 1105.85 6.71315 0.280209 0
M  V30 11457 N 1108.58 -0.128553 1.57075 0
M  V30 11458 C 1109.99 -0.686713 1.73612 0
M  V30 11459 C 1110.34 -1.80778 0.762478 0
M  V30 11460 O 1109.46 -2.16297 -0.0667779 0
M  V30 11461 C 1110.06 -1.25246 3.148 0
M  V30 11462 C 1108.62 -1.757 3.32876 0
M  V30 11463 C 1107.76 -0.652844 2.69506 0
M  V30 11464 H 1110.71 0.0972859 1.58402 0
M  V30 11465 H 1110.74 -2.1222 3.15821 0
M  V30 11466 H 1110.25 -0.436308 3.8564 0
M  V30 11467 H 1108.35 -2.59824 2.67063 0
M  V30 11468 H 1108.46 -1.87302 4.4097 0
M  V30 11469 H 1106.83 -1.08408 2.30477 0
M  V30 11470 H 1107.61 0.15217 3.42963 0
M  V30 11471 N 1110.05 -1.5248 -0.398459 0
M  V30 11472 C 1110.99 -1.72826 -1.50545 0
M  V30 11473 C 1112 -0.608683 -1.50993 0
M  V30 11474 O 1113.19 -0.88413 -1.55066 0
M  V30 11475 C 1110.29 -1.76327 -2.89417 0
M  V30 11476 C 1109.46 -3.05491 -3.1304 0
M  V30 11477 C 1108.52 -3.00663 -4.31843 0
M  V30 11478 O 1107.55 -3.74548 -4.28605 0
M  V30 11479 N 1108.75 -2.19191 -5.37527 0
M  V30 11480 H 1111.51 -2.68333 -1.33482 0
M  V30 11481 H 1109.07 -1.5085 -0.587875 0
M  V30 11482 H 1111.07 -1.70616 -3.66977 0
M  V30 11483 H 1109.64 -0.882476 -2.99885 0
M  V30 11484 H 1108.86 -3.24767 -2.23428 0
M  V30 11485 H 1110.14 -3.90915 -3.25673 0
M  V30 11486 H 1109.54 -1.58613 -5.43009 0
M  V30 11487 H 1108.1 -2.19328 -6.1379 0
M  V30 11488 N 1111.53 0.65634 -1.43283 0
M  V30 11489 C 1112.76 1.44906 -1.48382 0
M  V30 11490 C 1113.18 1.87823 -0.101993 0
M  V30 11491 O 1112.54 1.57178 0.903597 0
M  V30 11492 C 1112.59 2.66231 -2.43215 0
M  V30 11493 O 1111.69 3.65176 -1.91625 0
M  V30 11494 H 1111.03 0.434601 -0.502014 0
M  V30 11495 H 1113.56 0.803429 -1.88165 0
M  V30 11496 H 1113.57 3.14083 -2.60414 0
M  V30 11497 H 1112.25 2.34336 -3.43598 0
M  V30 11498 H 1110.82 3.24302 -1.84072 0
M  V30 11499 N 1113.01 1.29761 0.894412 0
M  V30 11500 C 1113.94 1.17902 2.01547 0
M  V30 11501 C 1114.92 0.0719402 1.69948 0
M  V30 11502 O 1116.11 0.252338 1.92554 0
M  V30 11503 C 1113.24 0.860262 3.36477 0
M  V30 11504 C 1112.19 1.92424 3.82305 0
M  V30 11505 C 1111.52 1.45868 5.14419 0
M  V30 11506 C 1112.82 3.33391 4.02054 0
M  V30 11507 H 1114.51 2.11688 2.11727 0
M  V30 11508 H 1112.06 1.01916 1.01731 0
M  V30 11509 H 1114.01 0.763987 4.14417 0
M  V30 11510 H 1112.73 -0.113289 3.26403 0
M  V30 11511 H 1111.39 2.00999 3.06586 0
M  V30 11512 H 1111.04 0.473654 5.00765 0
M  V30 11513 H 1110.74 2.17028 5.46052 0
M  V30 11514 H 1112.26 1.37601 5.94894 0
M  V30 11515 H 1113.68 3.27628 4.7046 0
M  V30 11516 H 1112.07 4.02555 4.4505 0
M  V30 11517 H 1113.14 3.75978 3.06216 0
M  V30 11518 N 1114.49 -1.10549 1.12324 0
M  V30 11519 C 1115.71 -1.8681 0.900927 0
M  V30 11520 C 1116.14 -1.80049 -0.54443 0
M  V30 11521 O 1115.5 -1.16957 -1.38531 0
M  V30 11522 C 1115.54 -3.33197 1.37883 0
M  V30 11523 O 1114.65 -4.08628 0.556529 0
M  V30 11524 H 1113.99 -0.579709 0.32378 0
M  V30 11525 H 1116.52 -1.39678 1.49503 0
M  V30 11526 H 1116.53 -3.84047 1.37739 0
M  V30 11527 H 1115.2 -3.37435 2.43127 0
M  V30 11528 H 1113.78 -3.67627 0.62486 0
M  V30 11529 N 1115.97 -0.914965 -1.28321 0
M  V30 11530 C 1117.21 -0.549562 -1.95212 0
M  V30 11531 C 1117.54 0.904658 -1.71842 0
M  V30 11532 O 1116.82 1.64354 -1.04009 0
M  V30 11533 C 1117.1 -0.860927 -3.49657 0
M  V30 11534 C 1116.96 -2.36797 -3.82423 0
M  V30 11535 C 1118.27 -0.357926 -4.38642 0
M  V30 11536 H 1115.39 -0.201136 -0.709023 0
M  V30 11537 H 1118.04 -1.14443 -1.51667 0
M  V30 11538 H 1116.19 -0.354665 -3.86878 0
M  V30 11539 H 1117.86 -2.94494 -3.55065 0
M  V30 11540 H 1116.1 -2.82245 -3.29424 0
M  V30 11541 H 1116.77 -2.53637 -4.90278 0
M  V30 11542 H 1119.25 -0.791636 -4.085 0
M  V30 11543 H 1118.12 -0.604855 -5.45557 0
M  V30 11544 H 1118.38 0.741775 -4.35833 0
M  V30 11545 N 1117.44 1.42219 -0.679077 0
M  V30 11546 C 1118.37 2.33493 -0.0174528 0
M  V30 11547 C 1119.35 1.50915 0.78477 0
M  V30 11548 O 1120.54 1.79504 0.741065 0
M  V30 11549 C 1117.67 3.34576 0.931463 0
M  V30 11550 C 1116.62 4.2734 0.237527 0
M  V30 11551 C 1115.95 5.18664 1.29967 0
M  V30 11552 C 1117.25 5.14729 -0.886082 0
M  V30 11553 H 1118.94 2.89068 -0.779748 0
M  V30 11554 H 1116.49 1.38993 -0.376419 0
M  V30 11555 H 1118.44 3.97343 1.40343 0
M  V30 11556 H 1117.17 2.77315 1.72523 0
M  V30 11557 H 1115.83 3.65973 -0.214245 0
M  V30 11558 H 1115.47 4.57727 2.08554 0
M  V30 11559 H 1115.17 5.81558 0.840463 0
M  V30 11560 H 1116.7 5.84308 1.77249 0
M  V30 11561 H 1118.11 5.71158 -0.495141 0
M  V30 11562 H 1116.51 5.86478 -1.27135 0
M  V30 11563 H 1117.58 4.52874 -1.733 0
M  V30 11564 N 1118.92 0.422693 1.51826 0
M  V30 11565 C 1120.15 -0.15017 2.06856 0
M  V30 11566 C 1120.57 -1.36946 1.28948 0
M  V30 11567 O 1119.93 -1.78393 0.32338 0
M  V30 11568 C 1119.98 -0.465563 3.57582 0
M  V30 11569 O 1119.08 -1.55442 3.81984 0
M  V30 11570 H 1118.42 -0.00827931 0.663948 0
M  V30 11571 H 1120.95 0.599806 1.95611 0
M  V30 11572 H 1120.96 -0.720279 4.01592 0
M  V30 11573 H 1119.64 0.425679 4.13716 0
M  V30 11574 H 1118.21 -1.29081 3.49846 0
M  V30 11575 N 1120.4 -1.5685 0.153553 0
M  V30 11576 C 1121.82 -1.58306 -0.202801 0
M  V30 11577 C 1122.02 -1.16813 -1.64186 0
M  V30 11578 O 1121.07 -0.871468 -2.36985 0
M  V30 11579 C 1122.38 -3.00636 0.0619012 0
M  V30 11580 C 1123.93 -3.13 -0.00129219 0
M  V30 11581 C 1124.41 -4.57391 0.236164 0
M  V30 11582 N 1125.9 -4.62837 0.18332 0
M  V30 11583 C 1126.63 -5.72382 0.341471 0
M  V30 11584 N 1126.13 -6.90552 0.557704 0
M  V30 11585 N 1127.92 -5.61409 0.278615 0
M  V30 11586 H 1120.07 -1.82113 1.09309 0
M  V30 11587 H 1122.34 -0.843228 0.433209 0
M  V30 11588 H 1122.04 -3.35406 1.0581 0
M  V30 11589 H 1121.92 -3.71477 -0.654555 0
M  V30 11590 H 1124.3 -2.78068 -0.98805 0
M  V30 11591 H 1124.38 -2.44632 0.747596 0
M  V30 11592 H 1124.03 -4.93029 1.22005 0
M  V30 11593 H 1123.96 -5.23894 -0.533125 0
M  V30 11594 H 1126.45 -3.77894 0.0211138 0
M  V30 11595 H 1126.76 -7.69905 0.66831 0
M  V30 11596 H 1125.11 -6.92456 0.594105 0
M  V30 11597 H 1128.3 -4.6797 0.110401 0
M  V30 11598 H 1128.47 -6.46731 0.4053 0
M  V30 11599 N 1121.88 0.120221 -1.57141 0
M  V30 11600 C 1122.81 1.14876 -2.03287 0
M  V30 11601 C 1123.79 1.43259 -0.917112 0
M  V30 11602 O 1124.97 1.53721 -1.18674 0
M  V30 11603 C 1122.1 2.47525 -2.43616 0
M  V30 11604 C 1121.06 2.33607 -3.58625 0
M  V30 11605 C 1120.38 3.71207 -3.84849 0
M  V30 11606 C 1121.68 1.79761 -4.90391 0
M  V30 11607 H 1123.38 0.764943 -2.89463 0
M  V30 11608 H 1120.92 0.366516 -1.39258 0
M  V30 11609 H 1122.88 3.19728 -2.74504 0
M  V30 11610 H 1121.6 2.87794 -1.54409 0
M  V30 11611 H 1120.26 1.63853 -3.27945 0
M  V30 11612 H 1119.91 4.0896 -2.9285 0
M  V30 11613 H 1119.61 3.62749 -4.62263 0
M  V30 11614 H 1121.13 4.44917 -4.18188 0
M  V30 11615 H 1122.55 2.4178 -5.19822 0
M  V30 11616 H 1120.94 1.82126 -5.71795 0
M  V30 11617 H 1122.01 0.755087 -4.78985 0
M  V30 11618 N 1123.36 1.52689 0.390367 0
M  V30 11619 C 1124.29 1.80338 1.48325 0
M  V30 11620 C 1125.27 0.655338 1.56969 0
M  V30 11621 O 1126.45 0.902792 1.7194 0
M  V30 11622 C 1123.58 1.97101 2.85952 0
M  V30 11623 C 1122.54 3.12783 2.92148 0
M  V30 11624 C 1121.86 3.14798 4.32211 0
M  V30 11625 C 1123.16 4.5188 2.61919 0
M  V30 11626 H 1124.86 2.71857 1.25437 0
M  V30 11627 H 1122.4 1.30813 0.601995 0
M  V30 11628 H 1124.36 2.15027 3.62411 0
M  V30 11629 H 1123.08 1.02271 3.10174 0
M  V30 11630 H 1121.74 2.94638 2.18137 0
M  V30 11631 H 1121.39 2.17653 4.53471 0
M  V30 11632 H 1121.09 3.92507 4.37278 0
M  V30 11633 H 1122.61 3.34877 5.10578 0
M  V30 11634 H 1124.02 4.70134 3.28096 0
M  V30 11635 H 1122.42 5.31647 2.78337 0
M  V30 11636 H 1123.49 4.58689 1.57266 0
M  V30 11637 N 1124.83 -0.648732 1.43629 0
M  V30 11638 C 1125.76 -1.77298 1.51947 0
M  V30 11639 C 1126.75 -1.65942 0.373785 0
M  V30 11640 O 1127.93 -1.8497 0.591596 0
M  V30 11641 C 1125.06 -3.15749 1.44638 0
M  V30 11642 C 1124.01 -3.41872 2.57502 0
M  V30 11643 C 1123.34 -4.8017 2.35246 0
M  V30 11644 C 1124.64 -3.36173 3.99731 0
M  V30 11645 H 1126.33 -1.70594 2.46045 0
M  V30 11646 H 1123.88 -0.819306 1.1842 0
M  V30 11647 H 1125.83 -3.94156 1.4906 0
M  V30 11648 H 1124.56 -3.23194 0.470466 0
M  V30 11649 H 1123.22 -2.65838 2.5244 0
M  V30 11650 H 1122.86 -4.84297 1.35887 0
M  V30 11651 H 1122.56 -4.9861 3.10906 0
M  V30 11652 H 1124.09 -5.6083 2.41459 0
M  V30 11653 H 1125.5 -4.0451 4.06257 0
M  V30 11654 H 1123.9 -3.66148 4.75453 0
M  V30 11655 H 1124.97 -2.34277 4.24549 0
M  V30 11656 N 1126.31 -1.30234 -0.887518 0
M  V30 11657 C 1127.56 -1.18277 -1.63381 0
M  V30 11658 C 1127.87 0.262079 -1.93836 0
M  V30 11659 O 1129.08 0.503127 -2.66797 0
M  V30 11660 C 1127.54 -2.06944 -2.94452 0
M  V30 11661 C 1127.14 -3.56323 -2.71547 0
M  V30 11662 C 1128.89 -2.03743 -3.7241 0
M  V30 11663 C 1126.8 -4.37054 -3.98419 0
M  V30 11664 H 1125.73 -0.439087 -0.612959 0
M  V30 11665 H 1128.38 -1.54964 -0.982779 0
M  V30 11666 H 1126.76 -1.63138 -3.60835 0
M  V30 11667 H 1127.93 -4.08261 -2.13681 0
M  V30 11668 H 1126.25 -3.61321 -2.06969 0
M  V30 11669 H 1128.84 -2.61312 -4.66497 0
M  V30 11670 H 1129.19 -1.02029 -4.03603 0
M  V30 11671 H 1129.72 -2.45657 -3.12886 0
M  V30 11672 H 1126.46 -5.39453 -3.72385 0
M  V30 11673 H 1125.98 -3.89881 -4.55799 0
M  V30 11674 H 1127.66 -4.48356 -4.66462 0
M  V30 11675 N 1127.79 1.09952 -1.12909 0
M  V30 11676 C 1129.04 1.82467 -0.898733 0
M  V30 11677 C 1129.39 1.83788 0.569196 0
M  V30 11678 O 1128.68 1.29117 1.4156 0
M  V30 11679 C 1128.88 3.28252 -1.41369 0
M  V30 11680 C 1128.71 3.41133 -2.93015 0
M  V30 11681 C 1127.48 3.53253 -3.61304 0
M  V30 11682 C 1129.68 3.34118 -3.90986 0
M  V30 11683 N 1127.66 3.54762 -5.01016 0
M  V30 11684 C 1129.03 3.42431 -5.16857 0
M  V30 11685 C 1131.08 3.1775 -3.83327 0
M  V30 11686 C 1129.79 3.36063 -6.35967 0
M  V30 11687 C 1131.81 3.12705 -5.01966 0
M  V30 11688 C 1131.17 3.21605 -6.26697 0
M  V30 11689 H 1127.27 0.682232 -0.382208 0
M  V30 11690 H 1129.86 1.31446 -1.43631 0
M  V30 11691 H 1128.03 3.77755 -0.903097 0
M  V30 11692 H 1129.76 3.88752 -1.12489 0
M  V30 11693 H 1126.52 3.56472 -3.11809 0
M  V30 11694 H 1126.94 3.59115 -5.73904 0
M  V30 11695 H 1131.58 3.09742 -2.87784 0
M  V30 11696 H 1129.3 3.42835 -7.31772 0
M  V30 11697 H 1132.89 3.01183 -4.97775 0
M  V30 11698 H 1131.77 3.1771 -7.16959 0
M  V30 11699 N 1129.27 0.921757 1.27833 0
M  V30 11700 C 1130.2 0.373575 2.26135 0
M  V30 11701 C 1131.21 -0.492414 1.55174 0
M  V30 11702 O 1132.4 -0.305998 1.75858 0
M  V30 11703 C 1129.5 -0.483911 3.35427 0
M  V30 11704 C 1128.68 0.361411 4.35904 0
M  V30 11705 C 1127.73 -0.432461 5.2442 0
M  V30 11706 O 1126.76 0.15777 5.68981 0
M  V30 11707 N 1127.96 -1.73367 5.54007 0
M  V30 11708 H 1130.73 1.21856 2.73809 0
M  V30 11709 H 1128.29 0.788552 1.41398 0
M  V30 11710 H 1130.28 -1.02193 3.91585 0
M  V30 11711 H 1128.85 -1.22963 2.874 0
M  V30 11712 H 1128.07 1.08076 3.79095 0
M  V30 11713 H 1129.36 0.939528 5.0005 0
M  V30 11714 H 1128.76 -2.23561 5.19651 0
M  V30 11715 H 1127.31 -2.21834 6.12889 0
M  V30 11716 N 1130.75 -1.41857 0.686609 0
M  V30 11717 C 1131.7 -2.27999 -0.00734666 0
M  V30 11718 C 1132.68 -1.41723 -0.761808 0
M  V30 11719 O 1133.87 -1.65072 -0.638776 0
M  V30 11720 C 1131 -3.29909 -0.949462 0
M  V30 11721 C 1130.09 -4.23666 -0.191722 0
M  V30 11722 N 1130.48 -4.99277 0.809715 0
M  V30 11723 C 1128.78 -4.43937 -0.428489 0
M  V30 11724 C 1129.48 -5.67834 1.2625 0
M  V30 11725 N 1128.45 -5.40387 0.590151 0
M  V30 11726 H 1132.26 -2.83887 0.760608 0
M  V30 11727 H 1129.77 -1.53962 0.516676 0
M  V30 11728 H 1131.77 -3.90436 -1.46169 0
M  V30 11729 H 1130.43 -2.75582 -1.71711 0
M  V30 11730 H 1131.44 -5.04051 1.18966 0
M  V30 11731 H 1128.11 -4.00633 -1.17472 0
M  V30 11732 H 1129.5 -6.38469 2.09301 0
M  V30 11733 N 1132.22 -0.430739 -1.51599 0
M  V30 11734 C 1133.17 0.384024 -2.27583 0
M  V30 11735 C 1134.14 1.02254 -1.30895 0
M  V30 11736 O 1135.33 1.0427 -1.59789 0
M  V30 11737 C 1132.47 1.48291 -3.11615 0
M  V30 11738 C 1131.58 0.863187 -4.23288 0
M  V30 11739 C 1130.71 1.93657 -4.94642 0
M  V30 11740 C 1129.75 1.29493 -5.98246 0
M  V30 11741 N 1128.89 2.30939 -6.63032 0
M  V30 11742 H 1133.73 -0.270314 -2.96771 0
M  V30 11743 H 1131.27 -0.145148 -1.46382 0
M  V30 11744 H 1133.23 2.13124 -3.58656 0
M  V30 11745 H 1131.86 2.10697 -2.44554 0
M  V30 11746 H 1130.91 0.103326 -3.8026 0
M  V30 11747 H 1132.22 0.354676 -4.97537 0
M  V30 11748 H 1131.37 2.66167 -5.45197 0
M  V30 11749 H 1130.11 2.4788 -4.20008 0
M  V30 11750 H 1129.12 0.555262 -5.46989 0
M  V30 11751 H 1130.34 0.760122 -6.74833 0
M  V30 11752 H 1128.29 2.84254 -5.91216 0
M  V30 11753 H 1128.21 1.84961 -7.33025 0
M  V30 11754 H 1129.47 3.02953 -7.1822 0
M  V30 11755 N 1133.7 1.56767 -0.161869 0
M  V30 11756 C 1134.67 2.16299 0.758104 0
M  V30 11757 C 1135.67 1.10859 1.16478 0
M  V30 11758 O 1136.86 1.36422 1.08327 0
M  V30 11759 C 1133.99 2.73819 2.03067 0
M  V30 11760 H 1135.18 2.98938 0.239992 0
M  V30 11761 H 1132.73 1.56054 0.0876532 0
M  V30 11762 H 1133.47 1.94887 2.59209 0
M  V30 11763 H 1133.25 3.50974 1.74813 0
M  V30 11764 H 1134.74 3.19638 2.68741 0
M  V30 11765 N 1135.18 -0.111886 1.57202 0
M  V30 11766 C 1136.41 -0.836317 1.89791 0
M  V30 11767 C 1136.83 -1.72304 0.754513 0
M  V30 11768 O 1136.19 -1.78889 -0.294672 0
M  V30 11769 C 1136.24 -1.63971 3.21164 0
M  V30 11770 O 1135.34 -2.74726 3.0757 0
M  V30 11771 H 1134.68 -0.230833 0.622585 0
M  V30 11772 H 1137.21 -0.0921478 2.04392 0
M  V30 11773 H 1137.22 -2.02746 3.54059 0
M  V30 11774 H 1135.9 -0.98882 4.03974 0
M  V30 11775 H 1134.47 -2.39101 2.86156 0
M  V30 11776 N 1136.66 -1.52894 -0.382264 0
M  V30 11777 C 1137.62 -1.77497 -1.45008 0
M  V30 11778 C 1138.62 -0.64509 -1.47293 0
M  V30 11779 O 1139.81 -0.913192 -1.48346 0
M  V30 11780 C 1136.94 -1.88188 -2.8425 0
M  V30 11781 H 1138.14 -2.72849 -1.24473 0
M  V30 11782 H 1135.69 -1.43717 -0.61441 0
M  V30 11783 H 1136.42 -0.948451 -3.10121 0
M  V30 11784 H 1136.21 -2.70353 -2.83992 0
M  V30 11785 H 1137.7 -2.08873 -3.6161 0
M  V30 11786 N 1138.14 0.641106 -1.43971 0
M  V30 11787 C 1139.07 1.76645 -1.46046 0
M  V30 11788 C 1140.08 1.58881 -0.355049 0
M  V30 11789 O 1141.27 1.67379 -0.620207 0
M  V30 11790 C 1138.37 3.14237 -1.26918 0
M  V30 11791 C 1137.54 3.5855 -2.50521 0
M  V30 11792 C 1136.6 4.74986 -2.26438 0
M  V30 11793 O 1135.63 4.83807 -2.99866 0
M  V30 11794 N 1136.83 5.66016 -1.28866 0
M  V30 11795 H 1139.6 1.75339 -2.43056 0
M  V30 11796 H 1137.16 0.82535 -1.39282 0
M  V30 11797 H 1139.15 3.89837 -1.0867 0
M  V30 11798 H 1137.72 3.10244 -0.383082 0
M  V30 11799 H 1136.94 2.73265 -2.84112 0
M  V30 11800 H 1138.23 3.84906 -3.32754 0
M  V30 11801 H 1137.63 5.61574 -0.682018 0
M  V30 11802 H 1136.18 6.41286 -1.16599 0
M  V30 11803 N 1139.62 1.30703 0.880598 0
M  V30 11804 C 1140.86 1.19541 1.62955 0
M  V30 11805 C 1141.18 -0.249089 1.93403 0
M  V30 11806 O 1140.45 -1.1669 1.57354 0
M  V30 11807 H 1139.03 0.439434 0.604075 0
M  V30 11808 H 1141.7 1.63888 1.05483 0
M  V30 11809 H 1140.79 1.75945 2.57779 0
M  V30 11810 N 1141.09 -1.09351 1.1349 0
M  V30 11811 C 1142.37 -1.78121 0.808225 0
M  V30 11812 C 1142.75 -1.99154 -0.700072 0
M  V30 11813 O 1142.1 -1.59356 -1.63762 0
M  V30 11814 C 1142.31 -3.10368 1.59601 0
M  V30 11815 C 1143.66 -3.85063 1.78919 0
M  V30 11816 O 1144.68 -3.20122 1.56206 0
M  V30 11817 O 1143.54 -5.01648 2.16821 0
M  V30 11818 H 1140.63 -0.77253 0.295173 0
M  V30 11819 H 1143.18 -1.15901 1.23956 0
M  V30 11820 H 1141.95 -2.90549 2.62101 0
M  V30 11821 H 1141.57 -3.80312 1.15967 0
M  V30 11822 N 1142.57 -0.928524 -1.27343 0
M  V30 11823 C 1143.98 -0.613856 -1.7632 0
M  V30 11824 C 1144.33 0.870983 -1.75808 0
M  V30 11825 O 1143.46 1.68155 -1.36209 0
M  V30 11826 C 1144.05 -1.10755 -3.20186 0
M  V30 11827 C 1142.61 -0.843532 -3.66826 0
M  V30 11828 C 1141.76 -1.26579 -2.46724 0
M  V30 11829 H 1144.71 -1.10821 -1.13598 0
M  V30 11830 H 1144.73 -0.455598 -3.77763 0
M  V30 11831 H 1144.24 -2.18825 -3.20526 0
M  V30 11832 H 1142.34 0.223334 -3.7193 0
M  V30 11833 H 1142.46 -1.46165 -4.56259 0
M  V30 11834 H 1140.82 -0.684334 -2.45334 0
M  V30 11835 H 1141.6 -2.35516 -2.49774 0
M  V30 11836 N 1144.05 1.41491 -0.694123 0
M  V30 11837 C 1145.33 1.95004 -0.152571 0
M  V30 11838 C 1145.71 1.63357 1.33707 0
M  V30 11839 O 1145.05 0.939815 2.08278 0
M  V30 11840 C 1145.26 3.46186 -0.44232 0
M  V30 11841 C 1146.61 4.22991 -0.369279 0
M  V30 11842 O 1147.64 3.54198 -0.377152 0
M  V30 11843 O 1146.5 5.45514 -0.328145 0
M  V30 11844 H 1143.59 0.826879 -0.0141253 0
M  V30 11845 H 1146.14 1.51216 -0.770183 0
M  V30 11846 H 1144.91 3.62497 -1.47348 0
M  V30 11847 H 1144.53 3.97064 0.206337 0
M  V30 11848 N 1145.53 0.438773 1.51369 0
M  V30 11849 C 1146.77 -0.127401 2.02399 0
M  V30 11850 C 1147.11 -1.42235 1.32223 0
M  V30 11851 O 1146.38 -1.89513 0.437607 0
M  V30 11852 C 1146.66 -0.344673 3.58447 0
M  V30 11853 C 1146.52 0.969027 4.39238 0
M  V30 11854 C 1147.84 -1.11381 4.25773 0
M  V30 11855 H 1144.96 -0.0448281 0.735635 0
M  V30 11856 H 1147.6 0.57805 1.80993 0
M  V30 11857 H 1145.75 -0.945582 3.76817 0
M  V30 11858 H 1147.42 1.60403 4.32514 0
M  V30 11859 H 1145.66 1.57329 4.04265 0
M  V30 11860 H 1146.33 0.771029 5.46589 0
M  V30 11861 H 1148.81 -0.604785 4.11681 0
M  V30 11862 H 1147.69 -1.23459 5.34835 0
M  V30 11863 H 1147.95 -2.14225 3.8673 0
M  V30 11864 N 1147.01 -1.56678 0.170181 0
M  V30 11865 C 1148.42 -1.83452 -0.346742 0
M  V30 11866 C 1148.77 -1.08993 -1.63141 0
M  V30 11867 O 1147.89 -0.342607 -2.13671 0
M  V30 11868 C 1148.49 -3.32779 -0.635882 0
M  V30 11869 C 1147.05 -3.60052 -1.09725 0
M  V30 11870 C 1146.19 -2.76983 -0.132516 0
M  V30 11871 H 1149.14 -1.53719 0.394465 0
M  V30 11872 H 1149.17 -3.50195 -1.48806 0
M  V30 11873 H 1148.68 -3.86944 0.299291 0
M  V30 11874 H 1146.78 -3.11297 -2.04756 0
M  V30 11875 H 1146.89 -4.68393 -1.00719 0
M  V30 11876 H 1145.26 -2.46794 -0.62966 0
M  V30 11877 H 1146.04 -3.33929 0.796658 0
M  V30 11878 N 1148.48 0.103547 -1.57259 0
M  V30 11879 C 1149.39 1.14475 -2.04774 0
M  V30 11880 C 1150.41 1.44385 -0.971025 0
M  V30 11881 O 1151.59 1.55195 -1.28361 0
M  V30 11882 C 1148.65 2.4475 -2.45558 0
M  V30 11883 C 1147.71 2.22098 -3.67384 0
M  V30 11884 C 1146.94 3.4616 -4.06213 0
M  V30 11885 O 1147.17 4.5407 -3.45219 0
M  V30 11886 O 1146.1 3.36248 -4.9922 0
M  V30 11887 H 1149.93 0.771211 -2.93745 0
M  V30 11888 H 1147.51 0.315456 -1.46032 0
M  V30 11889 H 1149.39 3.21476 -2.72454 0
M  V30 11890 H 1148.07 2.81547 -1.59728 0
M  V30 11891 H 1146.98 1.43179 -3.45616 0
M  V30 11892 H 1148.31 1.90197 -4.53967 0
M  V30 11893 N 1149.96 1.53094 0.37415 0
M  V30 11894 C 1151.2 1.70558 1.12647 0
M  V30 11895 C 1151.57 0.443515 1.86807 0
M  V30 11896 O 1152.77 0.49472 2.64208 0
M  V30 11897 C 1151.04 2.91565 2.06699 0
M  V30 11898 S 1152.6 3.29692 2.89567 0
M  V30 11899 H 1149.41 0.600238 0.381097 0
M  V30 11900 H 1152.02 1.91177 0.408865 0
M  V30 11901 H 1150.72 3.81625 1.50965 0
M  V30 11902 H 1150.25 2.73323 2.82945 0
M  V30 11903 H 1152.27 2.81036 4.08942 0
M  V30 11904 N 1151.44 -0.633461 1.44309 0
M  V30 11905 C 1152.37 -1.75676 1.53819 0
M  V30 11906 C 1153.35 -1.65537 0.391365 0
M  V30 11907 O 1154.54 -1.84332 0.611181 0
M  V30 11908 C 1151.67 -3.14197 1.47979 0
M  V30 11909 C 1150.62 -3.39122 2.61113 0
M  V30 11910 C 1149.95 -4.77648 2.40325 0
M  V30 11911 C 1151.25 -3.31914 4.03274 0
M  V30 11912 H 1152.94 -1.67974 2.47841 0
M  V30 11913 H 1150.49 -0.8067 1.19283 0
M  V30 11914 H 1152.44 -3.92553 1.53233 0
M  V30 11915 H 1151.16 -3.22677 0.504718 0
M  V30 11916 H 1149.82 -2.63145 2.55245 0
M  V30 11917 H 1149.47 -4.82829 1.41016 0
M  V30 11918 H 1149.17 -4.95284 3.16177 0
M  V30 11919 H 1150.69 -5.58237 2.47394 0
M  V30 11920 H 1152.11 -4.00178 4.10524 0
M  V30 11921 H 1150.5 -3.61085 4.7931 0
M  V30 11922 H 1151.57 -2.29761 4.2701 0
M  V30 11923 N 1152.92 -1.31168 -0.873655 0
M  V30 11924 C 1153.87 -1.18507 -1.98052 0
M  V30 11925 C 1154.84 -0.0717583 -1.65945 0
M  V30 11926 O 1156.02 -0.243965 -1.89234 0
M  V30 11927 C 1153.16 -0.894571 -3.33304 0
M  V30 11928 C 1152.27 -2.09086 -3.7803 0
M  V30 11929 C 1151.41 -1.73747 -5.01982 0
M  V30 11930 C 1150.45 -2.89805 -5.39147 0
M  V30 11931 N 1149.58 -2.54686 -6.54278 0
M  V30 11932 H 1154.42 -2.13193 -2.08213 0
M  V30 11933 H 1151.96 -1.06056 -1.01934 0
M  V30 11934 H 1153.92 -0.706714 -4.11171 0
M  V30 11935 H 1152.55 0.0154449 -3.22796 0
M  V30 11936 H 1151.6 -2.38961 -2.95976 0
M  V30 11937 H 1152.91 -2.95963 -4.01506 0
M  V30 11938 H 1152.07 -1.51402 -5.87505 0
M  V30 11939 H 1150.81 -0.840553 -4.80402 0
M  V30 11940 H 1149.81 -3.12803 -4.52144 0
M  V30 11941 H 1151.04 -3.802 -5.62694 0
M  V30 11942 H 1148.98 -1.67513 -6.34252 0
M  V30 11943 H 1148.9 -3.35093 -6.77679 0
M  V30 11944 H 1150.17 -2.35725 -7.43003 0
M  V30 11945 N 1154.4 1.08748 -1.14068 0
M  V30 11946 C 1155.64 1.81333 -0.908081 0
M  V30 11947 C 1155.98 1.85826 0.564112 0
M  V30 11948 O 1155.25 1.33157 1.41773 0
M  V30 11949 C 1155.53 3.27127 -1.50531 0
M  V30 11950 C 1155.39 3.30865 -3.04711 0
M  V30 11951 C 1156.71 4.24006 -1.17928 0
M  V30 11952 H 1153.82 0.658326 -0.331325 0
M  V30 11953 H 1156.47 1.27345 -1.41008 0
M  V30 11954 H 1154.62 3.73233 -1.07839 0
M  V30 11955 H 1156.29 2.93109 -3.56209 0
M  V30 11956 H 1154.53 2.70241 -3.39341 0
M  V30 11957 H 1155.2 4.33603 -3.41603 0
M  V30 11958 H 1157.68 3.86221 -1.54831 0
M  V30 11959 H 1156.55 5.2434 -1.62353 0
M  V30 11960 H 1156.82 4.42 -0.0940349 0
M  V30 11961 N 1155.87 0.935264 1.26849 0
M  V30 11962 C 1157.12 0.590057 1.94653 0
M  V30 11963 C 1157.48 -0.860481 1.72086 0
M  V30 11964 O 1156.77 -1.60672 1.04379 0
M  V30 11965 C 1156.96 0.861098 3.46872 0
M  V30 11966 C 1156.79 2.33643 3.84241 0
M  V30 11967 C 1155.56 2.99052 4.07303 0
M  V30 11968 C 1157.76 3.3145 3.9325 0
M  V30 11969 N 1155.74 4.36659 4.31511 0
M  V30 11970 C 1157.11 4.54294 4.21921 0
M  V30 11971 C 1159.17 3.26555 3.75854 0
M  V30 11972 C 1157.87 5.72854 4.35006 0
M  V30 11973 C 1159.9 4.44435 3.90168 0
M  V30 11974 C 1159.26 5.66059 4.19233 0
M  V30 11975 H 1155.36 0.266182 0.735303 0
M  V30 11976 H 1157.94 1.20345 1.53053 0
M  V30 11977 H 1156.11 0.276803 3.87412 0
M  V30 11978 H 1157.84 0.477757 4.0187 0
M  V30 11979 H 1154.6 2.49692 4.02431 0
M  V30 11980 H 1155.02 5.07869 4.47658 0
M  V30 11981 H 1159.67 2.33585 3.52417 0
M  V30 11982 H 1157.38 6.66283 4.57266 0
M  V30 11983 H 1160.97 4.42174 3.78119 0
M  V30 11984 H 1159.85 6.55753 4.30068 0
M  V30 11985 N 1157.35 -1.41121 0.701616 0
M  V30 11986 C 1158.63 -1.9492 0.162911 0
M  V30 11987 C 1159.01 -1.64064 -1.32839 0
M  V30 11988 O 1158.36 -0.950848 -2.07777 0
M  V30 11989 C 1158.57 -3.45946 0.460673 0
M  V30 11990 C 1159.92 -4.22789 0.391706 0
M  V30 11991 O 1160.94 -3.53993 0.395931 0
M  V30 11992 O 1159.8 -5.45332 0.357071 0
M  V30 11993 H 1156.89 -0.826793 0.0185103 0
M  V30 11994 H 1159.44 -1.50805 0.778192 0
M  V30 11995 H 1158.21 -3.61711 1.49269 0
M  V30 11996 H 1157.83 -3.97168 -0.185277 0
M  V30 11997 N 1158.83 -0.446794 -1.51134 0
M  V30 11998 C 1160.25 -0.0995905 -1.59289 0
M  V30 11999 C 1160.45 1.39191 -1.45699 0
M  V30 12000 O 1159.5 2.1628 -1.30303 0
M  V30 12001 C 1160.82 -0.628135 -2.94066 0
M  V30 12002 C 1162.36 -0.589409 -3.074 0
M  V30 12003 C 1162.84 -1.09509 -4.44715 0
M  V30 12004 N 1164.33 -1.05347 -4.51061 0
M  V30 12005 C 1165.06 -1.41551 -5.55654 0
M  V30 12006 N 1164.56 -1.85086 -6.67619 0
M  V30 12007 N 1166.35 -1.33307 -5.46064 0
M  V30 12008 H 1158.5 -1.41713 -1.58213 0
M  V30 12009 H 1160.77 -0.584555 -0.746324 0
M  V30 12010 H 1160.47 -1.67205 -3.09411 0
M  V30 12011 H 1160.35 -0.0582398 -3.77155 0
M  V30 12012 H 1162.73 0.445541 -2.91717 0
M  V30 12013 H 1162.82 -1.19582 -2.26128 0
M  V30 12014 H 1162.46 -2.12855 -4.61146 0
M  V30 12015 H 1162.39 -0.465122 -5.24542 0
M  V30 12016 H 1164.88 -0.733877 -3.70706 0
M  V30 12017 H 1165.19 -2.10923 -7.43459 0
M  V30 12018 H 1163.54 -1.8902 -6.68802 0
M  V30 12019 H 1166.73 -0.991547 -4.57478 0
M  V30 12020 H 1166.9 -1.6185 -6.27462 0
M  V30 12021 N 1160.31 1.56586 -0.178487 0
M  V30 12022 C 1161.56 1.97098 0.464617 0
M  V30 12023 C 1161.88 1.06476 1.62767 0
M  V30 12024 O 1161.14 0.100337 1.95443 0
M  V30 12025 C 1161.44 3.43629 0.982552 0
M  V30 12026 C 1161.1 4.50853 -0.0653645 0
M  V30 12027 C 1159.77 4.79901 -0.353349 0
M  V30 12028 C 1162.12 5.15387 -0.776279 0
M  V30 12029 C 1159.45 5.70779 -1.35751 0
M  V30 12030 C 1161.8 6.07349 -1.76948 0
M  V30 12031 C 1160.46 6.34761 -2.06483 0
M  V30 12032 H 1159.73 0.721232 0.170016 0
M  V30 12033 H 1162.38 1.89559 -0.271959 0
M  V30 12034 H 1160.68 3.48155 1.79709 0
M  V30 12035 H 1162.38 3.7232 1.48926 0
M  V30 12036 H 1158.97 4.28266 0.169266 0
M  V30 12037 H 1163.15 4.9305 -0.567008 0
M  V30 12038 H 1158.41 5.90298 -1.59244 0
M  V30 12039 H 1162.58 6.56419 -2.32567 0
M  V30 12040 H 1160.21 7.0498 -2.84441 0
M  V30 12041 N 1161.79 -0.095206 1.57312 0
M  V30 12042 C 1162.72 -1.11627 2.05089 0
M  V30 12043 C 1163.7 -1.41782 0.939787 0
M  V30 12044 O 1164.88 -1.51813 1.21105 0
M  V30 12045 C 1162.01 -2.43618 2.47523 0
M  V30 12046 C 1160.97 -2.27872 3.62296 0
M  V30 12047 C 1160.29 -3.65038 3.90706 0
M  V30 12048 C 1161.59 -1.71936 4.93189 0
M  V30 12049 H 1163.29 -0.718795 2.90644 0
M  V30 12050 H 1160.83 -0.344315 1.39823 0
M  V30 12051 H 1162.79 -3.1532 2.79556 0
M  V30 12052 H 1161.51 -2.85301 1.58968 0
M  V30 12053 H 1160.17 -1.58615 3.3051 0
M  V30 12054 H 1159.82 -4.04249 2.99319 0
M  V30 12055 H 1159.52 -3.55349 4.67976 0
M  V30 12056 H 1161.04 -4.38208 4.25213 0
M  V30 12057 H 1162.45 -2.33479 5.23603 0
M  V30 12058 H 1160.85 -1.73006 5.74621 0
M  V30 12059 H 1161.92 -0.678789 4.80125 0
M  V30 12060 N 1163.26 -1.53291 -0.366026 0
M  V30 12061 C 1164.49 -1.73665 -1.13381 0
M  V30 12062 C 1164.91 -0.464284 -1.8228 0
M  V30 12063 O 1164.27 0.581645 -1.71717 0
M  V30 12064 C 1164.32 -2.90225 -2.14013 0
M  V30 12065 O 1163.42 -2.58803 -3.21084 0
M  V30 12066 H 1162.77 -0.576762 -0.329 0
M  V30 12067 H 1165.3 -2.00174 -0.423287 0
M  V30 12068 H 1165.31 -3.16378 -2.57622 0
M  V30 12069 H 1163.98 -3.82518 -1.63257 0
M  V30 12070 H 1162.56 -2.43466 -2.82451 0
M  V30 12071 N 1164.74 0.6258 -1.44643 0
M  V30 12072 C 1165.97 1.41233 -1.51198 0
M  V30 12073 C 1166.39 1.88291 -0.138572 0
M  V30 12074 O 1165.74 1.61151 0.856537 0
M  V30 12075 C 1165.79 2.62908 -2.48117 0
M  V30 12076 O 1165.51 2.1781 -3.80119 0
M  V30 12077 C 1167.02 3.55976 -2.6419 0
M  V30 12078 H 1164.24 0.432954 -0.512632 0
M  V30 12079 H 1166.78 0.76486 -1.89658 0
M  V30 12080 H 1164.93 3.23735 -2.12778 0
M  V30 12081 H 1165.35 2.96732 -4.32493 0
M  V30 12082 H 1166.82 4.37943 -3.3602 0
M  V30 12083 H 1167.3 4.05133 -1.696 0
M  V30 12084 H 1167.91 3.01014 -3.00451 0
M  V30 12085 N 1166.22 1.31629 0.866686 0
M  V30 12086 C 1167.15 1.13886 1.9775 0
M  V30 12087 C 1168.13 0.0414887 1.62547 0
M  V30 12088 O 1169.32 0.198534 1.87452 0
M  V30 12089 C 1166.44 0.740858 3.30498 0
M  V30 12090 C 1165.49 1.84175 3.84684 0
M  V30 12091 S 1166.32 3.44781 4.09739 0
M  V30 12092 C 1167.48 3.06925 5.45479 0
M  V30 12093 H 1167.71 2.07923 2.12497 0
M  V30 12094 H 1165.24 1.16152 1.01725 0
M  V30 12095 H 1167.2 0.517974 4.07219 0
M  V30 12096 H 1165.86 -0.18045 3.13581 0
M  V30 12097 H 1165.06 1.51597 4.8066 0
M  V30 12098 H 1164.66 2.01986 3.14766 0
M  V30 12099 H 1166.95 2.56022 6.27263 0
M  V30 12100 H 1167.89 4.01877 5.8301 0
M  V30 12101 H 1168.3 2.44276 5.0891 0
M  V30 12102 N 1167.7 -1.08142 1.14644 0
M  V30 12103 C 1168.65 -2.15133 0.835845 0
M  V30 12104 C 1169.62 -1.64795 -0.207785 0
M  V30 12105 O 1170.8 -1.90644 -0.07711 0
M  V30 12106 C 1167.94 -3.4359 0.322456 0
M  V30 12107 C 1167.05 -4.07761 1.42671 0
M  V30 12108 C 1166.19 -5.24022 0.870281 0
M  V30 12109 C 1165.23 -5.8014 1.95202 0
M  V30 12110 N 1164.37 -6.87743 1.41257 0
M  V30 12111 H 1169.21 -2.41042 1.75222 0
M  V30 12112 H 1166.74 -1.18288 0.874428 0
M  V30 12113 H 1168.7 -4.17199 0.00657059 0
M  V30 12114 H 1167.33 -3.17958 -0.557014 0
M  V30 12115 H 1166.38 -3.31885 1.85893 0
M  V30 12116 H 1167.69 -4.45485 2.24375 0
M  V30 12117 H 1166.85 -6.04582 0.506459 0
M  V30 12118 H 1165.59 -4.87695 0.0223118 0
M  V30 12119 H 1164.59 -4.98232 2.32476 0
M  V30 12120 H 1165.82 -6.18525 2.80363 0
M  V30 12121 H 1163.76 -6.5337 0.586826 0
M  V30 12122 H 1163.68 -7.24308 2.16596 0
M  V30 12123 H 1164.95 -7.72028 1.07674 0
M  V30 12124 N 1169.18 -0.941978 -1.26351 0
M  V30 12125 C 1170.11 -0.409504 -2.25512 0
M  V30 12126 C 1171.12 0.467665 -1.55938 0
M  V30 12127 O 1172.31 0.277982 -1.76322 0
M  V30 12128 C 1169.41 0.430487 -3.36155 0
M  V30 12129 C 1168.58 -0.430714 -4.35274 0
M  V30 12130 C 1167.64 0.348976 -5.25042 0
M  V30 12131 O 1166.67 -0.24827 -5.68658 0
M  V30 12132 N 1167.87 1.64531 -5.56695 0
M  V30 12133 H 1170.64 -1.26196 -2.71836 0
M  V30 12134 H 1168.2 -0.810947 -1.40126 0
M  V30 12135 H 1170.19 0.959501 -3.93161 0
M  V30 12136 H 1168.76 1.18375 -2.8932 0
M  V30 12137 H 1167.98 -1.14093 -3.77328 0
M  V30 12138 H 1169.27 -1.01896 -4.98492 0
M  V30 12139 H 1168.67 2.15266 -5.23142 0
M  V30 12140 H 1167.22 2.12055 -6.16341 0
M  V30 12141 N 1170.66 1.40747 -0.709091 0
M  V30 12142 C 1171.6 2.32564 -0.0411392 0
M  V30 12143 C 1172.6 1.51692 0.75404 0
M  V30 12144 O 1173.8 1.67537 0.658139 0
M  V30 12145 H 1170.18 0.75198 0.00549889 0
M  V30 12146 H 1172.15 2.86556 -0.83235 0
M  V30 12147 C 1170.9 3.36604 0.871378 0
M  V30 12148 H 1170.22 3.98895 0.268912 0
M  V30 12149 H 1171.66 4.03359 1.30682 0
M  V30 12150 C 1170.12 2.71566 1.99384 0
M  V30 12151 O 1170.65 2.57392 3.08403 0
M  V30 12152 N 1168.86 2.3005 1.77554 0
M  V30 12153 H 1168.4 2.41778 0.888898 0
M  V30 12154 H 1168.36 1.8687 2.52838 0
M  V30 12155 N 1172.13 0.454803 1.50895 0
M  V30 12156 C 1173.1 -0.336293 2.26719 0
M  V30 12157 C 1174.1 -0.93464 1.30848 0
M  V30 12158 O 1175.29 -0.80636 1.54413 0
M  V30 12159 C 1172.42 -1.47744 3.07221 0
M  V30 12160 H 1173.61 0.328462 2.98096 0
M  V30 12161 H 1171.16 0.208419 1.54904 0
M  V30 12162 H 1171.9 -2.17773 2.40302 0
M  V30 12163 H 1171.68 -1.05438 3.77658 0
M  V30 12164 H 1173.17 -2.03592 3.6461 0
M  V30 12165 N 1173.61 -1.56489 0.186789 0
M  V30 12166 C 1174.54 -2.21705 -0.732739 0
M  V30 12167 C 1175.52 -1.17751 -1.22755 0
M  V30 12168 O 1176.71 -1.46231 -1.27789 0
M  V30 12169 C 1173.84 -2.86992 -1.95584 0
M  V30 12170 C 1172.79 -3.97118 -1.59628 0
M  V30 12171 C 1172.12 -4.49529 -2.89531 0
M  V30 12172 C 1173.42 -5.15941 -0.812518 0
M  V30 12173 H 1175.11 -2.98802 -0.189094 0
M  V30 12174 H 1172.66 -1.43722 -0.0895099 0
M  V30 12175 H 1174.61 -3.31295 -2.60426 0
M  V30 12176 H 1173.33 -2.07287 -2.52388 0
M  V30 12177 H 1171.99 -3.53494 -0.971475 0
M  V30 12178 H 1171.64 -3.66596 -3.44407 0
M  V30 12179 H 1171.34 -5.23832 -2.66221 0
M  V30 12180 H 1172.87 -4.96528 -3.55376 0
M  V30 12181 H 1174.28 -5.56841 -1.36386 0
M  V30 12182 H 1172.68 -5.96259 -0.677862 0
M  V30 12183 H 1173.75 -4.84535 0.188095 0
M  V30 12184 N 1175.09 0.086862 -1.5736 0
M  V30 12185 C 1176.02 1.13117 -1.99342 0
M  V30 12186 C 1177.03 1.35849 -0.897151 0
M  V30 12187 O 1178.22 1.34356 -1.17519 0
M  V30 12188 C 1175.32 2.48511 -2.30425 0
M  V30 12189 C 1174.5 2.45942 -3.61706 0
M  V30 12190 C 1173.56 3.63327 -3.80631 0
M  V30 12191 O 1172.58 3.45443 -4.52392 0
M  V30 12192 N 1173.78 4.83118 -3.21835 0
M  V30 12193 H 1176.55 0.773782 -2.89539 0
M  V30 12194 H 1174.11 0.275731 -1.59535 0
M  V30 12195 H 1176.1 3.25656 -2.40272 0
M  V30 12196 H 1174.67 2.76308 -1.46194 0
M  V30 12197 H 1173.89 1.54287 -3.62752 0
M  V30 12198 H 1175.18 2.41313 -4.47935 0
M  V30 12199 H 1174.58 5.00552 -2.6356 0
M  V30 12200 H 1173.13 5.57827 -3.37154 0
M  V30 12201 N 1176.57 1.53483 0.357892 0
M  V30 12202 C 1177.82 1.69701 1.09754 0
M  V30 12203 C 1178.14 0.455389 1.89608 0
M  V30 12204 O 1177.41 -0.530623 1.88577 0
M  V30 12205 H 1175.99 0.62562 0.408178 0
M  V30 12206 H 1178.65 1.90696 0.402641 0
M  V30 12207 H 1177.74 2.56154 1.78302 0
M  V30 12208 N 1178.05 -0.61812 1.44973 0
M  V30 12209 C 1179.29 -1.37944 1.48658 0
M  V30 12210 C 1179.62 -1.93805 0.123749 0
M  V30 12211 O 1178.9 -1.74434 -0.860401 0
M  V30 12212 C 1179.18 -2.53515 2.55739 0
M  V30 12213 C 1179.04 -2.02918 4.01428 0
M  V30 12214 C 1180.35 -3.55674 2.59199 0
M  V30 12215 H 1177.47 -0.500223 0.541244 0
M  V30 12216 H 1180.12 -0.69774 1.76725 0
M  V30 12217 H 1178.27 -3.11669 2.31937 0
M  V30 12218 H 1179.94 -1.49494 4.36405 0
M  V30 12219 H 1178.18 -1.33999 4.12586 0
M  V30 12220 H 1178.85 -2.86181 4.72021 0
M  V30 12221 H 1181.33 -3.07343 2.80499 0
M  V30 12222 H 1180.2 -4.34042 3.36004 0
M  V30 12223 H 1180.46 -4.10601 1.63888 0
M  V30 12224 N 1179.52 -1.32087 -0.859693 0
M  V30 12225 C 1180.77 -1.22542 -1.6159 0
M  V30 12226 C 1181.1 0.213533 -1.93022 0
M  V30 12227 O 1180.38 1.14931 -1.56911 0
M  V30 12228 C 1180.66 -2.08004 -2.93949 0
M  V30 12229 C 1180.51 -3.60252 -2.6933 0
M  V30 12230 C 1181.83 -1.93732 -3.95166 0
M  V30 12231 H 1178.95 -0.446504 -0.586347 0
M  V30 12232 H 1181.59 -1.61982 -0.993064 0
M  V30 12233 H 1179.74 -1.74498 -3.47106 0
M  V30 12234 H 1181.42 -4.03947 -2.22766 0
M  V30 12235 H 1179.66 -3.83169 -2.03382 0
M  V30 12236 H 1180.33 -4.1537 -3.63555 0
M  V30 12237 H 1182.81 -2.23075 -3.5125 0
M  V30 12238 H 1181.68 -2.55815 -4.85644 0
M  V30 12239 H 1181.94 -0.903528 -4.32769 0
M  V30 12240 N 1181 1.07532 -1.15215 0
M  V30 12241 C 1182.41 1.61567 -0.935568 0
M  V30 12242 C 1182.76 1.89085 0.523557 0
M  V30 12243 O 1181.89 1.65495 1.39429 0
M  V30 12244 C 1182.48 2.93531 -1.69189 0
M  V30 12245 C 1181.04 3.44316 -1.52063 0
M  V30 12246 C 1180.19 2.18404 -1.70866 0
M  V30 12247 H 1183.14 0.906431 -1.30267 0
M  V30 12248 H 1183.16 3.62377 -1.16031 0
M  V30 12249 H 1182.67 2.73471 -2.75381 0
M  V30 12250 H 1180.77 3.69462 -0.482567 0
M  V30 12251 H 1180.89 4.20478 -2.29642 0
M  V30 12252 H 1179.25 2.28012 -1.13502 0
M  V30 12253 H 1180.03 2.00841 -2.7842 0
M  V30 12254 N 1182.48 0.948665 1.2585 0
M  V30 12255 C 1183.71 0.616741 1.98018 0
M  V30 12256 C 1184.13 -0.803005 1.70098 0
M  V30 12257 O 1183.49 -1.54208 0.953392 0
M  V30 12258 C 1183.54 0.874429 3.49837 0
M  V30 12259 O 1182.64 -0.0497568 4.1237 0
M  V30 12260 H 1181.98 0.235112 0.620982 0
M  V30 12261 H 1184.51 1.27364 1.60124 0
M  V30 12262 H 1184.52 0.798309 4.00114 0
M  V30 12263 H 1183.2 1.90922 3.69488 0
M  V30 12264 H 1181.77 0.0780591 3.72818 0
M  V30 12265 N 1183.96 -1.40369 0.716545 0
M  V30 12266 C 1184.87 -2.34508 0.065658 0
M  V30 12267 C 1185.88 -1.57352 -0.742723 0
M  V30 12268 O 1187.06 -1.89735 -0.675456 0
M  V30 12269 C 1184.13 -3.36262 -0.844337 0
M  V30 12270 C 1183.19 -4.29292 -0.0257971 0
M  V30 12271 C 1182.42 -5.26185 -0.892452 0
M  V30 12272 O 1182.64 -5.29071 -2.13166 0
M  V30 12273 O 1181.58 -6.0099 -0.330933 0
M  V30 12274 H 1185.4 -2.91789 0.842184 0
M  V30 12275 H 1182.99 -1.41579 0.477034 0
M  V30 12276 H 1184.87 -3.98661 -1.36555 0
M  V30 12277 H 1183.54 -2.81393 -1.59999 0
M  V30 12278 H 1182.45 -3.70175 0.540512 0
M  V30 12279 H 1183.78 -4.87316 0.69166 0
M  V30 12280 N 1185.44 -0.462799 -1.50652 0
M  V30 12281 C 1186.66 0.0929761 -2.06691 0
M  V30 12282 C 1187.08 1.34241 -1.32758 0
M  V30 12283 O 1186.44 1.78187 -0.394427 0
M  V30 12284 C 1186.49 0.389492 -3.59396 0
M  V30 12285 O 1186.21 -0.810379 -4.3054 0
M  V30 12286 C 1187.71 0.993147 -4.32032 0
M  V30 12287 H 1184.93 -0.00338664 -0.670991 0
M  V30 12288 H 1187.47 -0.649201 -1.93922 0
M  V30 12289 H 1185.63 1.08159 -3.71995 0
M  V30 12290 H 1186.04 -0.54996 -5.21609 0
M  V30 12291 H 1187.52 1.15044 -5.39878 0
M  V30 12292 H 1187.99 1.98106 -3.91983 0
M  V30 12293 H 1188.6 0.339677 -4.23941 0
M  V30 12294 N 1186.91 1.56388 -0.195085 0
M  V30 12295 C 1187.82 2.22698 0.737743 0
M  V30 12296 C 1188.84 1.22605 1.23466 0
M  V30 12297 O 1190.02 1.55342 1.28183 0
M  V30 12298 C 1187.08 2.87333 1.94011 0
M  V30 12299 C 1186.14 4.02696 1.48776 0
M  V30 12300 C 1185.38 4.64239 2.63282 0
M  V30 12301 O 1185.6 4.24706 3.80763 0
M  V30 12302 O 1184.53 5.53705 2.35996 0
M  V30 12303 H 1188.36 3.03021 0.203013 0
M  V30 12304 H 1185.94 1.49361 0.0342044 0
M  V30 12305 H 1187.83 3.28226 2.64284 0
M  V30 12306 H 1186.5 2.0999 2.46345 0
M  V30 12307 H 1185.41 3.66426 0.753839 0
M  V30 12308 H 1186.74 4.81703 1.01109 0
M  V30 12309 N 1188.39 -0.0785156 1.57404 0
M  V30 12310 C 1189.67 -0.811557 1.77969 0
M  V30 12311 C 1190.05 -1.96123 0.780966 0
M  V30 12312 O 1189.4 -2.27731 -0.18726 0
M  V30 12313 C 1189.61 -1.29075 3.24254 0
M  V30 12314 C 1190.96 -1.72685 3.87898 0
M  V30 12315 O 1191.98 -1.38658 3.28104 0
M  V30 12316 O 1190.84 -2.3566 4.93079 0
M  V30 12317 H 1187.93 -0.388361 0.73014 0
M  V30 12318 H 1190.48 -0.0591118 1.69597 0
M  V30 12319 H 1189.25 -0.467813 3.88494 0
M  V30 12320 H 1188.87 -2.10472 3.37324 0
M  V30 12321 N 1189.87 -1.5367 -0.349747 0
M  V30 12322 C 1190.8 -1.84208 -1.43492 0
M  V30 12323 C 1191.78 -0.696725 -1.55177 0
M  V30 12324 O 1192.97 -0.948061 -1.69486 0
M  V30 12325 C 1190.1 -2.04613 -2.80625 0
M  V30 12326 C 1189.05 -3.20419 -2.83753 0
M  V30 12327 C 1188.38 -3.26147 -4.23713 0
M  V30 12328 C 1189.68 -4.58666 -2.49846 0
M  V30 12329 H 1191.37 -2.75087 -1.18185 0
M  V30 12330 H 1188.92 -1.32363 -0.567101 0
M  V30 12331 H 1190.87 -2.2456 -3.56582 0
M  V30 12332 H 1189.59 -1.10459 -3.07354 0
M  V30 12333 H 1188.25 -3.00318 -2.10249 0
M  V30 12334 H 1187.9 -2.29599 -4.47541 0
M  V30 12335 H 1187.6 -4.03963 -4.26717 0
M  V30 12336 H 1189.12 -3.48296 -5.0152 0
M  V30 12337 H 1190.54 -4.78668 -3.15516 0
M  V30 12338 H 1188.94 -5.3884 -2.64144 0
M  V30 12339 H 1190.01 -4.62697 -1.4505 0
M  V30 12340 N 1191.35 0.610423 -1.45298 0
M  V30 12341 C 1192.3 1.74245 -1.54083 0
M  V30 12342 C 1193.29 1.64338 -0.411003 0
M  V30 12343 O 1194.5 1.70167 -0.586799 0
M  V30 12344 H 1190.87 0.575612 -0.483916 0
M  V30 12345 H 1192.84 1.63961 -2.49318 0
M  V30 12346 C 1191.59 3.1262 -1.52198 0
M  V30 12347 H 1190.91 3.209 -2.3846 0
M  V30 12348 H 1192.35 3.91665 -1.62403 0
M  V30 12349 C 1190.81 3.36001 -0.24595 0
M  V30 12350 O 1191.34 3.95982 0.675374 0
M  V30 12351 N 1189.55 2.9025 -0.142537 0
M  V30 12352 H 1189.1 2.41621 -0.893143 0
M  V30 12353 H 1189.05 3.06268 0.710427 0
M  V30 12354 N 1192.83 1.32541 0.852676 0
M  V30 12355 C 1194.07 1.23397 1.60938 0
M  V30 12356 C 1194.41 -0.203294 1.93133 0
M  V30 12357 O 1193.68 -1.14097 1.57519 0
M  V30 12358 C 1193.96 2.0956 2.92842 0
M  V30 12359 C 1193.82 3.61675 2.67416 0
M  V30 12360 C 1195.14 1.95825 3.94133 0
M  V30 12361 H 1192.25 0.449608 0.583971 0
M  V30 12362 H 1194.9 1.62507 0.98446 0
M  V30 12363 H 1193.05 1.76336 3.46176 0
M  V30 12364 H 1194.72 4.05122 2.20621 0
M  V30 12365 H 1192.96 3.84242 2.01347 0
M  V30 12366 H 1193.63 4.17292 3.61347 0
M  V30 12367 H 1196.11 2.24935 3.50062 0
M  V30 12368 H 1194.98 2.58387 4.8428 0
M  V30 12369 H 1195.25 0.926466 4.32284 0
M  V30 12370 N 1194.3 -1.0692 1.15784 0
M  V30 12371 C 1195.21 -2.17762 0.872753 0
M  V30 12372 C 1196.23 -1.73329 -0.152608 0
M  V30 12373 O 1197.41 -2.01387 0.022519 0
M  V30 12374 C 1194.47 -3.4471 0.370887 0
M  V30 12375 C 1193.53 -4.03686 1.46069 0
M  V30 12376 C 1192.77 -5.24575 0.982675 0
M  V30 12377 O 1192.99 -5.70146 -0.17006 0
M  V30 12378 O 1191.92 -5.7534 1.76828 0
M  V30 12379 H 1195.75 -2.44648 1.79948 0
M  V30 12380 H 1193.33 -1.1634 0.937303 0
M  V30 12381 H 1195.22 -4.21287 0.0976779 0
M  V30 12382 H 1193.89 -3.19366 -0.527912 0
M  V30 12383 H 1192.8 -3.28629 1.78756 0
M  V30 12384 H 1194.13 -4.33312 2.33456 0
M  V30 12385 N 1195.78 -0.955326 -1.25345 0
M  V30 12386 C 1196.73 -0.446792 -2.23579 0
M  V30 12387 C 1197.72 0.464354 -1.54054 0
M  V30 12388 O 1198.91 0.297293 -1.74485 0
M  V30 12389 C 1196.04 0.273533 -3.42209 0
M  V30 12390 C 1195.12 -0.655722 -4.19 0
M  V30 12391 N 1195.51 -1.78766 -4.73156 0
M  V30 12392 C 1193.81 -0.464059 -4.43579 0
M  V30 12393 C 1194.51 -2.36789 -5.31324 0
M  V30 12394 N 1193.49 -1.65435 -5.17815 0
M  V30 12395 H 1197.29 -1.31065 -2.63057 0
M  V30 12396 H 1194.81 -0.812899 -1.40591 0
M  V30 12397 H 1196.8 0.654986 -4.11723 0
M  V30 12398 H 1195.46 1.13399 -3.04254 0
M  V30 12399 H 1196.47 -2.1695 -4.70269 0
M  V30 12400 H 1193.15 0.353459 -4.16001 0
M  V30 12401 H 1194.54 -3.32242 -5.84008 0
M  V30 12402 N 1197.26 1.39987 -0.723979 0
M  V30 12403 C 1198.19 2.3332 -0.0917282 0
M  V30 12404 C 1199.17 1.53335 0.736361 0
M  V30 12405 O 1200.36 1.81771 0.683582 0
M  V30 12406 C 1197.49 3.3737 0.824549 0
M  V30 12407 C 1196.44 4.2788 0.101452 0
M  V30 12408 C 1195.77 5.22536 1.13401 0
M  V30 12409 C 1197.07 5.11649 -1.04939 0
M  V30 12410 H 1198.76 2.86441 -0.871318 0
M  V30 12411 H 1196.31 1.37725 -0.420448 0
M  V30 12412 H 1198.26 4.01607 1.27631 0
M  V30 12413 H 1196.98 2.82663 1.63613 0
M  V30 12414 H 1195.64 3.65107 -0.330569 0
M  V30 12415 H 1195.29 4.64131 1.93886 0
M  V30 12416 H 1194.99 5.83938 0.65502 0
M  V30 12417 H 1196.52 5.89651 1.58569 0
M  V30 12418 H 1197.93 5.69293 -0.6766 0
M  V30 12419 H 1196.33 5.82137 -1.45729 0
M  V30 12420 H 1197.4 4.47132 -1.8762 0
M  V30 12421 N 1198.74 0.470782 1.50404 0
M  V30 12422 C 1199.67 -0.359838 2.26358 0
M  V30 12423 C 1200.68 -0.95735 1.31676 0
M  V30 12424 O 1201.87 -0.84581 1.57189 0
M  V30 12425 C 1198.97 -1.51864 3.02969 0
M  V30 12426 C 1198.15 -1.03397 4.25003 0
M  V30 12427 C 1197.21 -2.06679 4.83911 0
M  V30 12428 O 1196.23 -1.64754 5.44835 0
M  V30 12429 N 1197.43 -3.39484 4.70883 0
M  V30 12430 H 1200.2 0.291299 2.98281 0
M  V30 12431 H 1197.76 0.301549 1.59067 0
M  V30 12432 H 1199.75 -2.2065 3.39258 0
M  V30 12433 H 1198.32 -2.07448 2.33846 0
M  V30 12434 H 1197.54 -0.172012 3.93825 0
M  V30 12435 H 1198.83 -0.68807 5.04126 0
M  V30 12436 H 1198.23 -3.76256 4.22431 0
M  V30 12437 H 1196.78 -4.04068 5.11441 0
M  V30 12438 N 1200.22 -1.56282 0.203376 0
M  V30 12439 C 1201.15 -2.15395 -0.753684 0
M  V30 12440 C 1202.13 -1.09303 -1.20381 0
M  V30 12441 O 1203.31 -1.37461 -1.28984 0
M  V30 12442 C 1200.44 -2.71954 -2.01888 0
M  V30 12443 C 1199.49 -3.9071 -1.71021 0
M  V30 12444 S 1200.32 -5.28695 -0.850999 0
M  V30 12445 C 1201.47 -5.88681 -2.12615 0
M  V30 12446 H 1201.71 -2.96237 -0.251196 0
M  V30 12447 H 1199.24 -1.54396 -0.0117238 0
M  V30 12448 H 1201.2 -3.05183 -2.74542 0
M  V30 12449 H 1199.86 -1.91138 -2.49249 0
M  V30 12450 H 1199.05 -4.28723 -2.64977 0
M  V30 12451 H 1198.65 -3.58533 -1.06442 0
M  V30 12452 H 1200.95 -6.03548 -3.07792 0
M  V30 12453 H 1201.89 -6.85096 -1.79021 0
M  V30 12454 H 1202.3 -5.17356 -2.2584 0
M  V30 12455 N 1201.7 0.070167 -1.57444 0
M  V30 12456 C 1202.63 1.08351 -2.06839 0
M  V30 12457 C 1203.61 1.40269 -0.962224 0
M  V30 12458 O 1204.79 1.49867 -1.23505 0
M  V30 12459 C 1201.92 2.39649 -2.51368 0
M  V30 12460 C 1200.88 2.22079 -3.65875 0
M  V30 12461 C 1200.2 3.58776 -3.96464 0
M  V30 12462 C 1201.5 1.64069 -4.95862 0
M  V30 12463 H 1203.2 0.672465 -2.9175 0
M  V30 12464 H 1200.74 0.322027 -1.40353 0
M  V30 12465 H 1202.69 3.10833 -2.84537 0
M  V30 12466 H 1201.42 2.82736 -1.63487 0
M  V30 12467 H 1200.08 1.53337 -3.32992 0
M  V30 12468 H 1199.73 3.99436 -3.05712 0
M  V30 12469 H 1199.43 3.47859 -4.7357 0
M  V30 12470 H 1200.95 4.31387 -4.32131 0
M  V30 12471 H 1202.36 2.2512 -5.27251 0
M  V30 12472 H 1200.76 1.63843 -5.773 0
M  V30 12473 H 1201.83 0.60232 -4.81145 0
M  V30 12474 N 1203.17 1.53854 0.341593 0
M  V30 12475 C 1204.1 1.84966 1.42513 0
M  V30 12476 C 1205.08 0.704944 1.54805 0
M  V30 12477 O 1206.27 0.957036 1.68981 0
M  V30 12478 C 1203.4 2.06099 2.79536 0
M  V30 12479 C 1202.35 3.21919 2.82049 0
M  V30 12480 C 1201.68 3.28389 4.21977 0
M  V30 12481 C 1202.98 4.59984 2.4741 0
M  V30 12482 H 1204.67 2.7571 1.16724 0
M  V30 12483 H 1202.22 1.32662 0.560073 0
M  V30 12484 H 1204.17 2.26448 3.55386 0
M  V30 12485 H 1202.9 1.12087 3.06764 0
M  V30 12486 H 1201.56 3.01429 2.08653 0
M  V30 12487 H 1201.2 2.3197 4.46317 0
M  V30 12488 H 1200.9 4.0622 4.24569 0
M  V30 12489 H 1202.43 3.50951 4.99666 0
M  V30 12490 H 1203.84 4.80334 3.12973 0
M  V30 12491 H 1202.24 5.40233 2.61282 0
M  V30 12492 H 1203.31 4.6346 1.42594 0
M  V30 12493 N 1204.65 -0.602709 1.4562 0
M  V30 12494 C 1205.58 -1.72374 1.5751 0
M  V30 12495 C 1206.56 -1.64669 0.426389 0
M  V30 12496 O 1207.75 -1.82994 0.650143 0
M  V30 12497 C 1204.88 -3.10987 1.5461 0
M  V30 12498 C 1203.83 -3.33507 2.68248 0
M  V30 12499 C 1203.16 -4.72443 2.50403 0
M  V30 12500 C 1204.46 -3.23285 4.10224 0
M  V30 12501 H 1206.15 -1.62679 2.51348 0
M  V30 12502 H 1203.7 -0.781217 1.20967 0
M  V30 12503 H 1205.65 -3.89214 1.61525 0
M  V30 12504 H 1204.37 -3.21533 0.573049 0
M  V30 12505 H 1203.03 -2.57672 2.60769 0
M  V30 12506 H 1202.68 -4.79729 1.51226 0
M  V30 12507 H 1202.38 -4.88466 3.26611 0
M  V30 12508 H 1203.91 -5.52864 2.59179 0
M  V30 12509 H 1205.32 -3.91381 4.1892 0
M  V30 12510 H 1203.72 -3.50837 4.86861 0
M  V30 12511 H 1204.79 -2.20652 4.31788 0
M  V30 12512 N 1206.13 -1.32992 -0.845635 0
M  V30 12513 C 1207.38 -1.23415 -1.59536 0
M  V30 12514 C 1207.69 0.200278 -1.94572 0
M  V30 12515 O 1208.9 0.417993 -2.68263 0
M  V30 12516 C 1207.35 -2.16207 -2.8772 0
M  V30 12517 C 1206.96 -3.64782 -2.60073 0
M  V30 12518 C 1208.71 -2.15488 -3.65739 0
M  V30 12519 C 1206.61 -4.49508 -3.84313 0
M  V30 12520 H 1205.54 -0.458366 -0.598679 0
M  V30 12521 H 1208.19 -1.58012 -0.932981 0
M  V30 12522 H 1206.58 -1.74535 -3.55462 0
M  V30 12523 H 1207.75 -4.14852 -2.00585 0
M  V30 12524 H 1206.06 -3.67723 -1.95369 0
M  V30 12525 H 1208.66 -2.76021 -4.57948 0
M  V30 12526 H 1209 -1.14818 -4.00153 0
M  V30 12527 H 1209.54 -2.55487 -3.04912 0
M  V30 12528 H 1206.28 -5.51027 -3.55035 0
M  V30 12529 H 1205.8 -4.04185 -4.43165 0
M  V30 12530 H 1207.48 -4.62969 -4.51961 0
M  V30 12531 N 1207.61 1.06304 -1.1635 0
M  V30 12532 C 1208.85 1.79101 -0.94494 0
M  V30 12533 C 1209.18 1.87217 0.527251 0
M  V30 12534 O 1208.44 1.35992 1.40729 0
M  V30 12535 C 1208.74 3.23589 -1.51741 0
M  V30 12536 C 1208.4 3.35552 -3.0119 0
M  V30 12537 C 1207.06 3.38525 -3.41986 0
M  V30 12538 C 1209.42 3.37482 -3.97184 0
M  V30 12539 C 1206.74 3.41042 -4.77396 0
M  V30 12540 C 1209.1 3.41537 -5.3248 0
M  V30 12541 C 1207.76 3.42792 -5.72757 0
M  V30 12542 H 1207.03 0.655377 -0.345778 0
M  V30 12543 H 1209.68 1.25017 -1.45062 0
M  V30 12544 H 1207.98 3.80525 -0.933164 0
M  V30 12545 H 1209.68 3.78512 -1.32399 0
M  V30 12546 H 1206.27 3.33944 -2.68662 0
M  V30 12547 H 1210.45 3.34397 -3.66732 0
M  V30 12548 H 1205.71 3.40317 -5.07931 0
M  V30 12549 H 1209.88 3.41977 -6.0665 0
M  V30 12550 H 1207.51 3.44495 -6.77663 0
M  V30 12551 N 1209.09 0.96196 1.24836 0
M  V30 12552 C 1210.04 0.458643 2.23339 0
M  V30 12553 C 1211.02 -0.456178 1.54298 0
M  V30 12554 O 1212.21 -0.288036 1.74641 0
M  V30 12555 C 1209.34 -0.255381 3.42349 0
M  V30 12556 C 1208.43 0.677934 4.18646 0
M  V30 12557 N 1208.82 1.81273 4.72201 0
M  V30 12558 C 1207.12 0.487577 4.43327 0
M  V30 12559 C 1207.82 2.39604 5.30061 0
M  V30 12560 N 1206.79 1.68179 5.1693 0
M  V30 12561 H 1210.59 1.32459 2.62358 0
M  V30 12562 H 1208.11 0.820343 1.40158 0
M  V30 12563 H 1210.11 -0.633142 4.12064 0
M  V30 12564 H 1208.77 -1.11784 3.04852 0
M  V30 12565 H 1209.78 2.19441 4.69112 0
M  V30 12566 H 1206.45 -0.331392 4.16183 0
M  V30 12567 H 1207.84 3.35334 5.82237 0
M  V30 12568 N 1210.56 -1.39601 0.731392 0
M  V30 12569 C 1211.51 -2.32469 0.0781328 0
M  V30 12570 C 1212.51 -1.52873 -0.729811 0
M  V30 12571 O 1213.71 -1.68563 -0.631402 0
M  V30 12572 H 1210.09 -0.751972 0.00646515 0
M  V30 12573 H 1212.06 -2.85196 0.877833 0
M  V30 12574 C 1210.81 -3.37948 -0.817717 0
M  V30 12575 H 1210.13 -3.99272 -0.205417 0
M  V30 12576 H 1211.57 -4.05387 -1.24248 0
M  V30 12577 C 1210.03 -2.74703 -1.95038 0
M  V30 12578 O 1210.56 -2.62266 -3.04269 0
M  V30 12579 N 1208.76 -2.32845 -1.73872 0
M  V30 12580 H 1208.31 -2.43161 -0.850321 0
M  V30 12581 H 1208.27 -1.90869 -2.49833 0
M  V30 12582 N 1212.04 -0.478751 -1.50152 0
M  V30 12583 C 1213.29 0.073585 -2.02366 0
M  V30 12584 C 1213.62 1.3903 -1.36018 0
M  V30 12585 O 1212.87 1.89787 -0.477435 0
M  V30 12586 C 1213.17 0.297535 -3.56159 0
M  V30 12587 C 1212.84 -0.938419 -4.41027 0
M  V30 12588 C 1211.5 -1.27727 -4.63939 0
M  V30 12589 C 1213.85 -1.76098 -4.9055 0
M  V30 12590 C 1211.18 -2.4386 -5.33619 0
M  V30 12591 C 1213.53 -2.91366 -5.61506 0
M  V30 12592 C 1212.2 -3.25657 -5.8267 0
M  V30 12593 H 1211.47 0.0269267 -0.740511 0
M  V30 12594 H 1214.11 -0.63439 -1.80687 0
M  V30 12595 H 1212.42 1.08783 -3.76395 0
M  V30 12596 H 1214.11 0.73899 -3.94132 0
M  V30 12597 H 1210.7 -0.664441 -4.23418 0
M  V30 12598 H 1214.89 -1.51237 -4.72696 0
M  V30 12599 H 1210.14 -2.70692 -5.48211 0
M  V30 12600 H 1214.32 -3.55445 -5.98859 0
M  V30 12601 H 1211.95 -4.15751 -6.36439 0
M  V30 12602 N 1213.52 1.56172 -0.211661 0
M  V30 12603 C 1214.75 2.02428 0.427843 0
M  V30 12604 C 1215.16 1.09162 1.54043 0
M  V30 12605 O 1214.52 0.0994249 1.82229 0
M  V30 12606 C 1214.57 3.48279 0.968728 0
M  V30 12607 O 1214.29 4.37987 -0.0994841 0
M  V30 12608 C 1215.79 4.10132 1.68246 0
M  V30 12609 H 1213.01 0.662611 0.10577 0
M  V30 12610 H 1215.56 2.01897 -0.32522 0
M  V30 12611 H 1213.71 3.49456 1.6721 0
M  V30 12612 H 1214.13 5.23609 0.305558 0
M  V30 12613 H 1215.6 5.13985 2.01304 0
M  V30 12614 H 1216.08 3.54552 2.5921 0
M  V30 12615 H 1216.68 4.12775 1.02453 0
M  V30 12616 N 1215 -0.0618163 1.57479 0
M  V30 12617 C 1215.91 -1.09006 2.07738 0
M  V30 12618 C 1216.92 -1.4176 1.00896 0
M  V30 12619 O 1218.1 -1.51737 1.32431 0
M  V30 12620 C 1215.17 -2.38153 2.5196 0
M  V30 12621 C 1214.23 -2.12279 3.73143 0
M  V30 12622 C 1213.46 -3.35269 4.15248 0
M  V30 12623 O 1213.68 -4.44758 3.57137 0
M  V30 12624 O 1212.62 -3.22894 5.0796 0
M  V30 12625 H 1216.44 -0.693059 2.95686 0
M  V30 12626 H 1214.03 -0.276628 1.46817 0
M  V30 12627 H 1215.91 -3.14139 2.80882 0
M  V30 12628 H 1214.58 -2.77213 1.67137 0
M  V30 12629 H 1213.49 -1.33966 3.49291 0
M  V30 12630 H 1214.82 -1.78094 4.5885 0
M  V30 12631 N 1216.48 -1.54033 -0.333429 0
M  V30 12632 C 1217.7 -1.75716 -1.09232 0
M  V30 12633 C 1218.12 -0.501076 -1.82029 0
M  V30 12634 O 1217.48 0.527772 -1.74702 0
M  V30 12635 C 1217.53 -2.9439 -2.09802 0
M  V30 12636 O 1217.25 -4.15141 -1.39963 0
M  V30 12637 C 1218.75 -3.28206 -2.97987 0
M  V30 12638 H 1215.97 -0.586859 -0.325326 0
M  V30 12639 H 1218.51 -2.0089 -0.382555 0
M  V30 12640 H 1216.67 -2.71518 -2.76327 0
M  V30 12641 H 1217.08 -4.81826 -2.0723 0
M  V30 12642 H 1218.56 -4.14568 -3.64469 0
M  V30 12643 H 1219.03 -2.44944 -3.64553 0
M  V30 12644 H 1219.64 -3.5312 -2.37036 0
M  V30 12645 N 1217.95 0.594978 -1.45938 0
M  V30 12646 C 1219.2 1.35093 -1.50314 0
M  V30 12647 C 1219.52 1.94412 -0.151315 0
M  V30 12648 O 1218.79 1.77876 0.820787 0
M  V30 12649 H 1217.37 0.501549 -0.553586 0
M  V30 12650 H 1220.04 0.697735 -1.81983 0
M  V30 12651 H 1219.13 2.16393 -2.24901 0
M  V30 12652 N 1219.43 1.33438 0.838571 0
M  V30 12653 C 1220.85 1.12779 1.12929 0
M  V30 12654 C 1221.05 -0.0811188 2.01337 0
M  V30 12655 O 1220.1 -0.761294 2.4075 0
M  V30 12656 C 1221.42 2.41537 1.7911 0
M  V30 12657 C 1222.97 2.47447 1.91674 0
M  V30 12658 C 1223.44 3.76167 2.6127 0
M  V30 12659 N 1224.93 3.7724 2.68783 0
M  V30 12660 C 1225.67 4.7355 3.23323 0
M  V30 12661 N 1225.16 5.80235 3.78549 0
M  V30 12662 N 1226.96 4.61025 3.21578 0
M  V30 12663 H 1219.11 2.10921 0.250187 0
M  V30 12664 H 1221.37 0.931986 0.17351 0
M  V30 12665 H 1221.08 3.30006 1.21609 0
M  V30 12666 H 1220.95 2.53709 2.79127 0
M  V30 12667 H 1223.34 1.59427 2.48328 0
M  V30 12668 H 1223.42 2.39216 0.906058 0
M  V30 12669 H 1223.06 4.64569 2.05275 0
M  V30 12670 H 1222.99 3.81675 3.62811 0
M  V30 12671 H 1225.48 3.00138 2.29621 0
M  V30 12672 H 1225.8 6.49759 4.1837 0
M  V30 12673 H 1224.14 5.83969 3.76836 0
M  V30 12674 H 1227.33 3.76836 2.77691 0
M  V30 12675 H 1227.5 5.36253 3.63781 0
M  V30 12676 N 1220.91 -1.05686 1.16912 0
M  V30 12677 C 1222.33 -1.30744 0.915327 0
M  V30 12678 C 1222.53 -1.96895 -0.428344 0
M  V30 12679 O 1221.58 -2.23941 -1.16647 0
M  V30 12680 C 1222.9 -2.18209 2.06894 0
M  V30 12681 C 1224.44 -2.31607 2.1054 0
M  V30 12682 C 1224.92 -3.2243 3.25273 0
M  V30 12683 N 1226.41 -3.30015 3.2503 0
M  V30 12684 C 1227.14 -4.00401 4.10447 0
M  V30 12685 N 1226.64 -4.73256 5.05965 0
M  V30 12686 N 1228.43 -3.96514 3.98413 0
M  V30 12687 H 1220.58 -0.611449 2.03409 0
M  V30 12688 H 1222.85 -0.332188 0.887894 0
M  V30 12689 H 1222.55 -1.76887 3.0398 0
M  V30 12690 H 1222.43 -3.18823 2.01573 0
M  V30 12691 H 1224.81 -2.72173 1.14044 0
M  V30 12692 H 1224.9 -1.30639 2.19925 0
M  V30 12693 H 1224.54 -2.82579 4.22032 0
M  V30 12694 H 1224.47 -4.23392 3.13125 0
M  V30 12695 H 1226.96 -2.781 2.55869 0
M  V30 12696 H 1227.27 -5.24509 5.67547 0
M  V30 12697 H 1225.62 -4.72215 5.09939 0
M  V30 12698 H 1228.81 -3.38719 3.2309 0
M  V30 12699 H 1228.98 -4.511 4.65202 0
M  V30 12700 N 1222.39 -0.968567 -1.24324 0
M  V30 12701 C 1223.35 -0.504307 -2.23583 0
M  V30 12702 C 1224.35 0.399626 -1.55755 0
M  V30 12703 O 1225.54 0.194966 -1.73106 0
M  V30 12704 C 1222.67 0.26956 -3.39833 0
M  V30 12705 H 1223.87 -1.3818 -2.6617 0
M  V30 12706 H 1221.42 -0.753241 -1.36952 0
M  V30 12707 H 1222.15 1.16411 -3.02686 0
M  V30 12708 H 1221.94 -0.379133 -3.90263 0
M  V30 12709 H 1223.43 0.583376 -4.13505 0
M  V30 12710 N 1223.87 1.39211 -0.738786 0
M  V30 12711 C 1225.12 1.99673 -0.285254 0
M  V30 12712 C 1225.43 1.59297 1.13507 0
M  V30 12713 O 1226.63 2.12622 1.68832 0
M  V30 12714 C 1225.09 3.5696 -0.45906 0
M  V30 12715 C 1224.7 4.06297 -1.88751 0
M  V30 12716 C 1226.44 4.24446 -0.0674954 0
M  V30 12717 C 1224.35 5.56171 -2.01067 0
M  V30 12718 H 1223.28 0.746945 -0.102901 0
M  V30 12719 H 1225.93 1.59163 -0.913209 0
M  V30 12720 H 1224.31 3.95285 0.23785 0
M  V30 12721 H 1225.49 3.79297 -2.61669 0
M  V30 12722 H 1223.8 3.51486 -2.23264 0
M  V30 12723 H 1226.4 5.34521 -0.138475 0
M  V30 12724 H 1226.74 4.04653 0.977823 0
M  V30 12725 H 1227.27 3.91309 -0.715704 0
M  V30 12726 H 1224.01 5.80849 -3.03801 0
M  V30 12727 H 1223.53 5.84961 -1.32591 0
M  V30 12728 H 1225.21 6.21642 -1.79362 0
M  V30 12729 N 1225.34 0.486708 1.49896 0
M  V30 12730 C 1226.27 -0.288898 2.31706 0
M  V30 12731 C 1227.26 -0.975901 1.3932 0
M  V30 12732 O 1228.44 -0.970065 1.68236 0
M  V30 12733 C 1225.57 -1.36218 3.19471 0
M  V30 12734 C 1224.52 -0.795884 4.20535 0
M  V30 12735 C 1223.85 -1.96862 4.97141 0
M  V30 12736 C 1225.15 0.203421 5.21904 0
M  V30 12737 H 1226.84 0.393934 2.96797 0
M  V30 12738 H 1224.39 0.190894 1.42729 0
M  V30 12739 H 1226.34 -1.91238 3.75508 0
M  V30 12740 H 1225.07 -2.074 2.52295 0
M  V30 12741 H 1223.73 -0.267538 3.65622 0
M  V30 12742 H 1223.37 -2.66779 4.26425 0
M  V30 12743 H 1223.07 -1.59585 5.65514 0
M  V30 12744 H 1224.6 -2.52343 5.56017 0
M  V30 12745 H 1226.01 -0.258144 5.72719 0
M  V30 12746 H 1224.41 0.491273 5.98086 0
M  V30 12747 H 1225.48 1.12414 4.7169 0
M  V30 12748 N 1226.82 -1.56058 0.219941 0
M  V30 12749 C 1228.05 -2.031 -0.42014 0
M  V30 12750 C 1228.47 -1.09875 -1.52673 0
M  V30 12751 O 1227.83 -0.0866458 -1.81093 0
M  V30 12752 C 1227.88 -3.48389 -0.93047 0
M  V30 12753 O 1226.98 -3.583 -2.04192 0
M  V30 12754 H 1226.32 -0.657129 -0.0952772 0
M  V30 12755 H 1228.85 -2.01787 0.338105 0
M  V30 12756 H 1228.86 -3.88678 -1.2407 0
M  V30 12757 H 1227.54 -4.15725 -0.120539 0
M  V30 12758 H 1226.12 -3.29898 -1.73845 0
M  V30 12759 N 1228.3 0.053464 -1.57509 0
M  V30 12760 C 1229.23 1.06151 -2.07977 0
M  V30 12761 C 1230.21 1.3924 -0.977047 0
M  V30 12762 O 1231.4 1.48549 -1.25087 0
M  V30 12763 C 1228.53 2.36969 -2.53895 0
M  V30 12764 C 1227.48 2.18186 -3.6821 0
M  V30 12765 C 1226.81 3.54551 -4.00247 0
M  V30 12766 C 1228.11 1.588 -4.97574 0
M  V30 12767 H 1229.8 0.641483 -2.92447 0
M  V30 12768 H 1227.35 0.307122 -1.40687 0
M  V30 12769 H 1229.3 3.07797 -2.87817 0
M  V30 12770 H 1228.02 2.80986 -1.66476 0
M  V30 12771 H 1226.68 1.49796 -3.34599 0
M  V30 12772 H 1226.33 3.96171 -3.09932 0
M  V30 12773 H 1226.03 3.42816 -4.77232 0
M  V30 12774 H 1227.56 4.2678 -4.36682 0
M  V30 12775 H 1228.97 2.19515 -5.29609 0
M  V30 12776 H 1227.37 1.57711 -5.79006 0
M  V30 12777 H 1228.44 0.551254 -4.81756 0
M  V30 12778 N 1229.78 1.54207 0.325255 0
M  V30 12779 C 1231.03 1.72331 1.0634 0
M  V30 12780 C 1231.35 0.496115 1.88066 0
M  V30 12781 O 1230.61 -0.52214 1.88606 0
M  V30 12782 C 1230.91 2.95 2.01766 0
M  V30 12783 C 1230.57 4.29835 1.36208 0
M  V30 12784 C 1229.24 4.66493 1.18059 0
M  V30 12785 C 1231.59 5.13521 0.891404 0
M  V30 12786 C 1228.92 5.84436 0.514894 0
M  V30 12787 C 1231.27 6.32146 0.239534 0
M  V30 12788 C 1229.93 6.67484 0.0458839 0
M  V30 12789 H 1229.2 0.630605 0.389125 0
M  V30 12790 H 1231.85 1.88445 0.34072 0
M  V30 12791 H 1230.15 2.73567 2.80479 0
M  V30 12792 H 1231.85 3.06217 2.58906 0
M  V30 12793 H 1228.44 4.00993 1.51335 0
M  V30 12794 H 1232.63 4.85718 1.01941 0
M  V30 12795 H 1227.88 6.10376 0.353644 0
M  V30 12796 H 1232.06 6.96273 -0.133185 0
M  V30 12797 H 1229.68 7.58733 -0.471978 0
M  V30 12798 N 1231.26 -0.58723 1.46251 0
M  V30 12799 C 1232.5 -1.3476 1.51551 0
M  V30 12800 C 1232.84 -1.93499 0.16483 0
M  V30 12801 O 1232.11 -1.7622 -0.823207 0
M  V30 12802 C 1232.39 -2.48033 2.61059 0
M  V30 12803 C 1232.25 -1.94358 4.05642 0
M  V30 12804 C 1233.57 -3.50096 2.66685 0
M  V30 12805 H 1230.69 -0.48863 0.551733 0
M  V30 12806 H 1233.33 -0.660097 1.78165 0
M  V30 12807 H 1231.48 -3.06679 2.38496 0
M  V30 12808 H 1233.15 -1.40204 4.39478 0
M  V30 12809 H 1231.39 -1.25217 4.15335 0
M  V30 12810 H 1232.06 -2.76105 4.77986 0
M  V30 12811 H 1234.54 -3.01324 2.86955 0
M  V30 12812 H 1233.42 -4.26817 3.45135 0
M  V30 12813 H 1233.68 -4.07032 1.7256 0
M  V30 12814 N 1232.74 -1.33881 -0.831482 0
M  V30 12815 C 1233.67 -1.20587 -1.94914 0
M  V30 12816 C 1234.68 -0.135026 -1.62239 0
M  V30 12817 O 1235.87 -0.386116 -1.74274 0
M  V30 12818 C 1232.97 -0.828712 -3.28612 0
M  V30 12819 C 1232.14 -1.99275 -3.89369 0
M  V30 12820 C 1231.2 -1.59537 -5.01432 0
M  V30 12821 O 1230.23 -2.31076 -5.20185 0
M  V30 12822 N 1231.43 -0.5046 -5.78303 0
M  V30 12823 H 1234.19 -2.16869 -2.06852 0
M  V30 12824 H 1231.76 -1.26723 -1.00761 0
M  V30 12825 H 1233.75 -0.544827 -4.01016 0
M  V30 12826 H 1232.32 0.0436534 -3.1257 0
M  V30 12827 H 1231.54 -2.44185 -3.09463 0
M  V30 12828 H 1232.83 -2.77145 -4.26694 0
M  V30 12829 H 1232.22 0.0903105 -5.65628 0
M  V30 12830 H 1230.78 -0.280415 -6.51197 0
M  V30 12831 N 1234.21 1.05064 -1.1747 0
M  V30 12832 C 1235.46 1.77481 -0.958301 0
M  V30 12833 C 1235.78 1.88725 0.51401 0
M  V30 12834 O 1236.98 2.57895 0.848657 0
M  V30 12835 C 1235.44 3.19048 -1.66543 0
M  V30 12836 C 1235.05 3.1593 -3.17636 0
M  V30 12837 C 1236.79 3.95912 -1.53146 0
M  V30 12838 C 1234.7 4.52293 -3.81032 0
M  V30 12839 H 1233.63 0.665247 -0.354913 0
M  V30 12840 H 1236.28 1.17751 -1.40737 0
M  V30 12841 H 1234.66 3.79113 -1.1441 0
M  V30 12842 H 1235.83 2.65375 -3.76713 0
M  V30 12843 H 1234.15 2.52564 -3.31059 0
M  V30 12844 H 1236.75 4.96737 -1.9788 0
M  V30 12845 H 1237.09 4.13498 -0.482203 0
M  V30 12846 H 1237.62 3.42399 -2.02504 0
M  V30 12847 H 1234.36 4.39913 -4.8596 0
M  V30 12848 H 1233.88 5.02991 -3.26741 0
M  V30 12849 H 1235.56 5.2123 -3.83312 0
M  V30 12850 N 1235.69 0.975146 1.23809 0
M  V30 12851 C 1236.94 0.636678 1.91388 0
M  V30 12852 C 1237.25 -0.832876 1.76982 0
M  V30 12853 O 1238.46 -1.28218 2.39316 0
M  V30 12854 C 1236.92 1.08813 3.43057 0
M  V30 12855 C 1236.52 2.58165 3.66135 0
M  V30 12856 C 1238.27 0.823154 4.16443 0
M  V30 12857 C 1236.17 2.97004 5.11412 0
M  V30 12858 H 1235.1 0.234424 0.716632 0
M  V30 12859 H 1237.76 1.18235 1.40331 0
M  V30 12860 H 1236.14 0.470709 3.93192 0
M  V30 12861 H 1237.31 3.25101 3.26567 0
M  V30 12862 H 1235.63 2.82353 3.06049 0
M  V30 12863 H 1238.22 1.08925 5.23488 0
M  V30 12864 H 1238.57 -0.240705 4.15604 0
M  V30 12865 H 1239.1 1.4019 3.72279 0
M  V30 12866 H 1235.84 4.02492 5.17378 0
M  V30 12867 H 1235.36 2.34759 5.51949 0
M  V30 12868 H 1237.04 2.8732 5.79704 0
M  V30 12869 N 1237.17 -1.38817 0.746158 0
M  V30 12870 C 1238.1 -2.29081 0.0737986 0
M  V30 12871 C 1239.11 -1.47377 -0.691656 0
M  V30 12872 O 1240.3 -1.70326 -0.533973 0
M  V30 12873 C 1237.4 -3.26185 -0.919607 0
M  V30 12874 C 1236.58 -4.36879 -0.213349 0
M  V30 12875 C 1235.64 -5.1422 -1.11644 0
M  V30 12876 O 1234.66 -5.66137 -0.589747 0
M  V30 12877 N 1235.86 -5.26488 -2.44521 0
M  V30 12878 H 1238.63 -2.87424 0.848966 0
M  V30 12879 H 1236.19 -1.50518 0.596314 0
M  V30 12880 H 1238.18 -3.74802 -1.52662 0
M  V30 12881 H 1236.75 -2.68793 -1.5959 0
M  V30 12882 H 1235.97 -3.89994 0.574285 0
M  V30 12883 H 1237.26 -5.08053 0.275655 0
M  V30 12884 H 1236.66 -4.85846 -2.89777 0
M  V30 12885 H 1235.21 -5.78505 -3.00291 0
M  V30 12886 N 1238.65 -0.49465 -1.49636 0
M  V30 12887 C 1239.56 0.291881 -2.32777 0
M  V30 12888 C 1240.57 0.973468 -1.44221 0
M  V30 12889 O 1241.75 0.956252 -1.77251 0
M  V30 12890 C 1238.81 1.34609 -3.19502 0
M  V30 12891 C 1237.88 0.678611 -4.23903 0
M  V30 12892 C 1237.11 1.68259 -5.06483 0
M  V30 12893 O 1237.33 2.91176 -4.90482 0
M  V30 12894 O 1236.27 1.24141 -5.88959 0
M  V30 12895 H 1240.09 -0.388459 -3.01205 0
M  V30 12896 H 1237.68 -0.256086 -1.47189 0
M  V30 12897 H 1239.56 1.95617 -3.73245 0
M  V30 12898 H 1238.23 2.00947 -2.53775 0
M  V30 12899 H 1237.14 0.0289541 -3.74089 0
M  V30 12900 H 1238.47 0.0577817 -4.92166 0
M  V30 12901 N 1240.13 1.55939 -0.228214 0
M  V30 12902 C 1241.06 2.2357 0.6737 0
M  V30 12903 C 1242.04 1.20964 1.1959 0
M  V30 12904 O 1243.22 1.49568 1.23867 0
M  V30 12905 C 1240.35 2.92076 1.87906 0
M  V30 12906 C 1239.31 4.01211 1.49043 0
M  V30 12907 C 1238.63 4.57047 2.77511 0
M  V30 12908 C 1239.93 5.17914 0.67544 0
M  V30 12909 H 1241.63 2.99199 0.109806 0
M  V30 12910 H 1239.17 1.43908 0.0513732 0
M  V30 12911 H 1241.12 3.38083 2.51551 0
M  V30 12912 H 1239.85 2.13906 2.46803 0
M  V30 12913 H 1238.51 3.55945 0.877411 0
M  V30 12914 H 1238.16 3.75599 3.34566 0
M  V30 12915 H 1237.86 5.30707 2.52239 0
M  V30 12916 H 1239.38 5.05776 3.42087 0
M  V30 12917 H 1240.79 5.60261 1.21575 0
M  V30 12918 H 1239.19 5.97847 0.519536 0
M  V30 12919 H 1240.26 4.83866 -0.316495 0
M  V30 12920 N 1241.6 -0.0451101 1.57535 0
M  V30 12921 C 1242.83 -0.755068 1.93167 0
M  V30 12922 C 1243.25 -1.68949 0.826915 0
M  V30 12923 O 1242.61 -1.79978 -0.218534 0
M  V30 12924 C 1242.66 -1.50201 3.27829 0
M  V30 12925 O 1241.76 -2.61434 3.18945 0
M  V30 12926 H 1241.11 -0.204219 0.631815 0
M  V30 12927 H 1243.64 -0.00537504 2.04599 0
M  V30 12928 H 1243.65 -1.87547 3.6234 0
M  V30 12929 H 1242.32 -0.816591 4.07805 0
M  V30 12930 H 1240.9 -2.26749 2.96039 0
M  V30 12931 N 1243.08 -1.54377 -0.317073 0
M  V30 12932 C 1244.33 -1.73149 -1.05581 0
M  V30 12933 C 1244.66 -0.507176 -1.8746 0
M  V30 12934 O 1243.94 0.495837 -1.88074 0
M  V30 12935 C 1244.22 -3.01098 -1.97515 0
M  V30 12936 C 1244.07 -4.33794 -1.18922 0
M  V30 12937 C 1245.39 -3.24831 -2.9694 0
M  V30 12938 H 1242.51 -0.630011 -0.382434 0
M  V30 12939 H 1245.15 -1.87079 -0.331873 0
M  V30 12940 H 1243.3 -2.89352 -2.59244 0
M  V30 12941 H 1244.97 -4.57433 -0.596039 0
M  V30 12942 H 1243.22 -4.31005 -0.491612 0
M  V30 12943 H 1243.89 -5.19554 -1.86462 0
M  V30 12944 H 1246.36 -3.3608 -2.45335 0
M  V30 12945 H 1245.24 -4.15702 -3.58445 0
M  V30 12946 H 1245.5 -2.42365 -3.69745 0
M  V30 12947 N 1244.56 0.579466 -1.4656 0
M  V30 12948 C 1245.51 1.70937 -1.57744 0
M  V30 12949 C 1246.5 1.6343 -0.44577 0
M  V30 12950 O 1247.71 1.68884 -0.622762 0
M  V30 12951 H 1244.08 0.565218 -0.496017 0
M  V30 12952 H 1246.05 1.58636 -2.52739 0
M  V30 12953 C 1244.8 3.09321 -1.58794 0
M  V30 12954 H 1244.13 3.1577 -2.45213 0
M  V30 12955 H 1245.57 3.88132 -1.70674 0
M  V30 12956 C 1244.03 3.35404 -0.317165 0
M  V30 12957 O 1244.56 3.97325 0.591228 0
M  V30 12958 N 1242.76 2.89883 -0.204071 0
M  V30 12959 H 1242.31 2.39672 -0.944194 0
M  V30 12960 H 1242.27 3.07706 0.645303 0
M  V30 12961 N 1246.04 1.3432 0.824371 0
M  V30 12962 C 1246.97 1.2012 1.94027 0
M  V30 12963 C 1247.95 0.0931808 1.62333 0
M  V30 12964 O 1249.13 0.258069 1.86725 0
M  V30 12965 C 1246.26 0.845628 3.27974 0
M  V30 12966 C 1245.31 1.9632 3.7863 0
M  V30 12967 S 1246.14 3.57642 3.98563 0
M  V30 12968 C 1247.3 3.24124 5.35439 0
M  V30 12969 H 1247.53 2.14579 2.05775 0
M  V30 12970 H 1245.06 1.1933 0.979783 0
M  V30 12971 H 1247.02 0.647266 4.05365 0
M  V30 12972 H 1245.68 -0.0805948 3.13997 0
M  V30 12973 H 1244.87 1.66812 4.75594 0
M  V30 12974 H 1244.48 2.11897 3.08181 0
M  V30 12975 H 1246.77 2.75848 6.188 0
M  V30 12976 H 1247.71 4.20222 5.69929 0
M  V30 12977 H 1248.12 2.60343 5.00881 0
M  V30 12978 N 1247.52 -1.0444 1.18026 0
M  V30 12979 C 1248.79 -1.74533 0.883045 0
M  V30 12980 C 1249.17 -2.01944 -0.614975 0
M  V30 12981 O 1248.52 -1.66158 -1.56855 0
M  V30 12982 C 1248.73 -3.0332 1.72621 0
M  V30 12983 C 1250.08 -3.77128 1.9509 0
M  V30 12984 O 1251.1 -3.13209 1.69643 0
M  V30 12985 O 1249.96 -4.92001 2.37903 0
M  V30 12986 H 1247.06 -0.759315 0.327673 0
M  V30 12987 H 1249.6 -1.10539 1.2876 0
M  V30 12988 H 1248.37 -2.79171 2.74188 0
M  V30 12989 H 1248 -3.75052 1.31993 0
M  V30 12990 N 1248.99 -0.981699 -1.2329 0
M  V30 12991 C 1249.96 -0.527992 -2.23036 0
M  V30 12992 C 1250.96 0.383083 -1.5617 0
M  V30 12993 O 1252.15 0.176595 -1.73303 0
M  V30 12994 C 1249.28 0.233501 -3.40099 0
M  V30 12995 H 1250.47 -1.40995 -2.64689 0
M  V30 12996 H 1248.03 -0.767724 -1.36146 0
M  V30 12997 H 1248.76 1.13194 -3.03904 0
M  V30 12998 H 1248.55 -0.420505 -3.89839 0
M  V30 12999 H 1250.04 0.539485 -4.14101 0
M  V30 13000 N 1250.47 1.3842 -0.753509 0
M  V30 13001 C 1251.4 2.29039 -0.0859463 0
M  V30 13002 C 1252.42 1.47742 0.68383 0
M  V30 13003 O 1253.61 1.70607 0.524933 0
M  V30 13004 C 1250.71 3.26668 0.902296 0
M  V30 13005 C 1249.88 4.36986 0.190178 0
M  V30 13006 C 1248.94 5.14805 1.08916 0
M  V30 13007 O 1247.96 5.66441 0.559715 0
M  V30 13008 N 1249.17 5.27777 2.41726 0
M  V30 13009 H 1251.93 2.8697 -0.864196 0
M  V30 13010 H 1249.49 1.502 -0.604288 0
M  V30 13011 H 1251.48 3.75606 1.50672 0
M  V30 13012 H 1250.05 2.69636 1.58163 0
M  V30 13013 H 1249.27 3.89684 -0.594959 0
M  V30 13014 H 1250.56 5.07899 -0.302594 0
M  V30 13015 H 1249.96 4.87376 2.87196 0
M  V30 13016 H 1248.52 5.8009 2.97219 0
M  V30 13017 N 1251.95 0.502579 1.49372 0
M  V30 13018 C 1252.88 -0.321683 2.25921 0
M  V30 13019 C 1253.86 -0.968999 1.30572 0
M  V30 13020 O 1255.05 -0.998788 1.59864 0
M  V30 13021 C 1252.17 -1.45318 3.05942 0
M  V30 13022 C 1251.22 -0.920076 4.16457 0
M  V30 13023 S 1252.05 0.190402 5.35161 0
M  V30 13024 C 1253.21 -0.944222 6.18737 0
M  V30 13025 H 1253.44 0.328036 2.95485 0
M  V30 13026 H 1250.97 0.287903 1.51692 0
M  V30 13027 H 1252.93 -2.1015 3.52629 0
M  V30 13028 H 1251.59 -2.07452 2.35844 0
M  V30 13029 H 1250.79 -1.76808 4.71969 0
M  V30 13030 H 1250.39 -0.348944 3.72369 0
M  V30 13031 H 1252.68 -1.8491 6.51778 0
M  V30 13032 H 1253.62 -0.42769 7.06807 0
M  V30 13033 H 1254.03 -1.21227 5.5133 0
M  V30 13034 N 1253.43 -1.55816 0.23648 0
M  V30 13035 C 1254.84 -1.59159 -0.118601 0
M  V30 13036 C 1255.04 -1.25352 -1.57763 0
M  V30 13037 O 1254.1 -0.995863 -2.32032 0
M  V30 13038 C 1255.41 -2.99885 0.221175 0
M  V30 13039 C 1256.96 -3.12567 0.164624 0
M  V30 13040 C 1257.44 -4.55496 0.478285 0
M  V30 13041 N 1258.93 -4.61215 0.428402 0
M  V30 13042 C 1259.66 -5.69768 0.644398 0
M  V30 13043 N 1259.16 -6.86624 0.922966 0
M  V30 13044 N 1260.95 -5.59143 0.575814 0
M  V30 13045 H 1253.1 -1.76063 1.18809 0
M  V30 13046 H 1255.37 -0.819079 0.477297 0
M  V30 13047 H 1255.07 -3.29326 1.2344 0
M  V30 13048 H 1254.95 -3.74425 -0.456723 0
M  V30 13049 H 1257.33 -2.82914 -0.839263 0
M  V30 13050 H 1257.41 -2.40325 0.876219 0
M  V30 13051 H 1257.06 -4.85868 1.47968 0
M  V30 13052 H 1256.99 -5.25984 -0.254671 0
M  V30 13053 H 1259.48 -3.77251 0.221398 0
M  V30 13054 H 1259.79 -7.6528 1.07548 0
M  V30 13055 H 1258.14 -6.88333 0.960325 0
M  V30 13056 H 1261.33 -4.66727 0.358307 0
M  V30 13057 H 1261.5 -6.43674 0.747548 0
M  V30 13058 N 1254.91 0.036755 -1.57557 0
M  V30 13059 C 1256.15 0.729106 -1.88919 0
M  V30 13060 C 1256.48 1.75769 -0.832801 0
M  V30 13061 O 1255.74 1.94985 0.167173 0
M  V30 13062 C 1256.04 1.44206 -3.27016 0
M  V30 13063 C 1255.7 0.550184 -4.47531 0
M  V30 13064 C 1254.36 0.304511 -4.80236 0
M  V30 13065 C 1256.72 -0.0660664 -5.21158 0
M  V30 13066 C 1254.04 -0.566316 -5.8396 0
M  V30 13067 C 1256.4 -0.92455 -6.25807 0
M  V30 13068 C 1255.06 -1.17976 -6.56992 0
M  V30 13069 H 1254.33 0.266799 -0.691303 0
M  V30 13070 H 1256.98 -0.0108698 -1.91497 0
M  V30 13071 H 1255.28 2.25516 -3.2039 0
M  V30 13072 H 1256.98 1.98317 -3.48527 0
M  V30 13073 H 1253.57 0.751814 -4.21955 0
M  V30 13074 H 1257.75 0.110784 -4.96176 0
M  V30 13075 H 1253.01 -0.772428 -6.06501 0
M  V30 13076 H 1257.18 -1.40861 -6.82005 0
M  V30 13077 H 1254.81 -1.85627 -7.37188 0
M  V30 13078 N 1256.39 1.54543 0.308881 0
M  V30 13079 C 1257.63 1.73706 1.04661 0
M  V30 13080 C 1257.96 0.517111 1.87189 0
M  V30 13081 O 1257.24 -0.485856 1.88334 0
M  V30 13082 C 1257.52 3.02141 1.95916 0
M  V30 13083 C 1257.38 4.34419 1.1662 0
M  V30 13084 C 1258.69 3.26401 2.95213 0
M  V30 13085 H 1255.81 0.63203 0.379087 0
M  V30 13086 H 1258.46 1.87253 0.321947 0
M  V30 13087 H 1256.61 2.90723 2.57706 0
M  V30 13088 H 1258.28 4.57743 0.571772 0
M  V30 13089 H 1256.52 4.3126 0.468747 0
M  V30 13090 H 1257.19 5.20535 1.83704 0
M  V30 13091 H 1259.67 3.37377 2.43549 0
M  V30 13092 H 1258.54 4.17597 3.56235 0
M  V30 13093 H 1258.8 2.44322 3.68455 0
M  V30 13094 N 1257.86 -0.571685 1.46866 0
M  V30 13095 C 1259.27 -1.15383 1.46778 0
M  V30 13096 C 1259.63 -1.95023 0.214576 0
M  V30 13097 O 1258.75 -2.05386 -0.681574 0
M  V30 13098 C 1259.35 -2.09915 2.65935 0
M  V30 13099 C 1257.9 -2.6343 2.68852 0
M  V30 13100 C 1257.05 -1.39517 2.39646 0
M  V30 13101 H 1260 -0.359036 1.54585 0
M  V30 13102 H 1260.02 -2.9356 2.42081 0
M  V30 13103 H 1259.54 -1.51923 3.57129 0
M  V30 13104 H 1257.64 -3.2526 1.8176 0
M  V30 13105 H 1257.75 -3.05412 3.69134 0
M  V30 13106 H 1256.11 -1.69702 1.8993 0
M  V30 13107 H 1256.9 -0.833399 3.33031 0
M  V30 13108 N 1259.34 -1.34755 -0.817236 0
M  V30 13109 C 1260.27 -1.29452 -1.94331 0
M  V30 13110 C 1261.25 -0.170902 -1.69239 0
M  V30 13111 O 1262.44 -0.364173 -1.90755 0
M  V30 13112 C 1259.57 -1.05497 -3.30889 0
M  V30 13113 C 1258.52 -2.14386 -3.70436 0
M  V30 13114 C 1257.85 -1.75612 -5.05039 0
M  V30 13115 C 1259.15 -3.56265 -3.81933 0
M  V30 13116 H 1260.84 -2.23672 -1.99025 0
M  V30 13117 H 1258.39 -1.07674 -0.956159 0
M  V30 13118 H 1260.34 -1.0043 -4.09257 0
M  V30 13119 H 1259.06 -0.0772059 -3.26509 0
M  V30 13120 H 1257.72 -2.18532 -2.94345 0
M  V30 13121 H 1257.37 -0.764809 -4.97152 0
M  V30 13122 H 1257.07 -2.48495 -5.3247 0
M  V30 13123 H 1258.6 -1.72051 -5.85859 0
M  V30 13124 H 1260.01 -3.545 -4.50558 0
M  V30 13125 H 1258.41 -4.27818 -4.20822 0
M  V30 13126 H 1259.48 -3.93192 -2.83775 0
M  V30 13127 N 1260.82 1.03812 -1.18578 0
M  V30 13128 C 1262.07 1.76455 -0.977071 0
M  V30 13129 C 1262.38 1.8926 0.493964 0
M  V30 13130 O 1263.59 2.58781 0.821256 0
M  V30 13131 C 1262.04 3.17264 -1.69917 0
M  V30 13132 C 1261.65 3.12543 -3.20969 0
M  V30 13133 C 1263.4 3.94266 -1.57337 0
M  V30 13134 C 1261.3 4.48226 -3.85807 0
M  V30 13135 H 1260.23 0.661445 -0.361949 0
M  V30 13136 H 1262.88 1.16252 -1.41978 0
M  V30 13137 H 1261.27 3.77878 -1.18424 0
M  V30 13138 H 1262.44 2.61364 -3.79507 0
M  V30 13139 H 1260.75 2.49039 -3.33719 0
M  V30 13140 H 1263.35 4.9461 -2.03137 0
M  V30 13141 H 1263.69 4.12963 -0.526033 0
M  V30 13142 H 1264.23 3.40232 -2.06124 0
M  V30 13143 H 1260.97 4.34734 -4.90599 0
M  V30 13144 H 1260.49 4.99497 -3.32058 0
M  V30 13145 H 1262.17 5.17135 -3.88819 0
M  V30 13146 N 1262.3 0.988223 1.22768 0
M  V30 13147 C 1263.23 0.554478 2.26821 0
M  V30 13148 C 1264.21 -0.416293 1.64927 0
M  V30 13149 O 1265.39 -0.30795 1.91743 0
M  V30 13150 C 1262.52 -0.136266 3.47033 0
M  V30 13151 C 1261.48 0.752575 4.21332 0
M  V30 13152 C 1260.8 -0.0708236 5.34653 0
M  V30 13153 C 1262.1 2.04717 4.80508 0
M  V30 13154 H 1263.8 1.42423 2.63355 0
M  V30 13155 H 1261.34 0.686267 1.26595 0
M  V30 13156 H 1263.3 -0.451068 4.18979 0
M  V30 13157 H 1262.02 -1.04053 3.09581 0
M  V30 13158 H 1260.68 1.05095 3.51213 0
M  V30 13159 H 1260.33 -0.975859 4.93443 0
M  V30 13160 H 1260.03 0.520835 5.85287 0
M  V30 13161 H 1261.55 -0.379828 6.09417 0
M  V30 13162 H 1262.97 1.79663 5.44421 0
M  V30 13163 H 1261.36 2.58726 5.41462 0
M  V30 13164 H 1262.43 2.72896 4.00819 0
M  V30 13165 N 1263.78 -1.38018 0.760839 0
M  V30 13166 C 1264.74 -2.28734 0.146154 0
M  V30 13167 C 1265.74 -1.47525 -0.639768 0
M  V30 13168 O 1266.93 -1.6788 -0.464964 0
M  V30 13169 C 1264.06 -3.31356 -0.801019 0
M  V30 13170 H 1265.25 -2.84599 0.945692 0
M  V30 13171 H 1262.81 -1.471 0.528323 0
M  V30 13172 H 1263.54 -2.80594 -1.62597 0
M  V30 13173 H 1263.33 -3.91366 -0.239775 0
M  V30 13174 H 1264.82 -3.99171 -1.22687 0
M  V30 13175 N 1265.25 -0.510493 -1.49103 0
M  V30 13176 C 1266.67 -0.167061 -1.58723 0
M  V30 13177 C 1266.87 1.32886 -1.51471 0
M  V30 13178 O 1265.93 2.10559 -1.39359 0
M  V30 13179 C 1267.24 -0.752293 -2.91137 0
M  V30 13180 C 1268.79 -0.719258 -3.04624 0
M  V30 13181 C 1269.26 -1.28272 -4.39671 0
M  V30 13182 N 1270.75 -1.24383 -4.46187 0
M  V30 13183 C 1271.49 -1.6499 -5.4915 0
M  V30 13184 N 1270.98 -2.13235 -6.59168 0
M  V30 13185 N 1272.78 -1.56348 -5.39918 0
M  V30 13186 H 1264.93 -1.48296 -1.5206 0
M  V30 13187 H 1267.19 -0.615683 -0.72086 0
M  V30 13188 H 1266.9 -1.80178 -3.02041 0
M  V30 13189 H 1266.77 -0.218152 -3.76569 0
M  V30 13190 H 1269.16 0.321413 -2.93344 0
M  V30 13191 H 1269.24 -1.29065 -2.20852 0
M  V30 13192 H 1268.88 -2.32222 -4.51703 0
M  V30 13193 H 1268.81 -0.687179 -5.22097 0
M  V30 13194 H 1271.3 -0.890446 -3.67259 0
M  V30 13195 H 1271.62 -2.42266 -7.33844 0
M  V30 13196 H 1269.96 -2.17216 -6.60183 0
M  V30 13197 H 1273.15 -1.18469 -4.52861 0
M  V30 13198 H 1273.33 -1.88317 -6.20033 0
M  V30 13199 N 1266.73 1.55688 -0.24474 0
M  V30 13200 C 1267.66 2.24272 0.64995 0
M  V30 13201 C 1268.64 1.22226 1.183 0
M  V30 13202 O 1269.83 1.50873 1.22274 0
M  V30 13203 C 1266.96 2.94053 1.84798 0
M  V30 13204 C 1265.91 4.02769 1.44779 0
M  V30 13205 C 1265.24 4.59965 2.72647 0
M  V30 13206 C 1266.54 5.18601 0.62047 0
M  V30 13207 H 1268.23 2.99298 0.0780654 0
M  V30 13208 H 1265.78 1.43955 0.0361069 0
M  V30 13209 H 1267.73 3.40732 2.47951 0
M  V30 13210 H 1266.45 2.16511 2.44521 0
M  V30 13211 H 1265.11 3.56856 0.839609 0
M  V30 13212 H 1264.76 3.79126 3.30564 0
M  V30 13213 H 1264.46 5.33352 2.46596 0
M  V30 13214 H 1265.99 5.09376 3.36703 0
M  V30 13215 H 1267.4 5.61519 1.15625 0
M  V30 13216 H 1265.8 5.98364 0.456097 0
M  V30 13217 H 1266.87 4.83503 -0.367798 0
M  V30 13218 N 1268.21 -0.0283989 1.57574 0
M  V30 13219 C 1269.14 -1.02828 2.09639 0
M  V30 13220 C 1270.12 -1.37668 0.999076 0
M  V30 13221 O 1271.31 -1.4654 1.27435 0
M  V30 13222 C 1268.44 -2.329 2.57633 0
M  V30 13223 C 1267.39 -2.12301 3.71635 0
M  V30 13224 C 1266.72 -3.48138 4.05837 0
M  V30 13225 C 1268.02 -1.50864 5.00037 0
M  V30 13226 H 1269.71 -0.594876 2.93431 0
M  V30 13227 H 1267.26 -0.284701 1.41158 0
M  V30 13228 H 1269.21 -3.03179 2.92678 0
M  V30 13229 H 1267.93 -2.78302 1.70926 0
M  V30 13230 H 1266.59 -1.44454 3.3694 0
M  V30 13231 H 1266.24 -3.9119 3.16195 0
M  V30 13232 H 1265.94 -3.3518 4.82626 0
M  V30 13233 H 1267.46 -4.19779 4.43417 0
M  V30 13234 H 1268.88 -2.11062 5.33035 0
M  V30 13235 H 1267.27 -1.48479 5.81441 0
M  V30 13236 H 1268.34 -0.474541 4.82572 0
M  V30 13237 N 1269.69 -1.54705 -0.300681 0
M  V30 13238 C 1270.62 -1.88679 -1.37559 0
M  V30 13239 C 1271.6 -0.74574 -1.52881 0
M  V30 13240 O 1272.78 -1.0015 -1.66384 0
M  V30 13241 C 1269.91 -2.13438 -2.73974 0
M  V30 13242 C 1268.87 -3.29284 -2.73415 0
M  V30 13243 C 1268.19 -3.39462 -4.13122 0
M  V30 13244 C 1269.49 -4.66382 -2.35128 0
M  V30 13245 H 1271.19 -2.78707 -1.09373 0
M  V30 13246 H 1268.73 -1.341 -0.524704 0
M  V30 13247 H 1270.69 -2.35791 -3.49257 0
M  V30 13248 H 1269.41 -1.20181 -3.03684 0
M  V30 13249 H 1268.07 -3.06855 -2.00588 0
M  V30 13250 H 1267.72 -2.43721 -4.4001 0
M  V30 13251 H 1267.42 -4.17334 -4.1365 0
M  V30 13252 H 1268.94 -3.64075 -4.90185 0
M  V30 13253 H 1270.36 -4.88463 -3.00128 0
M  V30 13254 H 1268.75 -5.4697 -2.46867 0
M  V30 13255 H 1269.82 -4.67078 -1.30256 0
M  V30 13256 N 1271.17 0.563888 -1.47167 0
M  V30 13257 C 1272.42 1.31766 -1.5271 0
M  V30 13258 C 1272.73 1.94664 -0.191164 0
M  V30 13259 O 1273.93 2.71214 -0.124543 0
M  V30 13260 C 1272.39 2.38907 -2.69168 0
M  V30 13261 C 1272 1.8223 -4.09263 0
M  V30 13262 C 1273.74 3.15508 -2.83999 0
M  V30 13263 C 1271.65 2.87111 -5.17031 0
M  V30 13264 H 1270.58 0.495421 -0.568396 0
M  V30 13265 H 1273.23 0.599665 -1.73425 0
M  V30 13266 H 1271.61 3.13591 -2.4182 0
M  V30 13267 H 1272.79 1.13963 -4.46485 0
M  V30 13268 H 1271.1 1.18235 -3.99261 0
M  V30 13269 H 1273.7 3.93816 -3.61681 0
M  V30 13270 H 1274.04 3.69277 -1.92197 0
M  V30 13271 H 1274.57 2.47934 -3.11085 0
M  V30 13272 H 1271.31 2.38204 -6.10687 0
M  V30 13273 H 1270.83 3.53809 -4.84334 0
M  V30 13274 H 1272.51 3.50724 -5.43692 0
M  V30 13275 N 1272.64 1.35187 0.810078 0
M  V30 13276 C 1273.89 1.28264 1.56699 0
M  V30 13277 C 1274.22 -0.143906 1.93967 0
M  V30 13278 O 1273.47 -1.10832 1.61291 0
M  V30 13279 C 1273.77 2.13135 2.86894 0
M  V30 13280 C 1273.44 3.61974 2.6886 0
M  V30 13281 C 1272.1 4.02545 2.63649 0
M  V30 13282 C 1274.45 4.5643 2.51636 0
M  V30 13283 C 1271.78 5.35745 2.39154 0
M  V30 13284 C 1274.13 5.89824 2.2867 0
M  V30 13285 C 1272.8 6.29544 2.2188 0
M  V30 13286 H 1272.07 0.469353 0.573401 0
M  V30 13287 H 1274.71 1.67051 0.936282 0
M  V30 13288 H 1273.02 1.67218 3.54324 0
M  V30 13289 H 1274.72 2.05117 3.44569 0
M  V30 13290 H 1271.31 3.29777 2.73761 0
M  V30 13291 H 1275.49 4.25974 2.54677 0
M  V30 13292 H 1270.75 5.65524 2.32363 0
M  V30 13293 H 1274.92 6.62597 2.14333 0
M  V30 13294 H 1272.55 7.32689 2.0266 0
M  V30 13295 N 1274.12 -1.03182 1.19127 0
M  V30 13296 C 1275.4 -1.73586 0.901507 0
M  V30 13297 C 1275.78 -2.02585 -0.593521 0
M  V30 13298 O 1275.13 -1.67813 -1.55084 0
M  V30 13299 C 1275.34 -3.01472 1.75829 0
M  V30 13300 C 1276.69 -3.75037 1.99078 0
M  V30 13301 O 1277.71 -3.11392 1.72956 0
M  V30 13302 O 1276.57 -4.8945 2.43108 0
M  V30 13303 H 1273.66 -0.755797 0.335708 0
M  V30 13304 H 1276.21 -1.09167 1.29925 0
M  V30 13305 H 1274.98 -2.76247 2.77134 0
M  V30 13306 H 1274.6 -3.73631 1.35963 0
M  V30 13307 N 1275.6 -0.99472 -1.22242 0
M  V30 13308 C 1276.83 -0.689096 -1.94769 0
M  V30 13309 C 1277.24 0.750597 -1.73674 0
M  V30 13310 O 1276.58 1.51836 -1.03399 0
M  V30 13311 C 1276.64 -0.917454 -3.47596 0
M  V30 13312 C 1276.31 -2.34198 -3.92429 0
M  V30 13313 C 1277.3 -3.3216 -3.99957 0
M  V30 13314 C 1274.99 -2.6769 -4.25026 0
M  V30 13315 C 1276.98 -4.61686 -4.3946 0
M  V30 13316 C 1274.67 -3.97435 -4.64208 0
M  V30 13317 C 1275.67 -4.94244 -4.71394 0
M  V30 13318 O 1275.36 -6.2167 -5.09688 0
M  V30 13319 H 1275.09 -0.253914 -0.626501 0
M  V30 13320 H 1277.64 -1.33271 -1.56294 0
M  V30 13321 H 1275.87 -0.21666 -3.86093 0
M  V30 13322 H 1277.56 -0.6068 -4.01339 0
M  V30 13323 H 1278.33 -3.07619 -3.74961 0
M  V30 13324 H 1274.21 -1.93039 -4.18637 0
M  V30 13325 H 1277.75 -5.37248 -4.44983 0
M  V30 13326 H 1273.65 -4.21765 -4.88656 0
M  V30 13327 H 1274.42 -6.25634 -5.27755 0
M  V30 13328 N 1277.08 1.37613 -0.768148 0
M  V30 13329 C 1278.01 2.3291 -0.165911 0
M  V30 13330 C 1278.99 1.556 0.687205 0
M  V30 13331 O 1280.17 1.83854 0.625407 0
M  V30 13332 C 1277.3 3.39822 0.7168 0
M  V30 13333 C 1276.26 4.27986 -0.0347264 0
M  V30 13334 C 1275.58 5.2588 0.967192 0
M  V30 13335 C 1276.88 5.08052 -1.21164 0
M  V30 13336 H 1278.58 2.83524 -0.962006 0
M  V30 13337 H 1276.12 1.36318 -0.464051 0
M  V30 13338 H 1278.08 4.05464 1.14789 0
M  V30 13339 H 1276.8 2.87725 1.54538 0
M  V30 13340 H 1275.46 3.6387 -0.446557 0
M  V30 13341 H 1275.11 4.70064 1.79022 0
M  V30 13342 H 1274.81 5.85726 0.468913 0
M  V30 13343 H 1276.33 5.94397 1.3973 0
M  V30 13344 H 1277.75 5.66853 -0.857373 0
M  V30 13345 H 1276.14 5.77206 -1.64176 0
M  V30 13346 H 1277.21 4.40936 -2.0175 0
M  V30 13347 N 1278.56 0.518393 1.4883 0
M  V30 13348 C 1279.49 -0.239685 2.32267 0
M  V30 13349 C 1280.47 -0.94613 1.41359 0
M  V30 13350 O 1281.65 -0.934162 1.70256 0
M  V30 13351 C 1278.78 -1.29411 3.22289 0
M  V30 13352 C 1277.74 -0.706504 4.22129 0
M  V30 13353 C 1277.06 -1.86273 5.01205 0
M  V30 13354 C 1278.36 0.314079 5.21355 0
M  V30 13355 H 1280.06 0.4568 2.95895 0
M  V30 13356 H 1277.6 0.221126 1.42292 0
M  V30 13357 H 1279.56 -1.8323 3.7948 0
M  V30 13358 H 1278.28 -2.02001 2.56638 0
M  V30 13359 H 1276.94 -0.189924 3.66108 0
M  V30 13360 H 1276.59 -2.57674 4.31988 0
M  V30 13361 H 1276.29 -1.47554 5.68772 0
M  V30 13362 H 1277.81 -2.40492 5.61245 0
M  V30 13363 H 1279.22 -0.136604 5.73137 0
M  V30 13364 H 1277.62 0.618026 5.96909 0
M  V30 13365 H 1278.69 1.22394 4.69199 0
M  V30 13366 N 1280.03 -1.55556 0.252993 0
M  V30 13367 C 1280.98 -2.18298 -0.658028 0
M  V30 13368 C 1281.97 -1.14072 -1.13474 0
M  V30 13369 O 1283.16 -1.39962 -1.0835 0
M  V30 13370 C 1280.29 -2.89067 -1.8519 0
M  V30 13371 C 1279.38 -4.00556 -1.3934 0
M  V30 13372 N 1279.77 -5.01612 -0.649538 0
M  V30 13373 C 1278.06 -4.13222 -1.67819 0
M  V30 13374 C 1278.77 -5.80244 -0.411347 0
M  V30 13375 N 1277.74 -5.34742 -0.977342 0
M  V30 13376 H 1281.54 -2.93787 -0.0816162 0
M  V30 13377 H 1279.06 -1.62305 0.0555728 0
M  V30 13378 H 1281.05 -3.32448 -2.51563 0
M  V30 13379 H 1279.71 -2.15082 -2.43248 0
M  V30 13380 H 1280.73 -5.17036 -0.299043 0
M  V30 13381 H 1277.4 -3.50414 -2.26972 0
M  V30 13382 H 1278.79 -6.71651 0.182911 0
M  V30 13383 N 1281.51 0.0200419 -1.57587 0
M  V30 13384 C 1282.44 1.0456 -2.0396 0
M  V30 13385 C 1283.46 1.31922 -0.953962 0
M  V30 13386 O 1284.65 1.2925 -1.23112 0
M  V30 13387 C 1281.75 2.38514 -2.40758 0
M  V30 13388 C 1280.92 2.3038 -3.71812 0
M  V30 13389 C 1279.98 3.46856 -3.95698 0
M  V30 13390 O 1279 3.25944 -4.66636 0
M  V30 13391 N 1280.21 4.69033 -3.42036 0
M  V30 13392 H 1282.97 0.650282 -2.9256 0
M  V30 13393 H 1280.53 0.207818 -1.60561 0
M  V30 13394 H 1282.52 3.15172 -2.53868 0
M  V30 13395 H 1281.09 2.69859 -1.57781 0
M  V30 13396 H 1280.31 1.38762 -3.6897 0
M  V30 13397 H 1281.6 2.22097 -4.57767 0
M  V30 13398 H 1281 4.88923 -2.84553 0
M  V30 13399 H 1279.56 5.43025 -3.6051 0
M  V30 13400 N 1282.99 1.54862 0.292472 0
M  V30 13401 C 1284.22 1.78291 1.04383 0
M  V30 13402 C 1284.63 0.546703 1.81129 0
M  V30 13403 O 1283.97 -0.493286 1.76953 0
M  V30 13404 C 1284.03 2.94321 2.06435 0
M  V30 13405 C 1283.7 4.32095 1.48806 0
M  V30 13406 C 1284.69 5.11808 0.91369 0
M  V30 13407 C 1282.38 4.78714 1.52112 0
M  V30 13408 C 1284.37 6.36266 0.380053 0
M  V30 13409 C 1282.06 6.03132 0.983613 0
M  V30 13410 C 1283.06 6.81744 0.41406 0
M  V30 13411 O 1282.75 8.03817 -0.115268 0
M  V30 13412 H 1282.48 0.598147 0.314954 0
M  V30 13413 H 1285.03 2.02655 0.334661 0
M  V30 13414 H 1283.26 2.65602 2.81056 0
M  V30 13415 H 1284.95 3.05249 2.67541 0
M  V30 13416 H 1285.72 4.76931 0.880988 0
M  V30 13417 H 1281.6 4.17549 1.95382 0
M  V30 13418 H 1285.14 6.9757 -0.0651481 0
M  V30 13419 H 1281.04 6.37494 1.01349 0
M  V30 13420 H 1281.81 8.185 -0.00277496 0
M  V30 13421 N 1284.47 -0.556076 1.47464 0
M  V30 13422 C 1285.69 -1.3434 1.58011 0
M  V30 13423 C 1286.12 -1.86674 0.231138 0
M  V30 13424 O 1285.48 -1.63029 -0.793174 0
M  V30 13425 C 1285.52 -2.48844 2.60977 0
M  V30 13426 O 1284.63 -3.51108 2.16326 0
M  V30 13427 H 1283.97 -0.398986 0.53076 0
M  V30 13428 H 1286.5 -0.671898 1.93253 0
M  V30 13429 H 1286.51 -2.95398 2.81432 0
M  V30 13430 H 1285.18 -2.10109 3.58925 0
M  V30 13431 H 1283.76 -3.10852 2.05975 0
M  V30 13432 N 1285.95 -1.35615 -0.802897 0
M  V30 13433 C 1286.89 -1.28839 -1.91492 0
M  V30 13434 C 1287.86 -0.159621 -1.65331 0
M  V30 13435 O 1289.05 -0.343931 -1.87675 0
M  V30 13436 C 1286.19 -1.06999 -3.28093 0
M  V30 13437 C 1285.3 -2.28831 -3.66416 0
M  V30 13438 C 1284.44 -2.00111 -4.92066 0
M  V30 13439 C 1283.48 -3.17977 -5.23027 0
M  V30 13440 N 1282.61 -2.89009 -6.39858 0
M  V30 13441 H 1287.45 -2.2393 -1.96619 0
M  V30 13442 H 1284.99 -1.1131 -0.961687 0
M  V30 13443 H 1286.95 -0.923673 -4.06847 0
M  V30 13444 H 1285.58 -0.155684 -3.22424 0
M  V30 13445 H 1284.63 -2.54314 -2.82893 0
M  V30 13446 H 1285.94 -3.1683 -3.85253 0
M  V30 13447 H 1285.1 -1.82331 -5.78654 0
M  V30 13448 H 1283.84 -1.09402 -4.75271 0
M  V30 13449 H 1282.84 -3.3633 -4.34928 0
M  V30 13450 H 1284.07 -4.09493 -5.41749 0
M  V30 13451 H 1282.01 -2.00898 -6.24481 0
M  V30 13452 H 1281.93 -3.70544 -6.58964 0
M  V30 13453 H 1283.2 -2.74779 -7.29463 0
M  V30 13454 N 1287.43 1.02549 -1.19673 0
M  V30 13455 C 1288.39 2.09064 -0.939407 0
M  V30 13456 C 1289.39 1.60593 0.0814837 0
M  V30 13457 O 1290.58 1.73521 -0.153626 0
M  V30 13458 C 1287.71 3.38395 -0.412513 0
M  V30 13459 H 1288.9 2.33325 -1.88413 0
M  V30 13460 H 1286.46 1.19211 -1.01086 0
M  V30 13461 H 1287.19 3.19805 0.538094 0
M  V30 13462 H 1286.98 3.74898 -1.14863 0
M  V30 13463 H 1288.47 4.16841 -0.251678 0
M  V30 13464 N 1288.9 1.00119 1.21713 0
M  V30 13465 C 1290.31 0.715611 1.72441 0
M  V30 13466 C 1290.67 -0.767 1.80587 0
M  V30 13467 O 1289.79 -1.59928 1.45781 0
M  V30 13468 C 1290.39 1.29234 3.13184 0
M  V30 13469 C 1288.94 1.05597 3.61284 0
M  V30 13470 C 1288.09 1.40749 2.38925 0
M  V30 13471 H 1291.04 1.17255 1.06943 0
M  V30 13472 H 1291.06 0.67507 3.74464 0
M  V30 13473 H 1290.58 2.37141 3.07223 0
M  V30 13474 H 1288.68 -0.00610816 3.72599 0
M  V30 13475 H 1288.79 1.72517 4.46961 0
M  V30 13476 H 1287.15 0.826207 2.40927 0
M  V30 13477 H 1287.94 2.49678 2.35618 0
M  V30 13478 N 1290.38 -1.37203 0.775435 0
M  V30 13479 C 1291.63 -1.99897 0.341936 0
M  V30 13480 C 1291.96 -1.61414 -1.07978 0
M  V30 13481 O 1291.24 -0.862108 -1.7435 0
M  V30 13482 C 1291.52 -3.56755 0.489715 0
M  V30 13483 C 1291.37 -4.05135 1.95411 0
M  V30 13484 C 1292.69 -4.39978 -0.103779 0
M  V30 13485 H 1289.81 -0.726199 0.125717 0
M  V30 13486 H 1292.45 -1.62826 0.979167 0
M  V30 13487 H 1290.6 -3.88464 -0.0527684 0
M  V30 13488 H 1292.27 -3.83975 2.55658 0
M  V30 13489 H 1290.52 -3.57192 2.46164 0
M  V30 13490 H 1291.19 -5.14161 2.00855 0
M  V30 13491 H 1293.66 -4.14547 0.359134 0
M  V30 13492 H 1292.54 -5.48892 0.0297337 0
M  V30 13493 H 1292.8 -4.25658 -1.19448 0
M  V30 13494 N 1291.86 -0.526279 -1.48553 0
M  V30 13495 C 1293.09 0.00522012 -2.06599 0
M  V30 13496 C 1293.5 1.29039 -1.38368 0
M  V30 13497 O 1292.84 1.77747 -0.463854 0
M  V30 13498 C 1292.9 0.303512 -3.58216 0
M  V30 13499 C 1292.57 -0.887635 -4.48297 0
M  V30 13500 C 1293.56 -1.78504 -4.88295 0
M  V30 13501 C 1291.25 -1.09359 -4.90251 0
M  V30 13502 C 1293.24 -2.87233 -5.69013 0
M  V30 13503 C 1290.93 -2.18402 -5.7074 0
M  V30 13504 C 1291.93 -3.07172 -6.10028 0
M  V30 13505 O 1291.62 -4.14329 -6.88902 0
M  V30 13506 H 1291.35 -0.0287033 -0.67539 0
M  V30 13507 H 1293.9 -0.730244 -1.91981 0
M  V30 13508 H 1292.13 1.0929 -3.70935 0
M  V30 13509 H 1293.82 0.776647 -3.98401 0
M  V30 13510 H 1294.59 -1.63785 -4.56508 0
M  V30 13511 H 1290.47 -0.411922 -4.59156 0
M  V30 13512 H 1294.01 -3.56549 -5.99599 0
M  V30 13513 H 1289.91 -2.33106 -6.0194 0
M  V30 13514 H 1290.67 -4.11993 -7.07251 0
M  V30 13515 N 1293.34 1.5542 -0.261239 0
M  V30 13516 C 1294.27 2.24949 0.626126 0
M  V30 13517 C 1295.25 1.23474 1.16997 0
M  V30 13518 O 1296.43 1.52161 1.20667 0
M  V30 13519 C 1293.56 2.95996 1.81669 0
M  V30 13520 C 1292.52 4.04282 1.40499 0
M  V30 13521 C 1291.84 4.62831 2.67753 0
M  V30 13522 C 1293.14 5.1923 0.56543 0
M  V30 13523 H 1294.84 2.99364 0.0463164 0
M  V30 13524 H 1292.38 1.43985 0.0208366 0
M  V30 13525 H 1294.34 3.43343 2.44323 0
M  V30 13526 H 1293.06 2.19093 2.42211 0
M  V30 13527 H 1291.72 3.57726 0.801712 0
M  V30 13528 H 1291.37 3.82611 3.26524 0
M  V30 13529 H 1291.07 5.35938 2.40925 0
M  V30 13530 H 1292.59 5.12918 3.31281 0
M  V30 13531 H 1294.01 5.62714 1.09663 0
M  V30 13532 H 1292.4 5.98814 0.392607 0
M  V30 13533 H 1293.47 4.83086 -0.419059 0
M  V30 13534 N 1294.82 -0.0116844 1.57596 0
M  V30 13535 C 1296.06 -0.698958 1.90055 0
M  V30 13536 C 1296.39 -1.74422 0.860659 0
M  V30 13537 O 1295.65 -1.95226 -0.136132 0
M  V30 13538 C 1295.94 -1.38985 3.29269 0
M  V30 13539 C 1295.61 -0.478916 4.48349 0
M  V30 13540 C 1294.27 -0.228071 4.80659 0
M  V30 13541 C 1296.62 0.14897 5.20987 0
M  V30 13542 C 1293.95 0.659147 5.82986 0
M  V30 13543 C 1296.3 1.02399 6.24257 0
M  V30 13544 C 1294.97 1.28413 6.55032 0
M  V30 13545 H 1294.24 -0.255767 0.69546 0
M  V30 13546 H 1296.89 0.0413339 1.91455 0
M  V30 13547 H 1295.19 -2.2039 3.23937 0
M  V30 13548 H 1296.89 -1.92747 3.51638 0
M  V30 13549 H 1293.48 -0.68459 4.23097 0
M  V30 13550 H 1297.66 -0.0318326 4.9629 0
M  V30 13551 H 1292.92 0.86882 6.05195 0
M  V30 13552 H 1297.09 1.51694 6.79678 0
M  V30 13553 H 1294.72 1.97332 7.34142 0
M  V30 13554 N 1296.29 -1.55015 -0.284256 0
M  V30 13555 C 1297.2 -1.90203 -1.37332 0
M  V30 13556 C 1298.22 -0.797994 -1.54622 0
M  V30 13557 O 1299.4 -1.09602 -1.68965 0
M  V30 13558 C 1296.46 -2.15687 -2.71441 0
M  V30 13559 C 1295.52 -3.39313 -2.62993 0
M  V30 13560 C 1294.75 -3.63571 -3.90707 0
M  V30 13561 O 1294.98 -2.90538 -4.9086 0
M  V30 13562 O 1293.91 -4.57102 -3.91589 0
M  V30 13563 H 1297.74 -2.82888 -1.1049 0
M  V30 13564 H 1295.32 -1.41418 -0.481798 0
M  V30 13565 H 1297.2 -2.33553 -3.50758 0
M  V30 13566 H 1295.88 -1.26185 -2.98092 0
M  V30 13567 H 1294.79 -3.26793 -1.82091 0
M  V30 13568 H 1296.12 -4.28997 -2.41293 0
M  V30 13569 N 1297.77 0.548248 -1.47757 0
M  V30 13570 C 1298.7 1.66999 -1.56984 0
M  V30 13571 C 1299.72 1.56302 -0.455372 0
M  V30 13572 O 1300.91 1.63096 -0.725399 0
M  V30 13573 C 1298.01 3.0553 -1.46645 0
M  V30 13574 C 1297.18 3.41892 -2.72816 0
M  V30 13575 C 1296.24 4.59624 -2.56187 0
M  V30 13576 O 1295.26 4.63757 -3.30028 0
M  V30 13577 N 1296.47 5.56675 -1.64601 0
M  V30 13578 H 1299.23 1.59527 -2.53715 0
M  V30 13579 H 1296.79 0.735101 -1.44249 0
M  V30 13580 H 1298.78 3.82137 -1.33242 0
M  V30 13581 H 1297.35 3.0718 -0.57961 0
M  V30 13582 H 1296.57 2.54644 -3.00916 0
M  V30 13583 H 1297.86 3.62965 -3.56559 0
M  V30 13584 H 1297.26 5.561 -1.03778 0
M  V30 13585 H 1295.82 6.32573 -1.57146 0
M  V30 13586 N 1299.25 1.36039 0.795694 0
M  V30 13587 C 1300.5 1.30112 1.5556 0
M  V30 13588 C 1300.83 -0.121197 1.93821 0
M  V30 13589 O 1300.1 -1.07313 1.62216 0
M  V30 13590 C 1300.39 2.21792 2.8369 0
M  V30 13591 C 1300.24 3.72691 2.51836 0
M  V30 13592 C 1301.56 2.12365 3.85472 0
M  V30 13593 H 1298.68 0.473971 0.564376 0
M  V30 13594 H 1301.32 1.66536 0.91465 0
M  V30 13595 H 1299.47 1.9086 3.38386 0
M  V30 13596 H 1301.14 4.14115 2.0324 0
M  V30 13597 H 1299.38 3.92436 1.84869 0
M  V30 13598 H 1300.06 4.32242 3.43323 0
M  V30 13599 H 1302.53 2.3958 3.40207 0
M  V30 13600 H 1301.41 2.78695 4.72885 0
M  V30 13601 H 1301.67 1.10898 4.27965 0
M  V30 13602 N 1300.73 -1.01913 1.20215 0
M  V30 13603 C 1301.66 -2.10513 0.906476 0
M  V30 13604 C 1302.67 -1.62463 -0.104758 0
M  V30 13605 O 1303.86 -1.78055 0.12593 0
M  V30 13606 C 1300.96 -3.3722 0.337012 0
M  V30 13607 C 1300.14 -4.14417 1.39917 0
M  V30 13608 C 1299.19 -5.19428 0.841489 0
M  V30 13609 O 1298.22 -5.48486 1.52157 0
M  V30 13610 N 1299.42 -5.79442 -0.350365 0
M  V30 13611 H 1302.19 -2.36465 1.84132 0
M  V30 13612 H 1299.75 -1.18283 1.10548 0
M  V30 13613 H 1301.74 -4.04669 -0.0501507 0
M  V30 13614 H 1300.31 -3.08538 -0.502325 0
M  V30 13615 H 1299.53 -3.41975 1.96078 0
M  V30 13616 H 1300.82 -4.62777 2.1146 0
M  V30 13617 H 1300.22 -5.58166 -0.920204 0
M  V30 13618 H 1298.77 -6.48252 -0.679194 0
M  V30 13619 N 1302.21 -1.00763 -1.2118 0
M  V30 13620 C 1303.16 -0.541218 -2.21483 0
M  V30 13621 C 1304.14 0.398597 -1.55885 0
M  V30 13622 O 1305.33 0.22302 -1.75589 0
M  V30 13623 C 1302.46 0.128145 -3.43061 0
M  V30 13624 C 1301.55 -0.832845 -4.15842 0
M  V30 13625 N 1301.94 -1.98673 -4.65148 0
M  V30 13626 C 1300.24 -0.651779 -4.41212 0
M  V30 13627 C 1300.94 -2.59112 -5.20803 0
M  V30 13628 N 1299.91 -1.87249 -5.10332 0
M  V30 13629 H 1303.72 -1.42105 -2.57262 0
M  V30 13630 H 1301.23 -0.871796 -1.37016 0
M  V30 13631 H 1303.23 0.479771 -4.1413 0
M  V30 13632 H 1301.89 1.00392 -3.0879 0
M  V30 13633 H 1302.9 -2.36701 -4.60644 0
M  V30 13634 H 1299.57 0.1767 -4.17126 0
M  V30 13635 H 1300.96 -3.56713 -5.69391 0
M  V30 13636 N 1303.68 1.3679 -0.7827 0
M  V30 13637 C 1304.63 2.32019 -0.164358 0
M  V30 13638 C 1305.63 1.55476 0.672571 0
M  V30 13639 O 1306.83 1.7079 0.568406 0
M  V30 13640 H 1303.21 0.751214 -0.0343697 0
M  V30 13641 H 1305.18 2.81741 -0.983077 0
M  V30 13642 C 1303.93 3.4075 0.691727 0
M  V30 13643 H 1303.25 3.99759 0.0570885 0
M  V30 13644 H 1304.69 4.09719 1.09117 0
M  V30 13645 C 1303.15 2.81753 1.84708 0
M  V30 13646 O 1303.68 2.73378 2.94325 0
M  V30 13647 N 1301.89 2.39138 1.6511 0
M  V30 13648 H 1301.43 2.46149 0.759487 0
M  V30 13649 H 1301.39 2.0001 2.42576 0
M  V30 13650 N 1305.16 0.53415 1.48272 0
M  V30 13651 C 1306.09 -0.215037 2.32508 0
M  V30 13652 C 1307.07 -0.931083 1.42355 0
M  V30 13653 O 1308.26 -0.916051 1.71237 0
M  V30 13654 C 1305.39 -1.25985 3.23643 0
M  V30 13655 C 1304.34 -0.661692 4.22854 0
M  V30 13656 C 1303.67 -1.80946 5.03153 0
M  V30 13657 C 1304.97 0.369358 5.20992 0
M  V30 13658 H 1306.66 0.488158 2.95394 0
M  V30 13659 H 1304.21 0.236206 1.4205 0
M  V30 13660 H 1306.16 -1.79195 3.81402 0
M  V30 13661 H 1304.89 -1.99268 2.58766 0
M  V30 13662 H 1303.54 -0.151082 3.66289 0
M  V30 13663 H 1303.19 -2.53077 4.34696 0
M  V30 13664 H 1302.89 -1.41513 5.70305 0
M  V30 13665 H 1304.42 -2.34526 5.63764 0
M  V30 13666 H 1305.83 -0.0758076 5.7325 0
M  V30 13667 H 1304.23 0.681301 5.9622 0
M  V30 13668 H 1305.3 1.27363 4.67875 0
M  V30 13669 N 1306.64 -1.55279 0.269478 0
M  V30 13670 C 1307.57 -2.25278 -0.614188 0
M  V30 13671 C 1308.55 -1.24092 -1.1634 0
M  V30 13672 O 1309.74 -1.52799 -1.19858 0
M  V30 13673 C 1306.87 -2.96956 -1.80096 0
M  V30 13674 C 1305.82 -4.05021 -1.38353 0
M  V30 13675 C 1305.15 -4.64244 -2.65295 0
M  V30 13676 C 1306.45 -5.19523 -0.537886 0
M  V30 13677 H 1308.14 -2.99385 -0.0304397 0
M  V30 13678 H 1305.69 -1.43994 -0.0132004 0
M  V30 13679 H 1307.64 -3.44633 -2.42499 0
M  V30 13680 H 1306.36 -2.20374 -2.41045 0
M  V30 13681 H 1305.02 -3.58146 -0.78273 0
M  V30 13682 H 1304.67 -3.84337 -3.2449 0
M  V30 13683 H 1304.37 -5.37208 -2.38079 0
M  V30 13684 H 1305.89 -5.14668 -3.28557 0
M  V30 13685 H 1307.31 -5.63287 -1.06677 0
M  V30 13686 H 1305.71 -5.99014 -0.360845 0
M  V30 13687 H 1306.78 -4.82857 0.444672 0
M  V30 13688 N 1308.12 0.00332656 -1.576 0
M  V30 13689 C 1309.34 0.703587 -1.95101 0
M  V30 13690 C 1309.77 1.66697 -0.871418 0
M  V30 13691 O 1309.13 1.80494 0.170739 0
M  V30 13692 C 1309.17 1.41457 -3.31696 0
M  V30 13693 O 1308.28 2.52885 -3.25765 0
M  V30 13694 H 1307.62 0.187396 -0.637008 0
M  V30 13695 H 1310.15 -0.0488727 -2.04542 0
M  V30 13696 H 1310.16 1.77874 -3.67185 0
M  V30 13697 H 1308.83 0.708182 -4.09826 0
M  V30 13698 H 1307.41 2.18821 -3.01947 0
M  V30 13699 N 1309.6 1.55164 0.276031 0
M  V30 13700 C 1311.01 1.66367 0.847293 0
M  V30 13701 C 1311.36 0.588692 1.8716 0
M  V30 13702 O 1310.48 -0.27035 2.14705 0
M  V30 13703 C 1311.08 3.01593 1.5436 0
M  V30 13704 C 1309.64 3.14833 2.06293 0
M  V30 13705 C 1308.78 2.62152 0.903959 0
M  V30 13706 H 1311.74 1.58613 0.0524478 0
M  V30 13707 H 1311.76 2.94412 2.41043 0
M  V30 13708 H 1311.27 3.7981 0.797849 0
M  V30 13709 H 1309.37 2.41384 2.83839 0
M  V30 13710 H 1309.48 4.21353 2.28032 0
M  V30 13711 H 1307.85 2.19233 1.29649 0
M  V30 13712 H 1308.63 3.4287 0.171765 0
M  V30 13713 N 1311.07 -0.540404 1.48045 0
M  V30 13714 C 1312.49 -1.12243 1.49192 0
M  V30 13715 C 1312.84 -1.94524 0.255895 0
M  V30 13716 O 1311.96 -2.06786 -0.637855 0
M  V30 13717 C 1312.56 -2.04227 2.70327 0
M  V30 13718 C 1311.12 -2.57668 2.7438 0
M  V30 13719 C 1310.26 -1.34402 2.42552 0
M  V30 13720 H 1313.21 -0.326165 1.55312 0
M  V30 13721 H 1313.23 -2.88359 2.48253 0
M  V30 13722 H 1312.75 -1.44314 3.60271 0
M  V30 13723 H 1310.85 -3.21331 1.88618 0
M  V30 13724 H 1310.96 -2.97514 3.7553 0
M  V30 13725 H 1309.32 -1.65635 1.93487 0
M  V30 13726 H 1310.11 -0.762571 3.34723 0
M  V30 13727 N 1312.55 -1.36459 -0.788468 0
M  V30 13728 C 1313.8 -1.30741 -1.54638 0
M  V30 13729 C 1314.13 0.113029 -1.94171 0
M  V30 13730 O 1313.38 1.08252 -1.63034 0
M  V30 13731 C 1313.68 -2.17672 -2.83467 0
M  V30 13732 C 1313.35 -3.66205 -2.63067 0
M  V30 13733 C 1312.01 -4.06688 -2.57212 0
M  V30 13734 C 1314.36 -4.60376 -2.44343 0
M  V30 13735 C 1311.69 -5.39482 -2.306 0
M  V30 13736 C 1314.04 -5.93388 -2.19258 0
M  V30 13737 C 1312.71 -6.32994 -2.11836 0
M  V30 13738 H 1311.98 -0.478416 -0.565862 0
M  V30 13739 H 1314.62 -1.68519 -0.909588 0
M  V30 13740 H 1312.93 -1.72834 -3.51619 0
M  V30 13741 H 1314.62 -2.10573 -3.41263 0
M  V30 13742 H 1311.21 -3.3409 -2.6848 0
M  V30 13743 H 1315.4 -4.29971 -2.47868 0
M  V30 13744 H 1310.65 -5.69149 -2.23337 0
M  V30 13745 H 1314.83 -6.65923 -2.03765 0
M  V30 13746 H 1312.46 -7.3582 -1.90978 0
M  V30 13747 N 1314.03 1.01274 -1.20754 0
M  V30 13748 C 1315.28 1.74586 -1.01804 0
M  V30 13749 C 1315.6 1.89727 0.450419 0
M  V30 13750 O 1314.87 1.44257 1.32539 0
M  V30 13751 H 1313.45 0.646804 -0.373702 0
M  V30 13752 H 1316.11 1.22079 -1.5193 0
M  V30 13753 H 1315.21 2.748 -1.47958 0
M  V30 13754 N 1315.51 1.01404 1.20644 0
M  V30 13755 C 1316.76 0.712655 1.90507 0
M  V30 13756 C 1317.11 -0.749299 1.7721 0
M  V30 13757 O 1316.4 -1.53709 1.14386 0
M  V30 13758 C 1316.6 1.07995 3.40693 0
M  V30 13759 C 1316.43 2.57606 3.68604 0
M  V30 13760 C 1315.2 3.2435 3.8746 0
M  V30 13761 C 1317.39 3.55788 3.71375 0
M  V30 13762 N 1315.38 4.63218 4.02868 0
M  V30 13763 C 1316.75 4.80207 3.92175 0
M  V30 13764 C 1318.8 3.49797 3.54325 0
M  V30 13765 C 1317.51 5.9936 3.97694 0
M  V30 13766 C 1319.53 4.68349 3.61114 0
M  V30 13767 C 1318.89 5.91575 3.82385 0
M  V30 13768 H 1314.99 0.312406 0.716887 0
M  V30 13769 H 1317.58 1.29835 1.4509 0
M  V30 13770 H 1315.75 0.522623 3.84868 0
M  V30 13771 H 1317.48 0.732364 3.98018 0
M  V30 13772 H 1314.23 2.7478 3.85737 0
M  V30 13773 H 1314.66 5.3531 4.14454 0
M  V30 13774 H 1319.3 2.55525 3.36848 0
M  V30 13775 H 1317.02 6.94015 4.13968 0
M  V30 13776 H 1320.6 4.65325 3.49233 0
M  V30 13777 H 1319.48 6.81776 3.87494 0
M  V30 13778 N 1316.99 -1.36373 0.789944 0
M  V30 13779 C 1317.95 -2.28372 0.194639 0
M  V30 13780 C 1318.95 -1.48849 -0.608332 0
M  V30 13781 O 1320.14 -1.68829 -0.42925 0
M  V30 13782 C 1317.27 -3.3298 -0.730553 0
M  V30 13783 H 1318.47 -2.82529 1.00585 0
M  V30 13784 H 1316.02 -1.45946 0.559406 0
M  V30 13785 H 1316.75 -2.8398 -1.56608 0
M  V30 13786 H 1316.54 -3.91787 -0.156706 0
M  V30 13787 H 1318.03 -4.01684 -1.14192 0
M  V30 13788 N 1318.47 -0.542005 -1.47987 0
M  V30 13789 C 1319.69 -0.0146835 -2.07395 0
M  V30 13790 C 1320.12 1.26266 -1.39422 0
M  V30 13791 O 1319.47 1.75259 -0.464118 0
M  V30 13792 C 1319.52 0.179937 -3.60151 0
M  V30 13793 O 1318.63 1.24596 -3.93128 0
M  V30 13794 H 1317.97 -0.0445076 -0.662507 0
M  V30 13795 H 1320.5 -0.753352 -1.90226 0
M  V30 13796 H 1320.51 0.398876 -4.06046 0
M  V30 13797 H 1319.18 -0.753093 -4.09025 0
M  V30 13798 H 1317.76 1.00872 -3.58997 0
M  V30 13799 N 1319.94 1.55134 -0.277709 0
M  V30 13800 C 1321.19 1.99259 0.337662 0
M  V30 13801 C 1321.51 1.16755 1.56183 0
M  V30 13802 O 1320.78 0.257707 1.94198 0
M  V30 13803 H 1319.36 0.735995 0.127751 0
M  V30 13804 H 1322.02 1.91087 -0.383646 0
M  V30 13805 H 1321.12 3.05763 0.625747 0
M  V30 13806 N 1321.42 0.00503138 1.57599 0
M  V30 13807 C 1322.65 -0.693231 1.95471 0
M  V30 13808 C 1323.07 -1.66233 0.880246 0
M  V30 13809 O 1322.43 -1.80582 -0.161164 0
M  V30 13810 C 1322.48 -1.39696 3.32442 0
M  V30 13811 O 1321.58 -2.51154 3.27101 0
M  V30 13812 H 1320.92 -0.184015 0.637992 0
M  V30 13813 H 1323.45 0.0597194 2.04513 0
M  V30 13814 H 1323.46 -1.75924 3.68123 0
M  V30 13815 H 1322.14 -0.686438 4.10196 0
M  V30 13816 H 1320.71 -2.17216 3.03103 0
M  V30 13817 N 1322.9 -1.55308 -0.267798 0
M  V30 13818 C 1323.83 -1.84963 -1.35356 0
M  V30 13819 C 1324.84 -0.73446 -1.45291 0
M  V30 13820 O 1326.03 -1.01237 -1.47015 0
M  V30 13821 C 1323.13 -2.00221 -2.73432 0
M  V30 13822 C 1322.31 -3.30922 -2.86024 0
M  V30 13823 C 1321.37 -3.3618 -4.04808 0
M  V30 13824 O 1320.39 -4.09525 -3.9532 0
M  V30 13825 N 1321.59 -2.63958 -5.17017 0
M  V30 13826 H 1324.36 -2.7868 -1.1026 0
M  V30 13827 H 1321.92 -1.55289 -0.457914 0
M  V30 13828 H 1323.91 -2.01103 -3.51197 0
M  V30 13829 H 1322.48 -1.13346 -2.91327 0
M  V30 13830 H 1321.7 -3.42534 -1.951 0
M  V30 13831 H 1322.99 -4.17109 -2.91371 0
M  V30 13832 H 1322.39 -2.04062 -5.27613 0
M  V30 13833 H 1320.94 -2.70558 -5.92994 0
M  V30 13834 N 1324.38 0.532545 -1.4833 0
M  V30 13835 C 1325.65 1.29371 -1.46705 0
M  V30 13836 C 1326.03 2.10354 -0.177329 0
M  V30 13837 O 1325.38 2.12462 0.840968 0
M  V30 13838 C 1325.59 2.17733 -2.72751 0
M  V30 13839 C 1326.94 2.77956 -3.20976 0
M  V30 13840 O 1327.96 2.28022 -2.7365 0
M  V30 13841 O 1326.82 3.68779 -4.03317 0
M  V30 13842 H 1323.92 0.58378 -0.585773 0
M  V30 13843 H 1326.46 0.549411 -1.6056 0
M  V30 13844 H 1325.24 1.57659 -3.58133 0
M  V30 13845 H 1324.86 2.99415 -2.61603 0
M  V30 13846 N 1325.86 1.36875 0.78122 0
M  V30 13847 C 1327.08 1.349 1.57533 0
M  V30 13848 C 1327.51 -0.0655249 1.87986 0
M  V30 13849 O 1326.86 -1.03986 1.48515 0
M  V30 13850 C 1326.91 2.18562 2.86815 0
M  V30 13851 O 1326.02 1.58374 3.80777 0
M  V30 13852 H 1325.36 0.461355 0.477543 0
M  V30 13853 H 1327.89 1.80271 0.96766 0
M  V30 13854 H 1327.9 2.31436 3.36008 0
M  V30 13855 H 1326.57 3.21385 2.63978 0
M  V30 13856 H 1325.15 1.54487 3.39394 0
M  V30 13857 N 1327.33 -1.00632 1.21289 0
M  V30 13858 C 1328.28 -2.11502 0.96798 0
M  V30 13859 C 1329.28 -1.6919 -0.0843024 0
M  V30 13860 O 1330.48 -1.79875 0.06697 0
M  V30 13861 H 1326.86 -0.691398 0.295759 0
M  V30 13862 H 1328.83 -2.29337 1.90911 0
M  V30 13863 C 1327.58 -3.43357 0.547818 0
M  V30 13864 H 1326.9 -3.76348 1.34915 0
M  V30 13865 H 1328.34 -4.21957 0.415759 0
M  V30 13866 C 1326.8 -3.28648 -0.741086 0
M  V30 13867 O 1327.33 -3.59267 -1.79695 0
M  V30 13868 N 1325.53 -2.81866 -0.707084 0
M  V30 13869 H 1325.08 -2.57149 0.152447 0
M  V30 13870 H 1325.04 -2.72406 -1.56979 0
M  V30 13871 N 1328.81 -1.02043 -1.20104 0
M  V30 13872 C 1330.04 -0.731142 -1.94085 0
M  V30 13873 C 1330.46 0.702467 -1.74491 0
M  V30 13874 O 1329.82 1.48387 -1.04168 0
M  V30 13875 C 1329.87 -1.07691 -3.44144 0
M  V30 13876 O 1328.97 -0.190751 -4.11959 0
M  V30 13877 H 1328.31 -0.270917 -0.606218 0
M  V30 13878 H 1330.84 -1.36483 -1.52426 0
M  V30 13879 H 1330.85 -1.03023 -3.94779 0
M  V30 13880 H 1329.53 -2.1214 -3.57728 0
M  V30 13881 H 1328.1 -0.29529 -3.71729 0
M  V30 13882 N 1330.29 1.35952 -0.797165 0
M  V30 13883 C 1331.71 1.52218 -0.479765 0
M  V30 13884 C 1331.91 1.74898 1.00064 0
M  V30 13885 O 1330.96 1.78495 1.78594 0
M  V30 13886 C 1332.28 2.70328 -1.31694 0
M  V30 13887 C 1333.82 2.84202 -1.31142 0
M  V30 13888 C 1334.3 4.05325 -2.13251 0
M  V30 13889 N 1335.79 4.12485 -2.10737 0
M  V30 13890 C 1336.52 5.053 -2.71033 0
M  V30 13891 N 1336.02 6.03509 -3.40219 0
M  V30 13892 N 1337.81 4.97975 -2.60725 0
M  V30 13893 H 1329.96 1.19486 -1.75604 0
M  V30 13894 H 1332.23 0.58383 -0.746892 0
M  V30 13895 H 1331.93 2.60116 -2.36712 0
M  V30 13896 H 1331.81 3.64684 -0.963607 0
M  V30 13897 H 1334.19 2.9387 -0.269131 0
M  V30 13898 H 1334.28 1.9073 -1.70457 0
M  V30 13899 H 1333.92 3.96417 -3.17515 0
M  V30 13900 H 1333.85 4.97959 -1.71302 0
M  V30 13901 H 1336.34 3.42174 -1.6039 0
M  V30 13902 H 1336.65 6.70909 -3.83537 0
M  V30 13903 H 1335 6.03711 -3.44322 0
M  V30 13904 H 1338.19 4.20203 -2.0627 0
M  V30 13905 H 1338.36 5.70119 -3.08007 0
M  V30 13906 N 1331.77 0.549846 1.47697 0
M  V30 13907 C 1333.18 0.209085 1.58225 0
M  V30 13908 C 1333.38 -1.28823 1.54941 0
M  V30 13909 O 1332.44 -2.0679 1.44893 0
M  V30 13910 C 1333.75 0.829219 2.89041 0
M  V30 13911 C 1335.3 0.79977 3.0261 0
M  V30 13912 C 1335.78 1.39884 4.36115 0
M  V30 13913 N 1337.27 1.36169 4.42733 0
M  V30 13914 C 1338 1.79492 5.44583 0
M  V30 13915 N 1337.5 2.30637 6.53283 0
M  V30 13916 N 1339.29 1.70608 5.35583 0
M  V30 13917 H 1331.44 1.52275 1.48074 0
M  V30 13918 H 1333.71 0.634579 0.704283 0
M  V30 13919 H 1333.41 1.88122 2.97158 0
M  V30 13920 H 1333.29 0.317916 3.75858 0
M  V30 13921 H 1335.67 -0.243525 2.94093 0
M  V30 13922 H 1335.75 1.34875 2.17353 0
M  V30 13923 H 1335.4 2.44116 4.45387 0
M  V30 13924 H 1335.33 0.825362 5.20092 0
M  V30 13925 H 1337.82 0.987505 3.64769 0
M  V30 13926 H 1338.13 2.61637 7.27163 0
M  V30 13927 H 1336.48 2.34643 6.54192 0
M  V30 13928 H 1339.67 1.30434 4.4956 0
M  V30 13929 H 1339.84 2.0469 6.14822 0
M  V30 13930 N 1333.25 -1.54984 0.285932 0
M  V30 13931 C 1334.21 -2.2164 -0.583824 0
M  V30 13932 C 1335.21 -1.19764 -1.073 0
M  V30 13933 O 1336.4 -1.44598 -0.971439 0
M  V30 13934 C 1333.53 -2.8909 -1.80665 0
M  V30 13935 H 1334.72 -2.999 -0.00168109 0
M  V30 13936 H 1332.28 -1.56257 0.0366325 0
M  V30 13937 H 1333.01 -2.14869 -2.42903 0
M  V30 13938 H 1332.8 -3.63756 -1.4637 0
M  V30 13939 H 1334.29 -3.39982 -2.42491 0
M  V30 13940 N 1334.72 -0.0133892 -1.57594 0
M  V30 13941 C 1335.95 0.679255 -1.95432 0
M  V30 13942 C 1336.37 1.66558 -0.889028 0
M  V30 13943 O 1335.72 1.82031 0.130755 0
M  V30 13944 C 1335.78 1.39943 -3.33314 0
M  V30 13945 O 1335.5 0.452643 -4.35755 0
M  V30 13946 C 1337 2.18535 -3.85691 0
M  V30 13947 H 1334.22 0.188337 -0.644026 0
M  V30 13948 H 1336.76 -0.0684861 -2.04385 0
M  V30 13949 H 1334.92 2.0987 -3.25628 0
M  V30 13950 H 1335.33 0.962243 -5.15598 0
M  V30 13951 H 1336.8 2.64403 -4.84557 0
M  V30 13952 H 1337.28 3.01779 -3.19102 0
M  V30 13953 H 1337.89 1.53598 -3.96595 0
M  V30 13954 N 1336.2 1.55448 0.259558 0
M  V30 13955 C 1337.43 1.80727 1.00723 0
M  V30 13956 C 1337.85 0.587354 1.79431 0
M  V30 13957 O 1337.2 -0.443819 1.77021 0
M  V30 13958 C 1337.25 3.04064 1.95517 0
M  V30 13959 O 1336.97 4.21346 1.19996 0
M  V30 13960 C 1338.48 3.42049 2.81988 0
M  V30 13961 H 1335.7 0.601713 0.296956 0
M  V30 13962 H 1338.24 2.02486 0.286273 0
M  V30 13963 H 1336.39 2.84392 2.63058 0
M  V30 13964 H 1336.81 4.91164 1.84006 0
M  V30 13965 H 1338.28 4.31485 3.44274 0
M  V30 13966 H 1338.76 2.62059 3.52451 0
M  V30 13967 H 1339.37 3.64027 2.19918 0
M  V30 13968 N 1337.68 -0.524672 1.4861 0
M  V30 13969 C 1339.09 -1.10655 1.50374 0
M  V30 13970 C 1339.44 -1.94242 0.276512 0
M  V30 13971 O 1338.57 -2.07451 -0.615887 0
M  V30 13972 C 1339.16 -2.01348 2.72478 0
M  V30 13973 C 1337.72 -2.54743 2.77097 0
M  V30 13974 C 1336.87 -1.31822 2.43964 0
M  V30 13975 H 1339.82 -0.309674 1.55649 0
M  V30 13976 H 1339.84 -2.85709 2.51297 0
M  V30 13977 H 1339.35 -1.40485 3.61781 0
M  V30 13978 H 1337.45 -3.19313 1.92016 0
M  V30 13979 H 1337.57 -2.93514 3.78664 0
M  V30 13980 H 1335.93 -1.63574 1.95233 0
M  V30 13981 H 1336.71 -0.727026 3.35513 0
M  V30 13982 N 1339.16 -1.37287 -0.77395 0
M  V30 13983 C 1340.09 -1.35569 -1.90114 0
M  V30 13984 C 1341.07 -0.224658 -1.6861 0
M  V30 13985 O 1342.25 -0.424676 -1.895 0
M  V30 13986 C 1339.38 -1.15971 -3.27365 0
M  V30 13987 C 1338.34 -2.26063 -3.63427 0
M  V30 13988 C 1337.66 -1.9159 -4.99197 0
M  V30 13989 C 1338.96 -3.68236 -3.70405 0
M  V30 13990 H 1340.66 -2.29891 -1.91808 0
M  V30 13991 H 1338.2 -1.10661 -0.92142 0
M  V30 13992 H 1340.16 -1.134 -4.05855 0
M  V30 13993 H 1338.88 -0.181043 -3.26098 0
M  V30 13994 H 1337.54 -2.27786 -2.87244 0
M  V30 13995 H 1337.19 -0.922586 -4.94467 0
M  V30 13996 H 1336.89 -2.65309 -5.24294 0
M  V30 13997 H 1338.41 -1.90602 -5.80089 0
M  V30 13998 H 1339.83 -3.68655 -4.39052 0
M  V30 13999 H 1338.22 -4.4099 -4.06999 0
M  V30 14000 H 1339.29 -4.02021 -2.71122 0
M  V30 14001 N 1340.64 0.999871 -1.21821 0
M  V30 14002 C 1341.87 1.77148 -1.06312 0
M  V30 14003 C 1342.27 1.85142 0.389747 0
M  V30 14004 O 1341.62 1.31562 1.28207 0
M  V30 14005 C 1341.68 3.22367 -1.59122 0
M  V30 14006 C 1341.34 3.37937 -3.07649 0
M  V30 14007 C 1342.34 3.25808 -4.05148 0
M  V30 14008 C 1340.03 3.63213 -3.46961 0
M  V30 14009 C 1342.02 3.38729 -5.39946 0
M  V30 14010 C 1339.71 3.75775 -4.81909 0
M  V30 14011 C 1340.7 3.6354 -5.78211 0
M  V30 14012 O 1340.39 3.75694 -7.1071 0
M  V30 14013 H 1340.12 0.563396 -0.373578 0
M  V30 14014 H 1342.68 1.26627 -1.61724 0
M  V30 14015 H 1340.91 3.74047 -0.98111 0
M  V30 14016 H 1342.6 3.81219 -1.39379 0
M  V30 14017 H 1343.36 3.062 -3.76121 0
M  V30 14018 H 1339.24 3.71816 -2.72533 0
M  V30 14019 H 1342.79 3.29096 -6.15095 0
M  V30 14020 H 1338.68 3.94889 -5.1062 0
M  V30 14021 H 1339.45 3.9261 -7.18192 0
M  V30 14022 N 1342.11 1.02678 1.19562 0
M  V30 14023 C 1343.06 0.576385 2.20594 0
M  V30 14024 C 1344.05 -0.373747 1.56499 0
M  V30 14025 O 1345.24 -0.195058 1.75922 0
M  V30 14026 C 1342.37 -0.0735507 3.43221 0
M  V30 14027 C 1341.46 0.898896 4.14464 0
M  V30 14028 N 1341.85 2.06048 4.61928 0
M  V30 14029 C 1340.14 0.721889 4.40119 0
M  V30 14030 C 1340.85 2.67364 5.16615 0
M  V30 14031 N 1339.82 1.95344 5.07289 0
M  V30 14032 H 1343.62 1.46179 2.54968 0
M  V30 14033 H 1341.14 0.893484 1.35612 0
M  V30 14034 H 1343.13 -0.413825 4.14841 0
M  V30 14035 H 1341.79 -0.954671 3.10348 0
M  V30 14036 H 1342.81 2.43999 4.5682 0
M  V30 14037 H 1339.48 -0.110317 4.17354 0
M  V30 14038 H 1340.87 3.65726 5.63644 0
M  V30 14039 N 1343.59 -1.35528 0.804364 0
M  V30 14040 C 1344.84 -1.98439 0.382934 0
M  V30 14041 C 1345.16 -1.64132 -1.05289 0
M  V30 14042 O 1344.43 -0.922693 -1.7281 0
M  V30 14043 H 1343.01 -0.734028 0.138605 0
M  V30 14044 H 1345.67 -1.65478 1.02971 0
M  V30 14045 H 1344.77 -3.08279 0.486846 0
M  V30 14046 N 1345.07 -0.557671 -1.47404 0
M  V30 14047 C 1346.32 -0.0337884 -2.02472 0
M  V30 14048 C 1346.65 1.31624 -1.43197 0
M  V30 14049 O 1345.9 1.86989 -0.577366 0
M  V30 14050 C 1346.2 0.108324 -3.57236 0
M  V30 14051 C 1345.87 -1.17088 -4.35432 0
M  V30 14052 C 1344.53 -1.5214 -4.56516 0
M  V30 14053 C 1346.88 -2.01854 -4.80525 0
M  V30 14054 C 1344.21 -2.71803 -5.19942 0
M  V30 14055 C 1346.56 -3.2072 -5.45272 0
M  V30 14056 C 1345.22 -3.56085 -5.64588 0
M  V30 14057 H 1344.49 -0.012364 -0.740897 0
M  V30 14058 H 1347.14 -0.729276 -1.7707 0
M  V30 14059 H 1345.45 0.886781 -3.81633 0
M  V30 14060 H 1347.14 0.529031 -3.97495 0
M  V30 14061 H 1343.73 -0.887952 -4.19301 0
M  V30 14062 H 1347.92 -1.76081 -4.64014 0
M  V30 14063 H 1343.17 -2.99371 -5.33092 0
M  V30 14064 H 1347.35 -3.86689 -5.79176 0
M  V30 14065 H 1344.97 -4.48903 -6.13506 0
M  V30 14066 N 1346.55 1.54831 -0.294147 0
M  V30 14067 C 1347.5 2.23263 0.58499 0
M  V30 14068 C 1348.47 1.21278 1.13494 0
M  V30 14069 O 1349.65 1.49878 1.18073 0
M  V30 14070 C 1346.79 2.97185 1.75429 0
M  V30 14071 C 1345.9 4.1393 1.23638 0
M  V30 14072 C 1345.04 4.7545 2.36899 0
M  V30 14073 C 1344.08 5.84352 1.82207 0
M  V30 14074 N 1343.22 6.39855 2.89015 0
M  V30 14075 H 1348.06 2.98 -0.00519329 0
M  V30 14076 H 1345.59 1.47093 -0.0143313 0
M  V30 14077 H 1347.55 3.38271 2.4419 0
M  V30 14078 H 1346.18 2.24837 2.3162 0
M  V30 14079 H 1345.23 3.77832 0.441247 0
M  V30 14080 H 1346.54 4.92409 0.795946 0
M  V30 14081 H 1345.7 5.19353 3.1362 0
M  V30 14082 H 1344.44 3.96288 2.84266 0
M  V30 14083 H 1343.44 5.39879 1.03974 0
M  V30 14084 H 1344.67 6.65393 1.35753 0
M  V30 14085 H 1342.61 5.6358 3.35729 0
M  V30 14086 H 1342.53 7.13661 2.49447 0
M  V30 14087 H 1343.8 6.88417 3.65654 0
M  V30 14088 N 1348.03 0.0217466 1.57585 0
M  V30 14089 C 1348.94 -0.978407 2.13224 0
M  V30 14090 C 1349.95 -1.36212 1.08269 0
M  V30 14091 O 1351.13 -1.44504 1.40288 0
M  V30 14092 C 1348.19 -2.24462 2.6423 0
M  V30 14093 C 1347.26 -1.92201 3.83871 0
M  V30 14094 C 1346.49 -3.12786 4.32436 0
M  V30 14095 O 1346.71 -4.25201 3.8021 0
M  V30 14096 O 1345.65 -2.95514 5.24362 0
M  V30 14097 H 1349.47 -0.535347 2.98944 0
M  V30 14098 H 1347.06 -0.198414 1.48077 0
M  V30 14099 H 1348.94 -2.98809 2.97138 0
M  V30 14100 H 1347.61 -2.67964 1.81596 0
M  V30 14101 H 1346.52 -1.15262 3.55901 0
M  V30 14102 H 1347.85 -1.53521 4.67645 0
M  V30 14103 N 1349.51 -1.55583 -0.251311 0
M  V30 14104 C 1350.75 -1.77471 -0.981418 0
M  V30 14105 C 1351.08 -0.586228 -1.85141 0
M  V30 14106 O 1350.36 0.415623 -1.90007 0
M  V30 14107 C 1350.64 -3.09204 -1.84567 0
M  V30 14108 C 1350.5 -4.38448 -1.00417 0
M  V30 14109 C 1351.81 -3.37133 -2.82895 0
M  V30 14110 H 1348.93 -0.645664 -0.355369 0
M  V30 14111 H 1351.58 -1.88318 -0.252228 0
M  V30 14112 H 1349.73 -3.00087 -2.46738 0
M  V30 14113 H 1351.4 -4.5955 -0.40149 0
M  V30 14114 H 1349.64 -4.32703 -0.308365 0
M  V30 14115 H 1350.31 -5.26995 -1.64258 0
M  V30 14116 H 1352.79 -3.46183 -2.3086 0
M  V30 14117 H 1351.66 -4.30531 -3.40491 0
M  V30 14118 H 1351.92 -2.57829 -3.59133 0
M  V30 14119 N 1350.98 0.516783 -1.48886 0
M  V30 14120 C 1351.89 1.6467 -1.67095 0
M  V30 14121 C 1352.91 1.64963 -0.553466 0
M  V30 14122 O 1354.09 1.83673 -0.826206 0
M  V30 14123 C 1351.15 3.01095 -1.71879 0
M  V30 14124 C 1350.21 3.11554 -2.95352 0
M  V30 14125 C 1349.44 4.41471 -2.99898 0
M  V30 14126 O 1349.67 5.29348 -2.12477 0
M  V30 14127 O 1348.6 4.56573 -3.92205 0
M  V30 14128 H 1352.43 1.52242 -2.62785 0
M  V30 14129 H 1350.01 0.69134 -1.32442 0
M  V30 14130 H 1351.89 3.82207 -1.77471 0
M  V30 14131 H 1350.57 3.1382 -0.793656 0
M  V30 14132 H 1349.48 2.29689 -2.95286 0
M  V30 14133 H 1350.81 3.03751 -3.87294 0
M  V30 14134 N 1352.46 1.37696 0.766659 0
M  V30 14135 C 1353.37 1.36075 1.91104 0
M  V30 14136 C 1354.39 0.259617 1.72052 0
M  V30 14137 O 1355.56 0.49586 1.952 0
M  V30 14138 C 1352.63 1.17176 3.26298 0
M  V30 14139 C 1351.69 2.36975 3.57968 0
M  V30 14140 C 1350.92 2.18968 4.86712 0
M  V30 14141 O 1351.15 1.17658 5.58133 0
M  V30 14142 O 1350.08 3.07269 5.17561 0
M  V30 14143 H 1353.91 2.32472 1.95424 0
M  V30 14144 H 1351.49 1.18478 0.910122 0
M  V30 14145 H 1353.37 1.08645 4.07154 0
M  V30 14146 H 1352.05 0.238559 3.2282 0
M  V30 14147 H 1350.95 2.51079 2.77327 0
M  V30 14148 H 1352.29 3.2888 3.66195 0
M  V30 14149 N 1353.94 -0.993397 1.22349 0
M  V30 14150 C 1354.89 -2.10463 0.990358 0
M  V30 14151 C 1355.88 -1.6927 -0.0663528 0
M  V30 14152 O 1357.09 -1.79794 0.0860444 0
M  V30 14153 H 1353.46 -0.688222 0.303075 0
M  V30 14154 H 1355.43 -2.273 1.93333 0
M  V30 14155 C 1354.18 -3.42757 0.584205 0
M  V30 14156 H 1353.51 -3.74896 1.38899 0
M  V30 14157 H 1354.95 -4.21492 0.46049 0
M  V30 14158 C 1353.4 -3.29416 -0.706187 0
M  V30 14159 O 1353.93 -3.61152 -1.75875 0
M  V30 14160 N 1352.14 -2.82601 -0.677148 0
M  V30 14161 H 1351.69 -2.56972 0.179712 0
M  V30 14162 H 1351.65 -2.74056 -1.54081 0
M  V30 14163 N 1355.42 -1.03311 -1.19015 0
M  V30 14164 C 1356.66 -0.742872 -1.89349 0
M  V30 14165 C 1357.02 0.721012 -1.78379 0
M  V30 14166 O 1356.31 1.51869 -1.16817 0
M  V30 14167 C 1356.51 -1.13402 -3.38932 0
M  V30 14168 C 1356.33 -2.63438 -3.64459 0
M  V30 14169 C 1355.1 -3.30473 -3.82251 0
M  V30 14170 C 1357.3 -3.61652 -3.65667 0
M  V30 14171 N 1355.28 -4.69569 -3.95447 0
M  V30 14172 C 1356.66 -4.86385 -3.84486 0
M  V30 14173 C 1358.71 -3.5539 -3.48715 0
M  V30 14174 C 1357.41 -6.05611 -3.88108 0
M  V30 14175 C 1359.44 -4.74035 -3.53617 0
M  V30 14176 C 1358.8 -5.97584 -3.72925 0
M  V30 14177 H 1354.9 -0.323772 -0.711826 0
M  V30 14178 H 1357.48 -1.32127 -1.43006 0
M  V30 14179 H 1355.66 -0.583786 -3.83988 0
M  V30 14180 H 1357.39 -0.795592 -3.96803 0
M  V30 14181 H 1354.14 -2.80882 -3.81317 0
M  V30 14182 H 1354.57 -5.41836 -4.05885 0
M  V30 14183 H 1359.21 -2.60852 -3.32741 0
M  V30 14184 H 1356.93 -7.00513 -4.02874 0
M  V30 14185 H 1360.51 -4.70823 -3.41786 0
M  V30 14186 H 1359.39 -6.87854 -3.76598 0
M  V30 14187 N 1356.9 1.35099 -0.81154 0
M  V30 14188 C 1358.12 2.03391 -0.405805 0
M  V30 14189 C 1358.55 1.60745 0.97686 0
M  V30 14190 O 1357.9 0.786518 1.63351 0
M  V30 14191 C 1357.95 3.57075 -0.502954 0
M  V30 14192 O 1357.06 4.09577 0.481681 0
M  V30 14193 H 1356.4 0.642203 -0.168733 0
M  V30 14194 H 1358.93 1.72591 -1.0988 0
M  V30 14195 H 1358.94 4.06277 -0.37456 0
M  V30 14196 H 1357.61 3.87463 -1.51145 0
M  V30 14197 H 1356.19 3.71583 0.313115 0
M  V30 14198 N 1358.37 0.56548 1.47106 0
M  V30 14199 C 1359.32 -0.177564 2.30116 0
M  V30 14200 C 1360.29 -0.900534 1.39569 0
M  V30 14201 O 1361.48 -0.894603 1.68527 0
M  V30 14202 C 1358.62 -1.19633 3.237 0
M  V30 14203 C 1357.73 -0.47858 4.29341 0
M  V30 14204 C 1356.86 -1.48336 5.10068 0
M  V30 14205 C 1355.9 -0.751049 6.07475 0
M  V30 14206 N 1355.04 -1.70306 6.81132 0
M  V30 14207 H 1359.88 0.536409 2.93132 0
M  V30 14208 H 1357.42 0.276352 1.44481 0
M  V30 14209 H 1359.37 -1.79967 3.76388 0
M  V30 14210 H 1358 -1.87823 2.6253 0
M  V30 14211 H 1357.06 0.239454 3.79646 0
M  V30 14212 H 1358.37 0.0947147 4.9871 0
M  V30 14213 H 1357.52 -2.16 5.66947 0
M  V30 14214 H 1356.26 -2.09058 4.4062 0
M  V30 14215 H 1355.27 -0.0605336 5.49767 0
M  V30 14216 H 1356.49 -0.14946 6.78936 0
M  V30 14217 H 1354.44 -2.2987 6.14407 0
M  V30 14218 H 1354.35 -1.18213 7.46701 0
M  V30 14219 H 1355.62 -2.37058 7.42579 0
M  V30 14220 N 1359.85 -1.54672 0.302354 0
M  V30 14221 C 1360.8 -2.20281 -0.588245 0
M  V30 14222 C 1361.79 -1.17624 -1.09788 0
M  V30 14223 O 1362.98 -1.43338 -1.03842 0
M  V30 14224 C 1360.11 -2.94812 -1.759 0
M  V30 14225 C 1359.19 -4.04786 -1.26526 0
M  V30 14226 N 1359.58 -5.03425 -0.489625 0
M  V30 14227 C 1357.88 -4.18352 -1.54588 0
M  V30 14228 C 1358.58 -5.81259 -0.226538 0
M  V30 14229 N 1357.56 -5.37581 -0.806723 0
M  V30 14230 H 1361.36 -2.93898 0.0118911 0
M  V30 14231 H 1358.88 -1.62046 0.107181 0
M  V30 14232 H 1360.87 -3.40283 -2.40859 0
M  V30 14233 H 1359.53 -2.22712 -2.36282 0
M  V30 14234 H 1360.54 -5.17726 -0.134401 0
M  V30 14235 H 1357.22 -3.57458 -2.15709 0
M  V30 14236 H 1358.61 -6.70729 0.396499 0
M  V30 14237 N 1361.33 -0.0301034 -1.57571 0
M  V30 14238 C 1362.58 0.648323 -1.91841 0
M  V30 14239 C 1362.91 1.72078 -0.906601 0
M  V30 14240 O 1362.16 1.95518 0.0843233 0
M  V30 14241 C 1362.46 1.30206 -3.32838 0
M  V30 14242 C 1362.13 0.359876 -4.49462 0
M  V30 14243 C 1360.79 0.100552 -4.81095 0
M  V30 14244 C 1363.14 -0.287048 -5.20409 0
M  V30 14245 C 1360.47 -0.813484 -5.81033 0
M  V30 14246 C 1362.82 -1.18914 -6.21323 0
M  V30 14247 C 1361.48 -1.45735 -6.51397 0
M  V30 14248 H 1360.75 0.237238 -0.701997 0
M  V30 14249 H 1363.4 -0.0920804 -1.91278 0
M  V30 14250 H 1361.71 2.11724 -3.29667 0
M  V30 14251 H 1363.4 1.83356 -3.56625 0
M  V30 14252 H 1359.99 0.572172 -4.24764 0
M  V30 14253 H 1364.18 -0.0997611 -4.962 0
M  V30 14254 H 1359.43 -1.02897 -6.02679 0
M  V30 14255 H 1363.61 -1.69661 -6.75417 0
M  V30 14256 H 1361.23 -2.16727 -7.28652 0
M  V30 14257 N 1362.81 1.55714 0.243056 0
M  V30 14258 C 1364.03 1.82126 0.992219 0
M  V30 14259 C 1364.46 0.607665 1.78014 0
M  V30 14260 O 1363.82 -0.443351 1.75796 0
M  V30 14261 C 1363.86 3.06314 1.90274 0
M  V30 14262 O 1362.97 2.83499 2.99503 0
M  V30 14263 H 1362.31 0.601082 0.282128 0
M  V30 14264 H 1364.84 2.02904 0.262881 0
M  V30 14265 H 1364.85 3.35849 2.31666 0
M  V30 14266 H 1363.52 3.94282 1.32344 0
M  V30 14267 H 1362.1 2.65141 2.62211 0
M  V30 14268 N 1364.29 -0.50888 1.49158 0
M  V30 14269 C 1365.51 -1.29245 1.62205 0
M  V30 14270 C 1365.94 -1.85845 0.29041 0
M  V30 14271 O 1365.29 -1.6547 -0.740906 0
M  V30 14272 C 1365.34 -2.40415 2.68762 0
M  V30 14273 O 1364.45 -3.44048 2.27387 0
M  V30 14274 H 1363.79 -0.381898 0.543185 0
M  V30 14275 H 1366.32 -0.610076 1.95293 0
M  V30 14276 H 1366.33 -2.86295 2.90688 0
M  V30 14277 H 1365 -1.98584 3.65427 0
M  V30 14278 H 1363.58 -3.04141 2.1576 0
M  V30 14279 N 1365.76 -1.381 -0.759346 0
M  V30 14280 C 1367.04 -1.24517 -1.50847 0
M  V30 14281 C 1367.42 0.155929 -2.10523 0
M  V30 14282 O 1366.77 1.16485 -1.96579 0
M  V30 14283 C 1366.98 -2.35086 -2.57945 0
M  V30 14284 C 1368.33 -2.73232 -3.25007 0
M  V30 14285 O 1369.35 -2.34355 -2.68247 0
M  V30 14286 O 1368.21 -3.40254 -4.27656 0
M  V30 14287 H 1365.3 -0.486599 -0.668693 0
M  V30 14288 H 1367.85 -1.49913 -0.795249 0
M  V30 14289 H 1366.62 -3.28858 -2.12056 0
M  V30 14290 H 1366.25 -2.11222 -3.36854 0
M  V30 14291 N 1367.24 0.986894 -1.22875 0
M  V30 14292 C 1368.21 2.0597 -1.00544 0
M  V30 14293 C 1369.21 1.60771 0.0303509 0
M  V30 14294 O 1370.4 1.72945 -0.208753 0
M  V30 14295 C 1367.53 3.36911 -0.519962 0
M  V30 14296 H 1368.72 2.27213 -1.9574 0
M  V30 14297 H 1366.27 1.15935 -1.04827 0
M  V30 14298 H 1367.01 3.21355 0.436078 0
M  V30 14299 H 1366.79 3.71054 -1.26732 0
M  V30 14300 H 1368.28 4.15829 -0.384166 0
M  V30 14301 N 1368.72 1.0394 1.18466 0
M  V30 14302 C 1369.97 0.743141 1.88694 0
M  V30 14303 C 1370.3 -0.727211 1.8007 0
M  V30 14304 O 1369.57 -1.53058 1.20014 0
M  V30 14305 C 1369.86 1.20829 3.39223 0
M  V30 14306 C 1369.71 2.74064 3.56664 0
M  V30 14307 C 1371.03 0.797348 4.32817 0
M  V30 14308 H 1368.15 0.271437 0.685194 0
M  V30 14309 H 1370.79 1.29119 1.39386 0
M  V30 14310 H 1368.94 0.742033 3.81348 0
M  V30 14311 H 1370.61 3.28717 3.2364 0
M  V30 14312 H 1368.86 3.1395 2.99362 0
M  V30 14313 H 1369.53 3.01668 4.62277 0
M  V30 14314 H 1372 1.19854 3.98465 0
M  V30 14315 H 1370.88 1.15057 5.36706 0
M  V30 14316 H 1371.14 -0.299601 4.41084 0
M  V30 14317 N 1370.2 -1.34667 0.818693 0
M  V30 14318 C 1371.61 -1.80839 0.46414 0
M  V30 14319 C 1371.96 -1.67902 -1.01506 0
M  V30 14320 O 1371.09 -1.21658 -1.78964 0
M  V30 14321 C 1371.68 -3.28331 0.835698 0
M  V30 14322 C 1370.24 -3.72599 0.533575 0
M  V30 14323 C 1369.39 -2.56452 1.05487 0
M  V30 14324 H 1372.34 -1.22474 1.00925 0
M  V30 14325 H 1372.36 -3.8025 0.13785 0
M  V30 14326 H 1371.87 -3.37715 1.91233 0
M  V30 14327 H 1369.97 -3.68756 -0.533819 0
M  V30 14328 H 1370.08 -4.66891 1.07468 0
M  V30 14329 H 1368.45 -2.50201 0.476612 0
M  V30 14330 H 1369.23 -2.68608 2.13786 0
M  V30 14331 N 1371.68 -0.573274 -1.46804 0
M  V30 14332 C 1372.63 0.186085 -2.27239 0
M  V30 14333 C 1373.61 0.870579 -1.35313 0
M  V30 14334 O 1374.8 0.766233 -1.59555 0
M  V30 14335 C 1371.93 1.2052 -3.21449 0
M  V30 14336 C 1371.02 0.523305 -4.20859 0
M  V30 14337 N 1371.41 -0.415768 -5.04088 0
M  V30 14338 C 1369.71 0.775236 -4.39211 0
M  V30 14339 C 1370.41 -0.81341 -5.75985 0
M  V30 14340 N 1369.38 -0.164647 -5.43351 0
M  V30 14341 H 1373.19 -0.535687 -2.88977 0
M  V30 14342 H 1370.7 -0.394373 -1.57539 0
M  V30 14343 H 1372.7 1.76331 -3.77774 0
M  V30 14344 H 1371.36 1.9279 -2.61271 0
M  V30 14345 H 1372.37 -0.790798 -5.11827 0
M  V30 14346 H 1369.04 1.48522 -3.90189 0
M  V30 14347 H 1370.43 -1.58598 -6.52914 0
M  V30 14348 N 1373.15 1.5451 -0.310553 0
M  V30 14349 C 1374.57 1.85829 0.180166 0
M  V30 14350 C 1374.92 1.23239 1.52665 0
M  V30 14351 O 1374.04 0.53359 2.09718 0
M  V30 14352 C 1374.64 3.37153 0.333687 0
M  V30 14353 C 1373.2 3.68469 0.768625 0
M  V30 14354 C 1372.34 2.77051 -0.117399 0
M  V30 14355 H 1375.29 1.49544 -0.531262 0
M  V30 14356 H 1375.31 3.62171 1.16673 0
M  V30 14357 H 1374.83 3.82678 -0.646455 0
M  V30 14358 H 1372.93 3.28467 1.75898 0
M  V30 14359 H 1373.04 4.75559 0.581392 0
M  V30 14360 H 1371.4 2.51461 0.404905 0
M  V30 14361 H 1372.19 3.254 -1.09407 0
M  V30 14362 N 1374.63 0.0384594 1.57553 0
M  V30 14363 C 1376.05 -0.318006 1.564 0
M  V30 14364 C 1376.25 -1.72287 1.04496 0
M  V30 14365 O 1375.31 -2.42722 0.695861 0
M  V30 14366 C 1376.62 -0.158079 3.00284 0
M  V30 14367 C 1378.17 -0.230143 3.12153 0
M  V30 14368 C 1378.64 -0.0988948 4.57893 0
M  V30 14369 N 1380.13 -0.15558 4.62939 0
M  V30 14370 C 1380.87 -0.077948 5.73347 0
M  V30 14371 N 1380.36 0.0513054 6.92781 0
M  V30 14372 N 1382.16 -0.132612 5.61944 0
M  V30 14373 H 1374.31 0.957014 1.89618 0
M  V30 14374 H 1376.57 0.370396 0.872646 0
M  V30 14375 H 1376.28 0.810032 3.42245 0
M  V30 14376 H 1376.15 -0.924413 3.65697 0
M  V30 14377 H 1378.54 -1.18872 2.70099 0
M  V30 14378 H 1378.62 0.56673 2.49443 0
M  V30 14379 H 1378.26 0.856301 5.00629 0
M  V30 14380 H 1378.19 -0.91475 5.18594 0
M  V30 14381 H 1380.68 -0.255245 3.77037 0
M  V30 14382 H 1381 0.103595 7.72731 0
M  V30 14383 H 1379.34 0.0862166 6.94947 0
M  V30 14384 H 1382.53 -0.232056 4.67524 0
M  V30 14385 H 1382.71 -0.0686506 6.47964 0
M  V30 14386 N 1376.11 -1.55841 -0.234795 0
M  V30 14387 C 1377.36 -1.78238 -0.961116 0
M  V30 14388 C 1377.69 -0.604919 -1.84854 0
M  V30 14389 O 1376.94 0.411289 -1.91329 0
M  V30 14390 C 1377.24 -3.06262 -1.84223 0
M  V30 14391 C 1376.91 -4.37045 -1.10916 0
M  V30 14392 C 1375.57 -4.72582 -0.906606 0
M  V30 14393 C 1377.92 -5.17844 -0.59049 0
M  V30 14394 C 1375.25 -5.86444 -0.173275 0
M  V30 14395 C 1377.6 -6.32468 0.129433 0
M  V30 14396 C 1376.26 -6.66616 0.343357 0
M  V30 14397 H 1375.53 -0.652219 -0.351697 0
M  V30 14398 H 1378.18 -1.9011 -0.230272 0
M  V30 14399 H 1376.49 -2.89454 -2.64052 0
M  V30 14400 H 1378.18 -3.20791 -2.40612 0
M  V30 14401 H 1374.77 -4.09134 -1.27699 0
M  V30 14402 H 1378.96 -4.90835 -0.734487 0
M  V30 14403 H 1374.21 -6.114 0.00282409 0
M  V30 14404 H 1378.39 -6.94312 0.538905 0
M  V30 14405 H 1376.01 -7.54691 0.913538 0
M  V30 14406 N 1377.59 0.500963 -1.49426 0
M  V30 14407 C 1378.82 1.27725 -1.62388 0
M  V30 14408 C 1379.23 1.86893 -0.294544 0
M  V30 14409 O 1378.57 1.68571 0.73003 0
M  V30 14410 C 1378.63 2.44649 -2.63414 0
M  V30 14411 C 1378.3 2.0635 -4.0776 0
M  V30 14412 C 1379.29 1.60323 -4.94563 0
M  V30 14413 C 1376.98 2.15984 -4.53493 0
M  V30 14414 C 1378.97 1.24433 -6.25136 0
M  V30 14415 C 1376.66 1.79706 -5.8408 0
M  V30 14416 C 1377.66 1.34005 -6.69725 0
M  V30 14417 O 1377.35 0.982171 -7.97878 0
M  V30 14418 H 1377.08 0.393595 -0.549599 0
M  V30 14419 H 1379.63 0.607944 -1.96197 0
M  V30 14420 H 1377.86 3.14656 -2.24785 0
M  V30 14421 H 1379.55 3.06675 -2.65905 0
M  V30 14422 H 1380.32 1.52326 -4.60458 0
M  V30 14423 H 1376.2 2.50507 -3.86998 0
M  V30 14424 H 1379.74 0.886906 -6.91939 0
M  V30 14425 H 1375.64 1.87352 -6.17713 0
M  V30 14426 H 1376.4 1.11364 -8.10889 0
M  V30 14427 N 1379.07 1.38501 0.752011 0
M  V30 14428 C 1380.31 1.36212 1.52399 0
M  V30 14429 C 1380.67 -0.0472831 1.91942 0
M  V30 14430 O 1381.87 -0.195055 2.68091 0
M  V30 14431 C 1380.14 2.2925 2.74188 0
M  V30 14432 S 1381.7 2.44995 3.64037 0
M  V30 14433 H 1378.52 0.483276 0.521503 0
M  V30 14434 H 1381.12 1.74441 0.882647 0
M  V30 14435 H 1379.83 3.30541 2.4325 0
M  V30 14436 H 1379.36 1.92176 3.43266 0
M  V30 14437 H 1381.37 1.67519 4.67067 0
M  V30 14438 N 1380.55 -0.980364 1.23396 0
M  V30 14439 C 1381.79 -1.72421 1.06765 0
M  V30 14440 C 1382.12 -1.90151 -0.394515 0
M  V30 14441 O 1381.4 -1.4538 -1.29209 0
M  V30 14442 C 1381.68 -3.12246 1.79372 0
M  V30 14443 C 1381.54 -3.02087 3.33262 0
M  V30 14444 C 1382.85 -4.11667 1.55624 0
M  V30 14445 H 1379.97 -0.625822 0.389251 0
M  V30 14446 H 1382.62 -1.14132 1.51901 0
M  V30 14447 H 1380.77 -3.62008 1.41004 0
M  V30 14448 H 1382.44 -2.59848 3.81152 0
M  V30 14449 H 1380.68 -2.38592 3.62293 0
M  V30 14450 H 1381.35 -4.01087 3.79254 0
M  V30 14451 H 1383.83 -3.70712 1.88975 0
M  V30 14452 H 1382.7 -5.07593 2.08902 0
M  V30 14453 H 1382.96 -4.39358 0.491601 0
M  V30 14454 N 1382.02 -1.04567 -1.17913 0
M  V30 14455 C 1382.95 -0.662066 -2.23917 0
M  V30 14456 C 1383.93 0.33713 -1.66726 0
M  V30 14457 O 1385.12 0.216116 -1.92994 0
M  V30 14458 C 1382.25 -0.029463 -3.47288 0
M  V30 14459 C 1381.2 -0.95274 -4.17261 0
M  V30 14460 C 1380.53 -0.184347 -5.34382 0
M  V30 14461 C 1381.83 -2.2741 -4.70194 0
M  V30 14462 H 1383.52 -1.54826 -2.5626 0
M  V30 14463 H 1381.07 -0.745886 -1.23177 0
M  V30 14464 H 1383.02 0.250654 -4.20654 0
M  V30 14465 H 1381.75 0.891638 -3.14193 0
M  V30 14466 H 1380.41 -1.21732 -3.45799 0
M  V30 14467 H 1380.05 0.73932 -4.97537 0
M  V30 14468 H 1379.75 -0.79949 -5.82136 0
M  V30 14469 H 1381.28 0.0886344 -6.10536 0
M  V30 14470 H 1382.69 -2.05433 -5.35229 0
M  V30 14471 H 1381.09 -2.84265 -5.28501 0
M  V30 14472 H 1382.16 -2.91708 -3.87342 0
M  V30 14473 N 1383.5 1.34231 -0.825823 0
M  V30 14474 C 1384.73 2.02949 -0.427354 0
M  V30 14475 C 1385.15 1.61772 0.959755 0
M  V30 14476 O 1384.51 0.803799 1.62508 0
M  V30 14477 C 1384.56 3.56522 -0.540799 0
M  V30 14478 O 1383.66 4.10065 0.438213 0
M  V30 14479 H 1383 0.640378 -0.175535 0
M  V30 14480 H 1385.53 1.71416 -1.11704 0
M  V30 14481 H 1385.54 4.05857 -0.41763 0
M  V30 14482 H 1384.22 3.85839 -1.55246 0
M  V30 14483 H 1382.79 3.71894 0.273687 0
M  V30 14484 N 1384.98 0.581051 1.46498 0
M  V30 14485 C 1386.39 0.154032 1.86064 0
M  V30 14486 C 1386.74 -1.28247 1.48483 0
M  V30 14487 O 1385.87 -1.96845 0.898945 0
M  V30 14488 C 1386.46 0.272764 3.377 0
M  V30 14489 C 1385.02 -0.0993724 3.76269 0
M  V30 14490 C 1384.17 0.60947 2.70519 0
M  V30 14491 H 1387.12 0.78937 1.37676 0
M  V30 14492 H 1387.14 -0.502326 3.7717 0
M  V30 14493 H 1386.65 1.31837 3.65021 0
M  V30 14494 H 1384.75 -1.14517 3.54565 0
M  V30 14495 H 1384.87 0.275791 4.78306 0
M  V30 14496 H 1383.23 0.0499083 2.54651 0
M  V30 14497 H 1384.01 1.65669 3.0068 0
M  V30 14498 N 1386.46 -1.54343 0.318742 0
M  V30 14499 C 1387.37 -2.27856 -0.558442 0
M  V30 14500 C 1388.38 -1.32029 -1.13333 0
M  V30 14501 O 1389.56 -1.65037 -1.15433 0
M  V30 14502 C 1386.62 -3.01842 -1.70565 0
M  V30 14503 C 1385.69 -4.13245 -1.16305 0
M  V30 14504 C 1384.92 -4.83693 -2.25559 0
M  V30 14505 O 1385.14 -4.53621 -3.4581 0
M  V30 14506 O 1384.08 -5.70708 -1.91249 0
M  V30 14507 H 1387.9 -3.03676 0.0384247 0
M  V30 14508 H 1385.49 -1.4916 0.0845936 0
M  V30 14509 H 1387.37 -3.48189 -2.37365 0
M  V30 14510 H 1386.04 -2.28902 -2.28879 0
M  V30 14511 H 1384.95 -3.71258 -0.460274 0
M  V30 14512 H 1386.28 -4.88214 -0.625111 0
M  V30 14513 N 1387.94 -0.0468143 -1.5753 0
M  V30 14514 C 1388.9 0.914225 -2.10177 0
M  V30 14515 C 1389.9 1.24271 -1.02045 0
M  V30 14516 O 1391.09 1.18012 -1.28136 0
M  V30 14517 C 1388.22 2.22544 -2.58238 0
M  V30 14518 H 1389.41 0.457922 -2.96383 0
M  V30 14519 H 1386.97 0.20152 -1.54995 0
M  V30 14520 H 1387.7 2.72765 -1.75413 0
M  V30 14521 H 1387.49 2.00007 -3.37253 0
M  V30 14522 H 1388.98 2.91392 -2.99133 0
M  V30 14523 N 1389.41 1.55964 0.226527 0
M  V30 14524 C 1390.64 1.83168 0.972846 0
M  V30 14525 C 1391.06 0.626512 1.7736 0
M  V30 14526 O 1390.42 -0.42468 1.76256 0
M  V30 14527 C 1390.47 3.08315 1.87014 0
M  V30 14528 O 1389.57 2.8666 2.96479 0
M  V30 14529 H 1388.92 0.604041 0.275736 0
M  V30 14530 H 1391.45 2.03172 0.241345 0
M  V30 14531 H 1391.46 3.38288 2.28091 0
M  V30 14532 H 1390.13 3.95663 1.28154 0
M  V30 14533 H 1388.71 2.67907 2.59384 0
M  V30 14534 N 1390.89 -0.493031 1.4969 0
M  V30 14535 C 1391.8 -1.61991 1.69694 0
M  V30 14536 C 1392.82 -1.64061 0.579641 0
M  V30 14537 O 1393.99 -1.82335 0.855323 0
M  V30 14538 C 1391.06 -2.98323 1.76648 0
M  V30 14539 C 1390.12 -3.06816 3.00271 0
M  V30 14540 C 1389.35 -4.36644 3.06883 0
M  V30 14541 O 1389.58 -5.25901 2.20872 0
M  V30 14542 O 1388.51 -4.50275 3.99419 0
M  V30 14543 H 1392.34 -1.48042 2.65174 0
M  V30 14544 H 1389.92 -0.670182 1.33525 0
M  V30 14545 H 1391.8 -3.79335 1.83529 0
M  V30 14546 H 1390.48 -3.12517 0.843482 0
M  V30 14547 H 1389.39 -2.24962 2.98903 0
M  V30 14548 H 1390.72 -2.97551 3.92077 0
M  V30 14549 N 1392.37 -1.38898 -0.744656 0
M  V30 14550 C 1393.65 -1.2611 -1.49518 0
M  V30 14551 C 1394.03 0.133592 -2.10677 0
M  V30 14552 O 1393.38 1.14394 -1.97804 0
M  V30 14553 C 1393.59 -2.37809 -2.55437 0
M  V30 14554 C 1394.93 -2.76664 -3.22091 0
M  V30 14555 O 1395.96 -2.37187 -2.65746 0
M  V30 14556 O 1394.82 -3.44771 -4.24023 0
M  V30 14557 H 1391.91 -0.493664 -0.663494 0
M  V30 14558 H 1394.46 -1.50748 -0.779304 0
M  V30 14559 H 1393.23 -3.31089 -2.08556 0
M  V30 14560 H 1392.85 -2.14783 -3.34595 0
M  V30 14561 N 1393.85 0.973806 -1.23914 0
M  V30 14562 C 1395.13 1.69087 -0.9833 0
M  V30 14563 C 1395.51 2.05186 0.49619 0
M  V30 14564 O 1394.85 1.75021 1.46901 0
M  V30 14565 C 1395.06 2.92739 -1.90012 0
M  V30 14566 C 1396.41 3.65112 -2.16745 0
M  V30 14567 O 1397.44 3.02785 -1.87616 0
M  V30 14568 O 1396.29 4.77293 -2.66183 0
M  V30 14569 H 1393.39 0.738919 -0.371386 0
M  V30 14570 H 1395.93 1.02844 -1.34986 0
M  V30 14571 H 1394.71 2.6271 -2.89999 0
M  V30 14572 H 1394.33 3.66718 -1.53635 0
M  V30 14573 N 1395.33 1.05191 1.17357 0
M  V30 14574 C 1396.26 0.673931 2.23563 0
M  V30 14575 C 1397.24 -0.328284 1.66902 0
M  V30 14576 O 1398.42 -0.205878 1.93106 0
M  V30 14577 C 1395.55 0.0478801 3.47267 0
M  V30 14578 C 1394.51 0.974855 4.1675 0
M  V30 14579 C 1393.83 0.212684 5.34277 0
M  V30 14580 C 1395.13 2.299 4.68981 0
M  V30 14581 H 1396.83 1.56183 2.55436 0
M  V30 14582 H 1394.37 0.752408 1.2278 0
M  V30 14583 H 1396.33 -0.228343 4.20781 0
M  V30 14584 H 1395.05 -0.874963 3.14662 0
M  V30 14585 H 1393.71 1.23564 3.45148 0
M  V30 14586 H 1393.36 -0.712924 4.97922 0
M  V30 14587 H 1393.06 0.830351 5.81703 0
M  V30 14588 H 1394.58 -0.056255 6.10574 0
M  V30 14589 H 1395.99 2.08269 5.34132 0
M  V30 14590 H 1394.39 2.87064 5.26986 0
M  V30 14591 H 1395.46 2.93759 3.8579 0
M  V30 14592 N 1396.8 -1.33791 0.83293 0
M  V30 14593 C 1397.75 -2.31249 0.250357 0
M  V30 14594 C 1398.75 -1.57865 -0.614403 0
M  V30 14595 O 1399.95 -1.72782 -0.504627 0
M  V30 14596 H 1396.33 -0.749421 0.0622268 0
M  V30 14597 H 1398.3 -2.77899 1.08697 0
M  V30 14598 C 1397.05 -3.43082 -0.564783 0
M  V30 14599 H 1396.37 -3.99696 0.0913189 0
M  V30 14600 H 1397.81 -4.13486 -0.938351 0
M  V30 14601 C 1396.27 -2.88414 -1.74124 0
M  V30 14602 O 1396.8 -2.84113 -2.83976 0
M  V30 14603 N 1395.01 -2.45101 -1.56121 0
M  V30 14604 H 1394.55 -2.48799 -0.667607 0
M  V30 14605 H 1394.51 -2.08875 -2.34986 0
M  V30 14606 N 1398.28 -0.588812 -1.46187 0
M  V30 14607 C 1399.7 -0.250962 -1.57615 0
M  V30 14608 C 1399.9 1.2467 -1.58302 0
M  V30 14609 O 1398.95 2.02876 -1.50325 0
M  V30 14610 C 1400.27 -0.905561 -2.8674 0
M  V30 14611 C 1401.82 -0.879721 -3.00383 0
M  V30 14612 C 1402.29 -1.51398 -4.32253 0
M  V30 14613 N 1403.78 -1.4786 -4.38967 0
M  V30 14614 C 1404.52 -1.93868 -5.39632 0
M  V30 14615 N 1404.01 -2.47876 -6.46938 0
M  V30 14616 N 1405.81 -1.84748 -5.30872 0
M  V30 14617 H 1397.96 -1.56148 -1.43985 0
M  V30 14618 H 1400.22 -0.653028 -0.68721 0
M  V30 14619 H 1399.93 -1.95935 -2.92066 0
M  V30 14620 H 1399.8 -0.417456 -3.74883 0
M  V30 14621 H 1402.19 0.165466 -2.94636 0
M  V30 14622 H 1402.27 -1.40591 -2.137 0
M  V30 14623 H 1401.91 -2.55839 -4.38758 0
M  V30 14624 H 1401.84 -0.962965 -5.17721 0
M  V30 14625 H 1404.33 -1.08387 -3.62023 0
M  V30 14626 H 1404.65 -2.80824 -7.1997 0
M  V30 14627 H 1402.99 -2.51905 -6.47741 0
M  V30 14628 H 1406.18 -1.42307 -4.45944 0
M  V30 14629 H 1406.35 -2.20919 -6.09179 0
M  V30 14630 N 1399.76 1.54172 -0.326923 0
M  V30 14631 C 1400.69 2.27402 0.530154 0
M  V30 14632 C 1401.67 1.28325 1.11655 0
M  V30 14633 O 1402.86 1.57142 1.14105 0
M  V30 14634 C 1399.99 3.03435 1.68951 0
M  V30 14635 C 1398.94 4.09877 1.23226 0
M  V30 14636 C 1398.27 4.7377 2.47882 0
M  V30 14637 C 1399.57 5.21161 0.344698 0
M  V30 14638 H 1401.26 2.99291 -0.0806959 0
M  V30 14639 H 1398.81 1.43944 -0.0402511 0
M  V30 14640 H 1400.76 3.53396 2.29541 0
M  V30 14641 H 1399.48 2.29169 2.327 0
M  V30 14642 H 1398.14 3.60805 0.649267 0
M  V30 14643 H 1397.79 3.96116 3.10002 0
M  V30 14644 H 1397.49 5.45674 2.17977 0
M  V30 14645 H 1399.01 5.26507 3.09229 0
M  V30 14646 H 1400.43 5.66859 0.856979 0
M  V30 14647 H 1398.83 5.99941 0.138276 0
M  V30 14648 H 1399.9 4.80874 -0.623575 0
M  V30 14649 N 1401.24 0.0551678 1.57503 0
M  V30 14650 C 1402.52 -0.657808 1.84207 0
M  V30 14651 C 1402.9 -1.88798 0.944372 0
M  V30 14652 O 1402.24 -2.28499 0.00641728 0
M  V30 14653 C 1402.45 -1.0113 3.34026 0
M  V30 14654 C 1403.8 -1.39189 4.01138 0
M  V30 14655 O 1404.83 -1.10353 3.38675 0
M  V30 14656 O 1403.68 -1.93023 5.11277 0
M  V30 14657 H 1400.78 -0.325084 0.760427 0
M  V30 14658 H 1403.32 0.0848352 1.69488 0
M  V30 14659 H 1402.1 -0.13688 3.91061 0
M  V30 14660 H 1401.72 -1.81126 3.53948 0
M  V30 14661 N 1402.72 -1.56081 -0.218252 0
M  V30 14662 C 1403.94 -1.83681 -0.963119 0
M  V30 14663 C 1404.37 -0.635909 -1.77025 0
M  V30 14664 O 1403.72 0.415327 -1.76479 0
M  V30 14665 C 1403.77 -3.09302 -1.85376 0
M  V30 14666 O 1402.88 -2.88228 -2.94955 0
M  V30 14667 H 1402.22 -0.605495 -0.272529 0
M  V30 14668 H 1404.75 -2.03297 -0.230567 0
M  V30 14669 H 1404.76 -3.39493 -2.26294 0
M  V30 14670 H 1403.43 -3.96337 -1.26054 0
M  V30 14671 H 1402.01 -2.69279 -2.57959 0
M  V30 14672 N 1404.2 0.485086 -1.49949 0
M  V30 14673 C 1405.44 1.23999 -1.60474 0
M  V30 14674 C 1405.77 1.91904 -0.297736 0
M  V30 14675 O 1405.05 1.81472 0.699857 0
M  V30 14676 C 1405.33 2.2946 -2.77525 0
M  V30 14677 C 1405.19 1.65952 -4.18067 0
M  V30 14678 C 1406.5 3.30893 -2.90169 0
M  V30 14679 H 1403.62 0.449462 -0.584083 0
M  V30 14680 H 1406.27 0.535795 -1.82289 0
M  V30 14681 H 1404.42 2.89521 -2.59056 0
M  V30 14682 H 1406.09 1.09596 -4.48092 0
M  V30 14683 H 1404.33 0.963079 -4.22974 0
M  V30 14684 H 1405 2.42521 -4.9587 0
M  V30 14685 H 1407.48 2.8084 -3.07031 0
M  V30 14686 H 1406.35 4.02027 -3.73718 0
M  V30 14687 H 1406.61 3.94178 -2.0019 0
M  V30 14688 N 1405.67 1.39291 0.737279 0
M  V30 14689 C 1406.64 1.37607 1.83294 0
M  V30 14690 C 1407.64 0.273594 1.58455 0
M  V30 14691 O 1408.83 0.531375 1.65898 0
M  V30 14692 C 1405.96 1.14642 3.21045 0
M  V30 14693 H 1407.15 2.35102 1.86191 0
M  V30 14694 H 1404.7 1.24822 0.940696 0
M  V30 14695 H 1405.44 0.178202 3.2381 0
M  V30 14696 H 1405.22 1.94479 3.40471 0
M  V30 14697 H 1406.71 1.162 4.01108 0
M  V30 14698 N 1407.15 -0.967221 1.24429 0
M  V30 14699 C 1408.39 -1.72521 1.09617 0
M  V30 14700 C 1408.76 -1.88618 -0.358774 0
M  V30 14701 O 1409.96 -2.61351 -0.628408 0
M  V30 14702 C 1408.23 -3.07818 1.81612 0
M  V30 14703 S 1409.79 -3.99031 1.82537 0
M  V30 14704 H 1406.6 -0.593148 0.392041 0
M  V30 14705 H 1409.21 -1.15456 1.57766 0
M  V30 14706 H 1407.91 -2.93762 2.86586 0
M  V30 14707 H 1407.44 -3.69948 1.33799 0
M  V30 14708 H 1409.46 -4.88091 0.893391 0
M  V30 14709 N 1408.63 -1.05812 -1.16797 0
M  V30 14710 C 1409.91 -0.685551 -1.83193 0
M  V30 14711 C 1410.29 0.833539 -1.93947 0
M  V30 14712 O 1409.63 1.74193 -1.47882 0
M  V30 14713 C 1409.84 -1.38183 -3.20479 0
M  V30 14714 C 1411.19 -1.52389 -3.96311 0
M  V30 14715 O 1412.22 -1.34134 -3.2998 0
M  V30 14716 O 1411.08 -1.82297 -5.15199 0
M  V30 14717 H 1408.17 -0.242095 -0.790771 0
M  V30 14718 H 1410.72 -1.15809 -1.24041 0
M  V30 14719 H 1409.49 -2.41791 -3.07657 0
M  V30 14720 H 1409.11 -0.899043 -3.87302 0
M  V30 14721 N 1410.11 1.33347 -0.840014 0
M  V30 14722 C 1411.35 1.98037 -0.43692 0
M  V30 14723 C 1411.69 1.66382 1.00154 0
M  V30 14724 O 1410.96 0.944311 1.70038 0
M  V30 14725 C 1411.24 3.54012 -0.65937 0
M  V30 14726 C 1411.1 3.9535 -2.14518 0
M  V30 14727 C 1412.42 4.39972 -0.106258 0
M  V30 14728 H 1409.54 0.719373 -0.160221 0
M  V30 14729 H 1412.18 1.57969 -1.05574 0
M  V30 14730 H 1410.33 3.88274 -0.132633 0
M  V30 14731 H 1412 3.7134 -2.73687 0
M  V30 14732 H 1410.24 3.4504 -2.62926 0
M  V30 14733 H 1410.91 5.03992 -2.25158 0
M  V30 14734 H 1413.39 4.12362 -0.556511 0
M  V30 14735 H 1412.27 5.48125 -0.291583 0
M  V30 14736 H 1412.53 4.30872 0.990032 0
M  V30 14737 N 1411.59 0.596556 1.45873 0
M  V30 14738 C 1412.52 -0.116229 2.33211 0
M  V30 14739 C 1413.5 -0.869868 1.46176 0
M  V30 14740 O 1414.68 -0.842599 1.74968 0
M  V30 14741 C 1411.81 -1.12145 3.28696 0
M  V30 14742 C 1410.77 -0.481749 4.2528 0
M  V30 14743 C 1410.09 -1.59443 5.10374 0
M  V30 14744 C 1411.39 0.589996 5.18957 0
M  V30 14745 H 1413.09 0.613005 2.93057 0
M  V30 14746 H 1410.63 0.296242 1.4092 0
M  V30 14747 H 1412.58 -1.62857 3.88659 0
M  V30 14748 H 1411.31 -1.88114 2.66985 0
M  V30 14749 H 1409.97 0.0044092 3.666 0
M  V30 14750 H 1409.62 -2.34413 4.45039 0
M  V30 14751 H 1409.32 -1.17197 5.75794 0
M  V30 14752 H 1410.84 -2.10404 5.73204 0
M  V30 14753 H 1412.25 0.167395 5.73056 0
M  V30 14754 H 1410.65 0.933565 5.92794 0
M  V30 14755 H 1411.72 1.47093 4.62052 0
M  V30 14756 N 1413.06 -1.53996 0.335095 0
M  V30 14757 C 1414.31 -2.00772 -0.263997 0
M  V30 14758 C 1414.64 -1.22309 -1.51231 0
M  V30 14759 O 1413.89 -0.296427 -1.93442 0
M  V30 14760 C 1414.19 -3.51769 -0.631907 0
M  V30 14761 C 1413.86 -4.47908 0.518553 0
M  V30 14762 C 1412.52 -4.73912 0.834297 0
M  V30 14763 C 1414.87 -5.04964 1.29078 0
M  V30 14764 C 1412.2 -5.54228 1.92478 0
M  V30 14765 C 1414.55 -5.86469 2.37144 0
M  V30 14766 C 1413.22 -6.1077 2.69288 0
M  V30 14767 H 1412.49 -0.734676 -0.0966033 0
M  V30 14768 H 1415.13 -1.85862 0.46126 0
M  V30 14769 H 1413.44 -3.64466 -1.43776 0
M  V30 14770 H 1415.14 -3.85412 -1.10719 0
M  V30 14771 H 1411.73 -4.27796 0.262392 0
M  V30 14772 H 1415.91 -4.84846 1.0601 0
M  V30 14773 H 1411.17 -5.71285 2.17816 0
M  V30 14774 H 1415.34 -6.29695 2.97417 0
M  V30 14775 H 1412.97 -6.72792 3.53913 0
M  V30 14776 N 1414.54 -0.0635198 -1.57472 0
M  V30 14777 C 1415.77 0.620205 -1.9791 0
M  V30 14778 C 1416.19 1.62851 -0.941335 0
M  V30 14779 O 1415.55 1.81056 0.0940313 0
M  V30 14780 C 1415.6 1.27261 -3.37397 0
M  V30 14781 O 1414.7 2.38841 -3.36197 0
M  V30 14782 H 1414.04 0.16021 -0.644382 0
M  V30 14783 H 1416.57 -0.135582 -2.0415 0
M  V30 14784 H 1416.58 1.6214 -3.74399 0
M  V30 14785 H 1415.26 0.533723 -4.12461 0
M  V30 14786 H 1413.83 2.05817 -3.10956 0
M  V30 14787 N 1416.02 1.56195 0.209972 0
M  V30 14788 C 1416.97 1.93355 1.26026 0
M  V30 14789 C 1417.94 0.792195 1.45991 0
M  V30 14790 O 1419.12 1.04909 1.5937 0
M  V30 14791 C 1416.26 2.26558 2.60318 0
M  V30 14792 C 1415.37 3.53685 2.48055 0
M  V30 14793 C 1414.51 3.76279 3.7495 0
M  V30 14794 C 1413.55 4.96881 3.57457 0
M  V30 14795 N 1412.69 5.15806 4.76328 0
M  V30 14796 H 1417.53 2.82907 0.936357 0
M  V30 14797 H 1415.06 1.40015 0.451022 0
M  V30 14798 H 1417.02 2.43821 3.38537 0
M  V30 14799 H 1415.65 1.40165 2.90781 0
M  V30 14800 H 1414.7 3.44551 1.61211 0
M  V30 14801 H 1416.01 4.42057 2.31056 0
M  V30 14802 H 1415.17 3.93702 4.6161 0
M  V30 14803 H 1413.91 2.86209 3.94887 0
M  V30 14804 H 1412.91 4.79397 2.69181 0
M  V30 14805 H 1414.14 5.88447 3.38979 0
M  V30 14806 H 1412.08 4.28681 4.96557 0
M  V30 14807 H 1412 5.98332 4.62099 0
M  V30 14808 H 1413.27 5.37674 5.64382 0
M  V30 14809 N 1417.5 -0.477127 1.50204 0
M  V30 14810 C 1418.43 -1.58405 1.71552 0
M  V30 14811 C 1419.41 -1.60463 0.564413 0
M  V30 14812 O 1420.59 -1.76826 0.802893 0
M  V30 14813 C 1417.72 -2.96765 1.8041 0
M  V30 14814 C 1416.68 -3.09573 2.95548 0
M  V30 14815 C 1416 -4.49522 2.89542 0
M  V30 14816 C 1417.3 -2.87356 4.36147 0
M  V30 14817 H 1419 -1.40792 2.64231 0
M  V30 14818 H 1416.54 -0.675886 1.27153 0
M  V30 14819 H 1418.5 -3.74125 1.9393 0
M  V30 14820 H 1417.22 -3.1552 0.843489 0
M  V30 14821 H 1415.88 -2.34645 2.81669 0
M  V30 14822 H 1415.53 -4.65186 1.91339 0
M  V30 14823 H 1415.23 -4.59028 3.66834 0
M  V30 14824 H 1416.75 -5.28909 3.05102 0
M  V30 14825 H 1418.17 -3.54469 4.50583 0
M  V30 14826 H 1416.56 -3.08313 5.14843 0
M  V30 14827 H 1417.63 -1.83264 4.48935 0
M  V30 14828 N 1418.98 -1.3968 -0.729882 0
M  V30 14829 C 1420.22 -1.37385 -1.49175 0
M  V30 14830 C 1420.56 0.0285839 -1.94179 0
M  V30 14831 O 1419.83 0.994516 -1.67152 0
M  V30 14832 C 1420.11 -2.35075 -2.72785 0
M  V30 14833 C 1419.97 -3.84282 -2.33767 0
M  V30 14834 C 1421.29 -2.30515 -3.74901 0
M  V30 14835 H 1418.4 -0.500359 -0.541119 0
M  V30 14836 H 1421.05 -1.7071 -0.834152 0
M  V30 14837 H 1419.2 -2.06787 -3.28894 0
M  V30 14838 H 1420.87 -4.2334 -1.8325 0
M  V30 14839 H 1419.11 -4.00809 -1.65935 0
M  V30 14840 H 1419.78 -4.48131 -3.22309 0
M  V30 14841 H 1422.26 -2.55539 -3.28389 0
M  V30 14842 H 1421.13 -3.00939 -4.5905 0
M  V30 14843 H 1421.4 -1.3119 -4.22187 0
M  V30 14844 N 1420.45 0.960609 -1.2494 0
M  V30 14845 C 1421.4 2.05634 -1.04801 0
M  V30 14846 C 1422.37 1.66049 0.0409611 0
M  V30 14847 O 1423.56 1.90453 -0.115053 0
M  V30 14848 C 1420.7 3.38604 -0.666444 0
M  V30 14849 C 1419.81 3.91341 -1.82964 0
M  V30 14850 C 1418.94 5.1261 -1.39299 0
M  V30 14851 C 1417.98 5.57562 -2.52569 0
M  V30 14852 N 1417.12 6.70046 -2.09722 0
M  V30 14853 H 1421.96 2.22194 -1.9858 0
M  V30 14854 H 1419.5 1.08892 -0.988981 0
M  V30 14855 H 1421.46 4.15017 -0.426205 0
M  V30 14856 H 1420.09 3.21948 0.23435 0
M  V30 14857 H 1419.14 3.11502 -2.18335 0
M  V30 14858 H 1420.45 4.20656 -2.68049 0
M  V30 14859 H 1419.6 5.96421 -1.11205 0
M  V30 14860 H 1418.34 4.84997 -0.512779 0
M  V30 14861 H 1417.35 4.72319 -2.81415 0
M  V30 14862 H 1418.57 5.87186 -3.41159 0
M  V30 14863 H 1416.52 6.44153 -1.24109 0
M  V30 14864 H 1416.44 6.98846 -2.88357 0
M  V30 14865 H 1417.7 7.57281 -1.84787 0
M  V30 14866 N 1421.93 1.0643 1.16234 0
M  V30 14867 C 1423.16 0.80148 1.9042 0
M  V30 14868 C 1423.57 -0.648064 1.77755 0
M  V30 14869 O 1422.91 -1.4555 1.12076 0
M  V30 14870 C 1422.98 1.11855 3.41656 0
M  V30 14871 C 1422.64 2.5668 3.78107 0
M  V30 14872 C 1423.64 3.54914 3.79911 0
M  V30 14873 C 1421.32 2.92015 4.08696 0
M  V30 14874 C 1423.32 4.86522 4.11795 0
M  V30 14875 C 1421 4.23823 4.40247 0
M  V30 14876 C 1422 5.20887 4.41776 0
M  V30 14877 O 1421.69 6.50329 4.72575 0
M  V30 14878 H 1421.42 0.290009 0.610632 0
M  V30 14879 H 1423.97 1.42157 1.48258 0
M  V30 14880 H 1422.2 0.441395 3.84173 0
M  V30 14881 H 1423.89 0.839759 3.97118 0
M  V30 14882 H 1424.66 3.28957 3.56388 0
M  V30 14883 H 1420.54 2.17119 4.0667 0
M  V30 14884 H 1424.08 5.62278 4.12903 0
M  V30 14885 H 1419.98 4.49538 4.63235 0
M  V30 14886 H 1420.75 6.55339 4.90381 0
M  V30 14887 N 1423.41 -1.329 0.847073 0
M  V30 14888 C 1424.69 -1.921 0.368351 0
M  V30 14889 C 1425.07 -1.77205 -1.14724 0
M  V30 14890 O 1424.42 -1.16547 -1.96543 0
M  V30 14891 C 1424.63 -3.39125 0.824326 0
M  V30 14892 C 1425.97 -4.16267 0.837097 0
M  V30 14893 O 1427 -3.47812 0.768466 0
M  V30 14894 O 1425.86 -5.38487 0.932389 0
M  V30 14895 H 1422.95 -0.820187 0.105936 0
M  V30 14896 H 1425.5 -1.41719 0.933471 0
M  V30 14897 H 1424.27 -3.43875 1.86723 0
M  V30 14898 H 1423.89 -3.96898 0.236233 0
M  V30 14899 N 1424.89 -0.604284 -1.45555 0
M  V30 14900 C 1425.8 0.118409 -2.34301 0
M  V30 14901 C 1426.81 0.863807 -1.51044 0
M  V30 14902 O 1427.99 0.822138 -1.83856 0
M  V30 14903 C 1425.06 1.10538 -3.28606 0
M  V30 14904 C 1424.12 0.362301 -4.27768 0
M  V30 14905 C 1423.35 1.30226 -5.17568 0
M  V30 14906 O 1423.57 2.53991 -5.10729 0
M  V30 14907 O 1422.51 0.801116 -5.96545 0
M  V30 14908 H 1426.33 -0.610816 -2.97494 0
M  V30 14909 H 1423.92 -0.364562 -1.44884 0
M  V30 14910 H 1425.8 1.67392 -3.86727 0
M  V30 14911 H 1424.47 1.81569 -2.67982 0
M  V30 14912 H 1423.38 -0.248616 -3.73273 0
M  V30 14913 H 1424.71 -0.307454 -4.91239 0
M  V30 14914 N 1426.37 1.53816 -0.343257 0
M  V30 14915 C 1427.3 2.27951 0.506005 0
M  V30 14916 C 1428.28 1.29502 1.10287 0
M  V30 14917 O 1429.46 1.58344 1.12432 0
M  V30 14918 C 1426.59 3.0521 1.65723 0
M  V30 14919 C 1425.55 4.11161 1.18871 0
M  V30 14920 C 1424.87 4.76373 2.42843 0
M  V30 14921 C 1426.17 5.21498 0.289403 0
M  V30 14922 H 1427.87 2.99189 -0.112435 0
M  V30 14923 H 1425.41 1.43893 -0.055516 0
M  V30 14924 H 1427.37 3.55811 2.2578 0
M  V30 14925 H 1426.09 2.31624 2.30256 0
M  V30 14926 H 1424.75 3.61473 0.610962 0
M  V30 14927 H 1424.4 3.99381 3.05784 0
M  V30 14928 H 1424.1 5.47955 2.12177 0
M  V30 14929 H 1425.62 5.29758 3.03627 0
M  V30 14930 H 1427.03 5.67736 0.796808 0
M  V30 14931 H 1425.43 6.00054 0.0746366 0
M  V30 14932 H 1426.5 4.80185 -0.674543 0
M  V30 14933 N 1427.84 0.0718701 1.57436 0
M  V30 14934 C 1429.07 -0.605374 1.97532 0
M  V30 14935 C 1429.48 -1.6368 0.948974 0
M  V30 14936 O 1428.83 -1.83556 -0.0726987 0
M  V30 14937 C 1428.89 -1.33139 3.33937 0
M  V30 14938 C 1428.55 -0.453426 4.54745 0
M  V30 14939 C 1429.55 0.289012 5.19096 0
M  V30 14940 C 1427.23 -0.378282 5.00874 0
M  V30 14941 C 1429.23 1.09482 6.27927 0
M  V30 14942 C 1426.91 0.431192 6.09577 0
M  V30 14943 C 1427.91 1.16641 6.72966 0
M  V30 14944 O 1427.6 1.96253 7.79577 0
M  V30 14945 H 1427.33 -0.168804 0.654585 0
M  V30 14946 H 1429.89 0.140832 2.04917 0
M  V30 14947 H 1428.12 -2.12367 3.23167 0
M  V30 14948 H 1429.81 -1.90089 3.58638 0
M  V30 14949 H 1430.57 0.240552 4.84403 0
M  V30 14950 H 1426.45 -0.940166 4.51311 0
M  V30 14951 H 1429.99 1.66918 6.77336 0
M  V30 14952 H 1425.89 0.481217 6.43704 0
M  V30 14953 H 1426.66 1.88686 7.96455 0
M  V30 14954 N 1429.32 -1.56304 -0.201686 0
M  V30 14955 C 1430.29 -1.93171 -1.2336 0
M  V30 14956 C 1431.29 -0.812164 -1.38782 0
M  V30 14957 O 1432.48 -1.07967 -1.36707 0
M  V30 14958 C 1429.61 -2.19997 -2.60411 0
M  V30 14959 H 1430.8 -2.85483 -0.918654 0
M  V30 14960 H 1428.35 -1.49893 -0.442935 0
M  V30 14961 H 1429.09 -1.30301 -2.96972 0
M  V30 14962 H 1428.87 -3.01574 -2.5059 0
M  V30 14963 H 1430.36 -2.49547 -3.34838 0
M  V30 14964 N 1430.8 0.469154 -1.50455 0
M  V30 14965 C 1431.76 1.5493 -1.68906 0
M  V30 14966 C 1432.76 1.50744 -0.559721 0
M  V30 14967 O 1433.95 1.5333 -0.826781 0
M  V30 14968 C 1431.09 2.94556 -1.71609 0
M  V30 14969 H 1432.28 1.39887 -2.65276 0
M  V30 14970 H 1429.83 0.695667 -1.39965 0
M  V30 14971 H 1430.57 3.15041 -0.769382 0
M  V30 14972 H 1430.35 2.99002 -2.53654 0
M  V30 14973 H 1431.84 3.72973 -1.87831 0
M  V30 14974 N 1432.28 1.40065 0.722464 0
M  V30 14975 C 1433.21 1.42532 1.84951 0
M  V30 14976 C 1434.19 0.287082 1.6766 0
M  V30 14977 O 1435.37 0.494715 1.87793 0
M  V30 14978 C 1432.5 1.28041 3.22836 0
M  V30 14979 C 1431.46 2.39396 3.54787 0
M  V30 14980 C 1430.78 2.09986 4.91742 0
M  V30 14981 C 1432.08 3.81729 3.56483 0
M  V30 14982 H 1433.78 2.36851 1.83144 0
M  V30 14983 H 1431.32 1.14005 0.879714 0
M  V30 14984 H 1433.28 1.28385 4.01367 0
M  V30 14985 H 1432 0.301947 3.25201 0
M  V30 14986 H 1430.66 2.3829 2.78592 0
M  V30 14987 H 1430.31 1.10547 4.90702 0
M  V30 14988 H 1430.01 2.84586 5.14086 0
M  V30 14989 H 1431.53 2.12 5.72615 0
M  V30 14990 H 1432.95 3.84696 4.25067 0
M  V30 14991 H 1431.34 4.55791 3.90351 0
M  V30 14992 H 1432.41 4.11807 2.56014 0
M  V30 14993 N 1433.76 -0.95397 1.25448 0
M  V30 14994 C 1434.99 -1.73331 1.12977 0
M  V30 14995 C 1435.4 -1.86131 -0.316364 0
M  V30 14996 O 1434.76 -1.35951 -1.21753 0
M  V30 14997 C 1434.81 -3.14675 1.77938 0
M  V30 14998 O 1434.53 -3.025 3.16899 0
M  V30 14999 C 1436.03 -4.08884 1.71256 0
M  V30 15000 H 1433.25 -0.543118 0.394036 0
M  V30 15001 H 1435.79 -1.19678 1.65823 0
M  V30 15002 H 1433.95 -3.6527 1.29062 0
M  V30 15003 H 1434.36 -3.91668 3.4885 0
M  V30 15004 H 1435.84 -5.05668 2.21368 0
M  V30 15005 H 1436.31 -4.33959 0.676476 0
M  V30 15006 H 1436.92 -3.64205 2.19624 0
M  V30 15007 N 1435.24 -1.07045 -1.15668 0
M  V30 15008 C 1436.2 -0.69198 -2.18505 0
M  V30 15009 C 1437.2 0.266185 -1.58582 0
M  V30 15010 O 1438.39 0.0475566 -1.74135 0
M  V30 15011 C 1435.52 -0.0194196 -3.40894 0
M  V30 15012 H 1436.71 -1.60241 -2.53501 0
M  V30 15013 H 1434.27 -0.866598 -1.30076 0
M  V30 15014 H 1435 0.903398 -3.11463 0
M  V30 15015 H 1434.79 -0.708519 -3.85645 0
M  V30 15016 H 1436.28 0.230829 -4.16962 0
M  V30 15017 N 1436.71 1.32449 -0.85411 0
M  V30 15018 C 1437.64 2.31383 -0.313697 0
M  V30 15019 C 1438.62 1.59656 0.586858 0
M  V30 15020 O 1439.81 1.87459 0.507216 0
M  V30 15021 C 1436.94 3.43693 0.499235 0
M  V30 15022 C 1435.89 4.26899 -0.306839 0
M  V30 15023 C 1435.22 5.30966 0.630795 0
M  V30 15024 C 1436.52 4.99318 -1.53229 0
M  V30 15025 H 1438.21 2.76832 -1.14037 0
M  V30 15026 H 1435.76 1.33091 -0.549805 0
M  V30 15027 H 1437.71 4.11944 0.887709 0
M  V30 15028 H 1436.44 2.96971 1.35926 0
M  V30 15029 H 1435.1 3.60294 -0.677061 0
M  V30 15030 H 1434.74 4.80498 1.48765 0
M  V30 15031 H 1434.44 5.87522 0.0954635 0
M  V30 15032 H 1435.97 6.0208 1.01646 0
M  V30 15033 H 1437.38 5.60253 -1.21614 0
M  V30 15034 H 1435.78 5.65596 -2.00552 0
M  V30 15035 H 1436.85 4.27213 -2.29383 0
M  V30 15036 N 1438.19 0.611994 1.45232 0
M  V30 15037 C 1439.12 -0.0914869 2.33321 0
M  V30 15038 C 1440.1 -0.854315 1.4709 0
M  V30 15039 O 1441.29 -0.823994 1.75852 0
M  V30 15040 C 1438.42 -1.08652 3.29867 0
M  V30 15041 C 1437.37 -0.436615 4.25767 0
M  V30 15042 C 1436.7 -1.54021 5.12037 0
M  V30 15043 C 1438 0.645005 5.18302 0
M  V30 15044 H 1439.69 0.644053 2.92391 0
M  V30 15045 H 1437.24 0.311171 1.40598 0
M  V30 15046 H 1439.19 -1.58726 3.90364 0
M  V30 15047 H 1437.91 -1.85271 2.68965 0
M  V30 15048 H 1436.57 0.0432918 3.66574 0
M  V30 15049 H 1436.22 -2.29679 4.475 0
M  V30 15050 H 1435.92 -1.11084 5.77005 0
M  V30 15051 H 1437.45 -2.04313 5.75403 0
M  V30 15052 H 1438.86 0.228166 5.72846 0
M  V30 15053 H 1437.26 0.996387 5.9177 0
M  V30 15054 H 1438.33 1.51985 4.60466 0
M  V30 15055 N 1439.67 -1.53632 0.351409 0
M  V30 15056 C 1440.63 -2.23916 -0.489293 0
M  V30 15057 C 1441.63 -1.24207 -1.02124 0
M  V30 15058 O 1442.82 -1.48589 -0.909235 0
M  V30 15059 C 1439.95 -2.96492 -1.68242 0
M  V30 15060 H 1441.15 -2.99637 0.125518 0
M  V30 15061 H 1438.7 -1.55961 0.102874 0
M  V30 15062 H 1439.44 -2.24978 -2.33571 0
M  V30 15063 H 1439.22 -3.69637 -1.3081 0
M  V30 15064 H 1440.71 -3.49961 -2.27853 0
M  V30 15065 N 1441.15 -0.0802183 -1.57396 0
M  V30 15066 C 1442.11 0.869437 -2.12069 0
M  V30 15067 C 1443.11 1.22079 -1.04658 0
M  V30 15068 O 1444.3 1.15267 -1.3061 0
M  V30 15069 C 1441.43 2.17016 -2.62901 0
M  V30 15070 H 1442.63 0.394952 -2.97288 0
M  V30 15071 H 1440.18 0.168597 -1.55388 0
M  V30 15072 H 1440.91 2.68983 -1.8116 0
M  V30 15073 H 1440.7 1.92808 -3.4142 0
M  V30 15074 H 1442.19 2.84982 -3.05246 0
M  V30 15075 N 1442.63 1.56409 0.193394 0
M  V30 15076 C 1443.87 1.80367 0.911717 0
M  V30 15077 C 1444.19 0.653561 1.83721 0
M  V30 15078 O 1443.46 -0.328001 1.93135 0
M  V30 15079 H 1442.04 0.665316 0.339652 0
M  V30 15080 H 1444.71 1.93887 0.198496 0
M  V30 15081 H 1443.8 2.7359 1.50182 0
M  V30 15082 N 1444.1 -0.461169 1.50702 0
M  V30 15083 C 1445.33 -1.24019 1.66235 0
M  V30 15084 C 1445.75 -1.84827 0.349388 0
M  V30 15085 O 1445.11 -1.67743 -0.687888 0
M  V30 15086 C 1445.16 -2.31743 2.76274 0
M  V30 15087 O 1444.26 -3.3664 2.38217 0
M  V30 15088 H 1443.6 -0.364424 0.55506 0
M  V30 15089 H 1446.13 -0.547636 1.97135 0
M  V30 15090 H 1446.14 -2.76902 2.99649 0
M  V30 15091 H 1444.82 -1.86858 3.7156 0
M  V30 15092 H 1443.4 -2.97123 2.25327 0
M  V30 15093 N 1445.58 -1.40446 -0.715026 0
M  V30 15094 C 1446.51 -1.36673 -1.83993 0
M  V30 15095 C 1447.53 -0.272038 -1.60511 0
M  V30 15096 O 1448.72 -0.532425 -1.70375 0
M  V30 15097 C 1445.82 -1.10423 -3.20406 0
M  V30 15098 C 1444.99 -2.31557 -3.71079 0
M  V30 15099 C 1444.05 -2.01459 -4.86108 0
M  V30 15100 O 1443.07 -2.7433 -4.9873 0
M  V30 15101 N 1444.28 -0.992899 -5.71946 0
M  V30 15102 H 1447.04 -2.3362 -1.87728 0
M  V30 15103 H 1444.6 -1.34807 -0.896586 0
M  V30 15104 H 1446.59 -0.88273 -3.94956 0
M  V30 15105 H 1445.16 -0.221408 -3.11815 0
M  V30 15106 H 1444.38 -2.69534 -2.87655 0
M  V30 15107 H 1445.67 -3.1231 -4.01671 0
M  V30 15108 H 1445.07 -0.389387 -5.64358 0
M  V30 15109 H 1443.63 -0.831299 -6.46477 0
M  V30 15110 N 1447.06 0.947303 -1.25952 0
M  V30 15111 C 1447.99 2.0625 -1.09467 0
M  V30 15112 C 1448.97 1.701 -0.00160498 0
M  V30 15113 O 1450.16 1.93432 -0.172501 0
M  V30 15114 C 1447.29 3.39746 -0.720392 0
M  V30 15115 C 1446.24 3.89935 -1.76451 0
M  V30 15116 C 1445.57 5.2001 -1.24472 0
M  V30 15117 C 1446.87 4.15496 -3.16481 0
M  V30 15118 H 1448.56 2.203 -2.02752 0
M  V30 15119 H 1446.11 1.05858 -0.97622 0
M  V30 15120 H 1448.06 4.17221 -0.591972 0
M  V30 15121 H 1446.78 3.25656 0.248161 0
M  V30 15122 H 1445.44 3.14635 -1.8815 0
M  V30 15123 H 1445.09 5.02295 -0.266182 0
M  V30 15124 H 1444.79 5.54559 -1.94263 0
M  V30 15125 H 1446.31 6.00075 -1.12884 0
M  V30 15126 H 1447.73 4.83605 -3.07894 0
M  V30 15127 H 1446.12 4.61315 -3.83808 0
M  V30 15128 H 1447.19 3.21501 -3.62995 0
M  V30 15129 N 1448.54 1.07657 1.15099 0
M  V30 15130 C 1449.82 0.714608 1.82079 0
M  V30 15131 C 1450.2 -0.802578 1.95248 0
M  V30 15132 O 1449.54 -1.71818 1.50634 0
M  V30 15133 C 1449.75 1.43264 3.1824 0
M  V30 15134 C 1451.1 1.58675 3.93837 0
M  V30 15135 O 1452.13 1.39367 3.27804 0
M  V30 15136 O 1450.98 1.9047 5.12234 0
M  V30 15137 H 1448.08 0.254645 0.786819 0
M  V30 15138 H 1450.62 1.17768 1.22183 0
M  V30 15139 H 1449.4 2.46655 3.03772 0
M  V30 15140 H 1449.02 0.960546 3.85823 0
M  V30 15141 N 1450.02 -1.31994 0.861122 0
M  V30 15142 C 1451.24 -2.01211 0.481865 0
M  V30 15143 C 1451.66 -1.64687 -0.923233 0
M  V30 15144 O 1451.02 -0.87151 -1.60346 0
M  V30 15145 C 1451.07 -3.56162 0.618919 0
M  V30 15146 O 1450.79 -3.91376 1.96868 0
M  V30 15147 C 1452.29 -4.42652 0.239514 0
M  V30 15148 H 1449.51 -0.643922 0.188693 0
M  V30 15149 H 1452.05 -1.68427 1.15985 0
M  V30 15150 H 1450.21 -3.87398 -0.0114042 0
M  V30 15151 H 1450.62 -4.86095 1.97008 0
M  V30 15152 H 1452.1 -5.50646 0.386394 0
M  V30 15153 H 1452.57 -4.31466 -0.820598 0
M  V30 15154 H 1453.18 -4.16818 0.845175 0
M  V30 15155 N 1451.49 -0.619688 -1.44906 0
M  V30 15156 C 1452.74 -0.11981 -2.02446 0
M  V30 15157 C 1453.07 1.2509 -1.48546 0
M  V30 15158 O 1452.35 1.82781 -0.664942 0
M  V30 15159 C 1452.63 -0.0940205 -3.59977 0
M  V30 15160 C 1452.48 -1.49626 -4.24184 0
M  V30 15161 C 1453.8 0.58748 -4.36161 0
M  V30 15162 H 1450.92 -0.0450119 -0.735624 0
M  V30 15163 H 1453.56 -0.793975 -1.72615 0
M  V30 15164 H 1451.71 0.480073 -3.85522 0
M  V30 15165 H 1453.39 -2.11836 -4.09784 0
M  V30 15166 H 1451.63 -2.05348 -3.82119 0
M  V30 15167 H 1452.3 -1.43035 -5.33146 0
M  V30 15168 H 1454.78 0.0993863 -4.15981 0
M  V30 15169 H 1453.65 0.574672 -5.45883 0
M  V30 15170 H 1453.91 1.65579 -4.09922 0
M  V30 15171 N 1452.97 1.53444 -0.359552 0
M  V30 15172 C 1454.39 1.59598 -0.00824946 0
M  V30 15173 C 1454.59 1.37492 1.47303 0
M  V30 15174 O 1453.64 1.1771 2.23385 0
M  V30 15175 C 1454.96 2.9718 -0.45878 0
M  V30 15176 C 1456.51 3.1027 -0.412485 0
M  V30 15177 C 1456.98 4.50255 -0.838733 0
M  V30 15178 N 1458.47 4.56352 -0.793552 0
M  V30 15179 C 1459.21 5.62845 -1.09513 0
M  V30 15180 N 1458.7 6.77119 -1.46567 0
M  V30 15181 N 1460.5 5.52799 -1.01832 0
M  V30 15182 H 1452.65 1.66065 -1.32424 0
M  V30 15183 H 1454.91 0.778561 -0.540876 0
M  V30 15184 H 1454.62 3.18475 -1.4922 0
M  V30 15185 H 1454.49 3.7687 0.157741 0
M  V30 15186 H 1456.88 2.88689 0.611791 0
M  V30 15187 H 1456.96 2.32602 -1.06442 0
M  V30 15188 H 1456.6 4.72573 -1.8611 0
M  V30 15189 H 1456.53 5.26344 -0.164109 0
M  V30 15190 H 1459.02 3.74299 -0.52048 0
M  V30 15191 H 1459.34 7.54313 -1.68021 0
M  V30 15192 H 1457.68 6.78525 -1.50427 0
M  V30 15193 H 1460.87 4.62403 -0.728059 0
M  V30 15194 H 1461.04 6.35698 -1.25668 0
M  V30 15195 N 1454.45 0.0885642 1.57351 0
M  V30 15196 C 1455.87 -0.268088 1.57332 0
M  V30 15197 C 1456.07 -1.68875 1.09924 0
M  V30 15198 O 1455.12 -2.40385 0.772729 0
M  V30 15199 C 1456.44 -0.0624654 3.00635 0
M  V30 15200 C 1457.98 -0.130717 3.12727 0
M  V30 15201 C 1458.46 0.0468305 4.57976 0
M  V30 15202 N 1459.95 -0.00822093 4.63199 0
M  V30 15203 C 1460.68 0.104497 5.73305 0
M  V30 15204 N 1460.18 0.271682 6.92267 0
M  V30 15205 N 1461.97 0.0462333 5.62081 0
M  V30 15206 H 1454.12 1.01686 1.86477 0
M  V30 15207 H 1456.39 0.397971 0.86042 0
M  V30 15208 H 1456.09 0.918505 3.39494 0
M  V30 15209 H 1455.97 -0.807602 3.68453 0
M  V30 15210 H 1458.35 -1.10219 2.73744 0
M  V30 15211 H 1458.44 0.645801 2.47514 0
M  V30 15212 H 1458.08 1.01514 4.97652 0
M  V30 15213 H 1458.01 -0.7493 5.21242 0
M  V30 15214 H 1460.5 -0.135164 3.77658 0
M  V30 15215 H 1460.81 0.349381 7.7201 0
M  V30 15216 H 1459.16 0.307265 6.9432 0
M  V30 15217 H 1462.35 -0.0831995 4.68026 0
M  V30 15218 H 1462.52 0.137529 6.47854 0
M  V30 15219 N 1455.93 -1.56509 -0.185096 0
M  V30 15220 C 1456.88 -1.95336 -1.22934 0
M  V30 15221 C 1457.85 -0.81532 -1.44713 0
M  V30 15222 O 1459.03 -1.07431 -1.57681 0
M  V30 15223 C 1456.17 -2.30671 -2.56681 0
M  V30 15224 C 1455.28 -3.57586 -2.42397 0
M  V30 15225 C 1454.42 -3.82197 -3.68916 0
M  V30 15226 C 1453.46 -5.02505 -3.49507 0
M  V30 15227 N 1452.59 -5.23319 -4.68062 0
M  V30 15228 H 1457.43 -2.84361 -0.89123 0
M  V30 15229 H 1454.97 -1.40715 -0.428689 0
M  V30 15230 H 1456.93 -2.49176 -3.34615 0
M  V30 15231 H 1455.56 -1.44773 -2.88514 0
M  V30 15232 H 1454.61 -3.47072 -1.55709 0
M  V30 15233 H 1455.92 -4.45677 -2.23994 0
M  V30 15234 H 1455.08 -4.00996 -4.55288 0
M  V30 15235 H 1453.82 -2.92455 -3.90284 0
M  V30 15236 H 1452.82 -4.83619 -2.6152 0
M  V30 15237 H 1454.05 -5.93765 -3.29574 0
M  V30 15238 H 1451.99 -4.36526 -4.89674 0
M  V30 15239 H 1451.91 -6.05608 -4.52521 0
M  V30 15240 H 1453.18 -5.46585 -5.55757 0
M  V30 15241 N 1457.41 0.45317 -1.50944 0
M  V30 15242 C 1458.32 1.57435 -1.73929 0
M  V30 15243 C 1459.33 1.62467 -0.622935 0
M  V30 15244 O 1460.51 1.80004 -0.903365 0
M  V30 15245 C 1457.57 2.93534 -1.84495 0
M  V30 15246 C 1456.63 2.98747 -3.083 0
M  V30 15247 C 1455.87 4.28354 -3.18352 0
M  V30 15248 O 1456.09 5.1986 -2.34738 0
M  V30 15249 O 1455.02 4.39527 -4.11217 0
M  V30 15250 H 1458.85 1.40959 -2.69006 0
M  V30 15251 H 1456.44 0.634545 -1.35255 0
M  V30 15252 H 1458.32 3.74336 -1.93522 0
M  V30 15253 H 1456.99 3.10171 -0.926044 0
M  V30 15254 H 1455.9 2.16958 -3.04762 0
M  V30 15255 H 1457.23 2.87051 -3.99828 0
M  V30 15256 N 1458.88 1.40823 0.707568 0
M  V30 15257 C 1459.83 1.4191 1.84294 0
M  V30 15258 C 1460.83 0.298592 1.66748 0
M  V30 15259 O 1462.03 0.47003 1.73755 0
M  V30 15260 H 1458.41 0.44376 0.607109 0
M  V30 15261 H 1460.38 2.37623 1.80494 0
M  V30 15262 C 1459.13 1.30643 3.22223 0
M  V30 15263 H 1458.45 2.16145 3.36335 0
M  V30 15264 H 1459.89 1.35463 4.01778 0
M  V30 15265 C 1458.35 0.0174867 3.36895 0
M  V30 15266 O 1458.88 -0.942398 3.90489 0
M  V30 15267 N 1457.09 -0.0546572 2.90549 0
M  V30 15268 H 1456.63 0.727204 2.47122 0
M  V30 15269 H 1456.59 -0.916521 3.00744 0
M  V30 15270 N 1460.36 -0.94061 1.26453 0
M  V30 15271 C 1461.31 -2.03941 1.08059 0
M  V30 15272 C 1462.28 -1.66094 -0.0145388 0
M  V30 15273 O 1463.46 -1.90246 0.145338 0
M  V30 15274 C 1460.6 -3.37501 0.720228 0
M  V30 15275 C 1459.72 -3.88381 1.89167 0
M  V30 15276 C 1458.85 -5.10329 1.47437 0
M  V30 15277 C 1457.89 -5.53473 2.61408 0
M  V30 15278 N 1457.03 -6.66624 2.20355 0
M  V30 15279 H 1461.87 -2.19006 2.0209 0
M  V30 15280 H 1459.41 -1.07305 1.00618 0
M  V30 15281 H 1461.36 -4.14287 0.492177 0
M  V30 15282 H 1459.99 -3.2228 -0.183101 0
M  V30 15283 H 1459.05 -3.0799 2.23264 0
M  V30 15284 H 1460.36 -4.16338 2.74708 0
M  V30 15285 H 1459.51 -5.94577 1.20679 0
M  V30 15286 H 1458.25 -4.8412 0.589873 0
M  V30 15287 H 1457.26 -4.67782 2.88894 0
M  V30 15288 H 1458.48 -5.81684 3.50458 0
M  V30 15289 H 1456.43 -6.42097 1.34341 0
M  V30 15290 H 1456.34 -6.9417 2.99439 0
M  V30 15291 H 1457.61 -7.54245 1.96811 0
M  V30 15292 N 1461.84 -1.08266 -1.14527 0
M  V30 15293 C 1462.79 -0.705807 -2.21633 0
M  V30 15294 C 1463.78 0.287758 -1.66938 0
M  V30 15295 O 1464.99 0.150479 -1.7937 0
M  V30 15296 H 1461.36 -0.210206 -0.722023 0
M  V30 15297 H 1463.33 -1.61855 -2.5069 0
M  V30 15298 C 1462.08 -0.129673 -3.47458 0
M  V30 15299 H 1461.41 -0.885365 -3.89873 0
M  V30 15300 H 1462.85 0.0962264 -4.23891 0
M  V30 15301 C 1461.31 1.13208 -3.1731 0
M  V30 15302 O 1461.84 2.21717 -3.34969 0
M  V30 15303 N 1460.04 1.0419 -2.7128 0
M  V30 15304 H 1459.59 0.15883 -2.5711 0
M  V30 15305 H 1459.55 1.88689 -2.51483 0
M  V30 15306 N 1463.32 1.31536 -0.86811 0
M  V30 15307 C 1464.57 1.97066 -0.478829 0
M  V30 15308 C 1464.9 1.68469 0.966021 0
M  V30 15309 O 1464.17 0.980166 1.67997 0
M  V30 15310 C 1464.46 3.52533 -0.734313 0
M  V30 15311 C 1464.31 3.90711 -2.22856 0
M  V30 15312 C 1465.63 4.39647 -0.199559 0
M  V30 15313 H 1462.75 0.715813 -0.175444 0
M  V30 15314 H 1465.39 1.55694 -1.08901 0
M  V30 15315 H 1463.54 3.87905 -0.214962 0
M  V30 15316 H 1465.21 3.65451 -2.81502 0
M  V30 15317 H 1463.45 3.39385 -2.70185 0
M  V30 15318 H 1464.13 4.99103 -2.35797 0
M  V30 15319 H 1466.6 4.11088 -0.643853 0
M  V30 15320 H 1465.48 5.47383 -0.407783 0
M  V30 15321 H 1465.74 4.32875 0.898414 0
M  V30 15322 N 1464.8 0.627364 1.44575 0
M  V30 15323 C 1466.03 0.137313 2.06444 0
M  V30 15324 C 1466.44 -1.18655 1.46855 0
M  V30 15325 O 1465.8 -1.72699 0.590018 0
M  V30 15326 C 1465.85 0.0123481 3.61498 0
M  V30 15327 O 1465.57 1.28385 4.18866 0
M  V30 15328 C 1467.07 -0.506841 4.40393 0
M  V30 15329 H 1464.29 0.0779387 0.666458 0
M  V30 15330 H 1466.83 0.860701 1.85505 0
M  V30 15331 H 1464.99 -0.66146 3.81711 0
M  V30 15332 H 1465.4 1.12626 5.12265 0
M  V30 15333 H 1466.88 -0.543304 5.4932 0
M  V30 15334 H 1467.35 -1.53314 4.11572 0
M  V30 15335 H 1467.96 0.133589 4.2509 0
M  V30 15336 N 1466.28 -1.53251 0.367684 0
M  V30 15337 C 1467.24 -2.24423 -0.465516 0
M  V30 15338 C 1468.24 -1.25283 -1.00801 0
M  V30 15339 O 1469.43 -1.49545 -0.893424 0
M  V30 15340 C 1466.56 -2.9826 -1.65087 0
M  V30 15341 H 1467.75 -2.99487 0.157292 0
M  V30 15342 H 1465.31 -1.55843 0.119409 0
M  V30 15343 H 1466.04 -2.27443 -2.31171 0
M  V30 15344 H 1465.83 -3.71003 -1.26882 0
M  V30 15345 H 1467.32 -3.52358 -2.24128 0
M  V30 15346 N 1467.75 -0.0969077 -1.57302 0
M  V30 15347 C 1468.68 0.858443 -2.17147 0
M  V30 15348 C 1469.66 1.29294 -1.10531 0
M  V30 15349 O 1470.85 1.3595 -1.38676 0
M  V30 15350 C 1467.98 2.11691 -2.75326 0
M  V30 15351 C 1466.93 1.82097 -3.8733 0
M  V30 15352 C 1466.26 3.14787 -4.32219 0
M  V30 15353 C 1467.56 1.10651 -5.10444 0
M  V30 15354 H 1469.25 0.35982 -2.9723 0
M  V30 15355 H 1466.8 0.17163 -1.42974 0
M  V30 15356 H 1468.75 2.78963 -3.15844 0
M  V30 15357 H 1467.48 2.63839 -1.925 0
M  V30 15358 H 1466.14 1.17222 -3.47354 0
M  V30 15359 H 1465.78 3.64826 -3.46281 0
M  V30 15360 H 1465.48 2.95769 -5.07735 0
M  V30 15361 H 1467.01 3.83215 -4.75372 0
M  V30 15362 H 1468.42 1.68036 -5.48121 0
M  V30 15363 H 1466.82 1.01805 -5.91401 0
M  V30 15364 H 1467.89 0.0895634 -4.84817 0
M  V30 15365 N 1469.23 1.56605 0.176793 0
M  V30 15366 C 1470.14 1.99211 1.23903 0
M  V30 15367 C 1471.16 0.902614 1.48758 0
M  V30 15368 O 1472.33 1.20982 1.61014 0
M  V30 15369 C 1469.4 2.33873 2.55938 0
M  V30 15370 C 1468.46 3.56624 2.38994 0
M  V30 15371 C 1467.69 3.89623 3.64733 0
M  V30 15372 O 1467.92 3.23662 4.6968 0
M  V30 15373 O 1466.85 4.82992 3.5917 0
M  V30 15374 H 1470.68 2.89827 0.907398 0
M  V30 15375 H 1468.26 1.44401 0.383234 0
M  V30 15376 H 1470.14 2.57161 3.33836 0
M  V30 15377 H 1468.82 1.46421 2.88691 0
M  V30 15378 H 1467.72 3.38561 1.59146 0
M  V30 15379 H 1469.06 4.446 2.11167 0
M  V30 15380 N 1470.71 -0.445159 1.51182 0
M  V30 15381 C 1471.67 -1.52224 1.71349 0
M  V30 15382 C 1472.67 -1.49834 0.583632 0
M  V30 15383 O 1473.86 -1.51995 0.85107 0
M  V30 15384 C 1470.99 -2.91789 1.76273 0
M  V30 15385 H 1472.19 -1.35649 2.67468 0
M  V30 15386 H 1469.74 -0.673312 1.41054 0
M  V30 15387 H 1470.48 -3.13777 0.819405 0
M  V30 15388 H 1470.26 -2.94928 2.58379 0
M  V30 15389 H 1471.75 -3.69938 1.93741 0
M  V30 15390 N 1472.19 -1.41197 -0.700089 0
M  V30 15391 C 1473.43 -1.41775 -1.47239 0
M  V30 15392 C 1473.79 -0.0239874 -1.91985 0
M  V30 15393 O 1474.99 0.0954207 -2.68631 0
M  V30 15394 C 1473.26 -2.39268 -2.65491 0
M  V30 15395 S 1474.82 -2.58337 -3.54693 0
M  V30 15396 H 1471.64 -0.502298 -0.503207 0
M  V30 15397 H 1474.24 -1.77596 -0.817296 0
M  V30 15398 H 1472.95 -3.39342 -2.30815 0
M  V30 15399 H 1472.48 -2.04784 -3.35897 0
M  V30 15400 H 1474.49 -1.84739 -4.60528 0
M  V30 15401 N 1473.67 0.933891 -1.2695 0
M  V30 15402 C 1474.63 2.0152 -1.0919 0
M  V30 15403 C 1475.63 1.60755 -0.037865 0
M  V30 15404 O 1476.82 1.71904 -0.281917 0
M  V30 15405 C 1473.95 3.34403 -0.66239 0
M  V30 15406 H 1475.14 2.18706 -2.05201 0
M  V30 15407 H 1472.7 1.11385 -1.0965 0
M  V30 15408 H 1473.43 3.22915 0.299388 0
M  V30 15409 H 1473.22 3.65345 -1.42356 0
M  V30 15410 H 1474.71 4.13826 -0.560187 0
M  V30 15411 N 1475.14 1.08871 1.13951 0
M  V30 15412 C 1476.07 0.744715 2.21306 0
M  V30 15413 C 1477.05 -0.275019 1.67862 0
M  V30 15414 O 1478.24 -0.144339 1.93663 0
M  V30 15415 C 1475.37 0.158336 3.46939 0
M  V30 15416 C 1474.32 1.10695 4.13438 0
M  V30 15417 C 1473.65 0.382552 5.3333 0
M  V30 15418 C 1474.95 2.44704 4.61429 0
M  V30 15419 H 1476.64 1.6423 2.50337 0
M  V30 15420 H 1474.19 0.791088 1.20324 0
M  V30 15421 H 1476.14 -0.0943587 4.21294 0
M  V30 15422 H 1474.87 -0.774413 3.17286 0
M  V30 15423 H 1473.53 1.34482 3.41043 0
M  V30 15424 H 1473.17 -0.554153 4.99938 0
M  V30 15425 H 1472.87 1.01499 5.78767 0
M  V30 15426 H 1474.4 0.138023 6.10444 0
M  V30 15427 H 1475.81 2.25156 5.27236 0
M  V30 15428 H 1474.21 3.03684 5.17586 0
M  V30 15429 H 1475.28 3.05883 3.76249 0
M  V30 15430 N 1476.62 -1.31073 0.875073 0
M  V30 15431 C 1477.55 -2.27335 0.291809 0
M  V30 15432 C 1478.57 -1.53298 -0.548036 0
M  V30 15433 O 1479.76 -1.7464 -0.369198 0
M  V30 15434 C 1476.86 -3.33465 -0.604521 0
M  V30 15435 C 1476.03 -4.36924 0.204029 0
M  V30 15436 C 1475.09 -5.2252 -0.621238 0
M  V30 15437 O 1474.11 -5.6918 -0.0474551 0
M  V30 15438 N 1475.32 -5.47397 -1.93227 0
M  V30 15439 H 1478.08 -2.78024 1.11906 0
M  V30 15440 H 1475.64 -1.44149 0.737064 0
M  V30 15441 H 1477.63 -3.87646 -1.16243 0
M  V30 15442 H 1476.2 -2.8278 -1.33244 0
M  V30 15443 H 1475.42 -3.82745 0.943389 0
M  V30 15444 H 1476.71 -5.03112 0.758644 0
M  V30 15445 H 1476.11 -5.11253 -2.4215 0
M  V30 15446 H 1474.67 -6.04493 -2.43785 0
M  V30 15447 N 1478.1 -0.635022 -1.4424 0
M  V30 15448 C 1479.33 -0.148045 -2.06069 0
M  V30 15449 C 1479.74 1.1842 -1.47558 0
M  V30 15450 O 1479.08 1.73817 -0.594425 0
M  V30 15451 C 1479.14 0.0369593 -3.59481 0
M  V30 15452 C 1478.81 -1.21773 -4.40478 0
M  V30 15453 C 1479.8 -2.14233 -4.73709 0
M  V30 15454 C 1477.49 -1.45423 -4.80788 0
M  V30 15455 C 1479.48 -3.2865 -5.46139 0
M  V30 15456 C 1477.17 -2.60136 -5.52967 0
M  V30 15457 C 1478.17 -3.51576 -5.85562 0
M  V30 15458 O 1477.86 -4.64289 -6.5627 0
M  V30 15459 H 1477.59 -0.0787231 -0.671401 0
M  V30 15460 H 1480.14 -0.870639 -1.86035 0
M  V30 15461 H 1478.37 0.814739 -3.7802 0
M  V30 15462 H 1480.06 0.478984 -4.03064 0
M  V30 15463 H 1480.83 -1.97196 -4.43101 0
M  V30 15464 H 1476.71 -0.751378 -4.54835 0
M  V30 15465 H 1480.25 -4.00043 -5.71499 0
M  V30 15466 H 1476.15 -2.77114 -5.82991 0
M  V30 15467 H 1476.92 -4.6332 -6.74742 0
M  V30 15468 N 1479.58 1.53054 -0.375806 0
M  V30 15469 C 1480.81 2.05521 0.210828 0
M  V30 15470 C 1481.22 1.24837 1.4217 0
M  V30 15471 O 1480.56 0.284634 1.81481 0
M  V30 15472 C 1480.62 3.53417 0.658548 0
M  V30 15473 C 1480.29 4.54906 -0.437025 0
M  V30 15474 C 1481.28 5.03638 -1.29016 0
M  V30 15475 C 1478.97 4.98701 -0.600194 0
M  V30 15476 C 1480.96 5.94777 -2.29171 0
M  V30 15477 C 1478.65 5.89644 -1.6051 0
M  V30 15478 C 1479.65 6.37573 -2.44929 0
M  V30 15479 O 1479.33 7.26721 -3.43703 0
M  V30 15480 H 1479.07 0.674893 0.0386627 0
M  V30 15481 H 1481.62 1.98296 -0.535534 0
M  V30 15482 H 1479.85 3.58215 1.45667 0
M  V30 15483 H 1481.54 3.88692 1.16933 0
M  V30 15484 H 1482.31 4.70543 -1.17534 0
M  V30 15485 H 1478.18 4.60976 0.0471346 0
M  V30 15486 H 1481.73 6.3211 -2.95099 0
M  V30 15487 H 1477.63 6.22153 -1.72035 0
M  V30 15488 H 1478.39 7.44746 -3.39553 0
M  V30 15489 N 1481.06 0.105248 1.57248 0
M  V30 15490 C 1482.3 -0.556054 1.94716 0
M  V30 15491 C 1482.63 -1.67557 0.987669 0
M  V30 15492 O 1481.89 -1.95698 0.00905706 0
M  V30 15493 C 1482.19 -1.14178 3.38671 0
M  V30 15494 C 1481.85 -0.145022 4.50667 0
M  V30 15495 C 1480.51 0.129099 4.81027 0
M  V30 15496 C 1482.87 0.535015 5.18447 0
M  V30 15497 C 1480.19 1.08978 5.7649 0
M  V30 15498 C 1482.55 1.48423 6.14942 0
M  V30 15499 C 1481.21 1.76648 6.43702 0
M  V30 15500 H 1480.48 -0.203475 0.712516 0
M  V30 15501 H 1483.13 0.183237 1.90621 0
M  V30 15502 H 1481.43 -1.95754 3.39393 0
M  V30 15503 H 1483.13 -1.66132 3.64967 0
M  V30 15504 H 1479.72 -0.36886 4.2701 0
M  V30 15505 H 1483.9 0.336391 4.95159 0
M  V30 15506 H 1479.16 1.31535 5.97083 0
M  V30 15507 H 1483.33 2.01693 6.66553 0
M  V30 15508 H 1480.96 2.51245 7.17482 0
M  V30 15509 N 1482.53 -1.56697 -0.168486 0
M  V30 15510 C 1483.46 -1.99659 -1.21073 0
M  V30 15511 C 1484.45 -0.872625 -1.46011 0
M  V30 15512 O 1485.63 -1.13891 -1.57297 0
M  V30 15513 C 1482.76 -2.35889 -2.54899 0
M  V30 15514 C 1481.71 -3.51272 -2.44524 0
M  V30 15515 C 1481.04 -3.73253 -3.82866 0
M  V30 15516 C 1482.34 -4.84631 -1.94756 0
M  V30 15517 H 1484.03 -2.86974 -0.853593 0
M  V30 15518 H 1481.58 -1.38065 -0.409165 0
M  V30 15519 H 1483.53 -2.64542 -3.28017 0
M  V30 15520 H 1482.26 -1.45486 -2.92406 0
M  V30 15521 H 1480.92 -3.22751 -1.7386 0
M  V30 15522 H 1480.56 -2.80136 -4.17772 0
M  V30 15523 H 1480.26 -4.5089 -3.76792 0
M  V30 15524 H 1481.79 -4.04309 -4.57566 0
M  V30 15525 H 1483.2 -5.12142 -2.5765 0
M  V30 15526 H 1481.6 -5.65925 -1.99623 0
M  V30 15527 H 1482.67 -4.76436 -0.902021 0
M  V30 15528 N 1484.01 0.437135 -1.51416 0
M  V30 15529 C 1485.26 1.1835 -1.63328 0
M  V30 15530 C 1485.57 1.92343 -0.355455 0
M  V30 15531 O 1486.78 2.69183 -0.353951 0
M  V30 15532 C 1485.24 2.15235 -2.88447 0
M  V30 15533 C 1484.84 1.46889 -4.23235 0
M  V30 15534 C 1486.59 2.90303 -3.09716 0
M  V30 15535 C 1484.5 2.42259 -5.39504 0
M  V30 15536 H 1483.43 0.445467 -0.608338 0
M  V30 15537 H 1486.08 0.450528 -1.77883 0
M  V30 15538 H 1484.46 2.91968 -2.67527 0
M  V30 15539 H 1485.63 0.757128 -4.54537 0
M  V30 15540 H 1483.95 0.839725 -4.07845 0
M  V30 15541 H 1486.54 3.61747 -3.93756 0
M  V30 15542 H 1486.89 3.5166 -2.22802 0
M  V30 15543 H 1487.42 2.20677 -3.30978 0
M  V30 15544 H 1484.16 1.85591 -6.28678 0
M  V30 15545 H 1483.68 3.11488 -5.12577 0
M  V30 15546 H 1485.36 3.03384 -5.7146 0
M  V30 15547 N 1485.49 1.41566 0.692592 0
M  V30 15548 C 1486.42 1.46423 1.81886 0
M  V30 15549 C 1487.4 0.32258 1.67013 0
M  V30 15550 O 1488.59 0.534437 1.86701 0
M  V30 15551 C 1485.72 1.3486 3.20047 0
M  V30 15552 C 1484.67 2.46867 3.49629 0
M  V30 15553 C 1484 2.20369 4.87177 0
M  V30 15554 C 1485.3 3.89205 3.48306 0
M  V30 15555 H 1486.99 2.40683 1.78079 0
M  V30 15556 H 1484.54 1.15845 0.855334 0
M  V30 15557 H 1486.49 1.36869 3.98553 0
M  V30 15558 H 1485.21 0.370859 3.24488 0
M  V30 15559 H 1483.87 2.44146 2.73475 0
M  V30 15560 H 1483.52 1.20931 4.88247 0
M  V30 15561 H 1483.22 2.95426 5.07934 0
M  V30 15562 H 1484.74 2.24099 5.6799 0
M  V30 15563 H 1486.16 3.93626 4.16811 0
M  V30 15564 H 1484.56 4.63969 3.80595 0
M  V30 15565 H 1485.63 4.17144 2.47222 0
M  V30 15566 N 1486.97 -0.927146 1.27443 0
M  V30 15567 C 1488.21 -1.67775 1.14991 0
M  V30 15568 C 1488.57 -1.90029 -0.301107 0
M  V30 15569 O 1487.86 -1.47997 -1.21686 0
M  V30 15570 C 1488.06 -3.0472 1.86764 0
M  V30 15571 C 1487.89 -2.95829 3.38696 0
M  V30 15572 C 1486.66 -2.9808 4.08015 0
M  V30 15573 C 1488.85 -2.74905 4.34663 0
M  V30 15574 N 1486.84 -2.79636 5.46513 0
M  V30 15575 C 1488.21 -2.65172 5.60432 0
M  V30 15576 C 1490.26 -2.59797 4.24747 0
M  V30 15577 C 1488.96 -2.41872 6.77415 0
M  V30 15578 C 1490.99 -2.37874 5.41452 0
M  V30 15579 C 1490.35 -2.28884 6.66177 0
M  V30 15580 H 1486.45 -0.620709 0.475651 0
M  V30 15581 H 1489.04 -1.09605 1.60919 0
M  V30 15582 H 1487.21 -3.61002 1.43291 0
M  V30 15583 H 1488.94 -3.68722 1.66812 0
M  V30 15584 H 1485.69 -3.08329 3.59486 0
M  V30 15585 H 1486.12 -2.73544 6.19276 0
M  V30 15586 H 1490.76 -2.65506 3.29039 0
M  V30 15587 H 1488.48 -2.34903 7.73205 0
M  V30 15588 H 1492.06 -2.27069 5.35659 0
M  V30 15589 H 1490.94 -2.12149 7.54959 0
M  V30 15590 N 1488.45 -1.09474 -1.13372 0
M  V30 15591 C 1489.86 -0.824541 -1.36651 0
M  V30 15592 C 1490.06 0.560903 -1.93536 0
M  V30 15593 O 1489.12 1.31567 -2.15514 0
M  V30 15594 C 1490.43 -1.91618 -2.31739 0
M  V30 15595 C 1491.98 -1.94346 -2.45354 0
M  V30 15596 C 1492.45 -3.02655 -3.4375 0
M  V30 15597 N 1493.95 -3.01898 -3.513 0
M  V30 15598 C 1494.68 -3.82344 -4.27318 0
M  V30 15599 N 1494.18 -4.727 -5.06484 0
M  V30 15600 N 1495.97 -3.70602 -4.22623 0
M  V30 15601 H 1488.12 -1.98793 -0.748005 0
M  V30 15602 H 1490.38 -0.863318 -0.391646 0
M  V30 15603 H 1490.09 -2.91282 -1.97098 0
M  V30 15604 H 1489.96 -1.79484 -3.31761 0
M  V30 15605 H 1492.35 -0.953206 -2.79281 0
M  V30 15606 H 1492.43 -2.10558 -1.45255 0
M  V30 15607 H 1492.08 -4.01894 -3.10553 0
M  V30 15608 H 1492.01 -2.83687 -4.43655 0
M  V30 15609 H 1494.5 -2.36417 -2.94814 0
M  V30 15610 H 1494.81 -5.30665 -5.61796 0
M  V30 15611 H 1493.15 -4.76736 -5.05715 0
M  V30 15612 H 1496.35 -2.99372 -3.59853 0
M  V30 15613 H 1496.52 -4.33535 -4.81614 0
M  V30 15614 N 1489.92 1.30607 -0.882012 0
M  V30 15615 C 1491.17 1.95531 -0.495038 0
M  V30 15616 C 1491.49 1.70418 0.96005 0
M  V30 15617 O 1492.69 2.29301 1.45373 0
M  V30 15618 C 1491.15 3.50094 -0.834382 0
M  V30 15619 C 1490.76 3.84031 -2.30704 0
M  V30 15620 C 1492.5 4.21347 -0.516463 0
M  V30 15621 C 1490.41 5.31759 -2.58817 0
M  V30 15622 H 1489.34 0.731854 -0.181399 0
M  V30 15623 H 1491.99 1.486 -1.07658 0
M  V30 15624 H 1490.37 3.95582 -0.181961 0
M  V30 15625 H 1491.54 3.49463 -3.00353 0
M  V30 15626 H 1489.86 3.25874 -2.5922 0
M  V30 15627 H 1492.46 5.30051 -0.703576 0
M  V30 15628 H 1492.8 4.12731 0.543935 0
M  V30 15629 H 1493.33 3.81533 -1.12595 0
M  V30 15630 H 1490.07 5.45422 -3.63586 0
M  V30 15631 H 1489.59 5.67637 -1.93774 0
M  V30 15632 H 1491.27 5.9916 -2.44165 0
M  V30 15633 N 1491.4 0.642663 1.43901 0
M  V30 15634 C 1492.33 -0.0419756 2.33462 0
M  V30 15635 C 1493.31 -0.822923 1.48869 0
M  V30 15636 O 1494.5 -0.786508 1.7756 0
M  V30 15637 C 1491.63 -1.01631 3.32097 0
M  V30 15638 C 1490.58 -0.346206 4.26597 0
M  V30 15639 C 1489.91 -1.43125 5.15189 0
M  V30 15640 C 1491.21 0.754799 5.16817 0
M  V30 15641 H 1492.9 0.705929 2.90959 0
M  V30 15642 H 1490.45 0.340924 1.39906 0
M  V30 15643 H 1492.4 -1.5041 3.93643 0
M  V30 15644 H 1491.13 -1.79525 2.72834 0
M  V30 15645 H 1489.78 0.121038 3.664 0
M  V30 15646 H 1489.43 -2.20135 4.52271 0
M  V30 15647 H 1489.13 -0.988194 5.79231 0
M  V30 15648 H 1490.66 -1.92061 5.79607 0
M  V30 15649 H 1492.07 0.349624 5.72233 0
M  V30 15650 H 1490.47 1.12169 5.89524 0
M  V30 15651 H 1491.54 1.61718 4.57138 0
M  V30 15652 N 1492.88 -1.52852 0.383918 0
M  V30 15653 C 1494.13 -2.01112 -0.199594 0
M  V30 15654 C 1494.45 -1.27237 -1.47769 0
M  V30 15655 O 1493.72 -0.390873 -1.91961 0
M  V30 15656 H 1492.3 -0.743047 -0.0767466 0
M  V30 15657 H 1494.96 -1.8799 0.51437 0
M  V30 15658 H 1494.06 -3.09347 -0.413627 0
M  V30 15659 N 1494.36 -0.113586 -1.5719 0
M  V30 15660 C 1495.61 0.545507 -1.94183 0
M  V30 15661 C 1495.92 1.68176 -0.998816 0
M  V30 15662 O 1497.13 2.40324 -1.26319 0
M  V30 15663 C 1495.58 1.02178 -3.45091 0
M  V30 15664 C 1495.19 -0.0857195 -4.47918 0
M  V30 15665 C 1496.94 1.65255 -3.91013 0
M  V30 15666 C 1494.84 0.406946 -5.89998 0
M  V30 15667 H 1493.77 0.20755 -0.724872 0
M  V30 15668 H 1496.42 -0.192567 -1.82487 0
M  V30 15669 H 1494.81 1.81411 -3.52003 0
M  V30 15670 H 1495.98 -0.861821 -4.52669 0
M  V30 15671 H 1494.29 -0.622816 -4.11716 0
M  V30 15672 H 1496.89 2.0322 -4.94576 0
M  V30 15673 H 1497.23 2.52888 -3.30687 0
M  V30 15674 H 1497.77 0.925727 -3.86879 0
M  V30 15675 H 1494.51 -0.433199 -6.54067 0
M  V30 15676 H 1494.03 1.14965 -5.88679 0
M  V30 15677 H 1495.71 0.869934 -6.41125 0
M  V30 15678 N 1495.84 1.56784 0.160173 0
M  V30 15679 C 1496.77 2.00298 1.20012 0
M  V30 15680 C 1497.75 0.880356 1.45546 0
M  V30 15681 O 1498.93 1.14724 1.56691 0
M  V30 15682 C 1496.06 2.37238 2.53645 0
M  V30 15683 C 1495.02 3.52563 2.42658 0
M  V30 15684 C 1494.34 3.75278 3.80881 0
M  V30 15685 C 1495.64 4.85657 1.92183 0
M  V30 15686 H 1497.34 2.87423 0.838362 0
M  V30 15687 H 1494.88 1.3828 0.401838 0
M  V30 15688 H 1496.84 2.66278 3.2661 0
M  V30 15689 H 1495.56 1.47035 2.9163 0
M  V30 15690 H 1494.22 3.23669 1.72146 0
M  V30 15691 H 1493.87 2.82347 4.1628 0
M  V30 15692 H 1493.57 4.52882 3.74396 0
M  V30 15693 H 1495.09 4.0673 4.55415 0
M  V30 15694 H 1496.51 5.13501 2.54931 0
M  V30 15695 H 1494.9 5.66975 1.96619 0
M  V30 15696 H 1495.97 4.76908 0.876742 0
M  V30 15697 N 1497.32 -0.429099 1.51646 0
M  V30 15698 C 1498.73 -1.00868 1.57107 0
M  V30 15699 C 1499.08 -1.9209 0.399483 0
M  V30 15700 O 1498.2 -2.10948 -0.482709 0
M  V30 15701 C 1498.8 -1.83612 2.84732 0
M  V30 15702 C 1497.36 -2.36605 2.92737 0
M  V30 15703 C 1496.5 -1.1604 2.51853 0
M  V30 15704 H 1499.45 -0.21006 1.57304 0
M  V30 15705 H 1499.48 -2.69149 2.68959 0
M  V30 15706 H 1498.99 -1.17192 3.69983 0
M  V30 15707 H 1497.09 -3.06455 2.11934 0
M  V30 15708 H 1497.2 -2.68838 3.96564 0
M  V30 15709 H 1495.57 -1.50826 2.0524 0
M  V30 15710 H 1496.35 -0.51218 3.39458 0
M  V30 15711 N 1498.79 -1.41931 -0.685074 0
M  V30 15712 C 1500.2 -1.37279 -1.26536 0
M  V30 15713 C 1500.56 -0.0610089 -1.96105 0
M  V30 15714 O 1499.68 0.840508 -1.9941 0
M  V30 15715 C 1500.28 -2.48658 -2.30119 0
M  V30 15716 C 1498.83 -2.47371 -2.83698 0
M  V30 15717 C 1497.98 -2.2797 -1.57876 0
M  V30 15718 H 1500.93 -1.51294 -0.479132 0
M  V30 15719 H 1500.95 -2.18319 -3.11636 0
M  V30 15720 H 1500.47 -3.44118 -1.79456 0
M  V30 15721 H 1498.57 -1.55699 -3.3851 0
M  V30 15722 H 1498.68 -3.44052 -3.33414 0
M  V30 15723 H 1497.04 -1.7604 -1.84071 0
M  V30 15724 H 1497.83 -3.25471 -1.09194 0
M  V30 15725 N 1500.27 0.920374 -1.27933 0
M  V30 15726 C 1501.5 1.70804 -1.17647 0
M  V30 15727 C 1501.92 1.86264 0.262189 0
M  V30 15728 O 1501.28 1.36798 1.18979 0
M  V30 15729 C 1501.33 3.08142 -1.87298 0
M  V30 15730 O 1500.43 3.95279 -1.17593 0
M  V30 15731 H 1499.77 0.523267 -0.408763 0
M  V30 15732 H 1502.3 1.15127 -1.69136 0
M  V30 15733 H 1502.31 3.58414 -1.94945 0
M  V30 15734 H 1500.99 2.96208 -2.91948 0
M  V30 15735 H 1499.56 3.53716 -1.18065 0
M  V30 15736 N 1501.75 1.10074 1.1279 0
M  V30 15737 C 1502.7 0.746173 2.18405 0
M  V30 15738 C 1503.67 -0.275751 1.63795 0
M  V30 15739 O 1504.85 -0.155876 1.90162 0
M  V30 15740 C 1501.99 0.180105 3.4463 0
M  V30 15741 C 1501.1 1.25688 4.13312 0
M  V30 15742 C 1500.24 0.652852 5.27173 0
M  V30 15743 C 1499.28 1.71046 5.87716 0
M  V30 15744 N 1498.42 1.12698 6.92996 0
M  V30 15745 H 1503.26 1.65105 2.48081 0
M  V30 15746 H 1500.79 0.824768 1.21803 0
M  V30 15747 H 1502.75 -0.165948 4.1687 0
M  V30 15748 H 1501.38 -0.688014 3.15383 0
M  V30 15749 H 1500.43 1.72011 3.39288 0
M  V30 15750 H 1501.74 2.05762 4.54382 0
M  V30 15751 H 1500.9 0.25603 6.0616 0
M  V30 15752 H 1499.64 -0.17937 4.8737 0
M  V30 15753 H 1498.64 2.11676 5.07418 0
M  V30 15754 H 1499.87 2.54547 6.29589 0
M  V30 15755 H 1497.81 0.316154 6.55238 0
M  V30 15756 H 1497.73 1.86461 7.32645 0
M  V30 15757 H 1499 0.756582 7.7582 0
M  V30 15758 N 1503.23 -1.30138 0.888926 0
M  V30 15759 C 1504.46 -2.00143 0.524437 0
M  V30 15760 C 1504.87 -1.66608 -0.888093 0
M  V30 15761 O 1504.23 -0.905326 -1.58462 0
M  V30 15762 C 1504.28 -3.54769 0.694327 0
M  V30 15763 O 1504 -3.87112 2.05125 0
M  V30 15764 C 1505.5 -4.42045 0.333354 0
M  V30 15765 H 1502.72 -0.639775 0.202309 0
M  V30 15766 H 1505.26 -1.65929 1.19531 0
M  V30 15767 H 1503.42 -3.87335 0.0707712 0
M  V30 15768 H 1503.83 -4.81807 2.07275 0
M  V30 15769 H 1505.31 -5.49702 0.503107 0
M  V30 15770 H 1505.78 -4.33109 -0.728893 0
M  V30 15771 H 1506.39 -4.14931 0.933398 0
M  V30 15772 N 1504.71 -0.650285 -1.43559 0
M  V30 15773 C 1505.94 -0.169893 -2.059 0
M  V30 15774 C 1506.34 1.16848 -1.48806 0
M  V30 15775 O 1505.69 1.73177 -0.612827 0
M  V30 15776 C 1505.75 -0.00117055 -3.595 0
M  V30 15777 C 1505.41 -1.26438 -4.39161 0
M  V30 15778 C 1506.41 -2.19245 -4.7141 0
M  V30 15779 C 1504.09 -1.50514 -4.79219 0
M  V30 15780 C 1506.09 -3.34424 -5.42623 0
M  V30 15781 C 1503.78 -2.65987 -5.50177 0
M  V30 15782 C 1504.77 -3.57767 -5.81801 0
M  V30 15783 O 1504.46 -4.71223 -6.51309 0
M  V30 15784 H 1504.19 -0.0858397 -0.670528 0
M  V30 15785 H 1506.75 -0.890321 -1.85101 0
M  V30 15786 H 1504.98 0.774599 -3.78863 0
M  V30 15787 H 1506.67 0.436206 -4.03549 0
M  V30 15788 H 1507.43 -2.01885 -4.40985 0
M  V30 15789 H 1503.31 -0.799577 -4.54013 0
M  V30 15790 H 1506.86 -4.06082 -5.67224 0
M  V30 15791 H 1502.75 -2.83282 -5.80019 0
M  V30 15792 H 1503.52 -4.70451 -6.6979 0
M  V30 15793 N 1506.18 1.52647 -0.392018 0
M  V30 15794 C 1507.43 2.00798 0.19056 0
M  V30 15795 C 1507.75 1.28265 1.47673 0
M  V30 15796 O 1508.95 1.67142 2.13953 0
M  V30 15797 C 1507.41 3.57779 0.390148 0
M  V30 15798 C 1507.02 4.39213 -0.882933 0
M  V30 15799 C 1508.76 4.14211 0.928945 0
M  V30 15800 C 1506.67 5.87801 -0.651474 0
M  V30 15801 H 1505.6 0.750262 0.0749879 0
M  V30 15802 H 1508.25 1.7613 -0.514835 0
M  V30 15803 H 1506.63 3.78707 1.15746 0
M  V30 15804 H 1507.8 4.30051 -1.65507 0
M  V30 15805 H 1506.12 3.94015 -1.34688 0
M  V30 15806 H 1508.72 5.22884 1.11787 0
M  V30 15807 H 1509.06 3.70475 1.89878 0
M  V30 15808 H 1509.59 3.97185 0.221135 0
M  V30 15809 H 1506.33 6.35864 -1.59239 0
M  V30 15810 H 1505.85 5.99744 0.0816786 0
M  V30 15811 H 1507.53 6.46363 -0.287057 0
M  V30 15812 N 1507.66 0.121921 1.57128 0
M  V30 15813 C 1508.61 -0.844503 2.16728 0
M  V30 15814 C 1509.6 -1.2733 1.1173 0
M  V30 15815 O 1510.81 -1.2447 1.30028 0
M  V30 15816 H 1507.19 -0.290459 0.693641 0
M  V30 15817 H 1509.16 -0.317379 2.96707 0
M  V30 15818 C 1507.91 -2.08359 2.78356 0
M  V30 15819 H 1507.23 -1.76258 3.5885 0
M  V30 15820 H 1508.67 -2.73978 3.23592 0
M  V30 15821 C 1507.13 -2.87526 1.75586 0
M  V30 15822 O 1507.66 -3.83011 1.21101 0
M  V30 15823 N 1505.86 -2.51575 1.4546 0
M  V30 15824 H 1505.41 -1.73993 1.89958 0
M  V30 15825 H 1505.37 -3.0484 0.769411 0
M  V30 15826 N 1509.14 -1.56867 -0.151857 0
M  V30 15827 C 1510.07 -1.94494 -1.21263 0
M  V30 15828 C 1511.09 -0.84021 -1.39443 0
M  V30 15829 O 1512.27 -1.11863 -1.391 0
M  V30 15830 C 1509.37 -2.19952 -2.57826 0
M  V30 15831 C 1508.55 -3.51227 -2.60689 0
M  V30 15832 C 1507.61 -3.65282 -3.78756 0
M  V30 15833 O 1506.63 -4.3772 -3.63854 0
M  V30 15834 N 1507.83 -3.01582 -4.96012 0
M  V30 15835 H 1510.6 -2.86092 -0.892845 0
M  V30 15836 H 1508.16 -1.58258 -0.341463 0
M  V30 15837 H 1510.15 -2.266 -3.35312 0
M  V30 15838 H 1508.72 -1.34643 -2.82117 0
M  V30 15839 H 1507.94 -3.56062 -1.69155 0
M  V30 15840 H 1509.23 -4.37574 -2.59628 0
M  V30 15841 H 1508.63 -2.42637 -5.11022 0
M  V30 15842 H 1507.19 -3.13799 -5.71291 0
M  V30 15843 N 1510.62 0.421051 -1.51871 0
M  V30 15844 C 1511.55 1.51928 -1.77313 0
M  V30 15845 C 1512.53 1.58258 -0.623579 0
M  V30 15846 O 1513.71 1.73724 -0.867967 0
M  V30 15847 C 1510.84 2.89865 -1.913 0
M  V30 15848 C 1509.8 2.98391 -3.06834 0
M  V30 15849 C 1509.12 4.38466 -3.06026 0
M  V30 15850 C 1510.42 2.7097 -4.46511 0
M  V30 15851 H 1512.12 1.30889 -2.69274 0
M  V30 15852 H 1509.66 0.628229 -1.29573 0
M  V30 15853 H 1511.62 3.66669 -2.07682 0
M  V30 15854 H 1510.34 3.12172 -0.960011 0
M  V30 15855 H 1509 2.24029 -2.90184 0
M  V30 15856 H 1508.65 4.57764 -2.08472 0
M  V30 15857 H 1508.35 4.45097 -3.83618 0
M  V30 15858 H 1509.87 5.17221 -3.24522 0
M  V30 15859 H 1511.29 3.37501 -4.63428 0
M  V30 15860 H 1509.68 2.88992 -5.25931 0
M  V30 15861 H 1510.75 1.66476 -4.55427 0
M  V30 15862 N 1512.1 1.42293 0.677538 0
M  V30 15863 C 1513.32 1.46214 1.47092 0
M  V30 15864 C 1513.75 0.0740989 1.87954 0
M  V30 15865 O 1513.1 -0.926831 1.55819 0
M  V30 15866 C 1513.15 2.39236 2.69812 0
M  V30 15867 O 1512.26 1.86183 3.6798 0
M  V30 15868 H 1511.6 0.495507 0.442006 0
M  V30 15869 H 1514.13 1.86952 0.831274 0
M  V30 15870 H 1514.14 2.55723 3.17915 0
M  V30 15871 H 1512.81 3.40081 2.39411 0
M  V30 15872 H 1511.39 1.79237 3.26999 0
M  V30 15873 N 1513.57 -0.913576 1.28419 0
M  V30 15874 C 1514.51 -2.01727 1.06683 0
M  V30 15875 C 1515.49 -1.62591 -0.0171379 0
M  V30 15876 O 1516.67 -1.88045 0.130827 0
M  V30 15877 C 1513.8 -3.32954 0.621229 0
M  V30 15878 C 1512.84 -3.91074 1.70187 0
M  V30 15879 S 1513.68 -4.21902 3.29786 0
M  V30 15880 C 1514.83 -5.5619 2.8706 0
M  V30 15881 H 1515.06 -2.19855 2.00127 0
M  V30 15882 H 1512.6 -1.05846 1.1241 0
M  V30 15883 H 1514.56 -4.08822 0.370832 0
M  V30 15884 H 1513.22 -3.12727 -0.293381 0
M  V30 15885 H 1512.41 -4.85813 1.3417 0
M  V30 15886 H 1512.01 -3.21843 1.90507 0
M  V30 15887 H 1514.3 -6.36085 2.33242 0
M  V30 15888 H 1515.25 -5.97119 3.80598 0
M  V30 15889 H 1515.65 -5.17386 2.25771 0
M  V30 15890 N 1515.05 -1.1067 -1.12204 0
M  V30 15891 C 1516 -0.752659 -2.20086 0
M  V30 15892 C 1516.99 0.252284 -1.67511 0
M  V30 15893 O 1518.2 0.112398 -1.79649 0
M  V30 15894 H 1514.58 -0.225473 -0.717402 0
M  V30 15895 H 1516.55 -1.67136 -2.472 0
M  V30 15896 C 1515.3 -0.203345 -3.47105 0
M  V30 15897 H 1514.62 -0.967864 -3.87908 0
M  V30 15898 H 1516.06 0.00629123 -4.24 0
M  V30 15899 C 1514.52 1.06452 -3.1964 0
M  V30 15900 O 1515.05 2.14562 -3.39597 0
M  V30 15901 N 1513.25 0.984122 -2.73429 0
M  V30 15902 H 1512.8 0.104258 -2.57389 0
M  V30 15903 H 1512.76 1.83312 -2.55429 0
M  V30 15904 N 1516.53 1.29665 -0.895815 0
M  V30 15905 C 1517.76 2.00399 -0.534333 0
M  V30 15906 C 1518.18 1.66632 0.872654 0
M  V30 15907 O 1517.54 0.888811 1.58018 0
M  V30 15908 C 1517.59 3.53154 -0.729023 0
M  V30 15909 O 1516.69 4.11812 0.22023 0
M  V30 15910 H 1516.03 0.630173 -0.209233 0
M  V30 15911 H 1518.56 1.65253 -1.20634 0
M  V30 15912 H 1518.57 4.03073 -0.632179 0
M  V30 15913 H 1517.25 3.77067 -1.75481 0
M  V30 15914 H 1515.82 3.72822 0.0761687 0
M  V30 15915 N 1518.01 0.657889 1.43212 0
M  V30 15916 C 1519.42 0.252443 1.84985 0
M  V30 15917 C 1519.77 -1.20196 1.55072 0
M  V30 15918 O 1518.9 -1.91803 1.00202 0
M  V30 15919 C 1519.49 0.451388 3.3578 0
M  V30 15920 C 1518.05 0.100219 3.76267 0
M  V30 15921 C 1517.2 0.752009 2.66908 0
M  V30 15922 H 1520.15 0.861239 1.33298 0
M  V30 15923 H 1520.17 -0.30169 3.79302 0
M  V30 15924 H 1519.68 1.51001 3.5752 0
M  V30 15925 H 1517.78 -0.955618 3.60137 0
M  V30 15926 H 1517.89 0.528942 4.76171 0
M  V30 15927 H 1516.26 0.184823 2.54029 0
M  V30 15928 H 1517.04 1.81375 2.91476 0
M  V30 15929 N 1519.49 -1.52437 0.400108 0
M  V30 15930 C 1520.4 -2.30496 -0.436875 0
M  V30 15931 C 1521.41 -1.37851 -1.06175 0
M  V30 15932 O 1522.59 -1.70924 -1.06522 0
M  V30 15933 C 1519.65 -3.10459 -1.54325 0
M  V30 15934 C 1518.71 -4.18829 -0.942367 0
M  V30 15935 C 1517.95 -4.94969 -1.99602 0
M  V30 15936 O 1518.17 -4.71314 -3.21278 0
M  V30 15937 O 1517.1 -5.80043 -1.60728 0
M  V30 15938 H 1520.93 -3.03045 0.199343 0
M  V30 15939 H 1518.52 -1.48502 0.163541 0
M  V30 15940 H 1520.4 -3.60282 -2.18575 0
M  V30 15941 H 1519.07 -2.40713 -2.16423 0
M  V30 15942 H 1517.98 -3.73176 -0.262831 0
M  V30 15943 H 1519.31 -4.90841 -0.365441 0
M  V30 15944 N 1520.96 -0.130252 -1.57061 0
M  V30 15945 C 1521.9 0.853341 -2.11644 0
M  V30 15946 C 1522.88 1.25349 -1.03568 0
M  V30 15947 O 1524.06 1.35256 -1.31294 0
M  V30 15948 C 1521.19 2.14354 -2.6224 0
M  V30 15949 C 1520.23 1.8906 -3.82307 0
M  V30 15950 S 1521.07 1.0967 -5.2415 0
M  V30 15951 C 1522.22 2.39845 -5.78122 0
M  V30 15952 H 1522.45 0.389112 -2.94743 0
M  V30 15953 H 1519.99 0.083734 -1.54173 0
M  V30 15954 H 1521.95 2.8848 -2.92044 0
M  V30 15955 H 1520.61 2.57894 -1.79303 0
M  V30 15956 H 1519.8 2.84687 -4.15896 0
M  V30 15957 H 1519.4 1.23051 -3.53178 0
M  V30 15958 H 1521.69 3.35612 -5.88533 0
M  V30 15959 H 1522.64 2.10785 -6.75999 0
M  V30 15960 H 1523.04 2.49727 -5.06257 0
M  V30 15961 N 1522.44 1.56945 0.143535 0
M  V30 15962 C 1523.67 1.88067 0.874385 0
M  V30 15963 C 1524.09 0.719645 1.73789 0
M  V30 15964 O 1523.45 -0.330654 1.78259 0
M  V30 15965 C 1523.5 3.17795 1.70408 0
M  V30 15966 O 1522.6 3.01973 2.80867 0
M  V30 15967 H 1521.94 0.617808 0.24333 0
M  V30 15968 H 1524.47 2.04165 0.133309 0
M  V30 15969 H 1524.48 3.49903 2.09838 0
M  V30 15970 H 1523.16 4.019 1.07001 0
M  V30 15971 H 1521.74 2.8128 2.44818 0
M  V30 15972 N 1523.92 -0.412991 1.52093 0
M  V30 15973 C 1524.83 -1.52768 1.78042 0
M  V30 15974 C 1525.85 -1.60758 0.665791 0
M  V30 15975 O 1527.02 -1.77545 0.950772 0
M  V30 15976 C 1524.09 -2.8854 1.92213 0
M  V30 15977 C 1523.15 -2.90468 3.16112 0
M  V30 15978 C 1522.38 -4.19763 3.29598 0
M  V30 15979 O 1522.61 -5.13454 2.48438 0
M  V30 15980 O 1521.54 -4.2847 4.22726 0
M  V30 15981 H 1525.37 -1.33777 2.72649 0
M  V30 15982 H 1522.95 -0.598461 1.3689 0
M  V30 15983 H 1524.83 -3.69073 2.03379 0
M  V30 15984 H 1523.51 -3.07607 1.00795 0
M  V30 15985 H 1522.41 -2.08801 3.10408 0
M  V30 15986 H 1523.75 -2.76349 4.07298 0
M  V30 15987 N 1525.4 -1.4265 -0.669982 0
M  V30 15988 C 1526.64 -1.44866 -1.44199 0
M  V30 15989 C 1527 -0.0647049 -1.91891 0
M  V30 15990 O 1528.2 0.0384187 -2.68773 0
M  V30 15991 C 1526.48 -2.44846 -2.60356 0
M  V30 15992 S 1528.03 -2.65803 -3.49134 0
M  V30 15993 H 1524.85 -0.512859 -0.49244 0
M  V30 15994 H 1527.45 -1.7929 -0.779442 0
M  V30 15995 H 1526.16 -3.44161 -2.23565 0
M  V30 15996 H 1525.69 -2.11863 -3.31478 0
M  V30 15997 H 1527.7 -1.94466 -4.56506 0
M  V30 15998 N 1526.88 0.906753 -1.28902 0
M  V30 15999 C 1528.15 1.63637 -1.07155 0
M  V30 16000 C 1528.53 2.07527 0.386727 0
M  V30 16001 O 1527.88 1.82562 1.37417 0
M  V30 16002 C 1528.09 2.82256 -2.05263 0
M  V30 16003 C 1529.44 3.53109 -2.35794 0
M  V30 16004 O 1530.46 2.92414 -2.03402 0
M  V30 16005 O 1529.32 4.62512 -2.91109 0
M  V30 16006 H 1526.42 0.718194 -0.410032 0
M  V30 16007 H 1528.96 0.955442 -1.40248 0
M  V30 16008 H 1527.74 2.46968 -3.03517 0
M  V30 16009 H 1527.36 3.58059 -1.72857 0
M  V30 16010 N 1528.36 1.11264 1.11616 0
M  V30 16011 C 1529.6 0.855139 1.82675 0
M  V30 16012 C 1529.92 -0.621194 1.85474 0
M  V30 16013 O 1531.12 -0.994886 2.52615 0
M  V30 16014 C 1529.58 1.48007 3.28058 0
M  V30 16015 C 1529.19 2.99031 3.33593 0
M  V30 16016 C 1530.93 1.30233 4.04029 0
M  V30 16017 C 1528.84 3.54517 4.73362 0
M  V30 16018 H 1527.77 0.316252 0.684471 0
M  V30 16019 H 1530.42 1.33766 1.25614 0
M  V30 16020 H 1528.8 0.925214 3.8504 0
M  V30 16021 H 1529.98 3.60905 2.86503 0
M  V30 16022 H 1528.29 3.16059 2.711 0
M  V30 16023 H 1530.89 1.69122 5.07249 0
M  V30 16024 H 1531.23 0.244724 4.1558 0
M  V30 16025 H 1531.76 1.82573 3.53429 0
M  V30 16026 H 1528.5 4.59982 4.67008 0
M  V30 16027 H 1528.02 2.97414 5.20869 0
M  V30 16028 H 1529.7 3.52848 5.42316 0
M  V30 16029 N 1529.83 -1.29188 0.902679 0
M  V30 16030 C 1530.76 -2.3006 0.399357 0
M  V30 16031 C 1531.74 -1.61724 -0.527199 0
M  V30 16032 O 1532.93 -1.89213 -0.437293 0
M  V30 16033 C 1530.06 -3.45309 -0.371331 0
M  V30 16034 C 1529.01 -4.25466 0.465068 0
M  V30 16035 C 1528.34 -5.32941 -0.433295 0
M  V30 16036 C 1529.64 -4.93287 1.71655 0
M  V30 16037 H 1531.33 -2.72409 1.24233 0
M  V30 16038 H 1528.88 -1.30958 0.598822 0
M  V30 16039 H 1530.83 -4.14955 -0.734207 0
M  V30 16040 H 1529.56 -3.01811 -1.24811 0
M  V30 16041 H 1528.22 -3.57532 0.810315 0
M  V30 16042 H 1527.86 -4.85688 -1.3083 0
M  V30 16043 H 1527.56 -5.87472 0.122657 0
M  V30 16044 H 1529.09 -6.05438 -0.792298 0
M  V30 16045 H 1530.5 -5.55353 1.42323 0
M  V30 16046 H 1528.9 -5.57763 2.21405 0
M  V30 16047 H 1529.97 -4.18406 2.45081 0
M  V30 16048 N 1531.31 -0.665475 -1.42861 0
M  V30 16049 C 1532.26 0.0411925 -2.27963 0
M  V30 16050 C 1533.25 0.782763 -1.40576 0
M  V30 16051 O 1534.44 0.66321 -1.64105 0
M  V30 16052 C 1531.57 0.998333 -3.28463 0
M  V30 16053 C 1530.65 0.254595 -4.23335 0
M  V30 16054 N 1531.04 -0.735508 -5.00424 0
M  V30 16055 C 1529.34 0.494345 -4.43252 0
M  V30 16056 C 1530.04 -1.17807 -5.69646 0
M  V30 16057 N 1529.02 -0.509865 -5.41204 0
M  V30 16058 H 1532.82 -0.718381 -2.84985 0
M  V30 16059 H 1530.33 -0.493763 -1.54712 0
M  V30 16060 H 1532.33 1.51949 -3.88223 0
M  V30 16061 H 1530.99 1.75783 -2.73002 0
M  V30 16062 H 1532 -1.1147 -5.05762 0
M  V30 16063 H 1528.68 1.23407 -3.98845 0
M  V30 16064 H 1530.07 -1.998 -6.41506 0
M  V30 16065 N 1532.79 1.52222 -0.408187 0
M  V30 16066 C 1534.02 2.06221 0.16743 0
M  V30 16067 C 1534.43 1.27832 1.3894 0
M  V30 16068 O 1533.79 0.329933 1.79493 0
M  V30 16069 C 1533.84 3.57758 0.518804 0
M  V30 16070 O 1533.56 4.33181 -0.654639 0
M  V30 16071 C 1535.06 4.28171 1.14825 0
M  V30 16072 H 1532.28 0.670677 0.0208054 0
M  V30 16073 H 1534.83 1.96136 -0.578868 0
M  V30 16074 H 1532.98 3.67854 1.215 0
M  V30 16075 H 1533.4 5.23252 -0.361558 0
M  V30 16076 H 1534.87 5.3538 1.34433 0
M  V30 16077 H 1535.35 3.84586 2.12108 0
M  V30 16078 H 1535.95 4.22441 0.492291 0
M  V30 16079 N 1534.27 0.138579 1.5699 0
M  V30 16080 C 1535.2 -0.800568 2.19347 0
M  V30 16081 C 1536.18 -1.26318 1.13921 0
M  V30 16082 O 1537.36 -1.32226 1.42232 0
M  V30 16083 C 1534.49 -2.04317 2.80842 0
M  V30 16084 C 1533.45 -1.71764 3.92022 0
M  V30 16085 C 1532.77 -3.03217 4.40413 0
M  V30 16086 C 1534.07 -0.970789 5.13199 0
M  V30 16087 H 1535.77 -0.280888 2.98079 0
M  V30 16088 H 1533.31 -0.133663 1.43378 0
M  V30 16089 H 1535.27 -2.70491 3.2313 0
M  V30 16090 H 1533.99 -2.58643 1.99428 0
M  V30 16091 H 1532.65 -1.07972 3.50339 0
M  V30 16092 H 1532.3 -3.55517 3.55832 0
M  V30 16093 H 1532 -2.82203 5.15398 0
M  V30 16094 H 1533.52 -3.70477 4.85365 0
M  V30 16095 H 1534.94 -1.53445 5.52384 0
M  V30 16096 H 1533.33 -0.860895 5.93893 0
M  V30 16097 H 1534.4 0.0390088 4.84884 0
M  V30 16098 N 1535.75 -1.57019 -0.13521 0
M  V30 16099 C 1537.16 -1.51949 -0.48824 0
M  V30 16100 C 1537.36 -0.848955 -1.82743 0
M  V30 16101 O 1536.42 -0.424441 -2.48907 0
M  V30 16102 C 1537.73 -2.96719 -0.487673 0
M  V30 16103 C 1539.28 -3.07722 -0.572365 0
M  V30 16104 C 1539.75 -4.54022 -0.602347 0
M  V30 16105 N 1541.24 -4.58413 -0.664242 0
M  V30 16106 C 1541.98 -5.69005 -0.70862 0
M  V30 16107 N 1541.48 -6.89135 -0.711626 0
M  V30 16108 N 1543.27 -5.57069 -0.750399 0
M  V30 16109 H 1535.42 -1.99001 0.742465 0
M  V30 16110 H 1537.68 -0.908116 0.272083 0
M  V30 16111 H 1537.39 -3.49082 0.428363 0
M  V30 16112 H 1537.26 -3.53299 -1.32136 0
M  V30 16113 H 1539.65 -2.55372 -1.47882 0
M  V30 16114 H 1539.73 -2.54166 0.288696 0
M  V30 16115 H 1539.37 -5.07013 0.3 0
M  V30 16116 H 1539.3 -5.05373 -1.48006 0
M  V30 16117 H 1541.8 -3.71936 -0.668739 0
M  V30 16118 H 1542.11 -7.69175 -0.747663 0
M  V30 16119 H 1540.45 -6.91672 -0.679311 0
M  V30 16120 H 1543.64 -4.62129 -0.745301 0
M  V30 16121 H 1543.82 -6.4327 -0.781518 0
M  V30 16122 N 1537.22 0.404919 -1.52309 0
M  V30 16123 C 1538.47 1.1499 -1.67776 0
M  V30 16124 C 1538.83 1.88094 -0.404753 0
M  V30 16125 O 1538.12 1.81931 0.600975 0
M  V30 16126 C 1538.31 2.16817 -2.84121 0
M  V30 16127 C 1538.14 1.53712 -4.22614 0
M  V30 16128 C 1536.91 1.30802 -4.88077 0
M  V30 16129 C 1539.11 0.995747 -5.04569 0
M  V30 16130 N 1537.09 0.636344 -6.10593 0
M  V30 16131 C 1538.46 0.451225 -6.18356 0
M  V30 16132 C 1540.52 0.890617 -4.8987 0
M  V30 16133 C 1539.22 -0.188129 -7.19054 0
M  V30 16134 C 1541.25 0.26511 -5.90805 0
M  V30 16135 C 1540.61 -0.268716 -7.03887 0
M  V30 16136 H 1536.71 0.407302 -0.667554 0
M  V30 16137 H 1539.29 0.441678 -1.89624 0
M  V30 16138 H 1537.46 2.84993 -2.63882 0
M  V30 16139 H 1539.19 2.83707 -2.88604 0
M  V30 16140 H 1535.95 1.57869 -4.46513 0
M  V30 16141 H 1536.37 0.317008 -6.76257 0
M  V30 16142 H 1541.02 1.28915 -4.02667 0
M  V30 16143 H 1538.73 -0.598717 -8.05879 0
M  V30 16144 H 1542.32 0.185229 -5.81505 0
M  V30 16145 H 1541.2 -0.745099 -7.80652 0
M  V30 16146 N 1538.7 1.43003 0.662408 0
M  V30 16147 C 1539.93 1.47766 1.45533 0
M  V30 16148 C 1540.35 0.0940298 1.87865 0
M  V30 16149 O 1539.71 -0.910252 1.56793 0
M  V30 16150 C 1539.76 2.42084 2.6726 0
M  V30 16151 O 1538.86 1.90076 3.65985 0
M  V30 16152 H 1538.2 0.500167 0.436725 0
M  V30 16153 H 1540.73 1.87823 0.811399 0
M  V30 16154 H 1540.74 2.5908 3.15185 0
M  V30 16155 H 1539.42 3.42601 2.3579 0
M  V30 16156 H 1538 1.82695 3.2508 0
M  V30 16157 N 1540.18 -0.899904 1.29381 0
M  V30 16158 C 1541.41 -1.68911 1.20349 0
M  V30 16159 C 1541.83 -1.86657 -0.232523 0
M  V30 16160 O 1541.19 -1.38674 -1.16787 0
M  V30 16161 C 1541.24 -3.05124 1.92177 0
M  V30 16162 O 1540.34 -3.93358 1.23867 0
M  V30 16163 H 1539.68 -0.516698 0.417036 0
M  V30 16164 H 1542.21 -1.12422 1.70946 0
M  V30 16165 H 1542.22 -3.55267 2.00623 0
M  V30 16166 H 1540.9 -2.91525 2.96624 0
M  V30 16167 H 1539.47 -3.51793 1.23677 0
M  V30 16168 N 1541.66 -1.11854 -1.11024 0
M  V30 16169 C 1543.07 -0.853341 -1.34871 0
M  V30 16170 C 1543.27 0.519725 -1.94682 0
M  V30 16171 O 1542.33 1.26966 -2.18256 0
M  V30 16172 C 1543.64 -1.9649 -2.27623 0
M  V30 16173 C 1545.19 -1.99507 -2.41176 0
M  V30 16174 C 1545.67 -3.09879 -3.37253 0
M  V30 16175 N 1547.16 -3.09281 -3.44818 0
M  V30 16176 C 1547.89 -3.91322 -4.19111 0
M  V30 16177 N 1547.39 -4.83337 -4.96344 0
M  V30 16178 N 1549.18 -3.79483 -4.14667 0
M  V30 16179 H 1541.33 -2.00335 -0.70567 0
M  V30 16180 H 1543.6 -0.871431 -0.373245 0
M  V30 16181 H 1543.3 -2.95397 -1.90875 0
M  V30 16182 H 1543.18 -1.86481 -3.27879 0
M  V30 16183 H 1545.56 -1.01223 -2.77196 0
M  V30 16184 H 1545.64 -2.13592 -1.40756 0
M  V30 16185 H 1545.29 -4.08391 -3.01959 0
M  V30 16186 H 1545.22 -2.93033 -4.37537 0
M  V30 16187 H 1547.71 -2.42617 -2.89733 0
M  V30 16188 H 1548.02 -5.42462 -5.50413 0
M  V30 16189 H 1546.37 -4.87356 -4.95489 0
M  V30 16190 H 1549.56 -3.06938 -3.53421 0
M  V30 16191 H 1549.73 -4.43653 -4.72309 0
M  V30 16192 N 1543.14 1.28707 -0.909517 0
M  V30 16193 C 1544.07 2.29845 -0.411552 0
M  V30 16194 C 1545.05 1.62001 0.518615 0
M  V30 16195 O 1546.23 1.89442 0.427252 0
M  V30 16196 C 1543.36 3.45501 0.353013 0
M  V30 16197 C 1542.32 4.25213 -0.487625 0
M  V30 16198 C 1541.64 5.33164 0.405026 0
M  V30 16199 C 1542.94 4.9237 -1.74268 0
M  V30 16200 H 1544.64 2.71746 -1.25676 0
M  V30 16201 H 1542.18 1.30639 -0.605759 0
M  V30 16202 H 1544.14 4.15338 0.712191 0
M  V30 16203 H 1542.86 3.02469 1.23209 0
M  V30 16204 H 1541.52 3.57098 -0.829265 0
M  V30 16205 H 1541.17 4.86375 1.28252 0
M  V30 16206 H 1540.87 5.87399 -0.153811 0
M  V30 16207 H 1542.39 6.0585 0.760179 0
M  V30 16208 H 1543.8 5.5459 -1.45266 0
M  V30 16209 H 1542.2 5.56581 -2.2436 0
M  V30 16210 H 1543.27 4.171 -2.47297 0
M  V30 16211 N 1544.61 0.673042 1.42506 0
M  V30 16212 C 1546.03 0.342429 1.55883 0
M  V30 16213 C 1546.23 -1.15229 1.65302 0
M  V30 16214 O 1545.29 -1.93767 1.61897 0
M  V30 16215 C 1546.6 1.0712 2.80973 0
M  V30 16216 C 1548.15 1.05336 2.94743 0
M  V30 16217 C 1548.62 1.76342 4.22691 0
M  V30 16218 N 1550.11 1.73201 4.29599 0
M  V30 16219 C 1550.85 2.25 5.27411 0
M  V30 16220 N 1550.34 2.85173 6.31386 0
M  V30 16221 N 1552.14 2.15385 5.19197 0
M  V30 16222 H 1544.29 1.64277 1.34636 0
M  V30 16223 H 1546.55 0.691984 0.647968 0
M  V30 16224 H 1546.26 2.1263 2.80145 0
M  V30 16225 H 1546.13 0.635313 3.71811 0
M  V30 16226 H 1548.52 0.00659669 2.95099 0
M  V30 16227 H 1548.6 1.52811 2.0514 0
M  V30 16228 H 1548.24 2.80985 4.23096 0
M  V30 16229 H 1548.17 1.26317 5.11225 0
M  V30 16230 H 1550.66 1.2931 3.55088 0
M  V30 16231 H 1550.98 3.22323 7.02373 0
M  V30 16232 H 1549.32 2.89242 6.31953 0
M  V30 16233 H 1552.51 1.68065 4.36889 0
M  V30 16234 H 1552.69 2.5606 5.95262 0
M  V30 16235 N 1546.09 -1.52004 0.416254 0
M  V30 16236 C 1547.34 -2.01076 -0.158591 0
M  V30 16237 C 1547.65 -1.30598 -1.45614 0
M  V30 16238 O 1548.86 -1.70525 -2.11267 0
M  V30 16239 C 1547.32 -3.58354 -0.333179 0
M  V30 16240 C 1546.92 -4.37753 0.952696 0
M  V30 16241 C 1548.67 -4.15637 -0.86293 0
M  V30 16242 C 1546.58 -5.8669 0.744905 0
M  V30 16243 H 1545.51 -0.75136 -0.0630423 0
M  V30 16244 H 1548.16 -1.75288 0.542791 0
M  V30 16245 H 1546.54 -3.805 -1.09706 0
M  V30 16246 H 1547.71 -4.27364 1.72328 0
M  V30 16247 H 1546.03 -3.91823 1.40939 0
M  V30 16248 H 1548.62 -5.24596 -1.03454 0
M  V30 16249 H 1548.97 -3.73449 -1.8396 0
M  V30 16250 H 1549.5 -3.97486 -0.157918 0
M  V30 16251 H 1546.24 -6.3325 1.69334 0
M  V30 16252 H 1545.76 -5.99798 0.0137458 0
M  V30 16253 H 1547.44 -6.45824 0.389851 0
M  V30 16254 N 1547.57 -0.146903 -1.56914 0
M  V30 16255 C 1548.8 0.514426 -2.00919 0
M  V30 16256 C 1549.22 1.57632 -1.02634 0
M  V30 16257 O 1548.58 1.813 -0.00207478 0
M  V30 16258 C 1548.63 1.09197 -3.43669 0
M  V30 16259 O 1547.73 2.20684 -3.48385 0
M  V30 16260 H 1547.07 0.125827 -0.651969 0
M  V30 16261 H 1549.6 -0.243607 -2.03145 0
M  V30 16262 H 1549.61 1.42066 -3.82467 0
M  V30 16263 H 1548.29 0.314336 -4.1471 0
M  V30 16264 H 1546.86 1.89045 -3.21429 0
M  V30 16265 N 1549.05 1.57088 0.126881 0
M  V30 16266 C 1550.27 1.88984 0.854389 0
M  V30 16267 C 1550.7 0.738037 1.73016 0
M  V30 16268 O 1550.06 -0.311728 1.786 0
M  V30 16269 C 1550.1 3.19584 1.67028 0
M  V30 16270 O 1549.21 3.04935 2.77648 0
M  V30 16271 H 1548.55 0.620354 0.236763 0
M  V30 16272 H 1551.08 2.04295 0.111647 0
M  V30 16273 H 1551.09 3.52109 2.06115 0
M  V30 16274 H 1549.76 4.03012 1.02732 0
M  V30 16275 H 1548.34 2.83861 2.41821 0
M  V30 16276 N 1550.53 -0.396836 1.52522 0
M  V30 16277 C 1551.76 -1.16235 1.70801 0
M  V30 16278 C 1552.16 -1.8442 0.422591 0
M  V30 16279 O 1551.51 -1.732 -0.612171 0
M  V30 16280 C 1551.57 -2.25922 2.79642 0
M  V30 16281 C 1551.23 -1.7777 4.21007 0
M  V30 16282 C 1552.23 -1.25873 5.04432 0
M  V30 16283 C 1549.92 -1.84231 4.67295 0
M  V30 16284 C 1551.91 -0.810733 6.32223 0
M  V30 16285 C 1549.6 -1.39043 5.95072 0
M  V30 16286 C 1550.59 -0.875508 6.77365 0
M  V30 16287 O 1550.28 -0.430197 8.02748 0
M  V30 16288 H 1550.01 -0.354799 0.575407 0
M  V30 16289 H 1552.57 -0.471344 1.99919 0
M  V30 16290 H 1550.8 -2.98424 2.45927 0
M  V30 16291 H 1552.49 -2.87629 2.86399 0
M  V30 16292 H 1553.25 -1.20244 4.69858 0
M  V30 16293 H 1549.13 -2.23253 4.03335 0
M  V30 16294 H 1552.68 -0.408137 6.96405 0
M  V30 16295 H 1548.57 -1.44354 6.29152 0
M  V30 16296 H 1549.34 -0.552389 8.16634 0
M  V30 16297 N 1552.01 -1.43353 -0.654814 0
M  V30 16298 C 1553.25 -1.451 -1.41682 0
M  V30 16299 C 1553.58 -0.0743864 -1.94057 0
M  V30 16300 O 1552.86 0.904515 -1.72188 0
M  V30 16301 C 1553.14 -2.49204 -2.59941 0
M  V30 16302 C 1553 -3.96134 -2.13069 0
M  V30 16303 C 1554.31 -2.50064 -3.62155 0
M  V30 16304 H 1551.43 -0.528339 -0.513836 0
M  V30 16305 H 1554.08 -1.74892 -0.742489 0
M  V30 16306 H 1552.23 -2.2393 -3.1747 0
M  V30 16307 H 1553.9 -4.32459 -1.60552 0
M  V30 16308 H 1552.14 -4.09042 -1.44455 0
M  V30 16309 H 1552.81 -4.64585 -2.98101 0
M  V30 16310 H 1555.29 -2.72587 -3.14382 0
M  V30 16311 H 1554.16 -3.24849 -4.42452 0
M  V30 16312 H 1554.42 -1.53385 -4.14639 0
M  V30 16313 N 1553.48 0.89303 -1.29857 0
M  V30 16314 C 1554.43 2.01928 -1.15447 0
M  V30 16315 C 1555.43 1.69262 -0.0683677 0
M  V30 16316 O 1556.63 1.78542 -0.228646 0
M  V30 16317 H 1553.01 0.661961 -0.356807 0
M  V30 16318 H 1554.98 2.11218 -2.10784 0
M  V30 16319 C 1553.73 3.37031 -0.85473 0
M  V30 16320 H 1553.05 3.62673 -1.68251 0
M  V30 16321 H 1554.49 4.165 -0.793973 0
M  V30 16322 C 1552.95 3.33986 0.442183 0
M  V30 16323 O 1553.48 3.73986 1.4662 0
M  V30 16324 N 1551.68 2.87088 0.450438 0
M  V30 16325 H 1551.23 2.54732 -0.383347 0
M  V30 16326 H 1551.19 2.85433 1.31815 0
M  V30 16327 N 1554.96 1.12442 1.10429 0
M  V30 16328 C 1556.21 0.890989 1.82847 0
M  V30 16329 C 1556.56 -0.576982 1.83545 0
M  V30 16330 O 1555.86 -1.42106 1.28516 0
M  V30 16331 C 1556.05 1.39976 3.28849 0
M  V30 16332 C 1555.88 2.91567 3.42373 0
M  V30 16333 C 1554.65 3.59803 3.54781 0
M  V30 16334 C 1556.85 3.89566 3.35772 0
M  V30 16335 N 1554.83 4.99508 3.56882 0
M  V30 16336 C 1556.2 5.154 3.44619 0
M  V30 16337 C 1558.25 3.81977 3.19372 0
M  V30 16338 C 1556.96 6.34537 3.38756 0
M  V30 16339 C 1558.98 5.00636 3.1483 0
M  V30 16340 C 1558.35 6.25328 3.24259 0
M  V30 16341 H 1554.44 0.379313 0.683846 0
M  V30 16342 H 1557.03 1.43073 1.32054 0
M  V30 16343 H 1555.2 0.887076 3.78134 0
M  V30 16344 H 1556.93 1.1084 3.89226 0
M  V30 16345 H 1553.69 3.10295 3.5779 0
M  V30 16346 H 1554.11 5.72376 3.61544 0
M  V30 16347 H 1558.75 2.86468 3.1096 0
M  V30 16348 H 1556.47 7.30312 3.45934 0
M  V30 16349 H 1560.06 4.96494 3.03291 0
M  V30 16350 H 1558.94 7.15605 3.20747 0
M  V30 16351 N 1556.44 -1.28223 0.91633 0
M  V30 16352 C 1557.69 -1.94149 0.546705 0
M  V30 16353 C 1558 -1.72904 -0.914529 0
M  V30 16354 O 1559.21 -2.33075 -1.39243 0
M  V30 16355 C 1557.66 -3.47759 0.92691 0
M  V30 16356 C 1557.27 -3.77779 2.40805 0
M  V30 16357 C 1559.02 -4.19829 0.627994 0
M  V30 16358 C 1556.92 -5.2471 2.72825 0
M  V30 16359 H 1555.85 -0.726787 0.200739 0
M  V30 16360 H 1558.5 -1.45694 1.1156 0
M  V30 16361 H 1556.89 -3.9496 0.286779 0
M  V30 16362 H 1558.06 -3.41377 3.09513 0
M  V30 16363 H 1556.37 -3.18887 2.67769 0
M  V30 16364 H 1558.97 -5.27999 0.843862 0
M  V30 16365 H 1559.31 -4.14028 -0.434315 0
M  V30 16366 H 1559.85 -3.78413 1.22671 0
M  V30 16367 H 1556.59 -5.35591 3.77919 0
M  V30 16368 H 1556.11 -5.623 2.08756 0
M  V30 16369 H 1557.79 -5.92475 2.59965 0
M  V30 16370 N 1557.92 -0.68059 -1.42147 0
M  V30 16371 C 1558.86 -0.00585926 -2.30799 0
M  V30 16372 C 1559.83 0.786778 -1.46284 0
M  V30 16373 O 1561.02 0.757853 -1.75103 0
M  V30 16374 C 1558.16 0.935319 -3.32183 0
M  V30 16375 C 1557.27 0.13589 -4.31786 0
M  V30 16376 C 1556.41 1.07335 -5.20243 0
M  V30 16377 C 1555.45 0.265943 -6.11522 0
M  V30 16378 N 1554.58 1.15641 -6.92511 0
M  V30 16379 H 1559.42 -0.767651 -2.87943 0
M  V30 16380 H 1556.96 -0.39029 -1.41828 0
M  V30 16381 H 1558.92 1.49489 -3.89498 0
M  V30 16382 H 1557.55 1.66368 -2.76626 0
M  V30 16383 H 1556.6 -0.540383 -3.76542 0
M  V30 16384 H 1557.91 -0.490716 -4.9638 0
M  V30 16385 H 1557.07 1.70265 -5.82319 0
M  V30 16386 H 1555.81 1.73383 -4.55839 0
M  V30 16387 H 1554.81 -0.376531 -5.48509 0
M  V30 16388 H 1556.04 -0.39053 -6.77976 0
M  V30 16389 H 1553.98 1.80319 -6.30731 0
M  V30 16390 H 1553.9 0.585022 -7.53733 0
M  V30 16391 H 1555.17 1.773 -7.59069 0
M  V30 16392 N 1559.4 1.51781 -0.424309 0
M  V30 16393 C 1560.67 1.94514 0.205791 0
M  V30 16394 C 1561.05 1.36219 1.61269 0
M  V30 16395 O 1560.4 0.544019 2.21929 0
M  V30 16396 C 1560.61 3.48445 0.196749 0
M  V30 16397 C 1561.96 4.22628 0.408702 0
M  V30 16398 O 1562.98 3.55133 0.275441 0
M  V30 16399 O 1561.84 5.42344 0.672698 0
M  V30 16400 H 1558.94 0.815576 0.136983 0
M  V30 16401 H 1561.48 1.6273 -0.481349 0
M  V30 16402 H 1560.25 3.83297 -0.787342 0
M  V30 16403 H 1559.88 3.86634 0.92735 0
M  V30 16404 N 1560.87 0.155222 1.56834 0
M  V30 16405 C 1561.82 -0.793251 2.13756 0
M  V30 16406 C 1562.81 -1.20386 1.06752 0
M  V30 16407 O 1564 -1.1689 1.32912 0
M  V30 16408 C 1561.13 -2.02904 2.7692 0
M  V30 16409 C 1560.21 -1.64116 3.91058 0
M  V30 16410 N 1560.61 -0.961946 4.96568 0
M  V30 16411 C 1558.9 -1.93331 4.01919 0
M  V30 16412 C 1559.6 -0.773392 5.76536 0
M  V30 16413 N 1558.58 -1.30983 5.27584 0
M  V30 16414 H 1562.38 -0.265174 2.92701 0
M  V30 16415 H 1559.9 -0.0460321 1.62335 0
M  V30 16416 H 1561.89 -2.7186 3.16066 0
M  V30 16417 H 1560.55 -2.56222 1.9945 0
M  V30 16418 H 1561.56 -0.621782 5.14154 0
M  V30 16419 H 1558.24 -2.4844 3.35535 0
M  V30 16420 H 1559.63 -0.237458 6.7148 0
M  V30 16421 N 1562.35 -1.57153 -0.118549 0
M  V30 16422 C 1563.28 -2.03409 -1.1466 0
M  V30 16423 C 1564.26 -0.918636 -1.43161 0
M  V30 16424 O 1565.45 -1.18838 -1.53594 0
M  V30 16425 C 1562.58 -2.43879 -2.47265 0
M  V30 16426 C 1561.53 -3.58873 -2.33225 0
M  V30 16427 C 1560.86 -3.85244 -3.70798 0
M  V30 16428 C 1562.16 -4.90582 -1.79239 0
M  V30 16429 H 1563.85 -2.89545 -0.761862 0
M  V30 16430 H 1561.4 -1.39296 -0.365034 0
M  V30 16431 H 1563.35 -2.74844 -3.19435 0
M  V30 16432 H 1562.07 -1.54715 -2.8763 0
M  V30 16433 H 1560.73 -3.28119 -1.63504 0
M  V30 16434 H 1560.38 -2.93285 -4.08648 0
M  V30 16435 H 1560.08 -4.62649 -3.62257 0
M  V30 16436 H 1561.61 -4.18661 -4.44472 0
M  V30 16437 H 1563.02 -5.20079 -2.41227 0
M  V30 16438 H 1561.42 -5.71989 -1.81518 0
M  V30 16439 H 1562.49 -4.79065 -0.74999 0
M  V30 16440 N 1563.83 0.388742 -1.5273 0
M  V30 16441 C 1565.08 1.13094 -1.67011 0
M  V30 16442 C 1565.39 1.91115 -0.416467 0
M  V30 16443 O 1566.6 2.67921 -0.43941 0
M  V30 16444 C 1565.05 2.0595 -2.95149 0
M  V30 16445 C 1564.66 1.3335 -4.27694 0
M  V30 16446 C 1566.41 2.80303 -3.18795 0
M  V30 16447 C 1564.31 2.24973 -5.46938 0
M  V30 16448 H 1563.24 0.425887 -0.622203 0
M  V30 16449 H 1565.89 0.393708 -1.79227 0
M  V30 16450 H 1564.28 2.83309 -2.7668 0
M  V30 16451 H 1565.45 0.612137 -4.56716 0
M  V30 16452 H 1563.76 0.709547 -4.1031 0
M  V30 16453 H 1566.36 3.49036 -4.05065 0
M  V30 16454 H 1566.7 3.44394 -2.33877 0
M  V30 16455 H 1567.24 2.10036 -3.37831 0
M  V30 16456 H 1563.98 1.65497 -6.34264 0
M  V30 16457 H 1563.5 2.95024 -5.22227 0
M  V30 16458 H 1565.18 2.8505 -5.80823 0
M  V30 16459 N 1565.31 1.43698 0.647203 0
M  V30 16460 C 1566.25 1.49323 1.75987 0
M  V30 16461 C 1567.22 0.342379 1.62533 0
M  V30 16462 O 1568.41 0.550379 1.8269 0
M  V30 16463 C 1565.55 1.428 3.14169 0
M  V30 16464 C 1564.66 2.68136 3.38714 0
M  V30 16465 C 1563.8 2.53559 4.66778 0
M  V30 16466 C 1562.84 3.74135 4.84447 0
M  V30 16467 N 1561.97 3.58332 6.03774 0
M  V30 16468 H 1566.81 2.44395 1.70514 0
M  V30 16469 H 1564.35 1.21309 0.832021 0
M  V30 16470 H 1566.31 1.37011 3.94061 0
M  V30 16471 H 1564.94 0.513057 3.18697 0
M  V30 16472 H 1563.99 2.84179 2.52877 0
M  V30 16473 H 1565.3 3.57684 3.47654 0
M  V30 16474 H 1564.46 2.45513 5.54805 0
M  V30 16475 H 1563.2 1.61545 4.60168 0
M  V30 16476 H 1562.2 3.82584 3.94854 0
M  V30 16477 H 1563.43 4.67165 4.92883 0
M  V30 16478 H 1561.37 2.69057 5.98284 0
M  V30 16479 H 1561.29 4.41485 6.13699 0
M  V30 16480 H 1562.56 3.54148 6.94406 0
M  V30 16481 N 1566.79 -0.886131 1.30328 0
M  V30 16482 C 1567.72 -1.99733 1.12425 0
M  V30 16483 C 1568.73 -1.62659 0.067824 0
M  V30 16484 O 1569.92 -1.75721 0.313723 0
M  V30 16485 C 1567.02 -3.31757 0.692122 0
M  V30 16486 C 1566.19 -3.97276 1.83004 0
M  V30 16487 C 1565.25 -5.076 1.38666 0
M  V30 16488 O 1564.28 -5.29295 2.09368 0
M  V30 16489 N 1565.48 -5.79895 0.265039 0
M  V30 16490 H 1568.25 -2.15643 2.0813 0
M  V30 16491 H 1565.81 -1.05915 1.22449 0
M  V30 16492 H 1567.8 -4.02926 0.37854 0
M  V30 16493 H 1566.37 -3.12122 -0.172864 0
M  V30 16494 H 1565.59 -3.19295 2.3118 0
M  V30 16495 H 1566.88 -4.37789 2.59264 0
M  V30 16496 H 1566.27 -5.64771 -0.324121 0
M  V30 16497 H 1564.83 -6.51799 0.0109044 0
M  V30 16498 N 1568.26 -1.13026 -1.09832 0
M  V30 16499 C 1569.51 -0.887662 -1.81563 0
M  V30 16500 C 1569.83 0.587935 -1.85926 0
M  V30 16501 O 1569.1 1.42732 -1.3418 0
M  V30 16502 H 1567.68 -0.32541 -0.672397 0
M  V30 16503 H 1570.35 -1.42597 -1.32861 0
M  V30 16504 H 1569.44 -1.2747 -2.84882 0
M  V30 16505 N 1569.74 1.27735 -0.923117 0
M  V30 16506 C 1570.68 2.25293 -0.363081 0
M  V30 16507 C 1571.65 1.53442 0.537978 0
M  V30 16508 O 1572.84 1.82299 0.479521 0
M  V30 16509 C 1569.96 3.35281 0.480058 0
M  V30 16510 C 1569.01 4.25004 -0.356928 0
M  V30 16511 S 1569.84 5.05417 -1.76959 0
M  V30 16512 C 1571 6.18892 -0.934006 0
M  V30 16513 H 1571.23 2.72448 -1.18993 0
M  V30 16514 H 1568.77 1.3632 -0.724991 0
M  V30 16515 H 1570.72 3.99101 0.960668 0
M  V30 16516 H 1569.38 2.86774 1.28139 0
M  V30 16517 H 1568.58 5.03175 0.288203 0
M  V30 16518 H 1568.18 3.65955 -0.771538 0
M  V30 16519 H 1570.47 6.77292 -0.167905 0
M  V30 16520 H 1571.41 6.87672 -1.68858 0
M  V30 16521 H 1571.82 5.62472 -0.478042 0
M  V30 16522 N 1571.22 0.688118 1.41784 0
M  V30 16523 C 1572.17 0.018099 2.30793 0
M  V30 16524 C 1573.14 -0.779009 1.46699 0
M  V30 16525 O 1574.32 -0.748556 1.75503 0
M  V30 16526 C 1571.46 -0.91769 3.32675 0
M  V30 16527 C 1570.58 -0.11299 4.31852 0
M  V30 16528 C 1569.71 -1.04574 5.20805 0
M  V30 16529 C 1568.75 -0.233509 6.11654 0
M  V30 16530 N 1567.89 -1.11967 6.93115 0
M  V30 16531 H 1572.73 0.782911 2.87532 0
M  V30 16532 H 1570.26 0.397806 1.41619 0
M  V30 16533 H 1572.22 -1.47421 3.90286 0
M  V30 16534 H 1570.85 -1.64898 2.77504 0
M  V30 16535 H 1569.9 0.560344 3.7625 0
M  V30 16536 H 1571.22 0.517033 4.96113 0
M  V30 16537 H 1570.37 -1.67174 5.83213 0
M  V30 16538 H 1569.11 -1.70963 4.56753 0
M  V30 16539 H 1568.11 0.405614 5.48302 0
M  V30 16540 H 1569.34 0.426479 6.7776 0
M  V30 16541 H 1567.28 -1.76972 6.31678 0
M  V30 16542 H 1567.2 -0.545042 7.54033 0
M  V30 16543 H 1568.47 -1.73272 7.59998 0
M  V30 16544 N 1572.7 -1.51554 0.432352 0
M  V30 16545 C 1573.66 -2.26195 -0.369912 0
M  V30 16546 C 1574.66 -1.29446 -0.953961 0
M  V30 16547 O 1575.85 -1.53199 -0.829193 0
M  V30 16548 C 1572.98 -3.04993 -1.52289 0
M  V30 16549 H 1574.18 -2.98551 0.284173 0
M  V30 16550 H 1571.73 -1.55197 0.1854 0
M  V30 16551 H 1572.46 -2.37043 -2.21317 0
M  V30 16552 H 1572.25 -3.76051 -1.11032 0
M  V30 16553 H 1573.74 -3.61547 -2.08982 0
M  V30 16554 N 1574.18 -0.163538 -1.56749 0
M  V30 16555 C 1575.09 0.782461 -2.21167 0
M  V30 16556 C 1576.1 1.25911 -1.20093 0
M  V30 16557 O 1577.28 1.31286 -1.52728 0
M  V30 16558 C 1574.34 1.99761 -2.83366 0
M  V30 16559 C 1573.4 1.56859 -3.99617 0
M  V30 16560 C 1572.64 2.72582 -4.58841 0
M  V30 16561 O 1572.86 3.89243 -4.16949 0
M  V30 16562 O 1571.79 2.47104 -5.48838 0
M  V30 16563 H 1575.62 0.264023 -3.0255 0
M  V30 16564 H 1573.21 0.06429 -1.49262 0
M  V30 16565 H 1575.09 2.70843 -3.22835 0
M  V30 16566 H 1573.76 2.50526 -2.04984 0
M  V30 16567 H 1572.67 0.827511 -3.64833 0
M  V30 16568 H 1574 1.10794 -4.79568 0
M  V30 16569 N 1575.65 1.57214 0.110213 0
M  V30 16570 C 1576.6 1.97409 1.14077 0
M  V30 16571 C 1577.59 0.850322 1.36596 0
M  V30 16572 O 1578.78 1.11407 1.3754 0
M  V30 16573 C 1575.91 2.38936 2.46505 0
M  V30 16574 C 1575 3.57965 2.27424 0
M  V30 16575 N 1575.39 4.73379 1.78175 0
M  V30 16576 C 1573.68 3.63768 2.58048 0
M  V30 16577 C 1574.39 5.55376 1.73009 0
M  V30 16578 N 1573.36 4.98115 2.17675 0
M  V30 16579 H 1577.16 2.84098 0.752688 0
M  V30 16580 H 1574.68 1.59259 0.317845 0
M  V30 16581 H 1576.67 2.65953 3.21052 0
M  V30 16582 H 1575.33 1.53616 2.86063 0
M  V30 16583 H 1576.35 4.96424 1.47593 0
M  V30 16584 H 1573.02 2.89076 3.01233 0
M  V30 16585 H 1574.41 6.57969 1.36112 0
M  V30 16586 N 1577.13 -0.380637 1.52934 0
M  V30 16587 C 1578.1 -1.44819 1.77652 0
M  V30 16588 C 1579.1 -1.47224 0.646657 0
M  V30 16589 O 1580.29 -1.48248 0.91477 0
M  V30 16590 C 1577.42 -2.8405 1.8849 0
M  V30 16591 H 1578.61 -1.24183 2.72981 0
M  V30 16592 H 1576.16 -0.61288 1.43783 0
M  V30 16593 H 1576.9 -3.1002 0.951751 0
M  V30 16594 H 1576.68 -2.83704 2.70655 0
M  V30 16595 H 1578.17 -3.61388 2.09257 0
M  V30 16596 N 1578.61 -1.44039 -0.639573 0
M  V30 16597 C 1579.84 -1.50063 -1.43164 0
M  V30 16598 C 1580.26 -0.123906 -1.87691 0
M  V30 16599 O 1579.62 0.885192 -1.58221 0
M  V30 16600 C 1579.67 -2.46305 -2.63375 0
M  V30 16601 O 1578.77 -1.95874 -3.62915 0
M  V30 16602 H 1578.11 -0.507052 -0.428713 0
M  V30 16603 H 1580.64 -1.8909 -0.781415 0
M  V30 16604 H 1580.65 -2.64062 -3.11023 0
M  V30 16605 H 1579.33 -3.46309 -2.3031 0
M  V30 16606 H 1577.9 -1.87844 -3.22132 0
M  V30 16607 N 1580.09 0.879207 -1.30796 0
M  V30 16608 C 1581.31 1.66975 -1.23021 0
M  V30 16609 C 1581.74 1.87004 0.202798 0
M  V30 16610 O 1581.1 1.40514 1.14566 0
M  V30 16611 C 1581.14 3.02028 -1.97007 0
M  V30 16612 O 1580.25 3.91338 -1.30109 0
M  V30 16613 H 1579.59 0.509998 -0.425204 0
M  V30 16614 H 1582.12 1.09688 -1.72713 0
M  V30 16615 H 1582.13 3.5203 -2.06249 0
M  V30 16616 H 1580.8 2.8677 -3.01224 0
M  V30 16617 H 1579.38 3.49781 -1.29258 0
M  V30 16618 N 1581.57 1.13606 1.09231 0
M  V30 16619 C 1582.5 0.837908 2.17948 0
M  V30 16620 C 1583.48 -0.203575 1.68877 0
M  V30 16621 O 1584.66 -0.0620702 1.94101 0
M  V30 16622 C 1581.79 0.305342 3.45955 0
M  V30 16623 C 1580.75 1.2813 4.08371 0
M  V30 16624 C 1580.07 0.608412 5.31227 0
M  V30 16625 C 1581.37 2.64055 4.50636 0
M  V30 16626 H 1583.07 1.747 2.43147 0
M  V30 16627 H 1580.61 0.84141 1.1686 0
M  V30 16628 H 1582.57 0.0844116 4.21315 0
M  V30 16629 H 1581.29 -0.639144 3.20285 0
M  V30 16630 H 1579.95 1.48826 3.35032 0
M  V30 16631 H 1579.6 -0.341613 5.01839 0
M  V30 16632 H 1579.3 1.25956 5.73942 0
M  V30 16633 H 1580.82 0.396809 6.09309 0
M  V30 16634 H 1582.24 2.47316 5.17212 0
M  V30 16635 H 1580.63 3.25364 5.0424 0
M  V30 16636 H 1581.7 3.21566 3.62937 0
M  V30 16637 N 1583.05 -1.27244 0.929878 0
M  V30 16638 C 1583.98 -2.29161 0.448066 0
M  V30 16639 C 1584.96 -1.62806 -0.492776 0
M  V30 16640 O 1586.14 -1.90098 -0.39706 0
M  V30 16641 C 1583.27 -3.46019 -0.298002 0
M  V30 16642 C 1582.23 -4.24384 0.555211 0
M  V30 16643 C 1581.55 -5.33741 -0.320153 0
M  V30 16644 C 1582.85 -4.89535 1.8208 0
M  V30 16645 H 1584.55 -2.69712 1.29983 0
M  V30 16646 H 1582.09 -1.29659 0.626466 0
M  V30 16647 H 1584.04 -4.16419 -0.646024 0
M  V30 16648 H 1582.77 -3.0439 -1.18381 0
M  V30 16649 H 1581.43 -3.55733 0.885971 0
M  V30 16650 H 1581.08 -4.88354 -1.20498 0
M  V30 16651 H 1580.78 -5.8708 0.247241 0
M  V30 16652 H 1582.3 -6.06982 -0.663697 0
M  V30 16653 H 1583.71 -5.52209 1.54071 0
M  V30 16654 H 1582.11 -5.52941 2.33186 0
M  V30 16655 H 1583.18 -4.13113 2.53901 0
M  V30 16656 N 1584.52 -0.695628 -1.41417 0
M  V30 16657 C 1585.43 -0.0308378 -2.3458 0
M  V30 16658 C 1586.45 0.766 -1.56232 0
M  V30 16659 O 1587.63 0.703548 -1.88712 0
M  V30 16660 C 1584.69 0.894162 -3.34971 0
M  V30 16661 C 1583.75 0.0895231 -4.29207 0
M  V30 16662 C 1582.98 0.970467 -5.24802 0
M  V30 16663 O 1583.21 2.20997 -5.25848 0
M  V30 16664 O 1582.14 0.420114 -6.00432 0
M  V30 16665 H 1585.97 -0.798775 -2.93007 0
M  V30 16666 H 1583.55 -0.455964 -1.42272 0
M  V30 16667 H 1585.43 1.42458 -3.9659 0
M  V30 16668 H 1584.11 1.64159 -2.78987 0
M  V30 16669 H 1583.02 -0.4855 -3.70936 0
M  V30 16670 H 1584.35 -0.619241 -4.88289 0
M  V30 16671 N 1586 1.51322 -0.440383 0
M  V30 16672 C 1586.93 2.30708 0.360013 0
M  V30 16673 C 1587.91 1.36254 1.01828 0
M  V30 16674 O 1589.1 1.65174 1.02134 0
M  V30 16675 C 1586.23 3.15132 1.45977 0
M  V30 16676 C 1585.18 4.17889 0.924825 0
M  V30 16677 C 1584.51 4.90853 2.12056 0
M  V30 16678 C 1585.81 5.22282 -0.0428362 0
M  V30 16679 H 1587.5 2.97868 -0.30248 0
M  V30 16680 H 1585.05 1.43249 -0.146914 0
M  V30 16681 H 1587 3.69449 2.02695 0
M  V30 16682 H 1585.72 2.45798 2.1506 0
M  V30 16683 H 1584.38 3.64627 0.379842 0
M  V30 16684 H 1584.03 4.1802 2.79765 0
M  V30 16685 H 1583.73 5.60339 1.769 0
M  V30 16686 H 1585.26 5.47995 2.69322 0
M  V30 16687 H 1586.67 5.71654 0.434137 0
M  V30 16688 H 1585.07 5.99314 -0.307126 0
M  V30 16689 H 1586.14 4.74923 -0.978557 0
M  V30 16690 N 1587.48 0.171848 1.5666 0
M  V30 16691 C 1588.44 -0.744316 2.16778 0
M  V30 16692 C 1589.44 -1.15769 1.11598 0
M  V30 16693 O 1590.63 -1.07456 1.37109 0
M  V30 16694 C 1587.76 -2.01319 2.75106 0
M  V30 16695 H 1588.96 -0.220952 2.99085 0
M  V30 16696 H 1586.51 -0.0777149 1.56107 0
M  V30 16697 H 1587.25 -2.57963 1.96534 0
M  V30 16698 H 1587.03 -1.72575 3.5208 0
M  V30 16699 H 1588.52 -2.667 3.21342 0
M  V30 16700 N 1588.96 -1.5727 -0.101874 0
M  V30 16701 C 1590.18 -1.90319 -0.824215 0
M  V30 16702 C 1590.61 -0.765469 -1.7182 0
M  V30 16703 O 1589.97 0.283275 -1.79073 0
M  V30 16704 C 1590.01 -3.22201 -1.61922 0
M  V30 16705 O 1589.12 -3.09313 -2.72762 0
M  V30 16706 H 1588.46 -0.624042 -0.226864 0
M  V30 16707 H 1590.99 -2.04447 -0.0791314 0
M  V30 16708 H 1591 -3.55343 -2.00487 0
M  V30 16709 H 1589.67 -4.04596 -0.963078 0
M  V30 16710 H 1588.25 -2.87672 -2.37274 0
M  V30 16711 N 1590.44 0.372521 -1.53134 0
M  V30 16712 C 1591.66 1.13668 -1.72879 0
M  V30 16713 C 1592.08 1.83246 -0.454588 0
M  V30 16714 O 1591.44 1.73302 0.572062 0
M  V30 16715 C 1591.49 2.17226 -2.88955 0
M  V30 16716 O 1591.21 1.50483 -4.11445 0
M  V30 16717 C 1592.71 3.06243 -3.20516 0
M  V30 16718 H 1589.93 0.340156 -0.57839 0
M  V30 16719 H 1592.47 0.433557 -1.99851 0
M  V30 16720 H 1590.63 2.83148 -2.64397 0
M  V30 16721 H 1591.04 2.19425 -4.76396 0
M  V30 16722 H 1592.52 3.74901 -4.05158 0
M  V30 16723 H 1592.99 3.70669 -2.35587 0
M  V30 16724 H 1593.6 2.45946 -3.46973 0
M  V30 16725 N 1591.91 1.44376 0.631925 0
M  V30 16726 C 1593.14 1.50598 1.41873 0
M  V30 16727 C 1593.56 0.130589 1.88348 0
M  V30 16728 O 1592.91 -0.86336 1.60787 0
M  V30 16729 C 1592.96 2.47 2.63957 0
M  V30 16730 O 1592.69 3.79192 2.1942 0
M  V30 16731 C 1594.19 2.62678 3.57092 0
M  V30 16732 H 1591.41 0.510792 0.435124 0
M  V30 16733 H 1593.95 1.89332 0.772893 0
M  V30 16734 H 1592.11 2.11404 3.24634 0
M  V30 16735 H 1592.52 4.31231 2.98563 0
M  V30 16736 H 1593.99 3.34161 4.39364 0
M  V30 16737 H 1594.47 1.67881 4.05848 0
M  V30 16738 H 1595.08 2.99172 3.02285 0
M  V30 16739 N 1593.39 -0.872258 1.31261 0
M  V30 16740 C 1594.34 -1.97926 1.18718 0
M  V30 16741 C 1595.31 -1.65937 0.0735242 0
M  V30 16742 O 1596.49 -1.89208 0.245979 0
M  V30 16743 C 1593.63 -3.33208 0.898117 0
M  V30 16744 C 1592.75 -3.77808 2.09488 0
M  V30 16745 C 1591.88 -5.01796 1.74281 0
M  V30 16746 C 1590.92 -5.38838 2.90379 0
M  V30 16747 N 1590.06 -6.54007 2.55382 0
M  V30 16748 H 1594.9 -2.07986 2.13415 0
M  V30 16749 H 1592.43 -1.01821 1.06165 0
M  V30 16750 H 1594.39 -4.11095 0.711089 0
M  V30 16751 H 1593.02 -3.22798 -0.0120097 0
M  V30 16752 H 1592.07 -2.95722 2.39276 0
M  V30 16753 H 1593.39 -4.01191 2.96391 0
M  V30 16754 H 1592.54 -5.87344 1.52027 0
M  V30 16755 H 1591.28 -4.80312 0.845665 0
M  V30 16756 H 1590.28 -4.51811 3.13284 0
M  V30 16757 H 1591.51 -5.62289 3.80799 0
M  V30 16758 H 1589.46 -6.34073 1.68188 0
M  V30 16759 H 1589.37 -6.77322 3.35814 0
M  V30 16760 H 1590.64 -7.42752 2.36516 0
M  V30 16761 N 1594.87 -1.14184 -1.08627 0
M  V30 16762 C 1596.11 -0.919016 -1.82575 0
M  V30 16763 C 1596.47 0.544729 -1.84111 0
M  V30 16764 O 1597.67 0.885417 -2.53799 0
M  V30 16765 C 1595.95 -1.50072 -3.24366 0
M  V30 16766 S 1597.5 -1.41914 -4.15218 0
M  V30 16767 H 1594.32 -0.331056 -0.629224 0
M  V30 16768 H 1596.92 -1.45491 -1.30586 0
M  V30 16769 H 1595.63 -2.55924 -3.20828 0
M  V30 16770 H 1595.16 -0.963129 -3.81428 0
M  V30 16771 H 1597.17 -0.403144 -4.9456 0
M  V30 16772 N 1596.35 1.26749 -0.936613 0
M  V30 16773 C 1597.57 1.98597 -0.597817 0
M  V30 16774 C 1598 1.69324 0.8192 0
M  V30 16775 O 1597.36 0.938634 1.55111 0
M  V30 16776 C 1597.4 3.50656 -0.841007 0
M  V30 16777 O 1596.51 4.12304 0.0891038 0
M  V30 16778 H 1595.85 0.623197 -0.229176 0
M  V30 16779 H 1598.38 1.61332 -1.2583 0
M  V30 16780 H 1598.39 4.00857 -0.760093 0
M  V30 16781 H 1597.06 3.71293 -1.87388 0
M  V30 16782 H 1595.64 3.72876 -0.0424804 0
M  V30 16783 N 1597.83 0.703118 1.41046 0
M  V30 16784 C 1599.05 0.245088 2.05947 0
M  V30 16785 C 1599.48 -1.09988 1.52592 0
M  V30 16786 O 1598.83 -1.69015 0.656023 0
M  V30 16787 C 1598.88 0.221444 3.59919 0
M  V30 16788 O 1597.99 -0.801324 4.0454 0
M  V30 16789 H 1597.33 0.117862 0.653456 0
M  V30 16790 H 1599.86 0.960099 1.80674 0
M  V30 16791 H 1599.87 0.0548681 4.07963 0
M  V30 16792 H 1598.54 1.20301 3.98121 0
M  V30 16793 H 1597.12 -0.603489 3.67984 0
M  V30 16794 N 1599.3 -1.51086 0.448402 0
M  V30 16795 C 1600.55 -2.02476 -0.114511 0
M  V30 16796 C 1600.88 -1.33126 -1.4139 0
M  V30 16797 O 1600.16 -0.449665 -1.89231 0
M  V30 16798 C 1600.44 -3.58659 -0.321842 0
M  V30 16799 C 1600.29 -4.38612 0.996975 0
M  V30 16800 C 1601.61 -4.26473 -1.08667 0
M  V30 16801 H 1598.73 -0.735906 -0.0401431 0
M  V30 16802 H 1601.37 -1.80622 0.589563 0
M  V30 16803 H 1599.52 -3.77411 -0.92157 0
M  V30 16804 H 1601.2 -4.31484 1.63154 0
M  V30 16805 H 1599.44 -4.03255 1.599 0
M  V30 16806 H 1600.11 -5.46087 0.805817 0
M  V30 16807 H 1602.59 -4.12058 -0.578559 0
M  V30 16808 H 1601.46 -5.35611 -1.20051 0
M  V30 16809 H 1601.72 -3.88086 -2.11758 0
M  V30 16810 N 1600.78 -0.180154 -1.56567 0
M  V30 16811 C 1601.73 0.746666 -2.18389 0
M  V30 16812 C 1602.7 1.22058 -1.12655 0
M  V30 16813 O 1603.88 1.28716 -1.40843 0
M  V30 16814 C 1601.02 1.96688 -2.83563 0
M  V30 16815 C 1600.14 1.53572 -4.03782 0
M  V30 16816 C 1599.27 2.71028 -4.56856 0
M  V30 16817 C 1598.31 2.24445 -5.69465 0
M  V30 16818 N 1597.45 3.35026 -6.17011 0
M  V30 16819 H 1602.29 0.212707 -2.9724 0
M  V30 16820 H 1599.83 0.093256 -1.46804 0
M  V30 16821 H 1601.78 2.68269 -3.19511 0
M  V30 16822 H 1600.41 2.4744 -2.073 0
M  V30 16823 H 1599.47 0.716323 -3.73595 0
M  V30 16824 H 1600.78 1.15385 -4.85271 0
M  V30 16825 H 1599.93 3.50753 -4.95032 0
M  V30 16826 H 1598.67 3.1248 -3.74443 0
M  V30 16827 H 1597.68 1.43169 -5.30832 0
M  V30 16828 H 1598.9 1.84041 -6.53686 0
M  V30 16829 H 1596.85 3.76037 -5.37524 0
M  V30 16830 H 1596.76 3.0096 -6.93512 0
M  V30 16831 H 1598.03 4.15009 -6.59839 0
M  V30 16832 N 1602.26 1.57322 0.0935319 0
M  V30 16833 C 1603.49 1.90099 0.80907 0
M  V30 16834 C 1603.9 0.772198 1.72724 0
M  V30 16835 O 1603.24 -0.26468 1.81783 0
M  V30 16836 C 1603.3 3.18144 1.67405 0
M  V30 16837 C 1602.97 4.47488 0.927539 0
M  V30 16838 C 1603.96 5.19266 0.256635 0
M  V30 16839 C 1601.65 4.9415 0.901156 0
M  V30 16840 C 1603.64 6.35943 -0.430665 0
M  V30 16841 C 1601.33 6.10739 0.21007 0
M  V30 16842 C 1602.33 6.81485 -0.454661 0
M  V30 16843 O 1602.02 7.95852 -1.13466 0
M  V30 16844 H 1601.75 0.633287 0.236481 0
M  V30 16845 H 1604.3 2.05264 0.0747132 0
M  V30 16846 H 1602.53 2.99129 2.45068 0
M  V30 16847 H 1604.22 3.3674 2.2663 0
M  V30 16848 H 1604.99 4.84256 0.268468 0
M  V30 16849 H 1600.87 4.38972 1.408 0
M  V30 16850 H 1604.41 6.911 -0.950082 0
M  V30 16851 H 1600.31 6.45202 0.196089 0
M  V30 16852 H 1601.08 8.11844 -1.04172 0
M  V30 16853 N 1603.74 -0.364395 1.53329 0
M  V30 16854 C 1605.02 -1.12265 1.60174 0
M  V30 16855 C 1605.4 -2.0708 0.410015 0
M  V30 16856 O 1604.74 -2.20492 -0.599631 0
M  V30 16857 C 1604.95 -1.86071 2.9526 0
M  V30 16858 C 1606.3 -2.40562 3.49879 0
M  V30 16859 O 1607.33 -1.96196 2.97297 0
M  V30 16860 O 1606.18 -3.2167 4.41804 0
M  V30 16861 H 1603.28 -0.515062 0.647024 0
M  V30 16862 H 1605.82 -0.367563 1.65672 0
M  V30 16863 H 1604.6 -1.1688 3.73436 0
M  V30 16864 H 1604.22 -2.68486 2.93259 0
M  V30 16865 N 1605.22 -1.44709 -0.62426 0
M  V30 16866 C 1606.46 -1.48072 -1.38573 0
M  V30 16867 C 1606.8 -0.115532 -1.93856 0
M  V30 16868 O 1606.07 0.867787 -1.74068 0
M  V30 16869 C 1606.35 -2.54662 -2.54596 0
M  V30 16870 C 1606.21 -4.00564 -2.04618 0
M  V30 16871 C 1607.53 -2.57689 -3.56769 0
M  V30 16872 H 1604.64 -0.539119 -0.502513 0
M  V30 16873 H 1607.29 -1.76427 -0.705225 0
M  V30 16874 H 1605.44 -2.30614 -3.12649 0
M  V30 16875 H 1607.11 -4.35767 -1.51343 0
M  V30 16876 H 1605.35 -4.12014 -1.35746 0
M  V30 16877 H 1606.02 -4.70804 -2.8818 0
M  V30 16878 H 1608.5 -2.79194 -3.08529 0
M  V30 16879 H 1607.37 -3.34161 -4.35462 0
M  V30 16880 H 1607.64 -1.62146 -4.11292 0
M  V30 16881 N 1606.69 0.865285 -1.31722 0
M  V30 16882 C 1607.6 2.00542 -1.21738 0
M  V30 16883 C 1608.62 1.7349 -0.133124 0
M  V30 16884 O 1609.8 1.98303 -0.351809 0
M  V30 16885 C 1606.86 3.33993 -0.930045 0
M  V30 16886 C 1605.92 3.74337 -2.10167 0
M  V30 16887 C 1605.16 5.0142 -1.82795 0
M  V30 16888 O 1605.38 5.65242 -0.765345 0
M  V30 16889 O 1604.31 5.38642 -2.68604 0
M  V30 16890 H 1608.14 2.11898 -2.17561 0
M  V30 16891 H 1605.72 0.994313 -1.11507 0
M  V30 16892 H 1607.61 4.14008 -0.785846 0
M  V30 16893 H 1606.28 3.237 -0.00188642 0
M  V30 16894 H 1605.19 2.94943 -2.3013 0
M  V30 16895 H 1606.52 3.89261 -3.01225 0
M  V30 16896 N 1608.17 1.14759 1.0802 0
M  V30 16897 C 1609.42 0.912823 1.79862 0
M  V30 16898 C 1609.73 -0.561873 1.87356 0
M  V30 16899 O 1610.94 -0.914015 2.55652 0
M  V30 16900 C 1609.4 1.58369 3.23183 0
M  V30 16901 C 1609 3.09493 3.23911 0
M  V30 16902 C 1610.75 1.43021 3.99682 0
M  V30 16903 C 1608.66 3.69398 4.61843 0
M  V30 16904 H 1607.59 0.337868 0.674063 0
M  V30 16905 H 1610.24 1.37695 1.21294 0
M  V30 16906 H 1608.62 1.04724 3.81902 0
M  V30 16907 H 1609.79 3.69838 2.74876 0
M  V30 16908 H 1608.11 3.24524 2.60908 0
M  V30 16909 H 1610.7 1.85174 5.01612 0
M  V30 16910 H 1611.05 0.376814 4.14591 0
M  V30 16911 H 1611.58 1.93724 3.47442 0
M  V30 16912 H 1608.32 4.74607 4.52138 0
M  V30 16913 H 1607.84 3.13835 5.11144 0
M  V30 16914 H 1609.52 3.69923 5.30816 0
M  V30 16915 N 1609.65 -1.26251 0.943322 0
M  V30 16916 C 1610.9 -1.93939 0.592909 0
M  V30 16917 C 1611.23 -1.73814 -0.866155 0
M  V30 16918 O 1610.5 -1.07645 -1.61997 0
M  V30 16919 C 1610.79 -3.47653 0.938601 0
M  V30 16920 C 1610.64 -3.77053 2.45257 0
M  V30 16921 C 1611.96 -4.37736 0.455546 0
M  V30 16922 H 1609.08 -0.704367 0.21688 0
M  V30 16923 H 1611.72 -1.4908 1.17793 0
M  V30 16924 H 1609.87 -3.85992 0.440756 0
M  V30 16925 H 1611.54 -3.48417 3.0233 0
M  V30 16926 H 1609.79 -3.23055 2.89513 0
M  V30 16927 H 1610.46 -4.84506 2.64495 0
M  V30 16928 H 1612.93 -4.06635 0.882435 0
M  V30 16929 H 1611.81 -5.44075 0.72623 0
M  V30 16930 H 1612.07 -4.37377 -0.644508 0
M  V30 16931 N 1611.13 -0.710588 -1.40671 0
M  V30 16932 C 1612.04 -0.0557164 -2.34534 0
M  V30 16933 C 1613.06 0.749387 -1.57036 0
M  V30 16934 O 1614.23 0.683493 -1.89447 0
M  V30 16935 C 1611.3 0.858583 -3.35901 0
M  V30 16936 C 1610.36 0.043995 -4.29277 0
M  V30 16937 C 1609.59 0.91475 -5.25802 0
M  V30 16938 O 1609.81 2.15407 -5.28163 0
M  V30 16939 O 1608.75 0.356407 -6.00844 0
M  V30 16940 H 1612.57 -0.829807 -2.92144 0
M  V30 16941 H 1610.16 -0.471028 -1.4178 0
M  V30 16942 H 1612.04 1.38244 -3.98079 0
M  V30 16943 H 1610.72 1.61191 -2.80712 0
M  V30 16944 H 1609.62 -0.524815 -3.704 0
M  V30 16945 H 1610.96 -0.670996 -4.87605 0
M  V30 16946 N 1612.61 1.50847 -0.456408 0
M  V30 16947 C 1613.52 2.31959 0.351027 0
M  V30 16948 C 1614.53 1.41697 1.00986 0
M  V30 16949 O 1615.71 1.7476 1.00105 0
M  V30 16950 C 1612.77 3.15973 1.42696 0
M  V30 16951 C 1611.84 4.22038 0.786272 0
M  V30 16952 C 1611.07 5.02036 1.81094 0
M  V30 16953 O 1611.29 4.82913 3.03564 0
M  V30 16954 O 1610.23 5.85609 1.3909 0
M  V30 16955 H 1614.05 3.02096 -0.311678 0
M  V30 16956 H 1611.64 1.47793 -0.218544 0
M  V30 16957 H 1613.52 3.68146 2.05053 0
M  V30 16958 H 1612.19 2.48579 2.0734 0
M  V30 16959 H 1611.1 3.73894 0.124148 0
M  V30 16960 H 1612.43 4.9186 0.183016 0
M  V30 16961 N 1614.09 0.188454 1.56469 0
M  V30 16962 C 1615.32 -0.457182 2.01478 0
M  V30 16963 C 1615.72 -1.5619 1.06777 0
M  V30 16964 O 1615.07 -1.8359 0.063659 0
M  V30 16965 C 1615.13 -1.08002 3.42893 0
M  V30 16966 C 1614.79 -0.114858 4.56856 0
M  V30 16967 C 1615.79 0.673269 5.15522 0
M  V30 16968 C 1613.47 -0.00570411 5.023 0
M  V30 16969 C 1615.47 1.55758 6.18076 0
M  V30 16970 C 1613.16 0.882173 6.04699 0
M  V30 16971 C 1614.15 1.66239 6.6246 0
M  V30 16972 O 1613.84 2.5354 7.62871 0
M  V30 16973 H 1613.57 -0.119784 0.665303 0
M  V30 16974 H 1616.13 0.292446 2.03307 0
M  V30 16975 H 1614.36 -1.87811 3.3803 0
M  V30 16976 H 1616.05 -1.62962 3.7175 0
M  V30 16977 H 1616.81 0.599207 4.81284 0
M  V30 16978 H 1612.69 -0.602804 4.57042 0
M  V30 16979 H 1616.24 2.16701 6.63088 0
M  V30 16980 H 1612.13 0.957375 6.38361 0
M  V30 16981 H 1612.9 2.47245 7.80264 0
M  V30 16982 N 1615.56 -1.5737 -0.0851874 0
M  V30 16983 C 1616.81 -1.86587 -0.786855 0
M  V30 16984 C 1617.14 -0.778357 -1.78247 0
M  V30 16985 O 1616.39 0.227053 -1.94378 0
M  V30 16986 C 1616.69 -3.22427 -1.54194 0
M  V30 16987 C 1616.36 -4.45627 -0.687542 0
M  V30 16988 C 1615.02 -4.79072 -0.452042 0
M  V30 16989 C 1617.37 -5.21115 -0.094224 0
M  V30 16990 C 1614.7 -5.85426 0.386477 0
M  V30 16991 C 1617.05 -6.28354 0.731673 0
M  V30 16992 C 1615.72 -6.60309 0.977172 0
M  V30 16993 H 1614.99 -0.682772 -0.28793 0
M  V30 16994 H 1617.63 -1.9144 -0.0480218 0
M  V30 16995 H 1615.94 -3.13304 -2.35261 0
M  V30 16996 H 1617.64 -3.42264 -2.08941 0
M  V30 16997 H 1614.23 -4.19443 -0.881212 0
M  V30 16998 H 1618.41 -4.95601 -0.263309 0
M  V30 16999 H 1613.67 -6.08589 0.58556 0
M  V30 17000 H 1617.84 -6.86014 1.19823 0
M  V30 17001 H 1615.47 -7.42548 1.6287 0
M  V30 17002 N 1617.04 0.356258 -1.53521 0
M  V30 17003 C 1618 1.41975 -1.79933 0
M  V30 17004 C 1619 1.46177 -0.669997 0
M  V30 17005 O 1620.19 1.46774 -0.938239 0
M  V30 17006 C 1617.33 2.81015 -1.92985 0
M  V30 17007 H 1618.52 1.19824 -2.74922 0
M  V30 17008 H 1616.07 0.589928 -1.4474 0
M  V30 17009 H 1616.81 3.08466 -1.00095 0
M  V30 17010 H 1616.59 2.79363 -2.75135 0
M  V30 17011 H 1618.08 3.58013 -2.1498 0
M  V30 17012 N 1618.52 1.45038 0.616577 0
M  V30 17013 C 1619.94 1.29246 0.936359 0
M  V30 17014 C 1620.14 0.238879 2.00079 0
M  V30 17015 O 1619.19 -0.370265 2.4977 0
M  V30 17016 C 1620.5 2.66863 1.38581 0
M  V30 17017 C 1622.05 2.74688 1.50051 0
M  V30 17018 C 1622.53 4.12809 1.98375 0
M  V30 17019 N 1624.02 4.15058 2.05623 0
M  V30 17020 C 1624.75 5.18793 2.44216 0
M  V30 17021 N 1624.25 6.3288 2.81843 0
M  V30 17022 N 1626.04 5.06149 2.44477 0
M  V30 17023 H 1618.19 2.12221 -0.0871304 0
M  V30 17024 H 1620.46 0.947705 0.0236659 0
M  V30 17025 H 1620.16 3.45105 0.677911 0
M  V30 17026 H 1620.04 2.94726 2.35407 0
M  V30 17027 H 1622.42 1.96756 2.19934 0
M  V30 17028 H 1622.5 2.50549 0.515631 0
M  V30 17029 H 1622.15 4.91223 1.29082 0
M  V30 17030 H 1622.08 4.34334 2.97761 0
M  V30 17031 H 1624.57 3.32726 1.79171 0
M  V30 17032 H 1624.88 7.07834 3.10147 0
M  V30 17033 H 1623.23 6.36295 2.7956 0
M  V30 17034 H 1626.42 4.16071 2.14482 0
M  V30 17035 H 1626.59 5.87114 2.74229 0
M  V30 17036 N 1620 -0.858287 1.32179 0
M  V30 17037 C 1620.93 -1.97304 1.16636 0
M  V30 17038 C 1621.94 -1.62478 0.102311 0
M  V30 17039 O 1623.13 -1.75016 0.350926 0
M  V30 17040 C 1620.23 -3.30215 0.762337 0
M  V30 17041 C 1619.4 -3.93305 1.9139 0
M  V30 17042 C 1618.46 -5.04545 1.49402 0
M  V30 17043 O 1617.49 -5.24735 2.20548 0
M  V30 17044 N 1618.69 -5.79202 0.387984 0
M  V30 17045 H 1621.46 -2.11179 2.12658 0
M  V30 17046 H 1619.02 -1.03294 1.24668 0
M  V30 17047 H 1621.01 -4.02032 0.463922 0
M  V30 17048 H 1619.58 -3.12418 -0.10662 0
M  V30 17049 H 1618.8 -3.1432 2.37901 0
M  V30 17050 H 1620.09 -4.32192 2.68492 0
M  V30 17051 H 1619.49 -5.65331 -0.204252 0
M  V30 17052 H 1618.04 -6.51629 0.149158 0
M  V30 17053 N 1621.48 -1.1533 -1.07409 0
M  V30 17054 C 1622.72 -0.922348 -1.79376 0
M  V30 17055 C 1623.04 0.551929 -1.87652 0
M  V30 17056 O 1624.24 0.900444 -2.56133 0
M  V30 17057 C 1622.7 -1.60081 -3.22339 0
M  V30 17058 C 1622.31 -3.11206 -3.22265 0
M  V30 17059 C 1624.05 -1.45138 -3.98917 0
M  V30 17060 C 1621.96 -3.71842 -4.59878 0
M  V30 17061 H 1620.89 -0.341438 -0.672262 0
M  V30 17062 H 1623.54 -1.38336 -1.20562 0
M  V30 17063 H 1621.92 -1.06748 -3.81341 0
M  V30 17064 H 1623.1 -3.7129 -2.72911 0
M  V30 17065 H 1621.41 -3.25903 -2.59183 0
M  V30 17066 H 1624.01 -1.87832 -5.00623 0
M  V30 17067 H 1624.35 -0.398796 -4.14385 0
M  V30 17068 H 1624.88 -1.95564 -3.46409 0
M  V30 17069 H 1621.62 -4.76998 -4.49614 0
M  V30 17070 H 1621.14 -3.16541 -5.09472 0
M  V30 17071 H 1622.82 -3.72733 -5.28847 0
M  V30 17072 N 1622.95 1.25748 -0.950004 0
M  V30 17073 C 1624.18 1.97952 -0.618848 0
M  V30 17074 C 1624.6 1.70184 0.801194 0
M  V30 17075 O 1623.96 0.955032 1.54107 0
M  V30 17076 C 1624.01 3.49744 -0.878151 0
M  V30 17077 O 1623.11 4.12375 0.0453685 0
M  V30 17078 H 1622.45 0.620731 -0.235773 0
M  V30 17079 H 1624.98 1.59988 -1.27534 0
M  V30 17080 H 1624.99 4.00029 -0.802567 0
M  V30 17081 H 1623.67 3.69285 -1.91315 0
M  V30 17082 H 1622.25 3.7281 -0.0820265 0
M  V30 17083 N 1624.43 0.718038 1.40292 0
M  V30 17084 C 1625.66 0.266918 2.05675 0
M  V30 17085 C 1626.08 -1.08364 1.53749 0
M  V30 17086 O 1625.44 -1.6831 0.673912 0
M  V30 17087 C 1625.49 0.259606 3.59664 0
M  V30 17088 O 1624.59 -0.758372 4.05367 0
M  V30 17089 H 1623.93 0.124786 0.652169 0
M  V30 17090 H 1626.46 0.979207 1.79646 0
M  V30 17091 H 1626.47 0.098135 4.07882 0
M  V30 17092 H 1625.15 1.24517 3.96823 0
M  V30 17093 H 1623.72 -0.564425 3.68604 0
M  V30 17094 N 1625.91 -1.50602 0.464402 0
M  V30 17095 C 1627.16 -2.02287 -0.0928919 0
M  V30 17096 C 1627.49 -1.34685 -1.40321 0
M  V30 17097 O 1626.74 -0.459304 -1.90234 0
M  V30 17098 C 1627.04 -3.55859 -0.331507 0
M  V30 17099 C 1626.71 -4.41902 0.896292 0
M  V30 17100 C 1625.37 -4.65137 1.23294 0
M  V30 17101 C 1627.72 -4.92208 1.71409 0
M  V30 17102 C 1625.05 -5.35922 2.38757 0
M  V30 17103 C 1627.4 -5.6426 2.85995 0
M  V30 17104 C 1626.06 -5.85751 3.20082 0
M  V30 17105 H 1625.33 -0.74022 -0.0339916 0
M  V30 17106 H 1627.98 -1.81284 0.61712 0
M  V30 17107 H 1626.29 -3.7534 -1.1237 0
M  V30 17108 H 1627.98 -3.93409 -0.776566 0
M  V30 17109 H 1624.57 -4.24033 0.624007 0
M  V30 17110 H 1628.76 -4.74117 1.46719 0
M  V30 17111 H 1624.01 -5.50769 2.65449 0
M  V30 17112 H 1628.19 -6.02223 3.49714 0
M  V30 17113 H 1625.81 -6.40377 4.09659 0
M  V30 17114 N 1627.39 -0.19675 -1.56367 0
M  V30 17115 C 1628.63 0.443732 -1.99525 0
M  V30 17116 C 1628.99 1.58685 -1.08088 0
M  V30 17117 O 1630.19 2.29164 -1.4049 0
M  V30 17118 C 1628.46 0.890565 -3.46127 0
M  V30 17119 S 1630.02 1.52865 -4.11312 0
M  V30 17120 H 1626.84 0.141834 -0.69671 0
M  V30 17121 H 1629.44 -0.300205 -1.93181 0
M  V30 17122 H 1628.15 0.0485587 -4.10371 0
M  V30 17123 H 1627.68 1.66793 -3.56292 0
M  V30 17124 H 1629.69 2.81743 -4.08455 0
M  V30 17125 N 1628.87 1.57413 0.0768405 0
M  V30 17126 C 1630.09 1.91607 0.793833 0
M  V30 17127 C 1630.52 0.792708 1.70581 0
M  V30 17128 O 1629.87 -0.25475 1.79501 0
M  V30 17129 C 1629.92 3.24736 1.56776 0
M  V30 17130 O 1629.03 3.13613 2.67807 0
M  V30 17131 H 1628.37 0.627572 0.216908 0
M  V30 17132 H 1630.9 2.04547 0.0465957 0
M  V30 17133 H 1630.91 3.58488 1.94809 0
M  V30 17134 H 1629.58 4.06077 0.898588 0
M  V30 17135 H 1628.16 2.91411 2.32668 0
M  V30 17136 N 1630.34 -0.348112 1.53707 0
M  V30 17137 C 1631.59 -1.08626 1.69951 0
M  V30 17138 C 1631.91 -1.89944 0.466992 0
M  V30 17139 O 1633.11 -2.66661 0.51029 0
M  V30 17140 C 1631.57 -1.98052 3.00505 0
M  V30 17141 C 1631.18 -1.21963 4.31079 0
M  V30 17142 C 1632.92 -2.71752 3.26115 0
M  V30 17143 C 1630.83 -2.10392 5.52711 0
M  V30 17144 H 1629.76 -0.409241 0.633275 0
M  V30 17145 H 1632.41 -0.346051 1.80207 0
M  V30 17146 H 1630.79 -2.75874 2.84094 0
M  V30 17147 H 1631.96 -0.490831 4.58178 0
M  V30 17148 H 1630.28 -0.600511 4.12047 0
M  V30 17149 H 1632.88 -3.38174 4.14177 0
M  V30 17150 H 1633.22 -3.38072 2.42926 0
M  V30 17151 H 1633.75 -2.01005 3.43281 0
M  V30 17152 H 1630.49 -1.48622 6.38429 0
M  V30 17153 H 1630.01 -2.81074 5.29866 0
M  V30 17154 H 1631.69 -2.69551 5.88176 0
M  V30 17155 N 1631.82 -1.45363 -0.608876 0
M  V30 17156 C 1633.1 -1.39787 -1.36817 0
M  V30 17157 C 1633.48 -0.067821 -2.10991 0
M  V30 17158 O 1632.83 0.950196 -2.07806 0
M  V30 17159 C 1633.04 -2.61073 -2.31608 0
M  V30 17160 C 1634.39 -3.06104 -2.94254 0
M  V30 17161 O 1635.41 -2.61436 -2.41929 0
M  V30 17162 O 1634.27 -3.83616 -3.89231 0
M  V30 17163 H 1631.36 -0.554657 -0.61342 0
M  V30 17164 H 1633.91 -1.57489 -0.632073 0
M  V30 17165 H 1632.68 -3.4946 -1.76049 0
M  V30 17166 H 1632.3 -2.45697 -3.126 0
M  V30 17167 N 1633.3 0.851265 -1.32632 0
M  V30 17168 C 1634.54 1.61951 -1.24705 0
M  V30 17169 C 1634.9 1.91082 0.187497 0
M  V30 17170 O 1636.11 2.65948 0.390552 0
M  V30 17171 C 1634.38 2.90216 -2.08589 0
M  V30 17172 S 1635.94 3.80976 -2.17722 0
M  V30 17173 H 1632.75 0.555443 -0.443852 0
M  V30 17174 H 1635.36 1.00783 -1.6752 0
M  V30 17175 H 1634.06 2.66767 -3.11871 0
M  V30 17176 H 1633.59 3.56399 -1.66564 0
M  V30 17177 H 1635.61 4.78065 -1.32921 0
M  V30 17178 N 1634.78 1.15898 1.06796 0
M  V30 17179 C 1636.01 0.961372 1.83208 0
M  V30 17180 C 1636.42 -0.490392 1.8232 0
M  V30 17181 O 1635.78 -1.34025 1.2387 0
M  V30 17182 C 1635.83 1.47486 3.30045 0
M  V30 17183 O 1635.55 2.86976 3.31023 0
M  V30 17184 C 1637.05 1.31955 4.23205 0
M  V30 17185 H 1634.27 0.34109 0.57784 0
M  V30 17186 H 1636.82 1.53805 1.34775 0
M  V30 17187 H 1634.97 0.940586 3.75808 0
M  V30 17188 H 1635.38 3.1038 4.22805 0
M  V30 17189 H 1636.86 1.72721 5.24282 0
M  V30 17190 H 1637.34 0.264439 4.38403 0
M  V30 17191 H 1637.94 1.84319 3.83284 0
M  V30 17192 N 1636.26 -1.25243 0.956659 0
M  V30 17193 C 1637.48 -1.97082 0.629791 0
M  V30 17194 C 1637.9 -1.71082 -0.798529 0
M  V30 17195 O 1637.26 -0.98805 -1.5344 0
M  V30 17196 C 1637.31 -3.5059 0.881406 0
M  V30 17197 O 1637.03 -3.75694 2.25356 0
M  V30 17198 C 1638.53 -4.39656 0.567203 0
M  V30 17199 H 1635.75 -0.628152 0.235938 0
M  V30 17200 H 1638.29 -1.5936 1.28159 0
M  V30 17201 H 1636.45 -3.86416 0.27599 0
M  V30 17202 H 1636.86 -4.70142 2.32523 0
M  V30 17203 H 1638.34 -5.46263 0.793785 0
M  V30 17204 H 1638.81 -4.36364 -0.498287 0
M  V30 17205 H 1639.42 -4.094 1.15203 0
M  V30 17206 N 1637.73 -0.725468 -1.3991 0
M  V30 17207 C 1638.98 -0.266188 -1.99936 0
M  V30 17208 C 1639.3 1.15022 -1.58207 0
M  V30 17209 O 1640.5 1.70853 -2.11001 0
M  V30 17210 C 1638.96 -0.424978 -3.57382 0
M  V30 17211 C 1638.57 -1.84866 -4.08079 0
M  V30 17212 C 1640.31 -0.0269907 -4.24491 0
M  V30 17213 C 1638.22 -1.95751 -5.58064 0
M  V30 17214 H 1637.15 -0.0957688 -0.747893 0
M  V30 17215 H 1639.8 -0.89798 -1.60027 0
M  V30 17216 H 1638.18 0.275558 -3.9504 0
M  V30 17217 H 1639.35 -2.58037 -3.81776 0
M  V30 17218 H 1637.67 -2.199 -3.536 0
M  V30 17219 H 1640.27 -0.0874638 -5.34628 0
M  V30 17220 H 1640.61 1.01639 -4.03702 0
M  V30 17221 H 1641.14 -0.678332 -3.91974 0
M  V30 17222 H 1637.88 -2.98244 -5.83721 0
M  V30 17223 H 1637.4 -1.27004 -5.862 0
M  V30 17224 H 1639.08 -1.73422 -6.23325 0
M  V30 17225 N 1639.21 1.50354 -0.472382 0
M  V30 17226 C 1640.14 2.3142 0.310995 0
M  V30 17227 C 1641.12 1.38383 0.989151 0
M  V30 17228 O 1642.31 1.67303 0.986074 0
M  V30 17229 C 1639.44 3.18157 1.3926 0
M  V30 17230 C 1638.39 4.19756 0.835977 0
M  V30 17231 C 1637.72 4.9524 2.01597 0
M  V30 17232 C 1639.02 5.22074 -0.15361 0
M  V30 17233 H 1640.71 2.97159 -0.365595 0
M  V30 17234 H 1638.26 1.42905 -0.177266 0
M  V30 17235 H 1640.21 3.73666 1.94813 0
M  V30 17236 H 1638.94 2.50305 2.09798 0
M  V30 17237 H 1637.59 3.65351 0.302414 0
M  V30 17238 H 1637.24 4.2386 2.70836 0
M  V30 17239 H 1636.94 5.63966 1.64974 0
M  V30 17240 H 1638.47 5.53584 2.57637 0
M  V30 17241 H 1639.88 5.72446 0.312783 0
M  V30 17242 H 1638.28 5.98527 -0.43418 0
M  V30 17243 H 1639.35 4.72741 -1.07908 0
M  V30 17244 N 1640.69 0.205039 1.56261 0
M  V30 17245 C 1641.62 -0.743854 2.16794 0
M  V30 17246 C 1642.64 -1.16959 1.13245 0
M  V30 17247 O 1643.83 -1.1036 1.40296 0
M  V30 17248 C 1640.93 -2.01717 2.7233 0
M  V30 17249 C 1640.1 -1.74965 4.00882 0
M  V30 17250 C 1639.16 -2.86841 4.41145 0
M  V30 17251 O 1638.18 -2.5602 5.08372 0
M  V30 17252 N 1639.39 -4.15425 4.05466 0
M  V30 17253 H 1642.15 -0.226145 2.98846 0
M  V30 17254 H 1639.71 0.0234276 1.61883 0
M  V30 17255 H 1641.7 -2.7572 2.96244 0
M  V30 17256 H 1640.27 -2.44582 1.94675 0
M  V30 17257 H 1639.49 -0.846903 3.84995 0
M  V30 17258 H 1640.78 -1.54501 4.84775 0
M  V30 17259 H 1640.18 -4.43314 3.5141 0
M  V30 17260 H 1638.74 -4.86023 4.3431 0
M  V30 17261 N 1642.17 -1.57451 -0.0684915 0
M  V30 17262 C 1643.1 -2.06954 -1.0813 0
M  V30 17263 C 1644.08 -0.963716 -1.40166 0
M  V30 17264 O 1645.27 -1.23664 -1.49736 0
M  V30 17265 C 1642.4 -2.51622 -2.39381 0
M  V30 17266 C 1641.35 -3.66111 -2.2169 0
M  V30 17267 C 1640.68 -3.96846 -3.58354 0
M  V30 17268 C 1641.98 -4.96036 -1.63541 0
M  V30 17269 H 1643.67 -2.91822 -0.66936 0
M  V30 17270 H 1641.22 -1.40387 -0.320533 0
M  V30 17271 H 1643.17 -2.84867 -3.1053 0
M  V30 17272 H 1641.89 -1.63788 -2.82562 0
M  V30 17273 H 1640.55 -3.33155 -1.52982 0
M  V30 17274 H 1640.2 -3.06137 -3.9911 0
M  V30 17275 H 1639.9 -4.73939 -3.47354 0
M  V30 17276 H 1641.42 -4.3259 -4.30927 0
M  V30 17277 H 1642.84 -5.27491 -2.24559 0
M  V30 17278 H 1641.23 -5.77474 -1.63228 0
M  V30 17279 H 1642.3 -4.81208 -0.597199 0
M  V30 17280 N 1643.65 0.339955 -1.5389 0
M  V30 17281 C 1644.6 1.41838 -1.78511 0
M  V30 17282 C 1645.58 1.47604 -0.640447 0
M  V30 17283 O 1646.77 1.52414 -0.899951 0
M  V30 17284 C 1643.9 2.78929 -2.00134 0
M  V30 17285 C 1642.99 2.7754 -3.20675 0
M  V30 17286 N 1643.38 2.45779 -4.42071 0
M  V30 17287 C 1641.68 3.08684 -3.21917 0
M  V30 17288 C 1642.38 2.52714 -5.23938 0
M  V30 17289 N 1641.35 2.88484 -4.60736 0
M  V30 17290 H 1645.16 1.16185 -2.6996 0
M  V30 17291 H 1642.67 0.548339 -1.52863 0
M  V30 17292 H 1644.67 3.56637 -2.15907 0
M  V30 17293 H 1643.33 3.05525 -1.09929 0
M  V30 17294 H 1644.34 2.18913 -4.69358 0
M  V30 17295 H 1641.02 3.40429 -2.41691 0
M  V30 17296 H 1642.41 2.31287 -6.30838 0
M  V30 17297 N 1645.13 1.45684 0.601159 0
M  V30 17298 C 1646.04 1.57396 1.73965 0
M  V30 17299 C 1647.05 0.458133 1.6786 0
M  V30 17300 O 1648.23 0.719717 1.88101 0
M  V30 17301 C 1645.29 1.54363 3.1044 0
M  V30 17302 C 1644.35 2.77034 3.27949 0
M  V30 17303 C 1643.59 2.74136 4.57914 0
M  V30 17304 O 1643.81 1.81829 5.40643 0
M  V30 17305 O 1642.74 3.65428 4.78274 0
M  V30 17306 H 1646.57 2.5364 1.67034 0
M  V30 17307 H 1644.15 1.28267 0.766017 0
M  V30 17308 H 1646.04 1.55302 3.91739 0
M  V30 17309 H 1644.71 0.612723 3.17848 0
M  V30 17310 H 1643.62 2.81655 2.46214 0
M  V30 17311 H 1644.95 3.69272 3.25422 0
M  V30 17312 N 1646.6 -0.84422 1.33082 0
M  V30 17313 C 1647.85 -1.59404 1.23585 0
M  V30 17314 C 1648.17 -1.94593 -0.198208 0
M  V30 17315 O 1649.37 -2.68307 -0.415138 0
M  V30 17316 C 1647.83 -2.87489 2.16513 0
M  V30 17317 C 1647.44 -2.59685 3.65059 0
M  V30 17318 C 1649.18 -3.6551 2.15877 0
M  V30 17319 C 1647.09 -3.83834 4.49917 0
M  V30 17320 H 1646.02 -0.598191 0.459003 0
M  V30 17321 H 1648.67 -0.931299 1.58111 0
M  V30 17322 H 1647.05 -3.55276 1.74913 0
M  V30 17323 H 1648.22 -2.00143 4.15065 0
M  V30 17324 H 1646.54 -1.94977 3.6793 0
M  V30 17325 H 1649.14 -4.57654 2.76509 0
M  V30 17326 H 1649.48 -4.00031 1.15244 0
M  V30 17327 H 1650.01 -3.0464 2.55811 0
M  V30 17328 H 1646.75 -3.54448 5.51404 0
M  V30 17329 H 1646.27 -4.42734 4.04656 0
M  V30 17330 H 1647.95 -4.51468 4.63449 0
M  V30 17331 N 1648.08 -1.16463 -1.0618 0
M  V30 17332 C 1649.49 -0.95436 -1.60465 0
M  V30 17333 C 1649.84 0.501455 -1.89684 0
M  V30 17334 O 1648.97 1.37488 -1.67111 0
M  V30 17335 C 1649.56 -1.72603 -2.91537 0
M  V30 17336 C 1648.12 -1.56071 -3.42518 0
M  V30 17337 C 1647.27 -1.73403 -2.16395 0
M  V30 17338 H 1650.22 -1.31316 -0.891166 0
M  V30 17339 H 1650.24 -1.20252 -3.60998 0
M  V30 17340 H 1649.75 -2.78554 -2.70239 0
M  V30 17341 H 1647.85 -0.525652 -3.68874 0
M  V30 17342 H 1647.97 -2.34533 -4.17769 0
M  V30 17343 H 1646.33 -1.16155 -2.26672 0
M  V30 17344 H 1647.11 -2.80745 -1.97578 0
M  V30 17345 N 1649.56 1.24734 -0.963288 0
M  V30 17346 C 1650.78 1.97285 -0.639808 0
M  V30 17347 C 1651.21 1.71024 0.783099 0
M  V30 17348 O 1650.57 0.971324 1.53085 0
M  V30 17349 C 1650.62 3.48793 -0.915197 0
M  V30 17350 O 1649.72 4.124 0.00162805 0
M  V30 17351 H 1649.06 0.618196 -0.242343 0
M  V30 17352 H 1651.59 1.58627 -1.29224 0
M  V30 17353 H 1651.6 3.99155 -0.84495 0
M  V30 17354 H 1650.28 3.67235 -1.95221 0
M  V30 17355 H 1648.85 3.72702 -0.121563 0
M  V30 17356 N 1651.04 0.732878 1.39523 0
M  V30 17357 C 1651.97 0.106583 2.33257 0
M  V30 17358 C 1652.95 -0.726582 1.53801 0
M  V30 17359 O 1654.13 -0.671994 1.82203 0
M  V30 17360 C 1651.26 -0.803051 3.37888 0
M  V30 17361 C 1650.22 -0.0742048 4.27936 0
M  V30 17362 C 1649.54 -1.10071 5.23248 0
M  V30 17363 C 1650.84 1.08195 5.10971 0
M  V30 17364 H 1652.54 0.889539 2.8588 0
M  V30 17365 H 1650.08 0.429209 1.37455 0
M  V30 17366 H 1652.04 -1.25071 4.02412 0
M  V30 17367 H 1650.76 -1.6181 2.83699 0
M  V30 17368 H 1649.42 0.35381 3.64889 0
M  V30 17369 H 1649.07 -1.90927 4.65356 0
M  V30 17370 H 1648.77 -0.617825 5.84343 0
M  V30 17371 H 1650.29 -1.54812 5.90649 0
M  V30 17372 H 1651.71 0.712835 5.68851 0
M  V30 17373 H 1650.1 1.49433 5.81197 0
M  V30 17374 H 1651.17 1.90463 4.45928 0
M  V30 17375 N 1652.52 -1.50101 0.480349 0
M  V30 17376 C 1653.45 -2.26582 -0.345418 0
M  V30 17377 C 1654.46 -1.32283 -0.948947 0
M  V30 17378 O 1655.65 -1.57724 -0.835784 0
M  V30 17379 C 1652.75 -3.0393 -1.49932 0
M  V30 17380 C 1651.92 -4.25653 -1.00689 0
M  V30 17381 C 1650.98 -4.85217 -2.03594 0
M  V30 17382 O 1650.01 -5.45873 -1.61281 0
M  V30 17383 N 1651.21 -4.73035 -3.36479 0
M  V30 17384 H 1653.97 -2.98089 0.310285 0
M  V30 17385 H 1651.54 -1.58872 0.311671 0
M  V30 17386 H 1653.53 -3.40656 -2.18485 0
M  V30 17387 H 1652.1 -2.35162 -2.05955 0
M  V30 17388 H 1651.32 -3.93926 -0.146932 0
M  V30 17389 H 1652.61 -5.04554 -0.655957 0
M  V30 17390 H 1652 -4.24818 -3.73559 0
M  V30 17391 H 1650.56 -5.14004 -4.00804 0
M  V30 17392 N 1653.99 -0.213323 -1.5615 0
M  V30 17393 C 1655.22 0.428746 -2.0292 0
M  V30 17394 C 1655.64 1.53137 -1.09227 0
M  V30 17395 O 1655 1.81128 -0.0789684 0
M  V30 17396 C 1655.05 0.945231 -3.47991 0
M  V30 17397 O 1654.15 2.05709 -3.57432 0
M  V30 17398 H 1653.49 0.0980619 -0.656719 0
M  V30 17399 H 1656.02 -0.329548 -2.01929 0
M  V30 17400 H 1656.03 1.25717 -3.88149 0
M  V30 17401 H 1654.71 0.138161 -4.1567 0
M  V30 17402 H 1653.29 1.75242 -3.29158 0
M  V30 17403 N 1655.47 1.57485 0.0601405 0
M  V30 17404 C 1656.72 1.86998 0.75595 0
M  V30 17405 C 1657.03 0.807616 1.78149 0
M  V30 17406 O 1658.24 0.99096 2.52769 0
M  V30 17407 C 1656.7 3.31746 1.39545 0
M  V30 17408 C 1656.3 4.46139 0.407874 0
M  V30 17409 C 1658.05 3.70445 2.07294 0
M  V30 17410 C 1655.96 5.81933 1.05395 0
M  V30 17411 H 1654.89 0.697619 0.286083 0
M  V30 17412 H 1657.54 1.83498 0.00948593 0
M  V30 17413 H 1655.92 3.29894 2.19057 0
M  V30 17414 H 1657.09 4.59405 -0.358281 0
M  V30 17415 H 1655.41 4.1607 -0.16581 0
M  V30 17416 H 1658 4.692 2.56428 0
M  V30 17417 H 1658.35 3.00839 2.87753 0
M  V30 17418 H 1658.88 3.74337 1.34598 0
M  V30 17419 H 1655.62 6.54861 0.289437 0
M  V30 17420 H 1655.14 5.72446 1.79068 0
M  V30 17421 H 1656.82 6.27652 1.5704 0
M  V30 17422 N 1656.95 -0.331789 1.54068 0
M  V30 17423 C 1658.18 -1.08886 1.75577 0
M  V30 17424 C 1658.59 -1.82462 0.50043 0
M  V30 17425 O 1657.93 -1.7564 -0.53816 0
M  V30 17426 C 1657.99 -2.13858 2.88972 0
M  V30 17427 C 1657.66 -1.59754 4.28168 0
M  V30 17428 C 1658.65 -1.04365 5.09317 0
M  V30 17429 C 1656.34 -1.64245 4.74688 0
M  V30 17430 C 1658.33 -0.541856 6.35093 0
M  V30 17431 C 1656.02 -1.13679 6.00433 0
M  V30 17432 C 1657.02 -0.587426 6.80469 0
M  V30 17433 O 1656.71 -0.0893367 8.0385 0
M  V30 17434 H 1656.44 -0.330075 0.589938 0
M  V30 17435 H 1658.99 -0.386127 2.01738 0
M  V30 17436 H 1657.22 -2.87724 2.58363 0
M  V30 17437 H 1658.91 -2.75223 2.98341 0
M  V30 17438 H 1659.68 -1.00208 4.74535 0
M  V30 17439 H 1655.56 -2.05945 4.12441 0
M  V30 17440 H 1659.1 -0.1124 6.97509 0
M  V30 17441 H 1655 -1.1754 6.34708 0
M  V30 17442 H 1655.77 -0.205529 8.18242 0
M  V30 17443 N 1658.43 -1.46001 -0.593424 0
M  V30 17444 C 1659.66 -1.54307 -1.3783 0
M  V30 17445 C 1660.07 -0.18048 -1.87935 0
M  V30 17446 O 1659.43 0.820427 -1.63019 0
M  V30 17447 C 1659.48 -2.53911 -2.57316 0
M  V30 17448 O 1659.2 -3.84876 -2.09289 0
M  V30 17449 C 1660.7 -2.72054 -3.50002 0
M  V30 17450 H 1657.92 -0.522149 -0.421428 0
M  V30 17451 H 1660.47 -1.91315 -0.722423 0
M  V30 17452 H 1658.62 -2.19937 -3.18915 0
M  V30 17453 H 1659.03 -4.38996 -2.87025 0
M  V30 17454 H 1660.51 -3.45692 -4.3035 0
M  V30 17455 H 1660.99 -1.78583 -4.01254 0
M  V30 17456 H 1661.59 -3.07082 -2.94246 0
M  V30 17457 N 1659.91 0.83715 -1.33527 0
M  V30 17458 C 1660.84 1.96231 -1.26553 0
M  V30 17459 C 1661.82 1.69474 -0.14576 0
M  V30 17460 O 1663 1.91274 -0.335815 0
M  V30 17461 C 1660.13 3.32419 -1.00574 0
M  V30 17462 C 1659.09 3.73577 -2.08864 0
M  V30 17463 C 1658.41 5.07591 -1.68095 0
M  V30 17464 C 1659.71 3.87179 -3.50556 0
M  V30 17465 H 1661.41 2.02324 -2.20693 0
M  V30 17466 H 1658.95 0.972038 -1.06242 0
M  V30 17467 H 1660.91 4.10703 -0.943439 0
M  V30 17468 H 1659.63 3.26587 -0.0287268 0
M  V30 17469 H 1658.29 2.97557 -2.14139 0
M  V30 17470 H 1657.94 4.98232 -0.690922 0
M  V30 17471 H 1657.64 5.361 -2.40563 0
M  V30 17472 H 1659.16 5.88349 -1.63334 0
M  V30 17473 H 1660.57 4.55771 -3.47772 0
M  V30 17474 H 1658.97 4.27127 -4.21524 0
M  V30 17475 H 1660.04 2.8958 -3.88936 0
M  V30 17476 N 1661.38 1.17024 1.05561 0
M  V30 17477 C 1662.66 0.86635 1.75367 0
M  V30 17478 C 1663.04 -0.634217 2.01348 0
M  V30 17479 O 1662.39 -1.58434 1.64654 0
M  V30 17480 C 1662.6 1.69719 3.04953 0
M  V30 17481 C 1663.95 1.91482 3.78972 0
M  V30 17482 O 1664.97 1.66647 3.14813 0
M  V30 17483 O 1663.83 2.33197 4.94248 0
M  V30 17484 H 1660.92 0.320412 0.762407 0
M  V30 17485 H 1663.47 1.277 1.11763 0
M  V30 17486 H 1662.24 2.71512 2.81775 0
M  V30 17487 H 1661.87 1.28408 3.76294 0
M  V30 17488 N 1662.86 -1.24221 0.969889 0
M  V30 17489 C 1663.83 -2.23529 0.506686 0
M  V30 17490 C 1664.83 -1.55797 -0.397968 0
M  V30 17491 O 1666.02 -1.73126 -0.193124 0
M  V30 17492 C 1663.15 -3.39861 -0.265943 0
M  V30 17493 H 1664.34 -2.66022 1.38463 0
M  V30 17494 H 1661.89 -1.36872 0.754698 0
M  V30 17495 H 1662.63 -3.0281 -1.16089 0
M  V30 17496 H 1662.41 -3.90222 0.383286 0
M  V30 17497 H 1663.9 -4.13567 -0.578975 0
M  V30 17498 N 1664.34 -0.740267 -1.39132 0
M  V30 17499 C 1665.3 -0.112183 -2.28925 0
M  V30 17500 C 1666.3 0.661598 -1.46559 0
M  V30 17501 O 1667.49 0.489835 -1.67171 0
M  V30 17502 C 1664.63 0.850121 -3.3013 0
M  V30 17503 H 1665.82 -0.903339 -2.85972 0
M  V30 17504 H 1663.37 -0.506427 -1.47868 0
M  V30 17505 H 1664.11 1.66744 -2.78149 0
M  V30 17506 H 1663.89 0.297847 -3.90967 0
M  V30 17507 H 1665.38 1.28599 -3.97306 0
M  V30 17508 N 1665.82 1.49844 -0.488302 0
M  V30 17509 C 1667.07 2.01603 0.0624744 0
M  V30 17510 C 1667.38 1.37397 1.39217 0
M  V30 17511 O 1668.59 1.8041 2.0289 0
M  V30 17512 C 1667.04 3.59536 0.161824 0
M  V30 17513 C 1666.65 4.32709 -1.16047 0
M  V30 17514 C 1668.39 4.1928 0.663642 0
M  V30 17515 C 1666.3 5.82468 -1.02397 0
M  V30 17516 H 1665.23 0.753512 0.0271222 0
M  V30 17517 H 1667.88 1.72499 -0.625805 0
M  V30 17518 H 1666.26 3.85301 0.914273 0
M  V30 17519 H 1667.44 4.18655 -1.92522 0
M  V30 17520 H 1665.75 3.84652 -1.59473 0
M  V30 17521 H 1668.35 5.28935 0.783069 0
M  V30 17522 H 1668.69 3.81801 1.65933 0
M  V30 17523 H 1669.23 3.97787 -0.0319078 0
M  V30 17524 H 1665.97 6.2445 -1.99355 0
M  V30 17525 H 1665.49 5.9905 -0.299902 0
M  V30 17526 H 1667.16 6.43229 -0.697538 0
M  V30 17527 N 1667.3 0.221601 1.56034 0
M  V30 17528 C 1668.52 -0.417979 2.03145 0
M  V30 17529 C 1668.95 -1.52556 1.10038 0
M  V30 17530 O 1668.3 -1.81084 0.0885729 0
M  V30 17531 C 1668.35 -0.926762 3.48487 0
M  V30 17532 O 1667.46 -2.03811 3.58518 0
M  V30 17533 H 1666.8 -0.0945778 0.65723 0
M  V30 17534 H 1669.33 0.340252 2.01751 0
M  V30 17535 H 1669.34 -1.23656 3.8881 0
M  V30 17536 H 1668.01 -0.116115 4.15738 0
M  V30 17537 H 1666.59 -1.73494 3.30082 0
M  V30 17538 N 1668.77 -1.57515 -0.0517878 0
M  V30 17539 C 1669.72 -2.05051 -1.05937 0
M  V30 17540 C 1670.69 -0.935032 -1.37282 0
M  V30 17541 O 1671.88 -1.20408 -1.48009 0
M  V30 17542 C 1669.02 -2.51594 -2.36208 0
M  V30 17543 C 1668.13 -3.76843 -2.11219 0
M  V30 17544 C 1667.26 -4.12088 -3.35197 0
M  V30 17545 C 1666.3 -5.30318 -3.05662 0
M  V30 17546 N 1665.44 -5.61104 -4.22026 0
M  V30 17547 H 1670.28 -2.90891 -0.647027 0
M  V30 17548 H 1667.82 -1.43842 -0.307891 0
M  V30 17549 H 1669.78 -2.76638 -3.12293 0
M  V30 17550 H 1668.41 -1.68704 -2.75207 0
M  V30 17551 H 1667.46 -3.5902 -1.25734 0
M  V30 17552 H 1668.77 -4.63057 -1.85416 0
M  V30 17553 H 1667.92 -4.38139 -4.19666 0
M  V30 17554 H 1666.66 -3.24479 -3.64094 0
M  V30 17555 H 1665.67 -5.04043 -2.19592 0
M  V30 17556 H 1666.89 -6.19561 -2.78067 0
M  V30 17557 H 1664.84 -4.76456 -4.50917 0
M  V30 17558 H 1664.76 -6.4178 -3.99568 0
M  V30 17559 H 1666.02 -5.91719 -5.07434 0
M  V30 17560 N 1670.25 0.323614 -1.54242 0
M  V30 17561 C 1671.5 1.06314 -1.727 0
M  V30 17562 C 1671.83 1.87674 -0.499225 0
M  V30 17563 O 1671.11 1.87862 0.503805 0
M  V30 17564 C 1671.39 1.9879 -3.00258 0
M  V30 17565 C 1671.24 1.2076 -4.33286 0
M  V30 17566 C 1672.56 2.98314 -3.23569 0
M  V30 17567 H 1669.68 0.385101 -0.628384 0
M  V30 17568 H 1672.32 0.339801 -1.86937 0
M  V30 17569 H 1670.47 2.60468 -2.88251 0
M  V30 17570 H 1672.15 0.615425 -4.57176 0
M  V30 17571 H 1670.39 0.509878 -4.30793 0
M  V30 17572 H 1671.06 1.88662 -5.18759 0
M  V30 17573 H 1673.54 2.46757 -3.35037 0
M  V30 17574 H 1672.41 3.60204 -4.14179 0
M  V30 17575 H 1672.67 3.7077 -2.40795 0
M  V30 17576 N 1671.73 1.46313 0.585673 0
M  V30 17577 C 1672.66 1.52683 1.7094 0
M  V30 17578 C 1673.68 0.415447 1.5741 0
M  V30 17579 O 1674.87 0.683657 1.64889 0
M  V30 17580 C 1671.97 1.38822 3.09163 0
M  V30 17581 C 1671.14 2.64027 3.48724 0
M  V30 17582 C 1670.2 2.44407 4.65995 0
M  V30 17583 O 1669.22 3.18118 4.72006 0
M  V30 17584 N 1670.43 1.50381 5.60683 0
M  V30 17585 H 1673.19 2.49573 1.65932 0
M  V30 17586 H 1670.75 1.42332 0.771573 0
M  V30 17587 H 1672.74 1.23474 3.85404 0
M  V30 17588 H 1671.31 0.501247 3.08555 0
M  V30 17589 H 1670.53 2.94338 2.62219 0
M  V30 17590 H 1671.82 3.47206 3.71921 0
M  V30 17591 H 1671.22 0.895917 5.5856 0
M  V30 17592 H 1669.78 1.40997 6.36367 0
M  V30 17593 N 1673.21 -0.830057 1.33969 0
M  V30 17594 C 1674.46 -1.58821 1.26111 0
M  V30 17595 C 1674.79 -1.9345 -0.170484 0
M  V30 17596 O 1674.06 -1.59433 -1.11407 0
M  V30 17597 C 1674.35 -2.89243 2.14501 0
M  V30 17598 C 1674.2 -2.61239 3.66162 0
M  V30 17599 C 1675.52 -3.90752 2.02487 0
M  V30 17600 H 1672.64 -0.576255 0.459455 0
M  V30 17601 H 1675.28 -0.956736 1.64154 0
M  V30 17602 H 1673.43 -3.43133 1.82186 0
M  V30 17603 H 1675.1 -2.13713 4.08809 0
M  V30 17604 H 1673.34 -1.94796 3.87604 0
M  V30 17605 H 1674.02 -3.54212 4.23365 0
M  V30 17606 H 1676.49 -3.46194 2.30844 0
M  V30 17607 H 1675.37 -4.79825 2.6657 0
M  V30 17608 H 1675.63 -4.30649 0.999704 0
M  V30 17609 N 1674.69 -1.17582 -1.04939 0
M  V30 17610 C 1675.91 -0.99097 -1.82194 0
M  V30 17611 C 1676.34 0.455965 -1.8249 0
M  V30 17612 O 1675.7 1.32661 -1.23575 0
M  V30 17613 C 1675.74 -1.53971 -3.26076 0
M  V30 17614 O 1674.85 -0.755172 -4.05427 0
M  V30 17615 H 1674.19 -0.351669 -0.563227 0
M  V30 17616 H 1676.72 -1.56138 -1.3222 0
M  V30 17617 H 1676.73 -1.56307 -3.76872 0
M  V30 17618 H 1675.4 -2.59295 -3.25175 0
M  V30 17619 H 1673.98 -0.803423 -3.64142 0
M  V30 17620 N 1676.17 1.23705 -0.976463 0
M  V30 17621 C 1677.1 2.2734 -0.532809 0
M  V30 17622 C 1678.08 1.64523 0.432012 0
M  V30 17623 O 1679.26 1.9144 0.326233 0
M  V30 17624 C 1676.39 3.46887 0.169374 0
M  V30 17625 C 1675.35 4.22031 -0.712336 0
M  V30 17626 C 1674.67 5.34561 0.121838 0
M  V30 17627 C 1675.97 4.8244 -2.00123 0
M  V30 17628 H 1677.67 2.64702 -1.39904 0
M  V30 17629 H 1675.21 1.27244 -0.674156 0
M  V30 17630 H 1677.16 4.18529 0.491028 0
M  V30 17631 H 1675.89 3.08574 1.07002 0
M  V30 17632 H 1674.55 3.522 -1.01739 0
M  V30 17633 H 1674.2 4.92489 1.0229 0
M  V30 17634 H 1673.9 5.85758 -0.464962 0
M  V30 17635 H 1675.42 6.09027 0.437963 0
M  V30 17636 H 1676.83 5.46111 -1.7446 0
M  V30 17637 H 1675.23 5.43906 -2.53548 0
M  V30 17638 H 1676.3 4.03405 -2.69059 0
M  V30 17639 N 1677.64 0.747635 1.38738 0
M  V30 17640 C 1678.92 0.226908 1.94279 0
M  V30 17641 C 1679.3 -1.27373 1.68343 0
M  V30 17642 O 1678.65 -2.04538 1.01865 0
M  V30 17643 C 1678.86 0.574164 3.44245 0
M  V30 17644 C 1680.21 0.530498 4.21273 0
M  V30 17645 O 1681.23 0.512102 3.525 0
M  V30 17646 O 1680.09 0.536171 5.43863 0
M  V30 17647 H 1677.18 0.0456834 0.825737 0
M  V30 17648 H 1679.73 0.827353 1.48165 0
M  V30 17649 H 1678.5 1.6108 3.56607 0
M  V30 17650 H 1678.12 -0.0545964 3.97563 0
M  V30 17651 N 1679.12 -1.49583 0.496242 0
M  V30 17652 C 1680.03 -2.32808 -0.289404 0
M  V30 17653 C 1681.05 -1.44324 -0.971933 0
M  V30 17654 O 1682.22 -1.77352 -0.954366 0
M  V30 17655 C 1679.29 -3.19645 -1.34269 0
M  V30 17656 C 1678.35 -4.23975 -0.6741 0
M  V30 17657 C 1677.58 -5.06661 -1.6772 0
M  V30 17658 O 1677.81 -4.90792 -2.90654 0
M  V30 17659 O 1676.74 -5.89091 -1.23514 0
M  V30 17660 H 1680.57 -3.01164 0.391664 0
M  V30 17661 H 1678.15 -1.47162 0.257652 0
M  V30 17662 H 1680.03 -3.73453 -1.9522 0
M  V30 17663 H 1678.71 -2.53989 -2.00677 0
M  V30 17664 H 1677.61 -3.74092 -0.0249732 0
M  V30 17665 H 1678.95 -4.92172 -0.0525442 0
M  V30 17666 N 1680.6 -0.229873 -1.55915 0
M  V30 17667 C 1681.55 0.690362 -2.17297 0
M  V30 17668 C 1682.53 1.15155 -1.12375 0
M  V30 17669 O 1683.73 1.10416 -1.38338 0
M  V30 17670 C 1680.85 1.89461 -2.86286 0
M  V30 17671 C 1679.94 1.45271 -3.98443 0
M  V30 17672 N 1680.33 0.723932 -5.00593 0
M  V30 17673 C 1678.63 1.73935 -4.10686 0
M  V30 17674 C 1679.33 0.497439 -5.79569 0
M  V30 17675 N 1678.31 1.05662 -5.33232 0
M  V30 17676 H 1682.11 0.12522 -2.93633 0
M  V30 17677 H 1679.62 -0.0314724 -1.6237 0
M  V30 17678 H 1681.62 2.5647 -3.28677 0
M  V30 17679 H 1680.28 2.46414 -2.11448 0
M  V30 17680 H 1681.29 0.375765 -5.16535 0
M  V30 17681 H 1677.97 2.32149 -3.47006 0
M  V30 17682 H 1679.36 -0.0831841 -6.71849 0
M  V30 17683 N 1682.08 1.5754 0.0434337 0
M  V30 17684 C 1683.32 1.88608 0.737108 0
M  V30 17685 C 1683.65 0.825342 1.7612 0
M  V30 17686 O 1682.91 -0.175437 1.94912 0
M  V30 17687 C 1683.21 3.26402 1.45591 0
M  V30 17688 C 1682.87 4.47294 0.56915 0
M  V30 17689 C 1681.53 4.80102 0.324866 0
M  V30 17690 C 1683.89 5.21181 -0.0439735 0
M  V30 17691 C 1681.21 5.84195 -0.541556 0
M  V30 17692 C 1683.57 6.26194 -0.898013 0
M  V30 17693 C 1682.23 6.57486 -1.1519 0
M  V30 17694 H 1681.5 0.690166 0.269727 0
M  V30 17695 H 1684.15 1.915 -0.00275199 0
M  V30 17696 H 1682.45 3.19431 2.26872 0
M  V30 17697 H 1684.15 3.47684 1.99793 0
M  V30 17698 H 1680.74 4.21632 0.769694 0
M  V30 17699 H 1684.92 4.96125 0.131816 0
M  V30 17700 H 1680.18 6.06823 -0.746711 0
M  V30 17701 H 1684.35 6.82596 -1.37969 0
M  V30 17702 H 1681.98 7.37969 -1.82501 0
M  V30 17703 N 1683.56 -0.31543 1.54411 0
M  V30 17704 C 1684.78 -1.0761 1.77299 0
M  V30 17705 C 1685.21 -1.80655 0.523963 0
M  V30 17706 O 1684.56 -1.73536 -0.524874 0
M  V30 17707 C 1684.61 -2.04355 2.97105 0
M  V30 17708 O 1683.72 -3.12401 2.69219 0
M  V30 17709 H 1683.06 -0.30986 0.587267 0
M  V30 17710 H 1685.59 -0.357246 2.01457 0
M  V30 17711 H 1685.6 -2.47081 3.24677 0
M  V30 17712 H 1684.27 -1.50592 3.87679 0
M  V30 17713 H 1682.85 -2.74294 2.52621 0
M  V30 17714 N 1685.03 -1.46622 -0.577906 0
M  V30 17715 C 1685.98 -1.57549 -1.68662 0
M  V30 17716 C 1686.95 -0.419536 -1.60714 0
M  V30 17717 O 1688.14 -0.636916 -1.79856 0
M  V30 17718 C 1685.28 -1.57627 -3.06998 0
M  V30 17719 C 1684.39 -2.83991 -3.25535 0
M  V30 17720 C 1683.52 -2.75541 -4.54148 0
M  V30 17721 C 1682.56 -3.96823 -4.66045 0
M  V30 17722 N 1681.7 -3.86731 -5.8599 0
M  V30 17723 H 1686.54 -2.52252 -1.58659 0
M  V30 17724 H 1684.08 -1.2514 -0.773195 0
M  V30 17725 H 1686.04 -1.55657 -3.87075 0
M  V30 17726 H 1684.67 -0.664527 -3.15886 0
M  V30 17727 H 1683.72 -2.9592 -2.3903 0
M  V30 17728 H 1685.03 -3.73864 -3.30193 0
M  V30 17729 H 1684.18 -2.71703 -5.42459 0
M  V30 17730 H 1682.92 -1.83317 -4.51936 0
M  V30 17731 H 1681.93 -4.00987 -3.76151 0
M  V30 17732 H 1683.15 -4.90149 -4.70033 0
M  V30 17733 H 1681.1 -2.97296 -5.84766 0
M  V30 17734 H 1681.02 -4.70263 -5.91937 0
M  V30 17735 H 1682.28 -3.86876 -6.76718 0
M  V30 17736 N 1686.51 0.822941 -1.34408 0
M  V30 17737 C 1687.45 1.93899 -1.20326 0
M  V30 17738 C 1688.42 1.62323 -0.0949083 0
M  V30 17739 O 1689.61 1.86698 -0.260056 0
M  V30 17740 C 1686.73 3.27884 -0.849118 0
M  V30 17741 C 1685.78 3.78421 -1.96723 0
M  V30 17742 S 1686.61 3.98182 -3.58066 0
M  V30 17743 C 1687.77 5.35094 -3.24693 0
M  V30 17744 H 1688 2.05547 -2.14797 0
M  V30 17745 H 1685.54 0.978513 -1.19434 0
M  V30 17746 H 1687.49 4.05296 -0.651579 0
M  V30 17747 H 1686.15 3.14005 0.0772533 0
M  V30 17748 H 1685.35 4.75416 -1.67318 0
M  V30 17749 H 1684.95 3.07955 -2.12225 0
M  V30 17750 H 1687.24 6.18507 -2.76507 0
M  V30 17751 H 1688.18 5.69482 -4.20828 0
M  V30 17752 H 1688.59 5.00604 -2.60876 0
M  V30 17753 N 1687.99 1.18137 1.04314 0
M  V30 17754 C 1688.95 0.908268 2.10436 0
M  V30 17755 C 1689.95 -0.105315 1.60455 0
M  V30 17756 O 1691.14 0.12785 1.7373 0
M  V30 17757 C 1688.28 0.362233 3.3897 0
M  V30 17758 H 1689.47 1.84928 2.36096 0
M  V30 17759 H 1687.02 0.993048 1.20699 0
M  V30 17760 H 1687.76 -0.58551 3.18971 0
M  V30 17761 H 1687.54 1.09285 3.76562 0
M  V30 17762 H 1689.03 0.18977 4.17169 0
M  V30 17763 N 1689.47 -1.23186 0.98301 0
M  V30 17764 C 1690.43 -2.22979 0.530366 0
M  V30 17765 C 1691.43 -1.56211 -0.381421 0
M  V30 17766 O 1692.62 -1.73321 -0.17475 0
M  V30 17767 C 1689.75 -3.40124 -0.229882 0
M  V30 17768 H 1690.95 -2.64539 1.41277 0
M  V30 17769 H 1688.5 -1.36064 0.769172 0
M  V30 17770 H 1689.23 -3.04024 -1.12871 0
M  V30 17771 H 1689.02 -3.89794 0.424653 0
M  V30 17772 H 1690.51 -4.14158 -0.535078 0
M  V30 17773 N 1690.95 -0.754982 -1.38339 0
M  V30 17774 C 1691.86 -0.130303 -2.34238 0
M  V30 17775 C 1692.87 0.699048 -1.5934 0
M  V30 17776 O 1694.05 0.622876 -1.91526 0
M  V30 17777 C 1691.11 0.751285 -3.38462 0
M  V30 17778 C 1690.17 -0.0925987 -4.292 0
M  V30 17779 C 1689.41 0.747007 -5.28446 0
M  V30 17780 O 1689.63 1.98495 -5.34749 0
M  V30 17781 O 1688.56 0.165072 -6.01674 0
M  V30 17782 H 1692.39 -0.92233 -2.89356 0
M  V30 17783 H 1689.98 -0.515896 -1.4021 0
M  V30 17784 H 1691.86 1.2551 -4.02275 0
M  V30 17785 H 1690.53 1.52178 -2.85698 0
M  V30 17786 H 1689.44 -0.64239 -3.68543 0
M  V30 17787 H 1690.77 -0.825784 -4.85223 0
M  V30 17788 N 1692.42 1.49318 -0.504168 0
M  V30 17789 C 1693.65 2.06869 0.0359415 0
M  V30 17790 C 1694.07 1.3641 1.30529 0
M  V30 17791 O 1693.42 0.443416 1.77031 0
M  V30 17792 C 1693.48 3.60333 0.290233 0
M  V30 17793 O 1693.2 4.28141 -0.928801 0
M  V30 17794 C 1694.7 4.34606 0.873628 0
M  V30 17795 H 1691.92 0.670643 -0.0218893 0
M  V30 17796 H 1694.46 1.92058 -0.702432 0
M  V30 17797 H 1692.62 3.74836 0.978594 0
M  V30 17798 H 1693.03 5.19894 -0.693595 0
M  V30 17799 H 1694.5 5.42846 1.00112 0
M  V30 17800 H 1694.98 3.97297 1.87221 0
M  V30 17801 H 1695.59 4.24717 0.222638 0
M  V30 17802 N 1693.9 0.238138 1.5579 0
M  V30 17803 C 1695.18 -0.438905 1.90612 0
M  V30 17804 C 1695.56 -1.76522 1.15773 0
M  V30 17805 O 1694.91 -2.26871 0.272363 0
M  V30 17806 C 1695.12 -0.615595 3.43528 0
M  V30 17807 C 1696.47 -0.915478 4.14613 0
M  V30 17808 O 1697.49 -0.70178 3.49218 0
M  V30 17809 O 1696.35 -1.32194 5.30271 0
M  V30 17810 H 1693.44 -0.234355 0.7931 0
M  V30 17811 H 1695.99 0.281555 1.67348 0
M  V30 17812 H 1694.76 0.319274 3.89995 0
M  V30 17813 H 1694.38 -1.38692 3.72626 0
M  V30 17814 N 1695.38 -1.57561 -0.0350783 0
M  V30 17815 C 1696.79 -1.77383 -0.582437 0
M  V30 17816 C 1697.14 -0.868453 -1.75933 0
M  V30 17817 O 1696.27 -0.061745 -2.16312 0
M  V30 17818 C 1696.86 -3.2168 -1.06337 0
M  V30 17819 C 1695.42 -3.42719 -1.55629 0
M  V30 17820 C 1694.57 -2.72906 -0.4917 0
M  V30 17821 H 1697.52 -1.57545 0.19115 0
M  V30 17822 H 1697.54 -3.27863 -1.93097 0
M  V30 17823 H 1697.05 -3.8755 -0.206603 0
M  V30 17824 H 1695.15 -2.82016 -2.43511 0
M  V30 17825 H 1695.27 -4.51312 -1.60794 0
M  V30 17826 H 1693.63 -2.36506 -0.945349 0
M  V30 17827 H 1694.41 -3.41454 0.355502 0
M  V30 17828 N 1696.86 0.307236 -1.54576 0
M  V30 17829 C 1697.81 1.38019 -1.81479 0
M  V30 17830 C 1698.79 1.46213 -0.671612 0
M  V30 17831 O 1699.98 1.5047 -0.932077 0
M  V30 17832 C 1697.11 2.74621 -2.06005 0
M  V30 17833 C 1696.2 2.70675 -3.2649 0
M  V30 17834 N 1696.59 2.36346 -4.47185 0
M  V30 17835 C 1694.89 3.01786 -3.28392 0
M  V30 17836 C 1695.59 2.41543 -5.2918 0
M  V30 17837 N 1694.57 2.78646 -4.66752 0
M  V30 17838 H 1698.37 1.10432 -2.72364 0
M  V30 17839 H 1695.88 0.515792 -1.53991 0
M  V30 17840 H 1697.88 3.51977 -2.23424 0
M  V30 17841 H 1696.54 3.03125 -1.16384 0
M  V30 17842 H 1697.55 2.08908 -4.73896 0
M  V30 17843 H 1694.23 3.35225 -2.48858 0
M  V30 17844 H 1695.62 2.17854 -6.35602 0
M  V30 17845 N 1698.34 1.46926 0.570122 0
M  V30 17846 C 1699.28 1.58442 1.67824 0
M  V30 17847 C 1700.25 0.428053 1.6049 0
M  V30 17848 O 1701.44 0.646445 1.79515 0
M  V30 17849 C 1698.58 1.59253 3.06158 0
M  V30 17850 C 1697.69 2.85714 3.24024 0
M  V30 17851 C 1696.83 2.77945 4.52681 0
M  V30 17852 C 1695.87 3.99289 4.63934 0
M  V30 17853 N 1695 3.89833 5.83931 0
M  V30 17854 H 1699.84 2.5309 1.5732 0
M  V30 17855 H 1697.38 1.25549 0.766548 0
M  V30 17856 H 1699.34 1.57707 3.86244 0
M  V30 17857 H 1697.97 0.68127 3.15529 0
M  V30 17858 H 1697.02 2.97184 2.37458 0
M  V30 17859 H 1698.33 3.7561 3.28206 0
M  V30 17860 H 1697.49 2.74576 5.41011 0
M  V30 17861 H 1696.22 1.85711 4.50958 0
M  V30 17862 H 1695.23 4.02976 3.74019 0
M  V30 17863 H 1696.45 4.92635 4.67427 0
M  V30 17864 H 1694.4 3.00393 5.83181 0
M  V30 17865 H 1694.32 4.73395 5.89434 0
M  V30 17866 H 1695.59 3.90459 6.74657 0
M  V30 17867 N 1699.82 -0.815801 1.34842 0
M  V30 17868 C 1701.04 -1.60915 1.30848 0
M  V30 17869 C 1701.47 -1.87758 -0.113345 0
M  V30 17870 O 1700.82 -1.4582 -1.07732 0
M  V30 17871 C 1700.87 -2.92284 2.11192 0
M  V30 17872 O 1699.98 -3.84685 1.48632 0
M  V30 17873 H 1699.32 -0.48913 0.449052 0
M  V30 17874 H 1701.85 -1.01322 1.7775 0
M  V30 17875 H 1701.86 -3.41789 2.2281 0
M  V30 17876 H 1700.53 -2.72071 3.14563 0
M  V30 17877 H 1699.11 -3.43215 1.458 0
M  V30 17878 N 1701.29 -1.18689 -1.03686 0
M  V30 17879 C 1702.52 -1.01024 -1.81132 0
M  V30 17880 C 1702.94 0.436584 -1.82963 0
M  V30 17881 O 1702.3 1.31343 -1.24975 0
M  V30 17882 C 1702.35 -1.5742 -3.24424 0
M  V30 17883 O 1701.45 -0.79813 -4.04603 0
M  V30 17884 H 1700.79 -0.357623 -0.559465 0
M  V30 17885 H 1703.32 -1.57532 -1.30556 0
M  V30 17886 H 1703.33 -1.60295 -3.75193 0
M  V30 17887 H 1702.01 -2.6273 -3.22406 0
M  V30 17888 H 1700.59 -0.842 -3.6327 0
M  V30 17889 N 1702.77 1.22662 -0.989529 0
M  V30 17890 C 1703.68 2.28162 -0.545835 0
M  V30 17891 C 1704.7 1.69251 0.403762 0
M  V30 17892 O 1705.87 1.99563 0.271428 0
M  V30 17893 C 1702.94 3.46434 0.135808 0
M  V30 17894 C 1702 4.20673 -0.85633 0
M  V30 17895 C 1701.23 5.33298 -0.207121 0
M  V30 17896 O 1701.46 5.6157 0.99975 0
M  V30 17897 O 1700.39 5.94977 -0.910288 0
M  V30 17898 H 1704.22 2.68276 -1.42344 0
M  V30 17899 H 1701.8 1.28766 -0.757609 0
M  V30 17900 H 1703.68 4.18207 0.517776 0
M  V30 17901 H 1702.36 3.08252 0.988035 0
M  V30 17902 H 1701.26 3.51186 -1.28917 0
M  V30 17903 H 1702.6 4.62726 -1.67765 0
M  V30 17904 N 1704.25 0.762308 1.37937 0
M  V30 17905 C 1705.5 0.319104 1.9916 0
M  V30 17906 C 1705.81 -1.10787 1.61201 0
M  V30 17907 O 1707.02 -1.65198 2.15457 0
M  V30 17908 C 1705.47 0.519582 3.5613 0
M  V30 17909 C 1705.08 1.9562 4.03034 0
M  V30 17910 C 1706.83 0.139528 4.24271 0
M  V30 17911 C 1704.73 2.10478 5.52678 0
M  V30 17912 H 1703.66 0.115564 0.745091 0
M  V30 17913 H 1706.31 0.940092 1.5759 0
M  V30 17914 H 1704.7 -0.170724 3.95632 0
M  V30 17915 H 1705.87 2.68069 3.74801 0
M  V30 17916 H 1704.18 2.29197 3.47646 0
M  V30 17917 H 1706.78 0.22918 5.34209 0
M  V30 17918 H 1707.12 -0.908999 4.06255 0
M  V30 17919 H 1707.66 0.782019 3.90038 0
M  V30 17920 H 1704.4 3.13616 5.75609 0
M  V30 17921 H 1703.92 1.42501 5.82626 0
M  V30 17922 H 1705.6 1.89887 6.18508 0
M  V30 17923 N 1705.73 -1.49049 0.51208 0
M  V30 17924 C 1706.96 -2.06885 -0.0249703 0
M  V30 17925 C 1707.37 -1.371 -1.29804 0
M  V30 17926 O 1706.73 -0.452798 -1.76794 0
M  V30 17927 C 1706.78 -3.60482 -0.27112 0
M  V30 17928 O 1706.5 -4.27643 0.951493 0
M  V30 17929 C 1708 -4.35063 -0.850568 0
M  V30 17930 H 1705.22 -0.670517 0.0254456 0
M  V30 17931 H 1707.76 -1.91682 0.712607 0
M  V30 17932 H 1705.92 -3.7535 -0.958702 0
M  V30 17933 H 1706.33 -5.19519 0.721156 0
M  V30 17934 H 1707.81 -5.43369 -0.972322 0
M  V30 17935 H 1708.28 -3.98285 -1.85111 0
M  V30 17936 H 1708.89 -4.24829 -0.200111 0
M  V30 17937 N 1707.21 -0.246397 -1.55662 0
M  V30 17938 C 1708.15 0.653368 -2.21359 0
M  V30 17939 C 1709.12 1.1717 -1.1773 0
M  V30 17940 O 1710.31 1.22626 -1.46176 0
M  V30 17941 C 1707.45 1.84484 -2.9165 0
M  V30 17942 C 1706.56 1.36308 -4.09932 0
M  V30 17943 C 1705.7 2.51407 -4.6794 0
M  V30 17944 C 1704.73 2.0009 -5.78472 0
M  V30 17945 N 1703.87 3.08555 -6.30665 0
M  V30 17946 H 1708.71 0.0864458 -2.97875 0
M  V30 17947 H 1706.25 0.0309074 -1.47068 0
M  V30 17948 H 1708.21 2.54476 -3.30602 0
M  V30 17949 H 1706.84 2.38425 -2.17609 0
M  V30 17950 H 1705.89 0.557224 -3.76297 0
M  V30 17951 H 1707.2 0.946988 -4.89728 0
M  V30 17952 H 1706.35 3.29442 -5.09463 0
M  V30 17953 H 1705.09 2.96318 -3.87359 0
M  V30 17954 H 1704.1 1.20526 -5.36427 0
M  V30 17955 H 1705.32 1.5615 -6.60904 0
M  V30 17956 H 1703.27 3.529 -5.52989 0
M  V30 17957 H 1703.19 2.71274 -7.05653 0
M  V30 17958 H 1704.45 3.8665 -6.76847 0
M  V30 17959 N 1708.68 1.57577 0.026722 0
M  V30 17960 C 1709.63 2.07803 1.04502 0
M  V30 17961 C 1710.63 0.992308 1.37294 0
M  V30 17962 O 1711.83 1.17717 1.36171 0
M  V30 17963 H 1708.21 0.663176 0.354545 0
M  V30 17964 H 1710.18 2.92395 0.595626 0
M  V30 17965 C 1708.93 2.57478 2.33667 0
M  V30 17966 H 1708.25 3.40639 2.09296 0
M  V30 17967 H 1709.69 2.96328 3.03258 0
M  V30 17968 C 1708.15 1.47704 3.02796 0
M  V30 17969 O 1708.68 0.844611 3.9272 0
M  V30 17970 N 1706.88 1.211 2.64165 0
M  V30 17971 H 1706.43 1.72713 1.91123 0
M  V30 17972 H 1706.39 0.47866 3.10735 0
M  V30 17973 N 1710.16 -0.299034 1.54737 0
M  V30 17974 C 1711.09 -1.37358 1.88826 0
M  V30 17975 C 1712.07 -1.52802 0.747367 0
M  V30 17976 O 1713.26 -1.66277 1.00327 0
M  V30 17977 C 1710.39 -2.73746 2.13729 0
M  V30 17978 C 1709.34 -2.73065 3.29575 0
M  V30 17979 C 1708.67 -4.12761 3.39901 0
M  V30 17980 C 1709.97 -2.34631 4.66632 0
M  V30 17981 H 1711.66 -1.09077 2.78824 0
M  V30 17982 H 1709.21 -0.523276 1.34156 0
M  V30 17983 H 1711.16 -3.49006 2.36162 0
M  V30 17984 H 1709.88 -3.03556 1.20504 0
M  V30 17985 H 1708.54 -2.00261 3.07068 0
M  V30 17986 H 1708.19 -4.39751 2.44189 0
M  V30 17987 H 1707.89 -4.13205 4.17774 0
M  V30 17988 H 1709.42 -4.89797 3.64597 0
M  V30 17989 H 1710.83 -2.99608 4.88782 0
M  V30 17990 H 1709.23 -2.46285 5.47233 0
M  V30 17991 H 1710.3 -1.29759 4.67216 0
M  V30 17992 N 1711.64 -1.47227 -0.562322 0
M  V30 17993 C 1712.57 -1.62204 -1.67965 0
M  V30 17994 C 1713.55 -0.471638 -1.63431 0
M  V30 17995 O 1714.74 -0.70036 -1.81131 0
M  V30 17996 C 1711.87 -1.63127 -3.06605 0
M  V30 17997 C 1710.82 -2.77343 -3.25983 0
M  V30 17998 C 1710.15 -2.63336 -4.65358 0
M  V30 17999 C 1711.45 -4.18983 -3.1185 0
M  V30 18000 H 1713.14 -2.55739 -1.55686 0
M  V30 18001 H 1710.69 -1.23075 -0.747561 0
M  V30 18002 H 1712.64 -1.72197 -3.84612 0
M  V30 18003 H 1711.36 -0.661501 -3.19831 0
M  V30 18004 H 1710.02 -2.67776 -2.50383 0
M  V30 18005 H 1709.67 -1.64398 -4.75376 0
M  V30 18006 H 1709.37 -3.39957 -4.79273 0
M  V30 18007 H 1710.89 -2.74327 -5.45506 0
M  V30 18008 H 1712.31 -4.29554 -3.79679 0
M  V30 18009 H 1710.7 -4.96351 -3.37277 0
M  V30 18010 H 1711.77 -4.37709 -2.08661 0
M  V30 18011 N 1713.12 0.808639 -1.35273 0
M  V30 18012 C 1714.53 1.38248 -1.25477 0
M  V30 18013 C 1714.88 1.9587 0.113715 0
M  V30 18014 O 1714 1.91141 1.0146 0
M  V30 18015 C 1714.6 2.5133 -2.27197 0
M  V30 18016 C 1713.16 3.04582 -2.21148 0
M  V30 18017 C 1712.31 1.77534 -2.13019 0
M  V30 18018 H 1715.26 0.611844 -1.46431 0
M  V30 18019 H 1715.28 3.29825 -1.89726 0
M  V30 18020 H 1714.79 2.09362 -3.26786 0
M  V30 18021 H 1712.89 3.5102 -1.24963 0
M  V30 18022 H 1713 3.62703 -3.13023 0
M  V30 18023 H 1711.37 1.99004 -1.58964 0
M  V30 18024 H 1712.15 1.3772 -3.14465 0
M  V30 18025 N 1714.6 1.19237 1.03055 0
M  V30 18026 C 1715.56 0.930536 2.0946 0
M  V30 18027 C 1716.56 -0.0882907 1.60557 0
M  V30 18028 O 1717.75 0.146269 1.73585 0
M  V30 18029 C 1714.88 0.398165 3.38567 0
M  V30 18030 H 1716.07 1.87422 2.34122 0
M  V30 18031 H 1713.63 1.00579 1.19639 0
M  V30 18032 H 1714.36 -0.551646 3.19574 0
M  V30 18033 H 1714.15 1.13273 3.75382 0
M  V30 18034 H 1715.64 0.234006 4.16944 0
M  V30 18035 N 1716.07 -1.22136 0.99602 0
M  V30 18036 C 1717.3 -1.94978 0.692172 0
M  V30 18037 C 1717.72 -1.73536 -0.743696 0
M  V30 18038 O 1717.07 -1.03637 -1.50219 0
M  V30 18039 C 1717.13 -3.47609 0.992498 0
M  V30 18040 O 1716.85 -3.68334 2.37195 0
M  V30 18041 C 1718.35 -4.37629 0.70679 0
M  V30 18042 H 1715.57 -0.620327 0.255802 0
M  V30 18043 H 1718.11 -1.55202 1.33164 0
M  V30 18044 H 1716.27 -3.85342 0.398785 0
M  V30 18045 H 1716.68 -4.62506 2.47362 0
M  V30 18046 H 1718.15 -5.43461 0.967173 0
M  V30 18047 H 1718.63 -4.37729 -0.359208 0
M  V30 18048 H 1719.24 -4.05528 1.2817 0
M  V30 18049 N 1717.55 -0.769612 -1.37531 0
M  V30 18050 C 1718.48 -0.168389 -2.32892 0
M  V30 18051 C 1719.46 0.685549 -1.55673 0
M  V30 18052 O 1720.65 0.62345 -1.8392 0
M  V30 18053 C 1717.78 0.713183 -3.39898 0
M  V30 18054 C 1716.73 -0.0392808 -4.27982 0
M  V30 18055 C 1716.06 0.961596 -5.25982 0
M  V30 18056 C 1717.36 -1.21704 -5.07923 0
M  V30 18057 H 1719.05 -0.965022 -2.83421 0
M  V30 18058 H 1716.6 -0.465502 -1.36268 0
M  V30 18059 H 1718.55 1.14358 -4.05586 0
M  V30 18060 H 1717.28 1.54231 -2.87889 0
M  V30 18061 H 1715.93 -0.450429 -3.63822 0
M  V30 18062 H 1715.58 1.78522 -4.70254 0
M  V30 18063 H 1715.28 0.462679 -5.85776 0
M  V30 18064 H 1716.81 1.39097 -5.94545 0
M  V30 18065 H 1718.22 -0.863405 -5.66761 0
M  V30 18066 H 1716.62 -1.6479 -5.77031 0
M  V30 18067 H 1717.69 -2.02219 -4.40722 0
M  V30 18068 N 1719.03 1.48775 -0.519977 0
M  V30 18069 C 1719.96 2.27418 0.285222 0
M  V30 18070 C 1720.98 1.34753 0.91354 0
M  V30 18071 O 1722.16 1.59885 0.793672 0
M  V30 18072 C 1719.26 3.07799 1.41821 0
M  V30 18073 C 1718.44 4.28173 0.893682 0
M  V30 18074 C 1717.5 4.90445 1.90658 0
M  V30 18075 O 1716.52 5.49957 1.46751 0
M  V30 18076 N 1717.72 4.8179 3.23819 0
M  V30 18077 H 1720.49 2.97162 -0.38921 0
M  V30 18078 H 1718.05 1.5799 -0.353684 0
M  V30 18079 H 1720.04 3.46329 2.09377 0
M  V30 18080 H 1718.61 2.4054 1.99648 0
M  V30 18081 H 1717.83 3.94177 0.0424379 0
M  V30 18082 H 1719.12 5.06116 0.521952 0
M  V30 18083 H 1718.52 4.34573 3.62164 0
M  V30 18084 H 1717.08 5.2445 3.87035 0
M  V30 18085 N 1720.51 0.254649 1.55529 0
M  V30 18086 C 1721.44 -0.635656 2.24681 0
M  V30 18087 C 1722.42 -1.17519 1.22977 0
M  V30 18088 O 1723.6 -1.21311 1.51649 0
M  V30 18089 C 1720.73 -1.82922 2.95224 0
M  V30 18090 C 1719.69 -1.42212 4.03683 0
M  V30 18091 C 1719.01 -2.69713 4.61691 0
M  V30 18092 C 1720.31 -0.587436 5.18986 0
M  V30 18093 H 1722.01 -0.0590063 2.99342 0
M  V30 18094 H 1719.55 -0.02694 1.43975 0
M  V30 18095 H 1721.51 -2.45777 3.42304 0
M  V30 18096 H 1720.23 -2.43137 2.18064 0
M  V30 18097 H 1718.89 -0.81687 3.57383 0
M  V30 18098 H 1718.54 -3.28143 3.81223 0
M  V30 18099 H 1718.24 -2.43194 5.34911 0
M  V30 18100 H 1719.76 -3.33453 5.11509 0
M  V30 18101 H 1721.18 -1.12048 5.62244 0
M  V30 18102 H 1719.57 -0.417988 5.98643 0
M  V30 18103 H 1720.64 0.398577 4.83259 0
M  V30 18104 N 1721.99 -1.57589 -0.0183649 0
M  V30 18105 C 1723.24 -1.88937 -0.706105 0
M  V30 18106 C 1723.55 -0.854565 -1.75945 0
M  V30 18107 O 1724.75 -1.05763 -2.50053 0
M  V30 18108 C 1723.21 -3.35329 -1.307 0
M  V30 18109 C 1722.82 -4.47064 -0.289444 0
M  V30 18110 C 1724.56 -3.75811 -1.97399 0
M  V30 18111 C 1722.47 -5.84523 -0.899288 0
M  V30 18112 H 1721.4 -0.704959 -0.267486 0
M  V30 18113 H 1724.05 -1.83458 0.0391685 0
M  V30 18114 H 1722.43 -3.35586 -2.10233 0
M  V30 18115 H 1723.61 -4.58294 0.479958 0
M  V30 18116 H 1721.92 -4.15484 0.276066 0
M  V30 18117 H 1724.52 -4.75834 -2.43898 0
M  V30 18118 H 1724.86 -3.08362 -2.79676 0
M  V30 18119 H 1725.39 -3.77774 -1.24626 0
M  V30 18120 H 1722.13 -6.55398 -0.11571 0
M  V30 18121 H 1721.65 -5.76993 -1.63828 0
M  V30 18122 H 1723.33 -6.31595 -1.40344 0
M  V30 18123 N 1723.46 0.290824 -1.54893 0
M  V30 18124 C 1724.74 1.04495 -1.65348 0
M  V30 18125 C 1725.12 2.04888 -0.508348 0
M  V30 18126 O 1724.47 2.23102 0.493749 0
M  V30 18127 C 1724.68 1.71772 -3.03801 0
M  V30 18128 C 1726.03 2.23595 -3.60958 0
M  V30 18129 O 1727.05 1.81788 -3.06319 0
M  V30 18130 O 1725.91 3.00225 -4.56648 0
M  V30 18131 H 1723 0.483605 -0.670862 0
M  V30 18132 H 1725.55 0.288101 -1.67237 0
M  V30 18133 H 1724.32 0.989296 -3.78588 0
M  V30 18134 H 1723.95 2.54188 -3.05735 0
M  V30 18135 N 1724.94 1.47523 0.554506 0
M  V30 18136 C 1726.17 1.57907 1.3369 0
M  V30 18137 C 1726.59 0.230244 1.87391 0
M  V30 18138 O 1725.94 -0.776917 1.65137 0
M  V30 18139 C 1725.99 2.60644 2.50493 0
M  V30 18140 O 1725.71 3.9029 1.99011 0
M  V30 18141 C 1727.22 2.81238 3.42666 0
M  V30 18142 H 1724.44 0.533139 0.407436 0
M  V30 18143 H 1726.98 1.93163 0.671445 0
M  V30 18144 H 1725.13 2.28315 3.12971 0
M  V30 18145 H 1725.55 4.46451 2.75285 0
M  V30 18146 H 1727.02 3.56981 4.21033 0
M  V30 18147 H 1727.5 1.89159 3.96378 0
M  V30 18148 H 1728.11 3.14775 2.86001 0
M  V30 18149 N 1726.42 -0.801453 1.357 0
M  V30 18150 C 1727.65 -1.58771 1.32194 0
M  V30 18151 C 1728.06 -1.88927 -0.101529 0
M  V30 18152 O 1727.4 -1.49649 -1.0654 0
M  V30 18153 C 1727.46 -2.94186 2.06627 0
M  V30 18154 C 1727.13 -2.86819 3.55786 0
M  V30 18155 C 1728.12 -2.59898 4.50276 0
M  V30 18156 C 1725.81 -3.05775 3.98506 0
M  V30 18157 C 1727.8 -2.52017 5.85462 0
M  V30 18158 C 1725.49 -2.97516 5.33786 0
M  V30 18159 C 1726.49 -2.70673 6.27076 0
M  V30 18160 O 1726.18 -2.62387 7.59874 0
M  V30 18161 H 1725.91 -0.499518 0.455475 0
M  V30 18162 H 1728.46 -1.00358 1.79213 0
M  V30 18163 H 1726.69 -3.54602 1.54253 0
M  V30 18164 H 1728.38 -3.55368 1.96133 0
M  V30 18165 H 1729.15 -2.44968 4.18588 0
M  V30 18166 H 1725.03 -3.25678 3.26274 0
M  V30 18167 H 1728.57 -2.30985 6.58249 0
M  V30 18168 H 1724.47 -3.12006 5.65086 0
M  V30 18169 H 1725.24 -2.77957 7.69859 0
M  V30 18170 N 1727.9 -1.19782 -1.02421 0
M  V30 18171 C 1728.86 -0.941631 -2.08964 0
M  V30 18172 C 1729.86 0.0797747 -1.60602 0
M  V30 18173 O 1731.05 -0.155473 -1.73505 0
M  V30 18174 C 1728.18 -0.416114 -3.38351 0
M  V30 18175 H 1729.38 -1.88661 -2.33125 0
M  V30 18176 H 1726.93 -1.01212 -1.19104 0
M  V30 18177 H 1727.66 0.53469 -3.19862 0
M  V30 18178 H 1727.45 -1.15262 -3.74776 0
M  V30 18179 H 1728.94 -0.256114 -4.16814 0
M  V30 18180 N 1729.38 1.21606 -1.00248 0
M  V30 18181 C 1730.6 1.95149 -0.702249 0
M  V30 18182 C 1731.03 1.73429 0.728293 0
M  V30 18183 O 1730.39 1.01953 1.49917 0
M  V30 18184 C 1730.43 3.45705 -1.0257 0
M  V30 18185 O 1729.54 4.12196 -0.129575 0
M  V30 18186 H 1728.88 0.610173 -0.261888 0
M  V30 18187 H 1731.41 1.54435 -1.34205 0
M  V30 18188 H 1731.42 3.96265 -0.97151 0
M  V30 18189 H 1730.09 3.60838 -2.06806 0
M  V30 18190 H 1728.67 3.72126 -0.240074 0
M  V30 18191 N 1730.86 0.776895 1.37121 0
M  V30 18192 C 1732.1 0.343555 1.99564 0
M  V30 18193 C 1732.43 -1.08134 1.6167 0
M  V30 18194 O 1731.69 -1.75938 0.856998 0
M  V30 18195 C 1731.98 0.440201 3.54679 0
M  V30 18196 C 1731.65 1.82409 4.12356 0
M  V30 18197 C 1730.31 2.20277 4.27822 0
M  V30 18198 C 1732.66 2.73082 4.43932 0
M  V30 18199 C 1729.99 3.48244 4.72168 0
M  V30 18200 C 1732.34 4.00465 4.89705 0
M  V30 18201 C 1731.01 4.38371 5.03376 0
M  V30 18202 H 1730.28 0.125716 0.730258 0
M  V30 18203 H 1732.93 0.991921 1.63808 0
M  V30 18204 H 1731.23 -0.291695 3.90713 0
M  V30 18205 H 1732.93 0.0861328 4.00907 0
M  V30 18206 H 1729.52 1.5198 4.0075 0
M  V30 18207 H 1733.7 2.45085 4.31564 0
M  V30 18208 H 1728.96 3.77501 4.80939 0
M  V30 18209 H 1733.13 4.70849 5.13103 0
M  V30 18210 H 1730.76 5.37587 5.37498 0
M  V30 18211 N 1732.33 -1.48497 0.527859 0
M  V30 18212 C 1733.56 -2.069 -0.00302594 0
M  V30 18213 C 1733.98 -1.38469 -1.28342 0
M  V30 18214 O 1733.33 -0.471524 -1.76303 0
M  V30 18215 C 1733.38 -3.60749 -0.232871 0
M  V30 18216 O 1733.11 -4.26609 0.996797 0
M  V30 18217 C 1734.61 -4.35941 -0.804376 0
M  V30 18218 H 1731.83 -0.67021 0.0325559 0
M  V30 18219 H 1734.37 -1.90916 0.732897 0
M  V30 18220 H 1732.53 -3.76346 -0.918837 0
M  V30 18221 H 1732.94 -5.18725 0.776217 0
M  V30 18222 H 1734.41 -5.4437 -0.914635 0
M  V30 18223 H 1734.89 -4.00225 -1.80876 0
M  V30 18224 H 1735.5 -4.25017 -0.155041 0
M  V30 18225 N 1733.81 -0.262893 -1.55392 0
M  V30 18226 C 1735.23 0.09157 -1.59337 0
M  V30 18227 C 1735.43 1.55612 -1.28012 0
M  V30 18228 O 1734.48 2.30308 -1.0351 0
M  V30 18229 C 1735.8 -0.272043 -2.99467 0
M  V30 18230 C 1737.34 -0.217653 -3.12242 0
M  V30 18231 C 1737.82 -0.555528 -4.54618 0
M  V30 18232 N 1739.31 -0.506623 -4.60421 0
M  V30 18233 C 1740.05 -0.741013 -5.68592 0
M  V30 18234 N 1739.54 -1.03937 -6.84959 0
M  V30 18235 N 1741.33 -0.670636 -5.58085 0
M  V30 18236 H 1733.49 -1.2178 -1.74021 0
M  V30 18237 H 1735.75 -0.491131 -0.81086 0
M  V30 18238 H 1735.45 -1.29012 -3.27183 0
M  V30 18239 H 1735.33 0.393105 -3.75146 0
M  V30 18240 H 1737.72 0.791123 -2.84298 0
M  V30 18241 H 1737.8 -0.916884 -2.38803 0
M  V30 18242 H 1737.44 -1.56193 -4.83287 0
M  V30 18243 H 1737.37 0.165358 -5.2634 0
M  V30 18244 H 1739.86 -0.285397 -3.76821 0
M  V30 18245 H 1740.17 -1.20522 -7.63344 0
M  V30 18246 H 1738.52 -1.07702 -6.86604 0
M  V30 18247 H 1741.71 -0.437473 -4.66051 0
M  V30 18248 H 1741.88 -0.856692 -6.42312 0
M  V30 18249 N 1735.29 1.57597 0.0100073 0
M  V30 18250 C 1736.25 2.06745 0.989401 0
M  V30 18251 C 1737.25 0.97499 1.27869 0
M  V30 18252 O 1738.44 1.23798 1.22555 0
M  V30 18253 C 1735.57 2.50048 2.31709 0
M  V30 18254 H 1736.77 2.9454 0.564473 0
M  V30 18255 H 1734.32 1.54168 0.257266 0
M  V30 18256 H 1735.06 1.65466 2.78911 0
M  V30 18257 H 1734.84 3.29823 2.12035 0
M  V30 18258 H 1736.33 2.88433 3.01987 0
M  V30 18259 N 1736.77 -0.282606 1.55045 0
M  V30 18260 C 1738 -1.03245 1.78952 0
M  V30 18261 C 1738.41 -1.80777 0.558225 0
M  V30 18262 O 1737.75 -1.77264 -0.482009 0
M  V30 18263 C 1737.81 -2.04557 2.95629 0
M  V30 18264 C 1737.47 -1.46051 4.33034 0
M  V30 18265 C 1738.47 -0.881083 5.1238 0
M  V30 18266 C 1736.16 -1.4906 4.79673 0
M  V30 18267 C 1738.15 -0.339532 6.36495 0
M  V30 18268 C 1735.84 -0.945189 6.03746 0
M  V30 18269 C 1736.84 -0.370643 6.81994 0
M  V30 18270 O 1736.52 0.166447 8.03728 0
M  V30 18271 H 1736.26 -0.311139 0.60014 0
M  V30 18272 H 1738.81 -0.32175 2.02864 0
M  V30 18273 H 1737.04 -2.79359 2.67386 0
M  V30 18274 H 1738.73 -2.65592 3.06946 0
M  V30 18275 H 1739.49 -0.850602 4.77483 0
M  V30 18276 H 1735.37 -1.92719 4.18784 0
M  V30 18277 H 1738.92 0.109564 6.97514 0
M  V30 18278 H 1734.81 -0.972878 6.38126 0
M  V30 18279 H 1735.58 0.054892 8.18482 0
M  V30 18280 N 1738.25 -1.47815 -0.546675 0
M  V30 18281 C 1739.18 -1.63976 -1.66235 0
M  V30 18282 C 1740.16 -0.488945 -1.62921 0
M  V30 18283 O 1741.34 -0.719532 -1.80378 0
M  V30 18284 C 1738.47 -1.6637 -3.04858 0
M  V30 18285 C 1737.43 -2.80785 -3.23023 0
M  V30 18286 C 1736.75 -2.68257 -4.62539 0
M  V30 18287 C 1738.05 -4.22267 -3.07388 0
M  V30 18288 H 1739.75 -2.57375 -1.52965 0
M  V30 18289 H 1737.29 -1.23861 -0.734465 0
M  V30 18290 H 1739.24 -1.76266 -3.82764 0
M  V30 18291 H 1737.97 -0.695386 -3.19111 0
M  V30 18292 H 1736.63 -2.70417 -2.47529 0
M  V30 18293 H 1736.28 -1.69431 -4.73606 0
M  V30 18294 H 1735.98 -3.45022 -4.75641 0
M  V30 18295 H 1737.5 -2.80097 -5.42566 0
M  V30 18296 H 1738.91 -4.33557 -3.75102 0
M  V30 18297 H 1737.31 -4.999 -3.31994 0
M  V30 18298 H 1738.38 -4.39897 -2.04006 0
M  V30 18299 N 1739.72 0.794246 -1.36123 0
M  V30 18300 C 1740.65 1.92105 -1.32732 0
M  V30 18301 C 1741.63 1.68925 -0.199603 0
M  V30 18302 O 1742.82 1.90109 -0.396498 0
M  V30 18303 C 1739.95 3.29051 -1.11098 0
M  V30 18304 C 1738.9 3.66743 -2.20643 0
M  V30 18305 C 1738.23 5.01986 -1.84159 0
M  V30 18306 C 1739.53 3.75831 -3.62696 0
M  V30 18307 H 1741.22 1.952 -2.27018 0
M  V30 18308 H 1738.77 0.937746 -1.09281 0
M  V30 18309 H 1740.72 4.07494 -1.07362 0
M  V30 18310 H 1739.45 3.26331 -0.132614 0
M  V30 18311 H 1738.11 2.90594 -2.23497 0
M  V30 18312 H 1737.75 4.95782 -0.849081 0
M  V30 18313 H 1737.45 5.28175 -2.57497 0
M  V30 18314 H 1738.98 5.82855 -1.8197 0
M  V30 18315 H 1740.39 4.44476 -3.62096 0
M  V30 18316 H 1738.79 4.135 -4.34899 0
M  V30 18317 H 1739.86 2.7706 -3.97952 0
M  V30 18318 N 1741.2 1.20323 1.01785 0
M  V30 18319 C 1742.13 0.908716 2.10416 0
M  V30 18320 C 1743.15 -0.103029 1.62474 0
M  V30 18321 O 1744.34 0.127825 1.78042 0
M  V30 18322 C 1741.44 0.340601 3.37184 0
M  V30 18323 C 1740.61 1.40358 4.14268 0
M  V30 18324 C 1739.67 0.847016 5.19338 0
M  V30 18325 O 1738.69 1.5274 5.48324 0
M  V30 18326 N 1739.9 -0.344198 5.79479 0
M  V30 18327 H 1742.66 1.84383 2.36269 0
M  V30 18328 H 1740.22 1.10673 1.18165 0
M  V30 18329 H 1742.21 -0.0458443 4.04674 0
M  V30 18330 H 1740.78 -0.499042 3.08591 0
M  V30 18331 H 1740 1.96442 3.41766 0
M  V30 18332 H 1741.29 2.11952 4.62551 0
M  V30 18333 H 1740.69 -0.914263 5.58263 0
M  V30 18334 H 1739.25 -0.672296 6.48324 0
M  V30 18335 N 1742.68 -1.21073 1.00892 0
M  V30 18336 C 1743.63 -2.25613 0.565829 0
M  V30 18337 C 1744.62 -1.64812 -0.391588 0
M  V30 18338 O 1745.83 -1.78078 -0.262352 0
M  V30 18339 H 1742.2 -0.733755 0.164643 0
M  V30 18340 H 1744.17 -2.60321 1.45862 0
M  V30 18341 C 1742.92 -3.47589 -0.087861 0
M  V30 18342 H 1742.25 -3.94647 0.639828 0
M  V30 18343 H 1743.69 -4.22459 -0.361115 0
M  V30 18344 C 1742.14 -3.09609 -1.32829 0
M  V30 18345 O 1742.67 -3.20449 -2.4223 0
M  V30 18346 N 1740.88 -2.64234 -1.2095 0
M  V30 18347 H 1740.43 -2.55613 -0.319301 0
M  V30 18348 H 1740.39 -2.39191 -2.04046 0
M  V30 18349 N 1744.16 -0.784156 -1.36707 0
M  V30 18350 C 1745.41 -0.354133 -1.99379 0
M  V30 18351 C 1745.73 1.07276 -1.62241 0
M  V30 18352 O 1744.99 1.75481 -0.866317 0
M  V30 18353 C 1745.29 -0.459004 -3.5444 0
M  V30 18354 C 1744.95 -1.84594 -4.11383 0
M  V30 18355 C 1743.62 -2.22543 -4.26648 0
M  V30 18356 C 1745.97 -2.75433 -4.42477 0
M  V30 18357 C 1743.3 -3.50744 -4.70315 0
M  V30 18358 C 1745.65 -4.03056 -4.87574 0
M  V30 18359 C 1744.31 -4.41034 -5.01044 0
M  V30 18360 H 1743.58 -0.129586 -0.729581 0
M  V30 18361 H 1746.23 -1.00059 -1.6328 0
M  V30 18362 H 1744.53 0.27097 -3.90862 0
M  V30 18363 H 1746.23 -0.107393 -4.00856 0
M  V30 18364 H 1742.82 -1.54103 -3.99938 0
M  V30 18365 H 1747 -2.4737 -4.30258 0
M  V30 18366 H 1742.26 -3.80047 -4.78931 0
M  V30 18367 H 1746.43 -4.73563 -5.10599 0
M  V30 18368 H 1744.06 -5.4043 -5.34639 0
M  V30 18369 N 1745.64 1.48215 -0.535727 0
M  V30 18370 C 1746.58 2.31387 0.237209 0
M  V30 18371 C 1747.58 1.41589 0.929995 0
M  V30 18372 O 1748.78 1.58466 0.853725 0
M  V30 18373 H 1745.16 0.745928 0.0953663 0
M  V30 18374 H 1747.13 2.94452 -0.483772 0
M  V30 18375 C 1745.88 3.23771 1.26757 0
M  V30 18376 H 1745.2 3.92818 0.743902 0
M  V30 18377 H 1746.64 3.84841 1.7797 0
M  V30 18378 C 1745.1 2.45779 2.30422 0
M  V30 18379 O 1745.63 2.18673 3.36964 0
M  V30 18380 N 1743.84 2.07171 2.03785 0
M  V30 18381 H 1743.38 2.29416 1.17159 0
M  V30 18382 H 1743.34 1.55301 2.73366 0
M  V30 18383 N 1747.11 0.27113 1.5525 0
M  V30 18384 C 1748.02 -0.628245 2.26031 0
M  V30 18385 C 1749.04 -1.17339 1.28481 0
M  V30 18386 O 1750.22 -1.20453 1.61409 0
M  V30 18387 C 1747.28 -1.79766 2.96454 0
M  V30 18388 C 1746.34 -1.28958 4.09473 0
M  V30 18389 C 1745.58 -2.40326 4.76528 0
M  V30 18390 O 1745.8 -3.59595 4.42772 0
M  V30 18391 O 1744.73 -2.08708 5.64557 0
M  V30 18392 H 1748.56 -0.0549756 3.0365 0
M  V30 18393 H 1746.14 0.0386859 1.4935 0
M  V30 18394 H 1748.03 -2.4796 3.40725 0
M  V30 18395 H 1746.7 -2.35809 2.21756 0
M  V30 18396 H 1745.61 -0.57422 3.69667 0
M  V30 18397 H 1746.94 -0.774945 4.86061 0
M  V30 18398 N 1748.59 -1.576 -0.00164943 0
M  V30 18399 C 1749.5 -2.11748 -1.00995 0
M  V30 18400 C 1750.52 -1.06235 -1.37805 0
M  V30 18401 O 1751.69 -1.38127 -1.4657 0
M  V30 18402 C 1748.76 -2.60869 -2.2836 0
M  V30 18403 C 1747.82 -3.80976 -1.97879 0
M  V30 18404 C 1747.05 -4.27745 -3.19171 0
M  V30 18405 O 1747.28 -3.73856 -4.30799 0
M  V30 18406 O 1746.21 -5.19917 -3.03265 0
M  V30 18407 H 1750.04 -2.98117 -0.579667 0
M  V30 18408 H 1747.62 -1.47766 -0.220375 0
M  V30 18409 H 1749.5 -2.9267 -3.03187 0
M  V30 18410 H 1748.18 -1.77598 -2.7063 0
M  V30 18411 H 1747.09 -3.54151 -1.20533 0
M  V30 18412 H 1748.42 -4.65315 -1.60447 0
M  V30 18413 N 1750.07 0.274379 -1.55193 0
M  V30 18414 C 1751.32 1.00418 -1.75387 0
M  V30 18415 C 1751.64 1.86868 -0.557244 0
M  V30 18416 O 1750.91 1.9117 0.427883 0
M  V30 18417 H 1749.49 0.373753 -0.646775 0
M  V30 18418 H 1752.15 0.298942 -1.92594 0
M  V30 18419 H 1751.25 1.64191 -2.6542 0
M  V30 18420 N 1751.55 1.48103 0.538828 0
M  V30 18421 C 1752.78 1.59316 1.32008 0
M  V30 18422 C 1753.19 0.250107 1.87136 0
M  V30 18423 O 1752.55 -0.759358 1.65952 0
M  V30 18424 C 1752.6 2.63287 2.47714 0
M  V30 18425 O 1752.32 3.92379 1.9486 0
M  V30 18426 C 1753.82 2.84856 3.39664 0
M  V30 18427 H 1751.04 0.53743 0.401758 0
M  V30 18428 H 1753.59 1.93864 0.65092 0
M  V30 18429 H 1751.74 2.31621 3.10532 0
M  V30 18430 H 1752.15 4.49346 2.70534 0
M  V30 18431 H 1753.63 3.61426 4.17223 0
M  V30 18432 H 1754.11 1.93352 3.9435 0
M  V30 18433 H 1754.71 3.17791 2.82647 0
M  V30 18434 N 1753.03 -0.787016 1.36542 0
M  V30 18435 C 1754.25 -1.57588 1.34065 0
M  V30 18436 C 1754.67 -1.88641 -0.0775397 0
M  V30 18437 O 1754.03 -1.50306 -1.03511 0
M  V30 18438 C 1754.08 -2.89543 2.16442 0
M  V30 18439 O 1753.8 -2.59828 3.52734 0
M  V30 18440 C 1755.3 -3.83838 2.21773 0
M  V30 18441 H 1752.52 -0.488708 0.459789 0
M  V30 18442 H 1755.06 -0.976614 1.79673 0
M  V30 18443 H 1753.22 -3.45933 1.74383 0
M  V30 18444 H 1753.63 -3.44219 3.95744 0
M  V30 18445 H 1755.11 -4.73478 2.83765 0
M  V30 18446 H 1755.58 -4.21862 1.22185 0
M  V30 18447 H 1756.19 -3.33381 2.64078 0
M  V30 18448 N 1754.5 -1.20861 -1.01145 0
M  V30 18449 C 1755.41 -0.977926 -2.13246 0
M  V30 18450 C 1756.43 0.0678862 -1.73868 0
M  V30 18451 O 1757.61 -0.120717 -2.01038 0
M  V30 18452 C 1754.67 -0.538575 -3.42491 0
M  V30 18453 C 1753.73 -1.65584 -3.96081 0
M  V30 18454 C 1752.97 -1.23736 -5.19158 0
M  V30 18455 O 1753.19 -0.108227 -5.70297 0
M  V30 18456 O 1752.12 -2.04679 -5.6603 0
M  V30 18457 H 1755.95 -1.91666 -2.3558 0
M  V30 18458 H 1753.53 -0.992931 -1.1163 0
M  V30 18459 H 1755.42 -0.303041 -4.20309 0
M  V30 18460 H 1754.09 0.371515 -3.21561 0
M  V30 18461 H 1753 -1.94572 -3.19519 0
M  V30 18462 H 1754.33 -2.54313 -4.21409 0
M  V30 18463 N 1755.98 1.20536 -1.01532 0
M  V30 18464 C 1756.93 2.23277 -0.584486 0
M  V30 18465 C 1757.9 1.6134 0.394773 0
M  V30 18466 O 1759.08 1.88514 0.294498 0
M  V30 18467 C 1756.22 3.45024 0.0723574 0
M  V30 18468 C 1755.34 4.21395 -0.951314 0
M  V30 18469 C 1754.47 5.30535 -0.265656 0
M  V30 18470 C 1753.51 5.98649 -1.27617 0
M  V30 18471 N 1752.65 6.99381 -0.61727 0
M  V30 18472 H 1757.49 2.59489 -1.46524 0
M  V30 18473 H 1755.03 1.27507 -0.733502 0
M  V30 18474 H 1756.98 4.14541 0.470303 0
M  V30 18475 H 1755.61 3.09508 0.916768 0
M  V30 18476 H 1754.67 3.50957 -1.46743 0
M  V30 18477 H 1755.98 4.68211 -1.71989 0
M  V30 18478 H 1755.13 6.06409 0.187857 0
M  V30 18479 H 1753.87 4.84754 0.535237 0
M  V30 18480 H 1752.88 5.21537 -1.74008 0
M  V30 18481 H 1754.1 6.46516 -2.07832 0
M  V30 18482 H 1752.05 6.55796 0.163777 0
M  V30 18483 H 1751.96 7.44317 -1.32393 0
M  V30 18484 H 1753.23 7.79275 -0.187306 0
M  V30 18485 N 1757.46 0.791395 1.36289 0
M  V30 18486 C 1758.87 0.427611 1.81737 0
M  V30 18487 C 1759.22 -1.04868 1.65822 0
M  V30 18488 O 1758.35 -1.81379 1.18028 0
M  V30 18489 C 1758.94 0.769378 3.29949 0
M  V30 18490 C 1757.5 0.458397 3.73598 0
M  V30 18491 C 1756.65 1.00299 2.58526 0
M  V30 18492 H 1759.6 0.98437 1.24482 0
M  V30 18493 H 1759.62 0.061211 3.80451 0
M  V30 18494 H 1759.13 1.8439 3.415 0
M  V30 18495 H 1757.23 -0.608006 3.67606 0
M  V30 18496 H 1757.35 0.980392 4.68962 0
M  V30 18497 H 1755.71 0.426106 2.5111 0
M  V30 18498 H 1756.49 2.08331 2.72861 0
M  V30 18499 N 1758.94 -1.47929 0.54358 0
M  V30 18500 C 1760.16 -2.07393 0.0168905 0
M  V30 18501 C 1760.59 -1.39557 -1.26117 0
M  V30 18502 O 1759.95 -0.465983 -1.75209 0
M  V30 18503 C 1760 -3.6017 -0.176105 0
M  V30 18504 O 1759.1 -3.9326 -1.24178 0
M  V30 18505 H 1758.44 -0.662459 0.0452126 0
M  V30 18506 H 1760.97 -1.90145 0.755376 0
M  V30 18507 H 1760.98 -4.06088 -0.394555 0
M  V30 18508 H 1759.66 -4.08944 0.757445 0
M  V30 18509 H 1758.23 -3.59105 -1.0049 0
M  V30 18510 N 1760.42 -0.27936 -1.55104 0
M  V30 18511 C 1761.36 0.606268 -2.22695 0
M  V30 18512 C 1762.33 1.14646 -1.20189 0
M  V30 18513 O 1763.52 1.19498 -1.48744 0
M  V30 18514 C 1760.66 1.78256 -2.95497 0
M  V30 18515 C 1759.77 1.27582 -4.12731 0
M  V30 18516 C 1758.91 2.41425 -4.73167 0
M  V30 18517 C 1757.95 1.87775 -5.82586 0
M  V30 18518 N 1757.08 2.95108 -6.37068 0
M  V30 18519 H 1761.92 0.0232427 -2.97991 0
M  V30 18520 H 1759.46 -0.000294714 -1.471 0
M  V30 18521 H 1761.42 2.47406 -3.35925 0
M  V30 18522 H 1760.05 2.33755 -2.22617 0
M  V30 18523 H 1759.1 0.477281 -3.77394 0
M  V30 18524 H 1760.41 0.842897 -4.91627 0
M  V30 18525 H 1759.57 3.18561 -5.16337 0
M  V30 18526 H 1758.31 2.88035 -3.93557 0
M  V30 18527 H 1757.31 1.0912 -5.38862 0
M  V30 18528 H 1758.54 1.42096 -6.64067 0
M  V30 18529 H 1756.48 3.41091 -5.60351 0
M  V30 18530 H 1756.4 2.56246 -7.11248 0
M  V30 18531 H 1757.67 3.72206 -6.84896 0
M  V30 18532 N 1761.9 1.57599 -0.0067085 0
M  V30 18533 C 1762.81 2.1228 0.998709 0
M  V30 18534 C 1763.82 1.06964 1.37239 0
M  V30 18535 O 1765 1.38902 1.45836 0
M  V30 18536 C 1762.06 2.62076 2.26973 0
M  V30 18537 C 1761.12 3.8202 1.95855 0
M  V30 18538 C 1760.36 4.29431 3.16898 0
M  V30 18539 O 1760.58 3.76136 4.2881 0
M  V30 18540 O 1759.51 5.21518 3.00504 0
M  V30 18541 H 1763.34 2.9842 0.563849 0
M  V30 18542 H 1760.92 1.47881 0.212535 0
M  V30 18543 H 1762.81 2.94274 3.01631 0
M  V30 18544 H 1761.48 1.79031 2.69684 0
M  V30 18545 H 1760.39 3.54785 1.18653 0
M  V30 18546 H 1761.72 4.66159 1.57977 0
M  V30 18547 N 1763.37 -0.266145 1.55336 0
M  V30 18548 C 1764.32 -1.32914 1.88686 0
M  V30 18549 C 1765.29 -1.48752 0.739048 0
M  V30 18550 O 1766.48 -1.63048 0.990951 0
M  V30 18551 C 1763.62 -2.68317 2.17026 0
M  V30 18552 C 1762.73 -2.60644 3.44512 0
M  V30 18553 C 1761.86 -3.88271 3.62517 0
M  V30 18554 C 1760.9 -3.75137 4.83672 0
M  V30 18555 N 1760.04 -4.94614 4.98299 0
M  V30 18556 H 1764.88 -1.03774 2.79347 0
M  V30 18557 H 1762.42 -0.501205 1.38298 0
M  V30 18558 H 1764.37 -3.47107 2.31458 0
M  V30 18559 H 1763 -2.95645 1.29591 0
M  V30 18560 H 1762.06 -1.73527 3.38515 0
M  V30 18561 H 1763.37 -2.46842 4.3344 0
M  V30 18562 H 1762.52 -4.75503 3.76804 0
M  V30 18563 H 1761.26 -4.04949 2.71787 0
M  V30 18564 H 1760.27 -2.86289 4.69381 0
M  V30 18565 H 1761.49 -3.59973 5.75844 0
M  V30 18566 H 1759.44 -5.11689 4.10501 0
M  V30 18567 H 1759.35 -4.83369 5.81284 0
M  V30 18568 H 1760.62 -5.83399 5.16978 0
M  V30 18569 N 1764.85 -1.48386 -0.530967 0
M  V30 18570 C 1765.78 -1.6573 -1.64486 0
M  V30 18571 C 1766.76 -0.506198 -1.62393 0
M  V30 18572 O 1767.95 -0.738623 -1.79605 0
M  V30 18573 C 1765.08 -1.69594 -3.03076 0
M  V30 18574 C 1764.03 -2.84195 -3.20027 0
M  V30 18575 C 1763.36 -2.73148 -4.59668 0
M  V30 18576 C 1764.66 -4.25504 -3.02892 0
M  V30 18577 H 1766.35 -2.58983 -1.50227 0
M  V30 18578 H 1763.9 -1.24633 -0.721286 0
M  V30 18579 H 1765.85 -1.80316 -3.80873 0
M  V30 18580 H 1764.57 -0.729193 -3.18356 0
M  V30 18581 H 1763.23 -2.73027 -2.44647 0
M  V30 18582 H 1762.88 -1.74444 -4.71782 0
M  V30 18583 H 1762.58 -3.50047 -4.71954 0
M  V30 18584 H 1764.11 -2.85836 -5.39565 0
M  V30 18585 H 1765.52 -4.37511 -3.70482 0
M  V30 18586 H 1763.92 -5.03393 -3.26673 0
M  V30 18587 H 1764.99 -4.42036 -1.99329 0
M  V30 18588 N 1766.33 0.779763 -1.36958 0
M  V30 18589 C 1767.26 1.90168 -1.27941 0
M  V30 18590 C 1768.27 1.61605 -0.196866 0
M  V30 18591 O 1769.46 1.72673 -0.452368 0
M  V30 18592 C 1766.56 3.25208 -0.953565 0
M  V30 18593 C 1765.74 3.81477 -2.13995 0
M  V30 18594 C 1764.8 4.94976 -1.78564 0
M  V30 18595 O 1763.82 5.10984 -2.50767 0
M  V30 18596 N 1765.02 5.75955 -0.725015 0
M  V30 18597 H 1767.79 1.98422 -2.24608 0
M  V30 18598 H 1765.35 0.958495 -1.30478 0
M  V30 18599 H 1767.34 3.98643 -0.697529 0
M  V30 18600 H 1765.91 3.12508 -0.0757105 0
M  V30 18601 H 1765.13 2.99915 -2.55822 0
M  V30 18602 H 1766.42 4.15803 -2.93233 0
M  V30 18603 H 1765.82 5.6556 -0.125699 0
M  V30 18604 H 1764.37 6.49651 -0.528823 0
M  V30 18605 N 1767.81 1.21396 1.00503 0
M  V30 18606 C 1769.06 1.02913 1.73935 0
M  V30 18607 C 1769.38 -0.438329 1.9001 0
M  V30 18608 O 1768.65 -1.31618 1.45098 0
M  V30 18609 H 1767.23 0.377813 0.644412 0
M  V30 18610 H 1769.89 1.52704 1.21109 0
M  V30 18611 H 1768.98 1.49705 2.73852 0
M  V30 18612 N 1769.29 -1.19996 1.0217 0
M  V30 18613 C 1770.53 -1.89495 0.713989 0
M  V30 18614 C 1770.86 -1.79172 -0.756819 0
M  V30 18615 O 1770.12 -1.17362 -1.56603 0
M  V30 18616 C 1770.41 -3.39999 1.10162 0
M  V30 18617 C 1770.08 -3.70524 2.5695 0
M  V30 18618 C 1768.74 -3.78565 2.97056 0
M  V30 18619 C 1771.09 -3.8442 3.51952 0
M  V30 18620 C 1768.42 -3.97965 4.31092 0
M  V30 18621 C 1770.77 -4.05332 4.85684 0
M  V30 18622 C 1769.44 -4.11604 5.25489 0
M  V30 18623 H 1768.71 -0.693412 0.261267 0
M  V30 18624 H 1771.36 -1.42146 1.28323 0
M  V30 18625 H 1769.66 -3.89197 0.45088 0
M  V30 18626 H 1771.36 -3.92078 0.841158 0
M  V30 18627 H 1767.95 -3.64868 2.24876 0
M  V30 18628 H 1772.13 -3.77558 3.22123 0
M  V30 18629 H 1767.39 -4.01058 4.61479 0
M  V30 18630 H 1771.56 -4.15027 5.59219 0
M  V30 18631 H 1769.19 -4.26389 6.29362 0
M  V30 18632 N 1770.76 -0.798611 -1.35867 0
M  V30 18633 C 1771.73 -0.209177 -2.28243 0
M  V30 18634 C 1772.73 0.598842 -1.49233 0
M  V30 18635 O 1773.92 0.418491 -1.69098 0
M  V30 18636 C 1771.05 0.709336 -3.33438 0
M  V30 18637 H 1772.24 -1.02382 -2.81883 0
M  V30 18638 H 1769.79 -0.568687 -1.45587 0
M  V30 18639 H 1770.53 1.54797 -2.84971 0
M  V30 18640 H 1770.31 0.131756 -3.91879 0
M  V30 18641 H 1771.8 1.11632 -4.02403 0
M  V30 18642 N 1772.24 1.47639 -0.551417 0
M  V30 18643 C 1773.2 2.28419 0.188996 0
M  V30 18644 C 1774.2 1.36617 0.84808 0
M  V30 18645 O 1775.39 1.59304 0.704831 0
M  V30 18646 C 1772.53 3.16131 1.27571 0
M  V30 18647 H 1773.72 2.95348 -0.520518 0
M  V30 18648 H 1771.27 1.53232 -0.308141 0
M  V30 18649 H 1772.01 2.5388 2.0178 0
M  V30 18650 H 1771.79 3.83685 0.807984 0
M  V30 18651 H 1773.28 3.77011 1.79591 0
M  V30 18652 N 1773.72 0.287581 1.54954 0
M  V30 18653 C 1774.97 -0.326093 2.00161 0
M  V30 18654 C 1775.3 -1.54564 1.17574 0
M  V30 18655 O 1774.57 -1.92901 0.248859 0
M  V30 18656 C 1774.86 -0.695974 3.5331 0
M  V30 18657 C 1774.71 0.531783 4.46645 0
M  V30 18658 C 1776.03 -1.52767 4.12735 0
M  V30 18659 H 1773.15 -0.117051 0.727646 0
M  V30 18660 H 1775.79 0.39701 1.85806 0
M  V30 18661 H 1773.94 -1.31205 3.65674 0
M  V30 18662 H 1775.61 1.17032 4.46208 0
M  V30 18663 H 1773.86 1.16754 4.17793 0
M  V30 18664 H 1774.53 0.229034 5.51525 0
M  V30 18665 H 1777 -1.00724 4.03725 0
M  V30 18666 H 1775.88 -1.75527 5.20078 0
M  V30 18667 H 1776.14 -2.51267 3.63755 0
M  V30 18668 N 1775.2 -1.57593 0.0150662 0
M  V30 18669 C 1776.13 -2.12395 -0.970081 0
M  V30 18670 C 1777.11 -1.03666 -1.34861 0
M  V30 18671 O 1778.29 -1.31427 -1.4297 0
M  V30 18672 C 1775.42 -2.63958 -2.25707 0
M  V30 18673 C 1774.38 -3.77348 -2.01971 0
M  V30 18674 C 1773.7 -4.15284 -3.36814 0
M  V30 18675 C 1775 -5.04008 -1.37017 0
M  V30 18676 H 1776.7 -2.9496 -0.513731 0
M  V30 18677 H 1774.24 -1.41889 -0.245666 0
M  V30 18678 H 1776.2 -3.00927 -2.94993 0
M  V30 18679 H 1774.92 -1.78535 -2.73483 0
M  V30 18680 H 1773.58 -3.40795 -1.35107 0
M  V30 18681 H 1773.23 -3.26863 -3.82321 0
M  V30 18682 H 1772.93 -4.91686 -3.21744 0
M  V30 18683 H 1774.45 -4.54824 -4.07391 0
M  V30 18684 H 1775.87 -5.38652 -1.96282 0
M  V30 18685 H 1774.26 -5.85315 -1.32388 0
M  V30 18686 H 1775.33 -4.83698 -0.341281 0
M  V30 18687 N 1776.68 0.257904 -1.55475 0
M  V30 18688 C 1777.64 1.30244 -1.88598 0
M  V30 18689 C 1778.64 1.4162 -0.761604 0
M  V30 18690 O 1779.83 1.4051 -1.02968 0
M  V30 18691 C 1776.96 2.68173 -2.10466 0
M  V30 18692 H 1778.15 1.02098 -2.81986 0
M  V30 18693 H 1775.71 0.496685 -1.48198 0
M  V30 18694 H 1776.44 3.01476 -1.1951 0
M  V30 18695 H 1776.23 2.61299 -2.92344 0
M  V30 18696 H 1777.72 3.43616 -2.37313 0
M  V30 18697 N 1778.15 1.48666 0.52309 0
M  V30 18698 C 1779.4 1.56286 1.27505 0
M  V30 18699 C 1779.72 0.244774 1.94062 0
M  V30 18700 O 1780.92 0.199289 2.70768 0
M  V30 18701 C 1779.38 2.75654 2.31393 0
M  V30 18702 C 1778.99 4.14133 1.70874 0
M  V30 18703 C 1780.73 2.92591 3.07556 0
M  V30 18704 C 1778.64 5.24752 2.72743 0
M  V30 18705 H 1777.57 0.581842 0.479558 0
M  V30 18706 H 1780.22 1.75013 0.551611 0
M  V30 18707 H 1778.6 2.50376 3.06803 0
M  V30 18708 H 1779.77 4.49458 1.01607 0
M  V30 18709 H 1778.09 4.0237 1.0718 0
M  V30 18710 H 1780.69 3.72403 3.83692 0
M  V30 18711 H 1781.03 2.02308 3.63837 0
M  V30 18712 H 1781.56 3.17804 2.39261 0
M  V30 18713 H 1778.3 6.17024 2.21273 0
M  V30 18714 H 1777.82 4.93907 3.40318 0
M  V30 18715 H 1779.5 5.53158 3.35598 0
M  V30 18716 N 1779.63 -0.772489 1.37369 0
M  V30 18717 C 1780.88 -1.528 1.32275 0
M  V30 18718 C 1781.2 -1.9478 -0.092541 0
M  V30 18719 O 1780.47 -1.6624 -1.0364 0
M  V30 18720 H 1779.05 -0.566727 0.486651 0
M  V30 18721 H 1781.71 -0.919435 1.7185 0
M  V30 18722 H 1780.81 -2.42774 1.96131 0
M  V30 18723 N 1781.11 -1.21927 -0.998575 0
M  V30 18724 C 1782.34 -1.06735 -1.77827 0
M  V30 18725 C 1782.76 0.378154 -1.8426 0
M  V30 18726 O 1782.12 1.27301 -1.2909 0
M  V30 18727 C 1782.17 -1.67662 -3.19252 0
M  V30 18728 O 1781.27 -0.926448 -4.01859 0
M  V30 18729 H 1780.61 -0.375241 -0.547805 0
M  V30 18730 H 1783.14 -1.61605 -1.25478 0
M  V30 18731 H 1783.15 -1.72151 -3.69903 0
M  V30 18732 H 1781.83 -2.72854 -3.13885 0
M  V30 18733 H 1780.4 -0.957145 -3.60407 0
M  V30 18734 N 1782.59 1.19452 -1.02805 0
M  V30 18735 C 1783.81 1.93616 -0.743485 0
M  V30 18736 C 1784.24 1.74934 0.691342 0
M  V30 18737 O 1783.6 1.05111 1.47721 0
M  V30 18738 C 1783.64 3.43451 -1.0988 0
M  V30 18739 O 1782.75 4.11829 -0.216978 0
M  V30 18740 H 1782.09 0.60448 -0.274771 0
M  V30 18741 H 1784.62 1.51554 -1.37451 0
M  V30 18742 H 1784.63 3.94115 -1.05535 0
M  V30 18743 H 1783.3 3.5637 -2.14413 0
M  V30 18744 H 1781.88 3.71533 -0.318954 0
M  V30 18745 N 1784.07 0.805805 1.35442 0
M  V30 18746 C 1785.48 0.489448 1.5191 0
M  V30 18747 C 1785.68 -0.989485 1.75532 0
M  V30 18748 O 1784.74 -1.77453 1.79629 0
M  V30 18749 C 1786.05 1.33413 2.69484 0
M  V30 18750 C 1787.6 1.32949 2.83361 0
M  V30 18751 C 1788.07 2.15827 4.03959 0
M  V30 18752 N 1789.57 2.13359 4.11135 0
M  V30 18753 C 1790.3 2.74245 5.03564 0
M  V30 18754 N 1789.8 3.44055 6.0133 0
M  V30 18755 N 1791.59 2.63891 4.96304 0
M  V30 18756 H 1783.74 1.76361 1.18366 0
M  V30 18757 H 1786 0.750594 0.579062 0
M  V30 18758 H 1785.71 2.38364 2.58603 0
M  V30 18759 H 1785.58 0.986809 3.64063 0
M  V30 18760 H 1787.97 0.287837 2.93693 0
M  V30 18761 H 1788.05 1.71668 1.89641 0
M  V30 18762 H 1787.7 3.20033 3.94388 0
M  V30 18763 H 1787.63 1.74469 4.96858 0
M  V30 18764 H 1790.12 1.62566 3.41146 0
M  V30 18765 H 1790.43 3.87802 6.68453 0
M  V30 18766 H 1788.77 3.48159 6.01507 0
M  V30 18767 H 1791.97 2.08941 4.18881 0
M  V30 18768 H 1792.14 3.11631 5.68146 0
M  V30 18769 N 1785.54 -1.47344 0.559239 0
M  V30 18770 C 1786.78 -2.04364 0.0383239 0
M  V30 18771 C 1787.15 -1.42399 -1.28788 0
M  V30 18772 O 1788.35 -1.90478 -1.89661 0
M  V30 18773 C 1786.62 -3.57364 -0.0509258 0
M  V30 18774 S 1788.18 -4.35736 -0.51767 0
M  V30 18775 H 1785 -0.71052 0.0261238 0
M  V30 18776 H 1787.6 -1.80689 0.746433 0
M  V30 18777 H 1786.3 -3.99987 0.918631 0
M  V30 18778 H 1785.83 -3.85539 -0.782527 0
M  V30 18779 H 1787.85 -4.63291 -1.77697 0
M  V30 18780 N 1787.02 -0.295795 -1.54799 0
M  V30 18781 C 1787.97 0.582614 -2.23325 0
M  V30 18782 C 1788.94 1.13365 -1.21398 0
M  V30 18783 O 1790.12 1.17914 -1.50003 0
M  V30 18784 C 1787.26 1.75112 -2.97371 0
M  V30 18785 C 1786.38 1.23197 -4.14061 0
M  V30 18786 C 1785.51 2.36393 -4.75701 0
M  V30 18787 C 1784.55 1.81585 -5.84545 0
M  V30 18788 N 1783.69 2.88334 -6.40162 0
M  V30 18789 H 1788.53 -0.00836451 -2.97999 0
M  V30 18790 H 1786.07 -0.0158966 -1.47091 0
M  V30 18791 H 1788.02 2.4383 -3.38531 0
M  V30 18792 H 1786.65 2.31381 -2.25084 0
M  V30 18793 H 1785.71 0.437226 -3.77879 0
M  V30 18794 H 1787.02 0.790706 -4.92493 0
M  V30 18795 H 1786.17 3.13067 -5.19687 0
M  V30 18796 H 1784.91 2.83844 -3.9659 0
M  V30 18797 H 1783.92 1.03399 -5.3999 0
M  V30 18798 H 1785.14 1.35045 -6.65537 0
M  V30 18799 H 1783.09 3.35129 -5.63937 0
M  V30 18800 H 1783 2.48687 -7.13926 0
M  V30 18801 H 1784.27 3.64921 -6.88805 0
M  V30 18802 N 1788.5 1.57583 -0.0234236 0
M  V30 18803 C 1789.46 2.08797 0.945325 0
M  V30 18804 C 1790.46 1.00189 1.25773 0
M  V30 18805 O 1791.65 1.2637 1.19901 0
M  V30 18806 C 1788.79 2.54906 2.26353 0
M  V30 18807 H 1789.98 2.95671 0.50187 0
M  V30 18808 H 1787.53 1.54679 0.224507 0
M  V30 18809 H 1788.27 1.71345 2.75339 0
M  V30 18810 H 1788.05 3.34247 2.04991 0
M  V30 18811 H 1789.54 2.94774 2.95801 0
M  V30 18812 N 1789.98 -0.249655 1.5561 0
M  V30 18813 C 1790.93 -1.32883 1.90906 0
M  V30 18814 C 1791.92 -1.49965 0.787832 0
M  V30 18815 O 1793.13 -1.51473 0.972422 0
M  V30 18816 H 1789.5 -0.444907 0.606269 0
M  V30 18817 H 1791.47 -1.00379 2.8101 0
M  V30 18818 C 1790.22 -2.67782 2.21784 0
M  V30 18819 H 1789.55 -2.55436 3.07559 0
M  V30 18820 H 1790.99 -3.42175 2.50385 0
M  V30 18821 C 1789.44 -3.20664 1.03325 0
M  V30 18822 O 1789.97 -4.00724 0.279822 0
M  V30 18823 N 1788.18 -2.78655 0.824614 0
M  V30 18824 H 1787.73 -2.1366 1.43899 0
M  V30 18825 H 1787.69 -3.14382 0.03369 0
M  V30 18826 N 1791.46 -1.48941 -0.515198 0
M  V30 18827 C 1792.69 -1.61396 -1.29457 0
M  V30 18828 C 1793.1 -0.279847 -1.86714 0
M  V30 18829 O 1792.46 0.732861 -1.67139 0
M  V30 18830 C 1792.51 -2.67194 -2.43494 0
M  V30 18831 O 1792.23 -3.95429 -1.88593 0
M  V30 18832 C 1793.73 -2.90224 -3.35089 0
M  V30 18833 H 1790.95 -0.543754 -0.393157 0
M  V30 18834 H 1793.49 -1.94875 -0.619996 0
M  V30 18835 H 1791.65 -2.36532 -3.06808 0
M  V30 18836 H 1792.06 -4.53593 -2.63351 0
M  V30 18837 H 1793.54 -3.68018 -4.1142 0
M  V30 18838 H 1794.01 -1.99601 -3.91224 0
M  V30 18839 H 1794.62 -3.22247 -2.77555 0
M  V30 18840 N 1792.94 0.765193 -1.37777 0
M  V30 18841 C 1793.87 1.89247 -1.36777 0
M  V30 18842 C 1794.85 1.68463 -0.235389 0
M  V30 18843 O 1796.03 1.89225 -0.436733 0
M  V30 18844 C 1793.16 3.2662 -1.18053 0
M  V30 18845 C 1792.12 3.61981 -2.28372 0
M  V30 18846 C 1791.44 4.97967 -1.94765 0
M  V30 18847 C 1792.74 3.68053 -3.70587 0
M  V30 18848 H 1794.44 1.90341 -2.31108 0
M  V30 18849 H 1791.98 0.914355 -1.11245 0
M  V30 18850 H 1793.93 4.05125 -1.15982 0
M  V30 18851 H 1792.66 3.25976 -0.201803 0
M  V30 18852 H 1791.32 2.85788 -2.2961 0
M  V30 18853 H 1790.97 4.93869 -0.954052 0
M  V30 18854 H 1790.67 5.22594 -2.68642 0
M  V30 18855 H 1792.19 5.78864 -1.94292 0
M  V30 18856 H 1793.6 4.36696 -3.71443 0
M  V30 18857 H 1792 4.04183 -4.43572 0
M  V30 18858 H 1793.07 2.68556 -4.03739 0
M  V30 18859 N 1794.41 1.22455 0.992094 0
M  V30 18860 C 1795.66 1.04752 1.72833 0
M  V30 18861 C 1795.98 -0.418152 1.90464 0
M  V30 18862 O 1795.25 -1.30072 1.46486 0
M  V30 18863 H 1793.83 0.384626 0.640368 0
M  V30 18864 H 1796.49 1.5398 1.19483 0
M  V30 18865 H 1795.59 1.52601 2.72249 0
M  V30 18866 N 1795.89 -1.18905 1.03437 0
M  V30 18867 C 1797.3 -1.70402 0.762893 0
M  V30 18868 C 1797.65 -1.82633 -0.716908 0
M  V30 18869 O 1796.78 -1.50136 -1.55847 0
M  V30 18870 C 1797.37 -3.09501 1.37822 0
M  V30 18871 C 1795.93 -3.58235 1.1552 0
M  V30 18872 C 1795.08 -2.34953 1.47284 0
M  V30 18873 H 1798.03 -1.03669 1.2016 0
M  V30 18874 H 1798.05 -3.7246 0.778079 0
M  V30 18875 H 1797.56 -3.00566 2.45523 0
M  V30 18876 H 1795.66 -3.72475 0.096646 0
M  V30 18877 H 1795.78 -4.42034 1.84778 0
M  V30 18878 H 1794.14 -2.38557 0.892333 0
M  V30 18879 H 1794.92 -2.28643 2.5608 0
M  V30 18880 N 1797.37 -0.812977 -1.35013 0
M  V30 18881 C 1798.6 -0.409014 -2.02817 0
M  V30 18882 C 1799.01 0.982004 -1.61252 0
M  V30 18883 O 1798.37 1.63384 -0.813137 0
M  V30 18884 C 1798.42 -0.490117 -3.58162 0
M  V30 18885 O 1798.14 -1.8263 -3.98218 0
M  V30 18886 C 1799.64 -0.0797786 -4.43228 0
M  V30 18887 H 1796.86 -0.165356 -0.650306 0
M  V30 18888 H 1799.41 -1.09837 -1.72499 0
M  V30 18889 H 1797.56 0.151057 -3.87105 0
M  V30 18890 H 1797.98 -1.79356 -4.92881 0
M  V30 18891 H 1799.45 -0.18763 -5.51681 0
M  V30 18892 H 1799.93 0.975612 -4.28227 0
M  V30 18893 H 1800.53 -0.694359 -4.19594 0
M  V30 18894 N 1798.85 1.47045 -0.567045 0
M  V30 18895 C 1799.78 2.32929 0.163191 0
M  V30 18896 C 1800.76 1.44393 0.899142 0
M  V30 18897 O 1801.94 1.73235 0.87768 0
M  V30 18898 C 1799.07 3.26369 1.18745 0
M  V30 18899 C 1798.03 4.24223 0.567335 0
M  V30 18900 C 1797.35 5.07058 1.69693 0
M  V30 18901 C 1798.65 5.2004 -0.485319 0
M  V30 18902 H 1800.35 2.94233 -0.553837 0
M  V30 18903 H 1797.89 1.41488 -0.267789 0
M  V30 18904 H 1799.85 3.85299 1.70654 0
M  V30 18905 H 1798.57 2.6314 1.93455 0
M  V30 18906 H 1797.23 3.66534 0.0694525 0
M  V30 18907 H 1796.88 4.40226 2.43331 0
M  V30 18908 H 1796.58 5.73316 1.28774 0
M  V30 18909 H 1798.1 5.68848 2.2191 0
M  V30 18910 H 1799.52 5.73277 -0.0519049 0
M  V30 18911 H 1797.91 5.94554 -0.813942 0
M  V30 18912 H 1798.98 4.64921 -1.37754 0
M  V30 18913 N 1800.33 0.304 1.5464 0
M  V30 18914 C 1801.57 -0.304845 2.00496 0
M  V30 18915 C 1801.9 -1.53308 1.19206 0
M  V30 18916 O 1801.18 -1.92627 0.269305 0
M  V30 18917 C 1801.46 -0.658462 3.54029 0
M  V30 18918 C 1801.32 0.579125 4.46056 0
M  V30 18919 C 1802.63 -1.4838 4.14332 0
M  V30 18920 H 1799.75 -0.109327 0.728846 0
M  V30 18921 H 1802.4 0.416694 1.85374 0
M  V30 18922 H 1800.55 -1.27319 3.67045 0
M  V30 18923 H 1802.22 1.21758 4.44941 0
M  V30 18924 H 1800.46 1.21179 4.16531 0
M  V30 18925 H 1801.13 0.287518 5.51251 0
M  V30 18926 H 1803.61 -0.964367 4.04771 0
M  V30 18927 H 1802.48 -1.70001 5.21911 0
M  V30 18928 H 1802.74 -2.47394 3.66399 0
M  V30 18929 N 1801.8 -1.57568 0.0317802 0
M  V30 18930 C 1802.74 -2.07288 -0.977981 0
M  V30 18931 C 1803.75 -0.99682 -1.28714 0
M  V30 18932 O 1804.94 -1.27295 -1.25133 0
M  V30 18933 C 1802.04 -2.48469 -2.3047 0
M  V30 18934 C 1801.21 -3.79185 -2.18031 0
M  V30 18935 C 1800.27 -4.06888 -3.33659 0
M  V30 18936 O 1799.3 -4.771 -3.10426 0
M  V30 18937 N 1800.5 -3.57271 -4.57534 0
M  V30 18938 H 1803.26 -2.9454 -0.553743 0
M  V30 18939 H 1800.82 -1.61157 -0.154917 0
M  V30 18940 H 1802.82 -2.64092 -3.06655 0
M  V30 18941 H 1801.39 -1.66568 -2.64526 0
M  V30 18942 H 1800.61 -3.73333 -1.26556 0
M  V30 18943 H 1801.89 -4.64821 -2.06926 0
M  V30 18944 H 1801.29 -3.00474 -4.79303 0
M  V30 18945 H 1799.85 -3.78168 -5.30878 0
M  V30 18946 N 1803.28 0.241399 -1.5574 0
M  V30 18947 C 1804.23 1.31868 -1.91608 0
M  V30 18948 C 1805.22 1.49545 -0.795774 0
M  V30 18949 O 1806.43 1.50955 -0.980442 0
M  V30 18950 H 1802.81 0.441685 -0.60862 0
M  V30 18951 H 1804.78 0.98887 -2.81538 0
M  V30 18952 C 1803.53 2.66602 -2.23201 0
M  V30 18953 H 1802.85 2.53802 -3.08909 0
M  V30 18954 H 1804.29 3.40842 -2.52196 0
M  V30 18955 C 1802.75 3.20112 -1.05024 0
M  V30 18956 O 1803.28 4.0057 -0.301069 0
M  V30 18957 N 1801.48 2.78214 -0.839381 0
M  V30 18958 H 1801.03 2.12894 -1.4503 0
M  V30 18959 H 1800.99 3.1436 -0.050362 0
M  V30 18960 N 1804.76 1.49212 0.507292 0
M  V30 18961 C 1805.69 1.68326 1.61829 0
M  V30 18962 C 1806.67 0.531969 1.61568 0
M  V30 18963 O 1807.86 0.767104 1.78407 0
M  V30 18964 C 1804.99 1.74394 3.0034 0
M  V30 18965 C 1803.94 2.89251 3.15465 0
M  V30 18966 C 1803.27 2.80426 4.55264 0
M  V30 18967 C 1804.57 4.30269 2.96085 0
M  V30 18968 H 1806.26 2.6134 1.46087 0
M  V30 18969 H 1803.81 1.25765 0.701367 0
M  V30 18970 H 1805.76 1.86353 3.77956 0
M  V30 18971 H 1804.48 0.779748 3.17155 0
M  V30 18972 H 1803.14 2.76884 2.40272 0
M  V30 18973 H 1802.79 1.81928 4.68947 0
M  V30 18974 H 1802.49 3.57511 4.66326 0
M  V30 18975 H 1804.01 2.94384 5.34949 0
M  V30 18976 H 1805.43 4.4335 3.63475 0
M  V30 18977 H 1803.83 5.08527 3.18623 0
M  V30 18978 H 1804.9 4.45151 1.92272 0
M  V30 18979 N 1806.24 -0.757876 1.38181 0
M  V30 18980 C 1807.65 -1.33496 1.30521 0
M  V30 18981 C 1808 -1.96157 -0.0409405 0
M  V30 18982 O 1807.13 -1.94775 -0.942957 0
M  V30 18983 C 1807.72 -2.42725 2.36369 0
M  V30 18984 C 1806.28 -2.96165 2.323 0
M  V30 18985 C 1805.43 -1.69505 2.19461 0
M  V30 18986 H 1808.38 -0.557075 1.48601 0
M  V30 18987 H 1808.4 -3.22556 2.01836 0
M  V30 18988 H 1807.91 -1.97089 3.34331 0
M  V30 18989 H 1806.01 -3.4614 1.37904 0
M  V30 18990 H 1806.12 -3.50836 3.26269 0
M  V30 18991 H 1804.49 -1.92967 1.66241 0
M  V30 18992 H 1805.27 -1.25954 3.1936 0
M  V30 18993 N 1807.72 -1.22979 -0.985586 0
M  V30 18994 C 1808.94 -1.08615 -1.76685 0
M  V30 18995 C 1809.37 0.35859 -1.8465 0
M  V30 18996 O 1808.72 1.25924 -1.30433 0
M  V30 18997 C 1808.77 -1.71039 -3.17456 0
M  V30 18998 O 1807.88 -0.969018 -4.00854 0
M  V30 18999 H 1807.22 -0.38103 -0.543794 0
M  V30 19000 H 1809.75 -1.62927 -1.23757 0
M  V30 19001 H 1809.76 -1.76064 -3.68056 0
M  V30 19002 H 1808.43 -2.76168 -3.10973 0
M  V30 19003 H 1807.01 -0.995318 -3.59371 0
M  V30 19004 N 1809.19 1.18355 -1.04066 0
M  V30 19005 C 1810.42 1.92816 -0.763979 0
M  V30 19006 C 1810.84 1.75658 0.672749 0
M  V30 19007 O 1810.2 1.06671 1.46598 0
M  V30 19008 C 1810.25 3.42267 -1.13516 0
M  V30 19009 O 1809.35 4.11576 -0.260646 0
M  V30 19010 H 1808.7 0.601532 -0.281167 0
M  V30 19011 H 1811.23 1.50087 -1.3905 0
M  V30 19012 H 1811.24 3.92973 -1.09709 0
M  V30 19013 H 1809.91 3.54076 -2.18181 0
M  V30 19014 H 1808.49 3.71174 -0.358342 0
M  V30 19015 N 1810.67 0.820125 1.3458 0
M  V30 19016 C 1811.92 0.407473 1.98664 0
M  V30 19017 C 1812.25 -1.02613 1.64877 0
M  V30 19018 O 1811.53 -1.71421 0.918964 0
M  V30 19019 C 1811.81 0.606744 3.54952 0
M  V30 19020 C 1811.66 2.08626 3.98491 0
M  V30 19021 C 1812.98 0.0409321 4.40081 0
M  V30 19022 H 1810.1 0.149524 0.721673 0
M  V30 19023 H 1812.74 1.03217 1.59519 0
M  V30 19024 H 1810.89 0.0749788 3.88428 0
M  V30 19025 H 1812.56 2.68144 3.75361 0
M  V30 19026 H 1810.81 2.57774 3.48905 0
M  V30 19027 H 1811.48 2.17651 5.07279 0
M  V30 19028 H 1813.95 0.495234 4.13142 0
M  V30 19029 H 1812.83 0.210182 5.48497 0
M  V30 19030 H 1813.09 -1.05389 4.29355 0
M  V30 19031 N 1812.15 -1.46743 0.574835 0
M  V30 19032 C 1813.08 -2.2832 -0.20062 0
M  V30 19033 C 1814.1 -1.3805 -0.862898 0
M  V30 19034 O 1815.28 -1.6272 -0.733785 0
M  V30 19035 C 1812.38 -3.1285 -1.303 0
M  V30 19036 C 1811.56 -4.31195 -0.734153 0
M  V30 19037 C 1810.62 -4.97183 -1.72324 0
M  V30 19038 O 1809.64 -5.55025 -1.26239 0
M  V30 19039 N 1810.84 -4.93476 -3.05714 0
M  V30 19040 H 1813.61 -2.95513 0.499231 0
M  V30 19041 H 1811.17 -1.56568 0.412077 0
M  V30 19042 H 1813.16 -3.53861 -1.96378 0
M  V30 19043 H 1811.73 -2.47784 -1.90583 0
M  V30 19044 H 1810.95 -3.94063 0.103888 0
M  V30 19045 H 1812.24 -5.07704 -0.333751 0
M  V30 19046 H 1811.64 -4.47715 -3.45786 0
M  V30 19047 H 1810.2 -5.38453 -3.67304 0
M  V30 19048 N 1813.63 -0.312197 -1.54477 0
M  V30 19049 C 1814.86 0.296061 -2.04771 0
M  V30 19050 C 1815.27 1.46662 -1.18894 0
M  V30 19051 O 1814.63 1.81205 -0.217043 0
M  V30 19052 C 1814.68 0.74151 -3.53813 0
M  V30 19053 O 1814.4 -0.382471 -4.36427 0
M  V30 19054 C 1815.9 1.41376 -4.20152 0
M  V30 19055 H 1813.12 0.062705 -0.668064 0
M  V30 19056 H 1815.67 -0.455083 -1.99372 0
M  V30 19057 H 1813.82 1.44265 -3.59536 0
M  V30 19058 H 1814.23 -0.0336382 -5.24489 0
M  V30 19059 H 1815.71 1.67649 -5.25926 0
M  V30 19060 H 1816.19 2.35743 -3.7057 0
M  V30 19061 H 1816.79 0.755498 -4.18536 0
M  V30 19062 N 1815.11 1.57549 -0.040136 0
M  V30 19063 C 1816.35 1.92535 0.637037 0
M  V30 19064 C 1816.69 0.917836 1.71141 0
M  V30 19065 O 1815.96 -0.057824 1.94414 0
M  V30 19066 C 1816.24 3.37955 1.24333 0
M  V30 19067 C 1816.1 4.49449 0.177761 0
M  V30 19068 C 1817.42 3.8355 2.15818 0
M  V30 19069 H 1814.53 0.700157 0.230107 0
M  V30 19070 H 1817.18 1.89739 -0.0996468 0
M  V30 19071 H 1815.33 3.40468 1.87119 0
M  V30 19072 H 1817 4.59065 -0.453507 0
M  V30 19073 H 1815.24 4.30961 -0.495486 0
M  V30 19074 H 1815.91 5.48256 0.641792 0
M  V30 19075 H 1818.39 3.82842 1.63006 0
M  V30 19076 H 1817.26 4.85974 2.55188 0
M  V30 19077 H 1817.53 3.19678 3.05382 0
M  V30 19078 N 1816.58 -0.233136 1.55866 0
M  V30 19079 C 1817.82 -0.966418 1.8011 0
M  V30 19080 C 1818.19 -1.8199 0.61184 0
M  V30 19081 O 1819.39 -2.58603 0.733339 0
M  V30 19082 C 1817.66 -1.7928 3.09182 0
M  V30 19083 S 1819.22 -2.5833 3.54698 0
M  V30 19084 H 1816.04 -0.324835 0.632458 0
M  V30 19085 H 1818.64 -0.233016 1.94106 0
M  V30 19086 H 1817.34 -1.15574 3.9379 0
M  V30 19087 H 1816.87 -2.56871 2.97961 0
M  V30 19088 H 1818.89 -3.81641 3.17119 0
M  V30 19089 N 1818.06 -1.49479 -0.499372 0
M  V30 19090 C 1818.97 -1.69006 -1.62709 0
M  V30 19091 C 1819.99 -0.572681 -1.64306 0
M  V30 19092 O 1821.17 -0.847586 -1.82696 0
M  V30 19093 C 1818.23 -1.75382 -2.99069 0
M  V30 19094 C 1817.29 -2.98968 -3.08086 0
M  V30 19095 C 1816.52 -3.0503 -4.37941 0
M  V30 19096 O 1816.75 -2.18641 -5.26832 0
M  V30 19097 O 1815.68 -3.97507 -4.51964 0
M  V30 19098 H 1819.51 -2.64544 -1.49164 0
M  V30 19099 H 1817.09 -1.3324 -0.675836 0
M  V30 19100 H 1818.97 -1.81919 -3.8011 0
M  V30 19101 H 1817.65 -0.830226 -3.12872 0
M  V30 19102 H 1816.56 -2.97947 -2.26227 0
M  V30 19103 H 1817.89 -3.90812 -2.9921 0
M  V30 19104 N 1819.54 0.750537 -1.38581 0
M  V30 19105 C 1820.77 1.54489 -1.38376 0
M  V30 19106 C 1821.19 1.88085 0.023634 0
M  V30 19107 O 1820.55 1.50794 1.00652 0
M  V30 19108 C 1820.6 2.81875 -2.24897 0
M  V30 19109 O 1819.7 3.77155 -1.66817 0
M  V30 19110 H 1819.04 0.467148 -0.471878 0
M  V30 19111 H 1821.57 0.927264 -1.82381 0
M  V30 19112 H 1821.58 3.30769 -2.38864 0
M  V30 19113 H 1820.26 2.56753 -3.27186 0
M  V30 19114 H 1818.83 3.35868 -1.62009 0
M  V30 19115 N 1821.02 1.235 0.979051 0
M  V30 19116 C 1822.27 1.07956 1.72387 0
M  V30 19117 C 1822.62 -0.379427 1.88622 0
M  V30 19118 O 1821.91 -1.27702 1.42838 0
M  V30 19119 C 1822.11 1.74004 3.12182 0
M  V30 19120 C 1821.94 3.26174 3.09581 0
M  V30 19121 C 1820.71 3.95341 3.14696 0
M  V30 19122 C 1822.9 4.22924 2.92643 0
M  V30 19123 N 1820.89 5.34483 3.01996 0
M  V30 19124 C 1822.26 5.48988 2.88119 0
M  V30 19125 C 1824.31 4.13641 2.77138 0
M  V30 19126 C 1823.02 6.66834 2.69676 0
M  V30 19127 C 1825.04 5.31152 2.6006 0
M  V30 19128 C 1824.4 6.56143 2.56235 0
M  V30 19129 H 1820.5 0.449578 0.639847 0
M  V30 19130 H 1823.09 1.56249 1.16165 0
M  V30 19131 H 1821.26 1.28241 3.66618 0
M  V30 19132 H 1822.99 1.51423 3.75304 0
M  V30 19133 H 1819.74 3.46429 3.2293 0
M  V30 19134 H 1820.17 6.07435 2.98917 0
M  V30 19135 H 1824.81 3.17778 2.78885 0
M  V30 19136 H 1822.53 7.62831 2.66674 0
M  V30 19137 H 1826.11 5.25812 2.49024 0
M  V30 19138 H 1824.99 7.4554 2.43185 0
M  V30 19139 N 1822.5 -1.17802 1.04693 0
M  V30 19140 C 1823.45 -2.23698 0.637319 0
M  V30 19141 C 1824.44 -1.65974 -0.338957 0
M  V30 19142 O 1825.65 -1.78822 -0.205565 0
M  V30 19143 H 1822.02 -0.728146 0.187903 0
M  V30 19144 H 1823.99 -2.55549 1.5407 0
M  V30 19145 C 1822.74 -3.47693 0.0227662 0
M  V30 19146 H 1822.06 -3.92412 0.765058 0
M  V30 19147 H 1823.5 -4.23394 -0.22653 0
M  V30 19148 C 1821.96 -3.13679 -1.22912 0
M  V30 19149 O 1822.49 -3.27993 -2.31913 0
M  V30 19150 N 1820.7 -2.67948 -1.12483 0
M  V30 19151 H 1820.25 -2.565 -0.237818 0
M  V30 19152 H 1820.2 -2.45562 -1.96333 0
M  V30 19153 N 1823.98 -0.827251 -1.34143 0
M  V30 19154 C 1824.92 -0.240552 -2.31353 0
M  V30 19155 C 1825.92 0.62109 -1.57603 0
M  V30 19156 O 1827.12 0.511947 -1.72566 0
M  V30 19157 H 1823.5 -0.0590494 -0.749678 0
M  V30 19158 H 1825.47 -1.07518 -2.78357 0
M  V30 19159 C 1824.22 0.579321 -3.4284 0
M  V30 19160 H 1823.54 -0.0743746 -3.99731 0
M  V30 19161 H 1824.98 0.955871 -4.13085 0
M  V30 19162 C 1823.44 1.75345 -2.87673 0
M  V30 19163 O 1823.97 2.85178 -2.82907 0
M  V30 19164 N 1822.18 1.57158 -2.44437 0
M  V30 19165 H 1821.72 0.678148 -2.48513 0
M  V30 19166 H 1821.68 2.35869 -2.07877 0
M  V30 19167 N 1825.45 1.46436 -0.582609 0
M  V30 19168 C 1826.7 2.01592 -0.0658642 0
M  V30 19169 C 1827.02 1.45972 1.30198 0
M  V30 19170 O 1828.22 1.92948 1.91006 0
M  V30 19171 C 1826.68 3.59837 -0.0671547 0
M  V30 19172 C 1826.29 4.24453 -1.43331 0
M  V30 19173 C 1828.03 4.22652 0.395652 0
M  V30 19174 C 1825.94 5.74777 -1.39233 0
M  V30 19175 H 1824.87 0.753712 -0.0208533 0
M  V30 19176 H 1827.52 1.6817 -0.734241 0
M  V30 19177 H 1825.9 3.90336 0.667385 0
M  V30 19178 H 1827.07 4.05564 -2.18757 0
M  V30 19179 H 1825.39 3.73732 -1.83613 0
M  V30 19180 H 1827.99 5.32844 0.445101 0
M  V30 19181 H 1828.33 3.91581 1.41316 0
M  V30 19182 H 1828.86 3.96779 -0.284821 0
M  V30 19183 H 1825.6 6.10508 -2.38664 0
M  V30 19184 H 1825.12 5.9593 -0.680268 0
M  V30 19185 H 1826.8 6.37491 -1.1052 0
M  V30 19186 N 1826.93 0.320385 1.54309 0
M  V30 19187 C 1827.88 -0.562569 2.25694 0
M  V30 19188 C 1828.87 -1.12117 1.26988 0
M  V30 19189 O 1830.08 -1.06958 1.44776 0
M  V30 19190 H 1826.45 -0.200063 0.724899 0
M  V30 19191 H 1828.43 0.0618142 2.98336 0
M  V30 19192 C 1827.17 -1.7134 3.02552 0
M  V30 19193 H 1826.5 -1.29281 3.7832 0
M  V30 19194 H 1827.94 -2.30687 3.55752 0
M  V30 19195 C 1826.4 -2.62912 2.10663 0
M  V30 19196 O 1826.93 -3.64541 1.68739 0
M  V30 19197 N 1825.13 -2.31076 1.76217 0
M  V30 19198 H 1824.68 -1.48474 2.10507 0
M  V30 19199 H 1824.64 -2.92608 1.15014 0
M  V30 19200 N 1828.41 -1.57525 0.0484906 0
M  V30 19201 C 1829.64 -1.96897 -0.635553 0
M  V30 19202 C 1830.05 -0.925909 -1.64537 0
M  V30 19203 O 1829.41 0.0901742 -1.82277 0
M  V30 19204 C 1829.46 -3.36348 -1.32484 0
M  V30 19205 O 1829.18 -4.36656 -0.355464 0
M  V30 19206 C 1830.68 -3.90463 -2.0989 0
M  V30 19207 H 1827.9 -0.648062 -0.173945 0
M  V30 19208 H 1830.45 -2.04182 0.113997 0
M  V30 19209 H 1828.6 -3.30222 -2.02564 0
M  V30 19210 H 1829.02 -5.17613 -0.847153 0
M  V30 19211 H 1830.49 -4.90326 -2.53543 0
M  V30 19212 H 1830.97 -3.25745 -2.94596 0
M  V30 19213 H 1831.57 -3.99918 -1.44726 0
M  V30 19214 N 1829.89 0.224867 -1.55988 0
M  V30 19215 C 1830.84 1.29829 -1.92995 0
M  V30 19216 C 1831.83 1.48693 -0.81159 0
M  V30 19217 O 1833.04 1.49906 -0.996397 0
M  V30 19218 H 1829.41 0.435205 -0.61327 0
M  V30 19219 H 1831.38 0.958953 -2.82571 0
M  V30 19220 C 1830.13 2.6422 -2.26016 0
M  V30 19221 H 1829.45 2.50511 -3.11584 0
M  V30 19222 H 1830.89 3.38148 -2.55797 0
M  V30 19223 C 1829.35 3.1898 -1.08413 0
M  V30 19224 O 1829.88 4.00228 -0.343538 0
M  V30 19225 N 1828.09 2.77308 -0.868842 0
M  V30 19226 H 1827.64 2.11344 -1.4728 0
M  V30 19227 H 1827.59 3.14289 -0.0837012 0
M  V30 19228 N 1831.37 1.49742 0.491438 0
M  V30 19229 C 1832.28 1.69866 1.6181 0
M  V30 19230 C 1833.29 0.581386 1.64 0
M  V30 19231 O 1834.47 0.857263 1.82244 0
M  V30 19232 C 1831.53 1.76965 2.98135 0
M  V30 19233 C 1830.59 3.00597 3.06496 0
M  V30 19234 C 1829.83 3.07348 4.36317 0
M  V30 19235 O 1830.05 2.21432 5.25665 0
M  V30 19236 O 1828.98 3.99898 4.4985 0
M  V30 19237 H 1832.81 2.65332 1.47759 0
M  V30 19238 H 1830.39 1.33596 0.668761 0
M  V30 19239 H 1832.28 1.83932 3.7914 0
M  V30 19240 H 1830.95 0.846807 3.12427 0
M  V30 19241 H 1829.86 2.99142 2.24643 0
M  V30 19242 H 1831.19 3.92393 2.97133 0
M  V30 19243 N 1832.84 -0.743177 1.38977 0
M  V30 19244 C 1834.09 -1.50256 1.35755 0
M  V30 19245 C 1834.42 -1.94438 -0.0491287 0
M  V30 19246 O 1833.67 -1.66505 -1.02834 0
M  V30 19247 C 1833.97 -2.76157 2.26874 0
M  V30 19248 C 1833.64 -2.50885 3.74657 0
M  V30 19249 C 1832.3 -2.43702 4.14925 0
M  V30 19250 C 1834.65 -2.29075 4.6816 0
M  V30 19251 C 1831.98 -2.12738 5.46772 0
M  V30 19252 C 1834.33 -1.9963 6.00275 0
M  V30 19253 C 1833 -1.9091 6.39617 0
M  V30 19254 H 1832.27 -0.549827 0.496761 0
M  V30 19255 H 1834.91 -0.85369 1.71419 0
M  V30 19256 H 1833.22 -3.45746 1.84301 0
M  V30 19257 H 1834.92 -3.34155 2.21679 0
M  V30 19258 H 1831.51 -2.57351 3.42737 0
M  V30 19259 H 1835.69 -2.33597 4.37888 0
M  V30 19260 H 1830.95 -2.04504 5.76184 0
M  V30 19261 H 1835.12 -1.8176 6.72262 0
M  V30 19262 H 1832.75 -1.66683 7.41701 0
M  V30 19263 N 1834.32 -1.24018 -0.972487 0
M  V30 19264 C 1835.73 -1.07076 -1.52943 0
M  V30 19265 C 1836.08 0.35937 -1.92881 0
M  V30 19266 O 1835.21 1.24713 -1.76849 0
M  V30 19267 C 1835.8 -1.93753 -2.7793 0
M  V30 19268 C 1834.36 -1.81048 -3.29998 0
M  V30 19269 C 1833.51 -1.88977 -2.02936 0
M  V30 19270 H 1836.46 -1.37565 -0.791304 0
M  V30 19271 H 1836.48 -1.46699 -3.51084 0
M  V30 19272 H 1835.99 -2.97833 -2.48832 0
M  V30 19273 H 1834.1 -0.797825 -3.63958 0
M  V30 19274 H 1834.21 -2.64876 -3.99221 0
M  V30 19275 H 1832.57 -1.32649 -2.17431 0
M  V30 19276 H 1833.36 -2.94627 -1.76209 0
M  V30 19277 N 1835.8 1.17245 -1.05316 0
M  V30 19278 C 1836.75 2.23357 -0.649174 0
M  V30 19279 C 1837.74 1.66152 0.33015 0
M  V30 19280 O 1838.95 1.78929 0.196078 0
M  V30 19281 H 1835.32 0.727139 -0.191762 0
M  V30 19282 H 1837.29 2.54728 -1.55423 0
M  V30 19283 C 1836.04 3.47676 -0.0412049 0
M  V30 19284 H 1835.37 3.92 -0.785858 0
M  V30 19285 H 1836.81 4.23509 0.204073 0
M  V30 19286 C 1835.27 3.14326 1.21247 0
M  V30 19287 O 1835.8 3.29218 2.3017 0
M  V30 19288 N 1834 2.68541 1.1106 0
M  V30 19289 H 1833.55 2.56622 0.224212 0
M  V30 19290 H 1833.51 2.466 1.95028 0
M  V30 19291 N 1837.28 0.834353 1.33702 0
M  V30 19292 C 1838.53 0.424225 1.97188 0
M  V30 19293 C 1838.84 -1.02086 1.66846 0
M  V30 19294 O 1840.05 -1.53545 2.23911 0
M  V30 19295 C 1838.5 0.707628 3.52875 0
M  V30 19296 C 1838.11 2.16709 3.92098 0
M  V30 19297 C 1839.85 0.364228 4.22935 0
M  V30 19298 C 1837.76 2.39478 5.40744 0
M  V30 19299 H 1836.69 0.154897 0.737918 0
M  V30 19300 H 1839.34 1.02231 1.52385 0
M  V30 19301 H 1837.72 0.0392323 3.95981 0
M  V30 19302 H 1838.9 2.87559 3.60064 0
M  V30 19303 H 1837.21 2.47303 3.35008 0
M  V30 19304 H 1839.81 0.512031 5.32243 0
M  V30 19305 H 1840.15 -0.692375 4.10502 0
M  V30 19306 H 1840.69 0.98767 3.85344 0
M  V30 19307 H 1837.43 3.43687 5.58175 0
M  V30 19308 H 1836.95 1.73184 5.74254 0
M  V30 19309 H 1838.62 2.22406 6.07573 0
M  V30 19310 N 1838.76 -1.46125 0.590367 0
M  V30 19311 C 1840 -2.01947 0.0787256 0
M  V30 19312 C 1840.33 -1.4634 -1.28878 0
M  V30 19313 O 1839.6 -0.651011 -1.84767 0
M  V30 19314 H 1838.18 -0.746543 0.0261125 0
M  V30 19315 H 1840.84 -1.79136 0.767877 0
M  V30 19316 H 1839.93 -3.12096 0.0154914 0
M  V30 19317 N 1840.23 -0.328564 -1.54137 0
M  V30 19318 C 1841.46 0.277044 -2.05541 0
M  V30 19319 C 1841.88 1.44613 -1.20285 0
M  V30 19320 O 1841.24 1.80043 -0.213107 0
M  V30 19321 C 1841.29 0.684495 -3.54044 0
M  V30 19322 O 1840.39 1.78629 -3.71706 0
M  V30 19323 H 1839.74 0.049078 -0.662184 0
M  V30 19324 H 1842.27 -0.478426 -1.98928 0
M  V30 19325 H 1842.28 0.965784 -3.96405 0
M  V30 19326 H 1840.95 -0.170554 -4.1555 0
M  V30 19327 H 1839.53 1.50343 -3.4125 0
M  V30 19328 N 1841.71 1.57497 -0.0568439 0
M  V30 19329 C 1842.96 1.94017 0.610648 0
M  V30 19330 C 1843.31 0.935679 1.68115 0
M  V30 19331 O 1842.61 -0.0443081 1.91549 0
M  V30 19332 C 1842.8 3.35 1.24538 0
M  V30 19333 C 1842.63 4.4907 0.237887 0
M  V30 19334 C 1841.4 5.05007 -0.172154 0
M  V30 19335 C 1843.6 5.11675 -0.518951 0
M  V30 19336 N 1841.58 6.0261 -1.17192 0
M  V30 19337 C 1842.95 6.04637 -1.37163 0
M  V30 19338 C 1845.01 4.94549 -0.576647 0
M  V30 19339 C 1843.71 6.82314 -2.27685 0
M  V30 19340 C 1845.73 5.72857 -1.46931 0
M  V30 19341 C 1845.1 6.65456 -2.3097 0
M  V30 19342 H 1841.2 0.757316 0.194927 0
M  V30 19343 H 1843.78 1.94262 -0.1305 0
M  V30 19344 H 1841.95 3.35521 1.95653 0
M  V30 19345 H 1843.68 3.58794 1.87214 0
M  V30 19346 H 1840.44 4.73143 0.207956 0
M  V30 19347 H 1840.86 6.56108 -1.66886 0
M  V30 19348 H 1845.5 4.22759 0.0588676 0
M  V30 19349 H 1843.22 7.53391 -2.92279 0
M  V30 19350 H 1846.81 5.61631 -1.5186 0
M  V30 19351 H 1845.69 7.24992 -2.98924 0
M  V30 19352 N 1843.19 -0.216591 1.56105 0
M  V30 19353 C 1844.61 -0.56651 1.49207 0
M  V30 19354 C 1844.81 -1.86906 0.752882 0
M  V30 19355 O 1843.86 -2.50776 0.294573 0
M  V30 19356 C 1845.18 -0.641146 2.93785 0
M  V30 19357 C 1846.72 -0.731439 3.04334 0
M  V30 19358 C 1847.2 -0.837376 4.5028 0
M  V30 19359 N 1848.69 -0.901468 4.54343 0
M  V30 19360 C 1849.42 -1.00323 5.64555 0
M  V30 19361 N 1848.92 -1.06864 6.84509 0
M  V30 19362 N 1850.71 -1.03876 5.52419 0
M  V30 19363 H 1842.86 0.638091 2.02589 0
M  V30 19364 H 1845.13 0.224543 0.921024 0
M  V30 19365 H 1844.83 0.246454 3.50835 0
M  V30 19366 H 1844.71 -1.5031 3.45958 0
M  V30 19367 H 1847.09 -1.60948 2.47346 0
M  V30 19368 H 1847.18 0.15628 2.55322 0
M  V30 19369 H 1846.82 0.0362262 5.07887 0
M  V30 19370 H 1846.75 -1.74058 4.97002 0
M  V30 19371 H 1849.24 -0.861039 3.6796 0
M  V30 19372 H 1849.55 -1.1462 7.64253 0
M  V30 19373 H 1847.9 -1.03768 6.8721 0
M  V30 19374 H 1851.09 -0.984348 4.57633 0
M  V30 19375 H 1851.26 -1.11461 6.38342 0
M  V30 19376 N 1844.67 -1.5 -0.48349 0
M  V30 19377 C 1845.62 -1.68467 -1.6038 0
M  V30 19378 C 1846.61 -0.550508 -1.60205 0
M  V30 19379 O 1847.82 -0.730656 -1.64504 0
M  V30 19380 H 1844.19 -0.531525 -0.531964 0
M  V30 19381 H 1846.16 -2.62468 -1.41962 0
M  V30 19382 C 1844.91 -1.78462 -2.98407 0
M  V30 19383 H 1844.23 -2.65117 -2.99254 0
M  V30 19384 H 1845.67 -1.95413 -3.76284 0
M  V30 19385 C 1844.13 -0.533368 -3.32651 0
M  V30 19386 O 1844.66 0.333087 -4.00317 0
M  V30 19387 N 1842.87 -0.391077 -2.87957 0
M  V30 19388 H 1842.42 -1.09719 -2.33066 0
M  V30 19389 H 1842.37 0.444995 -3.11235 0
M  V30 19390 N 1846.15 0.735796 -1.39369 0
M  V30 19391 C 1847.11 1.83148 -1.37802 0
M  V30 19392 C 1848.11 1.58426 -0.27528 0
M  V30 19393 O 1849.3 1.65841 -0.53314 0
M  V30 19394 C 1846.43 3.20923 -1.14984 0
M  V30 19395 H 1847.62 1.85941 -2.353 0
M  V30 19396 H 1845.18 0.939367 -1.24922 0
M  V30 19397 H 1845.91 3.23791 -0.181648 0
M  V30 19398 H 1845.7 3.40264 -1.94841 0
M  V30 19399 H 1847.19 4.00984 -1.16626 0
M  V30 19400 N 1847.63 1.24532 0.965897 0
M  V30 19401 C 1848.87 1.08609 1.7091 0
M  V30 19402 C 1849.2 -0.374781 1.90855 0
M  V30 19403 O 1848.46 -1.29321 1.46883 0
M  V30 19404 C 1848.75 1.77305 3.10319 0
M  V30 19405 C 1848.42 3.27233 3.10209 0
M  V30 19406 C 1847.08 3.68136 3.09887 0
M  V30 19407 C 1849.43 4.23071 3.04402 0
M  V30 19408 C 1846.76 5.03309 3.01492 0
M  V30 19409 C 1849.11 5.58254 2.9755 0
M  V30 19410 C 1847.78 5.985 2.95557 0
M  V30 19411 H 1847.05 0.39743 0.625404 0
M  V30 19412 H 1849.7 1.54658 1.12929 0
M  V30 19413 H 1848 1.23655 3.71775 0
M  V30 19414 H 1849.7 1.62449 3.66622 0
M  V30 19415 H 1846.29 2.9468 3.11226 0
M  V30 19416 H 1850.47 3.92469 3.03779 0
M  V30 19417 H 1845.73 5.33686 2.98311 0
M  V30 19418 H 1849.9 6.32218 2.92016 0
M  V30 19419 H 1847.53 7.03203 2.88807 0
M  V30 19420 N 1849.1 -1.16685 1.05936 0
M  V30 19421 C 1850.07 -2.19155 0.671098 0
M  V30 19422 C 1851.07 -1.5832 -0.281305 0
M  V30 19423 O 1852.26 -1.74082 -0.0641708 0
M  V30 19424 C 1849.39 -3.40897 -0.0131101 0
M  V30 19425 H 1850.58 -2.55019 1.57815 0
M  V30 19426 H 1848.13 -1.30897 0.854147 0
M  V30 19427 H 1848.87 -3.10587 -0.933077 0
M  V30 19428 H 1848.65 -3.86304 0.671687 0
M  V30 19429 H 1850.14 -4.16722 -0.270606 0
M  V30 19430 N 1850.58 -0.841432 -1.33258 0
M  V30 19431 C 1851.53 -0.265077 -2.31085 0
M  V30 19432 C 1852.52 0.604339 -1.58253 0
M  V30 19433 O 1853.73 0.493615 -1.731 0
M  V30 19434 H 1850.1 -0.0669974 -0.74901 0
M  V30 19435 H 1852.08 -1.10464 -2.77201 0
M  V30 19436 C 1850.82 0.542926 -3.43435 0
M  V30 19437 H 1850.15 -0.116767 -3.99629 0
M  V30 19438 H 1851.59 0.912004 -4.14075 0
M  V30 19439 C 1850.05 1.72284 -2.89517 0
M  V30 19440 O 1850.58 2.82161 -2.85916 0
M  V30 19441 N 1848.78 1.54557 -2.4609 0
M  V30 19442 H 1848.33 0.651752 -2.49219 0
M  V30 19443 H 1848.29 2.33651 -2.10367 0
M  V30 19444 N 1852.06 1.4581 -0.598108 0
M  V30 19445 C 1853.34 1.95588 -0.0220376 0
M  V30 19446 C 1853.72 1.54066 1.44316 0
M  V30 19447 O 1853.06 0.798663 2.14088 0
M  V30 19448 C 1853.27 3.48366 -0.210204 0
M  V30 19449 C 1854.62 4.24513 -0.0860474 0
M  V30 19450 O 1855.65 3.55925 -0.139833 0
M  V30 19451 O 1854.51 5.46488 0.0367961 0
M  V30 19452 H 1851.6 0.825977 0.0411123 0
M  V30 19453 H 1854.15 1.56021 -0.667506 0
M  V30 19454 H 1852.92 3.71526 -1.22818 0
M  V30 19455 H 1852.54 3.94801 0.470974 0
M  V30 19456 N 1853.54 0.336733 1.53961 0
M  V30 19457 C 1854.77 -0.263446 2.05216 0
M  V30 19458 C 1855.18 -1.44752 1.21212 0
M  V30 19459 O 1854.54 -1.80837 0.245844 0
M  V30 19460 C 1854.59 -0.685127 3.54948 0
M  V30 19461 O 1854.31 0.451854 4.35764 0
M  V30 19462 C 1855.81 -1.34674 4.22348 0
M  V30 19463 H 1853.03 -0.0520687 0.668977 0
M  V30 19464 H 1855.57 0.486744 1.98623 0
M  V30 19465 H 1853.73 -1.38527 3.61786 0
M  V30 19466 H 1854.14 0.117076 5.24369 0
M  V30 19467 H 1855.62 -1.59261 5.28526 0
M  V30 19468 H 1856.09 -2.29818 3.74273 0
M  V30 19469 H 1856.7 -0.688817 4.19685 0
M  V30 19470 N 1855.02 -1.57465 0.0651956 0
M  V30 19471 C 1856.26 -1.92414 -0.604961 0
M  V30 19472 C 1856.58 -0.946628 -1.71167 0
M  V30 19473 O 1857.78 -1.18869 -2.44095 0
M  V30 19474 C 1856.24 -3.41786 -1.12741 0
M  V30 19475 C 1855.85 -4.4797 -0.0520584 0
M  V30 19476 C 1857.59 -3.85746 -1.77201 0
M  V30 19477 C 1855.5 -5.88468 -0.588181 0
M  V30 19478 H 1854.43 -0.718147 -0.229742 0
M  V30 19479 H 1857.08 -1.82993 0.136361 0
M  V30 19480 H 1855.46 -3.46258 -1.92149 0
M  V30 19481 H 1856.64 -4.55105 0.722215 0
M  V30 19482 H 1854.95 -4.13436 0.495917 0
M  V30 19483 H 1857.55 -4.88093 -2.18332 0
M  V30 19484 H 1857.89 -3.22754 -2.62937 0
M  V30 19485 H 1858.42 -3.83849 -1.04426 0
M  V30 19486 H 1855.16 -6.5509 0.231865 0
M  V30 19487 H 1854.68 -5.84866 -1.33012 0
M  V30 19488 H 1856.36 -6.38147 -1.06667 0
M  V30 19489 N 1856.49 0.20831 -1.56217 0
M  V30 19490 C 1857.9 0.774162 -1.69893 0
M  V30 19491 C 1858.26 1.84424 -0.669506 0
M  V30 19492 O 1857.38 2.15677 0.176748 0
M  V30 19493 C 1857.98 1.41102 -3.08019 0
M  V30 19494 C 1856.53 1.9241 -3.23505 0
M  V30 19495 C 1855.68 0.789129 -2.65835 0
M  V30 19496 H 1858.63 -0.0165614 -1.58691 0
M  V30 19497 H 1858.65 2.28015 -3.04614 0
M  V30 19498 H 1858.17 0.631966 -3.8292 0
M  V30 19499 H 1856.27 2.73076 -2.53496 0
M  V30 19500 H 1856.38 2.09497 -4.30868 0
M  V30 19501 H 1854.74 1.19995 -2.24663 0
M  V30 19502 H 1855.53 0.0225345 -3.43293 0
M  V30 19503 N 1857.97 1.50255 0.475528 0
M  V30 19504 C 1859.2 1.65044 1.25599 0
M  V30 19505 C 1859.62 0.331736 1.85152 0
M  V30 19506 O 1858.98 -0.703863 1.67079 0
M  V30 19507 C 1859.03 2.7405 2.34369 0
M  V30 19508 O 1858.13 2.34994 3.38897 0
M  V30 19509 H 1857.47 0.551557 0.369704 0
M  V30 19510 H 1860 1.96603 0.566422 0
M  V30 19511 H 1860.01 2.96993 2.79749 0
M  V30 19512 H 1858.69 3.6976 1.90395 0
M  V30 19513 H 1857.26 2.22481 2.9926 0
M  V30 19514 N 1859.45 -0.728395 1.39758 0
M  V30 19515 C 1860.36 -1.87279 1.41293 0
M  V30 19516 C 1861.38 -1.71271 0.306965 0
M  V30 19517 O 1862.55 -1.93759 0.549502 0
M  V30 19518 C 1859.62 -3.22943 1.2613 0
M  V30 19519 C 1858.68 -3.51297 2.46756 0
M  V30 19520 C 1857.91 -4.80489 2.32307 0
M  V30 19521 O 1858.13 -5.54676 1.33005 0
M  V30 19522 O 1857.07 -5.08891 3.21425 0
M  V30 19523 H 1860.89 -1.88939 2.37773 0
M  V30 19524 H 1858.48 -0.877103 1.20943 0
M  V30 19525 H 1860.36 -4.04003 1.19832 0
M  V30 19526 H 1859.04 -3.22039 0.327492 0
M  V30 19527 H 1857.94 -2.70298 2.58631 0
M  V30 19528 H 1859.28 -3.56986 3.38853 0
M  V30 19529 N 1860.93 -1.25042 -0.959279 0
M  V30 19530 C 1862.15 -1.12339 -1.74341 0
M  V30 19531 C 1862.58 0.319342 -1.85369 0
M  V30 19532 O 1861.94 1.23129 -1.33075 0
M  V30 19533 C 1861.98 -1.77734 -3.13756 0
M  V30 19534 O 1861.09 -1.05383 -3.98708 0
M  V30 19535 H 1860.43 -0.392479 -0.535589 0
M  V30 19536 H 1862.96 -1.65516 -1.20274 0
M  V30 19537 H 1862.97 -1.83832 -3.64239 0
M  V30 19538 H 1861.64 -2.82702 -3.05045 0
M  V30 19539 H 1860.22 -1.07132 -3.57179 0
M  V30 19540 N 1862.41 1.16121 -1.06553 0
M  V30 19541 C 1863.64 1.90335 -0.803506 0
M  V30 19542 C 1864.04 1.77824 0.646172 0
M  V30 19543 O 1863.39 1.12231 1.4543 0
M  V30 19544 C 1863.45 3.41537 -1.12219 0
M  V30 19545 C 1863.11 3.77833 -2.57082 0
M  V30 19546 C 1864.11 3.79533 -3.55318 0
M  V30 19547 C 1861.8 4.08385 -2.92449 0
M  V30 19548 C 1863.79 4.11277 -4.8696 0
M  V30 19549 C 1861.48 4.39795 -4.24291 0
M  V30 19550 C 1862.47 4.41221 -5.21357 0
M  V30 19551 O 1862.16 4.71883 -6.50831 0
M  V30 19552 H 1861.89 0.610323 -0.290658 0
M  V30 19553 H 1864.45 1.48107 -1.42315 0
M  V30 19554 H 1862.68 3.84125 -0.445483 0
M  V30 19555 H 1864.37 3.97029 -0.843985 0
M  V30 19556 H 1865.13 3.56038 -3.29336 0
M  V30 19557 H 1861.01 4.06439 -2.17551 0
M  V30 19558 H 1864.56 4.12305 -5.62717 0
M  V30 19559 H 1860.45 4.62756 -4.5003 0
M  V30 19560 H 1861.22 4.89683 -6.5586 0
M  V30 19561 N 1863.88 0.848487 1.3281 0
M  V30 19562 C 1865.13 0.445116 1.96727 0
M  V30 19563 C 1865.45 -1.00311 1.6792 0
M  V30 19564 O 1866.65 -1.51162 2.25527 0
M  V30 19565 C 1865.11 0.745015 3.52104 0
M  V30 19566 C 1864.72 2.20856 3.89778 0
M  V30 19567 C 1866.46 0.409065 4.22524 0
M  V30 19568 C 1864.37 2.452 5.38174 0
M  V30 19569 H 1863.3 0.162715 0.736233 0
M  V30 19570 H 1865.95 1.03841 1.51292 0
M  V30 19571 H 1864.33 0.0812291 3.95917 0
M  V30 19572 H 1865.5 2.91362 3.56994 0
M  V30 19573 H 1863.82 2.50842 3.32366 0
M  V30 19574 H 1866.42 0.568453 5.3167 0
M  V30 19575 H 1866.76 -0.648796 4.11213 0
M  V30 19576 H 1867.29 1.02848 3.84275 0
M  V30 19577 H 1864.03 3.49588 5.54499 0
M  V30 19578 H 1863.55 1.79265 5.72384 0
M  V30 19579 H 1865.23 2.28838 6.0518 0
M  V30 19580 N 1865.36 -1.4549 0.605832 0
M  V30 19581 C 1866.59 -2.07135 0.104838 0
M  V30 19582 C 1867.01 -1.4478 -1.20085 0
M  V30 19583 O 1866.37 -0.539875 -1.73075 0
M  V30 19584 C 1866.42 -3.60593 -0.0231858 0
M  V30 19585 O 1865.52 -3.98173 -1.07386 0
M  V30 19586 H 1864.86 -0.659945 0.0732691 0
M  V30 19587 H 1867.39 -1.8677 0.835343 0
M  V30 19588 H 1867.4 -4.07396 -0.221964 0
M  V30 19589 H 1866.08 -4.05364 0.930211 0
M  V30 19590 H 1864.66 -3.63044 -0.851689 0
M  V30 19591 N 1866.84 -0.344893 -1.5378 0
M  V30 19592 C 1867.8 0.498781 -2.23707 0
M  V30 19593 C 1868.8 1.02649 -1.23773 0
M  V30 19594 O 1869.99 0.915526 -1.48202 0
M  V30 19595 C 1867.13 1.69497 -2.95776 0
M  V30 19596 H 1868.32 -0.112815 -2.99688 0
M  V30 19597 H 1865.87 -0.0962613 -1.56003 0
M  V30 19598 H 1866.61 2.34522 -2.23986 0
M  V30 19599 H 1866.39 1.32376 -3.69079 0
M  V30 19600 H 1867.88 2.29334 -3.48992 0
M  V30 19601 N 1868.32 1.57428 -0.0735454 0
M  V30 19602 C 1869.56 1.93843 0.596054 0
M  V30 19603 C 1869.9 0.953931 1.69156 0
M  V30 19604 O 1869.17 -0.0165729 1.94493 0
M  V30 19605 C 1869.46 3.40516 1.17137 0
M  V30 19606 C 1869.31 4.49725 0.0823861 0
M  V30 19607 C 1870.63 3.88042 2.07634 0
M  V30 19608 H 1867.75 0.70488 0.215204 0
M  V30 19609 H 1870.39 1.89484 -0.139871 0
M  V30 19610 H 1868.54 3.44361 1.79855 0
M  V30 19611 H 1870.21 4.58 -0.55078 0
M  V30 19612 H 1868.45 4.29813 -0.586788 0
M  V30 19613 H 1869.12 5.49494 0.525354 0
M  V30 19614 H 1871.6 3.86214 1.54849 0
M  V30 19615 H 1870.48 4.91277 2.44822 0
M  V30 19616 H 1870.74 3.26084 2.98532 0
M  V30 19617 N 1869.8 -0.200022 1.56326 0
M  V30 19618 C 1870.73 -1.27187 1.90673 0
M  V30 19619 C 1871.74 -1.41961 0.796933 0
M  V30 19620 O 1872.93 -1.42474 1.07533 0
M  V30 19621 C 1870.03 -2.64468 2.11919 0
M  V30 19622 C 1869.2 -2.71366 3.43044 0
M  V30 19623 C 1868.26 -3.89809 3.53462 0
M  V30 19624 O 1867.29 -3.77142 4.26325 0
M  V30 19625 N 1868.49 -5.05052 2.86187 0
M  V30 19626 H 1871.26 -0.980397 2.83211 0
M  V30 19627 H 1868.82 -0.389967 1.57133 0
M  V30 19628 H 1870.81 -3.42122 2.16182 0
M  V30 19629 H 1869.38 -2.86124 1.25904 0
M  V30 19630 H 1868.6 -1.80024 3.50692 0
M  V30 19631 H 1869.89 -2.72961 4.29383 0
M  V30 19632 H 1869.28 -5.18242 2.26808 0
M  V30 19633 H 1867.84 -5.8067 2.96083 0
M  V30 19634 N 1871.27 -1.50505 -0.467553 0
M  V30 19635 C 1872.24 -1.69071 -1.54751 0
M  V30 19636 C 1873.24 -0.561325 -1.50684 0
M  V30 19637 O 1874.43 -0.828412 -1.53242 0
M  V30 19638 C 1871.56 -1.71922 -2.94373 0
M  V30 19639 H 1872.75 -2.65425 -1.39605 0
M  V30 19640 H 1870.31 -1.40039 -0.694177 0
M  V30 19641 H 1871.04 -0.772734 -3.14959 0
M  V30 19642 H 1870.83 -2.53972 -2.98732 0
M  V30 19643 H 1872.32 -1.88228 -3.72773 0
M  V30 19644 N 1872.75 0.720973 -1.40142 0
M  V30 19645 C 1873.72 1.81676 -1.39737 0
M  V30 19646 C 1874.72 1.58125 -0.292068 0
M  V30 19647 O 1875.91 1.65266 -0.550699 0
M  V30 19648 C 1873.04 3.19685 -1.18381 0
M  V30 19649 H 1874.23 1.83435 -2.37259 0
M  V30 19650 H 1871.78 0.926064 -1.25912 0
M  V30 19651 H 1872.52 3.2358 -0.21598 0
M  V30 19652 H 1872.3 3.38178 -1.98439 0
M  V30 19653 H 1873.79 3.99724 -1.20873 0
M  V30 19654 N 1874.23 1.25549 0.952634 0
M  V30 19655 C 1875.18 1.02791 2.03514 0
M  V30 19656 C 1876.16 -0.0358706 1.6086 0
M  V30 19657 O 1877.36 0.179707 1.76085 0
M  V30 19658 C 1874.49 0.650727 3.37076 0
M  V30 19659 C 1873.57 1.75137 3.86248 0
M  V30 19660 N 1873.96 2.98686 4.08192 0
M  V30 19661 C 1872.26 1.63235 4.15055 0
M  V30 19662 C 1872.96 3.70141 4.48743 0
M  V30 19663 N 1871.94 2.97771 4.54789 0
M  V30 19664 H 1875.74 1.96585 2.18476 0
M  V30 19665 H 1873.25 1.15898 1.13761 0
M  V30 19666 H 1875.25 0.468871 4.14255 0
M  V30 19667 H 1873.91 -0.279854 3.23492 0
M  V30 19668 H 1874.92 3.3471 3.95208 0
M  V30 19669 H 1871.6 0.770867 4.10322 0
M  V30 19670 H 1872.99 4.762 4.74008 0
M  V30 19671 N 1875.71 -1.15554 1.07168 0
M  V30 19672 C 1876.64 -2.22387 0.71178 0
M  V30 19673 C 1877.62 -1.67435 -0.299908 0
M  V30 19674 O 1878.8 -1.93427 -0.173073 0
M  V30 19675 C 1875.93 -3.47136 0.106815 0
M  V30 19676 C 1874.89 -4.15035 1.04545 0
M  V30 19677 C 1874.21 -5.33839 0.303337 0
M  V30 19678 C 1875.51 -4.65011 2.37827 0
M  V30 19679 H 1877.21 -2.52748 1.60496 0
M  V30 19680 H 1874.75 -1.21485 0.773139 0
M  V30 19681 H 1876.71 -4.21108 -0.15689 0
M  V30 19682 H 1875.43 -3.16101 -0.821429 0
M  V30 19683 H 1874.09 -3.43001 1.29405 0
M  V30 19684 H 1873.74 -4.9906 -0.628308 0
M  V30 19685 H 1873.44 -5.8021 0.928964 0
M  V30 19686 H 1874.96 -6.10582 0.0473869 0
M  V30 19687 H 1876.38 -5.3052 2.17305 0
M  V30 19688 H 1874.77 -5.22038 2.95967 0
M  V30 19689 H 1875.84 -3.80748 3.00264 0
M  V30 19690 N 1877.19 -0.855519 -1.32358 0
M  V30 19691 C 1878.44 -0.458415 -1.96832 0
M  V30 19692 C 1878.76 0.98946 -1.68032 0
M  V30 19693 O 1878.03 1.69161 -0.987995 0
M  V30 19694 H 1876.61 -0.166527 -0.728202 0
M  V30 19695 H 1879.27 -1.09214 -1.61426 0
M  V30 19696 H 1878.36 -0.604185 -3.06196 0
M  V30 19697 N 1878.67 1.45167 -0.61354 0
M  V30 19698 C 1879.89 2.06565 -0.117608 0
M  V30 19699 C 1880.31 1.45716 1.20051 0
M  V30 19700 O 1879.67 0.573512 1.73254 0
M  V30 19701 C 1879.72 3.61493 0.0221474 0
M  V30 19702 O 1879.44 4.20072 -1.24383 0
M  V30 19703 C 1880.94 4.39889 0.548841 0
M  V30 19704 H 1878.16 0.667172 -0.0715756 0
M  V30 19705 H 1880.7 1.86318 -0.84296 0
M  V30 19706 H 1878.86 3.81063 0.697854 0
M  V30 19707 H 1879.27 5.13317 -1.07733 0
M  V30 19708 H 1880.75 5.48776 0.595696 0
M  V30 19709 H 1881.22 4.1009 1.57234 0
M  V30 19710 H 1881.83 4.25198 -0.0930203 0
M  V30 19711 N 1880.14 0.353044 1.53595 0
M  V30 19712 C 1881.07 -0.491481 2.28269 0
M  V30 19713 C 1882.05 -1.0946 1.30201 0
M  V30 19714 O 1883.24 -1.11421 1.59056 0
M  V30 19715 C 1880.37 -1.63776 3.06259 0
M  V30 19716 C 1879.32 -1.16251 4.1191 0
M  V30 19717 C 1878.65 -2.39805 4.7791 0
M  V30 19718 C 1879.95 -0.256191 5.21671 0
M  V30 19719 H 1881.64 0.131483 2.99111 0
M  V30 19720 H 1879.19 0.0646771 1.43855 0
M  V30 19721 H 1881.14 -2.2351 3.57241 0
M  V30 19722 H 1879.87 -2.28777 2.33085 0
M  V30 19723 H 1878.53 -0.587934 3.61855 0
M  V30 19724 H 1878.17 -3.03234 4.0132 0
M  V30 19725 H 1877.87 -2.08684 5.49295 0
M  V30 19726 H 1879.4 -3.00248 5.3168 0
M  V30 19727 H 1880.81 -0.760642 5.68232 0
M  V30 19728 H 1879.21 -0.0364273 6.00089 0
M  V30 19729 H 1880.28 0.705105 4.79746 0
M  V30 19730 N 1881.62 -1.57387 0.0818932 0
M  V30 19731 C 1882.86 -1.95747 -0.58843 0
M  V30 19732 C 1883.23 -0.961967 -1.66163 0
M  V30 19733 O 1884.43 -1.23358 -2.38822 0
M  V30 19734 C 1882.7 -3.38689 -1.14126 0
M  V30 19735 S 1884.26 -3.99034 -1.8253 0
M  V30 19736 H 1881.07 -0.684474 -0.192395 0
M  V30 19737 H 1883.68 -1.94859 0.158155 0
M  V30 19738 H 1882.38 -4.08918 -0.348477 0
M  V30 19739 H 1881.91 -3.43143 -1.92397 0
M  V30 19740 H 1883.93 -3.86762 -3.10854 0
M  V30 19741 N 1883.1 0.191729 -1.56429 0
M  V30 19742 C 1884.32 0.931804 -1.85289 0
M  V30 19743 C 1884.75 1.7592 -0.665864 0
M  V30 19744 O 1884.11 1.77158 0.385313 0
M  V30 19745 C 1884.16 1.801 -3.12404 0
M  V30 19746 O 1883.26 2.9002 -2.93193 0
M  V30 19747 H 1882.6 0.262213 -0.610033 0
M  V30 19748 H 1885.13 0.196028 -2.03659 0
M  V30 19749 H 1885.14 2.20499 -3.43285 0
M  V30 19750 H 1883.82 1.19309 -3.9842 0
M  V30 19751 H 1882.39 2.53352 -2.73619 0
M  V30 19752 N 1884.58 1.50751 0.459565 0
M  V30 19753 C 1885.51 1.66621 1.57385 0
M  V30 19754 C 1886.52 0.547358 1.53323 0
M  V30 19755 O 1887.71 0.820941 1.58502 0
M  V30 19756 C 1884.81 1.64524 2.96285 0
M  V30 19757 C 1883.98 2.92631 3.25093 0
M  V30 19758 C 1883.04 2.83021 4.43605 0
M  V30 19759 O 1882.07 3.56977 4.43347 0
M  V30 19760 N 1883.27 1.97358 5.45921 0
M  V30 19761 H 1886.04 2.62738 1.44184 0
M  V30 19762 H 1883.6 1.48359 0.64817 0
M  V30 19763 H 1885.59 1.55693 3.73553 0
M  V30 19764 H 1884.16 0.760945 3.03197 0
M  V30 19765 H 1883.38 3.15502 2.36331 0
M  V30 19766 H 1884.67 3.77477 3.41157 0
M  V30 19767 H 1884.07 1.36608 5.48958 0
M  V30 19768 H 1882.62 1.94422 6.22128 0
M  V30 19769 N 1886.06 -0.713531 1.40522 0
M  V30 19770 C 1887.28 -1.50766 1.42423 0
M  V30 19771 C 1887.71 -1.88082 0.0262417 0
M  V30 19772 O 1887.06 -1.5341 -0.966185 0
M  V30 19773 C 1887.11 -2.75813 2.32291 0
M  V30 19774 O 1886.22 -3.726 1.76758 0
M  V30 19775 H 1885.56 -0.454473 0.484098 0
M  V30 19776 H 1888.09 -0.878583 1.84776 0
M  V30 19777 H 1888.1 -3.2432 2.47549 0
M  V30 19778 H 1886.77 -2.47988 3.33878 0
M  V30 19779 H 1885.35 -3.31455 1.70857 0
M  V30 19780 N 1887.53 -1.26053 -0.945962 0
M  V30 19781 C 1888.46 -1.09687 -2.06134 0
M  V30 19782 C 1889.44 -0.00341513 -1.701 0
M  V30 19783 O 1890.63 -0.174559 -1.93414 0
M  V30 19784 C 1887.76 -0.724007 -3.3967 0
M  V30 19785 C 1886.71 -1.76866 -3.89747 0
M  V30 19786 C 1886.04 -1.25025 -5.19878 0
M  V30 19787 C 1887.34 -3.16923 -4.15159 0
M  V30 19788 H 1889.03 -2.02986 -2.20084 0
M  V30 19789 H 1886.58 -0.977346 -1.05754 0
M  V30 19790 H 1888.53 -0.596411 -4.17158 0
M  V30 19791 H 1887.26 0.244695 -3.25682 0
M  V30 19792 H 1885.92 -1.88485 -3.14435 0
M  V30 19793 H 1885.56 -0.271527 -5.02267 0
M  V30 19794 H 1885.26 -1.94853 -5.54352 0
M  V30 19795 H 1886.79 -1.13523 -5.99954 0
M  V30 19796 H 1888.2 -3.08409 -4.83277 0
M  V30 19797 H 1886.6 -3.84299 -4.60906 0
M  V30 19798 H 1887.67 -3.63337 -3.21114 0
M  V30 19799 N 1889.01 1.14984 -1.07779 0
M  V30 19800 C 1890.42 1.67453 -0.825611 0
M  V30 19801 C 1890.77 1.85168 0.648631 0
M  V30 19802 O 1889.9 1.55817 1.50167 0
M  V30 19803 C 1890.49 3.04172 -1.49214 0
M  V30 19804 C 1889.05 3.53701 -1.28736 0
M  V30 19805 C 1888.2 2.29324 -1.55903 0
M  V30 19806 H 1891.15 0.99138 -1.23925 0
M  V30 19807 H 1891.17 3.69315 -0.915779 0
M  V30 19808 H 1890.68 2.91247 -2.56509 0
M  V30 19809 H 1888.78 3.71859 -0.234821 0
M  V30 19810 H 1888.9 4.34871 -2.01056 0
M  V30 19811 H 1887.26 2.35081 -0.980257 0
M  V30 19812 H 1888.04 2.18982 -2.6439 0
M  V30 19813 N 1890.49 0.862526 1.31902 0
M  V30 19814 C 1891.42 0.328423 2.31179 0
M  V30 19815 C 1892.4 -0.57668 1.60026 0
M  V30 19816 O 1893.59 -0.49527 1.87778 0
M  V30 19817 C 1890.72 -0.47734 3.44004 0
M  V30 19818 C 1889.67 0.334015 4.26695 0
M  V30 19819 C 1889 -0.596973 5.31357 0
M  V30 19820 C 1890.3 1.56405 4.98332 0
M  V30 19821 H 1891.99 1.15797 2.761 0
M  V30 19822 H 1889.54 0.558268 1.32738 0
M  V30 19823 H 1891.49 -0.861461 4.12501 0
M  V30 19824 H 1890.21 -1.34033 2.9783 0
M  V30 19825 H 1888.87 0.699989 3.59855 0
M  V30 19826 H 1888.52 -1.45703 4.81435 0
M  V30 19827 H 1888.22 -0.0580517 5.87571 0
M  V30 19828 H 1889.74 -0.978099 6.02715 0
M  V30 19829 H 1891.16 1.25178 5.59467 0
M  V30 19830 H 1889.55 2.04149 5.64308 0
M  V30 19831 H 1890.62 2.32099 4.25744 0
M  V30 19832 N 1891.97 -1.4484 0.62123 0
M  V30 19833 C 1892.93 -2.29061 -0.0797989 0
M  V30 19834 C 1893.93 -1.40508 -0.781932 0
M  V30 19835 O 1895.12 -1.62485 -0.628023 0
M  V30 19836 C 1892.25 -3.21857 -1.12342 0
M  V30 19837 H 1893.45 -2.92528 0.66084 0
M  V30 19838 H 1891 -1.51588 0.3809 0
M  V30 19839 H 1891.73 -2.63218 -1.89437 0
M  V30 19840 H 1891.52 -3.87103 -0.624003 0
M  V30 19841 H 1893.01 -3.8515 -1.61398 0
M  V30 19842 N 1893.45 -0.361184 -1.53405 0
M  V30 19843 C 1894.41 0.475026 -2.24223 0
M  V30 19844 C 1895.41 1.01331 -1.24855 0
M  V30 19845 O 1896.6 0.899756 -1.49164 0
M  V30 19846 C 1893.73 1.6635 -2.97557 0
M  V30 19847 H 1894.92 -0.144595 -2.99551 0
M  V30 19848 H 1892.48 -0.112802 -1.55892 0
M  V30 19849 H 1893.21 2.32133 -2.26461 0
M  V30 19850 H 1893 1.28454 -3.70462 0
M  V30 19851 H 1894.49 2.2562 -3.51405 0
M  V30 19852 N 1894.92 1.57341 -0.0902386 0
M  V30 19853 C 1896.15 1.98934 0.586524 0
M  V30 19854 C 1896.57 0.968841 1.6123 0
M  V30 19855 O 1895.93 -0.0632868 1.8119 0
M  V30 19856 C 1895.98 3.39509 1.21516 0
M  V30 19857 O 1895.08 3.40203 2.331 0
M  V30 19858 H 1894.43 0.647009 0.14925 0
M  V30 19859 H 1896.96 2.03891 -0.170213 0
M  V30 19860 H 1896.97 3.77097 1.55762 0
M  V30 19861 H 1895.64 4.13308 0.463639 0
M  V30 19862 H 1894.22 3.14405 2.0051 0
M  V30 19863 N 1896.4 -0.183431 1.56529 0
M  V30 19864 C 1897.33 -1.22973 1.98494 0
M  V30 19865 C 1898.31 -1.46837 0.858653 0
M  V30 19866 O 1899.5 -1.58377 1.12385 0
M  V30 19867 C 1896.63 -2.57138 2.33446 0
M  V30 19868 C 1895.58 -2.47865 3.48922 0
M  V30 19869 C 1894.91 -3.8641 3.69582 0
M  V30 19870 C 1896.21 -1.99371 4.82751 0
M  V30 19871 H 1897.9 -0.880938 2.86147 0
M  V30 19872 H 1895.45 -0.422321 1.37668 0
M  V30 19873 H 1897.4 -3.30527 2.614 0
M  V30 19874 H 1896.13 -2.93781 1.42689 0
M  V30 19875 H 1894.78 -1.76932 3.21077 0
M  V30 19876 H 1894.43 -4.20426 2.76136 0
M  V30 19877 H 1894.13 -3.81077 4.47274 0
M  V30 19878 H 1895.66 -4.61403 3.99924 0
M  V30 19879 H 1897.07 -2.62526 5.0966 0
M  V30 19880 H 1895.47 -2.05014 5.63994 0
M  V30 19881 H 1896.54 -0.947442 4.75554 0
M  V30 19882 N 1897.88 -1.50992 -0.451564 0
M  V30 19883 C 1898.83 -1.71277 -1.54703 0
M  V30 19884 C 1899.8 -0.554233 -1.56581 0
M  V30 19885 O 1900.98 -0.787053 -1.73811 0
M  V30 19886 C 1898.12 -1.83078 -2.92535 0
M  V30 19887 C 1897.24 -3.10559 -3.00295 0
M  V30 19888 C 1896.37 -3.13039 -4.29162 0
M  V30 19889 C 1895.41 -4.34893 -4.30737 0
M  V30 19890 N 1894.55 -4.35002 -5.51106 0
M  V30 19891 H 1899.39 -2.64791 -1.3671 0
M  V30 19892 H 1896.92 -1.31243 -0.664356 0
M  V30 19893 H 1898.88 -1.87901 -3.7249 0
M  V30 19894 H 1897.51 -0.929851 -3.09117 0
M  V30 19895 H 1896.56 -3.15113 -2.13091 0
M  V30 19896 H 1897.88 -4.00503 -2.9732 0
M  V30 19897 H 1897.03 -3.167 -5.17481 0
M  V30 19898 H 1895.77 -2.20959 -4.34774 0
M  V30 19899 H 1894.77 -4.31423 -3.40814 0
M  V30 19900 H 1896 -5.28221 -4.26801 0
M  V30 19901 H 1893.94 -3.45785 -5.57466 0
M  V30 19902 H 1893.86 -5.18738 -5.49952 0
M  V30 19903 H 1895.13 -4.42836 -6.41496 0
M  V30 19904 N 1899.36 0.706069 -1.40899 0
M  V30 19905 C 1900.31 1.81196 -1.38391 0
M  V30 19906 C 1901.29 1.58787 -0.259924 0
M  V30 19907 O 1902.48 1.69798 -0.499779 0
M  V30 19908 C 1899.61 3.19411 -1.25823 0
M  V30 19909 C 1898.7 3.47551 -2.43042 0
M  V30 19910 N 1899.09 3.4645 -3.68519 0
M  V30 19911 C 1897.39 3.78052 -2.36627 0
M  V30 19912 C 1898.09 3.73201 -4.46202 0
M  V30 19913 N 1897.07 3.92424 -3.76171 0
M  V30 19914 H 1900.87 1.78692 -2.33338 0
M  V30 19915 H 1898.38 0.90561 -1.34805 0
M  V30 19916 H 1900.38 3.98617 -1.22108 0
M  V30 19917 H 1899.04 3.23134 -0.31852 0
M  V30 19918 H 1900.05 3.27076 -4.01549 0
M  V30 19919 H 1896.73 3.89208 -1.51074 0
M  V30 19920 H 1898.12 3.78574 -5.55096 0
M  V30 19921 N 1900.84 1.26553 0.939264 0
M  V30 19922 C 1902.06 1.14993 1.72001 0
M  V30 19923 C 1902.48 -0.29462 1.86487 0
M  V30 19924 O 1901.84 -1.20158 1.37362 0
M  V30 19925 C 1901.89 1.81598 3.12577 0
M  V30 19926 O 1901.61 3.20408 2.98781 0
M  V30 19927 C 1903.11 1.76017 4.06858 0
M  V30 19928 H 1900.33 0.400347 0.538482 0
M  V30 19929 H 1902.87 1.67209 1.17735 0
M  V30 19930 H 1901.03 1.33316 3.63739 0
M  V30 19931 H 1901.44 3.53397 3.8757 0
M  V30 19932 H 1902.92 2.27255 5.0305 0
M  V30 19933 H 1903.39 0.727075 4.3314 0
M  V30 19934 H 1904 2.2386 3.61617 0
M  V30 19935 N 1902.31 -1.14411 1.08387 0
M  V30 19936 C 1903.24 -2.21619 0.735327 0
M  V30 19937 C 1904.23 -1.67744 -0.282132 0
M  V30 19938 O 1905.41 -1.936 -0.152547 0
M  V30 19939 C 1902.54 -3.47003 0.143628 0
M  V30 19940 C 1901.49 -4.13903 1.08941 0
M  V30 19941 C 1900.82 -5.33487 0.359941 0
M  V30 19942 C 1902.12 -4.62463 2.42746 0
M  V30 19943 H 1903.81 -2.51031 1.63168 0
M  V30 19944 H 1901.36 -1.20658 0.785981 0
M  V30 19945 H 1903.31 -4.21251 -0.112217 0
M  V30 19946 H 1902.04 -3.16955 -0.787856 0
M  V30 19947 H 1900.7 -3.4161 1.33035 0
M  V30 19948 H 1900.34 -4.99699 -0.57534 0
M  V30 19949 H 1900.04 -5.79192 0.990451 0
M  V30 19950 H 1901.57 -6.10497 0.112145 0
M  V30 19951 H 1902.98 -5.28185 2.22919 0
M  V30 19952 H 1901.38 -5.18869 3.01488 0
M  V30 19953 H 1902.45 -3.77542 3.04286 0
M  V30 19954 N 1903.79 -0.869509 -1.31443 0
M  V30 19955 C 1904.72 -0.340679 -2.31001 0
M  V30 19956 C 1905.7 0.568186 -1.6033 0
M  V30 19957 O 1906.89 0.485305 -1.88038 0
M  V30 19958 C 1904.02 0.45909 -3.44252 0
M  V30 19959 C 1902.97 -0.356639 -4.26512 0
M  V30 19960 C 1902.3 0.568786 -5.31666 0
M  V30 19961 C 1903.6 -1.59045 -4.97496 0
M  V30 19962 H 1905.29 -1.1726 -2.75482 0
M  V30 19963 H 1902.84 -0.5653 -1.3244 0
M  V30 19964 H 1904.79 0.839573 -4.12952 0
M  V30 19965 H 1903.52 1.32451 -2.98537 0
M  V30 19966 H 1902.17 -0.719063 -3.59479 0
M  V30 19967 H 1901.82 1.43148 -4.82201 0
M  V30 19968 H 1901.52 0.0268906 -5.87594 0
M  V30 19969 H 1903.05 0.946122 -6.03225 0
M  V30 19970 H 1904.46 -1.28144 -5.58795 0
M  V30 19971 H 1902.86 -2.07139 -5.63217 0
M  V30 19972 H 1903.93 -2.34354 -4.24507 0
M  V30 19973 N 1905.27 1.44508 -0.628902 0
M  V30 19974 C 1906.5 2.06942 -0.137778 0
M  V30 19975 C 1906.92 1.46672 1.17766 0
M  V30 19976 O 1906.28 0.567342 1.72194 0
M  V30 19977 C 1906.33 3.60584 -0.0341843 0
M  V30 19978 O 1905.43 3.99831 1.01038 0
M  V30 19979 H 1904.77 0.658696 -0.083759 0
M  V30 19980 H 1907.3 1.85418 -0.864951 0
M  V30 19981 H 1907.31 4.07697 0.157123 0
M  V30 19982 H 1905.99 4.03833 -0.994583 0
M  V30 19983 H 1904.56 3.64353 0.793824 0
M  V30 19984 N 1906.75 0.369315 1.53212 0
M  V30 19985 C 1907.68 -0.467242 2.28777 0
M  V30 19986 C 1908.66 -1.08073 1.31355 0
M  V30 19987 O 1909.85 -1.09728 1.60229 0
M  V30 19988 C 1906.98 -1.60519 3.07979 0
M  V30 19989 C 1905.93 -1.11876 4.1312 0
M  V30 19990 C 1905.26 -2.34723 4.80426 0
M  V30 19991 C 1906.56 -0.200846 5.21914 0
M  V30 19992 H 1908.25 0.163201 2.98955 0
M  V30 19993 H 1905.8 0.0799312 1.43778 0
M  V30 19994 H 1907.75 -2.19708 3.59592 0
M  V30 19995 H 1906.47 -2.26292 2.35499 0
M  V30 19996 H 1905.13 -0.549521 3.62458 0
M  V30 19997 H 1904.78 -2.98961 4.04514 0
M  V30 19998 H 1904.48 -2.02846 5.51477 0
M  V30 19999 H 1906 -2.94592 5.34835 0
M  V30 20000 H 1907.42 -0.700331 5.69006 0
M  V30 20001 H 1905.81 0.0272222 6.00094 0
M  V30 20002 H 1906.88 0.755948 4.78971 0
M  V30 20003 N 1908.23 -1.57291 0.0985816 0
M  V30 20004 C 1909.47 -1.94767 -0.56514 0
M  V30 20005 C 1909.81 -0.980722 -1.67617 0
M  V30 20006 O 1909.08 -0.0143714 -1.94495 0
M  V30 20007 C 1909.36 -3.42336 -1.11704 0
M  V30 20008 C 1909.22 -4.49799 -0.0108284 0
M  V30 20009 C 1910.54 -3.91296 -2.01434 0
M  V30 20010 H 1907.66 -0.708215 -0.203963 0
M  V30 20011 H 1910.3 -1.89238 0.169998 0
M  V30 20012 H 1908.45 -3.47179 -1.74354 0
M  V30 20013 H 1910.12 -4.57066 0.623574 0
M  V30 20014 H 1908.36 -4.28825 0.655093 0
M  V30 20015 H 1909.03 -5.50261 -0.437868 0
M  V30 20016 H 1911.51 -3.88628 -1.48685 0
M  V30 20017 H 1910.39 -4.9511 -2.36975 0
M  V30 20018 H 1910.65 -3.30792 -2.93307 0
M  V30 20019 N 1909.71 0.175127 -1.56624 0
M  V30 20020 C 1911.12 0.526752 -1.50657 0
M  V30 20021 C 1911.32 1.84844 -0.802173 0
M  V30 20022 O 1910.38 2.49907 -0.360958 0
M  V30 20023 C 1911.69 0.563029 -2.95382 0
M  V30 20024 C 1913.24 0.650493 -3.06166 0
M  V30 20025 C 1913.71 0.717698 -4.52342 0
M  V30 20026 N 1915.2 0.78069 -4.56574 0
M  V30 20027 C 1915.94 0.853199 -5.67017 0
M  V30 20028 N 1915.44 0.886777 -6.87101 0
M  V30 20029 N 1917.23 0.891926 -5.54978 0
M  V30 20030 H 1909.38 -0.69158 -2.00826 0
M  V30 20031 H 1911.64 -0.248884 -0.914746 0
M  V30 20032 H 1911.35 -0.339385 -3.50059 0
M  V30 20033 H 1911.22 1.41084 -3.49821 0
M  V30 20034 H 1913.61 1.54333 -2.51526 0
M  V30 20035 H 1913.69 -0.223919 -2.54818 0
M  V30 20036 H 1913.33 -0.170871 -5.07612 0
M  V30 20037 H 1913.26 1.6082 -5.01442 0
M  V30 20038 H 1915.76 0.763178 -3.70113 0
M  V30 20039 H 1916.07 0.943172 -7.67023 0
M  V30 20040 H 1914.41 0.855117 -6.89719 0
M  V30 20041 H 1917.6 0.862669 -4.60082 0
M  V30 20042 H 1917.78 0.944973 -6.41073 0
M  V30 20043 N 1911.18 1.5123 0.44355 0
M  V30 20044 C 1912.11 1.75038 1.54544 0
M  V30 20045 C 1913.09 0.600017 1.59166 0
M  V30 20046 O 1914.28 0.842082 1.74993 0
M  V30 20047 C 1911.41 1.86976 2.92673 0
M  V30 20048 C 1910.36 3.0237 3.02913 0
M  V30 20049 C 1909.69 2.99483 4.4296 0
M  V30 20050 C 1910.99 4.4244 2.77569 0
M  V30 20051 H 1912.68 2.67301 1.34872 0
M  V30 20052 H 1910.23 1.28627 0.647395 0
M  V30 20053 H 1912.18 2.02215 3.69712 0
M  V30 20054 H 1910.91 0.913563 3.13563 0
M  V30 20055 H 1909.57 2.86826 2.28312 0
M  V30 20056 H 1909.21 2.01654 4.60809 0
M  V30 20057 H 1908.91 3.76968 4.50743 0
M  V30 20058 H 1910.44 3.16808 5.21982 0
M  V30 20059 H 1911.85 4.58367 3.44344 0
M  V30 20060 H 1910.25 5.21583 2.96768 0
M  V30 20061 H 1911.32 4.52906 1.73218 0
M  V30 20062 N 1912.66 -0.698586 1.41271 0
M  V30 20063 C 1913.89 -1.48743 1.43816 0
M  V30 20064 C 1914.3 -1.88752 0.0425858 0
M  V30 20065 O 1913.66 -1.56584 -0.937425 0
M  V30 20066 C 1913.71 -2.75192 2.34418 0
M  V30 20067 O 1913.43 -2.36869 3.68544 0
M  V30 20068 C 1914.93 -3.68957 2.45735 0
M  V30 20069 H 1912.15 -0.458477 0.489938 0
M  V30 20070 H 1914.7 -0.860372 1.85521 0
M  V30 20071 H 1912.85 -3.34142 1.9603 0
M  V30 20072 H 1913.27 -3.18354 4.16834 0
M  V30 20073 H 1914.74 -4.54473 3.13302 0
M  V30 20074 H 1915.22 -4.13237 1.48767 0
M  V30 20075 H 1915.82 -3.15912 2.84745 0
M  V30 20076 N 1914.14 -1.27049 -0.93254 0
M  V30 20077 C 1915.39 -1.12879 -1.67639 0
M  V30 20078 C 1915.71 0.326803 -1.92242 0
M  V30 20079 O 1914.98 1.22934 -1.52525 0
M  V30 20080 H 1913.56 -0.414741 -0.621288 0
M  V30 20081 H 1916.22 -1.59505 -1.12 0
M  V30 20082 H 1915.32 -1.65417 -2.64658 0
M  V30 20083 N 1915.62 1.13835 -1.08993 0
M  V30 20084 C 1916.89 1.81232 -0.735809 0
M  V30 20085 C 1917.27 1.96172 0.779737 0
M  V30 20086 O 1916.62 1.52629 1.70049 0
M  V30 20087 C 1916.83 3.16546 -1.46968 0
M  V30 20088 C 1918.18 3.91958 -1.6326 0
M  V30 20089 O 1919.2 3.26155 -1.43183 0
M  V30 20090 O 1918.06 5.09976 -1.96435 0
M  V30 20091 H 1915.16 0.783794 -0.26381 0
M  V30 20092 H 1917.7 1.20801 -1.19186 0
M  V30 20093 H 1916.48 3.00872 -2.50183 0
M  V30 20094 H 1916.1 3.84676 -1.00551 0
M  V30 20095 N 1917.1 0.876467 1.3098 0
M  V30 20096 C 1918.03 0.352925 2.30817 0
M  V30 20097 C 1919.01 -0.559675 1.60629 0
M  V30 20098 O 1920.19 -0.475326 1.88293 0
M  V30 20099 C 1917.32 -0.440827 3.44491 0
M  V30 20100 C 1916.28 0.379253 4.26316 0
M  V30 20101 C 1915.6 -0.540582 5.3196 0
M  V30 20102 C 1916.9 1.61682 4.96645 0
M  V30 20103 H 1918.6 1.18719 2.74857 0
M  V30 20104 H 1916.14 0.572316 1.32138 0
M  V30 20105 H 1918.09 -0.817661 4.13391 0
M  V30 20106 H 1916.82 -1.30866 2.99235 0
M  V30 20107 H 1915.48 0.738117 3.59092 0
M  V30 20108 H 1915.13 -1.40588 4.82953 0
M  V30 20109 H 1914.83 0.00427133 5.876 0
M  V30 20110 H 1916.35 -0.914118 6.03719 0
M  V30 20111 H 1917.76 1.31105 5.58108 0
M  V30 20112 H 1916.16 2.10123 5.62111 0
M  V30 20113 H 1917.23 2.36602 4.23258 0
M  V30 20114 N 1918.57 -1.44173 0.636557 0
M  V30 20115 C 1919.82 -2.01209 0.140639 0
M  V30 20116 C 1920.14 -1.50704 -1.2469 0
M  V30 20117 O 1921.34 -1.99904 -1.83713 0
M  V30 20118 C 1919.8 -3.5934 0.20066 0
M  V30 20119 C 1919.41 -4.18841 1.58985 0
M  V30 20120 C 1921.15 -4.23829 -0.238514 0
M  V30 20121 C 1919.06 -5.69213 1.60469 0
M  V30 20122 H 1917.99 -0.752418 0.0488124 0
M  V30 20123 H 1920.64 -1.65329 0.796151 0
M  V30 20124 H 1919.02 -3.92544 -0.522054 0
M  V30 20125 H 1920.19 -3.97165 2.33658 0
M  V30 20126 H 1918.51 -3.66659 1.97357 0
M  V30 20127 H 1921.11 -5.34129 -0.247033 0
M  V30 20128 H 1921.45 -3.96556 -1.26685 0
M  V30 20129 H 1921.98 -3.95449 0.431887 0
M  V30 20130 H 1918.72 -6.01229 2.61158 0
M  V30 20131 H 1918.24 -5.92995 0.900975 0
M  V30 20132 H 1919.92 -6.3295 1.34104 0
M  V30 20133 N 1920.05 -0.377435 -1.53014 0
M  V30 20134 C 1921.3 0.208838 -2.01722 0
M  V30 20135 C 1921.63 1.47446 -1.26385 0
M  V30 20136 O 1920.91 1.91122 -0.360903 0
M  V30 20137 C 1921.19 0.4888 -3.56767 0
M  V30 20138 C 1921.04 -0.791285 -4.42785 0
M  V30 20139 C 1922.36 1.28443 -4.2094 0
M  V30 20140 H 1919.48 0.0744281 -0.733232 0
M  V30 20141 H 1922.12 -0.504664 -1.83175 0
M  V30 20142 H 1920.27 1.09662 -3.72702 0
M  V30 20143 H 1921.94 -1.42848 -4.38625 0
M  V30 20144 H 1920.19 -1.40914 -4.10275 0
M  V30 20145 H 1920.86 -0.550199 -5.49251 0
M  V30 20146 H 1923.33 0.770147 -4.08911 0
M  V30 20147 H 1922.21 1.44906 -5.29427 0
M  V30 20148 H 1922.47 2.29631 -3.77786 0
M  V30 20149 N 1921.53 1.57237 -0.106922 0
M  V30 20150 C 1922.78 1.95862 0.548614 0
M  V30 20151 C 1923.13 0.98869 1.65054 0
M  V30 20152 O 1922.42 0.0166541 1.91593 0
M  V30 20153 C 1922.62 3.38792 1.13817 0
M  V30 20154 C 1922.45 4.496 0.0948981 0
M  V30 20155 C 1921.22 5.04203 -0.332731 0
M  V30 20156 C 1923.42 5.09765 -0.681473 0
M  V30 20157 N 1921.4 5.98577 -1.36304 0
M  V30 20158 C 1922.77 5.99968 -1.5633 0
M  V30 20159 C 1924.82 4.92465 -0.733692 0
M  V30 20160 C 1923.53 6.74725 -2.49277 0
M  V30 20161 C 1925.55 5.67893 -1.65082 0
M  V30 20162 C 1924.91 6.57771 -2.52024 0
M  V30 20163 H 1921.01 0.763134 0.170735 0
M  V30 20164 H 1923.6 1.93749 -0.192237 0
M  V30 20165 H 1921.77 3.41576 1.8488 0
M  V30 20166 H 1923.5 3.64569 1.75704 0
M  V30 20167 H 1920.26 4.73565 0.0573237 0
M  V30 20168 H 1920.68 6.50467 -1.87676 0
M  V30 20169 H 1925.32 4.22732 -0.0756598 0
M  V30 20170 H 1923.04 7.43711 -3.161 0
M  V30 20171 H 1926.63 5.56516 -1.69651 0
M  V30 20172 H 1925.51 7.15115 -3.21838 0
M  V30 20173 N 1923.01 -0.166818 1.56715 0
M  V30 20174 C 1924.23 -0.902208 1.86748 0
M  V30 20175 C 1924.66 -1.74838 0.693767 0
M  V30 20176 O 1924.02 -1.77749 -0.35708 0
M  V30 20177 C 1924.06 -1.75107 3.1523 0
M  V30 20178 O 1923.17 -2.85319 2.9777 0
M  V30 20179 H 1922.51 -0.252474 0.614128 0
M  V30 20180 H 1925.04 -0.163603 2.03945 0
M  V30 20181 H 1925.05 -2.15009 3.46749 0
M  V30 20182 H 1923.72 -1.12955 4.00267 0
M  V30 20183 H 1922.3 -2.48967 2.77615 0
M  V30 20184 N 1924.49 -1.51463 -0.435524 0
M  V30 20185 C 1925.76 -1.54763 -1.19615 0
M  V30 20186 C 1926.14 -0.312969 -2.08767 0
M  V30 20187 O 1925.49 0.701834 -2.17455 0
M  V30 20188 C 1925.7 -2.86259 -1.99642 0
M  V30 20189 C 1927.05 -3.38276 -2.56621 0
M  V30 20190 O 1928.07 -2.87821 -2.09851 0
M  V30 20191 O 1926.93 -4.26318 -3.41929 0
M  V30 20192 H 1924.03 -0.622293 -0.544684 0
M  V30 20193 H 1926.57 -1.63777 -0.444446 0
M  V30 20194 H 1925.34 -3.67578 -1.34173 0
M  V30 20195 H 1924.97 -2.80416 -2.81874 0
M  V30 20196 N 1925.96 0.691085 -1.4164 0
M  V30 20197 C 1926.87 1.83467 -1.46209 0
M  V30 20198 C 1927.89 1.70397 -0.352267 0
M  V30 20199 O 1929.07 1.92234 -0.60068 0
M  V30 20200 C 1926.13 3.19485 -1.34648 0
M  V30 20201 C 1925.19 3.44631 -2.55984 0
M  V30 20202 C 1924.43 4.7416 -2.44964 0
M  V30 20203 O 1924.65 5.50955 -1.47664 0
M  V30 20204 O 1923.58 5.0019 -3.34804 0
M  V30 20205 H 1927.41 1.82568 -2.42698 0
M  V30 20206 H 1924.99 0.844729 -1.23226 0
M  V30 20207 H 1926.88 4.00684 -1.30501 0
M  V30 20208 H 1925.55 3.21058 -0.41276 0
M  V30 20209 H 1924.46 2.63345 -2.65707 0
M  V30 20210 H 1925.79 3.47877 -3.48199 0
M  V30 20211 N 1927.44 1.27542 0.925789 0
M  V30 20212 C 1928.38 1.04754 2.02736 0
M  V30 20213 C 1929.35 -0.0326519 1.62567 0
M  V30 20214 O 1930.54 0.112877 1.88162 0
M  V30 20215 C 1927.66 0.589429 3.33532 0
M  V30 20216 C 1926.71 1.66447 3.9268 0
M  V30 20217 S 1927.54 3.25745 4.2503 0
M  V30 20218 C 1928.7 2.8174 5.58904 0
M  V30 20219 H 1928.93 1.9802 2.21755 0
M  V30 20220 H 1926.47 1.11394 1.06914 0
M  V30 20221 H 1928.42 0.331804 4.09157 0
M  V30 20222 H 1927.08 -0.323209 3.12433 0
M  V30 20223 H 1926.28 1.29528 4.87071 0
M  V30 20224 H 1925.88 1.87427 3.23647 0
M  V30 20225 H 1928.17 2.27162 6.38282 0
M  V30 20226 H 1929.11 3.74883 6.00723 0
M  V30 20227 H 1929.52 2.20823 5.19516 0
M  V30 20228 N 1928.92 -1.13255 1.09595 0
M  V30 20229 C 1929.87 -2.20794 0.731624 0
M  V30 20230 C 1930.86 -1.67263 -0.268256 0
M  V30 20231 O 1932.07 -1.79533 -0.129535 0
M  V30 20232 H 1928.44 -0.719521 0.218618 0
M  V30 20233 H 1930.41 -2.48784 1.6477 0
M  V30 20234 C 1929.16 -3.47283 0.170214 0
M  V30 20235 H 1928.49 -3.88814 0.930805 0
M  V30 20236 H 1929.93 -4.23974 -0.0467499 0
M  V30 20237 C 1928.39 -3.18609 -1.09497 0
M  V30 20238 O 1928.92 -3.37534 -2.17793 0
M  V30 20239 N 1927.12 -2.72477 -1.01017 0
M  V30 20240 H 1926.67 -2.57278 -0.128814 0
M  V30 20241 H 1926.63 -2.53668 -1.85741 0
M  V30 20242 N 1930.4 -0.883401 -1.30514 0
M  V30 20243 C 1931.81 -0.55179 -1.7836 0
M  V30 20244 C 1932.16 0.93196 -1.72653 0
M  V30 20245 O 1931.29 1.72818 -1.30242 0
M  V30 20246 C 1931.88 -0.994845 -3.23865 0
M  V30 20247 C 1930.44 -0.714672 -3.69553 0
M  V30 20248 C 1929.59 -1.1787 -2.51002 0
M  V30 20249 H 1932.54 -1.06778 -1.17406 0
M  V30 20250 H 1932.56 -0.32315 -3.79125 0
M  V30 20251 H 1932.07 -2.07477 -3.27986 0
M  V30 20252 H 1930.17 0.353326 -3.70921 0
M  V30 20253 H 1930.28 -1.30112 -4.61094 0
M  V30 20254 H 1928.65 -0.598079 -2.47578 0
M  V30 20255 H 1929.43 -2.26633 -2.57862 0
M  V30 20256 N 1931.88 1.43833 -0.644194 0
M  V30 20257 C 1933.29 1.85218 -0.23478 0
M  V30 20258 C 1933.64 1.53918 1.2167 0
M  V30 20259 O 1932.76 0.983677 1.92751 0
M  V30 20260 C 1933.36 3.36195 -0.419327 0
M  V30 20261 C 1931.92 3.76345 -0.0643105 0
M  V30 20262 C 1931.06 2.67614 -0.726506 0
M  V30 20263 H 1934.02 1.34114 -0.84848 0
M  V30 20264 H 1934.04 3.78997 0.33787 0
M  V30 20265 H 1933.55 3.58944 -1.47582 0
M  V30 20266 H 1931.65 3.59209 0.989939 0
M  V30 20267 H 1931.76 4.76654 -0.483481 0
M  V30 20268 H 1930.13 2.54193 -0.160575 0
M  V30 20269 H 1930.91 2.93193 -1.78585 0
M  V30 20270 N 1933.35 0.385544 1.52811 0
M  V30 20271 C 1934.29 -0.486433 2.23979 0
M  V30 20272 C 1935.3 -1.02981 1.2609 0
M  V30 20273 O 1936.49 -0.932779 1.52189 0
M  V30 20274 C 1933.59 -1.68645 2.93959 0
M  V30 20275 C 1932.76 -1.2711 4.18523 0
M  V30 20276 C 1931.82 -2.33538 4.71536 0
M  V30 20277 O 1930.85 -1.95101 5.34719 0
M  V30 20278 N 1932.05 -3.65401 4.51068 0
M  V30 20279 H 1934.81 0.12327 2.99446 0
M  V30 20280 H 1932.37 0.211712 1.6051 0
M  V30 20281 H 1934.37 -2.3936 3.26326 0
M  V30 20282 H 1932.94 -2.20257 2.21823 0
M  V30 20283 H 1932.16 -0.392983 3.92236 0
M  V30 20284 H 1933.44 -0.970192 4.99464 0
M  V30 20285 H 1932.84 -3.99393 4.00626 0
M  V30 20286 H 1931.4 -4.32162 4.87934 0
M  V30 20287 N 1934.83 -1.57178 0.115259 0
M  V30 20288 C 1936.08 -1.95355 -0.54445 0
M  V30 20289 C 1936.41 -0.998445 -1.66567 0
M  V30 20290 O 1935.69 -0.0349993 -1.94469 0
M  V30 20291 C 1935.97 -3.43502 -1.08067 0
M  V30 20292 C 1935.82 -4.49785 0.0368794 0
M  V30 20293 C 1937.14 -3.9341 -1.97273 0
M  V30 20294 H 1934.26 -0.710338 -0.19644 0
M  V30 20295 H 1936.9 -1.89047 0.19006 0
M  V30 20296 H 1935.05 -3.49008 -1.70662 0
M  V30 20297 H 1936.72 -4.56379 0.672017 0
M  V30 20298 H 1934.97 -4.28106 0.700539 0
M  V30 20299 H 1935.64 -5.50694 -0.379481 0
M  V30 20300 H 1938.11 -3.90184 -1.44555 0
M  V30 20301 H 1936.99 -4.97596 -2.31711 0
M  V30 20302 H 1937.25 -3.33884 -2.89782 0
M  V30 20303 N 1936.31 0.158505 -1.56801 0
M  V30 20304 C 1937.56 0.871408 -1.81905 0
M  V30 20305 C 1937.87 1.8285 -0.694632 0
M  V30 20306 O 1939.08 2.58471 -0.830953 0
M  V30 20307 C 1937.54 1.60017 -3.2237 0
M  V30 20308 C 1937.14 0.686065 -4.42716 0
M  V30 20309 C 1938.89 2.30054 -3.56757 0
M  V30 20310 C 1936.79 1.41579 -5.74203 0
M  V30 20311 H 1935.72 0.329148 -0.678364 0
M  V30 20312 H 1938.38 0.124216 -1.83079 0
M  V30 20313 H 1936.76 2.39258 -3.1555 0
M  V30 20314 H 1937.93 -0.0702946 -4.60746 0
M  V30 20315 H 1936.25 0.0947 -4.16292 0
M  V30 20316 H 1938.84 2.85268 -4.52246 0
M  V30 20317 H 1939.19 3.06002 -2.82256 0
M  V30 20318 H 1939.72 1.57744 -3.65187 0
M  V30 20319 H 1936.46 0.698382 -6.51769 0
M  V30 20320 H 1935.98 2.14515 -5.60128 0
M  V30 20321 H 1937.66 1.95983 -6.16603 0
M  V30 20322 N 1937.79 1.51692 0.427485 0
M  V30 20323 C 1939.21 1.40086 0.764726 0
M  V30 20324 C 1939.41 0.490917 1.95428 0
M  V30 20325 O 1938.46 -0.0502236 2.5245 0
M  V30 20326 C 1939.77 2.82295 1.03586 0
M  V30 20327 C 1941.32 2.91513 1.1397 0
M  V30 20328 C 1941.8 4.34651 1.44371 0
M  V30 20329 N 1943.29 4.37802 1.51274 0
M  V30 20330 C 1944.02 5.45596 1.76388 0
M  V30 20331 N 1943.52 6.63536 1.99228 0
M  V30 20332 N 1945.31 5.33088 1.78252 0
M  V30 20333 H 1937.46 2.09399 -0.355809 0
M  V30 20334 H 1939.73 0.943043 -0.0968225 0
M  V30 20335 H 1939.43 3.50918 0.234369 0
M  V30 20336 H 1939.31 3.22223 1.96092 0
M  V30 20337 H 1941.69 2.23082 1.9318 0
M  V30 20338 H 1941.77 2.55068 0.193426 0
M  V30 20339 H 1941.42 5.03635 0.656841 0
M  V30 20340 H 1941.35 4.68617 2.4022 0
M  V30 20341 H 1943.84 3.52777 1.35487 0
M  V30 20342 H 1944.15 7.41477 2.17789 0
M  V30 20343 H 1942.5 6.66634 1.9653 0
M  V30 20344 H 1945.69 4.39931 1.59933 0
M  V30 20345 H 1945.86 6.17174 1.97486 0
M  V30 20346 N 1939.27 -0.683564 1.42004 0
M  V30 20347 C 1940.5 -1.4721 1.45386 0
M  V30 20348 C 1940.91 -1.88696 0.062603 0
M  V30 20349 O 1940.27 -1.5757 -0.920764 0
M  V30 20350 C 1940.32 -2.7269 2.37323 0
M  V30 20351 O 1940.04 -2.32947 3.71035 0
M  V30 20352 C 1941.54 -3.6633 2.49634 0
M  V30 20353 H 1938.76 -0.453255 0.494773 0
M  V30 20354 H 1941.3 -0.840646 1.86423 0
M  V30 20355 H 1939.46 -3.32044 1.99563 0
M  V30 20356 H 1939.87 -3.13915 4.20188 0
M  V30 20357 H 1941.35 -4.51125 3.18104 0
M  V30 20358 H 1941.82 -4.11636 1.53141 0
M  V30 20359 H 1942.43 -3.12874 2.8808 0
M  V30 20360 N 1940.75 -1.28031 -0.919012 0
M  V30 20361 C 1941.68 -1.14034 -2.03761 0
M  V30 20362 C 1942.66 -0.039495 -1.70054 0
M  V30 20363 O 1943.84 -0.215546 -1.93 0
M  V30 20364 C 1940.97 -0.795894 -3.38057 0
M  V30 20365 C 1939.93 -1.85093 -3.85907 0
M  V30 20366 C 1939.25 -1.36024 -5.17109 0
M  V30 20367 C 1940.55 -3.25658 -4.08343 0
M  V30 20368 H 1942.25 -2.07609 -2.15729 0
M  V30 20369 H 1939.79 -0.999558 -1.03657 0
M  V30 20370 H 1941.74 -0.684762 -4.15799 0
M  V30 20371 H 1940.47 0.175558 -3.26128 0
M  V30 20372 H 1939.13 -1.95112 -3.10366 0
M  V30 20373 H 1938.78 -0.378004 -5.01578 0
M  V30 20374 H 1938.48 -2.06568 -5.50094 0
M  V30 20375 H 1940 -1.26223 -5.97411 0
M  V30 20376 H 1941.41 -3.1859 -4.76627 0
M  V30 20377 H 1939.81 -3.93989 -4.52651 0
M  V30 20378 H 1940.88 -3.70066 -3.13335 0
M  V30 20379 N 1942.22 1.12672 -1.10194 0
M  V30 20380 C 1943.15 2.20422 -0.770492 0
M  V30 20381 C 1944.13 1.68172 0.25541 0
M  V30 20382 O 1945.32 1.93818 0.121728 0
M  V30 20383 C 1942.45 3.4673 -0.198815 0
M  V30 20384 C 1941.4 4.12118 -1.15512 0
M  V30 20385 C 1940.73 5.32847 -0.444768 0
M  V30 20386 C 1942.03 4.58542 -2.50073 0
M  V30 20387 H 1943.72 2.48404 -1.67141 0
M  V30 20388 H 1941.27 1.19392 -0.805077 0
M  V30 20389 H 1943.22 4.21376 0.0451853 0
M  V30 20390 H 1941.95 3.18168 0.737331 0
M  V30 20391 H 1940.61 3.3945 -1.38453 0
M  V30 20392 H 1940.25 5.00551 0.49577 0
M  V30 20393 H 1939.95 5.77543 -1.08247 0
M  V30 20394 H 1941.48 6.10241 -0.209255 0
M  V30 20395 H 1942.89 5.24572 -2.31294 0
M  V30 20396 H 1941.29 5.14007 -3.09704 0
M  V30 20397 H 1942.36 3.72654 -3.10254 0
M  V30 20398 N 1943.7 0.89031 1.30043 0
M  V30 20399 C 1945.11 0.561241 1.78065 0
M  V30 20400 C 1945.46 -0.922791 1.73144 0
M  V30 20401 O 1944.59 -1.72124 1.31157 0
M  V30 20402 C 1945.18 1.01201 3.23332 0
M  V30 20403 C 1943.74 0.734261 3.69169 0
M  V30 20404 C 1942.89 1.19199 2.50373 0
M  V30 20405 H 1945.84 1.074 1.16838 0
M  V30 20406 H 1945.86 0.343251 3.78949 0
M  V30 20407 H 1945.37 2.09213 3.26881 0
M  V30 20408 H 1943.47 -0.33365 3.71103 0
M  V30 20409 H 1943.59 1.32556 4.60397 0
M  V30 20410 H 1941.95 0.6112 2.47258 0
M  V30 20411 H 1942.73 2.27997 2.56656 0
M  V30 20412 N 1945.18 -1.43489 0.651812 0
M  V30 20413 C 1946.11 -2.33484 -0.0271093 0
M  V30 20414 C 1947.09 -1.4939 -0.813427 0
M  V30 20415 O 1948.28 -1.78058 -0.775186 0
M  V30 20416 C 1945.41 -3.32737 -0.995143 0
M  V30 20417 C 1944.36 -4.26809 -0.319036 0
M  V30 20418 C 1943.69 -5.1609 -1.39842 0
M  V30 20419 C 1944.99 -5.16326 0.787692 0
M  V30 20420 H 1946.68 -2.90503 0.724441 0
M  V30 20421 H 1944.23 -1.39686 0.349826 0
M  V30 20422 H 1946.18 -3.94593 -1.479 0
M  V30 20423 H 1944.9 -2.73972 -1.77784 0
M  V30 20424 H 1943.56 -3.66316 0.144366 0
M  V30 20425 H 1943.21 -4.53664 -2.17251 0
M  V30 20426 H 1942.91 -5.79848 -0.951292 0
M  V30 20427 H 1944.43 -5.80819 -1.88367 0
M  V30 20428 H 1945.85 -5.71999 0.386053 0
M  V30 20429 H 1944.24 -5.88798 1.1592 0
M  V30 20430 H 1945.31 -4.56099 1.64626 0
M  V30 20431 N 1946.66 -0.393643 -1.52605 0
M  V30 20432 C 1947.59 0.430786 -2.29492 0
M  V30 20433 C 1948.57 1.0597 -1.33058 0
M  V30 20434 O 1949.75 1.07165 -1.61955 0
M  V30 20435 C 1946.88 1.55599 -3.10494 0
M  V30 20436 C 1945.84 1.05289 -4.14847 0
M  V30 20437 C 1945.16 2.2705 -4.841 0
M  V30 20438 C 1946.46 0.117789 -5.22167 0
M  V30 20439 H 1948.16 -0.210741 -2.98657 0
M  V30 20440 H 1945.7 -0.102795 -1.43633 0
M  V30 20441 H 1947.66 2.1396 -3.63042 0
M  V30 20442 H 1946.38 2.22517 -2.39069 0
M  V30 20443 H 1945.04 0.491788 -3.63286 0
M  V30 20444 H 1944.69 2.92487 -4.09219 0
M  V30 20445 H 1944.39 1.94047 -5.54635 0
M  V30 20446 H 1945.91 2.86045 -5.39454 0
M  V30 20447 H 1947.33 0.609718 -5.70049 0
M  V30 20448 H 1945.72 -0.122689 -5.99975 0
M  V30 20449 H 1946.79 -0.832053 -4.77708 0
M  V30 20450 N 1948.14 1.57115 -0.123593 0
M  V30 20451 C 1949.07 2.18573 0.821462 0
M  V30 20452 C 1950.05 1.1271 1.27399 0
M  V30 20453 O 1951.23 1.40964 1.33577 0
M  V30 20454 C 1948.36 2.78879 2.06987 0
M  V30 20455 C 1947.32 3.90365 1.75497 0
M  V30 20456 C 1946.64 4.37499 3.07406 0
M  V30 20457 C 1947.94 5.12249 1.01972 0
M  V30 20458 H 1949.64 2.97798 0.309319 0
M  V30 20459 H 1947.18 1.43244 0.147338 0
M  V30 20460 H 1949.13 3.20534 2.73562 0
M  V30 20461 H 1947.86 1.96951 2.60534 0
M  V30 20462 H 1946.52 3.49293 1.1131 0
M  V30 20463 H 1946.17 3.52424 3.58896 0
M  V30 20464 H 1945.87 5.12682 2.87108 0
M  V30 20465 H 1947.39 4.81808 3.75091 0
M  V30 20466 H 1948.8 5.50894 1.58709 0
M  V30 20467 H 1947.2 5.93044 0.917526 0
M  V30 20468 H 1948.27 4.84899 0.00726173 0
M  V30 20469 N 1949.61 -0.150187 1.56883 0
M  V30 20470 C 1950.52 -1.20504 2.01286 0
M  V30 20471 C 1951.54 -1.47204 0.927733 0
M  V30 20472 O 1952.72 -1.58937 1.23697 0
M  V30 20473 C 1949.78 -2.51932 2.38184 0
M  V30 20474 C 1948.84 -2.32906 3.60629 0
M  V30 20475 C 1948.07 -3.58067 3.95757 0
M  V30 20476 O 1948.3 -4.64119 3.31587 0
M  V30 20477 O 1947.23 -3.5092 4.89018 0
M  V30 20478 H 1951.06 -0.858075 2.91326 0
M  V30 20479 H 1948.64 -0.358669 1.45031 0
M  V30 20480 H 1950.52 -3.29423 2.6279 0
M  V30 20481 H 1949.2 -2.86165 1.513 0
M  V30 20482 H 1948.11 -1.53377 3.41213 0
M  V30 20483 H 1949.44 -2.0359 4.4812 0
M  V30 20484 N 1951.09 -1.51916 -0.419434 0
M  V30 20485 C 1952.32 -1.69592 -1.19387 0
M  V30 20486 C 1952.74 -0.400225 -1.83793 0
M  V30 20487 O 1952.1 0.641368 -1.69576 0
M  V30 20488 C 1952.15 -2.8256 -2.24036 0
M  V30 20489 O 1951.25 -2.4741 -3.29942 0
M  V30 20490 H 1950.59 -0.564898 -0.348978 0
M  V30 20491 H 1953.12 -1.9857 -0.493064 0
M  V30 20492 H 1953.13 -3.07171 -2.68533 0
M  V30 20493 H 1951.81 -3.76572 -1.7654 0
M  V30 20494 H 1950.39 -2.33435 -2.90796 0
M  V30 20495 N 1952.57 0.676023 -1.42365 0
M  V30 20496 C 1953.8 1.46937 -1.46371 0
M  V30 20497 C 1954.22 1.87946 -0.076099 0
M  V30 20498 O 1953.58 1.55917 0.925172 0
M  V30 20499 C 1953.63 2.69558 -2.39523 0
M  V30 20500 O 1952.73 3.67782 -1.86575 0
M  V30 20501 H 1952.07 0.441478 -0.495977 0
M  V30 20502 H 1954.6 0.829284 -1.8704 0
M  V30 20503 H 1954.61 3.17642 -2.56061 0
M  V30 20504 H 1953.29 2.39049 -3.40336 0
M  V30 20505 H 1951.86 3.26808 -1.79585 0
M  V30 20506 N 1954.05 1.28517 0.912209 0
M  V30 20507 C 1955.28 1.18615 1.69523 0
M  V30 20508 C 1955.69 -0.254997 1.8707 0
M  V30 20509 O 1955.05 -1.17217 1.3988 0
M  V30 20510 C 1955.1 1.88188 3.08655 0
M  V30 20511 O 1954.82 3.26673 2.91918 0
M  V30 20512 C 1956.32 1.84607 4.03032 0
M  V30 20513 H 1953.54 0.411679 0.529869 0
M  V30 20514 H 1956.09 1.69668 1.14162 0
M  V30 20515 H 1954.24 1.41001 3.60829 0
M  V30 20516 H 1954.65 3.61538 3.79987 0
M  V30 20517 H 1956.13 2.37874 4.98116 0
M  V30 20518 H 1956.61 0.818787 4.315 0
M  V30 20519 H 1957.21 2.3148 3.56787 0
M  V30 20520 N 1955.53 -1.12086 1.1079 0
M  V30 20521 C 1956.44 -2.21514 0.772578 0
M  V30 20522 C 1957.45 -1.72454 -0.231462 0
M  V30 20523 O 1958.63 -2.01281 -0.0693074 0
M  V30 20524 C 1955.69 -3.46043 0.213364 0
M  V30 20525 C 1954.75 -4.09925 1.27515 0
M  V30 20526 C 1953.99 -5.28509 0.742524 0
M  V30 20527 O 1954.21 -5.68779 -0.429786 0
M  V30 20528 O 1953.14 -5.82802 1.50417 0
M  V30 20529 H 1956.97 -2.52596 1.68608 0
M  V30 20530 H 1954.56 -1.20492 0.883294 0
M  V30 20531 H 1956.44 -4.21294 -0.0944683 0
M  V30 20532 H 1955.11 -3.16628 -0.672947 0
M  V30 20533 H 1954.02 -3.36436 1.63589 0
M  V30 20534 H 1955.35 -4.43504 2.13461 0
M  V30 20535 N 1957 -0.897194 -1.29569 0
M  V30 20536 C 1958.23 -0.536465 -2.00342 0
M  V30 20537 C 1958.65 0.87088 -1.66725 0
M  V30 20538 O 1958.01 1.57924 -0.890492 0
M  V30 20539 C 1958.06 -0.732781 -3.53076 0
M  V30 20540 O 1957.16 0.215848 -4.11835 0
M  V30 20541 H 1956.51 -0.209904 -0.62995 0
M  V30 20542 H 1959.04 -1.20809 -1.65125 0
M  V30 20543 H 1959.05 -0.636468 -4.03005 0
M  V30 20544 H 1957.72 -1.75882 -3.7688 0
M  V30 20545 H 1956.3 0.0722012 -3.7283 0
M  V30 20546 N 1958.48 1.43142 -0.659413 0
M  V30 20547 C 1959.73 2.02038 -0.175593 0
M  V30 20548 C 1960.06 1.5194 1.20946 0
M  V30 20549 O 1959.34 0.715095 1.80877 0
M  V30 20550 C 1959.62 3.59581 -0.193256 0
M  V30 20551 C 1959.47 4.19896 -1.61267 0
M  V30 20552 C 1960.79 4.37616 0.466976 0
M  V30 20553 H 1957.91 0.734103 -0.0652811 0
M  V30 20554 H 1960.55 1.7036 -0.841276 0
M  V30 20555 H 1958.7 3.867 0.373574 0
M  V30 20556 H 1960.37 4.03786 -2.23056 0
M  V30 20557 H 1958.62 3.7631 -2.15807 0
M  V30 20558 H 1959.29 5.28999 -1.57683 0
M  V30 20559 H 1961.76 4.16097 -0.0153667 0
M  V30 20560 H 1960.64 5.47261 0.423915 0
M  V30 20561 H 1960.9 4.14332 1.54211 0
M  V30 20562 N 1959.96 0.40173 1.52394 0
M  V30 20563 C 1960.92 -0.41541 2.25404 0
M  V30 20564 C 1961.92 -0.979848 1.27498 0
M  V30 20565 O 1963.11 -0.859891 1.51498 0
M  V30 20566 C 1960.25 -1.58403 3.01863 0
M  V30 20567 H 1961.44 0.223965 2.99063 0
M  V30 20568 H 1958.99 0.154095 1.55539 0
M  V30 20569 H 1959.73 -2.26048 2.32536 0
M  V30 20570 H 1959.51 -1.18586 3.73737 0
M  V30 20571 H 1961 -2.16224 3.57263 0
M  V30 20572 N 1961.44 -1.57047 0.131923 0
M  V30 20573 C 1962.35 -2.19545 -0.826862 0
M  V30 20574 C 1963.36 -1.17532 -1.28305 0
M  V30 20575 O 1964.54 -1.50052 -1.34337 0
M  V30 20576 C 1961.61 -2.79284 -2.0543 0
M  V30 20577 C 1960.67 -3.96375 -1.64879 0
M  V30 20578 C 1959.9 -4.53256 -2.81771 0
M  V30 20579 O 1960.12 -4.09022 -3.97564 0
M  V30 20580 O 1959.06 -5.43748 -2.58111 0
M  V30 20581 H 1962.88 -3.01957 -0.324926 0
M  V30 20582 H 1960.47 -1.49102 -0.0943495 0
M  V30 20583 H 1962.35 -3.17312 -2.77292 0
M  V30 20584 H 1961.02 -1.99895 -2.54605 0
M  V30 20585 H 1959.93 -3.63092 -0.900848 0
M  V30 20586 H 1961.26 -4.77238 -1.20434 0
M  V30 20587 N 1962.92 0.141865 -1.5696 0
M  V30 20588 C 1964.17 0.852066 -1.82819 0
M  V30 20589 C 1964.48 1.82103 -0.713987 0
M  V30 20590 O 1965.68 2.57575 -0.858321 0
M  V30 20591 C 1964.14 1.56589 -3.24049 0
M  V30 20592 C 1963.75 0.639071 -4.43418 0
M  V30 20593 C 1965.49 2.26257 -3.59177 0
M  V30 20594 C 1963.4 1.35481 -5.75673 0
M  V30 20595 H 1962.33 0.321934 -0.681817 0
M  V30 20596 H 1964.98 0.104791 -1.83201 0
M  V30 20597 H 1963.36 2.35898 -3.1807 0
M  V30 20598 H 1964.54 -0.119159 -4.60646 0
M  V30 20599 H 1962.85 0.0505413 -4.16369 0
M  V30 20600 H 1965.45 2.80455 -4.55246 0
M  V30 20601 H 1965.79 3.02992 -2.85485 0
M  V30 20602 H 1966.32 1.53861 -3.6684 0
M  V30 20603 H 1963.06 0.629214 -6.52473 0
M  V30 20604 H 1962.58 2.08562 -5.62372 0
M  V30 20605 H 1964.26 1.89432 -6.18647 0
M  V30 20606 N 1964.39 1.52136 0.411372 0
M  V30 20607 C 1965.62 1.70223 1.18486 0
M  V30 20608 C 1966.04 0.409966 1.83578 0
M  V30 20609 O 1965.4 -0.632366 1.69914 0
M  V30 20610 C 1965.45 2.83744 2.22535 0
M  V30 20611 O 1964.55 2.49157 3.28625 0
M  V30 20612 H 1963.9 0.566741 0.345978 0
M  V30 20613 H 1966.43 1.98829 0.482526 0
M  V30 20614 H 1966.44 3.08591 2.669 0
M  V30 20615 H 1965.11 3.77503 1.74541 0
M  V30 20616 H 1963.69 2.34974 2.89554 0
M  V30 20617 N 1965.87 -0.668464 1.42721 0
M  V30 20618 C 1967.1 -1.46158 1.47148 0
M  V30 20619 C 1967.52 -1.87903 0.0860652 0
M  V30 20620 O 1966.88 -1.56406 -0.91689 0
M  V30 20621 C 1966.93 -2.68284 2.40949 0
M  V30 20622 O 1966.03 -3.66787 1.88522 0
M  V30 20623 H 1965.37 -0.438842 0.498311 0
M  V30 20624 H 1967.9 -0.819353 1.87477 0
M  V30 20625 H 1967.91 -3.1628 2.57742 0
M  V30 20626 H 1966.59 -2.3724 3.41599 0
M  V30 20627 H 1965.17 -3.25851 1.81315 0
M  V30 20628 N 1967.35 -1.28999 -0.905381 0
M  V30 20629 C 1968.3 -1.13515 -2.0302 0
M  V30 20630 C 1969.29 -0.0522132 -1.6932 0
M  V30 20631 O 1970.5 -0.211599 -1.78752 0
M  V30 20632 H 1966.87 -0.350474 -0.665336 0
M  V30 20633 H 1968.85 -2.08758 -2.13219 0
M  V30 20634 C 1967.59 -0.822531 -3.37831 0
M  V30 20635 H 1966.92 -1.64783 -3.64262 0
M  V30 20636 H 1968.36 -0.754193 -4.17238 0
M  V30 20637 C 1966.82 0.474033 -3.33548 0
M  V30 20638 O 1967.35 1.50182 -3.7257 0
M  V30 20639 N 1965.55 0.477812 -2.86645 0
M  V30 20640 H 1965.1 -0.359023 -2.55086 0
M  V30 20641 H 1965.06 1.34533 -2.84162 0
M  V30 20642 N 1968.83 1.11497 -1.11383 0
M  V30 20643 C 1970.05 1.87567 -0.885056 0
M  V30 20644 C 1970.48 1.79581 0.559675 0
M  V30 20645 O 1969.84 1.15779 1.39517 0
M  V30 20646 C 1969.89 3.34354 -1.35053 0
M  V30 20647 O 1968.99 4.09085 -0.521865 0
M  V30 20648 H 1968.33 0.582433 -0.318853 0
M  V30 20649 H 1970.86 1.4094 -1.48314 0
M  V30 20650 H 1970.87 3.85201 -1.34478 0
M  V30 20651 H 1969.55 3.39484 -2.40257 0
M  V30 20652 H 1968.12 3.68144 -0.593669 0
M  V30 20653 N 1970.31 0.904053 1.29092 0
M  V30 20654 C 1971.24 0.401805 2.30017 0
M  V30 20655 C 1972.22 -0.525477 1.6178 0
M  V30 20656 O 1973.4 -0.435279 1.89259 0
M  V30 20657 C 1970.53 -0.367656 3.45348 0
M  V30 20658 C 1969.49 0.469596 4.25416 0
M  V30 20659 C 1968.81 -0.427624 5.32987 0
M  V30 20660 C 1970.11 1.7218 4.93104 0
M  V30 20661 H 1971.81 1.24523 2.72276 0
M  V30 20662 H 1969.35 0.600215 1.30895 0
M  V30 20663 H 1971.31 -0.729791 4.15033 0
M  V30 20664 H 1970.03 -1.2449 3.01944 0
M  V30 20665 H 1968.69 0.814119 3.57446 0
M  V30 20666 H 1968.34 -1.30313 4.85827 0
M  V30 20667 H 1968.04 0.128909 5.87459 0
M  V30 20668 H 1969.56 -0.785855 6.05522 0
M  V30 20669 H 1970.98 1.42914 5.55201 0
M  V30 20670 H 1969.37 2.21999 5.57527 0
M  V30 20671 H 1970.44 2.45526 4.18145 0
M  V30 20672 N 1971.79 -1.4279 0.666995 0
M  V30 20673 C 1972.7 -2.34594 -0.0164305 0
M  V30 20674 C 1973.71 -1.54657 -0.797322 0
M  V30 20675 O 1974.89 -1.87256 -0.741426 0
M  V30 20676 C 1971.95 -3.33102 -0.961469 0
M  V30 20677 C 1971.01 -4.28939 -0.17598 0
M  V30 20678 C 1970.25 -5.22741 -1.076 0
M  V30 20679 O 1970.47 -5.21289 -2.31546 0
M  V30 20680 O 1969.4 -5.99464 -0.541001 0
M  V30 20681 H 1973.23 -2.94557 0.739579 0
M  V30 20682 H 1970.81 -1.43162 0.427207 0
M  V30 20683 H 1972.7 -3.93639 -1.5042 0
M  V30 20684 H 1971.37 -2.75623 -1.69746 0
M  V30 20685 H 1970.28 -3.71839 0.410667 0
M  V30 20686 H 1971.61 -4.89438 0.520737 0
M  V30 20687 N 1973.26 -0.409806 -1.52179 0
M  V30 20688 C 1974.68 -0.0607174 -1.59484 0
M  V30 20689 C 1974.88 1.42703 -1.42261 0
M  V30 20690 O 1973.94 2.19394 -1.24991 0
M  V30 20691 C 1975.25 -0.556238 -2.95511 0
M  V30 20692 C 1976.8 -0.514272 -3.08746 0
M  V30 20693 C 1977.27 -0.986314 -4.47254 0
M  V30 20694 N 1978.76 -0.943162 -4.53496 0
M  V30 20695 C 1979.5 -1.27959 -5.5894 0
M  V30 20696 N 1978.99 -1.6875 -6.71934 0
M  V30 20697 N 1980.79 -1.19951 -5.49152 0
M  V30 20698 H 1972.94 -1.37813 -1.61621 0
M  V30 20699 H 1975.2 -0.566181 -0.760357 0
M  V30 20700 H 1974.91 -1.5961 -3.13397 0
M  V30 20701 H 1974.78 0.033749 -3.77185 0
M  V30 20702 H 1977.17 0.516546 -2.90544 0
M  V30 20703 H 1977.25 -1.14032 -2.28977 0
M  V30 20704 H 1976.89 -2.01546 -4.66199 0
M  V30 20705 H 1976.82 -0.337071 -5.2552 0
M  V30 20706 H 1979.31 -0.64326 -3.72385 0
M  V30 20707 H 1979.63 -1.9273 -7.48381 0
M  V30 20708 H 1977.97 -1.72654 -6.73213 0
M  V30 20709 H 1981.16 -0.879693 -4.5976 0
M  V30 20710 H 1981.34 -1.465 -6.31222 0
M  V30 20711 N 1974.74 1.56975 -0.14025 0
M  V30 20712 C 1975.99 1.95081 0.512469 0
M  V30 20713 C 1976.3 1.02722 1.66456 0
M  V30 20714 O 1977.51 1.3038 2.38146 0
M  V30 20715 C 1975.97 3.46775 0.963057 0
M  V30 20716 C 1975.57 4.47708 -0.161733 0
M  V30 20717 C 1977.32 3.93761 1.58595 0
M  V30 20718 C 1975.22 5.90604 0.306746 0
M  V30 20719 H 1974.15 0.72829 0.195216 0
M  V30 20720 H 1976.81 1.82134 -0.223514 0
M  V30 20721 H 1975.19 3.55032 1.7541 0
M  V30 20722 H 1976.36 4.51141 -0.938529 0
M  V30 20723 H 1974.68 4.10599 -0.692608 0
M  V30 20724 H 1977.27 4.97954 1.94796 0
M  V30 20725 H 1977.62 3.34931 2.47238 0
M  V30 20726 H 1978.15 3.88394 0.859928 0
M  V30 20727 H 1974.89 6.53238 -0.544152 0
M  V30 20728 H 1974.41 5.90546 1.04956 0
M  V30 20729 H 1976.09 6.42509 0.760989 0
M  V30 20730 N 1976.22 -0.133539 1.57033 0
M  V30 20731 C 1977.15 -1.16595 2.02306 0
M  V30 20732 C 1978.13 -1.44031 0.904933 0
M  V30 20733 O 1979.32 -1.54721 1.17367 0
M  V30 20734 C 1976.45 -2.49581 2.41509 0
M  V30 20735 C 1975.4 -2.36639 3.56631 0
M  V30 20736 C 1974.73 -3.74457 3.81688 0
M  V30 20737 C 1976.03 -1.83912 4.88849 0
M  V30 20738 H 1977.72 -0.789456 2.88804 0
M  V30 20739 H 1975.27 -0.378309 1.38942 0
M  V30 20740 H 1977.22 -3.22043 2.71783 0
M  V30 20741 H 1975.94 -2.89093 1.51964 0
M  V30 20742 H 1974.6 -1.66628 3.26544 0
M  V30 20743 H 1974.25 -4.11428 2.89372 0
M  V30 20744 H 1973.95 -3.66655 4.59171 0
M  V30 20745 H 1975.47 -4.48446 4.14401 0
M  V30 20746 H 1976.89 -2.46178 5.17754 0
M  V30 20747 H 1975.28 -1.86967 5.70231 0
M  V30 20748 H 1976.35 -0.795669 4.78327 0
M  V30 20749 N 1977.7 -1.52352 -0.403298 0
M  V30 20750 C 1978.95 -1.66368 -1.14744 0
M  V30 20751 C 1979.27 -0.398899 -1.90876 0
M  V30 20752 O 1978.54 0.586372 -1.86918 0
M  V30 20753 H 1977.12 -0.613226 -0.426571 0
M  V30 20754 H 1979.78 -1.89416 -0.459075 0
M  V30 20755 H 1978.87 -2.50748 -1.85828 0
M  V30 20756 N 1979.18 0.660885 -1.43074 0
M  V30 20757 C 1980.59 1.24187 -1.39407 0
M  V30 20758 C 1980.94 1.95973 -0.0942854 0
M  V30 20759 O 1980.06 2.00808 0.80654 0
M  V30 20760 C 1980.66 2.25865 -2.52528 0
M  V30 20761 C 1979.22 2.79459 -2.5215 0
M  V30 20762 C 1978.36 1.53984 -2.30617 0
M  V30 20763 H 1981.31 0.453383 -1.52086 0
M  V30 20764 H 1981.34 3.07886 -2.23577 0
M  V30 20765 H 1980.85 1.73589 -3.47114 0
M  V30 20766 H 1978.95 3.35818 -1.61422 0
M  V30 20767 H 1979.06 3.27526 -3.49662 0
M  V30 20768 H 1977.43 1.81056 -1.79139 0
M  V30 20769 H 1978.21 1.03654 -3.27278 0
M  V30 20770 N 1980.65 1.29477 0.898527 0
M  V30 20771 C 1981.62 1.14706 1.98432 0
M  V30 20772 C 1982.62 0.0821822 1.6059 0
M  V30 20773 O 1983.81 0.329216 1.71061 0
M  V30 20774 C 1980.94 0.754356 3.32449 0
M  V30 20775 H 1982.13 2.11154 2.12964 0
M  V30 20776 H 1979.69 1.1268 1.08319 0
M  V30 20777 H 1980.42 -0.210224 3.23618 0
M  V30 20778 H 1980.21 1.52377 3.61281 0
M  V30 20779 H 1981.7 0.674095 4.12123 0
M  V30 20780 N 1982.13 -1.10905 1.11972 0
M  V30 20781 C 1983.04 -2.20682 0.796029 0
M  V30 20782 C 1984.06 -1.72689 -0.213158 0
M  V30 20783 O 1985.23 -2.01343 -0.047955 0
M  V30 20784 C 1982.3 -3.45797 0.250055 0
M  V30 20785 C 1981.36 -4.08549 1.31855 0
M  V30 20786 C 1980.59 -5.27692 0.798538 0
M  V30 20787 O 1980.82 -5.69202 -0.369435 0
M  V30 20788 O 1979.75 -5.81174 1.5659 0
M  V30 20789 H 1983.58 -2.50794 1.71278 0
M  V30 20790 H 1981.16 -1.19548 0.896024 0
M  V30 20791 H 1983.04 -4.21371 -0.0497791 0
M  V30 20792 H 1981.72 -3.17324 -0.639327 0
M  V30 20793 H 1980.63 -3.34682 1.67148 0
M  V30 20794 H 1981.96 -4.41215 2.18153 0
M  V30 20795 N 1983.61 -0.910886 -1.2861 0
M  V30 20796 C 1984.84 -0.557684 -1.99761 0
M  V30 20797 C 1985.26 0.853148 -1.67639 0
M  V30 20798 O 1984.62 1.5697 -0.907192 0
M  V30 20799 C 1984.67 -0.770188 -3.52279 0
M  V30 20800 O 1983.77 0.172155 -4.12041 0
M  V30 20801 H 1983.11 -0.216573 -0.627688 0
M  V30 20802 H 1985.64 -1.22554 -1.63834 0
M  V30 20803 H 1985.65 -0.679176 -4.02307 0
M  V30 20804 H 1984.33 -1.79869 -3.74993 0
M  V30 20805 H 1982.9 0.0326535 -3.72886 0
M  V30 20806 N 1985.09 1.42434 -0.674558 0
M  V30 20807 C 1986.37 1.95196 -0.125683 0
M  V30 20808 C 1986.75 1.61499 1.35946 0
M  V30 20809 O 1986.09 0.911023 2.09553 0
M  V30 20810 C 1986.3 3.46762 -0.39457 0
M  V30 20811 C 1987.65 4.2346 -0.310951 0
M  V30 20812 O 1988.68 3.54684 -0.328304 0
M  V30 20813 O 1987.53 5.45914 -0.252937 0
M  V30 20814 H 1984.63 0.826995 -0.00272875 0
M  V30 20815 H 1987.17 1.52263 -0.749271 0
M  V30 20816 H 1985.95 3.64493 -1.42339 0
M  V30 20817 H 1985.57 3.96742 0.261037 0
M  V30 20818 N 1986.57 0.417871 1.51959 0
M  V30 20819 C 1987.48 -0.409946 2.3099 0
M  V30 20820 C 1988.49 -1.04559 1.39081 0
M  V30 20821 O 1989.67 -1.0452 1.72155 0
M  V30 20822 C 1986.73 -1.50691 3.12239 0
M  V30 20823 C 1985.79 -0.893424 4.199 0
M  V30 20824 C 1985.03 -1.93812 4.97265 0
M  V30 20825 O 1985.25 -3.15756 4.75031 0
M  V30 20826 O 1984.18 -1.53948 5.81879 0
M  V30 20827 H 1988.01 0.234696 3.02792 0
M  V30 20828 H 1985.6 0.180861 1.48301 0
M  V30 20829 H 1987.48 -2.14355 3.62808 0
M  V30 20830 H 1986.15 -2.136 2.43222 0
M  V30 20831 H 1985.06 -0.219262 3.73457 0
M  V30 20832 H 1986.39 -0.308133 4.91235 0
M  V30 20833 N 1988.04 -1.56898 0.148573 0
M  V30 20834 C 1989.29 -1.96175 -0.502146 0
M  V30 20835 C 1989.62 -1.0335 -1.6477 0
M  V30 20836 O 1988.87 -0.0630213 -1.95599 0
M  V30 20837 C 1989.17 -3.41691 -1.04795 0
M  V30 20838 C 1988.84 -4.50895 -0.0206862 0
M  V30 20839 C 1987.5 -4.80488 0.261702 0
M  V30 20840 C 1989.85 -5.16774 0.677784 0
M  V30 20841 C 1987.18 -5.73266 1.24834 0
M  V30 20842 C 1989.53 -6.10615 1.65325 0
M  V30 20843 C 1988.2 -6.38585 1.94332 0
M  V30 20844 H 1987.47 -0.717856 -0.183748 0
M  V30 20845 H 1990.11 -1.90044 0.235735 0
M  V30 20846 H 1988.42 -3.44662 -1.8632 0
M  V30 20847 H 1990.12 -3.6941 -1.56004 0
M  V30 20848 H 1986.71 -4.27865 -0.250964 0
M  V30 20849 H 1990.89 -4.94043 0.472813 0
M  V30 20850 H 1986.15 -5.93229 1.4795 0
M  V30 20851 H 1990.32 -6.60738 2.19997 0
M  V30 20852 H 1987.95 -7.1028 2.70935 0
M  V30 20853 N 1989.52 0.125209 -1.57102 0
M  V30 20854 C 1990.45 1.15521 -2.02922 0
M  V30 20855 C 1991.43 1.43549 -0.912559 0
M  V30 20856 O 1992.62 1.54097 -1.18185 0
M  V30 20857 C 1989.75 2.48297 -2.42829 0
M  V30 20858 C 1988.7 2.34744 -3.57881 0
M  V30 20859 C 1988.03 3.72427 -3.83669 0
M  V30 20860 C 1989.33 1.81317 -4.89818 0
M  V30 20861 H 1991.02 0.774129 -2.89219 0
M  V30 20862 H 1988.57 0.370935 -1.3914 0
M  V30 20863 H 1990.52 3.20597 -2.73487 0
M  V30 20864 H 1989.25 2.88283 -1.53495 0
M  V30 20865 H 1987.9 1.64893 -3.27423 0
M  V30 20866 H 1987.55 4.09887 -2.9155 0
M  V30 20867 H 1987.25 3.64215 -4.61109 0
M  V30 20868 H 1988.78 4.46242 -4.16773 0
M  V30 20869 H 1990.19 2.43429 -5.19052 0
M  V30 20870 H 1988.59 1.83941 -5.71214 0
M  V30 20871 H 1989.66 0.770291 -4.78743 0
M  V30 20872 N 1991 1.52564 0.395213 0
M  V30 20873 C 1991.96 1.76262 1.46508 0
M  V30 20874 C 1992.96 0.632579 1.47835 0
M  V30 20875 O 1994.15 0.900582 1.49115 0
M  V30 20876 C 1991.29 1.85771 2.85835 0
M  V30 20877 H 1992.48 2.71784 1.26782 0
M  V30 20878 H 1990.03 1.43191 0.626572 0
M  V30 20879 H 1990.77 0.922125 3.10914 0
M  V30 20880 H 1990.55 2.67936 2.86274 0
M  V30 20881 H 1992.04 2.05799 3.63368 0
M  V30 20882 N 1992.48 -0.653289 1.43422 0
M  V30 20883 C 1993.89 -0.968948 1.26821 0
M  V30 20884 C 1994.09 -2.00622 0.187882 0
M  V30 20885 O 1993.15 -2.48747 -0.43371 0
M  V30 20886 C 1994.46 -1.45328 2.63249 0
M  V30 20887 C 1996.01 -1.56993 2.70781 0
M  V30 20888 C 1996.49 -2.08817 4.07627 0
M  V30 20889 N 1997.98 -2.16119 4.09691 0
M  V30 20890 C 1998.71 -2.5734 5.1241 0
M  V30 20891 N 1998.21 -2.97858 6.25502 0
M  V30 20892 N 2000 -2.57279 4.99764 0
M  V30 20893 H 1992.15 0.0330932 2.12374 0
M  V30 20894 H 1994.42 -0.0477768 0.946795 0
M  V30 20895 H 1994.12 -0.765519 3.43268 0
M  V30 20896 H 1994 -2.42831 2.8864 0
M  V30 20897 H 1996.38 -2.24871 1.91095 0
M  V30 20898 H 1996.46 -0.579228 2.49156 0
M  V30 20899 H 1996.11 -1.41541 4.87779 0
M  V30 20900 H 1996.04 -3.08718 4.26616 0
M  V30 20901 H 1998.53 -1.8758 3.28058 0
M  V30 20902 H 1998.84 -3.2806 6.99712 0
M  V30 20903 H 1997.19 -2.95662 6.28974 0
M  V30 20904 H 2000.38 -2.25002 4.10478 0
M  V30 20905 H 2000.55 -2.89082 5.79944 0
M  V30 20906 N 1993.96 -1.29952 -0.891648 0
M  V30 20907 C 1995.2 -1.18565 -1.6453 0
M  V30 20908 C 1995.54 0.260539 -1.92444 0
M  V30 20909 O 1994.81 1.18723 -1.54062 0
M  V30 20910 C 1995.09 -2.00774 -2.98934 0
M  V30 20911 C 1994.95 -3.53577 -2.78035 0
M  V30 20912 C 1996.27 -1.84038 -3.99772 0
M  V30 20913 H 1993.38 -0.432073 -0.597061 0
M  V30 20914 H 1996.03 -1.59512 -1.03227 0
M  V30 20915 H 1994.18 -1.65981 -3.51258 0
M  V30 20916 H 1995.85 -3.98394 -2.3255 0
M  V30 20917 H 1994.09 -3.78095 -2.12665 0
M  V30 20918 H 1994.76 -4.06381 -3.73575 0
M  V30 20919 H 1997.24 -2.14444 -3.56585 0
M  V30 20920 H 1996.11 -2.43896 -4.91737 0
M  V30 20921 H 1996.38 -0.797726 -4.34843 0
M  V30 20922 N 1995.44 1.1031 -1.12559 0
M  V30 20923 C 1996.67 1.85808 -0.903269 0
M  V30 20924 C 1997.07 1.80999 0.551003 0
M  V30 20925 O 1996.42 1.19782 1.39277 0
M  V30 20926 C 1996.48 3.35108 -1.30165 0
M  V30 20927 C 1996.14 3.63675 -2.76748 0
M  V30 20928 C 1997.14 3.60165 -3.74936 0
M  V30 20929 C 1994.82 3.92309 -3.13686 0
M  V30 20930 C 1996.82 3.84886 -5.08076 0
M  V30 20931 C 1994.51 4.16686 -4.47008 0
M  V30 20932 C 1995.5 4.12965 -5.44012 0
M  V30 20933 O 1995.19 4.36721 -6.7493 0
M  V30 20934 H 1994.92 0.594057 -0.322602 0
M  V30 20935 H 1997.48 1.40355 -1.49966 0
M  V30 20936 H 1995.71 3.81224 -0.648473 0
M  V30 20937 H 1997.4 3.91997 -1.05325 0
M  V30 20938 H 1998.16 3.3808 -3.47745 0
M  V30 20939 H 1994.04 3.94335 -2.3879 0
M  V30 20940 H 1997.59 3.81897 -5.83781 0
M  V30 20941 H 1993.48 4.3825 -4.73927 0
M  V30 20942 H 1994.25 4.54229 -6.80895 0
M  V30 20943 N 1996.91 0.917694 1.28125 0
M  V30 20944 C 1997.82 0.414339 2.30912 0
M  V30 20945 C 1998.84 -0.49998 1.66662 0
M  V30 20946 O 2000.02 -0.385213 1.97682 0
M  V30 20947 C 1997.08 -0.333886 3.45089 0
M  V30 20948 C 1996.14 0.614131 4.24885 0
M  V30 20949 C 1995.37 -0.0984806 5.33609 0
M  V30 20950 O 1995.6 -1.31956 5.54927 0
M  V30 20951 O 1994.53 0.568228 5.99212 0
M  V30 20952 H 1998.36 1.26755 2.75984 0
M  V30 20953 H 1995.94 0.682661 1.32891 0
M  V30 20954 H 1997.82 -0.756311 4.14557 0
M  V30 20955 H 1996.5 -1.16286 3.02091 0
M  V30 20956 H 1995.41 1.08603 3.57989 0
M  V30 20957 H 1996.74 1.41003 4.71571 0
M  V30 20958 N 1998.39 -1.42074 0.682102 0
M  V30 20959 C 1999.34 -2.30799 0.00831535 0
M  V30 20960 C 2000.31 -1.46368 -0.785221 0
M  V30 20961 O 2001.49 -1.75184 -0.755989 0
M  V30 20962 C 1998.63 -3.32283 -0.931784 0
M  V30 20963 C 1997.75 -4.318 -0.131295 0
M  V30 20964 C 1996.88 -5.20357 -1.06781 0
M  V30 20965 C 1995.92 -6.1155 -0.259435 0
M  V30 20966 N 1995.06 -6.92634 -1.14904 0
M  V30 20967 H 1999.9 -2.87861 0.770715 0
M  V30 20968 H 1997.43 -1.41786 0.391799 0
M  V30 20969 H 1999.39 -3.89657 -1.49074 0
M  V30 20970 H 1998.02 -2.76802 -1.66073 0
M  V30 20971 H 1997.07 -3.76484 0.54439 0
M  V30 20972 H 1998.39 -4.96328 0.495998 0
M  V30 20973 H 1997.54 -5.82499 -1.69645 0
M  V30 20974 H 1996.28 -4.56024 -1.72898 0
M  V30 20975 H 1995.28 -5.48469 0.382368 0
M  V30 20976 H 1996.51 -6.77934 0.397744 0
M  V30 20977 H 1994.46 -6.30922 -1.79648 0
M  V30 20978 H 1994.37 -7.53795 -0.577001 0
M  V30 20979 H 1995.64 -7.59257 -1.76492 0
M  V30 20980 N 1999.87 -0.425924 -1.51735 0
M  V30 20981 C 2000.8 0.382011 -2.30354 0
M  V30 20982 C 2001.78 1.03124 -1.35276 0
M  V30 20983 O 2002.97 1.03705 -1.64191 0
M  V30 20984 C 2000.1 1.48978 -3.13724 0
M  V30 20985 C 1999.05 0.964659 -4.16987 0
M  V30 20986 C 1998.38 2.1673 -4.88807 0
M  V30 20987 C 1999.68 0.00700314 -5.223 0
M  V30 20988 H 2001.37 -0.274043 -2.98143 0
M  V30 20989 H 1998.92 -0.133238 -1.43382 0
M  V30 20990 H 2000.87 2.06211 -3.67498 0
M  V30 20991 H 1999.59 2.17396 -2.43735 0
M  V30 20992 H 1998.25 0.414618 -3.64248 0
M  V30 20993 H 1997.9 2.83741 -4.15331 0
M  V30 20994 H 1997.6 1.82239 -5.58626 0
M  V30 20995 H 1999.12 2.74538 -5.454 0
M  V30 20996 H 2000.54 0.488665 -5.71214 0
M  V30 20997 H 1998.93 -0.249924 -5.99579 0
M  V30 20998 H 2000 -0.933195 -4.75836 0
M  V30 20999 N 2001.35 1.56817 -0.156891 0
M  V30 21000 C 2002.6 1.95614 0.491749 0
M  V30 21001 C 2002.91 1.04481 1.65357 0
M  V30 21002 O 2004.12 1.32898 2.36749 0
M  V30 21003 C 2002.57 3.47777 0.926222 0
M  V30 21004 C 2002.18 4.47511 -0.209209 0
M  V30 21005 C 2003.92 3.95421 1.54409 0
M  V30 21006 C 2001.83 5.90896 0.244087 0
M  V30 21007 H 2000.76 0.73032 0.187481 0
M  V30 21008 H 2003.41 1.81886 -0.242819 0
M  V30 21009 H 2001.79 3.56872 1.71634 0
M  V30 21010 H 2002.97 4.5012 -0.986326 0
M  V30 21011 H 2001.28 4.09842 -0.736118 0
M  V30 21012 H 2003.88 4.99992 1.89504 0
M  V30 21013 H 2004.22 3.37535 2.43672 0
M  V30 21014 H 2004.76 3.89284 0.818685 0
M  V30 21015 H 2001.49 6.52624 -0.613406 0
M  V30 21016 H 2001.01 5.91626 0.986869 0
M  V30 21017 H 2002.69 6.4328 0.6928 0
M  V30 21018 N 2002.83 -0.116876 1.57166 0
M  V30 21019 C 2004.05 -0.838417 1.89151 0
M  V30 21020 C 2004.47 -1.73335 0.748361 0
M  V30 21021 O 2003.83 -1.80328 -0.280719 0
M  V30 21022 C 2003.88 -1.67006 3.20611 0
M  V30 21023 O 2003.6 -0.811158 4.30525 0
M  V30 21024 C 2005.1 -2.49657 3.66314 0
M  V30 21025 H 2002.32 -0.240909 0.626262 0
M  V30 21026 H 2004.86 -0.100631 2.04252 0
M  V30 21027 H 2003.02 -2.36058 3.07173 0
M  V30 21028 H 2003.43 -1.38499 5.05884 0
M  V30 21029 H 2004.91 -3.03537 4.61052 0
M  V30 21030 H 2005.38 -3.27114 2.93075 0
M  V30 21031 H 2005.99 -1.85844 3.82547 0
M  V30 21032 N 2004.3 -1.52772 -0.387116 0
M  V30 21033 C 2005.55 -1.67576 -1.12973 0
M  V30 21034 C 2005.87 -0.419122 -1.90443 0
M  V30 21035 O 2005.14 0.566514 -1.8753 0
M  V30 21036 H 2003.72 -0.617716 -0.420043 0
M  V30 21037 H 2006.38 -1.89892 -0.43896 0
M  V30 21038 H 2005.48 -2.52704 -1.83158 0
M  V30 21039 N 2005.78 0.645673 -1.43767 0
M  V30 21040 C 2007.02 1.41719 -1.47293 0
M  V30 21041 C 2007.39 1.91753 -0.0972655 0
M  V30 21042 O 2008.59 2.68799 -0.007206 0
M  V30 21043 C 2006.86 2.56163 -2.4923 0
M  V30 21044 S 2008.42 3.44572 -2.7169 0
M  V30 21045 H 2005.23 0.483664 -0.521143 0
M  V30 21046 H 2007.84 0.748898 -1.80587 0
M  V30 21047 H 2006.54 2.17691 -3.47906 0
M  V30 21048 H 2006.07 3.27834 -2.17458 0
M  V30 21049 H 2008.09 4.53139 -2.02186 0
M  V30 21050 N 2007.26 1.30423 0.884744 0
M  V30 21051 C 2008.49 1.22007 1.66727 0
M  V30 21052 C 2008.9 -0.219474 1.87923 0
M  V30 21053 O 2008.24 -1.1569 1.42694 0
M  V30 21054 C 2008.3 1.87825 3.06532 0
M  V30 21055 C 2007.97 3.37154 3.08507 0
M  V30 21056 C 2008.96 4.33143 2.87547 0
M  V30 21057 C 2006.65 3.78604 3.30097 0
M  V30 21058 C 2008.64 5.68557 2.88135 0
M  V30 21059 C 2006.33 5.14136 3.30314 0
M  V30 21060 C 2007.33 6.08923 3.09357 0
M  V30 21061 O 2007.02 7.41979 3.09391 0
M  V30 21062 H 2006.75 0.423347 0.527023 0
M  V30 21063 H 2009.3 1.72587 1.11369 0
M  V30 21064 H 2007.53 1.31776 3.63555 0
M  V30 21065 H 2009.22 1.73527 3.66938 0
M  V30 21066 H 2009.99 4.0245 2.70664 0
M  V30 21067 H 2005.87 3.05269 3.45444 0
M  V30 21068 H 2009.41 6.42516 2.71696 0
M  V30 21069 H 2005.31 5.44469 3.46733 0
M  V30 21070 H 2006.07 7.5097 3.25555 0
M  V30 21071 N 2008.74 -1.09711 1.13142 0
M  V30 21072 C 2009.69 -2.18355 0.801498 0
M  V30 21073 C 2010.68 -1.68031 -0.214907 0
M  V30 21074 O 2011.89 -1.79855 -0.0723523 0
M  V30 21075 H 2008.26 -0.712202 0.241398 0
M  V30 21076 H 2010.23 -2.43416 1.72601 0
M  V30 21077 C 2008.98 -3.46566 0.280613 0
M  V30 21078 H 2008.3 -3.85656 1.05403 0
M  V30 21079 H 2009.74 -4.23908 0.0881579 0
M  V30 21080 C 2008.2 -3.21932 -0.993053 0
M  V30 21081 O 2008.73 -3.44292 -2.06944 0
M  V30 21082 N 2006.94 -2.75553 -0.922971 0
M  V30 21083 H 2006.49 -2.57557 -0.0468975 0
M  V30 21084 H 2006.44 -2.59449 -1.77577 0
M  V30 21085 N 2010.22 -0.924476 -1.27637 0
M  V30 21086 C 2011.47 -0.559056 -1.93797 0
M  V30 21087 C 2011.78 0.903501 -1.73483 0
M  V30 21088 O 2012.98 1.37756 -2.33956 0
M  V30 21089 C 2011.44 -0.949035 -3.47162 0
M  V30 21090 C 2011.05 -2.43205 -3.76238 0
M  V30 21091 C 2012.79 -0.654714 -4.19421 0
M  V30 21092 C 2010.7 -2.7616 -5.22962 0
M  V30 21093 H 2009.63 -0.205363 -0.725494 0
M  V30 21094 H 2012.28 -1.12485 -1.4498 0
M  V30 21095 H 2010.66 -0.311922 -3.9477 0
M  V30 21096 H 2011.84 -3.1168 -3.39399 0
M  V30 21097 H 2010.15 -2.69794 -3.17176 0
M  V30 21098 H 2012.75 -0.877465 -5.27451 0
M  V30 21099 H 2013.09 0.407944 -4.14296 0
M  V30 21100 H 2013.62 -1.25078 -3.77625 0
M  V30 21101 H 2010.36 -3.81322 -5.33173 0
M  V30 21102 H 2009.88 -2.12332 -5.60959 0
M  V30 21103 H 2011.56 -2.63732 -5.90808 0
M  V30 21104 N 2011.69 1.41711 -0.689627 0
M  V30 21105 C 2012.62 2.33474 -0.0348045 0
M  V30 21106 C 2013.61 1.51494 0.773533 0
M  V30 21107 O 2014.79 1.8005 0.727705 0
M  V30 21108 C 2011.92 3.35259 0.906573 0
M  V30 21109 C 2010.87 4.27505 0.205762 0
M  V30 21110 C 2010.2 5.19616 1.26109 0
M  V30 21111 C 2011.5 5.14056 -0.92431 0
M  V30 21112 H 2013.19 2.88481 -0.801208 0
M  V30 21113 H 2010.74 1.3871 -0.386738 0
M  V30 21114 H 2012.69 3.98375 1.37386 0
M  V30 21115 H 2011.42 2.78589 1.70457 0
M  V30 21116 H 2010.08 3.65804 -0.241437 0
M  V30 21117 H 2009.72 4.59264 2.05147 0
M  V30 21118 H 2009.42 5.82167 0.797221 0
M  V30 21119 H 2010.95 5.85609 1.72901 0
M  V30 21120 H 2012.36 5.70774 -0.537573 0
M  V30 21121 H 2010.76 5.85517 -1.3149 0
M  V30 21122 H 2011.83 4.51574 -1.7666 0
M  V30 21123 N 2013.17 0.433965 1.51507 0
M  V30 21124 C 2014.14 -0.367505 2.26234 0
M  V30 21125 C 2015.14 -0.952583 1.29547 0
M  V30 21126 O 2016.33 -0.827563 1.53287 0
M  V30 21127 C 2013.46 -1.51964 3.05155 0
M  V30 21128 H 2014.65 0.28735 2.9852 0
M  V30 21129 H 2012.2 0.187052 1.55177 0
M  V30 21130 H 2012.94 -2.21064 2.37278 0
M  V30 21131 H 2012.72 -1.10632 3.76169 0
M  V30 21132 H 2014.21 -2.08597 3.61769 0
M  V30 21133 N 2014.65 -1.56732 0.165206 0
M  V30 21134 C 2015.6 -2.18974 -0.784415 0
M  V30 21135 C 2016.59 -1.15199 -1.242 0
M  V30 21136 O 2017.8 -1.33411 -1.20837 0
M  V30 21137 H 2014.17 -0.701387 -0.27122 0
M  V30 21138 H 2016.14 -2.9747 -0.235435 0
M  V30 21139 C 2014.89 -2.83996 -2.00603 0
M  V30 21140 H 2014.22 -3.63574 -1.66295 0
M  V30 21141 H 2015.66 -3.31025 -2.6495 0
M  V30 21142 C 2014.12 -1.83448 -2.82574 0
M  V30 21143 O 2014.65 -1.31617 -3.79526 0
M  V30 21144 N 2012.85 -1.52342 -2.47468 0
M  V30 21145 H 2012.4 -1.94684 -1.68689 0
M  V30 21146 H 2012.36 -0.853184 -3.02602 0
M  V30 21147 N 2016.13 0.10854 -1.57226 0
M  V30 21148 C 2017.08 1.13867 -1.97531 0
M  V30 21149 C 2018.06 1.36505 -0.851775 0
M  V30 21150 O 2019.25 1.37422 -1.11554 0
M  V30 21151 C 2016.38 2.4625 -2.39198 0
M  V30 21152 C 2015.47 2.27043 -3.58207 0
M  V30 21153 N 2015.86 1.77671 -4.73568 0
M  V30 21154 C 2014.16 2.5766 -3.64043 0
M  V30 21155 C 2014.86 1.72418 -5.5556 0
M  V30 21156 N 2013.84 2.17145 -4.98346 0
M  V30 21157 H 2017.64 0.749664 -2.84178 0
M  V30 21158 H 2015.15 0.31615 -1.59293 0
M  V30 21159 H 2017.15 3.20769 -2.66295 0
M  V30 21160 H 2015.81 2.859 -1.5392 0
M  V30 21161 H 2016.82 1.47065 -4.96581 0
M  V30 21162 H 2013.5 3.00925 -2.89397 0
M  V30 21163 H 2014.89 1.35411 -6.58113 0
M  V30 21164 N 2017.61 1.52975 0.379009 0
M  V30 21165 C 2018.57 1.77806 1.4463 0
M  V30 21166 C 2019.57 0.648223 1.47155 0
M  V30 21167 O 2020.76 0.916347 1.48151 0
M  V30 21168 C 2017.89 1.88792 2.83849 0
M  V30 21169 H 2019.08 2.73113 1.23892 0
M  V30 21170 H 2016.64 1.43848 0.61135 0
M  V30 21171 H 2017.37 0.955049 3.09918 0
M  V30 21172 H 2017.16 2.70957 2.83416 0
M  V30 21173 H 2018.65 2.09642 3.61165 0
M  V30 21174 N 2019.08 -0.63804 1.44107 0
M  V30 21175 C 2020.36 -1.39606 1.37002 0
M  V30 21176 C 2020.74 -2.11085 0.0252978 0
M  V30 21177 O 2020.09 -2.0585 -0.991871 0
M  V30 21178 C 2020.3 -2.3682 2.56353 0
M  V30 21179 C 2021.65 -3.00362 3.00113 0
M  V30 21180 O 2022.67 -2.47147 2.56509 0
M  V30 21181 O 2021.53 -3.96881 3.75696 0
M  V30 21182 H 2018.62 -0.624471 0.542186 0
M  V30 21183 H 2021.17 -0.663674 1.56184 0
M  V30 21184 H 2019.94 -1.83054 3.45842 0
M  V30 21185 H 2019.57 -3.17487 2.39349 0
M  V30 21186 N 2020.56 -1.3089 -0.877815 0
M  V30 21187 C 2021.97 -1.18126 -1.44579 0
M  V30 21188 C 2022.32 0.215306 -1.95015 0
M  V30 21189 O 2021.45 1.11252 -1.85613 0
M  V30 21190 C 2022.04 -2.13835 -2.62793 0
M  V30 21191 C 2020.6 -2.05028 -3.15659 0
M  V30 21192 C 2019.75 -2.03509 -1.88359 0
M  V30 21193 H 2022.7 -1.43056 -0.687082 0
M  V30 21194 H 2022.72 -1.72337 -3.39235 0
M  V30 21195 H 2022.23 -3.1547 -2.26054 0
M  V30 21196 H 2020.34 -1.0656 -3.57037 0
M  V30 21197 H 2020.45 -2.9376 -3.78473 0
M  V30 21198 H 2018.81 -1.48412 -2.06992 0
M  V30 21199 H 2019.6 -3.06887 -1.53869 0
M  V30 21200 N 2022.04 1.0911 -1.13723 0
M  V30 21201 C 2022.99 2.17927 -0.813066 0
M  V30 21202 C 2023.98 1.68143 0.205993 0
M  V30 21203 O 2025.19 1.7989 0.0628131 0
M  V30 21204 H 2021.56 0.710911 -0.245171 0
M  V30 21205 H 2023.53 2.42497 -1.7389 0
M  V30 21206 C 2022.28 3.46412 -0.298989 0
M  V30 21207 H 2021.61 3.85091 -1.07447 0
M  V30 21208 H 2023.05 4.23856 -0.110638 0
M  V30 21209 C 2021.51 3.22454 0.975967 0
M  V30 21210 O 2022.04 3.45385 2.05115 0
M  V30 21211 N 2020.24 2.76039 0.908345 0
M  V30 21212 H 2019.79 2.57579 0.0332379 0
M  V30 21213 H 2019.75 2.60387 1.76199 0
M  V30 21214 N 2023.52 0.931232 1.27145 0
M  V30 21215 C 2024.74 0.589393 1.98849 0
M  V30 21216 C 2025.17 -0.82637 1.68976 0
M  V30 21217 O 2024.53 -1.55507 0.93205 0
M  V30 21218 C 2024.57 0.826135 3.51009 0
M  V30 21219 O 2023.68 -0.106581 4.12262 0
M  V30 21220 H 2023.02 0.226532 0.624163 0
M  V30 21221 H 2025.55 1.25145 1.61864 0
M  V30 21222 H 2025.56 0.743094 4.01176 0
M  V30 21223 H 2024.23 1.85812 3.72084 0
M  V30 21224 H 2022.81 0.0266735 3.7289 0
M  V30 21225 N 2025 -1.41343 0.697132 0
M  V30 21226 C 2026.25 -2.00806 0.228308 0
M  V30 21227 C 2026.57 -1.55497 -1.17668 0
M  V30 21228 O 2025.84 -0.786272 -1.79428 0
M  V30 21229 H 2024.42 -0.74255 0.0814173 0
M  V30 21230 H 2027.08 -1.72946 0.898641 0
M  V30 21231 H 2026.17 -3.11121 0.246954 0
M  V30 21232 N 2026.48 -0.441993 -1.51275 0
M  V30 21233 C 2027.41 0.357557 -2.30746 0
M  V30 21234 C 2028.39 1.01683 -1.36362 0
M  V30 21235 O 2029.57 1.01958 -1.65282 0
M  V30 21236 C 2026.7 1.45642 -3.15287 0
M  V30 21237 C 2025.66 0.920377 -4.17987 0
M  V30 21238 C 2024.98 2.11534 -4.91078 0
M  V30 21239 C 2026.28 -0.0483941 -5.22278 0
M  V30 21240 H 2027.98 -0.30565 -2.97836 0
M  V30 21241 H 2025.52 -0.148438 -1.43233 0
M  V30 21242 H 2027.47 2.02301 -3.69665 0
M  V30 21243 H 2026.2 2.14798 -2.46027 0
M  V30 21244 H 2024.86 0.375962 -3.64667 0
M  V30 21245 H 2024.51 2.7932 -4.18317 0
M  V30 21246 H 2024.21 1.76303 -5.60527 0
M  V30 21247 H 2025.73 2.68738 -5.48281 0
M  V30 21248 H 2027.14 0.428053 -5.717 0
M  V30 21249 H 2025.54 -0.313504 -5.99281 0
M  V30 21250 H 2026.61 -0.983611 -4.74819 0
M  V30 21251 N 2027.95 1.56642 -0.173515 0
M  V30 21252 C 2029.23 1.88634 0.517348 0
M  V30 21253 C 2029.61 1.08374 1.81158 0
M  V30 21254 O 2028.96 0.178319 2.27803 0
M  V30 21255 C 2029.17 3.40689 0.757118 0
M  V30 21256 C 2030.52 4.10473 1.08614 0
M  V30 21257 O 2031.54 3.46018 0.845582 0
M  V30 21258 O 2030.4 5.24351 1.54008 0
M  V30 21259 H 2027.49 0.782731 0.266949 0
M  V30 21260 H 2030.04 1.68369 -0.212115 0
M  V30 21261 H 2028.81 3.90982 -0.157737 0
M  V30 21262 H 2028.43 3.66572 1.53982 0
M  V30 21263 N 2029.43 -0.1002 1.57281 0
M  V30 21264 C 2030.34 -1.14039 2.05018 0
M  V30 21265 C 2031.36 -1.44178 0.974096 0
M  V30 21266 O 2032.53 -1.54921 1.28691 0
M  V30 21267 C 2029.6 -2.44226 2.46078 0
M  V30 21268 C 2028.66 -2.21315 3.67856 0
M  V30 21269 C 2027.89 -3.45295 4.06948 0
M  V30 21270 O 2028.12 -4.53334 3.46185 0
M  V30 21271 O 2027.05 -3.35185 4.99935 0
M  V30 21272 H 2030.88 -0.764957 2.93908 0
M  V30 21273 H 2028.46 -0.312347 1.46098 0
M  V30 21274 H 2030.34 -3.20895 2.73138 0
M  V30 21275 H 2029.02 -2.81206 1.60327 0
M  V30 21276 H 2027.92 -1.42444 3.4592 0
M  V30 21277 H 2029.26 -1.89231 4.54371 0
M  V30 21278 N 2030.91 -1.53174 -0.370891 0
M  V30 21279 C 2032.13 -1.73304 -1.13932 0
M  V30 21280 C 2032.56 -0.458494 -1.82427 0
M  V30 21281 O 2031.92 0.587094 -1.71531 0
M  V30 21282 C 2031.97 -2.89544 -2.14933 0
M  V30 21283 O 2031.07 -2.57782 -3.21904 0
M  V30 21284 H 2030.41 -0.575715 -0.33083 0
M  V30 21285 H 2032.94 -2.00038 -0.429641 0
M  V30 21286 H 2032.95 -3.15559 -2.58625 0
M  V30 21287 H 2031.63 -3.81998 -1.64471 0
M  V30 21288 H 2030.2 -2.42568 -2.83223 0
M  V30 21289 N 2032.39 0.630389 -1.44443 0
M  V30 21290 C 2033.64 1.38591 -1.46545 0
M  V30 21291 C 2033.95 1.95333 -0.102227 0
M  V30 21292 O 2035.16 2.715 -0.000780135 0
M  V30 21293 C 2033.61 2.50929 -2.57998 0
M  V30 21294 C 2033.22 2.00697 -4.00531 0
M  V30 21295 C 2034.96 3.28126 -2.69321 0
M  V30 21296 C 2032.87 3.10381 -5.03406 0
M  V30 21297 H 2031.8 0.520816 -0.545221 0
M  V30 21298 H 2034.45 0.678097 -1.70511 0
M  V30 21299 H 2032.83 3.24288 -2.27273 0
M  V30 21300 H 2034.01 1.34197 -4.40826 0
M  V30 21301 H 2032.32 1.36313 -3.93456 0
M  V30 21302 H 2034.92 4.09894 -3.43353 0
M  V30 21303 H 2035.26 3.77655 -1.75164 0
M  V30 21304 H 2035.8 2.61857 -2.99459 0
M  V30 21305 H 2032.53 2.65795 -5.99194 0
M  V30 21306 H 2032.05 3.7552 -4.67702 0
M  V30 21307 H 2033.73 3.75144 -5.27139 0
M  V30 21308 N 2033.87 1.31354 0.870861 0
M  V30 21309 C 2034.8 1.21518 1.99388 0
M  V30 21310 C 2035.78 0.102582 1.6979 0
M  V30 21311 O 2036.96 0.287028 1.92067 0
M  V30 21312 C 2034.09 0.920813 3.34871 0
M  V30 21313 C 2033.05 1.99289 3.78772 0
M  V30 21314 C 2032.37 1.55123 5.11704 0
M  V30 21315 C 2033.67 3.40589 3.95975 0
M  V30 21316 H 2035.37 2.15473 2.07875 0
M  V30 21317 H 2032.91 1.03734 0.998761 0
M  V30 21318 H 2034.86 0.838612 4.12971 0
M  V30 21319 H 2033.59 -0.0543971 3.26555 0
M  V30 21320 H 2032.25 2.06496 3.0291 0
M  V30 21321 H 2031.9 0.563901 4.99829 0
M  V30 21322 H 2031.6 2.26842 5.42048 0
M  V30 21323 H 2033.12 1.48308 5.92315 0
M  V30 21324 H 2034.53 3.36061 4.64474 0
M  V30 21325 H 2032.93 4.10517 4.37716 0
M  V30 21326 H 2034 3.8144 2.99385 0
M  V30 21327 N 2035.34 -1.08505 1.143 0
M  V30 21328 C 2036.25 -2.18944 0.84266 0
M  V30 21329 C 2037.27 -1.73103 -0.17648 0
M  V30 21330 O 2038.45 -2.01399 -0.0052364 0
M  V30 21331 C 2035.51 -3.45189 0.323347 0
M  V30 21332 C 2034.57 -4.05661 1.40492 0
M  V30 21333 C 2033.8 -5.2588 0.910289 0
M  V30 21334 O 2034.03 -5.69858 -0.248616 0
M  V30 21335 O 2032.96 -5.77722 1.68882 0
M  V30 21336 H 2036.79 -2.47104 1.76559 0
M  V30 21337 H 2034.37 -1.17621 0.921181 0
M  V30 21338 H 2036.25 -4.21381 0.039611 0
M  V30 21339 H 2034.93 -3.18608 -0.571874 0
M  V30 21340 H 2033.84 -3.31061 1.7421 0
M  V30 21341 H 2035.17 -4.36488 2.27462 0
M  V30 21342 N 2036.82 -0.937962 -1.26649 0
M  V30 21343 C 2037.73 -0.451023 -2.30224 0
M  V30 21344 C 2038.75 0.473402 -1.67436 0
M  V30 21345 O 2039.92 0.353715 -1.9827 0
M  V30 21346 C 2036.99 0.278943 -3.45576 0
M  V30 21347 C 2036.05 -0.681649 -4.23854 0
M  V30 21348 C 2035.28 0.0135756 -5.33698 0
M  V30 21349 O 2035.51 1.2311 -5.56956 0
M  V30 21350 O 2034.44 -0.663486 -5.98232 0
M  V30 21351 H 2038.27 -1.31129 -2.73932 0
M  V30 21352 H 2035.85 -0.703717 -1.31788 0
M  V30 21353 H 2037.73 0.690262 -4.15708 0
M  V30 21354 H 2036.41 1.11465 -3.03903 0
M  V30 21355 H 2035.31 -1.14285 -3.56216 0
M  V30 21356 H 2036.65 -1.48488 -4.69268 0
M  V30 21357 N 2038.3 1.40971 -0.704618 0
M  V30 21358 C 2039.54 2.02942 -0.243703 0
M  V30 21359 C 2039.9 1.54632 1.13811 0
M  V30 21360 O 2041.1 2.0859 1.69539 0
M  V30 21361 C 2039.38 3.56063 -0.308811 0
M  V30 21362 S 2040.93 4.38733 0.0767306 0
M  V30 21363 H 2037.75 0.704288 -0.0974636 0
M  V30 21364 H 2040.35 1.72264 -0.924405 0
M  V30 21365 H 2039.06 3.88717 -1.31632 0
M  V30 21366 H 2038.59 3.91455 0.390738 0
M  V30 21367 H 2040.6 4.78816 1.30193 0
M  V30 21368 N 2039.78 0.45001 1.51039 0
M  V30 21369 C 2040.71 -0.345315 2.30933 0
M  V30 21370 C 2041.69 -1.00959 1.36899 0
M  V30 21371 O 2042.87 -1.0108 1.6582 0
M  V30 21372 C 2040 -1.43968 3.16055 0
M  V30 21373 C 2038.96 -0.898198 4.18469 0
M  V30 21374 C 2038.28 -2.08927 4.92193 0
M  V30 21375 C 2039.58 0.0760911 5.22245 0
M  V30 21376 H 2041.28 0.321441 2.97669 0
M  V30 21377 H 2038.82 0.156032 1.43152 0
M  V30 21378 H 2040.78 -2.00338 3.70732 0
M  V30 21379 H 2039.5 -2.1349 2.47163 0
M  V30 21380 H 2038.16 -0.356617 3.64861 0
M  V30 21381 H 2037.81 -2.77098 4.19792 0
M  V30 21382 H 2037.51 -1.73328 5.61454 0
M  V30 21383 H 2039.03 -2.65827 5.49698 0
M  V30 21384 H 2040.45 -0.397728 5.71919 0
M  V30 21385 H 2038.84 0.345281 5.99106 0
M  V30 21386 H 2039.91 1.00878 4.74291 0
M  V30 21387 N 2041.26 -1.56548 0.18182 0
M  V30 21388 C 2042.19 -2.15665 -0.775955 0
M  V30 21389 C 2043.2 -1.11496 -1.18627 0
M  V30 21390 O 2044.39 -1.38642 -1.1243 0
M  V30 21391 C 2041.49 -2.69305 -2.05738 0
M  V30 21392 C 2040.66 -3.9824 -1.80897 0
M  V30 21393 C 2039.72 -4.36838 -2.93358 0
M  V30 21394 O 2038.75 -5.04516 -2.63539 0
M  V30 21395 N 2039.95 -3.99254 -4.21398 0
M  V30 21396 H 2042.72 -2.98477 -0.270484 0
M  V30 21397 H 2040.28 -1.619 -0.000606634 0
M  V30 21398 H 2042.27 -2.92119 -2.80087 0
M  V30 21399 H 2040.84 -1.91023 -2.47445 0
M  V30 21400 H 2040.06 -3.83695 -0.903963 0
M  V30 21401 H 2041.35 -4.82428 -1.6168 0
M  V30 21402 H 2040.74 -3.44791 -4.48482 0
M  V30 21403 H 2039.3 -4.27047 -4.92417 0
M  V30 21404 N 2042.73 0.0918577 -1.57332 0
M  V30 21405 C 2043.96 0.807046 -1.90185 0
M  V30 21406 C 2044.37 1.72642 -0.774035 0
M  V30 21407 O 2043.72 1.81811 0.262746 0
M  V30 21408 C 2043.78 1.67067 -3.18322 0
M  V30 21409 C 2043.44 0.922776 -4.47587 0
M  V30 21410 C 2044.44 0.251109 -5.19293 0
M  V30 21411 C 2042.12 0.895897 -4.94246 0
M  V30 21412 C 2044.12 -0.437433 -6.35897 0
M  V30 21413 C 2041.8 0.203571 -6.10761 0
M  V30 21414 C 2042.8 -0.461913 -6.81436 0
M  V30 21415 O 2042.49 -1.14313 -7.95731 0
M  V30 21416 H 2042.22 0.235807 -0.633539 0
M  V30 21417 H 2044.78 0.0725289 -2.05272 0
M  V30 21418 H 2043.01 2.4475 -2.9939 0
M  V30 21419 H 2044.7 2.26271 -3.36981 0
M  V30 21420 H 2045.46 0.263315 -4.84285 0
M  V30 21421 H 2041.34 1.40333 -4.39122 0
M  V30 21422 H 2044.88 -0.957435 -6.90999 0
M  V30 21423 H 2040.78 0.189223 -6.45223 0
M  V30 21424 H 2041.55 -1.05035 -8.11733 0
M  V30 21425 N 2044.21 1.53368 0.362763 0
M  V30 21426 C 2045.14 1.82984 1.45048 0
M  V30 21427 C 2046.12 0.683544 1.55762 0
M  V30 21428 O 2047.31 0.933658 1.70283 0
M  V30 21429 C 2044.44 2.02227 2.8235 0
M  V30 21430 C 2043.39 3.18002 2.86459 0
M  V30 21431 C 2042.72 3.22543 4.26463 0
M  V30 21432 C 2044.02 4.56531 2.53726 0
M  V30 21433 H 2045.71 2.74075 1.20513 0
M  V30 21434 H 2043.26 1.31877 0.578302 0
M  V30 21435 H 2045.21 2.21529 3.58473 0
M  V30 21436 H 2043.94 1.07849 3.08279 0
M  V30 21437 H 2042.59 2.98525 2.12787 0
M  V30 21438 H 2042.24 2.25797 4.49472 0
M  V30 21439 H 2041.94 4.00331 4.30127 0
M  V30 21440 H 2043.47 3.44032 5.04455 0
M  V30 21441 H 2044.88 4.75975 3.19563 0
M  V30 21442 H 2043.28 5.36581 2.68703 0
M  V30 21443 H 2044.35 4.61451 1.48967 0
M  V30 21444 N 2045.69 -0.62272 1.44776 0
M  V30 21445 C 2046.6 -1.76282 1.54796 0
M  V30 21446 C 2047.62 -1.68522 0.433164 0
M  V30 21447 O 2048.79 -1.89149 0.691713 0
M  V30 21448 C 2045.86 -3.12697 1.49737 0
M  V30 21449 C 2044.92 -3.32026 2.72135 0
M  V30 21450 C 2044.15 -4.61933 2.67308 0
M  V30 21451 O 2044.37 -5.43282 1.73783 0
M  V30 21452 O 2043.31 -4.83646 3.58288 0
M  V30 21453 H 2047.13 -1.70781 2.51133 0
M  V30 21454 H 2044.72 -0.784974 1.27116 0
M  V30 21455 H 2046.6 -3.94001 1.4947 0
M  V30 21456 H 2045.28 -3.18723 0.565471 0
M  V30 21457 H 2044.18 -2.50368 2.77969 0
M  V30 21458 H 2045.52 -3.30868 3.644 0
M  V30 21459 N 2047.17 -1.31814 -0.863883 0
M  V30 21460 C 2048.12 -1.19976 -1.97166 0
M  V30 21461 C 2049.09 -0.0840886 -1.65887 0
M  V30 21462 O 2050.27 -0.258021 -1.89047 0
M  V30 21463 C 2047.41 -0.919316 -3.3263 0
M  V30 21464 C 2046.52 -2.1189 -3.76466 0
M  V30 21465 C 2045.66 -1.77472 -5.00677 0
M  V30 21466 C 2044.7 -2.93804 -5.36978 0
M  V30 21467 N 2043.83 -2.59541 -6.52367 0
M  V30 21468 H 2048.67 -2.14735 -2.06623 0
M  V30 21469 H 2046.21 -1.06811 -1.01143 0
M  V30 21470 H 2048.17 -0.737251 -4.10634 0
M  V30 21471 H 2046.8 -0.0085443 -3.22799 0
M  V30 21472 H 2045.85 -2.41154 -2.94192 0
M  V30 21473 H 2047.16 -2.98939 -3.99295 0
M  V30 21474 H 2046.32 -1.55764 -5.86364 0
M  V30 21475 H 2045.06 -0.876231 -4.79764 0
M  V30 21476 H 2044.06 -3.16154 -4.49807 0
M  V30 21477 H 2045.29 -3.84371 -5.59853 0
M  V30 21478 H 2043.23 -1.72222 -6.32989 0
M  V30 21479 H 2043.15 -3.4012 -6.7517 0
M  V30 21480 H 2044.42 -2.4124 -7.41231 0
M  V30 21481 N 2048.65 1.07897 -1.14873 0
M  V30 21482 C 2049.58 2.14852 -0.798188 0
M  V30 21483 C 2050.59 1.61719 0.187287 0
M  V30 21484 O 2051.78 1.78465 -0.0351681 0
M  V30 21485 C 2048.88 3.38498 -0.16499 0
M  V30 21486 C 2048.05 4.21 -1.1865 0
M  V30 21487 C 2047.11 5.23037 -0.576101 0
M  V30 21488 O 2046.14 5.55518 -1.24051 0
M  V30 21489 N 2047.34 5.76908 0.644745 0
M  V30 21490 H 2050.11 2.45528 -1.71861 0
M  V30 21491 H 2047.67 1.23755 -1.04386 0
M  V30 21492 H 2049.66 4.0389 0.255991 0
M  V30 21493 H 2048.23 3.05582 0.658666 0
M  V30 21494 H 2047.45 3.51509 -1.78423 0
M  V30 21495 H 2048.74 4.72937 -1.87639 0
M  V30 21496 H 2048.13 5.5276 1.20302 0
M  V30 21497 H 2046.69 6.43956 1.00816 0
M  V30 21498 N 2050.12 0.944665 1.2615 0
M  V30 21499 C 2051.05 0.47478 2.28622 0
M  V30 21500 C 2052.04 -0.473742 1.6337 0
M  V30 21501 O 2053.22 -0.374847 1.90548 0
M  V30 21502 C 2050.35 -0.2576 3.46343 0
M  V30 21503 C 2049.3 0.604701 4.23707 0
M  V30 21504 C 2048.63 -0.257841 5.34078 0
M  V30 21505 C 2049.93 1.8778 4.87377 0
M  V30 21506 H 2051.62 1.33122 2.68177 0
M  V30 21507 H 2049.17 0.641555 1.28919 0
M  V30 21508 H 2051.12 -0.597382 4.17144 0
M  V30 21509 H 2049.85 -1.14821 3.05751 0
M  V30 21510 H 2048.51 0.927426 3.54675 0
M  V30 21511 H 2048.15 -1.1479 4.89727 0
M  V30 21512 H 2047.85 0.315739 5.86751 0
M  V30 21513 H 2049.38 -0.592815 6.07715 0
M  V30 21514 H 2050.79 1.60505 5.50374 0
M  V30 21515 H 2049.19 2.39623 5.50182 0
M  V30 21516 H 2050.26 2.58705 4.10122 0
M  V30 21517 N 2051.6 -1.40596 0.712085 0
M  V30 21518 C 2052.51 -2.34528 0.0582122 0
M  V30 21519 C 2053.53 -1.57115 -0.747715 0
M  V30 21520 O 2054.7 -1.8952 -0.681477 0
M  V30 21521 C 2051.77 -3.35992 -0.855008 0
M  V30 21522 C 2050.83 -4.29282 -0.0394267 0
M  V30 21523 C 2050.06 -5.25899 -0.909154 0
M  V30 21524 O 2050.29 -5.28392 -2.14845 0
M  V30 21525 O 2049.22 -6.00881 -0.350012 0
M  V30 21526 H 2053.05 -2.92055 0.832915 0
M  V30 21527 H 2050.63 -1.4173 0.472537 0
M  V30 21528 H 2052.51 -3.98225 -1.3782 0
M  V30 21529 H 2051.19 -2.80883 -1.60892 0
M  V30 21530 H 2050.1 -3.70344 0.528757 0
M  V30 21531 H 2051.43 -4.87533 0.676185 0
M  V30 21532 N 2053.08 -0.458013 -1.50798 0
M  V30 21533 C 2054.31 0.10185 -2.0715 0
M  V30 21534 C 2054.73 1.33899 -1.32109 0
M  V30 21535 O 2054.09 1.77589 -0.364928 0
M  V30 21536 C 2054.14 0.381979 -3.58571 0
M  V30 21537 O 2053.24 1.46484 -3.85508 0
M  V30 21538 H 2052.58 -0.00721903 -0.663961 0
M  V30 21539 H 2055.11 -0.645297 -1.94157 0
M  V30 21540 H 2055.12 0.626354 -4.03163 0
M  V30 21541 H 2053.8 -0.522121 -4.1261 0
M  V30 21542 H 2052.37 1.20881 -3.52764 0
M  V30 21543 N 2054.56 1.56449 -0.190119 0
M  V30 21544 C 2055.78 2.02261 0.458823 0
M  V30 21545 C 2056.21 1.06942 1.54742 0
M  V30 21546 O 2055.57 0.0520711 1.81225 0
M  V30 21547 C 2055.62 3.46549 0.996786 0
M  V30 21548 O 2054.72 3.54338 2.10993 0
M  V30 21549 H 2054.06 0.655191 0.1078 0
M  V30 21550 H 2056.59 2.02396 -0.299535 0
M  V30 21551 H 2056.6 3.8624 1.31465 0
M  V30 21552 H 2055.28 4.1542 0.199852 0
M  V30 21553 H 2053.85 3.2652 1.80109 0
M  V30 21554 N 2056.04 -0.0835127 1.57379 0
M  V30 21555 C 2056.97 -1.12692 1.99582 0
M  V30 21556 C 2057.98 -1.35658 0.900041 0
M  V30 21557 O 2059.17 -1.34105 1.17805 0
M  V30 21558 C 2056.27 -2.4802 2.30953 0
M  V30 21559 C 2055.44 -2.45172 3.62228 0
M  V30 21560 C 2054.5 -3.62516 3.81403 0
M  V30 21561 O 2053.53 -3.44479 4.53126 0
M  V30 21562 N 2054.73 -4.82432 3.22862 0
M  V30 21563 H 2057.5 -0.767618 2.89703 0
M  V30 21564 H 2055.06 -0.272335 1.59593 0
M  V30 21565 H 2057.05 -3.25144 2.40964 0
M  V30 21566 H 2055.62 -2.75996 1.46781 0
M  V30 21567 H 2054.84 -1.53514 3.6308 0
M  V30 21568 H 2056.13 -2.40359 4.48448 0
M  V30 21569 H 2055.53 -4.9999 2.64625 0
M  V30 21570 H 2054.08 -5.57108 3.3834 0
M  V30 21571 N 2057.52 -1.53558 -0.354624 0
M  V30 21572 C 2058.48 -1.80084 -1.41783 0
M  V30 21573 C 2059.48 -0.671552 -1.46105 0
M  V30 21574 O 2060.67 -0.939801 -1.46674 0
M  V30 21575 C 2057.8 -1.93284 -2.8081 0
M  V30 21576 H 2058.99 -2.75049 -1.19532 0
M  V30 21577 H 2056.55 -1.44802 -0.588388 0
M  V30 21578 H 2057.28 -1.00423 -3.0836 0
M  V30 21579 H 2057.07 -2.75432 -2.7907 0
M  V30 21580 H 2058.56 -2.15361 -3.57784 0
M  V30 21581 N 2058.99 0.615033 -1.45104 0
M  V30 21582 C 2060.41 0.934983 -1.29345 0
M  V30 21583 C 2060.61 2.00053 -0.241008 0
M  V30 21584 O 2059.67 2.4981 0.367607 0
M  V30 21585 C 2060.98 1.38297 -2.6701 0
M  V30 21586 C 2062.53 1.49759 -2.74848 0
M  V30 21587 C 2063 1.97936 -4.1302 0
M  V30 21588 N 2064.49 2.05181 -4.15277 0
M  V30 21589 C 2065.23 2.43664 -5.19052 0
M  V30 21590 N 2064.72 2.81169 -6.33179 0
M  V30 21591 N 2066.52 2.43938 -5.06409 0
M  V30 21592 H 2058.67 -0.0893888 -2.12212 0
M  V30 21593 H 2060.93 0.0226574 -0.947729 0
M  V30 21594 H 2060.64 0.674238 -3.45177 0
M  V30 21595 H 2060.51 2.35093 -2.94976 0
M  V30 21596 H 2062.9 2.19725 -1.9699 0
M  V30 21597 H 2062.98 0.512965 -2.50604 0
M  V30 21598 H 2062.62 1.28559 -4.9136 0
M  V30 21599 H 2062.55 2.97298 -4.34651 0
M  V30 21600 H 2065.04 1.78817 -3.32916 0
M  V30 21601 H 2065.36 3.09393 -7.08164 0
M  V30 21602 H 2063.7 2.78882 -6.36592 0
M  V30 21603 H 2066.89 2.1404 -4.16299 0
M  V30 21604 H 2067.07 2.73604 -5.87405 0
M  V30 21605 N 2060.47 1.3227 0.85688 0
M  V30 21606 C 2061.42 1.2102 1.96527 0
M  V30 21607 C 2062.39 0.0928848 1.6584 0
M  V30 21608 O 2063.57 0.268043 1.88908 0
M  V30 21609 C 2060.71 0.936943 3.32138 0
M  V30 21610 C 2059.83 2.13883 3.75337 0
M  V30 21611 C 2058.96 1.80125 4.99728 0
M  V30 21612 C 2058 2.96647 5.35413 0
M  V30 21613 N 2057.14 2.62997 6.50982 0
M  V30 21614 H 2061.98 2.15827 2.05481 0
M  V30 21615 H 2059.51 1.07346 1.00575 0
M  V30 21616 H 2061.47 0.759018 4.10237 0
M  V30 21617 H 2060.1 0.025663 3.2279 0
M  V30 21618 H 2059.15 2.4271 2.92909 0
M  V30 21619 H 2060.47 3.01052 3.97705 0
M  V30 21620 H 2059.62 1.58871 5.8553 0
M  V30 21621 H 2058.36 0.901662 4.79293 0
M  V30 21622 H 2057.36 3.18535 4.48124 0
M  V30 21623 H 2058.59 3.87335 5.57807 0
M  V30 21624 H 2056.54 1.75576 6.32067 0
M  V30 21625 H 2056.45 3.43696 6.73357 0
M  V30 21626 H 2057.72 2.45168 7.39941 0
M  V30 21627 N 2061.95 -1.07287 1.15444 0
M  V30 21628 C 2062.91 -2.12679 0.854419 0
M  V30 21629 C 2063.91 -1.60135 -0.146116 0
M  V30 21630 O 2065.1 -1.73999 0.0835953 0
M  V30 21631 C 2062.23 -3.39782 0.275849 0
M  V30 21632 H 2063.43 -2.40726 1.7886 0
M  V30 21633 H 2060.98 -1.23187 0.96201 0
M  V30 21634 H 2061.72 -3.17377 -0.666496 0
M  V30 21635 H 2061.5 -3.79222 0.996665 0
M  V30 21636 H 2062.99 -4.17516 0.0835417 0
M  V30 21637 N 2063.43 -0.951342 -1.25647 0
M  V30 21638 C 2064.36 -0.413176 -2.24428 0
M  V30 21639 C 2065.34 0.503664 -1.54603 0
M  V30 21640 O 2066.52 0.438794 -1.83322 0
M  V30 21641 C 2063.65 0.405254 -3.36267 0
M  V30 21642 C 2062.7 -0.45151 -4.24103 0
M  V30 21643 S 2063.53 -1.88173 -5.01349 0
M  V30 21644 C 2064.68 -1.07164 -6.16658 0
M  V30 21645 H 2064.92 -1.25033 -2.6973 0
M  V30 21646 H 2062.45 -0.755177 -1.34672 0
M  V30 21647 H 2064.41 0.871528 -4.01142 0
M  V30 21648 H 2063.07 1.21719 -2.89557 0
M  V30 21649 H 2062.26 0.176047 -5.03692 0
M  V30 21650 H 2061.86 -0.852865 -3.64146 0
M  V30 21651 H 2064.16 -0.318733 -6.7675 0
M  V30 21652 H 2065.1 -1.84134 -6.8374 0
M  V30 21653 H 2065.51 -0.603216 -5.61268 0
M  V30 21654 N 2064.91 1.40216 -0.719531 0
M  V30 21655 C 2065.82 2.34494 -0.0706489 0
M  V30 21656 C 2066.83 1.5751 0.739372 0
M  V30 21657 O 2068.01 1.89879 0.671417 0
M  V30 21658 C 2065.07 3.36441 0.837178 0
M  V30 21659 C 2064.13 4.29297 0.0166603 0
M  V30 21660 C 2063.37 5.26374 0.881251 0
M  V30 21661 O 2063.59 5.29524 2.1204 0
M  V30 21662 O 2062.52 6.01059 0.318141 0
M  V30 21663 H 2066.35 2.91609 -0.848392 0
M  V30 21664 H 2063.93 1.41478 -0.480047 0
M  V30 21665 H 2065.82 3.98951 1.35707 0
M  V30 21666 H 2064.49 2.81733 1.594 0
M  V30 21667 H 2063.4 3.70059 -0.54839 0
M  V30 21668 H 2064.73 4.87168 -0.70203 0
M  V30 21669 N 2066.38 0.466004 1.50553 0
M  V30 21670 C 2067.29 -0.33625 2.32178 0
M  V30 21671 C 2068.31 -1.00081 1.42337 0
M  V30 21672 O 2069.49 -0.989904 1.75393 0
M  V30 21673 C 2066.55 -1.40682 3.16875 0
M  V30 21674 C 2065.61 -0.759384 4.2253 0
M  V30 21675 C 2064.84 -1.77894 5.03179 0
M  V30 21676 O 2065.07 -3.00483 4.84836 0
M  V30 21677 O 2064 -1.35358 5.86483 0
M  V30 21678 H 2067.83 0.330908 3.01892 0
M  V30 21679 H 2065.41 0.22795 1.47651 0
M  V30 21680 H 2067.29 -2.02704 3.69444 0
M  V30 21681 H 2065.97 -2.05753 2.49894 0
M  V30 21682 H 2064.88 -0.100338 3.73965 0
M  V30 21683 H 2066.21 -0.151694 4.91966 0
M  V30 21684 N 2067.86 -1.56346 0.198413 0
M  V30 21685 C 2069.11 -1.97674 -0.43948 0
M  V30 21686 C 2069.44 -1.0854 -1.61398 0
M  V30 21687 O 2068.69 -0.125218 -1.95299 0
M  V30 21688 C 2068.99 -3.44852 -0.938713 0
M  V30 21689 C 2068.66 -4.50733 0.122773 0
M  V30 21690 C 2067.32 -4.79412 0.414434 0
M  V30 21691 C 2069.67 -5.14356 0.841848 0
M  V30 21692 C 2067 -5.69004 1.43009 0
M  V30 21693 C 2069.35 -6.05046 1.84667 0
M  V30 21694 C 2068.01 -6.3208 2.1455 0
M  V30 21695 H 2067.28 -0.723339 -0.160817 0
M  V30 21696 H 2069.93 -1.89197 0.296077 0
M  V30 21697 H 2068.24 -3.50415 -1.75261 0
M  V30 21698 H 2069.93 -3.74186 -1.44173 0
M  V30 21699 H 2066.52 -4.28446 -0.114715 0
M  V30 21700 H 2070.71 -4.92288 0.629749 0
M  V30 21701 H 2065.96 -5.88222 1.66749 0
M  V30 21702 H 2070.14 -6.53404 2.40907 0
M  V30 21703 H 2067.76 -7.01301 2.93395 0
M  V30 21704 N 2069.34 0.0751653 -1.57421 0
M  V30 21705 C 2070.59 0.774958 -1.87085 0
M  V30 21706 C 2070.92 1.77747 -0.789691 0
M  V30 21707 O 2070.17 1.94519 0.214672 0
M  V30 21708 C 2070.47 1.52138 -3.23402 0
M  V30 21709 C 2070.14 0.659153 -4.46056 0
M  V30 21710 C 2068.8 0.421528 -4.7935 0
M  V30 21711 C 2071.15 0.0610407 -5.21164 0
M  V30 21712 C 2068.48 -0.423745 -5.85168 0
M  V30 21713 C 2070.83 -0.771668 -6.27876 0
M  V30 21714 C 2069.49 -1.0192 -6.59673 0
M  V30 21715 H 2068.76 0.283577 -0.684591 0
M  V30 21716 H 2071.41 0.0358311 -1.91466 0
M  V30 21717 H 2069.72 2.33261 -3.14796 0
M  V30 21718 H 2071.41 2.06757 -3.43588 0
M  V30 21719 H 2068 0.854487 -4.19996 0
M  V30 21720 H 2072.19 0.231747 -4.95759 0
M  V30 21721 H 2067.44 -0.6243 -6.08204 0
M  V30 21722 H 2071.62 -1.24188 -6.85237 0
M  V30 21723 H 2069.24 -1.67595 -7.41496 0
M  V30 21724 N 2070.82 1.53744 0.346476 0
M  V30 21725 C 2072.04 1.75095 1.1116 0
M  V30 21726 C 2072.47 0.487459 1.81674 0
M  V30 21727 O 2071.83 -0.55973 1.72443 0
M  V30 21728 C 2071.87 2.92927 2.103 0
M  V30 21729 O 2070.98 2.62871 3.17762 0
M  V30 21730 H 2070.32 0.580905 0.321629 0
M  V30 21731 H 2072.85 2.00696 0.397762 0
M  V30 21732 H 2072.86 3.19633 2.53572 0
M  V30 21733 H 2071.53 3.84566 1.58372 0
M  V30 21734 H 2070.11 2.47043 2.79328 0
M  V30 21735 N 2072.3 -0.607329 1.45428 0
M  V30 21736 C 2073.57 -1.36669 1.39932 0
M  V30 21737 C 2073.95 -2.10984 0.0700663 0
M  V30 21738 O 2073.3 -2.07907 -0.947984 0
M  V30 21739 C 2073.51 -2.3133 2.61319 0
M  V30 21740 C 2074.86 -2.93928 3.06417 0
M  V30 21741 O 2075.88 -2.4165 2.61694 0
M  V30 21742 O 2074.74 -3.88823 3.8403 0
M  V30 21743 H 2071.84 -0.61283 0.55531 0
M  V30 21744 H 2074.38 -0.630396 1.57557 0
M  V30 21745 H 2073.15 -1.75677 3.49647 0
M  V30 21746 H 2072.78 -3.12338 2.4603 0
M  V30 21747 N 2073.77 -1.32722 -0.849853 0
M  V30 21748 C 2075 -1.2671 -1.64193 0
M  V30 21749 C 2075.42 0.161092 -1.87409 0
M  V30 21750 O 2074.78 1.11408 -1.43031 0
M  V30 21751 C 2074.83 -2.03686 -2.97564 0
M  V30 21752 O 2073.93 -1.38794 -3.88343 0
M  V30 21753 H 2073.28 -0.436459 -0.5004 0
M  V30 21754 H 2075.81 -1.75113 -1.05813 0
M  V30 21755 H 2075.82 -2.1404 -3.47349 0
M  V30 21756 H 2074.49 -3.07537 -2.79989 0
M  V30 21757 H 2073.07 -1.37018 -3.46815 0
M  V30 21758 N 2075.25 1.06673 -1.16011 0
M  V30 21759 C 2076.5 1.79046 -0.937394 0
M  V30 21760 C 2076.82 1.87476 0.536438 0
M  V30 21761 O 2076.09 1.38065 1.38977 0
M  V30 21762 H 2074.67 0.663167 -0.343829 0
M  V30 21763 H 2077.33 1.28878 -1.46207 0
M  V30 21764 H 2076.43 2.81259 -1.35278 0
M  V30 21765 N 2076.73 0.957992 1.25141 0
M  V30 21766 C 2077.64 0.487592 2.29477 0
M  V30 21767 C 2078.66 -0.446704 1.68168 0
M  V30 21768 O 2079.83 -0.322127 1.98807 0
M  V30 21769 C 2076.9 -0.22393 3.45976 0
M  V30 21770 C 2075.96 0.748994 4.22716 0
M  V30 21771 C 2075.19 0.0713329 5.33652 0
M  V30 21772 O 2075.41 -1.14234 5.58844 0
M  V30 21773 O 2074.35 0.758575 5.97101 0
M  V30 21774 H 2078.17 1.35471 2.71811 0
M  V30 21775 H 2075.76 0.724594 1.30652 0
M  V30 21776 H 2077.64 -0.624039 4.16754 0
M  V30 21777 H 2076.32 -1.06616 3.05638 0
M  V30 21778 H 2075.22 1.19938 3.54353 0
M  V30 21779 H 2076.56 1.55935 4.66846 0
M  V30 21780 N 2078.21 -1.39832 0.726957 0
M  V30 21781 C 2079.14 -2.333 0.0966938 0
M  V30 21782 C 2080.12 -1.53492 -0.733095 0
M  V30 21783 O 2081.3 -1.81916 -0.679712 0
M  V30 21784 C 2078.43 -3.37545 -0.817367 0
M  V30 21785 C 2077.39 -4.279 -0.0923447 0
M  V30 21786 C 2076.71 -5.22777 -1.12288 0
M  V30 21787 C 2078.01 -5.11425 1.06028 0
M  V30 21788 H 2079.71 -2.86255 0.877412 0
M  V30 21789 H 2077.25 -1.37635 0.423378 0
M  V30 21790 H 2079.21 -4.01878 -1.26776 0
M  V30 21791 H 2077.93 -2.83011 -1.63011 0
M  V30 21792 H 2076.59 -3.65035 0.338339 0
M  V30 21793 H 2076.24 -4.64542 -1.92898 0
M  V30 21794 H 2075.94 -5.84076 -0.64259 0
M  V30 21795 H 2077.46 -5.89987 -1.57314 0
M  V30 21796 H 2078.88 -5.69148 0.688715 0
M  V30 21797 H 2077.27 -5.81825 1.46968 0
M  V30 21798 H 2078.34 -4.46731 1.88571 0
M  V30 21799 N 2079.69 -0.473982 -1.50304 0
M  V30 21800 C 2080.93 0.0801282 -2.02642 0
M  V30 21801 C 2081.27 1.3911 -1.35506 0
M  V30 21802 O 2080.54 1.8844 -0.481719 0
M  V30 21803 C 2080.82 0.26092 -3.59153 0
M  V30 21804 C 2080.68 -1.07128 -4.36857 0
M  V30 21805 C 2082 1.01413 -4.28256 0
M  V30 21806 H 2079.11 0.0276467 -0.736481 0
M  V30 21807 H 2081.76 -0.620135 -1.79595 0
M  V30 21808 H 2079.91 0.857378 -3.78921 0
M  V30 21809 H 2081.58 -1.70454 -4.28653 0
M  V30 21810 H 2079.82 -1.66721 -4.00483 0
M  V30 21811 H 2080.49 -0.898389 -5.4464 0
M  V30 21812 H 2082.97 0.508536 -4.12981 0
M  V30 21813 H 2081.84 1.10943 -5.37571 0
M  V30 21814 H 2082.11 2.05141 -3.91624 0
M  V30 21815 N 2081.16 1.56239 -0.206702 0
M  V30 21816 C 2082.1 2.16873 0.741546 0
M  V30 21817 C 2083.11 1.1337 1.16838 0
M  V30 21818 O 2084.3 1.40413 1.1021 0
M  V30 21819 C 2081.4 2.72544 2.01427 0
M  V30 21820 C 2080.57 4.01068 1.74538 0
M  V30 21821 C 2079.63 4.4145 2.86371 0
M  V30 21822 O 2078.66 5.08645 2.55479 0
M  V30 21823 N 2079.86 4.05908 4.14993 0
M  V30 21824 H 2082.62 2.98869 0.222965 0
M  V30 21825 H 2080.18 1.6188 -0.0251503 0
M  V30 21826 H 2082.18 2.96538 2.75404 0
M  V30 21827 H 2080.75 1.94935 2.44375 0
M  V30 21828 H 2079.97 3.85085 0.842806 0
M  V30 21829 H 2081.25 4.84939 1.53985 0
M  V30 21830 H 2080.65 3.51882 4.4294 0
M  V30 21831 H 2079.21 4.34827 4.85561 0
M  V30 21832 N 2082.64 -0.0668159 1.57458 0
M  V30 21833 C 2083.89 -0.76387 1.86676 0
M  V30 21834 C 2084.2 -1.78489 0.800057 0
M  V30 21835 O 2085.41 -2.53187 0.980236 0
M  V30 21836 C 2083.87 -1.4095 3.31151 0
M  V30 21837 C 2083.47 -0.426782 4.45963 0
M  V30 21838 C 2085.22 -2.08863 3.69563 0
M  V30 21839 C 2083.13 -1.07861 5.81481 0
M  V30 21840 H 2082.06 -0.289037 0.6964 0
M  V30 21841 H 2084.71 -0.0172645 1.83492 0
M  V30 21842 H 2083.09 -2.20453 3.28962 0
M  V30 21843 H 2084.26 0.338803 4.59553 0
M  V30 21844 H 2082.58 0.148171 4.16136 0
M  V30 21845 H 2085.17 -2.58415 4.68109 0
M  V30 21846 H 2085.52 -2.89026 2.99616 0
M  V30 21847 H 2086.05 -1.36184 3.73763 0
M  V30 21848 H 2082.79 -0.317194 6.54732 0
M  V30 21849 H 2082.31 -1.81493 5.71682 0
M  V30 21850 H 2083.99 -1.597 6.26981 0
M  V30 21851 N 2084.12 -1.53926 -0.338317 0
M  V30 21852 C 2085.05 -1.77104 -1.43908 0
M  V30 21853 C 2086.03 -0.620357 -1.50301 0
M  V30 21854 O 2087.22 -0.856117 -1.67937 0
M  V30 21855 C 2084.34 -1.87438 -2.82108 0
M  V30 21856 C 2083.39 -3.09626 -2.93315 0
M  V30 21857 S 2084.22 -4.68565 -2.59244 0
M  V30 21858 C 2085.38 -4.81784 -3.99543 0
M  V30 21859 H 2085.61 -2.70192 -1.24031 0
M  V30 21860 H 2083.14 -1.44861 -0.534293 0
M  V30 21861 H 2085.1 -1.94077 -3.61724 0
M  V30 21862 H 2083.76 -0.953534 -2.99277 0
M  V30 21863 H 2082.96 -3.13547 -3.94594 0
M  V30 21864 H 2082.56 -3.0124 -2.21653 0
M  V30 21865 H 2084.85 -4.63515 -4.94126 0
M  V30 21866 H 2085.79 -5.83879 -4.00613 0
M  V30 21867 H 2086.2 -4.10198 -3.87811 0
M  V30 21868 N 2085.6 0.599608 -1.45748 0
M  V30 21869 C 2086.53 1.72387 -1.49526 0
M  V30 21870 C 2087.51 1.58769 -0.350874 0
M  V30 21871 O 2088.69 1.8022 -0.552553 0
M  V30 21872 C 2085.82 3.1029 -1.35785 0
M  V30 21873 C 2084.87 3.42475 -2.54191 0
M  V30 21874 S 2085.7 3.36425 -4.16627 0
M  V30 21875 C 2086.86 4.76895 -4.05366 0
M  V30 21876 H 2087.09 1.68921 -2.44649 0
M  V30 21877 H 2084.62 0.776938 -1.33428 0
M  V30 21878 H 2086.58 3.89854 -1.28545 0
M  V30 21879 H 2085.24 3.11263 -0.421193 0
M  V30 21880 H 2084.43 4.42904 -2.40524 0
M  V30 21881 H 2084.04 2.70444 -2.58334 0
M  V30 21882 H 2086.33 5.66889 -3.71003 0
M  V30 21883 H 2087.27 4.95619 -5.05735 0
M  V30 21884 H 2087.68 4.52951 -3.36891 0
M  V30 21885 N 2087.08 1.33171 0.842803 0
M  V30 21886 C 2088.04 1.23019 1.93388 0
M  V30 21887 C 2089.04 0.15022 1.60097 0
M  V30 21888 O 2090.23 0.401472 1.69511 0
M  V30 21889 C 2087.36 0.89468 3.2895 0
M  V30 21890 H 2088.56 2.19997 2.03817 0
M  V30 21891 H 2086.11 1.17173 1.03442 0
M  V30 21892 H 2086.84 -0.0727774 3.24218 0
M  V30 21893 H 2086.63 1.67563 3.54493 0
M  V30 21894 H 2088.12 0.848284 4.08894 0
M  V30 21895 N 2088.56 -1.06056 1.16576 0
M  V30 21896 C 2089.78 -1.82592 0.973019 0
M  V30 21897 C 2090.2 -1.82629 -0.478773 0
M  V30 21898 O 2089.56 -1.2472 -1.33233 0
M  V30 21899 C 2089.61 -3.291 1.49585 0
M  V30 21900 O 2089.33 -3.29189 2.89078 0
M  V30 21901 C 2090.83 -4.22357 1.34647 0
M  V30 21902 H 2088.05 -0.575656 0.344763 0
M  V30 21903 H 2090.59 -1.33793 1.5466 0
M  V30 21904 H 2088.75 -3.75202 0.964496 0
M  V30 21905 H 2089.16 -4.2082 3.13066 0
M  V30 21906 H 2090.64 -5.23171 1.76056 0
M  V30 21907 H 2091.11 -4.38226 0.292348 0
M  V30 21908 H 2091.72 -3.82103 1.86755 0
M  V30 21909 N 2090.03 -0.964615 -1.24631 0
M  V30 21910 C 2091 -0.497206 -2.23742 0
M  V30 21911 C 2092 0.404569 -1.55627 0
M  V30 21912 O 2093.19 0.200461 -1.73043 0
M  V30 21913 C 2090.32 0.280348 -3.39745 0
M  V30 21914 H 2091.51 -1.37334 -2.66607 0
M  V30 21915 H 2089.06 -0.748889 -1.37191 0
M  V30 21916 H 2089.8 1.17372 -3.02315 0
M  V30 21917 H 2089.58 -0.366741 -3.90381 0
M  V30 21918 H 2091.07 0.596501 -4.13318 0
M  V30 21919 N 2091.51 1.39445 -0.734362 0
M  V30 21920 C 2092.46 2.32452 -0.0830804 0
M  V30 21921 C 2093.45 1.53028 0.726556 0
M  V30 21922 O 2094.66 1.68697 0.627813 0
M  V30 21923 H 2091.03 0.751957 -0.00806559 0
M  V30 21924 H 2093.01 2.85008 -0.883901 0
M  V30 21925 C 2091.75 3.38121 0.810522 0
M  V30 21926 H 2091.08 3.99315 0.196919 0
M  V30 21927 H 2092.52 4.0565 1.23385 0
M  V30 21928 C 2090.98 2.75118 1.94453 0
M  V30 21929 O 2091.51 2.62913 3.0371 0
M  V30 21930 N 2089.71 2.33215 1.73376 0
M  V30 21931 H 2089.26 2.43341 0.845144 0
M  V30 21932 H 2089.22 1.914 2.49426 0
M  V30 21933 N 2092.99 0.481946 1.5005 0
M  V30 21934 C 2093.9 -0.311606 2.32521 0
M  V30 21935 C 2094.92 -0.985661 1.4339 0
M  V30 21936 O 2096.09 -0.971246 1.76433 0
M  V30 21937 C 2093.16 -1.37313 3.18349 0
M  V30 21938 C 2092.22 -0.714526 4.23312 0
M  V30 21939 C 2091.45 -1.72547 5.05038 0
M  V30 21940 O 2091.67 -2.95324 4.87996 0
M  V30 21941 O 2090.61 -1.2913 5.87885 0
M  V30 21942 H 2094.43 0.362909 3.01524 0
M  V30 21943 H 2092.02 0.243598 1.47401 0
M  V30 21944 H 2093.9 -1.98774 3.71573 0
M  V30 21945 H 2092.58 -2.03091 2.52063 0
M  V30 21946 H 2091.48 -0.0606687 3.74051 0
M  V30 21947 H 2092.82 -0.099506 4.92099 0
M  V30 21948 N 2094.47 -1.56127 0.214985 0
M  V30 21949 C 2095.42 -2.21359 -0.714353 0
M  V30 21950 C 2096.41 -1.19092 -1.20472 0
M  V30 21951 O 2097.62 -1.37188 -1.16531 0
M  V30 21952 H 2093.99 -0.70966 -0.248769 0
M  V30 21953 H 2095.96 -2.98068 -0.140678 0
M  V30 21954 C 2094.71 -2.90234 -1.91466 0
M  V30 21955 H 2094.03 -3.68681 -1.54644 0
M  V30 21956 H 2095.47 -3.39286 -2.54285 0
M  V30 21957 C 2093.93 -1.92345 -2.76595 0
M  V30 21958 O 2094.46 -1.43625 -3.75146 0
M  V30 21959 N 2092.67 -1.60138 -2.42496 0
M  V30 21960 H 2092.22 -1.99952 -1.6241 0
M  V30 21961 H 2092.17 -0.949023 -2.99735 0
M  V30 21962 N 2095.95 0.0584645 -1.57492 0
M  V30 21963 C 2096.88 1.0681 -2.07639 0
M  V30 21964 C 2097.86 1.3955 -0.972622 0
M  V30 21965 O 2099.04 1.48946 -1.24615 0
M  V30 21966 C 2096.17 2.37774 -2.53142 0
M  V30 21967 C 2095.13 2.19354 -3.67516 0
M  V30 21968 C 2094.45 3.5582 -3.9912 0
M  V30 21969 C 2095.75 1.60379 -4.97067 0
M  V30 21970 H 2097.45 0.650765 -2.92242 0
M  V30 21971 H 2094.99 0.311587 -1.40589 0
M  V30 21972 H 2096.94 3.08709 -2.86839 0
M  V30 21973 H 2095.67 2.81513 -1.65583 0
M  V30 21974 H 2094.33 1.50858 -3.34122 0
M  V30 21975 H 2093.98 3.97153 -3.08672 0
M  V30 21976 H 2093.68 3.4433 -4.76142 0
M  V30 21977 H 2095.2 4.28164 -4.35325 0
M  V30 21978 H 2096.61 2.21195 -5.2891 0
M  V30 21979 H 2095.01 1.59548 -5.78502 0
M  V30 21980 H 2096.08 0.566547 -4.81579 0
M  V30 21981 N 2097.42 1.54103 0.330149 0
M  V30 21982 C 2098.65 1.76264 1.09297 0
M  V30 21983 C 2099.07 0.5067 1.81147 0
M  V30 21984 O 2098.43 -0.541409 1.73027 0
M  V30 21985 C 2098.48 2.95141 2.07181 0
M  V30 21986 O 2097.58 2.66226 3.14956 0
M  V30 21987 H 2096.92 0.584284 0.31545 0
M  V30 21988 H 2099.45 2.01107 0.376453 0
M  V30 21989 H 2099.46 3.22305 2.50167 0
M  V30 21990 H 2098.14 3.86224 1.54285 0
M  V30 21991 H 2096.72 2.49992 2.76692 0
M  V30 21992 N 2098.9 -0.59187 1.46064 0
M  V30 21993 C 2099.87 -1.68357 1.55526 0
M  V30 21994 C 2100.87 -1.54854 0.433247 0
M  V30 21995 O 2102.06 -1.59637 0.697258 0
M  V30 21996 C 2099.19 -3.07729 1.46683 0
M  V30 21997 H 2100.38 -1.61328 2.5281 0
M  V30 21998 H 2097.93 -0.808941 1.33738 0
M  V30 21999 H 2098.67 -3.20321 0.506433 0
M  V30 22000 H 2098.45 -3.18939 2.2808 0
M  V30 22001 H 2099.94 -3.87218 1.5637 0
M  V30 22002 N 2100.38 -1.33616 -0.835729 0
M  V30 22003 C 2101.33 -1.24131 -1.94577 0
M  V30 22004 C 2102.3 -0.119257 -1.65671 0
M  V30 22005 O 2103.48 -0.298063 -1.88457 0
M  V30 22006 C 2100.62 -0.989665 -3.30605 0
M  V30 22007 C 2099.74 -2.19828 -3.71887 0
M  V30 22008 C 2098.87 -1.88052 -4.96799 0
M  V30 22009 C 2097.91 -3.05128 -5.30625 0
M  V30 22010 N 2097.05 -2.7332 -6.46715 0
M  V30 22011 H 2101.89 -2.19069 -2.02022 0
M  V30 22012 H 2099.42 -1.08932 -0.988545 0
M  V30 22013 H 2101.38 -0.824187 -4.08978 0
M  V30 22014 H 2100.01 -0.0770128 -3.22708 0
M  V30 22015 H 2099.06 -2.4734 -2.89011 0
M  V30 22016 H 2100.38 -3.07341 -3.92865 0
M  V30 22017 H 2099.53 -1.68166 -5.82928 0
M  V30 22018 H 2098.27 -0.977799 -4.77797 0
M  V30 22019 H 2097.27 -3.25624 -4.43 0
M  V30 22020 H 2098.5 -3.9616 -5.51574 0
M  V30 22021 H 2096.44 -1.8561 -6.29194 0
M  V30 22022 H 2096.36 -3.54365 -6.67804 0
M  V30 22023 H 2097.63 -2.56909 -7.35947 0
M  V30 22024 N 2101.86 1.05436 -1.17136 0
M  V30 22025 C 2103.11 1.78394 -0.958224 0
M  V30 22026 C 2103.43 1.87604 0.513324 0
M  V30 22027 O 2102.69 1.37034 1.39715 0
M  V30 22028 C 2102.99 3.22452 -1.54141 0
M  V30 22029 C 2102.65 3.33305 -3.03675 0
M  V30 22030 C 2101.32 3.35974 -3.44492 0
M  V30 22031 C 2103.67 3.34521 -3.99681 0
M  V30 22032 C 2101 3.37485 -4.79918 0
M  V30 22033 C 2103.35 3.37571 -5.35004 0
M  V30 22034 C 2102.01 3.38526 -5.75288 0
M  V30 22035 H 2101.28 0.652789 -0.350639 0
M  V30 22036 H 2103.93 1.23935 -1.45988 0
M  V30 22037 H 2102.23 3.79821 -0.961417 0
M  V30 22038 H 2103.93 3.77518 -1.35208 0
M  V30 22039 H 2100.52 3.31939 -2.71136 0
M  V30 22040 H 2104.7 3.31662 -3.69207 0
M  V30 22041 H 2099.96 3.36533 -5.10446 0
M  V30 22042 H 2104.13 3.3746 -6.09175 0
M  V30 22043 H 2101.76 3.3945 -6.80204 0
M  V30 22044 N 2103.34 0.971211 1.24118 0
M  V30 22045 C 2104.58 0.642921 1.94025 0
M  V30 22046 C 2104.94 -0.807414 1.74198 0
M  V30 22047 O 2106.14 -1.24609 2.38172 0
M  V30 22048 C 2104.41 1.01162 3.42784 0
M  V30 22049 S 2105.97 0.798412 4.31475 0
M  V30 22050 H 2102.79 0.23575 0.670778 0
M  V30 22051 H 2105.39 1.24891 1.50408 0
M  V30 22052 H 2104.1 2.06398 3.54722 0
M  V30 22053 H 2103.63 0.396552 3.91396 0
M  V30 22054 H 2105.64 -0.322438 4.95151 0
M  V30 22055 N 2104.81 -1.39054 0.741747 0
M  V30 22056 C 2105.76 -2.32404 0.0954067 0
M  V30 22057 C 2106.76 -1.53411 -0.71843 0
M  V30 22058 O 2107.96 -1.69027 -0.618858 0
M  V30 22059 H 2104.34 -0.751903 0.0120533 0
M  V30 22060 H 2106.31 -2.84536 0.899003 0
M  V30 22061 C 2105.06 -3.38546 -0.79258 0
M  V30 22062 H 2104.38 -3.99414 -0.175739 0
M  V30 22063 H 2105.82 -4.06299 -1.21232 0
M  V30 22064 C 2104.28 -2.76145 -1.92991 0
M  V30 22065 O 2104.81 -2.6452 -3.02311 0
M  V30 22066 N 2103.02 -2.34131 -1.72137 0
M  V30 22067 H 2102.56 -2.43786 -0.832227 0
M  V30 22068 H 2102.52 -1.92721 -2.48407 0
M  V30 22069 N 2106.29 -0.489897 -1.49792 0
M  V30 22070 C 2107.71 -0.145171 -1.58938 0
M  V30 22071 C 2107.91 1.34961 -1.49625 0
M  V30 22072 O 2106.96 2.1246 -1.36444 0
M  V30 22073 C 2108.28 -0.7121 -2.92147 0
M  V30 22074 C 2109.83 -0.677209 -3.05586 0
M  V30 22075 C 2110.3 -1.22201 -4.41397 0
M  V30 22076 N 2111.79 -1.18222 -4.47859 0
M  V30 22077 C 2112.53 -1.57407 -5.51372 0
M  V30 22078 N 2112.02 -2.04131 -6.62044 0
M  V30 22079 N 2113.82 -1.48892 -5.42022 0
M  V30 22080 H 2105.97 -1.46186 -1.54089 0
M  V30 22081 H 2108.23 -0.60569 -0.729276 0
M  V30 22082 H 2107.94 -1.75998 -3.04496 0
M  V30 22083 H 2107.81 -0.166236 -3.76834 0
M  V30 22084 H 2110.2 0.361809 -2.92874 0
M  V30 22085 H 2110.28 -1.26009 -2.2261 0
M  V30 22086 H 2109.92 -2.25975 -4.5486 0
M  V30 22087 H 2109.85 -0.615163 -5.22995 0
M  V30 22088 H 2112.34 -0.839749 -3.68452 0
M  V30 22089 H 2112.66 -2.32129 -7.37113 0
M  V30 22090 H 2111 -2.08097 -6.63114 0
M  V30 22091 H 2114.19 -1.12217 -4.5445 0
M  V30 22092 H 2114.36 -1.79754 -6.22569 0
M  V30 22093 N 2107.77 1.56011 -0.223262 0
M  V30 22094 C 2109.02 1.98642 0.408581 0
M  V30 22095 C 2109.35 1.11082 1.59294 0
M  V30 22096 O 2108.62 0.168881 1.93765 0
M  V30 22097 C 2108.91 3.5013 0.841473 0
M  V30 22098 C 2108.76 4.48462 -0.346639 0
M  V30 22099 C 2110.08 4.06065 1.69703 0
M  V30 22100 H 2107.2 0.722183 0.147039 0
M  V30 22101 H 2109.84 1.87289 -0.319839 0
M  V30 22102 H 2107.99 3.59936 1.46214 0
M  V30 22103 H 2109.66 4.50665 -0.98481 0
M  V30 22104 H 2107.91 4.22263 -0.993788 0
M  V30 22105 H 2108.58 5.52 -0.00078187 0
M  V30 22106 H 2111.05 3.99215 1.17332 0
M  V30 22107 H 2109.93 5.12376 1.96882 0
M  V30 22108 H 2110.19 3.53054 2.66093 0
M  V30 22109 N 2109.25 -0.0501116 1.5752 0
M  V30 22110 C 2110.18 -1.05708 2.08202 0
M  V30 22111 C 2111.16 -1.39032 0.980009 0
M  V30 22112 O 2112.34 -1.48283 1.25403 0
M  V30 22113 C 2109.47 -2.36429 2.54399 0
M  V30 22114 C 2108.43 -2.17402 3.68674 0
M  V30 22115 C 2107.75 -3.53698 4.01001 0
M  V30 22116 C 2109.05 -1.57741 4.97911 0
M  V30 22117 H 2110.75 -0.635258 2.92583 0
M  V30 22118 H 2108.29 -0.304127 1.40752 0
M  V30 22119 H 2110.25 -3.07184 2.88472 0
M  V30 22120 H 2108.97 -2.80631 1.67074 0
M  V30 22121 H 2107.63 -1.49084 3.34917 0
M  V30 22122 H 2107.28 -3.9551 3.10774 0
M  V30 22123 H 2106.98 -3.418 4.77961 0
M  V30 22124 H 2108.5 -4.25849 4.3759 0
M  V30 22125 H 2109.92 -2.18387 5.30075 0
M  V30 22126 H 2108.31 -1.56478 5.7934 0
M  V30 22127 H 2109.38 -0.540999 4.81873 0
M  V30 22128 N 2110.73 -1.54276 -0.321972 0
M  V30 22129 C 2111.67 -1.83772 -1.3963 0
M  V30 22130 C 2112.64 -0.684941 -1.5132 0
M  V30 22131 O 2113.83 -0.931526 -1.66515 0
M  V30 22132 C 2110.97 -2.07212 -2.75966 0
M  V30 22133 C 2110.08 -3.34892 -2.72895 0
M  V30 22134 C 2109.22 -3.48284 -4.01088 0
M  V30 22135 C 2108.26 -4.69833 -3.9233 0
M  V30 22136 N 2107.39 -4.80144 -5.12256 0
M  V30 22137 H 2112.23 -2.75425 -1.13777 0
M  V30 22138 H 2109.77 -1.36401 -0.550737 0
M  V30 22139 H 2111.73 -2.18794 -3.55225 0
M  V30 22140 H 2110.36 -1.18848 -3.00125 0
M  V30 22141 H 2109.41 -3.32039 -1.85618 0
M  V30 22142 H 2110.72 -4.2426 -2.62307 0
M  V30 22143 H 2109.88 -3.59417 -4.88778 0
M  V30 22144 H 2108.61 -2.57011 -4.14483 0
M  V30 22145 H 2107.62 -4.58755 -3.03024 0
M  V30 22146 H 2108.84 -5.62492 -3.80498 0
M  V30 22147 H 2106.79 -3.91787 -5.26155 0
M  V30 22148 H 2106.71 -5.6348 -5.0401 0
M  V30 22149 H 2107.98 -4.9561 -6.01657 0
M  V30 22150 N 2112.2 0.584116 -1.46376 0
M  V30 22151 C 2113.45 1.34238 -1.51613 0
M  V30 22152 C 2113.78 1.93779 -0.167271 0
M  V30 22153 O 2113.03 1.76902 0.836914 0
M  V30 22154 C 2113.33 2.49232 -2.56161 0
M  V30 22155 C 2113 2.07692 -4.00219 0
M  V30 22156 C 2111.66 1.96078 -4.39439 0
M  V30 22157 C 2114.01 1.75625 -4.90719 0
M  V30 22158 C 2111.34 1.50653 -5.67028 0
M  V30 22159 C 2113.69 1.3168 -6.18743 0
M  V30 22160 C 2112.36 1.18641 -6.56872 0
M  V30 22161 H 2111.63 0.491211 -0.554791 0
M  V30 22162 H 2114.27 0.657889 -1.79845 0
M  V30 22163 H 2112.58 3.23121 -2.21585 0
M  V30 22164 H 2114.28 3.07448 -2.57443 0
M  V30 22165 H 2110.87 2.17665 -3.69215 0
M  V30 22166 H 2115.05 1.83484 -4.61137 0
M  V30 22167 H 2110.31 1.39201 -5.95343 0
M  V30 22168 H 2114.48 1.0592 -6.88298 0
M  V30 22169 H 2112.11 0.832188 -7.55631 0
M  V30 22170 N 2113.68 1.34058 0.828631 0
M  V30 22171 C 2114.93 1.26093 1.58451 0
M  V30 22172 C 2115.26 -0.170623 1.9375 0
M  V30 22173 O 2114.51 -1.13044 1.59748 0
M  V30 22174 C 2114.81 2.09161 2.89804 0
M  V30 22175 C 2114.48 3.58234 2.73823 0
M  V30 22176 C 2113.14 3.98873 2.69172 0
M  V30 22177 C 2115.49 4.52919 2.57903 0
M  V30 22178 C 2112.82 5.32398 2.46514 0
M  V30 22179 C 2115.17 5.86617 2.36777 0
M  V30 22180 C 2113.84 6.26426 2.30534 0
M  V30 22181 H 2113.11 0.461406 0.579815 0
M  V30 22182 H 2115.75 1.65745 0.959215 0
M  V30 22183 H 2114.06 1.62319 3.56595 0
M  V30 22184 H 2115.76 2.00349 3.47363 0
M  V30 22185 H 2112.35 3.25973 2.7828 0
M  V30 22186 H 2116.53 4.22423 2.60523 0
M  V30 22187 H 2111.79 5.62268 2.40135 0
M  V30 22188 H 2115.96 6.5958 2.23444 0
M  V30 22189 H 2113.59 7.29826 2.12738 0
M  V30 22190 N 2115.16 -1.04814 1.17694 0
M  V30 22191 C 2116.39 -1.8155 0.99233 0
M  V30 22192 C 2116.8 -1.83126 -0.459376 0
M  V30 22193 O 2116.16 -1.26127 -1.31903 0
M  V30 22194 C 2116.21 -3.27495 1.53067 0
M  V30 22195 O 2115.93 -3.26104 2.92554 0
M  V30 22196 C 2117.43 -4.20905 1.39119 0
M  V30 22197 H 2114.65 -0.571967 0.350849 0
M  V30 22198 H 2117.2 -1.32145 1.5607 0
M  V30 22199 H 2115.35 -3.74157 1.00424 0
M  V30 22200 H 2115.77 -4.17476 3.17512 0
M  V30 22201 H 2117.24 -5.21275 1.81595 0
M  V30 22202 H 2117.72 -4.37891 0.338812 0
M  V30 22203 H 2118.32 -3.801 1.90798 0
M  V30 22204 N 2116.64 -0.977779 -1.23601 0
M  V30 22205 C 2117.59 -0.51555 -2.24968 0
M  V30 22206 C 2118.56 0.4442 -1.6005 0
M  V30 22207 O 2119.74 0.352328 -1.87519 0
M  V30 22208 C 2116.88 0.17842 -3.44638 0
M  V30 22209 C 2115.99 -0.821283 -4.24121 0
M  V30 22210 C 2115.13 -0.102387 -5.31101 0
M  V30 22211 C 2114.17 -1.09148 -6.0229 0
M  V30 22212 N 2113.31 -0.401914 -7.00949 0
M  V30 22213 H 2118.15 -1.38475 -2.63872 0
M  V30 22214 H 2115.68 -0.693946 -1.29703 0
M  V30 22215 H 2117.64 0.597555 -4.12898 0
M  V30 22216 H 2116.27 1.01151 -3.06543 0
M  V30 22217 H 2115.32 -1.35882 -3.55303 0
M  V30 22218 H 2116.63 -1.5751 -4.73278 0
M  V30 22219 H 2115.79 0.374242 -6.05545 0
M  V30 22220 H 2114.53 0.684048 -4.82879 0
M  V30 22221 H 2113.53 -1.57889 -5.26641 0
M  V30 22222 H 2114.76 -1.87853 -6.52601 0
M  V30 22223 H 2112.7 0.365361 -6.54982 0
M  V30 22224 H 2112.62 -1.09443 -7.48036 0
M  V30 22225 H 2113.89 0.0524137 -7.79482 0
M  V30 22226 N 2118.12 1.38658 -0.749111 0
M  V30 22227 C 2119.05 2.33116 -0.133797 0
M  V30 22228 C 2120.03 1.54639 0.708583 0
M  V30 22229 O 2121.21 1.82975 0.650684 0
M  V30 22230 C 2118.34 3.38802 0.763563 0
M  V30 22231 C 2117.3 4.27993 0.0242578 0
M  V30 22232 C 2116.62 5.24497 1.03957 0
M  V30 22233 C 2117.92 5.09673 -1.14151 0
M  V30 22234 H 2119.62 2.84823 -0.922842 0
M  V30 22235 H 2117.16 1.36944 -0.445221 0
M  V30 22236 H 2119.12 4.03844 1.20366 0
M  V30 22237 H 2117.84 2.85568 1.58488 0
M  V30 22238 H 2116.5 3.64451 -0.39637 0
M  V30 22239 H 2116.15 4.67552 1.85483 0
M  V30 22240 H 2115.85 5.85024 0.549587 0
M  V30 22241 H 2117.37 5.92415 1.47908 0
M  V30 22242 H 2118.79 5.6798 -0.779174 0
M  V30 22243 H 2117.18 5.79413 -1.56206 0
M  V30 22244 H 2118.25 4.43675 -1.95654 0
M  V30 22245 N 2119.6 0.497834 1.49531 0
M  V30 22246 C 2120.84 -0.0478087 2.02444 0
M  V30 22247 C 2121.17 -1.37286 1.37778 0
M  V30 22248 O 2120.43 -1.89163 0.501565 0
M  V30 22249 C 2120.72 -0.252156 3.56509 0
M  V30 22250 C 2120.39 0.994505 4.39796 0
M  V30 22251 C 2119.05 1.33624 4.62275 0
M  V30 22252 C 2121.4 1.82331 4.88267 0
M  V30 22253 C 2118.73 2.50636 5.3047 0
M  V30 22254 C 2121.08 2.98493 5.5775 0
M  V30 22255 C 2119.75 3.3305 5.78475 0
M  V30 22256 H 2119.02 -0.0174944 0.740793 0
M  V30 22257 H 2121.67 0.657348 1.79864 0
M  V30 22258 H 2119.97 -1.03981 3.7775 0
M  V30 22259 H 2121.67 -0.68874 3.95041 0
M  V30 22260 H 2118.26 0.718308 4.22538 0
M  V30 22261 H 2122.44 1.57244 4.70731 0
M  V30 22262 H 2117.7 2.77651 5.4472 0
M  V30 22263 H 2121.87 3.63042 5.94284 0
M  V30 22264 H 2119.5 4.23822 6.31093 0
M  V30 22265 N 2121.07 -1.5589 0.231532 0
M  V30 22266 C 2122.01 -2.18025 -0.70695 0
M  V30 22267 C 2123.02 -1.15214 -1.1502 0
M  V30 22268 O 2124.21 -1.42149 -1.07963 0
M  V30 22269 C 2121.31 -2.75714 -1.97066 0
M  V30 22270 C 2120.48 -4.03794 -1.68135 0
M  V30 22271 C 2119.54 -4.4595 -2.79312 0
M  V30 22272 O 2118.57 -5.12645 -2.47354 0
M  V30 22273 N 2119.77 -4.12459 -4.08483 0
M  V30 22274 H 2122.53 -2.99186 -0.175389 0
M  V30 22275 H 2120.09 -1.6182 0.0509009 0
M  V30 22276 H 2122.09 -3.00882 -2.70652 0
M  V30 22277 H 2120.66 -1.98799 -2.41242 0
M  V30 22278 H 2119.88 -3.86377 -0.781436 0
M  V30 22279 H 2121.16 -4.87328 -1.46251 0
M  V30 22280 H 2120.56 -3.58884 -4.37286 0
M  V30 22281 H 2119.12 -4.42496 -4.78581 0
M  V30 22282 N 2122.55 0.0417572 -1.57545 0
M  V30 22283 C 2123.48 1.04602 -2.0876 0
M  V30 22284 C 2124.46 1.3851 -0.987368 0
M  V30 22285 O 2125.65 1.47615 -1.26188 0
M  V30 22286 C 2122.78 2.35076 -2.55649 0
M  V30 22287 C 2121.73 2.15444 -3.69821 0
M  V30 22288 C 2121.06 3.51566 -4.02871 0
M  V30 22289 C 2122.36 1.55098 -4.9874 0
M  V30 22290 H 2124.05 0.619732 -2.92916 0
M  V30 22291 H 2121.6 0.296659 -1.40911 0
M  V30 22292 H 2123.55 3.0565 -2.90097 0
M  V30 22293 H 2122.27 2.79741 -1.6856 0
M  V30 22294 H 2120.93 1.47306 -3.35703 0
M  V30 22295 H 2120.58 3.93857 -3.12867 0
M  V30 22296 H 2120.28 3.3926 -4.79767 0
M  V30 22297 H 2121.81 4.23523 -4.39842 0
M  V30 22298 H 2123.22 2.15573 -5.31226 0
M  V30 22299 H 2121.62 1.53403 -5.80162 0
M  V30 22300 H 2122.69 0.515437 -4.82153 0
M  V30 22301 N 2124.03 1.54445 0.313786 0
M  V30 22302 C 2125.26 1.77093 1.06985 0
M  V30 22303 C 2125.67 0.524216 1.81376 0
M  V30 22304 O 2125.03 -0.505482 1.7536 0
M  V30 22305 C 2125.08 2.97038 2.06036 0
M  V30 22306 O 2124.8 4.1689 1.34665 0
M  V30 22307 C 2126.3 3.31974 2.93783 0
M  V30 22308 H 2123.52 0.590955 0.317826 0
M  V30 22309 H 2126.07 2.01361 0.356942 0
M  V30 22310 H 2124.22 2.75015 2.72847 0
M  V30 22311 H 2124.64 4.84425 2.01078 0
M  V30 22312 H 2126.11 4.19176 3.5916 0
M  V30 22313 H 2126.59 2.49567 3.61404 0
M  V30 22314 H 2127.19 3.5611 2.3252 0
M  V30 22315 N 2125.51 -0.576345 1.46683 0
M  V30 22316 C 2126.42 -1.71268 1.60326 0
M  V30 22317 C 2127.43 -1.67059 0.486559 0
M  V30 22318 O 2128.61 -1.86852 0.75154 0
M  V30 22319 C 2125.67 -3.07775 1.5961 0
M  V30 22320 C 2124.74 -3.232 2.8256 0
M  V30 22321 C 2123.97 -4.53195 2.81869 0
M  V30 22322 O 2124.19 -5.37478 1.90979 0
M  V30 22323 O 2123.13 -4.72003 3.73493 0
M  V30 22324 H 2126.95 -1.62705 2.56439 0
M  V30 22325 H 2124.54 -0.744135 1.29549 0
M  V30 22326 H 2126.42 -3.89046 1.61929 0
M  V30 22327 H 2125.09 -3.16762 0.666583 0
M  V30 22328 H 2124 -2.41398 2.85793 0
M  V30 22329 H 2125.33 -3.19107 3.74742 0
M  V30 22330 N 2126.99 -1.34495 -0.82151 0
M  V30 22331 C 2127.93 -1.26188 -1.93249 0
M  V30 22332 C 2128.9 -0.136822 -1.65536 0
M  V30 22333 O 2130.09 -0.318035 -1.88131 0
M  V30 22334 C 2127.23 -1.02467 -3.29537 0
M  V30 22335 C 2126.34 -2.2376 -3.69534 0
M  V30 22336 C 2125.48 -1.93311 -4.94777 0
M  V30 22337 C 2124.51 -3.10739 -5.27359 0
M  V30 22338 N 2123.65 -2.80164 -6.4378 0
M  V30 22339 H 2128.49 -2.21199 -1.99687 0
M  V30 22340 H 2126.03 -1.09974 -0.976936 0
M  V30 22341 H 2127.99 -0.867518 -4.08081 0
M  V30 22342 H 2126.62 -0.111236 -3.22608 0
M  V30 22343 H 2125.67 -2.50391 -2.86371 0
M  V30 22344 H 2126.98 -3.11491 -3.89583 0
M  V30 22345 H 2126.13 -1.7434 -5.81112 0
M  V30 22346 H 2124.87 -1.02842 -4.76733 0
M  V30 22347 H 2123.88 -3.30304 -4.39521 0
M  V30 22348 H 2125.1 -4.01988 -5.47341 0
M  V30 22349 H 2123.05 -1.92273 -6.2719 0
M  V30 22350 H 2122.97 -3.61428 -6.64007 0
M  V30 22351 H 2124.23 -2.647 -7.33181 0
M  V30 22352 N 2128.46 1.04188 -1.18248 0
M  V30 22353 C 2129.69 1.81559 -1.00255 0
M  V30 22354 C 2130.11 1.82777 0.444336 0
M  V30 22355 O 2129.47 1.24417 1.31872 0
M  V30 22356 C 2129.52 3.25089 -1.56044 0
M  V30 22357 O 2128.62 4.04938 -0.780971 0
M  V30 22358 H 2127.97 0.560976 -0.355248 0
M  V30 22359 H 2130.5 1.31223 -1.56977 0
M  V30 22360 H 2130.51 3.75869 -1.58703 0
M  V30 22361 H 2129.18 3.23517 -2.61361 0
M  V30 22362 H 2127.76 3.63623 -0.826593 0
M  V30 22363 N 2129.94 0.98432 1.23081 0
M  V30 22364 C 2131.35 0.691779 1.73411 0
M  V30 22365 C 2131.7 -0.791814 1.79513 0
M  V30 22366 O 2130.83 -1.61921 1.43563 0
M  V30 22367 C 2131.42 1.24906 3.14935 0
M  V30 22368 C 2129.98 1.00608 3.62705 0
M  V30 22369 C 2129.13 1.37443 2.40842 0
M  V30 22370 H 2132.08 1.1577 1.08549 0
M  V30 22371 H 2132.1 0.623401 3.75358 0
M  V30 22372 H 2131.61 2.32884 3.10462 0
M  V30 22373 H 2129.72 -0.0574556 3.72556 0
M  V30 22374 H 2129.83 1.66341 4.49296 0
M  V30 22375 H 2128.19 0.792926 2.42043 0
M  V30 22376 H 2128.98 2.46407 2.39037 0
M  V30 22377 N 2131.42 -1.38259 0.756453 0
M  V30 22378 C 2132.37 -2.3229 0.120051 0
M  V30 22379 C 2133.36 -1.54164 -0.702119 0
M  V30 22380 O 2134.57 -1.69674 -0.600895 0
M  V30 22381 H 2130.94 -0.751733 0.0200275 0
M  V30 22382 H 2132.91 -2.83566 0.929131 0
M  V30 22383 C 2131.66 -3.39368 -0.756628 0
M  V30 22384 H 2130.99 -3.99577 -0.133366 0
M  V30 22385 H 2132.43 -4.07562 -1.16916 0
M  V30 22386 C 2130.89 -2.78176 -1.90051 0
M  V30 22387 O 2131.42 -2.67711 -2.99489 0
M  V30 22388 N 2129.62 -2.35944 -1.69644 0
M  V30 22389 H 2129.17 -2.44655 -0.806323 0
M  V30 22390 H 2129.13 -1.95344 -2.46349 0
M  V30 22391 N 2132.9 -0.505757 -1.49264 0
M  V30 22392 C 2134.31 -0.0591588 -1.86606 0
M  V30 22393 C 2134.66 1.35636 -1.41765 0
M  V30 22394 O 2133.79 2.01164 -0.797622 0
M  V30 22395 C 2134.38 -0.100581 -3.38651 0
M  V30 22396 C 2132.94 0.290698 -3.75276 0
M  V30 22397 C 2132.09 -0.471033 -2.7327 0
M  V30 22398 H 2135.04 -0.718294 -1.41514 0
M  V30 22399 H 2135.06 0.693588 -3.74125 0
M  V30 22400 H 2134.57 -1.13093 -3.71257 0
M  V30 22401 H 2132.67 1.3241 -3.48279 0
M  V30 22402 H 2132.78 -0.0320604 -4.79089 0
M  V30 22403 H 2131.15 0.0797288 -2.54575 0
M  V30 22404 H 2131.93 -1.50155 -3.0872 0
M  V30 22405 N 2134.38 1.55765 -0.239796 0
M  V30 22406 C 2135.6 2.03618 0.394243 0
M  V30 22407 C 2136.03 1.1181 1.51261 0
M  V30 22408 O 2135.38 0.1097 1.80968 0
M  V30 22409 C 2135.43 3.49545 0.886029 0
M  V30 22410 O 2134.54 3.60872 1.99613 0
M  V30 22411 H 2133.88 0.658289 0.0869012 0
M  V30 22412 H 2136.41 2.0134 -0.363774 0
M  V30 22413 H 2136.42 3.90226 1.1911 0
M  V30 22414 H 2135.09 4.15845 0.0675883 0
M  V30 22415 H 2133.67 3.32085 1.6963 0
M  V30 22416 N 2135.85 -0.0334016 1.57565 0
M  V30 22417 C 2136.78 -1.03494 2.09312 0
M  V30 22418 C 2137.77 -1.37985 0.9947 0
M  V30 22419 O 2138.95 -1.46944 1.26969 0
M  V30 22420 C 2136.08 -2.33717 2.56892 0
M  V30 22421 C 2135.03 -2.1348 3.70959 0
M  V30 22422 C 2134.36 -3.49425 4.0473 0
M  V30 22423 C 2135.66 -1.52451 4.99556 0
M  V30 22424 H 2137.35 -0.60419 2.9324 0
M  V30 22425 H 2134.9 -0.289182 1.41066 0
M  V30 22426 H 2136.85 -3.04107 2.91714 0
M  V30 22427 H 2135.58 -2.78843 1.70041 0
M  V30 22428 H 2134.24 -1.45523 3.3648 0
M  V30 22429 H 2133.88 -3.92192 3.14952 0
M  V30 22430 H 2133.58 -3.36711 4.81559 0
M  V30 22431 H 2135.11 -4.21184 4.42082 0
M  V30 22432 H 2136.52 -2.12753 5.32362 0
M  V30 22433 H 2134.92 -1.50324 5.80967 0
M  V30 22434 H 2135.99 -0.48986 4.82419 0
M  V30 22435 N 2137.33 -1.54609 -0.305591 0
M  V30 22436 C 2138.26 -1.88242 -1.38157 0
M  V30 22437 C 2139.24 -0.740883 -1.53117 0
M  V30 22438 O 2140.43 -0.996214 -1.66701 0
M  V30 22439 C 2137.56 -2.12567 -2.7465 0
M  V30 22440 C 2136.51 -3.28415 -2.74459 0
M  V30 22441 C 2135.84 -3.38148 -4.14198 0
M  V30 22442 C 2137.14 -4.65633 -2.36607 0
M  V30 22443 H 2138.83 -2.78359 -1.10258 0
M  V30 22444 H 2136.38 -1.33933 -0.528959 0
M  V30 22445 H 2138.33 -2.34681 -3.50004 0
M  V30 22446 H 2137.06 -1.19216 -3.04064 0
M  V30 22447 H 2135.71 -3.06217 -2.01561 0
M  V30 22448 H 2135.36 -2.42323 -4.40782 0
M  V30 22449 H 2135.06 -4.16019 -4.14973 0
M  V30 22450 H 2136.59 -3.62517 -4.91339 0
M  V30 22451 H 2138 -4.87508 -3.01677 0
M  V30 22452 H 2136.4 -5.46184 -2.48603 0
M  V30 22453 H 2137.47 -4.66662 -1.31738 0
M  V30 22454 N 2138.81 0.568558 -1.46987 0
M  V30 22455 C 2139.76 1.6718 -1.55032 0
M  V30 22456 C 2140.74 1.55586 -0.410086 0
M  V30 22457 O 2141.94 1.64261 -0.659345 0
M  V30 22458 C 2139.07 3.05964 -1.55694 0
M  V30 22459 C 2138.15 3.22803 -2.75062 0
M  V30 22460 N 2138.54 3.09748 -3.99862 0
M  V30 22461 C 2136.84 3.53777 -2.71584 0
M  V30 22462 C 2137.54 3.28972 -4.79742 0
M  V30 22463 N 2136.52 3.54783 -4.11862 0
M  V30 22464 H 2140.32 1.55638 -2.49307 0
M  V30 22465 H 2137.83 0.772998 -1.42823 0
M  V30 22466 H 2139.83 3.85163 -1.59546 0
M  V30 22467 H 2138.49 3.18627 -0.625061 0
M  V30 22468 H 2139.5 2.87314 -4.30896 0
M  V30 22469 H 2136.18 3.73037 -1.87483 0
M  V30 22470 H 2137.57 3.23942 -5.88652 0
M  V30 22471 N 2140.29 1.34929 0.814366 0
M  V30 22472 C 2141.22 1.29866 1.94055 0
M  V30 22473 C 2142.2 0.174504 1.69203 0
M  V30 22474 O 2143.38 0.368232 1.90677 0
M  V30 22475 C 2140.51 1.06201 3.30664 0
M  V30 22476 C 2139.47 2.15174 3.69978 0
M  V30 22477 C 2138.79 1.76686 5.04664 0
M  V30 22478 C 2140.09 3.57077 3.81174 0
M  V30 22479 H 2141.79 2.24095 1.98549 0
M  V30 22480 H 2139.33 1.07877 0.953865 0
M  V30 22481 H 2141.29 1.01301 4.09043 0
M  V30 22482 H 2140.01 0.0841549 3.26492 0
M  V30 22483 H 2138.67 2.19158 2.9388 0
M  V30 22484 H 2138.32 0.775388 4.96988 0
M  V30 22485 H 2138.02 2.49628 5.3194 0
M  V30 22486 H 2139.54 1.73297 5.85492 0
M  V30 22487 H 2140.96 3.55458 4.49803 0
M  V30 22488 H 2139.35 4.28713 4.19911 0
M  V30 22489 H 2140.42 3.93795 2.82937 0
M  V30 22490 N 2141.77 -1.0356 1.18799 0
M  V30 22491 C 2143.01 -1.78406 0.997524 0
M  V30 22492 C 2143.37 -1.86305 -0.464169 0
M  V30 22493 O 2144.57 -2.57408 -0.774237 0
M  V30 22494 C 2142.84 -3.17534 1.64033 0
M  V30 22495 S 2144.4 -4.08655 1.59832 0
M  V30 22496 H 2141.22 -0.614236 0.3581 0
M  V30 22497 H 2143.82 -1.24137 1.51031 0
M  V30 22498 H 2142.53 -3.09398 2.69631 0
M  V30 22499 H 2142.06 -3.7688 1.12805 0
M  V30 22500 H 2144.07 -4.92339 0.61778 0
M  V30 22501 N 2143.25 -0.990834 -1.22557 0
M  V30 22502 C 2144.49 -0.664218 -1.90873 0
M  V30 22503 C 2144.81 0.80601 -1.77563 0
M  V30 22504 O 2144.08 1.57751 -1.16153 0
M  V30 22505 H 2142.66 -0.242684 -0.70648 0
M  V30 22506 H 2145.33 -1.2569 -1.48957 0
M  V30 22507 H 2144.42 -0.924949 -2.98079 0
M  V30 22508 N 2144.72 1.37856 -0.763775 0
M  V30 22509 C 2145.95 2.04686 -0.334395 0
M  V30 22510 C 2146.37 1.57229 1.0325 0
M  V30 22511 O 2145.73 0.728884 1.66003 0
M  V30 22512 C 2145.78 3.58616 -0.377715 0
M  V30 22513 O 2144.88 4.07641 0.624687 0
M  V30 22514 H 2144.22 0.647714 -0.146161 0
M  V30 22515 H 2146.75 1.76329 -1.03774 0
M  V30 22516 H 2146.76 4.07339 -0.232185 0
M  V30 22517 H 2145.44 3.92514 -1.37496 0
M  V30 22518 H 2144.02 3.7026 0.442931 0
M  V30 22519 N 2146.2 0.513665 1.48994 0
M  V30 22520 C 2147.13 -0.247058 2.32189 0
M  V30 22521 C 2148.11 -0.950613 1.41058 0
M  V30 22522 O 2149.3 -0.939562 1.69958 0
M  V30 22523 C 2146.43 -1.30433 3.21876 0
M  V30 22524 C 2145.38 -0.719902 4.21902 0
M  V30 22525 C 2144.71 -1.87863 5.00611 0
M  V30 22526 C 2146.01 0.297524 5.21452 0
M  V30 22527 H 2147.7 0.447403 2.96038 0
M  V30 22528 H 2145.25 0.216608 1.42362 0
M  V30 22529 H 2147.2 -1.84434 3.78896 0
M  V30 22530 H 2145.92 -2.02815 2.55995 0
M  V30 22531 H 2144.58 -0.201546 3.66046 0
M  V30 22532 H 2144.23 -2.59044 4.31167 0
M  V30 22533 H 2143.93 -1.49359 5.68301 0
M  V30 22534 H 2145.46 -2.42273 5.60478 0
M  V30 22535 H 2146.87 -0.1548 5.73091 0
M  V30 22536 H 2145.27 0.599071 5.97102 0
M  V30 22537 H 2146.34 1.20903 4.69585 0
M  V30 22538 N 2147.68 -1.55636 0.248053 0
M  V30 22539 C 2148.64 -2.2015 -0.637698 0
M  V30 22540 C 2149.64 -1.17112 -1.10188 0
M  V30 22541 O 2150.83 -1.42187 -1.00641 0
M  V30 22542 C 2147.96 -2.84598 -1.87661 0
M  V30 22543 H 2149.16 -2.99807 -0.0748129 0
M  V30 22544 H 2146.71 -1.563 -0.00148259 0
M  V30 22545 H 2147.45 -2.08882 -2.4807 0
M  V30 22546 H 2147.23 -3.60078 -1.55197 0
M  V30 22547 H 2148.72 -3.33968 -2.50709 0
M  V30 22548 N 2149.16 0.0250451 -1.5758 0
M  V30 22549 C 2150.09 1.05207 -2.03627 0
M  V30 22550 C 2151.1 1.32224 -0.949769 0
M  V30 22551 O 2152.29 1.29641 -1.22701 0
M  V30 22552 C 2149.39 2.39277 -2.39999 0
M  V30 22553 C 2148.56 2.31559 -3.71078 0
M  V30 22554 C 2147.62 3.48111 -3.94595 0
M  V30 22555 O 2146.65 3.27424 -4.65599 0
M  V30 22556 N 2147.85 4.70117 -3.40545 0
M  V30 22557 H 2150.62 0.659567 -2.92352 0
M  V30 22558 H 2148.18 0.212915 -1.60494 0
M  V30 22559 H 2150.17 3.15976 -2.52866 0
M  V30 22560 H 2148.74 2.70358 -1.56924 0
M  V30 22561 H 2147.96 1.39933 -3.68527 0
M  V30 22562 H 2149.25 2.23549 -4.57059 0
M  V30 22563 H 2148.65 4.89824 -2.83 0
M  V30 22564 H 2147.2 5.44167 -3.58784 0
M  V30 22565 N 2150.64 1.54769 0.297388 0
M  V30 22566 C 2151.57 1.88972 1.37157 0
M  V30 22567 C 2152.55 0.748993 1.52722 0
M  V30 22568 O 2153.73 1.00504 1.6617 0
M  V30 22569 C 2150.86 2.1402 2.73519 0
M  V30 22570 C 2149.82 3.29865 2.72714 0
M  V30 22571 C 2149.14 3.4034 4.12399 0
M  V30 22572 C 2150.44 4.66881 2.34135 0
M  V30 22573 H 2152.14 2.7894 1.0878 0
M  V30 22574 H 2149.68 1.34212 0.521848 0
M  V30 22575 H 2151.63 2.36533 3.48755 0
M  V30 22576 H 2150.36 1.20827 3.03428 0
M  V30 22577 H 2149.02 3.07281 1.99934 0
M  V30 22578 H 2148.67 2.44657 4.3949 0
M  V30 22579 H 2148.37 4.18214 4.1276 0
M  V30 22580 H 2149.89 3.65118 4.89409 0
M  V30 22581 H 2151.3 4.89101 2.99087 0
M  V30 22582 H 2149.7 5.47495 2.45703 0
M  V30 22583 H 2150.77 4.67354 1.29261 0
M  V30 22584 N 2152.11 -0.560755 1.47286 0
M  V30 22585 C 2153.08 -1.6502 1.59063 0
M  V30 22586 C 2154.08 -1.539 0.465997 0
M  V30 22587 O 2155.27 -1.58122 0.730962 0
M  V30 22588 C 2152.4 -3.04548 1.53177 0
M  V30 22589 H 2153.59 -1.5593 2.56176 0
M  V30 22590 H 2151.14 -0.780391 1.35424 0
M  V30 22591 H 2151.88 -3.19175 0.574264 0
M  V30 22592 H 2151.66 -3.14029 2.34794 0
M  V30 22593 H 2153.15 -3.83814 1.64549 0
M  V30 22594 N 2153.59 -1.35359 -0.807199 0
M  V30 22595 C 2154.83 -1.29962 -1.57763 0
M  V30 22596 C 2155.2 0.124572 -1.91595 0
M  V30 22597 O 2156.4 0.302903 -2.67088 0
M  V30 22598 C 2154.67 -2.18018 -2.83202 0
M  V30 22599 S 2156.23 -2.3013 -3.73611 0
M  V30 22600 H 2153.04 -0.461874 -0.540549 0
M  V30 22601 H 2155.65 -1.70743 -0.952207 0
M  V30 22602 H 2154.35 -3.20473 -2.56369 0
M  V30 22603 H 2153.88 -1.78191 -3.5073 0
M  V30 22604 H 2155.9 -1.48567 -4.73437 0
M  V30 22605 N 2155.07 1.02928 -1.19346 0
M  V30 22606 C 2156.32 1.76582 -0.997324 0
M  V30 22607 C 2156.65 1.88407 0.470801 0
M  V30 22608 O 2155.92 1.40057 1.34961 0
M  V30 22609 C 2156.21 3.19219 -1.66647 0
M  V30 22610 C 2156.06 3.15268 -3.20822 0
M  V30 22611 C 2157.38 4.17602 -1.38912 0
M  V30 22612 H 2154.5 0.640995 -0.363722 0
M  V30 22613 H 2157.14 1.20159 -1.4718 0
M  V30 22614 H 2155.29 3.67395 -1.26306 0
M  V30 22615 H 2156.96 2.74993 -3.70374 0
M  V30 22616 H 2155.2 2.52994 -3.52387 0
M  V30 22617 H 2155.88 4.1604 -3.62788 0
M  V30 22618 H 2158.35 3.78025 -1.73887 0
M  V30 22619 H 2157.23 5.15597 -1.88283 0
M  V30 22620 H 2157.49 4.40982 -0.314198 0
M  V30 22621 N 2156.55 0.997319 1.2203 0
M  V30 22622 C 2157.46 0.560352 2.2781 0
M  V30 22623 C 2158.47 -0.392977 1.69504 0
M  V30 22624 O 2159.65 -0.258715 1.99731 0
M  V30 22625 C 2156.71 -0.113747 3.46513 0
M  V30 22626 C 2155.78 0.883099 4.20119 0
M  V30 22627 C 2155.01 0.241074 5.33155 0
M  V30 22628 O 2155.23 -0.963972 5.62195 0
M  V30 22629 O 2154.17 0.948154 5.94385 0
M  V30 22630 H 2157.99 1.44049 2.67364 0
M  V30 22631 H 2155.58 0.765793 1.28281 0
M  V30 22632 H 2157.46 -0.491137 4.18528 0
M  V30 22633 H 2156.13 -0.968387 3.08875 0
M  V30 22634 H 2155.04 1.3115 3.50358 0
M  V30 22635 H 2156.37 1.70708 4.61649 0
M  V30 22636 N 2158.03 -1.37449 0.771075 0
M  V30 22637 C 2159.44 -1.82352 0.400585 0
M  V30 22638 C 2159.79 -1.64247 -1.07318 0
M  V30 22639 O 2158.91 -1.15322 -1.83111 0
M  V30 22640 C 2159.51 -3.31054 0.720312 0
M  V30 22641 C 2158.07 -3.74238 0.402886 0
M  V30 22642 C 2157.21 -2.59986 0.964497 0
M  V30 22643 H 2160.17 -1.2593 0.965782 0
M  V30 22644 H 2160.19 -3.805 0.00472604 0
M  V30 22645 H 2159.7 -3.44199 1.793 0
M  V30 22646 H 2157.8 -3.66663 -0.662511 0
M  V30 22647 H 2157.91 -4.70365 0.910666 0
M  V30 22648 H 2156.28 -2.51715 0.388782 0
M  V30 22649 H 2157.06 -2.75924 2.04257 0
M  V30 22650 N 2159.5 -0.52156 -1.4872 0
M  V30 22651 C 2160.75 0.0156187 -2.02794 0
M  V30 22652 C 2161.08 1.34729 -1.39863 0
M  V30 22653 O 2160.36 1.86812 -0.541426 0
M  V30 22654 C 2160.64 0.146526 -3.59802 0
M  V30 22655 C 2160.49 -1.20972 -4.33227 0
M  V30 22656 C 2161.81 0.87737 -4.31266 0
M  V30 22657 H 2158.93 0.00420207 -0.736988 0
M  V30 22658 H 2161.57 -0.676958 -1.77531 0
M  V30 22659 H 2159.72 0.736393 -3.81457 0
M  V30 22660 H 2161.4 -1.84005 -4.23013 0
M  V30 22661 H 2159.64 -1.79378 -3.94976 0
M  V30 22662 H 2160.31 -1.07121 -5.41506 0
M  V30 22663 H 2162.79 0.376892 -4.1439 0
M  V30 22664 H 2161.66 0.937846 -5.40829 0
M  V30 22665 H 2161.92 1.92578 -3.97953 0
M  V30 22666 N 2160.98 1.55502 -0.256304 0
M  V30 22667 C 2162.4 1.59297 0.0983236 0
M  V30 22668 C 2162.6 1.27351 1.56154 0
M  V30 22669 O 2161.65 1.02533 2.30745 0
M  V30 22670 C 2162.97 2.9958 -0.259346 0
M  V30 22671 C 2164.52 3.12332 -0.204415 0
M  V30 22672 C 2164.99 4.5485 -0.536252 0
M  V30 22673 N 2166.48 4.60632 -0.487101 0
M  V30 22674 C 2167.22 5.68901 -0.716903 0
M  V30 22675 N 2166.71 6.85393 -1.01033 0
M  V30 22676 N 2168.51 5.58364 -0.646972 0
M  V30 22677 H 2160.66 1.74536 -1.21042 0
M  V30 22678 H 2162.92 0.812935 -0.487689 0
M  V30 22679 H 2162.63 3.27727 -1.27624 0
M  V30 22680 H 2162.5 3.74976 0.409004 0
M  V30 22681 H 2164.89 2.8396 0.803168 0
M  V30 22682 H 2164.97 2.3919 -0.906752 0
M  V30 22683 H 2164.61 4.83944 -1.54143 0
M  V30 22684 H 2164.54 5.26265 0.187668 0
M  V30 22685 H 2167.03 3.76938 -0.269421 0
M  V30 22686 H 2167.35 7.63848 -1.17285 0
M  V30 22687 H 2165.69 6.87055 -1.0479 0
M  V30 22688 H 2168.88 4.66233 -0.417713 0
M  V30 22689 H 2169.05 6.42669 -0.829457 0
M  V30 22690 N 2162.46 -0.0166879 1.57591 0
M  V30 22691 C 2163.39 -1.01268 2.10398 0
M  V30 22692 C 2164.37 -1.36922 1.00928 0
M  V30 22693 O 2165.56 -1.45589 1.2852 0
M  V30 22694 C 2162.69 -2.30979 2.59357 0
M  V30 22695 C 2161.64 -2.09533 3.73202 0
M  V30 22696 C 2160.97 -3.45113 4.08413 0
M  V30 22697 C 2162.27 -1.47144 5.01145 0
M  V30 22698 H 2163.96 -0.573053 2.93865 0
M  V30 22699 H 2161.51 -0.274203 1.41365 0
M  V30 22700 H 2163.46 -3.00996 2.94923 0
M  V30 22701 H 2162.18 -2.77024 1.72989 0
M  V30 22702 H 2160.84 -1.41946 3.38004 0
M  V30 22703 H 2160.49 -3.88829 3.19094 0
M  V30 22704 H 2160.19 -3.31585 4.85104 0
M  V30 22705 H 2161.71 -4.16472 4.46524 0
M  V30 22706 H 2163.13 -2.07094 5.34588 0
M  V30 22707 H 2161.53 -1.44154 5.82529 0
M  V30 22708 H 2162.6 -0.438665 4.82912 0
M  V30 22709 N 2163.94 -1.54924 -0.289176 0
M  V30 22710 C 2164.87 -1.8308 -1.37892 0
M  V30 22711 C 2165.88 -0.714368 -1.4629 0
M  V30 22712 O 2167.07 -0.992012 -1.48396 0
M  V30 22713 C 2164.17 -1.96434 -2.76165 0
M  V30 22714 C 2163.35 -3.26949 -2.90557 0
M  V30 22715 C 2162.4 -3.3057 -4.09402 0
M  V30 22716 O 2161.43 -4.04038 -4.00926 0
M  V30 22717 N 2162.63 -2.56808 -5.20605 0
M  V30 22718 H 2165.4 -2.77135 -1.1409 0
M  V30 22719 H 2162.96 -1.54643 -0.479271 0
M  V30 22720 H 2164.95 -1.96244 -3.53935 0
M  V30 22721 H 2163.52 -1.0932 -2.92862 0
M  V30 22722 H 2162.74 -3.39813 -1.99802 0
M  V30 22723 H 2164.03 -4.13054 -2.97092 0
M  V30 22724 H 2163.43 -1.96772 -5.30375 0
M  V30 22725 H 2161.98 -2.6236 -5.96666 0
M  V30 22726 N 2165.42 0.552936 -1.47582 0
M  V30 22727 C 2166.38 1.64175 -1.59936 0
M  V30 22728 C 2167.38 1.5365 -0.474152 0
M  V30 22729 O 2168.57 1.57732 -0.739338 0
M  V30 22730 C 2165.7 3.03732 -1.5479 0
M  V30 22731 H 2166.89 1.54569 -2.56999 0
M  V30 22732 H 2164.45 0.773198 -1.35836 0
M  V30 22733 H 2165.18 3.18866 -0.591183 0
M  V30 22734 H 2164.97 3.12779 -2.36456 0
M  V30 22735 H 2166.46 3.82936 -1.66582 0
M  V30 22736 N 2166.89 1.35785 0.800009 0
M  V30 22737 C 2168.14 1.30625 1.55912 0
M  V30 22738 C 2168.5 -0.116568 1.92047 0
M  V30 22739 O 2167.79 -1.06857 1.59035 0
M  V30 22740 C 2167.98 2.15261 2.85302 0
M  V30 22741 C 2167.81 3.6563 2.61811 0
M  V30 22742 C 2166.58 4.34843 2.57371 0
M  V30 22743 C 2168.78 4.59133 2.31736 0
M  V30 22744 N 2166.76 5.70919 2.25666 0
M  V30 22745 C 2168.13 5.83379 2.09927 0
M  V30 22746 C 2170.19 4.47807 2.17654 0
M  V30 22747 C 2168.89 6.97571 1.75461 0
M  V30 22748 C 2170.92 5.61856 1.84586 0
M  V30 22749 C 2170.28 6.85134 1.63617 0
M  V30 22750 H 2166.38 0.533257 0.57198 0
M  V30 22751 H 2168.96 1.70733 0.935867 0
M  V30 22752 H 2167.13 1.77415 3.45512 0
M  V30 22753 H 2168.86 2.01571 3.50929 0
M  V30 22754 H 2165.62 3.87528 2.72249 0
M  V30 22755 H 2166.04 6.42756 2.12589 0
M  V30 22756 H 2170.69 3.53095 2.3256 0
M  V30 22757 H 2168.4 7.92244 1.59293 0
M  V30 22758 H 2171.99 5.55049 1.74389 0
M  V30 22759 H 2170.87 7.7189 1.38404 0
M  V30 22760 N 2168.37 -1.02294 1.19891 0
M  V30 22761 C 2169.3 -2.12589 0.965816 0
M  V30 22762 C 2170.28 -1.69788 -0.102962 0
M  V30 22763 O 2171.47 -1.94127 0.0532676 0
M  V30 22764 C 2168.6 -3.43532 0.510181 0
M  V30 22765 C 2167.55 -4.00044 1.52147 0
M  V30 22766 C 2166.88 -5.26679 0.922703 0
M  V30 22767 C 2168.18 -4.34165 2.90341 0
M  V30 22768 H 2169.87 -2.32347 1.88826 0
M  V30 22769 H 2167.42 -1.11659 0.9093 0
M  V30 22770 H 2169.37 -4.20071 0.334377 0
M  V30 22771 H 2168.1 -3.23514 -0.447879 0
M  V30 22772 H 2166.75 -3.25606 1.68453 0
M  V30 22773 H 2166.4 -5.02982 -0.0430931 0
M  V30 22774 H 2166.1 -5.65452 1.59806 0
M  V30 22775 H 2167.63 -6.05879 0.757827 0
M  V30 22776 H 2169.04 -5.01617 2.77584 0
M  V30 22777 H 2167.44 -4.84036 3.54724 0
M  V30 22778 H 2168.51 -3.43207 3.42545 0
M  V30 22779 N 2169.85 -1.00378 -1.21499 0
M  V30 22780 C 2171.08 -0.704573 -1.94534 0
M  V30 22781 C 2171.49 0.732632 -1.74006 0
M  V30 22782 O 2170.85 1.49556 -1.04591 0
M  V30 22783 C 2170.9 -1.01461 -3.4697 0
M  V30 22784 O 2170.62 -2.39535 -3.66817 0
M  V30 22785 C 2172.12 -0.734641 -4.3717 0
M  V30 22786 H 2169.34 -0.259747 -0.618686 0
M  V30 22787 H 2171.89 -1.34149 -1.54351 0
M  V30 22788 H 2170.04 -0.423313 -3.8508 0
M  V30 22789 H 2170.46 -2.50302 -4.60922 0
M  V30 22790 H 2171.93 -1.00176 -5.42834 0
M  V30 22791 H 2172.41 0.331329 -4.37948 0
M  V30 22792 H 2173.01 -1.30749 -4.04703 0
M  V30 22793 N 2171.33 1.37038 -0.778354 0
M  V30 22794 C 2172.74 1.52865 -0.458743 0
M  V30 22795 C 2172.94 1.73503 1.02465 0
M  V30 22796 O 2172 1.76017 1.81036 0
M  V30 22797 C 2173.31 2.72117 -1.27956 0
M  V30 22798 C 2174.86 2.85982 -1.27213 0
M  V30 22799 C 2175.34 4.08225 -2.07645 0
M  V30 22800 N 2176.83 4.1535 -2.05033 0
M  V30 22801 C 2177.56 5.08988 -2.64044 0
M  V30 22802 N 2177.06 6.0814 -3.3187 0
M  V30 22803 N 2178.85 5.0152 -2.53838 0
M  V30 22804 H 2171 1.21895 -1.73941 0
M  V30 22805 H 2173.27 0.594067 -0.738775 0
M  V30 22806 H 2172.97 2.63353 -2.33105 0
M  V30 22807 H 2172.85 3.65977 -0.913259 0
M  V30 22808 H 2175.23 2.94213 -0.228607 0
M  V30 22809 H 2175.31 1.93061 -1.67812 0
M  V30 22810 H 2174.96 4.00755 -3.12022 0
M  V30 22811 H 2174.89 5.00272 -1.64423 0
M  V30 22812 H 2177.38 3.44352 -1.55659 0
M  V30 22813 H 2177.69 6.76131 -3.74255 0
M  V30 22814 H 2176.04 6.08399 -3.3597 0
M  V30 22815 H 2179.23 4.23005 -2.0046 0
M  V30 22816 H 2179.4 5.7431 -3.00121 0
M  V30 22817 N 2172.81 0.529439 1.48441 0
M  V30 22818 C 2173.74 -0.280881 2.26465 0
M  V30 22819 C 2174.72 -0.94529 1.32299 0
M  V30 22820 O 2175.9 -0.96979 1.61639 0
M  V30 22821 C 2173.03 -1.39776 3.08513 0
M  V30 22822 C 2172.08 -0.84481 4.18049 0
M  V30 22823 S 2172.91 0.286899 5.34731 0
M  V30 22824 C 2174.06 -0.832466 6.20339 0
M  V30 22825 H 2174.3 0.38128 2.94845 0
M  V30 22826 H 2171.83 0.315217 1.51148 0
M  V30 22827 H 2173.79 -2.03755 3.56362 0
M  V30 22828 H 2172.45 -2.03164 2.39548 0
M  V30 22829 H 2171.64 -1.68267 4.75081 0
M  V30 22830 H 2171.24 -0.281723 3.72937 0
M  V30 22831 H 2173.54 -1.73123 6.55007 0
M  V30 22832 H 2174.48 -0.300133 7.07464 0
M  V30 22833 H 2174.89 -1.11263 5.53426 0
M  V30 22834 N 2174.29 -1.55364 0.264547 0
M  V30 22835 C 2175.51 -2.03764 -0.358889 0
M  V30 22836 C 2175.93 -1.14327 -1.50249 0
M  V30 22837 O 2175.29 -0.161219 -1.81787 0
M  V30 22838 C 2175.34 -3.51366 -0.849959 0
M  V30 22839 O 2175.06 -4.37397 0.248086 0
M  V30 22840 C 2176.56 -4.15606 -1.54229 0
M  V30 22841 H 2173.78 -0.66582 -0.0832187 0
M  V30 22842 H 2176.32 -2.00677 0.39356 0
M  V30 22843 H 2174.48 -3.5493 -1.55253 0
M  V30 22844 H 2174.89 -5.24345 -0.127661 0
M  V30 22845 H 2176.37 -5.20522 -1.83742 0
M  V30 22846 H 2176.84 -3.63145 -2.47027 0
M  V30 22847 H 2177.45 -4.16015 -0.883843 0
M  V30 22848 N 2175.76 0.00833021 -1.57598 0
M  V30 22849 C 2176.99 0.706123 -1.94478 0
M  V30 22850 C 2177.41 1.67768 -0.86599 0
M  V30 22851 O 2176.76 1.81834 0.155828 0
M  V30 22852 C 2176.81 1.44523 -3.31354 0
M  V30 22853 O 2176.54 0.512651 -4.3509 0
M  V30 22854 C 2178.04 2.2383 -3.82642 0
M  V30 22855 H 2175.26 0.197195 -0.64137 0
M  V30 22856 H 2177.8 -0.0403132 -2.0446 0
M  V30 22857 H 2175.96 2.14337 -3.22705 0
M  V30 22858 H 2176.37 1.03321 -5.14223 0
M  V30 22859 H 2177.84 2.71055 -4.80867 0
M  V30 22860 H 2178.32 3.06148 -3.14913 0
M  V30 22861 H 2178.93 1.59049 -3.94441 0
M  V30 22862 N 2177.24 1.55075 0.280956 0
M  V30 22863 C 2178.47 1.79652 1.03634 0
M  V30 22864 C 2178.89 0.564074 1.79443 0
M  V30 22865 O 2178.25 -0.486088 1.74662 0
M  V30 22866 C 2178.3 3.01583 1.97687 0
M  V30 22867 O 2177.4 2.76111 3.06327 0
M  V30 22868 H 2176.74 0.594024 0.296701 0
M  V30 22869 H 2179.27 2.02203 0.312282 0
M  V30 22870 H 2179.28 3.301 2.39787 0
M  V30 22871 H 2177.96 3.90937 1.41919 0
M  V30 22872 H 2176.53 2.58668 2.68598 0
M  V30 22873 N 2178.72 -0.545102 1.47873 0
M  V30 22874 C 2180.13 -1.12717 1.48835 0
M  V30 22875 C 2180.48 -1.94604 0.249718 0
M  V30 22876 O 2179.61 -2.06582 -0.644417 0
M  V30 22877 C 2180.2 -2.05084 2.69678 0
M  V30 22878 C 2178.76 -2.58538 2.7356 0
M  V30 22879 C 2177.91 -1.35171 2.42124 0
M  V30 22880 H 2180.86 -0.331094 1.55208 0
M  V30 22881 H 2180.88 -2.89145 2.47336 0
M  V30 22882 H 2180.39 -1.45457 3.59811 0
M  V30 22883 H 2178.49 -3.21929 1.87597 0
M  V30 22884 H 2178.61 -2.98704 3.74583 0
M  V30 22885 H 2176.97 -1.66249 1.9296 0
M  V30 22886 H 2177.75 -0.773194 3.3448 0
M  V30 22887 N 2180.2 -1.36208 -0.792797 0
M  V30 22888 C 2181.61 -1.27081 -1.36774 0
M  V30 22889 C 2181.96 0.0908481 -1.9599 0
M  V30 22890 O 2181.08 0.992221 -1.92312 0
M  V30 22891 C 2181.68 -2.30115 -2.48662 0
M  V30 22892 C 2180.24 -2.24688 -3.01981 0
M  V30 22893 C 2179.39 -2.15076 -1.75035 0
M  V30 22894 H 2182.34 -1.47135 -0.594713 0
M  V30 22895 H 2182.36 -1.93562 -3.27588 0
M  V30 22896 H 2181.87 -3.29207 -2.05534 0
M  V30 22897 H 2179.97 -1.29051 -3.49538 0
M  V30 22898 H 2180.08 -3.17234 -3.59025 0
M  V30 22899 H 2178.45 -1.61276 -1.97135 0
M  V30 22900 H 2179.23 -3.16051 -1.3404 0
M  V30 22901 N 2181.68 1.01656 -1.20431 0
M  V30 22902 C 2182.62 2.10198 -0.953184 0
M  V30 22903 C 2183.59 1.6569 0.116613 0
M  V30 22904 O 2184.78 1.90779 -0.0281152 0
M  V30 22905 C 2181.92 3.4129 -0.511397 0
M  V30 22906 C 2181.03 3.99275 -1.64935 0
M  V30 22907 C 2180.17 5.18427 -1.15787 0
M  V30 22908 C 2179.2 5.68496 -2.2689 0
M  V30 22909 N 2178.34 6.78909 -1.7896 0
M  V30 22910 H 2183.18 2.31015 -1.88245 0
M  V30 22911 H 2180.72 1.13288 -0.938314 0
M  V30 22912 H 2182.68 4.16529 -0.236575 0
M  V30 22913 H 2181.31 3.20545 0.380867 0
M  V30 22914 H 2180.36 3.21132 -2.03909 0
M  V30 22915 H 2181.67 4.32437 -2.48595 0
M  V30 22916 H 2180.82 6.00871 -0.839013 0
M  V30 22917 H 2179.56 4.8683 -0.291159 0
M  V30 22918 H 2178.57 4.84657 -2.59592 0
M  V30 22919 H 2179.79 6.02127 -3.14037 0
M  V30 22920 H 2177.74 6.49141 -0.946156 0
M  V30 22921 H 2177.66 7.11265 -2.562 0
M  V30 22922 H 2178.92 7.64917 -1.50074 0
M  V30 22923 N 2183.15 1.01021 1.20965 0
M  V30 22924 C 2184.43 0.611192 1.85806 0
M  V30 22925 C 2184.81 -0.910997 1.90431 0
M  V30 22926 O 2184.16 -1.80009 1.40744 0
M  V30 22927 C 2184.37 1.25159 3.25785 0
M  V30 22928 C 2185.72 1.36299 4.02129 0
M  V30 22929 O 2186.74 1.20731 3.35116 0
M  V30 22930 O 2185.6 1.61393 5.22125 0
M  V30 22931 H 2182.69 0.210041 0.799882 0
M  V30 22932 H 2185.24 1.10718 1.28606 0
M  V30 22933 H 2184.01 2.292 3.17148 0
M  V30 22934 H 2183.63 0.742281 3.9061 0
M  V30 22935 N 2184.63 -1.36623 0.78561 0
M  V30 22936 C 2185.86 -2.04129 0.366917 0
M  V30 22937 C 2186.28 -1.58852 -1.00736 0
M  V30 22938 O 2185.64 -0.755202 -1.64822 0
M  V30 22939 C 2185.69 -3.5797 0.43472 0
M  V30 22940 O 2184.79 -4.08584 -0.559755 0
M  V30 22941 H 2184.13 -0.645306 0.156447 0
M  V30 22942 H 2186.66 -1.74656 1.06566 0
M  V30 22943 H 2186.67 -4.06918 0.296959 0
M  V30 22944 H 2185.35 -3.90277 1.43724 0
M  V30 22945 H 2183.92 -3.70918 -0.38397 0
M  V30 22946 N 2186.11 -0.537304 -1.48158 0
M  V30 22947 C 2187.39 0.0588571 -1.95511 0
M  V30 22948 C 2187.77 1.50563 -1.47966 0
M  V30 22949 O 2187.11 2.17207 -0.709454 0
M  V30 22950 C 2187.32 -0.0659743 -3.48938 0
M  V30 22951 C 2188.67 0.089563 -4.24506 0
M  V30 22952 O 2189.7 0.00746266 -3.56199 0
M  V30 22953 O 2188.56 0.262738 -5.45868 0
M  V30 22954 H 2185.65 0.0752315 -0.823571 0
M  V30 22955 H 2188.2 -0.60242 -1.58647 0
M  V30 22956 H 2186.97 -1.0735 -3.76287 0
M  V30 22957 H 2186.59 0.633822 -3.92516 0
M  V30 22958 N 2187.59 1.55221 -0.272782 0
M  V30 22959 C 2188.52 2.19823 0.648896 0
M  V30 22960 C 2189.53 1.18223 1.11925 0
M  V30 22961 O 2190.72 1.44961 1.04156 0
M  V30 22962 C 2187.82 2.80842 1.89687 0
M  V30 22963 C 2187 4.08109 1.5737 0
M  V30 22964 C 2186.05 4.53199 2.6739 0
M  V30 22965 O 2185.08 5.19023 2.33676 0
M  V30 22966 N 2186.28 4.23144 3.97404 0
M  V30 22967 H 2189.05 2.99546 0.0960037 0
M  V30 22968 H 2186.61 1.61628 -0.0937867 0
M  V30 22969 H 2188.6 3.07952 2.62579 0
M  V30 22970 H 2187.17 2.05125 2.35887 0
M  V30 22971 H 2186.39 3.88313 0.67872 0
M  V30 22972 H 2187.68 4.91034 1.33278 0
M  V30 22973 H 2187.08 3.70352 4.27617 0
M  V30 22974 H 2185.63 4.5503 4.66681 0
M  V30 22975 N 2189.07 2.77022e-05 1.576 0
M  V30 22976 C 2190 -0.990304 2.1146 0
M  V30 22977 C 2190.98 -1.35844 1.02374 0
M  V30 22978 O 2192.16 -1.44218 1.30057 0
M  V30 22979 C 2189.29 -2.28215 2.61792 0
M  V30 22980 C 2188.25 -2.05563 3.75404 0
M  V30 22981 C 2187.57 -3.40761 4.12051 0
M  V30 22982 C 2188.87 -1.4182 5.02677 0
M  V30 22983 H 2190.57 -0.541853 2.94456 0
M  V30 22984 H 2188.11 -0.259194 1.41648 0
M  V30 22985 H 2190.07 -2.97851 2.98099 0
M  V30 22986 H 2188.79 -2.75174 1.75918 0
M  V30 22987 H 2187.45 -1.38353 3.39491 0
M  V30 22988 H 2187.1 -3.85423 3.232 0
M  V30 22989 H 2186.8 -3.26421 4.88593 0
M  V30 22990 H 2188.32 -4.11712 4.50916 0
M  V30 22991 H 2189.73 -2.01413 5.36755 0
M  V30 22992 H 2188.13 -1.37967 5.84025 0
M  V30 22993 H 2189.2 -0.387421 4.8335 0
M  V30 22994 N 2190.54 -1.55222 -0.272728 0
M  V30 22995 C 2191.82 -1.66557 -1.02559 0
M  V30 22996 C 2192.2 -0.532225 -2.04281 0
M  V30 22997 O 2191.55 0.467678 -2.23663 0
M  V30 22998 C 2191.76 -3.05785 -1.68215 0
M  V30 22999 C 2193.11 -3.63543 -2.19367 0
M  V30 23000 O 2194.13 -3.0842 -1.78201 0
M  V30 23001 O 2192.99 -4.60121 -2.94875 0
M  V30 23002 H 2190.08 -0.67646 -0.475743 0
M  V30 23003 H 2192.63 -1.67561 -0.268564 0
M  V30 23004 H 2191.4 -3.79716 -0.945046 0
M  V30 23005 H 2191.03 -3.08681 -2.50603 0
M  V30 23006 N 2192.02 0.537252 -1.4816 0
M  V30 23007 C 2193.27 1.29538 -1.56038 0
M  V30 23008 C 2193.6 1.92828 -0.230411 0
M  V30 23009 O 2192.88 1.78913 0.762921 0
M  V30 23010 C 2193.16 2.39029 -2.69327 0
M  V30 23011 C 2193.01 1.80478 -4.12005 0
M  V30 23012 C 2194.33 3.40842 -2.78414 0
M  V30 23013 H 2191.45 0.469622 -0.568 0
M  V30 23014 H 2194.09 0.599245 -1.80303 0
M  V30 23015 H 2192.24 2.98407 -2.48768 0
M  V30 23016 H 2193.91 1.25207 -4.43983 0
M  V30 23017 H 2192.16 1.11048 -4.19346 0
M  V30 23018 H 2192.83 2.59722 -4.87082 0
M  V30 23019 H 2195.3 2.9141 -2.97017 0
M  V30 23020 H 2194.18 4.14857 -3.59423 0
M  V30 23021 H 2194.44 4.00941 -1.86276 0
M  V30 23022 N 2193.5 1.36626 0.785562 0
M  V30 23023 C 2194.75 1.30398 1.5388 0
M  V30 23024 C 2195.06 -0.113418 1.95271 0
M  V30 23025 O 2196.27 -0.298094 2.69859 0
M  V30 23026 C 2194.72 2.28807 2.77804 0
M  V30 23027 C 2194.33 3.76004 2.43568 0
M  V30 23028 C 2196.08 2.31564 3.55779 0
M  V30 23029 C 2193.98 4.66179 3.6391 0
M  V30 23030 H 2192.91 0.484576 0.57767 0
M  V30 23031 H 2195.56 1.6201 0.861677 0
M  V30 23032 H 2193.95 1.90194 3.47336 0
M  V30 23033 H 2195.12 4.23375 1.81908 0
M  V30 23034 H 2193.44 3.76059 1.78797 0
M  V30 23035 H 2196.03 2.96144 4.452 0
M  V30 23036 H 2196.38 1.32527 3.94642 0
M  V30 23037 H 2196.91 2.68814 2.9323 0
M  V30 23038 H 2193.65 5.66293 3.3014 0
M  V30 23039 H 2193.17 4.23522 4.24722 0
M  V30 23040 H 2194.85 4.82639 4.30892 0
M  V30 23041 N 2194.98 -1.01016 1.20969 0
M  V30 23042 C 2195.91 -2.09833 0.922096 0
M  V30 23043 C 2196.92 -1.62536 -0.092682 0
M  V30 23044 O 2198.11 -1.77957 0.139159 0
M  V30 23045 C 2195.21 -3.3696 0.362064 0
M  V30 23046 C 2194.39 -4.13366 1.42993 0
M  V30 23047 C 2193.44 -5.18788 0.880067 0
M  V30 23048 O 2192.47 -5.4734 1.56229 0
M  V30 23049 N 2193.67 -5.79686 -0.307294 0
M  V30 23050 H 2196.44 -2.3509 1.85884 0
M  V30 23051 H 2194 -1.17458 1.11424 0
M  V30 23052 H 2195.99 -4.04695 -0.0200762 0
M  V30 23053 H 2194.56 -3.08902 -0.479382 0
M  V30 23054 H 2193.78 -3.40509 1.98614 0
M  V30 23055 H 2195.07 -4.61192 2.14893 0
M  V30 23056 H 2194.47 -5.58834 -0.878698 0
M  V30 23057 H 2193.02 -6.48738 -0.631001 0
M  V30 23058 N 2196.46 -1.01661 -1.20428 0
M  V30 23059 C 2197.37 -0.596524 -2.26889 0
M  V30 23060 C 2198.38 0.365961 -1.70108 0
M  V30 23061 O 2199.56 0.226907 -2.00118 0
M  V30 23062 C 2196.62 0.058605 -3.4665 0
M  V30 23063 C 2195.68 -0.949824 -4.18661 0
M  V30 23064 C 2194.92 -0.325864 -5.32704 0
M  V30 23065 O 2195.14 0.87441 -5.63658 0
M  V30 23066 O 2194.07 -1.0426 -5.92801 0
M  V30 23067 H 2197.9 -1.48285 -2.65038 0
M  V30 23068 H 2195.49 -0.786105 -1.27046 0
M  V30 23069 H 2197.37 0.42449 -4.19257 0
M  V30 23070 H 2196.04 0.919125 -3.10377 0
M  V30 23071 H 2194.95 -1.36708 -3.48227 0
M  V30 23072 H 2196.28 -1.78031 -4.58875 0
M  V30 23073 N 2197.93 1.36205 -0.792844 0
M  V30 23074 C 2198.88 2.3189 -0.181596 0
M  V30 23075 C 2199.88 1.55972 0.660998 0
M  V30 23076 O 2201.08 1.71207 0.555698 0
M  V30 23077 H 2197.46 0.750938 -0.0399514 0
M  V30 23078 H 2199.43 2.81003 -1.00399 0
M  V30 23079 C 2198.18 3.41254 0.666384 0
M  V30 23080 H 2197.5 3.99791 0.0273786 0
M  V30 23081 H 2198.94 4.10518 1.06069 0
M  V30 23082 C 2197.4 2.83117 1.82609 0
M  V30 23083 O 2197.93 2.75558 2.92286 0
M  V30 23084 N 2196.14 2.40359 1.63328 0
M  V30 23085 H 2195.68 2.46707 0.741174 0
M  V30 23086 H 2195.64 2.01807 2.41083 0
M  V30 23087 N 2199.41 0.545154 1.47871 0
M  V30 23088 C 2200.83 0.20406 1.5829 0
M  V30 23089 C 2201.03 -1.29315 1.54531 0
M  V30 23090 O 2200.08 -2.07249 1.44236 0
M  V30 23091 C 2201.4 0.820038 2.89302 0
M  V30 23092 C 2202.95 0.790159 3.02862 0
M  V30 23093 C 2203.42 1.38499 4.36557 0
M  V30 23094 N 2204.91 1.34763 4.43163 0
M  V30 23095 C 2205.65 1.77762 5.4515 0
M  V30 23096 N 2205.14 2.28562 6.54012 0
M  V30 23097 N 2206.94 1.68906 5.36122 0
M  V30 23098 H 2199.09 1.51804 1.48557 0
M  V30 23099 H 2201.35 0.632339 0.706294 0
M  V30 23100 H 2201.06 1.87178 2.97754 0
M  V30 23101 H 2200.93 0.305981 3.75957 0
M  V30 23102 H 2203.32 -0.252861 2.94015 0
M  V30 23103 H 2203.4 1.34185 2.1778 0
M  V30 23104 H 2203.04 2.42701 4.4616 0
M  V30 23105 H 2202.97 0.808846 5.20351 0
M  V30 23106 H 2205.46 0.975919 3.65081 0
M  V30 23107 H 2205.78 2.59327 7.2799 0
M  V30 23108 H 2204.12 2.32565 6.54934 0
M  V30 23109 H 2207.31 1.29006 4.49972 0
M  V30 23110 H 2207.48 2.02737 6.15469 0
M  V30 23111 N 2200.89 -1.55074 0.28101 0
M  V30 23112 C 2201.82 -2.20164 -0.637229 0
M  V30 23113 C 2202.84 -1.18815 -1.11296 0
M  V30 23114 O 2204.02 -1.45512 -1.03386 0
M  V30 23115 C 2201.12 -2.81844 -1.88195 0
M  V30 23116 C 2200.3 -4.08938 -1.55204 0
M  V30 23117 C 2199.36 -4.5461 -2.64983 0
M  V30 23118 O 2198.38 -5.20254 -2.3092 0
M  V30 23119 N 2199.58 -4.25245 -3.95154 0
M  V30 23120 H 2202.35 -2.99593 -0.0801167 0
M  V30 23121 H 2199.91 -1.61576 0.102357 0
M  V30 23122 H 2201.9 -3.0934 -2.60942 0
M  V30 23123 H 2200.47 -2.06373 -2.34796 0
M  V30 23124 H 2199.69 -3.88668 -0.658117 0
M  V30 23125 H 2200.98 -4.91734 -1.30673 0
M  V30 23126 H 2200.38 -3.72614 -4.25647 0
M  V30 23127 H 2198.94 -4.57498 -4.64261 0
M  V30 23128 N 2202.37 -0.00838561 -1.57598 0
M  V30 23129 C 2203.3 0.979076 -2.11982 0
M  V30 23130 C 2204.28 1.35299 -1.03093 0
M  V30 23131 O 2205.47 1.43526 -1.3082 0
M  V30 23132 C 2202.6 2.26824 -2.62999 0
M  V30 23133 C 2201.55 2.03569 -3.76488 0
M  V30 23134 C 2200.88 3.38571 -4.13852 0
M  V30 23135 C 2202.18 1.39152 -5.03422 0
M  V30 23136 H 2203.87 0.52623 -2.94739 0
M  V30 23137 H 2201.42 0.251679 -1.41784 0
M  V30 23138 H 2203.37 2.96266 -2.99674 0
M  V30 23139 H 2202.09 2.74237 -1.77374 0
M  V30 23140 H 2200.75 1.36551 -3.4022 0
M  V30 23141 H 2200.4 3.83704 -3.25239 0
M  V30 23142 H 2200.1 3.23825 -4.90317 0
M  V30 23143 H 2201.62 4.09315 -4.53093 0
M  V30 23144 H 2203.04 1.98563 -5.37815 0
M  V30 23145 H 2201.43 1.34868 -5.84748 0
M  V30 23146 H 2202.5 0.361783 -4.83548 0
M  V30 23147 N 2203.85 1.55365 0.264492 0
M  V30 23148 C 2204.78 1.91838 1.33117 0
M  V30 23149 C 2205.76 0.781219 1.51099 0
M  V30 23150 O 2206.94 1.04006 1.64001 0
M  V30 23151 C 2204.07 2.19774 2.68918 0
M  V30 23152 C 2203.03 3.35576 2.65655 0
M  V30 23153 C 2202.35 3.49011 4.05087 0
M  V30 23154 C 2203.65 4.71743 2.24179 0
M  V30 23155 H 2205.35 2.81184 1.02839 0
M  V30 23156 H 2202.89 1.35288 0.493263 0
M  V30 23157 H 2204.85 2.43878 3.43659 0
M  V30 23158 H 2203.57 1.27236 3.00796 0
M  V30 23159 H 2202.23 3.11453 1.93371 0
M  V30 23160 H 2201.88 2.53924 4.34202 0
M  V30 23161 H 2201.58 4.26875 4.03797 0
M  V30 23162 H 2203.1 3.75417 4.81554 0
M  V30 23163 H 2204.52 4.95335 2.88646 0
M  V30 23164 H 2202.91 5.52583 2.34034 0
M  V30 23165 H 2203.98 4.6999 1.19319 0
M  V30 23166 N 2205.33 -0.529387 1.48443 0
M  V30 23167 C 2206.26 -1.64986 1.59098 0
M  V30 23168 C 2207.27 -1.55709 0.47524 0
M  V30 23169 O 2208.46 -1.62159 0.746109 0
M  V30 23170 C 2205.56 -3.03638 1.50524 0
M  V30 23171 C 2204.73 -3.3839 2.77148 0
M  V30 23172 C 2203.79 -4.56325 2.6202 0
M  V30 23173 O 2202.82 -4.59516 3.35907 0
M  V30 23174 N 2204.02 -5.54533 1.71677 0
M  V30 23175 H 2206.78 -1.56283 2.55726 0
M  V30 23176 H 2204.35 -0.716672 1.45174 0
M  V30 23177 H 2206.34 -3.80409 1.38098 0
M  V30 23178 H 2204.91 -3.06417 0.618681 0
M  V30 23179 H 2204.13 -2.50791 3.04134 0
M  V30 23180 H 2205.42 -3.58395 3.61152 0
M  V30 23181 H 2204.81 -5.54733 1.10851 0
M  V30 23182 H 2203.37 -6.3052 1.65189 0
M  V30 23183 N 2206.8 -1.37041 -0.778305 0
M  V30 23184 C 2207.73 -1.34965 -1.90543 0
M  V30 23185 C 2208.71 -0.219304 -1.6868 0
M  V30 23186 O 2209.9 -0.418657 -1.89634 0
M  V30 23187 C 2207.03 -1.14931 -3.27732 0
M  V30 23188 C 2205.98 -2.24908 -3.64143 0
M  V30 23189 C 2205.31 -1.90004 -4.99802 0
M  V30 23190 C 2206.61 -3.67058 -3.71572 0
M  V30 23191 H 2208.3 -2.29281 -1.92537 0
M  V30 23192 H 2205.85 -1.10368 -0.924928 0
M  V30 23193 H 2207.8 -1.12111 -4.06213 0
M  V30 23194 H 2206.53 -0.170689 -3.26154 0
M  V30 23195 H 2205.19 -2.26873 -2.87966 0
M  V30 23196 H 2204.83 -0.906883 -4.94757 0
M  V30 23197 H 2204.53 -2.63644 -5.25134 0
M  V30 23198 H 2206.06 -1.88759 -5.80691 0
M  V30 23199 H 2207.47 -3.67259 -4.4022 0
M  V30 23200 H 2205.87 -4.39695 -4.08397 0
M  V30 23201 H 2206.94 -4.01158 -2.72397 0
M  V30 23202 N 2208.28 1.00373 -1.21503 0
M  V30 23203 C 2209.21 2.11026 -0.999515 0
M  V30 23204 C 2210.19 1.6993 0.0759372 0
M  V30 23205 O 2211.38 1.94018 -0.0841447 0
M  V30 23206 C 2208.51 3.42677 -0.564769 0
M  V30 23207 C 2207.46 3.97573 -1.58493 0
M  V30 23208 C 2206.79 5.25144 -1.00638 0
M  V30 23209 C 2208.09 4.29491 -2.97212 0
M  V30 23210 H 2209.78 2.29313 -1.92499 0
M  V30 23211 H 2207.33 1.10198 -0.926949 0
M  V30 23212 H 2209.28 4.19486 -0.401165 0
M  V30 23213 H 2208 3.24186 0.396354 0
M  V30 23214 H 2206.66 3.22885 -1.73612 0
M  V30 23215 H 2206.31 5.02986 -0.0369323 0
M  V30 23216 H 2206.01 5.62838 -1.68781 0
M  V30 23217 H 2207.54 6.04597 -0.854121 0
M  V30 23218 H 2208.95 4.97138 -2.85529 0
M  V30 23219 H 2207.35 4.78331 -3.6238 0
M  V30 23220 H 2208.42 3.37714 -3.47962 0
M  V30 23221 N 2209.76 1.02298 1.19887 0
M  V30 23222 C 2210.99 0.735433 1.93388 0
M  V30 23223 C 2211.4 -0.704856 1.75149 0
M  V30 23224 O 2210.76 -1.47873 1.06957 0
M  V30 23225 C 2210.81 1.06968 3.45312 0
M  V30 23226 O 2210.53 2.45341 3.62959 0
M  V30 23227 C 2212.03 0.804098 4.35946 0
M  V30 23228 H 2209.25 0.269557 0.614475 0
M  V30 23229 H 2211.8 1.36588 1.52197 0
M  V30 23230 H 2209.95 0.484523 3.84358 0
M  V30 23231 H 2210.37 2.57603 4.56882 0
M  V30 23232 H 2211.84 1.08799 5.41172 0
M  V30 23233 H 2212.32 -0.261613 4.3842 0
M  V30 23234 H 2212.92 1.37171 4.02572 0
M  V30 23235 N 2211.24 -1.35782 0.800057 0
M  V30 23236 C 2212.47 -2.03198 0.389642 0
M  V30 23237 C 2212.88 -1.60307 -0.997347 0
M  V30 23238 O 2212.24 -0.79751 -1.64152 0
M  V30 23239 C 2212.29 -3.58613 0.455918 0
M  V30 23240 O 2212.01 -3.99943 1.78822 0
M  V30 23241 C 2213.51 -4.43284 0.0374812 0
M  V30 23242 H 2210.73 -0.651855 0.159143 0
M  V30 23243 H 2213.27 -1.7354 1.08186 0
M  V30 23244 H 2211.43 -3.86944 -0.187989 0
M  V30 23245 H 2211.84 -4.9457 1.74645 0
M  V30 23246 H 2213.32 -5.51835 0.134979 0
M  V30 23247 H 2213.79 -4.27277 -1.01643 0
M  V30 23248 H 2214.4 -4.20237 0.654289 0
M  V30 23249 N 2212.72 -0.552988 -1.4758 0
M  V30 23250 C 2213.95 -0.0320454 -2.06575 0
M  V30 23251 C 2214.35 1.26522 -1.40673 0
M  V30 23252 O 2213.7 1.76882 -0.495839 0
M  V30 23253 C 2213.76 0.23885 -3.58706 0
M  V30 23254 C 2213.42 -0.968351 -4.46623 0
M  V30 23255 C 2214.42 -1.87282 -4.84996 0
M  V30 23256 C 2212.1 -1.18183 -4.88199 0
M  V30 23257 C 2214.1 -2.9745 -5.6374 0
M  V30 23258 C 2211.79 -2.28661 -5.66708 0
M  V30 23259 C 2212.78 -3.18125 -6.04388 0
M  V30 23260 O 2212.47 -4.26688 -6.81317 0
M  V30 23261 H 2212.2 -0.0408808 -0.674763 0
M  V30 23262 H 2214.76 -0.764753 -1.90632 0
M  V30 23263 H 2212.99 1.02582 -3.72846 0
M  V30 23264 H 2214.68 0.704661 -3.99737 0
M  V30 23265 H 2215.44 -1.71992 -4.53479 0
M  V30 23266 H 2211.32 -0.494674 -4.58338 0
M  V30 23267 H 2214.87 -3.67306 -5.9307 0
M  V30 23268 H 2210.76 -2.43925 -5.97638 0
M  V30 23269 H 2211.53 -4.24683 -6.99705 0
M  V30 23270 N 2214.19 1.54923 -0.28923 0
M  V30 23271 C 2215.44 1.99078 0.324196 0
M  V30 23272 C 2215.76 1.1812 1.55907 0
M  V30 23273 O 2216.96 1.52485 2.24635 0
M  V30 23274 C 2215.42 3.54376 0.628147 0
M  V30 23275 C 2215.03 4.44128 -0.587725 0
M  V30 23276 C 2216.77 4.07085 1.20342 0
M  V30 23277 C 2214.68 5.90839 -0.257578 0
M  V30 23278 H 2213.61 0.743581 0.124911 0
M  V30 23279 H 2216.26 1.79174 -0.396095 0
M  V30 23280 H 2214.64 3.70134 1.40772 0
M  V30 23281 H 2215.81 4.40142 -1.36426 0
M  V30 23282 H 2214.13 4.02129 -1.08081 0
M  V30 23283 H 2216.73 5.14254 1.46447 0
M  V30 23284 H 2217.07 3.56972 2.14189 0
M  V30 23285 H 2217.6 3.94822 0.48582 0
M  V30 23286 H 2214.34 6.45077 -1.1643 0
M  V30 23287 H 2213.86 5.97861 0.481912 0
M  V30 23288 H 2215.54 6.46837 0.145124 0
M  V30 23289 N 2215.67 0.0167433 1.57591 0
M  V30 23290 C 2216.92 -0.665548 1.91568 0
M  V30 23291 C 2217.25 -1.72485 0.892329 0
M  V30 23292 O 2216.53 -1.94307 -0.0866785 0
M  V30 23293 C 2216.81 -1.29336 3.36072 0
M  V30 23294 C 2216.66 -0.244462 4.49135 0
M  V30 23295 C 2217.98 -2.21488 3.80304 0
M  V30 23296 H 2215.1 -0.240476 0.696664 0
M  V30 23297 H 2217.74 0.071469 1.89866 0
M  V30 23298 H 2215.89 -1.92153 3.37653 0
M  V30 23299 H 2217.56 0.385309 4.59688 0
M  V30 23300 H 2215.81 0.431455 4.31649 0
M  V30 23301 H 2216.48 -0.723111 5.47243 0
M  V30 23302 H 2218.95 -1.68672 3.8038 0
M  V30 23303 H 2217.83 -2.62374 4.82132 0
M  V30 23304 H 2218.09 -3.10094 3.1511 0
M  V30 23305 N 2217.15 -1.55503 -0.256249 0
M  V30 23306 C 2218.57 -1.47717 -0.604299 0
M  V30 23307 C 2218.77 -0.705072 -1.88762 0
M  V30 23308 O 2217.82 -0.230657 -2.51444 0
M  V30 23309 C 2219.14 -2.92058 -0.715705 0
M  V30 23310 C 2220.68 -3.02374 -0.808653 0
M  V30 23311 C 2221.16 -4.48003 -0.951698 0
M  V30 23312 N 2222.65 -4.51902 -1.0168 0
M  V30 23313 C 2223.38 -5.61819 -1.14658 0
M  V30 23314 N 2222.88 -6.81567 -1.24249 0
M  V30 23315 N 2224.67 -5.49596 -1.17901 0
M  V30 23316 H 2216.82 -2.04147 0.586327 0
M  V30 23317 H 2219.09 -0.92644 0.201031 0
M  V30 23318 H 2218.79 -3.51349 0.157089 0
M  V30 23319 H 2218.67 -3.42021 -1.59065 0
M  V30 23320 H 2221.05 -2.43169 -1.6719 0
M  V30 23321 H 2221.14 -2.55637 0.0912512 0
M  V30 23322 H 2220.78 -5.07815 -0.0930398 0
M  V30 23323 H 2220.71 -4.92412 -1.8665 0
M  V30 23324 H 2223.2 -3.65649 -0.954404 0
M  V30 23325 H 2223.51 -7.61088 -1.34033 0
M  V30 23326 H 2221.86 -6.84346 -1.21224 0
M  V30 23327 H 2225.05 -4.5498 -1.10049 0
M  V30 23328 H 2225.22 -6.35299 -1.2767 0
M  V30 23329 N 2218.63 0.521507 -1.48721 0
M  V30 23330 C 2219.54 1.652 -1.66572 0
M  V30 23331 C 2220.55 1.65138 -0.548226 0
M  V30 23332 O 2221.73 1.83934 -0.820371 0
M  V30 23333 C 2218.8 3.01639 -1.70923 0
M  V30 23334 C 2217.86 3.1249 -2.94361 0
M  V30 23335 C 2217.09 4.42421 -2.98495 0
M  V30 23336 O 2217.31 5.3002 -2.10796 0
M  V30 23337 O 2216.25 4.57815 -3.90754 0
M  V30 23338 H 2220.07 1.53075 -2.62301 0
M  V30 23339 H 2217.66 0.695541 -1.32222 0
M  V30 23340 H 2219.54 3.82768 -1.76256 0
M  V30 23341 H 2218.21 3.1407 -0.783688 0
M  V30 23342 H 2217.12 2.30625 -2.94556 0
M  V30 23343 H 2218.45 3.04979 -3.86327 0
M  V30 23344 N 2220.11 1.37452 0.771027 0
M  V30 23345 C 2221.05 1.33361 1.90572 0
M  V30 23346 C 2222.05 0.22227 1.67935 0
M  V30 23347 O 2223.25 0.390335 1.75717 0
M  V30 23348 H 2219.63 0.415623 0.626707 0
M  V30 23349 H 2221.6 2.29148 1.91138 0
M  V30 23350 C 2220.35 1.15819 3.27843 0
M  V30 23351 H 2219.67 2.00589 3.45838 0
M  V30 23352 H 2221.11 1.17007 4.07536 0
M  V30 23353 C 2219.57 -0.136106 3.36625 0
M  V30 23354 O 2220.1 -1.11942 3.85787 0
M  V30 23355 N 2218.31 -0.187048 2.89997 0
M  V30 23356 H 2217.85 0.613797 2.50181 0
M  V30 23357 H 2217.81 -1.05266 2.96254 0
M  V30 23358 N 2221.58 -0.997276 1.22033 0
M  V30 23359 C 2222.81 -1.77713 1.06924 0
M  V30 23360 C 2223.23 -1.843 -0.376193 0
M  V30 23361 O 2222.59 -1.29226 -1.27163 0
M  V30 23362 C 2222.64 -3.19073 1.68002 0
M  V30 23363 O 2221.74 -4.0176 0.930723 0
M  V30 23364 H 2221.09 -0.547405 0.375824 0
M  V30 23365 H 2223.62 -1.25306 1.61739 0
M  V30 23366 H 2223.63 -3.6972 1.72544 0
M  V30 23367 H 2222.3 -3.13594 2.73188 0
M  V30 23368 H 2220.88 -3.60305 0.96098 0
M  V30 23369 N 2223.06 -1.02932 -1.19343 0
M  V30 23370 C 2223.99 -0.568609 -2.22035 0
M  V30 23371 C 2225.01 0.355751 -1.58866 0
M  V30 23372 O 2226.2 0.152072 -1.77851 0
M  V30 23373 C 2223.3 0.190693 -3.38363 0
M  V30 23374 C 2222.47 -0.738719 -4.31117 0
M  V30 23375 C 2221.53 -0.0247422 -5.26194 0
M  V30 23376 O 2220.55 -0.651454 -5.6546 0
M  V30 23377 N 2221.76 1.24584 -5.66974 0
M  V30 23378 H 2224.52 -1.45181 -2.62188 0
M  V30 23379 H 2222.08 -0.908405 -1.34013 0
M  V30 23380 H 2224.07 0.677891 -3.98982 0
M  V30 23381 H 2222.64 0.975314 -2.96996 0
M  V30 23382 H 2221.86 -1.406 -3.68273 0
M  V30 23383 H 2223.15 -1.37037 -4.89998 0
M  V30 23384 H 2222.55 1.77573 -5.37107 0
M  V30 23385 H 2221.11 1.67753 -6.29843 0
M  V30 23386 N 2224.54 1.35356 -0.807246 0
M  V30 23387 C 2225.79 1.99044 -0.388498 0
M  V30 23388 C 2226.12 1.6389 1.04181 0
M  V30 23389 O 2225.39 0.902565 1.7229 0
M  V30 23390 C 2225.68 3.55514 -0.572846 0
M  V30 23391 C 2225.53 4.00464 -2.04814 0
M  V30 23392 C 2226.85 4.401 0.00106328 0
M  V30 23393 H 2223.97 0.723067 -0.142631 0
M  V30 23394 H 2226.61 1.60496 -1.0169 0
M  V30 23395 H 2224.76 3.88482 -0.0379108 0
M  V30 23396 H 2226.43 3.77903 -2.6455 0
M  V30 23397 H 2224.68 3.51349 -2.54433 0
M  V30 23398 H 2225.35 5.09333 -2.128 0
M  V30 23399 H 2227.82 4.13596 -0.455788 0
M  V30 23400 H 2226.7 5.48673 -0.157833 0
M  V30 23401 H 2226.96 4.2833 1.09481 0
M  V30 23402 N 2226.02 0.560807 1.47284 0
M  V30 23403 C 2227.27 0.0380223 2.02064 0
M  V30 23404 C 2227.59 -1.31801 1.43714 0
M  V30 23405 O 2226.86 -1.86041 0.613652 0
M  V30 23406 H 2225.44 0.0110662 0.746918 0
M  V30 23407 H 2228.1 0.73163 1.80647 0
M  V30 23408 H 2227.2 -0.0473914 3.12064 0
M  V30 23409 N 2227.5 -1.54768 0.297442 0
M  V30 23410 C 2228.41 -2.27065 -0.58979 0
M  V30 23411 C 2229.42 -1.30455 -1.15142 0
M  V30 23412 O 2230.6 -1.63431 -1.17696 0
M  V30 23413 C 2227.66 -2.99463 -1.74708 0
M  V30 23414 C 2226.72 -4.11603 -1.21989 0
M  V30 23415 C 2225.96 -4.80539 -2.32203 0
M  V30 23416 O 2226.18 -4.48812 -3.52028 0
M  V30 23417 O 2225.11 -5.68018 -1.99096 0
M  V30 23418 H 2228.94 -3.037 -0.00342861 0
M  V30 23419 H 2226.53 -1.49263 0.0640297 0
M  V30 23420 H 2228.41 -3.44885 -2.42141 0
M  V30 23421 H 2227.08 -2.25726 -2.32012 0
M  V30 23422 H 2225.99 -3.70588 -0.511393 0
M  V30 23423 H 2227.32 -4.87306 -0.692333 0
M  V30 23424 N 2228.97 -0.0251005 -1.5758 0
M  V30 23425 C 2230.22 0.653118 -1.91256 0
M  V30 23426 C 2230.54 1.72899 -0.901721 0
M  V30 23427 O 2229.81 1.95816 0.0573441 0
M  V30 23428 H 2228.39 0.24423 -0.705947 0
M  V30 23429 H 2231.06 -0.0719551 -1.94767 0
M  V30 23430 H 2230.15 1.10842 -2.91754 0
M  V30 23431 N 2230.45 1.55637 0.247999 0
M  V30 23432 C 2231.7 1.7768 0.977639 0
M  V30 23433 C 2232.03 0.590167 1.85015 0
M  V30 23434 O 2231.31 -0.411578 1.90095 0
M  V30 23435 C 2231.59 3.09596 1.83908 0
M  V30 23436 C 2231.44 4.38661 0.994833 0
M  V30 23437 C 2232.76 3.37734 2.82177 0
M  V30 23438 H 2229.88 0.646419 0.353994 0
M  V30 23439 H 2232.52 1.88372 0.248219 0
M  V30 23440 H 2230.67 3.00612 2.46099 0
M  V30 23441 H 2232.34 4.59634 0.391708 0
M  V30 23442 H 2230.59 4.32767 0.299155 0
M  V30 23443 H 2231.26 5.27343 1.63136 0
M  V30 23444 H 2233.73 3.46674 2.30123 0
M  V30 23445 H 2232.61 4.31255 3.39574 0
M  V30 23446 H 2232.87 2.58593 3.58584 0
M  V30 23447 N 2231.93 -0.513613 1.48996 0
M  V30 23448 C 2233.17 -1.27882 1.59454 0
M  V30 23449 C 2233.54 -1.90099 0.269513 0
M  V30 23450 O 2234.74 -2.67642 0.249186 0
M  V30 23451 C 2233.01 -2.32683 2.71281 0
M  V30 23452 S 2234.57 -3.18711 3.0161 0
M  V30 23453 H 2231.38 -0.434779 0.562573 0
M  V30 23454 H 2233.99 -0.583268 1.86596 0
M  V30 23455 H 2232.69 -1.85484 3.66093 0
M  V30 23456 H 2232.22 -3.06924 2.46091 0
M  V30 23457 H 2234.24 -4.33095 2.42163 0
M  V30 23458 N 2233.41 -1.37859 -0.763727 0
M  V30 23459 C 2234.37 -1.34084 -1.85887 0
M  V30 23460 C 2235.37 -0.243305 -1.58949 0
M  V30 23461 O 2236.56 -0.499619 -1.66882 0
M  V30 23462 C 2233.69 -1.08495 -3.23174 0
M  V30 23463 H 2234.89 -2.31506 -1.90644 0
M  V30 23464 H 2232.44 -1.23004 -0.964345 0
M  V30 23465 H 2233.18 -0.116375 -3.24091 0
M  V30 23466 H 2232.96 -1.87946 -3.4412 0
M  V30 23467 H 2234.45 -1.08524 -4.03252 0
M  V30 23468 N 2234.89 0.990791 -1.22561 0
M  V30 23469 C 2236.13 1.7332 -1.053 0
M  V30 23470 C 2236.47 1.89809 0.410622 0
M  V30 23471 O 2235.74 1.44279 1.30437 0
M  V30 23472 C 2236.02 3.13756 -1.76719 0
M  V30 23473 C 2235.88 3.04901 -3.30689 0
M  V30 23474 C 2237.2 4.12971 -1.52128 0
M  V30 23475 H 2234.32 0.629099 -0.383931 0
M  V30 23476 H 2236.96 1.15416 -1.50928 0
M  V30 23477 H 2235.11 3.63191 -1.3793 0
M  V30 23478 H 2236.78 2.6307 -3.78935 0
M  V30 23479 H 2235.02 2.41655 -3.60257 0
M  V30 23480 H 2235.69 4.04287 -3.7584 0
M  V30 23481 H 2238.17 3.72301 -1.85826 0
M  V30 23482 H 2237.05 5.09346 -2.04591 0
M  V30 23483 H 2237.31 4.39759 -0.454334 0
M  V30 23484 N 2236.37 1.03564 1.18795 0
M  V30 23485 C 2237.3 0.643058 2.24471 0
M  V30 23486 C 2238.28 -0.351253 1.66434 0
M  V30 23487 O 2239.46 -0.232471 1.92804 0
M  V30 23488 C 2236.59 1.85533e-05 3.473 0
M  V30 23489 C 2235.55 0.91733 4.18054 0
M  V30 23490 C 2234.87 0.139035 5.34519 0
M  V30 23491 C 2236.17 2.23415 4.72105 0
M  V30 23492 H 2237.87 1.52648 2.57564 0
M  V30 23493 H 2235.41 0.735416 1.23805 0
M  V30 23494 H 2237.36 -0.286309 4.20426 0
M  V30 23495 H 2236.09 -0.918243 3.13426 0
M  V30 23496 H 2234.75 1.18796 3.46818 0
M  V30 23497 H 2234.4 -0.781475 4.96892 0
M  V30 23498 H 2234.1 0.750107 5.82793 0
M  V30 23499 H 2235.62 -0.140393 6.10439 0
M  V30 23500 H 2237.03 2.00888 5.36951 0
M  V30 23501 H 2235.43 2.79774 5.30892 0
M  V30 23502 H 2236.5 2.88414 3.89802 0
M  V30 23503 N 2237.84 -1.34926 0.814413 0
M  V30 23504 C 2238.77 -2.32213 0.244868 0
M  V30 23505 C 2239.75 -1.57843 -0.633996 0
M  V30 23506 O 2240.94 -1.85871 -0.562644 0
M  V30 23507 C 2238.07 -3.4206 -0.601046 0
M  V30 23508 C 2237.02 -4.27621 0.179971 0
M  V30 23509 C 2236.35 -5.2886 -0.788144 0
M  V30 23510 C 2237.65 -5.03647 1.38338 0
M  V30 23511 H 2239.34 -2.80095 1.05768 0
M  V30 23512 H 2236.89 -1.34664 0.510052 0
M  V30 23513 H 2238.84 -4.09127 -1.00961 0
M  V30 23514 H 2237.57 -2.92805 -1.44683 0
M  V30 23515 H 2236.23 -3.62145 0.569803 0
M  V30 23516 H 2235.87 -4.75869 -1.62964 0
M  V30 23517 H 2235.57 -5.8698 -0.269839 0
M  V30 23518 H 2237.1 -5.98797 -1.19475 0
M  V30 23519 H 2238.51 -5.63616 1.04928 0
M  V30 23520 H 2236.91 -5.71301 1.83672 0
M  V30 23521 H 2237.98 -4.33835 2.166 0
M  V30 23522 N 2239.32 -0.56861 -1.46985 0
M  V30 23523 C 2240.57 -0.0487377 -2.02041 0
M  V30 23524 C 2240.89 1.31037 -1.44411 0
M  V30 23525 O 2240.16 1.85713 -0.62351 0
M  V30 23526 H 2238.74 -0.0150271 -0.746849 0
M  V30 23527 H 2241.4 -0.7412 -1.80256 0
M  V30 23528 H 2240.5 0.0308412 -3.12085 0
M  V30 23529 N 2240.8 1.54608 -0.305646 0
M  V30 23530 C 2242.03 2.04643 0.304739 0
M  V30 23531 C 2242.44 1.18271 1.47165 0
M  V30 23532 O 2241.8 0.209359 1.81295 0
M  V30 23533 C 2241.85 3.53496 0.756502 0
M  V30 23534 O 2241.57 4.36585 -0.363967 0
M  V30 23535 C 2243.07 4.19549 1.43156 0
M  V30 23536 H 2240.29 0.667792 0.0655364 0
M  V30 23537 H 2242.84 1.99563 -0.446627 0
M  V30 23538 H 2240.99 3.58921 1.45788 0
M  V30 23539 H 2241.41 5.24499 -0.0114043 0
M  V30 23540 H 2242.88 5.2521 1.69877 0
M  V30 23541 H 2243.36 3.69567 2.37312 0
M  V30 23542 H 2243.96 4.18212 0.773233 0
M  V30 23543 N 2242.28 0.033457 1.57564 0
M  V30 23544 C 2243.21 -0.945228 2.13513 0
M  V30 23545 C 2244.19 -1.33642 1.05233 0
M  V30 23546 O 2245.37 -1.41427 1.33087 0
M  V30 23547 C 2242.5 -2.22611 2.66574 0
M  V30 23548 C 2241.46 -1.97554 3.79679 0
M  V30 23549 C 2240.78 -3.31945 4.19186 0
M  V30 23550 C 2242.08 -1.31126 5.05572 0
M  V30 23551 H 2243.78 -0.479273 2.95539 0
M  V30 23552 H 2241.32 -0.22909 1.42166 0
M  V30 23553 H 2243.28 -2.91461 3.04349 0
M  V30 23554 H 2242 -2.7138 1.81715 0
M  V30 23555 H 2240.66 -1.31121 3.42349 0
M  V30 23556 H 2240.31 -3.78481 3.31302 0
M  V30 23557 H 2240.01 -3.15983 4.95407 0
M  V30 23558 H 2241.53 -4.02055 4.59548 0
M  V30 23559 H 2242.95 -1.89982 5.40906 0
M  V30 23560 H 2241.34 -1.25548 5.8682 0
M  V30 23561 H 2242.41 -0.284809 4.84063 0
M  V30 23562 N 2243.76 -1.55766 -0.239741 0
M  V30 23563 C 2244.98 -1.81995 -0.984138 0
M  V30 23564 C 2245.4 -0.610156 -1.78669 0
M  V30 23565 O 2244.76 0.42124 -1.77572 0
M  V30 23566 C 2244.81 -3.0653 -1.91629 0
M  V30 23567 O 2244.53 -4.2284 -1.14621 0
M  V30 23568 C 2246.03 -3.45612 -2.77609 0
M  V30 23569 H 2243.25 -0.605446 -0.289269 0
M  V30 23570 H 2245.79 -2.02835 -0.260464 0
M  V30 23571 H 2243.95 -2.87719 -2.59415 0
M  V30 23572 H 2244.36 -4.93467 -1.77736 0
M  V30 23573 H 2245.84 -4.35834 -3.38751 0
M  V30 23574 H 2246.31 -2.66526 -3.49086 0
M  V30 23575 H 2246.92 -3.66798 -2.15265 0
M  V30 23576 N 2245.23 0.505704 -1.49266 0
M  V30 23577 C 2246.64 1.08731 -1.51771 0
M  V30 23578 C 2247 1.93874 -0.301226 0
M  V30 23579 O 2246.12 2.08218 0.589419 0
M  V30 23580 C 2246.72 1.97862 -2.7502 0
M  V30 23581 C 2245.27 2.51194 -2.80319 0
M  V30 23582 C 2244.42 1.28704 -2.45623 0
M  V30 23583 H 2247.37 0.289827 -1.56031 0
M  V30 23584 H 2247.39 2.82486 -2.54915 0
M  V30 23585 H 2246.91 1.35866 -3.63541 0
M  V30 23586 H 2245.01 3.16842 -1.96067 0
M  V30 23587 H 2245.12 2.88668 -3.82371 0
M  V30 23588 H 2243.48 1.61074 -1.973 0
M  V30 23589 H 2244.27 0.684241 -3.36412 0
M  V30 23590 N 2246.71 1.38262 0.756405 0
M  V30 23591 C 2247.65 1.29641 1.87799 0
M  V30 23592 C 2248.62 0.173967 1.61667 0
M  V30 23593 O 2249.81 0.350807 1.85207 0
M  V30 23594 C 2246.93 1.00803 3.23352 0
M  V30 23595 C 2245.98 2.14946 3.68376 0
M  V30 23596 S 2246.81 3.77061 3.80244 0
M  V30 23597 C 2247.97 3.50406 5.1862 0
M  V30 23598 H 2248.2 2.24567 1.94825 0
M  V30 23599 H 2245.74 1.24064 0.919095 0
M  V30 23600 H 2247.69 0.848484 4.01635 0
M  V30 23601 H 2246.35 0.0759921 3.14008 0
M  V30 23602 H 2245.55 1.90307 4.6669 0
M  V30 23603 H 2245.15 2.26993 2.97238 0
M  V30 23604 H 2247.44 3.06345 6.04284 0
M  V30 23605 H 2248.38 4.48103 5.48278 0
M  V30 23606 H 2248.79 2.84982 4.87284 0
M  V30 23607 N 2248.19 -0.984277 1.23084 0
M  V30 23608 C 2249.15 -2.05755 1.00983 0
M  V30 23609 C 2250.15 -1.60777 -0.0269291 0
M  V30 23610 O 2251.34 -1.729 0.212433 0
M  V30 23611 C 2248.48 -3.368 0.527131 0
M  V30 23612 H 2249.67 -2.26796 1.96224 0
M  V30 23613 H 2247.22 -1.15712 1.05074 0
M  V30 23614 H 2247.96 -3.21447 -0.429238 0
M  V30 23615 H 2247.74 -3.70784 1.27522 0
M  V30 23616 H 2249.23 -4.15746 0.393015 0
M  V30 23617 N 2249.67 -1.04192 -1.18244 0
M  V30 23618 C 2250.9 -0.766106 -1.92194 0
M  V30 23619 C 2251.31 0.676902 -1.76248 0
M  V30 23620 O 2250.67 1.46153 -1.09296 0
M  V30 23621 C 2250.72 -1.12448 -3.43566 0
M  V30 23622 O 2250.44 -2.51084 -3.5901 0
M  V30 23623 C 2251.94 -0.873351 -4.34612 0
M  V30 23624 H 2249.16 -0.279299 -0.610109 0
M  V30 23625 H 2251.71 -1.38992 -1.50005 0
M  V30 23626 H 2249.86 -0.54561 -3.83539 0
M  V30 23627 H 2250.27 -2.64839 -4.52726 0
M  V30 23628 H 2251.75 -1.17395 -5.39372 0
M  V30 23629 H 2252.23 0.191832 -4.38781 0
M  V30 23630 H 2252.83 -1.43558 -4.00339 0
M  V30 23631 N 2251.15 1.34492 -0.821557 0
M  V30 23632 C 2252.06 2.33324 -0.244396 0
M  V30 23633 C 2253.07 1.6256 0.620499 0
M  V30 23634 O 2254.25 1.94336 0.52872 0
M  V30 23635 C 2251.31 3.41724 0.585308 0
M  V30 23636 C 2250.37 4.28238 -0.301827 0
M  V30 23637 C 2249.61 5.31461 0.488372 0
M  V30 23638 O 2249.83 5.43794 1.72177 0
M  V30 23639 O 2248.76 6.01763 -0.128586 0
M  V30 23640 H 2252.59 2.84513 -1.06236 0
M  V30 23641 H 2250.18 1.37527 -0.583669 0
M  V30 23642 H 2252.06 4.07918 1.0574 0
M  V30 23643 H 2250.73 2.9278 1.38063 0
M  V30 23644 H 2249.64 3.64971 -0.821379 0
M  V30 23645 H 2250.97 4.80618 -1.06147 0
M  V30 23646 N 2252.62 0.576397 1.46681 0
M  V30 23647 C 2253.56 -0.208691 2.27244 0
M  V30 23648 C 2254.54 -0.902722 1.35239 0
M  V30 23649 O 2255.72 -0.917875 1.64643 0
M  V30 23650 C 2252.85 -1.2989 3.12804 0
M  V30 23651 C 2251.89 -0.711383 4.20525 0
M  V30 23652 S 2252.73 0.456875 5.33547 0
M  V30 23653 C 2253.88 -0.634689 6.22674 0
M  V30 23654 H 2254.11 0.474889 2.93483 0
M  V30 23655 H 2251.65 0.363144 1.50069 0
M  V30 23656 H 2253.61 -1.92314 3.62664 0
M  V30 23657 H 2252.27 -1.9544 2.4589 0
M  V30 23658 H 2251.46 -1.53067 4.80194 0
M  V30 23659 H 2251.06 -0.162933 3.73645 0
M  V30 23660 H 2253.35 -1.52197 6.60184 0
M  V30 23661 H 2254.3 -0.0749066 7.0806 0
M  V30 23662 H 2254.7 -0.935994 5.56686 0
M  V30 23663 N 2254.1 -1.54444 0.313841 0
M  V30 23664 C 2255.03 -2.26944 -0.549415 0
M  V30 23665 C 2256.01 -1.27374 -1.12739 0
M  V30 23666 O 2257.2 -1.56169 -1.15433 0
M  V30 23667 C 2254.33 -3.01992 -1.71517 0
M  V30 23668 C 2253.28 -4.08818 -1.26696 0
M  V30 23669 C 2252.61 -4.71652 -2.5189 0
M  V30 23670 C 2253.91 -5.2085 -0.38887 0
M  V30 23671 H 2255.6 -2.99349 0.0553188 0
M  V30 23672 H 2253.15 -1.43973 0.028046 0
M  V30 23673 H 2255.1 -3.51437 -2.32529 0
M  V30 23674 H 2253.83 -2.27187 -2.34635 0
M  V30 23675 H 2252.48 -3.60241 -0.679833 0
M  V30 23676 H 2252.13 -3.93473 -3.13349 0
M  V30 23677 H 2251.83 -5.43806 -2.22595 0
M  V30 23678 H 2253.36 -5.23867 -3.13681 0
M  V30 23679 H 2254.77 -5.66112 -0.905007 0
M  V30 23680 H 2253.17 -5.99802 -0.189135 0
M  V30 23681 H 2254.24 -4.81385 0.582784 0
M  V30 23682 N 2255.58 -0.0418125 -1.57545 0
M  V30 23683 C 2256.54 0.920893 -2.09886 0
M  V30 23684 C 2257.54 1.24595 -1.0165 0
M  V30 23685 O 2258.73 1.18418 -1.27761 0
M  V30 23686 C 2255.87 2.23363 -2.57531 0
M  V30 23687 H 2257.06 0.467329 -2.96236 0
M  V30 23688 H 2254.61 0.20644 -1.54931 0
M  V30 23689 H 2255.35 2.7332 -1.74547 0
M  V30 23690 H 2255.13 2.01077 -3.36616 0
M  V30 23691 H 2256.62 2.9234 -2.98206 0
M  V30 23692 N 2257.06 1.55891 0.231477 0
M  V30 23693 C 2258.01 1.92443 1.30646 0
M  V30 23694 C 2259 0.80528 1.49036 0
M  V30 23695 O 2260.21 0.990034 1.50327 0
M  V30 23696 H 2256.58 0.61142 0.437801 0
M  V30 23697 H 2258.55 2.82162 0.970923 0
M  V30 23698 C 2257.3 2.24894 2.65176 0
M  V30 23699 H 2256.62 3.10519 2.51829 0
M  V30 23700 H 2258.06 2.54361 3.39229 0
M  V30 23701 C 2256.52 1.0706 3.19437 0
M  V30 23702 O 2257.05 0.326569 4.0037 0
M  V30 23703 N 2255.26 0.857079 2.77673 0
M  V30 23704 H 2254.81 1.46383 2.11966 0
M  V30 23705 H 2254.76 0.0703775 3.14321 0
M  V30 23706 N 2258.54 -0.497781 1.49532 0
M  V30 23707 C 2259.78 -1.24923 1.58867 0
M  V30 23708 C 2260.11 -1.92997 0.278755 0
M  V30 23709 O 2259.38 -1.82886 -0.702112 0
M  V30 23710 H 2257.96 -0.464083 0.585351 0
M  V30 23711 H 2260.62 -0.576627 1.86175 0
M  V30 23712 H 2259.71 -2.01145 2.38636 0
M  V30 23713 N 2260.01 -1.38661 -0.749062 0
M  V30 23714 C 2261.29 -1.25634 -1.49918 0
M  V30 23715 C 2261.67 0.14028 -2.10633 0
M  V30 23716 O 2261.02 1.15021 -1.97439 0
M  V30 23717 C 2261.23 -2.36997 -2.56191 0
M  V30 23718 C 2262.58 -2.7564 -3.22967 0
M  V30 23719 O 2263.6 -2.36342 -2.66498 0
M  V30 23720 O 2262.46 -3.43423 -4.25116 0
M  V30 23721 H 2259.55 -0.491555 -0.665058 0
M  V30 23722 H 2262.1 -1.505 -0.784086 0
M  V30 23723 H 2260.87 -3.30425 -2.09606 0
M  V30 23724 H 2260.5 -2.1372 -3.35275 0
M  V30 23725 N 2261.49 0.977736 -1.23605 0
M  V30 23726 C 2262.74 1.71599 -1.06762 0
M  V30 23727 C 2263.06 1.90939 0.395895 0
M  V30 23728 O 2262.33 1.47994 1.28353 0
M  V30 23729 H 2260.91 0.635836 -0.392074 0
M  V30 23730 H 2263.57 1.17678 -1.55364 0
M  V30 23731 H 2262.67 2.70449 -1.55768 0
M  V30 23732 N 2262.97 1.04818 1.1769 0
M  V30 23733 C 2264.2 0.776288 1.91785 0
M  V30 23734 C 2264.61 -0.667546 1.76605 0
M  V30 23735 O 2263.97 -1.45571 1.1007 0
M  V30 23736 C 2264.02 1.14269 3.42965 0
M  V30 23737 O 2263.74 2.52984 3.57674 0
M  V30 23738 C 2265.24 0.896388 4.34143 0
M  V30 23739 H 2262.46 0.28253 0.60862 0
M  V30 23740 H 2265.01 1.39785 1.49266 0
M  V30 23741 H 2263.16 0.565942 3.83244 0
M  V30 23742 H 2263.58 2.67236 4.51315 0
M  V30 23743 H 2265.05 1.20254 5.38742 0
M  V30 23744 H 2265.53 -0.168559 4.38876 0
M  V30 23745 H 2266.13 1.45679 3.99572 0
M  V30 23746 N 2264.45 -1.34055 0.828678 0
M  V30 23747 C 2265.7 -1.97716 0.418665 0
M  V30 23748 C 2266.02 -1.66004 -1.02311 0
M  V30 23749 O 2265.29 -0.953713 -1.71117 0
M  V30 23750 H 2263.87 -0.731409 0.151822 0
M  V30 23751 H 2266.53 -1.63594 1.05939 0
M  V30 23752 H 2265.63 -3.07351 0.542372 0
M  V30 23753 N 2265.93 -0.584167 -1.46374 0
M  V30 23754 C 2267.17 -0.070303 -2.02378 0
M  V30 23755 C 2267.5 1.2902 -1.45548 0
M  V30 23756 O 2266.76 1.85917 -0.610999 0
M  V30 23757 C 2267.06 0.0438714 -3.57373 0
M  V30 23758 C 2266.72 -1.24923 -4.3325 0
M  V30 23759 C 2265.38 -1.60349 -4.53698 0
M  V30 23760 C 2267.74 -2.10488 -4.76806 0
M  V30 23761 C 2265.06 -2.81137 -5.14955 0
M  V30 23762 C 2267.42 -3.30503 -5.39398 0
M  V30 23763 C 2266.08 -3.6621 -5.58074 0
M  V30 23764 H 2265.35 -0.0257257 -0.740553 0
M  V30 23765 H 2268 -0.761096 -1.75726 0
M  V30 23766 H 2266.3 0.817801 -3.8317 0
M  V30 23767 H 2268 0.457248 -3.98385 0
M  V30 23768 H 2264.59 -0.963437 -4.17631 0
M  V30 23769 H 2268.77 -1.84422 -4.60763 0
M  V30 23770 H 2264.03 -3.08938 -5.27605 0
M  V30 23771 H 2268.2 -3.97073 -5.72107 0
M  V30 23772 H 2265.83 -4.59896 -6.0531 0
M  V30 23773 N 2267.41 1.54275 -0.322027 0
M  V30 23774 C 2268.82 1.85957 0.166351 0
M  V30 23775 C 2269.17 1.2437 1.51745 0
M  V30 23776 O 2268.29 0.549161 2.09316 0
M  V30 23777 C 2268.89 3.37391 0.308622 0
M  V30 23778 C 2267.45 3.6903 0.741221 0
M  V30 23779 C 2266.59 2.76956 -0.137985 0
M  V30 23780 H 2269.54 1.49145 -0.542361 0
M  V30 23781 H 2269.57 3.63028 1.13978 0
M  V30 23782 H 2269.08 3.82187 -0.674876 0
M  V30 23783 H 2267.18 3.29765 1.73452 0
M  V30 23784 H 2267.29 4.75978 0.546035 0
M  V30 23785 H 2265.66 2.51755 0.386207 0
M  V30 23786 H 2266.44 3.24578 -1.11822 0
M  V30 23787 N 2268.88 0.0501669 1.5752 0
M  V30 23788 C 2269.79 -0.939789 2.14954 0
M  V30 23789 C 2270.81 -1.34237 1.10708 0
M  V30 23790 O 2271.99 -1.4195 1.42871 0
M  V30 23791 C 2269.05 -2.1966 2.68236 0
M  V30 23792 C 2268.11 -1.85246 3.87276 0
M  V30 23793 C 2267.34 -3.04935 4.38007 0
M  V30 23794 O 2267.57 -4.18274 3.87818 0
M  V30 23795 O 2266.5 -2.86008 5.29607 0
M  V30 23796 H 2270.33 -0.481339 2.99861 0
M  V30 23797 H 2267.91 -0.171673 1.4841 0
M  V30 23798 H 2269.79 -2.93401 3.0248 0
M  V30 23799 H 2268.47 -2.64645 1.864 0
M  V30 23800 H 2267.38 -1.08824 3.57922 0
M  V30 23801 H 2268.71 -1.45061 4.70338 0
M  V30 23802 N 2270.36 -1.56011 -0.223207 0
M  V30 23803 C 2271.29 -1.953 -1.27984 0
M  V30 23804 C 2272.27 -0.821005 -1.48975 0
M  V30 23805 O 2273.46 -1.08318 -1.61186 0
M  V30 23806 C 2270.59 -2.26827 -2.62996 0
M  V30 23807 C 2269.54 -3.42501 -2.56665 0
M  V30 23808 C 2268.87 -3.59629 -3.95691 0
M  V30 23809 C 2270.17 -4.77521 -2.11592 0
M  V30 23810 H 2271.86 -2.83812 -0.953475 0
M  V30 23811 H 2269.41 -1.36549 -0.45722 0
M  V30 23812 H 2271.36 -2.52904 -3.37072 0
M  V30 23813 H 2270.08 -1.35167 -2.97317 0
M  V30 23814 H 2268.74 -3.16471 -1.85046 0
M  V30 23815 H 2268.39 -2.65347 -4.27317 0
M  V30 23816 H 2268.09 -4.37431 -3.92337 0
M  V30 23817 H 2269.62 -3.88052 -4.71432 0
M  V30 23818 H 2271.03 -5.02814 -2.75411 0
M  V30 23819 H 2269.43 -5.58594 -2.19301 0
M  V30 23820 H 2270.5 -4.72989 -1.06816 0
M  V30 23821 N 2271.84 0.489844 -1.49794 0
M  V30 23822 C 2272.77 1.60821 -1.61901 0
M  V30 23823 C 2273.75 1.55729 -0.467678 0
M  V30 23824 O 2274.93 1.75624 -0.684713 0
M  V30 23825 C 2272.06 2.99363 -1.58428 0
M  V30 23826 C 2271.11 3.22677 -2.78894 0
M  V30 23827 S 2271.94 3.04594 -4.40435 0
M  V30 23828 C 2273.1 4.45512 -4.39624 0
M  V30 23829 H 2273.33 1.50308 -2.56505 0
M  V30 23830 H 2270.86 0.675824 -1.38824 0
M  V30 23831 H 2272.82 3.79245 -1.57109 0
M  V30 23832 H 2271.48 3.07281 -0.65092 0
M  V30 23833 H 2270.67 4.23843 -2.72715 0
M  V30 23834 H 2270.28 2.50536 -2.77683 0
M  V30 23835 H 2272.57 5.37807 -4.12031 0
M  V30 23836 H 2273.51 4.56739 -5.41105 0
M  V30 23837 H 2273.92 4.26714 -3.69561 0
M  V30 23838 N 2273.32 1.39056 0.741698 0
M  V30 23839 C 2274.56 1.36116 1.50334 0
M  V30 23840 C 2274.9 -0.0450455 1.94148 0
M  V30 23841 O 2274.17 -1.00865 1.66302 0
M  V30 23842 C 2274.45 2.32754 2.74768 0
M  V30 23843 C 2274.31 3.82287 2.37017 0
M  V30 23844 C 2275.63 2.27328 3.76842 0
M  V30 23845 H 2272.75 0.495753 0.545342 0
M  V30 23846 H 2275.39 1.69997 0.848595 0
M  V30 23847 H 2273.54 2.03991 3.30635 0
M  V30 23848 H 2275.21 4.21771 1.86833 0
M  V30 23849 H 2273.45 3.99388 1.69327 0
M  V30 23850 H 2274.12 4.45382 3.26097 0
M  V30 23851 H 2276.6 2.52745 3.30543 0
M  V30 23852 H 2275.48 2.97037 4.61585 0
M  V30 23853 H 2275.74 1.27606 4.23284 0
M  V30 23854 N 2274.8 -0.971167 1.24121 0
M  V30 23855 C 2276.04 -1.71623 1.08044 0
M  V30 23856 C 2276.37 -1.90438 -0.380373 0
M  V30 23857 O 2275.65 -1.46336 -1.28125 0
M  V30 23858 C 2275.93 -3.10904 1.81688 0
M  V30 23859 C 2275.79 -2.99602 3.35498 0
M  V30 23860 C 2277.1 -4.10499 1.58679 0
M  V30 23861 H 2274.22 -0.622912 0.393891 0
M  V30 23862 H 2276.87 -1.13 1.52745 0
M  V30 23863 H 2275.02 -3.6095 1.43691 0
M  V30 23864 H 2276.69 -2.57009 3.83072 0
M  V30 23865 H 2274.93 -2.35893 3.64056 0
M  V30 23866 H 2275.6 -3.98257 3.82224 0
M  V30 23867 H 2278.08 -3.69298 1.91725 0
M  V30 23868 H 2276.95 -5.06027 2.12669 0
M  V30 23869 H 2277.21 -4.38981 0.524238 0
M  V30 23870 N 2276.27 -1.05441 -1.17133 0
M  V30 23871 C 2277.21 -0.601894 -2.20119 0
M  V30 23872 C 2278.19 0.370826 -1.58315 0
M  V30 23873 O 2279.37 0.281849 -1.86381 0
M  V30 23874 C 2276.5 0.118808 -3.38492 0
M  V30 23875 C 2275.54 -0.809316 -4.18751 0
M  V30 23876 S 2276.38 -2.29986 -4.83598 0
M  V30 23877 C 2277.53 -1.5904 -6.05357 0
M  V30 23878 H 2277.76 -1.47442 -2.58163 0
M  V30 23879 H 2275.3 -0.866595 -1.27787 0
M  V30 23880 H 2277.26 0.528423 -4.07085 0
M  V30 23881 H 2275.92 0.967412 -2.98831 0
M  V30 23882 H 2275.11 -0.251468 -5.03372 0
M  V30 23883 H 2274.71 -1.15841 -3.55608 0
M  V30 23884 H 2277 -0.891135 -6.71614 0
M  V30 23885 H 2277.95 -2.41419 -6.65675 0
M  V30 23886 H 2278.35 -1.07672 -5.54136 0
M  V30 23887 N 2277.75 1.33613 -0.835776 0
M  V30 23888 C 2278.72 2.2758 -0.27204 0
M  V30 23889 C 2279.72 1.50828 0.55746 0
M  V30 23890 O 2280.91 1.70188 0.3717 0
M  V30 23891 C 2278.04 3.35268 0.617114 0
M  V30 23892 H 2279.23 2.78952 -1.10116 0
M  V30 23893 H 2276.78 1.43964 -0.60862 0
M  V30 23894 H 2277.52 2.89131 1.46879 0
M  V30 23895 H 2277.3 3.92093 0.0236377 0
M  V30 23896 H 2278.79 4.05328 1.00493 0
M  V30 23897 N 2279.23 0.591922 1.46062 0
M  V30 23898 C 2280.46 0.0869299 2.06717 0
M  V30 23899 C 2280.87 -1.22201 1.43918 0
M  V30 23900 O 2280.23 -1.74087 0.547729 0
M  V30 23901 C 2280.28 -0.0758089 3.61421 0
M  V30 23902 O 2280 1.18133 4.21872 0
M  V30 23903 C 2281.5 -0.614083 4.39026 0
M  V30 23904 H 2278.72 0.0616635 0.668161 0
M  V30 23905 H 2281.27 0.815208 1.87549 0
M  V30 23906 H 2279.42 -0.754346 3.79985 0
M  V30 23907 H 2279.84 1.00101 5.14859 0
M  V30 23908 H 2281.31 -0.677097 5.47832 0
M  V30 23909 H 2281.79 -1.63305 4.07711 0
M  V30 23910 H 2282.39 0.029889 4.25289 0
M  V30 23911 N 2280.71 -1.54102 0.330204 0
M  V30 23912 C 2281.64 -2.27514 -0.525313 0
M  V30 23913 C 2282.62 -1.28562 -1.11381 0
M  V30 23914 O 2283.8 -1.57385 -1.1377 0
M  V30 23915 C 2280.93 -3.03794 -1.68305 0
M  V30 23916 C 2279.89 -4.10139 -1.22353 0
M  V30 23917 C 2279.21 -4.74297 -2.46873 0
M  V30 23918 C 2280.51 -5.21234 -0.333605 0
M  V30 23919 H 2282.21 -2.99273 0.0870656 0
M  V30 23920 H 2279.75 -1.43935 0.0433146 0
M  V30 23921 H 2281.71 -3.53884 -2.28788 0
M  V30 23922 H 2280.43 -2.29663 -2.32212 0
M  V30 23923 H 2279.09 -3.60942 -0.641586 0
M  V30 23924 H 2278.74 -3.96775 -3.09159 0
M  V30 23925 H 2278.44 -5.46136 -2.16815 0
M  V30 23926 H 2279.96 -5.27164 -3.08107 0
M  V30 23927 H 2281.38 -5.6704 -0.844913 0
M  V30 23928 H 2279.77 -5.99969 -0.125507 0
M  V30 23929 H 2280.84 -4.8074 0.633808 0
M  V30 23930 N 2282.19 -0.0585199 -1.57491 0
M  V30 23931 C 2283.15 0.89858 -2.10851 0
M  V30 23932 C 2284.15 1.2351 -1.02966 0
M  V30 23933 O 2285.34 1.17056 -1.29009 0
M  V30 23934 C 2282.47 2.20618 -2.59885 0
M  V30 23935 H 2283.66 0.435883 -2.96715 0
M  V30 23936 H 2281.22 0.189995 -1.55141 0
M  V30 23937 H 2281.95 2.71454 -1.77436 0
M  V30 23938 H 2281.74 1.97495 -3.3873 0
M  V30 23939 H 2283.23 2.89161 -3.0129 0
M  V30 23940 N 2283.66 1.56128 0.21493 0
M  V30 23941 C 2284.89 1.83886 0.959207 0
M  V30 23942 C 2285.31 0.639675 1.76889 0
M  V30 23943 O 2284.67 -0.41157 1.76567 0
M  V30 23944 C 2284.72 3.09696 1.84718 0
M  V30 23945 O 2283.82 2.88855 2.94341 0
M  V30 23946 H 2283.17 0.606073 0.27124 0
M  V30 23947 H 2285.7 2.03345 0.22624 0
M  V30 23948 H 2285.71 3.39973 2.2557 0
M  V30 23949 H 2284.38 3.96605 1.25211 0
M  V30 23950 H 2282.96 2.69828 2.57386 0
M  V30 23951 N 2285.14 -0.481893 1.50052 0
M  V30 23952 C 2286.11 -1.56357 1.67586 0
M  V30 23953 C 2287.11 -1.51213 0.54692 0
M  V30 23954 O 2288.3 -1.54025 0.813752 0
M  V30 23955 C 2285.43 -2.96 1.69105 0
M  V30 23956 H 2286.62 -1.42131 2.64081 0
M  V30 23957 H 2284.17 -0.707509 1.3937 0
M  V30 23958 H 2284.91 -3.15682 0.742644 0
M  V30 23959 H 2284.69 -3.01141 2.5111 0
M  V30 23960 H 2286.18 -3.74552 1.84662 0
M  V30 23961 N 2286.62 -1.39448 -0.734313 0
M  V30 23962 C 2287.87 -1.36439 -1.49094 0
M  V30 23963 C 2288.19 0.0387912 -1.94961 0
M  V30 23964 O 2287.46 0.990161 -1.69034 0
M  V30 23965 H 2286.04 -0.502094 -0.553092 0
M  V30 23966 H 2288.7 -1.7432 -0.871694 0
M  V30 23967 H 2287.8 -2.02751 -2.37273 0
M  V30 23968 N 2288.1 0.964571 -1.24635 0
M  V30 23969 C 2289.03 2.06266 -0.999339 0
M  V30 23970 C 2290.04 1.62768 0.032294 0
M  V30 23971 O 2291.23 1.77318 -0.20511 0
M  V30 23972 C 2288.33 3.35384 -0.486875 0
M  V30 23973 C 2287.51 4.07774 -1.58237 0
M  V30 23974 C 2286.56 5.15165 -1.07201 0
M  V30 23975 O 2285.59 5.41165 -1.76435 0
M  V30 23976 N 2286.79 5.80427 0.0919352 0
M  V30 23977 H 2289.56 2.28029 -1.94481 0
M  V30 23978 H 2287.12 1.13242 -1.15706 0
M  V30 23979 H 2289.11 4.04491 -0.130138 0
M  V30 23980 H 2287.68 3.10469 0.364405 0
M  V30 23981 H 2286.9 3.32903 -2.11115 0
M  V30 23982 H 2288.19 4.52899 -2.31862 0
M  V30 23983 H 2287.59 5.6171 0.670685 0
M  V30 23984 H 2286.14 6.50633 0.389791 0
M  V30 23985 N 2289.58 1.0606 1.16572 0
M  V30 23986 C 2290.82 0.774373 1.86676 0
M  V30 23987 C 2291.15 -0.701115 1.8196 0
M  V30 23988 O 2290.42 -1.5071 1.25153 0
M  V30 23989 H 2289 0.283461 0.691129 0
M  V30 23990 H 2291.66 1.3416 1.41375 0
M  V30 23991 H 2290.75 1.09716 2.92179 0
M  V30 23992 N 2291.06 -1.33168 0.84285 0
M  V30 23993 C 2292.02 -2.27432 0.284105 0
M  V30 23994 C 2293.02 -1.51121 -0.549454 0
M  V30 23995 O 2294.21 -1.70383 -0.362669 0
M  V30 23996 C 2291.34 -3.3559 -0.599325 0
M  V30 23997 H 2292.53 -2.78364 1.11594 0
M  V30 23998 H 2290.09 -1.43639 0.616246 0
M  V30 23999 H 2290.82 -2.89906 -1.45344 0
M  V30 24000 H 2290.61 -3.921 -0.00284374 0
M  V30 24001 H 2292.1 -4.05855 -0.983417 0
M  V30 24002 N 2292.53 -0.599659 -1.45746 0
M  V30 24003 C 2293.78 -0.0915827 -2.01892 0
M  V30 24004 C 2294.1 1.27944 -1.47158 0
M  V30 24005 O 2293.37 1.84348 -0.662762 0
M  V30 24006 H 2291.95 -0.0308655 -0.746362 0
M  V30 24007 H 2294.61 -0.779268 -1.78643 0
M  V30 24008 H 2293.71 -0.0353635 -3.1208 0
M  V30 24009 N 2294.01 1.53925 -0.338371 0
M  V30 24010 C 2294.96 2.21594 0.536673 0
M  V30 24011 C 2295.95 1.20154 1.07013 0
M  V30 24012 O 2297.14 1.45722 1.00469 0
M  V30 24013 C 2294.27 2.98837 1.68971 0
M  V30 24014 C 2293.35 4.07629 1.17045 0
M  V30 24015 N 2293.74 5.0443 0.371996 0
M  V30 24016 C 2292.04 4.21846 1.44782 0
M  V30 24017 C 2292.74 5.81629 0.0908148 0
M  V30 24018 N 2291.72 5.39317 0.681036 0
M  V30 24019 H 2295.52 2.9379 -0.0804815 0
M  V30 24020 H 2293.03 1.61752 -0.144972 0
M  V30 24021 H 2295.03 3.45812 2.32851 0
M  V30 24022 H 2293.69 2.28166 2.3102 0
M  V30 24023 H 2294.7 5.17898 0.0135307 0
M  V30 24024 H 2291.38 3.62395 2.07307 0
M  V30 24025 H 2292.77 6.69621 -0.552935 0
M  V30 24026 N 2295.49 0.0668712 1.57458 0
M  V30 24027 C 2296.42 -0.899726 2.1547 0
M  V30 24028 C 2297.4 -1.31379 1.08044 0
M  V30 24029 O 2298.59 -1.38572 1.36057 0
M  V30 24030 C 2295.72 -2.16907 2.71236 0
M  V30 24031 C 2294.67 -1.89456 3.83784 0
M  V30 24032 C 2294 -3.22978 4.26133 0
M  V30 24033 C 2295.3 -1.20372 5.0824 0
M  V30 24034 H 2296.99 -0.416477 2.96489 0
M  V30 24035 H 2294.54 -0.198883 1.4262 0
M  V30 24036 H 2296.49 -2.84939 3.10463 0
M  V30 24037 H 2295.21 -2.67465 1.8743 0
M  V30 24038 H 2293.87 -1.2383 3.45053 0
M  V30 24039 H 2293.52 -3.71368 3.39256 0
M  V30 24040 H 2293.22 -3.05404 5.01998 0
M  V30 24041 H 2294.74 -3.92217 4.67973 0
M  V30 24042 H 2296.16 -1.78466 5.44814 0
M  V30 24043 H 2294.55 -1.13073 5.89351 0
M  V30 24044 H 2295.62 -0.182068 4.84558 0
M  V30 24045 N 2296.97 -1.56239 -0.206647 0
M  V30 24046 C 2297.9 -1.90132 -1.27994 0
M  V30 24047 C 2298.91 -0.790908 -1.42297 0
M  V30 24048 O 2300.1 -1.06928 -1.42929 0
M  V30 24049 C 2297.2 -2.10796 -2.65364 0
M  V30 24050 C 2296.37 -3.41891 -2.72818 0
M  V30 24051 C 2295.43 -3.51806 -3.91304 0
M  V30 24052 O 2294.46 -4.24722 -3.78946 0
M  V30 24053 N 2295.66 -2.84043 -5.0626 0
M  V30 24054 H 2298.43 -2.82793 -0.992394 0
M  V30 24055 H 2295.99 -1.56967 -0.396624 0
M  V30 24056 H 2297.98 -2.1473 -3.43035 0
M  V30 24057 H 2296.55 -1.2469 -2.86655 0
M  V30 24058 H 2295.77 -3.49926 -1.81509 0
M  V30 24059 H 2297.06 -4.28222 -2.74779 0
M  V30 24060 H 2296.46 -2.24609 -5.19199 0
M  V30 24061 H 2295.01 -2.93619 -5.8192 0
M  V30 24062 N 2298.45 0.473929 -1.50305 0
M  V30 24063 C 2299.38 1.58039 -1.71889 0
M  V30 24064 C 2300.36 1.60343 -0.567827 0
M  V30 24065 O 2301.54 1.76654 -0.806654 0
M  V30 24066 C 2298.67 2.9638 -1.81041 0
M  V30 24067 C 2297.63 3.08943 -2.96206 0
M  V30 24068 C 2296.95 4.48904 -2.90498 0
M  V30 24069 C 2298.25 2.86427 -4.36757 0
M  V30 24070 H 2299.95 1.4023 -2.6453 0
M  V30 24071 H 2297.49 0.673178 -1.27296 0
M  V30 24072 H 2299.44 3.73711 -1.94726 0
M  V30 24073 H 2298.17 3.1534 -0.850202 0
M  V30 24074 H 2296.83 2.34045 -2.82168 0
M  V30 24075 H 2296.48 4.64778 -1.92329 0
M  V30 24076 H 2296.18 4.58246 -3.6781 0
M  V30 24077 H 2297.7 5.28259 -3.06227 0
M  V30 24078 H 2299.11 3.53509 -4.51336 0
M  V30 24079 H 2297.51 3.07216 -5.15498 0
M  V30 24080 H 2298.58 1.82308 -4.49324 0
M  V30 24081 N 2299.92 1.39835 0.726907 0
M  V30 24082 C 2300.87 1.35686 1.8323 0
M  V30 24083 C 2301.86 0.236323 1.59155 0
M  V30 24084 O 2303.05 0.474518 1.70521 0
M  V30 24085 C 2300.18 1.21067 3.21244 0
M  V30 24086 C 2299.26 2.37855 3.51121 0
M  V30 24087 N 2299.66 3.63335 3.51883 0
M  V30 24088 C 2297.95 2.30989 3.81523 0
M  V30 24089 C 2298.65 4.40613 3.79783 0
M  V30 24090 N 2297.63 3.70304 3.97965 0
M  V30 24091 H 2301.43 2.30659 1.82136 0
M  V30 24092 H 2298.95 1.33446 0.925522 0
M  V30 24093 H 2300.94 1.16178 4.00385 0
M  V30 24094 H 2299.6 0.270515 3.23571 0
M  V30 24095 H 2300.61 3.96649 3.33001 0
M  V30 24096 H 2297.29 1.45279 3.91408 0
M  V30 24097 H 2298.68 5.49415 3.86773 0
M  V30 24098 N 2301.4 -0.957948 1.25144 0
M  V30 24099 C 2302.35 -2.0754 1.05023 0
M  V30 24100 C 2303.34 -1.69391 -0.0178454 0
M  V30 24101 O 2304.55 -1.79474 0.137504 0
M  V30 24102 H 2300.92 -0.679259 0.322662 0
M  V30 24103 H 2302.9 -2.21669 1.99763 0
M  V30 24104 C 2301.64 -3.40943 0.682134 0
M  V30 24105 H 2300.97 -3.70764 1.4958 0
M  V30 24106 H 2302.41 -4.2 0.581019 0
M  V30 24107 C 2300.87 -3.31303 -0.61155 0
M  V30 24108 O 2301.4 -3.66041 -1.65459 0
M  V30 24109 N 2299.6 -2.84424 -0.595932 0
M  V30 24110 H 2299.15 -2.56352 0.253237 0
M  V30 24111 H 2299.11 -2.78356 -1.46168 0
M  V30 24112 N 2302.88 -1.06677 -1.16008 0
M  V30 24113 C 2303.84 -0.685039 -2.18723 0
M  V30 24114 C 2304.84 0.271218 -1.58496 0
M  V30 24115 O 2306.03 0.053085 -1.74119 0
M  V30 24116 C 2303.16 -0.0085964 -3.40899 0
M  V30 24117 H 2304.36 -1.59435 -2.54009 0
M  V30 24118 H 2301.91 -0.862464 -1.3035 0
M  V30 24119 H 2302.65 0.913282 -3.11175 0
M  V30 24120 H 2302.43 -0.696271 -3.85868 0
M  V30 24121 H 2303.92 0.244066 -4.16886 0
M  V30 24122 N 2304.36 1.32719 -0.8499 0
M  V30 24123 C 2305.32 2.27279 -0.296162 0
M  V30 24124 C 2306.32 1.51411 0.541432 0
M  V30 24125 O 2307.51 1.70573 0.353628 0
M  V30 24126 C 2304.64 3.35903 0.58152 0
M  V30 24127 H 2305.84 2.77769 -1.13069 0
M  V30 24128 H 2303.39 1.4331 -0.623855 0
M  V30 24129 H 2304.12 2.90673 1.43804 0
M  V30 24130 H 2303.91 3.92096 -0.0179503 0
M  V30 24131 H 2305.4 4.06371 0.961879 0
M  V30 24132 N 2305.84 0.60738 1.45426 0
M  V30 24133 C 2307.08 0.102643 2.0254 0
M  V30 24134 C 2307.42 -1.26345 1.47481 0
M  V30 24135 O 2306.69 -1.83338 0.649422 0
M  V30 24136 C 2306.97 0.063498 3.60044 0
M  V30 24137 C 2306.83 1.46024 4.25437 0
M  V30 24138 C 2308.15 -0.624437 4.35648 0
M  V30 24139 H 2305.26 0.0387736 0.735979 0
M  V30 24140 H 2307.91 0.779312 1.73282 0
M  V30 24141 H 2306.06 -0.51274 3.85102 0
M  V30 24142 H 2307.73 2.08355 4.11565 0
M  V30 24143 H 2305.97 2.02101 3.83846 0
M  V30 24144 H 2306.64 1.3851 5.3434 0
M  V30 24145 H 2309.12 -0.13465 4.15882 0
M  V30 24146 H 2307.99 -0.620932 5.45377 0
M  V30 24147 H 2308.26 -1.69048 4.08504 0
M  V30 24148 N 2307.31 -1.53743 0.34653 0
M  V30 24149 C 2308.59 -1.93215 -0.304498 0
M  V30 24150 C 2308.97 -1.27837 -1.67991 0
M  V30 24151 O 2308.32 -0.430391 -2.2441 0
M  V30 24152 C 2308.53 -3.46993 -0.373791 0
M  V30 24153 C 2309.88 -4.20001 -0.623216 0
M  V30 24154 O 2310.9 -3.53272 -0.455785 0
M  V30 24155 O 2309.76 -5.38219 -0.947784 0
M  V30 24156 H 2306.85 -0.80755 -0.178304 0
M  V30 24157 H 2309.4 -1.64969 0.397924 0
M  V30 24158 H 2308.17 -3.86807 0.591292 0
M  V30 24159 H 2307.8 -3.81415 -1.12288 0
M  V30 24160 N 2308.79 -0.0752207 -1.5742 0
M  V30 24161 C 2310.04 0.587964 -1.94717 0
M  V30 24162 C 2310.39 1.67012 -0.955235 0
M  V30 24163 O 2309.69 1.91587 0.0219505 0
M  V30 24164 C 2309.88 1.2062 -3.36431 0
M  V30 24165 C 2309.71 0.185462 -4.49317 0
M  V30 24166 C 2308.48 -0.231079 -5.04771 0
M  V30 24167 C 2310.68 -0.57863 -5.11035 0
M  V30 24168 N 2308.66 -1.24217 -6.01202 0
M  V30 24169 C 2310.03 -1.4421 -6.02995 0
M  V30 24170 C 2312.09 -0.634324 -4.93843 0
M  V30 24171 C 2310.79 -2.35632 -6.7961 0
M  V30 24172 C 2312.81 -1.53607 -5.71103 0
M  V30 24173 C 2312.18 -2.38721 -6.62715 0
M  V30 24174 H 2308.28 0.186076 -0.759539 0
M  V30 24175 H 2310.86 -0.153162 -1.94097 0
M  V30 24176 H 2309.03 1.91724 -3.37782 0
M  V30 24177 H 2310.76 1.83014 -3.60954 0
M  V30 24178 H 2307.52 0.152724 -4.73354 0
M  V30 24179 H 2307.94 -1.74532 -6.54116 0
M  V30 24180 H 2312.58 0.00952572 -4.22799 0
M  V30 24181 H 2310.3 -3.01051 -7.49929 0
M  V30 24182 H 2313.89 -1.58404 -5.59821 0
M  V30 24183 H 2312.77 -3.07365 -7.21454 0
M  V30 24184 N 2310.27 1.56347 0.198358 0
M  V30 24185 C 2311.2 1.97312 1.24861 0
M  V30 24186 C 2312.18 0.844602 1.4765 0
M  V30 24187 O 2313.37 1.10868 1.59442 0
M  V30 24188 C 2310.5 2.30982 2.59354 0
M  V30 24189 C 2309.45 3.46541 2.51183 0
M  V30 24190 C 2308.78 3.65878 3.8992 0
M  V30 24191 C 2310.08 4.80826 2.03969 0
M  V30 24192 H 2311.77 2.85293 0.908202 0
M  V30 24193 H 2309.32 1.37259 0.435438 0
M  V30 24194 H 2311.27 2.58234 3.33006 0
M  V30 24195 H 2309.99 1.3988 2.95129 0
M  V30 24196 H 2308.65 3.19374 1.79988 0
M  V30 24197 H 2308.3 2.72112 4.23041 0
M  V30 24198 H 2308 4.43617 3.85328 0
M  V30 24199 H 2309.52 3.95503 4.65198 0
M  V30 24200 H 2310.94 5.07132 2.67377 0
M  V30 24201 H 2309.34 5.62012 2.10387 0
M  V30 24202 H 2310.41 4.74628 0.992778 0
M  V30 24203 N 2311.75 -0.465951 1.50554 0
M  V30 24204 C 2312.97 -1.24546 1.6584 0
M  V30 24205 C 2313.4 -1.84937 0.343518 0
M  V30 24206 O 2312.76 -1.67524 -0.69321 0
M  V30 24207 C 2312.8 -2.32619 2.75537 0
M  V30 24208 O 2311.91 -3.37394 2.37147 0
M  V30 24209 H 2311.25 -0.366184 0.5539 0
M  V30 24210 H 2313.78 -0.553892 1.9696 0
M  V30 24211 H 2313.79 -2.77852 2.98768 0
M  V30 24212 H 2312.46 -1.88037 3.70965 0
M  V30 24213 H 2311.04 -2.97837 2.24382 0
M  V30 24214 N 2313.23 -1.40218 -0.719481 0
M  V30 24215 C 2314.64 -1.22163 -1.02705 0
M  V30 24216 C 2314.84 -0.094091 -2.0128 0
M  V30 24217 O 2313.9 0.549274 -2.46453 0
M  V30 24218 C 2315.21 -2.56184 -1.5745 0
M  V30 24219 C 2316.76 -2.63162 -1.69454 0
M  V30 24220 C 2317.23 -3.97442 -2.27605 0
M  V30 24221 N 2318.73 -3.99163 -2.34995 0
M  V30 24222 C 2319.46 -4.99847 -2.80963 0
M  V30 24223 N 2318.96 -6.10926 -3.26712 0
M  V30 24224 N 2320.75 -4.87218 -2.80312 0
M  V30 24225 H 2312.9 -2.12297 -0.0660118 0
M  V30 24226 H 2315.16 -0.943536 -0.0918912 0
M  V30 24227 H 2314.87 -3.39323 -0.924814 0
M  V30 24228 H 2314.74 -2.76998 -2.56031 0
M  V30 24229 H 2317.13 -1.80397 -2.3354 0
M  V30 24230 H 2317.21 -2.46183 -0.694824 0
M  V30 24231 H 2316.86 -4.80645 -1.64141 0
M  V30 24232 H 2316.79 -4.1175 -3.28283 0
M  V30 24233 H 2319.28 -3.18951 -2.0268 0
M  V30 24234 H 2319.59 -6.83647 -3.60343 0
M  V30 24235 H 2317.93 -6.14497 -3.24681 0
M  V30 24236 H 2321.13 -3.99535 -2.43905 0
M  V30 24237 H 2321.3 -5.65828 -3.15821 0
M  V30 24238 N 2314.7 0.951297 -1.25651 0
M  V30 24239 C 2315.94 1.71111 -1.11805 0
M  V30 24240 C 2316.31 1.8906 0.334725 0
M  V30 24241 O 2317.51 2.6213 0.595075 0
M  V30 24242 C 2315.78 3.0548 -1.85517 0
M  V30 24243 S 2317.34 3.96674 -1.87604 0
M  V30 24244 H 2314.16 0.588108 -0.399562 0
M  V30 24245 H 2316.76 1.13438 -1.59224 0
M  V30 24246 H 2315.46 2.90089 -2.90304 0
M  V30 24247 H 2314.99 3.68214 -1.38499 0
M  V30 24248 H 2317.01 4.86914 -0.955475 0
M  V30 24249 N 2316.18 1.07291 1.1544 0
M  V30 24250 C 2317.13 0.692691 2.2016 0
M  V30 24251 C 2318.1 -0.315611 1.63074 0
M  V30 24252 O 2319.28 -0.202202 1.89726 0
M  V30 24253 C 2316.42 0.0960115 3.44966 0
M  V30 24254 C 2315.54 1.15571 4.16254 0
M  V30 24255 C 2314.67 0.524104 5.28608 0
M  V30 24256 C 2313.71 1.56664 5.91712 0
M  V30 24257 N 2312.85 0.957653 6.95538 0
M  V30 24258 H 2317.69 1.59006 2.52034 0
M  V30 24259 H 2315.23 0.79482 1.23778 0
M  V30 24260 H 2317.18 -0.267555 4.16341 0
M  V30 24261 H 2315.81 -0.764717 3.13611 0
M  V30 24262 H 2314.87 1.63686 3.43382 0
M  V30 24263 H 2316.18 1.94621 4.59265 0
M  V30 24264 H 2315.33 0.108138 6.06604 0
M  V30 24265 H 2314.07 -0.298165 4.86788 0
M  V30 24266 H 2313.08 1.99239 5.12429 0
M  V30 24267 H 2314.3 2.39118 6.35609 0
M  V30 24268 H 2312.25 0.156277 6.55814 0
M  V30 24269 H 2312.16 1.68539 7.36974 0
M  V30 24270 H 2313.43 0.567169 7.77434 0
M  V30 24271 N 2317.66 -1.32267 0.856927 0
M  V30 24272 C 2318.61 -2.28826 0.301212 0
M  V30 24273 C 2319.58 -1.55151 -0.593077 0
M  V30 24274 O 2320.76 -1.83363 -0.527504 0
M  V30 24275 C 2317.9 -3.41422 -0.502463 0
M  V30 24276 C 2317.02 -4.29974 0.417873 0
M  V30 24277 C 2316.15 -5.29702 -0.398655 0
M  V30 24278 C 2315.19 -6.09896 0.518935 0
M  V30 24279 N 2314.33 -7.01616 -0.260551 0
M  V30 24280 H 2319.17 -2.75749 1.12988 0
M  V30 24281 H 2316.7 -1.35666 0.568606 0
M  V30 24282 H 2318.66 -4.05428 -0.98407 0
M  V30 24283 H 2317.29 -2.95644 -1.29594 0
M  V30 24284 H 2316.34 -3.66529 1.01788 0
M  V30 24285 H 2317.66 -4.86017 1.122 0
M  V30 24286 H 2316.81 -5.99321 -0.943329 0
M  V30 24287 H 2315.55 -4.74282 -1.13614 0
M  V30 24288 H 2314.55 -5.39179 1.07547 0
M  V30 24289 H 2315.78 -6.67402 1.25506 0
M  V30 24290 H 2313.72 -6.48622 -0.981084 0
M  V30 24291 H 2313.64 -7.55022 0.384496 0
M  V30 24292 H 2314.91 -7.75518 -0.786878 0
M  V30 24293 N 2319.14 -0.615084 -1.45102 0
M  V30 24294 C 2320.37 -0.119632 -2.06253 0
M  V30 24295 C 2320.78 1.20442 -1.45912 0
M  V30 24296 O 2320.12 1.74619 -0.570415 0
M  V30 24297 C 2320.18 0.086496 -3.59396 0
M  V30 24298 C 2319.85 -1.15691 -4.42114 0
M  V30 24299 C 2320.84 -2.07684 -4.76617 0
M  V30 24300 C 2318.53 -1.38783 -4.82747 0
M  V30 24301 C 2320.52 -3.21092 -5.50617 0
M  V30 24302 C 2318.21 -2.52491 -5.56499 0
M  V30 24303 C 2319.21 -3.43473 -5.90352 0
M  V30 24304 O 2318.89 -4.55201 -6.62607 0
M  V30 24305 H 2318.63 -0.069463 -0.672422 0
M  V30 24306 H 2321.18 -0.844918 -1.87217 0
M  V30 24307 H 2319.41 0.866757 -3.76861 0
M  V30 24308 H 2321.1 0.534484 -4.02366 0
M  V30 24309 H 2321.87 -1.91071 -4.45777 0
M  V30 24310 H 2317.74 -0.688625 -4.55828 0
M  V30 24311 H 2321.29 -3.9213 -5.76958 0
M  V30 24312 H 2317.19 -2.69053 -5.86754 0
M  V30 24313 H 2317.95 -4.53978 -6.81063 0
M  V30 24314 N 2320.62 1.53557 -0.354678 0
M  V30 24315 C 2321.55 2.28321 0.489051 0
M  V30 24316 C 2322.53 1.30318 1.09322 0
M  V30 24317 O 2323.71 1.59175 1.11252 0
M  V30 24318 C 2320.84 3.06433 1.6345 0
M  V30 24319 C 2319.8 4.12033 1.15813 0
M  V30 24320 C 2319.12 4.78164 2.39297 0
M  V30 24321 C 2320.42 5.21698 0.250639 0
M  V30 24322 H 2322.12 2.99097 -0.134666 0
M  V30 24323 H 2319.66 1.43848 -0.0662079 0
M  V30 24324 H 2321.62 3.57479 2.2313 0
M  V30 24325 H 2320.34 2.33329 2.28529 0
M  V30 24326 H 2319 3.61917 0.584083 0
M  V30 24327 H 2318.65 4.01643 3.02807 0
M  V30 24328 H 2318.35 5.49517 2.08099 0
M  V30 24329 H 2319.87 5.31999 2.99682 0
M  V30 24330 H 2321.29 5.68312 0.754595 0
M  V30 24331 H 2319.68 6.00092 0.0300413 0
M  V30 24332 H 2320.75 4.79671 -0.710209 0
M  V30 24333 N 2322.1 0.083568 1.57378 0
M  V30 24334 C 2323.32 -0.594952 1.98683 0
M  V30 24335 C 2323.75 -1.61639 0.961997 0
M  V30 24336 O 2323.1 -1.81161 -0.070967 0
M  V30 24337 C 2323.15 -1.22954 3.38991 0
M  V30 24338 O 2322.26 -2.3454 3.39212 0
M  V30 24339 H 2321.6 -0.151991 0.64637 0
M  V30 24340 H 2324.13 0.161568 2.03961 0
M  V30 24341 H 2324.14 -1.57359 3.76433 0
M  V30 24342 H 2322.81 -0.481155 4.13107 0
M  V30 24343 H 2321.39 -2.01841 3.13552 0
M  V30 24344 N 2323.57 -1.5645 -0.190064 0
M  V30 24345 C 2324.51 -1.91479 -1.2597 0
M  V30 24346 C 2325.52 -0.805956 -1.4145 0
M  V30 24347 O 2326.71 -1.08438 -1.41787 0
M  V30 24348 C 2323.81 -2.13599 -2.63113 0
M  V30 24349 C 2322.98 -3.44765 -2.69176 0
M  V30 24350 C 2322.04 -3.55937 -3.87551 0
M  V30 24351 O 2321.07 -4.28718 -3.74419 0
M  V30 24352 N 2322.27 -2.89397 -5.03219 0
M  V30 24353 H 2325.03 -2.83829 -0.962344 0
M  V30 24354 H 2322.59 -1.57378 -0.379953 0
M  V30 24355 H 2324.59 -2.18356 -3.40739 0
M  V30 24356 H 2323.16 -1.27724 -2.85316 0
M  V30 24357 H 2322.38 -3.51832 -1.77787 0
M  V30 24358 H 2323.66 -4.31112 -2.70222 0
M  V30 24359 H 2323.06 -2.30103 -5.16787 0
M  V30 24360 H 2321.62 -2.99775 -5.78773 0
M  V30 24361 N 2325.05 0.45796 -1.50799 0
M  V30 24362 C 2326 1.55427 -1.70619 0
M  V30 24363 C 2326.97 1.56814 -0.54759 0
M  V30 24364 O 2328.15 1.74143 -0.779678 0
M  V30 24365 C 2325.29 2.93308 -1.81836 0
M  V30 24366 C 2324.41 3.01609 -3.09283 0
M  V30 24367 C 2323.54 4.30485 -3.11217 0
M  V30 24368 C 2322.58 4.32577 -4.33063 0
M  V30 24369 N 2321.72 5.52945 -4.32662 0
M  V30 24370 H 2326.56 1.37831 -2.64209 0
M  V30 24371 H 2324.09 0.669914 -1.3096 0
M  V30 24372 H 2326.05 3.73283 -1.86321 0
M  V30 24373 H 2324.68 3.09509 -0.916739 0
M  V30 24374 H 2323.73 2.14425 -3.14207 0
M  V30 24375 H 2325.05 2.99015 -3.99239 0
M  V30 24376 H 2324.2 5.18819 -3.14503 0
M  V30 24377 H 2322.94 4.35707 -2.19114 0
M  V30 24378 H 2321.94 3.42639 -4.29975 0
M  V30 24379 H 2323.17 4.29036 -5.26407 0
M  V30 24380 H 2321.12 5.58927 -3.43419 0
M  V30 24381 H 2321.03 5.52146 -5.16402 0
M  V30 24382 H 2322.3 6.43367 -4.40113 0
M  V30 24383 N 2326.53 1.40598 0.712035 0
M  V30 24384 C 2327.48 1.41324 1.84744 0
M  V30 24385 C 2328.47 0.293297 1.66842 0
M  V30 24386 O 2329.68 0.464511 1.73903 0
M  V30 24387 H 2326.05 0.44183 0.608515 0
M  V30 24388 H 2328.02 2.37048 1.81247 0
M  V30 24389 C 2326.77 1.2962 3.22636 0
M  V30 24390 H 2326.1 2.15077 3.37019 0
M  V30 24391 H 2327.54 1.34187 4.02206 0
M  V30 24392 C 2325.99 0.00679043 3.36899 0
M  V30 24393 O 2326.52 -0.954791 3.90188 0
M  V30 24394 N 2324.73 -0.0638816 2.9053 0
M  V30 24395 H 2324.28 0.719354 2.47352 0
M  V30 24396 H 2324.24 -0.926065 3.00452 0
M  V30 24397 N 2328.01 -0.94462 1.26153 0
M  V30 24398 C 2329.25 -1.69292 1.1166 0
M  V30 24399 C 2329.59 -1.91202 -0.339893 0
M  V30 24400 O 2328.86 -1.49021 -1.24992 0
M  V30 24401 C 2329.14 -3.06981 1.88242 0
M  V30 24402 C 2329 -2.92418 3.41777 0
M  V30 24403 C 2330.32 -4.0704 1.6735 0
M  V30 24404 H 2327.44 -0.614417 0.407015 0
M  V30 24405 H 2330.08 -1.09735 1.55108 0
M  V30 24406 H 2328.23 -3.57821 1.51315 0
M  V30 24407 H 2329.9 -2.48825 3.88438 0
M  V30 24408 H 2328.14 -2.28118 3.68978 0
M  V30 24409 H 2328.81 -3.9006 3.90586 0
M  V30 24410 H 2331.29 -3.65148 1.99515 0
M  V30 24411 H 2330.17 -5.01402 2.23354 0
M  V30 24412 H 2330.43 -4.3777 0.617235 0
M  V30 24413 N 2329.49 -1.07901 -1.1487 0
M  V30 24414 C 2330.73 -0.806758 -1.86063 0
M  V30 24415 C 2331.06 0.665674 -1.82435 0
M  V30 24416 O 2330.34 1.48896 -1.2514 0
M  V30 24417 C 2330.62 -1.32273 -3.34927 0
M  V30 24418 C 2330.48 -2.86012 -3.47156 0
M  V30 24419 C 2331.79 -0.943792 -4.29861 0
M  V30 24420 H 2328.91 -0.294537 -0.675586 0
M  V30 24421 H 2331.56 -1.33775 -1.34923 0
M  V30 24422 H 2329.71 -0.87104 -3.78609 0
M  V30 24423 H 2331.38 -3.39512 -3.12296 0
M  V30 24424 H 2329.62 -3.2393 -2.88533 0
M  V30 24425 H 2330.29 -3.17185 -4.51772 0
M  V30 24426 H 2332.77 -1.33309 -3.94167 0
M  V30 24427 H 2331.64 -1.33207 -5.32491 0
M  V30 24428 H 2331.9 0.149719 -4.41846 0
M  V30 24429 N 2330.96 1.31811 -0.863929 0
M  V30 24430 C 2331.87 2.32428 -0.318502 0
M  V30 24431 C 2332.89 1.64452 0.568467 0
M  V30 24432 O 2334.07 1.9592 0.466625 0
M  V30 24433 C 2331.13 3.43413 0.476295 0
M  V30 24434 C 2330.19 4.27061 -0.437915 0
M  V30 24435 C 2329.42 5.32746 0.319045 0
M  V30 24436 O 2329.65 5.48996 1.54789 0
M  V30 24437 O 2328.58 6.01049 -0.319967 0
M  V30 24438 H 2332.41 2.80989 -1.15234 0
M  V30 24439 H 2329.99 1.356 -0.627126 0
M  V30 24440 H 2331.87 4.11076 0.927084 0
M  V30 24441 H 2330.55 2.97025 1.28678 0
M  V30 24442 H 2329.46 3.62174 -0.937077 0
M  V30 24443 H 2330.79 4.76998 -1.21383 0
M  V30 24444 N 2332.44 0.62277 1.44773 0
M  V30 24445 C 2333.39 -0.0871274 2.30635 0
M  V30 24446 C 2334.36 -0.845072 1.42996 0
M  V30 24447 O 2335.54 -0.827782 1.71908 0
M  V30 24448 C 2332.68 -1.06839 3.28146 0
M  V30 24449 C 2331.8 -0.309733 4.30888 0
M  V30 24450 C 2330.93 -1.28206 5.15496 0
M  V30 24451 C 2329.97 -0.51209 6.09954 0
M  V30 24452 N 2329.11 -1.43446 6.8729 0
M  V30 24453 H 2333.95 0.651025 2.90802 0
M  V30 24454 H 2331.48 0.332835 1.43285 0
M  V30 24455 H 2333.44 -1.65059 3.8316 0
M  V30 24456 H 2332.07 -1.77377 2.69699 0
M  V30 24457 H 2331.12 0.388247 3.78414 0
M  V30 24458 H 2332.44 0.290341 4.97954 0
M  V30 24459 H 2331.59 -1.93586 5.74986 0
M  V30 24460 H 2330.33 -1.91607 4.48484 0
M  V30 24461 H 2329.33 0.155248 5.49581 0
M  V30 24462 H 2330.56 0.117077 6.78999 0
M  V30 24463 H 2328.51 -2.05583 6.22954 0
M  V30 24464 H 2328.42 -0.888203 7.50764 0
M  V30 24465 H 2329.69 -2.07736 7.51309 0
M  V30 24466 N 2333.92 -1.53367 0.362817 0
M  V30 24467 C 2334.85 -2.28577 -0.476936 0
M  V30 24468 C 2335.83 -1.30896 -1.08629 0
M  V30 24469 O 2337.02 -1.59763 -1.10406 0
M  V30 24470 C 2334.15 -3.07296 -1.61823 0
M  V30 24471 C 2333.1 -4.12642 -1.13626 0
M  V30 24472 C 2332.43 -4.79427 -2.36757 0
M  V30 24473 C 2333.73 -5.21824 -0.222969 0
M  V30 24474 H 2335.42 -2.99021 0.150526 0
M  V30 24475 H 2332.97 -1.43811 0.0738356 0
M  V30 24476 H 2334.92 -3.58657 -2.21231 0
M  V30 24477 H 2333.64 -2.34537 -2.27288 0
M  V30 24478 H 2332.3 -3.62222 -0.564881 0
M  V30 24479 H 2331.95 -4.03243 -3.00673 0
M  V30 24480 H 2331.65 -5.50612 -2.05182 0
M  V30 24481 H 2333.17 -5.33581 -2.96856 0
M  V30 24482 H 2334.59 -5.68704 -0.724445 0
M  V30 24483 H 2332.98 -6.001 0.00178349 0
M  V30 24484 H 2334.05 -4.79287 0.735638 0
M  V30 24485 N 2335.4 -0.091913 -1.57332 0
M  V30 24486 C 2336.35 0.885709 -2.15077 0
M  V30 24487 C 2337.34 1.29439 -1.09279 0
M  V30 24488 O 2338.55 1.26929 -1.27629 0
M  V30 24489 H 2334.92 0.303644 -0.687971 0
M  V30 24490 H 2336.89 0.373943 -2.96048 0
M  V30 24491 C 2335.64 2.13633 -2.74329 0
M  V30 24492 H 2334.96 1.83074 -3.55421 0
M  V30 24493 H 2336.4 2.80104 -3.18305 0
M  V30 24494 C 2334.86 2.90824 -1.70067 0
M  V30 24495 O 2335.39 3.85252 -1.13769 0
M  V30 24496 N 2333.6 2.54305 -1.40633 0
M  V30 24497 H 2333.15 1.77587 -1.86603 0
M  V30 24498 H 2333.1 3.06253 -0.711096 0
M  V30 24499 N 2336.88 1.56548 0.181765 0
M  V30 24500 C 2337.84 1.94726 1.2089 0
M  V30 24501 C 2338.84 0.829771 1.37737 0
M  V30 24502 O 2340.03 1.09699 1.35321 0
M  V30 24503 C 2337.16 2.23296 2.57589 0
M  V30 24504 H 2338.35 2.8663 0.882225 0
M  V30 24505 H 2335.91 1.50444 0.423811 0
M  V30 24506 H 2336.64 1.34072 2.95288 0
M  V30 24507 H 2336.43 3.04741 2.4673 0
M  V30 24508 H 2337.92 2.5379 3.31633 0
M  V30 24509 N 2338.35 -0.449957 1.5104 0
M  V30 24510 C 2339.3 -1.56587 1.71998 0
M  V30 24511 C 2340.3 -1.58939 0.586057 0
M  V30 24512 O 2341.5 -1.62835 0.767119 0
M  V30 24513 H 2337.88 -0.519992 0.543243 0
M  V30 24514 H 2339.85 -1.36081 2.65565 0
M  V30 24515 C 2338.6 -2.94357 1.85065 0
M  V30 24516 H 2337.92 -2.93274 2.71717 0
M  V30 24517 H 2339.36 -3.71838 2.03746 0
M  V30 24518 C 2337.82 -3.31381 0.607335 0
M  V30 24519 O 2338.35 -4.00959 -0.243833 0
M  V30 24520 N 2336.56 -2.87014 0.455123 0
M  V30 24521 H 2336.1 -2.30564 1.14883 0
M  V30 24522 H 2336.06 -3.12149 -0.375556 0
M  V30 24523 N 2339.83 -1.40974 -0.704569 0
M  V30 24524 C 2341.08 -1.40054 -1.46672 0
M  V30 24525 C 2341.41 -0.00644516 -1.94199 0
M  V30 24526 O 2340.69 0.964205 -1.68918 0
M  V30 24527 C 2340.97 -2.39957 -2.68501 0
M  V30 24528 C 2340.82 -3.88436 -2.26798 0
M  V30 24529 C 2342.14 -2.3724 -3.70682 0
M  V30 24530 H 2339.26 -0.510038 -0.532006 0
M  V30 24531 H 2341.9 -1.72187 -0.803225 0
M  V30 24532 H 2340.05 -2.12686 -3.25111 0
M  V30 24533 H 2341.72 -4.26577 -1.75585 0
M  V30 24534 H 2339.97 -4.03737 -1.58678 0
M  V30 24535 H 2340.64 -4.53871 -3.14173 0
M  V30 24536 H 2343.11 -2.6142 -3.23726 0
M  V30 24537 H 2341.99 -3.0917 -4.53547 0
M  V30 24538 H 2342.25 -1.38784 -4.19752 0
M  V30 24539 N 2341.31 0.937917 -1.26653 0
M  V30 24540 C 2342.24 2.03726 -1.02814 0
M  V30 24541 C 2343.22 1.62529 0.0481629 0
M  V30 24542 O 2344.41 1.88261 -0.094917 0
M  V30 24543 C 2341.53 3.34079 -0.557576 0
M  V30 24544 C 2340.58 3.9425 -1.62693 0
M  V30 24545 S 2341.41 4.28119 -3.21674 0
M  V30 24546 C 2342.57 5.61567 -2.76394 0
M  V30 24547 H 2342.8 2.23634 -1.95895 0
M  V30 24548 H 2340.33 1.07972 -1.10369 0
M  V30 24549 H 2342.29 4.09455 -0.292746 0
M  V30 24550 H 2340.95 3.1211 0.353007 0
M  V30 24551 H 2340.15 4.88285 -1.24875 0
M  V30 24552 H 2339.75 3.2542 -1.8433 0
M  V30 24553 H 2342.04 6.4042 -2.21061 0
M  V30 24554 H 2342.98 6.04273 -3.69133 0
M  V30 24555 H 2343.39 5.216 -2.15856 0
M  V30 24556 N 2342.79 1.08509 1.14296 0
M  V30 24557 C 2343.74 0.685607 2.17448 0
M  V30 24558 C 2344.72 -0.295288 1.58167 0
M  V30 24559 O 2345.91 -0.107141 1.76675 0
M  V30 24560 C 2343.04 0.0975921 3.43161 0
M  V30 24561 C 2342.13 1.10434 4.09469 0
M  V30 24562 N 2342.52 2.28813 4.51085 0
M  V30 24563 C 2340.82 0.940335 4.35974 0
M  V30 24564 C 2341.52 2.92779 5.02649 0
M  V30 24565 N 2340.5 2.20383 4.96923 0
M  V30 24566 H 2344.3 1.58705 2.47366 0
M  V30 24567 H 2341.81 0.959959 1.30991 0
M  V30 24568 H 2343.81 -0.206567 4.16388 0
M  V30 24569 H 2342.47 -0.798816 3.14721 0
M  V30 24570 H 2343.48 2.66463 4.44092 0
M  V30 24571 H 2340.16 0.0978175 4.17385 0
M  V30 24572 H 2341.55 3.93362 5.44716 0
M  V30 24573 N 2344.27 -1.31351 0.870907 0
M  V30 24574 C 2345.51 -1.96284 0.481355 0
M  V30 24575 C 2345.84 -1.69175 -0.969783 0
M  V30 24576 O 2345.11 -1.00767 -1.67997 0
M  V30 24577 H 2343.69 -0.726209 0.175014 0
M  V30 24578 H 2346.35 -1.60141 1.1109 0
M  V30 24579 H 2345.44 -3.0547 0.639879 0
M  V30 24580 N 2345.74 -0.630439 -1.44441 0
M  V30 24581 C 2346.69 0.074895 -2.30678 0
M  V30 24582 C 2347.66 0.837477 -1.43442 0
M  V30 24583 O 2348.85 0.818653 -1.72345 0
M  V30 24584 C 2345.99 1.05097 -3.28708 0
M  V30 24585 C 2345.1 0.286878 -4.31046 0
M  V30 24586 C 2344.23 1.25471 -5.16169 0
M  V30 24587 C 2343.27 0.479736 -6.10217 0
M  V30 24588 N 2342.41 1.39799 -6.88041 0
M  V30 24589 H 2347.25 -0.666438 -2.90452 0
M  V30 24590 H 2344.79 -0.340429 -1.43107 0
M  V30 24591 H 2346.75 1.63025 -3.8403 0
M  V30 24592 H 2345.38 1.75944 -2.70635 0
M  V30 24593 H 2344.43 -0.40831 -3.78202 0
M  V30 24594 H 2345.74 -0.316745 -4.97793 0
M  V30 24595 H 2344.89 1.90534 -5.76005 0
M  V30 24596 H 2343.63 1.89225 -4.49494 0
M  V30 24597 H 2342.64 -0.184391 -5.49491 0
M  V30 24598 H 2343.86 -0.153084 -6.78927 0
M  V30 24599 H 2341.81 2.02276 -6.24036 0
M  V30 24600 H 2341.73 0.848376 -7.51225 0
M  V30 24601 H 2342.99 2.03749 -7.52401 0
M  V30 24602 N 2347.22 1.53172 -0.370945 0
M  V30 24603 C 2348.17 2.22682 0.489549 0
M  V30 24604 C 2349.16 1.22397 1.0444 0
M  V30 24605 O 2350.35 1.47821 0.973552 0
M  V30 24606 C 2347.48 3.02354 1.62595 0
M  V30 24607 C 2346.56 4.1002 1.08372 0
M  V30 24608 N 2346.95 5.05106 0.264916 0
M  V30 24609 C 2345.25 4.24822 1.35801 0
M  V30 24610 C 2345.95 5.81691 -0.0325777 0
M  V30 24611 N 2344.93 5.4064 0.566486 0
M  V30 24612 H 2348.73 2.93553 -0.142781 0
M  V30 24613 H 2346.25 1.61408 -0.179249 0
M  V30 24614 H 2348.24 3.50673 2.25464 0
M  V30 24615 H 2346.9 2.33015 2.26128 0
M  V30 24616 H 2347.91 5.1781 -0.0963263 0
M  V30 24617 H 2344.59 3.66711 1.99574 0
M  V30 24618 H 2345.98 6.68297 -0.694847 0
M  V30 24619 N 2348.7 0.100255 1.57281 0
M  V30 24620 C 2349.95 -0.563067 1.94827 0
M  V30 24621 C 2350.28 -1.67513 0.982505 0
M  V30 24622 O 2349.55 -1.94493 0.0164411 0
M  V30 24623 C 2349.84 -1.1134 3.42455 0
M  V30 24624 C 2349.69 -0.00604174 4.498 0
M  V30 24625 C 2351.01 -2.01018 3.9151 0
M  V30 24626 H 2348.13 -0.203209 0.708431 0
M  V30 24627 H 2350.77 0.172012 1.8922 0
M  V30 24628 H 2348.92 -1.73984 3.47364 0
M  V30 24629 H 2350.59 0.628437 4.56999 0
M  V30 24630 H 2348.84 0.659656 4.28755 0
M  V30 24631 H 2349.51 -0.432012 5.50307 0
M  V30 24632 H 2351.98 -1.48271 3.88786 0
M  V30 24633 H 2350.86 -2.36448 4.95362 0
M  V30 24634 H 2351.12 -2.92955 3.31104 0
M  V30 24635 N 2350.18 -1.56643 -0.17346 0
M  V30 24636 C 2351.11 -1.91344 -1.24349 0
M  V30 24637 C 2352.09 -0.77599 -1.42889 0
M  V30 24638 O 2353.27 -1.02909 -1.5793 0
M  V30 24639 C 2350.4 -2.1625 -2.60679 0
M  V30 24640 C 2349.45 -3.38939 -2.58888 0
M  V30 24641 S 2350.28 -4.93377 -2.08182 0
M  V30 24642 C 2351.44 -5.21375 -3.46293 0
M  V30 24643 H 2351.67 -2.81804 -0.947296 0
M  V30 24644 H 2349.2 -1.49703 -0.377931 0
M  V30 24645 H 2351.16 -2.3128 -3.39145 0
M  V30 24646 H 2349.82 -1.26501 -2.875 0
M  V30 24647 H 2349.01 -3.53559 -3.59182 0
M  V30 24648 H 2348.62 -3.23013 -1.88516 0
M  V30 24649 H 2350.91 -5.13221 -4.42278 0
M  V30 24650 H 2351.85 -6.23009 -3.36549 0
M  V30 24651 H 2352.26 -4.48949 -3.42206 0
M  V30 24652 N 2351.66 0.44194 -1.51277 0
M  V30 24653 C 2352.91 1.18868 -1.62952 0
M  V30 24654 C 2353.22 1.92455 -0.349346 0
M  V30 24655 O 2354.43 2.69294 -0.345403 0
M  V30 24656 C 2352.88 2.1615 -2.87762 0
M  V30 24657 C 2352.49 1.48232 -4.22766 0
M  V30 24658 C 2354.23 2.91285 -3.08793 0
M  V30 24659 C 2352.14 2.43971 -5.38732 0
M  V30 24660 H 2351.07 0.447396 -0.606921 0
M  V30 24661 H 2353.72 0.456174 -1.77739 0
M  V30 24662 H 2352.1 2.92816 -2.66598 0
M  V30 24663 H 2353.28 0.771555 -4.54295 0
M  V30 24664 H 2351.59 0.85267 -4.07576 0
M  V30 24665 H 2354.19 3.62995 -3.92605 0
M  V30 24666 H 2354.53 3.52366 -2.21685 0
M  V30 24667 H 2355.07 2.21727 -3.30276 0
M  V30 24668 H 2351.8 1.87586 -6.28086 0
M  V30 24669 H 2351.32 3.13114 -5.11585 0
M  V30 24670 H 2353 3.05197 -5.70494 0
M  V30 24671 N 2353.14 1.41345 0.697083 0
M  V30 24672 C 2354.07 1.45845 1.8235 0
M  V30 24673 C 2355.05 0.317276 1.67115 0
M  V30 24674 O 2356.23 0.528507 1.8687 0
M  V30 24675 C 2353.36 1.33843 3.20474 0
M  V30 24676 C 2352.32 2.45756 3.50411 0
M  V30 24677 C 2351.64 2.18821 4.87874 0
M  V30 24678 C 2352.94 3.88097 3.4954 0
M  V30 24679 H 2354.64 2.40116 1.78842 0
M  V30 24680 H 2352.18 1.15573 0.859007 0
M  V30 24681 H 2354.13 1.35603 3.98986 0
M  V30 24682 H 2352.86 0.360555 3.24604 0
M  V30 24683 H 2351.52 2.43276 2.74249 0
M  V30 24684 H 2351.17 1.1938 4.88628 0
M  V30 24685 H 2350.87 2.93812 5.0887 0
M  V30 24686 H 2352.39 2.22294 5.68698 0
M  V30 24687 H 2353.8 3.923 4.18059 0
M  V30 24688 H 2352.2 4.62758 3.82067 0
M  V30 24689 H 2353.27 4.16357 2.48545 0
M  V30 24690 N 2354.61 -0.931187 1.27148 0
M  V30 24691 C 2355.52 -2.06476 1.11376 0
M  V30 24692 C 2356.54 -1.73943 0.0446756 0
M  V30 24693 O 2357.72 -1.99837 0.250452 0
M  V30 24694 C 2354.78 -3.38292 0.758897 0
M  V30 24695 C 2353.84 -3.84546 1.90848 0
M  V30 24696 C 2353.07 -5.10071 1.57045 0
M  V30 24697 O 2353.3 -5.68404 0.476745 0
M  V30 24698 O 2352.23 -5.51612 2.40849 0
M  V30 24699 H 2356.06 -2.22694 2.06497 0
M  V30 24700 H 2353.64 -1.04976 1.06303 0
M  V30 24701 H 2355.52 -4.1747 0.574171 0
M  V30 24702 H 2354.2 -3.2329 -0.162822 0
M  V30 24703 H 2353.11 -3.0627 2.14824 0
M  V30 24704 H 2354.44 -4.04084 2.81028 0
M  V30 24705 N 2356.09 -1.09114 -1.13719 0
M  V30 24706 C 2357.33 -0.834833 -1.86574 0
M  V30 24707 C 2357.7 0.62809 -1.81436 0
M  V30 24708 O 2358.9 1.00019 -2.49499 0
M  V30 24709 C 2357.17 -1.3513 -3.30869 0
M  V30 24710 S 2358.73 -1.22839 -4.21255 0
M  V30 24711 H 2355.54 -0.302029 -0.643661 0
M  V30 24712 H 2358.15 -1.39387 -1.37082 0
M  V30 24713 H 2356.85 -2.41033 -3.32161 0
M  V30 24714 H 2356.38 -0.788252 -3.85422 0
M  V30 24715 H 2358.4 -0.177278 -4.95883 0
M  V30 24716 N 2357.57 1.30887 -0.877861 0
M  V30 24717 C 2358.8 2.00581 -0.507449 0
M  V30 24718 C 2359.21 1.65849 0.902186 0
M  V30 24719 O 2358.57 0.891859 1.59224 0
M  V30 24720 C 2358.62 3.55345 -0.664224 0
M  V30 24721 O 2358.34 3.88837 -2.01836 0
M  V30 24722 C 2359.84 4.42312 -0.295865 0
M  V30 24723 H 2357.06 0.641467 -0.196878 0
M  V30 24724 H 2359.61 1.66937 -1.1812 0
M  V30 24725 H 2357.76 3.87381 -0.03793 0
M  V30 24726 H 2358.18 4.83546 -2.03182 0
M  V30 24727 H 2359.65 5.50109 -0.456485 0
M  V30 24728 H 2360.13 4.32476 0.765586 0
M  V30 24729 H 2360.73 4.15707 -0.898186 0
M  V30 24730 N 2359.05 0.638091 1.44105 0
M  V30 24731 C 2360.29 0.148768 2.03858 0
M  V30 24732 C 2360.65 -1.209 1.49155 0
M  V30 24733 O 2361.85 -1.79085 2.00455 0
M  V30 24734 C 2360.12 0.142377 3.57116 0
M  V30 24735 S 2361.68 -0.281309 4.37897 0
M  V30 24736 H 2358.5 0.0645037 0.708068 0
M  V30 24737 H 2361.1 0.84304 1.76389 0
M  V30 24738 H 2359.81 1.13356 3.94434 0
M  V30 24739 H 2359.34 -0.57292 3.89206 0
M  V30 24740 H 2361.35 -1.52387 4.72221 0
M  V30 24741 N 2360.53 -1.52973 0.379063 0
M  V30 24742 C 2361.48 -2.22939 -0.477733 0
M  V30 24743 C 2362.46 -1.22949 -1.03789 0
M  V30 24744 O 2363.65 -1.48335 -0.965699 0
M  V30 24745 C 2360.78 -3.03212 -1.60989 0
M  V30 24746 C 2359.87 -4.10589 -1.06196 0
M  V30 24747 N 2360.26 -5.05239 -0.238125 0
M  V30 24748 C 2358.56 -4.25537 -1.33546 0
M  V30 24749 C 2359.26 -5.81665 0.0634258 0
M  V30 24750 N 2358.23 -5.40933 -0.537806 0
M  V30 24751 H 2362.03 -2.93473 0.158346 0
M  V30 24752 H 2359.55 -1.6131 0.187807 0
M  V30 24753 H 2361.55 -3.51864 -2.23601 0
M  V30 24754 H 2360.21 -2.34211 -2.24889 0
M  V30 24755 H 2361.22 -5.17752 0.123786 0
M  V30 24756 H 2357.89 -3.67764 -1.97626 0
M  V30 24757 H 2359.28 -6.6792 0.730279 0
M  V30 24758 N 2362 -0.108595 -1.57225 0
M  V30 24759 C 2363.25 0.551669 -1.94009 0
M  V30 24760 C 2363.57 1.68492 -0.993471 0
M  V30 24761 O 2364.77 2.40724 -1.25555 0
M  V30 24762 C 2363.23 1.03273 -3.44765 0
M  V30 24763 C 2362.84 -0.071498 -4.47943 0
M  V30 24764 C 2364.58 1.66496 -3.90486 0
M  V30 24765 C 2362.49 0.425676 -5.89866 0
M  V30 24766 H 2361.42 0.20985 -0.724209 0
M  V30 24767 H 2364.07 -0.186773 -1.82547 0
M  V30 24768 H 2362.45 1.82527 -3.51425 0
M  V30 24769 H 2363.62 -0.847445 -4.5294 0
M  V30 24770 H 2361.94 -0.609741 -4.11912 0
M  V30 24771 H 2364.54 2.04789 -4.93929 0
M  V30 24772 H 2364.88 2.53936 -3.29882 0
M  V30 24773 H 2365.41 0.938006 -3.86583 0
M  V30 24774 H 2362.15 -0.412431 -6.54201 0
M  V30 24775 H 2361.67 1.16833 -5.88311 0
M  V30 24776 H 2363.35 0.890285 -6.40845 0
M  V30 24777 N 2363.48 1.56732 0.16515 0
M  V30 24778 C 2364.41 1.92001 1.23333 0
M  V30 24779 C 2365.39 0.783556 1.42475 0
M  V30 24780 O 2366.58 1.03746 1.57382 0
M  V30 24781 C 2363.7 2.17629 2.59529 0
M  V30 24782 C 2362.75 3.40307 2.57087 0
M  V30 24783 S 2363.58 4.94474 2.05562 0
M  V30 24784 C 2364.74 5.23204 3.43523 0
M  V30 24785 H 2364.97 2.82303 0.932338 0
M  V30 24786 H 2362.5 1.49901 0.369987 0
M  V30 24787 H 2364.46 2.33076 3.37914 0
M  V30 24788 H 2363.12 1.28024 2.86825 0
M  V30 24789 H 2362.32 3.55459 3.57302 0
M  V30 24790 H 2361.92 3.24008 1.86801 0
M  V30 24791 H 2364.21 5.1556 4.3955 0
M  V30 24792 H 2365.15 6.24785 3.3324 0
M  V30 24793 H 2365.56 4.50758 3.3982 0
M  V30 24794 N 2364.96 -0.433911 1.51509 0
M  V30 24795 C 2366.18 -1.21 1.68445 0
M  V30 24796 C 2366.61 -1.84166 0.382669 0
M  V30 24797 O 2365.97 -1.68957 -0.65752 0
M  V30 24798 C 2366.02 -2.26722 2.80409 0
M  V30 24799 O 2365.12 -3.32288 2.44251 0
M  V30 24800 H 2364.46 -0.354353 0.561543 0
M  V30 24801 H 2366.99 -0.511989 1.9809 0
M  V30 24802 H 2367 -2.71452 3.04594 0
M  V30 24803 H 2365.68 -1.80126 3.7487 0
M  V30 24804 H 2364.25 -2.93011 2.30649 0
M  V30 24805 N 2366.44 -1.41713 -0.689577 0
M  V30 24806 C 2367.67 -1.4455 -1.4761 0
M  V30 24807 C 2368.08 -0.0509366 -1.89131 0
M  V30 24808 O 2367.42 0.941432 -1.57743 0
M  V30 24809 C 2367.48 -2.29645 -2.76592 0
M  V30 24810 C 2367.15 -3.77727 -2.57238 0
M  V30 24811 C 2368.14 -4.69743 -2.22795 0
M  V30 24812 C 2365.83 -4.21834 -2.72692 0
M  V30 24813 C 2367.82 -6.03855 -2.04053 0
M  V30 24814 C 2365.51 -5.5601 -2.53567 0
M  V30 24815 C 2366.51 -6.46836 -2.19298 0
M  V30 24816 O 2366.19 -7.78535 -2.00345 0
M  V30 24817 H 2365.93 -0.49422 -0.461218 0
M  V30 24818 H 2368.48 -1.86713 -0.856012 0
M  V30 24819 H 2366.71 -1.82307 -3.4103 0
M  V30 24820 H 2368.4 -2.24112 -3.3842 0
M  V30 24821 H 2369.17 -4.36955 -2.10465 0
M  V30 24822 H 2365.04 -3.5144 -2.98347 0
M  V30 24823 H 2368.59 -6.74712 -1.77229 0
M  V30 24824 H 2364.49 -5.88376 -2.65489 0
M  V30 24825 H 2365.25 -7.89741 -2.15061 0
M  V30 24826 N 2367.92 0.924431 -1.2764 0
M  V30 24827 C 2368.85 2.04242 -1.1317 0
M  V30 24828 C 2369.83 1.70069 -0.0322859 0
M  V30 24829 O 2371.01 1.9309 -0.207362 0
M  V30 24830 C 2368.14 3.38392 -0.781556 0
M  V30 24831 C 2367.1 3.86688 -1.83456 0
M  V30 24832 C 2366.42 5.17681 -1.33831 0
M  V30 24833 C 2367.72 4.0972 -3.23924 0
M  V30 24834 H 2369.42 2.16607 -2.06693 0
M  V30 24835 H 2366.96 1.0408 -0.995155 0
M  V30 24836 H 2368.92 4.16086 -0.66713 0
M  V30 24837 H 2367.64 3.2605 0.189381 0
M  V30 24838 H 2366.3 3.1119 -1.93794 0
M  V30 24839 H 2365.95 5.01733 -0.356738 0
M  V30 24840 H 2365.65 5.50965 -2.04234 0
M  V30 24841 H 2367.17 5.97941 -1.23689 0
M  V30 24842 H 2368.58 4.77973 -3.16567 0
M  V30 24843 H 2366.98 4.54317 -3.92067 0
M  V30 24844 H 2368.05 3.14901 -3.68735 0
M  V30 24845 N 2369.39 1.09715 1.13139 0
M  V30 24846 C 2370.36 0.742789 2.1683 0
M  V30 24847 C 2371.36 -0.229101 1.5916 0
M  V30 24848 O 2372.55 -0.00690175 1.74199 0
M  V30 24849 C 2369.68 0.0989767 3.40756 0
M  V30 24850 H 2370.87 1.66114 2.49692 0
M  V30 24851 H 2368.43 0.896721 1.28018 0
M  V30 24852 H 2369.16 -0.830459 3.13487 0
M  V30 24853 H 2368.95 0.798333 3.83887 0
M  V30 24854 H 2370.44 -0.13345 4.17387 0
M  V30 24855 N 2370.87 -1.30419 0.88479 0
M  V30 24856 C 2372.15 -1.90967 0.423219 0
M  V30 24857 C 2372.53 -1.80418 -1.09601 0
M  V30 24858 O 2371.88 -1.22128 -1.93124 0
M  V30 24859 C 2372.09 -3.36625 0.921115 0
M  V30 24860 C 2373.44 -4.13698 0.955976 0
M  V30 24861 O 2374.46 -3.45468 0.867767 0
M  V30 24862 O 2373.32 -5.35596 1.08623 0
M  V30 24863 H 2370.41 -0.816816 0.129383 0
M  V30 24864 H 2372.96 -1.38988 0.973678 0
M  V30 24865 H 2371.73 -3.38386 1.96495 0
M  V30 24866 H 2371.35 -3.96058 0.34981 0
M  V30 24867 N 2372.35 -0.645724 -1.43764 0
M  V30 24868 C 2373.6 -0.156306 -2.02197 0
M  V30 24869 C 2373.93 1.22391 -1.50779 0
M  V30 24870 O 2373.2 1.81552 -0.697803 0
M  V30 24871 C 2373.49 -0.158935 -3.59749 0
M  V30 24872 C 2373.34 -1.57253 -4.21416 0
M  V30 24873 C 2374.66 0.508713 -4.3715 0
M  V30 24874 H 2371.78 -0.0582732 -0.734693 0
M  V30 24875 H 2374.42 -0.824981 -1.71155 0
M  V30 24876 H 2372.57 0.410457 -3.86326 0
M  V30 24877 H 2374.24 -2.19193 -4.05897 0
M  V30 24878 H 2372.49 -2.12207 -3.78353 0
M  V30 24879 H 2373.16 -1.52628 -5.3048 0
M  V30 24880 H 2375.63 0.0243389 -4.16093 0
M  V30 24881 H 2374.51 0.476117 -5.46831 0
M  V30 24882 H 2374.77 1.58158 -4.12842 0
M  V30 24883 N 2373.83 1.5277 -0.38717 0
M  V30 24884 C 2375.06 2.05971 0.195833 0
M  V30 24885 C 2375.47 1.25905 1.40689 0
M  V30 24886 O 2374.83 0.305166 1.79931 0
M  V30 24887 C 2374.88 3.57009 0.568058 0
M  V30 24888 O 2374.6 4.34042 -0.594879 0
M  V30 24889 C 2376.1 4.26547 1.20715 0
M  V30 24890 H 2373.32 0.670327 0.0300461 0
M  V30 24891 H 2375.87 1.96915 -0.551784 0
M  V30 24892 H 2374.02 3.66145 1.26557 0
M  V30 24893 H 2374.43 5.23701 -0.289414 0
M  V30 24894 H 2375.91 5.33477 1.41798 0
M  V30 24895 H 2376.39 3.81627 2.17388 0
M  V30 24896 H 2376.99 4.21723 0.550461 0
M  V30 24897 N 2375.31 0.116931 1.57166 0
M  V30 24898 C 2376.25 -0.85138 2.16458 0
M  V30 24899 C 2377.25 -1.27684 1.11325 0
M  V30 24900 O 2378.45 -1.24882 1.29632 0
M  V30 24901 H 2374.83 -0.29266 0.692715 0
M  V30 24902 H 2376.8 -0.326797 2.96605 0
M  V30 24903 C 2375.55 -2.09241 2.77693 0
M  V30 24904 H 2374.87 -1.77396 3.58289 0
M  V30 24905 H 2376.31 -2.75004 3.22721 0
M  V30 24906 C 2374.77 -2.88082 1.74672 0
M  V30 24907 O 2375.3 -3.83394 1.19884 0
M  V30 24908 N 2373.51 -2.52035 1.44661 0
M  V30 24909 H 2373.05 -1.74596 1.89405 0
M  V30 24910 H 2373.01 -3.05083 0.759729 0
M  V30 24911 N 2376.78 -1.56818 -0.156836 0
M  V30 24912 C 2377.75 -1.96624 -1.17777 0
M  V30 24913 C 2378.75 -0.851579 -1.36399 0
M  V30 24914 O 2379.94 -1.11838 -1.33559 0
M  V30 24915 C 2377.07 -2.27365 -2.54004 0
M  V30 24916 H 2378.26 -2.87997 -0.836513 0
M  V30 24917 H 2375.82 -1.511 -0.399823 0
M  V30 24918 H 2376.55 -1.38753 -2.93118 0
M  V30 24919 H 2376.34 -3.08627 -2.4185 0
M  V30 24920 H 2377.83 -2.59034 -3.27553 0
M  V30 24921 N 2378.26 0.425871 -1.51737 0
M  V30 24922 C 2379.19 1.52491 -1.7683 0
M  V30 24923 C 2380.17 1.58455 -0.618551 0
M  V30 24924 O 2381.36 1.73999 -0.862447 0
M  V30 24925 C 2378.49 2.90471 -1.90379 0
M  V30 24926 C 2377.44 2.99363 -3.05885 0
M  V30 24927 C 2376.77 4.39435 -3.04632 0
M  V30 24928 C 2378.07 2.72387 -4.45649 0
M  V30 24929 H 2379.76 1.31743 -2.68857 0
M  V30 24930 H 2377.31 0.632339 -1.29373 0
M  V30 24931 H 2379.26 3.67327 -2.06516 0
M  V30 24932 H 2377.99 3.12475 -0.950095 0
M  V30 24933 H 2376.64 2.24949 -2.89471 0
M  V30 24934 H 2376.29 4.58424 -2.07018 0
M  V30 24935 H 2375.99 4.46313 -3.82202 0
M  V30 24936 H 2377.52 5.18249 -3.22878 0
M  V30 24937 H 2378.93 3.38971 -4.62354 0
M  V30 24938 H 2377.33 2.90661 -5.25011 0
M  V30 24939 H 2378.4 1.67921 -4.54896 0
M  V30 24940 N 2379.74 1.42077 0.682052 0
M  V30 24941 C 2380.97 1.45746 1.47556 0
M  V30 24942 C 2381.39 0.0681312 1.87977 0
M  V30 24943 O 2380.75 -0.931773 1.55524 0
M  V30 24944 C 2380.8 2.38378 2.70571 0
M  V30 24945 O 2379.9 1.85014 3.6857 0
M  V30 24946 H 2379.24 0.494101 0.443577 0
M  V30 24947 H 2381.77 1.86687 0.837206 0
M  V30 24948 H 2381.78 2.54712 3.18725 0
M  V30 24949 H 2380.46 3.39319 2.40489 0
M  V30 24950 H 2379.03 1.78198 3.27567 0
M  V30 24951 N 2381.22 -0.917649 1.28129 0
M  V30 24952 C 2382.15 -2.02415 1.0752 0
M  V30 24953 C 2383.16 -1.62776 0.0281385 0
M  V30 24954 O 2384.35 -1.76434 0.270779 0
M  V30 24955 C 2381.45 -3.33346 0.611015 0
M  V30 24956 C 2380.63 -4.01621 1.73262 0
M  V30 24957 C 2379.69 -5.10831 1.26247 0
M  V30 24958 O 2378.71 -5.34244 1.96399 0
M  V30 24959 N 2379.91 -5.80369 0.12355 0
M  V30 24960 H 2382.68 -2.20654 2.0281 0
M  V30 24961 H 2380.24 -1.08869 1.19829 0
M  V30 24962 H 2382.23 -4.03729 0.280172 0
M  V30 24963 H 2380.8 -3.11607 -0.248925 0
M  V30 24964 H 2380.02 -3.24838 2.23325 0
M  V30 24965 H 2381.31 -4.43982 2.48511 0
M  V30 24966 H 2380.71 -5.63812 -0.461748 0
M  V30 24967 H 2379.26 -6.51632 -0.148044 0
M  V30 24968 N 2382.7 -1.10314 -1.12555 0
M  V30 24969 C 2383.92 -0.867118 -1.88403 0
M  V30 24970 C 2384.35 0.576786 -1.79039 0
M  V30 24971 O 2383.71 1.40616 -1.14442 0
M  V30 24972 C 2383.75 -1.31857 -3.35628 0
M  V30 24973 O 2382.86 -0.482806 -4.09564 0
M  V30 24974 H 2382.2 -0.313281 -0.585449 0
M  V30 24975 H 2384.73 -1.46962 -1.42349 0
M  V30 24976 H 2384.74 -1.30796 -3.86466 0
M  V30 24977 H 2383.41 -2.37007 -3.41761 0
M  V30 24978 H 2381.99 -0.558513 -3.68694 0
M  V30 24979 N 2384.18 1.29948 -0.891694 0
M  V30 24980 C 2385.12 2.29904 -0.353106 0
M  V30 24981 C 2386.12 1.60445 0.543481 0
M  V30 24982 O 2387.32 1.74858 0.427169 0
M  V30 24983 H 2383.7 0.745906 -0.0955441 0
M  V30 24984 H 2385.67 2.72781 -1.20966 0
M  V30 24985 C 2384.42 3.45257 0.411414 0
M  V30 24986 H 2383.74 3.98892 -0.269252 0
M  V30 24987 H 2385.18 4.17255 0.753254 0
M  V30 24988 C 2383.64 2.95883 1.61105 0
M  V30 24989 O 2384.17 2.9648 2.7104 0
M  V30 24990 N 2382.38 2.51812 1.45049 0
M  V30 24991 H 2381.92 2.51525 0.556131 0
M  V30 24992 H 2381.88 2.19134 2.2545 0
M  V30 24993 N 2385.65 0.653339 1.4342 0
M  V30 24994 C 2386.9 0.166451 2.01413 0
M  V30 24995 C 2387.22 -1.22394 1.51805 0
M  V30 24996 O 2386.49 -1.81761 0.730725 0
M  V30 24997 H 2385.07 0.058545 0.744702 0
M  V30 24998 H 2387.73 0.845034 1.75628 0
M  V30 24999 H 2386.83 0.151166 3.11734 0
M  V30 25000 N 2387.13 -1.52563 0.395266 0
M  V30 25001 C 2388.06 -2.24284 -0.472161 0
M  V30 25002 C 2389.08 -1.26743 -1.02176 0
M  V30 25003 O 2390.27 -1.5278 -0.92307 0
M  V30 25004 C 2387.37 -2.95027 -1.6677 0
M  V30 25005 C 2386.54 -4.19324 -1.24442 0
M  V30 25006 C 2385.6 -4.73014 -2.30531 0
M  V30 25007 O 2384.62 -5.3595 -1.91692 0
M  V30 25008 N 2385.83 -4.53385 -3.62522 0
M  V30 25009 H 2388.59 -2.99362 0.142335 0
M  V30 25010 H 2386.15 -1.60372 0.221928 0
M  V30 25011 H 2388.14 -3.27844 -2.37278 0
M  V30 25012 H 2386.71 -2.23221 -2.18841 0
M  V30 25013 H 2385.93 -3.92479 -0.368 0
M  V30 25014 H 2387.22 -5.00072 -0.938369 0
M  V30 25015 H 2386.62 -4.03161 -3.96834 0
M  V30 25016 H 2385.18 -4.90676 -4.29046 0
M  V30 25017 N 2388.61 -0.125265 -1.57101 0
M  V30 25018 C 2389.86 0.530164 -1.95022 0
M  V30 25019 C 2390.18 1.66814 -1.00985 0
M  V30 25020 O 2389.45 1.95784 -0.0673037 0
M  V30 25021 H 2388.03 0.19884 -0.72005 0
M  V30 25022 H 2390.69 -0.195674 -1.93915 0
M  V30 25023 H 2389.79 0.920629 -2.98213 0
M  V30 25024 N 2390.09 1.56899 0.148518 0
M  V30 25025 C 2391.5 1.72725 0.708736 0
M  V30 25026 C 2391.85 0.739427 1.81733 0
M  V30 25027 O 2390.97 -0.0942789 2.16195 0
M  V30 25028 C 2391.57 3.13182 1.29239 0
M  V30 25029 C 2390.13 3.30615 1.79919 0
M  V30 25030 C 2389.28 2.68654 0.687064 0
M  V30 25031 H 2392.23 1.58512 -0.0771342 0
M  V30 25032 H 2392.25 3.13097 2.16219 0
M  V30 25033 H 2391.76 3.85054 0.485315 0
M  V30 25034 H 2389.86 2.63737 2.63199 0
M  V30 25035 H 2389.97 4.38552 1.92895 0
M  V30 25036 H 2388.34 2.2908 1.11331 0
M  V30 25037 H 2389.12 3.43128 -0.108543 0
M  V30 25038 N 2391.57 -0.417818 1.51961 0
M  V30 25039 C 2392.79 -1.19207 1.69719 0
M  V30 25040 C 2393.22 -1.8375 0.40218 0
M  V30 25041 O 2392.57 -1.69645 -0.639563 0
M  V30 25042 C 2392.62 -2.23736 2.82798 0
M  V30 25043 O 2391.73 -3.29679 2.47761 0
M  V30 25044 H 2391.07 -0.348377 0.565269 0
M  V30 25045 H 2393.6 -0.49095 1.98622 0
M  V30 25046 H 2393.61 -2.68206 3.07456 0
M  V30 25047 H 2392.28 -1.76139 3.76759 0
M  V30 25048 H 2390.86 -2.90548 2.33744 0
M  V30 25049 N 2393.04 -1.42436 -0.674508 0
M  V30 25050 C 2393.99 -1.42393 -1.78068 0
M  V30 25051 C 2394.98 -0.29523 -1.58168 0
M  V30 25052 O 2396.17 -0.537479 -1.68642 0
M  V30 25053 C 2393.3 -1.32906 -3.16529 0
M  V30 25054 C 2392.38 -2.50723 -3.42051 0
M  V30 25055 N 2392.78 -3.76144 -3.38155 0
M  V30 25056 C 2391.07 -2.4499 -3.72687 0
M  V30 25057 C 2391.77 -4.54404 -3.63169 0
M  V30 25058 N 2390.75 -3.84819 -3.83947 0
M  V30 25059 H 2394.55 -2.3726 -1.7345 0
M  V30 25060 H 2392.07 -1.36789 -0.875356 0
M  V30 25061 H 2394.06 -1.30958 -3.95798 0
M  V30 25062 H 2392.72 -0.39042 -3.22344 0
M  V30 25063 H 2393.73 -4.08735 -3.1805 0
M  V30 25064 H 2390.41 -1.59706 -3.85746 0
M  V30 25065 H 2391.8 -5.63391 -3.66115 0
M  V30 25066 N 2394.52 0.910841 -1.28614 0
M  V30 25067 C 2395.45 2.0303 -1.15329 0
M  V30 25068 C 2396.43 1.70026 -0.0503222 0
M  V30 25069 O 2397.62 1.92859 -0.22783 0
M  V30 25070 C 2394.75 3.37544 -0.817403 0
M  V30 25071 C 2393.7 3.84721 -1.87547 0
M  V30 25072 C 2393.03 5.16232 -1.39314 0
M  V30 25073 C 2394.33 4.06261 -3.28251 0
M  V30 25074 H 2396.02 2.14402 -2.08979 0
M  V30 25075 H 2393.57 1.03019 -1.00614 0
M  V30 25076 H 2395.52 4.15355 -0.711224 0
M  V30 25077 H 2394.24 3.26233 0.154789 0
M  V30 25078 H 2392.9 3.09117 -1.97084 0
M  V30 25079 H 2392.55 5.01327 -0.409934 0
M  V30 25080 H 2392.25 5.48768 -2.10066 0
M  V30 25081 H 2393.78 5.96595 -1.30024 0
M  V30 25082 H 2395.19 4.74588 -3.21619 0
M  V30 25083 H 2393.59 4.50133 -3.96863 0
M  V30 25084 H 2394.66 3.10973 -3.72054 0
M  V30 25085 N 2396 1.10909 1.11969 0
M  V30 25086 C 2397.23 0.877097 1.87941 0
M  V30 25087 C 2397.65 -0.567283 1.79342 0
M  V30 25088 O 2397.01 -1.40007 1.15186 0
M  V30 25089 C 2397.06 1.33635 3.34924 0
M  V30 25090 O 2396.16 0.504519 4.09302 0
M  V30 25091 H 2395.5 0.316382 0.58378 0
M  V30 25092 H 2398.03 1.47715 1.41568 0
M  V30 25093 H 2398.04 1.32844 3.85767 0
M  V30 25094 H 2396.72 2.38816 3.40499 0
M  V30 25095 H 2395.29 0.578058 3.68392 0
M  V30 25096 N 2397.48 -1.29474 0.898573 0
M  V30 25097 C 2398.72 -1.95895 0.524692 0
M  V30 25098 C 2399.06 -1.70677 -0.926438 0
M  V30 25099 O 2398.33 -1.01911 -1.65664 0
M  V30 25100 C 2398.62 -3.50724 0.816391 0
M  V30 25101 C 2398.47 -3.85403 2.31914 0
M  V30 25102 C 2399.79 -4.39062 0.302115 0
M  V30 25103 H 2396.91 -0.711523 0.192103 0
M  V30 25104 H 2399.55 -1.5311 1.12505 0
M  V30 25105 H 2397.7 -3.87297 0.305437 0
M  V30 25106 H 2399.37 -3.58781 2.89955 0
M  V30 25107 H 2397.61 -3.32987 2.78033 0
M  V30 25108 H 2398.28 -4.93464 2.47382 0
M  V30 25109 H 2400.76 -4.09474 0.739623 0
M  V30 25110 H 2399.64 -5.46282 0.535427 0
M  V30 25111 H 2399.9 -4.34854 -0.79714 0
M  V30 25112 N 2398.96 -0.660936 -1.43071 0
M  V30 25113 C 2400.23 -0.107052 -1.95307 0
M  V30 25114 C 2400.61 1.37481 -1.60194 0
M  V30 25115 O 2399.96 2.10413 -0.890986 0
M  V30 25116 C 2400.17 -0.361463 -3.47123 0
M  V30 25117 C 2401.52 -0.27053 -4.23737 0
M  V30 25118 O 2402.54 -0.294445 -3.54981 0
M  V30 25119 O 2401.4 -0.200833 -5.46131 0
M  V30 25120 H 2398.5 0.00516275 -0.826984 0
M  V30 25121 H 2401.04 -0.734708 -1.52971 0
M  V30 25122 H 2399.81 -1.38854 -3.65835 0
M  V30 25123 H 2399.44 0.298883 -3.96475 0
M  V30 25124 N 2400.43 1.52351 -0.403352 0
M  V30 25125 C 2401.68 2.0135 0.173967 0
M  V30 25126 C 2402 1.29108 1.46137 0
M  V30 25127 O 2401.27 0.415287 1.91448 0
M  V30 25128 H 2399.85 0.743964 0.067278 0
M  V30 25129 H 2402.52 1.8732 -0.538268 0
M  V30 25130 H 2401.61 3.09849 0.3742 0
M  V30 25131 N 2401.91 0.133594 1.57033 0
M  V30 25132 C 2402.82 -0.824525 2.19633 0
M  V30 25133 C 2403.84 -1.2818 1.17668 0
M  V30 25134 O 2405.01 -1.34177 1.50195 0
M  V30 25135 C 2402.08 -2.05132 2.79502 0
M  V30 25136 C 2401.14 -1.64457 3.96551 0
M  V30 25137 C 2400.37 -2.81289 4.53555 0
M  V30 25138 O 2400.6 -3.97129 4.09445 0
M  V30 25139 O 2399.53 -2.57532 5.44023 0
M  V30 25140 H 2403.36 -0.321712 3.01991 0
M  V30 25141 H 2400.94 -0.0927627 1.49112 0
M  V30 25142 H 2402.82 -2.76954 3.17607 0
M  V30 25143 H 2401.5 -2.54392 2.00166 0
M  V30 25144 H 2400.41 -0.896984 3.63187 0
M  V30 25145 H 2401.74 -1.19926 4.77366 0
M  V30 25146 N 2403.39 -1.56975 -0.140195 0
M  V30 25147 C 2404.3 -2.02049 -1.1922 0
M  V30 25148 C 2405.32 -0.937088 -1.46611 0
M  V30 25149 O 2406.49 -1.24707 -1.58146 0
M  V30 25150 C 2403.56 -2.39783 -2.5041 0
M  V30 25151 C 2402.62 -3.62104 -2.30605 0
M  V30 25152 C 2401.85 -3.98029 -3.5554 0
M  V30 25153 O 2402.07 -3.34536 -4.61998 0
M  V30 25154 O 2401.01 -4.91243 -3.47799 0
M  V30 25155 H 2404.83 -2.91866 -0.839508 0
M  V30 25156 H 2402.42 -1.45256 -0.349427 0
M  V30 25157 H 2404.3 -2.64882 -3.27743 0
M  V30 25158 H 2402.98 -1.53119 -2.85195 0
M  V30 25159 H 2401.88 -3.42183 -1.51201 0
M  V30 25160 H 2403.22 -4.49408 -2.00733 0
M  V30 25161 N 2404.87 0.409753 -1.5218 0
M  V30 25162 C 2406.28 0.748326 -1.40969 0
M  V30 25163 C 2406.48 1.94842 -0.513691 0
M  V30 25164 O 2405.54 2.52491 0.0207582 0
M  V30 25165 C 2406.85 1.00285 -2.83485 0
M  V30 25166 C 2408.4 1.1056 -2.92823 0
M  V30 25167 C 2408.88 1.39288 -4.36306 0
M  V30 25168 N 2410.37 1.46155 -4.39537 0
M  V30 25169 C 2411.1 1.70009 -5.47617 0
M  V30 25170 N 2410.6 1.91471 -6.65816 0
M  V30 25171 N 2412.39 1.72018 -5.35132 0
M  V30 25172 H 2404.54 -0.380222 -2.08969 0
M  V30 25173 H 2406.81 -0.107822 -0.941848 0
M  V30 25174 H 2406.51 0.193399 -3.51168 0
M  V30 25175 H 2406.39 1.92318 -3.2449 0
M  V30 25176 H 2408.77 1.90564 -2.25321 0
M  V30 25177 H 2408.85 0.163645 -2.55276 0
M  V30 25178 H 2408.5 0.59802 -5.04367 0
M  V30 25179 H 2408.43 2.34735 -4.71389 0
M  V30 25180 H 2410.92 1.31361 -3.54334 0
M  V30 25181 H 2411.23 2.09121 -7.43968 0
M  V30 25182 H 2409.58 1.88737 -6.68882 0
M  V30 25183 H 2412.77 1.54788 -4.41767 0
M  V30 25184 H 2412.94 1.90269 -6.19436 0
M  V30 25185 N 2406.35 1.42792 0.666944 0
M  V30 25186 C 2407.31 1.46571 1.76209 0
M  V30 25187 C 2408.31 0.352224 1.56895 0
M  V30 25188 O 2409.5 0.613393 1.63043 0
M  V30 25189 C 2406.63 1.305 3.14933 0
M  V30 25190 H 2407.82 2.44089 1.74243 0
M  V30 25191 H 2405.38 1.29355 0.877319 0
M  V30 25192 H 2406.11 0.339358 3.2252 0
M  V30 25193 H 2405.9 2.11205 3.30356 0
M  V30 25194 H 2407.39 1.36045 3.94818 0
M  V30 25195 N 2407.82 -0.904008 1.29095 0
M  V30 25196 C 2409.07 -1.64872 1.1619 0
M  V30 25197 C 2409.39 -1.93487 -0.286708 0
M  V30 25198 O 2410.59 -2.66136 -0.537015 0
M  V30 25199 C 2409.05 -2.9706 2.03183 0
M  V30 25200 C 2408.66 -2.76056 3.52841 0
M  V30 25201 C 2410.4 -3.74971 1.98991 0
M  V30 25202 C 2408.31 -4.03945 4.31952 0
M  V30 25203 H 2407.24 -0.618493 0.431257 0
M  V30 25204 H 2409.89 -1.00241 1.53701 0
M  V30 25205 H 2408.27 -3.62881 1.58536 0
M  V30 25206 H 2409.44 -2.18856 4.0551 0
M  V30 25207 H 2407.76 -2.11547 3.5866 0
M  V30 25208 H 2410.36 -4.69783 2.55359 0
M  V30 25209 H 2410.7 -4.04868 0.968886 0
M  V30 25210 H 2411.23 -3.15985 2.41658 0
M  V30 25211 H 2407.97 -3.79215 5.34674 0
M  V30 25212 H 2407.49 -4.6072 3.84053 0
M  V30 25213 H 2409.17 -4.72126 4.42387 0
M  V30 25214 N 2409.3 -1.11501 -1.11379 0
M  V30 25215 C 2410.21 -0.786667 -2.21017 0
M  V30 25216 C 2411.23 0.220477 -1.72598 0
M  V30 25217 O 2412.4 0.0564897 -2.01321 0
M  V30 25218 C 2409.47 -0.235394 -3.459 0
M  V30 25219 C 2408.53 -1.30122 -4.09105 0
M  V30 25220 C 2407.76 -0.776161 -5.28026 0
M  V30 25221 O 2407.99 0.393561 -5.69041 0
M  V30 25222 O 2406.92 -1.54125 -5.81833 0
M  V30 25223 H 2410.75 -1.70213 -2.51518 0
M  V30 25224 H 2408.33 -0.890949 -1.19927 0
M  V30 25225 H 2410.21 0.067641 -4.21346 0
M  V30 25226 H 2408.89 0.652773 -3.1705 0
M  V30 25227 H 2407.8 -1.65728 -3.35388 0
M  V30 25228 H 2409.13 -2.1628 -4.42135 0
M  V30 25229 N 2410.78 1.28995 -0.905426 0
M  V30 25230 C 2412.03 1.95614 -0.535073 0
M  V30 25231 C 2412.36 1.71166 0.917374 0
M  V30 25232 O 2411.64 1.02788 1.65121 0
M  V30 25233 C 2411.92 3.50286 -0.83498 0
M  V30 25234 C 2411.77 3.84168 -2.33955 0
M  V30 25235 C 2413.09 4.38895 -0.325395 0
M  V30 25236 H 2410.21 0.710495 -0.195874 0
M  V30 25237 H 2412.85 1.52511 -1.13315 0
M  V30 25238 H 2411 3.8713 -0.325972 0
M  V30 25239 H 2412.67 3.57238 -2.91854 0
M  V30 25240 H 2410.92 3.31508 -2.79795 0
M  V30 25241 H 2411.59 4.92145 -2.49995 0
M  V30 25242 H 2414.06 4.09076 -0.761328 0
M  V30 25243 H 2412.94 5.45991 -0.564391 0
M  V30 25244 H 2413.2 4.35271 0.774067 0
M  V30 25245 N 2412.26 0.668514 1.42719 0
M  V30 25246 C 2413.54 0.117408 1.95247 0
M  V30 25247 C 2413.92 -1.36629 1.60921 0
M  V30 25248 O 2413.26 -2.09938 0.902132 0
M  V30 25249 C 2413.47 0.379867 3.46927 0
M  V30 25250 C 2414.82 0.292998 4.23588 0
M  V30 25251 O 2415.85 0.313266 3.5482 0
M  V30 25252 O 2414.71 0.229793 5.46017 0
M  V30 25253 H 2411.8 -0.000776984 0.827 0
M  V30 25254 H 2414.35 0.74281 1.52579 0
M  V30 25255 H 2413.12 1.40792 3.65093 0
M  V30 25256 H 2412.74 -0.277853 3.96628 0
M  V30 25257 N 2413.74 -1.52135 0.411426 0
M  V30 25258 C 2414.96 -2.06739 -0.165502 0
M  V30 25259 C 2415.39 -1.27929 -1.37898 0
M  V30 25260 O 2414.75 -0.310146 -1.78628 0
M  V30 25261 C 2414.79 -3.57227 -0.492061 0
M  V30 25262 O 2413.9 -3.80821 -1.5827 0
M  V30 25263 H 2413.24 -0.663869 -0.0132016 0
M  V30 25264 H 2415.77 -1.9605 0.585287 0
M  V30 25265 H 2415.78 -4.01047 -0.750033 0
M  V30 25266 H 2414.45 -4.1402 0.394995 0
M  V30 25267 H 2413.03 -3.4888 -1.31671 0
M  V30 25268 N 2415.22 -0.14192 -1.5696 0
M  V30 25269 C 2416.49 0.555248 -1.87554 0
M  V30 25270 C 2416.87 1.83305 -1.04703 0
M  V30 25271 O 2416.22 2.28116 -0.132386 0
M  V30 25272 C 2416.43 0.825605 -3.39094 0
M  V30 25273 C 2417.78 1.16862 -4.08202 0
M  V30 25274 O 2418.8 0.915125 -3.44244 0
M  V30 25275 O 2417.66 1.64541 -5.21141 0
M  V30 25276 H 2414.76 0.282665 -0.777193 0
M  V30 25277 H 2417.3 -0.17815 -1.68762 0
M  V30 25278 H 2416.07 -0.0789321 -3.9122 0
M  V30 25279 H 2415.7 1.61336 -3.63396 0
M  V30 25280 N 2416.69 1.57047 0.131868 0
M  V30 25281 C 2417.94 1.85325 0.838235 0
M  V30 25282 C 2418.29 0.727968 1.78097 0
M  V30 25283 O 2417.59 -0.273006 1.89645 0
M  V30 25284 C 2417.78 3.17707 1.63698 0
M  V30 25285 C 2417.61 4.43005 0.77309 0
M  V30 25286 C 2416.38 5.03442 0.432867 0
M  V30 25287 C 2418.58 5.14209 0.0965312 0
M  V30 25288 N 2416.56 6.12299 -0.443031 0
M  V30 25289 C 2417.93 6.16699 -0.638887 0
M  V30 25290 C 2419.99 4.97896 0.0187735 0
M  V30 25291 C 2418.69 7.04642 -1.44474 0
M  V30 25292 C 2420.72 5.86315 -0.773865 0
M  V30 25293 C 2420.08 6.88298 -1.49752 0
M  V30 25294 H 2416.18 0.728578 0.284074 0
M  V30 25295 H 2418.76 1.94429 0.102697 0
M  V30 25296 H 2416.93 3.09722 2.34364 0
M  V30 25297 H 2418.66 3.33837 2.28768 0
M  V30 25298 H 2415.42 4.67263 0.772155 0
M  V30 25299 H 2415.84 6.71355 -0.87245 0
M  V30 25300 H 2420.48 4.19023 0.563897 0
M  V30 25301 H 2418.2 7.82932 -2.00107 0
M  V30 25302 H 2421.79 5.75759 -0.836221 0
M  V30 25303 H 2420.67 7.55531 -2.101 0
M  V30 25304 N 2418.17 -0.401677 1.52395 0
M  V30 25305 C 2419.42 -1.14963 1.67067 0
M  V30 25306 C 2419.75 -1.89971 0.403086 0
M  V30 25307 O 2419.03 -1.85055 -0.598741 0
M  V30 25308 C 2419.31 -2.1381 2.89754 0
M  V30 25309 C 2419.16 -1.4265 4.2658 0
M  V30 25310 C 2420.48 -3.14391 3.07971 0
M  V30 25311 H 2417.6 -0.416576 0.607975 0
M  V30 25312 H 2420.24 -0.434478 1.84966 0
M  V30 25313 H 2418.39 -2.74798 2.74624 0
M  V30 25314 H 2420.06 -0.847249 4.53453 0
M  V30 25315 H 2418.31 -0.728415 4.27641 0
M  V30 25316 H 2418.98 -2.14814 5.08487 0
M  V30 25317 H 2421.45 -2.63485 3.22048 0
M  V30 25318 H 2420.33 -3.80812 3.95315 0
M  V30 25319 H 2420.59 -3.82542 2.21618 0
M  V30 25320 N 2419.65 -1.43144 -0.659362 0
M  V30 25321 C 2420.56 -1.50259 -1.80165 0
M  V30 25322 C 2421.58 -0.390136 -1.6957 0
M  V30 25323 O 2422.75 -0.643352 -1.90848 0
M  V30 25324 C 2419.82 -1.41731 -3.16407 0
M  V30 25325 C 2418.88 -2.63597 -3.38844 0
M  V30 25326 C 2418.11 -2.55466 -4.68586 0
M  V30 25327 O 2418.33 -1.59901 -5.47529 0
M  V30 25328 O 2417.27 -3.45863 -4.92608 0
M  V30 25329 H 2421.09 -2.46705 -1.77117 0
M  V30 25330 H 2418.68 -1.25077 -0.81707 0
M  V30 25331 H 2420.56 -1.39394 -3.97677 0
M  V30 25332 H 2419.24 -0.484174 -3.20058 0
M  V30 25333 H 2418.14 -2.71507 -2.57361 0
M  V30 25334 H 2419.48 -3.55862 -3.40034 0
M  V30 25335 N 2421.13 0.897149 -1.29572 0
M  V30 25336 C 2422.04 2.03451 -1.16811 0
M  V30 25337 C 2423.05 1.73763 -0.0907777 0
M  V30 25338 O 2424.23 1.99102 -0.303347 0
M  V30 25339 C 2421.29 3.36161 -0.848323 0
M  V30 25340 C 2420.36 3.79351 -2.00976 0
M  V30 25341 C 2419.59 5.05728 -1.70514 0
M  V30 25342 O 2419.81 5.6694 -0.62728 0
M  V30 25343 O 2418.75 5.45032 -2.55389 0
M  V30 25344 H 2422.57 2.17141 -2.12329 0
M  V30 25345 H 2420.16 1.02121 -1.09049 0
M  V30 25346 H 2422.04 4.15801 -0.684654 0
M  V30 25347 H 2420.71 3.23608 0.0770503 0
M  V30 25348 H 2419.62 3.00467 -2.22869 0
M  V30 25349 H 2420.95 3.96491 -2.91643 0
M  V30 25350 N 2422.61 1.1209 1.10786 0
M  V30 25351 C 2423.54 0.807793 2.19082 0
M  V30 25352 C 2424.52 -0.226829 1.68581 0
M  V30 25353 O 2425.7 -0.0888134 1.93997 0
M  V30 25354 C 2422.83 0.257637 3.46343 0
M  V30 25355 C 2421.79 1.22491 4.10098 0
M  V30 25356 C 2421.11 0.535145 5.32015 0
M  V30 25357 C 2422.41 2.57819 4.54232 0
M  V30 25358 H 2424.11 1.71333 2.45531 0
M  V30 25359 H 2421.65 0.825225 1.18009 0
M  V30 25360 H 2423.6 0.0263419 4.21392 0
M  V30 25361 H 2422.33 -0.683222 3.19374 0
M  V30 25362 H 2420.99 1.44195 3.37051 0
M  V30 25363 H 2420.64 -0.410739 5.0132 0
M  V30 25364 H 2420.34 1.18034 5.75623 0
M  V30 25365 H 2421.86 0.312802 6.09798 0
M  V30 25366 H 2423.27 2.40164 5.20571 0
M  V30 25367 H 2421.67 3.18384 5.08676 0
M  V30 25368 H 2422.74 3.16534 3.67334 0
M  V30 25369 N 2424.08 -1.28513 0.912254 0
M  V30 25370 C 2425.05 -2.25607 0.404263 0
M  V30 25371 C 2426.05 -1.53821 -0.468575 0
M  V30 25372 O 2427.24 -1.72066 -0.271843 0
M  V30 25373 C 2424.37 -3.38295 -0.420594 0
M  V30 25374 H 2425.56 -2.72058 1.26193 0
M  V30 25375 H 2423.11 -1.4017 0.691519 0
M  V30 25376 H 2423.85 -2.97203 -1.29772 0
M  V30 25377 H 2423.63 -3.91564 0.205004 0
M  V30 25378 H 2425.12 -4.10498 -0.766899 0
M  V30 25379 N 2425.56 -0.676073 -1.42362 0
M  V30 25380 C 2426.81 -0.19916 -2.0182 0
M  V30 25381 C 2427.14 1.19165 -1.53341 0
M  V30 25382 O 2426.42 1.80031 -0.736155 0
M  V30 25383 C 2426.7 -0.235207 -3.59331 0
M  V30 25384 C 2426.55 -1.66156 -4.17986 0
M  V30 25385 C 2427.87 0.415873 -4.38131 0
M  V30 25386 H 2424.99 -0.073844 -0.733291 0
M  V30 25387 H 2427.63 -0.8611 -1.69367 0
M  V30 25388 H 2425.78 0.328419 -3.87109 0
M  V30 25389 H 2427.45 -2.27754 -4.01156 0
M  V30 25390 H 2425.7 -2.20184 -3.73766 0
M  V30 25391 H 2426.37 -1.63846 -5.27123 0
M  V30 25392 H 2428.84 -0.063926 -4.16051 0
M  V30 25393 H 2427.72 0.360019 -5.47718 0
M  V30 25394 H 2427.98 1.49365 -4.16104 0
M  V30 25395 N 2427.04 1.51915 -0.419488 0
M  V30 25396 C 2427.95 2.31034 0.407487 0
M  V30 25397 C 2428.97 1.39192 1.04411 0
M  V30 25398 O 2430.14 1.72266 1.04337 0
M  V30 25399 C 2427.21 3.12399 1.50359 0
M  V30 25400 C 2426.27 4.19995 0.888955 0
M  V30 25401 C 2425.5 4.97471 1.93283 0
M  V30 25402 O 2425.72 4.75367 3.1525 0
M  V30 25403 O 2424.66 5.82043 1.53329 0
M  V30 25404 H 2428.48 3.02767 -0.237918 0
M  V30 25405 H 2426.07 1.48282 -0.182439 0
M  V30 25406 H 2427.95 3.63036 2.13969 0
M  V30 25407 H 2426.63 2.43449 2.13341 0
M  V30 25408 H 2425.53 3.7348 0.215287 0
M  V30 25409 H 2426.87 4.91267 0.302905 0
M  V30 25410 N 2428.52 0.150242 1.56882 0
M  V30 25411 C 2429.43 -0.801184 2.20495 0
M  V30 25412 C 2430.44 -1.26925 1.19021 0
M  V30 25413 O 2431.62 -1.32576 1.5161 0
M  V30 25414 C 2428.69 -2.02156 2.81662 0
M  V30 25415 C 2427.75 -1.60242 3.98273 0
M  V30 25416 C 2426.98 -2.76462 4.56513 0
M  V30 25417 O 2427.2 -3.92764 4.13634 0
M  V30 25418 O 2426.14 -2.51748 5.46724 0
M  V30 25419 H 2429.96 -0.289664 3.02315 0
M  V30 25420 H 2427.55 -0.0769422 1.49202 0
M  V30 25421 H 2429.43 -2.7357 3.20527 0
M  V30 25422 H 2428.1 -2.52254 2.02853 0
M  V30 25423 H 2427.01 -0.858413 3.64118 0
M  V30 25424 H 2428.34 -1.14856 4.78611 0
M  V30 25425 N 2430 -1.57115 -0.123538 0
M  V30 25426 C 2430.91 -2.03302 -1.1707 0
M  V30 25427 C 2431.92 -0.952585 -1.45608 0
M  V30 25428 O 2433.1 -1.26377 -1.56815 0
M  V30 25429 C 2430.16 -2.42425 -2.47852 0
M  V30 25430 C 2429.22 -3.6453 -2.26752 0
M  V30 25431 C 2428.46 -4.01778 -3.51298 0
M  V30 25432 O 2428.68 -3.39417 -4.58424 0
M  V30 25433 O 2427.61 -4.94904 -3.42569 0
M  V30 25434 H 2431.44 -2.9274 -0.808504 0
M  V30 25435 H 2429.03 -1.45619 -0.334001 0
M  V30 25436 H 2430.91 -2.68344 -3.24915 0
M  V30 25437 H 2429.58 -1.56135 -2.83555 0
M  V30 25438 H 2428.49 -3.43767 -1.47563 0
M  V30 25439 H 2429.82 -4.51511 -1.95955 0
M  V30 25440 N 2431.47 0.393589 -1.52606 0
M  V30 25441 C 2432.75 1.15302 -1.58003 0
M  V30 25442 C 2433.13 2.07825 -0.370422 0
M  V30 25443 O 2432.48 2.19307 0.6416 0
M  V30 25444 C 2432.69 1.91672 -2.91655 0
M  V30 25445 C 2434.04 2.47195 -3.45224 0
M  V30 25446 O 2435.06 2.01834 -2.93499 0
M  V30 25447 O 2433.92 3.30043 -4.35585 0
M  V30 25448 H 2431.01 0.527316 -0.637077 0
M  V30 25449 H 2433.56 0.399112 -1.6494 0
M  V30 25450 H 2432.33 1.23985 -3.71138 0
M  V30 25451 H 2431.96 2.74034 -2.88082 0
M  V30 25452 N 2432.95 1.43492 0.651762 0
M  V30 25453 C 2434.18 1.48843 1.44431 0
M  V30 25454 C 2434.6 0.107988 1.8779 0
M  V30 25455 O 2433.96 -0.898574 1.57465 0
M  V30 25456 C 2434.01 2.44063 2.65453 0
M  V30 25457 O 2433.11 1.9279 3.64562 0
M  V30 25458 H 2432.45 0.503399 0.432996 0
M  V30 25459 H 2434.98 1.88421 0.797418 0
M  V30 25460 H 2434.99 2.61416 3.1325 0
M  V30 25461 H 2433.67 3.44344 2.33238 0
M  V30 25462 H 2432.25 1.85106 3.23713 0
M  V30 25463 N 2434.43 -0.890264 1.30046 0
M  V30 25464 C 2435.36 -2.00089 1.1179 0
M  V30 25465 C 2436.38 -1.62679 0.0626593 0
M  V30 25466 O 2437.56 -1.7582 0.308143 0
M  V30 25467 C 2434.66 -3.31975 0.681585 0
M  V30 25468 C 2433.84 -3.97855 1.81742 0
M  V30 25469 C 2432.9 -5.08038 1.37054 0
M  V30 25470 O 2431.92 -5.29957 2.07687 0
M  V30 25471 N 2433.12 -5.79976 0.246627 0
M  V30 25472 H 2435.89 -2.16302 2.07445 0
M  V30 25473 H 2433.45 -1.06303 1.22112 0
M  V30 25474 H 2435.44 -4.03044 0.365746 0
M  V30 25475 H 2434.01 -3.12065 -0.182773 0
M  V30 25476 H 2433.23 -3.20028 2.30165 0
M  V30 25477 H 2434.52 -4.3861 2.57873 0
M  V30 25478 H 2433.92 -5.64665 -0.342051 0
M  V30 25479 H 2432.48 -6.51799 -0.00978981 0
M  V30 25480 N 2435.91 -1.12676 -1.1019 0
M  V30 25481 C 2436.87 -0.800017 -2.14784 0
M  V30 25482 C 2437.87 0.186822 -1.59711 0
M  V30 25483 O 2439.06 -0.0392864 -1.74156 0
M  V30 25484 C 2436.19 -0.189287 -3.40374 0
M  V30 25485 H 2437.39 -1.72676 -2.452 0
M  V30 25486 H 2434.94 -0.930348 -1.25595 0
M  V30 25487 H 2435.67 0.747051 -3.15578 0
M  V30 25488 H 2435.46 -0.899833 -3.81635 0
M  V30 25489 H 2436.95 0.0227409 -4.17594 0
M  V30 25490 N 2437.39 1.28028 -0.919057 0
M  V30 25491 C 2438.3 2.30868 -0.416796 0
M  V30 25492 C 2439.31 1.66715 0.498206 0
M  V30 25493 O 2440.49 1.97723 0.383109 0
M  V30 25494 C 2437.55 3.45124 0.330213 0
M  V30 25495 C 2436.61 4.24819 -0.618652 0
M  V30 25496 C 2435.85 5.33619 0.0928021 0
M  V30 25497 O 2436.07 5.55067 1.31365 0
M  V30 25498 O 2435 5.99151 -0.574604 0
M  V30 25499 H 2438.83 2.75849 -1.27048 0
M  V30 25500 H 2436.42 1.32819 -0.684075 0
M  V30 25501 H 2438.3 4.14638 0.751899 0
M  V30 25502 H 2436.97 3.02215 1.15964 0
M  V30 25503 H 2435.88 3.57873 -1.08984 0
M  V30 25504 H 2437.21 4.7142 -1.41505 0
M  V30 25505 N 2438.86 0.683613 1.42002 0
M  V30 25506 C 2440.14 0.13811 1.95112 0
M  V30 25507 C 2440.52 -1.34915 1.62361 0
M  V30 25508 O 2439.87 -2.08969 0.924348 0
M  V30 25509 C 2440.08 0.416642 3.46504 0
M  V30 25510 C 2441.43 0.337908 4.23253 0
M  V30 25511 O 2442.45 0.350882 3.54468 0
M  V30 25512 O 2441.31 0.287692 5.45742 0
M  V30 25513 H 2438.4 0.0079945 0.826961 0
M  V30 25514 H 2440.95 0.758951 1.51783 0
M  V30 25515 H 2439.72 1.44657 3.6358 0
M  V30 25516 H 2439.35 -0.23577 3.969 0
M  V30 25517 N 2440.34 -1.5169 0.427538 0
M  V30 25518 C 2441.57 -2.06903 -0.143565 0
M  V30 25519 C 2441.99 -1.29384 -1.36533 0
M  V30 25520 O 2441.35 -0.329074 -1.78289 0
M  V30 25521 C 2441.4 -3.57729 -0.454144 0
M  V30 25522 O 2440.5 -3.82478 -1.54222 0
M  V30 25523 H 2439.84 -0.663971 -0.00615961 0
M  V30 25524 H 2442.37 -1.95418 0.606048 0
M  V30 25525 H 2442.38 -4.0182 -0.707455 0
M  V30 25526 H 2441.06 -4.13578 0.438885 0
M  V30 25527 H 2439.64 -3.50257 -1.27963 0
M  V30 25528 N 2441.82 -0.15856 -1.568 0
M  V30 25529 C 2443.1 0.535324 -1.88132 0
M  V30 25530 C 2443.48 1.82184 -1.06641 0
M  V30 25531 O 2442.83 2.27963 -0.156573 0
M  V30 25532 C 2443.04 0.789593 -3.39951 0
M  V30 25533 C 2444.38 1.12526 -4.09418 0
M  V30 25534 O 2445.41 0.878562 -3.45195 0
M  V30 25535 O 2444.27 1.59005 -5.22857 0
M  V30 25536 H 2441.36 0.274406 -0.780148 0
M  V30 25537 H 2443.91 -0.196039 -1.68564 0
M  V30 25538 H 2442.68 -0.120422 -3.91115 0
M  V30 25539 H 2442.3 1.57473 -3.65086 0
M  V30 25540 N 2443.3 1.57178 0.115204 0
M  V30 25541 C 2444.21 2.0392 1.1599 0
M  V30 25542 C 2445.23 0.960293 1.45101 0
M  V30 25543 O 2446.4 1.27207 1.56142 0
M  V30 25544 C 2443.47 2.43736 2.46563 0
M  V30 25545 C 2442.53 3.65727 2.24815 0
M  V30 25546 C 2441.76 4.03635 3.49163 0
M  V30 25547 O 2441.98 3.41843 4.56617 0
M  V30 25548 O 2440.92 4.96714 3.3994 0
M  V30 25549 H 2444.74 2.93165 0.792968 0
M  V30 25550 H 2442.33 1.45794 0.326274 0
M  V30 25551 H 2444.21 2.70063 3.23487 0
M  V30 25552 H 2442.89 1.57636 2.82723 0
M  V30 25553 H 2441.79 3.44545 1.45738 0
M  V30 25554 H 2443.13 4.52544 1.93558 0
M  V30 25555 N 2444.78 -0.38549 1.52813 0
M  V30 25556 C 2446.05 -1.14462 1.58612 0
M  V30 25557 C 2446.43 -2.07625 0.381438 0
M  V30 25558 O 2445.78 -2.19645 -0.62996 0
M  V30 25559 C 2445.99 -1.90123 2.92668 0
M  V30 25560 C 2447.34 -2.45361 3.4653 0
M  V30 25561 O 2448.36 -2.00275 2.94565 0
M  V30 25562 O 2447.22 -3.27728 4.37329 0
M  V30 25563 H 2444.32 -0.52393 0.639865 0
M  V30 25564 H 2446.86 -0.39036 1.65149 0
M  V30 25565 H 2445.64 -1.22015 3.7179 0
M  V30 25566 H 2445.26 -2.72502 2.89531 0
M  V30 25567 N 2446.26 -1.43835 -0.644143 0
M  V30 25568 C 2447.48 -1.49607 -1.4364 0
M  V30 25569 C 2447.91 -0.117946 -1.8773 0
M  V30 25570 O 2447.26 0.890211 -1.5794 0
M  V30 25571 C 2447.31 -2.45468 -2.64155 0
M  V30 25572 O 2446.42 -1.94721 -3.63535 0
M  V30 25573 H 2445.76 -0.505688 -0.43032 0
M  V30 25574 H 2448.29 -1.88841 -0.787415 0
M  V30 25575 H 2448.3 -2.63073 -3.1186 0
M  V30 25576 H 2446.97 -3.45576 -2.31408 0
M  V30 25577 H 2445.55 -1.8682 -3.22727 0
M  V30 25578 N 2447.73 0.883355 -1.30517 0
M  V30 25579 C 2448.66 2.00538 -1.1961 0
M  V30 25580 C 2449.64 1.69881 -0.0863759 0
M  V30 25581 O 2450.83 1.92332 -0.268687 0
M  V30 25582 C 2447.96 3.35734 -0.888817 0
M  V30 25583 C 2446.91 3.80656 -1.95665 0
M  V30 25584 C 2446.24 5.13161 -1.50233 0
M  V30 25585 C 2447.54 3.99207 -3.36795 0
M  V30 25586 H 2449.23 2.09921 -2.13479 0
M  V30 25587 H 2446.78 1.00861 -1.02776 0
M  V30 25588 H 2448.73 4.13753 -0.799167 0
M  V30 25589 H 2447.46 3.26488 0.0855552 0
M  V30 25590 H 2446.12 3.04867 -2.03597 0
M  V30 25591 H 2445.76 5.00344 -0.51618 0
M  V30 25592 H 2445.46 5.44188 -2.21659 0
M  V30 25593 H 2446.99 5.93703 -1.4265 0
M  V30 25594 H 2448.4 4.6766 -3.31613 0
M  V30 25595 H 2446.8 4.41614 -4.06322 0
M  V30 25596 H 2447.87 3.03011 -3.78566 0
M  V30 25597 N 2449.21 1.13259 1.09591 0
M  V30 25598 C 2450.45 0.903504 1.83347 0
M  V30 25599 C 2450.82 -0.560319 1.83642 0
M  V30 25600 O 2452.02 -0.906903 2.53039 0
M  V30 25601 C 2450.29 1.47317 3.25626 0
M  V30 25602 S 2451.85 1.38389 4.16406 0
M  V30 25603 H 2448.66 0.32571 0.632008 0
M  V30 25604 H 2451.27 1.44379 1.31814 0
M  V30 25605 H 2449.97 2.53195 3.22987 0
M  V30 25606 H 2449.5 0.930756 3.82231 0
M  V30 25607 H 2451.52 0.3612 4.94884 0
M  V30 25608 N 2450.69 -1.27539 0.925834 0
M  V30 25609 C 2451.64 -2.28887 0.413937 0
M  V30 25610 C 2452.63 -1.6183 -0.50075 0
M  V30 25611 O 2453.84 -1.75929 -0.380659 0
M  V30 25612 H 2450.21 -0.74311 0.115287 0
M  V30 25613 H 2452.18 -2.69478 1.28156 0
M  V30 25614 C 2450.93 -3.46227 -0.319731 0
M  V30 25615 H 2450.26 -3.98038 0.374916 0
M  V30 25616 H 2451.7 -4.19106 -0.642362 0
M  V30 25617 C 2450.15 -3.0005 -1.53204 0
M  V30 25618 O 2450.68 -3.03562 -2.63084 0
M  V30 25619 N 2448.89 -2.55569 -1.38322 0
M  V30 25620 H 2448.44 -2.52911 -0.489248 0
M  V30 25621 H 2448.4 -2.25035 -2.1956 0
M  V30 25622 N 2452.17 -0.691135 -1.41637 0
M  V30 25623 C 2453.11 -0.023011 -2.30789 0
M  V30 25624 C 2454.08 0.775885 -1.46865 0
M  V30 25625 O 2455.27 0.744819 -1.75662 0
M  V30 25626 C 2452.41 0.910607 -3.32869 0
M  V30 25627 C 2451.52 0.103798 -4.31875 0
M  V30 25628 C 2450.66 1.03465 -5.21026 0
M  V30 25629 C 2449.7 0.22049 -6.11703 0
M  V30 25630 N 2448.83 1.10491 -6.93351 0
M  V30 25631 H 2453.67 -0.789029 -2.87364 0
M  V30 25632 H 2451.21 -0.400819 -1.41534 0
M  V30 25633 H 2453.17 1.4659 -3.90599 0
M  V30 25634 H 2451.8 1.64307 -2.77854 0
M  V30 25635 H 2450.85 -0.568351 -3.7613 0
M  V30 25636 H 2452.16 -0.527591 -4.96002 0
M  V30 25637 H 2451.32 1.65932 -5.83568 0
M  V30 25638 H 2450.06 1.69991 -4.57115 0
M  V30 25639 H 2449.06 -0.417283 -5.48214 0
M  V30 25640 H 2450.29 -0.440903 -6.77667 0
M  V30 25641 H 2448.23 1.75627 -6.32053 0
M  V30 25642 H 2448.15 0.528992 -7.54147 0
M  V30 25643 H 2449.42 1.71654 -7.60365 0
M  V30 25644 N 2453.65 1.51461 -0.435577 0
M  V30 25645 C 2454.58 2.30592 0.367336 0
M  V30 25646 C 2455.56 1.3593 1.0226 0
M  V30 25647 O 2456.74 1.64848 1.02658 0
M  V30 25648 C 2453.87 3.14667 1.46977 0
M  V30 25649 C 2452.83 4.17593 0.938088 0
M  V30 25650 C 2452.15 4.90177 2.13614 0
M  V30 25651 C 2453.45 5.22293 -0.0262539 0
M  V30 25652 H 2455.15 2.97963 -0.293022 0
M  V30 25653 H 2452.69 1.43295 -0.142365 0
M  V30 25654 H 2454.64 3.68804 2.03867 0
M  V30 25655 H 2453.37 2.45114 2.15839 0
M  V30 25656 H 2452.03 3.64504 0.391417 0
M  V30 25657 H 2451.68 4.17129 2.81091 0
M  V30 25658 H 2451.38 5.59775 1.78678 0
M  V30 25659 H 2452.9 5.47137 2.7106 0
M  V30 25660 H 2454.31 5.71513 0.452284 0
M  V30 25661 H 2452.71 5.99408 -0.288097 0
M  V30 25662 H 2453.78 4.75232 -0.963474 0
M  V30 25663 N 2455.12 0.166873 1.56714 0
M  V30 25664 C 2456.36 -0.481728 1.98642 0
M  V30 25665 C 2456.73 -1.60719 1.05041 0
M  V30 25666 O 2457.93 -2.31803 1.36091 0
M  V30 25667 C 2456.2 -0.956457 3.44364 0
M  V30 25668 S 2457.76 -1.60687 4.0832 0
M  V30 25669 H 2454.58 -0.155104 0.693876 0
M  V30 25670 H 2457.18 0.263285 1.93719 0
M  V30 25671 H 2455.88 -0.126863 4.10204 0
M  V30 25672 H 2455.41 -1.73562 3.53044 0
M  V30 25673 H 2457.43 -2.89486 4.03004 0
M  V30 25674 N 2456.6 -1.57237 -0.106866 0
M  V30 25675 C 2457.83 -1.89681 -0.826356 0
M  V30 25676 C 2458.25 -0.759383 -1.72855 0
M  V30 25677 O 2457.6 0.269231 -1.80503 0
M  V30 25678 C 2457.65 -3.21667 -1.64961 0
M  V30 25679 O 2457.37 -4.31033 -0.783728 0
M  V30 25680 C 2458.88 -3.67896 -2.4732 0
M  V30 25681 H 2456.1 -0.627783 -0.236916 0
M  V30 25682 H 2458.64 -2.04312 -0.0876234 0
M  V30 25683 H 2456.79 -3.0867 -2.34098 0
M  V30 25684 H 2457.21 -5.06755 -1.35275 0
M  V30 25685 H 2458.68 -4.62976 -3.00595 0
M  V30 25686 H 2459.16 -2.95152 -3.25241 0
M  V30 25687 H 2459.77 -3.83723 -1.83404 0
M  V30 25688 N 2458.08 0.377381 -1.53015 0
M  V30 25689 C 2459.33 1.12125 -1.68625 0
M  V30 25690 C 2459.66 1.89641 -0.43203 0
M  V30 25691 O 2458.91 1.86726 0.585822 0
M  V30 25692 C 2459.21 2.11657 -2.87986 0
M  V30 25693 C 2458.88 1.50711 -4.24967 0
M  V30 25694 C 2457.54 1.33817 -4.62219 0
M  V30 25695 C 2459.89 1.0651 -5.10201 0
M  V30 25696 C 2457.22 0.712861 -5.82353 0
M  V30 25697 C 2459.57 0.453844 -6.3097 0
M  V30 25698 C 2458.23 0.272294 -6.66944 0
M  V30 25699 H 2457.5 0.410294 -0.617041 0
M  V30 25700 H 2460.15 0.404452 -1.8718 0
M  V30 25701 H 2458.46 2.89598 -2.63894 0
M  V30 25702 H 2460.15 2.69145 -2.97258 0
M  V30 25703 H 2456.74 1.64851 -3.95629 0
M  V30 25704 H 2460.93 1.1836 -4.8198 0
M  V30 25705 H 2456.18 0.560504 -6.08825 0
M  V30 25706 H 2460.36 0.103094 -6.96324 0
M  V30 25707 H 2457.98 -0.214314 -7.59898 0
M  V30 25708 N 2459.56 1.44175 0.636506 0
M  V30 25709 C 2460.79 1.50147 1.4235 0
M  V30 25710 C 2461.2 0.124608 1.88388 0
M  V30 25711 O 2460.56 -0.868461 1.60512 0
M  V30 25712 C 2460.61 2.46161 2.6474 0
M  V30 25713 O 2460.33 3.78494 2.20622 0
M  V30 25714 C 2461.83 2.61543 3.57925 0
M  V30 25715 H 2459.05 0.509408 0.436743 0
M  V30 25716 H 2461.6 1.89086 0.7789 0
M  V30 25717 H 2459.75 2.10372 3.25303 0
M  V30 25718 H 2460.16 4.30281 2.99931 0
M  V30 25719 H 2461.64 3.32764 4.40422 0
M  V30 25720 H 2462.12 1.66592 4.06379 0
M  V30 25721 H 2462.72 2.98211 3.03233 0
M  V30 25722 N 2461.04 -0.876421 1.30983 0
M  V30 25723 C 2462.29 -1.6237 1.19661 0
M  V30 25724 C 2462.6 -1.94052 -0.245601 0
M  V30 25725 O 2463.8 -2.67215 -0.480443 0
M  V30 25726 C 2462.26 -2.92684 2.09438 0
M  V30 25727 C 2461.87 -2.6851 3.58617 0
M  V30 25728 C 2463.61 -3.70665 2.06899 0
M  V30 25729 C 2461.52 -3.94691 4.40423 0
M  V30 25730 H 2460.45 -0.609206 0.444279 0
M  V30 25731 H 2463.1 -0.969578 1.55793 0
M  V30 25732 H 2461.48 -3.59436 1.66198 0
M  V30 25733 H 2462.66 -2.10205 4.10061 0
M  V30 25734 H 2460.97 -2.03892 3.63066 0
M  V30 25735 H 2463.57 -4.64261 2.65266 0
M  V30 25736 H 2463.91 -4.02722 1.05455 0
M  V30 25737 H 2464.44 -3.10788 2.48306 0
M  V30 25738 H 2461.18 -3.67789 5.42597 0
M  V30 25739 H 2460.7 -4.5247 3.93739 0
M  V30 25740 H 2462.38 -4.62636 4.52302 0
M  V30 25741 N 2462.51 -1.13839 -1.08989 0
M  V30 25742 C 2463.74 -0.926235 -1.85009 0
M  V30 25743 C 2464.16 0.525096 -1.81351 0
M  V30 25744 O 2463.51 1.36364 -1.21289 0
M  V30 25745 C 2463.57 -1.41161 -3.328 0
M  V30 25746 O 2463.29 -2.80607 -3.36439 0
M  V30 25747 C 2464.79 -1.23855 -4.25647 0
M  V30 25748 H 2462.01 -0.330001 -0.584244 0
M  V30 25749 H 2464.55 -1.51205 -1.37686 0
M  V30 25750 H 2462.71 -0.868697 -3.77535 0
M  V30 25751 H 2463.12 -3.02255 -4.28651 0
M  V30 25752 H 2464.59 -1.62685 -5.27482 0
M  V30 25753 H 2465.07 -0.180728 -4.38828 0
M  V30 25754 H 2465.68 -1.76971 -3.86732 0
M  V30 25755 N 2463.99 1.27046 -0.932584 0
M  V30 25756 C 2464.92 2.25809 -0.392774 0
M  V30 25757 C 2465.94 1.55587 0.479213 0
M  V30 25758 O 2467.13 1.76111 0.291047 0
M  V30 25759 C 2464.23 3.35826 0.455397 0
M  V30 25760 C 2463.4 4.35582 -0.398431 0
M  V30 25761 C 2462.46 5.24768 0.387893 0
M  V30 25762 O 2461.48 5.68827 -0.206103 0
M  V30 25763 N 2462.69 5.5546 1.68654 0
M  V30 25764 H 2465.45 2.72764 -1.24178 0
M  V30 25765 H 2463.01 1.40723 -0.800536 0
M  V30 25766 H 2465 3.92439 0.988623 0
M  V30 25767 H 2463.57 2.88434 1.20517 0
M  V30 25768 H 2462.79 3.78163 -1.11293 0
M  V30 25769 H 2464.08 4.99234 -0.981977 0
M  V30 25770 H 2463.48 5.21531 2.19138 0
M  V30 25771 H 2462.04 6.14752 2.16619 0
M  V30 25772 N 2465.47 0.698636 1.41269 0
M  V30 25773 C 2466.42 0.03525 2.30773 0
M  V30 25774 C 2467.39 -0.768085 1.47274 0
M  V30 25775 O 2468.57 -0.735493 1.76054 0
M  V30 25776 C 2465.71 -0.892941 3.33348 0
M  V30 25777 C 2464.83 -0.0808935 4.31924 0
M  V30 25778 C 2463.96 -1.00701 5.21568 0
M  V30 25779 C 2463 -0.188047 6.11811 0
M  V30 25780 N 2462.14 -1.06813 6.93928 0
M  V30 25781 H 2466.98 0.804257 2.86942 0
M  V30 25782 H 2464.51 0.408319 1.41319 0
M  V30 25783 H 2466.47 -1.44516 3.9137 0
M  V30 25784 H 2465.1 -1.62831 2.78722 0
M  V30 25785 H 2464.15 0.58829 3.75824 0
M  V30 25786 H 2465.47 0.553888 4.95715 0
M  V30 25787 H 2464.62 -1.62835 5.8444 0
M  V30 25788 H 2463.36 -1.67564 4.5801 0
M  V30 25789 H 2462.36 0.44635 5.47985 0
M  V30 25790 H 2463.59 0.476835 6.77424 0
M  V30 25791 H 2461.53 -1.72272 6.32976 0
M  V30 25792 H 2461.45 -0.48899 7.54417 0
M  V30 25793 H 2462.72 -1.67619 7.61265 0
M  V30 25794 N 2466.95 -1.51228 0.443603 0
M  V30 25795 C 2467.86 -2.31653 -0.37068 0
M  V30 25796 C 2468.87 -1.40835 -1.02183 0
M  V30 25797 O 2470.05 -1.73905 -1.01583 0
M  V30 25798 C 2467.12 -3.14751 -1.4537 0
M  V30 25799 C 2466.18 -4.21356 -0.822025 0
M  V30 25800 C 2465.41 -5.00483 -1.85344 0
M  V30 25801 O 2465.63 -4.80322 -3.07648 0
M  V30 25802 O 2464.57 -5.84409 -1.44049 0
M  V30 25803 H 2468.39 -3.0235 0.286055 0
M  V30 25804 H 2465.98 -1.47973 0.206006 0
M  V30 25805 H 2467.86 -3.66394 -2.08166 0
M  V30 25806 H 2466.53 -2.46812 -2.09441 0
M  V30 25807 H 2465.44 -3.73775 -0.155843 0
M  V30 25808 H 2466.77 -4.91687 -0.22471 0
M  V30 25809 N 2468.43 -0.175182 -1.56623 0
M  V30 25810 C 2469.67 0.468777 -1.96999 0
M  V30 25811 C 2470 1.62992 -1.06132 0
M  V30 25812 O 2469.26 1.95463 -0.0962114 0
M  V30 25813 C 2469.56 0.989803 -3.43421 0
M  V30 25814 C 2469.22 -0.055848 -4.50865 0
M  V30 25815 C 2467.88 -0.343219 -4.79974 0
M  V30 25816 C 2470.24 -0.765399 -5.15549 0
M  V30 25817 C 2467.56 -1.34546 -5.71064 0
M  V30 25818 C 2469.92 -1.75665 -6.07721 0
M  V30 25819 C 2468.58 -2.05143 -6.35195 0
M  V30 25820 H 2467.85 0.171538 -0.720872 0
M  V30 25821 H 2470.5 -0.267957 -1.89616 0
M  V30 25822 H 2468.8 1.80443 -3.47775 0
M  V30 25823 H 2470.5 1.49712 -3.72004 0
M  V30 25824 H 2467.09 0.178305 -4.28229 0
M  V30 25825 H 2471.27 -0.556599 -4.93169 0
M  V30 25826 H 2466.53 -1.57998 -5.90632 0
M  V30 25827 H 2470.7 -2.31181 -6.56908 0
M  V30 25828 H 2468.33 -2.82952 -7.05579 0
M  V30 25829 N 2469.91 1.57292 0.0985263 0
M  V30 25830 C 2470.84 1.97059 1.15079 0
M  V30 25831 C 2471.82 0.84328 1.39024 0
M  V30 25832 O 2473 1.10327 1.5284 0
M  V30 25833 C 2470.13 2.28441 2.50065 0
M  V30 25834 C 2469.17 3.50904 2.42422 0
M  V30 25835 S 2470.01 5.02747 1.84405 0
M  V30 25836 C 2471.16 5.37304 3.21023 0
M  V30 25837 H 2471.4 2.86003 0.811764 0
M  V30 25838 H 2468.93 1.51336 0.306076 0
M  V30 25839 H 2470.89 2.47198 3.27724 0
M  V30 25840 H 2469.55 1.40074 2.81137 0
M  V30 25841 H 2468.74 3.70294 3.41904 0
M  V30 25842 H 2468.34 3.3164 1.7289 0
M  V30 25843 H 2470.63 5.33739 4.17288 0
M  V30 25844 H 2471.58 6.38357 3.06441 0
M  V30 25845 H 2471.99 4.64765 3.20396 0
M  V30 25846 N 2471.38 -0.369261 1.53213 0
M  V30 25847 C 2472.33 -1.4725 1.80056 0
M  V30 25848 C 2473.33 -1.55609 0.669484 0
M  V30 25849 O 2474.53 -1.5854 0.852355 0
M  V30 25850 H 2470.91 -0.490465 0.570042 0
M  V30 25851 H 2472.88 -1.21812 2.72405 0
M  V30 25852 C 2471.63 -2.84133 2.00408 0
M  V30 25853 H 2470.95 -2.78459 2.86881 0
M  V30 25854 H 2472.39 -3.60515 2.2317 0
M  V30 25855 C 2470.85 -3.27695 0.782139 0
M  V30 25856 O 2471.38 -4.01688 -0.0309499 0
M  V30 25857 N 2469.58 -2.84198 0.606623 0
M  V30 25858 H 2469.13 -2.2415 1.26943 0
M  V30 25859 H 2469.09 -3.13701 -0.209564 0
M  V30 25860 N 2472.86 -1.4451 -0.628851 0
M  V30 25861 C 2473.79 -1.47541 -1.75398 0
M  V30 25862 C 2474.81 -0.368534 -1.58574 0
M  V30 25863 O 2476 -0.634405 -1.66846 0
M  V30 25864 C 2473.1 -1.29583 -3.13148 0
M  V30 25865 C 2472.27 -2.53558 -3.56409 0
M  V30 25866 C 2471.33 -2.30466 -4.73046 0
M  V30 25867 O 2470.35 -3.03966 -4.81242 0
M  V30 25868 N 2471.56 -1.3367 -5.64901 0
M  V30 25869 H 2474.32 -2.44537 -1.73268 0
M  V30 25870 H 2471.88 -1.39979 -0.813487 0
M  V30 25871 H 2473.87 -1.11978 -3.889 0
M  V30 25872 H 2472.44 -0.409425 -3.09907 0
M  V30 25873 H 2471.66 -2.86423 -2.70842 0
M  V30 25874 H 2472.95 -3.36012 -3.82065 0
M  V30 25875 H 2472.35 -0.729703 -5.60974 0
M  V30 25876 H 2470.91 -1.22043 -6.40272 0
M  V30 25877 N 2474.34 0.869463 -1.31446 0
M  V30 25878 C 2475.29 1.96442 -1.15735 0
M  V30 25879 C 2476.27 1.60755 -0.0682138 0
M  V30 25880 O 2477.47 1.74555 -0.293184 0
M  V30 25881 C 2474.59 3.32163 -0.867313 0
M  V30 25882 C 2473.68 3.74116 -1.99745 0
M  V30 25883 N 2474.07 3.88025 -3.24454 0
M  V30 25884 C 2472.37 4.03632 -1.8973 0
M  V30 25885 C 2473.07 4.23872 -3.98381 0
M  V30 25886 N 2472.05 4.34584 -3.26554 0
M  V30 25887 H 2475.85 2.05308 -2.10299 0
M  V30 25888 H 2473.36 1.06029 -1.23011 0
M  V30 25889 H 2475.36 4.10357 -0.73574 0
M  V30 25890 H 2474.02 3.24624 0.0701043 0
M  V30 25891 H 2475.03 3.72739 -3.59563 0
M  V30 25892 H 2471.71 4.04479 -1.03456 0
M  V30 25893 H 2473.1 4.42226 -5.05852 0
M  V30 25894 N 2475.82 1.14415 1.08383 0
M  V30 25895 C 2477.06 0.923825 1.8121 0
M  V30 25896 C 2477.42 -0.543782 1.84556 0
M  V30 25897 O 2476.71 -1.39765 1.31058 0
M  V30 25898 C 2476.91 1.45885 3.2627 0
M  V30 25899 C 2476.73 2.97695 3.37058 0
M  V30 25900 C 2475.5 3.66144 3.48234 0
M  V30 25901 C 2477.7 3.95559 3.28691 0
M  V30 25902 N 2475.68 5.05864 3.47815 0
M  V30 25903 C 2477.06 5.21532 3.35267 0
M  V30 25904 C 2479.11 3.87675 3.1243 0
M  V30 25905 C 2477.81 6.40544 3.27256 0
M  V30 25906 C 2479.84 5.06233 3.05749 0
M  V30 25907 C 2479.2 6.31075 3.12927 0
M  V30 25908 H 2475.3 0.391586 0.676893 0
M  V30 25909 H 2477.88 1.45431 1.29452 0
M  V30 25910 H 2476.06 0.955136 3.76473 0
M  V30 25911 H 2477.79 1.17842 3.87163 0
M  V30 25912 H 2474.54 3.16698 3.52135 0
M  V30 25913 H 2474.97 5.78805 3.51161 0
M  V30 25914 H 2479.61 2.9203 3.05742 0
M  V30 25915 H 2477.33 7.36433 3.32705 0
M  V30 25916 H 2480.91 5.01883 2.94286 0
M  V30 25917 H 2479.79 7.21274 3.07787 0
M  V30 25918 N 2477.3 -1.26549 0.939309 0
M  V30 25919 C 2478.53 -1.97644 0.601697 0
M  V30 25920 C 2478.93 -1.7016 -0.827176 0
M  V30 25921 O 2478.28 -0.965366 -1.56289 0
M  V30 25922 C 2478.34 -3.51336 0.761787 0
M  V30 25923 C 2478 -4.02466 2.16494 0
M  V30 25924 C 2479 -4.14349 3.14024 0
M  V30 25925 C 2476.68 -4.36523 2.48501 0
M  V30 25926 C 2478.68 -4.59579 4.41662 0
M  V30 25927 C 2476.37 -4.81442 3.76373 0
M  V30 25928 C 2477.36 -4.92931 4.72766 0
M  V30 25929 O 2477.05 -5.3686 5.98361 0
M  V30 25930 H 2476.78 -0.637185 0.225769 0
M  V30 25931 H 2479.34 -1.62073 1.26181 0
M  V30 25932 H 2477.57 -3.86674 0.0445488 0
M  V30 25933 H 2479.26 -4.03642 0.427513 0
M  V30 25934 H 2480.02 -3.88285 2.90619 0
M  V30 25935 H 2475.9 -4.26816 1.74209 0
M  V30 25936 H 2479.45 -4.68461 5.16904 0
M  V30 25937 H 2475.34 -5.06949 3.99591 0
M  V30 25938 H 2476.11 -5.55086 6.01516 0
M  V30 25939 N 2478.77 -0.706118 -1.40896 0
M  V30 25940 C 2479.72 -0.0241147 -2.27987 0
M  V30 25941 C 2480.71 0.742179 -1.4276 0
M  V30 25942 O 2481.9 0.615937 -1.65937 0
M  V30 25943 C 2479.03 0.903849 -3.31188 0
M  V30 25944 C 2478.11 0.133244 -4.23891 0
M  V30 25945 N 2478.51 -0.878531 -4.98112 0
M  V30 25946 C 2476.8 0.367191 -4.44486 0
M  V30 25947 C 2477.5 -1.34074 -5.66038 0
M  V30 25948 N 2476.48 -0.66466 -5.39521 0
M  V30 25949 H 2480.28 -0.799708 -2.82811 0
M  V30 25950 H 2477.8 -0.537871 -1.53234 0
M  V30 25951 H 2479.79 1.40768 -3.92416 0
M  V30 25952 H 2478.45 1.67892 -2.77925 0
M  V30 25953 H 2479.46 -1.2591 -5.02362 0
M  V30 25954 H 2476.14 1.11933 -4.02215 0
M  V30 25955 H 2477.53 -2.18091 -6.3552 0
M  V30 25956 N 2480.25 1.50991 -0.451617 0
M  V30 25957 C 2481.49 2.04109 0.10903 0
M  V30 25958 C 2481.86 1.32749 1.38714 0
M  V30 25959 O 2483.06 1.76317 2.02893 0
M  V30 25960 C 2481.33 3.56068 0.308292 0
M  V30 25961 S 2482.89 4.30873 0.830294 0
M  V30 25962 H 2479.7 0.710555 0.0251406 0
M  V30 25963 H 2482.31 1.85598 -0.614297 0
M  V30 25964 H 2481.01 4.05566 -0.628033 0
M  V30 25965 H 2480.54 3.78898 1.05829 0
M  V30 25966 H 2482.56 4.49282 2.10618 0
M  V30 25967 N 2481.73 0.183486 1.56528 0
M  V30 25968 C 2482.68 -0.754567 2.15152 0
M  V30 25969 C 2483.66 -1.18441 1.08906 0
M  V30 25970 O 2484.86 -1.14474 1.34999 0
M  V30 25971 C 2481.98 -1.97876 2.80535 0
M  V30 25972 C 2481.07 -1.57036 3.93955 0
M  V30 25973 N 2481.46 -0.872223 4.98223 0
M  V30 25974 C 2479.76 -1.8605 4.05341 0
M  V30 25975 C 2480.46 -0.669276 5.77837 0
M  V30 25976 N 2479.44 -1.21445 5.2986 0
M  V30 25977 H 2483.24 -0.212335 2.93132 0
M  V30 25978 H 2480.75 -0.016744 1.62391 0
M  V30 25979 H 2482.75 -2.66115 3.20918 0
M  V30 25980 H 2481.41 -2.52583 2.04039 0
M  V30 25981 H 2482.42 -0.528942 5.15192 0
M  V30 25982 H 2479.1 -2.42348 3.39961 0
M  V30 25983 H 2480.49 -0.116304 6.71799 0
M  V30 25984 N 2483.21 -1.57342 -0.0901833 0
M  V30 25985 C 2484.44 -1.90547 -0.806191 0
M  V30 25986 C 2484.85 -0.777674 -1.7204 0
M  V30 25987 O 2484.21 0.250071 -1.80779 0
M  V30 25988 C 2484.26 -3.23399 -1.6154 0
M  V30 25989 O 2483.98 -4.3184 -0.737967 0
M  V30 25990 C 2485.48 -3.70499 -2.43404 0
M  V30 25991 H 2482.7 -0.630261 -0.230245 0
M  V30 25992 H 2485.24 -2.04394 -0.0659484 0
M  V30 25993 H 2483.4 -3.11135 -2.30811 0
M  V30 25994 H 2483.81 -5.08162 -1.29893 0
M  V30 25995 H 2485.29 -4.66138 -2.95668 0
M  V30 25996 H 2485.76 -2.98585 -3.22093 0
M  V30 25997 H 2486.37 -3.85646 -1.79324 0
M  V30 25998 N 2484.69 0.36113 -1.53407 0
M  V30 25999 C 2485.93 1.11194 -1.71509 0
M  V30 26000 C 2486.29 1.86424 -0.45937 0
M  V30 26001 O 2487.49 2.63778 -0.517148 0
M  V30 26002 C 2485.76 2.04215 -2.93311 0
M  V30 26003 S 2487.32 2.86755 -3.3214 0
M  V30 26004 H 2484.14 0.375984 -0.603454 0
M  V30 26005 H 2486.74 0.392609 -1.91517 0
M  V30 26006 H 2485.45 1.47717 -3.82894 0
M  V30 26007 H 2484.98 2.80613 -2.75717 0
M  V30 26008 H 2486.99 4.06539 -2.845 0
M  V30 26009 N 2486.16 1.44842 0.621179 0
M  V30 26010 C 2487.11 1.52473 1.73265 0
M  V30 26011 C 2488.08 0.37164 1.61889 0
M  V30 26012 O 2489.27 0.583242 1.81667 0
M  V30 26013 C 2486.41 1.48443 3.11542 0
M  V30 26014 C 2485.52 2.74202 3.33822 0
M  V30 26015 C 2484.65 2.61937 4.62128 0
M  V30 26016 C 2483.69 3.82812 4.7762 0
M  V30 26017 N 2482.83 3.69164 5.97212 0
M  V30 26018 H 2487.67 2.47431 1.66078 0
M  V30 26019 H 2485.21 1.2279 0.810005 0
M  V30 26020 H 2487.17 1.44097 3.91525 0
M  V30 26021 H 2485.8 0.570458 3.17719 0
M  V30 26022 H 2484.85 2.88694 2.4771 0
M  V30 26023 H 2486.16 3.63896 3.41146 0
M  V30 26024 H 2485.31 2.5548 5.50286 0
M  V30 26025 H 2484.05 1.69819 4.57179 0
M  V30 26026 H 2483.06 3.89644 3.87889 0
M  V30 26027 H 2484.28 4.75979 4.84376 0
M  V30 26028 H 2482.23 2.79805 5.93334 0
M  V30 26029 H 2482.15 4.52483 6.05636 0
M  V30 26030 H 2483.41 3.66615 6.87905 0
M  V30 26031 N 2487.64 -0.862479 1.31905 0
M  V30 26032 C 2488.58 -1.97386 1.14517 0
M  V30 26033 C 2489.55 -1.62533 0.0466778 0
M  V30 26034 O 2490.74 -1.87387 0.204517 0
M  V30 26035 C 2487.86 -3.3026 0.751405 0
M  V30 26036 C 2486.91 -3.84094 1.85402 0
M  V30 26037 S 2487.74 -4.08636 3.46088 0
M  V30 26038 C 2488.9 -5.44497 3.08665 0
M  V30 26039 H 2489.13 -2.11833 2.08601 0
M  V30 26040 H 2486.67 -1.01354 1.16476 0
M  V30 26041 H 2488.62 -4.07052 0.530972 0
M  V30 26042 H 2487.28 -3.13637 -0.170438 0
M  V30 26043 H 2486.48 -4.80174 1.53131 0
M  V30 26044 H 2486.08 -3.1412 2.0299 0
M  V30 26045 H 2488.37 -6.26443 2.58023 0
M  V30 26046 H 2489.31 -5.81724 4.03736 0
M  V30 26047 H 2489.72 -5.08128 2.45899 0
M  V30 26048 N 2489.12 -1.14988 -1.07775 0
M  V30 26049 C 2490.37 -0.923454 -1.80555 0
M  V30 26050 C 2490.7 0.548304 -1.86299 0
M  V30 26051 O 2489.97 1.40637 -1.34356 0
M  V30 26052 C 2490.26 -1.53305 -3.25837 0
M  V30 26053 C 2490.11 -3.07511 -3.28264 0
M  V30 26054 C 2491.43 -1.21526 -4.22989 0
M  V30 26055 H 2488.55 -0.336906 -0.655487 0
M  V30 26056 H 2491.19 -1.42085 -1.26142 0
M  V30 26057 H 2489.34 -1.11006 -3.72304 0
M  V30 26058 H 2491.01 -3.58686 -2.90073 0
M  V30 26059 H 2489.26 -3.41624 -2.67349 0
M  V30 26060 H 2489.93 -3.45274 -4.30685 0
M  V30 26061 H 2492.4 -1.58107 -3.84891 0
M  V30 26062 H 2491.28 -1.66802 -5.22942 0
M  V30 26063 H 2491.54 -0.131582 -4.41904 0
M  V30 26064 N 2490.6 1.26049 -0.946007 0
M  V30 26065 C 2491.88 1.8873 -0.513849 0
M  V30 26066 C 2492.26 1.85442 1.00869 0
M  V30 26067 O 2491.6 1.31203 1.87077 0
M  V30 26068 C 2491.81 3.31847 -1.08067 0
M  V30 26069 C 2493.16 4.08666 -1.15227 0
M  V30 26070 O 2494.19 3.40935 -1.03161 0
M  V30 26071 O 2493.04 5.29804 -1.34054 0
M  V30 26072 H 2490.14 0.809713 -0.168207 0
M  V30 26073 H 2492.68 1.34184 -1.03888 0
M  V30 26074 H 2491.46 3.28626 -2.12416 0
M  V30 26075 H 2491.08 3.93938 -0.538376 0
M  V30 26076 N 2492.08 0.71358 1.4052 0
M  V30 26077 C 2493.32 0.251727 2.00526 0
M  V30 26078 C 2493.65 -1.15845 1.56859 0
M  V30 26079 O 2492.92 -1.78499 0.807159 0
M  V30 26080 H 2491.5 0.0900777 0.741549 0
M  V30 26081 H 2494.16 0.918763 1.71886 0
M  V30 26082 H 2493.25 0.283246 3.10812 0
M  V30 26083 N 2493.55 -1.50749 0.459618 0
M  V30 26084 C 2494.8 -2.02556 -0.099461 0
M  V30 26085 C 2495.13 -1.34173 -1.40397 0
M  V30 26086 O 2494.41 -0.463716 -1.88891 0
M  V30 26087 C 2494.69 -3.58888 -0.295179 0
M  V30 26088 C 2494.54 -4.37859 1.02954 0
M  V30 26089 C 2495.86 -4.27269 -1.05495 0
M  V30 26090 H 2492.98 -0.736184 -0.0346731 0
M  V30 26091 H 2495.62 -1.80178 0.60297 0
M  V30 26092 H 2493.77 -3.78086 -0.893497 0
M  V30 26093 H 2495.45 -4.3026 1.66356 0
M  V30 26094 H 2493.69 -4.02056 1.62892 0
M  V30 26095 H 2494.36 -5.45473 0.846377 0
M  V30 26096 H 2496.84 -4.12477 -0.547921 0
M  V30 26097 H 2495.71 -5.36488 -1.16068 0
M  V30 26098 H 2495.97 -3.89649 -2.08868 0
M  V30 26099 N 2495.03 -0.191784 -1.56429 0
M  V30 26100 C 2496.28 0.446971 -1.97095 0
M  V30 26101 C 2496.6 1.62381 -1.0797 0
M  V30 26102 O 2495.87 1.95323 -0.150282 0
M  V30 26103 H 2494.45 0.168122 -0.727835 0
M  V30 26104 H 2497.11 -0.277744 -1.92911 0
M  V30 26105 H 2496.21 0.793318 -3.01849 0
M  V30 26106 N 2496.51 1.57387 0.0818378 0
M  V30 26107 C 2497.76 1.87031 0.784041 0
M  V30 26108 C 2498.09 0.78272 1.77728 0
M  V30 26109 O 2497.36 -0.208017 1.93384 0
M  V30 26110 C 2497.65 3.27326 1.50099 0
M  V30 26111 C 2497.5 4.46727 0.524847 0
M  V30 26112 C 2498.82 3.65709 2.44837 0
M  V30 26113 H 2495.94 0.680262 0.28357 0
M  V30 26114 H 2498.58 1.89941 0.0474019 0
M  V30 26115 H 2496.73 3.24976 2.12891 0
M  V30 26116 H 2498.4 4.61198 -0.0970922 0
M  V30 26117 H 2496.65 4.33502 -0.160682 0
M  V30 26118 H 2497.32 5.4165 1.06391 0
M  V30 26119 H 2499.79 3.69088 1.92128 0
M  V30 26120 H 2498.67 4.64781 2.9201 0
M  V30 26121 H 2498.93 2.95101 3.29192 0
M  V30 26122 N 2497.99 -0.35299 1.53596 0
M  V30 26123 C 2499.23 -1.10283 1.72096 0
M  V30 26124 C 2499.59 -1.86177 0.46925 0
M  V30 26125 O 2500.79 -2.635 0.53113 0
M  V30 26126 C 2499.06 -2.02656 2.9439 0
M  V30 26127 S 2500.62 -2.8499 3.33656 0
M  V30 26128 H 2497.44 -0.372778 0.60544 0
M  V30 26129 H 2500.04 -0.382447 1.91723 0
M  V30 26130 H 2498.75 -1.45685 3.83672 0
M  V30 26131 H 2498.28 -2.79147 2.77201 0
M  V30 26132 H 2500.29 -4.05025 2.86652 0
M  V30 26133 N 2499.47 -1.45169 -0.613489 0
M  V30 26134 C 2500.7 -1.52393 -1.39943 0
M  V30 26135 C 2501.11 -0.154564 -1.88166 0
M  V30 26136 O 2500.47 0.842815 -1.61873 0
M  V30 26137 C 2500.52 -2.50341 -2.6079 0
M  V30 26138 O 2500.24 -3.81956 -2.14573 0
M  V30 26139 C 2501.74 -2.67204 -3.53718 0
M  V30 26140 H 2498.96 -0.516292 -0.428584 0
M  V30 26141 H 2501.5 -1.90301 -0.74872 0
M  V30 26142 H 2499.66 -2.15521 -3.21915 0
M  V30 26143 H 2500.07 -4.34998 -2.93047 0
M  V30 26144 H 2501.55 -3.39729 -4.35073 0
M  V30 26145 H 2502.02 -1.73036 -4.03677 0
M  V30 26146 H 2502.63 -3.02997 -2.9845 0
M  V30 26147 N 2500.95 0.855472 -1.32361 0
M  V30 26148 C 2502.19 1.61198 -1.23057 0
M  V30 26149 C 2502.52 1.9309 0.20737 0
M  V30 26150 O 2501.8 1.57278 1.14429 0
M  V30 26151 C 2502.08 2.93284 -2.08942 0
M  V30 26152 C 2501.94 2.68179 -3.6111 0
M  V30 26153 C 2503.25 3.94545 -1.94993 0
M  V30 26154 H 2500.37 0.584919 -0.448374 0
M  V30 26155 H 2503.02 0.987888 -1.62298 0
M  V30 26156 H 2501.17 3.46548 -1.75605 0
M  V30 26157 H 2502.84 2.21475 -4.04656 0
M  V30 26158 H 2501.08 2.02158 -3.83816 0
M  V30 26159 H 2501.75 3.62227 -4.16528 0
M  V30 26160 H 2504.23 3.50536 -2.24196 0
M  V30 26161 H 2503.1 4.84824 -2.57364 0
M  V30 26162 H 2503.36 4.32478 -0.917339 0
M  V30 26163 N 2502.42 1.15558 1.07164 0
M  V30 26164 C 2503.66 0.942191 1.81389 0
M  V30 26165 C 2504.03 -0.521239 1.84789 0
M  V30 26166 O 2505.23 -0.853026 2.54906 0
M  V30 26167 C 2503.5 1.54191 3.22428 0
M  V30 26168 S 2505.06 1.4719 4.13377 0
M  V30 26169 H 2501.88 0.339042 0.624957 0
M  V30 26170 H 2504.48 1.47142 1.28722 0
M  V30 26171 H 2503.18 2.59989 3.17543 0
M  V30 26172 H 2502.71 1.01162 3.80171 0
M  V30 26173 H 2504.73 0.466091 4.94006 0
M  V30 26174 N 2503.9 -1.25546 0.952678 0
M  V30 26175 C 2504.86 -2.24206 0.475833 0
M  V30 26176 C 2505.86 -1.55234 -0.419401 0
M  V30 26177 O 2507.05 -1.72844 -0.216964 0
M  V30 26178 C 2504.19 -3.39462 -0.312755 0
M  V30 26179 H 2505.38 -2.67905 1.34784 0
M  V30 26180 H 2502.93 -1.37899 0.735763 0
M  V30 26181 H 2503.67 -3.01181 -1.20251 0
M  V30 26182 H 2503.45 -3.90713 0.329473 0
M  V30 26183 H 2504.94 -4.1273 -0.635914 0
M  V30 26184 N 2505.38 -0.721022 -1.40139 0
M  V30 26185 C 2506.33 -0.0719595 -2.30688 0
M  V30 26186 C 2507.3 0.744558 -1.48477 0
M  V30 26187 O 2508.48 0.707391 -1.77202 0
M  V30 26188 C 2505.62 0.839796 -3.34726 0
M  V30 26189 C 2504.73 0.0121679 -4.31998 0
M  V30 26190 C 2503.87 0.923903 -5.23104 0
M  V30 26191 C 2502.91 0.0906894 -6.12033 0
M  V30 26192 N 2502.05 0.957596 -6.95539 0
M  V30 26193 H 2506.89 -0.849805 -2.85626 0
M  V30 26194 H 2504.42 -0.43075 -1.40652 0
M  V30 26195 H 2506.38 1.38272 -3.9362 0
M  V30 26196 H 2505.01 1.58376 -2.81277 0
M  V30 26197 H 2504.06 -0.648006 -3.7484 0
M  V30 26198 H 2505.37 -0.632682 -4.94771 0
M  V30 26199 H 2504.53 1.53517 -5.86956 0
M  V30 26200 H 2503.27 1.60256 -4.60618 0
M  V30 26201 H 2502.27 -0.533473 -5.47206 0
M  V30 26202 H 2503.5 -0.584547 -6.7658 0
M  V30 26203 H 2501.44 1.6218 -6.35636 0
M  V30 26204 H 2501.36 0.368907 -7.55099 0
M  V30 26205 H 2502.63 1.55487 -7.63835 0
M  V30 26206 N 2506.86 1.50503 -0.467606 0
M  V30 26207 C 2508.1 2.02606 0.0887176 0
M  V30 26208 C 2508.44 1.34915 1.39683 0
M  V30 26209 O 2507.71 0.473727 1.88643 0
M  V30 26210 C 2507.99 3.5904 0.276143 0
M  V30 26211 C 2507.85 4.37307 -1.05275 0
M  V30 26212 C 2509.17 4.27823 1.03227 0
M  V30 26213 H 2506.29 0.736357 0.0307684 0
M  V30 26214 H 2508.93 1.79856 -0.612517 0
M  V30 26215 H 2507.08 3.78554 0.873433 0
M  V30 26216 H 2508.75 4.29372 -1.68635 0
M  V30 26217 H 2506.99 4.01186 -1.65022 0
M  V30 26218 H 2507.66 5.45016 -0.875293 0
M  V30 26219 H 2510.14 4.12761 0.526038 0
M  V30 26220 H 2509.02 5.37096 1.13221 0
M  V30 26221 H 2509.28 3.90751 2.06799 0
M  V30 26222 N 2508.34 0.200077 1.56325 0
M  V30 26223 C 2509.58 -0.439484 1.99619 0
M  V30 26224 C 2509.94 -1.58454 1.08426 0
M  V30 26225 O 2511.14 -2.28864 1.40977 0
M  V30 26226 C 2509.41 -0.883197 3.46315 0
M  V30 26227 S 2510.97 -1.51989 4.11637 0
M  V30 26228 H 2507.79 -0.140351 0.69701 0
M  V30 26229 H 2510.39 0.304316 1.93117 0
M  V30 26230 H 2509.09 -0.0398246 4.10381 0
M  V30 26231 H 2508.63 -1.66034 3.56646 0
M  V30 26232 H 2510.64 -2.80873 4.09054 0
M  V30 26233 N 2509.81 -1.57429 -0.0734901 0
M  V30 26234 C 2510.76 -2.00018 -1.09439 0
M  V30 26235 C 2511.75 -0.881971 -1.34574 0
M  V30 26236 O 2512.94 -1.14587 -1.34903 0
M  V30 26237 C 2510.07 -2.44624 -2.40861 0
M  V30 26238 C 2509.15 -3.63176 -2.19007 0
M  V30 26239 N 2509.55 -4.77408 -1.67078 0
M  V30 26240 C 2507.84 -3.69692 -2.49487 0
M  V30 26241 C 2508.54 -5.59263 -1.6 0
M  V30 26242 N 2507.52 -5.0306 -2.0599 0
M  V30 26243 H 2511.32 -2.85778 -0.686177 0
M  V30 26244 H 2508.84 -1.59958 -0.280589 0
M  V30 26245 H 2510.83 -2.73374 -3.14758 0
M  V30 26246 H 2509.49 -1.60251 -2.824 0
M  V30 26247 H 2510.5 -4.99733 -1.35966 0
M  V30 26248 H 2507.18 -2.96028 -2.94404 0
M  V30 26249 H 2508.57 -6.60967 -1.20718 0
M  V30 26250 N 2511.29 0.344839 -1.53781 0
M  V30 26251 C 2512.24 1.42343 -1.81679 0
M  V30 26252 C 2513.21 1.5232 -0.662402 0
M  V30 26253 O 2514.39 1.67879 -0.906705 0
M  V30 26254 C 2511.53 2.79012 -2.03092 0
M  V30 26255 C 2510.65 2.77836 -3.30804 0
M  V30 26256 C 2509.78 4.06214 -3.42292 0
M  V30 26257 C 2508.82 3.99262 -4.63957 0
M  V30 26258 N 2507.96 5.19328 -4.72486 0
M  V30 26259 H 2512.8 1.17853 -2.73705 0
M  V30 26260 H 2510.33 0.570925 -1.35569 0
M  V30 26261 H 2512.29 3.58434 -2.13497 0
M  V30 26262 H 2510.92 3.01856 -1.1438 0
M  V30 26263 H 2509.97 1.90527 -3.29247 0
M  V30 26264 H 2511.29 2.68577 -4.20319 0
M  V30 26265 H 2510.44 4.9406 -3.52121 0
M  V30 26266 H 2509.18 4.18253 -2.5083 0
M  V30 26267 H 2508.18 3.09801 -4.54206 0
M  V30 26268 H 2509.41 3.88807 -5.56782 0
M  V30 26269 H 2507.36 5.31913 -3.83933 0
M  V30 26270 H 2507.27 5.1232 -5.55936 0
M  V30 26271 H 2508.54 6.08948 -4.86623 0
M  V30 26272 N 2512.77 1.45492 0.605781 0
M  V30 26273 C 2514.05 1.40078 1.3652 0
M  V30 26274 C 2514.43 0.0723115 2.10976 0
M  V30 26275 O 2513.77 -0.945771 2.08008 0
M  V30 26276 C 2513.98 2.61565 2.31051 0
M  V30 26277 C 2515.33 3.06729 2.93602 0
M  V30 26278 O 2516.36 2.61951 2.41372 0
M  V30 26279 O 2515.22 3.84444 3.88414 0
M  V30 26280 H 2512.31 0.555961 0.612238 0
M  V30 26281 H 2514.86 1.57624 0.628719 0
M  V30 26282 H 2513.63 3.49834 1.75305 0
M  V30 26283 H 2513.25 2.46362 3.12076 0
M  V30 26284 N 2514.25 -0.848441 1.32813 0
M  V30 26285 C 2515.2 -1.94576 1.18846 0
M  V30 26286 C 2516.18 -1.60626 0.0937799 0
M  V30 26287 O 2517.37 -1.74066 0.320917 0
M  V30 26288 C 2514.5 -3.30742 0.920048 0
M  V30 26289 C 2513.59 -3.70891 2.05672 0
M  V30 26290 N 2513.98 -3.82814 3.30586 0
M  V30 26291 C 2512.28 -4.00562 1.96127 0
M  V30 26292 C 2512.98 -4.1748 4.05074 0
M  V30 26293 N 2511.96 -4.29334 3.33427 0
M  V30 26294 H 2515.76 -2.01936 2.13539 0
M  V30 26295 H 2513.27 -1.04058 1.24682 0
M  V30 26296 H 2515.27 -4.09134 0.800931 0
M  V30 26297 H 2513.93 -3.24695 -0.0184505 0
M  V30 26298 H 2514.94 -3.66972 3.65448 0
M  V30 26299 H 2511.62 -4.02782 1.09878 0
M  V30 26300 H 2513.01 -4.34122 5.12823 0
M  V30 26301 N 2515.73 -1.16125 -1.06549 0
M  V30 26302 C 2516.64 -0.8797 -2.17482 0
M  V30 26303 C 2517.65 0.147074 -1.73377 0
M  V30 26304 O 2518.83 -0.0289482 -2.01379 0
M  V30 26305 C 2515.89 -0.38189 -3.4459 0
M  V30 26306 C 2514.95 -1.47357 -4.03218 0
M  V30 26307 C 2514.19 -0.999417 -5.24259 0
M  V30 26308 O 2514.41 0.151857 -5.70198 0
M  V30 26309 O 2513.34 -1.78663 -5.74772 0
M  V30 26310 H 2517.17 -1.80728 -2.44072 0
M  V30 26311 H 2514.76 -0.941012 -1.1604 0
M  V30 26312 H 2516.64 -0.111127 -4.21253 0
M  V30 26313 H 2515.31 0.517714 -3.19533 0
M  V30 26314 H 2514.22 -1.79804 -3.28057 0
M  V30 26315 H 2515.55 -2.34838 -4.32564 0
M  V30 26316 N 2517.2 1.25039 -0.959323 0
M  V30 26317 C 2518.45 1.92182 -0.612287 0
M  V30 26318 C 2518.77 1.75908 0.855316 0
M  V30 26319 O 2519.97 2.37666 1.31251 0
M  V30 26320 C 2518.43 3.44413 -1.04441 0
M  V30 26321 C 2518.04 3.69388 -2.53488 0
M  V30 26322 C 2519.78 4.17456 -0.770128 0
M  V30 26323 C 2517.69 5.15148 -2.90477 0
M  V30 26324 H 2516.62 0.719555 -0.225292 0
M  V30 26325 H 2519.27 1.41823 -1.16441 0
M  V30 26326 H 2517.65 3.93759 -0.420669 0
M  V30 26327 H 2518.82 3.30675 -3.20921 0
M  V30 26328 H 2517.14 3.09615 -2.78438 0
M  V30 26329 H 2519.74 5.24831 -1.02259 0
M  V30 26330 H 2520.08 4.15264 0.293538 0
M  V30 26331 H 2520.61 3.74032 -1.35444 0
M  V30 26332 H 2517.35 5.22455 -3.9588 0
M  V30 26333 H 2516.87 5.5489 -2.27721 0
M  V30 26334 H 2518.55 5.83311 -2.79925 0
M  V30 26335 N 2518.68 0.728444 1.39755 0
M  V30 26336 C 2519.91 0.282195 2.05471 0
M  V30 26337 C 2520.33 -1.07218 1.54551 0
M  V30 26338 O 2519.69 -1.67804 0.686401 0
M  V30 26339 C 2519.74 0.286327 3.59461 0
M  V30 26340 O 2518.84 -0.728227 4.05919 0
M  V30 26341 H 2518.18 0.129629 0.651224 0
M  V30 26342 H 2520.71 0.992531 1.78913 0
M  V30 26343 H 2520.72 0.128444 4.07798 0
M  V30 26344 H 2519.4 1.27463 3.95886 0
M  V30 26345 H 2517.98 -0.537017 3.69013 0
M  V30 26346 N 2520.16 -1.50253 0.475581 0
M  V30 26347 C 2521.39 -2.06463 -0.0753036 0
M  V30 26348 C 2521.8 -1.3391 -1.33659 0
M  V30 26349 O 2521.14 -0.403288 -1.79219 0
M  V30 26350 C 2521.2 -3.56981 -0.424858 0
M  V30 26351 C 2520.87 -4.5105 0.735045 0
M  V30 26352 C 2521.86 -4.9407 1.61836 0
M  V30 26353 C 2519.55 -4.93679 0.926644 0
M  V30 26354 C 2521.54 -5.7843 2.67764 0
M  V30 26355 C 2519.23 -5.7782 1.98914 0
M  V30 26356 C 2520.23 -6.20098 2.86301 0
M  V30 26357 O 2519.92 -7.02561 3.90721 0
M  V30 26358 H 2519.65 -0.675975 0.00577496 0
M  V30 26359 H 2522.2 -1.94347 0.664696 0
M  V30 26360 H 2520.43 -3.67014 -1.21811 0
M  V30 26361 H 2522.12 -3.95537 -0.911353 0
M  V30 26362 H 2522.89 -4.61801 1.48204 0
M  V30 26363 H 2518.77 -4.60289 0.255921 0
M  V30 26364 H 2522.31 -6.11349 3.36003 0
M  V30 26365 H 2518.21 -6.09502 2.12551 0
M  V30 26366 H 2518.98 -7.2082 3.87764 0
M  V30 26367 N 2521.64 -0.208365 -1.56217 0
M  V30 26368 C 2522.6 0.693518 -2.18456 0
M  V30 26369 C 2523.6 1.13133 -1.1427 0
M  V30 26370 O 2524.79 1.04227 -1.39579 0
M  V30 26371 C 2521.92 1.94843 -2.7973 0
M  V30 26372 H 2523.12 0.151088 -2.99519 0
M  V30 26373 H 2520.67 0.0412595 -1.56246 0
M  V30 26374 H 2521.4 2.53306 -2.02501 0
M  V30 26375 H 2521.19 1.6431 -3.56012 0
M  V30 26376 H 2522.68 2.59128 -3.27479 0
M  V30 26377 N 2523.12 1.57465 0.0651402 0
M  V30 26378 C 2524.06 2.04146 1.07671 0
M  V30 26379 C 2525.03 0.923359 1.3807 0
M  V30 26380 O 2526.22 1.19149 1.49024 0
M  V30 26381 C 2523.36 2.49583 2.38333 0
M  V30 26382 C 2522.47 3.75039 2.14406 0
M  V30 26383 C 2521.61 4.09231 3.38679 0
M  V30 26384 C 2520.65 5.27708 3.10147 0
M  V30 26385 N 2519.78 5.57506 4.26768 0
M  V30 26386 H 2524.62 2.90332 0.671665 0
M  V30 26387 H 2522.16 1.43576 0.320075 0
M  V30 26388 H 2524.12 2.73981 3.14627 0
M  V30 26389 H 2522.75 1.66365 2.76627 0
M  V30 26390 H 2521.8 3.57941 1.28773 0
M  V30 26391 H 2523.11 4.61469 1.89335 0
M  V30 26392 H 2522.27 4.34565 4.23365 0
M  V30 26393 H 2521 3.21381 3.66832 0
M  V30 26394 H 2520.01 5.02163 2.23858 0
M  V30 26395 H 2521.23 6.17181 2.8331 0
M  V30 26396 H 2519.18 4.72616 4.5494 0
M  V30 26397 H 2519.1 6.3837 4.04994 0
M  V30 26398 H 2520.37 5.87395 5.12432 0
M  V30 26399 N 2524.59 -0.336679 1.53962 0
M  V30 26400 C 2525.82 -1.09443 1.75231 0
M  V30 26401 C 2526.23 -1.8262 0.494634 0
M  V30 26402 O 2525.58 -1.75469 -0.543734 0
M  V30 26403 C 2525.64 -2.14775 2.88292 0
M  V30 26404 C 2525.3 -1.61113 4.27658 0
M  V30 26405 C 2526.3 -1.05981 5.08983 0
M  V30 26406 C 2523.98 -1.65752 4.74164 0
M  V30 26407 C 2525.98 -0.562017 6.34917 0
M  V30 26408 C 2523.66 -1.15585 6.0007 0
M  V30 26409 C 2524.66 -0.609028 6.80279 0
M  V30 26410 O 2524.35 -0.114858 8.03818 0
M  V30 26411 H 2524.08 -0.331946 0.588887 0
M  V30 26412 H 2526.64 -0.39253 2.01614 0
M  V30 26413 H 2524.87 -2.88543 2.57448 0
M  V30 26414 H 2526.56 -2.76168 2.97466 0
M  V30 26415 H 2527.32 -1.01714 4.74214 0
M  V30 26416 H 2523.2 -2.07253 4.11785 0
M  V30 26417 H 2526.74 -0.134545 6.9747 0
M  V30 26418 H 2522.64 -1.19555 6.34332 0
M  V30 26419 H 2523.41 -0.231507 8.18173 0
M  V30 26420 N 2526.07 -1.45812 -0.598057 0
M  V30 26421 C 2527.32 -1.50028 -1.3541 0
M  V30 26422 C 2527.64 -0.147211 -1.94444 0
M  V30 26423 O 2526.91 0.82454 -1.77702 0
M  V30 26424 H 2525.49 -0.552526 -0.502717 0
M  V30 26425 H 2528.15 -1.81835 -0.701574 0
M  V30 26426 H 2527.25 -2.24444 -2.16867 0
M  V30 26427 N 2527.55 0.841385 -1.33261 0
M  V30 26428 C 2528.78 1.63383 -1.27753 0
M  V30 26429 C 2529.2 1.87508 0.149155 0
M  V30 26430 O 2528.56 1.43738 1.10495 0
M  V30 26431 C 2528.61 2.96261 -2.05576 0
M  V30 26432 O 2527.71 3.87451 -1.41264 0
M  V30 26433 H 2527.05 0.49761 -0.439636 0
M  V30 26434 H 2529.58 1.04696 -1.75784 0
M  V30 26435 H 2529.59 3.45979 -2.16247 0
M  V30 26436 H 2528.27 2.78025 -3.09314 0
M  V30 26437 H 2526.84 3.45935 -1.39223 0
M  V30 26438 N 2529.03 1.16688 1.05932 0
M  V30 26439 C 2530.28 0.950653 1.78798 0
M  V30 26440 C 2530.6 -0.521272 1.87385 0
M  V30 26441 O 2529.86 -1.40294 1.36441 0
M  V30 26442 C 2530.16 1.52773 3.23102 0
M  V30 26443 C 2529.82 3.0226 3.34589 0
M  V30 26444 C 2528.49 3.43065 3.37431 0
M  V30 26445 C 2530.84 3.9826 3.36212 0
M  V30 26446 C 2528.17 4.78483 3.39516 0
M  V30 26447 C 2530.52 5.33568 3.39835 0
M  V30 26448 C 2529.18 5.73848 3.40961 0
M  V30 26449 H 2528.45 0.347869 0.654269 0
M  V30 26450 H 2531.1 1.45461 1.24553 0
M  V30 26451 H 2529.4 0.945307 3.80225 0
M  V30 26452 H 2531.1 1.33606 3.78088 0
M  V30 26453 H 2527.69 2.69726 3.33085 0
M  V30 26454 H 2531.88 3.67798 3.33224 0
M  V30 26455 H 2527.13 5.09015 3.38694 0
M  V30 26456 H 2531.31 6.07739 3.40039 0
M  V30 26457 H 2528.93 6.78759 3.4233 0
M  V30 26458 N 2530.51 -1.24529 0.96594 0
M  V30 26459 C 2531.75 -1.92553 0.626865 0
M  V30 26460 C 2532.08 -1.75535 -0.837708 0
M  V30 26461 O 2531.34 -1.10101 -1.61791 0
M  V30 26462 C 2531.64 -3.44667 0.945489 0
M  V30 26463 C 2531.3 -3.81852 2.39792 0
M  V30 26464 C 2529.96 -3.91713 2.7949 0
M  V30 26465 C 2532.32 -4.00065 3.34062 0
M  V30 26466 C 2529.64 -4.17203 4.12503 0
M  V30 26467 C 2532 -4.27051 4.66702 0
M  V30 26468 C 2530.66 -4.35131 5.06179 0
M  V30 26469 H 2529.93 -0.704601 0.229386 0
M  V30 26470 H 2532.58 -1.47848 1.2171 0
M  V30 26471 H 2530.88 -3.90848 0.272995 0
M  V30 26472 H 2532.58 -3.95505 0.661553 0
M  V30 26473 H 2529.17 -3.7474 2.0801 0
M  V30 26474 H 2533.35 -3.9185 3.04577 0
M  V30 26475 H 2528.61 -4.21677 4.42717 0
M  V30 26476 H 2532.78 -4.40088 5.39718 0
M  V30 26477 H 2530.41 -4.54636 6.0927 0
M  V30 26478 N 2531.99 -0.735845 -1.39367 0
M  V30 26479 C 2533.23 -0.288848 -2.02349 0
M  V30 26480 C 2533.59 1.10338 -1.57129 0
M  V30 26481 O 2534.79 1.6485 -2.12315 0
M  V30 26482 C 2533.06 -0.388049 -3.55287 0
M  V30 26483 S 2534.62 -0.021018 -4.38795 0
M  V30 26484 H 2531.44 -0.113128 -0.701942 0
M  V30 26485 H 2534.04 -0.962548 -1.70162 0
M  V30 26486 H 2532.74 -1.40259 -3.85689 0
M  V30 26487 H 2532.28 0.303443 -3.92228 0
M  V30 26488 H 2534.29 1.19495 -4.81597 0
M  V30 26489 N 2533.46 1.49999 -0.483543 0
M  V30 26490 C 2534.74 1.95172 0.129302 0
M  V30 26491 C 2535.12 1.42442 1.55799 0
M  V30 26492 O 2534.47 0.630688 2.19624 0
M  V30 26493 C 2534.68 3.48949 0.0598638 0
M  V30 26494 C 2536.03 4.23907 0.242543 0
M  V30 26495 O 2537.05 3.55941 0.135871 0
M  V30 26496 O 2535.91 5.44566 0.459358 0
M  V30 26497 H 2533 0.820323 0.104873 0
M  V30 26498 H 2535.55 1.60716 -0.544835 0
M  V30 26499 H 2534.32 3.79912 -0.937146 0
M  V30 26500 H 2533.94 3.89975 0.774916 0
M  V30 26501 N 2534.94 0.216646 1.56104 0
M  V30 26502 C 2536.18 -0.418287 2.00074 0
M  V30 26503 C 2536.55 -1.57296 1.10101 0
M  V30 26504 O 2537.75 -2.27356 1.43397 0
M  V30 26505 C 2536.02 -0.846416 3.47233 0
M  V30 26506 S 2537.58 -1.47615 4.13225 0
M  V30 26507 H 2534.39 -0.13295 0.698459 0
M  V30 26508 H 2537 0.324782 1.92783 0
M  V30 26509 H 2535.7 0.00370404 4.104 0
M  V30 26510 H 2535.23 -1.62242 3.58387 0
M  V30 26511 H 2537.25 -2.76519 4.1201 0
M  V30 26512 N 2536.42 -1.57498 -0.0567885 0
M  V30 26513 C 2537.67 -1.87605 -0.751584 0
M  V30 26514 C 2537.99 -0.810691 -1.77349 0
M  V30 26515 O 2537.26 0.158984 -1.95254 0
M  V30 26516 H 2535.84 -0.692307 -0.280571 0
M  V30 26517 H 2538.5 -1.94878 -0.0293141 0
M  V30 26518 H 2537.6 -2.85603 -1.25847 0
M  V30 26519 N 2537.9 0.328509 -1.54138 0
M  V30 26520 C 2538.86 1.38706 -1.82465 0
M  V30 26521 C 2539.86 1.44945 -0.696254 0
M  V30 26522 O 2541.05 1.45058 -0.964561 0
M  V30 26523 C 2538.18 2.77488 -1.98023 0
M  V30 26524 H 2539.38 1.14846 -2.77039 0
M  V30 26525 H 2536.93 0.563725 -1.4578 0
M  V30 26526 H 2537.66 3.06611 -1.05643 0
M  V30 26527 H 2537.45 2.74354 -2.80129 0
M  V30 26528 H 2538.94 3.54077 -2.21403 0
M  V30 26529 N 2539.38 1.46127 0.590316 0
M  V30 26530 C 2540.32 1.56114 1.69992 0
M  V30 26531 C 2541.29 0.405895 1.61064 0
M  V30 26532 O 2542.48 0.621645 1.80389 0
M  V30 26533 C 2539.62 1.55018 3.08323 0
M  V30 26534 C 2538.73 2.81221 3.27931 0
M  V30 26535 C 2537.87 2.71681 4.56468 0
M  V30 26536 C 2536.9 3.92857 4.69393 0
M  V30 26537 N 2536.04 3.81749 5.89247 0
M  V30 26538 H 2540.88 2.50898 1.60792 0
M  V30 26539 H 2538.42 1.2448 0.783777 0
M  V30 26540 H 2540.38 1.52369 3.88381 0
M  V30 26541 H 2539.01 0.637722 3.16438 0
M  V30 26542 H 2538.06 2.93883 2.4153 0
M  V30 26543 H 2539.37 3.71051 3.33351 0
M  V30 26544 H 2538.52 2.67095 5.44743 0
M  V30 26545 H 2537.26 1.79478 4.53474 0
M  V30 26546 H 2536.27 3.97784 3.79537 0
M  V30 26547 H 2537.49 4.86147 4.74171 0
M  V30 26548 H 2535.44 2.92327 5.87265 0
M  V30 26549 H 2535.36 4.65227 5.95902 0
M  V30 26550 H 2536.62 3.81124 6.79974 0
M  V30 26551 N 2540.85 -0.834306 1.33705 0
M  V30 26552 C 2541.76 -1.97646 1.26385 0
M  V30 26553 C 2542.78 -1.73132 0.173579 0
M  V30 26554 O 2543.96 -1.97428 0.397996 0
M  V30 26555 C 2541.02 -3.31731 1.00774 0
M  V30 26556 C 2540.08 -3.6933 2.18847 0
M  V30 26557 C 2539.31 -4.97017 1.94448 0
M  V30 26558 O 2539.54 -5.63302 0.89706 0
M  V30 26559 O 2538.47 -5.32226 2.81103 0
M  V30 26560 H 2542.3 -2.06763 2.22447 0
M  V30 26561 H 2539.88 -0.968017 1.13797 0
M  V30 26562 H 2541.76 -4.12061 0.882259 0
M  V30 26563 H 2540.44 -3.23607 0.0774352 0
M  V30 26564 H 2539.35 -2.89491 2.36951 0
M  V30 26565 H 2540.68 -3.82125 3.10228 0
M  V30 26566 N 2542.33 -1.17248 -1.05312 0
M  V30 26567 C 2543.61 -0.870081 -1.75183 0
M  V30 26568 C 2543.99 0.62993 -2.01482 0
M  V30 26569 O 2543.34 1.58083 -1.64991 0
M  V30 26570 C 2543.55 -1.70368 -3.04591 0
M  V30 26571 C 2544.89 -1.92288 -3.78564 0
M  V30 26572 O 2545.92 -1.67316 -3.14458 0
M  V30 26573 O 2544.78 -2.34249 -4.93751 0
M  V30 26574 H 2541.87 -0.322034 -0.761724 0
M  V30 26575 H 2544.42 -1.27937 -1.11491 0
M  V30 26576 H 2543.19 -2.72111 -2.81196 0
M  V30 26577 H 2542.81 -1.29208 -3.7602 0
M  V30 26578 N 2543.81 1.24015 -0.972531 0
M  V30 26579 C 2545.06 1.91838 -0.63581 0
M  V30 26580 C 2545.38 1.76346 0.832281 0
M  V30 26581 O 2544.65 1.13798 1.59458 0
M  V30 26582 H 2543.23 0.710005 -0.232169 0
M  V30 26583 H 2545.89 1.50806 -1.23464 0
M  V30 26584 H 2544.99 2.99419 -0.880597 0
M  V30 26585 N 2545.29 0.743226 1.38974 0
M  V30 26586 C 2546.51 0.303972 2.0516 0
M  V30 26587 C 2546.94 -1.05573 1.55679 0
M  V30 26588 O 2546.3 -1.67067 0.704161 0
M  V30 26589 C 2546.34 0.324437 3.59138 0
M  V30 26590 O 2545.45 -0.685132 4.06669 0
M  V30 26591 H 2544.79 0.136529 0.649812 0
M  V30 26592 H 2547.32 1.01145 1.77851 0
M  V30 26593 H 2547.33 0.171689 4.07639 0
M  V30 26594 H 2546 1.31654 3.94512 0
M  V30 26595 H 2544.58 -0.497848 3.69562 0
M  V30 26596 N 2546.77 -1.4974 0.491491 0
M  V30 26597 C 2548.01 -2.04326 -0.0548759 0
M  V30 26598 C 2548.37 -1.36381 -1.35146 0
M  V30 26599 O 2549.57 -1.81634 -1.98147 0
M  V30 26600 C 2547.84 -3.5676 -0.213778 0
M  V30 26601 S 2549.4 -4.32923 -0.715763 0
M  V30 26602 H 2546.22 -0.710972 -0.00629263 0
M  V30 26603 H 2548.82 -1.83904 0.663289 0
M  V30 26604 H 2547.53 -4.03758 0.735341 0
M  V30 26605 H 2547.06 -3.81571 -0.957462 0
M  V30 26606 H 2549.07 -4.54709 -1.98632 0
M  V30 26607 N 2548.24 -0.224922 -1.55987 0
M  V30 26608 C 2549.17 0.678418 -2.23427 0
M  V30 26609 C 2550.16 1.19845 -1.20712 0
M  V30 26610 O 2551.34 1.24183 -1.49306 0
M  V30 26611 C 2548.47 1.88522 -2.91679 0
M  V30 26612 C 2547.42 1.49889 -4.00895 0
M  V30 26613 C 2546.75 2.78475 -4.5646 0
M  V30 26614 C 2548.05 0.68637 -5.1777 0
M  V30 26615 H 2549.74 0.116121 -2.99175 0
M  V30 26616 H 2547.29 0.0544107 -1.43897 0
M  V30 26617 H 2549.24 2.52264 -3.37551 0
M  V30 26618 H 2547.97 2.47254 -2.13384 0
M  V30 26619 H 2546.63 0.884922 -3.55759 0
M  V30 26620 H 2546.27 3.35358 -3.74892 0
M  V30 26621 H 2545.97 2.53358 -5.30173 0
M  V30 26622 H 2547.5 3.43153 -5.05053 0
M  V30 26623 H 2548.91 1.22757 -5.60003 0
M  V30 26624 H 2547.31 0.532154 -5.97736 0
M  V30 26625 H 2548.38 -0.306281 -4.83932 0
M  V30 26626 N 2549.72 1.57526 0.0484352 0
M  V30 26627 C 2550.69 2.04271 1.03952 0
M  V30 26628 C 2551.69 0.943519 1.30209 0
M  V30 26629 O 2552.88 1.20773 1.25537 0
M  V30 26630 C 2550.01 2.44323 2.37737 0
M  V30 26631 H 2551.2 2.93076 0.63613 0
M  V30 26632 H 2548.75 1.53495 0.294784 0
M  V30 26633 H 2549.49 1.58615 2.82863 0
M  V30 26634 H 2549.27 3.24555 2.20015 0
M  V30 26635 H 2550.76 2.80983 3.08931 0
M  V30 26636 N 2551.2 -0.32033 1.5431 0
M  V30 26637 C 2552.13 -1.39947 1.86915 0
M  V30 26638 C 2553.11 -1.53817 0.726238 0
M  V30 26639 O 2554.3 -1.67644 0.980262 0
M  V30 26640 C 2551.43 -2.76666 2.09936 0
M  V30 26641 C 2550.38 -2.77581 3.25781 0
M  V30 26642 C 2549.71 -4.17406 3.34181 0
M  V30 26643 C 2551.01 -2.4104 4.63354 0
M  V30 26644 H 2552.7 -1.12909 2.77294 0
M  V30 26645 H 2550.25 -0.541715 1.33422 0
M  V30 26646 H 2552.2 -3.52228 2.3133 0
M  V30 26647 H 2550.92 -3.05188 1.1631 0
M  V30 26648 H 2549.58 -2.04474 3.04279 0
M  V30 26649 H 2549.23 -4.43074 2.38106 0
M  V30 26650 H 2548.93 -4.18923 4.1204 0
M  V30 26651 H 2550.45 -4.94776 3.57812 0
M  V30 26652 H 2551.87 -3.06315 4.84607 0
M  V30 26653 H 2550.27 -2.53803 5.43787 0
M  V30 26654 H 2551.34 -1.36185 4.65383 0
M  V30 26655 N 2552.68 -1.46438 -0.582558 0
M  V30 26656 C 2553.92 -1.5198 -1.34275 0
M  V30 26657 C 2554.26 -0.171007 -1.93446 0
M  V30 26658 O 2553.53 0.817577 -1.76482 0
M  V30 26659 C 2553.82 -2.61849 -2.47198 0
M  V30 26660 C 2553.67 -4.0626 -1.93062 0
M  V30 26661 C 2554.99 -2.67802 -3.49242 0
M  V30 26662 H 2552.11 -0.55329 -0.486866 0
M  V30 26663 H 2554.75 -1.78375 -0.654406 0
M  V30 26664 H 2552.9 -2.39474 -3.05916 0
M  V30 26665 H 2554.57 -4.39923 -1.388 0
M  V30 26666 H 2552.81 -4.15733 -1.2389 0
M  V30 26667 H 2553.48 -4.78865 -2.74577 0
M  V30 26668 H 2555.96 -2.87916 -3.00406 0
M  V30 26669 H 2554.84 -3.46496 -4.25713 0
M  V30 26670 H 2555.1 -1.73859 -4.06479 0
M  V30 26671 N 2554.16 0.827204 -1.34146 0
M  V30 26672 C 2555.1 1.93782 -1.25367 0
M  V30 26673 C 2556.07 1.65592 -0.129803 0
M  V30 26674 O 2557.26 1.88264 -0.310057 0
M  V30 26675 C 2554.4 3.29968 -1.0107 0
M  V30 26676 C 2553.51 3.7048 -2.22191 0
M  V30 26677 C 2552.65 4.95592 -1.91212 0
M  V30 26678 C 2551.69 5.28672 -3.085 0
M  V30 26679 N 2550.82 6.44962 -2.77432 0
M  V30 26680 H 2555.66 2.00623 -2.20351 0
M  V30 26681 H 2553.2 0.981589 -1.09559 0
M  V30 26682 H 2555.16 4.08445 -0.850211 0
M  V30 26683 H 2553.79 3.22653 -0.0975593 0
M  V30 26684 H 2552.84 2.8743 -2.49175 0
M  V30 26685 H 2554.15 3.909 -3.09837 0
M  V30 26686 H 2553.31 5.81845 -1.71875 0
M  V30 26687 H 2552.04 4.77165 -1.0082 0
M  V30 26688 H 2551.05 4.40918 -3.28438 0
M  V30 26689 H 2552.27 5.4904 -3.99664 0
M  V30 26690 H 2550.22 6.27999 -1.89612 0
M  V30 26691 H 2550.14 6.65534 -3.5861 0
M  V30 26692 H 2551.41 7.34296 -2.61589 0
M  V30 26693 N 2555.63 1.17805 1.04688 0
M  V30 26694 C 2557.05 0.926402 1.29961 0
M  V30 26695 C 2557.25 -0.411601 1.97251 0
M  V30 26696 O 2556.31 -1.1474 2.24924 0
M  V30 26697 C 2557.62 2.08741 2.16444 0
M  V30 26698 C 2559.17 2.125 2.2981 0
M  V30 26699 C 2559.64 3.28001 3.19655 0
M  V30 26700 N 2561.13 3.27822 3.27242 0
M  V30 26701 C 2561.87 4.13834 3.96899 0
M  V30 26702 N 2561.36 5.09967 4.68941 0
M  V30 26703 N 2563.16 4.01768 3.93115 0
M  V30 26704 H 2555.31 2.03921 0.594146 0
M  V30 26705 H 2557.57 0.890684 0.324633 0
M  V30 26706 H 2557.28 3.05472 1.74299 0
M  V30 26707 H 2557.15 2.04274 3.17099 0
M  V30 26708 H 2559.54 1.16352 2.71194 0
M  V30 26709 H 2559.62 2.21027 1.28766 0
M  V30 26710 H 2559.26 4.24418 2.78984 0
M  V30 26711 H 2559.19 3.1671 4.20716 0
M  V30 26712 H 2561.68 2.58222 2.75916 0
M  V30 26713 H 2562 5.71983 5.19669 0
M  V30 26714 H 2560.34 5.13932 4.67866 0
M  V30 26715 H 2563.53 3.25956 3.35962 0
M  V30 26716 H 2563.71 4.69018 4.47131 0
M  V30 26717 N 2557.11 -1.23497 0.979094 0
M  V30 26718 C 2558.34 -1.95914 0.665236 0
M  V30 26719 C 2558.76 -1.72494 -0.767541 0
M  V30 26720 O 2558.11 -1.01557 -1.51633 0
M  V30 26721 C 2558.16 -3.48943 0.9445 0
M  V30 26722 O 2557.88 -3.71568 2.32096 0
M  V30 26723 C 2559.39 -4.38562 0.646413 0
M  V30 26724 H 2556.61 -0.623794 0.247229 0
M  V30 26725 H 2559.15 -1.57022 1.31012 0
M  V30 26726 H 2557.3 -3.85855 0.345643 0
M  V30 26727 H 2557.72 -4.65871 2.40965 0
M  V30 26728 H 2559.19 -5.44742 0.892186 0
M  V30 26729 H 2559.67 -4.37192 -0.419498 0
M  V30 26730 H 2560.28 -4.07255 1.22569 0
M  V30 26731 N 2558.59 -0.750586 -1.38578 0
M  V30 26732 C 2560 -0.37347 -1.82926 0
M  V30 26733 C 2560.35 1.09745 -1.62636 0
M  V30 26734 O 2559.48 1.84803 -1.12591 0
M  V30 26735 C 2560.07 -0.671087 -3.32087 0
M  V30 26736 C 2558.63 -0.347286 -3.74794 0
M  V30 26737 C 2557.78 -0.925796 -2.61389 0
M  V30 26738 H 2560.73 -0.946981 -1.2735 0
M  V30 26739 H 2560.75 0.05176 -3.80465 0
M  V30 26740 H 2560.26 -1.7417 -3.46823 0
M  V30 26741 H 2558.36 0.716869 -3.65639 0
M  V30 26742 H 2558.48 -0.840739 -4.71666 0
M  V30 26743 H 2556.84 -0.351372 -2.52265 0
M  V30 26744 H 2557.62 -2.00138 -2.78926 0
M  V30 26745 N 2560.07 1.49477 -0.499425 0
M  V30 26746 C 2561.29 2.07352 0.0446855 0
M  V30 26747 C 2561.72 1.35751 1.30205 0
M  V30 26748 O 2561.08 0.413763 1.76515 0
M  V30 26749 C 2561.13 3.59488 0.28295 0
M  V30 26750 O 2560.23 3.89401 1.35798 0
M  V30 26751 H 2559.57 0.663509 -0.0255263 0
M  V30 26752 H 2562.1 1.92304 -0.698594 0
M  V30 26753 H 2562.11 4.04737 0.514936 0
M  V30 26754 H 2560.79 4.11013 -0.635708 0
M  V30 26755 H 2559.36 3.55963 1.11107 0
M  V30 26756 N 2561.55 0.233191 1.55865 0
M  V30 26757 C 2562.77 -0.402871 2.0345 0
M  V30 26758 C 2563.2 -1.51734 1.11168 0
M  V30 26759 O 2562.56 -1.81013 0.102028 0
M  V30 26760 C 2562.6 -0.900839 3.49167 0
M  V30 26761 O 2561.71 -2.01141 3.60022 0
M  V30 26762 H 2561.05 -0.089691 0.657915 0
M  V30 26763 H 2563.58 0.355236 2.01493 0
M  V30 26764 H 2563.59 -1.20764 3.89718 0
M  V30 26765 H 2562.26 -0.0852158 4.15813 0
M  V30 26766 H 2560.84 -1.71036 3.31363 0
M  V30 26767 N 2563.03 -1.57549 -0.0400806 0
M  V30 26768 C 2564.27 -1.88392 -0.731644 0
M  V30 26769 C 2564.59 -0.829456 -1.7648 0
M  V30 26770 O 2563.86 0.138265 -1.95411 0
M  V30 26771 H 2562.44 -0.695244 -0.273213 0
M  V30 26772 H 2565.11 -1.94898 -0.00864299 0
M  V30 26773 H 2564.2 -2.86921 -1.22811 0
M  V30 26774 N 2564.5 0.312142 -1.54478 0
M  V30 26775 C 2565.44 1.40881 -1.79521 0
M  V30 26776 C 2566.41 1.49226 -0.645779 0
M  V30 26777 O 2567.6 1.6646 -0.884498 0
M  V30 26778 C 2564.73 2.78886 -1.92199 0
M  V30 26779 C 2563.77 2.88018 -3.1456 0
M  V30 26780 S 2564.6 2.51254 -4.72897 0
M  V30 26781 C 2565.76 3.91308 -4.88496 0
M  V30 26782 H 2565.99 1.19427 -2.72258 0
M  V30 26783 H 2563.53 0.509629 -1.45747 0
M  V30 26784 H 2565.48 3.58378 -2.00188 0
M  V30 26785 H 2564.15 2.97615 -1.00419 0
M  V30 26786 H 2563.34 3.89215 -3.20199 0
M  V30 26787 H 2562.94 2.16508 -3.04959 0
M  V30 26788 H 2565.23 4.86187 -4.71835 0
M  V30 26789 H 2566.18 3.90645 -5.90595 0
M  V30 26790 H 2566.58 3.80793 -4.16721 0
M  V30 26791 N 2565.98 1.46745 0.574784 0
M  V30 26792 C 2567.21 1.5629 1.36338 0
M  V30 26793 C 2567.63 0.20738 1.86953 0
M  V30 26794 O 2566.99 -0.813842 1.62007 0
M  V30 26795 C 2567.04 2.57791 2.52143 0
M  V30 26796 O 2566.14 2.11844 3.5383 0
M  V30 26797 H 2565.48 0.525643 0.405703 0
M  V30 26798 H 2568.01 1.92383 0.696419 0
M  V30 26799 H 2568.02 2.77653 2.98953 0
M  V30 26800 H 2566.7 3.56224 2.14657 0
M  V30 26801 H 2565.27 2.02005 3.13446 0
M  V30 26802 N 2567.46 -0.820078 1.34583 0
M  V30 26803 C 2568.68 -1.6133 1.30336 0
M  V30 26804 C 2569.11 -1.87721 -0.119306 0
M  V30 26805 O 2568.47 -1.45477 -1.08194 0
M  V30 26806 C 2568.52 -2.92953 2.10263 0
M  V30 26807 O 2567.62 -3.85154 1.4741 0
M  V30 26808 H 2566.96 -0.490553 0.447497 0
M  V30 26809 H 2569.49 -1.01886 1.77427 0
M  V30 26810 H 2569.5 -3.42495 2.21724 0
M  V30 26811 H 2568.18 -2.73069 3.13698 0
M  V30 26812 H 2566.75 -3.43677 1.44709 0
M  V30 26813 N 2568.94 -1.18359 -1.04062 0
M  V30 26814 C 2570.17 -1.00387 -1.80915 0
M  V30 26815 C 2570.58 0.447706 -1.83415 0
M  V30 26816 O 2569.94 1.31097 -1.26964 0
M  V30 26817 C 2569.99 -1.55149 -3.26513 0
M  V30 26818 O 2569.71 -2.94624 -3.24235 0
M  V30 26819 C 2571.21 -1.41796 -4.2001 0
M  V30 26820 H 2568.43 -0.354484 -0.569721 0
M  V30 26821 H 2570.97 -1.56909 -1.31149 0
M  V30 26822 H 2569.13 -1.02804 -3.7351 0
M  V30 26823 H 2569.54 -3.20164 -4.15446 0
M  V30 26824 H 2571.02 -1.84911 -5.20108 0
M  V30 26825 H 2571.49 -0.366687 -4.37667 0
M  V30 26826 H 2572.1 -1.93214 -3.78878 0
M  V30 26827 N 2570.42 1.22976 -0.98563 0
M  V30 26828 C 2571.35 2.23204 -0.47491 0
M  V30 26829 C 2572.33 1.55933 0.460838 0
M  V30 26830 O 2573.51 1.84462 0.388072 0
M  V30 26831 C 2570.64 3.37257 0.312367 0
M  V30 26832 C 2569.68 4.22697 -0.568294 0
M  V30 26833 S 2570.52 4.95969 -2.01927 0
M  V30 26834 C 2571.67 6.13468 -1.24128 0
M  V30 26835 H 2571.91 2.66179 -1.32423 0
M  V30 26836 H 2569.44 1.32538 -0.792029 0
M  V30 26837 H 2571.4 4.03393 0.760574 0
M  V30 26838 H 2570.06 2.92803 1.13688 0
M  V30 26839 H 2569.25 5.03986 0.0370771 0
M  V30 26840 H 2568.85 3.61655 -0.952961 0
M  V30 26841 H 2571.14 6.75613 -0.505239 0
M  V30 26842 H 2572.09 6.78402 -2.02919 0
M  V30 26843 H 2572.5 5.59391 -0.757767 0
M  V30 26844 N 2571.89 0.757924 1.38178 0
M  V30 26845 C 2572.84 0.133097 2.30416 0
M  V30 26846 C 2573.81 -0.70493 1.50399 0
M  V30 26847 O 2575 -0.660161 1.79015 0
M  V30 26848 C 2572.14 -0.750754 3.36835 0
M  V30 26849 C 2571.25 0.102373 4.31879 0
M  V30 26850 C 2570.38 -0.784887 5.25369 0
M  V30 26851 C 2569.42 0.0716122 6.12058 0
M  V30 26852 N 2568.56 -0.772849 6.97833 0
M  V30 26853 H 2573.4 0.925235 2.83273 0
M  V30 26854 H 2570.94 0.46789 1.3946 0
M  V30 26855 H 2572.89 -1.27787 3.97148 0
M  V30 26856 H 2571.52 -1.50863 2.85377 0
M  V30 26857 H 2570.58 0.74716 3.7299 0
M  V30 26858 H 2571.89 0.763639 4.9292 0
M  V30 26859 H 2571.04 -1.37901 5.9082 0
M  V30 26860 H 2569.78 -1.47987 4.64705 0
M  V30 26861 H 2568.79 0.678368 5.45599 0
M  V30 26862 H 2570.01 0.763725 6.74792 0
M  V30 26863 H 2567.96 -1.45271 6.39713 0
M  V30 26864 H 2567.87 -0.168576 7.55812 0
M  V30 26865 H 2569.14 -1.3518 7.67689 0
M  V30 26866 N 2573.37 -1.4921 0.507345 0
M  V30 26867 C 2574.28 -2.33017 -0.272095 0
M  V30 26868 C 2575.3 -1.45042 -0.961181 0
M  V30 26869 O 2576.47 -1.78057 -0.941159 0
M  V30 26870 C 2573.54 -3.20634 -1.3189 0
M  V30 26871 C 2572.6 -4.24464 -0.642574 0
M  V30 26872 C 2571.83 -5.07894 -1.6395 0
M  V30 26873 O 2572.06 -4.92938 -2.86999 0
M  V30 26874 O 2570.99 -5.89992 -1.19133 0
M  V30 26875 H 2574.82 -3.00864 0.414035 0
M  V30 26876 H 2572.4 -1.46966 0.268581 0
M  V30 26877 H 2574.28 -3.74894 -1.92439 0
M  V30 26878 H 2572.96 -2.55473 -1.98784 0
M  V30 26879 H 2571.87 -3.741 0.00282828 0
M  V30 26880 H 2573.2 -4.92197 -0.0159668 0
M  V30 26881 N 2574.85 -0.241454 -1.55739 0
M  V30 26882 C 2576.08 0.392076 -2.0366 0
M  V30 26883 C 2576.5 1.51142 -1.11971 0
M  V30 26884 O 2575.86 1.80956 -0.111626 0
M  V30 26885 C 2575.91 0.882309 -3.49639 0
M  V30 26886 O 2575.01 1.99229 -3.61084 0
M  V30 26887 H 2574.35 0.0862006 -0.658381 0
M  V30 26888 H 2576.88 -0.365917 -2.01301 0
M  V30 26889 H 2576.89 1.18695 -3.90353 0
M  V30 26890 H 2575.57 0.063163 -4.15852 0
M  V30 26891 H 2574.14 1.69276 -3.32265 0
M  V30 26892 N 2576.33 1.57568 0.0317248 0
M  V30 26893 C 2577.29 2.05362 1.0178 0
M  V30 26894 C 2578.29 0.957276 1.29201 0
M  V30 26895 O 2579.48 1.22098 1.24249 0
M  V30 26896 C 2576.61 2.46831 2.35133 0
M  V30 26897 H 2577.81 2.93734 0.60501 0
M  V30 26898 H 2575.36 1.53799 0.278487 0
M  V30 26899 H 2576.09 1.61607 2.81165 0
M  V30 26900 H 2575.88 3.2687 2.1656 0
M  V30 26901 H 2577.37 2.84244 3.05933 0
M  V30 26902 N 2577.81 -0.303946 1.54641 0
M  V30 26903 C 2579.05 -1.03952 1.73782 0
M  V30 26904 C 2579.38 -1.87364 0.522019 0
M  V30 26905 O 2578.64 -1.89308 -0.496065 0
M  V30 26906 C 2578.94 -1.97676 2.97756 0
M  V30 26907 C 2578.6 -1.30264 4.31674 0
M  V30 26908 C 2577.26 -1.11611 4.68077 0
M  V30 26909 C 2579.62 -0.82046 5.14702 0
M  V30 26910 C 2576.94 -0.434201 5.85091 0
M  V30 26911 C 2579.3 -0.152284 6.32417 0
M  V30 26912 C 2577.96 0.046224 6.67484 0
M  V30 26913 H 2577.23 -0.380387 0.635914 0
M  V30 26914 H 2579.88 -0.314685 1.88897 0
M  V30 26915 H 2578.18 -2.76678 2.77411 0
M  V30 26916 H 2579.88 -2.54656 3.0976 0
M  V30 26917 H 2576.47 -1.45788 4.03043 0
M  V30 26918 H 2580.65 -0.952289 4.87078 0
M  V30 26919 H 2575.91 -0.269387 6.10806 0
M  V30 26920 H 2580.08 0.229248 6.96023 0
M  V30 26921 H 2577.71 0.576627 7.5801 0
M  V30 26922 N 2579.28 -1.47047 -0.566994 0
M  V30 26923 C 2580.22 -1.54847 -1.68982 0
M  V30 26924 C 2581.23 -0.435459 -1.56868 0
M  V30 26925 O 2582.42 -0.704599 -1.64005 0
M  V30 26926 C 2579.52 -1.42748 -3.0737 0
M  V30 26927 C 2578.69 -2.68446 -3.45334 0
M  V30 26928 C 2577.75 -2.50322 -4.62845 0
M  V30 26929 O 2576.78 -3.24103 -4.67916 0
M  V30 26930 N 2577.98 -1.57509 -5.58723 0
M  V30 26931 H 2580.74 -2.51666 -1.6274 0
M  V30 26932 H 2578.3 -1.43303 -0.753385 0
M  V30 26933 H 2580.3 -1.28372 -3.838 0
M  V30 26934 H 2578.87 -0.540499 -3.07892 0
M  V30 26935 H 2578.09 -2.97653 -2.5845 0
M  V30 26936 H 2579.37 -3.51914 -3.6747 0
M  V30 26937 H 2578.77 -0.966974 -5.57374 0
M  V30 26938 H 2577.33 -1.49089 -6.3452 0
M  V30 26939 N 2580.76 0.812929 -1.35016 0
M  V30 26940 C 2581.99 1.60636 -1.3119 0
M  V30 26941 C 2582.41 1.87782 0.109349 0
M  V30 26942 O 2581.77 1.46049 1.07421 0
M  V30 26943 C 2581.82 2.91834 -2.11814 0
M  V30 26944 O 2580.92 3.84367 -1.49451 0
M  V30 26945 H 2580.26 0.488173 -0.450092 0
M  V30 26946 H 2582.79 1.00944 -1.77965 0
M  V30 26947 H 2582.8 3.41314 -2.23537 0
M  V30 26948 H 2581.48 2.71401 -3.15142 0
M  V30 26949 H 2580.06 3.42904 -1.4653 0
M  V30 26950 N 2582.24 1.18909 1.03433 0
M  V30 26951 C 2583.15 0.937053 2.15073 0
M  V30 26952 C 2584.17 -0.101054 1.73706 0
M  V30 26953 O 2585.34 0.0823301 2.01232 0
M  V30 26954 C 2582.41 0.473118 3.43457 0
M  V30 26955 C 2581.47 1.57996 3.99169 0
M  V30 26956 C 2580.7 1.13806 5.21425 0
M  V30 26957 O 2580.92 -0.000625679 5.704 0
M  V30 26958 O 2579.86 1.9384 5.69833 0
M  V30 26959 H 2583.68 1.87136 2.39194 0
M  V30 26960 H 2581.27 0.971447 1.13504 0
M  V30 26961 H 2583.15 0.222776 4.20811 0
M  V30 26962 H 2581.83 -0.432813 3.20793 0
M  V30 26963 H 2580.73 1.88439 3.23174 0
M  V30 26964 H 2582.07 2.46224 4.26186 0
M  V30 26965 N 2583.72 -1.22452 0.992137 0
M  V30 26966 C 2585.13 -1.72967 0.702807 0
M  V30 26967 C 2585.48 -1.80013 -0.780368 0
M  V30 26968 O 2584.61 -1.44591 -1.61004 0
M  V30 26969 C 2585.2 -3.14133 1.26909 0
M  V30 26970 C 2583.76 -3.62057 1.02915 0
M  V30 26971 C 2582.91 -2.39962 1.38974 0
M  V30 26972 H 2585.86 -1.0781 1.16459 0
M  V30 26973 H 2585.88 -3.74954 0.647289 0
M  V30 26974 H 2585.39 -3.08973 2.34856 0
M  V30 26975 H 2583.49 -3.72585 -0.0337324 0
M  V30 26976 H 2583.6 -4.48228 1.69199 0
M  V30 26977 H 2581.97 -2.41533 0.808322 0
M  V30 26978 H 2582.75 -2.37463 2.47924 0
M  V30 26979 N 2585.2 -0.765242 -1.37774 0
M  V30 26980 C 2586.61 -0.444135 -1.53296 0
M  V30 26981 C 2586.81 1.04116 -1.72517 0
M  V30 26982 O 2585.87 1.82708 -1.74282 0
M  V30 26983 C 2587.18 -1.25354 -2.73326 0
M  V30 26984 C 2588.73 -1.24478 -2.87183 0
M  V30 26985 C 2589.2 -2.0374 -4.10188 0
M  V30 26986 N 2590.7 -2.0106 -4.17288 0
M  V30 26987 C 2591.43 -2.59175 -5.11484 0
M  V30 26988 N 2590.93 -3.26051 -6.11279 0
M  V30 26989 N 2592.72 -2.49041 -5.0392 0
M  V30 26990 H 2584.87 -1.7277 -1.23549 0
M  V30 26991 H 2587.13 -0.733072 -0.60109 0
M  V30 26992 H 2586.84 -2.30581 -2.65566 0
M  V30 26993 H 2586.71 -0.878295 -3.66832 0
M  V30 26994 H 2589.1 -0.200522 -2.94418 0
M  V30 26995 H 2589.18 -1.65962 -1.94654 0
M  V30 26996 H 2588.83 -3.08183 -4.03714 0
M  V30 26997 H 2588.76 -1.59642 -5.01819 0
M  V30 26998 H 2591.25 -1.52366 -3.45822 0
M  V30 26999 H 2591.56 -3.67786 -6.79671 0
M  V30 27000 H 2589.9 -3.30149 -6.11577 0
M  V30 27001 H 2593.1 -1.96414 -4.24899 0
M  V30 27002 H 2593.27 -2.94627 -5.77147 0
M  V30 27003 N 2586.67 1.48939 -0.515251 0
M  V30 27004 C 2587.92 2.01683 0.0261007 0
M  V30 27005 C 2588.24 1.39886 1.36716 0
M  V30 27006 O 2589.44 1.84041 1.99603 0
M  V30 27007 C 2587.9 3.59769 0.0969479 0
M  V30 27008 C 2587.51 4.30545 -1.23833 0
M  V30 27009 C 2589.25 4.20409 0.587908 0
M  V30 27010 C 2587.16 5.80526 -1.12887 0
M  V30 27011 H 2586.09 0.753879 0.0135266 0
M  V30 27012 H 2588.74 1.71342 -0.656817 0
M  V30 27013 H 2587.12 3.86888 0.844626 0
M  V30 27014 H 2588.29 4.15114 -2.00042 0
M  V30 27015 H 2586.61 3.81713 -1.66385 0
M  V30 27016 H 2589.21 5.30261 0.687537 0
M  V30 27017 H 2589.55 3.84732 1.59019 0
M  V30 27018 H 2590.08 3.97665 -0.103652 0
M  V30 27019 H 2586.82 6.20753 -2.10586 0
M  V30 27020 H 2586.34 5.98411 -0.407905 0
M  V30 27021 H 2588.02 6.41866 -0.813445 0
M  V30 27022 N 2588.15 0.249709 1.55609 0
M  V30 27023 C 2589.38 -0.381269 2.03865 0
M  V30 27024 C 2589.8 -1.50546 1.12771 0
M  V30 27025 O 2589.16 -1.80894 0.121221 0
M  V30 27026 C 2589.21 -0.863754 3.50102 0
M  V30 27027 O 2588.31 -1.97311 3.62135 0
M  V30 27028 H 2587.65 -0.0827079 0.658829 0
M  V30 27029 H 2590.18 0.376587 2.01104 0
M  V30 27030 H 2590.19 -1.16623 3.90977 0
M  V30 27031 H 2588.87 -0.0411085 4.1588 0
M  V30 27032 H 2587.45 -1.67512 3.33158 0
M  V30 27033 N 2589.63 -1.57583 -0.0233682 0
M  V30 27034 C 2590.54 -2.10336 -1.03904 0
M  V30 27035 C 2591.56 -1.04326 -1.39256 0
M  V30 27036 O 2592.73 -1.36094 -1.4846 0
M  V30 27037 C 2589.8 -2.57697 -2.31933 0
M  V30 27038 C 2588.86 -3.78213 -2.0311 0
M  V30 27039 C 2588.09 -4.23306 -3.25036 0
M  V30 27040 O 2588.32 -3.67884 -4.3591 0
M  V30 27041 O 2587.25 -5.15688 -3.10402 0
M  V30 27042 H 2591.08 -2.9729 -0.620695 0
M  V30 27043 H 2588.66 -1.47448 -0.240717 0
M  V30 27044 H 2590.54 -2.88464 -3.07191 0
M  V30 27045 H 2589.22 -1.73852 -2.73052 0
M  V30 27046 H 2588.12 -3.52456 -1.25402 0
M  V30 27047 H 2589.46 -4.63059 -1.66844 0
M  V30 27048 N 2591.11 0.29574 -1.548 0
M  V30 27049 C 2592.33 1.05343 -1.78655 0
M  V30 27050 C 2592.76 1.79973 -0.546926 0
M  V30 27051 O 2592.12 1.7419 0.502732 0
M  V30 27052 C 2592.17 2.00555 -2.99683 0
M  V30 27053 O 2591.27 3.08948 -2.73176 0
M  V30 27054 H 2590.61 0.302356 -0.591166 0
M  V30 27055 H 2593.14 0.331562 -2.01896 0
M  V30 27056 H 2593.15 2.42926 -3.27797 0
M  V30 27057 H 2591.83 1.45643 -3.89565 0
M  V30 27058 H 2590.4 2.71055 -2.56093 0
M  V30 27059 N 2592.59 1.47346 0.559187 0
M  V30 27060 C 2593.52 1.62561 1.67619 0
M  V30 27061 C 2594.5 0.475115 1.6333 0
M  V30 27062 O 2595.68 0.704214 1.80982 0
M  V30 27063 C 2592.81 1.6378 3.06257 0
M  V30 27064 C 2591.77 2.78036 3.25392 0
M  V30 27065 C 2591.09 2.64326 4.64796 0
M  V30 27066 C 2592.39 4.19646 3.10957 0
M  V30 27067 H 2594.09 2.56069 1.55142 0
M  V30 27068 H 2591.63 1.23234 0.74494 0
M  V30 27069 H 2593.59 1.73015 3.84244 0
M  V30 27070 H 2592.31 0.668306 3.19689 0
M  V30 27071 H 2590.97 2.68308 2.49812 0
M  V30 27072 H 2590.62 1.65409 4.75025 0
M  V30 27073 H 2590.32 3.40977 4.78549 0
M  V30 27074 H 2591.84 2.75487 5.44921 0
M  V30 27075 H 2593.26 4.30361 3.78764 0
M  V30 27076 H 2591.65 4.97068 3.3622 0
M  V30 27077 H 2592.72 4.38152 2.07729 0
M  V30 27078 N 2594.07 -0.805758 1.35445 0
M  V30 27079 C 2595.31 -1.5652 1.28955 0
M  V30 27080 C 2595.64 -1.93726 -0.135563 0
M  V30 27081 O 2594.92 -1.61416 -1.08513 0
M  V30 27082 C 2595.2 -2.85327 2.19683 0
M  V30 27083 C 2595.06 -2.54592 3.70814 0
M  V30 27084 C 2596.37 -3.87036 2.09502 0
M  V30 27085 H 2593.49 -0.567874 0.469774 0
M  V30 27086 H 2596.14 -0.926971 1.65853 0
M  V30 27087 H 2594.29 -3.39791 1.88346 0
M  V30 27088 H 2595.96 -2.06304 4.12597 0
M  V30 27089 H 2594.2 -1.87773 3.91055 0
M  V30 27090 H 2594.87 -3.46518 4.29685 0
M  V30 27091 H 2597.35 -3.41974 2.37051 0
M  V30 27092 H 2596.22 -4.74939 2.75181 0
M  V30 27093 H 2596.48 -4.28775 1.07722 0
M  V30 27094 N 2595.54 -1.19456 -1.02801 0
M  V30 27095 C 2596.96 -0.94696 -1.28471 0
M  V30 27096 C 2597.16 0.380168 -1.97881 0
M  V30 27097 O 2596.22 1.11147 -2.26721 0
M  V30 27098 C 2597.53 -2.12158 -2.13095 0
M  V30 27099 C 2599.08 -2.1613 -2.264 0
M  V30 27100 C 2599.55 -3.33045 -3.14396 0
M  V30 27101 N 2601.04 -3.32986 -3.21985 0
M  V30 27102 C 2601.78 -4.20096 -3.90265 0
M  V30 27103 N 2601.27 -5.17363 -4.60768 0
M  V30 27104 N 2603.07 -4.07971 -3.86673 0
M  V30 27105 H 2595.22 -2.0484 -0.561629 0
M  V30 27106 H 2597.48 -0.895736 -0.310422 0
M  V30 27107 H 2597.19 -3.08206 -1.69417 0
M  V30 27108 H 2597.06 -2.09293 -3.13809 0
M  V30 27109 H 2599.45 -1.20652 -2.69309 0
M  V30 27110 H 2599.53 -2.23048 -1.25233 0
M  V30 27111 H 2599.17 -4.28803 -2.72196 0
M  V30 27112 H 2599.1 -3.23364 -4.15624 0
M  V30 27113 H 2601.59 -2.62579 -2.71773 0
M  V30 27114 H 2601.91 -5.80178 -5.10503 0
M  V30 27115 H 2600.25 -5.2131 -4.59631 0
M  V30 27116 H 2603.44 -3.3126 -3.30733 0
M  V30 27117 H 2603.62 -4.76072 -4.39613 0
M  V30 27118 N 2597.02 1.21924 -0.998617 0
M  V30 27119 C 2597.97 2.21878 -0.524782 0
M  V30 27120 C 2598.96 1.55585 0.410143 0
M  V30 27121 O 2600.15 1.75419 0.236032 0
M  V30 27122 C 2597.28 3.42956 0.153576 0
M  V30 27123 C 2596.36 4.16448 -0.801991 0
M  V30 27124 N 2596.75 4.66608 -1.95219 0
M  V30 27125 C 2595.05 4.41683 -0.619049 0
M  V30 27126 C 2595.75 5.2271 -2.55243 0
M  V30 27127 N 2594.73 5.11706 -1.8346 0
M  V30 27128 H 2598.53 2.58308 -1.40193 0
M  V30 27129 H 2596.04 1.37659 -0.861614 0
M  V30 27130 H 2598.04 4.13763 0.510461 0
M  V30 27131 H 2596.7 3.08038 1.02679 0
M  V30 27132 H 2597.71 4.62387 -2.33279 0
M  V30 27133 H 2594.39 4.16983 0.207621 0
M  V30 27134 H 2595.78 5.7202 -3.52481 0
M  V30 27135 N 2598.5 0.772537 1.37367 0
M  V30 27136 C 2599.46 0.165582 2.28601 0
M  V30 27137 C 2600.46 -0.627212 1.48063 0
M  V30 27138 O 2601.65 -0.450685 1.68269 0
M  V30 27139 C 2598.78 -0.772839 3.32024 0
M  V30 27140 H 2599.98 0.969836 2.83785 0
M  V30 27141 H 2597.53 0.540801 1.46646 0
M  V30 27142 H 2598.27 -1.60207 2.81965 0
M  V30 27143 H 2598.05 -0.206517 3.91556 0
M  V30 27144 H 2599.54 -1.19291 4.00199 0
M  V30 27145 N 2599.98 -1.48664 0.523142 0
M  V30 27146 C 2601.2 -2.07397 -0.011692 0
M  V30 27147 C 2601.63 -1.37805 -1.28029 0
M  V30 27148 O 2600.99 -0.441793 -1.75835 0
M  V30 27149 C 2601.03 -3.59893 -0.225723 0
M  V30 27150 O 2600.14 -3.91512 -1.29585 0
M  V30 27151 H 2599.48 -0.663019 0.036079 0
M  V30 27152 H 2602.01 -1.91168 0.7291 0
M  V30 27153 H 2602.02 -4.05505 -0.45048 0
M  V30 27154 H 2600.69 -4.09949 0.701016 0
M  V30 27155 H 2599.27 -3.57686 -1.05429 0
M  V30 27156 N 2601.46 -0.257958 -1.55475 0
M  V30 27157 C 2602.68 0.367524 -2.0361 0
M  V30 27158 C 2603.1 1.50732 -1.1369 0
M  V30 27159 O 2602.46 1.81853 -0.153511 0
M  V30 27160 C 2602.51 0.864846 -3.51002 0
M  V30 27161 O 2602.23 -0.229542 -4.37498 0
M  V30 27162 C 2603.73 1.55989 -4.14948 0
M  V30 27163 H 2600.95 0.0860404 -0.665461 0
M  V30 27164 H 2603.49 -0.385049 -2.00842 0
M  V30 27165 H 2601.65 1.56756 -3.54269 0
M  V30 27166 H 2602.06 0.149888 -5.24286 0
M  V30 27167 H 2603.54 1.85947 -5.19738 0
M  V30 27168 H 2604.01 2.48564 -3.62095 0
M  V30 27169 H 2604.62 0.90147 -4.15636 0
M  V30 27170 N 2602.93 1.57593 0.0150108 0
M  V30 27171 C 2604.16 1.94574 0.718033 0
M  V30 27172 C 2604.58 0.859035 1.67339 0
M  V30 27173 O 2603.94 -0.184116 1.80363 0
M  V30 27174 C 2603.99 3.30638 1.43912 0
M  V30 27175 O 2603.09 3.23881 2.55294 0
M  V30 27176 H 2602.44 0.635601 0.192114 0
M  V30 27177 H 2604.97 2.04572 -0.0337068 0
M  V30 27178 H 2604.98 3.65856 1.80591 0
M  V30 27179 H 2603.65 4.0929 0.738547 0
M  V30 27180 H 2602.23 3.00316 2.21053 0
M  V30 27181 N 2604.41 -0.287527 1.54955 0
M  V30 27182 C 2605.64 -1.04394 1.79211 0
M  V30 27183 C 2606.06 -1.79681 0.556463 0
M  V30 27184 O 2605.42 -1.74455 -0.493487 0
M  V30 27185 C 2605.47 -1.98963 3.00742 0
M  V30 27186 O 2604.57 -3.07495 2.7481 0
M  V30 27187 H 2603.91 -0.299217 0.592761 0
M  V30 27188 H 2606.44 -0.320851 2.02069 0
M  V30 27189 H 2606.45 -2.41184 3.29081 0
M  V30 27190 H 2605.13 -1.43575 3.90332 0
M  V30 27191 H 2603.71 -2.69693 2.57527 0
M  V30 27192 N 2605.89 -1.47641 -0.551365 0
M  V30 27193 C 2607.3 -1.48356 -1.13346 0
M  V30 27194 C 2607.65 -0.241466 -1.94708 0
M  V30 27195 O 2606.78 0.653169 -2.06307 0
M  V30 27196 C 2607.37 -2.68806 -2.06225 0
M  V30 27197 C 2605.93 -2.72462 -2.59695 0
M  V30 27198 C 2605.08 -2.41549 -1.36197 0
M  V30 27199 H 2608.03 -1.55066 -0.337671 0
M  V30 27200 H 2608.05 -2.46108 -2.90191 0
M  V30 27201 H 2607.56 -3.59191 -1.46981 0
M  V30 27202 H 2605.66 -1.86231 -3.22721 0
M  V30 27203 H 2605.78 -3.73313 -3.0029 0
M  V30 27204 H 2604.14 -1.92253 -1.67065 0
M  V30 27205 H 2604.92 -3.34149 -0.787366 0
M  V30 27206 N 2607.37 0.798563 -1.3587 0
M  V30 27207 C 2608.33 1.89239 -1.2931 0
M  V30 27208 C 2609.33 1.59516 -0.202775 0
M  V30 27209 O 2610.52 1.68099 -0.456986 0
M  V30 27210 C 2607.65 3.25831 -1.00235 0
M  V30 27211 H 2608.85 1.96474 -2.26579 0
M  V30 27212 H 2606.4 0.995336 -1.2051 0
M  V30 27213 H 2607.13 3.24282 -0.033858 0
M  V30 27214 H 2606.92 3.48792 -1.79127 0
M  V30 27215 H 2608.41 4.05883 -0.982261 0
M  V30 27216 N 2608.85 1.19999 1.02166 0
M  V30 27217 C 2610.12 0.916221 1.72814 0
M  V30 27218 C 2610.5 -0.576289 2.03082 0
M  V30 27219 O 2609.85 -1.53653 1.69124 0
M  V30 27220 C 2610.06 1.78384 2.99967 0
M  V30 27221 C 2611.41 2.02257 3.73332 0
M  V30 27222 O 2612.43 1.75595 3.09911 0
M  V30 27223 O 2611.29 2.47257 4.87367 0
M  V30 27224 H 2608.39 0.342117 0.752918 0
M  V30 27225 H 2610.93 1.30848 1.0806 0
M  V30 27226 H 2609.7 2.79471 2.73883 0
M  V30 27227 H 2609.33 1.39132 3.72462 0
M  V30 27228 N 2610.32 -1.21392 1.00507 0
M  V30 27229 C 2611.27 -2.23764 0.565535 0
M  V30 27230 C 2612.24 -1.61 -0.408438 0
M  V30 27231 O 2613.43 -1.88257 -0.31047 0
M  V30 27232 C 2610.57 -3.4495 -0.101606 0
M  V30 27233 C 2609.68 -4.22187 0.915554 0
M  V30 27234 C 2608.81 -5.30741 0.220667 0
M  V30 27235 C 2607.85 -5.99709 1.22537 0
M  V30 27236 N 2606.99 -6.99879 0.557954 0
M  V30 27237 H 2611.83 -2.60722 1.44319 0
M  V30 27238 H 2609.37 -1.28125 0.722666 0
M  V30 27239 H 2611.33 -4.14127 -0.505432 0
M  V30 27240 H 2609.96 -3.0872 -0.942976 0
M  V30 27241 H 2609.01 -3.52188 1.43762 0
M  V30 27242 H 2610.32 -4.69652 1.68013 0
M  V30 27243 H 2609.47 -6.06228 -0.239262 0
M  V30 27244 H 2608.21 -4.84283 -0.576315 0
M  V30 27245 H 2607.22 -5.22994 1.69581 0
M  V30 27246 H 2608.44 -6.48255 2.02344 0
M  V30 27247 H 2606.39 -6.55633 -0.21937 0
M  V30 27248 H 2606.31 -7.45413 1.26078 0
M  V30 27249 H 2607.57 -7.79406 0.121232 0
M  V30 27250 N 2611.8 -0.779811 -1.36955 0
M  V30 27251 C 2612.77 -0.177702 -2.2851 0
M  V30 27252 C 2613.77 0.619351 -1.48394 0
M  V30 27253 O 2614.96 0.441755 -1.68506 0
M  V30 27254 C 2612.09 0.75522 -3.32429 0
M  V30 27255 H 2613.28 -0.984873 -2.83267 0
M  V30 27256 H 2610.83 -0.54857 -1.46357 0
M  V30 27257 H 2611.57 1.58709 -2.82811 0
M  V30 27258 H 2611.35 0.185749 -3.9166 0
M  V30 27259 H 2612.84 1.17167 -4.00826 0
M  V30 27260 N 2613.28 1.48384 -0.531019 0
M  V30 27261 C 2614.23 2.29639 0.231183 0
M  V30 27262 C 2615.2 1.37431 0.932839 0
M  V30 27263 O 2616.38 1.66395 0.933663 0
M  V30 27264 C 2613.52 3.20822 1.2715 0
M  V30 27265 C 2612.64 4.28108 0.57858 0
M  V30 27266 C 2611.77 5.0647 1.60192 0
M  V30 27267 C 2610.81 6.05558 0.892518 0
M  V30 27268 N 2609.95 6.76975 1.86145 0
M  V30 27269 H 2614.79 2.94304 -0.4679 0
M  V30 27270 H 2612.32 1.45086 -0.242581 0
M  V30 27271 H 2614.28 3.72088 1.88696 0
M  V30 27272 H 2612.91 2.58079 1.93895 0
M  V30 27273 H 2611.96 3.80101 -0.150849 0
M  V30 27274 H 2613.28 4.98795 0.0216188 0
M  V30 27275 H 2612.43 5.61755 2.29164 0
M  V30 27276 H 2611.17 4.35625 2.19277 0
M  V30 27277 H 2610.17 5.49476 0.188732 0
M  V30 27278 H 2611.4 6.78402 0.307759 0
M  V30 27279 H 2609.34 6.08879 2.44136 0
M  V30 27280 H 2609.26 7.43741 1.35595 0
M  V30 27281 H 2610.53 7.36848 2.54312 0
M  V30 27282 N 2614.76 0.2662 1.55336 0
M  V30 27283 C 2616 -0.353646 1.99693 0
M  V30 27284 C 2616.34 -1.5617 1.15432 0
M  V30 27285 O 2615.61 -1.93226 0.222252 0
M  V30 27286 C 2615.9 -0.744598 3.52318 0
M  V30 27287 C 2615.75 0.47018 4.47336 0
M  V30 27288 C 2617.07 -1.5844 4.10591 0
M  V30 27289 H 2614.19 -0.127068 0.725963 0
M  V30 27290 H 2616.83 0.371366 1.86335 0
M  V30 27291 H 2614.98 -1.36232 3.63831 0
M  V30 27292 H 2616.65 1.10872 4.47778 0
M  V30 27293 H 2614.89 1.10986 4.19362 0
M  V30 27294 H 2615.56 0.153007 5.51788 0
M  V30 27295 H 2618.04 -1.06279 4.02298 0
M  V30 27296 H 2616.92 -1.82677 5.1761 0
M  V30 27297 H 2617.18 -2.56256 3.60258 0
M  V30 27298 N 2616.24 -1.57599 -0.0066531 0
M  V30 27299 C 2617.46 -1.94553 -0.704053 0
M  V30 27300 C 2617.88 -0.867775 -1.67676 0
M  V30 27301 O 2617.24 0.153893 -1.8185 0
M  V30 27302 C 2617.29 -3.31507 -1.44171 0
M  V30 27303 O 2617.01 -4.35145 -0.508021 0
M  V30 27304 C 2618.51 -3.8288 -2.23422 0
M  V30 27305 H 2615.73 -0.641579 -0.196512 0
M  V30 27306 H 2618.27 -2.04456 0.0424889 0
M  V30 27307 H 2616.43 -3.22933 -2.13994 0
M  V30 27308 H 2616.84 -5.14332 -1.02773 0
M  V30 27309 H 2618.32 -4.81155 -2.70543 0
M  V30 27310 H 2618.79 -3.15239 -3.05812 0
M  V30 27311 H 2619.4 -3.9461 -1.5863 0
M  V30 27312 N 2617.72 0.279305 -1.55105 0
M  V30 27313 C 2618.96 1.00949 -1.7462 0
M  V30 27314 C 2619.28 1.87675 -0.551129 0
M  V30 27315 O 2620.48 2.64124 -0.628554 0
M  V30 27316 C 2618.94 1.84471 -3.09028 0
M  V30 27317 C 2618.55 1.02642 -4.36083 0
M  V30 27318 C 2620.29 2.56957 -3.37895 0
M  V30 27319 C 2618.2 1.85566 -5.61533 0
M  V30 27320 H 2617.13 0.380629 -0.650875 0
M  V30 27321 H 2619.78 0.265444 -1.8157 0
M  V30 27322 H 2618.16 2.62947 -2.961 0
M  V30 27323 H 2619.34 0.286273 -4.5991 0
M  V30 27324 H 2617.65 0.416391 -4.14313 0
M  V30 27325 H 2620.25 3.19391 -4.28828 0
M  V30 27326 H 2620.59 3.26916 -2.57743 0
M  V30 27327 H 2621.12 1.85516 -3.51893 0
M  V30 27328 H 2617.86 1.20039 -6.44415 0
M  V30 27329 H 2617.38 2.57195 -5.41859 0
M  V30 27330 H 2619.06 2.43086 -5.99598 0
M  V30 27331 N 2619.19 1.47931 0.543528 0
M  V30 27332 C 2620.42 1.59147 1.32992 0
M  V30 27333 C 2620.84 0.246989 1.86471 0
M  V30 27334 O 2620.2 -0.779295 1.63697 0
M  V30 27335 C 2620.25 2.63082 2.46618 0
M  V30 27336 O 2619.35 2.19301 3.49257 0
M  V30 27337 H 2618.69 0.534131 0.394462 0
M  V30 27338 H 2621.22 1.93817 0.655455 0
M  V30 27339 H 2621.23 2.83932 2.92996 0
M  V30 27340 H 2619.91 3.60697 2.07053 0
M  V30 27341 H 2618.49 2.08608 3.09091 0
M  V30 27342 N 2620.67 -0.791347 1.36292 0
M  V30 27343 C 2621.95 -1.5371 1.20965 0
M  V30 27344 C 2622.33 -2.10102 -0.204984 0
M  V30 27345 O 2621.68 -1.93809 -1.21038 0
M  V30 27346 C 2621.89 -2.63357 2.29006 0
M  V30 27347 C 2623.23 -3.31291 2.65578 0
M  V30 27348 O 2624.26 -2.73639 2.28035 0
M  V30 27349 O 2623.12 -4.35475 3.30188 0
M  V30 27350 H 2620.21 -0.679859 0.470872 0
M  V30 27351 H 2622.76 -0.829995 1.48017 0
M  V30 27352 H 2621.53 -2.19668 3.23823 0
M  V30 27353 H 2621.15 -3.41689 2.03309 0
M  V30 27354 N 2622.15 -1.2054 -1.01528 0
M  V30 27355 C 2623.4 -1.01435 -1.74801 0
M  V30 27356 C 2623.72 0.454423 -1.89631 0
M  V30 27357 O 2622.99 1.32843 -1.43977 0
M  V30 27358 H 2621.57 -0.372336 -0.647592 0
M  V30 27359 H 2624.23 -1.51672 -1.224 0
M  V30 27360 H 2623.33 -1.47378 -2.75111 0
M  V30 27361 N 2623.63 1.20858 -1.01149 0
M  V30 27362 C 2624.57 2.23461 -0.577394 0
M  V30 27363 C 2625.54 1.61214 0.399894 0
M  V30 27364 O 2626.73 1.88419 0.300482 0
M  V30 27365 C 2623.87 3.44999 0.0833113 0
M  V30 27366 C 2622.98 4.21695 -0.93793 0
M  V30 27367 C 2622.12 5.30617 -0.24881 0
M  V30 27368 C 2621.16 5.99051 -1.25716 0
M  V30 27369 N 2620.29 6.99574 -0.595062 0
M  V30 27370 H 2625.13 2.59953 -1.457 0
M  V30 27371 H 2622.67 1.2774 -0.72945 0
M  V30 27372 H 2624.63 4.14389 0.483462 0
M  V30 27373 H 2623.26 3.09215 0.92659 0
M  V30 27374 H 2622.31 3.51421 -1.45628 0
M  V30 27375 H 2623.62 4.68754 -1.70501 0
M  V30 27376 H 2622.78 6.06346 0.207109 0
M  V30 27377 H 2621.52 4.84582 0.550625 0
M  V30 27378 H 2620.52 5.22087 -1.72352 0
M  V30 27379 H 2621.75 6.47172 -2.05779 0
M  V30 27380 H 2619.69 6.5574 0.184597 0
M  V30 27381 H 2619.61 7.44734 -1.3003 0
M  V30 27382 H 2620.88 7.7933 -0.162564 0
M  V30 27383 N 2625.11 0.787064 1.3654 0
M  V30 27384 C 2626.35 0.358907 1.99599 0
M  V30 27385 C 2626.68 -1.06603 1.62325 0
M  V30 27386 O 2625.96 -1.73611 0.876889 0
M  V30 27387 C 2626.24 0.520006 3.56326 0
M  V30 27388 C 2626.1 1.98846 4.0346 0
M  V30 27389 C 2627.41 -0.0663964 4.4005 0
M  V30 27390 H 2624.53 0.131882 0.725104 0
M  V30 27391 H 2627.18 0.992964 1.61988 0
M  V30 27392 H 2625.33 -0.0197638 3.88495 0
M  V30 27393 H 2627 2.58911 3.81789 0
M  V30 27394 H 2625.24 2.4919 3.55087 0
M  V30 27395 H 2625.91 2.05216 5.12436 0
M  V30 27396 H 2628.39 0.394339 4.14227 0
M  V30 27397 H 2627.26 0.0763647 5.48847 0
M  V30 27398 H 2627.52 -1.15827 4.26657 0
M  V30 27399 N 2626.58 -1.48101 0.53888 0
M  V30 27400 C 2627.55 -2.28251 -0.208355 0
M  V30 27401 C 2628.55 -1.35893 -0.859632 0
M  V30 27402 O 2629.74 -1.58701 -0.718312 0
M  V30 27403 C 2626.87 -3.15038 -1.30246 0
M  V30 27404 H 2628.06 -2.95779 0.495459 0
M  V30 27405 H 2625.61 -1.53488 0.295139 0
M  V30 27406 H 2626.35 -2.52161 -2.03925 0
M  V30 27407 H 2626.13 -3.82986 -0.840484 0
M  V30 27408 H 2627.62 -3.75474 -1.8278 0
M  V30 27409 N 2628.06 -0.274434 -1.55192 0
M  V30 27410 C 2629.34 0.394298 -1.91585 0
M  V30 27411 C 2629.72 1.73772 -1.19861 0
M  V30 27412 O 2629.07 2.26173 -0.325239 0
M  V30 27413 C 2629.28 0.53525 -3.44871 0
M  V30 27414 C 2630.62 0.818461 -4.16637 0
M  V30 27415 O 2631.65 0.620084 -3.50761 0
M  V30 27416 O 2630.51 1.19782 -5.33211 0
M  V30 27417 H 2627.6 0.21578 -0.798353 0
M  V30 27418 H 2630.15 -0.320536 -1.66645 0
M  V30 27419 H 2628.92 -0.410209 -3.89144 0
M  V30 27420 H 2628.54 1.29958 -3.75762 0
M  V30 27421 N 2629.54 1.576 -0.00170483 0
M  V30 27422 C 2630.45 2.11962 1.00544 0
M  V30 27423 C 2631.47 1.06528 1.37578 0
M  V30 27424 O 2632.64 1.38439 1.46276 0
M  V30 27425 C 2629.71 2.61354 2.27804 0
M  V30 27426 C 2628.77 3.81396 1.97067 0
M  V30 27427 C 2628 4.28423 3.1826 0
M  V30 27428 O 2628.22 3.74772 4.30002 0
M  V30 27429 O 2627.16 5.20561 3.02158 0
M  V30 27430 H 2630.98 2.98239 0.573321 0
M  V30 27431 H 2628.57 1.47812 0.217229 0
M  V30 27432 H 2630.45 2.93315 3.02563 0
M  V30 27433 H 2629.13 1.78174 2.70251 0
M  V30 27434 H 2628.03 3.54406 1.19779 0
M  V30 27435 H 2629.37 4.65655 1.59456 0
M  V30 27436 N 2631.02 -0.271076 1.55251 0
M  V30 27437 C 2631.93 -1.35711 1.91363 0
M  V30 27438 C 2632.94 -1.53939 0.811102 0
M  V30 27439 O 2634.12 -1.68028 1.11034 0
M  V30 27440 C 2631.18 -2.69599 2.17985 0
M  V30 27441 C 2630.25 -2.60101 3.41535 0
M  V30 27442 C 2629.48 -3.87604 3.66878 0
M  V30 27443 O 2629.7 -4.88374 2.94698 0
M  V30 27444 O 2628.64 -3.87691 4.60412 0
M  V30 27445 H 2632.46 -1.08083 2.83817 0
M  V30 27446 H 2630.05 -0.469767 1.41822 0
M  V30 27447 H 2631.93 -3.48761 2.36524 0
M  V30 27448 H 2630.6 -2.97009 1.28713 0
M  V30 27449 H 2629.51 -1.79308 3.28328 0
M  V30 27450 H 2630.84 -2.3764 4.31032 0
M  V30 27451 N 2632.5 -1.48217 -0.535675 0
M  V30 27452 C 2633.44 -1.62315 -1.6408 0
M  V30 27453 C 2634.41 -0.465394 -1.59447 0
M  V30 27454 O 2635.6 -0.688167 -1.77958 0
M  V30 27455 C 2632.74 -1.66355 -3.02358 0
M  V30 27456 C 2631.85 -2.93198 -3.17268 0
M  V30 27457 C 2630.99 -2.88435 -4.4607 0
M  V30 27458 C 2630.03 -4.10008 -4.54489 0
M  V30 27459 N 2629.16 -4.03355 -5.74673 0
M  V30 27460 H 2634 -2.56693 -1.5137 0
M  V30 27461 H 2631.54 -1.27303 -0.737037 0
M  V30 27462 H 2633.5 -1.66679 -3.82458 0
M  V30 27463 H 2632.13 -0.754727 -3.13853 0
M  V30 27464 H 2631.18 -3.02645 -2.30457 0
M  V30 27465 H 2632.49 -3.83167 -3.1935 0
M  V30 27466 H 2631.65 -2.87128 -5.34455 0
M  V30 27467 H 2630.38 -1.96185 -4.465 0
M  V30 27468 H 2629.39 -4.11596 -3.64512 0
M  V30 27469 H 2630.61 -5.0341 -4.55801 0
M  V30 27470 H 2628.56 -3.13922 -5.76011 0
M  V30 27471 H 2628.48 -4.87023 -5.78225 0
M  V30 27472 H 2629.75 -4.06099 -6.6536 0
M  V30 27473 N 2633.97 0.784108 -1.3671 0
M  V30 27474 C 2635.39 1.35962 -1.2795 0
M  V30 27475 C 2635.74 1.96043 0.0783668 0
M  V30 27476 O 2634.86 1.9294 0.979955 0
M  V30 27477 C 2635.46 2.47191 -2.31693 0
M  V30 27478 C 2634.02 3.00544 -2.26606 0
M  V30 27479 C 2633.16 1.73662 -2.16187 0
M  V30 27480 H 2636.11 0.585332 -1.47511 0
M  V30 27481 H 2636.13 3.26349 -1.95644 0
M  V30 27482 H 2635.65 2.03433 -3.30509 0
M  V30 27483 H 2633.75 3.48709 -1.31274 0
M  V30 27484 H 2633.86 3.56998 -3.19514 0
M  V30 27485 H 2632.22 1.96104 -1.62528 0
M  V30 27486 H 2633.01 1.32025 -3.16898 0
M  V30 27487 N 2635.45 1.21076 1.00888 0
M  V30 27488 C 2636.4 0.966548 2.09586 0
M  V30 27489 C 2637.37 -0.10606 1.65761 0
M  V30 27490 O 2638.55 0.0402623 1.90758 0
M  V30 27491 C 2635.69 0.533118 3.40957 0
M  V30 27492 C 2634.81 1.67474 3.98217 0
M  V30 27493 C 2633.94 1.19085 5.1768 0
M  V30 27494 C 2632.98 2.30506 5.67039 0
M  V30 27495 N 2632.12 1.83279 6.77756 0
M  V30 27496 H 2636.96 1.89712 2.29812 0
M  V30 27497 H 2634.5 0.945509 1.12688 0
M  V30 27498 H 2636.45 0.263093 4.1637 0
M  V30 27499 H 2635.08 -0.360449 3.20781 0
M  V30 27500 H 2634.14 2.05949 3.19827 0
M  V30 27501 H 2635.45 2.51343 4.30846 0
M  V30 27502 H 2634.6 0.877256 6.00324 0
M  V30 27503 H 2633.34 0.322151 4.86635 0
M  V30 27504 H 2632.35 2.62673 4.82994 0
M  V30 27505 H 2633.57 3.17865 6.00115 0
M  V30 27506 H 2631.52 0.98747 6.48525 0
M  V30 27507 H 2631.43 2.60724 7.09619 0
M  V30 27508 H 2632.7 1.54942 7.63946 0
M  V30 27509 N 2636.93 -1.2032 1.01789 0
M  V30 27510 C 2637.88 -2.23152 0.589236 0
M  V30 27511 C 2638.85 -1.61424 -0.391339 0
M  V30 27512 O 2640.03 -1.88576 -0.290485 0
M  V30 27513 C 2637.17 -3.45039 -0.065014 0
M  V30 27514 C 2636.29 -4.21192 0.960281 0
M  V30 27515 C 2635.42 -5.30478 0.276947 0
M  V30 27516 C 2634.46 -5.98376 1.28891 0
M  V30 27517 N 2633.6 -6.99248 0.632154 0
M  V30 27518 H 2638.44 -2.59177 1.47076 0
M  V30 27519 H 2635.97 -1.27351 0.736214 0
M  V30 27520 H 2637.93 -4.1464 -0.461479 0
M  V30 27521 H 2636.56 -3.09702 -0.910179 0
M  V30 27522 H 2635.61 -3.50644 1.4749 0
M  V30 27523 H 2636.93 -4.67844 1.72985 0
M  V30 27524 H 2636.08 -6.06448 -0.17495 0
M  V30 27525 H 2634.82 -4.84867 -0.524918 0
M  V30 27526 H 2633.82 -5.21166 1.75118 0
M  V30 27527 H 2635.05 -6.46072 2.09208 0
M  V30 27528 H 2632.99 -6.55829 -0.149819 0
M  V30 27529 H 2632.91 -7.44034 1.33977 0
M  V30 27530 H 2634.18 -7.79233 0.203892 0
M  V30 27531 N 2638.41 -0.794293 -1.3612 0
M  V30 27532 C 2639.63 -0.379907 -2.03891 0
M  V30 27533 C 2640.06 0.997223 -1.5949 0
M  V30 27534 O 2639.42 1.64338 -0.765681 0
M  V30 27535 C 2639.46 -0.457505 -3.57686 0
M  V30 27536 O 2638.57 0.533728 -4.08932 0
M  V30 27537 H 2637.91 -0.160552 -0.644297 0
M  V30 27538 H 2640.44 -1.07676 -1.73974 0
M  V30 27539 H 2640.45 -0.322864 -4.06721 0
M  V30 27540 H 2639.12 -1.46206 -3.89354 0
M  V30 27541 H 2637.7 0.360344 -3.71155 0
M  V30 27542 N 2639.89 1.47813 -0.546727 0
M  V30 27543 C 2641.11 2.07389 -0.0213045 0
M  V30 27544 C 2641.54 1.39825 1.2582 0
M  V30 27545 O 2640.89 0.469711 1.7511 0
M  V30 27546 C 2640.94 3.60206 0.168439 0
M  V30 27547 O 2640.05 3.93524 1.2334 0
M  V30 27548 H 2639.39 0.662361 -0.0466225 0
M  V30 27549 H 2641.92 1.89984 -0.759421 0
M  V30 27550 H 2641.93 4.06171 0.385911 0
M  V30 27551 H 2640.6 4.08782 -0.766147 0
M  V30 27552 H 2639.18 3.59318 0.997256 0
M  V30 27553 N 2641.36 0.28266 1.55044 0
M  V30 27554 C 2642.29 -0.595027 2.25791 0
M  V30 27555 C 2643.28 -1.15282 1.25076 0
M  V30 27556 O 2644.46 -1.18556 1.53812 0
M  V30 27557 C 2641.59 -1.77567 2.98475 0
M  V30 27558 C 2640.54 -1.34907 4.06182 0
M  V30 27559 C 2639.87 -2.61342 4.66481 0
M  V30 27560 C 2641.17 -0.49373 5.19961 0
M  V30 27561 H 2642.86 -0.00500391 2.994 0
M  V30 27562 H 2640.41 -0.00096669 1.44 0
M  V30 27563 H 2642.36 -2.39562 3.46681 0
M  V30 27564 H 2641.09 -2.39164 2.22414 0
M  V30 27565 H 2639.75 -0.752275 3.58799 0
M  V30 27566 H 2639.39 -3.21213 3.8708 0
M  V30 27567 H 2639.09 -2.33507 5.39211 0
M  V30 27568 H 2640.62 -3.24172 5.17441 0
M  V30 27569 H 2642.03 -1.01888 5.64173 0
M  V30 27570 H 2640.43 -0.309942 5.99299 0
M  V30 27571 H 2641.5 0.485678 4.82462 0
M  V30 27572 N 2642.84 -1.57597 0.0100627 0
M  V30 27573 C 2644.08 -1.92861 -0.67705 0
M  V30 27574 C 2644.45 -0.885222 -1.70376 0
M  V30 27575 O 2645.65 -1.12343 -2.44197 0
M  V30 27576 C 2643.92 -3.33134 -1.29446 0
M  V30 27577 S 2645.48 -3.90299 -2.0053 0
M  V30 27578 H 2642.3 -0.674992 -0.223397 0
M  V30 27579 H 2644.9 -1.95378 0.0691633 0
M  V30 27580 H 2643.6 -4.06904 -0.534521 0
M  V30 27581 H 2643.13 -3.34016 -2.07839 0
M  V30 27582 H 2645.15 -3.72189 -3.28161 0
M  V30 27583 N 2644.32 0.262839 -1.55393 0
M  V30 27584 C 2645.74 0.610556 -1.4746 0
M  V30 27585 C 2645.94 1.89059 -0.697064 0
M  V30 27586 O 2644.99 2.5154 -0.219996 0
M  V30 27587 C 2646.31 0.728079 -2.91752 0
M  V30 27588 C 2647.85 0.821463 -3.02028 0
M  V30 27589 C 2648.33 0.970681 -4.47596 0
M  V30 27590 N 2649.82 1.03595 -4.51467 0
M  V30 27591 C 2650.55 1.17039 -5.61328 0
M  V30 27592 N 2650.05 1.27138 -6.81034 0
M  V30 27593 N 2651.84 1.20229 -5.49091 0
M  V30 27594 H 2643.99 -0.577668 -2.04394 0
M  V30 27595 H 2646.26 -0.197102 -0.927284 0
M  V30 27596 H 2645.96 -0.142193 -3.51412 0
M  V30 27597 H 2645.84 1.60514 -3.41343 0
M  V30 27598 H 2648.22 1.6822 -2.42458 0
M  V30 27599 H 2648.31 -0.0804137 -2.55674 0
M  V30 27600 H 2647.95 0.114566 -5.07771 0
M  V30 27601 H 2647.88 1.88736 -4.91616 0
M  V30 27602 H 2650.37 0.969896 -3.65242 0
M  V30 27603 H 2650.68 1.37258 -7.60513 0
M  V30 27604 H 2649.03 1.24124 -6.83826 0
M  V30 27605 H 2652.22 1.11977 -4.54509 0
M  V30 27606 H 2652.39 1.30362 -6.34752 0
M  V30 27607 N 2645.8 1.48499 0.527807 0
M  V30 27608 C 2647.03 1.60292 1.3082 0
M  V30 27609 C 2647.44 0.264007 1.86945 0
M  V30 27610 O 2646.8 -0.747005 1.66512 0
M  V30 27611 C 2646.85 2.6512 2.45751 0
M  V30 27612 O 2646.57 3.93816 1.91939 0
M  V30 27613 C 2648.07 2.87373 3.37538 0
M  V30 27614 H 2645.29 0.540401 0.397753 0
M  V30 27615 H 2647.84 1.94342 0.636495 0
M  V30 27616 H 2645.99 2.33923 3.08802 0
M  V30 27617 H 2646.4 4.51344 2.67187 0
M  V30 27618 H 2647.88 3.64517 4.14525 0
M  V30 27619 H 2648.36 1.96277 3.92902 0
M  V30 27620 H 2648.96 3.19883 2.80277 0
M  V30 27621 N 2647.28 -0.776847 1.37123 0
M  V30 27622 C 2648.52 -1.53749 1.32246 0
M  V30 27623 C 2648.86 -1.9397 -0.0944404 0
M  V30 27624 O 2648.13 -1.63682 -1.05065 0
M  V30 27625 C 2648.41 -2.80603 2.25686 0
M  V30 27626 C 2648.27 -2.46669 3.76131 0
M  V30 27627 C 2649.59 -3.82505 2.17664 0
M  V30 27628 H 2646.71 -0.557782 0.481714 0
M  V30 27629 H 2649.35 -0.891583 1.67782 0
M  V30 27630 H 2647.5 -3.3572 1.95511 0
M  V30 27631 H 2649.17 -1.97506 4.1688 0
M  V30 27632 H 2647.41 -1.79436 3.9495 0
M  V30 27633 H 2648.08 -3.37326 4.36939 0
M  V30 27634 H 2650.56 -3.36869 2.44251 0
M  V30 27635 H 2649.44 -4.68995 2.85193 0
M  V30 27636 H 2649.7 -4.26394 1.16793 0
M  V30 27637 N 2648.76 -1.2161 -1.00244 0
M  V30 27638 C 2649.67 -0.993746 -2.12513 0
M  V30 27639 C 2650.68 0.0549633 -1.73913 0
M  V30 27640 O 2651.86 -0.135654 -2.00943 0
M  V30 27641 C 2648.92 -0.564013 -3.42082 0
M  V30 27642 C 2647.98 -1.68523 -3.9484 0
M  V30 27643 C 2647.22 -1.27591 -5.18224 0
M  V30 27644 O 2647.44 -0.150606 -5.70201 0
M  V30 27645 O 2646.37 -2.0888 -5.64493 0
M  V30 27646 H 2650.2 -1.93412 -2.34149 0
M  V30 27647 H 2647.78 -1.0012 -1.10889 0
M  V30 27648 H 2649.67 -0.334268 -4.20072 0
M  V30 27649 H 2648.34 0.347608 -3.21828 0
M  V30 27650 H 2647.25 -1.96941 -3.18065 0
M  V30 27651 H 2648.58 -2.57437 -4.19508 0
M  V30 27652 N 2650.23 1.19778 -1.02425 0
M  V30 27653 C 2651.48 1.88969 -0.716603 0
M  V30 27654 C 2651.8 1.79718 0.756737 0
M  V30 27655 O 2651.07 1.20459 1.54488 0
M  V30 27656 H 2649.65 0.699519 -0.262074 0
M  V30 27657 H 2652.31 1.45434 -1.2975 0
M  V30 27658 H 2651.41 2.95415 -1.0068 0
M  V30 27659 N 2651.71 0.801501 1.35697 0
M  V30 27660 C 2652.95 0.385063 2.0074 0
M  V30 27661 C 2653.32 -1.02716 1.62214 0
M  V30 27662 O 2654.52 -1.54533 2.19939 0
M  V30 27663 C 2652.79 0.557119 3.53031 0
M  V30 27664 S 2654.35 0.230349 4.38195 0
M  V30 27665 H 2651.16 0.14649 0.695746 0
M  V30 27666 H 2653.77 1.04264 1.65376 0
M  V30 27667 H 2652.47 1.58501 3.78557 0
M  V30 27668 H 2652 -0.11596 3.93229 0
M  V30 27669 H 2654.02 -0.963809 4.8675 0
M  V30 27670 N 2653.19 -1.47521 0.554558 0
M  V30 27671 C 2654.61 -1.58157 0.214135 0
M  V30 27672 C 2654.81 -1.55352 -1.28328 0
M  V30 27673 O 2653.86 -1.45552 -2.06327 0
M  V30 27674 C 2655.17 -2.88774 0.838442 0
M  V30 27675 C 2656.72 -3.02353 0.809427 0
M  V30 27676 C 2657.2 -4.35666 1.41276 0
M  V30 27677 N 2658.69 -4.42296 1.37582 0
M  V30 27678 C 2659.42 -5.44007 1.8123 0
M  V30 27679 N 2658.92 -6.52543 2.32721 0
M  V30 27680 N 2660.71 -5.35036 1.72317 0
M  V30 27681 H 2652.86 -1.47588 1.52747 0
M  V30 27682 H 2655.13 -0.702253 0.636824 0
M  V30 27683 H 2654.83 -2.96556 1.8907 0
M  V30 27684 H 2654.71 -3.75754 0.329913 0
M  V30 27685 H 2657.09 -2.9417 -0.234135 0
M  V30 27686 H 2657.17 -2.16921 1.35569 0
M  V30 27687 H 2656.82 -4.44605 2.45537 0
M  V30 27688 H 2656.75 -5.19826 0.841962 0
M  V30 27689 H 2659.24 -3.64452 0.999145 0
M  V30 27690 H 2659.55 -7.26324 2.63957 0
M  V30 27691 H 2657.9 -6.5344 2.3673 0
M  V30 27692 H 2661.09 -4.49142 1.31868 0
M  V30 27693 H 2661.26 -6.14165 2.06651 0
M  V30 27694 N 2654.67 -0.290879 -1.54892 0
M  V30 27695 C 2655.58 0.59941 -2.26813 0
M  V30 27696 C 2656.59 1.15694 -1.29965 0
M  V30 27697 O 2657.77 1.18388 -1.6293 0
M  V30 27698 C 2654.83 1.75976 -2.98719 0
M  V30 27699 C 2653.9 1.23733 -4.11082 0
M  V30 27700 C 2653.13 2.34238 -4.7955 0
M  V30 27701 O 2653.35 3.53928 -4.47316 0
M  V30 27702 O 2652.29 2.01502 -5.67169 0
M  V30 27703 H 2656.11 0.0163027 -3.03696 0
M  V30 27704 H 2653.7 -0.0577018 -1.49289 0
M  V30 27705 H 2655.58 2.43601 -3.43855 0
M  V30 27706 H 2654.25 2.32966 -2.24741 0
M  V30 27707 H 2653.16 0.527098 -3.70368 0
M  V30 27708 H 2654.49 0.712984 -4.87009 0
M  V30 27709 N 2656.15 1.57589 -0.0184203 0
M  V30 27710 C 2657.06 2.13017 0.982906 0
M  V30 27711 C 2658.07 1.07981 1.36441 0
M  V30 27712 O 2659.25 1.39982 1.448 0
M  V30 27713 C 2656.31 2.63756 2.25019 0
M  V30 27714 C 2655.37 3.83465 1.93011 0
M  V30 27715 C 2654.61 4.31775 3.13698 0
M  V30 27716 O 2654.83 3.79312 4.26003 0
M  V30 27717 O 2653.76 5.23737 2.9662 0
M  V30 27718 H 2657.59 2.98831 0.541656 0
M  V30 27719 H 2655.17 1.48034 0.201539 0
M  V30 27720 H 2657.06 2.96507 2.99435 0
M  V30 27721 H 2655.73 1.8103 2.68346 0
M  V30 27722 H 2654.64 3.55657 1.16013 0
M  V30 27723 H 2655.97 4.6732 1.54508 0
M  V30 27724 N 2657.62 -0.254594 1.5553 0
M  V30 27725 C 2658.55 -1.31893 1.92682 0
M  V30 27726 C 2659.53 -1.50599 0.790824 0
M  V30 27727 O 2660.72 -1.63335 1.05048 0
M  V30 27728 C 2657.85 -2.67513 2.21482 0
M  V30 27729 C 2656.8 -2.63513 3.37261 0
M  V30 27730 C 2656.13 -4.02856 3.51583 0
M  V30 27731 C 2657.43 -2.2117 4.73161 0
M  V30 27732 H 2659.12 -1.01046 2.81833 0
M  V30 27733 H 2656.67 -0.484638 1.356 0
M  V30 27734 H 2658.62 -3.42099 2.46061 0
M  V30 27735 H 2657.35 -2.9998 1.29149 0
M  V30 27736 H 2656.01 -1.91384 3.12678 0
M  V30 27737 H 2655.65 -4.32576 2.56684 0
M  V30 27738 H 2655.35 -4.0107 4.29437 0
M  V30 27739 H 2656.88 -4.79154 3.78475 0
M  V30 27740 H 2658.29 -2.85486 4.97163 0
M  V30 27741 H 2656.69 -2.30511 5.54062 0
M  V30 27742 H 2657.76 -1.16324 4.70741 0
M  V30 27743 N 2659.1 -1.48777 -0.519925 0
M  V30 27744 C 2660.03 -1.60145 -1.6397 0
M  V30 27745 C 2661.05 -0.485145 -1.55403 0
M  V30 27746 O 2662.24 -0.756419 -1.6168 0
M  V30 27747 C 2659.34 -1.52454 -3.02673 0
M  V30 27748 C 2658.51 -2.79297 -3.36619 0
M  V30 27749 C 2657.57 -2.6492 -4.54647 0
M  V30 27750 O 2656.59 -3.38826 -4.57368 0
M  V30 27751 N 2657.8 -1.75204 -5.53429 0
M  V30 27752 H 2660.56 -2.56716 -1.54651 0
M  V30 27753 H 2658.12 -1.45627 -0.707413 0
M  V30 27754 H 2660.11 -1.40517 -3.79522 0
M  V30 27755 H 2658.68 -0.638179 -3.06016 0
M  V30 27756 H 2657.9 -3.05725 -2.4885 0
M  V30 27757 H 2659.19 -3.63427 -3.56088 0
M  V30 27758 H 2658.59 -1.14381 -5.54016 0
M  V30 27759 H 2657.15 -1.69201 -6.29456 0
M  V30 27760 N 2660.58 0.769564 -1.37534 0
M  V30 27761 C 2661.53 1.9043 -1.33564 0
M  V30 27762 C 2662.52 1.67912 -0.224057 0
M  V30 27763 O 2663.73 1.75675 -0.392205 0
M  V30 27764 H 2660.1 0.626264 -0.41629 0
M  V30 27765 H 2662.07 1.90894 -2.29351 0
M  V30 27766 C 2660.82 3.2772 -1.16168 0
M  V30 27767 H 2660.15 3.45625 -2.00957 0
M  V30 27768 H 2661.59 4.07411 -1.17441 0
M  V30 27769 C 2660.04 3.36639 0.132524 0
M  V30 27770 O 2660.57 3.85906 1.11532 0
M  V30 27771 N 2658.78 2.90017 0.183962 0
M  V30 27772 H 2658.33 2.50115 -0.616459 0
M  V30 27773 H 2658.29 2.96366 1.04951 0
M  V30 27774 N 2662.06 1.22139 0.995977 0
M  V30 27775 C 2662.99 0.946521 2.08743 0
M  V30 27776 C 2664 -0.0737071 1.62633 0
M  V30 27777 O 2665.19 0.159918 1.77782 0
M  V30 27778 C 2662.29 0.401364 3.36515 0
M  V30 27779 C 2661.47 1.47808 4.11669 0
M  V30 27780 C 2660.52 0.940552 5.17726 0
M  V30 27781 O 2659.55 1.62606 5.4548 0
M  V30 27782 N 2660.75 -0.239621 5.80005 0
M  V30 27783 H 2663.52 1.88615 2.32905 0
M  V30 27784 H 2661.08 1.12787 1.1615 0
M  V30 27785 H 2663.07 0.0271548 4.04691 0
M  V30 27786 H 2661.64 -0.443299 3.09441 0
M  V30 27787 H 2660.86 2.02574 3.38168 0
M  V30 27788 H 2662.15 2.20261 4.58653 0
M  V30 27789 H 2661.55 -0.81342 5.59821 0
M  V30 27790 H 2660.1 -0.555247 6.49431 0
M  V30 27791 N 2663.54 -1.19233 1.03059 0
M  V30 27792 C 2664.5 -2.20726 0.617457 0
M  V30 27793 C 2665.5 -1.57587 -0.319829 0
M  V30 27794 O 2666.69 -1.73874 -0.106603 0
M  V30 27795 C 2663.82 -3.40764 -0.0962361 0
M  V30 27796 H 2665.01 -2.58791 1.51549 0
M  V30 27797 H 2662.57 -1.32941 0.821973 0
M  V30 27798 H 2663.3 -3.08219 -1.00854 0
M  V30 27799 H 2663.09 -3.87827 0.577285 0
M  V30 27800 H 2664.58 -4.15938 -0.372146 0
M  V30 27801 N 2665.01 -0.808686 -1.3527 0
M  V30 27802 C 2665.96 -0.208646 -2.31662 0
M  V30 27803 C 2666.96 0.64275 -1.56733 0
M  V30 27804 O 2668.16 0.535679 -1.71844 0
M  V30 27805 H 2664.54 -0.0487124 -0.750421 0
M  V30 27806 H 2666.51 -1.03671 -2.79812 0
M  V30 27807 C 2665.26 0.626513 -3.42009 0
M  V30 27808 H 2664.58 -0.0192806 -3.99795 0
M  V30 27809 H 2666.02 1.01271 -4.11728 0
M  V30 27810 C 2664.48 1.79293 -2.85229 0
M  V30 27811 O 2665.01 2.8905 -2.7895 0
M  V30 27812 N 2663.22 1.60512 -2.42248 0
M  V30 27813 H 2662.76 0.712331 -2.47555 0
M  V30 27814 H 2662.72 2.38712 -2.04607 0
M  V30 27815 N 2666.49 1.47225 -0.562374 0
M  V30 27816 C 2667.74 2.0246 -0.0402521 0
M  V30 27817 C 2668.07 1.43616 1.31166 0
M  V30 27818 O 2667.32 0.583333 1.86804 0
M  V30 27819 C 2667.62 3.57269 0.0969189 0
M  V30 27820 C 2667.29 4.35056 -1.18477 0
M  V30 27821 C 2665.95 4.56028 -1.53596 0
M  V30 27822 C 2668.3 4.79878 -2.03387 0
M  V30 27823 C 2665.63 5.19072 -2.73462 0
M  V30 27824 C 2667.98 5.44245 -3.2246 0
M  V30 27825 C 2666.65 5.63449 -3.57885 0
M  V30 27826 H 2665.92 0.740854 -0.0147293 0
M  V30 27827 H 2668.56 1.76836 -0.734926 0
M  V30 27828 H 2666.87 3.81914 0.874593 0
M  V30 27829 H 2668.56 3.97662 0.516338 0
M  V30 27830 H 2665.15 4.19015 -0.901334 0
M  V30 27831 H 2669.34 4.6345 -1.77561 0
M  V30 27832 H 2664.59 5.32133 -3.01071 0
M  V30 27833 H 2668.77 5.77938 -3.88536 0
M  V30 27834 H 2666.4 6.1207 -4.50859 0
M  V30 27835 N 2667.97 0.299089 1.54736 0
M  V30 27836 C 2669.2 -0.316218 2.04975 0
M  V30 27837 C 2669.62 -1.46883 1.17504 0
M  V30 27838 O 2668.98 -1.80417 0.17871 0
M  V30 27839 C 2669.03 -0.751935 3.52673 0
M  V30 27840 O 2668.13 -1.8569 3.68229 0
M  V30 27841 H 2667.47 -0.0617058 0.661127 0
M  V30 27842 H 2670 0.440376 1.99805 0
M  V30 27843 H 2670.01 -1.04126 3.94489 0
M  V30 27844 H 2668.69 0.0912213 4.158 0
M  V30 27845 H 2667.26 -1.56828 3.38319 0
M  V30 27846 N 2669.45 -1.57577 0.0267774 0
M  V30 27847 C 2670.7 -1.91704 -0.652371 0
M  V30 27848 C 2671.02 -0.902967 -1.72269 0
M  V30 27849 O 2670.28 0.08845 -1.955 0
M  V30 27850 C 2670.58 -3.32562 -1.30909 0
M  V30 27851 C 2670.24 -4.49385 -0.369362 0
M  V30 27852 C 2668.91 -4.81073 -0.110707 0
M  V30 27853 C 2671.26 -5.20468 0.276063 0
M  V30 27854 C 2668.59 -5.81203 0.801218 0
M  V30 27855 C 2670.94 -6.21572 1.17603 0
M  V30 27856 C 2669.6 -6.51703 1.4436 0
M  V30 27857 H 2668.87 -0.701494 -0.238719 0
M  V30 27858 H 2671.52 -1.91298 0.0880428 0
M  V30 27859 H 2669.82 -3.29219 -2.12419 0
M  V30 27860 H 2671.52 -3.56237 -1.84109 0
M  V30 27861 H 2668.11 -4.24642 -0.581137 0
M  V30 27862 H 2672.29 -4.9622 0.0892872 0
M  V30 27863 H 2667.55 -6.02895 1.01625 0
M  V30 27864 H 2671.72 -6.75774 1.68235 0
M  V30 27865 H 2669.35 -7.29108 2.15188 0
M  V30 27866 N 2670.93 0.246342 -1.55663 0
M  V30 27867 C 2671.89 1.28839 -1.8956 0
M  V30 27868 C 2672.89 1.4105 -0.772107 0
M  V30 27869 O 2674.08 1.39741 -1.0401 0
M  V30 27870 C 2671.21 2.66602 -2.12453 0
M  V30 27871 H 2672.4 0.999992 -2.82737 0
M  V30 27872 H 2669.96 0.485658 -1.48563 0
M  V30 27873 H 2670.69 3.0058 -1.21747 0
M  V30 27874 H 2670.48 2.5912 -2.94278 0
M  V30 27875 H 2671.97 3.41843 -2.3986 0
M  V30 27876 N 2672.4 1.4905 0.512027 0
M  V30 27877 C 2673.82 1.51309 1.09373 0
M  V30 27878 C 2674.17 0.293005 1.94 0
M  V30 27879 O 2673.29 -0.59824 2.07966 0
M  V30 27880 C 2673.89 2.74179 1.99026 0
M  V30 27881 C 2672.45 2.79251 2.5238 0
M  V30 27882 C 2671.59 2.45075 1.29744 0
M  V30 27883 H 2674.54 1.55907 0.296439 0
M  V30 27884 H 2674.56 2.53716 2.83564 0
M  V30 27885 H 2674.08 3.62962 1.37406 0
M  V30 27886 H 2672.18 1.94722 3.1767 0
M  V30 27887 H 2672.29 3.81144 2.90286 0
M  V30 27888 H 2670.65 1.96615 1.61909 0
M  V30 27889 H 2671.44 3.36119 0.698496 0
M  V30 27890 N 2673.88 -0.762259 1.3794 0
M  V30 27891 C 2674.81 -1.88955 1.3718 0
M  V30 27892 C 2675.79 -1.68413 0.238974 0
M  V30 27893 O 2676.98 -1.89132 0.44076 0
M  V30 27894 C 2674.11 -3.26368 1.18748 0
M  V30 27895 C 2673.06 -3.61494 2.29142 0
M  V30 27896 C 2672.39 -4.97551 1.95824 0
M  V30 27897 C 2673.69 -3.67263 3.71369 0
M  V30 27898 H 2675.38 -1.89848 2.31512 0
M  V30 27899 H 2672.93 -0.911985 1.1144 0
M  V30 27900 H 2674.88 -4.04877 1.16844 0
M  V30 27901 H 2673.61 -3.25932 0.208741 0
M  V30 27902 H 2672.26 -2.85298 2.30218 0
M  V30 27903 H 2671.91 -4.93665 0.964561 0
M  V30 27904 H 2671.61 -5.22022 2.69754 0
M  V30 27905 H 2673.14 -5.78449 1.95524 0
M  V30 27906 H 2674.55 -4.35904 3.72372 0
M  V30 27907 H 2672.95 -4.03238 4.44432 0
M  V30 27908 H 2674.02 -2.67697 4.0431 0
M  V30 27909 N 2675.36 -1.22666 -0.989486 0
M  V30 27910 C 2676.61 -1.05484 -1.73208 0
M  V30 27911 C 2676.94 0.408602 -1.89853 0
M  V30 27912 O 2676.21 1.30283 -1.44418 0
M  V30 27913 C 2676.5 -1.77052 -3.13567 0
M  V30 27914 C 2676.35 -3.31013 -3.04549 0
M  V30 27915 C 2677.67 -1.52567 -4.12809 0
M  V30 27916 H 2674.79 -0.3846 -0.62869 0
M  V30 27917 H 2677.43 -1.51051 -1.15255 0
M  V30 27918 H 2675.58 -1.38317 -3.63044 0
M  V30 27919 H 2677.25 -3.79215 -2.62667 0
M  V30 27920 H 2675.5 -3.60514 -2.41271 0
M  V30 27921 H 2676.17 -3.7627 -4.03887 0
M  V30 27922 H 2678.64 -1.86222 -3.72103 0
M  V30 27923 H 2677.52 -2.05133 -5.09128 0
M  V30 27924 H 2677.78 -0.459014 -4.39711 0
M  V30 27925 N 2676.84 1.18685 -1.0369 0
M  V30 27926 C 2677.77 2.24402 -0.645446 0
M  V30 27927 C 2678.75 1.66471 0.349482 0
M  V30 27928 O 2679.94 1.92828 0.230419 0
M  V30 27929 C 2677.07 3.473 -0.00371441 0
M  V30 27930 C 2676.02 4.17956 -0.921779 0
M  V30 27931 C 2675.35 5.34504 -0.144723 0
M  V30 27932 C 2676.65 4.71867 -2.23918 0
M  V30 27933 H 2678.34 2.57401 -1.52922 0
M  V30 27934 H 2675.89 1.23726 -0.736733 0
M  V30 27935 H 2677.84 4.20456 0.281835 0
M  V30 27936 H 2676.56 3.13524 0.914908 0
M  V30 27937 H 2675.22 3.46692 -1.19165 0
M  V30 27938 H 2674.87 4.96975 0.776186 0
M  V30 27939 H 2674.57 5.82712 -0.756308 0
M  V30 27940 H 2676.09 6.10453 0.133897 0
M  V30 27941 H 2677.51 5.36737 -2.01459 0
M  V30 27942 H 2675.9 5.30594 -2.80339 0
M  V30 27943 H 2676.97 3.89495 -2.88829 0
M  V30 27944 N 2678.32 0.815849 1.34839 0
M  V30 27945 C 2679.59 0.32345 1.92907 0
M  V30 27946 C 2679.97 -1.18825 1.74481 0
M  V30 27947 O 2679.32 -1.99207 1.11932 0
M  V30 27948 C 2679.53 0.745012 3.40955 0
M  V30 27949 C 2680.88 0.739789 4.18106 0
M  V30 27950 O 2681.9 0.687141 3.49509 0
M  V30 27951 O 2680.76 0.806551 5.40516 0
M  V30 27952 H 2677.86 0.086779 0.822434 0
M  V30 27953 H 2680.4 0.900166 1.43858 0
M  V30 27954 H 2679.18 1.78652 3.48137 0
M  V30 27955 H 2678.8 0.143605 3.97341 0
M  V30 27956 N 2679.8 -1.46924 0.570174 0
M  V30 27957 C 2680.73 -2.27153 -0.218322 0
M  V30 27958 C 2681.71 -1.34856 -0.908447 0
M  V30 27959 O 2682.89 -1.64252 -0.924846 0
M  V30 27960 C 2680.02 -3.1225 -1.31215 0
M  V30 27961 C 2679.06 -4.2022 -0.729203 0
M  V30 27962 S 2679.9 -5.33736 0.434253 0
M  V30 27963 C 2681.05 -6.22399 -0.661078 0
M  V30 27964 H 2681.29 -2.93681 0.462444 0
M  V30 27965 H 2678.82 -1.50221 0.356779 0
M  V30 27966 H 2680.78 -3.61846 -1.9385 0
M  V30 27967 H 2679.44 -2.45059 -1.96481 0
M  V30 27968 H 2678.63 -4.79541 -1.55101 0
M  V30 27969 H 2678.23 -3.73572 -0.178771 0
M  V30 27970 H 2680.52 -6.59532 -1.54994 0
M  V30 27971 H 2681.47 -7.08022 -0.104921 0
M  V30 27972 H 2681.88 -5.56284 -0.959584 0
M  V30 27973 N 2681.27 -0.307291 -1.54575 0
M  V30 27974 C 2682.2 0.55903 -2.26709 0
M  V30 27975 C 2683.18 1.13277 -1.26895 0
M  V30 27976 O 2684.37 1.16094 -1.55679 0
M  V30 27977 C 2681.5 1.72796 -3.01262 0
M  V30 27978 C 2680.45 1.28428 -4.08277 0
M  V30 27979 C 2679.78 2.53887 -4.7058 0
M  V30 27980 C 2681.08 0.410946 -5.20681 0
M  V30 27981 H 2682.77 -0.0426286 -2.9937 0
M  V30 27982 H 2680.32 -0.0219426 -1.43983 0
M  V30 27983 H 2682.27 2.34017 -3.50448 0
M  V30 27984 H 2681 2.35596 -2.26191 0
M  V30 27985 H 2679.66 0.695098 -3.5995 0
M  V30 27986 H 2679.3 3.15015 -3.92141 0
M  V30 27987 H 2679 2.24899 -5.42858 0
M  V30 27988 H 2680.53 3.15899 -5.22532 0
M  V30 27989 H 2681.94 0.928997 -5.65723 0
M  V30 27990 H 2680.34 0.214559 -5.99716 0
M  V30 27991 H 2681.41 -0.562372 -4.81628 0
M  V30 27992 N 2682.75 1.57561 -0.0351337 0
M  V30 27993 C 2683.7 2.11744 0.96267 0
M  V30 27994 C 2684.69 1.04542 1.33294 0
M  V30 27995 O 2685.9 1.2297 1.31447 0
M  V30 27996 H 2682.27 0.676577 0.328248 0
M  V30 27997 H 2684.25 2.94507 0.480428 0
M  V30 27998 C 2682.99 2.66449 2.23384 0
M  V30 27999 H 2682.32 3.4859 1.95768 0
M  V30 28000 H 2683.76 3.08 2.91397 0
M  V30 28001 C 2682.22 1.59472 2.96766 0
M  V30 28002 O 2682.75 0.998068 3.89103 0
M  V30 28003 N 2680.95 1.31373 2.59209 0
M  V30 28004 H 2680.5 1.8008 1.84199 0
M  V30 28005 H 2680.46 0.600227 3.08617 0
M  V30 28006 N 2684.23 -0.238084 1.55791 0
M  V30 28007 C 2685.48 -0.964876 1.78035 0
M  V30 28008 C 2685.8 -1.84981 0.601016 0
M  V30 28009 O 2685.06 -1.91242 -0.415327 0
M  V30 28010 C 2685.36 -1.8487 3.05873 0
M  V30 28011 C 2685.02 -1.11838 4.3681 0
M  V30 28012 C 2683.69 -0.916579 4.7239 0
M  V30 28013 C 2686.04 -0.601419 5.17718 0
M  V30 28014 C 2683.37 -0.185653 5.86406 0
M  V30 28015 C 2685.72 0.116083 6.32493 0
M  V30 28016 C 2684.38 0.329285 6.66687 0
M  V30 28017 H 2683.65 -0.353073 0.651476 0
M  V30 28018 H 2686.3 -0.234284 1.90061 0
M  V30 28019 H 2684.6 -2.64663 2.88896 0
M  V30 28020 H 2686.3 -2.41288 3.20283 0
M  V30 28021 H 2682.89 -1.28562 4.08864 0
M  V30 28022 H 2687.08 -0.744845 4.90679 0
M  V30 28023 H 2682.33 -0.0100811 6.11399 0
M  V30 28024 H 2686.51 0.524249 6.94424 0
M  V30 28025 H 2684.13 0.897607 7.54882 0
M  V30 28026 N 2685.71 -1.4932 -0.504115 0
M  V30 28027 C 2686.64 -1.6867 -1.6147 0
M  V30 28028 C 2687.62 -0.535407 -1.61454 0
M  V30 28029 O 2688.8 -0.770899 -1.78244 0
M  V30 28030 C 2685.93 -1.75033 -2.99968 0
M  V30 28031 C 2684.89 -2.89921 -3.14849 0
M  V30 28032 C 2684.21 -2.81395 -4.54666 0
M  V30 28033 C 2685.51 -4.30898 -2.95168 0
M  V30 28034 H 2687.21 -2.61651 -1.45531 0
M  V30 28035 H 2684.75 -1.25914 -0.698689 0
M  V30 28036 H 2686.71 -1.87157 -3.77558 0
M  V30 28037 H 2685.43 -0.786496 -3.16989 0
M  V30 28038 H 2684.09 -2.77395 -2.39682 0
M  V30 28039 H 2683.74 -1.82926 -4.68559 0
M  V30 28040 H 2683.44 -3.58503 -4.65564 0
M  V30 28041 H 2684.96 -2.95522 -5.34321 0
M  V30 28042 H 2686.38 -4.44122 -3.62531 0
M  V30 28043 H 2684.77 -5.09204 -3.1754 0
M  V30 28044 H 2685.84 -4.45559 -1.91324 0
M  V30 28045 N 2687.19 0.754933 -1.38342 0
M  V30 28046 C 2688.12 1.87661 -1.2984 0
M  V30 28047 C 2689.1 1.61648 -0.175687 0
M  V30 28048 O 2690.28 1.85169 -0.352778 0
M  V30 28049 C 2687.41 3.23244 -1.01147 0
M  V30 28050 C 2686.45 3.68147 -2.15338 0
M  V30 28051 S 2687.29 3.79842 -3.77466 0
M  V30 28052 C 2688.44 5.18247 -3.50957 0
M  V30 28053 H 2688.68 1.94586 -2.24774 0
M  V30 28054 H 2686.21 0.917775 -1.24162 0
M  V30 28055 H 2688.17 4.01545 -0.852757 0
M  V30 28056 H 2686.83 3.14 -0.0793336 0
M  V30 28057 H 2686.02 4.66487 -1.90804 0
M  V30 28058 H 2685.62 2.96996 -2.27309 0
M  V30 28059 H 2687.91 6.03958 -3.06988 0
M  V30 28060 H 2688.86 5.47801 -4.48686 0
M  V30 28061 H 2689.27 4.8698 -2.855 0
M  V30 28062 N 2688.66 1.23189 0.982967 0
M  V30 28063 C 2689.94 0.970737 1.69812 0
M  V30 28064 C 2690.32 -0.511388 2.04812 0
M  V30 28065 O 2689.67 -1.48195 1.73927 0
M  V30 28066 C 2689.88 1.87837 2.9414 0
M  V30 28067 C 2691.23 2.14032 3.66709 0
M  V30 28068 O 2692.25 1.85366 3.04168 0
M  V30 28069 O 2691.11 2.62637 4.79254 0
M  V30 28070 H 2688.2 0.365897 0.741652 0
M  V30 28071 H 2690.75 1.3422 1.03842 0
M  V30 28072 H 2689.52 2.88043 2.64853 0
M  V30 28073 H 2689.14 1.50912 3.67847 0
M  V30 28074 N 2690.14 -1.18133 1.04318 0
M  V30 28075 C 2691.1 -2.20059 0.640833 0
M  V30 28076 C 2692.1 -1.57918 -0.303096 0
M  V30 28077 O 2693.29 -1.73977 -0.0881549 0
M  V30 28078 C 2690.43 -3.40847 -0.0600881 0
M  V30 28079 H 2691.62 -2.57169 1.54285 0
M  V30 28080 H 2689.17 -1.32062 0.836027 0
M  V30 28081 H 2689.91 -3.09271 -0.975791 0
M  V30 28082 H 2689.69 -3.87193 0.618387 0
M  V30 28083 H 2691.18 -4.1631 -0.328009 0
M  V30 28084 N 2691.62 -0.822988 -1.34405 0
M  V30 28085 C 2692.87 -0.407492 -1.97541 0
M  V30 28086 C 2693.18 1.03497 -1.65975 0
M  V30 28087 O 2694.39 1.55438 -2.22601 0
M  V30 28088 C 2692.84 -0.677685 -3.53462 0
M  V30 28089 C 2692.45 -2.13377 -3.93921 0
M  V30 28090 C 2694.2 -0.328358 -4.23228 0
M  V30 28091 C 2692.1 -2.34885 -5.42755 0
M  V30 28092 H 2691.03 -0.148636 -0.739205 0
M  V30 28093 H 2693.68 -1.00935 -1.53246 0
M  V30 28094 H 2692.07 -0.00565926 -3.96 0
M  V30 28095 H 2693.24 -2.84496 -3.62489 0
M  V30 28096 H 2691.56 -2.44454 -3.37092 0
M  V30 28097 H 2694.15 -0.466888 -5.32658 0
M  V30 28098 H 2694.5 0.727152 -4.099 0
M  V30 28099 H 2695.03 -0.954964 -3.86167 0
M  V30 28100 H 2691.77 -3.38942 -5.61069 0
M  V30 28101 H 2691.29 -1.6831 -5.75701 0
M  V30 28102 H 2692.97 -2.17247 -6.09436 0
M  V30 28103 N 2693.1 1.4662 -0.577957 0
M  V30 28104 C 2694.03 2.28362 0.195761 0
M  V30 28105 C 2695.04 1.38234 0.859958 0
M  V30 28106 O 2696.23 1.62876 0.73032 0
M  V30 28107 C 2693.33 3.13127 1.29634 0
M  V30 28108 C 2692.51 4.3135 0.724974 0
M  V30 28109 C 2691.56 4.97549 1.71265 0
M  V30 28110 O 2690.59 5.55292 1.25057 0
M  V30 28111 N 2691.79 4.94126 3.04663 0
M  V30 28112 H 2694.56 2.95406 -0.50552 0
M  V30 28113 H 2692.12 1.5648 -0.415408 0
M  V30 28114 H 2694.11 3.54278 1.95625 0
M  V30 28115 H 2692.68 2.48189 1.90055 0
M  V30 28116 H 2691.9 3.9404 -0.112274 0
M  V30 28117 H 2693.19 5.07774 0.322945 0
M  V30 28118 H 2692.59 4.4845 3.44832 0
M  V30 28119 H 2691.14 5.39233 3.66157 0
M  V30 28120 N 2694.58 0.315484 1.5441 0
M  V30 28121 C 2695.8 -0.291702 2.04833 0
M  V30 28122 C 2696.22 -1.46409 1.19206 0
M  V30 28123 O 2695.58 -1.81158 0.220899 0
M  V30 28124 C 2695.63 -0.733978 3.5397 0
M  V30 28125 O 2695.35 0.391758 4.36345 0
M  V30 28126 C 2696.85 -1.40481 4.20452 0
M  V30 28127 H 2694.07 -0.061283 0.668196 0
M  V30 28128 H 2696.61 0.459325 1.99275 0
M  V30 28129 H 2694.77 -1.435 3.59842 0
M  V30 28130 H 2695.18 0.044801 5.24481 0
M  V30 28131 H 2696.66 -1.66529 5.26281 0
M  V30 28132 H 2697.13 -2.34954 3.71071 0
M  V30 28133 H 2697.74 -0.746588 4.18696 0
M  V30 28134 N 2696.05 -1.5754 0.0434891 0
M  V30 28135 C 2697 -2.12251 -0.951427 0
M  V30 28136 C 2698 -1.05247 -1.32738 0
M  V30 28137 O 2699.2 -1.23665 -1.30793 0
M  V30 28138 H 2695.58 -0.678309 -0.324656 0
M  V30 28139 H 2697.55 -2.94758 -0.464803 0
M  V30 28140 C 2696.3 -2.6763 -2.21967 0
M  V30 28141 H 2695.62 -3.49623 -1.93917 0
M  V30 28142 H 2697.06 -3.09541 -2.89759 0
M  V30 28143 C 2695.52 -1.61044 -2.95917 0
M  V30 28144 O 2696.05 -1.01869 -3.88569 0
M  V30 28145 N 2694.26 -1.32746 -2.58509 0
M  V30 28146 H 2693.8 -1.81054 -1.83241 0
M  V30 28147 H 2693.76 -0.616586 -3.08295 0
M  V30 28148 N 2697.53 0.229818 -1.55915 0
M  V30 28149 C 2698.78 0.955421 -1.78544 0
M  V30 28150 C 2699.11 1.8466 -0.610818 0
M  V30 28151 O 2698.36 1.9146 0.405179 0
M  V30 28152 C 2698.66 1.83245 -3.06849 0
M  V30 28153 C 2698.33 1.0952 -4.37397 0
M  V30 28154 C 2696.99 0.891514 -4.72869 0
M  V30 28155 C 2699.34 0.573955 -5.1803 0
M  V30 28156 C 2696.67 0.154552 -5.86496 0
M  V30 28157 C 2699.02 -0.149624 -6.32423 0
M  V30 28158 C 2697.69 -0.364637 -6.66503 0
M  V30 28159 H 2696.96 0.349613 -0.653339 0
M  V30 28160 H 2699.6 0.224201 -1.90183 0
M  V30 28161 H 2697.91 2.63127 -2.90295 0
M  V30 28162 H 2699.6 2.39587 -3.21558 0
M  V30 28163 H 2696.19 1.26392 -4.0954 0
M  V30 28164 H 2700.38 0.718813 -4.91067 0
M  V30 28165 H 2695.63 -0.022343 -6.11396 0
M  V30 28166 H 2699.81 -0.561069 -6.94136 0
M  V30 28167 H 2697.44 -0.937627 -7.54396 0
M  V30 28168 N 2699.01 1.49585 0.49619 0
M  V30 28169 C 2699.94 1.62733 1.61402 0
M  V30 28170 C 2700.96 0.509807 1.54612 0
M  V30 28171 O 2702.14 0.782046 1.60457 0
M  V30 28172 C 2699.24 1.5725 3.00209 0
M  V30 28173 C 2698.42 2.84617 3.32133 0
M  V30 28174 C 2697.48 2.7212 4.50375 0
M  V30 28175 O 2696.5 3.46059 4.5192 0
M  V30 28176 N 2697.7 1.83987 5.50572 0
M  V30 28177 H 2700.47 2.59144 1.50548 0
M  V30 28178 H 2698.03 1.46734 0.684156 0
M  V30 28179 H 2700.02 1.46537 3.77239 0
M  V30 28180 H 2698.59 0.686783 3.04962 0
M  V30 28181 H 2697.81 3.09645 2.43954 0
M  V30 28182 H 2699.1 3.69046 3.50261 0
M  V30 28183 H 2698.5 1.2318 5.52126 0
M  V30 28184 H 2697.06 1.79193 6.26684 0
M  V30 28185 N 2700.49 -0.747586 1.3874 0
M  V30 28186 C 2701.42 -1.8713 1.32344 0
M  V30 28187 C 2702.43 -1.61102 0.23453 0
M  V30 28188 O 2703.62 -1.7157 0.492546 0
M  V30 28189 C 2700.72 -3.22894 1.02921 0
M  V30 28190 C 2699.9 -3.76379 2.2284 0
M  V30 28191 C 2698.95 -4.90674 1.90068 0
M  V30 28192 O 2697.98 -5.04992 2.62624 0
M  V30 28193 N 2699.18 -5.74106 0.859242 0
M  V30 28194 H 2701.95 -1.93125 2.29178 0
M  V30 28195 H 2699.51 -0.927781 1.32679 0
M  V30 28196 H 2701.5 -3.96907 0.790379 0
M  V30 28197 H 2700.07 -3.12246 0.148627 0
M  V30 28198 H 2699.29 -2.93862 2.62752 0
M  V30 28199 H 2700.58 -4.08845 3.02858 0
M  V30 28200 H 2699.98 -5.65113 0.257663 0
M  V30 28201 H 2698.53 -6.4824 0.680303 0
M  V30 28202 N 2701.97 -1.23709 -0.97642 0
M  V30 28203 C 2702.93 -1.02291 -2.05108 0
M  V30 28204 C 2703.93 0.0166912 -1.60791 0
M  V30 28205 O 2705.12 -0.223438 -1.72761 0
M  V30 28206 C 2702.25 -0.548566 -3.36457 0
M  V30 28207 H 2703.44 -1.97664 -2.25542 0
M  V30 28208 H 2701 -1.05808 -1.1504 0
M  V30 28209 H 2701.73 0.408761 -3.21714 0
M  V30 28210 H 2701.52 -1.2988 -3.69964 0
M  V30 28211 H 2703.01 -0.419479 -4.15488 0
M  V30 28212 N 2703.44 1.17579 -1.04943 0
M  V30 28213 C 2704.67 1.92243 -0.778287 0
M  V30 28214 C 2705.09 1.76153 0.659676 0
M  V30 28215 O 2704.45 1.07758 1.45801 0
M  V30 28216 C 2704.5 3.41414 -1.16057 0
M  V30 28217 O 2703.6 4.1137 -0.291225 0
M  V30 28218 H 2702.95 0.599426 -0.28563 0
M  V30 28219 H 2705.48 1.4905 -1.40162 0
M  V30 28220 H 2705.49 3.92147 -1.12626 0
M  V30 28221 H 2704.16 3.52445 -2.20806 0
M  V30 28222 H 2702.74 3.70898 -0.385916 0
M  V30 28223 N 2704.92 0.830104 1.33967 0
M  V30 28224 C 2705.89 0.26239 2.27693 0
M  V30 28225 C 2706.89 -0.563849 1.5059 0
M  V30 28226 O 2708.08 -0.378911 1.70029 0
M  V30 28227 C 2705.21 -0.631321 3.35003 0
M  V30 28228 H 2706.4 1.08933 2.79417 0
M  V30 28229 H 2703.95 0.602512 1.4422 0
M  V30 28230 H 2704.69 -1.48104 2.88506 0
M  V30 28231 H 2704.47 -0.0402587 3.92079 0
M  V30 28232 H 2705.96 -1.0221 4.04899 0
M  V30 28233 N 2706.4 -1.46311 0.585725 0
M  V30 28234 C 2707.65 -2.0267 0.072564 0
M  V30 28235 C 2707.98 -1.45589 -1.28521 0
M  V30 28236 O 2707.26 -0.622134 -1.84282 0
M  V30 28237 C 2707.54 -3.60099 0.0100421 0
M  V30 28238 C 2707.39 -4.27558 1.39693 0
M  V30 28239 C 2708.71 -4.34673 -0.68904 0
M  V30 28240 H 2705.83 -0.736474 0.0278436 0
M  V30 28241 H 2708.47 -1.7442 0.753503 0
M  V30 28242 H 2706.62 -3.84298 -0.569852 0
M  V30 28243 H 2708.29 -4.14613 2.02222 0
M  V30 28244 H 2706.54 -3.86804 1.9638 0
M  V30 28245 H 2707.21 -5.36337 1.30562 0
M  V30 28246 H 2709.68 -4.15636 -0.196373 0
M  V30 28247 H 2708.56 -5.44395 -0.701825 0
M  V30 28248 H 2708.82 -4.05949 -1.75094 0
M  V30 28249 N 2707.88 -0.323668 -1.54241 0
M  V30 28250 C 2709.13 0.278324 -2.00174 0
M  V30 28251 C 2709.45 1.52646 -1.21343 0
M  V30 28252 O 2708.72 1.93346 -0.315278 0
M  V30 28253 H 2707.3 0.105832 -0.739465 0
M  V30 28254 H 2709.96 -0.440238 -1.89863 0
M  V30 28255 H 2709.06 0.534646 -3.07487 0
M  V30 28256 N 2709.36 1.57515 -0.0518432 0
M  V30 28257 C 2710.58 1.97444 0.634861 0
M  V30 28258 C 2711.01 0.929236 1.63545 0
M  V30 28259 O 2710.37 -0.107452 1.80981 0
M  V30 28260 C 2710.41 3.36445 1.29759 0
M  V30 28261 O 2709.52 3.34417 2.41327 0
M  V30 28262 H 2708.86 0.643177 0.164983 0
M  V30 28263 H 2711.39 2.04245 -0.120442 0
M  V30 28264 H 2711.4 3.73187 1.64912 0
M  V30 28265 H 2710.07 4.12054 0.564288 0
M  V30 28266 H 2708.65 3.09422 2.08117 0
M  V30 28267 N 2710.84 -0.221546 1.56035 0
M  V30 28268 C 2712.06 -0.966994 1.83477 0
M  V30 28269 C 2712.49 -1.77159 0.632171 0
M  V30 28270 O 2711.84 -1.76391 -0.419051 0
M  V30 28271 C 2711.89 -1.86029 3.0891 0
M  V30 28272 O 2711 -2.95562 2.87605 0
M  V30 28273 H 2710.34 -0.273807 0.604918 0
M  V30 28274 H 2712.87 -0.234858 2.03248 0
M  V30 28275 H 2712.88 -2.2701 3.39014 0
M  V30 28276 H 2711.55 -1.26891 3.9607 0
M  V30 28277 H 2710.13 -2.58527 2.68734 0
M  V30 28278 N 2712.31 -1.49846 -0.48825 0
M  V30 28279 C 2713.54 -1.63973 -1.26994 0
M  V30 28280 C 2713.96 -0.316026 -1.85426 0
M  V30 28281 O 2713.32 0.718003 -1.66476 0
M  V30 28282 C 2713.37 -2.72053 -2.36684 0
M  V30 28283 O 2712.47 -2.32113 -3.40877 0
M  V30 28284 H 2711.81 -0.548403 -0.374367 0
M  V30 28285 H 2714.34 -1.96116 -0.58307 0
M  V30 28286 H 2714.35 -2.9461 -2.82257 0
M  V30 28287 H 2713.03 -3.68133 -1.93523 0
M  V30 28288 H 2711.61 -2.19936 -3.01135 0
M  V30 28289 N 2713.79 0.740218 -1.39135 0
M  V30 28290 C 2715.21 1.04507 -1.20625 0
M  V30 28291 C 2715.41 2.01398 -0.0642005 0
M  V30 28292 O 2714.46 2.45611 0.5858 0
M  V30 28293 C 2715.78 1.61236 -2.53818 0
M  V30 28294 C 2717.32 1.73342 -2.60618 0
M  V30 28295 C 2717.8 2.33479 -3.94019 0
M  V30 28296 N 2719.29 2.40895 -3.95631 0
M  V30 28297 C 2720.03 2.88352 -4.95621 0
M  V30 28298 N 2719.52 3.35745 -6.06009 0
M  V30 28299 N 2721.31 2.87514 -4.83003 0
M  V30 28300 H 2713.47 0.0975203 -2.12176 0
M  V30 28301 H 2715.73 0.105888 -0.942068 0
M  V30 28302 H 2715.43 0.975085 -3.37913 0
M  V30 28303 H 2715.31 2.60115 -2.73166 0
M  V30 28304 H 2717.7 2.36192 -1.7691 0
M  V30 28305 H 2717.78 0.731293 -2.45124 0
M  V30 28306 H 2717.42 1.71258 -4.78156 0
M  V30 28307 H 2717.35 3.34359 -4.06831 0
M  V30 28308 H 2719.84 2.07392 -3.15907 0
M  V30 28309 H 2720.15 3.70452 -6.78222 0
M  V30 28310 H 2718.5 3.33768 -6.0961 0
M  V30 28311 H 2721.69 2.49809 -3.9587 0
M  V30 28312 H 2721.86 3.24186 -5.61077 0
M  V30 28313 N 2715.27 1.24225 0.969846 0
M  V30 28314 C 2716.23 1.03377 2.04563 0
M  V30 28315 C 2717.23 -0.0081638 1.60798 0
M  V30 28316 O 2718.42 0.232597 1.7264 0
M  V30 28317 C 2715.55 0.566402 3.36162 0
M  V30 28318 H 2716.75 1.98857 2.2449 0
M  V30 28319 H 2714.3 1.06417 1.14478 0
M  V30 28320 H 2715.04 -0.391694 3.21926 0
M  V30 28321 H 2714.82 1.3184 3.6927 0
M  V30 28322 H 2716.31 0.441508 4.1526 0
M  V30 28323 N 2716.75 -1.1702 1.05565 0
M  V30 28324 C 2717.68 -2.20713 0.617927 0
M  V30 28325 C 2718.69 -1.59619 -0.320275 0
M  V30 28326 O 2719.88 -1.78146 -0.112417 0
M  V30 28327 C 2716.98 -3.38704 -0.115274 0
M  V30 28328 C 2716.15 -4.29364 0.834569 0
M  V30 28329 C 2715.21 -5.26009 0.141948 0
M  V30 28330 O 2714.24 -5.63868 0.77725 0
M  V30 28331 N 2715.44 -5.69608 -1.11924 0
M  V30 28332 H 2718.21 -2.58889 1.50986 0
M  V30 28333 H 2715.77 -1.31957 0.938031 0
M  V30 28334 H 2717.76 -4.00393 -0.588848 0
M  V30 28335 H 2716.33 -2.99094 -0.908915 0
M  V30 28336 H 2715.55 -3.6505 1.48768 0
M  V30 28337 H 2716.84 -4.86824 1.47918 0
M  V30 28338 H 2716.24 -5.4093 -1.65565 0
M  V30 28339 H 2714.79 -6.33424 -1.53681 0
M  V30 28340 N 2718.23 -0.837197 -1.33524 0
M  V30 28341 C 2719.16 -0.226619 -2.28077 0
M  V30 28342 C 2720.17 0.59169 -1.51667 0
M  V30 28343 O 2721.36 0.419034 -1.73512 0
M  V30 28344 C 2718.46 0.699722 -3.31598 0
M  V30 28345 C 2717.63 -0.0788836 -4.37329 0
M  V30 28346 C 2716.69 0.770546 -5.20528 0
M  V30 28347 O 2715.72 0.210353 -5.68811 0
M  V30 28348 N 2716.92 2.08816 -5.41642 0
M  V30 28349 H 2719.68 -1.03902 -2.81113 0
M  V30 28350 H 2717.25 -0.695502 -1.462 0
M  V30 28351 H 2719.24 1.27291 -3.8416 0
M  V30 28352 H 2717.81 1.41284 -2.78851 0
M  V30 28353 H 2717.03 -0.833449 -3.85289 0
M  V30 28354 H 2718.32 -0.614327 -5.05078 0
M  V30 28355 H 2717.71 2.56684 -5.04113 0
M  V30 28356 H 2716.27 2.60987 -5.97268 0
M  V30 28357 N 2719.7 1.45999 -0.593476 0
M  V30 28358 C 2720.67 2.28867 0.123497 0
M  V30 28359 C 2721.67 1.3899 0.808604 0
M  V30 28360 O 2722.86 1.61257 0.658916 0
M  V30 28361 C 2719.99 3.19655 1.18464 0
M  V30 28362 H 2721.18 2.93736 -0.604894 0
M  V30 28363 H 2718.73 1.52287 -0.351902 0
M  V30 28364 H 2719.47 2.59555 1.94426 0
M  V30 28365 H 2719.25 3.85842 0.697762 0
M  V30 28366 H 2720.74 3.82 1.68719 0
M  V30 28367 N 2721.18 0.331843 1.54067 0
M  V30 28368 C 2722.11 -0.522892 2.2757 0
M  V30 28369 C 2723.09 -1.11244 1.28681 0
M  V30 28370 O 2724.28 -1.13603 1.57506 0
M  V30 28371 C 2721.41 -1.67981 3.03973 0
M  V30 28372 C 2720.36 -1.21917 4.10269 0
M  V30 28373 C 2719.69 -2.46369 4.74559 0
M  V30 28374 C 2720.99 -0.328058 5.21269 0
M  V30 28375 H 2722.68 0.0902503 2.99264 0
M  V30 28376 H 2720.23 0.0448463 1.4393 0
M  V30 28377 H 2722.18 -2.28412 3.54127 0
M  V30 28378 H 2720.91 -2.31967 2.2991 0
M  V30 28379 H 2719.56 -0.637745 3.6101 0
M  V30 28380 H 2719.21 -3.08736 3.97103 0
M  V30 28381 H 2718.91 -2.16234 5.46367 0
M  V30 28382 H 2720.44 -3.07546 5.27492 0
M  V30 28383 H 2721.85 -0.838878 5.67129 0
M  V30 28384 H 2720.25 -0.119122 5.99982 0
M  V30 28385 H 2721.32 0.638924 4.80672 0
M  V30 28386 N 2722.66 -1.57485 0.0601958 0
M  V30 28387 C 2723.89 -1.97778 -0.624381 0
M  V30 28388 C 2724.31 -0.937896 -1.63049 0
M  V30 28389 O 2723.67 0.0978527 -1.81036 0
M  V30 28390 C 2723.72 -3.37128 -1.27973 0
M  V30 28391 O 2722.82 -3.35692 -2.3955 0
M  V30 28392 H 2722.16 -0.644043 -0.16157 0
M  V30 28393 H 2724.69 -2.04178 0.131272 0
M  V30 28394 H 2724.7 -3.74056 -1.6293 0
M  V30 28395 H 2723.38 -4.12348 -0.542428 0
M  V30 28396 H 2721.95 -3.10521 -2.06473 0
M  V30 28397 N 2724.14 0.213268 -1.5615 0
M  V30 28398 C 2725.05 1.28515 -1.96268 0
M  V30 28399 C 2726.06 1.50822 -0.867676 0
M  V30 28400 O 2727.24 1.63791 -1.17194 0
M  V30 28401 C 2724.31 2.61323 -2.27841 0
M  V30 28402 C 2723.37 2.47246 -3.50953 0
M  V30 28403 C 2722.6 3.7372 -3.8101 0
M  V30 28404 O 2722.82 4.771 -3.1262 0
M  V30 28405 O 2721.76 3.70336 -4.74484 0
M  V30 28406 H 2725.58 0.974744 -2.87632 0
M  V30 28407 H 2723.17 0.416807 -1.43468 0
M  V30 28408 H 2725.05 3.39742 -2.49305 0
M  V30 28409 H 2723.72 2.92028 -1.39648 0
M  V30 28410 H 2722.63 1.66999 -3.34757 0
M  V30 28411 H 2723.96 2.21478 -4.39554 0
M  V30 28412 N 2725.62 1.50103 0.480296 0
M  V30 28413 C 2726.55 1.71218 1.58766 0
M  V30 28414 C 2727.53 0.561025 1.60582 0
M  V30 28415 O 2728.71 0.799158 1.76995 0
M  V30 28416 C 2725.84 1.79783 2.97145 0
M  V30 28417 C 2724.8 2.94894 3.10196 0
M  V30 28418 C 2724.12 2.88592 4.50132 0
M  V30 28419 C 2725.42 4.35539 2.88276 0
M  V30 28420 H 2727.12 2.63933 1.4135 0
M  V30 28421 H 2724.66 1.2701 0.678569 0
M  V30 28422 H 2726.62 1.9314 3.74533 0
M  V30 28423 H 2725.34 0.836827 3.15697 0
M  V30 28424 H 2724 2.81173 2.35239 0
M  V30 28425 H 2723.65 1.90357 4.65589 0
M  V30 28426 H 2723.35 3.65864 4.59801 0
M  V30 28427 H 2724.87 3.03985 5.29552 0
M  V30 28428 H 2726.28 4.49834 3.55419 0
M  V30 28429 H 2724.68 5.14191 3.09399 0
M  V30 28430 H 2725.75 4.48547 1.84211 0
M  V30 28431 N 2727.09 -0.732829 1.39526 0
M  V30 28432 C 2728.04 -1.83804 1.34908 0
M  V30 28433 C 2729.03 -1.59254 0.229574 0
M  V30 28434 O 2730.22 -1.7072 0.467285 0
M  V30 28435 C 2727.35 -3.21754 1.19704 0
M  V30 28436 C 2726.44 -3.52126 2.36365 0
M  V30 28437 N 2726.83 -3.5342 3.6184 0
M  V30 28438 C 2725.12 -3.82499 2.2937 0
M  V30 28439 C 2725.83 -3.81648 4.38999 0
M  V30 28440 N 2724.8 -3.99531 3.68613 0
M  V30 28441 H 2728.6 -1.83112 2.29885 0
M  V30 28442 H 2726.12 -0.93117 1.33053 0
M  V30 28443 H 2728.11 -4.00874 1.14479 0
M  V30 28444 H 2726.77 -3.23683 0.256796 0
M  V30 28445 H 2727.79 -3.3468 3.95234 0
M  V30 28446 H 2724.46 -3.9202 1.43619 0
M  V30 28447 H 2725.85 -3.89098 5.4777 0
M  V30 28448 N 2728.57 -1.24737 -0.963244 0
M  V30 28449 C 2729.8 -1.11689 -1.74164 0
M  V30 28450 C 2730.22 0.330155 -1.85891 0
M  V30 28451 O 2729.57 1.22757 -1.35044 0
M  V30 28452 C 2729.62 -1.756 -3.15985 0
M  V30 28453 O 2729.34 -3.14648 -3.04842 0
M  V30 28454 C 2730.85 -1.6822 -4.10142 0
M  V30 28455 H 2728.07 -0.389998 -0.546024 0
M  V30 28456 H 2730.61 -1.64931 -1.20904 0
M  V30 28457 H 2728.76 -1.2635 -3.66216 0
M  V30 28458 H 2729.18 -3.45936 -3.94244 0
M  V30 28459 H 2730.65 -2.17613 -5.07295 0
M  V30 28460 H 2731.13 -0.644284 -4.34449 0
M  V30 28461 H 2731.74 -2.16918 -3.65823 0
M  V30 28462 N 2730.05 1.16459 -1.06184 0
M  V30 28463 C 2731.3 1.8724 -0.779048 0
M  V30 28464 C 2731.63 1.81426 0.692683 0
M  V30 28465 O 2730.9 1.22916 1.50738 0
M  V30 28466 C 2731.19 3.36853 -1.27286 0
M  V30 28467 C 2731.04 3.51364 -2.80827 0
M  V30 28468 C 2732.36 4.31215 -0.879875 0
M  V30 28469 H 2729.48 0.679884 -0.284476 0
M  V30 28470 H 2732.12 1.36894 -1.31758 0
M  V30 28471 H 2730.27 3.79861 -0.814739 0
M  V30 28472 H 2731.94 3.17302 -3.34839 0
M  V30 28473 H 2730.19 2.9331 -3.19611 0
M  V30 28474 H 2730.86 4.56431 -3.10443 0
M  V30 28475 H 2733.33 3.96103 -1.27443 0
M  V30 28476 H 2732.21 5.3441 -1.25288 0
M  V30 28477 H 2732.47 4.41575 0.215295 0
M  V30 28478 N 2731.53 0.844266 1.33079 0
M  V30 28479 C 2732.44 0.283963 2.32875 0
M  V30 28480 C 2733.45 -0.592818 1.6359 0
M  V30 28481 O 2734.63 -0.495658 1.95206 0
M  V30 28482 C 2731.7 -0.527223 3.42668 0
M  V30 28483 C 2730.76 0.374469 4.27664 0
M  V30 28484 C 2729.99 -0.398096 5.32213 0
M  V30 28485 O 2730.21 -1.62922 5.46638 0
M  V30 28486 O 2729.15 0.230705 6.01458 0
M  V30 28487 H 2732.97 1.1105 2.82669 0
M  V30 28488 H 2730.56 0.606927 1.36516 0
M  V30 28489 H 2732.44 -0.988006 4.09654 0
M  V30 28490 H 2731.11 -1.33073 2.95082 0
M  V30 28491 H 2730.02 0.883208 3.63525 0
M  V30 28492 H 2731.35 1.14289 4.78747 0
M  V30 28493 N 2733.01 -1.45682 0.60121 0
M  V30 28494 C 2733.95 -2.30481 -0.121356 0
M  V30 28495 C 2734.92 -1.41725 -0.866207 0
M  V30 28496 O 2736.11 -1.7066 -0.85321 0
M  V30 28497 C 2733.25 -3.26523 -1.11698 0
M  V30 28498 C 2732.36 -4.30381 -0.373665 0
M  V30 28499 C 2731.5 -5.13536 -1.35845 0
M  V30 28500 C 2730.54 -6.09127 -0.602582 0
M  V30 28501 N 2729.67 -6.85085 -1.53633 0
M  V30 28502 H 2734.51 -2.91736 0.607783 0
M  V30 28503 H 2732.05 -1.43763 0.311527 0
M  V30 28504 H 2734.01 -3.80667 -1.70729 0
M  V30 28505 H 2732.64 -2.67036 -1.81361 0
M  V30 28506 H 2731.69 -3.78948 0.332028 0
M  V30 28507 H 2733 -4.9833 0.216388 0
M  V30 28508 H 2732.16 -5.72049 -2.02101 0
M  V30 28509 H 2730.89 -4.45591 -1.98243 0
M  V30 28510 H 2729.9 -5.49751 0.0736448 0
M  V30 28511 H 2731.12 -6.79098 0.016266 0
M  V30 28512 H 2729.07 -6.19833 -2.14808 0
M  V30 28513 H 2728.99 -7.49363 -0.999557 0
M  V30 28514 H 2730.26 -7.48143 -2.18867 0
M  V30 28515 N 2734.48 -0.340009 -1.53889 0
M  V30 28516 C 2735.45 0.505881 -2.23548 0
M  V30 28517 C 2736.45 1.03042 -1.23447 0
M  V30 28518 O 2737.64 0.920227 -1.4791 0
M  V30 28519 C 2734.77 1.70435 -2.95237 0
M  V30 28520 H 2735.96 -0.1033 -2.99722 0
M  V30 28521 H 2733.52 -0.0913078 -1.56033 0
M  V30 28522 H 2734.25 2.35232 -2.2324 0
M  V30 28523 H 2734.04 1.33547 -3.68657 0
M  V30 28524 H 2735.53 2.30441 -3.48262 0
M  V30 28525 N 2735.96 1.57451 -0.0685468 0
M  V30 28526 C 2737.21 1.93653 0.602205 0
M  V30 28527 C 2737.54 0.948556 1.69458 0
M  V30 28528 O 2736.82 -0.0227478 1.94487 0
M  V30 28529 C 2737.1 3.40142 1.18217 0
M  V30 28530 C 2736.95 4.49696 0.0966641 0
M  V30 28531 C 2738.27 3.8738 2.08865 0
M  V30 28532 H 2735.39 0.704194 0.217441 0
M  V30 28533 H 2738.03 1.89528 -0.133854 0
M  V30 28534 H 2736.18 3.43788 1.80947 0
M  V30 28535 H 2737.86 4.58173 -0.536236 0
M  V30 28536 H 2736.1 4.29997 -0.573139 0
M  V30 28537 H 2736.77 5.49325 0.542798 0
M  V30 28538 H 2739.25 3.8572 1.56074 0
M  V30 28539 H 2738.12 4.90497 2.46381 0
M  V30 28540 H 2738.38 3.25135 2.99566 0
M  V30 28541 N 2737.44 -0.204984 1.56261 0
M  V30 28542 C 2738.35 -1.27473 1.96946 0
M  V30 28543 C 2739.37 -1.5036 0.875662 0
M  V30 28544 O 2740.54 -1.63167 1.18061 0
M  V30 28545 C 2737.61 -2.60111 2.29223 0
M  V30 28546 C 2736.67 -2.45381 3.52259 0
M  V30 28547 C 2735.9 -3.71694 3.82987 0
M  V30 28548 O 2736.13 -4.75436 3.15146 0
M  V30 28549 O 2735.06 -3.67815 4.76441 0
M  V30 28550 H 2738.89 -0.959477 2.88145 0
M  V30 28551 H 2736.47 -0.409192 1.43687 0
M  V30 28552 H 2738.35 -3.38415 2.51104 0
M  V30 28553 H 2737.03 -2.91283 1.41195 0
M  V30 28554 H 2735.93 -1.65221 3.35638 0
M  V30 28555 H 2737.27 -2.19144 4.40723 0
M  V30 28556 N 2738.92 -1.50356 -0.472329 0
M  V30 28557 C 2739.85 -1.63767 -1.5892 0
M  V30 28558 C 2740.83 -0.485821 -1.55173 0
M  V30 28559 O 2742.01 -0.705162 -1.74813 0
M  V30 28560 C 2739.14 -1.61911 -2.97494 0
M  V30 28561 C 2738.19 -2.82641 -3.194 0
M  V30 28562 S 2739.02 -4.43959 -2.99433 0
M  V30 28563 C 2740.18 -4.44794 -4.40351 0
M  V30 28564 H 2740.41 -2.58242 -1.47304 0
M  V30 28565 H 2737.94 -1.39603 -0.659577 0
M  V30 28566 H 2739.9 -1.61525 -3.77386 0
M  V30 28567 H 2738.56 -0.686737 -3.06501 0
M  V30 28568 H 2737.75 -2.77643 -4.20631 0
M  V30 28569 H 2737.36 -2.80588 -2.47278 0
M  V30 28570 H 2739.65 -4.1828 -5.32962 0
M  V30 28571 H 2740.59 -5.46399 -4.50393 0
M  V30 28572 H 2741 -3.74516 -4.22372 0
M  V30 28573 N 2740.4 0.725419 -1.39912 0
M  V30 28574 C 2741.63 1.51461 -1.40951 0
M  V30 28575 C 2742.04 1.88799 -0.00655738 0
M  V30 28576 O 2741.4 1.54767 0.967136 0
M  V30 28577 C 2741.45 2.79615 -2.29123 0
M  V30 28578 O 2741.17 2.43859 -3.63956 0
M  V30 28579 C 2742.67 3.7358 -2.38649 0
M  V30 28580 H 2739.89 0.467744 -0.4811 0
M  V30 28581 H 2742.43 0.895619 -1.83845 0
M  V30 28582 H 2740.59 3.37822 -1.89618 0
M  V30 28583 H 2741 3.26251 -4.10683 0
M  V30 28584 H 2742.48 4.6037 -3.04572 0
M  V30 28585 H 2742.95 4.16001 -1.40853 0
M  V30 28586 H 2743.56 3.21288 -2.78665 0
M  V30 28587 N 2741.88 1.25246 0.956615 0
M  V30 28588 C 2743.15 1.00654 1.67715 0
M  V30 28589 C 2743.53 -0.46783 2.05851 0
M  V30 28590 O 2742.88 -1.44472 1.77031 0
M  V30 28591 C 2743.09 1.94034 2.9009 0
M  V30 28592 C 2744.44 2.21763 3.62086 0
M  V30 28593 O 2745.46 1.91776 3.00167 0
M  V30 28594 O 2744.32 2.72744 4.73575 0
M  V30 28595 H 2741.42 0.381546 0.733724 0
M  V30 28596 H 2743.96 1.36392 1.00972 0
M  V30 28597 H 2742.73 2.93596 2.58683 0
M  V30 28598 H 2742.36 1.5868 3.64563 0
M  V30 28599 N 2743.35 -1.15894 1.068 0
M  V30 28600 C 2744.29 -2.20045 0.641302 0
M  V30 28601 C 2745.3 -1.59949 -0.303327 0
M  V30 28602 O 2746.49 -1.78255 -0.0935164 0
M  V30 28603 C 2743.59 -3.38807 -0.0793433 0
M  V30 28604 C 2742.76 -4.28455 0.880062 0
M  V30 28605 C 2741.82 -5.25828 0.19773 0
M  V30 28606 O 2740.85 -5.63012 0.837012 0
M  V30 28607 N 2742.05 -5.70763 -1.05876 0
M  V30 28608 H 2744.81 -2.57273 1.53723 0
M  V30 28609 H 2742.37 -1.30954 0.951974 0
M  V30 28610 H 2744.37 -4.00995 -0.546348 0
M  V30 28611 H 2742.94 -3.00042 -0.877141 0
M  V30 28612 H 2742.16 -3.63452 1.52632 0
M  V30 28613 H 2743.44 -4.85228 1.53073 0
M  V30 28614 H 2742.84 -5.42655 -1.59818 0
M  V30 28615 H 2741.4 -6.35018 -1.46954 0
M  V30 28616 N 2744.83 -0.851312 -1.32629 0
M  V30 28617 C 2745.76 -0.308812 -2.31449 0
M  V30 28618 C 2746.74 0.590227 -1.59532 0
M  V30 28619 O 2747.93 0.511172 -1.87352 0
M  V30 28620 C 2745.06 0.506488 -3.43587 0
M  V30 28621 C 2744.01 -0.297828 -4.26963 0
M  V30 28622 C 2743.34 0.642001 -5.30832 0
M  V30 28623 C 2744.64 -1.52174 -4.9964 0
M  V30 28624 H 2746.33 -1.13452 -2.77072 0
M  V30 28625 H 2743.88 -0.546995 -1.33206 0
M  V30 28626 H 2745.83 0.896402 -4.11756 0
M  V30 28627 H 2744.55 1.36553 -2.96683 0
M  V30 28628 H 2743.21 -0.669455 -3.60436 0
M  V30 28629 H 2742.86 1.49779 -4.80182 0
M  V30 28630 H 2742.56 0.107865 -5.87501 0
M  V30 28631 H 2744.09 1.02916 -6.01864 0
M  V30 28632 H 2745.5 -1.20431 -5.60508 0
M  V30 28633 H 2743.9 -1.99357 -5.66018 0
M  V30 28634 H 2744.97 -2.28481 -4.27697 0
M  V30 28635 N 2746.31 1.45361 -0.608928 0
M  V30 28636 C 2747.24 2.27652 0.158019 0
M  V30 28637 C 2748.22 1.37217 0.872373 0
M  V30 28638 O 2749.4 1.66647 0.880972 0
M  V30 28639 C 2746.53 3.1562 1.2289 0
M  V30 28640 C 2745.58 4.22006 0.617533 0
M  V30 28641 S 2746.41 5.32397 -0.575611 0
M  V30 28642 C 2747.57 6.23933 0.495828 0
M  V30 28643 H 2747.8 2.92352 -0.540146 0
M  V30 28644 H 2745.33 1.49223 -0.396482 0
M  V30 28645 H 2747.29 3.66858 1.84188 0
M  V30 28646 H 2745.95 2.50183 1.89914 0
M  V30 28647 H 2745.14 4.83485 1.42333 0
M  V30 28648 H 2744.75 3.73915 0.0796616 0
M  V30 28649 H 2747.04 6.6341 1.37453 0
M  V30 28650 H 2747.98 7.08052 -0.0828352 0
M  V30 28651 H 2748.39 5.58633 0.811758 0
M  V30 28652 N 2747.79 0.348166 1.53706 0
M  V30 28653 C 2749.03 -0.247296 2.01287 0
M  V30 28654 C 2749.37 -1.49831 1.23548 0
M  V30 28655 O 2748.64 -1.91776 0.324364 0
M  V30 28656 C 2748.92 -0.556795 3.55769 0
M  V30 28657 C 2748.78 0.706642 4.44215 0
M  V30 28658 C 2750.1 -1.36453 4.18412 0
M  V30 28659 H 2747.22 -0.0884073 0.731678 0
M  V30 28660 H 2749.86 0.469616 1.84105 0
M  V30 28661 H 2748.01 -1.16755 3.70541 0
M  V30 28662 H 2749.68 1.34451 4.41271 0
M  V30 28663 H 2747.92 1.33059 4.12889 0
M  V30 28664 H 2748.59 0.445282 5.50201 0
M  V30 28665 H 2751.07 -0.848042 4.07366 0
M  V30 28666 H 2749.95 -1.54983 5.26566 0
M  V30 28667 H 2750.21 -2.36799 3.73335 0
M  V30 28668 N 2749.27 -1.57412 0.0768958 0
M  V30 28669 C 2750.68 -1.81071 -0.455006 0
M  V30 28670 C 2751.03 -0.991192 -1.69322 0
M  V30 28671 O 2750.15 -0.215194 -2.15327 0
M  V30 28672 C 2750.75 -3.28419 -0.832258 0
M  V30 28673 C 2749.31 -3.52905 -1.309 0
M  V30 28674 C 2748.45 -2.75709 -0.296666 0
M  V30 28675 H 2751.4 -1.5579 0.302541 0
M  V30 28676 H 2751.43 -3.40747 -1.69327 0
M  V30 28677 H 2750.94 -3.88038 0.0691214 0
M  V30 28678 H 2749.04 -2.98596 -2.2287 0
M  V30 28679 H 2749.15 -4.6159 -1.2834 0
M  V30 28680 H 2747.52 -2.42622 -0.775017 0
M  V30 28681 H 2748.3 -3.38068 0.597075 0
M  V30 28682 N 2750.74 0.196695 -1.56368 0
M  V30 28683 C 2751.97 0.933575 -1.8464 0
M  V30 28684 C 2752.39 1.76918 -0.659195 0
M  V30 28685 O 2751.74 1.78666 0.372111 0
M  V30 28686 C 2751.8 1.83103 -3.11698 0
M  V30 28687 O 2751.52 1.02917 -4.2584 0
M  V30 28688 C 2753.02 2.67973 -3.53137 0
M  V30 28689 H 2750.24 0.272463 -0.613193 0
M  V30 28690 H 2752.78 0.204429 -2.03476 0
M  V30 28691 H 2750.94 2.51382 -2.94764 0
M  V30 28692 H 2751.35 1.6406 -4.98181 0
M  V30 28693 H 2752.82 3.26604 -4.4501 0
M  V30 28694 H 2753.3 3.41603 -2.76051 0
M  V30 28695 H 2753.91 2.05068 -3.72595 0
M  V30 28696 N 2752.22 1.50604 0.464349 0
M  V30 28697 C 2753.15 1.72892 1.56941 0
M  V30 28698 C 2754.13 0.578025 1.59978 0
M  V30 28699 O 2755.32 0.817886 1.76137 0
M  V30 28700 C 2752.45 1.82925 2.95222 0
M  V30 28701 C 2751.4 2.98167 3.07051 0
M  V30 28702 C 2750.73 2.9335 4.47045 0
M  V30 28703 C 2752.03 4.38572 2.8364 0
M  V30 28704 H 2753.72 2.65417 1.38542 0
M  V30 28705 H 2751.27 1.27722 0.665059 0
M  V30 28706 H 2753.22 1.97101 3.72464 0
M  V30 28707 H 2751.95 0.870264 3.14792 0
M  V30 28708 H 2750.6 2.83652 2.32243 0
M  V30 28709 H 2750.25 1.95284 4.63544 0
M  V30 28710 H 2749.95 3.7072 4.55895 0
M  V30 28711 H 2751.48 3.09584 5.26298 0
M  V30 28712 H 2752.89 4.53578 3.50628 0
M  V30 28713 H 2751.29 5.17444 3.03928 0
M  V30 28714 H 2752.36 4.50475 1.79443 0
M  V30 28715 N 2753.7 -0.717989 1.40295 0
M  V30 28716 C 2754.95 -1.47491 1.38169 0
M  V30 28717 C 2755.27 -1.94993 -0.0160357 0
M  V30 28718 O 2754.54 -1.70178 -0.970367 0
M  V30 28719 H 2753.12 -0.547194 0.508515 0
M  V30 28720 H 2755.78 -0.851291 1.75326 0
M  V30 28721 H 2754.88 -2.3489 2.05507 0
M  V30 28722 N 2755.18 -1.25752 -0.94996 0
M  V30 28723 C 2756.4 -1.13631 -1.73501 0
M  V30 28724 C 2756.83 0.305557 -1.85602 0
M  V30 28725 O 2756.19 1.22137 -1.33986 0
M  V30 28726 C 2756.23 -1.80061 -3.12427 0
M  V30 28727 O 2755.34 -1.08343 -3.97914 0
M  V30 28728 H 2754.68 -0.396449 -0.532658 0
M  V30 28729 H 2757.21 -1.66405 -1.1904 0
M  V30 28730 H 2757.22 -1.86533 -3.62863 0
M  V30 28731 H 2755.89 -2.84961 -3.02936 0
M  V30 28732 H 2754.47 -1.09784 -3.56373 0
M  V30 28733 N 2756.66 1.15326 -1.07413 0
M  V30 28734 C 2757.59 2.19702 -0.652962 0
M  V30 28735 C 2758.6 1.60108 0.29484 0
M  V30 28736 O 2759.79 1.78302 0.0840618 0
M  V30 28737 C 2756.89 3.38844 0.0613744 0
M  V30 28738 C 2756.06 4.27982 -0.902771 0
M  V30 28739 C 2755.12 5.25716 -0.225613 0
M  V30 28740 O 2754.15 5.6256 -0.866858 0
M  V30 28741 N 2755.35 5.71317 1.02848 0
M  V30 28742 H 2758.12 2.56454 -1.55085 0
M  V30 28743 H 2755.68 1.30448 -0.958906 0
M  V30 28744 H 2757.67 4.01279 0.525074 0
M  V30 28745 H 2756.24 3.00503 0.861216 0
M  V30 28746 H 2755.46 3.62637 -1.54557 0
M  V30 28747 H 2756.75 4.84409 -1.55645 0
M  V30 28748 H 2756.14 5.43495 1.56938 0
M  V30 28749 H 2754.7 6.35788 1.43584 0
M  V30 28750 N 2758.13 0.858334 1.32176 0
M  V30 28751 C 2759.04 0.308647 2.32561 0
M  V30 28752 C 2760.06 -0.575433 1.6421 0
M  V30 28753 O 2761.24 -0.474926 1.9572 0
M  V30 28754 C 2758.3 -0.490848 3.43208 0
M  V30 28755 C 2757.36 0.419808 4.27242 0
M  V30 28756 C 2756.6 -0.341625 5.32605 0
M  V30 28757 O 2756.82 -1.57115 5.48335 0
M  V30 28758 O 2755.75 0.294485 6.01179 0
M  V30 28759 H 2759.58 1.14042 2.81475 0
M  V30 28760 H 2757.16 0.621373 1.35865 0
M  V30 28761 H 2759.05 -0.944502 4.10679 0
M  V30 28762 H 2757.72 -1.29936 2.96476 0
M  V30 28763 H 2756.63 0.921715 3.62568 0
M  V30 28764 H 2757.96 1.1936 4.77508 0
M  V30 28765 N 2759.61 -1.45036 0.616628 0
M  V30 28766 C 2760.86 -2.01772 0.115138 0
M  V30 28767 C 2761.18 -1.48641 -1.26218 0
M  V30 28768 O 2760.45 -0.684231 -1.83562 0
M  V30 28769 H 2759.03 -0.745951 0.0395738 0
M  V30 28770 H 2761.69 -1.77722 0.800064 0
M  V30 28771 H 2760.79 -3.12017 0.0717822 0
M  V30 28772 N 2761.09 -0.356312 -1.53519 0
M  V30 28773 C 2762.05 0.482142 -2.24071 0
M  V30 28774 C 2763.05 1.01727 -1.24532 0
M  V30 28775 O 2764.24 0.904487 -1.48878 0
M  V30 28776 C 2761.38 1.67294 -2.97028 0
M  V30 28777 H 2762.57 -0.135084 -2.99596 0
M  V30 28778 H 2760.12 -0.107852 -1.55927 0
M  V30 28779 H 2760.86 2.32851 -2.25723 0
M  V30 28780 H 2760.64 1.29629 -3.70052 0
M  V30 28781 H 2762.13 2.26734 -3.50687 0
M  V30 28782 N 2762.57 1.57369 -0.0852427 0
M  V30 28783 C 2763.82 1.93993 0.580771 0
M  V30 28784 C 2764.14 0.966281 1.68799 0
M  V30 28785 O 2763.4 -0.0158305 1.95694 0
M  V30 28786 C 2763.7 3.37192 1.18476 0
M  V30 28787 C 2763.36 4.50446 0.202321 0
M  V30 28788 C 2762.03 4.81152 -0.0679164 0
M  V30 28789 C 2764.38 5.19085 -0.469041 0
M  V30 28790 C 2761.71 5.77829 -1.01638 0
M  V30 28791 C 2764.06 6.16779 -1.40591 0
M  V30 28792 C 2762.72 6.45896 -1.68448 0
M  V30 28793 H 2761.99 0.709871 0.212519 0
M  V30 28794 H 2764.64 1.90839 -0.158981 0
M  V30 28795 H 2762.94 3.36876 2.00054 0
M  V30 28796 H 2764.64 3.62825 1.7076 0
M  V30 28797 H 2761.23 4.26506 0.423133 0
M  V30 28798 H 2765.41 4.95546 -0.273394 0
M  V30 28799 H 2760.67 5.98708 -1.23931 0
M  V30 28800 H 2764.84 6.69064 -1.932 0
M  V30 28801 H 2762.47 7.20619 -2.421 0
M  V30 28802 N 2764.05 -0.188399 1.5647 0
M  V30 28803 C 2764.96 -1.25376 1.98287 0
M  V30 28804 C 2765.97 -1.49423 0.891561 0
M  V30 28805 O 2767.15 -1.61906 1.19785 0
M  V30 28806 C 2764.21 -2.57665 2.31969 0
M  V30 28807 C 2763.27 -2.41631 3.54842 0
M  V30 28808 C 2762.51 -3.67611 3.86908 0
M  V30 28809 O 2762.73 -4.72066 3.20171 0
M  V30 28810 O 2761.66 -3.62741 4.80315 0
M  V30 28811 H 2765.49 -0.928861 2.89147 0
M  V30 28812 H 2763.08 -0.393929 1.44113 0
M  V30 28813 H 2764.96 -3.35733 2.54679 0
M  V30 28814 H 2763.63 -2.89769 1.44276 0
M  V30 28815 H 2762.54 -1.61652 3.37372 0
M  V30 28816 H 2763.87 -2.14457 4.43022 0
M  V30 28817 N 2765.53 -1.50848 -0.456355 0
M  V30 28818 C 2766.47 -1.71332 -1.57315 0
M  V30 28819 C 2767.47 -0.579315 -1.59186 0
M  V30 28820 O 2768.67 -0.760209 -1.63159 0
M  V30 28821 H 2765.05 -0.541033 -0.52229 0
M  V30 28822 H 2767.02 -2.64986 -1.37205 0
M  V30 28823 C 2765.77 -1.83816 -2.95139 0
M  V30 28824 H 2765.09 -2.70472 -2.94423 0
M  V30 28825 H 2766.53 -2.02168 -3.72698 0
M  V30 28826 C 2764.99 -0.593282 -3.31635 0
M  V30 28827 O 2765.52 0.260827 -4.00852 0
M  V30 28828 N 2763.73 -0.442953 -2.87204 0
M  V30 28829 H 2763.27 -1.13905 -2.31049 0
M  V30 28830 H 2763.23 0.388785 -3.11987 0
M  V30 28831 N 2767 0.710538 -1.40674 0
M  V30 28832 C 2768.25 1.47265 -1.39431 0
M  V30 28833 C 2768.58 1.942 0.00178716 0
M  V30 28834 O 2767.86 1.68508 0.971357 0
M  V30 28835 C 2768.14 2.69516 -2.38817 0
M  V30 28836 C 2767.99 2.28442 -3.87471 0
M  V30 28837 C 2769.31 3.71685 -2.35666 0
M  V30 28838 H 2766.43 0.534164 -0.507778 0
M  V30 28839 H 2769.07 0.810517 -1.71845 0
M  V30 28840 H 2767.22 3.26009 -2.11306 0
M  V30 28841 H 2768.9 1.77391 -4.25829 0
M  V30 28842 H 2767.14 1.60388 -4.03061 0
M  V30 28843 H 2767.81 3.16095 -4.52535 0
M  V30 28844 H 2770.29 3.24831 -2.60046 0
M  V30 28845 H 2769.16 4.54854 -3.07245 0
M  V30 28846 H 2769.42 4.20336 -1.37003 0
M  V30 28847 N 2768.48 1.26254 0.943277 0
M  V30 28848 C 2769.9 1.03321 1.21643 0
M  V30 28849 C 2770.1 -0.242948 2.0003 0
M  V30 28850 O 2769.15 -0.952647 2.33839 0
M  V30 28851 C 2770.47 2.26333 1.97974 0
M  V30 28852 C 2772.01 2.31212 2.10974 0
M  V30 28853 C 2772.49 3.53912 2.90707 0
M  V30 28854 N 2773.98 3.54376 2.98281 0
M  V30 28855 C 2774.72 4.45983 3.60398 0
M  V30 28856 N 2774.21 5.47875 4.24034 0
M  V30 28857 N 2776 4.33639 3.5765 0
M  V30 28858 H 2768.16 2.08222 0.419184 0
M  V30 28859 H 2770.42 0.914992 0.247979 0
M  V30 28860 H 2770.12 3.19144 1.47783 0
M  V30 28861 H 2770 2.30413 2.98646 0
M  V30 28862 H 2772.39 1.38917 2.60358 0
M  V30 28863 H 2772.47 2.31145 1.09571 0
M  V30 28864 H 2772.11 4.46535 2.4201 0
M  V30 28865 H 2772.04 3.51227 3.92361 0
M  V30 28866 H 2774.53 2.80677 2.53039 0
M  V30 28867 H 2774.84 6.13967 4.69323 0
M  V30 28868 H 2773.19 5.51735 4.22627 0
M  V30 28869 H 2776.38 3.53256 3.07128 0
M  V30 28870 H 2776.55 5.05225 4.05773 0
M  V30 28871 N 2769.96 -1.14755 1.08024 0
M  V30 28872 C 2770.89 -2.18724 0.650777 0
M  V30 28873 C 2771.87 -1.59102 -0.335468 0
M  V30 28874 O 2773.05 -1.86963 -0.240262 0
M  V30 28875 C 2770.18 -3.38672 -0.0433782 0
M  V30 28876 C 2769.23 -4.16844 0.902393 0
M  V30 28877 S 2770.06 -4.78355 2.40701 0
M  V30 28878 C 2771.22 -6.01664 1.72485 0
M  V30 28879 H 2771.45 -2.54814 1.53157 0
M  V30 28880 H 2768.98 -1.25825 0.894845 0
M  V30 28881 H 2770.94 -4.08161 -0.437612 0
M  V30 28882 H 2769.6 -3.00912 -0.900606 0
M  V30 28883 H 2768.79 -5.02687 0.363534 0
M  V30 28884 H 2768.4 -3.52939 1.23734 0
M  V30 28885 H 2770.69 -6.69462 1.04052 0
M  V30 28886 H 2771.63 -6.60132 2.56187 0
M  V30 28887 H 2772.04 -5.516 1.19989 0
M  V30 28888 N 2771.44 -0.865331 -1.31719 0
M  V30 28889 C 2772.39 -0.306715 -2.30569 0
M  V30 28890 C 2773.38 0.575696 -1.59318 0
M  V30 28891 O 2774.59 0.462312 -1.73962 0
M  V30 28892 H 2770.96 -0.0804965 -0.747679 0
M  V30 28893 H 2772.93 -1.15446 -2.75163 0
M  V30 28894 C 2771.68 0.480892 -3.44358 0
M  V30 28895 H 2771 -0.18883 -3.99354 0
M  V30 28896 H 2772.44 0.837168 -4.15653 0
M  V30 28897 C 2770.9 1.67034 -2.92577 0
M  V30 28898 O 2771.43 2.76958 -2.90959 0
M  V30 28899 N 2769.64 1.50093 -2.48838 0
M  V30 28900 H 2769.19 0.606694 -2.50354 0
M  V30 28901 H 2769.14 2.29819 -2.14548 0
M  V30 28902 N 2772.92 1.44707 -0.624311 0
M  V30 28903 C 2774.15 2.06173 -0.132763 0
M  V30 28904 C 2774.55 1.46676 1.1951 0
M  V30 28905 O 2773.9 0.581522 1.74253 0
M  V30 28906 C 2773.96 3.59444 0.0636101 0
M  V30 28907 C 2773.62 4.41368 -1.18503 0
M  V30 28908 C 2774.62 4.75285 -2.10715 0
M  V30 28909 C 2772.3 4.81853 -1.41854 0
M  V30 28910 C 2774.3 5.48561 -3.24592 0
M  V30 28911 C 2771.99 5.5488 -2.56029 0
M  V30 28912 C 2772.98 5.88153 -3.47225 0
M  V30 28913 O 2772.67 6.59695 -4.59411 0
M  V30 28914 H 2772.4 0.671966 -0.0737432 0
M  V30 28915 H 2774.96 1.86675 -0.856822 0
M  V30 28916 H 2773.19 3.77405 0.842743 0
M  V30 28917 H 2774.88 4.02698 0.508853 0
M  V30 28918 H 2775.64 4.44551 -1.93906 0
M  V30 28919 H 2771.52 4.5538 -0.717636 0
M  V30 28920 H 2775.07 5.74449 -3.95795 0
M  V30 28921 H 2770.96 5.85029 -2.72784 0
M  V30 28922 H 2771.73 6.78158 -4.58305 0
M  V30 28923 N 2774.39 0.364449 1.53328 0
M  V30 28924 C 2775.62 -0.228997 2.06132 0
M  V30 28925 C 2776.04 -1.41767 1.23628 0
M  V30 28926 O 2775.4 -1.79497 0.25507 0
M  V30 28927 C 2775.45 -0.601678 3.55545 0
M  V30 28928 O 2774.55 -1.69905 3.75774 0
M  V30 28929 H 2773.89 -0.0336097 0.663149 0
M  V30 28930 H 2776.42 0.524724 1.97757 0
M  V30 28931 H 2776.43 -0.873003 3.98551 0
M  V30 28932 H 2775.11 0.267494 4.15039 0
M  V30 28933 H 2773.69 -1.42337 3.44666 0
M  V30 28934 N 2775.87 -1.57322 0.0935872 0
M  V30 28935 C 2777.12 -1.93914 -0.569348 0
M  V30 28936 C 2777.44 -0.976039 -1.68815 0
M  V30 28937 O 2776.71 -0.0278443 -1.9588 0
M  V30 28938 H 2775.29 -0.715897 -0.213307 0
M  V30 28939 H 2777.95 -1.9427 0.156565 0
M  V30 28940 H 2777.05 -2.96297 -0.980525 0
M  V30 28941 N 2777.35 0.180099 -1.56568 0
M  V30 28942 C 2778.63 0.924901 -1.72351 0
M  V30 28943 C 2779.01 2.00761 -0.652558 0
M  V30 28944 O 2778.35 2.26045 0.334075 0
M  V30 28945 C 2778.56 1.49765 -3.15232 0
M  V30 28946 C 2779.91 1.97398 -3.75924 0
M  V30 28947 O 2780.94 1.59577 -3.18455 0
M  V30 28948 O 2779.8 2.6704 -4.76814 0
M  V30 28949 H 2776.89 0.434746 -0.703509 0
M  V30 28950 H 2779.44 0.168617 -1.6886 0
M  V30 28951 H 2778.21 0.71796 -3.84657 0
M  V30 28952 H 2777.83 2.31836 -3.23013 0
M  V30 28953 N 2778.83 1.51088 0.448349 0
M  V30 28954 C 2779.76 1.67786 1.56143 0
M  V30 28955 C 2780.77 0.558737 1.52912 0
M  V30 28956 O 2781.96 0.832698 1.57887 0
M  V30 28957 C 2779.06 1.66721 2.95055 0
M  V30 28958 C 2778.23 2.95039 3.2291 0
M  V30 28959 C 2777.29 2.8631 4.41489 0
M  V30 28960 O 2776.32 3.60261 4.40682 0
M  V30 28961 N 2777.52 2.0141 5.4444 0
M  V30 28962 H 2780.29 2.63802 1.42227 0
M  V30 28963 H 2777.85 1.48836 0.637127 0
M  V30 28964 H 2779.84 1.58464 3.72386 0
M  V30 28965 H 2778.41 0.783456 3.02623 0
M  V30 28966 H 2777.63 3.17249 2.3398 0
M  V30 28967 H 2778.92 3.80002 3.38343 0
M  V30 28968 H 2778.32 1.40683 5.47928 0
M  V30 28969 H 2776.87 1.9904 6.20666 0
M  V30 28970 N 2780.31 -0.703068 1.41049 0
M  V30 28971 C 2781.55 -1.46018 1.39726 0
M  V30 28972 C 2781.88 -1.94999 0.00464685 0
M  V30 28973 O 2781.15 -1.71198 -0.952262 0
M  V30 28974 H 2779.73 -0.54177 0.51429 0
M  V30 28975 H 2782.39 -0.832647 1.76219 0
M  V30 28976 H 2781.48 -2.32697 2.07986 0
M  V30 28977 N 2781.78 -1.26752 -0.936569 0
M  V30 28978 C 2782.72 -1.04504 -2.03989 0
M  V30 28979 C 2783.73 -0.00397122 -1.628 0
M  V30 28980 O 2784.92 -0.244558 -1.76817 0
M  V30 28981 C 2782.02 -0.561462 -3.34217 0
M  V30 28982 C 2781.19 -1.67281 -4.04148 0
M  V30 28983 C 2780.25 -1.18649 -5.12649 0
M  V30 28984 O 2779.28 -1.88446 -5.371 0
M  V30 28985 N 2780.48 -0.03738 -5.80488 0
M  V30 28986 H 2783.24 -1.99512 -2.2364 0
M  V30 28987 H 2780.8 -1.182 -1.10636 0
M  V30 28988 H 2782.8 -0.220207 -4.041 0
M  V30 28989 H 2781.37 0.295156 -3.11203 0
M  V30 28990 H 2780.59 -2.18478 -3.28117 0
M  V30 28991 H 2781.87 -2.41893 -4.47622 0
M  V30 28992 H 2781.27 0.545395 -5.63065 0
M  V30 28993 H 2779.83 0.244763 -6.5134 0
M  V30 28994 N 2783.26 1.1418 -1.08631 0
M  V30 28995 C 2784.49 1.89129 -0.838923 0
M  V30 28996 C 2784.91 1.78704 0.609121 0
M  V30 28997 O 2784.26 1.14796 1.41874 0
M  V30 28998 C 2784.31 3.39023 -1.25483 0
M  V30 28999 O 2784.03 3.49163 -2.64607 0
M  V30 29000 C 2785.54 4.30961 -1.03864 0
M  V30 29001 H 2782.76 0.599001 -0.302388 0
M  V30 29002 H 2785.3 1.44589 -1.44617 0
M  V30 29003 H 2783.45 3.81176 -0.691638 0
M  V30 29004 H 2783.87 4.42284 -2.8193 0
M  V30 29005 H 2785.34 5.34497 -1.37901 0
M  V30 29006 H 2785.82 4.39193 0.024175 0
M  V30 29007 H 2786.43 3.94566 -1.58738 0
M  V30 29008 N 2784.74 0.872304 1.31258 0
M  V30 29009 C 2785.99 0.480528 1.95892 0
M  V30 29010 C 2786.3 -0.972658 1.69702 0
M  V30 29011 O 2787.51 -1.47069 2.28217 0
M  V30 29012 C 2785.96 0.808404 3.50703 0
M  V30 29013 C 2785.57 2.2785 3.85731 0
M  V30 29014 C 2787.32 0.48521 4.21718 0
M  V30 29015 C 2785.22 2.54867 5.33663 0
M  V30 29016 H 2784.15 0.175968 0.733179 0
M  V30 29017 H 2786.8 1.06553 1.49394 0
M  V30 29018 H 2785.19 0.152628 3.95706 0
M  V30 29019 H 2786.36 2.97754 3.51681 0
M  V30 29020 H 2784.68 2.56797 3.27787 0
M  V30 29021 H 2787.27 0.664259 5.30558 0
M  V30 29022 H 2787.62 -0.57452 4.12317 0
M  V30 29023 H 2788.15 1.09763 3.82357 0
M  V30 29024 H 2784.89 3.59532 5.48103 0
M  V30 29025 H 2784.41 1.8956 5.69058 0
M  V30 29026 H 2786.09 2.39716 6.00953 0
M  V30 29027 N 2786.22 -1.44374 0.631976 0
M  V30 29028 C 2787.63 -1.568 0.297669 0
M  V30 29029 C 2787.83 -1.61936 -1.19913 0
M  V30 29030 O 2786.89 -1.56285 -1.98321 0
M  V30 29031 C 2788.2 -2.83924 0.990336 0
M  V30 29032 C 2789.75 -2.97637 0.96856 0
M  V30 29033 C 2790.23 -4.27565 1.64171 0
M  V30 29034 N 2791.72 -4.34381 1.60834 0
M  V30 29035 C 2792.45 -5.33635 2.09812 0
M  V30 29036 N 2791.95 -6.3929 2.66984 0
M  V30 29037 N 2793.74 -5.2515 2.00436 0
M  V30 29038 H 2785.89 -1.39283 1.60356 0
M  V30 29039 H 2788.16 -0.667509 0.673153 0
M  V30 29040 H 2787.86 -2.86117 2.04524 0
M  V30 29041 H 2787.74 -3.73477 0.528629 0
M  V30 29042 H 2790.12 -2.94997 -0.0778728 0
M  V30 29043 H 2790.2 -2.0943 1.46877 0
M  V30 29044 H 2789.85 -4.30965 2.6876 0
M  V30 29045 H 2789.78 -5.14632 1.11633 0
M  V30 29046 H 2792.27 -3.58644 1.19093 0
M  V30 29047 H 2792.58 -7.11311 3.02087 0
M  V30 29048 H 2790.93 -6.39973 2.71035 0
M  V30 29049 H 2794.12 -4.4152 1.55491 0
M  V30 29050 H 2794.29 -6.02348 2.38917 0
M  V30 29051 N 2787.7 -0.372575 -1.53133 0
M  V30 29052 C 2788.63 0.505405 -2.23558 0
M  V30 29053 C 2789.64 1.04046 -1.25213 0
M  V30 29054 O 2790.83 0.945649 -1.51393 0
M  V30 29055 C 2787.93 1.71131 -2.92519 0
M  V30 29056 C 2787.1 1.30654 -4.17431 0
M  V30 29057 C 2786.16 2.37527 -4.69539 0
M  V30 29058 O 2785.19 1.99627 -5.33046 0
M  V30 29059 N 2786.39 3.69212 -4.47954 0
M  V30 29060 H 2789.16 -0.0978785 -2.9954 0
M  V30 29061 H 2786.72 -0.198096 -1.60684 0
M  V30 29062 H 2788.71 2.42118 -3.24285 0
M  V30 29063 H 2787.28 2.2213 -2.19948 0
M  V30 29064 H 2786.5 0.426223 -3.91889 0
M  V30 29065 H 2787.79 1.0125 -4.98624 0
M  V30 29066 H 2787.18 4.02776 -3.97226 0
M  V30 29067 H 2785.74 4.36283 -4.84252 0
M  V30 29068 N 2789.17 1.5727 -0.101929 0
M  V30 29069 C 2790.1 2.1742 0.851506 0
M  V30 29070 C 2791.09 1.10944 1.2894 0
M  V30 29071 O 2792.27 1.3911 1.35507 0
M  V30 29072 C 2789.4 2.76 2.10811 0
M  V30 29073 C 2788.35 3.87909 1.8086 0
M  V30 29074 C 2787.68 4.33221 3.13406 0
M  V30 29075 C 2788.98 5.10795 1.09021 0
M  V30 29076 H 2790.67 2.97343 0.350329 0
M  V30 29077 H 2788.22 1.43028 0.167065 0
M  V30 29078 H 2790.17 3.16733 2.77953 0
M  V30 29079 H 2788.9 1.93342 2.63223 0
M  V30 29080 H 2787.56 3.47726 1.16113 0
M  V30 29081 H 2787.2 3.47444 3.63719 0
M  V30 29082 H 2786.9 5.08677 2.94146 0
M  V30 29083 H 2788.43 4.76593 3.81695 0
M  V30 29084 H 2789.84 5.48655 1.66286 0
M  V30 29085 H 2788.24 5.91723 0.999166 0
M  V30 29086 H 2789.31 4.84843 0.0740852 0
M  V30 29087 N 2790.65 -0.171793 1.56661 0
M  V30 29088 C 2791.9 -0.886799 1.8116 0
M  V30 29089 C 2792.21 -1.83433 0.679105 0
M  V30 29090 O 2793.42 -2.59167 0.80901 0
M  V30 29091 C 2791.88 -1.62744 3.21002 0
M  V30 29092 C 2791.48 -0.723574 4.42118 0
M  V30 29093 C 2793.23 -2.3307 3.54794 0
M  V30 29094 C 2791.14 -1.46442 5.72982 0
M  V30 29095 H 2790.07 -0.334887 0.675549 0
M  V30 29096 H 2792.72 -0.139733 1.82967 0
M  V30 29097 H 2791.1 -2.41924 3.1351 0
M  V30 29098 H 2792.27 0.0312295 4.60789 0
M  V30 29099 H 2790.59 -0.12999 4.16197 0
M  V30 29100 H 2793.18 -2.89091 4.49811 0
M  V30 29101 H 2793.53 -3.08384 2.79651 0
M  V30 29102 H 2794.06 -1.60834 3.63837 0
M  V30 29103 H 2790.8 -0.753615 6.51154 0
M  V30 29104 H 2790.32 -2.19256 5.58289 0
M  V30 29105 H 2792 -2.01203 6.1492 0
M  V30 29106 N 2792.13 -1.51324 -0.44033 0
M  V30 29107 C 2793.36 -1.6793 -1.21713 0
M  V30 29108 C 2793.78 -0.374858 -1.84327 0
M  V30 29109 O 2793.14 0.664676 -1.68676 0
M  V30 29110 C 2793.19 -2.79446 -2.27909 0
M  V30 29111 O 2792.29 -2.4284 -3.3332 0
M  V30 29112 H 2791.63 -0.560035 -0.35673 0
M  V30 29113 H 2794.16 -1.97872 -0.520382 0
M  V30 29114 H 2794.17 -3.03441 -2.72741 0
M  V30 29115 H 2792.85 -3.74103 -1.81713 0
M  V30 29116 H 2791.42 -2.29405 -2.93986 0
M  V30 29117 N 2793.61 0.695578 -1.41419 0
M  V30 29118 C 2794.57 1.79126 -1.42991 0
M  V30 29119 C 2795.57 1.57573 -0.320542 0
M  V30 29120 O 2796.76 1.64246 -0.580419 0
M  V30 29121 C 2793.89 3.17498 -1.24128 0
M  V30 29122 H 2795.09 1.79125 -2.40529 0
M  V30 29123 H 2792.64 0.903203 -1.27562 0
M  V30 29124 H 2793.37 3.23138 -0.274309 0
M  V30 29125 H 2793.16 3.34544 -2.04506 0
M  V30 29126 H 2794.65 3.97479 -1.28063 0
M  V30 29127 N 2795.09 1.27247 0.929833 0
M  V30 29128 C 2796.04 1.06445 2.01627 0
M  V30 29129 C 2797.02 -0.00685014 1.60899 0
M  V30 29130 O 2798.21 0.211438 1.75733 0
M  V30 29131 C 2795.34 0.71142 3.35848 0
M  V30 29132 C 2794.43 1.82076 3.83026 0
M  V30 29133 N 2794.82 3.06 4.02738 0
M  V30 29134 C 2793.12 1.70695 4.12043 0
M  V30 29135 C 2793.82 3.78175 4.41994 0
M  V30 29136 N 2792.79 3.05926 4.49344 0
M  V30 29137 H 2796.6 2.00493 2.14895 0
M  V30 29138 H 2794.11 1.17931 1.11652 0
M  V30 29139 H 2796.11 0.543514 4.13342 0
M  V30 29140 H 2794.77 -0.22146 3.23944 0
M  V30 29141 H 2795.78 3.41784 3.89106 0
M  V30 29142 H 2792.46 0.844752 4.08865 0
M  V30 29143 H 2793.85 4.84672 4.65342 0
M  V30 29144 N 2796.57 -1.13603 1.09235 0
M  V30 29145 C 2797.81 -1.85108 0.828417 0
M  V30 29146 C 2798.14 -1.83199 -0.644337 0
M  V30 29147 O 2797.42 -1.26869 -1.47426 0
M  V30 29148 C 2797.7 -3.3336 1.36172 0
M  V30 29149 C 2797.56 -3.43794 2.90044 0
M  V30 29150 C 2798.87 -4.2873 0.993895 0
M  V30 29151 H 2795.99 -0.672103 0.302402 0
M  V30 29152 H 2798.64 -1.33352 1.35341 0
M  V30 29153 H 2796.79 -3.77567 0.915166 0
M  V30 29154 H 2798.46 -3.08313 3.43134 0
M  V30 29155 H 2796.7 -2.84733 3.27276 0
M  V30 29156 H 2797.37 -4.48039 3.22436 0
M  V30 29157 H 2799.85 -3.92585 1.379 0
M  V30 29158 H 2798.72 -5.309 1.39413 0
M  V30 29159 H 2798.98 -4.41991 -0.0981429 0
M  V30 29160 N 2798.04 -0.879253 -1.30793 0
M  V30 29161 C 2798.97 -0.357836 -2.30742 0
M  V30 29162 C 2799.95 0.556255 -1.60748 0
M  V30 29163 O 2801.14 0.471317 -1.88394 0
M  V30 29164 C 2798.27 0.433494 -3.44584 0
M  V30 29165 C 2797.22 -0.388326 -4.26235 0
M  V30 29166 C 2796.55 0.529259 -5.32074 0
M  V30 29167 C 2797.85 -1.62738 -4.963 0
M  V30 29168 H 2799.54 -1.19304 -2.74603 0
M  V30 29169 H 2797.09 -0.575127 -1.32016 0
M  V30 29170 H 2799.04 0.808861 -4.13564 0
M  V30 29171 H 2797.77 1.30229 -2.99513 0
M  V30 29172 H 2796.43 -0.745758 -3.58935 0
M  V30 29173 H 2796.07 1.3956 -4.83251 0
M  V30 29174 H 2795.77 -0.0167774 -5.87598 0
M  V30 29175 H 2797.3 0.901267 -6.03912 0
M  V30 29176 H 2798.71 -1.32293 -5.57827 0
M  V30 29177 H 2797.11 -2.11318 -5.61662 0
M  V30 29178 H 2798.18 -2.37502 -4.22754 0
M  V30 29179 N 2799.52 1.44037 -0.639624 0
M  V30 29180 C 2800.94 1.56639 -0.305981 0
M  V30 29181 C 2801.14 1.62569 1.19052 0
M  V30 29182 O 2800.19 1.57334 1.9749 0
M  V30 29183 C 2801.51 2.83395 -1.00538 0
M  V30 29184 C 2803.05 2.97119 -0.984331 0
M  V30 29185 C 2803.53 4.26689 -1.66436 0
M  V30 29186 N 2805.02 4.33522 -1.63135 0
M  V30 29187 C 2805.76 5.32515 -2.12639 0
M  V30 29188 N 2805.25 6.37865 -2.70371 0
M  V30 29189 N 2807.04 5.24079 -2.03218 0
M  V30 29190 H 2799.2 1.38431 -1.61092 0
M  V30 29191 H 2801.46 0.66393 -0.676684 0
M  V30 29192 H 2801.16 2.85028 -2.06039 0
M  V30 29193 H 2801.04 3.73192 -0.548428 0
M  V30 29194 H 2803.43 2.95034 0.0622273 0
M  V30 29195 H 2803.51 2.08648 -1.47985 0
M  V30 29196 H 2803.15 4.29534 -2.71041 0
M  V30 29197 H 2803.08 5.14032 -1.1436 0
M  V30 29198 H 2805.57 3.58007 -1.20993 0
M  V30 29199 H 2805.88 7.09699 -3.05855 0
M  V30 29200 H 2804.23 6.38526 -2.74425 0
M  V30 29201 H 2807.42 4.40689 -1.5783 0
M  V30 29202 H 2807.59 6.01072 -2.42108 0
M  V30 29203 N 2801 0.380691 1.52933 0
M  V30 29204 C 2802.42 0.030271 1.59571 0
M  V30 29205 C 2802.62 -1.45391 1.39512 0
M  V30 29206 O 2801.67 -2.21739 1.20781 0
M  V30 29207 C 2802.98 0.499743 2.96518 0
M  V30 29208 C 2804.53 0.455259 3.09671 0
M  V30 29209 C 2805.01 0.900782 4.49054 0
M  V30 29210 N 2806.5 0.856447 4.55213 0
M  V30 29211 C 2807.23 1.17269 5.6128 0
M  V30 29212 N 2806.73 1.55897 6.75032 0
M  V30 29213 N 2808.52 1.0945 5.51341 0
M  V30 29214 H 2800.67 1.34703 1.64222 0
M  V30 29215 H 2802.94 0.551568 0.771023 0
M  V30 29216 H 2802.64 1.536 3.16386 0
M  V30 29217 H 2802.52 -0.105723 3.77052 0
M  V30 29218 H 2804.9 -0.571898 2.89505 0
M  V30 29219 H 2804.98 1.09642 2.31111 0
M  V30 29220 H 2804.63 1.92613 4.6996 0
M  V30 29221 H 2804.56 0.236721 5.26068 0
M  V30 29222 H 2807.05 0.572079 3.73545 0
M  V30 29223 H 2807.36 1.78413 7.51923 0
M  V30 29224 H 2805.71 1.59776 6.76385 0
M  V30 29225 H 2808.9 0.791794 4.61355 0
M  V30 29226 H 2809.07 1.34428 6.33903 0
M  V30 29227 N 2802.48 -1.57214 0.110268 0
M  V30 29228 C 2803.72 -1.95181 -0.55065 0
M  V30 29229 C 2804.06 -0.993151 -1.66884 0
M  V30 29230 O 2803.33 -0.0288249 -1.94479 0
M  V30 29231 C 2803.61 -3.43157 -1.09157 0
M  V30 29232 C 2803.47 -4.49794 0.0225989 0
M  V30 29233 C 2804.79 -3.92782 -1.98521 0
M  V30 29234 H 2801.91 -0.709711 -0.198694 0
M  V30 29235 H 2804.55 -1.89106 0.184057 0
M  V30 29236 H 2802.7 -3.48465 -1.71769 0
M  V30 29237 H 2804.37 -4.5659 0.657524 0
M  V30 29238 H 2802.61 -4.28326 0.686943 0
M  V30 29239 H 2803.28 -5.50571 -0.396963 0
M  V30 29240 H 2805.76 -3.89723 -1.45793 0
M  V30 29241 H 2804.64 -4.96857 -2.33289 0
M  V30 29242 H 2804.9 -3.32963 -2.90841 0
M  V30 29243 N 2803.96 0.163482 -1.5675 0
M  V30 29244 C 2804.92 1.1861 -1.96123 0
M  V30 29245 C 2805.92 1.36759 -0.845789 0
M  V30 29246 O 2807.11 1.34031 -1.11271 0
M  V30 29247 C 2804.24 2.54965 -2.26287 0
M  V30 29248 H 2805.43 0.848714 -2.8764 0
M  V30 29249 H 2802.99 0.406225 -1.50929 0
M  V30 29250 H 2803.72 2.93704 -1.37509 0
M  V30 29251 H 2803.51 2.43156 -3.07599 0
M  V30 29252 H 2805 3.28648 -2.57643 0
M  V30 29253 N 2805.43 1.51555 0.432299 0
M  V30 29254 C 2806.37 1.67923 1.54522 0
M  V30 29255 C 2807.34 0.526791 1.5383 0
M  V30 29256 O 2808.53 0.751263 1.72882 0
M  V30 29257 C 2805.66 1.69741 2.93097 0
M  V30 29258 C 2804.7 2.9101 3.11794 0
M  V30 29259 S 2805.53 4.51742 2.87557 0
M  V30 29260 C 2806.69 4.56312 4.28404 0
M  V30 29261 H 2806.92 2.62056 1.40406 0
M  V30 29262 H 2804.46 1.41302 0.622332 0
M  V30 29263 H 2806.41 1.71474 3.72971 0
M  V30 29264 H 2805.08 0.767759 3.04572 0
M  V30 29265 H 2804.27 2.88698 4.13122 0
M  V30 29266 H 2803.87 2.87045 2.39752 0
M  V30 29267 H 2806.16 4.32263 5.21684 0
M  V30 29268 H 2807.11 5.58148 4.35748 0
M  V30 29269 H 2807.51 3.85583 4.12294 0
M  V30 29270 N 2806.91 -0.688069 1.41786 0
M  V30 29271 C 2808.15 -1.46029 1.4302 0
M  V30 29272 C 2808.52 -1.91958 0.040297 0
M  V30 29273 O 2809.72 -2.68702 -0.0725953 0
M  V30 29274 C 2807.99 -2.63449 2.41515 0
M  V30 29275 S 2809.55 -3.52486 2.61341 0
M  V30 29276 H 2806.36 -0.498922 0.506555 0
M  V30 29277 H 2808.97 -0.802179 1.78284 0
M  V30 29278 H 2807.67 -2.27923 3.4129 0
M  V30 29279 H 2807.2 -3.34146 2.0763 0
M  V30 29280 H 2809.22 -4.58942 1.88645 0
M  V30 29281 N 2808.39 -1.27739 -0.923072 0
M  V30 29282 C 2809.64 -1.14517 -1.67373 0
M  V30 29283 C 2809.97 0.307391 -1.91752 0
M  V30 29284 O 2809.24 1.22444 -1.51121 0
M  V30 29285 C 2809.53 -1.93425 -3.03741 0
M  V30 29286 C 2809.38 -3.46691 -2.86575 0
M  V30 29287 C 2810.7 -1.74235 -4.04141 0
M  V30 29288 H 2807.82 -0.417385 -0.60742 0
M  V30 29289 H 2810.46 -1.56948 -1.07086 0
M  V30 29290 H 2808.61 -1.57366 -3.55201 0
M  V30 29291 H 2810.28 -3.92605 -2.42196 0
M  V30 29292 H 2808.52 -3.72797 -2.21822 0
M  V30 29293 H 2809.2 -3.9715 -3.83374 0
M  V30 29294 H 2811.67 -2.05684 -3.61709 0
M  V30 29295 H 2810.55 -2.31833 -4.97539 0
M  V30 29296 H 2810.81 -0.691449 -4.36659 0
M  V30 29297 N 2809.87 1.13022 -1.09836 0
M  V30 29298 C 2810.8 2.20665 -0.76349 0
M  V30 29299 C 2811.78 1.6809 0.260748 0
M  V30 29300 O 2812.96 1.93778 0.127881 0
M  V30 29301 C 2810.09 3.46792 -0.187805 0
M  V30 29302 C 2809.05 4.12482 -1.14203 0
M  V30 29303 C 2808.37 5.32986 -0.427849 0
M  V30 29304 C 2809.67 4.59334 -2.48615 0
M  V30 29305 H 2811.37 2.48933 -1.66351 0
M  V30 29306 H 2808.91 1.19647 -0.801282 0
M  V30 29307 H 2810.87 4.21359 0.0585635 0
M  V30 29308 H 2809.59 3.17932 0.747429 0
M  V30 29309 H 2808.25 3.39888 -1.37375 0
M  V30 29310 H 2807.9 5.00391 0.511659 0
M  V30 29311 H 2807.6 5.77884 -1.06413 0
M  V30 29312 H 2809.12 6.10305 -0.189879 0
M  V30 29313 H 2810.54 5.25304 -2.29628 0
M  V30 29314 H 2808.93 5.14988 -3.08071 0
M  V30 29315 H 2810 3.73637 -3.09069 0
M  V30 29316 N 2811.35 0.886177 1.30325 0
M  V30 29317 C 2812.57 0.51946 2.00789 0
M  V30 29318 C 2813 -0.884984 1.65981 0
M  V30 29319 O 2812.35 -1.58673 0.877071 0
M  V30 29320 C 2812.4 0.70282 3.53685 0
M  V30 29321 O 2811.51 -0.250756 4.11637 0
M  V30 29322 H 2810.85 0.204555 0.631707 0
M  V30 29323 H 2813.38 1.19405 1.66143 0
M  V30 29324 H 2813.39 0.602278 4.0353 0
M  V30 29325 H 2812.06 1.7268 3.78357 0
M  V30 29326 H 2810.64 -0.103807 3.72755 0
M  V30 29327 N 2812.82 -1.43695 0.647253 0
M  V30 29328 C 2814.05 -2.0675 0.16412 0
M  V30 29329 C 2814.47 -1.4816 -1.15889 0
M  V30 29330 O 2813.83 -0.589224 -1.71458 0
M  V30 29331 C 2813.88 -3.60511 0.0801001 0
M  V30 29332 O 2812.98 -4.01086 -0.959383 0
M  V30 29333 H 2812.33 -0.657576 0.0921404 0
M  V30 29334 H 2814.86 -1.84301 0.888493 0
M  V30 29335 H 2814.87 -4.07864 -0.105192 0
M  V30 29336 H 2813.54 -4.02533 1.04593 0
M  V30 29337 H 2812.12 -3.65334 -0.747361 0
M  V30 29338 N 2814.3 -0.388796 -1.52729 0
M  V30 29339 C 2815.71 0.085346 -1.86505 0
M  V30 29340 C 2816.06 1.46194 -1.3085 0
M  V30 29341 O 2815.19 2.0673 -0.639645 0
M  V30 29342 C 2815.78 0.161644 -3.38414 0
M  V30 29343 C 2814.34 0.580078 -3.71903 0
M  V30 29344 C 2813.49 -0.258266 -2.76095 0
M  V30 29345 H 2816.44 -0.606691 -1.46646 0
M  V30 29346 H 2816.46 0.980871 -3.6764 0
M  V30 29347 H 2815.97 -0.8404 -3.78892 0
M  V30 29348 H 2814.08 1.58951 -3.36995 0
M  V30 29349 H 2814.19 0.338579 -4.77902 0
M  V30 29350 H 2812.55 0.276387 -2.53196 0
M  V30 29351 H 2813.34 -1.25828 -3.19409 0
M  V30 29352 N 2815.78 1.57153 -0.118604 0
M  V30 29353 C 2816.73 2.11848 0.842887 0
M  V30 29354 C 2817.71 1.03916 1.22843 0
M  V30 29355 O 2818.91 1.3015 1.19958 0
M  V30 29356 C 2816.04 2.72113 2.09307 0
M  V30 29357 C 2815.12 3.87125 1.73192 0
M  V30 29358 N 2815.51 4.9419 1.07749 0
M  V30 29359 C 2813.81 3.97301 2.02652 0
M  V30 29360 C 2814.51 5.74575 0.90764 0
M  V30 29361 N 2813.49 5.24385 1.43251 0
M  V30 29362 H 2817.29 2.92003 0.333364 0
M  V30 29363 H 2814.8 1.62183 0.0838788 0
M  V30 29364 H 2816.8 3.0964 2.79157 0
M  V30 29365 H 2815.46 1.9342 2.60804 0
M  V30 29366 H 2816.47 5.12564 0.741523 0
M  V30 29367 H 2813.15 3.2965 2.56198 0
M  V30 29368 H 2814.54 6.70744 0.393994 0
M  V30 29369 N 2817.26 -0.155167 1.56834 0
M  V30 29370 C 2818.51 -0.86743 1.82538 0
M  V30 29371 C 2818.83 -1.82072 0.6982 0
M  V30 29372 O 2818.1 -1.93877 -0.280773 0
M  V30 29373 H 2816.68 -0.323315 0.673407 0
M  V30 29374 H 2819.34 -0.151122 1.94313 0
M  V30 29375 H 2818.44 -1.43461 2.77174 0
M  V30 29376 N 2818.74 -1.51782 -0.424256 0
M  V30 29377 C 2820.15 -1.40248 -0.761743 0
M  V30 29378 C 2820.35 -0.495075 -1.95323 0
M  V30 29379 O 2819.41 0.0448505 -2.5246 0
M  V30 29380 C 2820.72 -2.82515 -1.02985 0
M  V30 29381 C 2822.27 -2.91755 -1.13349 0
M  V30 29382 C 2822.74 -4.34957 -1.43445 0
M  V30 29383 N 2824.24 -4.38123 -1.50342 0
M  V30 29384 C 2824.97 -5.4597 -1.75226 0
M  V30 29385 N 2824.47 -6.63958 -1.97815 0
M  V30 29386 N 2826.26 -5.33466 -1.77117 0
M  V30 29387 H 2818.41 -2.09322 0.360265 0
M  V30 29388 H 2820.67 -0.942834 0.0988294 0
M  V30 29389 H 2820.38 -3.50967 -0.226899 0
M  V30 29390 H 2820.25 -3.2264 -1.95405 0
M  V30 29391 H 2822.64 -2.23492 -1.92705 0
M  V30 29392 H 2822.72 -2.55108 -0.187996 0
M  V30 29393 H 2822.37 -5.03773 -0.646121 0
M  V30 29394 H 2822.3 -4.69127 -2.39222 0
M  V30 29395 H 2824.79 -3.53065 -1.34736 0
M  V30 29396 H 2825.1 -7.41939 -2.1621 0
M  V30 29397 H 2823.44 -6.67051 -1.95111 0
M  V30 29398 H 2826.64 -4.4027 -1.58997 0
M  V30 29399 H 2826.81 -6.17593 -1.96172 0
M  V30 29400 N 2820.21 0.68054 -1.42149 0
M  V30 29401 C 2821.63 0.992973 -1.24949 0
M  V30 29402 C 2821.83 2.00944 -0.149562 0
M  V30 29403 O 2820.89 2.47874 0.481101 0
M  V30 29404 C 2822.2 1.50325 -2.60428 0
M  V30 29405 C 2823.75 1.62132 -2.67735 0
M  V30 29406 C 2824.22 2.16558 -4.03568 0
M  V30 29407 N 2825.71 2.23898 -4.05492 0
M  V30 29408 C 2826.45 2.67072 -5.07405 0
M  V30 29409 N 2825.94 3.0974 -6.19704 0
M  V30 29410 N 2827.74 2.6677 -4.94763 0
M  V30 29411 H 2819.89 0.00744146 -2.12399 0
M  V30 29412 H 2822.15 0.0658363 -0.945711 0
M  V30 29413 H 2821.86 0.830887 -3.41744 0
M  V30 29414 H 2821.73 2.48295 -2.83953 0
M  V30 29415 H 2824.12 2.28476 -1.86769 0
M  V30 29416 H 2824.2 0.62667 -2.48005 0
M  V30 29417 H 2823.84 1.50824 -4.84989 0
M  V30 29418 H 2823.77 3.16803 -4.20646 0
M  V30 29419 H 2826.26 1.93807 -3.24419 0
M  V30 29420 H 2826.58 3.41353 -6.93324 0
M  V30 29421 H 2824.92 3.07612 -6.23218 0
M  V30 29422 H 2828.11 2.32794 -4.06109 0
M  V30 29423 H 2828.29 3.00097 -5.74322 0
M  V30 29424 N 2821.69 1.28226 0.916285 0
M  V30 29425 C 2822.62 1.07736 2.02301 0
M  V30 29426 C 2823.64 0.0298707 1.62773 0
M  V30 29427 O 2824.83 0.272657 1.76405 0
M  V30 29428 C 2821.93 0.614562 3.33281 0
M  V30 29429 C 2821.1 1.73689 4.01436 0
M  V30 29430 C 2820.16 1.2679 5.10696 0
M  V30 29431 O 2819.18 1.96967 5.34034 0
M  V30 29432 N 2820.39 0.129726 5.80355 0
M  V30 29433 H 2823.15 2.03045 2.20438 0
M  V30 29434 H 2820.71 1.19945 1.08742 0
M  V30 29435 H 2822.7 0.284468 4.03699 0
M  V30 29436 H 2821.27 -0.245609 3.11634 0
M  V30 29437 H 2820.49 2.2367 3.246 0
M  V30 29438 H 2821.78 2.48983 4.43717 0
M  V30 29439 H 2821.18 -0.455748 5.63861 0
M  V30 29440 H 2819.74 -0.141109 6.51647 0
M  V30 29441 N 2823.17 -1.12438 1.10433 0
M  V30 29442 C 2824.12 -2.16253 0.722416 0
M  V30 29443 C 2825.1 -1.58646 -0.268399 0
M  V30 29444 O 2826.3 -1.76832 -0.0771379 0
M  V30 29445 C 2823.43 -3.42946 0.155823 0
M  V30 29446 C 2822.51 -4.07536 1.17368 0
M  V30 29447 N 2822.9 -4.47137 2.36437 0
M  V30 29448 C 2821.2 -4.34316 1.0142 0
M  V30 29449 C 2821.9 -4.97607 3.01268 0
M  V30 29450 N 2820.88 -4.93111 2.28786 0
M  V30 29451 H 2824.68 -2.44637 1.6288 0
M  V30 29452 H 2822.19 -1.29342 0.982054 0
M  V30 29453 H 2824.19 -4.16679 -0.135863 0
M  V30 29454 H 2822.85 -3.16031 -0.745283 0
M  V30 29455 H 2823.86 -4.39506 2.73962 0
M  V30 29456 H 2820.54 -4.17159 0.168647 0
M  V30 29457 H 2821.93 -5.37961 4.02551 0
M  V30 29458 N 2824.65 -0.893076 -1.29853 0
M  V30 29459 C 2825.58 -0.382289 -2.30349 0
M  V30 29460 C 2826.56 0.539174 -1.61329 0
M  V30 29461 O 2827.75 0.451309 -1.88883 0
M  V30 29462 C 2824.88 0.396922 -3.45024 0
M  V30 29463 C 2823.83 -0.433512 -4.25799 0
M  V30 29464 C 2823.16 0.472796 -5.32606 0
M  V30 29465 C 2824.46 -1.67993 -4.94546 0
M  V30 29466 H 2826.15 -1.2221 -2.73322 0
M  V30 29467 H 2823.7 -0.589096 -1.31399 0
M  V30 29468 H 2825.65 0.764951 -4.14399 0
M  V30 29469 H 2824.37 1.27045 -3.00877 0
M  V30 29470 H 2823.03 -0.783786 -3.58123 0
M  V30 29471 H 2822.68 1.34427 -4.84704 0
M  V30 29472 H 2822.38 -0.0790991 -5.87547 0
M  V30 29473 H 2823.9 0.837163 -6.04834 0
M  V30 29474 H 2825.32 -1.38202 -5.56393 0
M  V30 29475 H 2823.71 -2.17264 -5.59389 0
M  V30 29476 H 2824.78 -2.41972 -4.20211 0
M  V30 29477 N 2826.13 1.4335 -0.654865 0
M  V30 29478 C 2827.09 2.29185 0.0263159 0
M  V30 29479 C 2828.09 1.42295 0.748926 0
M  V30 29480 O 2829.28 1.63907 0.589929 0
M  V30 29481 C 2826.41 3.24391 1.048 0
M  V30 29482 H 2827.61 2.90906 -0.728934 0
M  V30 29483 H 2825.16 1.50657 -0.416175 0
M  V30 29484 H 2825.89 2.67568 1.83243 0
M  V30 29485 H 2825.68 3.88454 0.533486 0
M  V30 29486 H 2827.17 3.88812 1.52365 0
M  V30 29487 N 2827.61 0.39689 1.52521 0
M  V30 29488 C 2828.85 -0.183133 2.01971 0
M  V30 29489 C 2829.18 -1.45825 1.28253 0
M  V30 29490 O 2828.46 -1.90647 0.385212 0
M  V30 29491 C 2828.74 -0.443328 3.57361 0
M  V30 29492 C 2828.6 0.847608 4.41742 0
M  V30 29493 C 2829.91 -1.23072 4.22541 0
M  V30 29494 H 2827.03 -0.0650847 0.734121 0
M  V30 29495 H 2829.68 0.52795 1.82518 0
M  V30 29496 H 2827.83 -1.04907 3.74068 0
M  V30 29497 H 2829.5 1.48422 4.36771 0
M  V30 29498 H 2827.74 1.46128 4.08447 0
M  V30 29499 H 2828.41 0.620099 5.48506 0
M  V30 29500 H 2830.89 -0.718012 4.09858 0
M  V30 29501 H 2829.76 -1.38152 5.3123 0
M  V30 29502 H 2830.02 -2.24802 3.80679 0
M  V30 29503 N 2829.08 -1.57088 0.126936 0
M  V30 29504 C 2830.31 -2.00249 -0.539935 0
M  V30 29505 C 2830.73 -1.00621 -1.58925 0
M  V30 29506 O 2830.09 0.0209812 -1.81288 0
M  V30 29507 C 2830.14 -3.42252 -1.13559 0
M  V30 29508 O 2829.24 -3.45551 -2.25097 0
M  V30 29509 H 2828.58 -0.650316 -0.134108 0
M  V30 29510 H 2831.11 -2.03438 0.217753 0
M  V30 29511 H 2831.12 -3.8063 -1.46919 0
M  V30 29512 H 2829.8 -4.14277 -0.367049 0
M  V30 29513 H 2828.38 -3.18999 -1.93117 0
M  V30 29514 N 2830.56 0.146848 -1.56914 0
M  V30 29515 C 2831.51 1.1865 -1.94695 0
M  V30 29516 C 2832.5 1.38541 -0.818234 0
M  V30 29517 O 2833.69 1.40101 -1.08169 0
M  V30 29518 C 2830.82 2.5201 -2.33122 0
M  V30 29519 C 2829.9 2.35711 -3.52564 0
M  V30 29520 N 2830.29 1.89167 -4.69094 0
M  V30 29521 C 2828.59 2.66461 -3.57651 0
M  V30 29522 C 2829.29 1.85914 -5.5119 0
M  V30 29523 N 2828.27 2.29233 -4.92903 0
M  V30 29524 H 2832.07 0.81874 -2.82266 0
M  V30 29525 H 2829.58 0.354901 -1.58475 0
M  V30 29526 H 2831.58 3.27168 -2.58393 0
M  V30 29527 H 2830.24 2.89568 -1.46903 0
M  V30 29528 H 2831.25 1.5913 -4.92847 0
M  V30 29529 H 2827.93 3.07893 -2.81972 0
M  V30 29530 H 2829.32 1.5142 -6.54616 0
M  V30 29531 N 2832.04 1.52005 0.4162 0
M  V30 29532 C 2832.95 1.77719 1.53144 0
M  V30 29533 C 2833.97 0.662396 1.60898 0
M  V30 29534 O 2835.14 0.947023 1.77745 0
M  V30 29535 C 2832.21 1.91604 2.88945 0
M  V30 29536 C 2831.27 3.15499 2.91134 0
M  V30 29537 C 2830.5 3.28711 4.20458 0
M  V30 29538 O 2830.72 2.47354 5.13977 0
M  V30 29539 O 2829.66 4.21821 4.29361 0
M  V30 29540 H 2833.48 2.72366 1.34352 0
M  V30 29541 H 2831.07 1.36763 0.601349 0
M  V30 29542 H 2832.95 2.02599 3.69502 0
M  V30 29543 H 2831.63 1.00146 3.07819 0
M  V30 29544 H 2830.53 3.09966 2.09456 0
M  V30 29545 H 2831.87 4.06714 2.77208 0
M  V30 29546 N 2833.52 -0.672992 1.42508 0
M  V30 29547 C 2834.46 -1.78649 1.46127 0
M  V30 29548 C 2835.43 -1.63124 0.313036 0
M  V30 29549 O 2836.62 -1.83652 0.51737 0
M  V30 29550 C 2833.76 -3.16691 1.37116 0
M  V30 29551 C 2832.87 -3.4349 2.61989 0
M  V30 29552 C 2832.01 -4.71271 2.45107 0
M  V30 29553 C 2831.05 -4.9111 3.65345 0
M  V30 29554 N 2830.18 -6.10133 3.47394 0
M  V30 29555 H 2835.02 -1.7489 2.41283 0
M  V30 29556 H 2832.56 -0.853745 1.1979 0
M  V30 29557 H 2834.52 -3.96465 1.29888 0
M  V30 29558 H 2833.15 -3.19569 0.455546 0
M  V30 29559 H 2832.2 -2.57956 2.79576 0
M  V30 29560 H 2833.51 -3.54043 3.51361 0
M  V30 29561 H 2832.67 -5.59139 2.35475 0
M  V30 29562 H 2831.41 -4.63004 1.53227 0
M  V30 29563 H 2830.41 -4.01684 3.75407 0
M  V30 29564 H 2831.64 -5.01221 4.58208 0
M  V30 29565 H 2829.58 -6.03036 2.58233 0
M  V30 29566 H 2829.5 -6.21555 4.30355 0
M  V30 29567 H 2830.77 -7.00675 3.41578 0
M  V30 29568 N 2835 -1.2871 -0.909472 0
M  V30 29569 C 2836.24 -1.15885 -1.65575 0
M  V30 29570 C 2836.56 0.292075 -1.928 0
M  V30 29571 O 2835.83 1.20163 -1.54718 0
M  V30 29572 H 2834.41 -0.42588 -0.613706 0
M  V30 29573 H 2837.08 -1.615 -1.09105 0
M  V30 29574 H 2836.17 -1.70163 -2.61631 0
M  V30 29575 N 2836.47 1.1185 -1.11028 0
M  V30 29576 C 2837.42 2.17764 -0.764701 0
M  V30 29577 C 2838.39 1.64023 0.261825 0
M  V30 29578 O 2839.58 1.90288 0.139715 0
M  V30 29579 C 2836.72 3.44464 -0.209377 0
M  V30 29580 C 2835.83 4.12229 -1.29194 0
M  V30 29581 C 2834.96 5.26599 -0.697616 0
M  V30 29582 C 2834 5.86241 -1.76033 0
M  V30 29583 N 2833.14 6.92014 -1.18581 0
M  V30 29584 H 2837.98 2.4667 -1.67206 0
M  V30 29585 H 2835.52 1.21098 -0.835086 0
M  V30 29586 H 2837.47 4.16996 0.130526 0
M  V30 29587 H 2836.1 3.15956 0.661195 0
M  V30 29588 H 2835.16 3.37814 -1.74887 0
M  V30 29589 H 2836.47 4.52618 -2.09615 0
M  V30 29590 H 2835.62 6.0592 -0.307518 0
M  V30 29591 H 2834.36 4.87505 0.137958 0
M  V30 29592 H 2833.37 5.05602 -2.15979 0
M  V30 29593 H 2834.59 6.27404 -2.59886 0
M  V30 29594 H 2832.54 6.54945 -0.37181 0
M  V30 29595 H 2832.45 7.31034 -1.92678 0
M  V30 29596 H 2833.72 7.75149 -0.822466 0
M  V30 29597 N 2837.95 0.89995 1.29378 0
M  V30 29598 C 2839.2 0.521971 1.94829 0
M  V30 29599 C 2839.51 -0.936443 1.71727 0
M  V30 29600 O 2840.72 -1.42195 2.31285 0
M  V30 29601 C 2839.18 0.882611 3.4891 0
M  V30 29602 C 2838.78 2.35981 3.80811 0
M  V30 29603 C 2840.53 0.574554 4.20594 0
M  V30 29604 C 2838.43 2.6613 5.28137 0
M  V30 29605 H 2837.36 0.191481 0.729281 0
M  V30 29606 H 2840.02 1.09698 1.47101 0
M  V30 29607 H 2838.4 0.236529 3.95293 0
M  V30 29608 H 2839.57 3.05147 3.45286 0
M  V30 29609 H 2837.89 2.63692 3.22266 0
M  V30 29610 H 2840.48 0.776649 5.2903 0
M  V30 29611 H 2840.83 -0.486932 4.13442 0
M  V30 29612 H 2841.36 1.17849 3.79943 0
M  V30 29613 H 2838.1 3.71077 5.40353 0
M  V30 29614 H 2837.62 2.01588 5.64909 0
M  V30 29615 H 2839.3 2.5241 5.95734 0
M  V30 29616 N 2839.43 -1.43001 0.662458 0
M  V30 29617 C 2840.66 -2.06047 0.187651 0
M  V30 29618 C 2841.07 -1.49707 -1.15036 0
M  V30 29619 O 2840.43 -0.631986 -1.71208 0
M  V30 29620 C 2840.48 -3.6136 0.100561 0
M  V30 29621 O 2840.2 -4.15608 1.38569 0
M  V30 29622 C 2841.7 -4.41499 -0.39922 0
M  V30 29623 H 2838.92 -0.664358 0.0941792 0
M  V30 29624 H 2841.47 -1.8335 0.905714 0
M  V30 29625 H 2839.62 -3.83212 -0.568114 0
M  V30 29626 H 2840.04 -5.09364 1.25093 0
M  V30 29627 H 2841.51 -5.50482 -0.409091 0
M  V30 29628 H 2841.99 -4.15191 -1.43225 0
M  V30 29629 H 2842.59 -4.24638 0.237285 0
M  V30 29630 N 2840.91 -0.404973 -1.52308 0
M  V30 29631 C 2842.15 0.17242 -2.02066 0
M  V30 29632 C 2842.49 1.45143 -1.29024 0
M  V30 29633 O 2841.76 1.9044 -0.395317 0
M  V30 29634 C 2842.05 0.42437 -3.57591 0
M  V30 29635 C 2841.9 -0.871022 -4.41286 0
M  V30 29636 C 2843.22 1.2083 -4.23188 0
M  V30 29637 H 2840.34 0.0611906 -0.734455 0
M  V30 29638 H 2842.98 -0.537622 -1.82235 0
M  V30 29639 H 2841.13 1.02922 -3.74619 0
M  V30 29640 H 2842.8 -1.50736 -4.35977 0
M  V30 29641 H 2841.04 -1.48292 -4.07667 0
M  V30 29642 H 2841.71 -0.649179 -5.48169 0
M  V30 29643 H 2844.19 0.696266 -4.10233 0
M  V30 29644 H 2843.07 1.35333 -5.31955 0
M  V30 29645 H 2843.33 2.2278 -3.81866 0
M  V30 29646 N 2842.39 1.57018 -0.135265 0
M  V30 29647 C 2843.32 2.19178 0.805196 0
M  V30 29648 C 2844.3 1.13654 1.26558 0
M  V30 29649 O 2845.48 1.41953 1.32526 0
M  V30 29650 C 2842.61 2.8041 2.04909 0
M  V30 29651 C 2841.57 3.91658 1.72591 0
M  V30 29652 C 2840.89 4.39772 3.04146 0
M  V30 29653 C 2842.19 5.12993 0.981619 0
M  V30 29654 H 2843.89 2.9802 0.287179 0
M  V30 29655 H 2841.43 1.4335 0.136689 0
M  V30 29656 H 2843.39 3.22558 2.71172 0
M  V30 29657 H 2842.11 1.98882 2.59063 0
M  V30 29658 H 2840.77 3.50111 1.08711 0
M  V30 29659 H 2840.42 3.55081 3.56267 0
M  V30 29660 H 2840.12 5.14801 2.8329 0
M  V30 29661 H 2841.64 4.84582 3.715 0
M  V30 29662 H 2843.05 5.52058 1.5461 0
M  V30 29663 H 2841.45 5.9371 0.873428 0
M  V30 29664 H 2842.52 4.84891 -0.028774 0
M  V30 29665 N 2843.86 -0.138524 1.5699 0
M  V30 29666 C 2844.8 -1.19606 1.95517 0
M  V30 29667 C 2845.81 -1.38724 0.852026 0
M  V30 29668 O 2847 -1.38145 1.13041 0
M  V30 29669 C 2844.1 -2.55948 2.22134 0
M  V30 29670 C 2843.27 -2.57695 3.53429 0
M  V30 29671 C 2842.33 -3.75639 3.68486 0
M  V30 29672 O 2841.36 -3.60122 4.40796 0
M  V30 29673 N 2842.56 -4.93432 3.05785 0
M  V30 29674 H 2845.32 -0.868507 2.8684 0
M  V30 29675 H 2842.88 -0.328005 1.58543 0
M  V30 29676 H 2844.88 -3.33375 2.29441 0
M  V30 29677 H 2843.45 -2.80963 1.37035 0
M  V30 29678 H 2842.67 -1.66123 3.57487 0
M  V30 29679 H 2843.95 -2.55901 4.39763 0
M  V30 29680 H 2843.35 -5.08942 2.4697 0
M  V30 29681 H 2841.91 -5.68604 3.18641 0
M  V30 29682 N 2845.34 -1.52224 -0.408133 0
M  V30 29683 C 2846.27 -1.78598 -1.50416 0
M  V30 29684 C 2847.25 -0.637002 -1.57722 0
M  V30 29685 O 2848.44 -0.882695 -1.7298 0
M  V30 29686 C 2845.57 -1.93756 -2.88229 0
M  V30 29687 C 2844.52 -3.09358 -2.95773 0
M  V30 29688 C 2843.85 -3.0974 -4.3585 0
M  V30 29689 C 2845.15 -4.48797 -2.67167 0
M  V30 29690 H 2846.84 -2.70376 -1.28596 0
M  V30 29691 H 2844.39 -1.30103 -0.617198 0
M  V30 29692 H 2846.34 -2.10789 -3.64892 0
M  V30 29693 H 2845.07 -0.986497 -3.11345 0
M  V30 29694 H 2843.72 -2.92076 -2.21556 0
M  V30 29695 H 2843.37 -2.12354 -4.55977 0
M  V30 29696 H 2843.07 -3.87385 -4.41822 0
M  V30 29697 H 2844.6 -3.28904 -5.14446 0
M  V30 29698 H 2846.01 -4.66279 -3.33552 0
M  V30 29699 H 2844.41 -5.28367 -2.84514 0
M  V30 29700 H 2845.48 -4.56825 -1.62601 0
M  V30 29701 N 2846.82 0.665425 -1.42863 0
M  V30 29702 C 2848.05 1.45845 -1.47458 0
M  V30 29703 C 2848.47 1.87884 -0.0900642 0
M  V30 29704 O 2847.83 1.56601 0.913559 0
M  V30 29705 C 2847.88 2.6777 -2.41519 0
M  V30 29706 O 2846.98 3.66385 -1.89303 0
M  V30 29707 H 2846.32 0.43778 -0.499244 0
M  V30 29708 H 2848.85 0.815361 -1.87651 0
M  V30 29709 H 2848.86 3.15731 -2.58415 0
M  V30 29710 H 2847.54 2.36513 -3.42103 0
M  V30 29711 H 2846.11 3.25465 -1.82009 0
M  V30 29712 N 2848.3 1.29191 0.902633 0
M  V30 29713 C 2849.26 1.14075 1.98795 0
M  V30 29714 C 2850.26 0.0770832 1.60615 0
M  V30 29715 O 2851.45 0.323783 1.71165 0
M  V30 29716 C 2848.58 0.743797 3.32687 0
M  V30 29717 H 2849.78 2.10477 2.13634 0
M  V30 29718 H 2847.33 1.12336 1.08676 0
M  V30 29719 H 2848.06 -0.220498 3.2355 0
M  V30 29720 H 2847.85 1.51229 3.61763 0
M  V30 29721 H 2849.34 0.661007 4.12335 0
M  V30 29722 N 2849.78 -1.1126 1.1162 0
M  V30 29723 C 2850.71 -2.19423 0.798499 0
M  V30 29724 C 2851.69 -1.68483 -0.233973 0
M  V30 29725 O 2852.87 -1.93957 -0.0970363 0
M  V30 29726 C 2850 -3.46449 0.242953 0
M  V30 29727 C 2848.96 -4.10613 1.20751 0
M  V30 29728 C 2848.28 -5.32237 0.512588 0
M  V30 29729 C 2849.58 -4.55321 2.55892 0
M  V30 29730 H 2851.28 -2.46255 1.7029 0
M  V30 29731 H 2848.82 -1.18357 0.820216 0
M  V30 29732 H 2850.78 -4.21399 0.00847854 0
M  V30 29733 H 2849.5 -3.19081 -0.696754 0
M  V30 29734 H 2848.16 -3.37659 1.42765 0
M  V30 29735 H 2847.81 -5.01142 -0.431987 0
M  V30 29736 H 2847.51 -5.76118 1.15593 0
M  V30 29737 H 2849.03 -6.09925 0.28695 0
M  V30 29738 H 2850.44 -5.21584 2.37956 0
M  V30 29739 H 2848.84 -5.10021 3.16225 0
M  V30 29740 H 2849.91 -3.68672 3.14974 0
M  V30 29741 N 2851.25 -0.906798 -1.28899 0
M  V30 29742 C 2852.18 -0.4067 -2.29931 0
M  V30 29743 C 2853.17 0.522033 -1.61891 0
M  V30 29744 O 2854.35 0.43125 -1.89351 0
M  V30 29745 C 2851.48 0.360305 -3.45426 0
M  V30 29746 C 2850.43 -0.478649 -4.25315 0
M  V30 29747 C 2849.76 0.416279 -5.33077 0
M  V30 29748 C 2851.06 -1.73229 -4.92736 0
M  V30 29749 H 2852.75 -1.25102 -2.72011 0
M  V30 29750 H 2850.3 -0.603 -1.30767 0
M  V30 29751 H 2852.25 0.720956 -4.15187 0
M  V30 29752 H 2850.98 1.23847 -3.02208 0
M  V30 29753 H 2849.64 -0.821725 -3.57272 0
M  V30 29754 H 2849.28 1.29278 -4.86103 0
M  V30 29755 H 2848.98 -0.141412 -5.8743 0
M  V30 29756 H 2850.51 0.772965 -6.05688 0
M  V30 29757 H 2851.92 -1.44095 -5.54896 0
M  V30 29758 H 2850.32 -2.23185 -5.57054 0
M  V30 29759 H 2851.39 -2.46416 -4.17621 0
M  V30 29760 N 2852.73 1.42648 -0.670032 0
M  V30 29761 C 2853.68 2.30797 0.0112523 0
M  V30 29762 C 2854.65 1.45697 0.797601 0
M  V30 29763 O 2855.83 1.74537 0.770814 0
M  V30 29764 C 2852.97 3.31481 0.959921 0
M  V30 29765 C 2852.09 4.31674 0.167899 0
M  V30 29766 C 2851.22 5.19433 1.11189 0
M  V30 29767 C 2850.26 6.11308 0.311274 0
M  V30 29768 N 2849.4 6.91635 1.20772 0
M  V30 29769 H 2854.24 2.88504 -0.746282 0
M  V30 29770 H 2851.78 1.42113 -0.379764 0
M  V30 29771 H 2853.73 3.88379 1.52372 0
M  V30 29772 H 2852.36 2.75384 1.68414 0
M  V30 29773 H 2851.42 3.76932 -0.512451 0
M  V30 29774 H 2852.73 4.9673 -0.453901 0
M  V30 29775 H 2851.88 5.8104 1.74577 0
M  V30 29776 H 2850.62 4.54541 1.76758 0
M  V30 29777 H 2849.63 5.48773 -0.335854 0
M  V30 29778 H 2850.85 6.78247 -0.340254 0
M  V30 29779 H 2848.8 6.29376 1.8499 0
M  V30 29780 H 2848.71 7.53279 0.640888 0
M  V30 29781 H 2849.98 7.57733 1.82922 0
M  V30 29782 N 2854.21 0.413044 1.52091 0
M  V30 29783 C 2855.14 -0.445954 2.2482 0
M  V30 29784 C 2856.16 -1.0069 1.27927 0
M  V30 29785 O 2857.35 -0.905177 1.53847 0
M  V30 29786 C 2854.45 -1.63315 2.96954 0
M  V30 29787 C 2853.62 -1.1954 4.20748 0
M  V30 29788 C 2852.68 -2.24995 4.75672 0
M  V30 29789 O 2851.7 -1.85425 5.38151 0
M  V30 29790 N 2852.91 -3.57206 4.57585 0
M  V30 29791 H 2855.67 0.177262 2.99175 0
M  V30 29792 H 2853.23 0.240629 1.60102 0
M  V30 29793 H 2855.22 -2.33435 3.3059 0
M  V30 29794 H 2853.79 -2.16221 2.2576 0
M  V30 29795 H 2853.01 -0.322171 3.92881 0
M  V30 29796 H 2854.3 -0.879945 5.01133 0
M  V30 29797 H 2853.7 -3.92102 4.07765 0
M  V30 29798 H 2852.26 -4.23291 4.95649 0
M  V30 29799 N 2855.69 -1.56945 0.143591 0
M  V30 29800 C 2856.65 -2.15401 -0.783257 0
M  V30 29801 C 2857.65 -1.09494 -1.17761 0
M  V30 29802 O 2858.84 -1.3515 -1.0991 0
M  V30 29803 C 2855.97 -2.71434 -2.06244 0
M  V30 29804 H 2857.17 -2.98638 -0.27481 0
M  V30 29805 H 2854.72 -1.55941 -0.105832 0
M  V30 29806 H 2855.46 -1.91854 -2.61463 0
M  V30 29807 H 2855.24 -3.48913 -1.78891 0
M  V30 29808 H 2856.73 -3.16484 -2.72447 0
M  V30 29809 N 2857.17 0.130197 -1.57061 0
M  V30 29810 C 2858.44 0.8696 -1.75206 0
M  V30 29811 C 2858.82 1.98583 -0.716098 0
M  V30 29812 O 2858.17 2.26993 0.261992 0
M  V30 29813 C 2858.38 1.39661 -3.19837 0
M  V30 29814 C 2859.73 1.85338 -3.82014 0
M  V30 29815 O 2860.75 1.49365 -3.23371 0
M  V30 29816 O 2859.61 2.51735 -4.85069 0
M  V30 29817 H 2856.71 0.412144 -0.716984 0
M  V30 29818 H 2859.25 0.11481 -1.69311 0
M  V30 29819 H 2858.03 0.59522 -3.86746 0
M  V30 29820 H 2857.65 2.21442 -3.30226 0
M  V30 29821 N 2858.65 1.52438 0.400055 0
M  V30 29822 C 2859.87 1.71098 1.17218 0
M  V30 29823 C 2860.3 0.423597 1.83268 0
M  V30 29824 O 2859.65 -0.619721 1.70379 0
M  V30 29825 C 2859.7 2.8539 2.2042 0
M  V30 29826 O 2858.81 2.51592 3.26765 0
M  V30 29827 H 2858.15 0.569297 0.341756 0
M  V30 29828 H 2860.68 1.99182 0.467737 0
M  V30 29829 H 2860.69 3.10566 2.646 0
M  V30 29830 H 2859.36 3.78789 1.7173 0
M  V30 29831 H 2857.94 2.37119 2.878 0
M  V30 29832 N 2860.12 -0.657839 1.43214 0
M  V30 29833 C 2861.35 -1.45061 1.4823 0
M  V30 29834 C 2861.77 -1.87834 0.100027 0
M  V30 29835 O 2861.13 -1.57083 -0.905241 0
M  V30 29836 C 2861.18 -2.66486 2.42936 0
M  V30 29837 O 2860.28 -3.65376 1.91243 0
M  V30 29838 H 2859.62 -0.435126 0.501559 0
M  V30 29839 H 2862.15 -0.805398 1.88081 0
M  V30 29840 H 2862.16 -3.14356 2.60085 0
M  V30 29841 H 2860.84 -2.34695 3.43352 0
M  V30 29842 H 2859.42 -3.24495 1.83732 0
M  V30 29843 N 2861.6 -1.29668 -0.895769 0
M  V30 29844 C 2862.55 -1.15132 -2.00033 0
M  V30 29845 C 2863.52 -0.0436111 -1.66043 0
M  V30 29846 O 2864.7 -0.211844 -1.8962 0
M  V30 29847 C 2861.84 -0.837929 -3.34773 0
M  V30 29848 C 2860.96 -2.02646 -3.81521 0
M  V30 29849 C 2860.09 -1.6521 -5.04855 0
M  V30 29850 C 2859.13 -2.80622 -5.43983 0
M  V30 29851 N 2858.27 -2.43555 -6.58502 0
M  V30 29852 H 2863.11 -2.09632 -2.11798 0
M  V30 29853 H 2860.64 -1.04313 -1.03717 0
M  V30 29854 H 2862.6 -0.636896 -4.1231 0
M  V30 29855 H 2861.23 0.0701746 -3.22724 0
M  V30 29856 H 2860.28 -2.33908 -2.99985 0
M  V30 29857 H 2861.6 -2.89113 -4.06467 0
M  V30 29858 H 2860.75 -1.41419 -5.89988 0
M  V30 29859 H 2859.49 -0.758977 -4.81758 0
M  V30 29860 H 2858.49 -3.05091 -4.57383 0
M  V30 29861 H 2859.72 -3.70605 -5.6906 0
M  V30 29862 H 2857.67 -1.56735 -6.37001 0
M  V30 29863 H 2857.58 -3.23555 -6.83263 0
M  V30 29864 H 2858.85 -2.23093 -7.46893 0
M  V30 29865 N 2863.08 1.10667 -1.12208 0
M  V30 29866 C 2864.5 1.34598 -0.857642 0
M  V30 29867 C 2864.7 1.94847 0.513507 0
M  V30 29868 O 2863.75 2.18661 1.26269 0
M  V30 29869 C 2865.06 2.26994 -1.97216 0
M  V30 29870 C 2866.61 2.40538 -2.00276 0
M  V30 29871 C 2867.09 3.36262 -3.10954 0
M  V30 29872 N 2868.58 3.43829 -3.10381 0
M  V30 29873 C 2869.31 4.1786 -3.92658 0
M  V30 29874 N 2868.81 4.94798 -4.84919 0
M  V30 29875 N 2870.6 4.13454 -3.80805 0
M  V30 29876 H 2862.75 0.699271 -2.00559 0
M  V30 29877 H 2865.02 0.370461 -0.872618 0
M  V30 29878 H 2864.72 1.89931 -2.96005 0
M  V30 29879 H 2864.6 3.27282 -1.87526 0
M  V30 29880 H 2866.98 2.76872 -1.02108 0
M  V30 29881 H 2867.06 1.40073 -2.1404 0
M  V30 29882 H 2866.71 3.00653 -4.09353 0
M  V30 29883 H 2866.64 4.366 -2.94429 0
M  V30 29884 H 2869.13 2.88957 -2.43541 0
M  V30 29885 H 2869.44 5.48679 -5.44216 0
M  V30 29886 H 2867.79 4.93931 -4.88935 0
M  V30 29887 H 2870.98 3.5244 -3.08065 0
M  V30 29888 H 2871.15 4.70891 -4.45158 0
M  V30 29889 N 2864.56 0.913621 1.28416 0
M  V30 29890 C 2865.5 0.400413 2.273 0
M  V30 29891 C 2866.47 -0.525062 1.57583 0
M  V30 29892 O 2867.66 -0.447285 1.85483 0
M  V30 29893 C 2864.8 -0.353549 3.43284 0
M  V30 29894 C 2863.91 0.604416 4.27751 0
M  V30 29895 C 2863.05 -0.167982 5.30934 0
M  V30 29896 C 2862.09 0.783606 6.07063 0
M  V30 29897 N 2861.22 0.0447346 7.02086 0
M  V30 29898 H 2866.06 1.2487 2.70576 0
M  V30 29899 H 2863.6 0.627051 1.33066 0
M  V30 29900 H 2865.56 -0.806873 4.09323 0
M  V30 29901 H 2864.19 -1.16618 3.00999 0
M  V30 29902 H 2863.24 1.17627 3.61757 0
M  V30 29903 H 2864.55 1.33224 4.80679 0
M  V30 29904 H 2863.71 -0.681873 6.02856 0
M  V30 29905 H 2862.45 -0.928862 4.78773 0
M  V30 29906 H 2861.45 1.30887 5.33993 0
M  V30 29907 H 2862.68 1.54404 6.61314 0
M  V30 29908 H 2860.62 -0.698158 6.52274 0
M  V30 29909 H 2860.54 0.712391 7.52636 0
M  V30 29910 H 2861.81 -0.448965 7.78206 0
M  V30 29911 N 2866.04 -1.4229 0.677588 0
M  V30 29912 C 2866.97 -2.33495 0.0150091 0
M  V30 29913 C 2867.95 -1.50833 -0.786349 0
M  V30 29914 O 2869.13 -1.79427 -0.742943 0
M  V30 29915 C 2866.26 -3.34478 -0.934964 0
M  V30 29916 C 2865.22 -4.27315 -0.241999 0
M  V30 29917 C 2864.54 -5.18528 -1.3051 0
M  V30 29918 C 2865.84 -5.14821 0.880694 0
M  V30 29919 H 2867.54 -2.89149 0.776722 0
M  V30 29920 H 2865.08 -1.39032 0.374964 0
M  V30 29921 H 2867.03 -3.97196 -1.40759 0
M  V30 29922 H 2865.76 -2.77134 -1.72813 0
M  V30 29923 H 2864.42 -3.65996 0.210415 0
M  V30 29924 H 2864.07 -4.57509 -2.09033 0
M  V30 29925 H 2863.77 -5.8147 -0.846549 0
M  V30 29926 H 2865.29 -5.84122 -1.7786 0
M  V30 29927 H 2866.7 -5.71209 0.489163 0
M  V30 29928 H 2865.1 -5.86611 1.26521 0
M  V30 29929 H 2866.17 -4.53056 1.72826 0
M  V30 29930 N 2867.51 -0.421104 -1.5187 0
M  V30 29931 C 2868.74 0.149904 -2.06356 0
M  V30 29932 C 2869.16 1.37849 -1.29008 0
M  V30 29933 O 2868.51 1.79206 -0.34517 0
M  V30 29934 C 2868.56 0.488391 -3.58186 0
M  V30 29935 O 2868.29 -0.691417 -4.3261 0
M  V30 29936 C 2869.79 1.11184 -4.29131 0
M  V30 29937 H 2867.01 0.0151068 -0.67083 0
M  V30 29938 H 2869.55 -0.59551 -1.95637 0
M  V30 29939 H 2867.71 1.1837 -3.68873 0
M  V30 29940 H 2868.12 -0.405998 -5.22926 0
M  V30 29941 H 2869.59 1.29879 -5.36503 0
M  V30 29942 H 2870.07 2.08833 -3.86375 0
M  V30 29943 H 2870.68 0.456384 -4.22844 0
M  V30 29944 N 2868.99 1.56866 -0.151912 0
M  V30 29945 C 2869.92 2.20019 0.781904 0
M  V30 29946 C 2870.9 1.1499 1.25345 0
M  V30 29947 O 2872.09 1.4335 1.31013 0
M  V30 29948 C 2869.22 2.82567 2.01923 0
M  V30 29949 C 2868.17 3.93467 1.68427 0
M  V30 29950 C 2867.5 4.42973 2.99465 0
M  V30 29951 C 2868.8 5.14005 0.927154 0
M  V30 29952 H 2870.49 2.98307 0.255554 0
M  V30 29953 H 2868.04 1.43487 0.121477 0
M  V30 29954 H 2869.99 3.25416 2.67736 0
M  V30 29955 H 2868.72 2.01618 2.56939 0
M  V30 29956 H 2867.37 3.51244 1.04991 0
M  V30 29957 H 2867.02 3.5884 3.52481 0
M  V30 29958 H 2866.72 5.17777 2.77814 0
M  V30 29959 H 2868.25 4.88495 3.6634 0
M  V30 29960 H 2869.66 5.53667 1.48746 0
M  V30 29961 H 2868.06 5.94603 0.810408 0
M  V30 29962 H 2869.13 4.84834 -0.0802016 0
M  V30 29963 N 2870.47 -0.121866 1.57128 0
M  V30 29964 C 2871.7 -0.844418 1.88884 0
M  V30 29965 C 2872.11 -1.73572 0.742854 0
M  V30 29966 O 2871.47 -1.80238 -0.286443 0
M  V30 29967 C 2871.52 -1.68023 3.20079 0
M  V30 29968 O 2871.24 -0.824823 4.30265 0
M  V30 29969 C 2872.74 -2.50819 3.6552 0
M  V30 29970 H 2869.96 -0.242896 0.625494 0
M  V30 29971 H 2872.51 -0.107115 2.04219 0
M  V30 29972 H 2870.66 -2.37032 3.06422 0
M  V30 29973 H 2871.08 -1.40104 5.05441 0
M  V30 29974 H 2872.55 -3.05 4.60086 0
M  V30 29975 H 2873.03 -3.28043 2.92035 0
M  V30 29976 H 2873.63 -1.87057 3.81955 0
M  V30 29977 N 2871.95 -1.52648 -0.391965 0
M  V30 29978 C 2873.36 -1.41833 -0.731823 0
M  V30 29979 C 2873.56 -0.536395 -1.94229 0
M  V30 29980 O 2872.62 -0.0087101 -2.52498 0
M  V30 29981 C 2873.93 -2.84636 -0.969693 0
M  V30 29982 C 2875.48 -2.94094 -1.07135 0
M  V30 29983 C 2875.96 -4.37902 -1.34187 0
M  V30 29984 N 2877.45 -4.41213 -1.41015 0
M  V30 29985 C 2878.18 -5.49564 -1.63606 0
M  V30 29986 N 2877.68 -6.68005 -1.83687 0
M  V30 29987 N 2879.47 -5.37103 -1.65761 0
M  V30 29988 H 2871.62 -2.08511 0.404584 0
M  V30 29989 H 2873.89 -0.940526 0.118806 0
M  V30 29990 H 2873.59 -3.5137 -0.152403 0
M  V30 29991 H 2873.47 -3.26712 -1.88518 0
M  V30 29992 H 2875.85 -2.2753 -1.87921 0
M  V30 29993 H 2875.93 -2.5545 -0.133842 0
M  V30 29994 H 2875.58 -5.05031 -0.539118 0
M  V30 29995 H 2875.51 -4.74096 -2.29217 0
M  V30 29996 H 2878 -3.55843 -1.27216 0
M  V30 29997 H 2878.31 -7.46358 -2.00424 0
M  V30 29998 H 2876.66 -6.71039 -1.80918 0
M  V30 29999 H 2879.85 -4.43543 -1.49622 0
M  V30 30000 H 2880.02 -6.21615 -1.83027 0
M  V30 30001 N 2873.43 0.650235 -1.43561 0
M  V30 30002 C 2874.36 1.77457 -1.51761 0
M  V30 30003 C 2875.34 1.65981 -0.372048 0
M  V30 30004 O 2876.52 1.85031 -0.58966 0
M  V30 30005 C 2873.65 3.159 -1.44307 0
M  V30 30006 C 2872.61 3.42142 -2.57144 0
M  V30 30007 C 2871.93 4.80416 -2.34743 0
M  V30 30008 C 2873.23 3.36591 -3.99379 0
M  V30 30009 H 2874.93 1.70851 -2.45866 0
M  V30 30010 H 2872.47 0.820545 -1.18335 0
M  V30 30011 H 2874.43 3.94312 -1.48648 0
M  V30 30012 H 2873.15 3.23243 -0.467083 0
M  V30 30013 H 2871.81 2.66102 -2.52161 0
M  V30 30014 H 2871.46 4.84439 -1.3538 0
M  V30 30015 H 2871.16 4.98935 -3.10384 0
M  V30 30016 H 2872.68 5.61082 -2.40872 0
M  V30 30017 H 2874.09 4.04935 -4.05833 0
M  V30 30018 H 2872.49 3.66646 -4.7507 0
M  V30 30019 H 2873.56 2.34721 -4.24304 0
M  V30 30020 N 2874.9 1.30141 0.88888 0
M  V30 30021 C 2875.87 1.16177 1.97574 0
M  V30 30022 C 2876.87 0.0941142 1.60524 0
M  V30 30023 O 2878.06 0.341919 1.70811 0
M  V30 30024 C 2875.19 0.779041 3.31879 0
M  V30 30025 H 2876.38 2.12731 2.11389 0
M  V30 30026 H 2873.94 1.13482 1.07478 0
M  V30 30027 H 2874.67 -0.186168 3.23765 0
M  V30 30028 H 2874.46 1.55058 3.60138 0
M  V30 30029 H 2875.95 0.704704 4.11611 0
M  V30 30030 N 2876.38 -1.1007 1.12794 0
M  V30 30031 C 2877.61 -1.86425 0.90887 0
M  V30 30032 C 2878.03 -1.80279 -0.536761 0
M  V30 30033 O 2877.39 -1.17546 -1.38031 0
M  V30 30034 C 2877.44 -3.32608 1.393 0
M  V30 30035 O 2876.54 -4.08387 0.573918 0
M  V30 30036 H 2875.88 -0.578326 0.326245 0
M  V30 30037 H 2878.41 -1.3904 1.50097 0
M  V30 30038 H 2878.42 -3.83457 1.39373 0
M  V30 30039 H 2877.1 -3.36397 2.44561 0
M  V30 30040 H 2875.68 -3.67358 0.640503 0
M  V30 30041 N 2877.86 -0.920419 -1.2793 0
M  V30 30042 C 2878.82 -0.41862 -2.25345 0
M  V30 30043 C 2879.82 0.458771 -1.54117 0
M  V30 30044 O 2881.01 0.260881 -1.72235 0
M  V30 30045 C 2878.15 0.399044 -3.38556 0
M  V30 30046 H 2879.34 -1.27922 -2.71249 0
M  V30 30047 H 2876.89 -0.700431 -1.39727 0
M  V30 30048 H 2877.63 1.27877 -2.98023 0
M  V30 30049 H 2877.41 -0.229932 -3.91425 0
M  V30 30050 H 2878.9 0.740745 -4.10978 0
M  V30 30051 N 2879.34 1.41929 -0.685124 0
M  V30 30052 C 2880.75 1.84469 -0.287732 0
M  V30 30053 C 2881.1 1.5734 1.17212 0
M  V30 30054 O 2880.23 1.03848 1.89854 0
M  V30 30055 C 2880.82 3.34856 -0.515444 0
M  V30 30056 C 2879.38 3.76006 -0.172072 0
M  V30 30057 C 2878.53 2.65423 -0.802855 0
M  V30 30058 H 2881.48 1.31629 -0.886543 0
M  V30 30059 H 2881.5 3.79809 0.229184 0
M  V30 30060 H 2881.01 3.5457 -1.57802 0
M  V30 30061 H 2879.11 3.61897 0.886653 0
M  V30 30062 H 2879.22 4.75074 -0.6198 0
M  V30 30063 H 2877.59 2.53629 -0.233312 0
M  V30 30064 H 2878.37 2.87958 -1.86909 0
M  V30 30065 N 2880.82 0.429152 1.51644 0
M  V30 30066 C 2882.06 -0.140251 2.02314 0
M  V30 30067 C 2882.4 -1.43072 1.31317 0
M  V30 30068 O 2881.67 -1.89787 0.425565 0
M  V30 30069 C 2881.95 -0.367427 3.58221 0
M  V30 30070 C 2881.81 0.941117 4.39844 0
M  V30 30071 C 2883.13 -1.14082 4.25057 0
M  V30 30072 H 2880.24 -0.0494983 0.735336 0
M  V30 30073 H 2882.89 0.566546 1.81357 0
M  V30 30074 H 2881.04 -0.96949 3.76209 0
M  V30 30075 H 2882.71 1.57653 4.33524 0
M  V30 30076 H 2880.95 1.54758 4.05256 0
M  V30 30077 H 2881.62 0.736306 5.47067 0
M  V30 30078 H 2884.1 -0.630913 4.11289 0
M  V30 30079 H 2882.97 -1.26853 5.34041 0
M  V30 30080 H 2883.24 -2.16676 3.85362 0
M  V30 30081 N 2882.29 -1.56783 0.160229 0
M  V30 30082 C 2883.71 -1.83228 -0.358384 0
M  V30 30083 C 2884.06 -1.07955 -1.6383 0
M  V30 30084 O 2883.18 -0.329032 -2.13884 0
M  V30 30085 C 2883.78 -3.32369 -0.657 0
M  V30 30086 C 2882.34 -3.59348 -1.12009 0
M  V30 30087 C 2881.48 -2.76893 -0.150102 0
M  V30 30088 H 2884.43 -1.53967 0.384696 0
M  V30 30089 H 2884.45 -3.49244 -1.51027 0
M  V30 30090 H 2883.97 -3.87126 0.274715 0
M  V30 30091 H 2882.07 -3.0999 -2.06729 0
M  V30 30092 H 2882.18 -4.67744 -1.03692 0
M  V30 30093 H 2880.54 -2.46389 -0.645318 0
M  V30 30094 H 2881.33 -3.34428 0.775438 0
M  V30 30095 N 2883.77 0.113531 -1.57191 0
M  V30 30096 C 2885.02 0.820349 -1.85139 0
M  V30 30097 C 2885.35 1.7962 -0.746111 0
M  V30 30098 O 2884.6 1.93938 0.262043 0
M  V30 30099 C 2884.9 1.59979 -3.19596 0
M  V30 30100 C 2884.57 0.76773 -4.44316 0
M  V30 30101 C 2883.23 0.538295 -4.7818 0
M  V30 30102 C 2885.58 0.188111 -5.2086 0
M  V30 30103 C 2882.91 -0.280923 -5.86027 0
M  V30 30104 C 2885.26 -0.618328 -6.29571 0
M  V30 30105 C 2883.93 -0.858028 -6.61962 0
M  V30 30106 H 2883.2 0.300187 -0.677472 0
M  V30 30107 H 2885.84 0.0825106 -1.91322 0
M  V30 30108 H 2884.15 2.40869 -3.09014 0
M  V30 30109 H 2885.85 2.15074 -3.38444 0
M  V30 30110 H 2882.44 0.956651 -4.17787 0
M  V30 30111 H 2886.62 0.352571 -4.95046 0
M  V30 30112 H 2881.88 -0.4758 -6.09546 0
M  V30 30113 H 2886.05 -1.07442 -6.88062 0
M  V30 30114 H 2883.68 -1.49464 -7.45362 0
M  V30 30115 N 2885.25 1.52854 0.383864 0
M  V30 30116 C 2886.48 1.72032 1.14947 0
M  V30 30117 C 2886.89 0.44099 1.83578 0
M  V30 30118 O 2886.25 -0.584895 1.72873 0
M  V30 30119 C 2886.3 2.87337 2.19363 0
M  V30 30120 O 2886.02 4.10318 1.53529 0
M  V30 30121 C 2887.52 3.18236 3.08611 0
M  V30 30122 H 2884.74 0.575852 0.344435 0
M  V30 30123 H 2887.29 1.99524 0.448362 0
M  V30 30124 H 2885.44 2.62291 2.851 0
M  V30 30125 H 2885.86 4.74756 2.22951 0
M  V30 30126 H 2887.33 4.02368 3.77895 0
M  V30 30127 H 2887.81 2.32833 3.72405 0
M  V30 30128 H 2888.41 3.4514 2.48512 0
M  V30 30129 N 2886.73 -0.642612 1.43904 0
M  V30 30130 C 2887.98 -1.40445 1.46298 0
M  V30 30131 C 2888.31 -1.93987 0.0908702 0
M  V30 30132 O 2887.58 -1.7295 -0.889853 0
M  V30 30133 C 2887.87 -2.57814 2.51404 0
M  V30 30134 C 2887.72 -2.09695 3.97929 0
M  V30 30135 C 2889.04 -3.60017 2.53131 0
M  V30 30136 H 2886.16 -0.509329 0.532685 0
M  V30 30137 H 2888.8 -0.727604 1.75516 0
M  V30 30138 H 2886.95 -3.15556 2.26619 0
M  V30 30139 H 2888.62 -1.56872 4.33807 0
M  V30 30140 H 2886.86 -1.40975 4.10254 0
M  V30 30141 H 2887.54 -2.94144 4.67101 0
M  V30 30142 H 2890.01 -3.12054 2.75248 0
M  V30 30143 H 2888.89 -4.39677 3.28597 0
M  V30 30144 H 2889.15 -4.13321 1.56902 0
M  V30 30145 N 2888.21 -1.30611 -0.881966 0
M  V30 30146 C 2889.14 -1.19823 -2.00411 0
M  V30 30147 C 2890.12 -0.0881836 -1.69871 0
M  V30 30148 O 2891.3 -0.270734 -1.92304 0
M  V30 30149 C 2888.43 -0.892389 -3.35639 0
M  V30 30150 C 2887.39 -1.9607 -3.80448 0
M  V30 30151 C 2886.71 -1.50779 -5.13001 0
M  V30 30152 C 2888.01 -3.3722 -3.98849 0
M  V30 30153 H 2889.71 -2.13703 -2.09694 0
M  V30 30154 H 2887.25 -1.02884 -1.00752 0
M  V30 30155 H 2889.21 -0.80357 -4.13667 0
M  V30 30156 H 2887.93 0.0820807 -3.26497 0
M  V30 30157 H 2886.59 -2.03921 -3.0465 0
M  V30 30158 H 2886.24 -0.521504 -5.00289 0
M  V30 30159 H 2885.94 -2.22238 -5.43952 0
M  V30 30160 H 2887.46 -1.43281 -5.93551 0
M  V30 30161 H 2888.88 -3.32111 -4.67306 0
M  V30 30162 H 2887.27 -4.06792 -4.41181 0
M  V30 30163 H 2888.34 -3.78889 -3.02608 0
M  V30 30164 N 2889.69 1.0947 -1.13376 0
M  V30 30165 C 2890.91 1.8594 -0.918744 0
M  V30 30166 C 2891.34 1.80561 0.527193 0
M  V30 30167 O 2890.69 1.18276 1.37406 0
M  V30 30168 C 2890.74 3.31864 -1.41062 0
M  V30 30169 O 2889.85 4.08077 -0.595568 0
M  V30 30170 H 2889.19 0.576587 -0.329307 0
M  V30 30171 H 2891.72 1.38242 -1.50832 0
M  V30 30172 H 2891.73 3.82712 -1.41404 0
M  V30 30173 H 2890.4 3.35095 -2.46341 0
M  V30 30174 H 2888.98 3.67013 -0.659975 0
M  V30 30175 N 2891.16 0.92719 1.2744 0
M  V30 30176 C 2892.09 0.443228 2.29255 0
M  V30 30177 C 2893.07 -0.496211 1.62701 0
M  V30 30178 O 2894.26 -0.401071 1.90013 0
M  V30 30179 C 2891.39 -0.305305 3.45955 0
M  V30 30180 C 2890.34 0.546252 4.245 0
M  V30 30181 C 2889.67 -0.331418 5.33672 0
M  V30 30182 C 2890.97 1.81046 4.89918 0
M  V30 30183 H 2892.66 1.29413 2.69986 0
M  V30 30184 H 2890.21 0.623727 1.29791 0
M  V30 30185 H 2892.16 -0.654812 4.16281 0
M  V30 30186 H 2890.89 -1.19023 3.0414 0
M  V30 30187 H 2889.55 0.87846 3.55919 0
M  V30 30188 H 2889.19 -1.21528 4.88098 0
M  V30 30189 H 2888.89 0.234849 5.8713 0
M  V30 30190 H 2890.42 -0.676508 6.06841 0
M  V30 30191 H 2891.83 1.52905 5.52533 0
M  V30 30192 H 2890.23 2.32019 5.53432 0
M  V30 30193 H 2891.3 2.53028 4.13648 0
M  V30 30194 N 2892.64 -1.41564 0.692641 0
M  V30 30195 C 2893.87 -2.05603 0.231315 0
M  V30 30196 C 2894.28 -1.52113 -1.11835 0
M  V30 30197 O 2893.64 -0.66816 -1.69829 0
M  V30 30198 C 2893.69 -3.61065 0.177189 0
M  V30 30199 O 2893.41 -4.12576 1.47353 0
M  V30 30200 C 2894.91 -4.42246 -0.305482 0
M  V30 30201 H 2892.13 -0.662211 0.10825 0
M  V30 30202 H 2894.68 -1.81387 0.944401 0
M  V30 30203 H 2892.83 -3.84331 -0.486701 0
M  V30 30204 H 2893.25 -5.06596 1.3587 0
M  V30 30205 H 2894.72 -5.51226 -0.292233 0
M  V30 30206 H 2895.2 -4.18135 -1.34386 0
M  V30 30207 H 2895.8 -4.24039 0.327304 0
M  V30 30208 N 2894.12 -0.437188 -1.51415 0
M  V30 30209 C 2895.37 0.129073 -2.01687 0
M  V30 30210 C 2895.69 1.43225 -1.32332 0
M  V30 30211 O 2894.96 1.90475 -0.457829 0
M  V30 30212 H 2893.54 0.0506892 -0.745278 0
M  V30 30213 H 2896.2 -0.579861 -1.86074 0
M  V30 30214 H 2895.3 0.305087 -3.10605 0
M  V30 30215 N 2895.6 1.56696 -0.168541 0
M  V30 30216 C 2896.55 2.19141 0.779753 0
M  V30 30217 C 2897.54 1.15463 1.23955 0
M  V30 30218 O 2898.75 1.33668 1.20552 0
M  V30 30219 H 2895.12 0.701962 0.269727 0
M  V30 30220 H 2897.09 2.97519 0.229103 0
M  V30 30221 C 2895.84 2.84422 1.99998 0
M  V30 30222 H 2895.16 3.63927 1.6552 0
M  V30 30223 H 2896.6 3.31588 2.64245 0
M  V30 30224 C 2895.06 1.84049 2.82183 0
M  V30 30225 O 2895.59 1.32424 3.79245 0
M  V30 30226 N 2893.8 1.52869 2.47143 0
M  V30 30227 H 2893.35 1.95043 1.68274 0
M  V30 30228 H 2893.3 0.859623 3.0242 0
M  V30 30229 N 2897.08 -0.105193 1.57249 0
M  V30 30230 C 2898.49 -0.660834 1.74613 0
M  V30 30231 C 2898.84 -1.79625 0.789262 0
M  V30 30232 O 2897.96 -2.16372 -0.034623 0
M  V30 30233 C 2898.56 -1.20553 3.16626 0
M  V30 30234 C 2897.12 -1.70734 3.3545 0
M  V30 30235 C 2896.26 -0.612716 2.70446 0
M  V30 30236 H 2899.21 0.120818 1.58239 0
M  V30 30237 H 2899.24 -2.07502 3.1894 0
M  V30 30238 H 2898.75 -0.378944 3.86246 0
M  V30 30239 H 2896.85 -2.55826 2.70895 0
M  V30 30240 H 2896.96 -1.80728 4.43705 0
M  V30 30241 H 2895.33 -1.04971 2.32063 0
M  V30 30242 H 2896.11 0.203127 3.42699 0
M  V30 30243 N 2898.55 -1.53055 -0.375752 0
M  V30 30244 C 2899.79 -1.7044 -1.12825 0
M  V30 30245 C 2900.16 -0.44156 -1.86854 0
M  V30 30246 O 2901.36 -0.491954 -2.6426 0
M  V30 30247 C 2899.63 -2.91349 -2.07004 0
M  V30 30248 S 2901.19 -3.29388 -2.89912 0
M  V30 30249 H 2898.01 -0.599839 -0.381725 0
M  V30 30250 H 2900.61 -1.91134 -0.410866 0
M  V30 30251 H 2899.31 -3.81467 -1.51364 0
M  V30 30252 H 2898.84 -2.73027 -2.83231 0
M  V30 30253 H 2900.86 -2.80608 -4.09235 0
M  V30 30254 N 2900.03 0.634971 -1.44242 0
M  V30 30255 C 2900.98 1.74712 -1.50813 0
M  V30 30256 C 2901.95 1.62236 -0.356175 0
M  V30 30257 O 2903.13 1.82215 -0.56588 0
M  V30 30258 C 2900.27 3.12945 -1.45464 0
M  V30 30259 C 2899.39 3.36424 -2.71004 0
M  V30 30260 C 2898.52 4.64607 -2.57516 0
M  V30 30261 C 2897.56 4.81251 -3.78237 0
M  V30 30262 N 2896.7 6.00708 -3.63448 0
M  V30 30263 H 2901.54 1.68432 -2.45835 0
M  V30 30264 H 2899.08 0.821685 -1.22011 0
M  V30 30265 H 2901.03 3.92882 -1.40354 0
M  V30 30266 H 2899.66 3.18249 -0.540114 0
M  V30 30267 H 2898.72 2.50453 -2.86317 0
M  V30 30268 H 2900.03 3.44603 -3.60625 0
M  V30 30269 H 2899.18 5.52699 -2.50217 0
M  V30 30270 H 2897.92 4.58779 -1.65449 0
M  V30 30271 H 2896.93 3.91589 -3.85925 0
M  V30 30272 H 2898.15 4.88896 -4.71336 0
M  V30 30273 H 2896.1 5.95977 -2.7413 0
M  V30 30274 H 2896.01 6.09927 -4.46683 0
M  V30 30275 H 2897.28 6.91372 -3.60035 0
M  V30 30276 N 2901.51 1.31076 0.875027 0
M  V30 30277 C 2902.42 1.20248 2.01439 0
M  V30 30278 C 2903.44 0.120258 1.73584 0
M  V30 30279 O 2904.61 0.337098 1.98559 0
M  V30 30280 C 2901.68 0.905258 3.34673 0
M  V30 30281 C 2900.74 2.07386 3.75885 0
M  V30 30282 C 2899.97 1.79073 5.02761 0
M  V30 30283 O 2900.19 0.723417 5.65794 0
M  V30 30284 O 2899.13 2.64604 5.40619 0
M  V30 30285 H 2902.95 2.15984 2.13506 0
M  V30 30286 H 2900.54 1.10767 1.00255 0
M  V30 30287 H 2902.42 0.75513 4.14579 0
M  V30 30288 H 2901.1 -0.0221126 3.23692 0
M  V30 30289 H 2900 2.27937 2.96641 0
M  V30 30290 H 2901.34 2.9833 3.91484 0
M  V30 30291 N 2902.99 -1.08867 1.13955 0
M  V30 30292 C 2904.27 -1.77775 0.815799 0
M  V30 30293 C 2904.65 -1.9945 -0.691589 0
M  V30 30294 O 2903.99 -1.60052 -1.63082 0
M  V30 30295 C 2904.2 -3.09686 1.60921 0
M  V30 30296 C 2905.55 -3.84298 1.80556 0
M  V30 30297 O 2906.58 -3.19454 1.57568 0
M  V30 30298 O 2905.43 -5.00721 2.18955 0
M  V30 30299 H 2902.53 -0.771266 0.298458 0
M  V30 30300 H 2905.07 -1.15372 1.24448 0
M  V30 30301 H 2903.85 -2.89431 2.63336 0
M  V30 30302 H 2903.47 -3.79815 1.17584 0
M  V30 30303 N 2904.47 -0.933936 -1.26946 0
M  V30 30304 C 2905.7 -0.593314 -1.97897 0
M  V30 30305 C 2906.1 0.834382 -1.69808 0
M  V30 30306 O 2905.45 1.56697 -0.958732 0
M  V30 30307 C 2905.51 -0.746887 -3.51656 0
M  V30 30308 C 2905.17 -2.14786 -4.03381 0
M  V30 30309 C 2906.17 -3.12264 -4.15676 0
M  V30 30310 C 2903.86 -2.46649 -4.37573 0
M  V30 30311 C 2905.85 -4.3971 -4.61447 0
M  V30 30312 C 2903.54 -3.74329 -4.83033 0
M  V30 30313 C 2904.53 -4.70673 -4.94931 0
M  V30 30314 O 2904.22 -5.9608 -5.39392 0
M  V30 30315 H 2903.95 -0.223066 -0.638136 0
M  V30 30316 H 2906.51 -1.25493 -1.62606 0
M  V30 30317 H 2904.74 -0.0281569 -3.8669 0
M  V30 30318 H 2906.43 -0.410399 -4.0382 0
M  V30 30319 H 2907.19 -2.88971 -3.89514 0
M  V30 30320 H 2903.07 -1.72398 -4.27551 0
M  V30 30321 H 2906.62 -5.14913 -4.70648 0
M  V30 30322 H 2902.51 -3.97438 -5.08639 0
M  V30 30323 H 2903.28 -5.99158 -5.57631 0
M  V30 30324 N 2905.94 1.41194 -0.700139 0
M  V30 30325 C 2906.87 2.33442 -0.0521542 0
M  V30 30326 C 2907.86 1.52065 0.762254 0
M  V30 30327 O 2909.04 1.80586 0.714304 0
M  V30 30328 C 2906.17 3.35923 0.881634 0
M  V30 30329 C 2905.12 4.27646 0.173987 0
M  V30 30330 C 2904.45 5.20539 1.22244 0
M  V30 30331 C 2905.75 5.13355 -0.962487 0
M  V30 30332 H 2907.44 2.87877 -0.822625 0
M  V30 30333 H 2904.99 1.38418 -0.397036 0
M  V30 30334 H 2906.94 3.99385 1.34422 0
M  V30 30335 H 2905.67 2.79848 1.68382 0
M  V30 30336 H 2904.33 3.65615 -0.268615 0
M  V30 30337 H 2903.97 4.60776 2.01728 0
M  V30 30338 H 2903.67 5.82743 0.753935 0
M  V30 30339 H 2905.2 5.86877 1.68545 0
M  V30 30340 H 2906.61 5.70359 -0.579975 0
M  V30 30341 H 2905.01 5.84524 -1.35838 0
M  V30 30342 H 2906.08 4.50249 -1.80011 0
M  V30 30343 N 2907.42 0.445212 1.51181 0
M  V30 30344 C 2908.39 -0.350682 2.26501 0
M  V30 30345 C 2909.39 -0.942929 1.30252 0
M  V30 30346 O 2910.58 -0.816148 1.53898 0
M  V30 30347 C 2907.71 -1.49692 3.06276 0
M  V30 30348 H 2908.9 0.309527 2.98298 0
M  V30 30349 H 2906.45 0.198579 1.55033 0
M  V30 30350 H 2907.19 -2.19295 2.38915 0
M  V30 30351 H 2906.97 -1.07834 3.76981 0
M  V30 30352 H 2908.46 -2.05903 3.6331 0
M  V30 30353 N 2908.9 -1.56605 0.176849 0
M  V30 30354 C 2910.15 -1.97341 -0.467371 0
M  V30 30355 C 2910.48 -1.06304 -1.62521 0
M  V30 30356 O 2909.75 -0.111284 -1.94181 0
M  V30 30357 C 2910.04 -3.47478 -0.945045 0
M  V30 30358 C 2909.89 -4.49294 0.213352 0
M  V30 30359 C 2911.21 -4.00848 -1.81683 0
M  V30 30360 H 2908.33 -0.7175 -0.168414 0
M  V30 30361 H 2910.97 -1.88156 0.264098 0
M  V30 30362 H 2909.12 -3.55437 -1.56835 0
M  V30 30363 H 2910.79 -4.5339 0.850587 0
M  V30 30364 H 2909.04 -4.25027 0.867993 0
M  V30 30365 H 2909.71 -5.51759 -0.16309 0
M  V30 30366 H 2912.18 -3.95555 -1.29132 0
M  V30 30367 H 2911.06 -5.06305 -2.12006 0
M  V30 30368 H 2911.32 -3.44999 -2.76457 0
M  V30 30369 N 2910.38 0.0968524 -1.57302 0
M  V30 30370 C 2911.62 0.806301 -1.87825 0
M  V30 30371 C 2911.98 1.75987 -0.767624 0
M  V30 30372 O 2913.18 2.51255 -0.955217 0
M  V30 30373 C 2911.45 1.51743 -3.23587 0
M  V30 30374 S 2913.01 2.26541 -3.75799 0
M  V30 30375 H 2909.83 0.268665 -0.658286 0
M  V30 30376 H 2912.43 0.0635132 -1.95397 0
M  V30 30377 H 2911.14 0.809278 -4.02342 0
M  V30 30378 H 2910.67 2.30016 -3.19149 0
M  V30 30379 H 2912.68 3.5265 -3.49074 0
M  V30 30380 N 2911.86 1.53252 0.36763 0
M  V30 30381 C 2913.1 1.69001 1.10829 0
M  V30 30382 C 2913.43 0.44334 1.89893 0
M  V30 30383 O 2912.7 -0.542587 1.88236 0
M  V30 30384 H 2911.28 0.623015 0.412142 0
M  V30 30385 H 2913.94 1.90436 0.414742 0
M  V30 30386 H 2913.03 2.55016 1.79925 0
M  V30 30387 N 2913.34 -0.627313 1.44577 0
M  V30 30388 C 2914.27 -1.7502 1.54565 0
M  V30 30389 C 2915.25 -1.65368 0.398407 0
M  V30 30390 O 2916.43 -1.8407 0.619022 0
M  V30 30391 C 2913.56 -3.13564 1.49315 0
M  V30 30392 C 2912.52 -3.38008 2.62555 0
M  V30 30393 C 2911.84 -4.76621 2.42356 0
M  V30 30394 C 2913.14 -3.30195 4.04684 0
M  V30 30395 H 2914.84 -1.66918 2.48553 0
M  V30 30396 H 2912.38 -0.801615 1.19625 0
M  V30 30397 H 2914.33 -3.91897 1.54902 0
M  V30 30398 H 2913.06 -3.22459 0.518449 0
M  V30 30399 H 2911.72 -2.62057 2.56363 0
M  V30 30400 H 2911.37 -4.82224 1.4307 0
M  V30 30401 H 2911.07 -4.93934 3.18282 0
M  V30 30402 H 2912.59 -5.57179 2.49768 0
M  V30 30403 H 2914 -3.98427 4.12224 0
M  V30 30404 H 2912.4 -3.59041 4.80842 0
M  V30 30405 H 2913.47 -2.27941 4.27984 0
M  V30 30406 N 2914.81 -1.31539 -0.868063 0
M  V30 30407 C 2915.76 -1.19349 -1.97546 0
M  V30 30408 C 2916.73 -0.0788214 -1.65913 0
M  V30 30409 O 2917.92 -0.252018 -1.89128 0
M  V30 30410 C 2915.06 -0.90875 -3.3292 0
M  V30 30411 C 2914.17 -2.10693 -3.77137 0
M  V30 30412 C 2913.3 -1.75882 -5.01238 0
M  V30 30413 C 2912.34 -2.92097 -5.37908 0
M  V30 30414 N 2911.48 -2.57468 -6.53188 0
M  V30 30415 H 2916.32 -2.14077 -2.07304 0
M  V30 30416 H 2913.86 -1.06489 -1.01481 0
M  V30 30417 H 2915.81 -0.72421 -4.10866 0
M  V30 30418 H 2914.44 0.00170436 -3.228 0
M  V30 30419 H 2913.5 -2.40218 -2.94956 0
M  V30 30420 H 2914.81 -2.9767 -4.00243 0
M  V30 30421 H 2913.96 -1.53901 -5.86855 0
M  V30 30422 H 2912.7 -0.860995 -4.8004 0
M  V30 30423 H 2911.71 -3.14725 -4.50809 0
M  V30 30424 H 2912.93 -3.82592 -5.61071 0
M  V30 30425 H 2910.88 -1.70211 -6.33533 0
M  V30 30426 H 2910.79 -3.37975 -6.76246 0
M  V30 30427 H 2912.06 -2.38886 -7.41993 0
M  V30 30428 N 2916.29 1.08262 -1.1453 0
M  V30 30429 C 2917.57 1.7734 -0.825216 0
M  V30 30430 C 2917.95 1.99814 0.681002 0
M  V30 30431 O 2917.3 1.60914 1.62231 0
M  V30 30432 C 2917.51 3.08828 -1.62561 0
M  V30 30433 C 2918.85 3.83335 -1.82592 0
M  V30 30434 O 2919.88 3.18614 -1.59259 0
M  V30 30435 O 2918.74 4.99552 -2.21607 0
M  V30 30436 H 2915.83 0.769673 -0.302544 0
M  V30 30437 H 2918.38 1.14711 -1.25058 0
M  V30 30438 H 2917.15 2.8803 -2.64867 0
M  V30 30439 H 2916.77 3.79186 -1.19597 0
M  V30 30440 N 2917.77 0.940655 1.26449 0
M  V30 30441 C 2919.01 0.595416 1.95536 0
M  V30 30442 C 2919.37 -0.849653 1.72177 0
M  V30 30443 O 2920.57 -1.3038 2.35063 0
M  V30 30444 C 2918.85 0.92773 3.45149 0
M  V30 30445 S 2920.4 0.692956 4.33294 0
M  V30 30446 H 2917.22 0.219322 0.676327 0
M  V30 30447 H 2919.82 1.21186 1.53409 0
M  V30 30448 H 2918.53 1.97686 3.5965 0
M  V30 30449 H 2918.06 0.30099 3.92247 0
M  V30 30450 H 2920.07 -0.443088 4.94218 0
M  V30 30451 N 2919.25 -1.40821 0.707617 0
M  V30 30452 C 2920.2 -2.27985 0.0265409 0
M  V30 30453 C 2921.18 -1.42839 -0.74066 0
M  V30 30454 O 2922.37 -1.66003 -0.614171 0
M  V30 30455 C 2919.5 -3.31284 -0.900324 0
M  V30 30456 C 2918.59 -4.23905 -0.128733 0
M  V30 30457 N 2918.98 -4.98018 0.883831 0
M  V30 30458 C 2917.28 -4.44525 -0.362461 0
M  V30 30459 C 2917.98 -5.65895 1.34676 0
M  V30 30460 N 2916.95 -5.3945 0.670401 0
M  V30 30461 H 2920.76 -2.82725 0.802717 0
M  V30 30462 H 2918.27 -1.53177 0.539502 0
M  V30 30463 H 2920.27 -3.92565 -1.4035 0
M  V30 30464 H 2918.93 -2.78103 -1.67596 0
M  V30 30465 H 2919.94 -5.02227 1.26444 0
M  V30 30466 H 2916.62 -4.02334 -1.11505 0
M  V30 30467 H 2918.01 -6.35288 2.18767 0
M  V30 30468 N 2920.73 -0.453223 -1.50943 0
M  V30 30469 C 2921.97 0.108047 -2.02512 0
M  V30 30470 C 2922.3 1.40965 -1.33576 0
M  V30 30471 O 2921.58 1.89086 -0.455704 0
M  V30 30472 C 2921.86 0.31039 -3.5876 0
M  V30 30473 C 2921.72 -1.01097 -4.38291 0
M  V30 30474 C 2923.03 1.07305 -4.26818 0
M  V30 30475 H 2920.15 0.0377935 -0.73603 0
M  V30 30476 H 2922.8 -0.595327 -1.80432 0
M  V30 30477 H 2920.95 0.909516 -3.77704 0
M  V30 30478 H 2922.62 -1.6453 -4.30961 0
M  V30 30479 H 2920.86 -1.61186 -4.02742 0
M  V30 30480 H 2921.53 -0.823246 -5.45827 0
M  V30 30481 H 2924.01 0.565401 -4.12241 0
M  V30 30482 H 2922.88 1.18341 -5.35991 0
M  V30 30483 H 2923.14 2.10518 -3.8876 0
M  V30 30484 N 2922.2 1.56509 -0.185151 0
M  V30 30485 C 2923.13 2.21628 0.735059 0
M  V30 30486 C 2924.11 1.17622 1.22878 0
M  V30 30487 O 2925.3 1.46097 1.27942 0
M  V30 30488 C 2922.43 2.86787 1.95884 0
M  V30 30489 C 2921.38 3.96951 1.60043 0
M  V30 30490 C 2920.71 4.49225 2.90001 0
M  V30 30491 C 2922.01 5.15856 0.817917 0
M  V30 30492 H 2923.7 2.98782 0.192221 0
M  V30 30493 H 2921.25 1.43712 0.0910141 0
M  V30 30494 H 2923.2 3.31022 2.60773 0
M  V30 30495 H 2921.93 2.07023 2.52605 0
M  V30 30496 H 2920.59 3.53392 0.975174 0
M  V30 30497 H 2920.23 3.66236 3.4479 0
M  V30 30498 H 2919.93 5.23553 2.66769 0
M  V30 30499 H 2921.46 4.96156 3.55896 0
M  V30 30500 H 2922.87 5.56698 1.36969 0
M  V30 30501 H 2921.27 5.96188 0.684102 0
M  V30 30502 H 2922.34 4.84554 -0.183024 0
M  V30 30503 N 2923.68 -0.0885089 1.57351 0
M  V30 30504 C 2924.91 -0.804163 1.90633 0
M  V30 30505 C 2925.32 -1.71957 0.779504 0
M  V30 30506 O 2924.68 -1.80805 -0.248147 0
M  V30 30507 C 2924.73 -1.61196 3.23571 0
M  V30 30508 O 2924.45 -0.733371 4.31918 0
M  V30 30509 C 2925.95 -2.43009 3.70758 0
M  V30 30510 H 2923.17 -0.229574 0.630505 0
M  V30 30511 H 2925.72 -0.0637733 2.04401 0
M  V30 30512 H 2923.87 -2.30479 3.11381 0
M  V30 30513 H 2924.29 -1.29352 5.083 0
M  V30 30514 H 2925.76 -2.95172 4.66452 0
M  V30 30515 H 2926.24 -3.21775 2.98928 0
M  V30 30516 H 2926.84 -1.78913 3.85837 0
M  V30 30517 N 2925.16 -1.53445 -0.359498 0
M  V30 30518 C 2926.41 -1.69922 -1.10149 0
M  V30 30519 C 2926.73 -0.454133 -1.89124 0
M  V30 30520 O 2925.99 0.56399 -1.87397 0
M  V30 30521 C 2926.29 -2.90436 -2.08282 0
M  V30 30522 C 2925.95 -4.26697 -1.45741 0
M  V30 30523 C 2924.62 -4.63749 -1.28413 0
M  V30 30524 C 2926.97 -5.11409 -1.00548 0
M  V30 30525 C 2924.3 -5.83145 -0.644849 0
M  V30 30526 C 2926.65 -6.31457 -0.380177 0
M  V30 30527 C 2925.31 -6.67217 -0.19444 0
M  V30 30528 H 2924.58 -0.621788 -0.403065 0
M  V30 30529 H 2927.23 -1.87639 -0.382579 0
M  V30 30530 H 2925.53 -2.67256 -2.86499 0
M  V30 30531 H 2927.23 -3.00379 -2.65657 0
M  V30 30532 H 2923.82 -3.97526 -1.60223 0
M  V30 30533 H 2928.01 -4.83328 -1.12727 0
M  V30 30534 H 2923.26 -6.09438 -0.489413 0
M  V30 30535 H 2927.44 -6.96397 -0.0218231 0
M  V30 30536 H 2925.06 -7.59596 0.302983 0
M  V30 30537 N 2926.64 0.619637 -1.44908 0
M  V30 30538 C 2927.86 1.4108 -1.52024 0
M  V30 30539 C 2928.29 1.87503 -0.149793 0
M  V30 30540 O 2927.65 1.59428 0.863275 0
M  V30 30541 C 2927.69 2.59951 -2.49916 0
M  V30 30542 O 2926.8 3.60177 -2.00863 0
M  V30 30543 H 2926.14 0.421675 -0.512919 0
M  V30 30544 H 2928.67 0.755249 -1.9015 0
M  V30 30545 H 2928.68 3.0735 -2.68329 0
M  V30 30546 H 2927.35 2.25509 -3.49454 0
M  V30 30547 H 2925.93 3.1951 -1.92271 0
M  V30 30548 N 2928.12 1.31997 0.861075 0
M  V30 30549 C 2929.34 1.25313 1.65261 0
M  V30 30550 C 2929.77 -0.176975 1.87266 0
M  V30 30551 O 2929.12 -1.12617 1.42082 0
M  V30 30552 C 2929.17 2.01155 2.99281 0
M  V30 30553 O 2928.28 1.35497 3.89505 0
M  V30 30554 H 2927.62 0.432201 0.504082 0
M  V30 30555 H 2930.15 1.7421 1.07294 0
M  V30 30556 H 2930.16 2.11087 3.49151 0
M  V30 30557 H 2928.83 3.05153 2.82586 0
M  V30 30558 H 2927.41 1.34073 3.47964 0
M  V30 30559 N 2929.59 -1.07653 1.15103 0
M  V30 30560 C 2930.82 -1.84455 0.948209 0
M  V30 30561 C 2931.24 -1.81377 -0.498401 0
M  V30 30562 O 2930.6 -1.20447 -1.35507 0
M  V30 30563 C 2930.65 -3.29578 1.46324 0
M  V30 30564 O 2929.75 -4.07078 0.660414 0
M  V30 30565 H 2929.1 -0.571275 0.338438 0
M  V30 30566 H 2931.63 -1.35825 1.53012 0
M  V30 30567 H 2931.64 -3.80414 1.47475 0
M  V30 30568 H 2930.31 -3.31134 2.51641 0
M  V30 30569 H 2928.89 -3.65917 0.718281 0
M  V30 30570 N 2931.07 -0.947348 -1.25949 0
M  V30 30571 C 2932.32 -0.59703 -1.9308 0
M  V30 30572 C 2932.64 0.867641 -1.74634 0
M  V30 30573 O 2931.91 1.61718 -1.10562 0
M  V30 30574 H 2930.49 -0.217817 -0.714538 0
M  V30 30575 H 2933.15 -1.20401 -1.53263 0
M  V30 30576 H 2932.25 -0.820093 -3.01133 0
M  V30 30577 N 2932.55 1.40444 -0.715075 0
M  V30 30578 C 2933.78 2.05731 -0.262576 0
M  V30 30579 C 2934.2 1.5352 1.08688 0
M  V30 30580 O 2933.56 0.670358 1.68451 0
M  V30 30581 C 2933.61 3.59718 -0.252013 0
M  V30 30582 O 2932.71 4.05206 0.766927 0
M  V30 30583 H 2932.05 0.652431 -0.123409 0
M  V30 30584 H 2934.58 1.79852 -0.975413 0
M  V30 30585 H 2934.59 4.07902 -0.0895254 0
M  V30 30586 H 2933.27 3.97085 -1.23679 0
M  V30 30587 H 2931.84 3.68484 0.572204 0
M  V30 30588 N 2934.03 0.461222 1.507 0
M  V30 30589 C 2935.27 -0.0973054 2.02566 0
M  V30 30590 C 2935.61 -1.40254 1.34322 0
M  V30 30591 O 2934.88 -1.88842 0.465726 0
M  V30 30592 C 2935.17 -0.29136 3.58919 0
M  V30 30593 C 2935.02 1.0342 4.37749 0
M  V30 30594 C 2936.34 -1.0504 4.27381 0
M  V30 30595 H 2933.46 -0.0338896 0.73622 0
M  V30 30596 H 2936.1 0.604887 1.80114 0
M  V30 30597 H 2934.25 -0.889473 3.78181 0
M  V30 30598 H 2935.92 1.66813 4.30083 0
M  V30 30599 H 2934.16 1.6332 4.01882 0
M  V30 30600 H 2934.83 0.852181 5.45382 0
M  V30 30601 H 2937.31 -0.543531 4.12535 0
M  V30 30602 H 2936.19 -1.15497 5.36611 0
M  V30 30603 H 2936.45 -2.08453 3.89871 0
M  V30 30604 N 2935.51 -1.56408 0.193449 0
M  V30 30605 C 2936.73 -2.02358 -0.454517 0
M  V30 30606 C 2937.16 -1.07271 -1.54514 0
M  V30 30607 O 2936.51 -0.055928 -1.81214 0
M  V30 30608 C 2936.56 -3.46761 -0.989408 0
M  V30 30609 O 2935.67 -3.54787 -2.10238 0
M  V30 30610 H 2935.01 -0.655419 -0.106405 0
M  V30 30611 H 2937.54 -2.02331 0.303842 0
M  V30 30612 H 2937.55 -3.86518 -1.30643 0
M  V30 30613 H 2936.22 -4.15461 -0.19101 0
M  V30 30614 H 2934.8 -3.26903 -1.79413 0
M  V30 30615 N 2936.98 0.0801629 -1.57396 0
M  V30 30616 C 2938.26 0.81342 -1.77884 0
M  V30 30617 C 2938.64 1.96204 -0.778913 0
M  V30 30618 O 2937.99 2.27712 0.189643 0
M  V30 30619 C 2938.2 1.29415 -3.24119 0
M  V30 30620 C 2939.55 1.73091 -3.87717 0
M  V30 30621 O 2940.57 1.39002 -3.27959 0
M  V30 30622 O 2939.43 2.36176 -4.92832 0
M  V30 30623 H 2936.52 0.389125 -0.729733 0
M  V30 30624 H 2939.07 0.0608868 -1.69591 0
M  V30 30625 H 2937.84 0.471879 -3.88444 0
M  V30 30626 H 2937.47 2.10824 -3.37104 0
M  V30 30627 N 2938.46 1.53634 0.351355 0
M  V30 30628 C 2939.41 1.77454 1.43157 0
M  V30 30629 C 2940.4 0.629486 1.48075 0
M  V30 30630 O 2941.59 0.888626 1.53077 0
M  V30 30631 C 2938.72 1.9806 2.80405 0
M  V30 30632 C 2937.8 3.18608 2.7991 0
M  V30 30633 N 2938.19 4.40236 2.49049 0
M  V30 30634 C 2936.49 3.19619 3.11062 0
M  V30 30635 C 2937.19 5.2205 2.56591 0
M  V30 30636 N 2936.17 4.58585 2.91892 0
M  V30 30637 H 2939.97 2.69091 1.18183 0
M  V30 30638 H 2937.49 1.52452 0.559658 0
M  V30 30639 H 2939.48 2.13257 3.58227 0
M  V30 30640 H 2938.14 1.0766 3.06332 0
M  V30 30641 H 2939.15 4.67722 2.22387 0
M  V30 30642 H 2935.83 2.3916 3.42211 0
M  V30 30643 H 2937.22 6.29105 2.35957 0
M  V30 30644 N 2939.94 -0.611943 1.45234 0
M  V30 30645 C 2940.87 -1.73371 1.56413 0
M  V30 30646 C 2941.85 -1.64937 0.415925 0
M  V30 30647 O 2943.04 -1.83403 0.63851 0
M  V30 30648 C 2940.17 -3.11963 1.52632 0
M  V30 30649 C 2939.12 -3.35204 2.66125 0
M  V30 30650 C 2938.45 -4.74024 2.47398 0
M  V30 30651 C 2939.75 -3.25884 4.08163 0
M  V30 30652 H 2941.44 -1.64272 2.5031 0
M  V30 30653 H 2938.99 -0.788882 1.20468 0
M  V30 30654 H 2940.94 -3.90232 1.5905 0
M  V30 30655 H 2939.66 -3.21891 0.552621 0
M  V30 30656 H 2938.32 -2.59323 2.59128 0
M  V30 30657 H 2937.97 -4.80679 1.48177 0
M  V30 30658 H 2937.67 -4.9053 3.23503 0
M  V30 30659 H 2939.19 -5.54499 2.55663 0
M  V30 30660 H 2940.61 -3.94033 4.16427 0
M  V30 30661 H 2939.01 -3.53921 4.84623 0
M  V30 30662 H 2940.08 -2.23389 4.30378 0
M  V30 30663 N 2941.42 -1.32452 -0.854063 0
M  V30 30664 C 2942.66 -1.23228 -1.61067 0
M  V30 30665 C 2943 0.205315 -1.93112 0
M  V30 30666 O 2942.27 1.14262 -1.57399 0
M  V30 30667 C 2942.56 -2.09254 -2.93061 0
M  V30 30668 C 2942.41 -3.61395 -2.67794 0
M  V30 30669 C 2943.73 -1.95413 -3.94337 0
M  V30 30670 H 2940.85 -0.448996 -0.584441 0
M  V30 30671 H 2943.49 -1.62403 -0.98616 0
M  V30 30672 H 2941.64 -1.75974 -3.4636 0
M  V30 30673 H 2943.31 -4.04891 -2.21045 0
M  V30 30674 H 2941.55 -3.84031 -2.01749 0
M  V30 30675 H 2942.22 -4.16914 -3.61783 0
M  V30 30676 H 2944.7 -2.24568 -3.50297 0
M  V30 30677 H 2943.58 -2.5788 -4.8455 0
M  V30 30678 H 2943.84 -0.921941 -4.3238 0
M  V30 30679 N 2942.9 1.07041 -1.15672 0
M  V30 30680 C 2943.83 2.16308 -0.879386 0
M  V30 30681 C 2944.81 1.69235 0.171281 0
M  V30 30682 O 2945.99 1.94184 0.0249834 0
M  V30 30683 C 2943.12 3.45309 -0.371368 0
M  V30 30684 C 2942.08 4.05849 -1.35907 0
M  V30 30685 C 2941.4 5.29968 -0.709771 0
M  V30 30686 C 2942.7 4.4551 -2.72614 0
M  V30 30687 H 2944.4 2.39765 -1.79313 0
M  V30 30688 H 2941.94 1.15232 -0.863578 0
M  V30 30689 H 2943.9 4.21077 -0.164872 0
M  V30 30690 H 2942.62 3.21447 0.577849 0
M  V30 30691 H 2941.28 3.32128 -1.55198 0
M  V30 30692 H 2940.93 5.024 0.245694 0
M  V30 30693 H 2940.63 5.71431 -1.36896 0
M  V30 30694 H 2942.15 6.0844 -0.513122 0
M  V30 30695 H 2943.57 5.12393 -2.5715 0
M  V30 30696 H 2941.96 4.97934 -3.34936 0
M  V30 30697 H 2943.03 3.56728 -3.2844 0
M  V30 30698 N 2944.38 0.954014 1.25445 0
M  V30 30699 C 2945.33 0.444452 2.23626 0
M  V30 30700 C 2946.31 -0.465966 1.54005 0
M  V30 30701 O 2947.5 -0.299119 1.74454 0
M  V30 30702 C 2944.63 -0.277115 3.4218 0
M  V30 30703 C 2943.72 0.651337 4.19069 0
M  V30 30704 N 2944.11 1.78271 4.73343 0
M  V30 30705 C 2942.41 0.459416 4.43628 0
M  V30 30706 C 2943.11 2.36233 5.31572 0
M  V30 30707 N 2942.08 1.64893 5.17988 0
M  V30 30708 H 2945.88 1.3079 2.63194 0
M  V30 30709 H 2943.4 0.811427 1.40676 0
M  V30 30710 H 2945.4 -0.659294 4.11654 0
M  V30 30711 H 2944.06 -1.13717 3.04136 0
M  V30 30712 H 2945.07 2.16458 4.70496 0
M  V30 30713 H 2941.74 -0.357812 4.15964 0
M  V30 30714 H 2943.13 3.3163 5.84355 0
M  V30 30715 N 2945.85 -1.40063 0.722513 0
M  V30 30716 C 2947.26 -1.83642 0.336539 0
M  V30 30717 C 2947.62 -1.60392 -1.12999 0
M  V30 30718 O 2946.74 -1.08845 -1.87034 0
M  V30 30719 C 2947.34 -3.33372 0.604044 0
M  V30 30720 C 2945.89 -3.75418 0.271703 0
M  V30 30721 C 2945.04 -2.63201 0.872945 0
M  V30 30722 H 2947.99 -1.29232 0.921131 0
M  V30 30723 H 2948.01 -3.80283 -0.128404 0
M  V30 30724 H 2947.53 -3.50262 1.67147 0
M  V30 30725 H 2945.63 -3.6412 -0.790391 0
M  V30 30726 H 2945.74 -4.73264 0.74554 0
M  V30 30727 H 2944.1 -2.52921 0.300475 0
M  V30 30728 H 2944.89 -2.82901 1.94478 0
M  V30 30729 N 2947.33 -0.469207 -1.50453 0
M  V30 30730 C 2948.26 0.362207 -2.2632 0
M  V30 30731 C 2949.28 0.958728 -1.31576 0
M  V30 30732 O 2950.47 0.847454 -1.571 0
M  V30 30733 C 2947.57 1.52181 -3.0281 0
M  V30 30734 C 2946.74 1.03842 -4.24895 0
M  V30 30735 C 2945.8 2.07186 -4.83695 0
M  V30 30736 O 2944.82 1.65324 -5.44662 0
M  V30 30737 N 2946.03 3.39977 -4.70528 0
M  V30 30738 H 2948.79 -0.288177 -2.98311 0
M  V30 30739 H 2946.35 -0.299884 -1.59098 0
M  V30 30740 H 2948.34 2.21005 -3.39026 0
M  V30 30741 H 2946.91 2.07693 -2.33629 0
M  V30 30742 H 2946.13 0.176134 -3.93806 0
M  V30 30743 H 2947.42 0.693346 -5.04054 0
M  V30 30744 H 2946.82 3.76698 -4.22037 0
M  V30 30745 H 2945.38 4.04603 -5.11018 0
M  V30 30746 N 2948.81 1.56303 -0.201741 0
M  V30 30747 C 2949.74 2.22396 0.711511 0
M  V30 30748 C 2950.72 1.18919 1.21623 0
M  V30 30749 O 2951.91 1.47446 1.26386 0
M  V30 30750 C 2949.04 2.88848 1.92831 0
M  V30 30751 C 2947.99 3.98626 1.55824 0
M  V30 30752 C 2947.32 4.52276 2.8522 0
M  V30 30753 C 2948.62 5.16694 0.763158 0
M  V30 30754 H 2950.31 2.98969 0.160521 0
M  V30 30755 H 2947.86 1.43801 0.0757663 0
M  V30 30756 H 2949.81 3.33769 2.57247 0
M  V30 30757 H 2948.53 2.0969 2.50395 0
M  V30 30758 H 2947.19 3.54406 0.937638 0
M  V30 30759 H 2946.84 3.69872 3.40887 0
M  V30 30760 H 2946.54 5.26353 2.61201 0
M  V30 30761 H 2948.06 4.99903 3.50613 0
M  V30 30762 H 2949.48 5.58119 1.31057 0
M  V30 30763 H 2947.87 5.9688 0.62083 0
M  V30 30764 H 2948.94 4.84333 -0.234407 0
M  V30 30765 N 2950.29 -0.0718147 1.57436 0
M  V30 30766 C 2951.25 -1.06973 2.02705 0
M  V30 30767 C 2952.25 -1.31595 0.924085 0
M  V30 30768 O 2953.44 -1.27316 1.18896 0
M  V30 30769 C 2950.57 -2.41338 2.40767 0
M  V30 30770 H 2951.77 -0.679568 2.92099 0
M  V30 30771 H 2949.32 -0.317538 1.5304 0
M  V30 30772 H 2950.05 -2.85187 1.54399 0
M  V30 30773 H 2949.84 -2.24809 3.21253 0
M  V30 30774 H 2951.33 -3.13068 2.76366 0
M  V30 30775 N 2951.77 -1.53818 -0.343203 0
M  V30 30776 C 2952.99 -1.75019 -1.10345 0
M  V30 30777 C 2953.41 -0.489507 -1.82344 0
M  V30 30778 O 2952.77 0.538855 -1.74363 0
M  V30 30779 C 2952.82 -2.93052 -2.11667 0
M  V30 30780 O 2952.54 -4.14244 -1.42596 0
M  V30 30781 C 2954.04 -3.26307 -3.00065 0
M  V30 30782 H 2951.26 -0.584782 -0.329046 0
M  V30 30783 H 2953.8 -2.00643 -0.395304 0
M  V30 30784 H 2951.96 -2.69758 -2.78046 0
M  V30 30785 H 2952.37 -4.805 -2.10286 0
M  V30 30786 H 2953.85 -4.12245 -3.67094 0
M  V30 30787 H 2954.32 -2.42625 -3.66101 0
M  V30 30788 H 2954.93 -3.51608 -2.39274 0
M  V30 30789 N 2953.24 0.604233 -1.45557 0
M  V30 30790 C 2954.49 1.36045 -1.49453 0
M  V30 30791 C 2954.81 1.94504 -0.138967 0
M  V30 30792 O 2954.08 1.77351 0.832065 0
M  V30 30793 H 2952.66 0.505055 -0.55039 0
M  V30 30794 H 2955.32 0.709276 -1.81536 0
M  V30 30795 H 2954.42 2.17817 -2.23522 0
M  V30 30796 N 2954.72 1.32903 0.847027 0
M  V30 30797 C 2955.67 1.22445 1.97763 0
M  V30 30798 C 2956.66 0.127576 1.68919 0
M  V30 30799 O 2957.87 0.291004 1.77632 0
M  V30 30800 H 2954.24 0.37976 0.649066 0
M  V30 30801 H 2956.22 2.18048 2.0371 0
M  V30 30802 C 2954.96 0.972184 3.33832 0
M  V30 30803 H 2954.29 1.80844 3.56561 0
M  V30 30804 H 2955.73 0.939282 4.13465 0
M  V30 30805 C 2954.19 -0.325 3.35329 0
M  V30 30806 O 2954.72 -1.33438 3.78889 0
M  V30 30807 N 2952.92 -0.349667 2.88489 0
M  V30 30808 H 2952.47 0.472281 2.53234 0
M  V30 30809 H 2952.43 -1.21743 2.89872 0
M  V30 30810 N 2956.2 -1.06426 1.16238 0
M  V30 30811 C 2957.45 -1.792 0.943065 0
M  V30 30812 C 2957.77 -1.87162 -0.52921 0
M  V30 30813 O 2957.03 -1.35845 -1.40871 0
M  V30 30814 C 2957.33 -3.23747 1.51402 0
M  V30 30815 C 2956.99 -3.35867 3.00839 0
M  V30 30816 C 2955.66 -3.38882 3.41632 0
M  V30 30817 C 2958.01 -3.37897 3.96831 0
M  V30 30818 C 2955.34 -3.41542 4.77039 0
M  V30 30819 C 2957.69 -3.42094 5.32122 0
M  V30 30820 C 2956.35 -3.43391 5.72398 0
M  V30 30821 H 2955.62 -0.655738 0.345092 0
M  V30 30822 H 2958.27 -1.25168 1.44932 0
M  V30 30823 H 2956.57 -3.80622 0.92918 0
M  V30 30824 H 2958.27 -3.78651 1.32002 0
M  V30 30825 H 2954.86 -3.34225 2.68312 0
M  V30 30826 H 2959.05 -3.3478 3.66382 0
M  V30 30827 H 2954.3 -3.40849 5.07575 0
M  V30 30828 H 2958.48 -3.42612 6.06292 0
M  V30 30829 H 2956.1 -3.45204 6.77302 0
M  V30 30830 N 2957.68 -0.960653 -1.24937 0
M  V30 30831 C 2958.93 -0.614332 -1.92117 0
M  V30 30832 C 2959.24 0.853443 -1.75999 0
M  V30 30833 O 2960.45 1.30998 -2.37806 0
M  V30 30834 C 2958.9 -1.04808 -3.44301 0
M  V30 30835 C 2958.51 -2.53881 -3.69118 0
M  V30 30836 C 2960.25 -0.77457 -4.17374 0
M  V30 30837 C 2958.16 -2.91025 -5.14838 0
M  V30 30838 H 2957.09 -0.226057 -0.719315 0
M  V30 30839 H 2959.74 -1.16591 -1.41699 0
M  V30 30840 H 2958.12 -0.424859 -3.93714 0
M  V30 30841 H 2959.3 -3.21273 -3.30333 0
M  V30 30842 H 2957.61 -2.78767 -3.09318 0
M  V30 30843 H 2960.21 -1.02817 -5.24722 0
M  V30 30844 H 2960.55 0.289119 -4.15295 0
M  V30 30845 H 2961.09 -1.35842 -3.73887 0
M  V30 30846 H 2957.83 -3.96436 -5.22033 0
M  V30 30847 H 2957.35 -2.28311 -5.54648 0
M  V30 30848 H 2959.02 -2.80545 -5.83012 0
M  V30 30849 N 2959.16 1.39677 -0.729931 0
M  V30 30850 C 2960.41 1.9985 -0.272569 0
M  V30 30851 C 2960.72 1.58573 1.14516 0
M  V30 30852 O 2961.92 2.11546 1.70178 0
M  V30 30853 C 2960.38 3.57245 -0.436385 0
M  V30 30854 C 2959.99 4.07487 -1.86168 0
M  V30 30855 C 2961.73 4.24481 -0.0405425 0
M  V30 30856 C 2959.64 5.57436 -1.97531 0
M  V30 30857 H 2958.57 0.747584 -0.0981559 0
M  V30 30858 H 2961.22 1.59739 -0.903084 0
M  V30 30859 H 2959.6 3.95126 0.262945 0
M  V30 30860 H 2960.78 3.80951 -2.59255 0
M  V30 30861 H 2959.09 3.52896 -2.21027 0
M  V30 30862 H 2961.69 5.34598 -0.104531 0
M  V30 30863 H 2962.03 4.04024 1.0035 0
M  V30 30864 H 2962.56 3.91755 -0.690842 0
M  V30 30865 H 2959.3 5.82766 -3.00106 0
M  V30 30866 H 2958.82 5.85791 -1.28874 0
M  V30 30867 H 2960.5 6.22768 -1.75411 0
M  V30 30868 N 2960.63 0.47718 1.50202 0
M  V30 30869 C 2961.58 -0.31382 2.28657 0
M  V30 30870 C 2962.55 -0.981778 1.33979 0
M  V30 30871 O 2963.74 -0.993043 1.62921 0
M  V30 30872 C 2960.88 -1.38633 3.1603 0
M  V30 30873 C 2959.99 -0.73254 4.25744 0
M  V30 30874 C 2959.12 -1.78346 5.00366 0
M  V30 30875 C 2958.16 -1.11025 6.01947 0
M  V30 30876 N 2957.3 -2.10429 6.69824 0
M  V30 30877 H 2962.14 0.361497 2.95799 0
M  V30 30878 H 2959.68 0.190119 1.45866 0
M  V30 30879 H 2961.64 -2.01988 3.65043 0
M  V30 30880 H 2960.27 -2.03073 2.50921 0
M  V30 30881 H 2959.32 0.0137214 3.80398 0
M  V30 30882 H 2960.63 -0.201425 4.98393 0
M  V30 30883 H 2959.78 -2.49266 5.53129 0
M  V30 30884 H 2958.52 -2.34839 4.27436 0
M  V30 30885 H 2957.53 -0.386701 5.48438 0
M  V30 30886 H 2958.75 -0.552129 6.76852 0
M  V30 30887 H 2956.7 -2.65928 5.99682 0
M  V30 30888 H 2956.62 -1.62319 7.38369 0
M  V30 30889 H 2957.88 -2.80711 7.27201 0
M  V30 30890 N 2962.11 -1.56194 0.210027 0
M  V30 30891 C 2963.08 -2.1853 -0.691193 0
M  V30 30892 C 2964.08 -1.1439 -1.13011 0
M  V30 30893 O 2965.27 -1.3969 -1.04078 0
M  V30 30894 C 2962.4 -2.79937 -1.94546 0
M  V30 30895 H 2963.59 -2.99535 -0.1479 0
M  V30 30896 H 2961.14 -1.5625 -0.0395968 0
M  V30 30897 H 2961.88 -2.02771 -2.5309 0
M  V30 30898 H 2961.66 -3.56187 -1.63931 0
M  V30 30899 H 2963.15 -3.27755 -2.58779 0
M  V30 30900 N 2963.59 0.0634645 -1.57472 0
M  V30 30901 C 2964.84 0.762161 -1.87933 0
M  V30 30902 C 2965.17 1.76802 -0.803408 0
M  V30 30903 O 2964.44 1.93614 0.185434 0
M  V30 30904 C 2964.73 1.46269 -3.29055 0
M  V30 30905 C 2964.58 0.472676 -4.4731 0
M  V30 30906 C 2965.9 2.40552 -3.68541 0
M  V30 30907 H 2963.02 0.275612 -0.683525 0
M  V30 30908 H 2965.66 0.0252317 -1.89983 0
M  V30 30909 H 2963.81 2.09084 -3.27439 0
M  V30 30910 H 2965.48 -0.150909 -4.61053 0
M  V30 30911 H 2963.73 -0.211263 -4.33285 0
M  V30 30912 H 2964.4 1.00062 -5.42855 0
M  V30 30913 H 2966.87 1.87808 -3.71305 0
M  V30 30914 H 2965.75 2.86566 -4.68157 0
M  V30 30915 H 2966.01 3.25726 -2.98923 0
M  V30 30916 N 2965.07 1.53998 0.33504 0
M  V30 30917 C 2966.31 1.72846 1.07219 0
M  V30 30918 C 2966.67 0.490108 1.86053 0
M  V30 30919 O 2965.96 -0.517384 1.84482 0
M  V30 30920 C 2966.16 2.93713 2.03635 0
M  V30 30921 C 2965.99 4.29184 1.3428 0
M  V30 30922 C 2964.76 4.93534 1.08409 0
M  V30 30923 C 2966.95 5.08584 0.764613 0
M  V30 30924 N 2964.94 6.1286 0.357235 0
M  V30 30925 C 2966.31 6.1977 0.168767 0
M  V30 30926 C 2968.36 4.93422 0.666296 0
M  V30 30927 C 2967.06 7.17448 -0.515842 0
M  V30 30928 C 2969.09 5.914 -0.00458985 0
M  V30 30929 C 2968.45 7.0193 -0.589429 0
M  V30 30930 H 2964.55 0.685434 0.376436 0
M  V30 30931 H 2967.14 1.91441 0.354744 0
M  V30 30932 H 2965.31 2.76604 2.72663 0
M  V30 30933 H 2967.04 3.01242 2.70251 0
M  V30 30934 H 2963.79 4.53248 1.37343 0
M  V30 30935 H 2964.22 6.76999 0.00828581 0
M  V30 30936 H 2968.86 4.08127 1.10419 0
M  V30 30937 H 2966.58 8.0231 -0.965598 0
M  V30 30938 H 2970.16 5.81745 -0.0801468 0
M  V30 30939 H 2969.04 7.76442 -1.10032 0
M  V30 30940 N 2966.55 -0.596505 1.45875 0
M  V30 30941 C 2967.48 -1.71702 1.58243 0
M  V30 30942 C 2968.46 -1.64486 0.433395 0
M  V30 30943 O 2969.64 -1.82716 0.657927 0
M  V30 30944 C 2966.77 -3.10326 1.55932 0
M  V30 30945 C 2965.73 -3.32362 2.69665 0
M  V30 30946 C 2965.05 -4.71373 2.52412 0
M  V30 30947 C 2966.35 -3.21536 4.11597 0
M  V30 30948 H 2968.05 -1.61608 2.52038 0
M  V30 30949 H 2965.59 -0.776061 1.21298 0
M  V30 30950 H 2967.55 -3.88523 1.6318 0
M  V30 30951 H 2966.27 -3.21287 0.586731 0
M  V30 30952 H 2964.93 -2.5656 2.61864 0
M  V30 30953 H 2964.58 -4.79081 1.53267 0
M  V30 30954 H 2964.28 -4.87071 3.28687 0
M  V30 30955 H 2965.8 -5.51756 2.6153 0
M  V30 30956 H 2967.21 -3.89594 4.20582 0
M  V30 30957 H 2965.61 -3.48761 4.8835 0
M  V30 30958 H 2966.68 -2.18812 4.32723 0
M  V30 30959 N 2968.02 -1.3335 -0.839967 0
M  V30 30960 C 2969.44 -1.22218 -1.41137 0
M  V30 30961 C 2969.79 0.159364 -1.95552 0
M  V30 30962 O 2968.91 1.0589 -1.88723 0
M  V30 30963 C 2969.51 -2.21274 -2.56561 0
M  V30 30964 C 2968.07 -2.13985 -3.09657 0
M  V30 30965 C 2967.21 -2.08821 -1.82453 0
M  V30 30966 H 2970.16 -1.44965 -0.645828 0
M  V30 30967 H 2970.18 -1.81982 -3.3416 0
M  V30 30968 H 2969.7 -3.21815 -2.16926 0
M  V30 30969 H 2967.8 -1.16742 -3.53839 0
M  V30 30970 H 2967.91 -3.04479 -3.69905 0
M  V30 30971 H 2966.27 -1.5428 -2.02657 0
M  V30 30972 H 2967.06 -3.11168 -1.45016 0
M  V30 30973 N 2969.5 1.05808 -1.16801 0
M  V30 30974 C 2970.75 1.78344 -0.950674 0
M  V30 30975 C 2971.07 1.8787 0.522491 0
M  V30 30976 O 2970.34 1.39094 1.37948 0
M  V30 30977 H 2968.92 0.660594 -0.348748 0
M  V30 30978 H 2971.58 1.27788 -1.47161 0
M  V30 30979 H 2970.68 2.80246 -1.37364 0
M  V30 30980 N 2970.98 0.967265 1.24426 0
M  V30 30981 C 2972.21 0.646103 1.97079 0
M  V30 30982 C 2972.63 -0.777635 1.71273 0
M  V30 30983 O 2971.99 -1.52774 0.976206 0
M  V30 30984 C 2972.04 0.926328 3.48499 0
M  V30 30985 O 2971.14 0.0115378 4.12398 0
M  V30 30986 H 2970.48 0.244315 0.617419 0
M  V30 30987 H 2973.01 1.2973 1.58213 0
M  V30 30988 H 2973.02 0.857689 3.98883 0
M  V30 30989 H 2971.7 1.96393 3.6661 0
M  V30 30990 H 2970.27 0.133461 3.72661 0
M  V30 30991 N 2972.46 -1.39288 0.737328 0
M  V30 30992 C 2973.39 -2.29123 0.0592509 0
M  V30 30993 C 2974.4 -1.46935 -0.701 0
M  V30 30994 O 2975.59 -1.69984 -0.544778 0
M  V30 30995 C 2972.69 -3.25594 -0.940301 0
M  V30 30996 C 2971.87 -4.36735 -0.241086 0
M  V30 30997 C 2970.93 -5.135 -1.14907 0
M  V30 30998 O 2969.95 -5.65751 -0.625684 0
M  V30 30999 N 2971.15 -5.24925 -2.4786 0
M  V30 31000 H 2973.92 -2.87957 0.830698 0
M  V30 31001 H 2971.48 -1.50894 0.586744 0
M  V30 31002 H 2973.47 -3.73825 -1.55039 0
M  V30 31003 H 2972.04 -2.67774 -1.61294 0
M  V30 31004 H 2971.26 -3.90351 0.549509 0
M  V30 31005 H 2972.55 -5.08218 0.243389 0
M  V30 31006 H 2971.95 -4.83996 -2.92856 0
M  V30 31007 H 2970.5 -5.76587 -3.03959 0
M  V30 31008 N 2973.94 -0.485139 -1.49947 0
M  V30 31009 C 2975.17 0.062246 -2.06806 0
M  V30 31010 C 2975.58 1.32253 -1.34739 0
M  V30 31011 O 2974.94 1.77581 -0.420867 0
M  V30 31012 C 2974.99 0.336033 -3.59935 0
M  V30 31013 O 2974.71 -0.874279 -4.29288 0
M  V30 31014 C 2976.21 0.928826 -4.3346 0
M  V30 31015 H 2973.43 -0.013359 -0.670867 0
M  V30 31016 H 2975.97 -0.677951 -1.92935 0
M  V30 31017 H 2974.13 1.02618 -3.73562 0
M  V30 31018 H 2974.54 -0.627424 -5.20734 0
M  V30 31019 H 2976.02 1.07008 -5.41529 0
M  V30 31020 H 2976.49 1.92258 -3.94884 0
M  V30 31021 H 2977.1 0.276631 -4.24399 0
M  V30 31022 N 2975.42 1.56081 -0.218307 0
M  V30 31023 C 2976.33 2.2377 0.704562 0
M  V30 31024 C 2977.34 1.24427 1.2163 0
M  V30 31025 O 2978.52 1.5723 1.2586 0
M  V30 31026 C 2975.58 2.90185 1.89719 0
M  V30 31027 C 2974.64 4.04863 1.42775 0
M  V30 31028 C 2973.88 4.68101 2.56353 0
M  V30 31029 O 2974.1 4.30319 3.74409 0
M  V30 31030 O 2973.03 5.57152 2.2774 0
M  V30 31031 H 2976.86 3.03289 0.157954 0
M  V30 31032 H 2974.44 1.49395 0.0120016 0
M  V30 31033 H 2976.33 3.32117 2.59376 0
M  V30 31034 H 2975 2.13628 2.43197 0
M  V30 31035 H 2973.91 3.67506 0.699295 0
M  V30 31036 H 2975.24 4.83152 0.939389 0
M  V30 31037 N 2976.89 -0.0551124 1.57504 0
M  V30 31038 C 2977.82 -1.06368 2.07865 0
M  V30 31039 C 2978.8 -1.39342 0.97559 0
M  V30 31040 O 2979.99 -1.4868 1.24932 0
M  V30 31041 C 2977.12 -2.37235 2.53647 0
M  V30 31042 C 2976.07 -2.18572 3.67982 0
M  V30 31043 C 2975.4 -3.54969 3.99876 0
M  V30 31044 C 2976.7 -1.59321 4.97407 0
M  V30 31045 H 2978.39 -0.644544 2.9238 0
M  V30 31046 H 2975.94 -0.308595 1.40655 0
M  V30 31047 H 2977.89 -3.08098 2.87495 0
M  V30 31048 H 2976.62 -2.8116 1.66182 0
M  V30 31049 H 2975.28 -1.50146 3.34442 0
M  V30 31050 H 2974.92 -3.96495 3.09517 0
M  V30 31051 H 2974.62 -3.43315 4.76873 0
M  V30 31052 H 2976.15 -4.27237 4.36235 0
M  V30 31053 H 2977.56 -2.20069 5.29379 0
M  V30 31054 H 2975.96 -1.58316 5.7884 0
M  V30 31055 H 2977.03 -0.556296 4.81698 0
M  V30 31056 N 2978.37 -1.54173 -0.326869 0
M  V30 31057 C 2979.33 -1.82612 -1.38512 0
M  V30 31058 C 2980.33 -0.697796 -1.4487 0
M  V30 31059 O 2981.52 -0.966104 -1.44955 0
M  V30 31060 C 2978.66 -1.98318 -2.77278 0
M  V30 31061 H 2979.85 -2.77161 -1.14551 0
M  V30 31062 H 2977.4 -1.4584 -0.562174 0
M  V30 31063 H 2978.14 -1.05969 -3.06498 0
M  V30 31064 H 2977.92 -2.8042 -2.74056 0
M  V30 31065 H 2979.41 -2.21779 -3.53841 0
M  V30 31066 N 2979.85 0.58876 -1.4619 0
M  V30 31067 C 2981.1 1.34337 -1.50454 0
M  V30 31068 C 2981.41 1.9496 -0.15813 0
M  V30 31069 O 2982.62 2.71386 -0.0785395 0
M  V30 31070 C 2981.07 2.43436 -2.65079 0
M  V30 31071 C 2980.68 1.89143 -4.06114 0
M  V30 31072 C 2982.43 3.20278 -2.78608 0
M  V30 31073 C 2980.33 2.95836 -5.12089 0
M  V30 31074 H 2979.26 0.504987 -0.559914 0
M  V30 31075 H 2981.91 0.628984 -1.72383 0
M  V30 31076 H 2980.3 3.17646 -2.36468 0
M  V30 31077 H 2981.47 1.21517 -4.44489 0
M  V30 31078 H 2979.78 1.24988 -3.97199 0
M  V30 31079 H 2982.38 3.99892 -3.54951 0
M  V30 31080 H 2982.72 3.72483 -1.85909 0
M  V30 31081 H 2983.26 2.53173 -3.06836 0
M  V30 31082 H 2980 2.48525 -6.06561 0
M  V30 31083 H 2979.52 3.6197 -4.78265 0
M  V30 31084 H 2981.2 3.59893 -5.37667 0
M  V30 31085 N 2981.33 1.33794 0.832883 0
M  V30 31086 C 2982.57 1.25775 1.59086 0
M  V30 31087 C 2982.91 -0.174567 1.93414 0
M  V30 31088 O 2982.18 -1.11743 1.59197 0
M  V30 31089 C 2982.46 2.1389 2.89695 0
M  V30 31090 C 2982.32 3.65609 2.62011 0
M  V30 31091 C 2983.64 2.01661 3.91179 0
M  V30 31092 H 2980.76 0.458237 0.577224 0
M  V30 31093 H 2983.4 1.63952 0.960199 0
M  V30 31094 H 2981.55 1.81462 3.43517 0
M  V30 31095 H 2983.22 4.08357 2.14575 0
M  V30 31096 H 2981.46 3.87192 1.95614 0
M  V30 31097 H 2982.13 4.22616 3.55105 0
M  V30 31098 H 2984.61 2.30113 3.4668 0
M  V30 31099 H 2983.49 2.65556 4.80386 0
M  V30 31100 H 2983.75 0.990612 4.30859 0
M  V30 31101 N 2982.81 -1.05187 1.1736 0
M  V30 31102 C 2984.03 -1.81864 0.986561 0
M  V30 31103 C 2984.45 -1.82979 -0.465187 0
M  V30 31104 O 2983.81 -1.25707 -1.32303 0
M  V30 31105 C 2983.86 -3.27979 1.52027 0
M  V30 31106 O 2983.58 -3.27032 2.91517 0
M  V30 31107 C 2985.08 -4.21344 1.37782 0
M  V30 31108 H 2982.3 -0.573078 0.349031 0
M  V30 31109 H 2984.84 -1.3264 1.5565 0
M  V30 31110 H 2983 -3.74474 0.992353 0
M  V30 31111 H 2983.41 -4.18482 3.16185 0
M  V30 31112 H 2984.89 -5.21849 1.79939 0
M  V30 31113 H 2985.36 -4.37997 0.324907 0
M  V30 31114 H 2985.97 -3.80704 1.8959 0
M  V30 31115 N 2984.28 -0.97385 -1.23911 0
M  V30 31116 C 2985.25 -0.513819 -2.23366 0
M  V30 31117 C 2986.25 0.392992 -1.55924 0
M  V30 31118 O 2987.44 0.187596 -1.73187 0
M  V30 31119 C 2984.57 0.255092 -3.39944 0
M  V30 31120 H 2985.76 -1.39312 -2.65579 0
M  V30 31121 H 2983.31 -0.759063 -1.36631 0
M  V30 31122 H 2984.05 1.15122 -3.03179 0
M  V30 31123 H 2983.83 -0.395742 -3.90098 0
M  V30 31124 H 2985.32 0.565769 -4.1375 0
M  V30 31125 N 2985.76 1.38895 -0.744705 0
M  V30 31126 C 2987.04 1.94327 -0.222807 0
M  V30 31127 C 2987.42 1.68073 1.27728 0
M  V30 31128 O 2986.77 1.01433 2.04753 0
M  V30 31129 C 2986.98 3.44365 -0.566896 0
M  V30 31130 C 2988.32 4.21384 -0.521605 0
M  V30 31131 O 2989.35 3.52607 -0.504661 0
M  V30 31132 O 2988.21 5.43975 -0.52469 0
M  V30 31133 H 2985.3 0.825832 -0.0439404 0
M  V30 31134 H 2987.85 1.4834 -0.824223 0
M  V30 31135 H 2986.62 3.56947 -1.60327 0
M  V30 31136 H 2986.24 3.9755 0.0629878 0
M  V30 31137 N 2987.24 0.493084 1.49688 0
M  V30 31138 C 2988.49 -0.0542359 2.02427 0
M  V30 31139 C 2988.82 -1.37723 1.37341 0
M  V30 31140 O 2988.07 -1.89322 0.495557 0
M  V30 31141 C 2988.37 -0.263473 3.56428 0
M  V30 31142 C 2988.04 0.980537 4.40109 0
M  V30 31143 C 2986.7 1.32156 4.62697 0
M  V30 31144 C 2989.05 1.8078 4.88844 0
M  V30 31145 C 2986.38 2.4895 5.31263 0
M  V30 31146 C 2988.73 2.9672 5.58695 0
M  V30 31147 C 2987.39 3.31212 5.7953 0
M  V30 31148 H 2986.66 -0.0198463 0.740734 0
M  V30 31149 H 2989.31 0.651634 1.80072 0
M  V30 31150 H 2987.62 -1.0518 3.77418 0
M  V30 31151 H 2989.31 -0.701279 3.9482 0
M  V30 31152 H 2985.9 0.704889 4.22764 0
M  V30 31153 H 2990.09 1.55749 4.71228 0
M  V30 31154 H 2985.34 2.7592 5.45599 0
M  V30 31155 H 2989.52 3.61154 5.95433 0
M  V30 31156 H 2987.14 4.21817 6.32436 0
M  V30 31157 N 2988.72 -1.55963 0.226582 0
M  V30 31158 C 2989.96 -1.98728 -0.404352 0
M  V30 31159 C 2990.3 -1.11421 -1.59057 0
M  V30 31160 O 2989.57 -0.173005 -1.93729 0
M  V30 31161 C 2989.86 -3.50309 -0.834019 0
M  V30 31162 C 2989.71 -4.48388 0.356183 0
M  V30 31163 C 2991.03 -4.06426 -1.68838 0
M  V30 31164 H 2988.15 -0.722494 -0.145502 0
M  V30 31165 H 2990.79 -1.8722 0.323824 0
M  V30 31166 H 2988.94 -3.60246 -1.45447 0
M  V30 31167 H 2990.61 -4.50455 0.994399 0
M  V30 31168 H 2988.85 -4.22051 1.00277 0
M  V30 31169 H 2989.52 -5.51999 0.0125303 0
M  V30 31170 H 2992 -3.99463 -1.16482 0
M  V30 31171 H 2990.88 -5.12793 -1.95791 0
M  V30 31172 H 2991.14 -3.53619 -2.65341 0
M  V30 31173 N 2990.2 0.0467589 -1.57531 0
M  V30 31174 C 2991.14 1.05281 -2.05389 0
M  V30 31175 C 2992.11 1.36983 -0.93941 0
M  V30 31176 O 2993.3 1.47624 -1.2088 0
M  V30 31177 C 2990.44 2.35404 -2.52347 0
M  V30 31178 C 2989.55 2.10015 -3.77515 0
M  V30 31179 C 2988.69 3.3388 -4.13156 0
M  V30 31180 C 2987.73 3.03967 -5.31291 0
M  V30 31181 N 2986.86 4.20233 -5.62449 0
M  V30 31182 H 2991.7 0.637737 -2.91096 0
M  V30 31183 H 2989.24 0.303297 -1.43939 0
M  V30 31184 H 2991.2 3.11409 -2.77634 0
M  V30 31185 H 2989.83 2.74667 -1.69582 0
M  V30 31186 H 2988.88 1.24587 -3.59419 0
M  V30 31187 H 2990.19 1.83937 -4.63647 0
M  V30 31188 H 2989.35 4.18265 -4.39476 0
M  V30 31189 H 2988.08 3.63056 -3.2564 0
M  V30 31190 H 2987.09 2.17982 -5.04741 0
M  V30 31191 H 2988.31 2.76087 -6.20445 0
M  V30 31192 H 2986.26 4.49393 -4.77893 0
M  V30 31193 H 2986.18 3.97517 -6.43053 0
M  V30 31194 H 2987.45 5.05542 -5.93336 0
M  V30 31195 N 2991.67 1.54344 0.318688 0
M  V30 31196 C 2992.92 1.71995 1.0536 0
M  V30 31197 C 2993.24 0.503188 1.89017 0
M  V30 31198 O 2994.44 0.561132 2.65638 0
M  V30 31199 C 2992.9 3.04234 1.92276 0
M  V30 31200 C 2992.51 4.3333 1.13707 0
M  V30 31201 C 2994.25 3.31246 2.65473 0
M  V30 31202 C 2992.16 5.56629 1.99797 0
M  V30 31203 H 2991.09 0.640977 0.39707 0
M  V30 31204 H 2993.74 1.80836 0.311566 0
M  V30 31205 H 2992.12 2.89312 2.70397 0
M  V30 31206 H 2993.29 4.59032 0.403224 0
M  V30 31207 H 2991.61 4.13119 0.521696 0
M  V30 31208 H 2994.21 4.20561 3.30201 0
M  V30 31209 H 2994.55 2.49339 3.3337 0
M  V30 31210 H 2995.08 3.47058 1.94411 0
M  V30 31211 H 2991.82 6.41152 1.364 0
M  V30 31212 H 2991.34 5.35138 2.70902 0
M  V30 31213 H 2993.02 5.93218 2.58267 0
M  V30 31214 N 2993.15 -0.580999 1.465 0
M  V30 31215 C 2994.38 -1.36316 1.55247 0
M  V30 31216 C 2994.79 -1.88212 0.193092 0
M  V30 31217 O 2994.13 -1.64379 -0.82008 0
M  V30 31218 C 2994.2 -2.5853 2.49805 0
M  V30 31219 C 2993.86 -2.28089 3.96011 0
M  V30 31220 C 2994.86 -1.86821 4.85174 0
M  V30 31221 C 2992.54 -2.40181 4.41156 0
M  V30 31222 C 2994.54 -1.58042 6.17496 0
M  V30 31223 C 2992.22 -2.11014 5.73512 0
M  V30 31224 C 2993.22 -1.7001 6.61503 0
M  V30 31225 O 2992.91 -1.41201 7.91402 0
M  V30 31226 H 2992.64 -0.422727 0.527521 0
M  V30 31227 H 2995.19 -0.713105 1.92624 0
M  V30 31228 H 2993.42 -3.26346 2.07449 0
M  V30 31229 H 2995.11 -3.20599 2.4894 0
M  V30 31230 H 2995.88 -1.76993 4.51551 0
M  V30 31231 H 2991.76 -2.71059 3.72891 0
M  V30 31232 H 2995.3 -1.25962 6.86134 0
M  V30 31233 H 2991.2 -2.20468 6.06683 0
M  V30 31234 H 2991.97 -1.55032 8.03684 0
M  V30 31235 N 2994.63 -1.34234 -0.825776 0
M  V30 31236 C 2995.91 -1.17014 -1.56739 0
M  V30 31237 C 2996.29 0.258388 -2.09513 0
M  V30 31238 O 2995.64 1.25931 -1.90666 0
M  V30 31239 C 2995.85 -2.2223 -2.691 0
M  V30 31240 C 2997.19 -2.57061 -3.37942 0
M  V30 31241 O 2998.22 -2.20997 -2.79354 0
M  V30 31242 O 2997.08 -3.18998 -4.43737 0
M  V30 31243 H 2994.17 -0.453418 -0.691622 0
M  V30 31244 H 2996.72 -1.45857 -0.867396 0
M  V30 31245 H 2995.49 -3.18128 -2.27838 0
M  V30 31246 H 2995.11 -1.94547 -3.46752 0
M  V30 31247 N 2996.11 1.04563 -1.17917 0
M  V30 31248 C 2997.04 2.14394 -0.92507 0
M  V30 31249 C 2998.02 1.69561 0.135345 0
M  V30 31250 O 2999.2 1.94193 -0.0162115 0
M  V30 31251 C 2996.33 3.44443 -0.44453 0
M  V30 31252 C 2995.29 4.02875 -1.44486 0
M  V30 31253 C 2994.61 5.28343 -0.822025 0
M  V30 31254 C 2995.91 4.39627 -2.82003 0
M  V30 31255 H 2997.61 2.35908 -1.84358 0
M  V30 31256 H 2995.15 1.13374 -0.887826 0
M  V30 31257 H 2997.11 4.20633 -0.254152 0
M  V30 31258 H 2995.83 3.22601 0.509536 0
M  V30 31259 H 2994.49 3.28761 -1.62208 0
M  V30 31260 H 2994.14 5.02808 0.139072 0
M  V30 31261 H 2993.84 5.68399 -1.48986 0
M  V30 31262 H 2995.36 6.07215 -0.642065 0
M  V30 31263 H 2996.78 5.06823 -2.67961 0
M  V30 31264 H 2995.17 4.90717 -3.45423 0
M  V30 31265 H 2996.24 3.49681 -3.35933 0
M  V30 31266 N 2997.59 0.980408 1.23393 0
M  V30 31267 C 2998.83 0.657322 1.93542 0
M  V30 31268 C 2999.19 -0.794446 1.74793 0
M  V30 31269 O 3000.39 -1.22836 2.39092 0
M  V30 31270 C 2998.66 1.03707 3.42023 0
M  V30 31271 S 3000.22 0.830455 4.3087 0
M  V30 31272 H 2997.04 0.240728 0.669007 0
M  V30 31273 H 2999.64 1.26005 1.49476 0
M  V30 31274 H 2998.35 2.09028 3.53179 0
M  V30 31275 H 2997.88 0.425628 3.91091 0
M  V30 31276 H 2999.89 -0.285632 4.95377 0
M  V30 31277 N 2999.06 -1.38498 0.75206 0
M  V30 31278 C 3000.31 -2.00448 0.307994 0
M  V30 31279 C 3000.64 -1.5956 -1.10699 0
M  V30 31280 O 2999.92 -0.832422 -1.75787 0
M  V30 31281 C 3000.2 -3.57534 0.429155 0
M  V30 31282 C 3000.05 -4.0839 1.88514 0
M  V30 31283 C 3001.37 -4.39738 -0.178365 0
M  V30 31284 H 2998.49 -0.728226 0.113385 0
M  V30 31285 H 3001.13 -1.64463 0.951418 0
M  V30 31286 H 2999.28 -3.88319 -0.118627 0
M  V30 31287 H 3000.96 -3.88254 2.49111 0
M  V30 31288 H 2999.2 -3.61314 2.40072 0
M  V30 31289 H 2999.87 -5.17492 1.92108 0
M  V30 31290 H 3002.35 -4.15097 0.288793 0
M  V30 31291 H 3001.22 -5.48863 -0.0633384 0
M  V30 31292 H 3001.48 -4.23571 -1.26648 0
M  V30 31293 N 3000.54 -0.501015 -1.49424 0
M  V30 31294 C 3001.82 0.106516 -1.9531 0
M  V30 31295 C 3002.2 1.54126 -1.44251 0
M  V30 31296 O 3001.55 2.18873 -0.656276 0
M  V30 31297 C 3001.76 0.0191358 -3.48995 0
M  V30 31298 C 3003.11 0.193055 -4.24161 0
M  V30 31299 O 3004.13 0.0943217 -3.56075 0
M  V30 31300 O 3002.99 0.395773 -5.45065 0
M  V30 31301 H 3000.08 0.0952924 -0.821492 0
M  V30 31302 H 3002.63 -0.563554 -1.60069 0
M  V30 31303 H 3001.4 -0.98142 -3.78793 0
M  V30 31304 H 3001.02 0.729351 -3.90853 0
M  V30 31305 N 3002.02 1.5584 -0.234849 0
M  V30 31306 C 3002.98 2.19602 0.65634 0
M  V30 31307 C 3003.98 1.16173 1.11177 0
M  V30 31308 O 3005.17 1.41328 1.01843 0
M  V30 31309 C 3002.31 2.82997 1.90067 0
M  V30 31310 H 3003.5 2.99732 0.100228 0
M  V30 31311 H 3001.05 1.56293 0.0147338 0
M  V30 31312 H 3001.79 2.06771 2.49832 0
M  V30 31313 H 3001.57 3.5875 1.58244 0
M  V30 31314 H 3003.06 3.3183 2.53532 0
M  V30 31315 N 3003.5 -0.038404 1.57553 0
M  V30 31316 C 3004.43 -1.04158 2.08982 0
M  V30 31317 C 3005.41 -1.383 0.990314 0
M  V30 31318 O 3006.6 -1.47347 1.26502 0
M  V30 31319 C 3003.73 -2.34531 2.56149 0
M  V30 31320 C 3002.68 -2.14656 3.70279 0
M  V30 31321 C 3002.01 -3.50708 4.03618 0
M  V30 31322 C 3003.31 -1.54036 4.99069 0
M  V30 31323 H 3005 -0.613497 2.93047 0
M  V30 31324 H 3002.55 -0.293659 1.40974 0
M  V30 31325 H 3004.5 -3.05032 2.90747 0
M  V30 31326 H 3003.22 -2.79382 1.69155 0
M  V30 31327 H 3001.88 -1.46591 3.36016 0
M  V30 31328 H 3001.53 -3.9319 3.13705 0
M  V30 31329 H 3001.23 -3.38238 4.80488 0
M  V30 31330 H 3002.75 -4.22586 4.40742 0
M  V30 31331 H 3004.17 -2.14442 5.31684 0
M  V30 31332 H 3002.56 -1.52168 5.80487 0
M  V30 31333 H 3003.63 -0.505174 4.82261 0
M  V30 31334 N 3004.98 -1.54511 -0.310498 0
M  V30 31335 C 3006.2 -1.77642 -1.07043 0
M  V30 31336 C 3006.63 -0.529728 -1.80487 0
M  V30 31337 O 3005.99 0.519331 -1.73703 0
M  V30 31338 C 3006.03 -2.97756 -2.03406 0
M  V30 31339 O 3005.14 -2.70215 -3.1154 0
M  V30 31340 H 3004.48 -0.588254 -0.307983 0
M  V30 31341 H 3007.01 -2.0157 -0.350813 0
M  V30 31342 H 3007.02 -3.25464 -2.46043 0
M  V30 31343 H 3005.69 -3.88157 -1.49354 0
M  V30 31344 H 3004.27 -2.53495 -2.73486 0
M  V30 31345 N 3006.46 0.573222 -1.46806 0
M  V30 31346 C 3007.87 1.15536 -1.46657 0
M  V30 31347 C 3008.22 1.95045 -0.212535 0
M  V30 31348 O 3007.34 2.05315 0.683723 0
M  V30 31349 C 3007.94 2.10193 -2.65715 0
M  V30 31350 C 3006.5 2.63711 -2.68577 0
M  V30 31351 C 3005.64 1.39767 -2.395 0
M  V30 31352 H 3008.59 0.360653 -1.54548 0
M  V30 31353 H 3008.62 2.93813 -2.41773 0
M  V30 31354 H 3008.13 1.52297 -3.5697 0
M  V30 31355 H 3006.23 3.2545 -1.81419 0
M  V30 31356 H 3006.34 3.05798 -3.68814 0
M  V30 31357 H 3004.71 1.69901 -1.89752 0
M  V30 31358 H 3005.49 0.836884 -3.32943 0
M  V30 31359 N 3007.93 1.3467 0.818645 0
M  V30 31360 C 3009.16 1.30354 1.60672 0
M  V30 31361 C 3009.58 -0.121513 1.88409 0
M  V30 31362 O 3008.93 -1.06988 1.47851 0
M  V30 31363 C 3008.98 2.09631 2.94512 0
M  V30 31364 O 3008.71 3.46578 2.67984 0
M  V30 31365 C 3010.21 2.12761 3.88906 0
M  V30 31366 H 3007.43 0.448266 0.499298 0
M  V30 31367 H 3009.97 1.77347 1.01825 0
M  V30 31368 H 3008.13 1.66268 3.49905 0
M  V30 31369 H 3008.54 3.87609 3.53355 0
M  V30 31370 H 3010.01 2.72645 4.79967 0
M  V30 31371 H 3010.49 1.12313 4.24597 0
M  V30 31372 H 3011.1 2.56231 3.39449 0
M  V30 31373 N 3009.41 -1.03936 1.1847 0
M  V30 31374 C 3010.66 -1.77159 0.980864 0
M  V30 31375 C 3010.99 -1.88242 -0.489392 0
M  V30 31376 O 3010.24 -1.38802 -1.37958 0
M  V30 31377 C 3010.54 -3.20463 1.58235 0
M  V30 31378 C 3010.21 -3.29411 3.07895 0
M  V30 31379 C 3008.87 -3.3156 3.48743 0
M  V30 31380 C 3011.22 -3.29404 4.03909 0
M  V30 31381 C 3008.55 -3.31346 4.84176 0
M  V30 31382 C 3010.9 -3.3073 5.39259 0
M  V30 31383 C 3009.56 -3.31172 5.79553 0
M  V30 31384 H 3008.83 -0.648271 0.358924 0
M  V30 31385 H 3011.48 -1.22066 1.47554 0
M  V30 31386 H 3009.79 -3.78566 1.00971 0
M  V30 31387 H 3011.48 -3.75766 1.40004 0
M  V30 31388 H 3008.07 -3.28459 2.75341 0
M  V30 31389 H 3012.26 -3.26934 3.73401 0
M  V30 31390 H 3007.51 -3.30006 5.1469 0
M  V30 31391 H 3011.69 -3.29675 6.13423 0
M  V30 31392 H 3009.31 -3.3076 6.84472 0
M  V30 31393 N 3010.89 -0.986938 -1.22871 0
M  V30 31394 C 3012.12 -0.676715 -1.95203 0
M  V30 31395 C 3012.53 0.76161 -1.73194 0
M  V30 31396 O 3011.87 1.5249 -1.02433 0
M  V30 31397 C 3011.93 -0.895364 -3.48172 0
M  V30 31398 C 3011.6 -2.31702 -3.93908 0
M  V30 31399 C 3012.59 -3.29614 -4.02058 0
M  V30 31400 C 3010.28 -2.64986 -4.26718 0
M  V30 31401 C 3012.27 -4.58886 -4.42383 0
M  V30 31402 C 3009.96 -3.94479 -4.66722 0
M  V30 31403 C 3010.96 -4.91241 -4.74522 0
M  V30 31404 O 3010.65 -6.18421 -5.13625 0
M  V30 31405 H 3010.38 -0.249931 -0.628101 0
M  V30 31406 H 3012.93 -1.32276 -1.57137 0
M  V30 31407 H 3011.16 -0.19214 -3.86222 0
M  V30 31408 H 3012.85 -0.581303 -4.01716 0
M  V30 31409 H 3013.62 -3.05231 -3.76907 0
M  V30 31410 H 3009.5 -1.90377 -4.19854 0
M  V30 31411 H 3013.04 -5.34412 -4.48386 0
M  V30 31412 H 3008.94 -4.18654 -4.91324 0
M  V30 31413 H 3009.7 -6.2227 -5.31717 0
M  V30 31414 N 3012.37 1.38098 -0.759394 0
M  V30 31415 C 3013.61 1.99985 -0.318148 0
M  V30 31416 C 3013.94 1.60282 1.10182 0
M  V30 31417 O 3013.2 0.834555 1.77013 0
M  V30 31418 C 3013.5 3.5521 -0.395061 0
M  V30 31419 C 3013.16 4.14643 -1.77151 0
M  V30 31420 C 3011.82 4.30588 -2.14819 0
M  V30 31421 C 3014.18 4.47369 -2.67415 0
M  V30 31422 C 3011.5 4.76558 -3.42212 0
M  V30 31423 C 3013.86 4.94758 -3.94205 0
M  V30 31424 C 3012.52 5.0891 -4.31934 0
M  V30 31425 H 3011.79 0.731798 -0.116419 0
M  V30 31426 H 3014.44 1.65057 -0.971009 0
M  V30 31427 H 3012.74 3.9031 0.341358 0
M  V30 31428 H 3014.44 4.00985 -0.0351426 0
M  V30 31429 H 3011.03 4.0265 -1.46871 0
M  V30 31430 H 3015.21 4.34646 -2.39577 0
M  V30 31431 H 3010.47 4.85701 -3.71355 0
M  V30 31432 H 3014.64 5.19049 -4.64285 0
M  V30 31433 H 3012.27 5.44291 -5.30708 0
M  V30 31434 N 3013.85 0.508932 1.49156 0
M  V30 31435 C 3014.78 -0.254429 2.3211 0
M  V30 31436 C 3015.76 -0.955087 1.40755 0
M  V30 31437 O 3016.94 -0.944954 1.69659 0
M  V30 31438 C 3014.07 -1.31455 3.21461 0
M  V30 31439 C 3013.03 -0.733294 4.21671 0
M  V30 31440 C 3012.35 -1.89451 5.00012 0
M  V30 31441 C 3013.65 0.280967 5.21544 0
M  V30 31442 H 3015.35 0.438002 2.96179 0
M  V30 31443 H 3012.89 0.212087 1.4243 0
M  V30 31444 H 3014.84 -1.85636 3.78308 0
M  V30 31445 H 3013.57 -2.03627 2.5535 0
M  V30 31446 H 3012.23 -0.213167 3.6598 0
M  V30 31447 H 3011.88 -2.60411 4.30343 0
M  V30 31448 H 3011.58 -1.51163 5.67824 0
M  V30 31449 H 3013.1 -2.44051 5.59706 0
M  V30 31450 H 3014.51 -0.172995 5.73039 0
M  V30 31451 H 3012.91 0.580111 5.97289 0
M  V30 31452 H 3013.98 1.19412 4.69967 0
M  V30 31453 N 3015.32 -1.55714 0.243111 0
M  V30 31454 C 3016.25 -2.24204 -0.652297 0
M  V30 31455 C 3017.23 -1.22102 -1.18428 0
M  V30 31456 O 3018.42 -1.50745 -1.22432 0
M  V30 31457 C 3015.55 -2.93859 -1.85105 0
M  V30 31458 C 3014.5 -4.02617 -1.45201 0
M  V30 31459 C 3013.83 -4.59679 -2.73129 0
M  V30 31460 C 3015.13 -5.18536 -0.625897 0
M  V30 31461 H 3016.82 -2.9929 -0.0811978 0
M  V30 31462 H 3014.37 -1.43951 -0.0376135 0
M  V30 31463 H 3016.32 -3.40472 -2.48308 0
M  V30 31464 H 3015.05 -2.16255 -2.44747 0
M  V30 31465 H 3013.71 -3.56768 -0.843343 0
M  V30 31466 H 3013.35 -3.7878 -3.3096 0
M  V30 31467 H 3013.05 -5.33094 -2.47154 0
M  V30 31468 H 3014.58 -5.09023 -3.37236 0
M  V30 31469 H 3015.99 -5.61398 -1.16213 0
M  V30 31470 H 3014.39 -5.98316 -0.462359 0
M  V30 31471 H 3015.46 -4.83541 0.362737 0
M  V30 31472 N 3016.8 0.030048 -1.57571 0
M  V30 31473 C 3018.21 0.576771 -1.77568 0
M  V30 31474 C 3018.56 1.75655 -0.874065 0
M  V30 31475 O 3017.69 2.16291 -0.0686504 0
M  V30 31476 C 3018.28 1.0531 -3.22018 0
M  V30 31477 C 3016.84 1.54534 -3.43214 0
M  V30 31478 C 3015.99 0.482985 -2.73061 0
M  V30 31479 H 3018.94 -0.196178 -1.57483 0
M  V30 31480 H 3018.96 1.92049 -3.28477 0
M  V30 31481 H 3018.47 0.194229 -3.87614 0
M  V30 31482 H 3016.58 2.4261 -2.82792 0
M  V30 31483 H 3016.69 1.59352 -4.51823 0
M  V30 31484 H 3015.05 0.937793 -2.36807 0
M  V30 31485 H 3015.84 -0.366401 -3.41339 0
M  V30 31486 N 3018.28 1.54674 0.3023 0
M  V30 31487 C 3019.51 1.78207 1.061 0
M  V30 31488 C 3019.93 0.539292 1.80203 0
M  V30 31489 O 3019.29 -0.510112 1.73976 0
M  V30 31490 C 3019.34 2.9883 2.01824 0
M  V30 31491 O 3018.44 2.71864 3.10103 0
M  V30 31492 H 3017.78 0.589879 0.304859 0
M  V30 31493 H 3020.31 2.01753 0.340118 0
M  V30 31494 H 3020.32 3.26764 2.44313 0
M  V30 31495 H 3019 3.88944 1.47293 0
M  V30 31496 H 3017.57 2.54942 2.72138 0
M  V30 31497 N 3019.76 -0.565428 1.47108 0
M  V30 31498 C 3020.98 -1.3534 1.57155 0
M  V30 31499 C 3021.41 -1.86817 0.21928 0
M  V30 31500 O 3020.77 -1.62522 -0.80351 0
M  V30 31501 C 3020.81 -2.50496 2.59392 0
M  V30 31502 O 3019.92 -3.52474 2.14092 0
M  V30 31503 H 3019.26 -0.402348 0.528216 0
M  V30 31504 H 3021.79 -0.684155 1.92822 0
M  V30 31505 H 3021.8 -2.97179 2.79551 0
M  V30 31506 H 3020.47 -2.12384 3.57583 0
M  V30 31507 H 3019.05 -3.12153 2.03997 0
M  V30 31508 N 3021.24 -1.35102 -0.811492 0
M  V30 31509 C 3022.18 -1.2762 -1.92306 0
M  V30 31510 C 3023.15 -0.14912 -1.65429 0
M  V30 31511 O 3024.34 -0.332007 -1.87889 0
M  V30 31512 C 3021.48 -1.04914 -3.28766 0
M  V30 31513 C 3020.59 -2.265 -3.67861 0
M  V30 31514 C 3019.73 -1.96983 -4.93327 0
M  V30 31515 C 3018.77 -3.14649 -5.25036 0
M  V30 31516 N 3017.9 -2.84941 -6.4168 0
M  V30 31517 H 3022.74 -2.22677 -1.98037 0
M  V30 31518 H 3020.28 -1.10697 -0.968736 0
M  V30 31519 H 3022.24 -0.897821 -4.07425 0
M  V30 31520 H 3020.87 -0.135208 -3.22517 0
M  V30 31521 H 3019.92 -2.52512 -2.84503 0
M  V30 31522 H 3021.23 -3.14378 -3.87257 0
M  V30 31523 H 3020.39 -1.78653 -5.798 0
M  V30 31524 H 3019.12 -1.06382 -4.75956 0
M  V30 31525 H 3018.13 -3.33562 -4.37055 0
M  V30 31526 H 3019.35 -4.06044 -5.44339 0
M  V30 31527 H 3017.3 -1.96929 -6.25744 0
M  V30 31528 H 3017.22 -3.66353 -6.61303 0
M  V30 31529 H 3018.49 -2.70141 -7.31194 0
M  V30 31530 N 3022.71 1.03306 -1.19019 0
M  V30 31531 C 3023.96 1.76037 -0.984573 0
M  V30 31532 C 3024.28 1.89469 0.485903 0
M  V30 31533 O 3025.48 2.59128 0.810233 0
M  V30 31534 C 3023.94 3.16537 -1.71266 0
M  V30 31535 C 3023.55 3.11174 -3.22296 0
M  V30 31536 C 3025.29 3.93592 -1.59013 0
M  V30 31537 C 3023.2 4.4658 -3.87712 0
M  V30 31538 H 3022.13 0.659898 -0.364761 0
M  V30 31539 H 3024.78 1.15646 -1.42472 0
M  V30 31540 H 3023.16 3.7737 -1.20032 0
M  V30 31541 H 3024.33 2.59747 -3.80616 0
M  V30 31542 H 3022.65 2.47616 -3.34776 0
M  V30 31543 H 3025.25 4.93741 -2.05241 0
M  V30 31544 H 3025.59 4.12736 -0.543607 0
M  V30 31545 H 3026.12 3.39351 -2.0757 0
M  V30 31546 H 3022.86 4.32641 -4.92445 0
M  V30 31547 H 3022.38 4.98079 -3.34181 0
M  V30 31548 H 3024.06 5.15475 -3.91017 0
M  V30 31549 N 3024.19 0.99344 1.22346 0
M  V30 31550 C 3025.61 0.704263 1.43221 0
M  V30 31551 C 3025.81 -0.724876 1.8801 0
M  V30 31552 O 3024.86 -1.49572 2.03432 0
M  V30 31553 C 3026.18 1.71029 2.47325 0
M  V30 31554 C 3027.73 1.7258 2.61123 0
M  V30 31555 C 3028.2 2.72048 3.68448 0
M  V30 31556 N 3029.69 2.70645 3.75906 0
M  V30 31557 C 3030.43 3.44274 4.58545 0
M  V30 31558 N 3029.92 4.27504 5.45171 0
M  V30 31559 N 3031.72 3.32977 4.5286 0
M  V30 31560 H 3023.87 1.91643 0.915798 0
M  V30 31561 H 3026.13 0.826534 0.464269 0
M  V30 31562 H 3025.84 2.73299 2.21361 0
M  V30 31563 H 3025.71 1.50359 3.45936 0
M  V30 31564 H 3028.1 0.710087 2.86429 0
M  V30 31565 H 3028.18 1.9732 1.62784 0
M  V30 31566 H 3027.82 3.73769 3.43888 0
M  V30 31567 H 3027.75 2.44578 4.66357 0
M  V30 31568 H 3030.24 2.10252 3.1401 0
M  V30 31569 H 3030.56 4.8051 6.05252 0
M  V30 31570 H 3028.9 4.31591 5.44751 0
M  V30 31571 H 3032.09 2.67396 3.8421 0
M  V30 31572 H 3032.26 3.90617 5.17032 0
M  V30 31573 N 3025.67 -1.37693 0.766707 0
M  V30 31574 C 3026.95 -1.93948 0.253695 0
M  V30 31575 C 3027.33 -1.70084 -1.25038 0
M  V30 31576 O 3026.68 -1.04677 -2.03113 0
M  V30 31577 C 3026.89 -3.4342 0.62161 0
M  V30 31578 C 3028.23 -4.20501 0.588578 0
M  V30 31579 O 3029.26 -3.51759 0.560693 0
M  V30 31580 O 3028.12 -5.43072 0.611166 0
M  V30 31581 H 3025.21 -0.825028 0.0570731 0
M  V30 31582 H 3027.76 -1.4701 0.847719 0
M  V30 31583 H 3026.53 -3.54351 1.65986 0
M  V30 31584 H 3026.15 -3.976 0.000266915 0
M  V30 31585 N 3027.15 -0.516835 -1.48884 0
M  V30 31586 C 3028.39 0.0220572 -2.02788 0
M  V30 31587 C 3028.73 1.35172 -1.39435 0
M  V30 31588 O 3028 1.86983 -0.535492 0
M  V30 31589 C 3028.29 0.157949 -3.59753 0
M  V30 31590 C 3028.14 -1.19596 -4.33609 0
M  V30 31591 C 3029.46 0.891058 -4.30985 0
M  V30 31592 H 3026.58 0.00654193 -0.736971 0
M  V30 31593 H 3029.22 -0.671318 -1.77745 0
M  V30 31594 H 3027.37 0.748501 -3.81221 0
M  V30 31595 H 3029.04 -1.82661 -4.23595 0
M  V30 31596 H 3027.28 -1.78123 -3.95544 0
M  V30 31597 H 3027.95 -1.05401 -5.41844 0
M  V30 31598 H 3030.43 0.390047 -4.14268 0
M  V30 31599 H 3029.31 0.955012 -5.40528 0
M  V30 31600 H 3029.57 1.9384 -3.97339 0
M  V30 31601 N 3028.63 1.55583 -0.251365 0
M  V30 31602 C 3029.85 2.03452 0.376151 0
M  V30 31603 C 3030.27 1.1305 1.51213 0
M  V30 31604 O 3029.63 0.145801 1.81917 0
M  V30 31605 C 3029.68 3.50633 0.879717 0
M  V30 31606 O 3029.4 4.37592 -0.210994 0
M  V30 31607 C 3030.9 4.14283 1.57747 0
M  V30 31608 H 3028.12 0.66509 0.0888606 0
M  V30 31609 H 3030.66 2.01004 -0.376532 0
M  V30 31610 H 3028.82 3.53601 1.58256 0
M  V30 31611 H 3029.23 5.24218 0.172111 0
M  V30 31612 H 3030.71 5.18945 1.88149 0
M  V30 31613 H 3031.18 3.61038 2.50097 0
M  V30 31614 H 3031.79 4.15251 0.919081 0
M  V30 31615 N 3030.1 -0.0216912 1.57585 0
M  V30 31616 C 3031.35 -0.711012 1.89607 0
M  V30 31617 C 3031.68 -1.74965 0.849566 0
M  V30 31618 O 3030.93 -1.95136 -0.148526 0
M  V30 31619 C 3031.23 -1.41073 3.2838 0
M  V30 31620 C 3030.9 -0.507376 4.48036 0
M  V30 31621 C 3029.56 -0.258587 4.80505 0
M  V30 31622 C 3031.91 0.115885 5.21071 0
M  V30 31623 C 3029.24 0.622116 5.83392 0
M  V30 31624 C 3031.59 0.984334 6.24895 0
M  V30 31625 C 3030.26 1.24251 6.55834 0
M  V30 31626 H 3029.53 -0.260178 0.693822 0
M  V30 31627 H 3032.17 0.029176 1.91478 0
M  V30 31628 H 3030.48 -2.22442 3.22532 0
M  V30 31629 H 3032.18 -1.94976 3.50407 0
M  V30 31630 H 3028.77 -0.711442 4.22654 0
M  V30 31631 H 3032.95 -0.0633455 4.9626 0
M  V30 31632 H 3028.21 0.830373 6.05735 0
M  V30 31633 H 3032.38 1.47375 6.80627 0
M  V30 31634 H 3030.01 1.92666 7.3538 0
M  V30 31635 N 3031.58 -1.54832 -0.294093 0
M  V30 31636 C 3032.51 -1.89263 -1.36754 0
M  V30 31637 C 3033.49 -0.752241 -1.52563 0
M  V30 31638 O 3034.68 -1.00858 -1.65956 0
M  V30 31639 C 3031.81 -2.14602 -2.73063 0
M  V30 31640 C 3030.76 -3.30445 -2.72011 0
M  V30 31641 C 3030.09 -3.41217 -4.11673 0
M  V30 31642 C 3031.39 -4.67379 -2.3314 0
M  V30 31643 H 3033.08 -2.7917 -1.08186 0
M  V30 31644 H 3030.63 -1.34322 -0.518991 0
M  V30 31645 H 3032.58 -2.37275 -3.48251 0
M  V30 31646 H 3031.31 -1.21473 -3.0317 0
M  V30 31647 H 3029.97 -3.07706 -1.9928 0
M  V30 31648 H 3029.61 -2.45592 -4.38969 0
M  V30 31649 H 3029.31 -4.19091 -4.11869 0
M  V30 31650 H 3030.84 -3.66159 -4.88631 0
M  V30 31651 H 3032.25 -4.89736 -2.98046 0
M  V30 31652 H 3030.65 -5.48016 -2.44537 0
M  V30 31653 H 3031.72 -4.67628 -1.28266 0
M  V30 31654 N 3033.06 0.557619 -1.47405 0
M  V30 31655 C 3034.31 1.31481 -1.54009 0
M  V30 31656 C 3034.64 1.93446 -0.202196 0
M  V30 31657 O 3033.89 1.78383 0.80487 0
M  V30 31658 C 3034.19 2.44571 -2.60614 0
M  V30 31659 C 3033.86 2.00439 -4.039 0
M  V30 31660 C 3032.52 1.8812 -4.42905 0
M  V30 31661 C 3034.87 1.66745 -4.93807 0
M  V30 31662 C 3032.2 1.40401 -5.69653 0
M  V30 31663 C 3034.55 1.20498 -6.21018 0
M  V30 31664 C 3033.21 1.06774 -6.58905 0
M  V30 31665 H 3032.48 0.481124 -0.56356 0
M  V30 31666 H 3035.13 0.625343 -1.81002 0
M  V30 31667 H 3033.44 3.19072 -2.27377 0
M  V30 31668 H 3035.13 3.02754 -2.62947 0
M  V30 31669 H 3031.72 2.1097 -3.73081 0
M  V30 31670 H 3035.91 1.75136 -4.64372 0
M  V30 31671 H 3031.16 1.2844 -5.97757 0
M  V30 31672 H 3035.34 0.93488 -6.90096 0
M  V30 31673 H 3032.96 0.695758 -7.57009 0
M  V30 31674 N 3034.54 1.35531 0.804316 0
M  V30 31675 C 3035.49 1.28674 1.93767 0
M  V30 31676 C 3036.48 0.181252 1.68428 0
M  V30 31677 O 3037.69 0.347369 1.76616 0
M  V30 31678 H 3034.06 0.400217 0.636655 0
M  V30 31679 H 3036.03 2.24419 1.96669 0
M  V30 31680 C 3034.78 1.0779 3.3057 0
M  V30 31681 H 3034.11 1.92096 3.50627 0
M  V30 31682 H 3035.55 1.07035 4.10268 0
M  V30 31683 C 3034 -0.218154 3.36193 0
M  V30 31684 O 3034.53 -1.21317 3.82943 0
M  V30 31685 N 3032.74 -0.25771 2.89455 0
M  V30 31686 H 3032.29 0.552606 2.51603 0
M  V30 31687 H 3032.25 -1.12459 2.93599 0
M  V30 31688 N 3036.02 -1.02674 1.19565 0
M  V30 31689 C 3036.93 -2.14472 0.950728 0
M  V30 31690 C 3037.94 -1.73767 -0.0899914 0
M  V30 31691 O 3039.12 -2.01175 0.0951417 0
M  V30 31692 C 3036.18 -3.43148 0.494977 0
M  V30 31693 C 3035.25 -3.98155 1.60534 0
M  V30 31694 C 3034.48 -5.2069 1.17124 0
M  V30 31695 O 3034.7 -5.70389 0.0356939 0
M  V30 31696 O 3033.64 -5.68587 1.97464 0
M  V30 31697 H 3037.46 -2.37998 1.88655 0
M  V30 31698 H 3035.05 -1.12884 0.978655 0
M  V30 31699 H 3036.93 -4.2066 0.249566 0
M  V30 31700 H 3035.6 -3.21063 -0.412378 0
M  V30 31701 H 3034.51 -3.21968 1.90493 0
M  V30 31702 H 3035.84 -4.24609 2.48933 0
M  V30 31703 N 3037.5 -0.999914 -1.21817 0
M  V30 31704 C 3038.41 -0.565199 -2.2769 0
M  V30 31705 C 3039.42 0.389368 -1.69588 0
M  V30 31706 O 3040.6 0.254464 -1.99786 0
M  V30 31707 C 3037.66 0.106371 -3.46537 0
M  V30 31708 C 3036.72 -0.892038 -4.1993 0
M  V30 31709 C 3035.96 -0.252421 -5.33103 0
M  V30 31710 O 3036.18 0.952004 -5.62399 0
M  V30 31711 O 3035.11 -0.960802 -5.94182 0
M  V30 31712 H 3038.94 -1.44618 -2.67057 0
M  V30 31713 H 3036.52 -0.768522 -1.28118 0
M  V30 31714 H 3038.41 0.482228 -4.18632 0
M  V30 31715 H 3037.08 0.961811 -3.09081 0
M  V30 31716 H 3035.99 -1.31896 -3.50078 0
M  V30 31717 H 3037.32 -1.7169 -4.61284 0
M  V30 31718 N 3038.97 1.37284 -0.773999 0
M  V30 31719 C 3040.22 1.99242 -0.338671 0
M  V30 31720 C 3040.54 1.61748 1.08916 0
M  V30 31721 O 3039.81 0.884001 1.74821 0
M  V30 31722 H 3038.39 0.736932 -0.122233 0
M  V30 31723 H 3041.05 1.67729 -0.992624 0
M  V30 31724 H 3040.15 3.09287 -0.418109 0
M  V30 31725 N 3040.45 0.524724 1.48608 0
M  V30 31726 C 3041.4 -0.240915 2.29539 0
M  V30 31727 C 3042.37 -0.938657 1.37034 0
M  V30 31728 O 3043.55 -0.940708 1.65998 0
M  V30 31729 C 3040.69 -1.28509 3.2028 0
M  V30 31730 C 3039.81 -0.596722 4.27859 0
M  V30 31731 C 3038.94 -1.62337 5.05787 0
M  V30 31732 C 3037.98 -0.91818 6.05174 0
M  V30 31733 N 3037.12 -1.89013 6.76179 0
M  V30 31734 H 3041.96 0.45542 2.94499 0
M  V30 31735 H 3039.49 0.236429 1.45188 0
M  V30 31736 H 3041.45 -1.90272 3.71285 0
M  V30 31737 H 3040.08 -1.94987 2.57254 0
M  V30 31738 H 3039.13 0.134735 3.80161 0
M  V30 31739 H 3040.45 -0.042763 4.98782 0
M  V30 31740 H 3039.6 -2.31543 5.60779 0
M  V30 31741 H 3038.34 -2.21122 4.34691 0
M  V30 31742 H 3037.34 -0.212023 5.49391 0
M  V30 31743 H 3038.57 -0.336514 6.78266 0
M  V30 31744 H 3036.52 -2.46715 6.07838 0
M  V30 31745 H 3036.43 -1.38746 7.43159 0
M  V30 31746 H 3037.7 -2.57433 7.35764 0
M  V30 31747 N 3041.93 -1.55447 0.259613 0
M  V30 31748 C 3042.88 -2.23314 -0.650661 0
M  V30 31749 C 3043.87 -1.22493 -1.17012 0
M  V30 31750 O 3045.08 -1.40469 -1.12554 0
M  V30 31751 H 3041.45 -0.716494 -0.228342 0
M  V30 31752 H 3043.42 -2.98349 -0.0552514 0
M  V30 31753 C 3042.17 -2.95599 -1.83075 0
M  V30 31754 H 3041.5 -3.72958 -1.44021 0
M  V30 31755 H 3042.94 -3.4643 -2.44463 0
M  V30 31756 C 3041.39 -2.00188 -2.70973 0
M  V30 31757 O 3041.92 -1.5431 -3.70879 0
M  V30 31758 N 3040.13 -1.67018 -2.3781 0
M  V30 31759 H 3039.68 -2.04522 -1.56616 0
M  V30 31760 H 3039.64 -1.03448 -2.96894 0
M  V30 31761 N 3043.41 0.0133338 -1.57594 0
M  V30 31762 C 3044.66 0.70007 -1.89161 0
M  V30 31763 C 3044.97 1.75671 -0.860178 0
M  V30 31764 O 3046.18 2.49714 -1.06561 0
M  V30 31765 C 3044.63 1.29629 -3.35745 0
M  V30 31766 C 3044.24 0.27517 -4.47154 0
M  V30 31767 C 3045.98 1.96199 -3.76439 0
M  V30 31768 C 3043.89 0.880623 -5.84807 0
M  V30 31769 H 3042.82 0.265234 -0.705809 0
M  V30 31770 H 3045.47 -0.0450252 -1.83445 0
M  V30 31771 H 3043.85 2.09161 -3.36255 0
M  V30 31772 H 3045.03 -0.494587 -4.58138 0
M  V30 31773 H 3043.34 -0.289329 -4.15394 0
M  V30 31774 H 3045.94 2.42378 -4.7661 0
M  V30 31775 H 3046.28 2.7869 -3.09254 0
M  V30 31776 H 3046.82 1.23419 -3.7817 0
M  V30 31777 H 3043.55 0.0947861 -6.55431 0
M  V30 31778 H 3043.07 1.61985 -5.77513 0
M  V30 31779 H 3044.75 1.38327 -6.3204 0
M  V30 31780 N 3044.89 1.54985 0.285878 0
M  V30 31781 C 3046.13 1.74191 1.01688 0
M  V30 31782 C 3046.45 0.543168 1.87907 0
M  V30 31783 O 3047.65 0.617352 2.64388 0
M  V30 31784 C 3046.11 3.08244 1.85779 0
M  V30 31785 C 3045.72 4.35644 1.0449 0
M  V30 31786 C 3047.46 3.36803 2.58388 0
M  V30 31787 C 3045.37 5.60741 1.87945 0
M  V30 31788 H 3044.3 0.649255 0.383385 0
M  V30 31789 H 3046.95 1.81456 0.273138 0
M  V30 31790 H 3045.33 2.94982 2.642 0
M  V30 31791 H 3046.51 4.59784 0.305766 0
M  V30 31792 H 3044.82 4.14133 0.43395 0
M  V30 31793 H 3047.42 4.2747 3.21206 0
M  V30 31794 H 3047.76 2.56355 3.28006 0
M  V30 31795 H 3048.29 3.51103 1.87006 0
M  V30 31796 H 3045.03 6.43901 1.2277 0
M  V30 31797 H 3044.55 5.40764 2.5949 0
M  V30 31798 H 3046.23 5.98563 2.45625 0
M  V30 31799 N 3046.36 -0.549794 1.47699 0
M  V30 31800 C 3047.61 -1.30856 1.54934 0
M  V30 31801 C 3047.94 -1.93017 0.214055 0
M  V30 31802 O 3047.22 -1.78259 -0.778062 0
M  V30 31803 C 3047.5 -2.41304 2.67291 0
M  V30 31804 C 3047.35 -1.83964 4.1046 0
M  V30 31805 C 3048.67 -3.4319 2.75515 0
M  V30 31806 H 3045.79 -0.474421 0.563998 0
M  V30 31807 H 3048.43 -0.61451 1.79788 0
M  V30 31808 H 3046.58 -3.00505 2.46229 0
M  V30 31809 H 3048.26 -1.28966 4.42906 0
M  V30 31810 H 3046.5 -1.14599 4.18389 0
M  V30 31811 H 3047.17 -2.63842 4.84862 0
M  V30 31812 H 3049.65 -2.93918 2.94536 0
M  V30 31813 H 3048.52 -4.17889 3.55893 0
M  V30 31814 H 3048.78 -4.02506 1.8287 0
M  V30 31815 N 3047.84 -1.35955 -0.797117 0
M  V30 31816 C 3049.09 -1.29089 -1.5498 0
M  V30 31817 C 3049.4 0.129969 -1.95168 0
M  V30 31818 O 3050.61 0.320962 -2.69596 0
M  V30 31819 C 3049.07 -2.26444 -2.79734 0
M  V30 31820 C 3048.67 -3.73925 -2.46747 0
M  V30 31821 C 3050.42 -2.28539 -3.57729 0
M  V30 31822 C 3048.33 -4.63077 -3.6785 0
M  V30 31823 H 3047.26 -0.479661 -0.581757 0
M  V30 31824 H 3049.91 -1.61274 -0.875381 0
M  V30 31825 H 3048.29 -1.87242 -3.48936 0
M  V30 31826 H 3049.46 -4.21817 -1.85491 0
M  V30 31827 H 3047.78 -3.7453 -1.81978 0
M  V30 31828 H 3050.37 -2.92359 -4.47694 0
M  V30 31829 H 3050.72 -1.29176 -3.95751 0
M  V30 31830 H 3051.25 -2.66318 -2.95499 0
M  V30 31831 H 3047.99 -5.63474 -3.34929 0
M  V30 31832 H 3047.51 -4.19906 -4.28298 0
M  V30 31833 H 3049.19 -4.78969 -4.34969 0
M  V30 31834 N 3049.32 1.02038 -1.20108 0
M  V30 31835 C 3050.25 2.10136 -0.889832 0
M  V30 31836 C 3051.23 1.61844 0.156567 0
M  V30 31837 O 3052.42 1.88475 0.0309861 0
M  V30 31838 C 3049.54 3.37056 -0.333286 0
M  V30 31839 C 3048.59 4.04233 -1.36008 0
M  V30 31840 S 3049.42 4.4864 -2.92373 0
M  V30 31841 C 3050.58 5.78767 -2.38285 0
M  V30 31842 H 3050.81 2.36214 -1.80527 0
M  V30 31843 H 3048.34 1.151 -1.02914 0
M  V30 31844 H 3050.3 4.10496 -0.0187229 0
M  V30 31845 H 3048.96 3.09057 0.560598 0
M  V30 31846 H 3048.16 4.95533 -0.919961 0
M  V30 31847 H 3047.76 3.37001 -1.62192 0
M  V30 31848 H 3050.05 6.53751 -1.7781 0
M  V30 31849 H 3050.99 6.2757 -3.27966 0
M  V30 31850 H 3051.4 5.34848 -1.8055 0
M  V30 31851 N 3050.8 1.00636 1.21285 0
M  V30 31852 C 3052.02 0.708476 1.94924 0
M  V30 31853 C 3052.45 -0.722752 1.7366 0
M  V30 31854 O 3051.81 -1.49591 1.02432 0
M  V30 31855 C 3051.85 1.03673 3.45376 0
M  V30 31856 O 3050.96 0.142733 4.12153 0
M  V30 31857 H 3050.3 0.263834 0.609334 0
M  V30 31858 H 3052.83 1.34697 1.54006 0
M  V30 31859 H 3052.84 0.984156 3.95952 0
M  V30 31860 H 3051.51 2.07957 3.60176 0
M  V30 31861 H 3050.09 0.251953 3.72048 0
M  V30 31862 N 3052.28 -1.36872 0.781268 0
M  V30 31863 C 3053.5 -2.04244 0.360434 0
M  V30 31864 C 3053.93 -1.58531 -1.0124 0
M  V30 31865 O 3053.28 -0.749965 -1.65061 0
M  V30 31866 C 3053.33 -3.58106 0.423353 0
M  V30 31867 O 3052.44 -4.08404 -0.572725 0
M  V30 31868 H 3051.78 -0.6458 0.154397 0
M  V30 31869 H 3054.31 -1.74994 1.06011 0
M  V30 31870 H 3054.32 -4.0701 0.284039 0
M  V30 31871 H 3052.99 -3.90732 1.42484 0
M  V30 31872 H 3051.57 -3.70794 -0.395744 0
M  V30 31873 N 3053.75 -0.532597 -1.48328 0
M  V30 31874 C 3054.72 0.218029 -2.28161 0
M  V30 31875 C 3055.72 0.865385 -1.35528 0
M  V30 31876 O 3056.91 0.725033 -1.58395 0
M  V30 31877 C 3054.04 1.31581 -3.14483 0
M  V30 31878 H 3055.23 -0.482917 -2.95986 0
M  V30 31879 H 3052.79 -0.28863 -1.53612 0
M  V30 31880 H 3053.52 2.04992 -2.51294 0
M  V30 31881 H 3053.31 0.856711 -3.82626 0
M  V30 31882 H 3054.8 1.8437 -3.74696 0
M  V30 31883 N 3055.23 1.55307 -0.267853 0
M  V30 31884 C 3056.48 1.99041 0.350308 0
M  V30 31885 C 3056.8 1.15761 1.56922 0
M  V30 31886 O 3056.07 0.24537 1.94357 0
M  V30 31887 H 3054.65 0.735169 0.132422 0
M  V30 31888 H 3057.31 1.91327 -0.371504 0
M  V30 31889 H 3056.41 3.05359 0.64515 0
M  V30 31890 N 3056.71 -0.00497598 1.57599 0
M  V30 31891 C 3057.94 -0.700964 1.94345 0
M  V30 31892 C 3058.35 -1.68112 0.868041 0
M  V30 31893 O 3057.69 -1.82983 -0.162108 0
M  V30 31894 C 3057.75 -1.49263 3.27049 0
M  V30 31895 C 3057.42 -0.674605 4.51993 0
M  V30 31896 C 3058.41 0.0355746 5.19888 0
M  V30 31897 C 3056.1 -0.622041 4.98433 0
M  V30 31898 C 3058.09 0.787357 6.32518 0
M  V30 31899 C 3055.78 0.13347 6.10954 0
M  V30 31900 C 3056.78 0.836907 6.77853 0
M  V30 31901 O 3056.47 1.5801 7.88218 0
M  V30 31902 H 3056.2 -0.200519 0.645576 0
M  V30 31903 H 3058.75 0.0407541 2.0536 0
M  V30 31904 H 3056.98 -2.27871 3.12428 0
M  V30 31905 H 3058.67 -2.07348 3.48943 0
M  V30 31906 H 3059.44 0.00408684 4.85 0
M  V30 31907 H 3055.32 -1.15909 4.46191 0
M  V30 31908 H 3058.86 1.33695 6.84669 0
M  V30 31909 H 3054.76 0.166796 6.45284 0
M  V30 31910 H 3055.53 1.49629 8.04707 0
M  V30 31911 N 3058.19 -1.55135 -0.277654 0
M  V30 31912 C 3059.44 -1.74728 -1.00763 0
M  V30 31913 C 3059.75 -0.553125 -1.87616 0
M  V30 31914 O 3060.96 -0.631364 -2.64057 0
M  V30 31915 C 3059.41 -3.09224 -1.84142 0
M  V30 31916 C 3059.02 -4.36192 -1.02178 0
M  V30 31917 C 3060.76 -3.38168 -2.56598 0
M  V30 31918 C 3058.67 -5.6173 -1.84968 0
M  V30 31919 H 3057.6 -0.651279 -0.379936 0
M  V30 31920 H 3060.25 -1.81598 -0.263511 0
M  V30 31921 H 3058.63 -2.96379 -2.62632 0
M  V30 31922 H 3059.81 -4.5994 -0.281378 0
M  V30 31923 H 3058.12 -4.14357 -0.411982 0
M  V30 31924 H 3060.72 -4.29167 -3.18935 0
M  V30 31925 H 3061.06 -2.58091 -3.26642 0
M  V30 31926 H 3061.6 -3.5209 -1.85141 0
M  V30 31927 H 3058.34 -6.44543 -1.19353 0
M  V30 31928 H 3057.86 -5.42132 -2.56618 0
M  V30 31929 H 3059.53 -5.99857 -2.42448 0
M  V30 31930 N 3059.67 0.541953 -1.47989 0
M  V30 31931 C 3060.9 1.32152 -1.58806 0
M  V30 31932 C 3061.3 1.87634 -0.242926 0
M  V30 31933 O 3060.65 1.66495 0.77621 0
M  V30 31934 C 3060.71 2.51816 -2.56571 0
M  V30 31935 C 3060.37 2.17509 -4.01919 0
M  V30 31936 C 3061.37 1.73892 -4.89957 0
M  V30 31937 C 3059.06 2.284 -4.47369 0
M  V30 31938 C 3061.05 1.41614 -6.21469 0
M  V30 31939 C 3058.74 1.95734 -5.78905 0
M  V30 31940 C 3059.73 1.52411 -6.65778 0
M  V30 31941 O 3059.42 1.20169 -7.94868 0
M  V30 31942 H 3059.15 0.408592 -0.538543 0
M  V30 31943 H 3061.71 0.661784 -1.94447 0
M  V30 31944 H 3059.94 3.20732 -2.16028 0
M  V30 31945 H 3061.63 3.13886 -2.57352 0
M  V30 31946 H 3062.39 1.64958 -4.56085 0
M  V30 31947 H 3058.27 2.61078 -3.79947 0
M  V30 31948 H 3061.82 1.07726 -6.89232 0
M  V30 31949 H 3057.71 2.04305 -6.12315 0
M  V30 31950 H 3058.48 1.33669 -8.07511 0
M  V30 31951 N 3061.15 1.36376 0.789896 0
M  V30 31952 C 3062.37 1.33732 1.57871 0
M  V30 31953 C 3062.79 -0.0815212 1.88624 0
M  V30 31954 O 3062.15 -1.03828 1.50087 0
M  V30 31955 C 3062.2 2.1583 2.89999 0
M  V30 31956 O 3061.92 3.52184 2.60572 0
M  V30 31957 C 3063.42 2.20962 3.84305 0
M  V30 31958 H 3060.64 0.458756 0.489677 0
M  V30 31959 H 3063.18 1.79467 0.980404 0
M  V30 31960 H 3061.34 1.73652 3.463 0
M  V30 31961 H 3061.75 3.95017 3.45053 0
M  V30 31962 H 3063.23 2.82765 4.74076 0
M  V30 31963 H 3063.7 1.21294 4.22119 0
M  V30 31964 H 3064.31 2.63374 3.33937 0
M  V30 31965 N 3062.62 -1.014 1.20647 0
M  V30 31966 C 3063.56 -2.10125 0.915429 0
M  V30 31967 C 3064.57 -1.62506 -0.097842 0
M  V30 31968 O 3065.76 -1.78 0.133508 0
M  V30 31969 C 3062.86 -3.37074 0.351364 0
M  V30 31970 C 3062.03 -4.13818 1.4168 0
M  V30 31971 C 3061.09 -5.19065 0.863591 0
M  V30 31972 O 3060.12 -5.47833 1.5449 0
M  V30 31973 N 3061.32 -5.79586 -0.325697 0
M  V30 31974 H 3064.08 -2.35679 1.85136 0
M  V30 31975 H 3061.64 -1.17811 1.1105 0
M  V30 31976 H 3063.64 -4.04687 -0.0329249 0
M  V30 31977 H 3062.21 -3.08749 -0.489187 0
M  V30 31978 H 3061.43 -3.41138 1.97532 0
M  V30 31979 H 3062.71 -4.61872 2.13428 0
M  V30 31980 H 3062.11 -5.58552 -0.896436 0
M  V30 31981 H 3060.67 -6.48535 -0.651594 0
M  V30 31982 N 3064.1 -1.01278 -1.2075 0
M  V30 31983 C 3065.03 -0.600104 -2.25657 0
M  V30 31984 C 3066.01 0.382951 -1.65733 0
M  V30 31985 O 3067.2 0.269222 -1.92325 0
M  V30 31986 C 3064.33 0.0662587 -3.47237 0
M  V30 31987 C 3063.28 -0.837384 -4.19728 0
M  V30 31988 C 3062.61 -0.0370042 -5.34687 0
M  V30 31989 C 3063.91 -2.14365 -4.76282 0
M  V30 31990 H 3065.6 -1.47705 -2.6043 0
M  V30 31991 H 3063.15 -0.711656 -1.25186 0
M  V30 31992 H 3065.1 0.366489 -4.19803 0
M  V30 31993 H 3063.82 0.977889 -3.11617 0
M  V30 31994 H 3062.48 -1.12156 -3.49022 0
M  V30 31995 H 3062.13 0.876157 -4.9531 0
M  V30 31996 H 3061.83 -0.638753 -5.84118 0
M  V30 31997 H 3063.36 0.256861 -6.10059 0
M  V30 31998 H 3064.77 -1.90605 -5.40687 0
M  V30 31999 H 3063.17 -2.69592 -5.36134 0
M  V30 32000 H 3064.24 -2.80923 -3.95235 0
M  V30 32001 N 3065.58 1.36456 -0.788516 0
M  V30 32002 C 3066.51 2.27817 -0.132229 0
M  V30 32003 C 3067.49 1.4718 0.69114 0
M  V30 32004 O 3068.67 1.76481 0.662313 0
M  V30 32005 C 3065.8 3.28666 0.818328 0
M  V30 32006 C 3064.85 4.26431 0.0768642 0
M  V30 32007 S 3065.68 5.20784 -1.24675 0
M  V30 32008 C 3066.84 6.2518 -0.300172 0
M  V30 32009 H 3067.07 2.83131 -0.906874 0
M  V30 32010 H 3064.6 1.42983 -0.582691 0
M  V30 32011 H 3066.56 3.87271 1.36131 0
M  V30 32012 H 3065.22 2.72266 1.56621 0
M  V30 32013 H 3064.41 4.97641 0.798103 0
M  V30 32014 H 3064.02 3.71902 -0.395612 0
M  V30 32015 H 3066.31 6.75491 0.521315 0
M  V30 32016 H 3067.25 7.01273 -0.980931 0
M  V30 32017 H 3067.66 5.64418 0.0960906 0
M  V30 32018 N 3067.06 0.540456 1.48043 0
M  V30 32019 C 3067.97 -0.220122 2.33565 0
M  V30 32020 C 3068.98 -0.928634 1.47148 0
M  V30 32021 O 3070.16 -0.901263 1.80109 0
M  V30 32022 C 3067.22 -1.24715 3.23492 0
M  V30 32023 C 3066.29 -0.547863 4.2579 0
M  V30 32024 C 3065.52 -1.52596 5.1142 0
M  V30 32025 O 3065.74 -2.75947 4.99209 0
M  V30 32026 O 3064.68 -1.05961 5.925 0
M  V30 32027 H 3068.5 0.480951 2.99868 0
M  V30 32028 H 3066.09 0.301252 1.46331 0
M  V30 32029 H 3067.97 -1.8404 3.79087 0
M  V30 32030 H 3066.64 -1.93044 2.59838 0
M  V30 32031 H 3065.55 0.0861598 3.74001 0
M  V30 32032 H 3066.88 0.0936761 4.92111 0
M  V30 32033 N 3068.54 -1.55163 0.276085 0
M  V30 32034 C 3069.45 -2.26231 -0.621026 0
M  V30 32035 C 3070.46 -1.28855 -1.16929 0
M  V30 32036 O 3071.64 -1.61793 -1.19937 0
M  V30 32037 C 3068.7 -2.97027 -1.78819 0
M  V30 32038 C 3067.76 -4.09883 -1.2765 0
M  V30 32039 C 3067 -4.77293 -2.38803 0
M  V30 32040 O 3067.22 -4.43918 -3.5818 0
M  V30 32041 O 3066.15 -5.6522 -2.06905 0
M  V30 32042 H 3069.98 -3.03666 -0.0452812 0
M  V30 32043 H 3067.56 -1.49337 0.0434537 0
M  V30 32044 H 3069.45 -3.41515 -2.46871 0
M  V30 32045 H 3068.12 -2.22507 -2.351 0
M  V30 32046 H 3067.03 -3.69848 -0.562415 0
M  V30 32047 H 3068.36 -4.86306 -0.759423 0
M  V30 32048 N 3070.01 -0.00338196 -1.576 0
M  V30 32049 C 3070.98 0.971801 -2.07578 0
M  V30 32050 C 3071.98 1.27036 -0.985819 0
M  V30 32051 O 3073.17 1.21498 -1.24835 0
M  V30 32052 C 3070.3 2.29576 -2.52007 0
M  V30 32053 H 3071.49 0.53943 -2.95009 0
M  V30 32054 H 3069.04 0.244159 -1.54381 0
M  V30 32055 H 3069.78 2.77495 -1.6783 0
M  V30 32056 H 3069.56 2.09225 -3.31613 0
M  V30 32057 H 3071.05 2.99525 -2.90988 0
M  V30 32058 N 3071.49 1.5528 0.269423 0
M  V30 32059 C 3072.72 1.80417 1.02296 0
M  V30 32060 C 3073.14 0.577394 1.79019 0
M  V30 32061 O 3072.5 -0.473094 1.75019 0
M  V30 32062 C 3072.55 3.03044 1.9544 0
M  V30 32063 O 3071.65 2.7838 3.04267 0
M  V30 32064 H 3070.99 0.596212 0.292279 0
M  V30 32065 H 3073.52 2.02429 0.297247 0
M  V30 32066 H 3073.53 3.31873 2.37327 0
M  V30 32067 H 3072.21 3.91981 1.3901 0
M  V30 32068 H 3070.78 2.60657 2.66669 0
M  V30 32069 N 3072.97 -0.534097 1.48274 0
M  V30 32070 C 3074.19 -1.31976 1.59991 0
M  V30 32071 C 3074.62 -1.8631 0.258857 0
M  V30 32072 O 3073.98 -1.6419 -0.768856 0
M  V30 32073 C 3074.03 -2.44938 2.64647 0
M  V30 32074 O 3073.13 -3.47854 2.21521 0
M  V30 32075 H 3072.47 -0.391053 0.536631 0
M  V30 32076 H 3075 -0.643101 1.9423 0
M  V30 32077 H 3075.01 -2.91182 2.85791 0
M  V30 32078 H 3073.69 -2.04752 3.62008 0
M  V30 32079 H 3072.26 -3.07756 2.10572 0
M  V30 32080 N 3074.45 -1.36793 -0.782652 0
M  V30 32081 C 3075.41 -1.3151 -1.87717 0
M  V30 32082 C 3076.41 -0.221377 -1.59269 0
M  V30 32083 O 3077.6 -0.476573 -1.67554 0
M  V30 32084 C 3074.73 -1.04031 -3.24639 0
M  V30 32085 H 3075.93 -2.28857 -1.93816 0
M  V30 32086 H 3073.48 -1.21664 -0.981205 0
M  V30 32087 H 3074.21 -0.0717009 -3.24221 0
M  V30 32088 H 3074 -1.83186 -3.46678 0
M  V30 32089 H 3075.49 -1.02956 -4.04709 0
M  V30 32090 N 3075.93 1.00759 -1.21184 0
M  V30 32091 C 3076.86 2.09637 -0.92656 0
M  V30 32092 C 3077.87 1.62555 0.0892225 0
M  V30 32093 O 3079.06 1.77927 -0.142946 0
M  V30 32094 C 3076.16 3.36883 -0.369234 0
M  V30 32095 C 3075.33 4.13061 -1.43873 0
M  V30 32096 C 3074.39 5.186 -0.891106 0
M  V30 32097 O 3073.42 5.47006 -1.57393 0
M  V30 32098 N 3074.62 5.7975 0.294955 0
M  V30 32099 H 3077.39 2.34694 -1.86384 0
M  V30 32100 H 3074.95 1.17221 -1.11673 0
M  V30 32101 H 3076.94 4.04698 0.0114629 0
M  V30 32102 H 3075.51 3.09004 0.472807 0
M  V30 32103 H 3074.73 3.40085 -1.99338 0
M  V30 32104 H 3076.02 4.60734 -2.15874 0
M  V30 32105 H 3075.41 5.5902 0.866802 0
M  V30 32106 H 3073.97 6.48871 0.617192 0
M  V30 32107 N 3077.4 1.01917 1.20211 0
M  V30 32108 C 3078.34 0.549764 2.22509 0
M  V30 32109 C 3079.35 -0.369207 1.58558 0
M  V30 32110 O 3080.54 -0.167145 1.77716 0
M  V30 32111 C 3077.64 -0.219373 3.38189 0
M  V30 32112 C 3076.81 0.702142 4.31728 0
M  V30 32113 C 3075.87 -0.0198699 5.26196 0
M  V30 32114 O 3074.9 0.60349 5.65992 0
M  V30 32115 N 3076.1 -1.29387 5.65897 0
M  V30 32116 H 3078.86 1.42953 2.63409 0
M  V30 32117 H 3076.42 0.89701 1.34779 0
M  V30 32118 H 3078.42 -0.711693 3.98393 0
M  V30 32119 H 3076.99 -1.00046 2.96158 0
M  V30 32120 H 3076.21 1.37472 3.69452 0
M  V30 32121 H 3077.49 1.32878 4.91142 0
M  V30 32122 H 3076.89 -1.82121 5.35582 0
M  V30 32123 H 3075.45 -1.73087 6.28398 0
M  V30 32124 N 3078.88 -1.36036 0.795742 0
M  V30 32125 C 3080.13 -1.98678 0.370326 0
M  V30 32126 C 3080.45 -1.6346 -1.06329 0
M  V30 32127 O 3079.72 -0.911701 -1.73392 0
M  V30 32128 H 3078.3 -0.734894 0.133941 0
M  V30 32129 H 3080.96 -1.66128 1.01918 0
M  V30 32130 H 3080.06 -3.08582 0.467261 0
M  V30 32131 N 3080.36 -0.5483 -1.47755 0
M  V30 32132 C 3081.77 -0.11258 -1.8636 0
M  V30 32133 C 3082.12 1.3152 -1.45591 0
M  V30 32134 O 3081.25 1.98797 -0.854909 0
M  V30 32135 C 3081.84 -0.197532 -3.38224 0
M  V30 32136 C 3080.4 0.183097 -3.75954 0
M  V30 32137 C 3079.55 -0.549107 -2.71809 0
M  V30 32138 H 3082.5 -0.758531 -1.39399 0
M  V30 32139 H 3082.52 0.586151 -3.75958 0
M  V30 32140 H 3082.03 -1.2368 -3.67865 0
M  V30 32141 H 3080.13 1.22381 -3.51928 0
M  V30 32142 H 3080.25 -0.169262 -4.78801 0
M  V30 32143 H 3078.61 0.00678385 -2.54699 0
M  V30 32144 H 3079.39 -1.58936 -3.04293 0
M  V30 32145 N 3081.84 1.55014 -0.28431 0
M  V30 32146 C 3083.09 1.99796 0.329828 0
M  V30 32147 C 3083.41 1.17273 1.55169 0
M  V30 32148 O 3082.67 0.232701 1.94312 0
M  V30 32149 C 3082.97 3.49503 0.747158 0
M  V30 32150 C 3082.63 4.4937 -0.371089 0
M  V30 32151 C 3081.3 4.76398 -0.678118 0
M  V30 32152 C 3083.65 5.08933 -1.12415 0
M  V30 32153 C 3080.98 5.60254 -1.74162 0
M  V30 32154 C 3083.33 5.93944 -2.17745 0
M  V30 32155 C 3081.99 6.19289 -2.49072 0
M  V30 32156 H 3081.26 0.731105 0.120693 0
M  V30 32157 H 3083.91 1.87277 -0.399936 0
M  V30 32158 H 3082.21 3.59545 1.55674 0
M  V30 32159 H 3083.91 3.81566 1.23324 0
M  V30 32160 H 3080.5 4.28427 -0.121675 0
M  V30 32161 H 3084.68 4.88068 -0.900205 0
M  V30 32162 H 3079.94 5.78134 -1.98925 0
M  V30 32163 H 3084.11 6.39128 -2.76565 0
M  V30 32164 H 3081.74 6.84059 -3.31614 0
M  V30 32165 N 3083.32 0.0117398 1.57596 0
M  V30 32166 C 3084.55 -0.680312 1.95078 0
M  V30 32167 C 3084.95 -1.67182 0.885823 0
M  V30 32168 O 3084.3 -1.83145 -0.142691 0
M  V30 32169 C 3084.36 -1.45785 3.28614 0
M  V30 32170 C 3084.02 -0.626627 4.52684 0
M  V30 32171 C 3085.02 0.0907137 5.19821 0
M  V30 32172 C 3082.71 -0.569141 4.99065 0
M  V30 32173 C 3084.7 0.8544 6.31648 0
M  V30 32174 C 3082.39 0.198262 6.10778 0
M  V30 32175 C 3083.38 0.908755 6.76927 0
M  V30 32176 O 3083.07 1.66361 7.86498 0
M  V30 32177 H 3082.8 -0.19366 0.647666 0
M  V30 32178 H 3085.36 0.062533 2.05305 0
M  V30 32179 H 3083.59 -2.24545 3.14828 0
M  V30 32180 H 3085.28 -2.03636 3.51123 0
M  V30 32181 H 3086.04 0.0555273 4.84968 0
M  V30 32182 H 3081.92 -1.1117 4.47395 0
M  V30 32183 H 3085.47 1.40949 6.83212 0
M  V30 32184 H 3081.36 0.235227 6.45071 0
M  V30 32185 H 3082.13 1.58156 8.03075 0
M  V30 32186 N 3084.79 -1.55421 -0.261185 0
M  V30 32187 C 3086.04 -1.76844 -0.992667 0
M  V30 32188 C 3086.37 -0.57446 -1.85509 0
M  V30 32189 O 3085.65 0.427679 -1.8974 0
M  V30 32190 C 3085.93 -3.08026 -1.86527 0
M  V30 32191 C 3085.78 -4.37801 -1.03199 0
M  V30 32192 C 3087.1 -3.35329 -2.8503 0
M  V30 32193 H 3084.22 -0.643394 -0.359461 0
M  V30 32194 H 3086.86 -1.88154 -0.264181 0
M  V30 32195 H 3085.01 -2.98515 -2.48639 0
M  V30 32196 H 3086.69 -4.59285 -0.430662 0
M  V30 32197 H 3084.93 -4.32498 -0.335835 0
M  V30 32198 H 3085.6 -5.25941 -1.67601 0
M  V30 32199 H 3088.08 -3.4471 -2.33053 0
M  V30 32200 H 3086.95 -4.2836 -3.43218 0
M  V30 32201 H 3087.21 -2.55543 -3.60763 0
M  V30 32202 N 3086.27 0.526227 -1.48555 0
M  V30 32203 C 3087.5 1.3065 -1.60432 0
M  V30 32204 C 3087.92 1.86917 -0.265996 0
M  V30 32205 O 3087.27 1.66591 0.745232 0
M  V30 32206 C 3087.32 2.45469 -2.65382 0
M  V30 32207 O 3087.04 1.9152 -3.9402 0
M  V30 32208 C 3088.55 3.37232 -2.87732 0
M  V30 32209 H 3085.77 0.397178 -0.540824 0
M  V30 32210 H 3088.31 0.634427 -1.9441 0
M  V30 32211 H 3086.46 3.08553 -2.34251 0
M  V30 32212 H 3086.88 2.66707 -4.51628 0
M  V30 32213 H 3088.35 4.14137 -3.64958 0
M  V30 32214 H 3088.83 3.92693 -1.96695 0
M  V30 32215 H 3089.44 2.79937 -3.20181 0
M  V30 32216 N 3087.75 1.37206 0.775387 0
M  V30 32217 C 3088.7 1.32756 1.90994 0
M  V30 32218 C 3089.69 0.216937 1.68005 0
M  V30 32219 O 3090.9 0.384754 1.7584 0
M  V30 32220 H 3087.27 0.413632 0.628023 0
M  V30 32221 H 3089.24 2.2854 1.91865 0
M  V30 32222 C 3087.99 1.14777 3.28209 0
M  V30 32223 H 3087.32 1.9949 3.46473 0
M  V30 32224 H 3088.76 1.15713 4.07905 0
M  V30 32225 C 3087.22 -0.146793 3.3658 0
M  V30 32226 O 3087.75 -1.13167 3.8543 0
M  V30 32227 N 3085.95 -0.196254 2.89937 0
M  V30 32228 H 3085.5 0.605851 2.50374 0
M  V30 32229 H 3085.46 -1.06206 2.95918 0
M  V30 32230 N 3089.23 -1.00115 1.21716 0
M  V30 32231 C 3090.47 -1.74206 1.03827 0
M  V30 32232 C 3090.81 -1.89454 -0.4267 0
M  V30 32233 O 3090.08 -1.43168 -1.31655 0
M  V30 32234 C 3090.37 -3.15242 1.74052 0
M  V30 32235 C 3090.22 -3.07694 3.28092 0
M  V30 32236 C 3091.54 -4.14246 1.48621 0
M  V30 32237 H 3088.66 -0.632332 0.378584 0
M  V30 32238 H 3091.3 -1.16691 1.49944 0
M  V30 32239 H 3089.45 -3.64347 1.34846 0
M  V30 32240 H 3091.12 -2.66274 3.76691 0
M  V30 32241 H 3089.36 -2.447 3.58196 0
M  V30 32242 H 3090.03 -4.07459 3.72399 0
M  V30 32243 H 3092.51 -3.73863 1.82662 0
M  V30 32244 H 3091.39 -5.11062 2.00266 0
M  V30 32245 H 3091.65 -4.40129 0.417035 0
M  V30 32246 N 3090.71 -1.02553 -1.19669 0
M  V30 32247 C 3091.64 -0.624004 -2.25008 0
M  V30 32248 C 3092.62 0.365351 -1.6613 0
M  V30 32249 O 3093.8 0.248809 -1.926 0
M  V30 32250 C 3090.93 0.0294259 -3.47288 0
M  V30 32251 C 3089.89 -0.881854 -4.18817 0
M  V30 32252 C 3089.21 -0.0937128 -5.34618 0
M  V30 32253 C 3090.51 -2.19405 -4.73982 0
M  V30 32254 H 3092.21 -1.50459 -2.58849 0
M  V30 32255 H 3089.75 -0.724893 -1.24424 0
M  V30 32256 H 3091.71 0.321943 -4.20168 0
M  V30 32257 H 3090.43 0.944783 -3.12636 0
M  V30 32258 H 3089.09 -1.15851 -3.47813 0
M  V30 32259 H 3088.74 0.823574 -4.96212 0
M  V30 32260 H 3088.44 -0.70067 -5.83408 0
M  V30 32261 H 3089.96 0.192142 -6.10298 0
M  V30 32262 H 3091.38 -1.96329 -5.38635 0
M  V30 32263 H 3089.77 -2.75263 -5.33245 0
M  V30 32264 H 3090.84 -2.85099 -3.92233 0
M  V30 32265 N 3092.19 1.35612 -0.802945 0
M  V30 32266 C 3093.1 2.33638 -0.212218 0
M  V30 32267 C 3094.11 1.6169 0.642842 0
M  V30 32268 O 3095.29 1.93589 0.555451 0
M  V30 32269 C 3092.35 3.40885 0.632346 0
M  V30 32270 C 3091.41 4.28613 -0.242783 0
M  V30 32271 C 3090.65 5.30737 0.561567 0
M  V30 32272 O 3090.87 5.41369 1.79654 0
M  V30 32273 O 3089.8 6.01883 -0.0456445 0
M  V30 32274 H 3093.63 2.8595 -1.02305 0
M  V30 32275 H 3091.21 1.38318 -0.564661 0
M  V30 32276 H 3093.1 4.06422 1.11351 0
M  V30 32277 H 3091.77 2.9085 1.42084 0
M  V30 32278 H 3090.68 3.66069 -0.771005 0
M  V30 32279 H 3092.01 4.82035 -0.99513 0
M  V30 32280 N 3093.66 0.556128 1.47462 0
M  V30 32281 C 3094.91 0.0295274 2.01678 0
M  V30 32282 C 3095.23 -1.32807 1.43603 0
M  V30 32283 O 3096.43 -1.94452 1.89475 0
M  V30 32284 C 3094.89 0.00230263 3.599 0
M  V30 32285 C 3094.5 1.35659 4.26967 0
M  V30 32286 C 3096.24 -0.471748 4.21871 0
M  V30 32287 C 3094.15 1.28853 5.77192 0
M  V30 32288 H 3093.08 0.0072683 0.753965 0
M  V30 32289 H 3095.73 0.703819 1.69466 0
M  V30 32290 H 3094.11 -0.737613 3.8907 0
M  V30 32291 H 3095.28 2.11413 4.0944 0
M  V30 32292 H 3093.6 1.76849 3.76979 0
M  V30 32293 H 3096.2 -0.541045 5.31956 0
M  V30 32294 H 3096.54 -1.48349 3.88971 0
M  V30 32295 H 3097.07 0.213277 3.97228 0
M  V30 32296 H 3093.81 2.27624 6.14709 0
M  V30 32297 H 3093.33 0.572773 5.97059 0
M  V30 32298 H 3095.01 0.990143 6.39379 0
M  V30 32299 N 3095.14 -1.54861 0.292527 0
M  V30 32300 C 3096.09 -2.24644 -0.603146 0
M  V30 32301 C 3097.08 -1.24948 -1.14387 0
M  V30 32302 O 3098.29 -1.42825 -1.09549 0
M  V30 32303 H 3094.66 -0.721177 -0.213092 0
M  V30 32304 H 3096.64 -2.98399 0.00804523 0
M  V30 32305 C 3095.38 -2.99416 -1.76764 0
M  V30 32306 H 3094.71 -3.75929 -1.36077 0
M  V30 32307 H 3096.15 -3.51538 -2.3706 0
M  V30 32308 C 3094.61 -2.05891 -2.66666 0
M  V30 32309 O 3095.14 -1.62142 -3.67522 0
M  V30 32310 N 3093.34 -1.72024 -2.34213 0
M  V30 32311 H 3092.89 -2.07798 -1.52243 0
M  V30 32312 H 3092.85 -1.09722 -2.94633 0
M  V30 32313 N 3096.62 -0.0200973 -1.57587 0
M  V30 32314 C 3097.57 0.973715 -2.06162 0
M  V30 32315 C 3098.55 1.29101 -0.960305 0
M  V30 32316 O 3099.75 1.27862 -1.22394 0
M  V30 32317 C 3096.87 2.25914 -2.58491 0
M  V30 32318 C 3095.96 1.97061 -3.75537 0
M  V30 32319 N 3096.35 1.38442 -4.86485 0
M  V30 32320 C 3094.65 2.271 -3.83851 0
M  V30 32321 C 3095.35 1.26517 -5.67775 0
M  V30 32322 N 3094.33 1.75763 -5.14401 0
M  V30 32323 H 3098.13 0.515314 -2.89347 0
M  V30 32324 H 3095.64 0.185135 -1.61341 0
M  V30 32325 H 3097.64 2.97974 -2.91577 0
M  V30 32326 H 3096.3 2.72389 -1.76733 0
M  V30 32327 H 3097.31 1.0606 -5.06924 0
M  V30 32328 H 3093.99 2.76311 -3.12983 0
M  V30 32329 H 3095.38 0.812668 -6.66967 0
M  V30 32330 N 3098.1 1.55557 0.252939 0
M  V30 32331 C 3099.01 1.92933 1.33468 0
M  V30 32332 C 3100.02 0.829012 1.52982 0
M  V30 32333 O 3101.2 1.12987 1.66721 0
M  V30 32334 C 3098.26 2.21116 2.67036 0
M  V30 32335 C 3097.33 3.44547 2.56097 0
M  V30 32336 C 3096.56 3.71376 3.83296 0
M  V30 32337 O 3096.78 3.00377 4.84902 0
M  V30 32338 O 3095.72 4.64905 3.82291 0
M  V30 32339 H 3099.54 2.85059 1.04763 0
M  V30 32340 H 3097.13 1.42361 0.453183 0
M  V30 32341 H 3099.01 2.40578 3.45977 0
M  V30 32342 H 3097.68 1.32171 2.95487 0
M  V30 32343 H 3096.59 3.30399 1.75464 0
M  V30 32344 H 3097.92 4.33776 2.32593 0
M  V30 32345 N 3099.58 -0.518341 1.48832 0
M  V30 32346 C 3100.85 -1.27963 1.47935 0
M  V30 32347 C 3101.23 -2.10175 0.19743 0
M  V30 32348 O 3100.58 -2.13256 -0.820619 0
M  V30 32349 C 3100.79 -2.15116 2.7482 0
M  V30 32350 C 3102.14 -2.74875 3.23618 0
M  V30 32351 O 3103.16 -2.25395 2.75818 0
M  V30 32352 O 3102.02 -3.64906 4.06824 0
M  V30 32353 H 3099.12 -0.578154 0.591327 0
M  V30 32354 H 3101.66 -0.534037 1.61078 0
M  V30 32355 H 3100.43 -1.54228 3.59624 0
M  V30 32356 H 3100.06 -2.96901 2.64454 0
M  V30 32357 N 3101.05 -1.37615 -0.7681 0
M  V30 32358 C 3101.98 -1.36377 -1.89535 0
M  V30 32359 C 3102.96 -0.231833 -1.68513 0
M  V30 32360 O 3104.15 -0.432738 -1.89317 0
M  V30 32361 C 3101.28 -1.17363 -3.26869 0
M  V30 32362 C 3100.23 -2.27608 -3.62462 0
M  V30 32363 C 3099.56 -1.93714 -4.98377 0
M  V30 32364 C 3100.86 -3.69809 -3.68834 0
M  V30 32365 H 3102.55 -2.30705 -1.90828 0
M  V30 32366 H 3100.1 -1.11052 -0.916701 0
M  V30 32367 H 3102.05 -1.15126 -4.05369 0
M  V30 32368 H 3100.78 -0.194922 -3.26018 0
M  V30 32369 H 3099.44 -2.29007 -2.86272 0
M  V30 32370 H 3099.08 -0.943626 -4.9407 0
M  V30 32371 H 3098.78 -2.67539 -5.2316 0
M  V30 32372 H 3100.31 -1.9307 -5.79272 0
M  V30 32373 H 3101.72 -3.7052 -4.37479 0
M  V30 32374 H 3100.12 -4.42718 -4.05118 0
M  V30 32375 H 3101.19 -4.03172 -2.69408 0
M  V30 32376 N 3102.53 0.994677 -1.22245 0
M  V30 32377 C 3103.48 2.08444 -0.990942 0
M  V30 32378 C 3104.45 1.65874 0.0867078 0
M  V30 32379 O 3105.63 1.90698 -0.0625218 0
M  V30 32380 C 3102.77 3.40312 -0.572873 0
M  V30 32381 C 3101.89 3.96235 -1.7211 0
M  V30 32382 C 3101.02 5.16255 -1.25119 0
M  V30 32383 C 3100.06 5.64311 -2.37107 0
M  V30 32384 N 3099.2 6.75571 -1.91176 0
M  V30 32385 H 3104.04 2.27582 -1.92381 0
M  V30 32386 H 3101.57 1.11577 -0.958595 0
M  V30 32387 H 3103.53 4.16034 -0.311667 0
M  V30 32388 H 3102.16 3.2118 0.322988 0
M  V30 32389 H 3101.21 3.17401 -2.09668 0
M  V30 32390 H 3102.53 4.27883 -2.56354 0
M  V30 32391 H 3101.68 5.99259 -0.947257 0
M  V30 32392 H 3100.42 4.86226 -0.378922 0
M  V30 32393 H 3099.42 4.79896 -2.68291 0
M  V30 32394 H 3100.65 5.96365 -3.24847 0
M  V30 32395 H 3098.6 6.47329 -1.06309 0
M  V30 32396 H 3098.51 7.06528 -2.68988 0
M  V30 32397 H 3099.78 7.62086 -1.63847 0
M  V30 32398 N 3104.01 1.03186 1.19123 0
M  V30 32399 C 3105.29 0.644606 1.84673 0
M  V30 32400 C 3105.67 -0.876501 1.92043 0
M  V30 32401 O 3105.01 -1.77441 1.43968 0
M  V30 32402 C 3105.22 1.31015 3.23475 0
M  V30 32403 C 3106.57 1.43531 3.99605 0
M  V30 32404 O 3107.6 1.26756 3.32883 0
M  V30 32405 O 3106.46 1.70785 5.19129 0
M  V30 32406 H 3103.55 0.224434 0.795964 0
M  V30 32407 H 3106.1 1.1302 1.26588 0
M  V30 32408 H 3104.87 2.34883 3.12963 0
M  V30 32409 H 3104.49 0.812615 3.89207 0
M  V30 32410 N 3105.49 -1.35184 0.810125 0
M  V30 32411 C 3106.71 -2.03434 0.403676 0
M  V30 32412 C 3107.14 -1.60643 -0.978541 0
M  V30 32413 O 3106.5 -0.784808 -1.63433 0
M  V30 32414 C 3106.54 -3.57128 0.499217 0
M  V30 32415 O 3105.65 -4.09527 -0.485967 0
M  V30 32416 H 3104.99 -0.64238 0.168061 0
M  V30 32417 H 3107.52 -1.72706 1.09699 0
M  V30 32418 H 3107.53 -4.06316 0.370308 0
M  V30 32419 H 3106.2 -3.87621 1.5074 0
M  V30 32420 H 3104.78 -3.7155 -0.317004 0
M  V30 32421 N 3106.97 -0.56394 -1.47165 0
M  V30 32422 C 3107.91 0.192968 -2.31798 0
M  V30 32423 C 3108.91 0.90278 -1.4334 0
M  V30 32424 O 3110.11 0.8233 -1.60068 0
M  V30 32425 H 3106.49 0.0811008 -0.747614 0
M  V30 32426 H 3108.46 -0.539928 -2.93475 0
M  V30 32427 C 3107.21 1.2055 -3.26134 0
M  V30 32428 H 3106.53 0.668733 -3.94167 0
M  V30 32429 H 3107.97 1.70587 -3.8817 0
M  V30 32430 C 3106.43 2.25685 -2.50136 0
M  V30 32431 O 3106.96 3.32726 -2.2507 0
M  V30 32432 N 3105.17 1.99791 -2.11026 0
M  V30 32433 H 3104.71 1.12756 -2.31612 0
M  V30 32434 H 3104.67 2.7035 -1.60494 0
M  V30 32435 N 3108.44 1.54704 -0.300735 0
M  V30 32436 C 3109.67 2.05009 0.314037 0
M  V30 32437 C 3110.09 1.1766 1.46757 0
M  V30 32438 O 3109.45 0.180629 1.80398 0
M  V30 32439 C 3109.5 3.52753 0.748181 0
M  V30 32440 O 3108.6 3.68427 1.85298 0
M  V30 32441 H 3107.95 0.661192 0.0610023 0
M  V30 32442 H 3110.48 1.99758 -0.442502 0
M  V30 32443 H 3110.49 3.946 1.03706 0
M  V30 32444 H 3109.16 4.1579 -0.095646 0
M  V30 32445 H 3107.74 3.38485 1.56467 0
M  V30 32446 N 3109.92 0.0284543 1.57574 0
M  V30 32447 C 3110.85 -0.982355 2.07081 0
M  V30 32448 C 3111.87 -1.28924 0.994101 0
M  V30 32449 O 3113.06 -1.25401 1.27031 0
M  V30 32450 C 3110.16 -2.30994 2.47982 0
M  V30 32451 C 3109.33 -2.18831 3.78724 0
M  V30 32452 C 3108.39 -3.34517 4.06183 0
M  V30 32453 O 3107.41 -3.11432 4.76444 0
M  V30 32454 N 3108.62 -4.58287 3.56305 0
M  V30 32455 H 3111.38 -0.559959 2.94422 0
M  V30 32456 H 3108.94 -0.158318 1.61124 0
M  V30 32457 H 3110.93 -3.07212 2.63445 0
M  V30 32458 H 3109.5 -2.64877 1.6601 0
M  V30 32459 H 3108.72 -1.27344 3.73065 0
M  V30 32460 H 3110.01 -2.07907 4.64384 0
M  V30 32461 H 3109.41 -4.79937 2.99462 0
M  V30 32462 H 3107.97 -5.31676 3.77047 0
M  V30 32463 N 3111.4 -1.55689 -0.244686 0
M  V30 32464 C 3112.65 -1.77887 -0.973855 0
M  V30 32465 C 3112.98 -0.594104 -1.84889 0
M  V30 32466 O 3112.25 0.407531 -1.90183 0
M  V30 32467 C 3112.54 -3.09987 -1.83249 0
M  V30 32468 C 3112.39 -4.38871 -0.985494 0
M  V30 32469 C 3113.71 -3.38334 -2.81458 0
M  V30 32470 H 3110.83 -0.647171 -0.352617 0
M  V30 32471 H 3113.47 -1.88424 -0.24421 0
M  V30 32472 H 3111.62 -3.01135 -2.45459 0
M  V30 32473 H 3113.29 -4.59716 -0.381924 0
M  V30 32474 H 3111.54 -4.3283 -0.289944 0
M  V30 32475 H 3112.21 -5.27689 -1.62013 0
M  V30 32476 H 3114.68 -3.47163 -2.29384 0
M  V30 32477 H 3113.56 -4.31977 -3.38655 0
M  V30 32478 H 3113.82 -2.59355 -3.58033 0
M  V30 32479 N 3112.88 0.510441 -1.49105 0
M  V30 32480 C 3113.84 1.59526 -1.64572 0
M  V30 32481 C 3114.84 1.52229 -0.517964 0
M  V30 32482 O 3116.03 1.5555 -0.78421 0
M  V30 32483 C 3113.16 2.99174 -1.63426 0
M  V30 32484 H 3114.36 1.47145 -2.6132 0
M  V30 32485 H 3111.91 0.733976 -1.37994 0
M  V30 32486 H 3112.64 3.17042 -0.682266 0
M  V30 32487 H 3112.43 3.05879 -2.45317 0
M  V30 32488 H 3113.92 3.78008 -1.77481 0
M  V30 32489 N 3114.36 1.38021 0.760791 0
M  V30 32490 C 3115.6 1.33568 1.5167 0
M  V30 32491 C 3115.93 -0.0759898 1.94852 0
M  V30 32492 O 3115.2 -1.02224 1.67114 0
M  V30 32493 H 3113.78 0.491448 0.562573 0
M  V30 32494 H 3116.44 1.72625 0.904802 0
M  V30 32495 H 3115.53 1.98187 2.41099 0
M  V30 32496 N 3115.83 -0.98818 1.22771 0
M  V30 32497 C 3117.08 -1.72498 1.05304 0
M  V30 32498 C 3117.4 -1.90596 -0.412069 0
M  V30 32499 O 3116.67 -1.46901 -1.29603 0
M  V30 32500 H 3115.25 -0.639137 0.386669 0
M  V30 32501 H 3117.92 -1.18991 1.54361 0
M  V30 32502 H 3117.01 -2.7176 1.53469 0
M  V30 32503 N 3117.31 -1.03816 -1.18575 0
M  V30 32504 C 3118.56 -0.738607 -1.8812 0
M  V30 32505 C 3118.88 0.735712 -1.80589 0
M  V30 32506 O 3118.15 1.53071 -1.22254 0
M  V30 32507 H 3116.73 -0.27022 -0.696412 0
M  V30 32508 H 3119.39 -1.31438 -1.4391 0
M  V30 32509 H 3118.49 -1.04121 -2.9422 0
M  V30 32510 N 3118.79 1.34753 -0.817283 0
M  V30 32511 C 3120.04 1.9875 -0.403279 0
M  V30 32512 C 3120.37 1.6466 1.0296 0
M  V30 32513 O 3119.64 0.915344 1.71615 0
M  V30 32514 C 3119.93 3.55079 -0.59925 0
M  V30 32515 C 3119.78 3.98931 -2.07784 0
M  V30 32516 C 3121.1 4.40089 -0.0316429 0
M  V30 32517 H 3118.22 0.721987 -0.148001 0
M  V30 32518 H 3120.86 1.59736 -1.0288 0
M  V30 32519 H 3119.01 3.88443 -0.0667799 0
M  V30 32520 H 3120.68 3.75927 -2.67352 0
M  V30 32521 H 3118.93 3.49448 -2.57037 0
M  V30 32522 H 3119.6 5.07737 -2.1658 0
M  V30 32523 H 3122.07 4.13246 -0.486512 0
M  V30 32524 H 3120.95 5.48541 -0.198604 0
M  V30 32525 H 3121.21 4.29132 1.06295 0
M  V30 32526 N 3120.27 0.571737 1.46864 0
M  V30 32527 C 3121.49 0.0565019 2.07323 0
M  V30 32528 C 3121.92 -1.23429 1.4194 0
M  V30 32529 O 3121.28 -1.74287 0.499364 0
M  V30 32530 C 3121.33 -0.107276 3.6044 0
M  V30 32531 O 3120.43 -1.16643 3.95561 0
M  V30 32532 H 3119.77 0.0578581 0.661474 0
M  V30 32533 H 3122.3 0.791558 1.88668 0
M  V30 32534 H 3122.31 -0.316915 4.06767 0
M  V30 32535 H 3120.99 0.83542 4.07423 0
M  V30 32536 H 3119.56 -0.936125 3.60959 0
M  V30 32537 N 3121.75 -1.54542 0.308935 0
M  V30 32538 C 3122.99 -2.00592 -0.298442 0
M  V30 32539 C 3123.33 -1.19695 -1.52927 0
M  V30 32540 O 3122.6 -0.275453 -1.9254 0
M  V30 32541 C 3122.88 -3.54237 -0.647156 0
M  V30 32542 C 3122.74 -4.45869 0.593363 0
M  V30 32543 C 3124.06 -4.14804 -1.47057 0
M  V30 32544 H 3121.18 -0.729191 -0.106999 0
M  V30 32545 H 3123.82 -1.8524 0.42261 0
M  V30 32546 H 3121.97 -3.6745 -1.26147 0
M  V30 32547 H 3123.64 -4.4455 1.23178 0
M  V30 32548 H 3121.88 -4.16142 1.22508 0
M  V30 32549 H 3122.55 -5.51156 0.305115 0
M  V30 32550 H 3125.03 -4.05076 -0.951439 0
M  V30 32551 H 3123.91 -5.22451 -1.68334 0
M  V30 32552 H 3124.17 -3.67187 -2.46223 0
M  V30 32553 N 3123.23 -0.0368104 -1.57557 0
M  V30 32554 C 3124.46 0.64919 -1.96135 0
M  V30 32555 C 3124.86 1.65752 -0.912308 0
M  V30 32556 O 3124.21 1.83349 0.113536 0
M  V30 32557 C 3124.27 1.40539 -3.30891 0
M  V30 32558 C 3123.93 0.55453 -4.53623 0
M  V30 32559 C 3124.93 -0.173401 -5.19611 0
M  V30 32560 C 3122.61 0.489672 -4.99907 0
M  V30 32561 C 3124.61 -0.954781 -6.30208 0
M  V30 32562 C 3122.3 -0.295407 -6.10386 0
M  V30 32563 C 3123.29 -1.01633 -6.75396 0
M  V30 32564 O 3122.98 -1.78853 -7.83752 0
M  V30 32565 H 3122.71 0.183332 -0.650665 0
M  V30 32566 H 3125.27 -0.0951873 -2.05179 0
M  V30 32567 H 3123.5 2.19508 -3.1836 0
M  V30 32568 H 3125.19 1.98024 -3.54318 0
M  V30 32569 H 3125.95 -0.132675 -4.84818 0
M  V30 32570 H 3121.83 1.04038 -4.49107 0
M  V30 32571 H 3125.38 -1.51801 -6.80884 0
M  V30 32572 H 3121.27 -0.337823 -6.44615 0
M  V30 32573 H 3122.04 -1.70912 -8.00457 0
M  V30 32574 N 3124.7 1.55817 0.236426 0
M  V30 32575 C 3125.93 1.8194 0.978841 0
M  V30 32576 C 3126.34 0.611678 1.79039 0
M  V30 32577 O 3125.68 -0.429141 1.78617 0
M  V30 32578 C 3125.75 3.01575 1.95685 0
M  V30 32579 C 3125.41 4.37181 1.33124 0
M  V30 32580 C 3126.41 5.14771 0.728495 0
M  V30 32581 C 3124.09 4.83889 1.34746 0
M  V30 32582 C 3126.09 6.37223 0.150315 0
M  V30 32583 C 3123.77 6.06287 0.765432 0
M  V30 32584 C 3124.77 6.82794 0.167896 0
M  V30 32585 O 3124.46 8.02879 -0.405117 0
M  V30 32586 H 3124.19 0.609118 0.293175 0
M  V30 32587 H 3126.75 2.03731 0.261349 0
M  V30 32588 H 3124.98 2.75566 2.71293 0
M  V30 32589 H 3126.66 3.147 2.56357 0
M  V30 32590 H 3127.43 4.79799 0.708392 0
M  V30 32591 H 3123.31 4.24324 1.80195 0
M  V30 32592 H 3126.85 6.96881 -0.316708 0
M  V30 32593 H 3122.75 6.40735 0.782897 0
M  V30 32594 H 3123.52 8.17957 -0.297993 0
M  V30 32595 N 3126.18 -0.502526 1.49373 0
M  V30 32596 C 3127.41 -1.28553 1.62754 0
M  V30 32597 C 3127.83 -1.85719 0.298318 0
M  V30 32598 O 3127.19 -1.65784 -0.733856 0
M  V30 32599 C 3127.24 -2.39269 2.69783 0
M  V30 32600 O 3126.34 -3.43077 2.28849 0
M  V30 32601 H 3125.68 -0.379583 0.544805 0
M  V30 32602 H 3128.21 -0.601757 1.95551 0
M  V30 32603 H 3128.22 -2.85055 2.91904 0
M  V30 32604 H 3126.9 -1.97027 3.66269 0
M  V30 32605 H 3125.47 -3.0322 2.17053 0
M  V30 32606 N 3127.66 -1.38422 -0.75346 0
M  V30 32607 C 3128.61 -1.32165 -1.85786 0
M  V30 32608 C 3129.59 -0.205908 -1.59577 0
M  V30 32609 O 3130.79 -0.44189 -1.71395 0
M  V30 32610 C 3127.91 -1.14915 -3.23496 0
M  V30 32611 C 3127 -2.31111 -3.55596 0
M  V30 32612 N 3127.39 -3.56554 -3.58752 0
M  V30 32613 C 3125.69 -2.23666 -3.85862 0
M  V30 32614 C 3126.39 -4.33285 -3.88123 0
M  V30 32615 N 3125.37 -3.62642 -4.04959 0
M  V30 32616 H 3129.17 -2.27141 -1.86505 0
M  V30 32617 H 3126.68 -1.31656 -0.95082 0
M  V30 32618 H 3128.68 -1.08516 -4.02529 0
M  V30 32619 H 3127.34 -0.208717 -3.24028 0
M  V30 32620 H 3128.35 -3.90222 -3.4051 0
M  V30 32621 H 3125.03 -1.37783 -3.94109 0
M  V30 32622 H 3126.42 -5.41933 -3.97187 0
M  V30 32623 N 3129.14 0.981655 -1.23294 0
M  V30 32624 C 3130.38 1.72533 -1.06585 0
M  V30 32625 C 3130.72 1.90109 0.396505 0
M  V30 32626 O 3129.99 1.45245 1.29361 0
M  V30 32627 C 3130.27 3.12434 -1.79045 0
M  V30 32628 C 3130.13 3.02435 -3.32946 0
M  V30 32629 C 3131.45 4.11829 -1.55193 0
M  V30 32630 H 3128.57 0.626229 -0.388596 0
M  V30 32631 H 3131.21 1.14291 -1.51781 0
M  V30 32632 H 3129.36 3.62156 -1.40625 0
M  V30 32633 H 3131.03 2.60247 -3.80879 0
M  V30 32634 H 3129.27 2.38971 -3.62043 0
M  V30 32635 H 3129.94 4.01483 -3.78834 0
M  V30 32636 H 3132.42 3.7091 -1.88587 0
M  V30 32637 H 3131.3 5.07812 -2.08371 0
M  V30 32638 H 3131.56 4.39409 -0.487002 0
M  V30 32639 N 3130.62 1.04444 1.18022 0
M  V30 32640 C 3131.55 0.659722 2.23986 0
M  V30 32641 C 3132.53 -0.338875 1.6669 0
M  V30 32642 O 3133.71 -0.218136 1.92971 0
M  V30 32643 C 3130.84 0.0258283 3.4729 0
M  V30 32644 C 3129.8 0.948373 4.17361 0
M  V30 32645 C 3129.12 0.178754 5.34401 0
M  V30 32646 C 3130.42 2.26918 4.70431 0
M  V30 32647 H 3132.12 1.54558 2.56422 0
M  V30 32648 H 3129.66 0.744596 1.23255 0
M  V30 32649 H 3131.61 -0.255057 4.20627 0
M  V30 32650 H 3130.34 -0.894926 3.141 0
M  V30 32651 H 3129 1.2137 3.45926 0
M  V30 32652 H 3128.65 -0.744526 4.97459 0
M  V30 32653 H 3128.35 0.793397 5.82219 0
M  V30 32654 H 3129.87 -0.0950242 6.10526 0
M  V30 32655 H 3131.28 2.04873 5.35444 0
M  V30 32656 H 3129.68 2.83712 5.28798 0
M  V30 32657 H 3130.75 2.91303 3.87648 0
M  V30 32658 N 3132.09 -1.34317 0.824418 0
M  V30 32659 C 3133.03 -2.28283 0.204845 0
M  V30 32660 C 3134.04 -1.51095 -0.606136 0
M  V30 32661 O 3135.23 -1.73104 -0.435572 0
M  V30 32662 C 3132.33 -3.30915 -0.731332 0
M  V30 32663 C 3131.5 -4.37384 0.0371491 0
M  V30 32664 C 3130.56 -5.19769 -0.82018 0
M  V30 32665 O 3129.59 -5.68585 -0.264621 0
M  V30 32666 N 3130.79 -5.39625 -2.13975 0
M  V30 32667 H 3133.55 -2.82092 1.01215 0
M  V30 32668 H 3131.11 -1.46857 0.681519 0
M  V30 32669 H 3133.11 -3.82928 -1.30951 0
M  V30 32670 H 3131.68 -2.7749 -1.43938 0
M  V30 32671 H 3130.9 -3.86066 0.796646 0
M  V30 32672 H 3132.18 -5.05641 0.566103 0
M  V30 32673 H 3131.58 -5.01641 -2.61483 0
M  V30 32674 H 3130.14 -5.9475 -2.66675 0
M  V30 32675 N 3133.57 -0.579517 -1.46558 0
M  V30 32676 C 3134.5 0.203854 -2.27288 0
M  V30 32677 C 3135.48 0.899841 -1.35431 0
M  V30 32678 O 3136.67 0.914369 -1.64838 0
M  V30 32679 C 3133.79 1.29224 -3.1308 0
M  V30 32680 C 3132.84 0.702431 -4.20676 0
M  V30 32681 S 3133.67 -0.468229 -5.33449 0
M  V30 32682 C 3134.83 0.621434 -6.22807 0
M  V30 32683 H 3135.06 -0.481135 -2.93381 0
M  V30 32684 H 3132.59 -0.366337 -1.49991 0
M  V30 32685 H 3134.55 1.91542 -3.63073 0
M  V30 32686 H 3133.21 1.94916 -2.46306 0
M  V30 32687 H 3132.41 1.52045 -4.80519 0
M  V30 32688 H 3132.01 0.15498 -3.73679 0
M  V30 32689 H 3134.3 1.50792 -6.60506 0
M  V30 32690 H 3135.24 0.0598366 -7.08075 0
M  V30 32691 H 3135.65 0.924144 -5.56884 0
M  V30 32692 N 3135.05 1.54376 -0.317127 0
M  V30 32693 C 3135.98 2.27061 0.544583 0
M  V30 32694 C 3136.96 1.27613 1.12467 0
M  V30 32695 O 3138.15 1.56415 1.151 0
M  V30 32696 C 3135.28 3.02356 1.70874 0
M  V30 32697 C 3134.23 4.09087 1.25826 0
M  V30 32698 C 3133.56 4.72187 2.50886 0
M  V30 32699 C 3134.86 5.20932 0.377784 0
M  V30 32700 H 3136.55 2.99336 -0.0616898 0
M  V30 32701 H 3134.1 1.43966 -0.0311101 0
M  V30 32702 H 3136.05 3.51931 2.3178 0
M  V30 32703 H 3134.77 2.27686 2.34151 0
M  V30 32704 H 3133.43 3.60385 0.672164 0
M  V30 32705 H 3133.08 3.94139 3.12511 0
M  V30 32706 H 3132.78 5.44279 2.21438 0
M  V30 32707 H 3134.3 5.24533 3.12566 0
M  V30 32708 H 3135.72 5.66303 0.892957 0
M  V30 32709 H 3134.12 5.99841 0.176368 0
M  V30 32710 H 3135.19 4.8126 -0.593028 0
M  V30 32711 N 3136.53 0.0451655 1.57535 0
M  V30 32712 C 3137.78 -0.629953 1.92452 0
M  V30 32713 C 3138.1 -1.71204 0.92301 0
M  V30 32714 O 3137.36 -1.9559 -0.0656282 0
M  V30 32715 C 3137.66 -1.27019 3.34067 0
M  V30 32716 C 3137.32 -0.316891 4.49785 0
M  V30 32717 C 3135.99 -0.0545561 4.81169 0
M  V30 32718 C 3138.34 0.336785 5.20111 0
M  V30 32719 C 3135.67 0.868992 5.80229 0
M  V30 32720 C 3138.02 1.24849 6.20158 0
M  V30 32721 C 3136.68 1.51955 6.49974 0
M  V30 32722 H 3135.95 -0.230516 0.704232 0
M  V30 32723 H 3138.6 0.110362 1.91182 0
M  V30 32724 H 3136.9 -2.08563 3.31676 0
M  V30 32725 H 3138.6 -1.79939 3.58362 0
M  V30 32726 H 3135.19 -0.53154 4.25291 0
M  V30 32727 H 3139.37 0.147192 4.96082 0
M  V30 32728 H 3134.63 1.08654 6.01668 0
M  V30 32729 H 3138.8 1.7611 6.73764 0
M  V30 32730 H 3136.43 2.23683 7.26547 0
M  V30 32731 N 3138.01 -1.5594 -0.228159 0
M  V30 32732 C 3139.25 -1.78646 -0.95352 0
M  V30 32733 C 3139.58 -0.612783 -1.84595 0
M  V30 32734 O 3138.84 0.403141 -1.91503 0
M  V30 32735 C 3139.14 -3.07043 -1.82918 0
M  V30 32736 C 3138.8 -4.37513 -1.09054 0
M  V30 32737 C 3137.46 -4.72964 -0.886482 0
M  V30 32738 C 3139.82 -5.18091 -0.568442 0
M  V30 32739 C 3137.14 -5.86513 -0.14831 0
M  V30 32740 C 3139.5 -6.32407 0.156354 0
M  V30 32741 C 3138.16 -6.66464 0.371729 0
M  V30 32742 H 3137.43 -0.65371 -0.348918 0
M  V30 32743 H 3140.08 -1.90207 -0.222177 0
M  V30 32744 H 3138.38 -2.90575 -2.62818 0
M  V30 32745 H 3140.08 -3.21812 -2.39244 0
M  V30 32746 H 3136.67 -4.09674 -1.25956 0
M  V30 32747 H 3140.85 -4.91143 -0.713587 0
M  V30 32748 H 3136.11 -6.11393 0.0288493 0
M  V30 32749 H 3140.28 -6.94076 0.568455 0
M  V30 32750 H 3137.91 -7.54295 0.945655 0
M  V30 32751 N 3139.48 0.494597 -1.49638 0
M  V30 32752 C 3140.71 1.27688 -1.63433 0
M  V30 32753 C 3141.13 1.85559 -0.308163 0
M  V30 32754 O 3140.49 1.66171 0.725054 0
M  V30 32755 C 3140.54 2.37835 -2.71048 0
M  V30 32756 O 3139.64 3.41858 -2.30666 0
M  V30 32757 H 3138.99 0.376688 -0.546811 0
M  V30 32758 H 3141.52 0.591378 -1.95867 0
M  V30 32759 H 3141.53 2.83503 -2.93411 0
M  V30 32760 H 3140.2 1.95082 -3.67309 0
M  V30 32761 H 3138.78 3.02065 -2.18658 0
M  V30 32762 N 3140.96 1.3882 0.746109 0
M  V30 32763 C 3142.19 1.38486 1.53314 0
M  V30 32764 C 3142.6 -0.0252999 1.89183 0
M  V30 32765 O 3141.94 -1.00422 1.53822 0
M  V30 32766 C 3142.01 2.18316 2.85619 0
M  V30 32767 C 3141.67 3.67057 2.72247 0
M  V30 32768 C 3142.67 4.60386 2.41539 0
M  V30 32769 C 3140.35 4.10506 2.89465 0
M  V30 32770 C 3142.35 5.95144 2.28215 0
M  V30 32771 C 3140.03 5.45343 2.75761 0
M  V30 32772 C 3141.03 6.37476 2.45179 0
M  V30 32773 O 3140.72 7.69832 2.31547 0
M  V30 32774 H 3140.45 0.475238 0.480755 0
M  V30 32775 H 3143 1.83112 0.930537 0
M  V30 32776 H 3141.23 1.6842 3.48097 0
M  V30 32777 H 3142.92 2.10297 3.47175 0
M  V30 32778 H 3143.69 4.28121 2.27898 0
M  V30 32779 H 3139.57 3.39135 3.12263 0
M  V30 32780 H 3143.11 6.67024 2.04267 0
M  V30 32781 H 3139.01 5.77202 2.88977 0
M  V30 32782 H 3139.78 7.80436 2.46702 0
M  V30 32783 N 3142.44 -0.975103 1.23812 0
M  V30 32784 C 3143.68 -1.73213 1.0852 0
M  V30 32785 C 3144.04 -1.88387 -0.370743 0
M  V30 32786 O 3145.25 -2.60947 -0.64499 0
M  V30 32787 C 3143.52 -3.08965 1.79654 0
M  V30 32788 S 3145.08 -4.00182 1.8 0
M  V30 32789 H 3141.89 -0.595626 0.388267 0
M  V30 32790 H 3144.5 -1.16456 1.5703 0
M  V30 32791 H 3143.2 -2.95576 2.84715 0
M  V30 32792 H 3142.73 -3.7079 1.31447 0
M  V30 32793 H 3144.75 -4.88649 0.86238 0
M  V30 32794 N 3143.92 -1.05068 -1.17467 0
M  V30 32795 C 3144.85 -0.608565 -2.20973 0
M  V30 32796 C 3145.86 0.327038 -1.59481 0
M  V30 32797 O 3147.05 0.119968 -1.78096 0
M  V30 32798 C 3144.15 0.129631 -3.38652 0
M  V30 32799 C 3143.33 -0.81636 -4.29714 0
M  V30 32800 C 3142.38 -0.119649 -5.26064 0
M  V30 32801 O 3141.41 -0.75334 -5.64193 0
M  V30 32802 N 3142.61 1.14337 -5.69128 0
M  V30 32803 H 3145.38 -1.49887 -2.59527 0
M  V30 32804 H 3142.94 -0.932429 -1.32353 0
M  V30 32805 H 3144.93 0.605816 -4.0014 0
M  V30 32806 H 3143.5 0.921585 -2.98706 0
M  V30 32807 H 3142.72 -1.47219 -3.65678 0
M  V30 32808 H 3144.01 -1.45853 -4.87447 0
M  V30 32809 H 3143.41 1.67856 -5.40223 0
M  V30 32810 H 3141.96 1.56365 -6.32766 0
M  V30 32811 N 3145.4 1.33878 -0.831529 0
M  V30 32812 C 3146.64 1.97626 -0.422872 0
M  V30 32813 C 3146.97 1.66222 1.01958 0
M  V30 32814 O 3146.24 0.957353 1.70914 0
M  V30 32815 H 3144.82 0.731084 -0.153378 0
M  V30 32816 H 3147.48 1.63368 -1.06287 0
M  V30 32817 H 3146.57 3.07235 -0.548912 0
M  V30 32818 N 3146.87 0.587281 1.46249 0
M  V30 32819 C 3147.82 -0.143343 2.30354 0
M  V30 32820 C 3148.79 -0.879691 1.40892 0
M  V30 32821 O 3149.98 -0.869456 1.69838 0
M  V30 32822 C 3147.12 -1.14809 3.25443 0
M  V30 32823 C 3146.23 -0.414716 4.30005 0
M  V30 32824 C 3145.36 -1.40739 5.12217 0
M  V30 32825 C 3144.4 -0.660679 6.08524 0
M  V30 32826 N 3143.54 -1.60164 6.83588 0
M  V30 32827 H 3148.38 0.579917 2.92303 0
M  V30 32828 H 3145.92 0.297795 1.44054 0
M  V30 32829 H 3147.88 -1.74353 3.79021 0
M  V30 32830 H 3146.51 -1.83901 2.65293 0
M  V30 32831 H 3145.56 0.295853 3.79248 0
M  V30 32832 H 3146.87 0.168826 4.98514 0
M  V30 32833 H 3146.02 -2.0755 5.70095 0
M  V30 32834 H 3144.76 -2.02486 4.43679 0
M  V30 32835 H 3143.77 0.021183 5.49796 0
M  V30 32836 H 3144.99 -0.0485357 6.79083 0
M  V30 32837 H 3142.94 -2.20713 6.17756 0
M  V30 32838 H 3142.86 -1.07102 7.48375 0
M  V30 32839 H 3144.12 -2.25996 7.4602 0
M  V30 32840 N 3148.35 -1.54206 0.325309 0
M  V30 32841 C 3149.58 -2.05482 -0.281382 0
M  V30 32842 C 3150 -1.1998 -1.44867 0
M  V30 32843 O 3149.36 -0.209306 -1.80088 0
M  V30 32844 C 3149.41 -3.53899 -0.691967 0
M  V30 32845 O 3148.51 -3.71328 -1.79414 0
M  V30 32846 H 3147.85 -0.662079 -0.0504756 0
M  V30 32847 H 3150.38 -1.99028 0.474226 0
M  V30 32848 H 3150.39 -3.962 -0.974149 0
M  V30 32849 H 3149.07 -4.15585 0.161783 0
M  V30 32850 H 3147.65 -3.40932 -1.51063 0
M  V30 32851 N 3149.83 -0.0535194 -1.57509 0
M  V30 32852 C 3151.08 0.619738 -1.92784 0
M  V30 32853 C 3151.41 1.70712 -0.932076 0
M  V30 32854 O 3150.66 1.95622 0.0552547 0
M  V30 32855 C 3150.96 1.25245 -3.34736 0
M  V30 32856 C 3150.63 0.293034 -4.49947 0
M  V30 32857 C 3149.29 0.0290377 -4.81191 0
M  V30 32858 C 3151.64 -0.364363 -5.19925 0
M  V30 32859 C 3148.97 -0.899751 -5.7976 0
M  V30 32860 C 3151.32 -1.28136 -6.19487 0
M  V30 32861 C 3149.98 -1.554 -6.49159 0
M  V30 32862 H 3149.25 0.226778 -0.705445 0
M  V30 32863 H 3151.9 -0.120499 -1.91121 0
M  V30 32864 H 3150.21 2.06801 -3.32777 0
M  V30 32865 H 3151.9 1.78036 -3.59311 0
M  V30 32866 H 3148.49 0.508978 -4.25567 0
M  V30 32867 H 3152.68 -0.173499 -4.95997 0
M  V30 32868 H 3147.93 -1.11843 -6.01083 0
M  V30 32869 H 3152.11 -1.79681 -6.72821 0
M  V30 32870 H 3149.73 -2.27533 -7.2535 0
M  V30 32871 N 3151.31 1.56059 0.219886 0
M  V30 32872 C 3152.27 1.9172 1.25603 0
M  V30 32873 C 3153.27 0.795937 1.39719 0
M  V30 32874 O 3154.46 1.06367 1.37956 0
M  V30 32875 C 3151.59 2.16948 2.62957 0
M  V30 32876 H 3152.79 2.84393 0.951859 0
M  V30 32877 H 3150.34 1.49366 0.460372 0
M  V30 32878 H 3151.08 1.26831 2.9847 0
M  V30 32879 H 3150.86 2.98633 2.54088 0
M  V30 32880 H 3152.35 2.45628 3.37723 0
M  V30 32881 N 3152.79 -0.486655 1.49898 0
M  V30 32882 C 3153.75 -1.56888 1.67089 0
M  V30 32883 C 3154.75 -1.51386 0.542117 0
M  V30 32884 O 3155.94 -1.54283 0.808858 0
M  V30 32885 C 3153.07 -2.96536 1.68165 0
M  V30 32886 H 3154.27 -1.42969 2.63628 0
M  V30 32887 H 3151.82 -0.71193 1.39145 0
M  V30 32888 H 3152.55 -3.15916 0.732618 0
M  V30 32889 H 3152.34 -3.01937 2.50153 0
M  V30 32890 H 3153.83 -3.75137 1.83472 0
M  V30 32891 N 3154.27 -1.39214 -0.738737 0
M  V30 32892 C 3155.49 -1.395 -1.52799 0
M  V30 32893 C 3155.91 0.0114585 -1.88797 0
M  V30 32894 O 3155.27 0.98186 -1.53837 0
M  V30 32895 C 3155.32 -2.26445 -2.81789 0
M  V30 32896 O 3155.04 -3.61613 -2.47321 0
M  V30 32897 C 3156.54 -2.35073 -3.7584 0
M  V30 32898 H 3153.76 -0.476614 -0.472313 0
M  V30 32899 H 3156.3 -1.82982 -0.913121 0
M  V30 32900 H 3154.46 -1.86386 -3.39616 0
M  V30 32901 H 3154.87 -4.07551 -3.30155 0
M  V30 32902 H 3156.35 -3.00165 -4.63255 0
M  V30 32903 H 3156.82 -1.36877 -4.17326 0
M  V30 32904 H 3157.43 -2.75586 -3.23932 0
M  V30 32905 N 3155.74 0.968523 -1.24328 0
M  V30 32906 C 3156.99 1.70571 -1.0765 0
M  V30 32907 C 3157.31 1.91778 0.384787 0
M  V30 32908 O 3158.51 2.63059 0.671736 0
M  V30 32909 C 3156.97 3.07014 -1.87804 0
M  V30 32910 C 3156.58 2.93652 -3.38338 0
M  V30 32911 C 3158.32 3.8461 -1.79653 0
M  V30 32912 C 3156.23 4.254 -4.10839 0
M  V30 32913 H 3155.16 0.639635 -0.399228 0
M  V30 32914 H 3157.81 1.07931 -1.48402 0
M  V30 32915 H 3156.19 3.70477 -1.39866 0
M  V30 32916 H 3157.36 2.39206 -3.93849 0
M  V30 32917 H 3155.68 2.29522 -3.47431 0
M  V30 32918 H 3158.28 4.82168 -2.31124 0
M  V30 32919 H 3158.62 4.09274 -0.761625 0
M  V30 32920 H 3159.15 3.27872 -2.25267 0
M  V30 32921 H 3155.89 4.0593 -5.14686 0
M  V30 32922 H 3155.41 4.79665 -3.60113 0
M  V30 32923 H 3157.09 4.94024 -4.17791 0
M  V30 32924 N 3157.22 1.0569 1.16908 0
M  V30 32925 C 3158.45 0.790512 1.91744 0
M  V30 32926 C 3158.87 -0.648447 1.76569 0
M  V30 32927 O 3158.23 -1.45112 1.08684 0
M  V30 32928 C 3158.28 1.18228 3.40668 0
M  V30 32929 O 3157.38 0.317413 4.11177 0
M  V30 32930 H 3156.72 0.289441 0.597595 0
M  V30 32931 H 3159.25 1.41108 1.48154 0
M  V30 32932 H 3159.26 1.15121 3.91422 0
M  V30 32933 H 3157.94 2.23046 3.51032 0
M  V30 32934 H 3156.51 0.409524 3.70644 0
M  V30 32935 N 3158.7 -1.33435 0.838617 0
M  V30 32936 C 3160.12 -1.5067 0.526373 0
M  V30 32937 C 3160.32 -1.77894 -0.946355 0
M  V30 32938 O 3159.37 -1.83906 -1.73017 0
M  V30 32939 C 3160.68 -2.66148 1.39949 0
M  V30 32940 C 3162.23 -2.80032 1.39824 0
M  V30 32941 C 3162.71 -3.98572 2.25621 0
M  V30 32942 N 3164.2 -4.05806 2.23329 0
M  V30 32943 C 3164.93 -4.96722 2.86452 0
M  V30 32944 N 3164.43 -5.92755 3.58627 0
M  V30 32945 N 3166.22 -4.89717 2.75924 0
M  V30 32946 H 3158.37 -1.14026 1.79197 0
M  V30 32947 H 3160.64 -0.560573 0.764501 0
M  V30 32948 H 3160.34 -2.52709 2.44603 0
M  V30 32949 H 3160.22 -3.61547 1.07536 0
M  V30 32950 H 3162.6 -2.92903 0.359422 0
M  V30 32951 H 3162.68 -1.85395 1.76245 0
M  V30 32952 H 3162.33 -3.8646 3.29562 0
M  V30 32953 H 3162.26 -4.92453 1.86542 0
M  V30 32954 H 3164.75 -3.37078 1.70842 0
M  V30 32955 H 3165.06 -6.58791 4.03998 0
M  V30 32956 H 3163.41 -5.92831 3.62734 0
M  V30 32957 H 3166.6 -4.13657 2.19101 0
M  V30 32958 H 3166.77 -5.60372 3.25403 0
M  V30 32959 N 3160.18 -0.595029 -1.45935 0
M  V30 32960 C 3161.41 -0.0913294 -2.06698 0
M  V30 32961 C 3161.82 1.21894 -1.44178 0
M  V30 32962 O 3161.18 1.7397 -0.551433 0
M  V30 32963 C 3161.23 0.0681165 -3.61436 0
M  V30 32964 O 3160.95 -1.19031 -4.2162 0
M  V30 32965 C 3162.45 0.604737 -4.39156 0
M  V30 32966 H 3159.67 -0.0630855 -0.668028 0
M  V30 32967 H 3162.21 -0.819198 -1.87375 0
M  V30 32968 H 3160.37 0.746257 -3.80144 0
M  V30 32969 H 3160.78 -1.01196 -5.14645 0
M  V30 32970 H 3162.26 0.665436 -5.47974 0
M  V30 32971 H 3162.73 1.62437 -4.08058 0
M  V30 32972 H 3163.34 -0.0389405 -4.25282 0
M  V30 32973 N 3161.66 1.54031 -0.333483 0
M  V30 32974 C 3162.88 2.0516 0.267777 0
M  V30 32975 C 3163.3 1.20906 1.45007 0
M  V30 32976 O 3162.66 0.242026 1.80888 0
M  V30 32977 C 3162.71 3.54803 0.692618 0
M  V30 32978 O 3162.43 4.35858 -0.442655 0
M  V30 32979 C 3163.93 4.22063 1.35565 0
M  V30 32980 H 3161.15 0.668865 0.0534807 0
M  V30 32981 H 3163.69 1.98725 -0.48255 0
M  V30 32982 H 3161.85 3.61493 1.3929 0
M  V30 32983 H 3162.26 5.24393 -0.106007 0
M  V30 32984 H 3163.74 5.28189 1.60376 0
M  V30 32985 H 3164.21 3.73787 2.30607 0
M  V30 32986 H 3164.82 4.19539 0.697674 0
M  V30 32987 N 3163.13 0.0618717 1.57479 0
M  V30 32988 C 3164.06 -0.906562 2.15183 0
M  V30 32989 C 3165.04 -1.31722 1.07626 0
M  V30 32990 O 3166.23 -1.39003 1.35616 0
M  V30 32991 C 3163.36 -2.17767 2.70546 0
M  V30 32992 C 3162.31 -1.90673 3.83181 0
M  V30 32993 C 3161.64 -3.2433 4.25105 0
M  V30 32994 C 3162.94 -1.21985 5.07855 0
M  V30 32995 H 3164.63 -0.425888 2.96355 0
M  V30 32996 H 3162.18 -0.20341 1.42556 0
M  V30 32997 H 3164.13 -2.85924 3.09557 0
M  V30 32998 H 3162.86 -2.68059 1.8658 0
M  V30 32999 H 3161.52 -1.24925 3.44658 0
M  V30 33000 H 3161.16 -3.72443 3.38075 0
M  V30 33001 H 3160.86 -3.06996 5.01026 0
M  V30 33002 H 3162.39 -3.93701 4.66725 0
M  V30 33003 H 3163.8 -1.80195 5.44245 0
M  V30 33004 H 3162.2 -1.14943 5.88989 0
M  V30 33005 H 3163.27 -0.197451 4.84498 0
M  V30 33006 N 3164.61 -1.56173 -0.211607 0
M  V30 33007 C 3165.52 -1.96404 -1.28306 0
M  V30 33008 C 3166.54 -0.869281 -1.5073 0
M  V30 33009 O 3167.71 -1.17368 -1.63666 0
M  V30 33010 C 3164.78 -2.28119 -2.6108 0
M  V30 33011 C 3163.84 -3.51216 -2.46872 0
M  V30 33012 C 3163.07 -3.81408 -3.73314 0
M  V30 33013 O 3163.3 -3.13128 -4.76767 0
M  V30 33014 O 3162.23 -4.74878 -3.69831 0
M  V30 33015 H 3166.06 -2.87736 -0.971683 0
M  V30 33016 H 3163.64 -1.43512 -0.41528 0
M  V30 33017 H 3165.52 -2.49667 -3.39477 0
M  V30 33018 H 3164.2 -1.39959 -2.91879 0
M  V30 33019 H 3163.11 -3.34935 -1.66642 0
M  V30 33020 H 3164.44 -4.3979 -2.21011 0
M  V30 33021 N 3166.09 0.478699 -1.50154 0
M  V30 33022 C 3167.34 1.23315 -1.61001 0
M  V30 33023 C 3167.67 1.91776 -0.305902 0
M  V30 33024 O 3166.94 1.81769 0.692126 0
M  V30 33025 C 3167.23 2.28277 -2.78499 0
M  V30 33026 C 3167.08 1.64171 -4.1877 0
M  V30 33027 C 3168.4 3.29654 -2.91575 0
M  V30 33028 H 3165.52 0.446971 -0.585991 0
M  V30 33029 H 3168.16 0.528031 -1.82515 0
M  V30 33030 H 3166.31 2.88415 -2.60286 0
M  V30 33031 H 3167.98 1.07688 -4.48554 0
M  V30 33032 H 3166.23 0.945065 -4.2338 0
M  V30 33033 H 3166.9 2.40408 -4.96898 0
M  V30 33034 H 3169.37 2.79531 -3.08224 0
M  V30 33035 H 3168.25 4.00433 -3.75426 0
M  V30 33036 H 3168.51 3.93322 -2.01866 0
M  V30 33037 N 3167.57 1.39603 0.731343 0
M  V30 33038 C 3168.5 1.41355 1.85852 0
M  V30 33039 C 3169.48 0.27643 1.67839 0
M  V30 33040 O 3170.66 0.48278 1.88103 0
M  V30 33041 C 3167.79 1.25989 3.23642 0
M  V30 33042 C 3166.75 2.37138 3.563 0
M  V30 33043 C 3166.07 2.06859 4.93065 0
M  V30 33044 C 3167.37 3.79458 3.589 0
M  V30 33045 H 3169.07 2.35684 1.84644 0
M  V30 33046 H 3166.61 1.13444 0.886935 0
M  V30 33047 H 3168.57 1.25834 4.02174 0
M  V30 33048 H 3167.29 0.281292 3.25386 0
M  V30 33049 H 3165.95 2.36516 2.80099 0
M  V30 33050 H 3165.6 1.07429 4.91394 0
M  V30 33051 H 3165.3 2.81315 5.15883 0
M  V30 33052 H 3166.82 2.0836 5.7395 0
M  V30 33053 H 3168.24 3.81989 4.27501 0
M  V30 33054 H 3166.63 4.53304 3.93238 0
M  V30 33055 H 3167.7 4.10173 2.58624 0
M  V30 33056 N 3169.05 -0.961916 1.2484 0
M  V30 33057 C 3169.98 -2.06053 1.00373 0
M  V30 33058 C 3170.99 -1.62774 -0.0288297 0
M  V30 33059 O 3172.18 -1.77274 0.208884 0
M  V30 33060 C 3169.28 -3.3528 0.494012 0
M  V30 33061 C 3168.45 -4.07437 1.59104 0
M  V30 33062 C 3167.51 -5.14935 1.08297 0
M  V30 33063 O 3166.54 -5.40788 1.77587 0
M  V30 33064 N 3167.74 -5.80445 -0.0795816 0
M  V30 33065 H 3170.51 -2.27615 1.94966 0
M  V30 33066 H 3168.07 -1.12995 1.15947 0
M  V30 33067 H 3170.06 -4.04462 0.138746 0
M  V30 33068 H 3168.63 -3.10546 -0.357796 0
M  V30 33069 H 3167.85 -3.32453 2.11823 0
M  V30 33070 H 3169.14 -4.52405 2.32825 0
M  V30 33071 H 3168.53 -5.61852 -0.658728 0
M  V30 33072 H 3167.09 -6.50715 -0.375942 0
M  V30 33073 N 3170.52 -1.06308 -1.16346 0
M  V30 33074 C 3171.45 -0.695273 -2.22909 0
M  V30 33075 C 3172.44 0.312313 -1.67208 0
M  V30 33076 O 3173.62 0.187408 -1.93294 0
M  V30 33077 C 3170.75 -0.0810759 -3.47205 0
M  V30 33078 C 3169.7 -1.01465 -4.15799 0
M  V30 33079 C 3169.03 -0.26375 -5.34049 0
M  V30 33080 C 3170.33 -2.34373 -4.66762 0
M  V30 33081 H 3172.02 -1.58618 -2.53931 0
M  V30 33082 H 3169.57 -0.764111 -1.22055 0
M  V30 33083 H 3171.52 0.188106 -4.2098 0
M  V30 33084 H 3170.25 0.844842 -3.15484 0
M  V30 33085 H 3168.91 -1.26858 -3.43951 0
M  V30 33086 H 3168.55 0.665291 -4.98581 0
M  V30 33087 H 3168.25 -0.885922 -5.80883 0
M  V30 33088 H 3169.78 -0.00211727 -6.106 0
M  V30 33089 H 3171.19 -2.13366 -5.32117 0
M  V30 33090 H 3169.59 -2.92089 -5.24218 0
M  V30 33091 H 3170.66 -2.97433 -3.82964 0
M  V30 33092 N 3172 1.32989 -0.845682 0
M  V30 33093 C 3173.25 1.97557 -0.444687 0
M  V30 33094 C 3173.58 1.66964 0.997653 0
M  V30 33095 O 3172.83 0.94544 1.71347 0
M  V30 33096 C 3173.13 3.51978 -0.620162 0
M  V30 33097 C 3172.8 4.02537 -2.03162 0
M  V30 33098 C 3171.46 4.16055 -2.41768 0
M  V30 33099 C 3173.81 4.29456 -2.95325 0
M  V30 33100 C 3171.14 4.5383 -3.71826 0
M  V30 33101 C 3173.49 4.68686 -4.24871 0
M  V30 33102 C 3172.16 4.8041 -4.63424 0
M  V30 33103 H 3171.43 0.722912 -0.162723 0
M  V30 33104 H 3174.07 1.58547 -1.07401 0
M  V30 33105 H 3172.38 3.91691 0.0924442 0
M  V30 33106 H 3174.07 3.99949 -0.290083 0
M  V30 33107 H 3170.66 3.92494 -1.72181 0
M  V30 33108 H 3174.85 4.1853 -2.66733 0
M  V30 33109 H 3170.1 4.61101 -4.01492 0
M  V30 33110 H 3174.28 4.88472 -4.96355 0
M  V30 33111 H 3171.91 5.09438 -5.64249 0
M  V30 33112 N 3173.48 0.60276 1.45618 0
M  V30 33113 C 3174.89 0.181669 1.85814 0
M  V30 33114 C 3175.24 -1.26026 1.50372 0
M  V30 33115 O 3174.37 -1.95487 0.928102 0
M  V30 33116 C 3174.96 0.322926 3.37258 0
M  V30 33117 C 3173.52 -0.0434378 3.76375 0
M  V30 33118 C 3172.67 0.649609 2.69584 0
M  V30 33119 H 3175.62 0.809745 1.36487 0
M  V30 33120 H 3175.64 -0.446213 3.77875 0
M  V30 33121 H 3175.15 1.37248 3.63022 0
M  V30 33122 H 3173.25 -1.09235 3.56228 0
M  V30 33123 H 3173.37 0.346849 4.77843 0
M  V30 33124 H 3171.73 0.0877507 2.54549 0
M  V30 33125 H 3172.51 1.7012 2.98185 0
M  V30 33126 N 3174.96 -1.53852 0.341647 0
M  V30 33127 C 3176.21 -2.00063 -0.25644 0
M  V30 33128 C 3176.52 -1.23343 -1.51808 0
M  V30 33129 O 3177.73 -1.60021 -2.1933 0
M  V30 33130 C 3176.18 -3.56304 -0.507505 0
M  V30 33131 C 3175.79 -4.41877 0.738129 0
M  V30 33132 C 3177.53 -4.10935 -1.06455 0
M  V30 33133 C 3175.44 -5.89624 0.457969 0
M  V30 33134 H 3174.37 -0.747393 -0.0996012 0
M  V30 33135 H 3177.02 -1.77726 0.456681 0
M  V30 33136 H 3175.4 -3.74699 -1.28128 0
M  V30 33137 H 3176.58 -4.35258 1.51286 0
M  V30 33138 H 3174.89 -3.98228 1.21668 0
M  V30 33139 H 3177.49 -5.18928 -1.28908 0
M  V30 33140 H 3177.83 -3.64036 -2.0195 0
M  V30 33141 H 3178.37 -3.96244 -0.351531 0
M  V30 33142 H 3175.11 -6.40753 1.38258 0
M  V30 33143 H 3174.63 -5.99152 -0.278712 0
M  V30 33144 H 3176.3 -6.46957 0.0745051 0
M  V30 33145 N 3176.44 -0.0702223 -1.57443 0
M  V30 33146 C 3177.38 0.915265 -2.13836 0
M  V30 33147 C 3178.38 1.30932 -1.07485 0
M  V30 33148 O 3179.58 1.28675 -1.25868 0
M  V30 33149 H 3175.96 0.313096 -0.683721 0
M  V30 33150 H 3177.93 0.414706 -2.95504 0
M  V30 33151 C 3176.68 2.17393 -2.71359 0
M  V30 33152 H 3176 1.87954 -3.52864 0
M  V30 33153 H 3177.44 2.84464 -3.14415 0
M  V30 33154 C 3175.9 2.9314 -1.66043 0
M  V30 33155 O 3176.43 3.86784 -1.08449 0
M  V30 33156 N 3174.64 2.56219 -1.37115 0
M  V30 33157 H 3174.18 1.80142 -1.84138 0
M  V30 33158 H 3174.14 3.07204 -0.668824 0
M  V30 33159 N 3177.91 1.56283 0.203321 0
M  V30 33160 C 3179.16 1.79336 0.923118 0
M  V30 33161 C 3179.48 0.64201 1.84764 0
M  V30 33162 O 3180.68 0.75663 2.60744 0
M  V30 33163 C 3179.14 3.17658 1.69179 0
M  V30 33164 C 3178.75 4.40571 0.812503 0
M  V30 33165 C 3180.49 3.50026 2.40171 0
M  V30 33166 C 3178.4 5.69915 1.57957 0
M  V30 33167 H 3177.33 0.668665 0.34843 0
M  V30 33168 H 3179.98 1.82649 0.176568 0
M  V30 33169 H 3178.36 3.08572 2.48192 0
M  V30 33170 H 3179.53 4.60759 0.0616146 0
M  V30 33171 H 3177.85 4.15851 0.213817 0
M  V30 33172 H 3180.45 4.43896 2.98095 0
M  V30 33173 H 3180.79 2.73381 3.13956 0
M  V30 33174 H 3181.32 3.60523 1.68132 0
M  V30 33175 H 3178.06 6.49503 0.884653 0
M  V30 33176 H 3177.58 5.53758 2.3046 0
M  V30 33177 H 3179.26 6.10741 2.13552 0
M  V30 33178 N 3179.39 -0.470729 1.50406 0
M  V30 33179 C 3180.34 -1.56868 1.69296 0
M  V30 33180 C 3181.31 -1.57273 0.534276 0
M  V30 33181 O 3182.5 -1.74797 0.764886 0
M  V30 33182 C 3179.64 -2.94839 1.79343 0
M  V30 33183 C 3178.75 -3.0422 3.06715 0
M  V30 33184 C 3177.88 -4.33108 3.07556 0
M  V30 33185 C 3176.92 -4.36233 4.2938 0
M  V30 33186 N 3176.06 -5.56593 4.27958 0
M  V30 33187 H 3180.9 -1.40066 2.63031 0
M  V30 33188 H 3178.44 -0.680993 1.30387 0
M  V30 33189 H 3180.39 -3.7485 1.83149 0
M  V30 33190 H 3179.02 -3.10275 0.890466 0
M  V30 33191 H 3178.08 -2.17081 3.12378 0
M  V30 33192 H 3179.39 -3.02389 3.96689 0
M  V30 33193 H 3178.54 -5.21466 3.10093 0
M  V30 33194 H 3177.28 -4.37549 2.15412 0
M  V30 33195 H 3176.29 -3.46272 4.27054 0
M  V30 33196 H 3177.51 -4.33484 5.22751 0
M  V30 33197 H 3175.46 -5.61818 3.38668 0
M  V30 33198 H 3175.37 -5.56504 5.11702 0
M  V30 33199 H 3176.64 -6.47075 4.34642 0
M  V30 33200 N 3180.87 -1.39989 -0.72393 0
M  V30 33201 C 3182.1 -1.41302 -1.51818 0
M  V30 33202 C 3182.52 -0.0122967 -1.88096 0
M  V30 33203 O 3181.88 0.977533 -1.52689 0
M  V30 33204 C 3181.93 -2.3024 -2.77528 0
M  V30 33205 O 3181.03 -1.73991 -3.739 0
M  V30 33206 H 3180.37 -0.480715 -0.458049 0
M  V30 33207 H 3182.9 -1.84119 -0.892258 0
M  V30 33208 H 3182.91 -2.45138 -3.26146 0
M  V30 33209 H 3181.59 -3.32031 -2.50457 0
M  V30 33210 H 3180.16 -1.68395 -3.32712 0
M  V30 33211 N 3182.35 0.955282 -1.25348 0
M  V30 33212 C 3183.57 1.73981 -1.12895 0
M  V30 33213 C 3184 1.8547 0.313423 0
M  V30 33214 O 3183.36 1.33467 1.22704 0
M  V30 33215 C 3183.41 3.13187 -1.78735 0
M  V30 33216 O 3182.51 3.9837 -1.06655 0
M  V30 33217 H 3181.85 0.534334 -0.394187 0
M  V30 33218 H 3184.38 1.19745 -1.65899 0
M  V30 33219 H 3184.39 3.6365 -1.84994 0
M  V30 33220 H 3183.07 3.04141 -2.83674 0
M  V30 33221 H 3181.64 3.56836 -1.08272 0
M  V30 33222 N 3183.83 1.06924 1.1578 0
M  V30 33223 C 3184.78 0.679932 2.2244 0
M  V30 33224 C 3185.77 -0.307192 1.66591 0
M  V30 33225 O 3186.98 -0.17137 1.79182 0
M  V30 33226 H 3183.35 0.201778 0.724424 0
M  V30 33227 H 3185.32 1.58923 2.52559 0
M  V30 33228 C 3184.07 0.0891753 3.47586 0
M  V30 33229 H 3183.39 0.839873 3.90879 0
M  V30 33230 H 3184.83 -0.145615 4.2375 0
M  V30 33231 C 3183.29 -1.16898 3.15969 0
M  V30 33232 O 3183.82 -2.25605 3.32363 0
M  V30 33233 N 3182.03 -1.07344 2.70047 0
M  V30 33234 H 3181.58 -0.18878 2.56907 0
M  V30 33235 H 3181.53 -1.91607 2.49267 0
M  V30 33236 N 3185.31 -1.32538 0.852723 0
M  V30 33237 C 3186.55 -1.96929 0.454259 0
M  V30 33238 C 3186.87 -1.67823 -0.993005 0
M  V30 33239 O 3186.14 -0.984422 -1.69369 0
M  V30 33240 H 3184.72 -0.728552 0.16499 0
M  V30 33241 H 3187.39 -1.61656 1.08873 0
M  V30 33242 H 3186.48 -3.06323 0.597721 0
M  V30 33243 N 3186.78 -0.610474 -1.45296 0
M  V30 33244 C 3188.03 -0.106584 -2.01819 0
M  V30 33245 C 3188.35 1.26847 -1.48104 0
M  V30 33246 O 3187.62 1.83851 -0.676444 0
M  V30 33247 H 3186.2 -0.0364113 -0.746112 0
M  V30 33248 H 3188.86 -0.792523 -1.78059 0
M  V30 33249 H 3187.96 -0.0585549 -3.12045 0
M  V30 33250 N 3188.26 1.53669 -0.349801 0
M  V30 33251 C 3189.49 2.05904 0.248656 0
M  V30 33252 C 3189.91 1.22269 1.4294 0
M  V30 33253 O 3189.27 0.23793 1.79732 0
M  V30 33254 C 3189.32 3.54955 0.635577 0
M  V30 33255 O 3188.42 3.74135 1.73483 0
M  V30 33256 H 3187.76 0.662798 0.0399361 0
M  V30 33257 H 3190.29 1.98249 -0.50583 0
M  V30 33258 H 3190.3 3.977 0.910994 0
M  V30 33259 H 3188.98 4.15275 -0.227878 0
M  V30 33260 H 3187.55 3.43292 1.4562 0
M  V30 33261 N 3189.74 0.0785709 1.57404 0
M  V30 33262 C 3190.69 -0.886272 2.13105 0
M  V30 33263 C 3191.66 -1.29085 1.04529 0
M  V30 33264 O 3192.84 -1.37551 1.32228 0
M  V30 33265 C 3189.98 -2.14606 2.70256 0
M  V30 33266 C 3189.09 -1.79351 3.9301 0
M  V30 33267 C 3188.23 -2.99993 4.38381 0
M  V30 33268 C 3187.27 -2.60787 5.53766 0
M  V30 33269 N 3186.41 -3.74209 5.94064 0
M  V30 33270 H 3191.25 -0.4044 2.95243 0
M  V30 33271 H 3188.78 -0.187956 1.45894 0
M  V30 33272 H 3190.74 -2.88362 3.01502 0
M  V30 33273 H 3189.37 -2.60322 1.90872 0
M  V30 33274 H 3188.42 -0.956319 3.68183 0
M  V30 33275 H 3189.73 -1.46512 4.76797 0
M  V30 33276 H 3188.89 -3.82019 4.71324 0
M  V30 33277 H 3187.63 -3.36031 3.53461 0
M  V30 33278 H 3186.63 -1.77183 5.20467 0
M  V30 33279 H 3187.86 -2.25911 6.40423 0
M  V30 33280 H 3185.8 -4.09996 5.12093 0
M  V30 33281 H 3185.72 -3.45159 6.72608 0
M  V30 33282 H 3186.99 -4.56794 6.31632 0
M  V30 33283 N 3191.22 -1.56389 -0.19503 0
M  V30 33284 C 3192.45 -1.84739 -0.93161 0
M  V30 33285 C 3192.86 -0.661077 -1.76848 0
M  V30 33286 O 3192.22 0.370209 -1.78706 0
M  V30 33287 C 3192.27 -3.11892 -1.82772 0
M  V30 33288 O 3191.99 -4.25949 -1.02464 0
M  V30 33289 C 3193.49 -3.53422 -2.67597 0
M  V30 33290 H 3190.71 -0.613482 -0.27181 0
M  V30 33291 H 3193.25 -2.03497 -0.202264 0
M  V30 33292 H 3191.41 -2.95031 -2.51068 0
M  V30 33293 H 3191.82 -4.98356 -1.6353 0
M  V30 33294 H 3193.3 -4.45358 -3.2613 0
M  V30 33295 H 3193.77 -2.76414 -3.41309 0
M  V30 33296 H 3194.38 -3.72813 -2.04671 0
M  V30 33297 N 3192.7 0.462746 -1.50653 0
M  V30 33298 C 3193.92 1.24193 -1.66105 0
M  V30 33299 C 3194.35 1.84863 -0.347453 0
M  V30 33300 O 3193.7 1.67671 0.689643 0
M  V30 33301 C 3193.75 2.32032 -2.76031 0
M  V30 33302 O 3192.86 3.36889 -2.37865 0
M  V30 33303 H 3192.2 0.365005 -0.554678 0
M  V30 33304 H 3194.73 0.549699 -1.97077 0
M  V30 33305 H 3194.74 2.77215 -2.99359 0
M  V30 33306 H 3193.41 1.87247 -3.71364 0
M  V30 33307 H 3191.99 2.97359 -2.25016 0
M  V30 33308 N 3194.17 1.40371 0.716495 0
M  V30 33309 C 3195.59 1.34429 1.2956 0
M  V30 33310 C 3195.94 0.0173451 1.96192 0
M  V30 33311 O 3195.06 -0.884684 1.9749 0
M  V30 33312 C 3195.66 2.43474 2.35596 0
M  V30 33313 C 3194.22 2.40995 2.89134 0
M  V30 33314 C 3193.36 2.244 1.62911 0
M  V30 33315 H 3196.31 1.50191 0.512688 0
M  V30 33316 H 3196.33 2.11329 3.16418 0
M  V30 33317 H 3195.85 3.40038 1.87071 0
M  V30 33318 H 3193.95 1.48126 3.41891 0
M  V30 33319 H 3194.06 3.36546 3.40989 0
M  V30 33320 H 3192.42 1.71899 1.87944 0
M  V30 33321 H 3193.21 3.2296 1.16412 0
M  V30 33322 N 3195.65 -0.948621 1.25853 0
M  V30 33323 C 3196.62 -2.02779 1.06834 0
M  V30 33324 C 3197.62 -1.60789 0.0191299 0
M  V30 33325 O 3198.81 -1.72221 0.261866 0
M  V30 33326 C 3195.94 -3.35152 0.623377 0
M  V30 33327 H 3197.13 -2.21083 2.02639 0
M  V30 33328 H 3194.68 -1.12655 1.08345 0
M  V30 33329 H 3195.42 -3.22544 -0.336997 0
M  V30 33330 H 3195.2 -3.66979 1.38089 0
M  V30 33331 H 3196.69 -4.1445 0.511927 0
M  V30 33332 N 3197.13 -1.07536 -1.15212 0
M  V30 33333 C 3198.06 -0.718876 -2.22159 0
M  V30 33334 C 3199.04 0.294561 -1.6753 0
M  V30 33335 O 3200.23 0.166897 -1.93482 0
M  V30 33336 C 3197.36 -0.117897 -3.471 0
M  V30 33337 C 3196.31 -1.0587 -4.14699 0
M  V30 33338 C 3195.64 -0.320378 -5.33739 0
M  V30 33339 C 3196.94 -2.39311 -4.6425 0
M  V30 33340 H 3198.63 -1.61302 -2.52234 0
M  V30 33341 H 3196.18 -0.777014 -1.21237 0
M  V30 33342 H 3198.13 0.143445 -4.21156 0
M  V30 33343 H 3196.85 0.811333 -3.16362 0
M  V30 33344 H 3195.51 -1.30499 -3.42587 0
M  V30 33345 H 3195.16 0.612372 -4.99258 0
M  V30 33346 H 3194.86 -0.947483 -5.79911 0
M  V30 33347 H 3196.38 -0.0668794 -6.10563 0
M  V30 33348 H 3197.8 -2.18997 -5.29824 0
M  V30 33349 H 3196.2 -2.97633 -5.2109 0
M  V30 33350 H 3197.27 -3.01478 -3.79788 0
M  V30 33351 N 3198.61 1.32084 -0.85974 0
M  V30 33352 C 3199.85 1.98876 -0.471974 0
M  V30 33353 C 3200.21 1.66527 0.95566 0
M  V30 33354 O 3201.41 2.26449 1.44825 0
M  V30 33355 C 3199.68 3.50275 -0.710078 0
M  V30 33356 S 3201.24 4.36779 -0.420643 0
M  V30 33357 H 3198.06 0.688719 -0.1766 0
M  V30 33358 H 3200.66 1.60687 -1.11355 0
M  V30 33359 H 3199.37 3.71308 -1.74809 0
M  V30 33360 H 3198.9 3.93361 -0.055112 0
M  V30 33361 H 3200.91 4.9048 0.751276 0
M  V30 33362 N 3200.09 0.618171 1.4497 0
M  V30 33363 C 3201.02 -0.132711 2.28815 0
M  V30 33364 C 3202.03 -0.821511 1.40553 0
M  V30 33365 O 3203.22 -0.685126 1.64828 0
M  V30 33366 C 3200.32 -1.20949 3.16583 0
M  V30 33367 C 3199.49 -0.605744 4.33185 0
M  V30 33368 C 3198.55 -1.57479 5.02082 0
M  V30 33369 O 3197.58 -1.09697 5.5853 0
M  V30 33370 N 3198.78 -2.90921 5.0234 0
M  V30 33371 H 3201.55 0.586791 2.93899 0
M  V30 33372 H 3199.11 0.458403 1.55275 0
M  V30 33373 H 3201.1 -1.85781 3.59538 0
M  V30 33374 H 3199.67 -1.83138 2.53336 0
M  V30 33375 H 3198.89 0.220896 3.93581 0
M  V30 33376 H 3200.18 -0.182793 5.08472 0
M  V30 33377 H 3199.57 -3.32334 4.57789 0
M  V30 33378 H 3198.13 -3.51147 5.49126 0
M  V30 33379 N 3201.56 -1.53481 0.357946 0
M  V30 33380 C 3202.81 -2.02128 -0.227085 0
M  V30 33381 C 3203.17 -1.24083 -1.47042 0
M  V30 33382 O 3202.46 -0.324 -1.88841 0
M  V30 33383 C 3202.65 -3.5267 -0.579555 0
M  V30 33384 C 3202.48 -4.45292 0.62807 0
M  V30 33385 C 3201.25 -4.92323 1.13781 0
M  V30 33386 C 3203.45 -4.92214 1.49096 0
M  V30 33387 N 3201.43 -5.68933 2.30625 0
M  V30 33388 C 3202.8 -5.67091 2.50614 0
M  V30 33389 C 3204.86 -4.743 1.51472 0
M  V30 33390 C 3203.56 -6.25958 3.54357 0
M  V30 33391 C 3205.59 -5.34027 2.54104 0
M  V30 33392 C 3204.95 -6.08784 3.54347 0
M  V30 33393 H 3201.05 -0.780645 -0.0460158 0
M  V30 33394 H 3203.63 -1.8815 0.500766 0
M  V30 33395 H 3201.8 -3.66825 -1.27649 0
M  V30 33396 H 3203.53 -3.88046 -1.14902 0
M  V30 33397 H 3200.29 -4.68344 0.703628 0
M  V30 33398 H 3200.71 -6.11904 2.8966 0
M  V30 33399 H 3205.36 -4.16035 0.753286 0
M  V30 33400 H 3203.07 -6.83323 4.31387 0
M  V30 33401 H 3206.66 -5.22064 2.56788 0
M  V30 33402 H 3205.54 -6.54177 4.32461 0
M  V30 33403 N 3203.04 -0.0869173 -1.5736 0
M  V30 33404 C 3204.27 0.590722 -1.9881 0
M  V30 33405 C 3204.69 1.61434 -0.965435 0
M  V30 33406 O 3204.05 1.81176 0.0671111 0
M  V30 33407 C 3204.1 1.22232 -3.39252 0
M  V30 33408 O 3203.2 2.33818 -3.3971 0
M  V30 33409 H 3202.54 0.150615 -0.646692 0
M  V30 33410 H 3205.07 -0.165909 -2.03926 0
M  V30 33411 H 3205.08 1.56558 -3.76767 0
M  V30 33412 H 3203.76 0.472362 -4.13209 0
M  V30 33413 H 3202.34 2.01173 -3.13981 0
M  V30 33414 N 3204.52 1.5649 0.186734 0
M  V30 33415 C 3205.43 1.98421 1.25165 0
M  V30 33416 C 3206.45 0.89315 1.49328 0
M  V30 33417 O 3207.62 1.19957 1.61779 0
M  V30 33418 C 3204.69 2.32243 2.57418 0
M  V30 33419 C 3203.75 3.55099 2.41254 0
M  V30 33420 C 3202.98 3.87299 3.67199 0
M  V30 33421 O 3203.2 3.20673 4.71726 0
M  V30 33422 O 3202.14 4.80701 3.62229 0
M  V30 33423 H 3205.96 2.89245 0.925784 0
M  V30 33424 H 3203.55 1.44155 0.392395 0
M  V30 33425 H 3205.43 2.55036 3.35462 0
M  V30 33426 H 3204.11 1.44585 2.89615 0
M  V30 33427 H 3203.01 3.37543 1.61293 0
M  V30 33428 H 3204.35 4.4325 2.13986 0
M  V30 33429 N 3206 -0.45475 1.50897 0
M  V30 33430 C 3207.24 -1.20738 1.62942 0
M  V30 33431 C 3207.58 -1.91265 0.336373 0
M  V30 33432 O 3206.85 -1.82847 -0.663121 0
M  V30 33433 C 3207.14 -2.23817 2.82096 0
M  V30 33434 C 3206.99 -1.57488 4.21328 0
M  V30 33435 C 3208.31 -3.24974 2.96783 0
M  V30 33436 H 3205.43 -0.437592 0.593028 0
M  V30 33437 H 3208.07 -0.498927 1.83332 0
M  V30 33438 H 3206.22 -2.84238 2.64842 0
M  V30 33439 H 3207.89 -1.00538 4.50211 0
M  V30 33440 H 3206.13 -0.877589 4.2483 0
M  V30 33441 H 3206.8 -2.32473 5.0066 0
M  V30 33442 H 3209.28 -2.74592 3.12632 0
M  V30 33443 H 3208.16 -3.9441 3.81749 0
M  V30 33444 H 3208.42 -3.90061 2.08098 0
M  V30 33445 N 3207.48 -1.40749 -0.709041 0
M  V30 33446 C 3208.41 -1.3594 -1.83291 0
M  V30 33447 C 3209.39 -0.228739 -1.60983 0
M  V30 33448 O 3210.57 -0.413467 -1.83909 0
M  V30 33449 C 3207.7 -1.1172 -3.19744 0
M  V30 33450 C 3206.74 -2.27325 -3.60868 0
M  V30 33451 S 3207.58 -3.8975 -3.67226 0
M  V30 33452 C 3208.73 -3.67806 -5.06428 0
M  V30 33453 H 3208.97 -2.3105 -1.87091 0
M  V30 33454 H 3206.5 -1.27113 -0.876457 0
M  V30 33455 H 3208.46 -0.984316 -3.98524 0
M  V30 33456 H 3207.12 -0.182527 -3.13569 0
M  V30 33457 H 3206.31 -2.06038 -4.59961 0
M  V30 33458 H 3205.91 -2.36951 -2.89362 0
M  V30 33459 H 3208.21 -3.26678 -5.93538 0
M  V30 33460 H 3209.15 -4.66454 -5.32753 0
M  V30 33461 H 3209.56 -3.01357 -4.7733 0
M  V30 33462 N 3208.96 0.941933 -1.26354 0
M  V30 33463 C 3209.9 2.06186 -1.07657 0
M  V30 33464 C 3210.9 1.694 -0.00372719 0
M  V30 33465 O 3212.1 1.79284 -0.160348 0
M  V30 33466 H 3208.48 0.675095 -0.331286 0
M  V30 33467 H 3210.45 2.19107 -2.0257 0
M  V30 33468 C 3209.2 3.40047 -0.725496 0
M  V30 33469 H 3208.52 3.68829 -1.54289 0
M  V30 33470 H 3209.96 4.19226 -0.634457 0
M  V30 33471 C 3208.42 3.32055 0.56931 0
M  V30 33472 O 3208.95 3.68119 1.60784 0
M  V30 33473 N 3207.16 2.8516 0.559663 0
M  V30 33474 H 3206.7 2.56009 -0.285862 0
M  V30 33475 H 3206.66 2.80195 1.42612 0
M  V30 33476 N 3210.43 1.08146 1.1464 0
M  V30 33477 C 3211.38 0.6787 2.17664 0
M  V30 33478 C 3212.37 -0.300308 1.58073 0
M  V30 33479 O 3213.56 -0.11275 1.76641 0
M  V30 33480 C 3210.69 0.0866965 3.43191 0
M  V30 33481 C 3209.77 1.09133 4.09818 0
M  V30 33482 N 3210.17 2.2738 4.5181 0
M  V30 33483 C 3208.46 0.926488 4.36271 0
M  V30 33484 C 3209.16 2.91181 5.03576 0
M  V30 33485 N 3208.14 2.18804 4.9762 0
M  V30 33486 H 3211.94 1.57918 2.47869 0
M  V30 33487 H 3209.46 0.955795 1.31295 0
M  V30 33488 H 3211.45 -0.219785 4.1632 0
M  V30 33489 H 3210.11 -0.808804 3.14465 0
M  V30 33490 H 3211.12 2.65051 4.44936 0
M  V30 33491 H 3207.8 0.0845653 4.17414 0
M  V30 33492 H 3209.19 3.91631 5.45963 0
M  V30 33493 N 3211.91 -1.31626 0.866732 0
M  V30 33494 C 3213.32 -1.79047 0.529064 0
M  V30 33495 C 3213.67 -1.71454 -0.953841 0
M  V30 33496 O 3212.8 -1.28034 -1.7446 0
M  V30 33497 C 3213.39 -3.25104 0.953579 0
M  V30 33498 C 3211.95 -3.70432 0.667619 0
M  V30 33499 C 3211.1 -2.52481 1.14668 0
M  V30 33500 H 3214.05 -1.18754 1.05277 0
M  V30 33501 H 3214.07 -3.79506 0.274911 0
M  V30 33502 H 3213.58 -3.30598 2.03289 0
M  V30 33503 H 3211.68 -3.70442 -0.400467 0
M  V30 33504 H 3211.8 -4.62711 1.24238 0
M  V30 33505 H 3210.16 -2.48319 0.566546 0
M  V30 33506 H 3210.94 -2.60723 2.23335 0
M  V30 33507 N 3213.39 -0.62585 -1.4464 0
M  V30 33508 C 3214.64 -0.127983 -2.01694 0
M  V30 33509 C 3214.96 1.25269 -1.49441 0
M  V30 33510 O 3214.23 1.83123 -0.695906 0
M  V30 33511 H 3212.81 -0.0443228 -0.745684 0
M  V30 33512 H 3215.47 -0.811364 -1.77209 0
M  V30 33513 H 3214.57 -0.0916481 -3.11965 0
M  V30 33514 N 3214.87 1.53289 -0.36608 0
M  V30 33515 C 3215.8 2.28678 0.47207 0
M  V30 33516 C 3216.78 1.31127 1.0835 0
M  V30 33517 O 3217.96 1.59997 1.10066 0
M  V30 33518 C 3215.09 3.07639 1.61168 0
M  V30 33519 C 3214.05 4.12883 1.12747 0
M  V30 33520 C 3213.37 4.7993 2.35736 0
M  V30 33521 C 3214.67 5.2187 0.211862 0
M  V30 33522 H 3216.37 2.98989 -0.15689 0
M  V30 33523 H 3213.91 1.43795 -0.0768962 0
M  V30 33524 H 3215.87 3.59127 2.20467 0
M  V30 33525 H 3214.59 2.3502 2.26788 0
M  V30 33526 H 3213.25 3.62341 0.55717 0
M  V30 33527 H 3212.9 4.03882 2.99814 0
M  V30 33528 H 3212.6 5.51048 2.0401 0
M  V30 33529 H 3214.12 5.34212 2.9572 0
M  V30 33530 H 3215.54 5.68857 0.71234 0
M  V30 33531 H 3213.93 6.00098 -0.0145556 0
M  V30 33532 H 3215 4.7913 -0.745837 0
M  V30 33533 N 3216.35 0.0952613 1.57312 0
M  V30 33534 C 3217.59 -0.569249 1.94647 0
M  V30 33535 C 3217.92 -1.67824 0.977182 0
M  V30 33536 O 3217.2 -1.94497 0.010266 0
M  V30 33537 C 3217.48 -1.12427 3.421 0
M  V30 33538 C 3217.34 -0.0203225 4.49795 0
M  V30 33539 C 3218.65 -2.0226 3.9087 0
M  V30 33540 H 3215.77 -0.205457 0.707783 0
M  V30 33541 H 3218.42 0.166004 1.89273 0
M  V30 33542 H 3216.57 -1.75086 3.4681 0
M  V30 33543 H 3218.24 0.613925 4.57197 0
M  V30 33544 H 3216.48 0.64604 4.28962 0
M  V30 33545 H 3217.15 -0.449482 5.50167 0
M  V30 33546 H 3219.63 -1.49505 3.88314 0
M  V30 33547 H 3218.5 -2.3802 4.94609 0
M  V30 33548 H 3218.76 -2.94005 3.30172 0
M  V30 33549 N 3217.82 -1.56587 -0.178432 0
M  V30 33550 C 3219.06 -1.83383 -0.902778 0
M  V30 33551 C 3219.43 -0.675171 -1.79737 0
M  V30 33552 O 3220.63 -0.823413 -2.55878 0
M  V30 33553 C 3218.9 -3.15268 -1.68347 0
M  V30 33554 S 3220.46 -3.63524 -2.45756 0
M  V30 33555 H 3217.28 -0.643441 -0.302497 0
M  V30 33556 H 3219.88 -1.94803 -0.164927 0
M  V30 33557 H 3218.58 -3.97595 -1.01718 0
M  V30 33558 H 3218.11 -3.0677 -2.46283 0
M  V30 33559 H 3220.13 -3.30284 -3.70306 0
M  V30 33560 N 3219.3 0.446741 -1.51136 0
M  V30 33561 C 3220.54 1.20653 -1.64991 0
M  V30 33562 C 3220.91 1.8871 -0.353915 0
M  V30 33563 O 3222.11 2.66267 -0.368146 0
M  V30 33564 C 3220.38 2.2037 -2.81375 0
M  V30 33565 S 3221.94 3.04961 -3.15506 0
M  V30 33566 H 3218.75 0.409291 -0.581379 0
M  V30 33567 H 3221.36 0.499579 -1.89009 0
M  V30 33568 H 3220.06 1.68994 -3.73991 0
M  V30 33569 H 3219.59 2.95659 -2.59518 0
M  V30 33570 H 3221.61 4.2188 -2.61212 0
M  V30 33571 N 3220.78 1.41123 0.701567 0
M  V30 33572 C 3222.03 1.40366 1.46374 0
M  V30 33573 C 3222.36 0.0105784 1.94197 0
M  V30 33574 O 3221.63 -0.960608 1.69123 0
M  V30 33575 C 3221.92 2.40528 2.67989 0
M  V30 33576 C 3221.77 3.88918 2.25971 0
M  V30 33577 C 3223.09 2.38028 3.70177 0
M  V30 33578 H 3220.21 0.511169 0.53092 0
M  V30 33579 H 3222.85 1.72357 0.799558 0
M  V30 33580 H 3221 2.13377 3.24657 0
M  V30 33581 H 3222.67 4.26949 1.74676 0
M  V30 33582 H 3220.91 4.04074 1.57818 0
M  V30 33583 H 3221.59 4.54539 3.13207 0
M  V30 33584 H 3224.06 2.62109 3.23169 0
M  V30 33585 H 3222.94 3.10135 4.52888 0
M  V30 33586 H 3223.2 1.39677 4.19455 0
M  V30 33587 N 3222.26 -0.935219 1.26852 0
M  V30 33588 C 3223.19 -2.03878 1.04721 0
M  V30 33589 C 3224.2 -1.62799 0.00570368 0
M  V30 33590 O 3225.39 -1.76791 0.246439 0
M  V30 33591 C 3222.49 -3.34157 0.565019 0
M  V30 33592 C 3221.66 -4.0397 1.67711 0
M  V30 33593 C 3220.72 -5.12522 1.19195 0
M  V30 33594 O 3219.75 -5.36899 1.89018 0
M  V30 33595 N 3220.95 -5.80484 0.0435574 0
M  V30 33596 H 3223.72 -2.23428 1.9975 0
M  V30 33597 H 3221.28 -1.1051 1.18318 0
M  V30 33598 H 3223.27 -4.04077 0.224507 0
M  V30 33599 H 3221.84 -3.11235 -0.291844 0
M  V30 33600 H 3221.06 -3.27885 2.18827 0
M  V30 33601 H 3222.35 -4.47364 2.42369 0
M  V30 33602 H 3221.75 -5.63122 -0.539403 0
M  V30 33603 H 3220.3 -6.51366 -0.237831 0
M  V30 33604 N 3223.74 -1.08752 -1.14065 0
M  V30 33605 C 3224.67 -0.678558 -2.18925 0
M  V30 33606 C 3225.68 0.276135 -1.60441 0
M  V30 33607 O 3226.87 0.0632475 -1.78388 0
M  V30 33608 C 3223.97 0.0218256 -3.38893 0
M  V30 33609 C 3223.14 -0.952657 -4.269 0
M  V30 33610 C 3222.2 -0.286951 -5.25417 0
M  V30 33611 O 3221.23 -0.932453 -5.6151 0
M  V30 33612 N 3222.43 0.96173 -5.72478 0
M  V30 33613 H 3225.2 -1.58067 -2.54627 0
M  V30 33614 H 3222.76 -0.974064 -1.2932 0
M  V30 33615 H 3224.75 0.478208 -4.01865 0
M  V30 33616 H 3223.32 0.826088 -3.01487 0
M  V30 33617 H 3222.54 -1.58779 -3.60809 0
M  V30 33618 H 3223.83 -1.61287 -4.8256 0
M  V30 33619 H 3223.22 1.50585 -5.4529 0
M  V30 33620 H 3221.78 1.36155 -6.37421 0
M  V30 33621 N 3225.21 1.31165 -0.873701 0
M  V30 33622 C 3226.44 2.00741 -0.501079 0
M  V30 33623 C 3226.86 1.65562 0.907447 0
M  V30 33624 O 3226.21 0.886799 1.59506 0
M  V30 33625 C 3226.27 3.55554 -0.652939 0
M  V30 33626 O 3225.99 3.89476 -2.006 0
M  V30 33627 C 3227.49 4.42403 -0.28182 0
M  V30 33628 H 3224.71 0.642089 -0.19484 0
M  V30 33629 H 3227.25 1.67311 -1.1759 0
M  V30 33630 H 3225.41 3.87392 -0.0256308 0
M  V30 33631 H 3225.82 4.84189 -2.01646 0
M  V30 33632 H 3227.29 5.50251 -0.439017 0
M  V30 33633 H 3227.77 4.32231 0.779313 0
M  V30 33634 H 3228.38 4.15991 -0.884983 0
M  V30 33635 N 3226.69 0.633512 1.44307 0
M  V30 33636 C 3227.92 0.1461 2.06384 0
M  V30 33637 C 3228.34 -1.18029 1.47359 0
M  V30 33638 O 3227.69 -1.72447 0.597364 0
M  V30 33639 C 3227.74 0.0277357 3.61489 0
M  V30 33640 O 3227.46 1.30167 4.18316 0
M  V30 33641 C 3228.97 -0.48809 4.40605 0
M  V30 33642 H 3226.19 0.0807749 0.66612 0
M  V30 33643 H 3228.73 0.868589 1.85137 0
M  V30 33644 H 3226.88 -0.645206 3.81989 0
M  V30 33645 H 3227.3 1.14806 5.11781 0
M  V30 33646 H 3228.77 -0.519916 5.49546 0
M  V30 33647 H 3229.25 -1.51561 4.12221 0
M  V30 33648 H 3229.86 0.151683 4.25029 0
M  V30 33649 N 3228.17 -1.53093 0.374204 0
M  V30 33650 C 3229.42 -2.00981 -0.21236 0
M  V30 33651 C 3229.74 -1.26296 -1.48574 0
M  V30 33652 O 3229.01 -0.378676 -1.92205 0
M  V30 33653 H 3227.59 -0.742545 -0.0814632 0
M  V30 33654 H 3230.25 -1.88313 0.502423 0
M  V30 33655 H 3229.35 -3.09078 -0.433262 0
M  V30 33656 N 3229.65 -0.103603 -1.57259 0
M  V30 33657 C 3230.89 0.558919 -1.94946 0
M  V30 33658 C 3231.23 1.67303 -0.986068 0
M  V30 33659 O 3230.5 1.94489 -0.0205806 0
M  V30 33660 C 3230.79 1.10611 -3.42691 0
M  V30 33661 C 3230.64 -0.00353152 -4.498 0
M  V30 33662 C 3231.96 2.00184 -3.91937 0
M  V30 33663 H 3229.08 0.201701 -0.708862 0
M  V30 33664 H 3231.72 -0.176039 -1.89183 0
M  V30 33665 H 3229.87 1.73244 -3.47734 0
M  V30 33666 H 3231.54 -0.638163 -4.56865 0
M  V30 33667 H 3229.78 -0.66878 -4.28614 0
M  V30 33668 H 3230.45 0.420299 -5.50398 0
M  V30 33669 H 3232.93 1.47443 -3.89101 0
M  V30 33670 H 3231.81 2.35394 -4.95864 0
M  V30 33671 H 3232.07 2.92249 -3.31727 0
M  V30 33672 N 3231.13 1.56679 0.170126 0
M  V30 33673 C 3232.54 1.71732 0.732472 0
M  V30 33674 C 3232.89 0.714312 1.82735 0
M  V30 33675 O 3232.01 -0.124064 2.16044 0
M  V30 33676 C 3232.61 3.11371 1.33543 0
M  V30 33677 C 3231.17 3.28104 1.84459 0
M  V30 33678 C 3230.31 2.67681 0.724022 0
M  V30 33679 H 3233.27 1.58604 -0.0552822 0
M  V30 33680 H 3233.29 3.10087 2.20513 0
M  V30 33681 H 3232.8 3.84348 0.538333 0
M  V30 33682 H 3230.9 2.60085 2.66808 0
M  V30 33683 H 3231.01 4.35853 1.98921 0
M  V30 33684 H 3229.38 2.27524 1.14477 0
M  V30 33685 H 3230.16 3.43245 -0.0612465 0
M  V30 33686 N 3232.6 -0.43872 1.5137 0
M  V30 33687 C 3233.53 -1.53984 1.75531 0
M  V30 33688 C 3234.52 -1.58974 0.605095 0
M  V30 33689 O 3235.7 -1.74723 0.847664 0
M  V30 33690 C 3232.83 -2.92074 1.87909 0
M  V30 33691 C 3231.78 -3.01946 3.03336 0
M  V30 33692 C 3231.11 -4.42002 3.00896 0
M  V30 33693 C 3232.41 -2.76155 4.43323 0
M  V30 33694 H 3234.1 -1.34017 2.67731 0
M  V30 33695 H 3231.65 -0.643285 1.28833 0
M  V30 33696 H 3233.6 -3.69064 2.03395 0
M  V30 33697 H 3232.33 -3.13269 0.923569 0
M  V30 33698 H 3230.99 -2.27395 2.87553 0
M  V30 33699 H 3230.63 -4.60163 2.03124 0
M  V30 33700 H 3230.33 -4.49537 3.78405 0
M  V30 33701 H 3231.86 -5.20968 3.18473 0
M  V30 33702 H 3233.27 -3.42879 4.59464 0
M  V30 33703 H 3231.67 -2.95101 5.22528 0
M  V30 33704 H 3232.74 -1.71771 4.53456 0
M  V30 33705 N 3234.08 -1.41493 -0.694073 0
M  V30 33706 C 3235.33 -1.4114 -1.45628 0
M  V30 33707 C 3235.66 -0.0208769 -1.94189 0
M  V30 33708 O 3234.94 0.951625 -1.6963 0
M  V30 33709 C 3235.22 -2.41946 -2.6671 0
M  V30 33710 C 3235.07 -3.90111 -2.23905 0
M  V30 33711 C 3236.39 -2.39988 -3.68909 0
M  V30 33712 H 3233.51 -0.513977 -0.528201 0
M  V30 33713 H 3236.15 -1.72779 -0.790406 0
M  V30 33714 H 3234.3 -2.15096 -3.23521 0
M  V30 33715 H 3235.97 -4.2787 -1.7241 0
M  V30 33716 H 3234.22 -4.04905 -1.55673 0
M  V30 33717 H 3234.89 -4.56193 -3.10792 0
M  V30 33718 H 3237.36 -2.63819 -3.21774 0
M  V30 33719 H 3236.24 -3.12532 -4.51237 0
M  V30 33720 H 3236.5 -1.419 -4.18709 0
M  V30 33721 N 3235.56 0.928479 -1.27346 0
M  V30 33722 C 3236.81 1.67857 -1.13807 0
M  V30 33723 C 3237.14 1.9162 0.315516 0
M  V30 33724 O 3236.41 1.50601 1.23084 0
M  V30 33725 C 3236.7 3.04558 -1.92136 0
M  V30 33726 C 3236.55 2.88042 -3.45474 0
M  V30 33727 C 3237.87 4.04876 -1.7252 0
M  V30 33728 H 3234.99 0.609184 -0.414806 0
M  V30 33729 H 3237.63 1.0775 -1.56492 0
M  V30 33730 H 3235.78 3.55865 -1.55859 0
M  V30 33731 H 3237.45 2.43858 -3.91575 0
M  V30 33732 H 3235.7 2.234 -3.71853 0
M  V30 33733 H 3236.37 3.85054 -3.95521 0
M  V30 33734 H 3238.84 3.62577 -2.04149 0
M  V30 33735 H 3237.72 4.98517 -2.29721 0
M  V30 33736 H 3237.98 4.36949 -0.672933 0
M  V30 33737 N 3237.04 1.09355 1.13486 0
M  V30 33738 C 3237.97 0.676258 2.1795 0
M  V30 33739 C 3238.95 -0.316878 1.59482 0
M  V30 33740 O 3240.13 -0.218426 1.8723 0
M  V30 33741 C 3237.26 -0.00385071 3.387 0
M  V30 33742 C 3236.31 0.950979 4.15763 0
M  V30 33743 S 3237.14 2.46267 4.75513 0
M  V30 33744 C 3238.3 1.79495 5.9961 0
M  V30 33745 H 3238.53 1.5612 2.5301 0
M  V30 33746 H 3236.06 0.909469 1.24772 0
M  V30 33747 H 3238.02 -0.389948 4.08644 0
M  V30 33748 H 3236.68 -0.865427 3.01942 0
M  V30 33749 H 3235.87 0.422175 5.02229 0
M  V30 33750 H 3235.48 1.27844 3.51471 0
M  V30 33751 H 3237.77 1.11858 6.68202 0
M  V30 33752 H 3238.71 2.63873 6.57097 0
M  V30 33753 H 3239.12 1.26418 5.50162 0
M  V30 33754 N 3238.52 -1.307 0.880644 0
M  V30 33755 C 3239.76 -1.96599 0.497646 0
M  V30 33756 C 3240.1 -1.69384 -0.949871 0
M  V30 33757 O 3239.37 -0.996181 -1.67052 0
M  V30 33758 C 3239.65 -3.51815 0.767981 0
M  V30 33759 C 3239.51 -3.88563 2.26581 0
M  V30 33760 C 3240.83 -4.39436 0.241579 0
M  V30 33761 H 3237.95 -0.714103 0.182279 0
M  V30 33762 H 3240.59 -1.54646 1.10384 0
M  V30 33763 H 3238.74 -3.87682 0.252035 0
M  V30 33764 H 3240.41 -3.62743 2.84983 0
M  V30 33765 H 3238.65 -3.36787 2.73417 0
M  V30 33766 H 3239.32 -4.96826 2.40558 0
M  V30 33767 H 3241.8 -4.10454 0.683123 0
M  V30 33768 H 3240.68 -5.46968 0.460093 0
M  V30 33769 H 3240.94 -4.33714 -0.856991 0
M  V30 33770 N 3240 -0.641156 -1.43969 0
M  V30 33771 C 3240.94 0.05775 -2.30728 0
M  V30 33772 C 3241.91 0.826794 -1.4406 0
M  V30 33773 O 3243.1 0.805823 -1.72948 0
M  V30 33774 C 3240.24 1.02651 -3.2948 0
M  V30 33775 C 3239.35 0.254837 -4.31248 0
M  V30 33776 C 3238.49 1.21631 -5.17087 0
M  V30 33777 C 3237.52 0.434374 -6.10557 0
M  V30 33778 N 3236.66 1.34682 -6.89061 0
M  V30 33779 H 3241.5 -0.688004 -2.89949 0
M  V30 33780 H 3239.04 -0.351055 -1.4285 0
M  V30 33781 H 3241 1.60166 -3.85231 0
M  V30 33782 H 3239.63 1.73928 -2.71935 0
M  V30 33783 H 3238.68 -0.436405 -3.77888 0
M  V30 33784 H 3239.99 -0.35373 -4.97544 0
M  V30 33785 H 3239.14 1.86248 -5.77405 0
M  V30 33786 H 3237.88 1.8588 -4.50888 0
M  V30 33787 H 3236.89 -0.225222 -5.49339 0
M  V30 33788 H 3238.11 -0.203535 -6.78795 0
M  V30 33789 H 3236.06 1.97633 -6.25522 0
M  V30 33790 H 3235.98 0.792525 -7.51834 0
M  V30 33791 H 3237.24 1.98152 -7.53894 0
M  V30 33792 N 3241.47 1.52892 -0.382318 0
M  V30 33793 C 3242.88 1.86467 0.0932513 0
M  V30 33794 C 3243.24 1.30229 1.46748 0
M  V30 33795 O 3242.36 0.630876 2.07 0
M  V30 33796 C 3242.96 3.38343 0.175988 0
M  V30 33797 C 3241.51 3.71654 0.595838 0
M  V30 33798 C 3240.66 2.76202 -0.24656 0
M  V30 33799 H 3243.61 1.46902 -0.600469 0
M  V30 33800 H 3243.63 3.67221 0.996447 0
M  V30 33801 H 3243.15 3.79245 -0.824331 0
M  V30 33802 H 3241.25 3.36318 1.60378 0
M  V30 33803 H 3241.36 4.77754 0.358835 0
M  V30 33804 H 3239.72 2.53077 0.287118 0
M  V30 33805 H 3240.51 3.1994 -1.24473 0
M  V30 33806 N 3242.95 0.111941 1.57202 0
M  V30 33807 C 3244.23 -0.590939 1.8646 0
M  V30 33808 C 3244.61 -1.85269 1.01185 0
M  V30 33809 O 3243.96 -2.28327 0.0888292 0
M  V30 33810 C 3244.17 -0.890166 3.37457 0
M  V30 33811 C 3245.51 -1.2463 4.05897 0
M  V30 33812 O 3246.54 -0.980652 3.42435 0
M  V30 33813 O 3245.4 -1.74456 5.17907 0
M  V30 33814 H 3242.49 -0.297445 0.771658 0
M  V30 33815 H 3245.04 0.145912 1.69072 0
M  V30 33816 H 3243.81 0.0042589 3.913 0
M  V30 33817 H 3243.43 -1.68242 3.60251 0
M  V30 33818 N 3244.43 -1.56767 -0.161814 0
M  V30 33819 C 3245.66 -1.86674 -0.892214 0
M  V30 33820 C 3246.07 -0.698441 -1.75406 0
M  V30 33821 O 3245.43 0.33222 -1.79451 0
M  V30 33822 C 3245.48 -3.15699 -1.76115 0
M  V30 33823 O 3245.2 -4.28027 -0.934056 0
M  V30 33824 C 3246.7 -3.59018 -2.6004 0
M  V30 33825 H 3243.92 -0.61911 -0.258736 0
M  V30 33826 H 3246.47 -2.03881 -0.159053 0
M  V30 33827 H 3244.62 -3.0029 -2.44754 0
M  V30 33828 H 3245.04 -5.01712 -1.52922 0
M  V30 33829 H 3246.51 -4.52175 -3.1661 0
M  V30 33830 H 3246.99 -2.83592 -3.35369 0
M  V30 33831 H 3247.59 -3.77071 -1.96717 0
M  V30 33832 N 3245.91 0.430686 -1.51601 0
M  V30 33833 C 3247.15 1.17956 -1.64598 0
M  V30 33834 C 3247.48 1.91037 -0.365415 0
M  V30 33835 O 3246.74 1.84562 0.650794 0
M  V30 33836 C 3247.04 2.21604 -2.80404 0
M  V30 33837 C 3246.7 1.65487 -4.19434 0
M  V30 33838 C 3245.36 1.49907 -4.57254 0
M  V30 33839 C 3247.72 1.24295 -5.06162 0
M  V30 33840 C 3245.04 0.916174 -5.79502 0
M  V30 33841 C 3247.4 0.674327 -6.28996 0
M  V30 33842 C 3246.06 0.505474 -6.65583 0
M  V30 33843 H 3245.33 0.431631 -0.602308 0
M  V30 33844 H 3247.98 0.469693 -1.85651 0
M  V30 33845 H 3246.28 2.98654 -2.536 0
M  V30 33846 H 3247.98 2.7938 -2.87659 0
M  V30 33847 H 3244.57 1.78592 -3.89619 0
M  V30 33848 H 3248.75 1.3515 -4.77544 0
M  V30 33849 H 3244.01 0.773173 -6.06492 0
M  V30 33850 H 3248.18 0.346657 -6.95537 0
M  V30 33851 H 3245.81 0.0516852 -7.60182 0
M  V30 33852 N 3247.39 1.4186 0.686559 0
M  V30 33853 C 3248.32 1.47196 1.81261 0
M  V30 33854 C 3249.3 0.329686 1.66874 0
M  V30 33855 O 3250.48 0.54238 1.86472 0
M  V30 33856 C 3247.61 1.36221 3.1947 0
M  V30 33857 C 3246.57 2.48353 3.48575 0
M  V30 33858 C 3245.89 2.22441 4.86235 0
M  V30 33859 C 3247.19 3.90684 3.46646 0
M  V30 33860 H 3248.89 2.41439 1.77053 0
M  V30 33861 H 3246.43 1.16208 0.850395 0
M  V30 33862 H 3248.38 1.38565 3.97967 0
M  V30 33863 H 3247.11 0.384668 3.24327 0
M  V30 33864 H 3245.77 2.45307 2.72433 0
M  V30 33865 H 3245.42 1.23008 4.87727 0
M  V30 33866 H 3245.12 2.97585 5.06672 0
M  V30 33867 H 3246.64 2.26514 5.6703 0
M  V30 33868 H 3248.05 3.95396 4.15132 0
M  V30 33869 H 3246.45 4.65585 3.78617 0
M  V30 33870 H 3247.52 4.18193 2.45444 0
M  V30 33871 N 3248.86 -0.921712 1.27837 0
M  V30 33872 C 3250.11 -1.66458 1.13907 0
M  V30 33873 C 3250.43 -1.93074 -0.313345 0
M  V30 33874 O 3251.63 -2.65371 -0.57364 0
M  V30 33875 C 3250.09 -2.99832 1.9907 0
M  V30 33876 C 3249.7 -2.80893 3.49003 0
M  V30 33877 C 3251.44 -3.77677 1.93804 0
M  V30 33878 C 3249.35 -4.09859 4.26344 0
M  V30 33879 H 3248.28 -0.624377 0.422692 0
M  V30 33880 H 3250.93 -1.02349 1.52305 0
M  V30 33881 H 3249.31 -3.65031 1.5352 0
M  V30 33882 H 3250.48 -2.24424 4.02456 0
M  V30 33883 H 3248.8 -2.16469 3.5571 0
M  V30 33884 H 3251.4 -4.73257 2.48861 0
M  V30 33885 H 3251.74 -4.06165 0.912999 0
M  V30 33886 H 3252.27 -3.19285 2.3728 0
M  V30 33887 H 3249.01 -3.86548 5.29397 0
M  V30 33888 H 3248.53 -4.65969 3.77668 0
M  V30 33889 H 3250.21 -4.78177 4.35839 0
M  V30 33890 N 3250.34 -1.09956 -1.12905 0
M  V30 33891 C 3251.27 -0.70174 -2.18193 0
M  V30 33892 C 3252.29 0.259103 -1.60725 0
M  V30 33893 O 3253.48 0.0443235 -1.78445 0
M  V30 33894 C 3250.58 -0.0141198 -3.38897 0
M  V30 33895 C 3249.75 -0.997882 -4.25865 0
M  V30 33896 C 3248.81 -0.342663 -5.25083 0
M  V30 33897 O 3247.83 -0.991956 -5.6049 0
M  V30 33898 N 3249.04 0.900957 -5.73466 0
M  V30 33899 H 3251.8 -1.60759 -2.52936 0
M  V30 33900 H 3249.36 -0.987726 -1.28279 0
M  V30 33901 H 3251.35 0.435557 -4.02349 0
M  V30 33902 H 3249.92 0.794064 -3.02346 0
M  V30 33903 H 3249.14 -1.62597 -3.59104 0
M  V30 33904 H 3250.43 -1.66396 -4.80822 0
M  V30 33905 H 3249.83 1.44793 -5.46856 0
M  V30 33906 H 3248.39 1.29386 -6.38829 0
M  V30 33907 N 3251.82 1.30231 -0.887563 0
M  V30 33908 C 3252.73 2.31816 -0.360374 0
M  V30 33909 C 3253.75 1.65451 0.538712 0
M  V30 33910 O 3254.92 1.9673 0.431211 0
M  V30 33911 C 3251.99 3.44216 0.414276 0
M  V30 33912 C 3251.05 4.26201 -0.514874 0
M  V30 33913 C 3250.28 5.33234 0.222901 0
M  V30 33914 O 3250.5 5.51699 1.44862 0
M  V30 33915 O 3249.44 6.00374 -0.428327 0
M  V30 33916 H 3253.26 2.78865 -1.20284 0
M  V30 33917 H 3250.85 1.34447 -0.651483 0
M  V30 33918 H 3252.73 4.12681 0.852787 0
M  V30 33919 H 3251.41 2.99297 1.233 0
M  V30 33920 H 3250.31 3.60424 -1.00225 0
M  V30 33921 H 3251.65 4.74731 -1.29967 0
M  V30 33922 N 3253.3 0.648782 1.43627 0
M  V30 33923 C 3254.55 0.157728 2.01082 0
M  V30 33924 C 3254.86 -1.23405 1.51758 0
M  V30 33925 O 3256.07 -1.82008 2.01458 0
M  V30 33926 C 3254.52 0.231181 3.59157 0
M  V30 33927 C 3254.13 1.62538 4.17475 0
M  V30 33928 C 3255.87 -0.202499 4.24017 0
M  V30 33929 C 3253.78 1.653 5.67829 0
M  V30 33930 H 3252.71 0.0552029 0.751976 0
M  V30 33931 H 3255.36 0.810168 1.64647 0
M  V30 33932 H 3253.74 -0.488686 3.92973 0
M  V30 33933 H 3254.92 2.37024 3.95166 0
M  V30 33934 H 3253.23 2.00465 3.64969 0
M  V30 33935 H 3255.83 -0.201646 5.3432 0
M  V30 33936 H 3256.17 -1.23312 3.97618 0
M  V30 33937 H 3256.71 0.465467 3.95067 0
M  V30 33938 H 3253.45 2.66257 5.98989 0
M  V30 33939 H 3252.97 0.951321 5.92208 0
M  V30 33940 H 3254.64 1.39476 6.31788 0
M  V30 33941 N 3254.78 -1.52688 0.390421 0
M  V30 33942 C 3255.72 -2.26485 -0.444189 0
M  V30 33943 C 3256.69 -1.28139 -1.05686 0
M  V30 33944 O 3257.88 -1.5697 -1.08467 0
M  V30 33945 C 3255.02 -3.07576 -1.56496 0
M  V30 33946 C 3254.13 -4.20853 -0.975037 0
M  V30 33947 C 3253.27 -4.89337 -2.06695 0
M  V30 33948 C 3252.31 -5.94605 -1.45298 0
M  V30 33949 N 3251.44 -6.56681 -2.48425 0
M  V30 33950 H 3256.28 -2.97383 0.191587 0
M  V30 33951 H 3253.82 -1.46715 0.106313 0
M  V30 33952 H 3255.78 -3.52883 -2.22552 0
M  V30 33953 H 3254.41 -2.38885 -2.17103 0
M  V30 33954 H 3253.46 -3.79852 -0.204042 0
M  V30 33955 H 3254.77 -4.96423 -0.486377 0
M  V30 33956 H 3253.93 -5.37953 -2.80519 0
M  V30 33957 H 3252.66 -4.13293 -2.58921 0
M  V30 33958 H 3251.67 -5.45326 -0.699995 0
M  V30 33959 H 3252.89 -6.72582 -0.938657 0
M  V30 33960 H 3250.84 -5.83477 -2.99818 0
M  V30 33961 H 3250.76 -7.27867 -2.04318 0
M  V30 33962 H 3252.03 -7.09941 -3.21876 0
M  V30 33963 N 3256.25 -0.120276 -1.5714 0
M  V30 33964 C 3257.48 0.545101 -1.9959 0
M  V30 33965 C 3257.9 1.60143 -0.999979 0
M  V30 33966 O 3257.25 1.82499 0.00695689 0
M  V30 33967 C 3257.31 1.17008 -3.4204 0
M  V30 33968 O 3257.03 0.155967 -4.37822 0
M  V30 33969 C 3258.53 1.91865 -3.99628 0
M  V30 33970 H 3255.75 0.14421 -0.65532 0
M  V30 33971 H 3258.29 -0.206991 -2.0345 0
M  V30 33972 H 3256.45 1.87294 -3.39116 0
M  V30 33973 H 3256.86 0.610226 -5.20938 0
M  V30 33974 H 3258.33 2.30919 -5.01378 0
M  V30 33975 H 3258.81 2.79434 -3.38841 0
M  V30 33976 H 3259.42 1.26338 -4.06102 0
M  V30 33977 N 3257.73 1.56851 0.153498 0
M  V30 33978 C 3258.66 2.00807 1.19159 0
M  V30 33979 C 3259.64 0.886544 1.4517 0
M  V30 33980 O 3260.83 1.1539 1.56201 0
M  V30 33981 C 3257.96 2.38315 2.52632 0
M  V30 33982 C 3256.91 3.53593 2.41155 0
M  V30 33983 C 3256.24 3.76896 3.79281 0
M  V30 33984 C 3257.54 4.86471 1.90114 0
M  V30 33985 H 3259.23 2.87777 0.82612 0
M  V30 33986 H 3256.78 1.38449 0.395948 0
M  V30 33987 H 3258.73 2.67666 3.25474 0
M  V30 33988 H 3257.46 1.48275 2.91002 0
M  V30 33989 H 3256.11 3.24398 1.70767 0
M  V30 33990 H 3255.76 2.84117 4.15074 0
M  V30 33991 H 3255.46 4.54471 3.72464 0
M  V30 33992 H 3256.99 4.08665 4.5368 0
M  V30 33993 H 3258.4 5.14581 2.52743 0
M  V30 33994 H 3256.8 5.67807 1.94204 0
M  V30 33995 H 3257.87 4.77277 0.856433 0
M  V30 33996 N 3259.21 -0.42264 1.51827 0
M  V30 33997 C 3260.62 -1.00198 1.57535 0
M  V30 33998 C 3260.97 -1.91918 0.407656 0
M  V30 33999 O 3260.1 -2.11151 -0.473726 0
M  V30 34000 C 3260.69 -1.82398 2.85511 0
M  V30 34001 C 3259.25 -2.35357 2.93741 0
M  V30 34002 C 3258.4 -1.14967 2.52345 0
M  V30 34003 H 3261.35 -0.203362 1.57392 0
M  V30 34004 H 3261.37 -2.68002 2.70102 0
M  V30 34005 H 3260.88 -1.15616 3.70479 0
M  V30 34006 H 3258.98 -3.0555 2.13237 0
M  V30 34007 H 3259.1 -2.67148 3.97705 0
M  V30 34008 H 3257.46 -1.49951 2.0588 0
M  V30 34009 H 3258.24 -0.497726 3.39673 0
M  V30 34010 N 3260.69 -1.42222 -0.679027 0
M  V30 34011 C 3261.65 -1.45072 -1.77445 0
M  V30 34012 C 3262.65 -0.338909 -1.57188 0
M  V30 34013 O 3263.84 -0.599548 -1.63558 0
M  V30 34014 C 3260.97 -1.27825 -3.16028 0
M  V30 34015 H 3262.17 -2.42603 -1.76306 0
M  V30 34016 H 3259.72 -1.28607 -0.888254 0
M  V30 34017 H 3260.45 -0.312002 -3.22796 0
M  V30 34018 H 3260.24 -2.08397 -3.32134 0
M  V30 34019 H 3261.73 -1.32693 -3.95957 0
M  V30 34020 N 3262.17 0.91492 -1.28324 0
M  V30 34021 C 3263.11 2.0172 -1.1215 0
M  V30 34022 C 3264.08 1.66089 -0.0189571 0
M  V30 34023 O 3265.27 1.89914 -0.183672 0
M  V30 34024 C 3262.41 3.3598 -0.788139 0
M  V30 34025 C 3261.52 3.84487 -1.9696 0
M  V30 34026 C 3260.66 5.07252 -1.57697 0
M  V30 34027 C 3259.7 5.48089 -2.72516 0
M  V30 34028 N 3258.83 6.62045 -2.33753 0
M  V30 34029 H 3263.67 2.14887 -2.06465 0
M  V30 34030 H 3261.21 1.05255 -1.02761 0
M  V30 34031 H 3263.17 4.1321 -0.575618 0
M  V30 34032 H 3261.8 3.22584 0.118076 0
M  V30 34033 H 3260.85 3.03425 -2.29429 0
M  V30 34034 H 3262.16 4.10714 -2.83047 0
M  V30 34035 H 3261.32 5.92022 -1.32645 0
M  V30 34036 H 3260.05 4.82832 -0.687376 0
M  V30 34037 H 3259.06 4.61862 -2.98268 0
M  V30 34038 H 3260.28 5.74499 -3.62116 0
M  V30 34039 H 3258.23 6.39257 -1.47261 0
M  V30 34040 H 3258.15 6.87991 -3.13376 0
M  V30 34041 H 3259.42 7.50123 -2.11981 0
M  V30 34042 N 3263.64 1.10553 1.1232 0
M  V30 34043 C 3264.61 0.758882 2.16272 0
M  V30 34044 C 3265.61 -0.217266 1.59325 0
M  V30 34045 O 3266.8 0.00604408 1.74199 0
M  V30 34046 C 3263.93 0.124297 3.40673 0
M  V30 34047 H 3265.12 1.67965 2.48451 0
M  V30 34048 H 3262.68 0.90621 1.27348 0
M  V30 34049 H 3263.41 -0.807139 3.14095 0
M  V30 34050 H 3263.2 0.826839 3.83283 0
M  V30 34051 H 3264.69 -0.102429 4.17474 0
M  V30 34052 N 3265.12 -1.29758 0.894457 0
M  V30 34053 C 3266.07 -2.27869 0.366626 0
M  V30 34054 C 3267.04 -1.56786 -0.548397 0
M  V30 34055 O 3268.22 -1.84799 -0.474771 0
M  V30 34056 C 3265.36 -3.42722 -0.404471 0
M  V30 34057 C 3264.48 -4.28601 0.540849 0
M  V30 34058 C 3263.61 -5.30626 -0.246781 0
M  V30 34059 C 3262.65 -6.0816 0.693401 0
M  V30 34060 N 3261.79 -7.02075 -0.0594956 0
M  V30 34061 H 3266.63 -2.724 1.20839 0
M  V30 34062 H 3264.17 -1.33982 0.607229 0
M  V30 34063 H 3266.12 -4.0808 -0.867549 0
M  V30 34064 H 3264.75 -2.99234 -1.21073 0
M  V30 34065 H 3263.81 -3.63463 1.12244 0
M  V30 34066 H 3265.12 -4.82604 1.26074 0
M  V30 34067 H 3264.27 -6.01777 -0.771292 0
M  V30 34068 H 3263.01 -4.77341 -0.999834 0
M  V30 34069 H 3262.02 -5.35877 1.22946 0
M  V30 34070 H 3263.24 -6.63533 1.4457 0
M  V30 34071 H 3261.19 -6.51166 -0.794911 0
M  V30 34072 H 3261.1 -7.53611 0.600583 0
M  V30 34073 H 3262.37 -7.77454 -0.564441 0
M  V30 34074 N 3266.6 -0.65639 -1.4328 0
M  V30 34075 C 3267.85 -0.168389 -2.00996 0
M  V30 34076 C 3268.16 1.22599 -1.5241 0
M  V30 34077 O 3269.37 1.80937 -2.0242 0
M  V30 34078 C 3267.82 -0.250225 -3.59029 0
M  V30 34079 C 3267.43 -1.64749 -4.16607 0
M  V30 34080 C 3269.18 0.180009 -4.24118 0
M  V30 34081 C 3267.08 -1.68309 -5.66945 0
M  V30 34082 H 3266.01 -0.0591901 -0.751673 0
M  V30 34083 H 3268.66 -0.818888 -1.64215 0
M  V30 34084 H 3267.05 0.467839 -3.93227 0
M  V30 34085 H 3268.22 -2.39116 -3.93903 0
M  V30 34086 H 3266.54 -2.02398 -3.63901 0
M  V30 34087 H 3269.13 0.173307 -5.34419 0
M  V30 34088 H 3269.48 1.21201 -3.98266 0
M  V30 34089 H 3270.01 -0.486412 -3.94815 0
M  V30 34090 H 3266.75 -2.69429 -5.97568 0
M  V30 34091 H 3266.27 -0.982714 -5.91695 0
M  V30 34092 H 3267.95 -1.42825 -6.31039 0
M  V30 34093 N 3268.08 1.52478 -0.398513 0
M  V30 34094 C 3269.01 2.24384 0.467387 0
M  V30 34095 C 3270.02 1.2696 1.01906 0
M  V30 34096 O 3271.21 1.52976 0.919816 0
M  V30 34097 C 3268.31 2.95382 1.66141 0
M  V30 34098 C 3267.49 4.19588 1.2355 0
M  V30 34099 C 3266.55 4.73503 2.29524 0
M  V30 34100 O 3265.57 5.36357 1.90551 0
M  V30 34101 N 3266.77 4.54156 3.61556 0
M  V30 34102 H 3269.54 2.99331 -0.148706 0
M  V30 34103 H 3267.1 1.60324 -0.225341 0
M  V30 34104 H 3269.09 3.28348 2.36579 0
M  V30 34105 H 3267.66 2.23686 2.18365 0
M  V30 34106 H 3266.88 3.92556 0.359646 0
M  V30 34107 H 3268.17 5.00271 0.927724 0
M  V30 34108 H 3267.57 4.04005 3.95975 0
M  V30 34109 H 3266.12 4.91588 4.28001 0
M  V30 34110 N 3269.56 0.128608 1.57074 0
M  V30 34111 C 3270.83 -0.571129 1.87076 0
M  V30 34112 C 3271.21 -1.84186 1.03145 0
M  V30 34113 O 3270.56 -2.2822 0.113041 0
M  V30 34114 C 3270.77 -0.854324 3.38382 0
M  V30 34115 C 3272.12 -1.20318 4.07196 0
M  V30 34116 O 3273.14 -0.944277 3.43456 0
M  V30 34117 O 3272 -1.68954 5.19728 0
M  V30 34118 H 3269.1 -0.289244 0.774769 0
M  V30 34119 H 3271.64 0.163836 1.68907 0
M  V30 34120 H 3270.42 0.0457612 3.91273 0
M  V30 34121 H 3270.04 -1.64411 3.62015 0
M  V30 34122 N 3271.04 -1.5693 -0.145178 0
M  V30 34123 C 3271.97 -1.93556 -1.20878 0
M  V30 34124 C 3272.95 -0.801636 -1.41466 0
M  V30 34125 O 3274.13 -1.05741 -1.56048 0
M  V30 34126 C 3271.26 -2.20917 -2.56736 0
M  V30 34127 C 3270.3 -3.43553 -2.52732 0
M  V30 34128 S 3271.14 -4.97051 -1.99249 0
M  V30 34129 C 3272.29 -5.27537 -3.36832 0
M  V30 34130 H 3272.53 -2.83467 -0.896312 0
M  V30 34131 H 3270.06 -1.5036 -0.350868 0
M  V30 34132 H 3272.02 -2.3736 -3.34919 0
M  V30 34133 H 3270.68 -1.31666 -2.85172 0
M  V30 34134 H 3269.87 -3.5998 -3.52746 0
M  V30 34135 H 3269.47 -3.26361 -1.82659 0
M  V30 34136 H 3271.76 -5.21115 -4.32949 0
M  V30 34137 H 3272.71 -6.28978 -3.25257 0
M  V30 34138 H 3273.12 -4.55049 -3.34052 0
M  V30 34139 N 3272.51 0.414582 -1.52049 0
M  V30 34140 C 3273.76 1.16376 -1.66086 0
M  V30 34141 C 3274.09 1.90306 -0.386965 0
M  V30 34142 O 3273.37 1.84541 0.614409 0
M  V30 34143 C 3273.65 2.16259 -2.87931 0
M  V30 34144 C 3273.5 1.46262 -4.25356 0
M  V30 34145 C 3274.82 3.16991 -3.05294 0
M  V30 34146 H 3271.94 0.421715 -0.604421 0
M  V30 34147 H 3274.58 0.450144 -1.84591 0
M  V30 34148 H 3272.73 2.77116 -2.72285 0
M  V30 34149 H 3274.41 0.885663 -4.52718 0
M  V30 34150 H 3272.65 0.764645 -4.27008 0
M  V30 34151 H 3273.32 2.19117 -5.06648 0
M  V30 34152 H 3275.8 2.66206 -3.19802 0
M  V30 34153 H 3274.67 3.8415 -3.92072 0
M  V30 34154 H 3274.93 3.84407 -2.18366 0
M  V30 34155 N 3273.99 1.4258 0.671475 0
M  V30 34156 C 3274.95 1.46011 1.76673 0
M  V30 34157 C 3275.95 0.347241 1.57006 0
M  V30 34158 O 3277.14 0.608213 1.63237 0
M  V30 34159 C 3274.28 1.29499 3.15346 0
M  V30 34160 H 3275.47 2.43534 1.75017 0
M  V30 34161 H 3273.02 1.29076 0.881421 0
M  V30 34162 H 3273.76 0.329117 3.22626 0
M  V30 34163 H 3273.54 2.10155 3.31025 0
M  V30 34164 H 3275.03 1.34791 3.95248 0
M  V30 34165 N 3275.47 -0.908102 1.28807 0
M  V30 34166 C 3276.72 -1.6524 1.15666 0
M  V30 34167 C 3277.03 -1.93395 -0.292849 0
M  V30 34168 O 3278.24 -2.65964 -0.545462 0
M  V30 34169 C 3276.69 -2.97704 2.02238 0
M  V30 34170 C 3276.3 -2.77175 3.51963 0
M  V30 34171 C 3278.05 -3.75601 1.97799 0
M  V30 34172 C 3275.95 -4.05314 4.30667 0
M  V30 34173 H 3274.88 -0.619859 0.429291 0
M  V30 34174 H 3277.53 -1.00728 1.53382 0
M  V30 34175 H 3275.92 -3.63382 1.57383 0
M  V30 34176 H 3277.09 -2.20142 4.04814 0
M  V30 34177 H 3275.4 -2.12684 3.57986 0
M  V30 34178 H 3278 -4.70591 2.53866 0
M  V30 34179 H 3278.34 -4.05174 0.956027 0
M  V30 34180 H 3278.88 -3.1675 2.40653 0
M  V30 34181 H 3275.62 -3.80911 5.33467 0
M  V30 34182 H 3275.14 -4.61937 3.82589 0
M  V30 34183 H 3276.82 -4.73528 4.40886 0
M  V30 34184 N 3276.95 -1.11147 -1.11732 0
M  V30 34185 C 3278.36 -0.84476 -1.3541 0
M  V30 34186 C 3278.56 0.532077 -1.94348 0
M  V30 34187 O 3277.62 1.2835 -2.17446 0
M  V30 34188 C 3278.93 -1.95041 -2.28866 0
M  V30 34189 C 3280.48 -1.97972 -2.42438 0
M  V30 34190 C 3280.96 -3.07731 -3.39213 0
M  V30 34191 N 3282.45 -3.07086 -3.46775 0
M  V30 34192 C 3283.18 -3.88653 -4.21588 0
M  V30 34193 N 3282.68 -4.80176 -4.99403 0
M  V30 34194 N 3284.47 -3.76842 -4.17069 0
M  V30 34195 H 3276.62 -1.99883 -0.718377 0
M  V30 34196 H 3278.88 -0.869043 -0.378771 0
M  V30 34197 H 3278.59 -2.94179 -1.92747 0
M  V30 34198 H 3278.46 -1.84395 -3.29057 0
M  V30 34199 H 3280.85 -0.99461 -2.77834 0
M  V30 34200 H 3280.93 -2.12694 -1.4211 0
M  V30 34201 H 3280.58 -4.06466 -3.04546 0
M  V30 34202 H 3280.51 -2.90249 -4.39389 0
M  V30 34203 H 3283 -2.40773 -2.91268 0
M  V30 34204 H 3283.31 -5.38956 -5.53847 0
M  V30 34205 H 3281.66 -4.84199 -4.98574 0
M  V30 34206 H 3284.85 -3.04688 -3.55363 0
M  V30 34207 H 3285.02 -4.40645 -4.75117 0
M  V30 34208 N 3278.43 1.29282 -0.901326 0
M  V30 34209 C 3279.38 2.25273 -0.351602 0
M  V30 34210 C 3280.36 1.51947 0.529249 0
M  V30 34211 O 3281.55 1.73068 0.371001 0
M  V30 34212 C 3278.68 3.40741 0.41837 0
M  V30 34213 C 3277.77 4.21403 -0.477494 0
M  V30 34214 N 3278.16 4.80309 -1.58546 0
M  V30 34215 C 3276.46 4.45148 -0.275583 0
M  V30 34216 C 3277.16 5.40886 -2.1405 0
M  V30 34217 N 3276.13 5.24363 -1.43333 0
M  V30 34218 H 3279.93 2.68377 -1.19795 0
M  V30 34219 H 3277.45 1.43911 -0.752563 0
M  V30 34220 H 3279.45 4.08576 0.82895 0
M  V30 34221 H 3278.11 2.99173 1.26196 0
M  V30 34222 H 3279.12 4.79044 -1.96818 0
M  V30 34223 H 3275.79 4.14129 0.529508 0
M  V30 34224 H 3277.18 5.97568 -3.07184 0
M  V30 34225 N 3279.9 0.663979 1.4293 0
M  V30 34226 C 3281.13 0.189844 2.06027 0
M  V30 34227 C 3281.55 -1.14877 1.49829 0
M  V30 34228 O 3280.9 -1.71141 0.633808 0
M  V30 34229 C 3280.95 0.104407 3.61349 0
M  V30 34230 O 3280.68 1.39011 4.15461 0
M  V30 34231 C 3282.18 -0.394522 4.41541 0
M  V30 34232 H 3279.4 0.0948861 0.664257 0
M  V30 34233 H 3281.94 0.907664 1.83253 0
M  V30 34234 H 3280.1 -0.564035 3.83272 0
M  V30 34235 H 3280.51 1.25635 5.09231 0
M  V30 34236 H 3281.98 -0.403232 5.50525 0
M  V30 34237 H 3282.46 -1.42783 4.15343 0
M  V30 34238 H 3283.07 0.241804 4.24612 0
M  V30 34239 N 3281.38 -1.52265 0.406593 0
M  V30 34240 C 3282.34 -2.25536 -0.408212 0
M  V30 34241 C 3283.34 -1.2781 -0.975772 0
M  V30 34242 O 3284.53 -1.51771 -0.85505 0
M  V30 34243 C 3281.67 -3.02367 -1.57438 0
M  V30 34244 H 3282.86 -2.9899 0.233511 0
M  V30 34245 H 3280.41 -1.55489 0.159059 0
M  V30 34246 H 3281.15 -2.33256 -2.25304 0
M  V30 34247 H 3280.93 -3.74114 -1.17393 0
M  V30 34248 H 3282.42 -3.57952 -2.15082 0
M  V30 34249 N 3282.86 -0.136936 -1.57004 0
M  V30 34250 C 3284.1 0.519548 -1.97687 0
M  V30 34251 C 3284.46 1.62694 -1.01954 0
M  V30 34252 O 3285.67 2.34358 -1.31643 0
M  V30 34253 C 3283.94 1.022 -3.42476 0
M  V30 34254 S 3285.5 1.68449 -4.05179 0
M  V30 34255 H 3282.31 0.168317 -0.69079 0
M  V30 34256 H 3284.92 -0.226268 -1.94186 0
M  V30 34257 H 3283.62 0.205122 -4.09887 0
M  V30 34258 H 3283.15 1.80267 -3.49667 0
M  V30 34259 H 3285.17 2.97124 -3.97406 0
M  V30 34260 N 3284.34 1.57005 0.136853 0
M  V30 34261 C 3285.29 1.99986 1.18778 0
M  V30 34262 C 3286.28 0.893867 1.43897 0
M  V30 34263 O 3287.49 1.07906 1.4407 0
M  V30 34264 H 3283.86 0.636758 0.400054 0
M  V30 34265 H 3285.83 2.87514 0.798645 0
M  V30 34266 C 3284.58 2.40507 2.51101 0
M  V30 34267 H 3283.9 3.25169 2.32605 0
M  V30 34268 H 3285.34 2.74395 3.23239 0
M  V30 34269 C 3283.8 1.26167 3.12384 0
M  V30 34270 O 3284.33 0.567906 3.97665 0
M  V30 34271 N 3282.54 1.0233 2.71987 0
M  V30 34272 H 3282.09 1.58924 2.02733 0
M  V30 34273 H 3282.04 0.260185 3.13322 0
M  V30 34274 N 3285.82 -0.406513 1.52267 0
M  V30 34275 C 3286.73 -1.52009 1.78691 0
M  V30 34276 C 3287.74 -1.60473 0.672628 0
M  V30 34277 O 3288.92 -1.77139 0.958321 0
M  V30 34278 C 3285.98 -2.87719 1.93439 0
M  V30 34279 C 3285.04 -2.89119 3.17346 0
M  V30 34280 C 3284.28 -4.18356 3.31381 0
M  V30 34281 O 3284.5 -5.12391 2.50622 0
M  V30 34282 O 3283.43 -4.26666 4.24546 0
M  V30 34283 H 3287.26 -1.32615 2.73216 0
M  V30 34284 H 3284.85 -0.592629 1.37143 0
M  V30 34285 H 3286.73 -3.68204 2.04948 0
M  V30 34286 H 3285.4 -3.07175 1.02104 0
M  V30 34287 H 3284.31 -2.07478 3.11294 0
M  V30 34288 H 3285.64 -2.74613 4.08471 0
M  V30 34289 N 3287.29 -1.42934 -0.663904 0
M  V30 34290 C 3288.23 -1.4322 -1.78943 0
M  V30 34291 C 3289.24 -0.329755 -1.59425 0
M  V30 34292 O 3290.43 -0.59353 -1.68343 0
M  V30 34293 C 3287.53 -1.21908 -3.16215 0
M  V30 34294 C 3286.7 -2.44791 -3.62486 0
M  V30 34295 C 3285.76 -2.18862 -4.78525 0
M  V30 34296 O 3284.79 -2.9214 -4.88511 0
M  V30 34297 N 3285.99 -1.19855 -5.67992 0
M  V30 34298 H 3288.75 -2.40239 -1.7918 0
M  V30 34299 H 3286.31 -1.37953 -0.84738 0
M  V30 34300 H 3288.31 -1.02461 -3.91515 0
M  V30 34301 H 3286.88 -0.333731 -3.10813 0
M  V30 34302 H 3286.1 -2.79734 -2.77746 0
M  V30 34303 H 3287.38 -3.26595 -3.90145 0
M  V30 34304 H 3286.78 -0.592689 -5.62587 0
M  V30 34305 H 3285.34 -1.06393 -6.43058 0
M  V30 34306 N 3288.77 0.901258 -1.29287 0
M  V30 34307 C 3289.7 2.0103 -1.10089 0
M  V30 34308 C 3290.72 1.62727 -0.048865 0
M  V30 34309 O 3291.91 1.76075 -0.293225 0
M  V30 34310 C 3289.01 3.32541 -0.653416 0
M  V30 34311 C 3288.18 3.99382 -1.78362 0
M  V30 34312 C 3287.24 5.09182 -1.32742 0
M  V30 34313 O 3286.26 5.31699 -2.03186 0
M  V30 34314 N 3287.47 5.80164 -0.197447 0
M  V30 34315 H 3290.23 2.18053 -2.05603 0
M  V30 34316 H 3287.79 1.07335 -1.21206 0
M  V30 34317 H 3289.78 4.0334 -0.331562 0
M  V30 34318 H 3288.35 3.11899 0.209223 0
M  V30 34319 H 3287.57 3.21968 -2.27443 0
M  V30 34320 H 3288.86 4.40781 -2.54145 0
M  V30 34321 H 3288.26 5.64355 0.389911 0
M  V30 34322 H 3286.82 6.51768 0.0650496 0
M  V30 34323 N 3290.25 1.11738 1.11141 0
M  V30 34324 C 3291.67 0.851929 1.3496 0
M  V30 34325 C 3291.87 -0.521763 1.94628 0
M  V30 34326 O 3290.92 -1.27195 2.18123 0
M  V30 34327 C 3292.24 1.96252 2.27828 0
M  V30 34328 C 3293.78 1.99255 2.41385 0
M  V30 34329 C 3294.26 3.09525 3.37577 0
M  V30 34330 N 3295.75 3.0892 3.45141 0
M  V30 34331 C 3296.48 3.90884 4.19521 0
M  V30 34332 N 3295.98 4.82817 4.96849 0
M  V30 34333 N 3297.77 3.79049 4.15064 0
M  V30 34334 H 3289.92 2.00261 0.707766 0
M  V30 34335 H 3292.19 0.87104 0.374157 0
M  V30 34336 H 3291.89 2.95197 1.91184 0
M  V30 34337 H 3291.77 1.86137 3.28074 0
M  V30 34338 H 3294.15 1.00933 2.77302 0
M  V30 34339 H 3294.24 2.13444 1.4098 0
M  V30 34340 H 3293.88 4.08075 3.02386 0
M  V30 34341 H 3293.81 2.92575 4.37844 0
M  V30 34342 H 3296.3 2.42314 2.89987 0
M  V30 34343 H 3296.61 5.41886 5.50981 0
M  V30 34344 H 3294.96 4.86837 4.95999 0
M  V30 34345 H 3298.15 3.06568 3.53743 0
M  V30 34346 H 3298.32 4.43158 4.72773 0
M  V30 34347 N 3291.73 -1.28802 0.90817 0
M  V30 34348 C 3292.96 -1.99342 0.554125 0
M  V30 34349 C 3293.37 -1.6791 -0.863233 0
M  V30 34350 O 3292.73 -0.928778 -1.57099 0
M  V30 34351 C 3292.78 -3.53698 0.746978 0
M  V30 34352 O 3292.5 -3.8402 2.10856 0
M  V30 34353 C 3294 -4.41501 0.399017 0
M  V30 34354 H 3291.22 -0.636698 0.211795 0
M  V30 34355 H 3293.77 -1.64134 1.21984 0
M  V30 34356 H 3291.92 -3.87187 0.128332 0
M  V30 34357 H 3292.33 -4.78673 2.14413 0
M  V30 34358 H 3293.81 -5.48894 0.584752 0
M  V30 34359 H 3294.29 -4.34145 -0.664441 0
M  V30 34360 H 3294.89 -4.13498 0.994965 0
M  V30 34361 N 3293.21 -0.67155 -1.42576 0
M  V30 34362 C 3294.43 -0.200767 -2.05924 0
M  V30 34363 C 3294.85 1.1408 -1.50436 0
M  V30 34364 O 3294.21 1.70802 -0.642875 0
M  V30 34365 C 3294.26 -0.123568 -3.61289 0
M  V30 34366 O 3293.98 -1.41212 -4.14718 0
M  V30 34367 C 3295.48 0.3711 -4.41744 0
M  V30 34368 H 3292.7 -0.0984075 -0.663745 0
M  V30 34369 H 3295.24 -0.91737 -1.82769 0
M  V30 34370 H 3293.4 0.543702 -3.83566 0
M  V30 34371 H 3293.81 -1.28334 -5.08557 0
M  V30 34372 H 3295.29 0.374031 -5.50731 0
M  V30 34373 H 3295.76 1.40578 -4.16094 0
M  V30 34374 H 3296.37 -0.264319 -4.24478 0
M  V30 34375 N 3294.68 1.52047 -0.414663 0
M  V30 34376 C 3295.62 2.23662 0.452815 0
M  V30 34377 C 3296.6 1.24703 1.04346 0
M  V30 34378 O 3297.78 1.53771 1.09027 0
M  V30 34379 C 3294.91 2.96952 1.62903 0
M  V30 34380 C 3293.95 4.10387 1.16125 0
M  V30 34381 S 3294.79 5.35361 0.121842 0
M  V30 34382 C 3295.94 6.12182 1.30325 0
M  V30 34383 H 3296.17 2.96894 -0.155254 0
M  V30 34384 H 3293.71 1.53112 -0.198999 0
M  V30 34385 H 3295.67 3.39781 2.30345 0
M  V30 34386 H 3294.33 2.23352 2.20845 0
M  V30 34387 H 3293.52 4.60861 2.04017 0
M  V30 34388 H 3293.12 3.69702 0.565387 0
M  V30 34389 H 3295.41 6.39893 2.22584 0
M  V30 34390 H 3296.36 7.03113 0.838928 0
M  V30 34391 H 3296.76 5.43327 1.53155 0
M  V30 34392 N 3296.16 0.145261 1.56929 0
M  V30 34393 C 3297.41 -0.506238 1.95244 0
M  V30 34394 C 3297.72 -1.66127 1.03253 0
M  V30 34395 O 3298.93 -2.37728 1.31139 0
M  V30 34396 C 3297.39 -0.951981 3.47081 0
M  V30 34397 C 3296.99 0.176025 4.47654 0
M  V30 34398 C 3298.74 -1.57337 3.94266 0
M  V30 34399 C 3296.65 -0.287889 5.90699 0
M  V30 34400 H 3295.58 -0.19289 0.72891 0
M  V30 34401 H 3298.23 0.229327 1.82061 0
M  V30 34402 H 3296.61 -1.74276 3.5559 0
M  V30 34403 H 3297.78 0.952927 4.50839 0
M  V30 34404 H 3296.1 0.705712 4.10376 0
M  V30 34405 H 3298.69 -1.93205 4.98574 0
M  V30 34406 H 3299.04 -2.46168 3.35719 0
M  V30 34407 H 3299.57 -0.847524 3.88667 0
M  V30 34408 H 3296.31 0.565004 6.5306 0
M  V30 34409 H 3295.83 -1.0307 5.90878 0
M  V30 34410 H 3297.51 -0.740473 6.42749 0
M  V30 34411 N 3297.64 -1.57075 -0.128525 0
M  V30 34412 C 3298.57 -2.02677 -1.15949 0
M  V30 34413 C 3299.55 -0.909527 -1.43742 0
M  V30 34414 O 3300.74 -1.1786 -1.54346 0
M  V30 34415 C 3297.87 -2.42304 -2.48809 0
M  V30 34416 C 3296.82 -3.57385 -2.35499 0
M  V30 34417 C 3296.15 -3.82882 -3.73236 0
M  V30 34418 C 3297.45 -4.89434 -1.8235 0
M  V30 34419 H 3299.14 -2.89055 -0.780232 0
M  V30 34420 H 3296.69 -1.39062 -0.373872 0
M  V30 34421 H 3298.64 -2.7281 -3.21174 0
M  V30 34422 H 3297.36 -1.52886 -2.88606 0
M  V30 34423 H 3296.02 -3.27074 -1.65584 0
M  V30 34424 H 3295.67 -2.90684 -4.10502 0
M  V30 34425 H 3295.37 -4.60339 -3.65187 0
M  V30 34426 H 3296.9 -4.15831 -4.47121 0
M  V30 34427 H 3298.31 -5.18537 -2.44524 0
M  V30 34428 H 3296.71 -5.70825 -1.85146 0
M  V30 34429 H 3297.78 -4.78579 -0.780394 0
M  V30 34430 N 3299.12 0.398432 -1.5248 0
M  V30 34431 C 3300.05 1.49276 -1.79552 0
M  V30 34432 C 3301.03 1.57313 -0.647032 0
M  V30 34433 O 3302.22 1.72415 -0.893691 0
M  V30 34434 C 3299.35 2.8699 -1.95587 0
M  V30 34435 C 3298.3 2.93797 -3.11235 0
M  V30 34436 C 3297.63 4.33869 -3.12509 0
M  V30 34437 C 3298.93 2.64304 -4.50489 0
M  V30 34438 H 3300.62 1.26872 -2.7119 0
M  V30 34439 H 3298.17 0.608901 -1.30493 0
M  V30 34440 H 3300.12 3.63542 -2.13108 0
M  V30 34441 H 3298.84 3.10711 -1.0063 0
M  V30 34442 H 3297.5 2.19691 -2.93481 0
M  V30 34443 H 3297.15 4.54615 -2.15253 0
M  V30 34444 H 3296.85 4.39346 -3.9019 0
M  V30 34445 H 3298.37 5.12341 -3.32173 0
M  V30 34446 H 3299.79 3.30576 -4.68393 0
M  V30 34447 H 3298.18 2.81144 -5.30168 0
M  V30 34448 H 3299.25 1.59688 -4.57851 0
M  V30 34449 N 3300.6 1.43284 0.656314 0
M  V30 34450 C 3301.84 1.46238 1.42807 0
M  V30 34451 C 3302.2 0.0830463 1.9182 0
M  V30 34452 O 3303.4 -0.0127229 2.68797 0
M  V30 34453 C 3301.67 2.47324 2.58003 0
M  V30 34454 S 3303.23 2.69128 3.46577 0
M  V30 34455 H 3300.05 0.517543 0.487514 0
M  V30 34456 H 3302.65 1.80027 0.762266 0
M  V30 34457 H 3301.36 3.46283 2.20265 0
M  V30 34458 H 3300.89 2.15022 3.29438 0
M  V30 34459 H 3302.9 1.98821 4.54626 0
M  V30 34460 N 3302.08 -0.894389 1.29763 0
M  V30 34461 C 3302.99 -2.03202 1.17244 0
M  V30 34462 C 3304 -1.73743 0.0944757 0
M  V30 34463 O 3305.18 -1.99037 0.307584 0
M  V30 34464 C 3302.24 -3.3598 0.855475 0
M  V30 34465 C 3301.3 -3.78922 2.01783 0
M  V30 34466 C 3300.54 -5.05364 1.7159 0
M  V30 34467 O 3300.76 -5.66806 0.639345 0
M  V30 34468 O 3299.69 -5.44487 2.56549 0
M  V30 34469 H 3303.52 -2.16688 2.12791 0
M  V30 34470 H 3301.1 -1.01889 1.09266 0
M  V30 34471 H 3302.99 -4.15654 0.693502 0
M  V30 34472 H 3301.66 -3.23624 -0.0701626 0
M  V30 34473 H 3300.57 -2.99992 2.23508 0
M  V30 34474 H 3301.9 -3.9587 2.92486 0
M  V30 34475 N 3303.55 -1.12326 -1.10547 0
M  V30 34476 C 3304.83 -0.789319 -1.78967 0
M  V30 34477 C 3305.21 0.721121 -1.98401 0
M  V30 34478 O 3304.56 1.6544 -1.57613 0
M  V30 34479 C 3304.77 -1.56306 -3.12041 0
M  V30 34480 C 3306.12 -1.74831 -3.86936 0
M  V30 34481 O 3307.14 -1.52808 -3.21758 0
M  V30 34482 O 3306 -2.11497 -5.03916 0
M  V30 34483 H 3303.09 -0.286976 -0.775612 0
M  V30 34484 H 3305.64 -1.22722 -1.17207 0
M  V30 34485 H 3304.41 -2.5901 -2.93308 0
M  V30 34486 H 3304.03 -1.11933 -3.81519 0
M  V30 34487 N 3305.03 1.28319 -0.914988 0
M  V30 34488 C 3306.28 1.94537 -0.547699 0
M  V30 34489 C 3306.6 1.72369 0.911804 0
M  V30 34490 O 3305.87 1.06411 1.6448 0
M  V30 34491 H 3304.45 0.71985 -0.199562 0
M  V30 34492 H 3307.11 1.56278 -1.16462 0
M  V30 34493 H 3306.21 3.03122 -0.743191 0
M  V30 34494 N 3306.51 0.679102 1.42218 0
M  V30 34495 C 3307.73 0.210133 2.06333 0
M  V30 34496 C 3308.16 -1.1256 1.50705 0
M  V30 34497 O 3307.52 -1.70103 0.627271 0
M  V30 34498 C 3307.57 0.160386 3.60243 0
M  V30 34499 O 3306.67 -0.869801 4.03123 0
M  V30 34500 H 3306.01 0.106765 0.65536 0
M  V30 34501 H 3308.54 0.929326 1.82276 0
M  V30 34502 H 3308.55 -0.0143123 4.07997 0
M  V30 34503 H 3307.23 1.13533 4.00104 0
M  V30 34504 H 3305.8 -0.665796 3.66908 0
M  V30 34505 N 3307.99 -1.51825 0.42272 0
M  V30 34506 C 3308.92 -2.30273 -0.386872 0
M  V30 34507 C 3309.9 -1.35058 -1.03409 0
M  V30 34508 O 3311.08 -1.63972 -1.04052 0
M  V30 34509 C 3308.21 -3.13409 -1.4964 0
M  V30 34510 C 3307.17 -4.16783 -0.973458 0
M  V30 34511 C 3306.49 -4.88348 -2.17762 0
M  V30 34512 C 3307.79 -5.22297 -0.0180276 0
M  V30 34513 H 3309.49 -2.982 0.26775 0
M  V30 34514 H 3307.03 -1.4341 0.130212 0
M  V30 34515 H 3308.99 -3.67062 -2.06986 0
M  V30 34516 H 3307.71 -2.43276 -2.1791 0
M  V30 34517 H 3306.37 -3.64159 -0.422306 0
M  V30 34518 H 3306.02 -4.14731 -2.84617 0
M  V30 34519 H 3305.72 -5.5824 -1.83417 0
M  V30 34520 H 3307.24 -5.44819 -2.75689 0
M  V30 34521 H 3308.66 -5.71109 -0.500721 0
M  V30 34522 H 3307.05 -5.99631 0.237268 0
M  V30 34523 H 3308.12 -4.76031 0.923149 0
M  V30 34524 N 3309.47 -0.153581 -1.5685 0
M  V30 34525 C 3310.88 0.202773 -1.58307 0
M  V30 34526 C 3311.08 1.64184 -1.16816 0
M  V30 34527 O 3310.14 2.36983 -0.87151 0
M  V30 34528 C 3311.45 -0.0619541 -3.00636 0
M  V30 34529 C 3313 0.00123717 -3.13 0
M  V30 34530 C 3313.47 -0.236245 -4.5739 0
M  V30 34531 N 3314.96 -0.183401 -4.62837 0
M  V30 34532 C 3315.7 -0.341571 -5.72382 0
M  V30 34533 N 3315.2 -0.557825 -6.90551 0
M  V30 34534 N 3316.99 -0.278714 -5.61409 0
M  V30 34535 H 3309.14 -1.09313 -1.82111 0
M  V30 34536 H 3311.4 -0.433224 -0.843221 0
M  V30 34537 H 3311.11 -1.05816 -3.35404 0
M  V30 34538 H 3310.98 0.65449 -3.71478 0
M  V30 34539 H 3313.37 0.988001 -2.78069 0
M  V30 34540 H 3313.45 -0.747639 -2.4463 0
M  V30 34541 H 3313.09 -1.22014 -4.93026 0
M  V30 34542 H 3313.02 0.533033 -5.23895 0
M  V30 34543 H 3315.52 -0.0211802 -3.77894 0
M  V30 34544 H 3315.83 -0.668445 -7.69904 0
M  V30 34545 H 3314.17 -0.594227 -6.92455 0
M  V30 34546 H 3317.36 -0.110484 -4.6797 0
M  V30 34547 H 3317.54 -0.405414 -6.46731 0
M  V30 34548 N 3310.94 1.57141 0.120193 0
M  V30 34549 C 3312.19 1.83977 0.826758 0
M  V30 34550 C 3312.51 0.739046 1.81101 0
M  V30 34551 O 3313.71 0.893781 2.56367 0
M  V30 34552 C 3312.17 3.26179 1.52102 0
M  V30 34553 C 3311.78 4.44258 0.577824 0
M  V30 34554 C 3313.52 3.62265 2.21279 0
M  V30 34555 C 3311.43 5.77487 1.27525 0
M  V30 34556 H 3310.36 0.686194 0.312496 0
M  V30 34557 H 3313.01 1.83328 0.0795021 0
M  V30 34558 H 3311.39 3.21294 2.31486 0
M  V30 34559 H 3312.56 4.60438 -0.18271 0
M  V30 34560 H 3310.88 4.16399 -0.00691667 0
M  V30 34561 H 3313.48 4.59073 2.74146 0
M  V30 34562 H 3313.82 2.89639 2.99023 0
M  V30 34563 H 3314.35 3.68928 1.48785 0
M  V30 34564 H 3311.09 6.53279 0.539122 0
M  V30 34565 H 3310.61 5.65196 2.00782 0
M  V30 34566 H 3312.29 6.21202 1.80877 0
M  V30 34567 N 3312.42 -0.39034 1.5269 0
M  V30 34568 C 3313.65 -1.15507 1.71294 0
M  V30 34569 C 3314.06 -1.84239 0.430438 0
M  V30 34570 O 3313.4 -1.73459 -0.604793 0
M  V30 34571 C 3313.47 -2.2473 2.80601 0
M  V30 34572 C 3313.13 -1.75977 4.2176 0
M  V30 34573 C 3314.13 -1.23724 5.04964 0
M  V30 34574 C 3311.81 -1.8224 4.68075 0
M  V30 34575 C 3313.81 -0.783814 6.32562 0
M  V30 34576 C 3311.49 -1.36509 5.95658 0
M  V30 34577 C 3312.49 -0.846667 6.77732 0
M  V30 34578 O 3312.18 -0.396023 8.02924 0
M  V30 34579 H 3311.91 -0.352346 0.576913 0
M  V30 34580 H 3314.46 -0.46283 2.00118 0
M  V30 34581 H 3312.69 -2.97374 2.47195 0
M  V30 34582 H 3314.38 -2.86407 2.87621 0
M  V30 34583 H 3315.15 -1.18243 4.70365 0
M  V30 34584 H 3311.03 -2.21534 4.04282 0
M  V30 34585 H 3314.57 -0.37849 6.96572 0
M  V30 34586 H 3310.47 -1.41675 6.29761 0
M  V30 34587 H 3311.24 -0.517622 8.16862 0
M  V30 34588 N 3313.9 -1.4363 -0.648706 0
M  V30 34589 C 3314.83 -1.43592 -1.7736 0
M  V30 34590 C 3315.81 -0.296811 -1.59868 0
M  V30 34591 O 3317 -0.491097 -1.8199 0
M  V30 34592 C 3314.12 -1.25181 -3.14718 0
M  V30 34593 C 3313.17 -2.42426 -3.50901 0
M  V30 34594 S 3314 -4.04975 -3.50365 0
M  V30 34595 C 3315.16 -3.88955 -4.90372 0
M  V30 34596 H 3315.39 -2.38778 -1.77123 0
M  V30 34597 H 3312.92 -1.30716 -0.821755 0
M  V30 34598 H 3314.88 -1.15246 -3.93991 0
M  V30 34599 H 3313.54 -0.315358 -3.12513 0
M  V30 34600 H 3312.74 -2.25361 -4.50809 0
M  V30 34601 H 3312.34 -2.4901 -2.79052 0
M  V30 34602 H 3314.63 -3.51558 -5.79148 0
M  V30 34603 H 3315.57 -4.88631 -5.1249 0
M  V30 34604 H 3315.98 -3.21331 -4.64119 0
M  V30 34605 N 3315.38 0.887495 -1.30236 0
M  V30 34606 C 3316.34 1.9745 -1.16387 0
M  V30 34607 C 3317.34 1.60514 -0.0958224 0
M  V30 34608 O 3318.53 1.70775 -0.343736 0
M  V30 34609 C 3315.66 3.31796 -0.782573 0
M  V30 34610 H 3316.86 2.11163 -2.12956 0
M  V30 34611 H 3314.41 1.07357 -1.13596 0
M  V30 34612 H 3315.14 3.23785 0.182723 0
M  V30 34613 H 3314.93 3.59973 -1.55441 0
M  V30 34614 H 3316.42 4.11536 -0.709083 0
M  V30 34615 N 3316.86 1.12911 1.0995 0
M  V30 34616 C 3317.8 0.796887 2.18523 0
M  V30 34617 C 3318.8 -0.218453 1.67986 0
M  V30 34618 O 3320 -0.0761484 1.79839 0
M  V30 34619 H 3316.38 0.239894 0.71271 0
M  V30 34620 H 3318.35 1.72087 2.4378 0
M  V30 34621 C 3317.1 0.273298 3.46624 0
M  V30 34622 H 3316.42 1.04589 3.85877 0
M  V30 34623 H 3317.86 0.07921 4.23926 0
M  V30 34624 C 3316.32 -0.999846 3.21721 0
M  V30 34625 O 3316.85 -2.0767 3.43855 0
M  V30 34626 N 3315.06 -0.928785 2.75358 0
M  V30 34627 H 3314.6 -0.0523338 2.57547 0
M  V30 34628 H 3314.56 -1.78124 2.59073 0
M  V30 34629 N 3318.33 -1.27832 0.92178 0
M  V30 34630 C 3319.58 -1.94917 0.559941 0
M  V30 34631 C 3319.91 -1.72321 -0.895502 0
M  V30 34632 O 3319.19 -1.04882 -1.63798 0
M  V30 34633 C 3319.47 -3.49194 0.879519 0
M  V30 34634 C 3319.32 -3.81158 2.38828 0
M  V30 34635 C 3320.64 -4.38445 0.38126 0
M  V30 34636 H 3317.76 -0.707943 0.204906 0
M  V30 34637 H 3320.4 -1.51056 1.15248 0
M  V30 34638 H 3318.55 -3.86684 0.375245 0
M  V30 34639 H 3320.23 -3.53493 2.96379 0
M  V30 34640 H 3318.47 -3.27918 2.83994 0
M  V30 34641 H 3319.14 -4.88921 2.56242 0
M  V30 34642 H 3321.62 -4.08073 0.81336 0
M  V30 34643 H 3320.49 -5.45228 0.633874 0
M  V30 34644 H 3320.75 -4.36221 -0.718575 0
M  V30 34645 N 3319.81 -0.686634 -1.41856 0
M  V30 34646 C 3320.72 -0.0159418 -2.34595 0
M  V30 34647 C 3321.74 0.775905 -1.55742 0
M  V30 34648 O 3322.91 0.715517 -1.88261 0
M  V30 34649 C 3319.98 0.915414 -3.34397 0
M  V30 34650 C 3319.04 0.116775 -4.29141 0
M  V30 34651 C 3318.27 1.00377 -5.24176 0
M  V30 34652 O 3318.5 2.24331 -5.24435 0
M  V30 34653 O 3317.43 0.458232 -6.00153 0
M  V30 34654 H 3321.26 -0.780153 -2.93509 0
M  V30 34655 H 3318.84 -0.446921 -1.42559 0
M  V30 34656 H 3320.72 1.44974 -3.95677 0
M  V30 34657 H 3319.4 1.65927 -2.77939 0
M  V30 34658 H 3318.31 -0.461936 -3.71237 0
M  V30 34659 H 3319.64 -0.588223 -4.88672 0
M  V30 34660 N 3321.29 1.51599 -0.430766 0
M  V30 34661 C 3322.24 2.29162 0.398442 0
M  V30 34662 C 3323.23 1.34739 1.02673 0
M  V30 34663 O 3324.44 1.52108 0.962453 0
M  V30 34664 H 3320.81 0.737433 0.147297 0
M  V30 34665 H 3322.78 2.97115 -0.276671 0
M  V30 34666 C 3321.53 3.14114 1.49089 0
M  V30 34667 H 3320.86 3.86654 1.01679 0
M  V30 34668 H 3322.3 3.71453 2.04447 0
M  V30 34669 C 3320.76 2.29064 2.47045 0
M  V30 34670 O 3321.29 1.94573 3.51432 0
M  V30 34671 N 3319.49 1.92413 2.17774 0
M  V30 34672 H 3319.04 2.20661 1.32916 0
M  V30 34673 H 3319 1.35803 2.83557 0
M  V30 34674 N 3322.77 0.161897 1.56766 0
M  V30 34675 C 3324 -0.491992 2.00965 0
M  V30 34676 C 3324.41 -1.57436 1.04209 0
M  V30 34677 O 3323.77 -1.82453 0.0414318 0
M  V30 34678 C 3323.82 -1.07898 3.45022 0
M  V30 34679 O 3323.54 -0.0398315 4.38082 0
M  V30 34680 C 3325.04 -1.81202 4.04575 0
M  V30 34681 H 3322.26 -0.126785 0.658913 0
M  V30 34682 H 3324.81 0.260859 2.02829 0
M  V30 34683 H 3322.96 -1.78237 3.43963 0
M  V30 34684 H 3323.37 -0.471894 5.22373 0
M  V30 34685 H 3324.85 -2.17545 5.07325 0
M  V30 34686 H 3325.33 -2.70352 3.4613 0
M  V30 34687 H 3325.93 -1.15527 4.09309 0
M  V30 34688 N 3324.25 -1.57203 -0.111858 0
M  V30 34689 C 3325.47 -1.89792 -0.836284 0
M  V30 34690 C 3325.9 -0.754544 -1.72303 0
M  V30 34691 O 3325.25 0.29464 -1.7889 0
M  V30 34692 C 3325.3 -3.21166 -1.63965 0
M  V30 34693 O 3324.41 -3.07575 -2.74721 0
M  V30 34694 H 3323.75 -0.622589 -0.230822 0
M  V30 34695 H 3326.28 -2.04393 -0.0921118 0
M  V30 34696 H 3326.29 -3.54063 -2.0274 0
M  V30 34697 H 3324.96 -4.03976 -0.988749 0
M  V30 34698 H 3323.54 -2.8616 -2.39096 0
M  V30 34699 N 3325.72 0.382237 -1.52894 0
M  V30 34700 C 3326.95 1.14597 -1.71904 0
M  V30 34701 C 3327.36 1.84008 -0.440202 0
M  V30 34702 O 3326.71 1.73777 0.595585 0
M  V30 34703 C 3326.77 2.23239 -2.81789 0
M  V30 34704 C 3326.43 1.73737 -4.22687 0
M  V30 34705 C 3327.43 1.21045 -5.05613 0
M  V30 34706 C 3325.11 1.79755 -4.69035 0
M  V30 34707 C 3327.11 0.750257 -6.32969 0
M  V30 34708 C 3324.79 1.33348 -5.96374 0
M  V30 34709 C 3325.79 0.810713 -6.78171 0
M  V30 34710 O 3325.48 0.353436 -8.03123 0
M  V30 34711 H 3325.21 0.349282 -0.578773 0
M  V30 34712 H 3327.77 0.45221 -2.0036 0
M  V30 34713 H 3326 2.96059 -2.48769 0
M  V30 34714 H 3327.69 2.84877 -2.89136 0
M  V30 34715 H 3328.45 1.15747 -4.70986 0
M  V30 34716 H 3324.33 2.19387 -4.05451 0
M  V30 34717 H 3327.87 0.341543 -6.96763 0
M  V30 34718 H 3323.77 1.38333 -6.30503 0
M  V30 34719 H 3324.54 0.474295 -8.17125 0
M  V30 34720 N 3327.2 1.43972 0.64108 0
M  V30 34721 C 3328.45 1.47442 1.40115 0
M  V30 34722 C 3328.8 0.101681 1.92131 0
M  V30 34723 O 3328.1 -0.881584 1.70114 0
M  V30 34724 C 3328.29 2.46188 2.59088 0
M  V30 34725 C 3328.12 3.92928 2.18718 0
M  V30 34726 C 3326.89 4.61193 2.06467 0
M  V30 34727 C 3329.09 4.82424 1.78246 0
M  V30 34728 N 3327.07 5.92803 1.59555 0
M  V30 34729 C 3328.44 6.034 1.42507 0
M  V30 34730 C 3330.5 4.69576 1.65538 0
M  V30 34731 C 3329.2 7.12955 0.953302 0
M  V30 34732 C 3331.23 5.79146 1.19766 0
M  V30 34733 C 3330.59 6.99256 0.849707 0
M  V30 34734 H 3326.69 0.594605 0.507907 0
M  V30 34735 H 3329.27 1.80233 0.736485 0
M  V30 34736 H 3327.44 2.15404 3.23196 0
M  V30 34737 H 3329.17 2.40018 3.25843 0
M  V30 34738 H 3325.93 4.15867 2.26608 0
M  V30 34739 H 3326.35 6.62697 1.38427 0
M  V30 34740 H 3330.99 3.77161 1.91074 0
M  V30 34741 H 3328.71 8.05188 0.685438 0
M  V30 34742 H 3332.3 5.71228 1.10405 0
M  V30 34743 H 3331.18 7.82598 0.500943 0
M  V30 34744 N 3328.68 -0.880575 1.30704 0
M  V30 34745 C 3329.61 -2.00283 1.20037 0
M  V30 34746 C 3330.59 -1.69862 0.0899913 0
M  V30 34747 O 3331.78 -1.92275 0.27278 0
M  V30 34748 C 3328.91 -3.35544 0.89596 0
M  V30 34749 C 3327.86 -3.80239 1.96475 0
M  V30 34750 C 3327.19 -5.1284 1.51325 0
M  V30 34751 C 3328.49 -3.9849 3.37644 0
M  V30 34752 H 3330.18 -2.09466 2.13926 0
M  V30 34753 H 3327.73 -1.00642 1.02991 0
M  V30 34754 H 3329.68 -4.13582 0.807971 0
M  V30 34755 H 3328.4 -3.26505 -0.0786062 0
M  V30 34756 H 3327.06 -3.04433 2.04245 0
M  V30 34757 H 3326.71 -5.00233 0.526828 0
M  V30 34758 H 3326.41 -5.43715 2.22817 0
M  V30 34759 H 3327.94 -5.93398 1.43913 0
M  V30 34760 H 3329.35 -4.66953 3.32608 0
M  V30 34761 H 3327.75 -4.40748 4.07261 0
M  V30 34762 H 3328.82 -3.02204 3.7921 0
M  V30 34763 N 3330.16 -1.13492 -1.09349 0
M  V30 34764 C 3331.09 -0.770801 -2.1585 0
M  V30 34765 C 3332.1 0.207838 -1.61468 0
M  V30 34766 O 3333.29 -0.0124699 -1.78496 0
M  V30 34767 C 3330.39 -0.12193 -3.38681 0
M  V30 34768 C 3329.57 -1.13286 -4.22475 0
M  V30 34769 C 3328.63 -0.50954 -5.23727 0
M  V30 34770 O 3327.65 -1.16977 -5.5705 0
M  V30 34771 N 3328.85 0.718058 -5.76042 0
M  V30 34772 H 3331.62 -1.68725 -2.47693 0
M  V30 34773 H 3329.18 -1.02804 -1.25072 0
M  V30 34774 H 3331.17 0.307333 -4.03531 0
M  V30 34775 H 3329.74 0.697473 -3.0472 0
M  V30 34776 H 3328.96 -1.73939 -3.5375 0
M  V30 34777 H 3330.25 -1.81609 -4.75285 0
M  V30 34778 H 3329.65 1.27322 -5.51186 0
M  V30 34779 H 3328.2 1.08997 -6.42622 0
M  V30 34780 N 3331.64 1.27341 -0.928546 0
M  V30 34781 C 3333.05 1.76319 -0.613887 0
M  V30 34782 C 3333.4 1.75809 0.870952 0
M  V30 34783 O 3332.52 1.36212 1.68153 0
M  V30 34784 C 3333.12 3.20184 -1.1076 0
M  V30 34785 C 3331.68 3.66825 -0.843596 0
M  V30 34786 C 3330.83 2.46722 -1.26584 0
M  V30 34787 H 3333.78 1.13596 -1.10823 0
M  V30 34788 H 3333.8 3.77762 -0.455665 0
M  V30 34789 H 3333.31 3.20522 -2.18831 0
M  V30 34790 H 3331.41 3.7193 0.223269 0
M  V30 34791 H 3331.52 4.56257 -1.46173 0
M  V30 34792 H 3329.89 2.45333 -0.684377 0
M  V30 34793 H 3330.67 2.4977 -2.3552 0
M  V30 34794 N 3333.12 0.694147 1.4149 0
M  V30 34795 C 3334.34 0.232006 2.06098 0
M  V30 34796 C 3334.77 -1.10955 1.5189 0
M  V30 34797 O 3334.12 -1.69428 0.645277 0
M  V30 34798 C 3334.17 0.198585 3.60053 0
M  V30 34799 O 3333.28 -0.826996 4.04023 0
M  V30 34800 H 3332.62 0.11371 0.654191 0
M  V30 34801 H 3335.15 0.948607 1.8128 0
M  V30 34802 H 3335.16 0.0289621 4.0799 0
M  V30 34803 H 3333.83 1.17771 3.98877 0
M  V30 34804 H 3332.41 -0.626843 3.67594 0
M  V30 34805 N 3334.59 -1.51368 0.438799 0
M  V30 34806 C 3335.52 -2.3067 -0.362427 0
M  V30 34807 C 3336.5 -1.36147 -1.01971 0
M  V30 34808 O 3337.69 -1.65067 -1.02307 0
M  V30 34809 C 3334.82 -3.14979 -1.46307 0
M  V30 34810 C 3333.77 -4.17792 -0.929198 0
M  V30 34811 C 3333.1 -4.9063 -2.1257 0
M  V30 34812 C 3334.4 -5.22287 0.03737 0
M  V30 34813 H 3336.09 -2.979 0.299363 0
M  V30 34814 H 3333.64 -1.43264 0.145415 0
M  V30 34815 H 3335.59 -3.69237 -2.03081 0
M  V30 34816 H 3334.32 -2.45573 -2.15317 0
M  V30 34817 H 3332.98 -3.64587 -0.383658 0
M  V30 34818 H 3332.62 -4.17727 -2.80203 0
M  V30 34819 H 3332.32 -5.60154 -1.77486 0
M  V30 34820 H 3333.85 -5.47713 -2.69895 0
M  V30 34821 H 3335.26 -5.71608 -0.440119 0
M  V30 34822 H 3333.66 -5.99345 0.300854 0
M  V30 34823 H 3334.73 -4.75026 0.973586 0
M  V30 34824 N 3336.07 -0.170208 -1.56678 0
M  V30 34825 C 3337 0.791923 -2.15084 0
M  V30 34826 C 3338.02 1.1945 -1.10614 0
M  V30 34827 O 3339.21 1.13455 -1.37805 0
M  V30 34828 C 3336.31 2.07729 -2.67772 0
M  V30 34829 C 3335.48 1.83844 -3.96888 0
M  V30 34830 C 3334.54 2.96589 -4.34651 0
M  V30 34831 O 3333.56 2.67272 -5.02548 0
M  V30 34832 N 3334.77 4.24346 -3.96119 0
M  V30 34833 H 3337.53 0.292606 -2.98268 0
M  V30 34834 H 3335.09 0.0126098 -1.61895 0
M  V30 34835 H 3337.08 2.82245 -2.90034 0
M  V30 34836 H 3335.65 2.48854 -1.89183 0
M  V30 34837 H 3334.87 0.932385 -3.83015 0
M  V30 34838 H 3336.16 1.65253 -4.81216 0
M  V30 34839 H 3335.56 4.51026 -3.41456 0
M  V30 34840 H 3334.12 4.95569 -4.23384 0
M  V30 34841 N 3337.55 1.5726 0.10352 0
M  V30 34842 C 3338.96 1.74684 0.658976 0
M  V30 34843 C 3339.31 0.791173 1.79541 0
M  V30 34844 O 3338.44 -0.0323205 2.16376 0
M  V30 34845 C 3339.03 3.16755 1.20216 0
M  V30 34846 C 3337.59 3.35632 1.70377 0
M  V30 34847 C 3336.74 2.70511 0.609838 0
M  V30 34848 H 3339.69 1.58226 -0.122502 0
M  V30 34849 H 3339.71 3.19161 2.07163 0
M  V30 34850 H 3339.22 3.86286 0.374833 0
M  V30 34851 H 3337.32 2.71167 2.55537 0
M  V30 34852 H 3337.44 4.43897 1.80256 0
M  V30 34853 H 3335.8 2.32174 1.04724 0
M  V30 34854 H 3336.58 3.42677 -0.206773 0
M  V30 34855 N 3339.03 -0.374123 1.53095 0
M  V30 34856 C 3340.25 -1.14297 1.73063 0
M  V30 34857 C 3340.68 -1.82523 0.454643 0
M  V30 34858 O 3340.04 -1.71407 -0.590713 0
M  V30 34859 C 3340.08 -2.15544 2.8909 0
M  V30 34860 O 3339.19 -3.22447 2.57102 0
M  V30 34861 H 3338.53 -0.332044 0.575015 0
M  V30 34862 H 3341.06 -0.433862 1.99947 0
M  V30 34863 H 3341.07 -2.5929 3.15012 0
M  V30 34864 H 3339.74 -1.65276 3.8165 0
M  V30 34865 H 3338.32 -2.83734 2.4197 0
M  V30 34866 N 3340.51 -1.4431 -0.633436 0
M  V30 34867 C 3341.73 -1.50671 -1.42524 0
M  V30 34868 C 3342.16 -0.131894 -1.87637 0
M  V30 34869 O 3341.51 0.878449 -1.58597 0
M  V30 34870 C 3341.56 -2.47424 -2.62324 0
M  V30 34871 O 3340.67 -1.97417 -3.62078 0
M  V30 34872 H 3340.01 -0.508872 -0.426551 0
M  V30 34873 H 3342.54 -1.89421 -0.773359 0
M  V30 34874 H 3342.55 -2.65384 -3.09896 0
M  V30 34875 H 3341.22 -3.47287 -2.28834 0
M  V30 34876 H 3339.8 -1.89213 -3.2133 0
M  V30 34877 N 3341.98 0.873632 -1.3117 0
M  V30 34878 C 3343.23 1.62879 -1.20824 0
M  V30 34879 C 3343.56 1.92786 0.23396 0
M  V30 34880 O 3342.84 1.55686 1.16586 0
M  V30 34881 C 3343.12 2.96135 -2.0488 0
M  V30 34882 C 3342.97 2.7313 -3.5738 0
M  V30 34883 C 3344.29 3.97195 -1.89537 0
M  V30 34884 H 3341.41 0.591042 -0.440271 0
M  V30 34885 H 3344.05 1.01016 -1.60922 0
M  V30 34886 H 3342.2 3.48935 -1.70812 0
M  V30 34887 H 3343.88 2.27031 -4.01565 0
M  V30 34888 H 3342.12 2.07428 -3.80994 0
M  V30 34889 H 3342.79 3.67932 -4.11497 0
M  V30 34890 H 3345.27 3.53592 -2.19343 0
M  V30 34891 H 3344.14 4.88325 -2.50659 0
M  V30 34892 H 3344.4 4.33701 -0.857652 0
M  V30 34893 N 3343.46 1.1407 1.08746 0
M  V30 34894 C 3344.71 0.901383 1.80438 0
M  V30 34895 C 3345.02 -0.573758 1.86996 0
M  V30 34896 O 3346.23 -0.93023 2.55067 0
M  V30 34897 C 3344.69 1.56314 3.24182 0
M  V30 34898 C 3344.29 3.0743 3.2587 0
M  V30 34899 C 3346.04 1.4048 4.00582 0
M  V30 34900 C 3343.95 3.66458 4.6418 0
M  V30 34901 H 3342.88 0.333581 0.676195 0
M  V30 34902 H 3345.53 1.36922 1.22166 0
M  V30 34903 H 3343.91 1.02297 3.82559 0
M  V30 34904 H 3345.08 3.68085 2.77219 0
M  V30 34905 H 3343.4 3.22861 2.62963 0
M  V30 34906 H 3345.99 1.81985 5.02778 0
M  V30 34907 H 3346.34 0.350481 4.14822 0
M  V30 34908 H 3346.87 1.91514 3.48665 0
M  V30 34909 H 3343.61 4.71727 4.55142 0
M  V30 34910 H 3343.13 3.10583 5.13126 0
M  V30 34911 H 3344.81 3.66545 5.33154 0
M  V30 34912 N 3344.94 -1.26847 0.935286 0
M  V30 34913 C 3346.17 -1.9866 0.595739 0
M  V30 34914 C 3346.59 -1.69239 -0.820971 0
M  V30 34915 O 3345.95 -0.93701 -1.55209 0
M  V30 34916 C 3346 -3.50744 0.837337 0
M  V30 34917 O 3345.1 -4.12294 -0.0934189 0
M  V30 34918 H 3344.44 -0.623437 0.228523 0
M  V30 34919 H 3346.97 -1.61463 1.25661 0
M  V30 34920 H 3346.98 -4.00937 0.755897 0
M  V30 34921 H 3345.66 -3.71489 1.86999 0
M  V30 34922 H 3344.23 -3.7288 0.0385779 0
M  V30 34923 N 3346.42 -0.701641 -1.4112 0
M  V30 34924 C 3347.67 -0.232249 -2.00358 0
M  V30 34925 C 3347.98 1.17688 -1.56234 0
M  V30 34926 O 3349.19 1.74406 -2.08074 0
M  V30 34927 C 3347.64 -0.36432 -3.58051 0
M  V30 34928 C 3347.25 -1.7792 -4.11155 0
M  V30 34929 C 3348.99 0.0449881 -4.24476 0
M  V30 34930 C 3346.9 -1.8626 -5.61303 0
M  V30 34931 H 3345.83 -0.083074 -0.74941 0
M  V30 34932 H 3348.48 -0.870717 -1.61526 0
M  V30 34933 H 3346.86 0.3425 -3.94516 0
M  V30 34934 H 3348.04 -2.51527 -3.86097 0
M  V30 34935 H 3346.35 -2.13873 -3.57278 0
M  V30 34936 H 3348.95 0.0031981 -5.347 0
M  V30 34937 H 3349.29 1.08469 -4.0192 0
M  V30 34938 H 3349.83 -0.611773 -3.93068 0
M  V30 34939 H 3346.57 -2.88304 -5.88694 0
M  V30 34940 H 3346.09 -1.17046 -5.88269 0
M  V30 34941 H 3347.76 -1.62828 -6.26176 0
M  V30 34942 N 3347.9 1.51133 -0.446821 0
M  V30 34943 C 3348.83 2.24572 0.405271 0
M  V30 34944 C 3349.81 1.26888 1.01677 0
M  V30 34945 O 3350.99 1.56049 1.0574 0
M  V30 34946 C 3348.12 3.0034 1.56567 0
M  V30 34947 C 3347.16 4.12758 1.07394 0
M  V30 34948 S 3348 5.35499 0.00825625 0
M  V30 34949 C 3349.15 6.14808 1.1731 0
M  V30 34950 H 3349.39 2.96498 -0.218195 0
M  V30 34951 H 3346.92 1.52656 -0.231432 0
M  V30 34952 H 3348.88 3.44591 2.23086 0
M  V30 34953 H 3347.54 2.27986 2.16058 0
M  V30 34954 H 3346.73 4.65085 1.94195 0
M  V30 34955 H 3346.33 3.70818 0.486841 0
M  V30 34956 H 3348.63 6.4447 2.08961 0
M  V30 34957 H 3349.57 7.04734 0.689599 0
M  V30 34958 H 3349.98 5.46453 1.41596 0
M  V30 34959 N 3349.37 0.178515 1.56586 0
M  V30 34960 C 3350.32 -0.748951 2.1831 0
M  V30 34961 C 3351.29 -1.22176 1.12527 0
M  V30 34962 O 3352.48 -1.28863 1.40709 0
M  V30 34963 C 3349.62 -1.96985 2.83357 0
M  V30 34964 C 3348.73 -1.53994 4.03621 0
M  V30 34965 C 3347.86 -2.71506 4.56572 0
M  V30 34966 C 3346.9 -2.25041 5.6923 0
M  V30 34967 N 3346.04 -3.35671 6.1666 0
M  V30 34968 H 3350.88 -0.215818 2.97217 0
M  V30 34969 H 3348.42 -0.0947924 1.46794 0
M  V30 34970 H 3350.38 -2.68603 3.1923 0
M  V30 34971 H 3349.01 -2.47657 2.07041 0
M  V30 34972 H 3348.06 -0.720233 3.73519 0
M  V30 34973 H 3349.37 -1.15892 4.8515 0
M  V30 34974 H 3348.52 -3.51271 4.94665 0
M  V30 34975 H 3347.26 -3.12872 3.74115 0
M  V30 34976 H 3346.27 -1.43725 5.30682 0
M  V30 34977 H 3347.49 -1.84725 6.53493 0
M  V30 34978 H 3345.44 -3.76599 5.3713 0
M  V30 34979 H 3345.36 -3.01685 6.93197 0
M  V30 34980 H 3346.62 -4.157 6.59404 0
M  V30 34981 N 3350.85 -1.57312 -0.0951784 0
M  V30 34982 C 3352.26 -1.75031 -0.649702 0
M  V30 34983 C 3352.61 -0.800684 -1.79119 0
M  V30 34984 O 3351.74 0.0208451 -2.1639 0
M  V30 34985 C 3352.33 -3.17388 -1.18535 0
M  V30 34986 C 3350.89 -3.36531 -1.68594 0
M  V30 34987 C 3350.04 -2.70831 -0.595484 0
M  V30 34988 H 3352.99 -1.58159 0.130891 0
M  V30 34989 H 3353.01 -3.20255 -2.05467 0
M  V30 34990 H 3352.52 -3.86479 -0.354342 0
M  V30 34991 H 3350.63 -2.72518 -2.54096 0
M  V30 34992 H 3350.74 -4.44847 -1.77899 0
M  V30 34993 H 3349.1 -2.32727 -1.03491 0
M  V30 34994 H 3349.89 -3.42562 0.224944 0
M  V30 34995 N 3352.33 0.365999 -1.53291 0
M  V30 34996 C 3353.58 1.11033 -1.69704 0
M  V30 34997 C 3353.91 1.88978 -0.447314 0
M  V30 34998 O 3353.18 1.86402 0.555388 0
M  V30 34999 C 3353.47 2.06989 -2.94665 0
M  V30 35000 C 3353.32 1.32655 -4.29794 0
M  V30 35001 C 3354.64 3.07118 -3.15225 0
M  V30 35002 H 3351.76 0.402273 -0.617532 0
M  V30 35003 H 3354.4 0.39119 -1.85929 0
M  V30 35004 H 3352.55 2.68313 -2.80963 0
M  V30 35005 H 3354.22 0.741186 -4.55307 0
M  V30 35006 H 3352.47 0.628408 -4.29224 0
M  V30 35007 H 3353.14 2.02887 -5.13362 0
M  V30 35008 H 3355.61 2.55897 -3.28109 0
M  V30 35009 H 3354.49 3.71482 -4.04095 0
M  V30 35010 H 3354.75 3.77265 -2.30486 0
M  V30 35011 N 3353.81 1.44644 0.625774 0
M  V30 35012 C 3355.22 1.28649 0.944547 0
M  V30 35013 C 3355.42 0.226169 2.00227 0
M  V30 35014 O 3354.48 -0.386118 2.4953 0
M  V30 35015 C 3355.79 2.65977 1.40273 0
M  V30 35016 C 3357.34 2.7373 1.51792 0
M  V30 35017 C 3357.82 4.11541 2.00992 0
M  V30 35018 N 3359.31 4.13744 2.08254 0
M  V30 35019 C 3360.04 5.17232 2.47506 0
M  V30 35020 N 3359.54 6.31077 2.85856 0
M  V30 35021 N 3361.33 5.04587 2.47686 0
M  V30 35022 H 3353.48 2.12272 -0.073653 0
M  V30 35023 H 3355.75 0.947535 0.0296832 0
M  V30 35024 H 3355.45 3.44667 0.699811 0
M  V30 35025 H 3355.33 2.93225 2.37274 0
M  V30 35026 H 3357.71 1.95355 2.21179 0
M  V30 35027 H 3357.79 2.50217 0.53153 0
M  V30 35028 H 3357.44 4.90394 1.32198 0
M  V30 35029 H 3357.37 4.32435 3.00513 0
M  V30 35030 H 3359.86 3.31581 1.8128 0
M  V30 35031 H 3360.17 7.0585 3.14635 0
M  V30 35032 H 3358.52 6.34507 2.83594 0
M  V30 35033 H 3361.71 4.147 2.1712 0
M  V30 35034 H 3361.88 5.8536 2.77952 0
M  V30 35035 N 3355.29 -0.866663 1.31631 0
M  V30 35036 C 3356.23 -1.97419 1.19559 0
M  V30 35037 C 3357.2 -1.65904 0.0805869 0
M  V30 35038 O 3358.39 -1.89101 0.25403 0
M  V30 35039 C 3355.53 -3.32823 0.912293 0
M  V30 35040 C 3354.64 -3.76912 2.11095 0
M  V30 35041 C 3353.78 -5.0105 1.76415 0
M  V30 35042 C 3352.82 -5.37597 2.9267 0
M  V30 35043 N 3351.95 -6.52914 2.58163 0
M  V30 35044 H 3356.79 -2.07076 2.14298 0
M  V30 35045 H 3354.33 -1.01368 1.06597 0
M  V30 35046 H 3356.29 -4.10789 0.728582 0
M  V30 35047 H 3354.92 -3.228 0.00173078 0
M  V30 35048 H 3353.97 -2.94701 2.40532 0
M  V30 35049 H 3355.28 -3.99926 2.98096 0
M  V30 35050 H 3354.44 -5.86691 1.54526 0
M  V30 35051 H 3353.17 -4.79948 0.866103 0
M  V30 35052 H 3352.18 -4.50474 3.15204 0
M  V30 35053 H 3353.4 -5.60663 3.83189 0
M  V30 35054 H 3351.35 -6.33352 1.70886 0
M  V30 35055 H 3351.27 -6.75886 3.38694 0
M  V30 35056 H 3352.54 -7.41739 2.39675 0
M  V30 35057 N 3356.77 -1.14645 -1.0814 0
M  V30 35058 C 3358.18 -0.887412 -1.32654 0
M  V30 35059 C 3358.38 0.469977 -1.95943 0
M  V30 35060 O 3357.44 1.21367 -2.21419 0
M  V30 35061 C 3358.75 -2.02223 -2.22545 0
M  V30 35062 C 3360.3 -2.05584 -2.36017 0
M  V30 35063 C 3360.77 -3.18367 -3.29252 0
M  V30 35064 N 3362.26 -3.17963 -3.36829 0
M  V30 35065 C 3363 -4.01869 -4.0901 0
M  V30 35066 N 3362.5 -4.95821 -4.83873 0
M  V30 35067 N 3364.29 -3.8992 -4.04869 0
M  V30 35068 H 3356.44 -2.02067 -0.654422 0
M  V30 35069 H 3358.7 -0.880654 -0.350932 0
M  V30 35070 H 3358.41 -3.00163 -1.8329 0
M  V30 35071 H 3358.28 -1.9477 -3.23024 0
M  V30 35072 H 3360.67 -1.0825 -2.74529 0
M  V30 35073 H 3360.75 -2.17107 -1.35271 0
M  V30 35074 H 3360.39 -4.15949 -2.9146 0
M  V30 35075 H 3360.32 -3.04081 -4.29933 0
M  V30 35076 H 3362.82 -2.49917 -2.8346 0
M  V30 35077 H 3363.13 -5.56303 -5.3642 0
M  V30 35078 H 3361.47 -4.99816 -4.82917 0
M  V30 35079 H 3364.66 -3.15839 -3.4549 0
M  V30 35080 H 3364.84 -4.55537 -4.60858 0
M  V30 35081 N 3358.24 1.26349 -0.942 0
M  V30 35082 C 3359.19 2.26352 -0.450946 0
M  V30 35083 C 3360.16 1.58713 0.489829 0
M  V30 35084 O 3361.35 1.86433 0.405857 0
M  V30 35085 C 3358.49 3.43987 0.276994 0
M  V30 35086 C 3357.6 4.26298 -0.699549 0
M  V30 35087 C 3356.73 5.31177 0.0496727 0
M  V30 35088 C 3355.77 6.05167 -0.918638 0
M  V30 35089 N 3354.91 7.01812 -0.201116 0
M  V30 35090 H 3359.75 2.67728 -1.30866 0
M  V30 35091 H 3357.29 1.31636 -0.656537 0
M  V30 35092 H 3359.24 4.11019 0.715494 0
M  V30 35093 H 3357.87 3.03522 1.09884 0
M  V30 35094 H 3356.93 3.59047 -1.25656 0
M  V30 35095 H 3358.24 4.77593 -1.43899 0
M  V30 35096 H 3357.39 6.04225 0.547415 0
M  V30 35097 H 3356.13 4.80723 0.821983 0
M  V30 35098 H 3355.14 5.30945 -1.4275 0
M  V30 35099 H 3356.36 6.57711 -1.69097 0
M  V30 35100 H 3354.31 6.53668 0.552688 0
M  V30 35101 H 3354.22 7.50862 -0.879867 0
M  V30 35102 H 3355.49 7.79013 0.275505 0
M  V30 35103 N 3359.72 0.709115 1.40746 0
M  V30 35104 C 3360.95 0.255294 2.05319 0
M  V30 35105 C 3361.36 -1.10052 1.53408 0
M  V30 35106 O 3360.72 -1.69038 0.687934 0
M  V30 35107 C 3360.77 0.219314 3.60834 0
M  V30 35108 O 3360.49 1.52158 4.10828 0
M  V30 35109 C 3361.99 -0.253849 4.42573 0
M  V30 35110 H 3359.21 0.115971 0.660902 0
M  V30 35111 H 3361.76 0.965505 1.80273 0
M  V30 35112 H 3359.91 -0.441815 3.84872 0
M  V30 35113 H 3360.33 1.41773 5.04976 0
M  V30 35114 H 3361.8 -0.227883 5.51529 0
M  V30 35115 H 3362.28 -1.29497 4.19675 0
M  V30 35116 H 3362.88 0.376768 4.23628 0
M  V30 35117 N 3361.2 -1.50894 0.454829 0
M  V30 35118 C 3362.16 -2.2672 -0.336253 0
M  V30 35119 C 3363.16 -1.30849 -0.934617 0
M  V30 35120 O 3364.35 -1.54415 -0.806332 0
M  V30 35121 C 3361.48 -3.07223 -1.47739 0
M  V30 35122 H 3362.68 -2.98095 0.328514 0
M  V30 35123 H 3360.23 -1.54904 0.208446 0
M  V30 35124 H 3360.97 -2.40306 -2.17769 0
M  V30 35125 H 3360.75 -3.7766 -1.05431 0
M  V30 35126 H 3362.24 -3.64613 -2.03585 0
M  V30 35127 N 3362.68 -0.186817 -1.56489 0
M  V30 35128 C 3363.91 0.459958 -2.01723 0
M  V30 35129 C 3364.32 1.55758 -1.067 0
M  V30 35130 O 3363.68 1.82364 -0.0704533 0
M  V30 35131 C 3363.73 1.02395 -3.46695 0
M  V30 35132 O 3363.45 -0.0298686 -4.3809 0
M  V30 35133 C 3364.95 1.74743 -4.07406 0
M  V30 35134 H 3362.17 0.116286 -0.660847 0
M  V30 35135 H 3364.71 -0.293095 -2.02389 0
M  V30 35136 H 3362.87 1.72743 -3.46755 0
M  V30 35137 H 3363.28 0.388729 -5.23058 0
M  V30 35138 H 3364.76 2.09446 -5.10721 0
M  V30 35139 H 3365.23 2.64812 -3.50388 0
M  V30 35140 H 3365.84 1.09 -4.11095 0
M  V30 35141 N 3364.16 1.57361 0.0868344 0
M  V30 35142 C 3365.4 1.85689 0.787548 0
M  V30 35143 C 3365.72 0.777294 1.79492 0
M  V30 35144 O 3366.92 0.947959 2.54413 0
M  V30 35145 C 3365.38 3.29332 1.4515 0
M  V30 35146 C 3364.99 4.45384 0.483461 0
M  V30 35147 C 3366.73 3.66877 2.13545 0
M  V30 35148 C 3364.64 5.80062 1.15247 0
M  V30 35149 H 3363.57 0.692668 0.29787 0
M  V30 35150 H 3366.22 1.83455 0.0405976 0
M  V30 35151 H 3364.6 3.26132 2.24619 0
M  V30 35152 H 3365.78 4.59946 -0.280335 0
M  V30 35153 H 3364.09 4.16291 -0.0952396 0
M  V30 35154 H 3366.69 4.64785 2.64347 0
M  V30 35155 H 3367.03 2.95916 2.92812 0
M  V30 35156 H 3367.56 3.72001 1.40926 0
M  V30 35157 H 3364.3 6.54276 0.400431 0
M  V30 35158 H 3363.82 5.69328 1.88749 0
M  V30 35159 H 3365.5 6.24899 1.6766 0
M  V30 35160 N 3365.63 -0.357865 1.53483 0
M  V30 35161 C 3366.86 -1.1201 1.73958 0
M  V30 35162 C 3367.28 -1.82803 0.472085 0
M  V30 35163 O 3366.63 -1.73841 -0.555469 0
M  V30 35164 C 3366.68 -2.14454 2.91019 0
M  V30 35165 O 3366.41 -1.46542 4.12864 0
M  V30 35166 C 3367.91 -3.03165 3.23429 0
M  V30 35167 H 3365.13 -0.334611 0.581615 0
M  V30 35168 H 3367.67 -0.414432 2.00257 0
M  V30 35169 H 3365.83 -2.80607 2.67092 0
M  V30 35170 H 3366.24 -2.14861 4.78472 0
M  V30 35171 H 3367.71 -3.71011 4.08724 0
M  V30 35172 H 3368.19 -3.684 2.3912 0
M  V30 35173 H 3368.8 -2.42618 3.49309 0
M  V30 35174 N 3367.11 -1.44974 -0.618094 0
M  V30 35175 C 3368.34 -1.51947 -1.40426 0
M  V30 35176 C 3368.75 -0.148589 -1.88214 0
M  V30 35177 O 3368.11 0.84795 -1.61605 0
M  V30 35178 C 3368.16 -2.49512 -2.61584 0
M  V30 35179 O 3367.88 -3.81272 -2.15785 0
M  V30 35180 C 3369.38 -2.6608 -3.54565 0
M  V30 35181 H 3366.6 -0.514928 -0.430221 0
M  V30 35182 H 3369.15 -1.90062 -0.754758 0
M  V30 35183 H 3367.3 -2.14498 -3.22598 0
M  V30 35184 H 3367.72 -4.34066 -2.94427 0
M  V30 35185 H 3369.19 -3.38346 -4.36149 0
M  V30 35186 H 3369.67 -1.71754 -4.04224 0
M  V30 35187 H 3370.27 -3.02048 -2.99411 0
M  V30 35188 N 3368.59 0.85967 -1.32089 0
M  V30 35189 C 3370.01 1.14707 -1.1097 0
M  V30 35190 C 3370.21 2.01182 0.113104 0
M  V30 35191 O 3369.26 2.3951 0.799457 0
M  V30 35192 C 3370.57 1.82925 -2.3866 0
M  V30 35193 C 3372.12 1.95582 -2.4437 0
M  V30 35194 C 3372.6 2.67215 -3.71968 0
M  V30 35195 N 3374.09 2.74744 -3.72921 0
M  V30 35196 C 3374.82 3.30808 -4.68352 0
M  V30 35197 N 3374.32 3.87722 -5.74146 0
M  V30 35198 N 3376.11 3.28864 -4.55857 0
M  V30 35199 H 3368.26 0.283674 -2.10497 0
M  V30 35200 H 3370.53 0.188298 -0.929111 0
M  V30 35201 H 3370.23 1.26838 -3.28032 0
M  V30 35202 H 3370.11 2.83123 -2.49241 0
M  V30 35203 H 3372.49 2.50831 -1.55461 0
M  V30 35204 H 3372.57 0.943959 -2.37746 0
M  V30 35205 H 3372.22 2.12632 -4.61248 0
M  V30 35206 H 3372.15 3.6883 -3.75861 0
M  V30 35207 H 3374.64 2.34361 -2.96451 0
M  V30 35208 H 3374.95 4.28643 -6.43028 0
M  V30 35209 H 3373.3 3.86068 -5.77907 0
M  V30 35210 H 3376.49 2.83644 -3.72376 0
M  V30 35211 H 3376.66 3.72257 -5.30404 0
M  V30 35212 N 3370.07 1.15217 1.0753 0
M  V30 35213 C 3371.3 0.94972 1.83815 0
M  V30 35214 C 3371.71 -0.501959 1.82005 0
M  V30 35215 O 3371.07 -1.34808 1.23016 0
M  V30 35216 C 3371.12 1.45388 3.30975 0
M  V30 35217 O 3370.84 2.84869 3.32839 0
M  V30 35218 C 3372.34 1.29265 4.24035 0
M  V30 35219 H 3369.56 0.337414 0.579994 0
M  V30 35220 H 3372.1 1.52946 1.35749 0
M  V30 35221 H 3370.26 0.916704 3.76398 0
M  V30 35222 H 3370.67 3.07689 4.24768 0
M  V30 35223 H 3372.15 1.69389 5.25368 0
M  V30 35224 H 3372.62 0.236596 4.38562 0
M  V30 35225 H 3373.23 1.81881 3.84447 0
M  V30 35226 N 3371.55 -1.25848 0.948687 0
M  V30 35227 C 3372.77 -1.98017 0.616776 0
M  V30 35228 C 3373.2 -1.701 -0.802975 0
M  V30 35229 O 3372.55 -0.953419 -1.54206 0
M  V30 35230 C 3372.6 -3.49836 0.874491 0
M  V30 35231 O 3371.71 -4.1237 -0.0496843 0
M  V30 35232 H 3371.05 -0.620978 0.235123 0
M  V30 35233 H 3373.58 -1.60122 1.27367 0
M  V30 35234 H 3373.59 -4.00112 0.79838 0
M  V30 35235 H 3372.26 -3.69485 1.90929 0
M  V30 35236 H 3370.84 -3.72818 0.0781247 0
M  V30 35237 N 3373.02 -0.716569 -1.40368 0
M  V30 35238 C 3374.25 -0.264765 -2.05703 0
M  V30 35239 C 3374.67 1.08525 -1.53636 0
M  V30 35240 O 3374.03 1.6838 -0.67215 0
M  V30 35241 C 3374.08 -0.255841 -3.59691 0
M  V30 35242 O 3373.18 0.762615 -4.05287 0
M  V30 35243 H 3372.53 -0.124103 -0.652299 0
M  V30 35244 H 3375.06 -0.977327 -1.79748 0
M  V30 35245 H 3375.07 -0.0938661 -4.07892 0
M  V30 35246 H 3373.74 -1.24102 -3.96953 0
M  V30 35247 H 3372.32 0.568283 -3.68544 0
M  V30 35248 N 3374.5 1.50651 -0.462825 0
M  V30 35249 C 3375.43 2.26164 0.371797 0
M  V30 35250 C 3376.45 1.31168 0.964297 0
M  V30 35251 O 3377.64 1.5674 0.854106 0
M  V30 35252 C 3374.74 3.02162 1.53464 0
M  V30 35253 C 3373.91 4.24451 1.05642 0
M  V30 35254 C 3372.97 4.82812 2.09234 0
M  V30 35255 O 3371.99 5.43956 1.67631 0
M  V30 35256 N 3373.2 4.69082 3.41968 0
M  V30 35257 H 3375.96 2.98431 -0.275528 0
M  V30 35258 H 3373.52 1.59224 -0.293137 0
M  V30 35259 H 3375.51 3.38087 2.2244 0
M  V30 35260 H 3374.08 2.32746 2.08681 0
M  V30 35261 H 3373.3 3.93728 0.192826 0
M  V30 35262 H 3374.59 5.03755 0.714707 0
M  V30 35263 H 3373.99 4.20436 3.78484 0
M  V30 35264 H 3372.55 5.09298 4.06766 0
M  V30 35265 N 3375.98 0.195113 1.56388 0
M  V30 35266 C 3377.23 -0.444309 1.97873 0
M  V30 35267 C 3377.56 -1.61269 1.08193 0
M  V30 35268 O 3376.83 -1.94038 0.133938 0
M  V30 35269 C 3377.12 -0.904429 3.48557 0
M  V30 35270 C 3376.97 0.265772 4.49014 0
M  V30 35271 C 3378.29 -1.76992 4.02941 0
M  V30 35272 H 3375.41 -0.160029 0.719416 0
M  V30 35273 H 3378.05 0.286038 1.87835 0
M  V30 35274 H 3376.2 -1.52676 3.57243 0
M  V30 35275 H 3377.87 0.903442 4.52367 0
M  V30 35276 H 3376.12 0.917536 4.23986 0
M  V30 35277 H 3376.79 -0.0986864 5.51912 0
M  V30 35278 H 3379.26 -1.24507 3.97036 0
M  V30 35279 H 3378.14 -2.06083 5.08745 0
M  V30 35280 H 3378.4 -2.72412 3.48202 0
M  V30 35281 N 3377.46 -1.57404 -0.0784879 0
M  V30 35282 C 3378.69 -1.91141 -0.792008 0
M  V30 35283 C 3379.1 -0.790438 -1.71457 0
M  V30 35284 O 3378.46 0.23663 -1.80959 0
M  V30 35285 C 3378.51 -3.24591 -1.59133 0
M  V30 35286 O 3378.23 -4.32376 -0.705855 0
M  V30 35287 C 3379.73 -3.72298 -2.40644 0
M  V30 35288 H 3376.95 -0.631954 -0.225554 0
M  V30 35289 H 3379.5 -2.04437 -0.050757 0
M  V30 35290 H 3377.65 -3.12842 -2.28492 0
M  V30 35291 H 3378.06 -5.09113 -1.26113 0
M  V30 35292 H 3379.54 -4.68322 -2.92196 0
M  V30 35293 H 3380.02 -3.0097 -3.19865 0
M  V30 35294 H 3380.62 -3.86968 -1.76453 0
M  V30 35295 N 3378.94 0.34972 -1.53671 0
M  V30 35296 C 3380.18 1.09065 -1.7062 0
M  V30 35297 C 3380.51 1.88831 -0.466166 0
M  V30 35298 O 3379.77 1.87752 0.552046 0
M  V30 35299 C 3380.07 2.06429 -2.91757 0
M  V30 35300 C 3379.73 1.43022 -4.27616 0
M  V30 35301 C 3378.39 1.25458 -4.64558 0
M  V30 35302 C 3380.75 0.972897 -5.12039 0
M  V30 35303 C 3378.07 0.607705 -5.83544 0
M  V30 35304 C 3380.43 0.339962 -6.31686 0
M  V30 35305 C 3379.09 0.151952 -6.67327 0
M  V30 35306 H 3378.36 0.399097 -0.624341 0
M  V30 35307 H 3381.01 0.370624 -1.87879 0
M  V30 35308 H 3379.31 2.84791 -2.69075 0
M  V30 35309 H 3381.01 2.63739 -3.02064 0
M  V30 35310 H 3377.6 1.57689 -3.98538 0
M  V30 35311 H 3381.78 1.09647 -4.84036 0
M  V30 35312 H 3377.04 0.450598 -6.09737 0
M  V30 35313 H 3381.21 -0.0225197 -6.96396 0
M  V30 35314 H 3378.84 -0.351344 -7.59388 0
M  V30 35315 N 3380.41 1.45299 0.610397 0
M  V30 35316 C 3381.83 1.43669 1.19231 0
M  V30 35317 C 3382.18 0.162828 1.95523 0
M  V30 35318 O 3381.3 -0.735753 2.03508 0
M  V30 35319 C 3381.9 2.6028 2.16887 0
M  V30 35320 C 3380.46 2.61778 2.70461 0
M  V30 35321 C 3379.6 2.35866 1.45817 0
M  V30 35322 H 3382.55 1.5358 0.399868 0
M  V30 35323 H 3382.57 2.34218 2.99871 0
M  V30 35324 H 3382.09 3.52978 1.61332 0
M  V30 35325 H 3380.19 1.73078 3.29962 0
M  V30 35326 H 3380.3 3.60913 3.15086 0
M  V30 35327 H 3378.66 1.85367 1.74675 0
M  V30 35328 H 3379.45 3.30705 0.921345 0
M  V30 35329 N 3381.89 -0.852653 1.32543 0
M  V30 35330 C 3383.14 -1.60186 1.2257 0
M  V30 35331 C 3383.45 -1.94463 -0.21056 0
M  V30 35332 O 3384.66 -2.68038 -0.432166 0
M  V30 35333 C 3383.12 -2.88858 2.14683 0
M  V30 35334 C 3382.72 -2.61998 3.63402 0
M  V30 35335 C 3384.47 -3.66873 2.13552 0
M  V30 35336 C 3382.38 -3.86683 4.47471 0
M  V30 35337 H 3381.31 -0.601094 0.455195 0
M  V30 35338 H 3383.96 -0.94132 1.57516 0
M  V30 35339 H 3382.34 -3.5638 1.72654 0
M  V30 35340 H 3383.51 -2.02775 4.13786 0
M  V30 35341 H 3381.83 -1.9731 3.66685 0
M  V30 35342 H 3384.42 -4.594 2.73597 0
M  V30 35343 H 3384.77 -4.00754 1.12701 0
M  V30 35344 H 3385.3 -3.06258 2.53871 0
M  V30 35345 H 3382.04 -3.57942 5.49143 0
M  V30 35346 H 3381.56 -4.45295 4.01837 0
M  V30 35347 H 3383.24 -4.54402 4.60573 0
M  V30 35348 N 3383.37 -1.15786 -1.06918 0
M  V30 35349 C 3384.65 -0.845856 -1.76365 0
M  V30 35350 C 3385.03 0.657636 -2.00595 0
M  V30 35351 O 3384.38 1.60342 -1.62797 0
M  V30 35352 C 3384.59 -1.66154 -3.0691 0
M  V30 35353 C 3385.93 -1.87053 -3.81178 0
M  V30 35354 O 3386.96 -1.62967 -3.16734 0
M  V30 35355 O 3385.82 -2.27422 -4.96932 0
M  V30 35356 H 3382.91 -0.311506 -0.766089 0
M  V30 35357 H 3385.46 -1.26388 -1.13243 0
M  V30 35358 H 3384.23 -2.6821 -2.84919 0
M  V30 35359 H 3383.85 -1.24014 -3.77765 0
M  V30 35360 N 3384.85 1.25343 -0.955348 0
M  V30 35361 C 3386.1 1.93078 -0.610518 0
M  V30 35362 C 3386.42 1.74819 0.85256 0
M  V30 35363 O 3385.68 1.08726 1.62718 0
M  V30 35364 C 3385.98 3.45456 -0.916234 0
M  V30 35365 C 3385.64 3.83871 -2.36546 0
M  V30 35366 C 3384.31 3.94068 -2.76159 0
M  V30 35367 C 3386.66 4.02882 -3.30659 0
M  V30 35368 C 3383.99 4.20685 -4.08951 0
M  V30 35369 C 3386.34 4.30992 -4.63064 0
M  V30 35370 C 3385 4.39407 -5.02472 0
M  V30 35371 H 3384.27 0.706521 -0.223404 0
M  V30 35372 H 3386.92 1.48874 -1.20452 0
M  V30 35373 H 3385.22 3.91065 -0.239848 0
M  V30 35374 H 3386.92 3.96052 -0.627998 0
M  V30 35375 H 3383.51 3.7649 -2.04825 0
M  V30 35376 H 3387.69 3.94418 -3.01244 0
M  V30 35377 H 3382.95 4.25416 -4.39126 0
M  V30 35378 H 3387.12 4.44648 -5.35968 0
M  V30 35379 H 3384.75 4.59785 -6.05394 0
M  V30 35380 N 3386.33 0.724003 1.39986 0
M  V30 35381 C 3387.57 0.26715 2.0073 0
M  V30 35382 C 3387.9 -1.14225 1.57426 0
M  V30 35383 O 3387.16 -1.7908 0.789236 0
M  V30 35384 C 3387.46 0.304534 3.561 0
M  V30 35385 C 3387.12 1.66541 4.19017 0
M  V30 35386 C 3385.78 2.03791 4.35916 0
M  V30 35387 C 3388.14 2.55943 4.54029 0
M  V30 35388 C 3385.46 3.29973 4.85113 0
M  V30 35389 C 3387.82 3.81486 5.0463 0
M  V30 35390 C 3386.48 4.18842 5.19738 0
M  V30 35391 H 3385.75 0.0977572 0.734523 0
M  V30 35392 H 3388.4 0.928689 1.67474 0
M  V30 35393 H 3386.7 -0.440579 3.89315 0
M  V30 35394 H 3388.4 -0.066917 4.00944 0
M  V30 35395 H 3384.99 1.36576 4.06257 0
M  V30 35396 H 3389.17 2.28437 4.40602 0
M  V30 35397 H 3384.43 3.58874 4.94995 0
M  V30 35398 H 3388.6 4.50926 5.30697 0
M  V30 35399 H 3386.23 5.16685 5.57621 0
M  V30 35400 N 3387.81 -1.50403 0.470808 0
M  V30 35401 C 3388.72 -2.32284 -0.328836 0
M  V30 35402 C 3389.73 -1.42655 -0.996264 0
M  V30 35403 O 3390.91 -1.75709 -0.9843 0
M  V30 35404 C 3387.97 -3.17322 -1.39669 0
M  V30 35405 C 3387.03 -4.22771 -0.74589 0
M  V30 35406 C 3386.27 -5.03745 -1.76286 0
M  V30 35407 O 3386.49 -4.85793 -2.98934 0
M  V30 35408 O 3385.42 -5.86912 -1.33485 0
M  V30 35409 H 3389.25 -3.01785 0.340544 0
M  V30 35410 H 3386.83 -1.47577 0.232663 0
M  V30 35411 H 3388.72 -3.70089 -2.01524 0
M  V30 35412 H 3387.39 -2.5055 -2.04955 0
M  V30 35413 H 3386.3 -3.73996 -0.088399 0
M  V30 35414 H 3387.63 -4.92012 -0.135987 0
M  V30 35415 N 3389.28 -0.203404 -1.56282 0
M  V30 35416 C 3390.23 0.727107 -2.16095 0
M  V30 35417 C 3391.22 1.17044 -1.10406 0
M  V30 35418 O 3392.41 1.12746 -1.36446 0
M  V30 35419 C 3389.54 1.94288 -2.83032 0
M  V30 35420 C 3388.62 1.52006 -3.95923 0
M  V30 35421 N 3389.02 0.808706 -4.99293 0
M  V30 35422 C 3387.31 1.80873 -4.07677 0
M  V30 35423 C 3388.01 0.595637 -5.78642 0
M  V30 35424 N 3386.99 1.14688 -5.31364 0
M  V30 35425 H 3390.79 0.174989 -2.93379 0
M  V30 35426 H 3388.31 -0.00393713 -1.624 0
M  V30 35427 H 3390.3 2.62006 -3.24281 0
M  V30 35428 H 3388.96 2.49964 -2.07239 0
M  V30 35429 H 3389.97 0.463292 -5.15824 0
M  V30 35430 H 3386.65 2.37999 -3.4302 0
M  V30 35431 H 3388.04 0.0307437 -6.71893 0
M  V30 35432 N 3390.76 1.57444 0.0701393 0
M  V30 35433 C 3391.71 2.04844 1.10189 0
M  V30 35434 C 3392.7 0.954094 1.39976 0
M  V30 35435 O 3393.91 1.1392 1.39364 0
M  V30 35436 H 3390.28 0.653153 0.372687 0
M  V30 35437 H 3392.26 2.90642 0.675982 0
M  V30 35438 C 3391 2.5094 2.40675 0
M  V30 35439 H 3390.33 3.34742 2.18605 0
M  V30 35440 H 3391.77 2.87858 3.1131 0
M  V30 35441 C 3390.23 1.39303 3.06751 0
M  V30 35442 O 3390.76 0.736058 3.94899 0
M  V30 35443 N 3388.96 1.13774 2.67402 0
M  V30 35444 H 3388.51 1.6738 1.95811 0
M  V30 35445 H 3388.47 0.392841 3.11936 0
M  V30 35446 N 3392.24 -0.341566 1.53854 0
M  V30 35447 C 3393.17 -1.44024 1.78297 0
M  V30 35448 C 3394.18 -1.48629 0.664329 0
M  V30 35449 O 3395.37 -1.51676 0.941099 0
M  V30 35450 C 3392.47 -2.8267 1.86952 0
M  V30 35451 C 3391.65 -3.01481 3.16904 0
M  V30 35452 C 3390.71 -4.20381 3.16491 0
M  V30 35453 O 3389.73 -4.14402 3.90204 0
M  V30 35454 N 3390.93 -5.29017 2.39 0
M  V30 35455 H 3393.7 -1.23426 2.73105 0
M  V30 35456 H 3391.26 -0.531456 1.52929 0
M  V30 35457 H 3393.25 -3.60389 1.84124 0
M  V30 35458 H 3391.82 -2.96402 0.993221 0
M  V30 35459 H 3391.04 -2.11215 3.32839 0
M  V30 35460 H 3392.33 -3.10933 4.02738 0
M  V30 35461 H 3391.73 -5.36745 1.78666 0
M  V30 35462 H 3390.28 -6.05223 2.41968 0
M  V30 35463 N 3393.72 -1.45621 -0.602683 0
M  V30 35464 C 3394.65 -1.50681 -1.72708 0
M  V30 35465 C 3395.66 -0.397076 -1.57883 0
M  V30 35466 O 3396.85 -0.664396 -1.65674 0
M  V30 35467 C 3393.95 -1.3521 -3.1076 0
M  V30 35468 C 3393.12 -2.59945 -3.51777 0
M  V30 35469 C 3392.18 -2.3896 -4.68812 0
M  V30 35470 O 3391.21 -3.12597 -4.75681 0
M  V30 35471 N 3392.41 -1.43837 -5.62398 0
M  V30 35472 H 3395.18 -2.47622 -1.68829 0
M  V30 35473 H 3392.74 -1.41423 -0.788107 0
M  V30 35474 H 3394.73 -1.18974 -3.86817 0
M  V30 35475 H 3393.3 -0.465257 -3.09118 0
M  V30 35476 H 3392.52 -2.91262 -2.65632 0
M  V30 35477 H 3393.81 -3.42848 -3.75942 0
M  V30 35478 H 3393.21 -0.830768 -5.59567 0
M  V30 35479 H 3391.76 -1.33572 -6.37967 0
M  V30 35480 N 3395.2 0.845612 -1.32993 0
M  V30 35481 C 3396.13 1.9703 -1.25305 0
M  V30 35482 C 3397.11 1.69563 -0.134996 0
M  V30 35483 O 3398.29 1.91484 -0.323663 0
M  V30 35484 C 3395.42 3.33051 -0.984609 0
M  V30 35485 C 3394.38 3.74896 -2.06487 0
M  V30 35486 C 3393.7 5.08648 -1.64869 0
M  V30 35487 C 3395 3.89397 -3.4809 0
M  V30 35488 H 3396.7 2.03721 -2.19404 0
M  V30 35489 H 3394.24 0.978765 -1.05623 0
M  V30 35490 H 3396.19 4.11294 -0.917341 0
M  V30 35491 H 3394.92 3.26599 -0.00798856 0
M  V30 35492 H 3393.58 2.98911 -2.12245 0
M  V30 35493 H 3393.23 4.98661 -0.659271 0
M  V30 35494 H 3392.93 5.37617 -2.37154 0
M  V30 35495 H 3394.45 5.89374 -1.59595 0
M  V30 35496 H 3395.86 4.5797 -3.44871 0
M  V30 35497 H 3394.26 4.29795 -4.18803 0
M  V30 35498 H 3395.33 2.92044 -3.87089 0
M  V30 35499 N 3396.67 1.16351 1.06302 0
M  V30 35500 C 3397.9 0.969162 1.82797 0
M  V30 35501 C 3398.32 -0.482627 1.82527 0
M  V30 35502 O 3397.67 -1.33496 1.24439 0
M  V30 35503 C 3397.72 1.4889 3.29415 0
M  V30 35504 O 3397.45 2.88383 3.29798 0
M  V30 35505 C 3398.95 1.33755 4.2264 0
M  V30 35506 H 3396.17 0.343547 0.576382 0
M  V30 35507 H 3398.71 1.54377 1.34119 0
M  V30 35508 H 3396.87 0.956575 3.75404 0
M  V30 35509 H 3397.28 3.12177 4.2148 0
M  V30 35510 H 3398.75 1.74951 5.23542 0
M  V30 35511 H 3399.23 0.283098 4.38287 0
M  V30 35512 H 3399.84 1.85949 3.82496 0
M  V30 35513 N 3398.15 -1.24835 0.961982 0
M  V30 35514 C 3399.43 -1.8806 0.537842 0
M  V30 35515 C 3399.81 -1.86711 -0.98499 0
M  V30 35516 O 3399.16 -1.33575 -1.85391 0
M  V30 35517 C 3399.37 -3.30444 1.12285 0
M  V30 35518 C 3400.71 -4.07166 1.20422 0
M  V30 35519 O 3401.74 -3.39593 1.07494 0
M  V30 35520 O 3400.6 -5.28054 1.4079 0
M  V30 35521 H 3397.69 -0.807505 0.178505 0
M  V30 35522 H 3400.24 -1.3285 1.05589 0
M  V30 35523 H 3399.01 -3.25894 2.16584 0
M  V30 35524 H 3398.63 -3.93221 0.588499 0
M  V30 35525 N 3399.63 -0.731417 -1.396 0
M  V30 35526 C 3400.88 -0.278203 -2.00883 0
M  V30 35527 C 3401.21 1.13056 -1.57899 0
M  V30 35528 O 3400.48 1.77003 -0.806234 0
M  V30 35529 C 3400.77 -0.376032 -3.58131 0
M  V30 35530 C 3400.62 -1.82431 -4.11144 0
M  V30 35531 C 3401.94 0.243625 -4.39425 0
M  V30 35532 H 3399.06 -0.102562 -0.729829 0
M  V30 35533 H 3401.7 -0.926898 -1.65857 0
M  V30 35534 H 3399.85 0.17626 -3.881 0
M  V30 35535 H 3401.52 -2.4332 -3.9191 0
M  V30 35536 H 3399.76 -2.34682 -3.64838 0
M  V30 35537 H 3400.44 -1.84405 -5.20287 0
M  V30 35538 H 3402.91 -0.22714 -4.1548 0
M  V30 35539 H 3401.79 0.144811 -5.48709 0
M  V30 35540 H 3402.05 1.32922 -4.21645 0
M  V30 35541 N 3401.11 1.50152 -0.478778 0
M  V30 35542 C 3402.02 2.32455 0.316513 0
M  V30 35543 C 3403.03 1.43182 0.988685 0
M  V30 35544 O 3404.21 1.76228 0.974968 0
M  V30 35545 C 3401.28 3.18058 1.37984 0
M  V30 35546 C 3400.34 4.2316 0.723459 0
M  V30 35547 C 3399.57 5.04673 1.73612 0
M  V30 35548 O 3399.79 4.87371 2.96354 0
M  V30 35549 O 3398.73 5.87611 1.30371 0
M  V30 35550 H 3402.55 3.016 -0.356544 0
M  V30 35551 H 3400.14 1.47452 -0.240486 0
M  V30 35552 H 3402.02 3.71153 1.99558 0
M  V30 35553 H 3400.69 2.51633 2.03623 0
M  V30 35554 H 3399.6 3.74037 0.0685639 0
M  V30 35555 H 3400.93 4.92077 0.109893 0
M  V30 35556 N 3402.59 0.211689 1.56172 0
M  V30 35557 C 3403.83 -0.422671 1.9804 0
M  V30 35558 C 3404.16 -1.6047 1.09907 0
M  V30 35559 O 3403.42 -1.95186 0.141805 0
M  V30 35560 C 3403.72 -0.909382 3.45637 0
M  V30 35561 C 3403.38 0.161062 4.50612 0
M  V30 35562 C 3402.04 0.455148 4.79043 0
M  V30 35563 C 3404.4 0.885516 5.13622 0
M  V30 35564 C 3401.72 1.47838 5.67768 0
M  V30 35565 C 3404.08 1.89801 6.03455 0
M  V30 35566 C 3402.74 2.19912 6.30234 0
M  V30 35567 H 3402.01 -0.154666 0.724679 0
M  V30 35568 H 3404.66 0.312139 1.88939 0
M  V30 35569 H 3402.96 -1.72277 3.51892 0
M  V30 35570 H 3404.66 -1.40989 3.75397 0
M  V30 35571 H 3401.25 -0.0783111 4.28528 0
M  V30 35572 H 3405.43 0.67155 4.91736 0
M  V30 35573 H 3400.69 1.7174 5.86784 0
M  V30 35574 H 3404.86 2.46449 6.51334 0
M  V30 35575 H 3402.49 2.99343 6.98783 0
M  V30 35576 N 3404.06 -1.57479 -0.0617887 0
M  V30 35577 C 3405.31 -1.87365 -0.757536 0
M  V30 35578 C 3405.63 -0.805056 -1.77606 0
M  V30 35579 O 3404.9 0.165182 -1.95202 0
M  V30 35580 H 3403.48 -0.691413 -0.282768 0
M  V30 35581 H 3406.15 -1.94868 -0.0355011 0
M  V30 35582 H 3405.24 -2.85202 -1.26753 0
M  V30 35583 N 3405.54 0.333401 -1.54033 0
M  V30 35584 C 3406.79 1.07037 -1.71428 0
M  V30 35585 C 3407.11 1.88859 -0.485529 0
M  V30 35586 O 3406.38 1.89398 0.500522 0
M  V30 35587 H 3404.96 0.398162 -0.632041 0
M  V30 35588 H 3407.62 0.372219 -1.91313 0
M  V30 35589 H 3406.72 1.742 -2.58961 0
M  V30 35590 N 3407.02 1.45939 0.594952 0
M  V30 35591 C 3407.97 1.55926 1.72598 0
M  V30 35592 C 3408.96 0.428439 1.63893 0
M  V30 35593 O 3410.17 0.604844 1.69534 0
M  V30 35594 H 3406.54 0.490004 0.570439 0
M  V30 35595 H 3408.51 2.51045 1.61303 0
M  V30 35596 C 3407.26 1.5551 3.10985 0
M  V30 35597 H 3406.59 2.41856 3.18349 0
M  V30 35598 H 3408.03 1.66554 3.89917 0
M  V30 35599 C 3406.49 0.281632 3.35721 0
M  V30 35600 O 3407.02 -0.633267 3.96677 0
M  V30 35601 N 3405.22 0.173365 2.90082 0
M  V30 35602 H 3404.77 0.918762 2.40659 0
M  V30 35603 H 3404.73 -0.677849 3.07006 0
M  V30 35604 N 3408.5 -0.838547 1.3344 0
M  V30 35605 C 3409.78 -1.57848 1.15513 0
M  V30 35606 C 3410.16 -2.09257 -0.278368 0
M  V30 35607 O 3409.5 -1.89456 -1.27745 0
M  V30 35608 C 3409.71 -2.71208 2.19652 0
M  V30 35609 C 3411.06 -3.4038 2.53824 0
M  V30 35610 O 3412.09 -2.8145 2.18322 0
M  V30 35611 O 3410.94 -4.46761 3.14749 0
M  V30 35612 H 3408.04 -0.695918 0.446797 0
M  V30 35613 H 3410.58 -0.881274 1.45023 0
M  V30 35614 H 3409.36 -2.30863 3.1594 0
M  V30 35615 H 3408.98 -3.48593 1.9123 0
M  V30 35616 N 3409.98 -1.16914 -1.05683 0
M  V30 35617 C 3410.91 -0.90457 -2.15267 0
M  V30 35618 C 3411.89 0.151519 -1.69424 0
M  V30 35619 O 3413.07 0.00231957 -1.942 0
M  V30 35620 C 3410.2 -0.411642 -3.44852 0
M  V30 35621 C 3409.16 -1.40635 -4.04235 0
M  V30 35622 C 3408.48 -0.771572 -5.29104 0
M  V30 35623 C 3409.78 -2.77795 -4.42298 0
M  V30 35624 H 3411.48 -1.82099 -2.37656 0
M  V30 35625 H 3409.02 -0.876967 -1.14216 0
M  V30 35626 H 3410.98 -0.214003 -4.20856 0
M  V30 35627 H 3409.7 0.540296 -3.221 0
M  V30 35628 H 3408.36 -1.59064 -3.30294 0
M  V30 35629 H 3408.01 0.187045 -5.02652 0
M  V30 35630 H 3407.71 -1.43555 -5.69794 0
M  V30 35631 H 3409.23 -0.584094 -6.078 0
M  V30 35632 H 3410.64 -2.63112 -5.09357 0
M  V30 35633 H 3409.04 -3.40724 -4.93991 0
M  V30 35634 H 3410.11 -3.32581 -3.52871 0
M  V30 35635 N 3411.45 1.24323 -0.968589 0
M  V30 35636 C 3412.38 2.27674 -0.518363 0
M  V30 35637 C 3413.37 1.64245 0.44245 0
M  V30 35638 O 3414.55 1.91229 0.338382 0
M  V30 35639 C 3411.68 3.46772 0.191398 0
M  V30 35640 C 3410.63 4.22474 -0.685523 0
M  V30 35641 C 3409.96 5.34473 0.155779 0
M  V30 35642 C 3411.26 4.83701 -1.97055 0
M  V30 35643 H 3412.95 2.65585 -1.3822 0
M  V30 35644 H 3410.5 1.2767 -0.666063 0
M  V30 35645 H 3412.45 4.18209 0.517594 0
M  V30 35646 H 3411.18 3.07889 1.08959 0
M  V30 35647 H 3409.84 3.52839 -0.995004 0
M  V30 35648 H 3409.48 4.9183 1.05415 0
M  V30 35649 H 3409.18 5.86041 -0.427758 0
M  V30 35650 H 3410.71 6.08737 0.476626 0
M  V30 35651 H 3412.12 5.47207 -1.70988 0
M  V30 35652 H 3410.52 5.45505 -2.50089 0
M  V30 35653 H 3411.59 4.05105 -2.66492 0
M  V30 35654 N 3412.93 0.73881 1.3921 0
M  V30 35655 C 3413.86 0.0616891 2.29117 0
M  V30 35656 C 3414.88 -0.699436 1.47009 0
M  V30 35657 O 3416.07 -0.542969 1.70041 0
M  V30 35658 C 3413.17 -0.936836 3.25694 0
M  V30 35659 C 3412.34 -0.236438 4.3676 0
M  V30 35660 C 3411.4 -1.14361 5.13622 0
M  V30 35661 O 3410.42 -0.619663 5.65817 0
M  V30 35662 N 3411.63 -2.47301 5.25188 0
M  V30 35663 H 3414.39 0.833761 2.87869 0
M  V30 35664 H 3411.95 0.58835 1.50831 0
M  V30 35665 H 3413.94 -1.54641 3.7399 0
M  V30 35666 H 3412.51 -1.61009 2.67946 0
M  V30 35667 H 3411.73 0.553663 3.90292 0
M  V30 35668 H 3413.02 0.248797 5.08191 0
M  V30 35669 H 3412.42 -2.92341 4.84307 0
M  V30 35670 H 3410.98 -3.03345 5.7691 0
M  V30 35671 N 3414.41 -1.49895 0.486734 0
M  V30 35672 C 3415.66 -2.02702 -0.0629095 0
M  V30 35673 C 3415.99 -1.36683 -1.37954 0
M  V30 35674 O 3415.26 -0.497711 -1.88024 0
M  V30 35675 C 3415.55 -3.59362 -0.230398 0
M  V30 35676 C 3415.4 -4.35931 1.10835 0
M  V30 35677 C 3416.72 -4.29102 -0.97771 0
M  V30 35678 H 3413.84 -0.73669 -0.0213887 0
M  V30 35679 H 3416.48 -1.79062 0.635371 0
M  V30 35680 H 3414.63 -3.79636 -0.825155 0
M  V30 35681 H 3416.3 -4.27189 1.74089 0
M  V30 35682 H 3414.55 -3.99052 1.70117 0
M  V30 35683 H 3415.22 -5.43857 0.944627 0
M  V30 35684 H 3417.69 -4.13398 -0.473432 0
M  V30 35685 H 3416.57 -5.38494 -1.06372 0
M  V30 35686 H 3416.83 -3.93353 -2.01806 0
M  V30 35687 N 3415.89 -0.219968 -1.56057 0
M  V30 35688 C 3417.12 0.416461 -2.02359 0
M  V30 35689 C 3417.53 1.54005 -1.09905 0
M  V30 35690 O 3416.87 1.83424 -0.100667 0
M  V30 35691 C 3416.93 1.01065 -3.45001 0
M  V30 35692 C 3416.6 0.0227088 -4.56994 0
M  V30 35693 C 3417.59 -0.777088 -5.1406 0
M  V30 35694 C 3415.28 -0.0955864 -5.02209 0
M  V30 35695 C 3417.27 -1.6819 -6.1481 0
M  V30 35696 C 3414.96 -1.00393 -6.02797 0
M  V30 35697 C 3415.96 -1.79563 -6.58973 0
M  V30 35698 O 3415.65 -2.68871 -7.57604 0
M  V30 35699 H 3415.38 0.106344 -0.667583 0
M  V30 35700 H 3417.93 -0.333384 -2.02676 0
M  V30 35701 H 3416.16 1.80956 -3.41748 0
M  V30 35702 H 3417.85 1.55432 -3.74961 0
M  V30 35703 H 3418.62 -0.696137 -4.79978 0
M  V30 35704 H 3414.5 0.510518 -4.58165 0
M  V30 35705 H 3418.04 -2.30028 -6.58584 0
M  V30 35706 H 3413.94 -1.08591 -6.36301 0
M  V30 35707 H 3414.7 -2.62929 -7.7512 0
M  V30 35708 N 3417.37 1.57509 0.0534363 0
M  V30 35709 C 3418.32 2.06001 1.0801 0
M  V30 35710 C 3419.31 0.968887 1.38957 0
M  V30 35711 O 3420.52 1.15391 1.38148 0
M  V30 35712 H 3416.89 0.657069 0.365739 0
M  V30 35713 H 3418.86 2.91343 0.645118 0
M  V30 35714 C 3417.61 2.53479 2.37999 0
M  V30 35715 H 3416.93 3.37042 2.15042 0
M  V30 35716 H 3418.37 2.91143 3.08239 0
M  V30 35717 C 3416.83 1.42548 3.05257 0
M  V30 35718 O 3417.36 0.777901 3.94096 0
M  V30 35719 N 3415.57 1.16604 2.6618 0
M  V30 35720 H 3415.12 1.69447 1.94024 0
M  V30 35721 H 3415.07 0.425904 3.11502 0
M  V30 35722 N 3418.85 -0.325228 1.54208 0
M  V30 35723 C 3419.81 -1.38317 1.82759 0
M  V30 35724 C 3420.81 -1.44796 0.699338 0
M  V30 35725 O 3422 -1.44853 0.967646 0
M  V30 35726 C 3419.13 -2.77066 1.98613 0
M  V30 35727 H 3420.32 -1.14256 2.77282 0
M  V30 35728 H 3417.88 -0.560621 1.459 0
M  V30 35729 H 3418.61 -3.06385 1.06295 0
M  V30 35730 H 3418.4 -2.73758 2.80712 0
M  V30 35731 H 3419.89 -3.53605 2.22156 0
M  V30 35732 N 3420.32 -1.46252 -0.587204 0
M  V30 35733 C 3421.26 -1.52504 -1.711 0
M  V30 35734 C 3422.27 -0.413799 -1.57453 0
M  V30 35735 O 3423.46 -0.681931 -1.6496 0
M  V30 35736 C 3420.56 -1.38498 -3.09308 0
M  V30 35737 C 3419.73 -2.63661 -3.49001 0
M  V30 35738 C 3418.79 -2.43919 -4.66251 0
M  V30 35739 O 3417.82 -3.17624 -4.72338 0
M  V30 35740 N 3419.02 -1.49794 -5.6084 0
M  V30 35741 H 3421.78 -2.49399 -1.66193 0
M  V30 35742 H 3419.34 -1.42251 -0.773062 0
M  V30 35743 H 3421.34 -1.2307 -3.85533 0
M  V30 35744 H 3419.91 -0.498017 -3.08607 0
M  V30 35745 H 3419.13 -2.94063 -2.62527 0
M  V30 35746 H 3420.41 -3.46816 -3.72285 0
M  V30 35747 H 3419.81 -0.890071 -5.58654 0
M  V30 35748 H 3418.37 -1.40331 -6.36514 0
M  V30 35749 N 3421.8 0.831459 -1.33883 0
M  V30 35750 C 3422.73 1.94912 -1.20591 0
M  V30 35751 C 3423.75 1.62239 -0.135054 0
M  V30 35752 O 3424.94 1.74273 -0.386147 0
M  V30 35753 C 3422.04 3.2861 -0.82877 0
M  V30 35754 C 3421.21 3.89365 -1.99282 0
M  V30 35755 C 3420.27 5.0143 -1.59546 0
M  V30 35756 O 3419.29 5.20181 -2.31085 0
M  V30 35757 N 3420.5 5.78302 -0.504702 0
M  V30 35758 H 3423.26 2.06848 -2.16873 0
M  V30 35759 H 3420.82 1.00759 -1.26725 0
M  V30 35760 H 3422.81 4.01015 -0.544898 0
M  V30 35761 H 3421.38 3.1257 0.0435984 0
M  V30 35762 H 3420.6 3.09459 -2.4419 0
M  V30 35763 H 3421.89 4.2669 -2.77152 0
M  V30 35764 H 3421.29 5.65628 0.0902111 0
M  V30 35765 H 3419.85 6.51196 -0.28053 0
M  V30 35766 N 3423.28 1.17472 1.05062 0
M  V30 35767 C 3424.53 0.958332 1.77479 0
M  V30 35768 C 3424.84 -0.513977 1.88726 0
M  V30 35769 O 3426.05 -0.848611 2.57897 0
M  V30 35770 C 3424.5 1.66548 3.19045 0
M  V30 35771 C 3424.11 3.17641 3.15924 0
M  V30 35772 C 3425.86 1.53153 3.9591 0
M  V30 35773 C 3423.76 3.8104 4.52286 0
M  V30 35774 H 3422.69 0.354924 0.66524 0
M  V30 35775 H 3425.34 1.40739 1.17748 0
M  V30 35776 H 3423.73 1.14416 3.79111 0
M  V30 35777 H 3424.9 3.76718 2.65368 0
M  V30 35778 H 3423.21 3.31064 2.52559 0
M  V30 35779 H 3425.81 1.97889 4.96734 0
M  V30 35780 H 3426.15 0.482276 4.13497 0
M  V30 35781 H 3426.69 2.0251 3.42395 0
M  V30 35782 H 3423.43 4.85968 4.39904 0
M  V30 35783 H 3422.95 3.2675 5.02986 0
M  V30 35784 H 3424.63 3.83322 5.21223 0
M  V30 35785 N 3424.76 -1.23807 0.975168 0
M  V30 35786 C 3425.7 -2.25077 0.510801 0
M  V30 35787 C 3426.67 -1.59956 -0.447577 0
M  V30 35788 O 3427.86 -1.87444 -0.356285 0
M  V30 35789 C 3425 -3.446 -0.185694 0
M  V30 35790 C 3424.11 -4.24294 0.812329 0
M  V30 35791 C 3423.25 -5.31122 0.0911769 0
M  V30 35792 C 3422.29 -6.02519 1.07876 0
M  V30 35793 N 3421.42 -7.01032 0.387118 0
M  V30 35794 H 3426.26 -2.64164 1.37918 0
M  V30 35795 H 3423.8 -1.29849 0.691207 0
M  V30 35796 H 3425.76 -4.12771 -0.606269 0
M  V30 35797 H 3424.39 -3.06328 -1.01798 0
M  V30 35798 H 3423.44 -3.55589 1.35131 0
M  V30 35799 H 3424.75 -4.73609 1.5651 0
M  V30 35800 H 3423.91 -6.05464 -0.387023 0
M  V30 35801 H 3422.65 -4.82733 -0.694239 0
M  V30 35802 H 3421.65 -5.26974 1.56777 0
M  V30 35803 H 3422.88 -6.52996 1.86475 0
M  V30 35804 H 3420.82 -6.54903 -0.379185 0
M  V30 35805 H 3420.74 -7.48266 1.07864 0
M  V30 35806 H 3422.01 -7.7947 -0.0688666 0
M  V30 35807 N 3426.24 -0.746182 -1.38816 0
M  V30 35808 C 3427.19 -0.0894021 -2.27825 0
M  V30 35809 C 3428.17 0.700987 -1.44827 0
M  V30 35810 O 3429.36 0.568159 -1.67633 0
M  V30 35811 C 3426.49 0.808623 -3.33641 0
M  V30 35812 C 3425.58 0.0117836 -4.24098 0
M  V30 35813 N 3425.97 -1.02083 -4.95391 0
M  V30 35814 C 3424.27 0.239737 -4.45355 0
M  V30 35815 C 3424.97 -1.5023 -5.61966 0
M  V30 35816 N 3423.94 -0.818911 -5.37396 0
M  V30 35817 H 3427.74 -0.880379 -2.80404 0
M  V30 35818 H 3425.26 -0.581538 -1.51631 0
M  V30 35819 H 3427.26 1.29471 -3.96286 0
M  V30 35820 H 3425.92 1.59863 -2.82619 0
M  V30 35821 H 3426.93 -1.40246 -4.98549 0
M  V30 35822 H 3423.6 1.00367 -4.05256 0
M  V30 35823 H 3424.99 -2.36203 -6.29013 0
M  V30 35824 N 3427.71 1.49635 -0.494676 0
M  V30 35825 C 3429.13 1.58891 -0.150245 0
M  V30 35826 C 3429.33 1.50056 1.34483 0
M  V30 35827 O 3428.39 1.37122 2.12023 0
M  V30 35828 C 3429.7 2.91918 -0.721423 0
M  V30 35829 C 3431.25 3.05368 -0.686961 0
M  V30 35830 C 3431.72 4.41004 -1.23609 0
M  V30 35831 N 3433.21 4.47479 -1.19652 0
M  V30 35832 C 3433.95 5.50866 -1.59166 0
M  V30 35833 N 3433.44 6.61389 -2.06243 0
M  V30 35834 N 3435.24 5.41544 -1.50622 0
M  V30 35835 H 3427.39 1.53621 -1.46677 0
M  V30 35836 H 3429.65 0.727339 -0.608015 0
M  V30 35837 H 3429.36 3.03932 -1.76969 0
M  V30 35838 H 3429.23 3.76779 -0.178266 0
M  V30 35839 H 3431.62 2.92988 0.352457 0
M  V30 35840 H 3431.7 2.22207 -1.26719 0
M  V30 35841 H 3431.34 4.54136 -2.27426 0
M  V30 35842 H 3431.27 5.22795 -0.631857 0
M  V30 35843 H 3433.76 3.68182 -0.851508 0
M  V30 35844 H 3434.08 7.36368 -2.34482 0
M  V30 35845 H 3432.42 6.62447 -2.10213 0
M  V30 35846 H 3435.61 4.5409 -1.13667 0
M  V30 35847 H 3435.79 6.21992 -1.81741 0
M  V30 35848 N 3429.19 0.228241 1.55939 0
M  V30 35849 C 3430.12 -0.673661 2.23571 0
M  V30 35850 C 3431.1 -1.19587 1.20966 0
M  V30 35851 O 3432.29 -1.23865 1.4957 0
M  V30 35852 C 3429.42 -1.87901 2.9208 0
M  V30 35853 C 3428.37 -1.49036 4.01214 0
M  V30 35854 C 3427.7 -2.77503 4.57052 0
M  V30 35855 C 3429 -0.675349 5.17915 0
M  V30 35856 H 3430.69 -0.109753 2.99199 0
M  V30 35857 H 3428.24 -0.0513479 1.43908 0
M  V30 35858 H 3430.19 -2.51545 3.38087 0
M  V30 35859 H 3428.91 -2.468 2.1391 0
M  V30 35860 H 3427.57 -0.877349 3.55947 0
M  V30 35861 H 3427.22 -3.3456 3.75605 0
M  V30 35862 H 3426.92 -2.52229 5.30711 0
M  V30 35863 H 3428.45 -3.42078 5.05782 0
M  V30 35864 H 3429.86 -1.21565 5.60263 0
M  V30 35865 H 3428.26 -0.519431 5.97848 0
M  V30 35866 H 3429.33 0.31658 4.83865 0
M  V30 35867 N 3430.67 -1.57536 -0.0450825 0
M  V30 35868 C 3431.62 -2.06571 -1.06916 0
M  V30 35869 C 3432.61 -0.976242 -1.38441 0
M  V30 35870 O 3433.82 -1.16122 -1.37534 0
M  V30 35871 H 3430.19 -0.658999 -0.362249 0
M  V30 35872 H 3432.16 -2.91681 -0.629658 0
M  V30 35873 C 3430.91 -2.54738 -2.36652 0
M  V30 35874 H 3430.24 -3.38177 -2.13251 0
M  V30 35875 H 3431.68 -2.92774 -3.06691 0
M  V30 35876 C 3430.14 -1.44165 -3.04496 0
M  V30 35877 O 3430.67 -0.79879 -3.93678 0
M  V30 35878 N 3428.87 -1.18014 -2.65558 0
M  V30 35879 H 3428.42 -1.70474 -1.93123 0
M  V30 35880 H 3428.38 -0.442418 -3.11272 0
M  V30 35881 N 3432.15 0.317045 -1.54378 0
M  V30 35882 C 3433.37 1.07795 -1.77186 0
M  V30 35883 C 3433.8 1.8071 -0.522072 0
M  V30 35884 O 3433.16 1.73481 0.52669 0
M  V30 35885 C 3433.2 2.04666 -2.96891 0
M  V30 35886 O 3432.31 3.12683 -2.68892 0
M  V30 35887 H 3431.65 0.310474 -0.586943 0
M  V30 35888 H 3434.18 0.359354 -2.01419 0
M  V30 35889 H 3434.19 2.4742 -3.24418 0
M  V30 35890 H 3432.86 1.50998 -3.87521 0
M  V30 35891 H 3431.44 2.74558 -2.52334 0
M  V30 35892 N 3433.63 1.46561 0.57944 0
M  V30 35893 C 3434.85 1.55617 1.36348 0
M  V30 35894 C 3435.27 0.198438 1.87754 0
M  V30 35895 O 3434.63 -0.804805 1.63796 0
M  V30 35896 C 3434.68 2.5636 2.54876 0
M  V30 35897 O 3434.4 3.8686 2.056 0
M  V30 35898 C 3435.9 2.75387 3.47386 0
M  V30 35899 H 3433.12 0.526154 0.416417 0
M  V30 35900 H 3435.66 1.91997 0.704101 0
M  V30 35901 H 3433.82 2.22975 3.16798 0
M  V30 35902 H 3434.23 4.41719 2.82815 0
M  V30 35903 H 3435.71 3.49791 4.27025 0
M  V30 35904 H 3436.18 1.82411 3.99529 0
M  V30 35905 H 3436.79 3.0988 2.91297 0
M  V30 35906 N 3435.1 -0.824347 1.34322 0
M  V30 35907 C 3436.35 -1.57736 1.26348 0
M  V30 35908 C 3436.67 -1.94285 -0.166802 0
M  V30 35909 O 3435.94 -1.62164 -1.09908 0
M  V30 35910 H 3434.52 -0.584885 0.46467 0
M  V30 35911 H 3437.19 -0.984344 1.68216 0
M  V30 35912 H 3436.28 -2.50081 1.86724 0
M  V30 35913 N 3436.58 -1.18028 -1.04437 0
M  V30 35914 C 3437.52 -0.847314 -2.11886 0
M  V30 35915 C 3438.49 0.189143 -1.61496 0
M  V30 35916 O 3439.68 0.0689528 -1.88374 0
M  V30 35917 C 3436.8 -0.26531 -3.37659 0
M  V30 35918 C 3435.85 -1.27836 -4.06891 0
M  V30 35919 S 3436.68 -2.83275 -4.5444 0
M  V30 35920 C 3437.84 -2.26576 -5.8345 0
M  V30 35921 H 3438.07 -1.75732 -2.39803 0
M  V30 35922 H 3435.61 -1.00574 -1.1715 0
M  V30 35923 H 3437.56 0.0639857 -4.1045 0
M  V30 35924 H 3436.22 0.622752 -3.07865 0
M  V30 35925 H 3435.42 -0.819936 -4.97286 0
M  V30 35926 H 3435.02 -1.5537 -3.402 0
M  V30 35927 H 3437.31 -1.64603 -6.572 0
M  V30 35928 H 3438.25 -3.15255 -6.3405 0
M  V30 35929 H 3438.66 -1.69737 -5.38377 0
M  V30 35930 N 3438.06 1.23288 -0.98172 0
M  V30 35931 C 3439.29 1.95488 -0.668434 0
M  V30 35932 C 3439.7 1.7287 0.768945 0
M  V30 35933 O 3439.04 1.01786 1.52923 0
M  V30 35934 C 3439.1 3.48548 -0.880596 0
M  V30 35935 C 3438.77 3.94886 -2.3003 0
M  V30 35936 C 3439.76 4.03452 -3.27906 0
M  V30 35937 C 3437.45 4.27837 -2.63174 0
M  V30 35938 C 3439.44 4.44324 -4.57007 0
M  V30 35939 C 3437.13 4.6839 -3.92497 0
M  V30 35940 C 3438.13 4.76601 -4.89225 0
M  V30 35941 O 3437.82 5.16242 -6.16238 0
M  V30 35942 H 3437.55 0.629155 -0.247266 0
M  V30 35943 H 3440.1 1.57697 -1.31609 0
M  V30 35944 H 3438.33 3.863 -0.175766 0
M  V30 35945 H 3440.02 4.01959 -0.564269 0
M  V30 35946 H 3440.79 3.78197 -3.03631 0
M  V30 35947 H 3436.67 4.20658 -1.88595 0
M  V30 35948 H 3440.21 4.50647 -5.32506 0
M  V30 35949 H 3436.11 4.93094 -4.16567 0
M  V30 35950 H 3436.88 5.3435 -6.2001 0
M  V30 35951 N 3439.54 0.753533 1.38418 0
M  V30 35952 C 3440.78 0.310127 2.00415 0
M  V30 35953 C 3441.12 -1.10529 1.59677 0
M  V30 35954 O 3440.39 -1.75698 0.834292 0
M  V30 35955 C 3440.68 0.43296 3.57488 0
M  V30 35956 C 3440.53 1.88948 4.08189 0
M  V30 35957 C 3441.85 -0.173685 4.39757 0
M  V30 35958 H 3438.97 0.11416 0.728105 0
M  V30 35959 H 3441.61 0.953167 1.64362 0
M  V30 35960 H 3439.76 -0.114495 3.88331 0
M  V30 35961 H 3441.43 2.49524 3.87989 0
M  V30 35962 H 3439.67 2.40456 3.61058 0
M  V30 35963 H 3440.34 1.92659 5.17288 0
M  V30 35964 H 3442.82 0.29321 4.15066 0
M  V30 35965 H 3441.7 -0.0574975 5.4887 0
M  V30 35966 H 3441.96 -1.26197 4.23706 0
M  V30 35967 N 3441.02 -1.49371 0.502605 0
M  V30 35968 C 3441.98 -2.27675 -0.263953 0
M  V30 35969 C 3442.98 -1.33757 -0.892515 0
M  V30 35970 O 3444.17 -1.56902 -0.756798 0
M  V30 35971 C 3441.3 -3.11768 -1.3789 0
M  V30 35972 H 3442.49 -2.96899 0.423185 0
M  V30 35973 H 3440.05 -1.54162 0.257622 0
M  V30 35974 H 3440.78 -2.47113 -2.10014 0
M  V30 35975 H 3440.57 -3.80823 -0.933627 0
M  V30 35976 H 3442.06 -3.70906 -1.91882 0
M  V30 35977 N 3442.49 -0.236508 -1.55815 0
M  V30 35978 C 3443.44 0.683741 -2.22324 0
M  V30 35979 C 3444.44 1.18817 -1.20743 0
M  V30 35980 O 3445.64 1.14627 -1.38783 0
M  V30 35981 H 3442.02 0.238953 -0.713026 0
M  V30 35982 H 3443.99 0.0995355 -2.98234 0
M  V30 35983 C 3442.74 1.87443 -2.92849 0
M  V30 35984 H 3442.06 1.49542 -3.70779 0
M  V30 35985 H 3443.5 2.49579 -3.42763 0
M  V30 35986 C 3441.96 2.73915 -1.96144 0
M  V30 35987 O 3442.49 3.73129 -1.48787 0
M  V30 35988 N 3440.7 2.40263 -1.63469 0
M  V30 35989 H 3440.24 1.59635 -2.02174 0
M  V30 35990 H 3440.2 2.98397 -0.990292 0
M  V30 35991 N 3443.97 1.57557 0.0367273 0
M  V30 35992 C 3445.2 1.93174 0.741052 0
M  V30 35993 C 3445.62 0.835619 1.69301 0
M  V30 35994 O 3444.97 -0.188568 1.81523 0
M  V30 35995 C 3445.02 3.28696 1.50471 0
M  V30 35996 O 3444.74 4.34096 0.59097 0
M  V30 35997 C 3446.25 3.78547 2.30688 0
M  V30 35998 H 3443.47 0.637712 0.20872 0
M  V30 35999 H 3446.01 2.045 -0.00346371 0
M  V30 36000 H 3444.16 3.1879 2.20117 0
M  V30 36001 H 3444.58 5.12278 1.1257 0
M  V30 36002 H 3446.05 4.75905 2.79676 0
M  V30 36003 H 3446.53 3.09345 3.11773 0
M  V30 36004 H 3447.14 3.91511 1.66131 0
M  V30 36005 N 3445.45 -0.308854 1.54544 0
M  V30 36006 C 3446.4 -1.38064 1.84951 0
M  V30 36007 C 3447.37 -1.50733 0.697772 0
M  V30 36008 O 3448.55 -1.65718 0.945639 0
M  V30 36009 C 3445.69 -2.74196 2.09549 0
M  V30 36010 C 3444.81 -2.7004 3.37198 0
M  V30 36011 C 3443.94 -3.98115 3.51679 0
M  V30 36012 C 3442.98 -3.88325 4.73149 0
M  V30 36013 N 3442.12 -5.08159 4.84478 0
M  V30 36014 H 3446.96 -1.11433 2.76381 0
M  V30 36015 H 3444.49 -0.539129 1.36864 0
M  V30 36016 H 3446.45 -3.53354 2.21804 0
M  V30 36017 H 3445.08 -2.99104 1.21394 0
M  V30 36018 H 3444.13 -1.82791 3.33604 0
M  V30 36019 H 3445.45 -2.58694 4.26473 0
M  V30 36020 H 3444.6 -4.85707 3.63556 0
M  V30 36021 H 3443.34 -4.12285 2.60523 0
M  V30 36022 H 3442.34 -2.99116 4.61313 0
M  V30 36023 H 3443.57 -3.75706 5.65705 0
M  V30 36024 H 3441.52 -5.22808 3.96243 0
M  V30 36025 H 3441.43 -4.99205 5.67742 0
M  V30 36026 H 3442.7 -5.97425 5.00703 0
M  V30 36027 N 3446.93 -1.46867 -0.571659 0
M  V30 36028 C 3448.34 -1.4678 -1.1538 0
M  V30 36029 C 3448.69 -0.21461 -1.95023 0
M  V30 36030 O 3447.82 0.681538 -2.05387 0
M  V30 36031 C 3448.41 -2.65938 -2.0991 0
M  V30 36032 C 3446.97 -2.68857 -2.63425 0
M  V30 36033 C 3446.12 -2.39649 -1.39512 0
M  V30 36034 H 3449.07 -1.54586 -0.359008 0
M  V30 36035 H 3449.09 -2.42086 -2.93555 0
M  V30 36036 H 3448.6 -3.57131 -1.51917 0
M  V30 36037 H 3446.7 -1.81766 -3.25257 0
M  V30 36038 H 3446.82 -3.6914 -3.05406 0
M  V30 36039 H 3445.18 -1.89933 -1.69699 0
M  V30 36040 H 3445.96 -3.33032 -0.833341 0
M  V30 36041 N 3448.41 0.817212 -1.34757 0
M  V30 36042 C 3449.66 1.57064 -1.27183 0
M  V30 36043 C 3449.98 1.94371 0.156496 0
M  V30 36044 O 3449.25 1.62744 1.09047 0
M  V30 36045 H 3447.83 0.582413 -0.467765 0
M  V30 36046 H 3450.49 0.975409 -1.68736 0
M  V30 36047 H 3449.58 2.49087 -1.88048 0
M  V30 36048 N 3449.89 1.1858 1.0381 0
M  V30 36049 C 3451.13 0.980807 1.76705 0
M  V30 36050 C 3451.45 -0.490529 1.88729 0
M  V30 36051 O 3450.72 -1.35567 1.41416 0
M  V30 36052 H 3449.3 0.35991 0.654579 0
M  V30 36053 H 3451.97 1.49308 1.25272 0
M  V30 36054 H 3451.06 1.42101 2.77874 0
M  V30 36055 N 3451.36 -1.22766 0.988245 0
M  V30 36056 C 3452.61 -1.91391 0.661494 0
M  V30 36057 C 3452.94 -1.77018 -0.80591 0
M  V30 36058 O 3452.19 -1.13002 -1.59778 0
M  V30 36059 C 3452.49 -3.42905 1.0075 0
M  V30 36060 C 3452.16 -3.77464 2.46641 0
M  V30 36061 C 3450.82 -3.86608 2.8651 0
M  V30 36062 C 3453.17 -3.93974 3.41224 0
M  V30 36063 C 3450.5 -4.09695 4.19961 0
M  V30 36064 C 3452.85 -4.18563 4.74328 0
M  V30 36065 C 3451.52 -4.2593 5.13945 0
M  V30 36066 H 3450.79 -0.700349 0.242058 0
M  V30 36067 H 3453.43 -1.45629 1.24357 0
M  V30 36068 H 3451.74 -3.90292 0.343448 0
M  V30 36069 H 3453.44 -3.94248 0.732784 0
M  V30 36070 H 3450.03 -3.70927 2.14735 0
M  V30 36071 H 3454.21 -3.86292 3.11596 0
M  V30 36072 H 3449.47 -4.13623 4.50251 0
M  V30 36073 H 3453.64 -4.30281 5.47568 0
M  V30 36074 H 3451.27 -4.43572 6.17372 0
M  V30 36075 N 3452.84 -0.760864 -1.38017 0
M  V30 36076 C 3454.07 -0.331321 -2.0423 0
M  V30 36077 C 3454.48 1.04282 -1.57387 0
M  V30 36078 O 3453.84 1.66368 -0.750198 0
M  V30 36079 C 3453.89 -0.353085 -3.59772 0
M  V30 36080 O 3453.61 -1.67301 -4.04898 0
M  V30 36081 C 3455.11 0.0894163 -4.4321 0
M  V30 36082 H 3452.33 -0.14042 -0.656143 0
M  V30 36083 H 3454.88 -1.03175 -1.76565 0
M  V30 36084 H 3453.03 0.298668 -3.86247 0
M  V30 36085 H 3453.45 -1.60417 -4.99366 0
M  V30 36086 H 3454.92 0.0230292 -5.51995 0
M  V30 36087 H 3455.4 1.13831 -4.24192 0
M  V30 36088 H 3456 -0.533736 -4.21938 0
M  V30 36089 N 3454.32 1.49102 -0.510519 0
M  V30 36090 C 3455.57 2.01674 0.0325038 0
M  V30 36091 C 3455.88 1.39451 1.3716 0
M  V30 36092 O 3457.09 1.83406 2.00186 0
M  V30 36093 C 3455.54 3.59737 0.10837 0
M  V30 36094 C 3455.15 4.30936 -1.22465 0
M  V30 36095 C 3456.9 4.2022 0.601252 0
M  V30 36096 C 3454.8 5.80882 -1.11043 0
M  V30 36097 H 3453.73 0.753832 0.01592 0
M  V30 36098 H 3456.38 1.7155 -0.651374 0
M  V30 36099 H 3454.77 3.86618 0.856906 0
M  V30 36100 H 3455.94 4.15747 -1.98723 0
M  V30 36101 H 3454.25 3.82239 -1.65173 0
M  V30 36102 H 3456.85 5.3004 0.704369 0
M  V30 36103 H 3457.19 3.84225 1.6024 0
M  V30 36104 H 3457.73 3.97696 -0.091026 0
M  V30 36105 H 3454.47 6.21418 -2.08614 0
M  V30 36106 H 3453.99 5.98538 -0.388903 0
M  V30 36107 H 3455.67 6.42121 -0.793062 0
M  V30 36108 N 3455.8 0.244768 1.55688 0
M  V30 36109 C 3456.71 -0.66648 2.24934 0
M  V30 36110 C 3457.72 -1.19501 1.26473 0
M  V30 36111 O 3458.9 -1.23173 1.59344 0
M  V30 36112 C 3455.96 -1.84767 2.93363 0
M  V30 36113 C 3455.03 -1.35882 4.07228 0
M  V30 36114 C 3454.26 -2.48371 4.72385 0
M  V30 36115 O 3454.48 -3.67051 4.36611 0
M  V30 36116 O 3453.42 -2.18251 5.60937 0
M  V30 36117 H 3457.24 -0.106453 3.03513 0
M  V30 36118 H 3454.83 0.0133572 1.49394 0
M  V30 36119 H 3456.71 -2.53702 3.36472 0
M  V30 36120 H 3455.38 -2.39536 2.17725 0
M  V30 36121 H 3454.29 -0.636817 3.6864 0
M  V30 36122 H 3455.62 -0.857248 4.84677 0
M  V30 36123 N 3457.28 -1.57574 -0.0283712 0
M  V30 36124 C 3458.52 -1.88484 -0.718088 0
M  V30 36125 C 3458.84 -0.843376 -1.76484 0
M  V30 36126 O 3460.04 -1.04173 -2.50719 0
M  V30 36127 C 3458.5 -3.34492 -1.32827 0
M  V30 36128 C 3458.11 -4.46871 -0.317826 0
M  V30 36129 C 3459.85 -3.7455 -1.99782 0
M  V30 36130 C 3457.76 -5.8394 -0.936386 0
M  V30 36131 H 3456.69 -0.703246 -0.271957 0
M  V30 36132 H 3459.34 -1.83479 0.0275185 0
M  V30 36133 H 3457.72 -3.34244 -2.1236 0
M  V30 36134 H 3458.9 -4.58589 0.450848 0
M  V30 36135 H 3457.21 -4.15651 0.249678 0
M  V30 36136 H 3459.81 -4.74275 -2.46915 0
M  V30 36137 H 3460.15 -3.0658 -2.81628 0
M  V30 36138 H 3460.68 -3.76975 -1.27022 0
M  V30 36139 H 3457.42 -6.55311 -0.157324 0
M  V30 36140 H 3456.94 -5.75941 -1.67488 0
M  V30 36141 H 3458.62 -6.30691 -1.44352 0
M  V30 36142 N 3458.75 0.300654 -1.54706 0
M  V30 36143 C 3459.98 1.0591 -1.7832 0
M  V30 36144 C 3460.4 1.80146 -0.541209 0
M  V30 36145 O 3459.76 1.7403 0.50826 0
M  V30 36146 C 3459.81 2.01506 -2.99045 0
M  V30 36147 O 3458.91 3.09814 -2.72194 0
M  V30 36148 H 3458.25 0.304232 -0.590203 0
M  V30 36149 H 3460.78 0.337971 -2.01789 0
M  V30 36150 H 3460.79 2.43965 -3.27024 0
M  V30 36151 H 3459.47 1.46879 -3.89101 0
M  V30 36152 H 3458.05 2.71866 -2.55232 0
M  V30 36153 N 3460.23 1.47168 0.563863 0
M  V30 36154 C 3461.18 1.59552 1.69251 0
M  V30 36155 C 3462.17 0.463107 1.62947 0
M  V30 36156 O 3463.38 0.640669 1.68212 0
M  V30 36157 H 3459.76 0.501993 0.559917 0
M  V30 36158 H 3461.73 2.5441 1.55942 0
M  V30 36159 C 3460.48 1.62072 3.07617 0
M  V30 36160 H 3459.8 2.48554 3.13147 0
M  V30 36161 H 3461.24 1.74788 3.86297 0
M  V30 36162 C 3459.7 0.35278 3.35048 0
M  V30 36163 O 3460.23 -0.548983 3.97931 0
M  V30 36164 N 3458.43 0.234856 2.89649 0
M  V30 36165 H 3457.98 0.969603 2.38656 0
M  V30 36166 H 3457.94 -0.612576 3.08375 0
M  V30 36167 N 3461.71 -0.810054 1.35188 0
M  V30 36168 C 3462.66 -1.94311 1.27852 0
M  V30 36169 C 3463.65 -1.68503 0.17411 0
M  V30 36170 O 3464.86 -1.76762 0.339879 0
M  V30 36171 H 3461.23 -0.638346 0.397515 0
M  V30 36172 H 3463.2 -1.97619 2.23583 0
M  V30 36173 C 3461.95 -3.31024 1.06387 0
M  V30 36174 H 3461.28 -3.51438 1.90608 0
M  V30 36175 H 3462.72 -4.10718 1.05295 0
M  V30 36176 C 3461.18 -3.36097 -0.232403 0
M  V30 36177 O 3461.71 -3.82425 -1.22939 0
M  V30 36178 N 3459.91 -2.89343 -0.269978 0
M  V30 36179 H 3459.46 -2.51835 0.541936 0
M  V30 36180 H 3459.42 -2.93119 -1.13703 0
M  V30 36181 N 3463.19 -1.19129 -1.0318 0
M  V30 36182 C 3464.14 -0.922937 -2.13506 0
M  V30 36183 C 3465.13 0.120141 -1.68973 0
M  V30 36184 O 3466.34 -0.0288323 -1.79977 0
M  V30 36185 H 3462.71 -0.281039 -0.697511 0
M  V30 36186 H 3464.68 -1.86007 -2.33332 0
M  V30 36187 C 3463.43 -0.474925 -3.44441 0
M  V30 36188 H 3462.75 -1.26909 -3.79123 0
M  V30 36189 H 3464.19 -0.326236 -4.22743 0
M  V30 36190 C 3462.65 0.810573 -3.27004 0
M  V30 36191 O 3463.18 1.87269 -3.55377 0
M  V30 36192 N 3461.39 0.766664 -2.80305 0
M  V30 36193 H 3460.94 -0.0979124 -2.57414 0
M  V30 36194 H 3460.89 1.62717 -2.69018 0
M  V30 36195 N 3464.67 1.2224 -0.994741 0
M  V30 36196 C 3465.89 1.95591 -0.689843 0
M  V30 36197 C 3466.32 1.72963 0.73929 0
M  V30 36198 O 3465.67 1.00999 1.50562 0
M  V30 36199 C 3465.72 3.46349 -1.00373 0
M  V30 36200 O 3464.83 4.1227 -0.103398 0
M  V30 36201 H 3464.17 0.611823 -0.258008 0
M  V30 36202 H 3466.7 1.55284 -1.33222 0
M  V30 36203 H 3466.71 3.96874 -0.946329 0
M  V30 36204 H 3465.38 3.62144 -2.0451 0
M  V30 36205 H 3463.96 3.72271 -0.21644 0
M  V30 36206 N 3466.14 0.768172 1.37611 0
M  V30 36207 C 3467.37 0.342147 2.04051 0
M  V30 36208 C 3467.79 -1.03446 1.57938 0
M  V30 36209 O 3467.14 -1.65968 0.75901 0
M  V30 36210 C 3467.2 0.372159 3.59579 0
M  V30 36211 O 3466.92 1.69446 4.04005 0
M  V30 36212 C 3468.42 -0.0659105 4.43251 0
M  V30 36213 H 3465.64 0.143898 0.655389 0
M  V30 36214 H 3468.18 1.0411 1.76015 0
M  V30 36215 H 3466.34 -0.27818 3.864 0
M  V30 36216 H 3466.75 1.63063 4.98509 0
M  V30 36217 H 3468.22 0.00624478 5.52 0
M  V30 36218 H 3468.7 -1.1158 4.2479 0
M  V30 36219 H 3469.31 0.556104 4.21649 0
M  V30 36220 N 3467.62 -1.48829 0.518419 0
M  V30 36221 C 3468.56 -2.2625 -0.297663 0
M  V30 36222 C 3469.53 -1.31595 -0.955073 0
M  V30 36223 O 3470.72 -1.60916 -0.981748 0
M  V30 36224 C 3467.84 -3.07468 -1.42059 0
M  V30 36225 C 3466.89 -4.17411 -0.87578 0
M  V30 36226 S 3467.72 -5.34929 0.247247 0
M  V30 36227 C 3468.88 -6.19705 -0.878435 0
M  V30 36228 H 3469.11 -2.9512 0.35941 0
M  V30 36229 H 3466.65 -1.51378 0.304002 0
M  V30 36230 H 3468.6 -3.54842 -2.06391 0
M  V30 36231 H 3467.26 -2.38035 -2.04934 0
M  V30 36232 H 3466.46 -4.73821 -1.71784 0
M  V30 36233 H 3466.06 -3.72718 -0.309364 0
M  V30 36234 H 3468.35 -6.53706 -1.77975 0
M  V30 36235 H 3469.29 -7.07222 -0.352576 0
M  V30 36236 H 3469.7 -5.52586 -1.15363 0
M  V30 36237 N 3469.1 -0.253021 -1.55556 0
M  V30 36238 C 3470.35 0.370564 -1.99386 0
M  V30 36239 C 3470.68 1.57143 -1.14104 0
M  V30 36240 O 3469.95 1.93407 -0.205862 0
M  V30 36241 C 3470.24 0.774441 -3.51674 0
M  V30 36242 C 3470.09 -0.432237 -4.47718 0
M  V30 36243 C 3471.41 1.61915 -4.09233 0
M  V30 36244 H 3468.53 0.133218 -0.72486 0
M  V30 36245 H 3471.17 -0.355555 -1.86644 0
M  V30 36246 H 3469.32 1.39312 -3.62663 0
M  V30 36247 H 3470.99 -1.07071 -4.48702 0
M  V30 36248 H 3469.24 -1.07426 -4.20288 0
M  V30 36249 H 3469.91 -0.10622 -5.51898 0
M  V30 36250 H 3472.38 1.09685 -4.01383 0
M  V30 36251 H 3471.26 1.87059 -5.16043 0
M  V30 36252 H 3471.52 2.59301 -3.58072 0
M  V30 36253 N 3470.58 1.57587 0.0200142 0
M  V30 36254 C 3471.51 2.02549 1.05115 0
M  V30 36255 C 3472.49 0.911517 1.34648 0
M  V30 36256 O 3473.67 1.17807 1.47152 0
M  V30 36257 C 3470.8 2.4062 2.38369 0
M  V30 36258 C 3469.85 3.6255 2.24632 0
M  V30 36259 S 3470.68 5.11313 1.5912 0
M  V30 36260 C 3471.84 5.52635 2.93846 0
M  V30 36261 H 3472.07 2.89693 0.66822 0
M  V30 36262 H 3469.6 1.52673 0.230274 0
M  V30 36263 H 3471.56 2.63224 3.14998 0
M  V30 36264 H 3470.22 1.53911 2.73807 0
M  V30 36265 H 3469.41 3.86873 3.23025 0
M  V30 36266 H 3469.02 3.39844 1.56148 0
M  V30 36267 H 3471.31 5.53872 3.9017 0
M  V30 36268 H 3472.25 6.52836 2.74246 0
M  V30 36269 H 3472.66 4.80155 2.96835 0
M  V30 36270 N 3472.06 -0.292445 1.54863 0
M  V30 36271 C 3473.28 -1.04531 1.78552 0
M  V30 36272 C 3473.7 -1.80636 0.549193 0
M  V30 36273 O 3473.06 -1.76041 -0.481237 0
M  V30 36274 C 3473.11 -2.01918 2.99852 0
M  V30 36275 O 3472.83 -1.28899 4.18708 0
M  V30 36276 C 3474.33 -2.89174 3.35996 0
M  V30 36277 H 3471.55 -0.309642 0.595284 0
M  V30 36278 H 3474.09 -0.329123 2.01834 0
M  V30 36279 H 3472.25 -2.69027 2.78753 0
M  V30 36280 H 3472.66 -1.94374 4.87154 0
M  V30 36281 H 3474.14 -3.53342 4.24092 0
M  V30 36282 H 3474.61 -3.57926 2.5453 0
M  V30 36283 H 3475.22 -2.27584 3.59285 0
M  V30 36284 N 3473.53 -1.47465 -0.55605 0
M  V30 36285 C 3474.78 -1.53845 -1.31058 0
M  V30 36286 C 3475.1 -0.20284 -1.93942 0
M  V30 36287 O 3474.37 0.773306 -1.79991 0
M  V30 36288 H 3472.95 -0.566697 -0.486686 0
M  V30 36289 H 3475.62 -1.8377 -0.649208 0
M  V30 36290 H 3474.71 -2.30563 -2.1035 0
M  V30 36291 N 3475.01 0.802873 -1.35616 0
M  V30 36292 C 3475.95 1.92089 -1.23195 0
M  V30 36293 C 3476.92 1.62164 -0.119023 0
M  V30 36294 O 3478.11 1.8629 -0.287776 0
M  V30 36295 C 3475.24 3.26585 -0.897756 0
M  V30 36296 C 3474.28 3.75455 -2.02325 0
M  V30 36297 S 3475.11 3.92816 -3.63945 0
M  V30 36298 C 3476.27 5.30209 -3.3261 0
M  V30 36299 H 3476.5 2.02331 -2.17829 0
M  V30 36300 H 3474.04 0.960654 -1.20875 0
M  V30 36301 H 3475.99 4.04283 -0.711745 0
M  V30 36302 H 3474.66 3.14085 0.0305753 0
M  V30 36303 H 3473.85 4.72877 -1.74366 0
M  V30 36304 H 3473.45 3.04767 -2.16779 0
M  V30 36305 H 3475.74 6.14329 -2.85669 0
M  V30 36306 H 3476.69 5.63164 -4.29246 0
M  V30 36307 H 3477.09 4.96671 -2.68287 0
M  V30 36308 N 3476.49 1.19674 1.02547 0
M  V30 36309 C 3477.91 0.949692 1.28269 0
M  V30 36310 C 3478.11 -0.375955 1.97962 0
M  V30 36311 O 3477.16 -1.10664 2.26957 0
M  V30 36312 C 3478.48 2.12611 2.12643 0
M  V30 36313 C 3480.02 2.16611 2.2594 0
M  V30 36314 C 3480.5 3.33713 3.13687 0
M  V30 36315 N 3481.99 3.33671 3.21275 0
M  V30 36316 C 3482.73 4.20926 3.8937 0
M  V30 36317 N 3482.22 5.18342 4.59666 0
M  V30 36318 N 3484.01 4.08793 3.85804 0
M  V30 36319 H 3476.17 2.04959 0.557268 0
M  V30 36320 H 3478.43 0.896394 0.308515 0
M  V30 36321 H 3478.13 3.08566 1.6876 0
M  V30 36322 H 3478.01 2.0996 3.13363 0
M  V30 36323 H 3480.4 1.21225 2.69051 0
M  V30 36324 H 3480.48 2.23314 1.24758 0
M  V30 36325 H 3480.12 4.29381 2.71283 0
M  V30 36326 H 3480.05 3.24247 4.14935 0
M  V30 36327 H 3482.54 2.63157 2.71214 0
M  V30 36328 H 3482.85 5.81263 5.09267 0
M  V30 36329 H 3481.2 5.22288 4.5852 0
M  V30 36330 H 3484.39 3.31963 3.30028 0
M  V30 36331 H 3484.56 4.77007 4.38599 0
M  V30 36332 N 3477.97 -1.21711 1.00121 0
M  V30 36333 C 3479.22 -1.89993 0.677164 0
M  V30 36334 C 3479.53 -1.7871 -0.795117 0
M  V30 36335 O 3480.74 -2.41984 -1.23109 0
M  V30 36336 C 3479.19 -3.40669 1.16071 0
M  V30 36337 C 3478.8 -3.60572 2.6588 0
M  V30 36338 C 3480.55 -4.14601 0.911375 0
M  V30 36339 C 3478.45 -5.04992 3.07794 0
M  V30 36340 H 3477.38 -0.711494 0.249585 0
M  V30 36341 H 3480.03 -1.37789 1.21187 0
M  V30 36342 H 3478.42 -3.92105 0.554074 0
M  V30 36343 H 3479.59 -3.19592 3.3196 0
M  V30 36344 H 3477.9 -2.99986 2.88786 0
M  V30 36345 H 3480.5 -5.21057 1.20013 0
M  V30 36346 H 3480.84 -4.16021 -0.152422 0
M  V30 36347 H 3481.38 -3.69219 1.48061 0
M  V30 36348 H 3478.12 -5.08717 4.13385 0
M  V30 36349 H 3477.64 -5.46841 2.46423 0
M  V30 36350 H 3479.32 -5.73473 2.99562 0
M  V30 36351 N 3479.45 -0.775459 -1.37202 0
M  V30 36352 C 3480.38 -0.122414 -2.28873 0
M  V30 36353 C 3481.39 0.660213 -1.48812 0
M  V30 36354 O 3482.58 0.497694 -1.71421 0
M  V30 36355 C 3479.68 0.850154 -3.28063 0
M  V30 36356 C 3478.85 0.120556 -4.37234 0
M  V30 36357 C 3477.91 1.00703 -5.16474 0
M  V30 36358 O 3476.94 0.469429 -5.67261 0
M  V30 36359 N 3478.14 2.33289 -5.3156 0
M  V30 36360 H 3480.91 -0.909792 -2.85557 0
M  V30 36361 H 3478.47 -0.628133 -1.49218 0
M  V30 36362 H 3480.46 1.44671 -3.77958 0
M  V30 36363 H 3479.03 1.53848 -2.7212 0
M  V30 36364 H 3478.25 -0.656947 -3.88687 0
M  V30 36365 H 3479.54 -0.383447 -5.07353 0
M  V30 36366 H 3478.94 2.79397 -4.91888 0
M  V30 36367 H 3477.49 2.87943 -5.8475 0
M  V30 36368 N 3480.93 1.48552 -0.526305 0
M  V30 36369 C 3482.17 2.01697 0.0111118 0
M  V30 36370 C 3482.49 1.40898 1.35673 0
M  V30 36371 O 3483.69 1.85519 1.9823 0
M  V30 36372 C 3482.15 3.59832 0.0702088 0
M  V30 36373 C 3481.76 4.29613 -1.27029 0
M  V30 36374 C 3483.5 4.20834 0.556648 0
M  V30 36375 C 3481.41 5.79671 -1.17198 0
M  V30 36376 H 3480.34 0.753958 0.00792372 0
M  V30 36377 H 3482.99 1.70849 -0.669533 0
M  V30 36378 H 3481.37 3.87505 0.815851 0
M  V30 36379 H 3482.55 4.13616 -2.03121 0
M  V30 36380 H 3480.86 3.80466 -1.69217 0
M  V30 36381 H 3483.46 5.30758 0.648112 0
M  V30 36382 H 3483.8 3.85903 1.56156 0
M  V30 36383 H 3484.33 3.97577 -0.133202 0
M  V30 36384 H 3481.07 6.19171 -2.15193 0
M  V30 36385 H 3480.59 5.98092 -0.452364 0
M  V30 36386 H 3482.27 6.41244 -0.861123 0
M  V30 36387 N 3482.4 0.261267 1.55419 0
M  V30 36388 C 3483.65 -0.358742 1.98891 0
M  V30 36389 C 3483.97 -1.57411 1.15095 0
M  V30 36390 O 3483.24 -1.9446 0.237129 0
M  V30 36391 H 3481.82 -0.135537 0.734601 0
M  V30 36392 H 3484.48 0.36339 1.91482 0
M  V30 36393 H 3483.58 -0.658088 3.05083 0
M  V30 36394 N 3483.88 -1.57596 -0.0116567 0
M  V30 36395 C 3485.11 -1.94328 -0.710226 0
M  V30 36396 C 3485.52 -0.862447 -1.6795 0
M  V30 36397 O 3484.88 0.159666 -1.818 0
M  V30 36398 C 3484.93 -3.31048 -1.45222 0
M  V30 36399 O 3484.65 -4.34981 -0.521834 0
M  V30 36400 C 3486.15 -3.82169 -2.24637 0
M  V30 36401 H 3483.37 -0.640952 -0.198548 0
M  V30 36402 H 3485.92 -2.04468 0.0359974 0
M  V30 36403 H 3484.07 -3.22252 -2.15018 0
M  V30 36404 H 3484.49 -5.14004 -1.04406 0
M  V30 36405 H 3485.96 -4.80294 -2.7207 0
M  V30 36406 H 3486.44 -3.14266 -3.06812 0
M  V30 36407 H 3487.04 -3.94104 -1.59882 0
M  V30 36408 N 3485.36 0.284228 -1.55016 0
M  V30 36409 C 3486.29 1.37307 -1.8352 0
M  V30 36410 C 3487.3 1.46061 -0.719034 0
M  V30 36411 O 3488.49 1.48079 -0.996745 0
M  V30 36412 C 3485.59 2.75536 -1.97314 0
M  V30 36413 C 3484.77 2.89512 -3.27875 0
M  V30 36414 C 3483.83 4.08345 -3.31875 0
M  V30 36415 O 3482.85 3.99634 -4.05316 0
M  V30 36416 N 3484.05 5.19783 -2.58469 0
M  V30 36417 H 3486.82 1.13205 -2.77497 0
M  V30 36418 H 3484.38 0.474332 -1.54796 0
M  V30 36419 H 3486.37 3.53307 -1.97373 0
M  V30 36420 H 3484.94 2.92511 -1.10254 0
M  V30 36421 H 3484.16 1.98716 -3.40449 0
M  V30 36422 H 3485.45 2.95772 -4.14001 0
M  V30 36423 H 3484.85 5.29744 -1.98464 0
M  V30 36424 H 3483.4 5.95826 -2.64263 0
M  V30 36425 N 3486.84 1.47758 0.548222 0
M  V30 36426 C 3487.8 1.60459 1.63663 0
M  V30 36427 C 3488.8 0.479055 1.53498 0
M  V30 36428 O 3489.99 0.74437 1.57495 0
M  V30 36429 C 3487.12 1.55759 3.03236 0
M  V30 36430 H 3488.32 2.57491 1.53748 0
M  V30 36431 H 3485.87 1.36082 0.768858 0
M  V30 36432 H 3486.6 0.601359 3.18676 0
M  V30 36433 H 3486.39 2.37454 3.12023 0
M  V30 36434 H 3487.88 1.67803 3.82403 0
M  V30 36435 N 3488.32 -0.79567 1.3604 0
M  V30 36436 C 3489.56 -1.54843 1.29254 0
M  V30 36437 C 3489.88 -1.95181 -0.127892 0
M  V30 36438 O 3491.08 -2.6963 -0.318093 0
M  V30 36439 C 3489.54 -2.79493 2.26741 0
M  V30 36440 C 3489.15 -2.46349 3.74187 0
M  V30 36441 C 3490.89 -3.57486 2.2892 0
M  V30 36442 C 3488.8 -3.67357 4.63469 0
M  V30 36443 H 3487.73 -0.581246 0.48028 0
M  V30 36444 H 3490.38 -0.873664 1.61367 0
M  V30 36445 H 3488.76 -3.48736 1.87614 0
M  V30 36446 H 3489.94 -1.85042 4.22014 0
M  V30 36447 H 3488.25 -1.8158 3.74724 0
M  V30 36448 H 3490.85 -4.47383 2.92836 0
M  V30 36449 H 3491.19 -3.95614 1.29597 0
M  V30 36450 H 3491.72 -2.95215 2.66632 0
M  V30 36451 H 3488.46 -3.34329 5.6383 0
M  V30 36452 H 3487.98 -4.27851 4.20361 0
M  V30 36453 H 3489.66 -4.34459 4.79432 0
M  V30 36454 N 3489.79 -1.20217 -1.0191 0
M  V30 36455 C 3490.7 -0.964365 -2.13862 0
M  V30 36456 C 3491.72 0.0789251 -1.73821 0
M  V30 36457 O 3492.9 -0.107949 -2.0111 0
M  V30 36458 C 3489.96 -0.516817 -3.42826 0
M  V30 36459 C 3489.02 -1.63066 -3.97125 0
M  V30 36460 C 3488.26 -1.20437 -5.19933 0
M  V30 36461 O 3488.48 -0.0720121 -5.70355 0
M  V30 36462 O 3487.41 -2.01081 -5.67318 0
M  V30 36463 H 3491.24 -1.90166 -2.36792 0
M  V30 36464 H 3488.82 -0.985823 -1.12258 0
M  V30 36465 H 3490.71 -0.276346 -4.20493 0
M  V30 36466 H 3489.38 0.391926 -3.21319 0
M  V30 36467 H 3488.29 -1.92539 -3.20749 0
M  V30 36468 H 3489.62 -2.51632 -4.23016 0
M  V30 36469 N 3491.27 1.21178 -1.00765 0
M  V30 36470 C 3492.69 1.42389 -0.72093 0
M  V30 36471 C 3492.89 1.88843 0.702885 0
M  V30 36472 O 3491.94 2.05164 1.47187 0
M  V30 36473 C 3493.26 2.45312 -1.73904 0
M  V30 36474 C 3494.81 2.59091 -1.75616 0
M  V30 36475 C 3495.28 3.65248 -2.76329 0
M  V30 36476 N 3496.77 3.72722 -2.75014 0
M  V30 36477 C 3497.51 4.54496 -3.49602 0
M  V30 36478 N 3497 5.40145 -4.33838 0
M  V30 36479 N 3498.8 4.48944 -3.3824 0
M  V30 36480 H 3490.95 0.89337 -1.92698 0
M  V30 36481 H 3493.21 0.454591 -0.831896 0
M  V30 36482 H 3492.92 2.18157 -2.75863 0
M  V30 36483 H 3492.79 3.44158 -1.54386 0
M  V30 36484 H 3495.18 2.85581 -0.743467 0
M  V30 36485 H 3495.26 1.6047 -1.99206 0
M  V30 36486 H 3494.9 3.39503 -3.77757 0
M  V30 36487 H 3494.83 4.63471 -2.50004 0
M  V30 36488 H 3497.32 3.11535 -2.13903 0
M  V30 36489 H 3497.64 5.99603 -4.87541 0
M  V30 36490 H 3495.98 5.39677 -4.37919 0
M  V30 36491 H 3499.17 3.81063 -2.71861 0
M  V30 36492 H 3499.34 5.12438 -3.96624 0
M  V30 36493 N 3492.75 0.782725 1.36789 0
M  V30 36494 C 3493.71 0.182566 2.28472 0
M  V30 36495 C 3494.71 -0.616191 1.48525 0
M  V30 36496 O 3495.9 -0.438168 1.68599 0
M  V30 36497 C 3493.04 -0.748143 3.32589 0
M  V30 36498 H 3494.23 0.990899 2.83057 0
M  V30 36499 H 3491.78 0.551684 1.4624 0
M  V30 36500 H 3492.52 -1.58107 2.83148 0
M  V30 36501 H 3492.3 -0.177412 3.91698 0
M  V30 36502 H 3493.79 -1.16314 4.01075 0
M  V30 36503 N 3494.23 -1.48271 0.534176 0
M  V30 36504 C 3495.64 -1.86459 0.0947919 0
M  V30 36505 C 3495.99 -1.4433 -1.32903 0
M  V30 36506 O 3495.12 -0.835901 -1.99604 0
M  V30 36507 C 3495.71 -3.38397 0.165249 0
M  V30 36508 C 3494.27 -3.75763 -0.218963 0
M  V30 36509 C 3493.42 -2.72321 0.523145 0
M  V30 36510 H 3496.37 -1.40116 0.745194 0
M  V30 36511 H 3496.39 -3.75382 -0.621999 0
M  V30 36512 H 3495.9 -3.69029 1.20164 0
M  V30 36513 H 3494 -3.50745 -1.25734 0
M  V30 36514 H 3494.11 -4.78941 0.123566 0
M  V30 36515 H 3492.48 -2.54681 -0.0310875 0
M  V30 36516 H 3493.26 -3.05796 1.56025 0
M  V30 36517 N 3495.71 -0.269505 -1.55279 0
M  V30 36518 C 3496.93 0.355277 -2.04334 0
M  V30 36519 C 3497.36 1.49098 -1.14679 0
M  V30 36520 O 3496.71 1.80725 -0.144247 0
M  V30 36521 C 3496.76 0.819101 -3.51174 0
M  V30 36522 O 3495.87 1.92684 -3.64619 0
M  V30 36523 H 3495.21 0.0743113 -0.659829 0
M  V30 36524 H 3497.74 -0.402166 -2.00609 0
M  V30 36525 H 3497.75 1.11635 -3.9243 0
M  V30 36526 H 3496.42 -0.0118552 -4.15898 0
M  V30 36527 H 3495 1.63255 -3.35264 0
M  V30 36528 N 3497.18 1.576 0.00329885 0
M  V30 36529 C 3498.41 1.9442 0.698896 0
M  V30 36530 C 3498.82 0.869829 1.6802 0
M  V30 36531 O 3498.17 -0.160161 1.83 0
M  V30 36532 C 3498.23 3.27207 1.48915 0
M  V30 36533 C 3497.89 4.52065 0.669794 0
M  V30 36534 C 3498.89 5.19884 -0.0411071 0
M  V30 36535 C 3496.57 4.98499 0.616737 0
M  V30 36536 C 3498.57 6.32434 -0.794087 0
M  V30 36537 C 3496.25 6.1094 -0.139971 0
M  V30 36538 C 3497.25 6.77764 -0.84412 0
M  V30 36539 O 3496.94 7.8805 -1.58849 0
M  V30 36540 H 3496.67 0.645789 0.199832 0
M  V30 36541 H 3499.23 2.05355 -0.0429395 0
M  V30 36542 H 3497.46 3.12671 2.27539 0
M  V30 36543 H 3499.15 3.49164 2.06977 0
M  V30 36544 H 3499.91 4.84999 -0.00924806 0
M  V30 36545 H 3495.79 4.46314 1.15434 0
M  V30 36546 H 3499.33 6.84526 -1.34423 0
M  V30 36547 H 3495.23 6.45266 -0.173663 0
M  V30 36548 H 3496 8.04547 -1.50485 0
M  V30 36549 N 3498.66 -0.276003 1.55164 0
M  V30 36550 C 3499.91 -1.00577 1.74835 0
M  V30 36551 C 3500.22 -1.87557 0.555122 0
M  V30 36552 O 3501.43 -2.6399 0.634174 0
M  V30 36553 C 3499.89 -1.83813 3.0942 0
M  V30 36554 C 3499.49 -1.01714 4.36301 0
M  V30 36555 C 3501.24 -2.56238 3.38441 0
M  V30 36556 C 3499.15 -1.8437 5.61927 0
M  V30 36557 H 3498.08 -0.379243 0.651683 0
M  V30 36558 H 3500.73 -0.261579 1.81626 0
M  V30 36559 H 3499.11 -2.62316 2.96659 0
M  V30 36560 H 3500.28 -0.276484 4.5997 0
M  V30 36561 H 3498.6 -0.407572 4.14401 0
M  V30 36562 H 3501.19 -3.18478 4.29507 0
M  V30 36563 H 3501.54 -3.26367 2.58438 0
M  V30 36564 H 3502.07 -1.84766 3.52287 0
M  V30 36565 H 3498.81 -1.18667 6.44669 0
M  V30 36566 H 3498.33 -2.56041 5.42405 0
M  V30 36567 H 3500.01 -2.41809 6.00114 0
M  V30 36568 N 3500.14 -1.48046 -0.540378 0
M  V30 36569 C 3501.05 -1.64457 -1.67305 0
M  V30 36570 C 3502.07 -0.527181 -1.65822 0
M  V30 36571 O 3503.24 -0.796914 -1.84963 0
M  V30 36572 C 3500.31 -1.67073 -3.03789 0
M  V30 36573 C 3499.37 -2.90363 -3.16208 0
M  V30 36574 C 3498.6 -2.92844 -4.46181 0
M  V30 36575 O 3498.82 -2.04038 -5.32658 0
M  V30 36576 O 3497.76 -3.849 -4.62748 0
M  V30 36577 H 3501.58 -2.60333 -1.56398 0
M  V30 36578 H 3499.17 -1.31327 -0.7123 0
M  V30 36579 H 3501.05 -1.71374 -3.84979 0
M  V30 36580 H 3499.73 -0.743685 -3.15041 0
M  V30 36581 H 3498.63 -2.91599 -2.34352 0
M  V30 36582 H 3499.97 -3.82418 -3.09867 0
M  V30 36583 N 3501.62 0.788444 -1.3646 0
M  V30 36584 C 3502.87 1.54155 -1.30073 0
M  V30 36585 C 3503.18 1.95247 0.117539 0
M  V30 36586 O 3504.39 2.69795 0.30379 0
M  V30 36587 C 3502.84 2.78287 -2.2822 0
M  V30 36588 C 3502.45 2.44361 -3.75489 0
M  V30 36589 C 3504.19 3.56267 -2.30812 0
M  V30 36590 C 3502.1 3.64893 -4.6541 0
M  V30 36591 H 3501.03 0.578691 -0.483355 0
M  V30 36592 H 3503.68 0.865094 -1.61828 0
M  V30 36593 H 3502.06 3.47737 -1.8946 0
M  V30 36594 H 3503.24 1.82802 -4.2299 0
M  V30 36595 H 3501.55 1.7959 -3.75681 0
M  V30 36596 H 3504.15 4.45824 -2.95204 0
M  V30 36597 H 3504.49 3.94921 -1.31694 0
M  V30 36598 H 3505.03 2.93797 -2.68194 0
M  V30 36599 H 3501.77 3.31334 -5.65595 0
M  V30 36600 H 3501.29 4.25615 -4.22625 0
M  V30 36601 H 3502.96 4.3191 -4.81729 0
M  V30 36602 N 3503.1 1.20755 1.01271 0
M  V30 36603 C 3504.34 1.02008 1.7493 0
M  V30 36604 C 3504.67 -0.447338 1.89286 0
M  V30 36605 O 3503.93 -1.34832 1.41841 0
M  V30 36606 C 3504.23 1.65334 3.16859 0
M  V30 36607 C 3503.89 3.15157 3.2247 0
M  V30 36608 C 3502.55 3.56042 3.23709 0
M  V30 36609 C 3504.91 4.11146 3.20325 0
M  V30 36610 C 3502.23 4.91437 3.20479 0
M  V30 36611 C 3504.59 5.46492 3.18636 0
M  V30 36612 C 3503.25 5.86786 3.1818 0
M  V30 36613 H 3502.52 0.373275 0.640115 0
M  V30 36614 H 3505.17 1.50236 1.18749 0
M  V30 36615 H 3503.47 1.09378 3.76223 0
M  V30 36616 H 3505.17 1.4834 3.72554 0
M  V30 36617 H 3501.76 2.82589 3.22244 0
M  V30 36618 H 3505.94 3.80591 3.18535 0
M  V30 36619 H 3501.2 5.21914 3.18459 0
M  V30 36620 H 3505.37 6.20614 3.15929 0
M  V30 36621 H 3503 6.9167 3.15431 0
M  V30 36622 N 3504.58 -1.20642 1.01406 0
M  V30 36623 C 3505.82 -1.8957 0.700556 0
M  V30 36624 C 3506.14 -1.7907 -0.771947 0
M  V30 36625 O 3505.41 -1.19145 -1.55503 0
M  V30 36626 H 3503.99 -0.701715 0.256134 0
M  V30 36627 H 3506.66 -1.46529 1.28512 0
M  V30 36628 H 3505.75 -2.96258 0.981717 0
M  V30 36629 N 3506.05 -0.789968 -1.36372 0
M  V30 36630 C 3507.47 -0.471713 -1.5247 0
M  V30 36631 C 3507.67 1.00987 -1.74367 0
M  V30 36632 O 3506.73 1.79535 -1.77549 0
M  V30 36633 C 3508.04 -1.30263 -2.7102 0
M  V30 36634 C 3509.59 -1.29638 -2.84891 0
M  V30 36635 C 3510.06 -2.11105 -4.06446 0
M  V30 36636 N 3511.55 -2.08554 -4.13593 0
M  V30 36637 C 3512.29 -2.68359 -5.06726 0
M  V30 36638 N 3511.78 -3.37024 -6.05299 0
M  V30 36639 N 3513.58 -2.5809 -4.99346 0
M  V30 36640 H 3505.73 -1.7497 -1.20413 0
M  V30 36641 H 3507.99 -0.743795 -0.587769 0
M  V30 36642 H 3507.7 -2.35334 -2.61363 0
M  V30 36643 H 3507.57 -0.944318 -3.65188 0
M  V30 36644 H 3509.96 -0.253594 -2.94008 0
M  V30 36645 H 3510.04 -1.69446 -1.91629 0
M  V30 36646 H 3509.68 -3.15415 -3.9809 0
M  V30 36647 H 3509.61 -1.68667 -4.98858 0
M  V30 36648 H 3512.1 -1.58579 -3.43017 0
M  V30 36649 H 3512.42 -3.79986 -6.72927 0
M  V30 36650 H 3510.76 -3.41126 -6.05523 0
M  V30 36651 H 3513.95 -2.04046 -4.21287 0
M  V30 36652 H 3514.13 -3.04989 -5.71739 0
M  V30 36653 N 3507.53 1.47986 -0.542031 0
M  V30 36654 C 3508.76 2.06893 -0.0167534 0
M  V30 36655 C 3509.17 1.3969 1.27013 0
M  V30 36656 O 3508.53 0.488357 1.75845 0
M  V30 36657 C 3508.58 3.60955 0.198373 0
M  V30 36658 O 3508.3 4.25637 -1.03753 0
M  V30 36659 C 3509.8 4.3669 0.762664 0
M  V30 36660 H 3507.02 0.669868 -0.0389614 0
M  V30 36661 H 3509.57 1.90206 -0.751115 0
M  V30 36662 H 3507.72 3.77207 0.882817 0
M  V30 36663 H 3508.14 5.17959 -0.825771 0
M  V30 36664 H 3509.61 5.45219 0.862553 0
M  V30 36665 H 3510.09 4.01936 1.77042 0
M  V30 36666 H 3510.69 4.25146 0.114403 0
M  V30 36667 N 3509.01 0.277736 1.55133 0
M  V30 36668 C 3509.94 -0.65002 2.18746 0
M  V30 36669 C 3510.92 -1.15027 1.14924 0
M  V30 36670 O 3512.1 -1.22276 1.4346 0
M  V30 36671 C 3509.23 -1.88678 2.8128 0
M  V30 36672 C 3508.28 -1.52178 3.98427 0
M  V30 36673 S 3509.11 -0.597689 5.32154 0
M  V30 36674 C 3510.27 -1.84276 5.98158 0
M  V30 36675 H 3510.5 -0.109519 2.97098 0
M  V30 36676 H 3508.03 0.0619807 1.54276 0
M  V30 36677 H 3509.99 -2.59663 3.17939 0
M  V30 36678 H 3508.65 -2.39842 2.02817 0
M  V30 36679 H 3507.84 -2.44212 4.40881 0
M  V30 36680 H 3507.45 -0.892082 3.63205 0
M  V30 36681 H 3509.74 -2.78635 6.17551 0
M  V30 36682 H 3510.68 -1.46119 6.9286 0
M  V30 36683 H 3511.09 -2.00889 5.27545 0
M  V30 36684 N 3510.49 -1.57599 0.00505908 0
M  V30 36685 C 3511.42 -2.056 -1.01299 0
M  V30 36686 C 3512.43 -0.974852 -1.30386 0
M  V30 36687 O 3513.62 -1.25155 -1.27273 0
M  V30 36688 C 3510.72 -2.44526 -2.34649 0
M  V30 36689 C 3509.89 -3.75434 -2.24429 0
M  V30 36690 C 3508.95 -4.01172 -3.4051 0
M  V30 36691 O 3507.98 -4.71768 -3.18471 0
M  V30 36692 N 3509.18 -3.49462 -4.63526 0
M  V30 36693 H 3511.95 -2.93559 -0.603604 0
M  V30 36694 H 3509.51 -1.60871 -0.18222 0
M  V30 36695 H 3511.5 -2.58855 -3.11089 0
M  V30 36696 H 3510.07 -1.62059 -2.67312 0
M  V30 36697 H 3509.29 -3.71133 -1.32868 0
M  V30 36698 H 3510.58 -4.61246 -2.14778 0
M  V30 36699 H 3509.98 -2.92304 -4.84329 0
M  V30 36700 H 3508.53 -3.69113 -5.37214 0
M  V30 36701 N 3511.97 0.267771 -1.55309 0
M  V30 36702 C 3512.9 1.33522 -1.91557 0
M  V30 36703 C 3513.88 1.51264 -0.778028 0
M  V30 36704 O 3515.06 1.6422 -1.0366 0
M  V30 36705 C 3512.19 2.69381 -2.19206 0
M  V30 36706 C 3511.15 2.66363 -3.35014 0
M  V30 36707 C 3510.47 4.05823 -3.48155 0
M  V30 36708 C 3511.77 2.25174 -4.71268 0
M  V30 36709 H 3513.47 1.03432 -2.80966 0
M  V30 36710 H 3511.01 0.496117 -1.35184 0
M  V30 36711 H 3512.96 3.44173 -2.43152 0
M  V30 36712 H 3511.69 3.01064 -1.26601 0
M  V30 36713 H 3510.35 1.94028 -3.11044 0
M  V30 36714 H 3510 4.34737 -2.53007 0
M  V30 36715 H 3509.7 4.04697 -4.26021 0
M  V30 36716 H 3511.22 4.82346 -3.74399 0
M  V30 36717 H 3512.63 2.8969 -4.94724 0
M  V30 36718 H 3511.03 2.352 -5.52088 0
M  V30 36719 H 3512.1 1.20311 -4.69738 0
M  V30 36720 N 3513.44 1.48331 0.532519 0
M  V30 36721 C 3514.39 1.63106 1.65829 0
M  V30 36722 C 3515.39 0.497566 1.61928 0
M  V30 36723 O 3516.59 0.676205 1.66816 0
M  V30 36724 H 3512.97 0.513757 0.549143 0
M  V30 36725 H 3514.94 2.57661 1.5051 0
M  V30 36726 C 3513.69 1.6856 3.0411 0
M  V30 36727 H 3513.01 2.5514 3.07804 0
M  V30 36728 H 3514.45 1.82942 3.82502 0
M  V30 36729 C 3512.91 0.42377 3.34224 0
M  V30 36730 O 3513.44 -0.464453 3.99006 0
M  V30 36731 N 3511.64 0.296242 2.89086 0
M  V30 36732 H 3511.19 1.02001 2.36545 0
M  V30 36733 H 3511.15 -0.547027 3.09605 0
M  V30 36734 N 3514.92 -0.781196 1.36876 0
M  V30 36735 C 3515.85 -1.90828 1.34563 0
M  V30 36736 C 3516.83 -1.68726 0.215743 0
M  V30 36737 O 3518.02 -1.89722 0.414653 0
M  V30 36738 C 3515.15 -3.27974 1.14239 0
M  V30 36739 C 3514.1 -3.64617 2.24139 0
M  V30 36740 C 3513.43 -5.00202 1.88949 0
M  V30 36741 C 3514.73 -3.72346 3.66273 0
M  V30 36742 H 3516.42 -1.93021 2.28874 0
M  V30 36743 H 3513.97 -0.927256 1.10172 0
M  V30 36744 H 3515.92 -4.06449 1.11253 0
M  V30 36745 H 3514.64 -3.26189 0.163804 0
M  V30 36746 H 3513.3 -2.88444 2.26264 0
M  V30 36747 H 3512.95 -4.94947 0.896438 0
M  V30 36748 H 3512.65 -5.25689 2.62534 0
M  V30 36749 H 3514.18 -5.81088 1.87533 0
M  V30 36750 H 3515.59 -4.40994 3.66329 0
M  V30 36751 H 3513.99 -4.09324 4.38832 0
M  V30 36752 H 3515.06 -2.73243 4.00582 0
M  V30 36753 N 3516.4 -1.21291 -1.0063 0
M  V30 36754 C 3517.62 -1.05604 -1.78501 0
M  V30 36755 C 3518.05 0.389847 -1.84016 0
M  V30 36756 O 3517.41 1.28118 -1.28279 0
M  V30 36757 C 3517.46 -1.65631 -3.2031 0
M  V30 36758 O 3516.56 -0.900912 -4.02439 0
M  V30 36759 H 3515.9 -0.371755 -0.550176 0
M  V30 36760 H 3518.43 -1.60805 -1.26502 0
M  V30 36761 H 3518.44 -1.69798 -3.70989 0
M  V30 36762 H 3517.12 -2.70855 -3.15611 0
M  V30 36763 H 3515.69 -0.934241 -3.61007 0
M  V30 36764 N 3517.88 1.20103 -1.02045 0
M  V30 36765 C 3519.29 1.41617 -0.735992 0
M  V30 36766 C 3519.49 1.89578 0.682816 0
M  V30 36767 O 3518.55 2.06713 1.45003 0
M  V30 36768 C 3519.86 2.43453 -1.76496 0
M  V30 36769 C 3521.41 2.57214 -1.78354 0
M  V30 36770 C 3521.89 3.62297 -2.80188 0
M  V30 36771 N 3523.38 3.69784 -2.78952 0
M  V30 36772 C 3524.11 4.50762 -3.54403 0
M  V30 36773 N 3523.61 5.35513 -4.39542 0
M  V30 36774 N 3525.4 4.45331 -3.42982 0
M  V30 36775 H 3517.55 0.872882 -1.93635 0
M  V30 36776 H 3519.81 0.445742 -0.836671 0
M  V30 36777 H 3519.52 2.15218 -2.78162 0
M  V30 36778 H 3519.39 3.42501 -1.58028 0
M  V30 36779 H 3521.78 2.84777 -0.773715 0
M  V30 36780 H 3521.86 1.58348 -2.00897 0
M  V30 36781 H 3521.51 3.35477 -3.81337 0
M  V30 36782 H 3521.44 4.60793 -2.54906 0
M  V30 36783 H 3523.93 3.09249 -2.17195 0
M  V30 36784 H 3524.24 5.94398 -4.93873 0
M  V30 36785 H 3522.59 5.35002 -4.43619 0
M  V30 36786 H 3525.78 3.78158 -2.75888 0
M  V30 36787 H 3525.95 5.08203 -4.02037 0
M  V30 36788 N 3519.36 0.797189 1.35951 0
M  V30 36789 C 3520.58 0.384245 2.0381 0
M  V30 36790 C 3521.01 -0.993826 1.59702 0
M  V30 36791 O 3520.36 -1.64175 0.769177 0
M  V30 36792 C 3520.41 0.465116 3.57588 0
M  V30 36793 O 3519.52 -0.525023 4.09044 0
M  V30 36794 H 3518.86 0.161923 0.643954 0
M  V30 36795 H 3521.39 1.08046 1.73745 0
M  V30 36796 H 3521.4 0.331519 4.06651 0
M  V30 36797 H 3520.07 1.47034 3.89042 0
M  V30 36798 H 3518.65 -0.352444 3.71231 0
M  V30 36799 N 3520.83 -1.47696 0.549872 0
M  V30 36800 C 3522.25 -1.58224 0.209113 0
M  V30 36801 C 3522.45 -1.54943 -1.28821 0
M  V30 36802 O 3521.51 -1.44897 -2.06788 0
M  V30 36803 C 3522.82 -2.89039 0.829269 0
M  V30 36804 C 3524.37 -3.02608 0.799824 0
M  V30 36805 C 3524.84 -4.36113 1.39892 0
M  V30 36806 N 3526.33 -4.4273 1.36177 0
M  V30 36807 C 3527.07 -5.44579 1.79502 0
M  V30 36808 N 3526.56 -6.53279 2.30648 0
M  V30 36809 N 3528.36 -5.3558 1.70617 0
M  V30 36810 H 3520.51 -1.48072 1.52278 0
M  V30 36811 H 3522.77 -0.704271 0.634591 0
M  V30 36812 H 3522.48 -2.97155 1.88128 0
M  V30 36813 H 3522.35 -3.75857 0.317982 0
M  V30 36814 H 3524.74 -2.94094 -0.243473 0
M  V30 36815 H 3524.82 -2.17351 1.34879 0
M  V30 36816 H 3524.46 -4.45383 2.44124 0
M  V30 36817 H 3524.39 -5.2009 0.825454 0
M  V30 36818 H 3526.88 -3.64768 0.987569 0
M  V30 36819 H 3527.2 -7.27158 2.6165 0
M  V30 36820 H 3525.54 -6.54188 2.34655 0
M  V30 36821 H 3528.73 -4.49558 1.30442 0
M  V30 36822 H 3528.91 -6.14818 2.04701 0
M  V30 36823 N 3522.31 -0.285959 -1.54984 0
M  V30 36824 C 3523.56 0.321127 -2.00849 0
M  V30 36825 C 3523.91 1.5267 -1.17088 0
M  V30 36826 O 3523.21 1.90147 -0.235556 0
M  V30 36827 C 3523.4 0.743438 -3.49582 0
M  V30 36828 C 3523.23 -0.419665 -4.47738 0
M  V30 36829 C 3522 -0.906908 -4.97095 0
M  V30 36830 C 3524.2 -1.25972 -4.98634 0
M  V30 36831 N 3522.18 -2.03834 -5.79072 0
M  V30 36832 C 3523.55 -2.23888 -5.78165 0
M  V30 36833 C 3525.61 -1.29182 -4.8085 0
M  V30 36834 C 3524.31 -3.24771 -6.41807 0
M  V30 36835 C 3526.33 -2.28916 -5.45299 0
M  V30 36836 C 3525.7 -3.25563 -6.2465 0
M  V30 36837 H 3521.8 0.0823815 -0.777649 0
M  V30 36838 H 3524.38 -0.412452 -1.90281 0
M  V30 36839 H 3522.55 1.44622 -3.60471 0
M  V30 36840 H 3524.28 1.32878 -3.82264 0
M  V30 36841 H 3521.04 -0.484388 -4.71116 0
M  V30 36842 H 3521.46 -2.60801 -6.2475 0
M  V30 36843 H 3526.1 -0.558392 -4.19096 0
M  V30 36844 H 3523.82 -3.99042 -7.02703 0
M  V30 36845 H 3527.41 -2.32155 -5.33475 0
M  V30 36846 H 3526.29 -4.01474 -6.73638 0
M  V30 36847 N 3523.79 1.57594 -0.0134169 0
M  V30 36848 C 3525.04 1.91144 0.6686 0
M  V30 36849 C 3525.37 0.888329 1.73029 0
M  V30 36850 O 3524.62 -0.105021 1.95418 0
M  V30 36851 C 3524.92 3.31441 1.33723 0
M  V30 36852 C 3524.59 4.49055 0.407448 0
M  V30 36853 C 3523.25 4.80961 0.151489 0
M  V30 36854 C 3525.6 5.20684 -0.231927 0
M  V30 36855 C 3522.93 5.81862 -0.751914 0
M  V30 36856 C 3525.28 6.22547 -1.12329 0
M  V30 36857 C 3523.94 6.52903 -1.38829 0
M  V30 36858 H 3523.21 0.699445 0.244658 0
M  V30 36859 H 3525.86 1.91365 -0.0718212 0
M  V30 36860 H 3524.17 3.27406 2.15203 0
M  V30 36861 H 3525.86 3.54664 1.87122 0
M  V30 36862 H 3522.45 4.24134 0.617117 0
M  V30 36863 H 3526.64 4.96278 -0.0472141 0
M  V30 36864 H 3521.89 6.03735 -0.965097 0
M  V30 36865 H 3526.07 6.77176 -1.625 0
M  V30 36866 H 3523.69 7.30906 -2.08999 0
M  V30 36867 N 3525.27 -0.259531 1.55448 0
M  V30 36868 C 3526.55 -1.0114 1.67422 0
M  V30 36869 C 3526.93 -2.03821 0.549561 0
M  V30 36870 O 3526.27 -2.24052 -0.44866 0
M  V30 36871 C 3526.48 -1.65611 3.07203 0
M  V30 36872 C 3527.83 -2.1627 3.65393 0
M  V30 36873 O 3528.86 -1.75574 3.09923 0
M  V30 36874 O 3527.71 -2.90955 4.62609 0
M  V30 36875 H 3524.81 -0.469979 0.680477 0
M  V30 36876 H 3527.35 -0.254319 1.67784 0
M  V30 36877 H 3526.13 -0.912752 3.80506 0
M  V30 36878 H 3525.75 -2.47972 3.10799 0
M  V30 36879 N 3526.75 -1.48611 -0.524645 0
M  V30 36880 C 3527.99 -1.569 -1.28018 0
M  V30 36881 C 3528.32 -0.245237 -1.92948 0
M  V30 36882 O 3527.58 0.764935 -1.80131 0
M  V30 36883 C 3527.88 -2.65998 -2.38705 0
M  V30 36884 C 3527.54 -4.08264 -1.91393 0
M  V30 36885 C 3526.2 -4.46985 -1.78207 0
M  V30 36886 C 3528.56 -4.97399 -1.55704 0
M  V30 36887 C 3525.88 -5.72639 -1.27677 0
M  V30 36888 C 3528.24 -6.23548 -1.06634 0
M  V30 36889 C 3526.9 -6.6112 -0.920702 0
M  V30 36890 H 3526.17 -0.574138 -0.468451 0
M  V30 36891 H 3528.82 -1.8235 -0.584869 0
M  V30 36892 H 3527.12 -2.34428 -3.13928 0
M  V30 36893 H 3528.82 -2.69625 -2.96822 0
M  V30 36894 H 3525.41 -3.77688 -2.02607 0
M  V30 36895 H 3529.59 -4.68158 -1.64749 0
M  V30 36896 H 3524.85 -6.0047 -1.15092 0
M  V30 36897 H 3529.02 -6.92008 -0.780926 0
M  V30 36898 H 3526.65 -7.58371 -0.526958 0
M  V30 36899 N 3528.22 0.773926 -1.37289 0
M  V30 36900 C 3529.64 1.35008 -1.28957 0
M  V30 36901 C 3529.99 1.96096 0.0637956 0
M  V30 36902 O 3529.11 1.93663 0.96559 0
M  V30 36903 C 3529.71 2.45463 -2.33524 0
M  V30 36904 C 3528.27 2.98852 -2.28833 0
M  V30 36905 C 3527.41 1.72051 -2.17471 0
M  V30 36906 H 3530.36 0.574354 -1.47942 0
M  V30 36907 H 3530.38 3.24886 -1.98064 0
M  V30 36908 H 3529.9 2.00972 -3.32012 0
M  V30 36909 H 3528 3.47724 -1.33862 0
M  V30 36910 H 3528.11 3.54614 -3.22158 0
M  V30 36911 H 3526.47 1.94891 -1.63981 0
M  V30 36912 H 3527.26 1.29667 -3.1787 0
M  V30 36913 N 3529.7 1.21823 0.99985 0
M  V30 36914 C 3530.95 1.03858 1.73838 0
M  V30 36915 C 3531.28 -0.427237 1.8975 0
M  V30 36916 O 3530.53 -1.3332 1.43263 0
M  V30 36917 C 3530.83 1.68686 3.15087 0
M  V30 36918 C 3530.5 3.18559 3.1911 0
M  V30 36919 C 3529.16 3.59455 3.19914 0
M  V30 36920 C 3531.51 4.14521 3.15946 0
M  V30 36921 C 3528.84 4.94809 3.15248 0
M  V30 36922 C 3531.19 5.49841 3.12822 0
M  V30 36923 C 3529.86 5.90128 3.11939 0
M  V30 36924 H 3529.13 0.380043 0.63612 0
M  V30 36925 H 3531.77 1.51487 1.17149 0
M  V30 36926 H 3530.08 1.13363 3.75042 0
M  V30 36927 H 3531.77 1.52283 3.70959 0
M  V30 36928 H 3528.36 2.85991 3.19229 0
M  V30 36929 H 3532.55 3.83948 3.1448 0
M  V30 36930 H 3527.8 5.25262 3.12905 0
M  V30 36931 H 3531.98 6.2393 3.09329 0
M  V30 36932 H 3529.61 6.94977 3.08077 0
M  V30 36933 N 3531.18 -1.1956 1.0268 0
M  V30 36934 C 3532.41 -1.93152 0.741603 0
M  V30 36935 C 3532.82 -1.75373 -0.699261 0
M  V30 36936 O 3532.18 -1.07429 -1.47531 0
M  V30 36937 C 3532.23 -3.44968 1.0807 0
M  V30 36938 O 3531.95 -3.62174 2.46498 0
M  V30 36939 C 3533.45 -4.35687 0.818011 0
M  V30 36940 H 3530.67 -0.613612 0.271517 0
M  V30 36941 H 3533.22 -1.5176 1.37073 0
M  V30 36942 H 3531.37 -3.84201 0.496791 0
M  V30 36943 H 3531.79 -4.56057 2.59061 0
M  V30 36944 H 3533.26 -5.40822 1.10526 0
M  V30 36945 H 3533.74 -4.38501 -0.247616 0
M  V30 36946 H 3534.34 -4.02132 1.38456 0
M  V30 36947 N 3532.66 -0.804387 -1.35526 0
M  V30 36948 C 3534.07 -0.487858 -1.51961 0
M  V30 36949 C 3534.27 0.991322 -1.75428 0
M  V30 36950 O 3533.33 1.77641 -1.79443 0
M  V30 36951 C 3534.64 -1.33131 -2.69623 0
M  V30 36952 C 3536.19 -1.32653 -2.835 0
M  V30 36953 C 3536.67 -2.15404 -4.04184 0
M  V30 36954 N 3538.16 -2.12929 -4.11358 0
M  V30 36955 C 3538.89 -2.73718 -5.03851 0
M  V30 36956 N 3538.39 -3.43425 -6.0169 0
M  V30 36957 N 3540.18 -2.63371 -4.9658 0
M  V30 36958 H 3532.33 -1.76237 -1.1855 0
M  V30 36959 H 3534.6 -0.749987 -0.579847 0
M  V30 36960 H 3534.3 -2.38093 -2.58853 0
M  V30 36961 H 3534.18 -0.982998 -3.64166 0
M  V30 36962 H 3536.56 -0.284763 -2.93723 0
M  V30 36963 H 3536.64 -1.71469 -1.89821 0
M  V30 36964 H 3536.29 -3.1962 -3.94722 0
M  V30 36965 H 3536.22 -1.73949 -4.97041 0
M  V30 36966 H 3538.71 -1.62209 -3.41316 0
M  V30 36967 H 3539.02 -3.87102 -6.68859 0
M  V30 36968 H 3537.37 -3.47529 -6.01871 0
M  V30 36969 H 3540.56 -2.08503 -4.19099 0
M  V30 36970 H 3540.73 -3.11036 -5.68472 0
M  V30 36971 N 3534.14 1.47403 -0.557697 0
M  V30 36972 C 3535.05 2.33806 0.192849 0
M  V30 36973 C 3536.06 1.48221 0.911398 0
M  V30 36974 O 3537.24 1.81148 0.880182 0
M  V30 36975 C 3534.3 3.24926 1.20931 0
M  V30 36976 C 3533.37 4.264 0.498134 0
M  V30 36977 C 3532.6 5.13166 1.46617 0
M  V30 36978 O 3532.82 5.02395 2.70102 0
M  V30 36979 O 3531.76 5.93696 0.990392 0
M  V30 36980 H 3535.58 2.99286 -0.515914 0
M  V30 36981 H 3533.17 1.4597 -0.318309 0
M  V30 36982 H 3535.05 3.81209 1.79604 0
M  V30 36983 H 3533.72 2.62073 1.89998 0
M  V30 36984 H 3532.63 3.73875 -0.129801 0
M  V30 36985 H 3533.96 4.91968 -0.151101 0
M  V30 36986 N 3535.62 0.294175 1.5483 0
M  V30 36987 C 3536.53 -0.594582 2.2694 0
M  V30 36988 C 3537.54 -1.15417 1.30211 0
M  V30 36989 O 3538.72 -1.18041 1.63182 0
M  V30 36990 C 3535.78 -1.7534 2.99093 0
M  V30 36991 C 3534.84 -1.22858 4.11345 0
M  V30 36992 C 3534.08 -2.33217 4.80047 0
M  V30 36993 O 3534.3 -3.52975 4.48068 0
M  V30 36994 O 3533.23 -2.00294 5.67596 0
M  V30 36995 H 3537.06 -0.00983897 3.03698 0
M  V30 36996 H 3534.64 0.060879 1.49276 0
M  V30 36997 H 3536.53 -2.42869 3.44373 0
M  V30 36998 H 3535.2 -2.32488 2.25236 0
M  V30 36999 H 3534.11 -0.519214 3.70479 0
M  V30 37000 H 3535.44 -0.702617 4.87159 0
M  V30 37001 N 3537.09 -1.57585 0.0217743 0
M  V30 37002 C 3538.06 -2.08698 -0.94751 0
M  V30 37003 C 3539.06 -1.00058 -1.25877 0
M  V30 37004 O 3540.25 -1.26244 -1.20033 0
M  V30 37005 C 3537.38 -2.54669 -2.26619 0
M  V30 37006 H 3538.57 -2.95618 -0.504964 0
M  V30 37007 H 3536.12 -1.54656 -0.226125 0
M  V30 37008 H 3536.86 -1.71057 -2.75518 0
M  V30 37009 H 3536.64 -3.34032 -2.05341 0
M  V30 37010 H 3538.13 -2.94464 -2.96109 0
M  V30 37011 N 3538.57 0.251283 -1.55584 0
M  V30 37012 C 3539.5 1.31483 -1.92962 0
M  V30 37013 C 3540.48 1.5043 -0.794027 0
M  V30 37014 O 3541.67 1.63112 -1.05396 0
M  V30 37015 C 3538.8 2.67041 -2.22051 0
M  V30 37016 C 3537.75 2.62795 -3.37821 0
M  V30 37017 C 3537.08 4.02107 -3.5244 0
M  V30 37018 C 3538.38 2.20163 -4.7363 0
M  V30 37019 H 3540.07 1.00446 -2.82048 0
M  V30 37020 H 3537.62 0.481751 -1.35702 0
M  V30 37021 H 3539.57 3.41575 -2.46789 0
M  V30 37022 H 3538.29 2.99705 -1.29787 0
M  V30 37023 H 3536.95 1.90718 -3.13085 0
M  V30 37024 H 3536.6 4.32029 -2.57604 0
M  V30 37025 H 3536.3 4.00155 -4.3029 0
M  V30 37026 H 3537.83 4.78348 -3.79494 0
M  V30 37027 H 3539.24 2.84427 -4.97769 0
M  V30 37028 H 3537.64 2.29331 -5.54551 0
M  V30 37029 H 3538.71 1.15322 -4.70987 0
M  V30 37030 N 3540.05 1.48887 0.516757 0
M  V30 37031 C 3540.98 1.60494 1.63629 0
M  V30 37032 C 3541.99 0.488451 1.553 0
M  V30 37033 O 3543.18 0.759859 1.61519 0
M  V30 37034 C 3540.28 1.53098 3.02348 0
M  V30 37035 C 3539.46 2.80012 3.36024 0
M  V30 37036 C 3538.52 2.65887 4.54082 0
M  V30 37037 O 3537.54 3.39798 4.56646 0
M  V30 37038 N 3538.74 1.76382 5.53055 0
M  V30 37039 H 3541.51 2.57044 1.54105 0
M  V30 37040 H 3539.07 1.45777 0.704312 0
M  V30 37041 H 3541.06 1.41324 3.79222 0
M  V30 37042 H 3539.63 0.64469 3.0588 0
M  V30 37043 H 3538.85 3.06254 2.48198 0
M  V30 37044 H 3540.14 3.64184 3.55314 0
M  V30 37045 H 3539.54 1.1556 5.53771 0
M  V30 37046 H 3538.09 1.7054 6.29094 0
M  V30 37047 N 3541.53 -0.766635 1.37697 0
M  V30 37048 C 3542.49 -1.8617 1.33692 0
M  V30 37049 C 3543.49 -1.59 0.23995 0
M  V30 37050 O 3544.68 -1.66987 0.496095 0
M  V30 37051 C 3541.81 -3.23403 1.07812 0
M  V30 37052 H 3543.01 -1.91132 2.31103 0
M  V30 37053 H 3540.56 -0.966939 1.22801 0
M  V30 37054 H 3541.29 -3.24115 0.109534 0
M  V30 37055 H 3541.08 -3.44516 1.87219 0
M  V30 37056 H 3542.57 -4.0348 1.07672 0
M  V30 37057 N 3543.01 -1.22351 -0.993375 0
M  V30 37058 C 3544.28 -0.956305 -1.70629 0
M  V30 37059 C 3544.66 0.528734 -2.04371 0
M  V30 37060 O 3544.01 1.49664 -1.72664 0
M  V30 37061 C 3544.22 -1.85336 -2.95722 0
M  V30 37062 C 3545.57 -2.10916 -3.6851 0
M  V30 37063 O 3546.59 -1.8278 -3.05728 0
M  V30 37064 O 3545.45 -2.58565 -4.81463 0
M  V30 37065 H 3542.55 -0.359596 -0.744728 0
M  V30 37066 H 3545.09 -1.33334 -1.04976 0
M  V30 37067 H 3543.86 -2.85787 -2.67285 0
M  V30 37068 H 3543.49 -1.47787 -3.69113 0
M  V30 37069 N 3544.48 1.19014 -1.03313 0
M  V30 37070 C 3545.43 2.22383 -0.617606 0
M  V30 37071 C 3546.4 1.61909 0.37075 0
M  V30 37072 O 3547.59 1.8893 0.266447 0
M  V30 37073 C 3544.73 3.45094 0.0210697 0
M  V30 37074 C 3543.84 4.19935 -1.01384 0
M  V30 37075 C 3542.97 5.30082 -0.344478 0
M  V30 37076 C 3542.01 5.96686 -1.36501 0
M  V30 37077 N 3541.15 6.98387 -0.721149 0
M  V30 37078 H 3545.99 2.57283 -1.50365 0
M  V30 37079 H 3543.53 1.26403 -0.752372 0
M  V30 37080 H 3545.48 4.15194 0.40864 0
M  V30 37081 H 3544.11 3.10836 0.870666 0
M  V30 37082 H 3543.17 3.48737 -1.51943 0
M  V30 37083 H 3544.48 4.65603 -1.78929 0
M  V30 37084 H 3543.63 6.06621 0.0977074 0
M  V30 37085 H 3542.37 4.85496 0.46313 0
M  V30 37086 H 3541.38 5.18893 -1.81741 0
M  V30 37087 H 3542.6 6.43355 -2.17418 0
M  V30 37088 H 3540.55 6.55967 0.0662904 0
M  V30 37089 H 3540.46 7.42267 -1.43441 0
M  V30 37090 H 3541.73 7.7891 -0.303107 0
M  V30 37091 N 3545.96 0.811563 1.35098 0
M  V30 37092 C 3546.91 0.223412 2.29716 0
M  V30 37093 C 3547.88 -0.645369 1.5305 0
M  V30 37094 O 3549.06 -0.589404 1.81468 0
M  V30 37095 C 3546.2 -0.617998 3.39521 0
M  V30 37096 C 3545.32 0.271768 4.31144 0
M  V30 37097 C 3544.45 -0.578121 5.28045 0
M  V30 37098 C 3543.49 0.311736 6.11306 0
M  V30 37099 N 3542.63 -0.498416 7.00329 0
M  V30 37100 H 3547.47 1.03568 2.79424 0
M  V30 37101 H 3545 0.522256 1.37517 0
M  V30 37102 H 3546.96 -1.12104 4.01856 0
M  V30 37103 H 3545.59 -1.39549 2.91077 0
M  V30 37104 H 3544.64 0.89295 3.69771 0
M  V30 37105 H 3545.96 0.956478 4.89544 0
M  V30 37106 H 3545.11 -1.1461 5.95776 0
M  V30 37107 H 3543.85 -1.29638 4.70155 0
M  V30 37108 H 3542.85 0.891945 5.42517 0
M  V30 37109 H 3544.08 1.02793 6.71275 0
M  V30 37110 H 3542.03 -1.20056 6.44921 0
M  V30 37111 H 3541.94 0.128143 7.55891 0
M  V30 37112 H 3543.21 -1.04951 7.72402 0
M  V30 37113 N 3547.44 -1.47105 0.565506 0
M  V30 37114 C 3548.37 -2.32912 -0.165629 0
M  V30 37115 C 3549.35 -1.44299 -0.900653 0
M  V30 37116 O 3550.54 -1.73143 -0.879493 0
M  V30 37117 C 3547.67 -3.26245 -1.19086 0
M  V30 37118 C 3546.62 -4.24164 -0.571774 0
M  V30 37119 C 3545.95 -5.06881 -1.70224 0
M  V30 37120 C 3547.25 -5.20091 0.479876 0
M  V30 37121 H 3548.94 -2.94291 0.550757 0
M  V30 37122 H 3546.49 -1.41516 0.266309 0
M  V30 37123 H 3548.44 -3.8512 -1.71058 0
M  V30 37124 H 3547.16 -2.62938 -1.9373 0
M  V30 37125 H 3545.82 -3.66527 -0.0732886 0
M  V30 37126 H 3545.47 -4.39971 -2.43792 0
M  V30 37127 H 3545.17 -5.73181 -1.29374 0
M  V30 37128 H 3546.69 -5.68616 -2.22505 0
M  V30 37129 H 3548.11 -5.73282 0.045905 0
M  V30 37130 H 3546.5 -5.94639 0.807719 0
M  V30 37131 H 3547.57 -4.65065 1.37267 0
M  V30 37132 N 3548.92 -0.302382 -1.54672 0
M  V30 37133 C 3549.87 0.58883 -2.25023 0
M  V30 37134 C 3550.86 1.13589 -1.25673 0
M  V30 37135 O 3552.07 1.08638 -1.4352 0
M  V30 37136 H 3548.44 0.208496 -0.722519 0
M  V30 37137 H 3550.41 -0.0270453 -2.98388 0
M  V30 37138 C 3549.16 1.74854 -3.00535 0
M  V30 37139 H 3548.48 1.33681 -3.76788 0
M  V30 37140 H 3549.92 2.34817 -3.5304 0
M  V30 37141 C 3548.38 2.65349 -2.07585 0
M  V30 37142 O 3548.91 3.66483 -1.64479 0
M  V30 37143 N 3547.12 2.33113 -1.73512 0
M  V30 37144 H 3546.67 1.50917 -2.08763 0
M  V30 37145 H 3546.62 2.93928 -1.11596 0
M  V30 37146 N 3550.4 1.57571 -0.0301311 0
M  V30 37147 C 3551.33 2.13313 0.949732 0
M  V30 37148 C 3552.31 1.04951 1.33863 0
M  V30 37149 O 3553.49 1.32788 1.41707 0
M  V30 37150 C 3550.62 2.66103 2.23173 0
M  V30 37151 C 3549.58 3.79262 1.98355 0
M  V30 37152 C 3548.9 4.18484 3.32829 0
M  V30 37153 C 3550.2 5.05294 1.32193 0
M  V30 37154 H 3551.9 2.95437 0.48551 0
M  V30 37155 H 3549.44 1.42117 0.232091 0
M  V30 37156 H 3551.4 3.03734 2.92103 0
M  V30 37157 H 3550.12 1.81142 2.71763 0
M  V30 37158 H 3548.78 3.42071 1.31843 0
M  V30 37159 H 3548.43 3.30503 3.79179 0
M  V30 37160 H 3548.13 4.94739 3.17028 0
M  V30 37161 H 3549.65 4.58698 4.03024 0
M  V30 37162 H 3551.06 5.40504 1.91123 0
M  V30 37163 H 3549.46 5.86554 1.26787 0
M  V30 37164 H 3550.53 4.84002 0.295025 0
M  V30 37165 N 3551.87 -0.243029 1.55715 0
M  V30 37166 C 3553.12 -0.970524 1.77728 0
M  V30 37167 C 3553.45 -1.85171 0.59514 0
M  V30 37168 O 3552.7 -1.91109 -0.421396 0
M  V30 37169 C 3553 -1.8584 3.05284 0
M  V30 37170 C 3552.67 -1.13224 4.36453 0
M  V30 37171 C 3551.33 -0.931573 4.72097 0
M  V30 37172 C 3553.68 -0.617853 5.17525 0
M  V30 37173 C 3551.01 -0.20427 5.86344 0
M  V30 37174 C 3553.36 0.0960011 6.32527 0
M  V30 37175 C 3552.03 0.308117 6.66788 0
M  V30 37176 H 3551.3 -0.35514 0.650351 0
M  V30 37177 H 3553.94 -0.240317 1.89986 0
M  V30 37178 H 3552.25 -2.65579 2.88054 0
M  V30 37179 H 3553.95 -2.42304 3.19515 0
M  V30 37180 H 3550.54 -1.2986 4.08454 0
M  V30 37181 H 3554.72 -0.76042 4.9044 0
M  V30 37182 H 3549.98 -0.0294925 6.11393 0
M  V30 37183 H 3554.15 0.502199 6.94587 0
M  V30 37184 H 3551.78 0.873635 7.55163 0
M  V30 37185 N 3553.35 -1.49159 -0.508854 0
M  V30 37186 C 3554.6 -1.57498 -1.26005 0
M  V30 37187 C 3554.91 -0.263315 -1.9382 0
M  V30 37188 O 3556.12 -0.225164 -2.70565 0
M  V30 37189 C 3554.58 -2.77854 -2.28747 0
M  V30 37190 C 3554.18 -4.15747 -1.66907 0
M  V30 37191 C 3555.93 -2.95518 -3.04745 0
M  V30 37192 C 3553.84 -5.27336 -2.67714 0
M  V30 37193 H 3552.77 -0.5864 -0.473974 0
M  V30 37194 H 3555.42 -1.75532 -0.534855 0
M  V30 37195 H 3553.8 -2.53297 -3.04395 0
M  V30 37196 H 3554.97 -4.50409 -0.973052 0
M  V30 37197 H 3553.29 -4.03376 -1.03329 0
M  V30 37198 H 3555.88 -3.76054 -3.80115 0
M  V30 37199 H 3556.23 -2.05777 -3.61886 0
M  V30 37200 H 3556.76 -3.20076 -2.36212 0
M  V30 37201 H 3553.5 -6.19111 -2.15364 0
M  V30 37202 H 3553.02 -4.97137 -3.35581 0
M  V30 37203 H 3554.7 -5.5634 -3.30294 0
M  V30 37204 N 3554.83 0.759322 -1.38102 0
M  V30 37205 C 3556.08 1.51528 -1.3373 0
M  V30 37206 C 3556.4 1.9486 0.0739162 0
M  V30 37207 O 3555.67 1.67223 1.02046 0
M  V30 37208 H 3554.25 0.562049 -0.492046 0
M  V30 37209 H 3556.91 0.902964 -1.72721 0
M  V30 37210 H 3556.01 2.40888 -1.98443 0
M  V30 37211 N 3556.31 1.22876 0.986873 0
M  V30 37212 C 3557.27 1.00548 2.05968 0
M  V30 37213 C 3558.27 -0.0303226 1.60771 0
M  V30 37214 O 3559.46 0.208783 1.72944 0
M  V30 37215 C 3556.59 0.520021 3.3691 0
M  V30 37216 H 3557.79 1.95744 2.27209 0
M  V30 37217 H 3555.34 1.04829 1.15933 0
M  V30 37218 H 3556.07 -0.436022 3.21355 0
M  V30 37219 H 3555.86 1.26739 3.71052 0
M  V30 37220 H 3557.35 0.384239 4.15829 0
M  V30 37221 N 3557.79 -1.18464 1.03942 0
M  V30 37222 C 3559.01 -1.92896 0.76196 0
M  V30 37223 C 3559.44 -1.75587 -0.674587 0
M  V30 37224 O 3558.79 -1.06518 -1.46709 0
M  V30 37225 C 3558.84 -3.42385 1.13158 0
M  V30 37226 O 3557.95 -4.11603 0.256339 0
M  V30 37227 H 3557.29 -0.601826 0.280538 0
M  V30 37228 H 3559.82 -1.50233 1.38893 0
M  V30 37229 H 3559.83 -3.93088 1.09297 0
M  V30 37230 H 3558.5 -3.54304 2.1781 0
M  V30 37231 H 3557.08 -3.71212 0.354457 0
M  V30 37232 N 3559.26 -0.818716 -1.34665 0
M  V30 37233 C 3560.51 -0.405394 -1.98707 0
M  V30 37234 C 3560.84 1.02785 -1.64769 0
M  V30 37235 O 3560.12 1.71517 -0.91717 0
M  V30 37236 C 3560.4 -0.603029 -3.55015 0
M  V30 37237 C 3560.25 -2.08208 -3.98709 0
M  V30 37238 C 3561.57 -0.0363262 -4.40085 0
M  V30 37239 H 3558.69 -0.148769 -0.721829 0
M  V30 37240 H 3561.33 -1.0305 -1.59627 0
M  V30 37241 H 3559.48 -0.0709135 -3.88435 0
M  V30 37242 H 3561.16 -2.67751 -3.75642 0
M  V30 37243 H 3559.4 -2.57409 -3.49175 0
M  V30 37244 H 3560.07 -2.1712 -5.07507 0
M  V30 37245 H 3562.55 -0.49091 -4.13194 0
M  V30 37246 H 3561.42 -0.204441 -5.48519 0
M  V30 37247 H 3561.68 1.05838 -4.29244 0
M  V30 37248 N 3560.74 1.46803 -0.573299 0
M  V30 37249 C 3562.02 1.95597 0.0111286 0
M  V30 37250 C 3562.4 1.51597 1.46907 0
M  V30 37251 O 3561.75 0.762248 2.15411 0
M  V30 37252 C 3561.96 3.48673 -0.151106 0
M  V30 37253 C 3563.31 4.24598 -0.0140564 0
M  V30 37254 O 3564.33 3.56111 -0.0794634 0
M  V30 37255 O 3563.19 5.46347 0.129451 0
M  V30 37256 H 3560.28 0.825162 0.0551113 0
M  V30 37257 H 3562.83 1.5713 -0.640956 0
M  V30 37258 H 3561.6 3.73555 -1.165 0
M  V30 37259 H 3561.22 3.93945 0.537847 0
M  V30 37260 N 3562.22 0.31058 1.54509 0
M  V30 37261 C 3563.63 -0.180133 1.85829 0
M  V30 37262 C 3563.98 -1.52663 1.23241 0
M  V30 37263 O 3563.11 -2.09717 0.533627 0
M  V30 37264 C 3563.7 -0.333628 3.37153 0
M  V30 37265 C 3562.26 -0.76856 3.6847 0
M  V30 37266 C 3561.41 0.117448 2.77051 0
M  V30 37267 H 3564.36 0.531289 1.49543 0
M  V30 37268 H 3564.38 -1.16666 3.62173 0
M  V30 37269 H 3563.89 0.646522 3.82677 0
M  V30 37270 H 3561.99 -1.75892 3.2847 0
M  V30 37271 H 3562.11 -0.581309 4.7556 0
M  V30 37272 H 3560.47 -0.404861 2.51462 0
M  V30 37273 H 3561.25 1.09413 3.25398 0
M  V30 37274 N 3563.7 -1.57553 0.0384871 0
M  V30 37275 C 3564.66 -2.09691 -0.925321 0
M  V30 37276 C 3565.66 -1.01387 -1.24809 0
M  V30 37277 O 3566.85 -1.2751 -1.18688 0
M  V30 37278 C 3563.98 -2.57059 -2.23906 0
M  V30 37279 H 3565.18 -2.96137 -0.473581 0
M  V30 37280 H 3562.73 -1.54887 -0.209709 0
M  V30 37281 H 3563.47 -1.73969 -2.73688 0
M  V30 37282 H 3563.25 -3.36191 -2.01787 0
M  V30 37283 H 3564.74 -2.97588 -2.92969 0
M  V30 37284 N 3565.18 0.234767 -1.55842 0
M  V30 37285 C 3566.43 0.959186 -1.77888 0
M  V30 37286 C 3566.75 1.85389 -0.604653 0
M  V30 37287 O 3566.02 1.92198 0.379059 0
M  V30 37288 H 3564.6 0.357161 -0.656083 0
M  V30 37289 H 3567.26 0.249797 -1.93293 0
M  V30 37290 H 3566.35 1.57378 -2.69515 0
M  V30 37291 N 3566.66 1.49427 0.500936 0
M  V30 37292 C 3567.9 1.59152 1.25692 0
M  V30 37293 C 3568.23 0.277399 1.92209 0
M  V30 37294 O 3567.51 -0.719033 1.80721 0
M  V30 37295 C 3567.79 2.7508 2.32386 0
M  V30 37296 C 3567.65 4.16286 1.7037 0
M  V30 37297 C 3568.96 2.86649 3.33947 0
M  V30 37298 H 3566.08 0.579291 0.455621 0
M  V30 37299 H 3568.73 1.81711 0.555067 0
M  V30 37300 H 3566.88 2.55976 2.92248 0
M  V30 37301 H 3568.55 4.46906 1.14335 0
M  V30 37302 H 3566.79 4.21931 1.00781 0
M  V30 37303 H 3567.46 4.93275 2.47758 0
M  V30 37304 H 3569.94 3.0404 2.84075 0
M  V30 37305 H 3568.81 3.6944 4.05962 0
M  V30 37306 H 3569.07 1.96005 3.96276 0
M  V30 37307 N 3568.13 -0.751987 1.38502 0
M  V30 37308 C 3569.36 -1.54123 1.38035 0
M  V30 37309 C 3569.78 -1.88777 -0.0294734 0
M  V30 37310 O 3569.13 -1.52893 -0.996495 0
M  V30 37311 C 3569.18 -2.83937 2.23746 0
M  V30 37312 O 3568.91 -2.50761 3.59236 0
M  V30 37313 C 3570.41 -3.78066 2.31476 0
M  V30 37314 H 3567.63 -0.47684 0.472086 0
M  V30 37315 H 3570.17 -0.93054 1.82102 0
M  V30 37316 H 3568.33 -3.41379 1.83136 0
M  V30 37317 H 3568.74 -3.34029 4.04382 0
M  V30 37318 H 3570.21 -4.66098 2.95731 0
M  V30 37319 H 3570.69 -4.18613 1.32889 0
M  V30 37320 H 3571.3 -3.26547 2.72483 0
M  V30 37321 N 3569.61 -1.23398 -0.980343 0
M  V30 37322 C 3570.54 -0.958439 -2.07097 0
M  V30 37323 C 3571.52 0.103271 -1.62272 0
M  V30 37324 O 3572.71 -0.030997 -1.88475 0
M  V30 37325 C 3569.83 -0.443923 -3.35778 0
M  V30 37326 C 3568.88 -1.49225 -3.99543 0
M  V30 37327 S 3569.71 -3.06966 -4.38785 0
M  V30 37328 C 3570.87 -2.57184 -5.7062 0
M  V30 37329 H 3571.1 -1.88196 -2.30151 0
M  V30 37330 H 3568.63 -1.06643 -1.11654 0
M  V30 37331 H 3570.59 -0.153675 -4.10212 0
M  V30 37332 H 3569.25 0.458684 -3.10733 0
M  V30 37333 H 3568.45 -1.08238 -4.9224 0
M  V30 37334 H 3568.05 -1.73185 -3.31486 0
M  V30 37335 H 3570.34 -1.99208 -6.47551 0
M  V30 37336 H 3571.28 -3.48422 -6.16448 0
M  V30 37337 H 3571.69 -1.98037 -5.28622 0
M  V30 37338 N 3571.09 1.17911 -1.04569 0
M  V30 37339 C 3572.34 1.87349 -0.747212 0
M  V30 37340 C 3572.65 1.81538 0.728242 0
M  V30 37341 O 3573.86 2.46387 1.14043 0
M  V30 37342 C 3572.31 3.36127 -1.28635 0
M  V30 37343 C 3571.92 3.50455 -2.79079 0
M  V30 37344 C 3573.67 4.10933 -1.06462 0
M  V30 37345 C 3571.57 4.9322 -3.26325 0
M  V30 37346 H 3570.5 0.70174 -0.275819 0
M  V30 37347 H 3573.15 1.33197 -1.26218 0
M  V30 37348 H 3571.54 3.89778 -0.699219 0
M  V30 37349 H 3572.71 3.07051 -3.43593 0
M  V30 37350 H 3571.02 2.89061 -2.99721 0
M  V30 37351 H 3573.62 5.16244 -1.39269 0
M  V30 37352 H 3573.96 4.163 -0.00208615 0
M  V30 37353 H 3574.5 3.6347 -1.61662 0
M  V30 37354 H 3571.24 4.93024 -4.31981 0
M  V30 37355 H 3570.76 5.37319 -2.66549 0
M  V30 37356 H 3572.44 5.6196 -3.20639 0
M  V30 37357 N 3572.57 0.825847 1.34229 0
M  V30 37358 C 3573.84 0.337777 1.92661 0
M  V30 37359 C 3574.22 -1.17525 1.7536 0
M  V30 37360 O 3573.57 -1.9837 1.13409 0
M  V30 37361 C 3573.78 0.770329 3.40392 0
M  V30 37362 C 3575.13 0.770841 4.17544 0
M  V30 37363 O 3576.15 0.713096 3.48989 0
M  V30 37364 O 3575.01 0.846697 5.39901 0
M  V30 37365 H 3572.11 0.0928886 0.821767 0
M  V30 37366 H 3574.65 0.910832 1.43185 0
M  V30 37367 H 3573.43 1.81235 3.46799 0
M  V30 37368 H 3573.05 0.17313 3.97223 0
M  V30 37369 N 3574.05 -1.46497 0.581077 0
M  V30 37370 C 3575.01 -2.28754 -0.142897 0
M  V30 37371 C 3576.01 -1.383 -0.820359 0
M  V30 37372 O 3577.2 -1.60693 -0.672564 0
M  V30 37373 C 3574.33 -3.18639 -1.2117 0
M  V30 37374 H 3575.52 -2.94239 0.579969 0
M  V30 37375 H 3573.08 -1.5258 0.338978 0
M  V30 37376 H 3573.81 -2.57898 -1.9662 0
M  V30 37377 H 3573.6 -3.85236 -0.730449 0
M  V30 37378 H 3575.09 -3.80555 -1.71952 0
M  V30 37379 N 3575.52 -0.31877 -1.54343 0
M  V30 37380 C 3576.77 0.285664 -2.00778 0
M  V30 37381 C 3577.1 1.52162 -1.20666 0
M  V30 37382 O 3576.38 1.9236 -0.287708 0
M  V30 37383 C 3576.66 0.624587 -3.54642 0
M  V30 37384 C 3576.51 -0.621741 -4.45482 0
M  V30 37385 C 3577.83 1.44413 -4.15732 0
M  V30 37386 H 3574.95 0.102354 -0.729858 0
M  V30 37387 H 3577.59 -0.434397 -1.84968 0
M  V30 37388 H 3575.74 1.23805 -3.68245 0
M  V30 37389 H 3577.42 -1.26006 -4.43757 0
M  V30 37390 H 3575.66 -1.25156 -4.15353 0
M  V30 37391 H 3576.33 -0.340203 -5.50951 0
M  V30 37392 H 3578.81 0.925627 -4.05674 0
M  V30 37393 H 3577.68 1.65004 -5.23512 0
M  V30 37394 H 3577.94 2.4388 -3.68748 0
M  V30 37395 N 3577 1.5753 -0.0468419 0
M  V30 37396 C 3577.95 2.11276 0.929028 0
M  V30 37397 C 3578.92 1.01907 1.31164 0
M  V30 37398 O 3580.1 1.2943 1.40187 0
M  V30 37399 C 3577.24 2.65877 2.20008 0
M  V30 37400 C 3576.36 3.89317 1.87233 0
M  V30 37401 C 3575.49 4.32248 3.08764 0
M  V30 37402 C 3574.53 5.48399 2.71891 0
M  V30 37403 N 3573.67 5.86404 3.86102 0
M  V30 37404 H 3578.51 2.94369 0.463802 0
M  V30 37405 H 3576.04 1.45486 0.217312 0
M  V30 37406 H 3578 2.95631 2.94378 0
M  V30 37407 H 3576.63 1.85589 2.64115 0
M  V30 37408 H 3575.68 3.66181 1.0303 0
M  V30 37409 H 3577 4.73749 1.56088 0
M  V30 37410 H 3576.15 4.63532 3.91438 0
M  V30 37411 H 3574.89 3.46619 3.43084 0
M  V30 37412 H 3573.89 5.16792 1.87633 0
M  V30 37413 H 3575.12 6.35741 2.38768 0
M  V30 37414 H 3573.07 5.03728 4.20231 0
M  V30 37415 H 3572.98 6.65517 3.58641 0
M  V30 37416 H 3574.25 6.22301 4.69427 0
M  V30 37417 N 3578.48 -0.226499 1.55964 0
M  V30 37418 C 3579.73 -0.949639 1.77946 0
M  V30 37419 C 3580.04 -1.85696 0.614511 0
M  V30 37420 O 3581.25 -2.61838 0.717839 0
M  V30 37421 C 3579.7 -1.73876 3.15111 0
M  V30 37422 C 3579.31 -0.877817 4.39316 0
M  V30 37423 C 3581.06 -2.45341 3.46422 0
M  V30 37424 C 3578.96 -1.664 5.67508 0
M  V30 37425 H 3577.89 -0.358318 0.663419 0
M  V30 37426 H 3580.54 -0.203663 1.82366 0
M  V30 37427 H 3578.93 -2.52745 3.04854 0
M  V30 37428 H 3580.1 -0.130008 4.60617 0
M  V30 37429 H 3578.42 -0.275527 4.15487 0
M  V30 37430 H 3581.01 -3.04652 4.39421 0
M  V30 37431 H 3581.36 -3.1798 2.6869 0
M  V30 37432 H 3581.89 -1.73465 3.57987 0
M  V30 37433 H 3578.63 -0.980975 6.48118 0
M  V30 37434 H 3578.15 -2.38655 5.50276 0
M  V30 37435 H 3579.83 -2.22595 6.07504 0
M  V30 37436 N 3579.96 -1.4969 -0.493005 0
M  V30 37437 C 3581.19 -1.63065 -1.26859 0
M  V30 37438 C 3581.6 -0.304484 -1.86734 0
M  V30 37439 O 3580.94 0.72105 -1.68957 0
M  V30 37440 C 3581 -2.64712 -2.43244 0
M  V30 37441 C 3580.67 -4.08853 -2.04178 0
M  V30 37442 C 3581.66 -4.95409 -1.57689 0
M  V30 37443 C 3579.35 -4.54636 -2.13568 0
M  V30 37444 C 3581.34 -6.25789 -1.21105 0
M  V30 37445 C 3579.03 -5.85028 -1.76596 0
M  V30 37446 C 3580.03 -6.70429 -1.3044 0
M  V30 37447 O 3579.71 -7.98389 -0.939703 0
M  V30 37448 H 3579.45 -0.551686 -0.390665 0
M  V30 37449 H 3582 -1.96518 -0.597496 0
M  V30 37450 H 3580.23 -2.26456 -3.13456 0
M  V30 37451 H 3581.92 -2.67533 -3.05256 0
M  V30 37452 H 3582.69 -4.61262 -1.49874 0
M  V30 37453 H 3578.56 -3.88325 -2.48445 0
M  V30 37454 H 3582.11 -6.92401 -0.850077 0
M  V30 37455 H 3578.01 -6.18701 -1.84063 0
M  V30 37456 H 3578.77 -8.1147 -1.07048 0
M  V30 37457 N 3581.44 0.744631 -1.38899 0
M  V30 37458 C 3582.68 1.50101 -1.35329 0
M  V30 37459 C 3583.01 1.94927 0.0532445 0
M  V30 37460 O 3582.28 1.68296 1.00267 0
M  V30 37461 H 3580.86 0.556799 -0.49798 0
M  V30 37462 H 3583.52 0.884594 -1.73669 0
M  V30 37463 H 3582.61 2.38769 -2.00987 0
M  V30 37464 N 3582.91 1.23916 0.973785 0
M  V30 37465 C 3583.86 1.02618 2.06732 0
M  V30 37466 C 3584.83 -0.0585413 1.65997 0
M  V30 37467 O 3586.02 0.0948801 1.90564 0
M  V30 37468 C 3583.16 0.630552 3.39291 0
M  V30 37469 C 3582.27 1.7881 3.93257 0
M  V30 37470 C 3581.4 1.33863 5.14056 0
M  V30 37471 C 3580.44 2.46651 5.60205 0
M  V30 37472 N 3579.58 2.02615 6.72229 0
M  V30 37473 H 3584.42 1.96216 2.24284 0
M  V30 37474 H 3581.96 0.977395 1.09934 0
M  V30 37475 H 3583.92 0.382236 4.15445 0
M  V30 37476 H 3582.55 -0.268427 3.21682 0
M  V30 37477 H 3581.6 2.15025 3.13797 0
M  V30 37478 H 3582.91 2.6358 4.2347 0
M  V30 37479 H 3582.06 1.04883 5.97565 0
M  V30 37480 H 3580.8 0.461395 4.85513 0
M  V30 37481 H 3579.81 2.76398 4.75273 0
M  V30 37482 H 3581.03 3.34922 5.90765 0
M  V30 37483 H 3578.98 1.17281 6.45431 0
M  V30 37484 H 3578.9 2.80941 7.01861 0
M  V30 37485 H 3580.16 1.76758 7.59195 0
M  V30 37486 N 3584.39 -1.17355 1.05193 0
M  V30 37487 C 3585.62 -1.91536 0.782406 0
M  V30 37488 C 3586.04 -1.76817 -0.661904 0
M  V30 37489 O 3585.39 -1.10534 -1.45219 0
M  V30 37490 C 3585.44 -3.42598 1.15363 0
M  V30 37491 O 3585.16 -3.56864 2.54125 0
M  V30 37492 C 3586.67 -4.33854 0.910243 0
M  V30 37493 H 3583.89 -0.607714 0.284472 0
M  V30 37494 H 3586.43 -1.48819 1.40261 0
M  V30 37495 H 3584.58 -3.83061 0.578174 0
M  V30 37496 H 3585 -4.50459 2.68676 0
M  V30 37497 H 3586.47 -5.38355 1.21973 0
M  V30 37498 H 3586.95 -4.38928 -0.154547 0
M  V30 37499 H 3587.56 -3.99105 1.46954 0
M  V30 37500 N 3585.87 -0.832954 -1.3379 0
M  V30 37501 C 3586.82 -0.25993 -2.29332 0
M  V30 37502 C 3587.79 0.620938 -1.54057 0
M  V30 37503 O 3588.97 0.56046 -1.82383 0
M  V30 37504 C 3586.11 0.563905 -3.40462 0
M  V30 37505 C 3585.23 -0.340325 -4.30657 0
M  V30 37506 C 3584.36 0.494041 -5.28898 0
M  V30 37507 C 3583.4 -0.40895 -6.10732 0
M  V30 37508 N 3582.54 0.386937 -7.01033 0
M  V30 37509 H 3587.38 -1.08 -2.77741 0
M  V30 37510 H 3584.91 -0.544067 -1.36669 0
M  V30 37511 H 3586.87 1.05697 -4.03589 0
M  V30 37512 H 3585.5 1.349 -2.93261 0
M  V30 37513 H 3584.55 -0.951665 -3.68304 0
M  V30 37514 H 3585.87 -1.03424 -4.8796 0
M  V30 37515 H 3585.02 1.05117 -5.97524 0
M  V30 37516 H 3583.76 1.22142 -4.72157 0
M  V30 37517 H 3582.76 -0.978141 -5.41029 0
M  V30 37518 H 3583.99 -1.1346 -6.69555 0
M  V30 37519 H 3581.93 1.0978 -6.46749 0
M  V30 37520 H 3581.85 -0.248382 -7.55592 0
M  V30 37521 H 3583.12 0.926495 -7.73974 0
M  V30 37522 N 3587.35 1.46186 -0.588837 0
M  V30 37523 C 3588.26 2.34162 0.143212 0
M  V30 37524 C 3589.27 1.50121 0.879753 0
M  V30 37525 O 3590.45 1.82975 0.84156 0
M  V30 37526 C 3587.52 3.27418 1.14011 0
M  V30 37527 C 3586.58 4.27361 0.407576 0
M  V30 37528 C 3585.81 5.1616 1.35699 0
M  V30 37529 O 3586.03 5.08011 2.59385 0
M  V30 37530 O 3584.97 5.95663 0.864238 0
M  V30 37531 H 3588.79 2.98124 -0.579281 0
M  V30 37532 H 3586.38 1.45262 -0.3492 0
M  V30 37533 H 3588.26 3.84933 1.71477 0
M  V30 37534 H 3586.93 2.66044 1.84397 0
M  V30 37535 H 3585.84 3.73515 -0.209077 0
M  V30 37536 H 3587.17 4.91537 -0.255421 0
M  V30 37537 N 3588.83 0.32695 1.54171 0
M  V30 37538 C 3589.76 -0.571549 2.21959 0
M  V30 37539 C 3590.77 -1.07718 1.22069 0
M  V30 37540 O 3591.96 -0.990176 1.48519 0
M  V30 37541 C 3589.06 -1.79739 2.8731 0
M  V30 37542 C 3588.23 -1.42988 4.13368 0
M  V30 37543 C 3587.29 -2.51362 4.62281 0
M  V30 37544 O 3586.32 -2.15364 5.26884 0
M  V30 37545 N 3587.52 -3.82348 4.36796 0
M  V30 37546 H 3590.29 0.00891116 2.99699 0
M  V30 37547 H 3587.85 0.150307 1.61201 0
M  V30 37548 H 3589.84 -2.51639 3.16954 0
M  V30 37549 H 3588.41 -2.28562 2.13256 0
M  V30 37550 H 3587.63 -0.542375 3.90451 0
M  V30 37551 H 3588.92 -1.16008 4.95398 0
M  V30 37552 H 3588.31 -4.1439 3.85094 0
M  V30 37553 H 3586.87 -4.50467 4.71087 0
M  V30 37554 N 3590.3 -1.57503 0.0551955 0
M  V30 37555 C 3591.55 -1.92849 -0.617686 0
M  V30 37556 C 3591.88 -0.933892 -1.70613 0
M  V30 37557 O 3591.13 0.0531729 -1.95628 0
M  V30 37558 C 3591.43 -3.34869 -1.24889 0
M  V30 37559 C 3591.1 -4.49978 -0.288245 0
M  V30 37560 C 3589.76 -4.81194 -0.023917 0
M  V30 37561 C 3592.11 -5.19886 0.369896 0
M  V30 37562 C 3589.44 -5.79664 0.90592 0
M  V30 37563 C 3591.79 -6.1935 1.28795 0
M  V30 37564 C 3590.46 -6.48993 1.56091 0
M  V30 37565 H 3589.73 -0.705686 -0.226027 0
M  V30 37566 H 3592.37 -1.91108 0.122533 0
M  V30 37567 H 3590.68 -3.32997 -2.06446 0
M  V30 37568 H 3592.38 -3.595 -1.77653 0
M  V30 37569 H 3588.97 -4.25621 -0.504449 0
M  V30 37570 H 3593.15 -4.95978 0.178777 0
M  V30 37571 H 3588.41 -6.00964 1.12483 0
M  V30 37572 H 3592.58 -6.72629 1.80396 0
M  V30 37573 H 3590.21 -7.25108 2.28304 0
M  V30 37574 N 3591.78 0.218225 -1.56082 0
M  V30 37575 C 3593.03 0.940265 -1.78895 0
M  V30 37576 C 3593.35 1.84737 -0.624282 0
M  V30 37577 O 3592.62 1.92589 0.358652 0
M  V30 37578 H 3591.2 0.350182 -0.659835 0
M  V30 37579 H 3593.86 0.229282 -1.93547 0
M  V30 37580 H 3592.96 1.54511 -2.71169 0
M  V30 37581 N 3593.26 1.4995 0.485059 0
M  V30 37582 C 3594.51 1.61447 1.23719 0
M  V30 37583 C 3594.86 0.304512 1.89975 0
M  V30 37584 O 3594.16 -0.696536 1.78491 0
M  V30 37585 C 3594.35 2.72233 2.31569 0
M  V30 37586 C 3594.18 4.13875 1.75891 0
M  V30 37587 C 3592.95 4.8046 1.56482 0
M  V30 37588 C 3595.15 4.98583 1.26172 0
M  V30 37589 N 3593.13 6.06363 0.959005 0
M  V30 37590 C 3594.5 6.15096 0.778259 0
M  V30 37591 C 3596.55 4.84462 1.14895 0
M  V30 37592 C 3595.26 7.19041 0.193164 0
M  V30 37593 C 3597.28 5.88571 0.577807 0
M  V30 37594 C 3596.65 7.04322 0.104653 0
M  V30 37595 H 3592.74 0.645034 0.442104 0
M  V30 37596 H 3595.33 1.87017 0.54154 0
M  V30 37597 H 3593.5 2.48409 2.98576 0
M  V30 37598 H 3595.23 2.73165 2.98602 0
M  V30 37599 H 3591.99 4.37521 1.81308 0
M  V30 37600 H 3592.41 6.73627 0.674913 0
M  V30 37601 H 3597.05 3.9527 1.50072 0
M  V30 37602 H 3594.77 8.07919 -0.170839 0
M  V30 37603 H 3598.36 5.79707 0.49311 0
M  V30 37604 H 3597.24 7.83504 -0.330382 0
M  V30 37605 N 3594.74 -0.737255 1.39292 0
M  V30 37606 C 3596.15 -1.31541 1.32491 0
M  V30 37607 C 3596.5 -1.96196 -0.0117817 0
M  V30 37608 O 3595.63 -1.96155 -0.913904 0
M  V30 37609 C 3596.22 -2.39185 2.3995 0
M  V30 37610 C 3594.78 -2.9268 2.36676 0
M  V30 37611 C 3593.93 -1.66225 2.21956 0
M  V30 37612 H 3596.88 -0.534928 1.49413 0
M  V30 37613 H 3596.9 -3.1952 2.06608 0
M  V30 37614 H 3596.41 -1.92098 3.37224 0
M  V30 37615 H 3594.51 -3.44052 1.43034 0
M  V30 37616 H 3594.63 -3.45948 3.31447 0
M  V30 37617 H 3592.99 -1.90475 1.6909 0
M  V30 37618 H 3593.77 -1.21193 3.21196 0
M  V30 37619 N 3596.22 -1.24431 -0.967199 0
M  V30 37620 C 3597.49 -0.992283 -1.68562 0
M  V30 37621 C 3597.87 0.485265 -2.05447 0
M  V30 37622 O 3597.22 1.45968 -1.758 0
M  V30 37623 C 3597.43 -1.91567 -2.91724 0
M  V30 37624 C 3598.78 -2.18685 -3.63953 0
M  V30 37625 O 3599.8 -1.89224 -3.01783 0
M  V30 37626 O 3598.66 -2.68719 -4.7587 0
M  V30 37627 H 3595.76 -0.375312 -0.736933 0
M  V30 37628 H 3598.3 -1.35531 -1.02124 0
M  V30 37629 H 3597.08 -2.91392 -2.61163 0
M  V30 37630 H 3596.7 -1.55584 -3.65895 0
M  V30 37631 N 3597.7 1.16795 -1.05814 0
M  V30 37632 C 3598.61 2.24662 -0.675581 0
M  V30 37633 C 3599.62 1.71285 0.30619 0
M  V30 37634 O 3600.8 2.00789 0.156717 0
M  V30 37635 C 3597.86 3.46643 -0.0627758 0
M  V30 37636 C 3596.92 4.15079 -1.09579 0
M  V30 37637 C 3596.16 5.31237 -0.512137 0
M  V30 37638 O 3596.38 5.66373 0.676565 0
M  V30 37639 O 3595.31 5.88789 -1.24947 0
M  V30 37640 H 3599.14 2.59685 -1.57472 0
M  V30 37641 H 3596.72 1.24217 -0.830095 0
M  V30 37642 H 3598.61 4.20486 0.277469 0
M  V30 37643 H 3597.28 3.13404 0.809915 0
M  V30 37644 H 3596.19 3.43228 -1.48814 0
M  V30 37645 H 3597.52 4.52361 -1.93985 0
M  V30 37646 N 3599.17 0.840037 1.33346 0
M  V30 37647 C 3600.58 0.492883 1.80077 0
M  V30 37648 C 3600.94 -0.988191 1.69497 0
M  V30 37649 O 3600.06 -1.77004 1.24493 0
M  V30 37650 C 3600.66 0.887885 3.26959 0
M  V30 37651 C 3599.21 0.59285 3.71702 0
M  V30 37652 C 3598.36 1.09558 2.5474 0
M  V30 37653 H 3601.31 1.02863 1.20851 0
M  V30 37654 H 3601.33 0.198394 3.79982 0
M  V30 37655 H 3600.85 1.96587 3.34627 0
M  V30 37656 H 3598.95 -0.475021 3.6956 0
M  V30 37657 H 3599.06 1.1489 4.6512 0
M  V30 37658 H 3597.42 0.516401 2.4941 0
M  V30 37659 H 3598.21 2.18037 2.6517 0
M  V30 37660 N 3600.65 -1.45872 0.596582 0
M  V30 37661 C 3602.06 -1.85889 0.17379 0
M  V30 37662 C 3602.41 -1.49837 -1.26662 0
M  V30 37663 O 3601.54 -0.919807 -1.95879 0
M  V30 37664 C 3602.13 -3.37391 0.308626 0
M  V30 37665 C 3600.69 -3.76353 -0.0593923 0
M  V30 37666 C 3599.84 -2.69857 0.638175 0
M  V30 37667 H 3602.79 -1.36829 0.803952 0
M  V30 37668 H 3602.81 -3.77682 -0.462227 0
M  V30 37669 H 3602.32 -3.636 1.35707 0
M  V30 37670 H 3600.42 -3.55762 -1.10744 0
M  V30 37671 H 3600.54 -4.77986 0.32659 0
M  V30 37672 H 3598.9 -2.54584 0.0769594 0
M  V30 37673 H 3599.68 -2.98903 1.68854 0
M  V30 37674 N 3602.13 -0.335122 -1.53996 0
M  V30 37675 C 3603.04 0.534203 -2.28437 0
M  V30 37676 C 3604.06 1.11924 -1.33226 0
M  V30 37677 O 3605.23 1.13673 -1.66254 0
M  V30 37678 C 3602.3 1.67349 -3.03637 0
M  V30 37679 C 3601.36 1.11909 -4.14457 0
M  V30 37680 C 3600.59 2.20407 -4.86062 0
M  V30 37681 O 3600.81 3.40971 -4.57269 0
M  V30 37682 O 3599.75 1.85175 -5.72707 0
M  V30 37683 H 3603.57 -0.0706848 -3.03618 0
M  V30 37684 H 3601.16 -0.100435 -1.49062 0
M  V30 37685 H 3603.04 2.33653 -3.50691 0
M  V30 37686 H 3601.72 2.26434 -2.31321 0
M  V30 37687 H 3600.62 0.420806 -3.71726 0
M  V30 37688 H 3601.96 0.573209 -4.88851 0
M  V30 37689 N 3603.61 1.57472 -0.0635475 0
M  V30 37690 C 3604.52 2.15744 0.921493 0
M  V30 37691 C 3605.53 1.11845 1.33292 0
M  V30 37692 O 3606.71 1.44072 1.40731 0
M  V30 37693 C 3603.77 2.70092 2.17373 0
M  V30 37694 C 3602.84 3.88835 1.81949 0
M  V30 37695 C 3602.07 4.40582 3.01203 0
M  V30 37696 O 3602.29 3.91358 4.14964 0
M  V30 37697 O 3601.23 5.32017 2.81498 0
M  V30 37698 H 3605.05 3.00259 0.455847 0
M  V30 37699 H 3602.64 1.48551 0.159059 0
M  V30 37700 H 3604.52 3.04962 2.9082 0
M  V30 37701 H 3603.19 1.88642 2.63051 0
M  V30 37702 H 3602.1 3.58834 1.05779 0
M  V30 37703 H 3603.43 4.71554 1.4106 0
M  V30 37704 N 3605.09 -0.209945 1.56195 0
M  V30 37705 C 3606.33 -0.932607 1.79746 0
M  V30 37706 C 3606.66 -1.83867 0.634284 0
M  V30 37707 O 3605.92 -1.9196 -0.380765 0
M  V30 37708 C 3606.21 -1.79322 3.09157 0
M  V30 37709 C 3605.88 -1.03941 4.38756 0
M  V30 37710 C 3604.54 -0.831224 4.73966 0
M  V30 37711 C 3606.89 -0.50794 5.18719 0
M  V30 37712 C 3604.22 -0.0798516 5.86646 0
M  V30 37713 C 3606.57 0.230148 6.32181 0
M  V30 37714 C 3605.24 0.449483 6.65985 0
M  V30 37715 H 3604.51 -0.341265 0.657738 0
M  V30 37716 H 3607.16 -0.199964 1.90453 0
M  V30 37717 H 3605.46 -2.59409 2.93623 0
M  V30 37718 H 3607.16 -2.35472 3.24583 0
M  V30 37719 H 3603.75 -1.21166 4.11116 0
M  V30 37720 H 3607.93 -0.65622 4.91943 0
M  V30 37721 H 3603.19 0.1002 6.11318 0
M  V30 37722 H 3607.36 0.649418 6.93365 0
M  V30 37723 H 3604.99 1.03362 7.5314 0
M  V30 37724 N 3606.56 -1.50205 -0.4771 0
M  V30 37725 C 3607.97 -1.5382 -1.05812 0
M  V30 37726 C 3608.33 -0.338203 -1.93263 0
M  V30 37727 O 3607.45 0.54954 -2.09306 0
M  V30 37728 C 3608.05 -2.7875 -1.92572 0
M  V30 37729 C 3606.6 -2.85066 -2.45794 0
M  V30 37730 C 3605.75 -2.48036 -1.23989 0
M  V30 37731 H 3608.7 -1.56556 -0.259971 0
M  V30 37732 H 3608.72 -2.60265 -2.77565 0
M  V30 37733 H 3608.24 -3.6607 -1.28897 0
M  V30 37734 H 3606.34 -2.02083 -3.13039 0
M  V30 37735 H 3606.45 -3.87815 -2.81312 0
M  V30 37736 H 3604.81 -2.00341 -1.57276 0
M  V30 37737 H 3605.6 -3.37658 -0.619858 0
M  V30 37738 N 3608.04 0.729857 -1.39681 0
M  V30 37739 C 3609.27 1.52415 -1.40657 0
M  V30 37740 C 3609.69 1.881 -0.00432304 0
M  V30 37741 O 3609.05 1.52273 0.983996 0
M  V30 37742 C 3609.1 2.78502 -2.29062 0
M  V30 37743 O 3608.2 3.74634 -1.72404 0
M  V30 37744 H 3607.54 0.460083 -0.478769 0
M  V30 37745 H 3610.07 0.900055 -1.83739 0
M  V30 37746 H 3610.08 3.27182 -2.43753 0
M  V30 37747 H 3608.76 2.51862 -3.30966 0
M  V30 37748 H 3607.34 3.33423 -1.66983 0
M  V30 37749 N 3609.52 1.24942 0.960587 0
M  V30 37750 C 3610.48 1.04894 2.03789 0
M  V30 37751 C 3611.48 0.00378618 1.608 0
M  V30 37752 O 3612.67 0.24542 1.72463 0
M  V30 37753 C 3609.81 0.591368 3.35732 0
M  V30 37754 H 3611 2.0052 2.23006 0
M  V30 37755 H 3608.55 1.07265 1.13684 0
M  V30 37756 H 3609.29 -0.367759 3.22208 0
M  V30 37757 H 3609.07 1.34581 3.6828 0
M  V30 37758 H 3610.56 0.472356 4.1492 0
M  V30 37759 N 3611 -1.16233 1.06432 0
M  V30 37760 C 3612.22 -1.91237 0.802705 0
M  V30 37761 C 3612.65 -1.76979 -0.637191 0
M  V30 37762 O 3612.01 -1.09606 -1.44417 0
M  V30 37763 C 3612.05 -3.39908 1.20395 0
M  V30 37764 O 3611.16 -4.10966 0.343588 0
M  V30 37765 H 3610.5 -0.59574 0.29324 0
M  V30 37766 H 3613.03 -1.47253 1.42048 0
M  V30 37767 H 3613.04 -3.90681 1.17611 0
M  V30 37768 H 3611.71 -3.49605 2.25276 0
M  V30 37769 H 3610.29 -3.70376 0.433117 0
M  V30 37770 N 3612.48 -0.847097 -1.32899 0
M  V30 37771 C 3613.72 -0.447451 -1.97802 0
M  V30 37772 C 3614.06 0.992671 -1.66912 0
M  V30 37773 O 3613.33 1.69533 -0.953345 0
M  V30 37774 C 3613.61 -0.678197 -3.53656 0
M  V30 37775 C 3613.47 -2.16619 -3.94203 0
M  V30 37776 C 3614.79 -0.129667 -4.39909 0
M  V30 37777 H 3611.9 -0.164047 -0.718511 0
M  V30 37778 H 3614.55 -1.06413 -1.57405 0
M  V30 37779 H 3612.7 -0.15329 -3.88197 0
M  V30 37780 H 3614.37 -2.75659 -3.69878 0
M  V30 37781 H 3612.61 -2.64758 -3.43636 0
M  V30 37782 H 3613.28 -2.27836 -5.02787 0
M  V30 37783 H 3615.76 -0.578444 -4.1206 0
M  V30 37784 H 3614.63 -0.320744 -5.47962 0
M  V30 37785 H 3614.9 0.967092 -4.31393 0
M  V30 37786 N 3613.95 1.45554 -0.604309 0
M  V30 37787 C 3615.18 2.07146 -0.10267 0
M  V30 37788 C 3615.6 1.44654 1.20236 0
M  V30 37789 O 3614.96 0.538064 1.73132 0
M  V30 37790 C 3615.01 3.6059 0.0269597 0
M  V30 37791 O 3614.11 3.98061 1.07803 0
M  V30 37792 H 3613.46 0.660022 -0.0725783 0
M  V30 37793 H 3615.99 1.86858 -0.833388 0
M  V30 37794 H 3616 4.07372 0.226228 0
M  V30 37795 H 3614.67 4.05461 -0.925968 0
M  V30 37796 H 3613.25 3.62954 0.855488 0
M  V30 37797 N 3615.43 0.343284 1.53816 0
M  V30 37798 C 3616.38 -0.528962 2.26506 0
M  V30 37799 C 3617.37 -1.10218 1.28641 0
M  V30 37800 O 3618.58 -1.04794 1.46349 0
M  V30 37801 H 3614.96 -0.189267 0.727793 0
M  V30 37802 H 3616.93 0.106148 2.98211 0
M  V30 37803 C 3615.68 -1.66824 3.05065 0
M  V30 37804 H 3615 -1.23644 3.802 0
M  V30 37805 H 3616.44 -2.25374 3.59142 0
M  V30 37806 C 3614.9 -2.59752 2.14547 0
M  V30 37807 O 3615.43 -3.61993 1.74138 0
M  V30 37808 N 3613.63 -2.28431 1.79632 0
M  V30 37809 H 3613.18 -1.45329 2.12691 0
M  V30 37810 H 3613.14 -2.90866 1.1935 0
M  V30 37811 N 3616.91 -1.57436 0.0718977 0
M  V30 37812 C 3618.16 -1.9267 -0.596765 0
M  V30 37813 C 3618.47 -0.953906 -1.70763 0
M  V30 37814 O 3619.68 -1.19907 -2.43587 0
M  V30 37815 C 3618.13 -3.42262 -1.11285 0
M  V30 37816 C 3617.74 -4.47988 -0.0329894 0
M  V30 37817 C 3619.49 -3.86497 -1.75557 0
M  V30 37818 C 3617.39 -5.88713 -0.563127 0
M  V30 37819 H 3616.32 -0.719118 -0.226683 0
M  V30 37820 H 3618.97 -1.82933 0.144149 0
M  V30 37821 H 3617.36 -3.47073 -1.90673 0
M  V30 37822 H 3618.53 -4.54794 0.741581 0
M  V30 37823 H 3616.85 -4.13222 0.513511 0
M  V30 37824 H 3619.44 -4.89018 -2.16253 0
M  V30 37825 H 3619.79 -3.2387 -2.61561 0
M  V30 37826 H 3620.32 -3.8429 -1.02791 0
M  V30 37827 H 3617.06 -6.54985 0.259747 0
M  V30 37828 H 3616.58 -5.85426 -1.30522 0
M  V30 37829 H 3618.26 -6.38595 -1.0395 0
M  V30 37830 N 3618.39 0.201658 -1.56305 0
M  V30 37831 C 3619.63 0.929902 -1.82022 0
M  V30 37832 C 3619.99 1.8072 -0.648414 0
M  V30 37833 O 3621.19 2.57072 -0.785337 0
M  V30 37834 C 3619.46 1.73009 -3.12734 0
M  V30 37835 S 3621.02 2.51125 -3.59836 0
M  V30 37836 H 3617.84 0.312015 -0.63888 0
M  V30 37837 H 3620.44 0.193827 -1.94537 0
M  V30 37838 H 3619.15 1.07609 -3.96041 0
M  V30 37839 H 3618.68 2.5081 -3.03081 0
M  V30 37840 H 3620.69 3.75168 -3.24751 0
M  V30 37841 N 3619.87 1.50456 0.469128 0
M  V30 37842 C 3621.28 1.54379 1.04995 0
M  V30 37843 C 3621.63 0.348447 1.93081 0
M  V30 37844 O 3620.75 -0.538432 2.09595 0
M  V30 37845 C 3621.35 2.79767 1.91091 0
M  V30 37846 C 3619.91 2.86365 2.44278 0
M  V30 37847 C 3619.05 2.4869 1.22672 0
M  V30 37848 H 3622.01 1.56692 0.251665 0
M  V30 37849 H 3622.03 2.61733 2.76181 0
M  V30 37850 H 3621.54 3.66748 1.26954 0
M  V30 37851 H 3619.64 2.0374 3.11963 0
M  V30 37852 H 3619.75 3.89302 2.79251 0
M  V30 37853 H 3618.12 2.01172 1.56211 0
M  V30 37854 H 3618.9 3.37982 0.601942 0
M  V30 37855 N 3621.34 -0.722439 1.40066 0
M  V30 37856 C 3622.57 -1.51667 1.41463 0
M  V30 37857 C 3622.99 -1.88095 0.0142984 0
M  V30 37858 O 3622.35 -1.52793 -0.975907 0
M  V30 37859 C 3622.4 -2.77283 2.30535 0
M  V30 37860 O 3621.5 -3.73714 1.74388 0
M  V30 37861 H 3620.85 -0.457538 0.481202 0
M  V30 37862 H 3623.38 -0.890298 1.84214 0
M  V30 37863 H 3623.39 -3.25885 2.45485 0
M  V30 37864 H 3622.06 -2.50103 3.32297 0
M  V30 37865 H 3620.64 -3.32533 1.68749 0
M  V30 37866 N 3622.82 -1.2545 -0.953947 0
M  V30 37867 C 3623.77 -1.05685 -2.07204 0
M  V30 37868 C 3624.77 0.0124375 -1.69395 0
M  V30 37869 O 3625.97 -0.143233 -1.79429 0
M  V30 37870 H 3622.35 -0.324829 -0.678226 0
M  V30 37871 H 3624.32 -2.0047 -2.2103 0
M  V30 37872 C 3623.07 -0.693015 -3.40724 0
M  V30 37873 H 3622.39 -1.50763 -3.70285 0
M  V30 37874 H 3623.83 -0.594425 -4.19813 0
M  V30 37875 C 3622.29 0.60097 -3.31497 0
M  V30 37876 O 3622.82 1.6429 -3.66568 0
M  V30 37877 N 3621.02 0.586848 -2.84613 0
M  V30 37878 H 3620.57 -0.26142 -2.5627 0
M  V30 37879 H 3620.53 1.45279 -2.78822 0
M  V30 37880 N 3624.3 1.15667 -1.07047 0
M  V30 37881 C 3625.23 2.22461 -0.709452 0
M  V30 37882 C 3626.21 1.67404 0.30166 0
M  V30 37883 O 3627.4 1.93409 0.175097 0
M  V30 37884 C 3624.53 3.47147 -0.103182 0
M  V30 37885 C 3623.48 4.15145 -1.04111 0
M  V30 37886 C 3622.81 5.3387 -0.29775 0
M  V30 37887 C 3624.11 4.6526 -2.3734 0
M  V30 37888 H 3625.8 2.52916 -1.60231 0
M  V30 37889 H 3623.35 1.21566 -0.771867 0
M  V30 37890 H 3625.3 4.21091 0.161297 0
M  V30 37891 H 3624.02 3.16015 0.824737 0
M  V30 37892 H 3622.68 3.43137 -1.29046 0
M  V30 37893 H 3622.33 4.98994 0.633531 0
M  V30 37894 H 3622.03 5.80307 -0.922891 0
M  V30 37895 H 3623.56 6.10586 -0.0409965 0
M  V30 37896 H 3624.97 5.30747 -2.16749 0
M  V30 37897 H 3623.37 5.22347 -2.95421 0
M  V30 37898 H 3624.44 3.81062 -2.99866 0
M  V30 37899 N 3625.78 0.854133 1.32447 0
M  V30 37900 C 3626.73 0.287156 2.30821 0
M  V30 37901 C 3627.72 -0.589183 1.58824 0
M  V30 37902 O 3628.93 -0.477044 1.73563 0
M  V30 37903 H 3625.3 0.0741547 0.748335 0
M  V30 37904 H 3627.27 1.13109 2.76132 0
M  V30 37905 C 3626.02 -0.510069 3.43938 0
M  V30 37906 H 3625.35 0.154966 3.995 0
M  V30 37907 H 3626.79 -0.872378 4.14928 0
M  V30 37908 C 3625.24 -1.69508 2.9115 0
M  V30 37909 O 3625.77 -2.79415 2.886 0
M  V30 37910 N 3623.98 -1.52197 2.47557 0
M  V30 37911 H 3623.53 -0.627897 2.4983 0
M  V30 37912 H 3623.49 -2.3163 2.12591 0
M  V30 37913 N 3627.26 -1.45231 0.61202 0
M  V30 37914 C 3628.19 -2.28757 -0.142409 0
M  V30 37915 C 3629.2 -1.40203 -0.827461 0
M  V30 37916 O 3630.39 -1.64536 -0.692107 0
M  V30 37917 C 3627.49 -3.16067 -1.2229 0
M  V30 37918 C 3626.66 -4.32925 -0.624102 0
M  V30 37919 C 3625.72 -5.0141 -1.59606 0
M  V30 37920 O 3624.75 -5.5806 -1.12063 0
M  V30 37921 N 3625.95 -5.01102 -2.93048 0
M  V30 37922 H 3628.72 -2.94145 0.574327 0
M  V30 37923 H 3626.28 -1.55468 0.451816 0
M  V30 37924 H 3628.27 -3.58747 -1.87303 0
M  V30 37925 H 3626.84 -2.52558 -1.8421 0
M  V30 37926 H 3626.06 -3.93671 0.20421 0
M  V30 37927 H 3627.35 -5.08389 -0.204346 0
M  V30 37928 H 3626.75 -4.56376 -3.34272 0
M  V30 37929 H 3625.3 -5.47632 -3.53472 0
M  V30 37930 N 3628.74 -0.351436 -1.53632 0
M  V30 37931 C 3629.96 0.246465 -2.0593 0
M  V30 37932 C 3630.39 1.4281 -1.22421 0
M  V30 37933 O 3629.74 1.79707 -0.239843 0
M  V30 37934 C 3629.79 0.631799 -3.55022 0
M  V30 37935 O 3628.9 1.73085 -3.7432 0
M  V30 37936 H 3628.24 0.0392307 -0.66284 0
M  V30 37937 H 3630.77 -0.507939 -1.98195 0
M  V30 37938 H 3630.78 0.906761 -3.97796 0
M  V30 37939 H 3629.45 -0.232297 -4.15251 0
M  V30 37940 H 3628.03 1.45254 -3.43447 0
M  V30 37941 N 3630.21 1.57396 -0.0802459 0
M  V30 37942 C 3631.16 2.14414 0.90163 0
M  V30 37943 C 3632.16 1.08317 1.30245 0
M  V30 37944 O 3633.36 1.26684 1.27871 0
M  V30 37945 H 3629.74 0.685701 0.308736 0
M  V30 37946 H 3631.71 2.95762 0.395882 0
M  V30 37947 C 3630.46 2.72738 2.15661 0
M  V30 37948 H 3629.78 3.54054 1.85704 0
M  V30 37949 H 3631.22 3.16219 2.82456 0
M  V30 37950 C 3629.68 1.67906 2.92077 0
M  V30 37951 O 3630.21 1.1091 3.86085 0
M  V30 37952 N 3628.41 1.38743 2.5534 0
M  V30 37953 H 3627.96 1.85281 1.78965 0
M  V30 37954 H 3627.92 0.688371 3.06772 0
M  V30 37955 N 3631.69 -0.193366 1.56409 0
M  V30 37956 C 3632.94 -0.911685 1.80368 0
M  V30 37957 C 3633.26 -1.8372 0.653593 0
M  V30 37958 O 3632.53 -1.93135 -0.327967 0
M  V30 37959 H 3631.11 -0.33964 0.665322 0
M  V30 37960 H 3633.77 -0.198462 1.93887 0
M  V30 37961 H 3632.87 -1.50177 2.73593 0
M  V30 37962 N 3633.17 -1.50702 -0.461142 0
M  V30 37963 C 3634.4 -1.6596 -1.23551 0
M  V30 37964 C 3634.81 -0.34701 -1.85584 0
M  V30 37965 O 3634.17 0.672099 -1.69673 0
M  V30 37966 C 3634.22 -2.75803 -2.33699 0
M  V30 37967 O 3633.94 -4.01974 -1.74208 0
M  V30 37968 C 3635.44 -3.02121 -3.24403 0
M  V30 37969 H 3632.66 -0.557581 -0.373289 0
M  V30 37970 H 3635.21 -1.96985 -0.549304 0
M  V30 37971 H 3633.36 -2.47445 -2.98077 0
M  V30 37972 H 3633.78 -4.62796 -2.46819 0
M  V30 37973 H 3635.25 -3.82618 -3.97879 0
M  V30 37974 H 3635.73 -2.13582 -3.8377 0
M  V30 37975 H 3636.33 -3.32049 -2.65752 0
M  V30 37976 N 3634.65 0.715001 -1.40447 0
M  V30 37977 C 3635.9 1.47197 -1.38483 0
M  V30 37978 C 3636.22 1.94996 0.0118856 0
M  V30 37979 O 3635.49 1.70385 0.966742 0
M  V30 37980 H 3634.07 0.546111 -0.509678 0
M  V30 37981 H 3636.73 0.847557 -1.75506 0
M  V30 37982 H 3635.82 2.34452 -2.06006 0
M  V30 37983 N 3636.13 1.25954 0.947281 0
M  V30 37984 C 3637.4 1.01897 1.66962 0
M  V30 37985 C 3637.78 -0.452519 2.06193 0
M  V30 37986 O 3637.13 -1.43152 1.781 0
M  V30 37987 C 3637.34 1.96184 2.8864 0
M  V30 37988 C 3638.69 2.24447 3.60428 0
M  V30 37989 O 3639.71 1.94001 2.98734 0
M  V30 37990 O 3638.57 2.76256 4.71535 0
M  V30 37991 H 3635.67 0.386988 0.730869 0
M  V30 37992 H 3638.21 1.37139 0.999553 0
M  V30 37993 H 3636.98 2.9551 2.56494 0
M  V30 37994 H 3636.61 1.61385 3.63374 0
M  V30 37995 N 3637.6 -1.15097 1.07659 0
M  V30 37996 C 3638.83 -1.90374 0.822943 0
M  V30 37997 C 3639.25 -1.77645 -0.618384 0
M  V30 37998 O 3638.61 -1.11131 -1.43246 0
M  V30 37999 C 3638.66 -3.38612 1.23994 0
M  V30 38000 O 3637.76 -4.10579 0.387157 0
M  V30 38001 H 3637.11 -0.592596 0.299542 0
M  V30 38002 H 3639.64 -1.45738 1.43602 0
M  V30 38003 H 3639.65 -3.89412 1.21748 0
M  V30 38004 H 3638.32 -3.47195 2.28972 0
M  V30 38005 H 3636.9 -3.69896 0.472376 0
M  V30 38006 N 3639.08 -0.861145 -1.31993 0
M  V30 38007 C 3640.36 -0.388739 -1.91698 0
M  V30 38008 C 3640.74 1.12835 -1.78414 0
M  V30 38009 O 3640.09 1.95293 -1.18629 0
M  V30 38010 C 3640.3 -0.860307 -3.3823 0
M  V30 38011 C 3641.65 -0.881274 -4.15354 0
M  V30 38012 O 3642.67 -0.805374 -3.46976 0
M  V30 38013 O 3641.53 -0.989545 -5.37467 0
M  V30 38014 H 3638.62 -0.114644 -0.819015 0
M  V30 38015 H 3641.17 -0.948475 -1.4072 0
M  V30 38016 H 3639.94 -1.90366 -3.41872 0
M  V30 38017 H 3639.56 -0.278385 -3.96624 0
M  V30 38018 N 3640.56 1.44905 -0.619713 0
M  V30 38019 C 3641.79 2.07025 -0.124635 0
M  V30 38020 C 3642.21 1.45921 1.18695 0
M  V30 38021 O 3641.57 0.556396 1.72551 0
M  V30 38022 C 3641.62 3.60598 -0.0112872 0
M  V30 38023 O 3640.72 3.99182 1.03575 0
M  V30 38024 H 3640.06 0.659215 -0.0795747 0
M  V30 38025 H 3642.59 1.85963 -0.85316 0
M  V30 38026 H 3642.6 4.07589 0.183008 0
M  V30 38027 H 3641.28 4.04456 -0.96892 0
M  V30 38028 H 3639.85 3.63841 0.816944 0
M  V30 38029 N 3642.04 0.359579 1.53443 0
M  V30 38030 C 3643 -0.477372 2.24174 0
M  V30 38031 C 3644 -1.01461 1.24749 0
M  V30 38032 O 3645.19 -0.901316 1.4907 0
M  V30 38033 C 3642.32 -1.66662 2.97383 0
M  V30 38034 H 3643.52 0.14146 2.99566 0
M  V30 38035 H 3641.07 0.11117 1.55904 0
M  V30 38036 H 3641.8 -2.3237 2.26218 0
M  V30 38037 H 3641.59 -1.28841 3.70327 0
M  V30 38038 H 3643.08 -2.25988 3.51169 0
M  V30 38039 N 3643.52 -1.57351 0.0885919 0
M  V30 38040 C 3644.48 -2.12529 -0.858141 0
M  V30 38041 C 3645.48 -1.05307 -1.2152 0
M  V30 38042 O 3646.67 -1.31222 -1.14571 0
M  V30 38043 C 3643.8 -2.64052 -2.15614 0
M  V30 38044 H 3644.99 -2.97494 -0.379128 0
M  V30 38045 H 3642.55 -1.55476 -0.160327 0
M  V30 38046 H 3643.28 -1.82588 -2.68015 0
M  V30 38047 H 3643.07 -3.42441 -1.90989 0
M  V30 38048 H 3644.56 -3.06758 -2.83353 0
M  V30 38049 N 3644.99 0.185069 -1.5651 0
M  V30 38050 C 3646.41 0.748826 -1.71025 0
M  V30 38051 C 3646.76 1.83408 -0.696843 0
M  V30 38052 O 3645.88 2.15916 0.144674 0
M  V30 38053 C 3646.48 1.36508 -3.10082 0
M  V30 38054 C 3645.04 1.87581 -3.26329 0
M  V30 38055 C 3644.18 0.749532 -2.66978 0
M  V30 38056 H 3647.13 -0.0401454 -1.58649 0
M  V30 38057 H 3647.15 2.23462 -3.07969 0
M  V30 38058 H 3646.67 0.574984 -3.83817 0
M  V30 38059 H 3644.77 2.69278 -2.57527 0
M  V30 38060 H 3644.88 2.0307 -4.33935 0
M  V30 38061 H 3643.24 1.16643 -2.26421 0
M  V30 38062 H 3644.03 -0.0284905 -3.43288 0
M  V30 38063 N 3646.47 1.50945 0.453144 0
M  V30 38064 C 3647.7 1.66613 1.22669 0
M  V30 38065 C 3648.12 0.356847 1.85397 0
M  V30 38066 O 3647.47 -0.663092 1.70027 0
M  V30 38067 C 3647.52 2.77038 2.32233 0
M  V30 38068 O 3647.24 4.02892 1.72074 0
M  V30 38069 C 3648.75 3.03837 3.22797 0
M  V30 38070 H 3645.97 0.559552 0.370327 0
M  V30 38071 H 3648.51 1.97273 0.538849 0
M  V30 38072 H 3646.66 2.49022 2.96761 0
M  V30 38073 H 3647.08 4.64099 2.44361 0
M  V30 38074 H 3648.55 3.84723 3.95844 0
M  V30 38075 H 3649.03 2.15614 3.82632 0
M  V30 38076 H 3649.64 3.33453 2.63987 0
M  V30 38077 N 3647.95 -0.707543 1.40825 0
M  V30 38078 C 3649.18 -1.49653 1.42869 0
M  V30 38079 C 3649.59 -1.88775 0.0305995 0
M  V30 38080 O 3648.95 -1.55986 -0.947349 0
M  V30 38081 C 3649 -2.76675 2.32666 0
M  V30 38082 O 3648.72 -2.39205 3.67032 0
M  V30 38083 C 3650.22 -3.7051 2.43387 0
M  V30 38084 H 3647.44 -0.461579 0.487017 0
M  V30 38085 H 3649.99 -0.872134 1.8497 0
M  V30 38086 H 3648.14 -3.3538 1.93904 0
M  V30 38087 H 3648.56 -3.20995 4.14805 0
M  V30 38088 H 3650.03 -4.56454 3.10409 0
M  V30 38089 H 3650.51 -4.14174 1.4614 0
M  V30 38090 H 3651.11 -3.17713 2.82734 0
M  V30 38091 N 3649.43 -1.26454 -0.940588 0
M  V30 38092 C 3650.66 -1.14813 -1.72121 0
M  V30 38093 C 3651.07 0.296571 -1.86456 0
M  V30 38094 O 3650.43 1.20301 -1.37236 0
M  V30 38095 C 3650.48 -1.81271 -3.12767 0
M  V30 38096 O 3650.2 -3.20095 -2.99117 0
M  V30 38097 C 3651.7 -1.75591 -4.07042 0
M  V30 38098 H 3648.92 -0.399783 -0.538901 0
M  V30 38099 H 3651.47 -1.67085 -1.1791 0
M  V30 38100 H 3649.62 -1.32935 -3.63878 0
M  V30 38101 H 3650.03 -3.52991 -3.8794 0
M  V30 38102 H 3651.51 -2.26728 -5.03288 0
M  V30 38103 H 3651.99 -0.722542 -4.33216 0
M  V30 38104 H 3652.59 -2.23481 -3.61851 0
M  V30 38105 N 3650.91 1.14525 -1.08268 0
M  V30 38106 C 3652.13 1.89935 -0.833028 0
M  V30 38107 C 3652.56 1.7797 0.608954 0
M  V30 38108 O 3651.91 1.1189 1.42655 0
M  V30 38109 C 3651.96 3.37949 -1.25788 0
M  V30 38110 O 3651.07 4.10368 -0.408926 0
M  V30 38111 H 3650.41 0.590999 -0.302681 0
M  V30 38112 H 3652.94 1.44974 -1.44373 0
M  V30 38113 H 3652.95 3.88761 -1.23811 0
M  V30 38114 H 3651.62 3.45976 -2.3081 0
M  V30 38115 H 3650.2 3.6964 -0.491985 0
M  V30 38116 N 3652.39 0.868133 1.31534 0
M  V30 38117 C 3653.63 0.47721 1.96385 0
M  V30 38118 C 3653.95 -0.973352 1.6897 0
M  V30 38119 O 3653.22 -1.68209 1.00412 0
M  V30 38120 H 3651.8 0.173481 0.726576 0
M  V30 38121 H 3654.47 1.10752 1.60375 0
M  V30 38122 H 3653.56 0.633429 3.05604 0
M  V30 38123 N 3653.86 -1.44574 0.627389 0
M  V30 38124 C 3655.09 -2.06444 0.13735 0
M  V30 38125 C 3655.51 -1.46857 -1.18652 0
M  V30 38126 O 3654.86 -0.590048 -1.72698 0
M  V30 38127 C 3654.91 -3.61498 0.0124116 0
M  V30 38128 O 3654.64 -4.18864 1.28393 0
M  V30 38129 C 3656.14 -4.40394 -0.506764 0
M  V30 38130 H 3653.36 -0.666457 0.0779504 0
M  V30 38131 H 3655.9 -1.85504 0.860733 0
M  V30 38132 H 3654.06 -3.81712 -0.661393 0
M  V30 38133 H 3654.47 -5.12263 1.12635 0
M  V30 38134 H 3655.94 -5.49321 -0.543207 0
M  V30 38135 H 3656.42 -4.11575 -1.53307 0
M  V30 38136 H 3657.03 -4.2509 0.133664 0
M  V30 38137 N 3655.34 -0.367711 -1.5325 0
M  V30 38138 C 3656.59 0.221643 -2.01585 0
M  V30 38139 C 3656.92 1.48246 -1.25446 0
M  V30 38140 O 3656.2 1.91348 -0.34876 0
M  V30 38141 C 3656.48 0.511444 -3.5645 0
M  V30 38142 C 3656.33 -0.763153 -4.43279 0
M  V30 38143 C 3657.65 1.31113 -4.20116 0
M  V30 38144 H 3654.77 0.0790825 -0.732745 0
M  V30 38145 H 3657.41 -0.493023 -1.83492 0
M  V30 38146 H 3655.56 1.12027 -3.71998 0
M  V30 38147 H 3657.23 -1.4006 -4.39524 0
M  V30 38148 H 3655.48 -1.38306 -4.11162 0
M  V30 38149 H 3656.15 -0.515312 -5.49589 0
M  V30 38150 H 3658.62 0.796097 -4.08413 0
M  V30 38151 H 3657.5 1.48265 -5.28497 0
M  V30 38152 H 3657.76 2.32025 -3.7632 0
M  V30 38153 N 3656.82 1.57302 -0.0969353 0
M  V30 38154 C 3657.75 2.17149 0.858405 0
M  V30 38155 C 3658.73 1.10534 1.29292 0
M  V30 38156 O 3659.92 1.38679 1.35948 0
M  V30 38157 C 3657.05 2.75329 2.11686 0
M  V30 38158 C 3656 3.87333 1.82091 0
M  V30 38159 C 3655.33 4.32224 3.1478 0
M  V30 38160 C 3656.63 5.10446 1.10642 0
M  V30 38161 H 3658.32 2.97231 0.359768 0
M  V30 38162 H 3655.87 1.42974 0.171605 0
M  V30 38163 H 3657.82 3.15849 2.78957 0
M  V30 38164 H 3656.54 1.92505 2.63836 0
M  V30 38165 H 3655.2 3.47356 1.17216 0
M  V30 38166 H 3654.85 3.46288 3.6482 0
M  V30 38167 H 3654.55 5.0774 2.9576 0
M  V30 38168 H 3656.07 4.75379 3.83207 0
M  V30 38169 H 3657.49 5.48124 1.68027 0
M  V30 38170 H 3655.88 5.91403 1.01795 0
M  V30 38171 H 3656.95 4.84817 0.0894782 0
M  V30 38172 N 3658.3 -0.176766 1.56606 0
M  V30 38173 C 3659.21 -1.23899 1.99214 0
M  V30 38174 C 3660.22 -1.48756 0.902641 0
M  V30 38175 O 3661.4 -1.61011 1.20985 0
M  V30 38176 C 3658.46 -2.55934 2.33878 0
M  V30 38177 C 3657.53 -2.38988 3.56628 0
M  V30 38178 C 3656.76 -3.64726 3.89629 0
M  V30 38179 O 3656.98 -4.69674 3.2367 0
M  V30 38180 O 3655.92 -3.59161 4.82998 0
M  V30 38181 H 3659.74 -0.907347 2.89829 0
M  V30 38182 H 3657.33 -0.383209 1.44402 0
M  V30 38183 H 3659.21 -3.33831 2.57167 0
M  V30 38184 H 3657.88 -2.88689 1.46426 0
M  V30 38185 H 3656.79 -1.5914 3.38564 0
M  V30 38186 H 3658.12 -2.11159 4.44604 0
M  V30 38187 N 3659.78 -1.51183 -0.445132 0
M  V30 38188 C 3661.19 -1.39185 -0.780999 0
M  V30 38189 C 3661.39 -0.468111 -1.95987 0
M  V30 38190 O 3660.45 0.0796379 -2.52374 0
M  V30 38191 C 3661.76 -2.81069 -1.06869 0
M  V30 38192 C 3663.31 -2.90165 -1.17359 0
M  V30 38193 C 3663.78 -4.32939 -1.49426 0
M  V30 38194 N 3665.27 -4.36009 -1.56366 0
M  V30 38195 C 3666.01 -5.43503 -1.82734 0
M  V30 38196 N 3665.51 -6.61169 -2.06947 0
M  V30 38197 N 3667.3 -5.30975 -1.84451 0
M  V30 38198 H 3659.45 -2.09799 0.331384 0
M  V30 38199 H 3661.71 -0.944107 0.0858268 0
M  V30 38200 H 3661.42 -3.50621 -0.275245 0
M  V30 38201 H 3661.29 -3.19917 -1.99833 0
M  V30 38202 H 3663.68 -2.20815 -1.95767 0
M  V30 38203 H 3663.76 -2.54825 -0.223135 0
M  V30 38204 H 3663.4 -5.02835 -0.715485 0
M  V30 38205 H 3663.33 -4.65786 -2.45664 0
M  V30 38206 H 3665.83 -3.51174 -1.39589 0
M  V30 38207 H 3666.14 -7.38889 -2.26414 0
M  V30 38208 H 3664.48 -6.64299 -2.04285 0
M  V30 38209 H 3667.67 -4.38037 -1.65049 0
M  V30 38210 H 3667.85 -6.14831 -2.04664 0
M  V30 38211 N 3661.25 0.700065 -1.41198 0
M  V30 38212 C 3662.18 1.82658 -1.45459 0
M  V30 38213 C 3663.16 1.67181 -0.313748 0
M  V30 38214 O 3664.35 1.86981 -0.524561 0
M  V30 38215 C 3661.48 3.20755 -1.33167 0
M  V30 38216 C 3660.43 3.50929 -2.45016 0
M  V30 38217 C 3659.76 4.88335 -2.17791 0
M  V30 38218 C 3661.06 3.50358 -3.87358 0
M  V30 38219 H 3662.75 1.79349 -2.39738 0
M  V30 38220 H 3660.3 0.861445 -1.15391 0
M  V30 38221 H 3662.25 3.99271 -1.34761 0
M  V30 38222 H 3660.98 3.24679 -0.353703 0
M  V30 38223 H 3659.64 2.74761 -2.42697 0
M  V30 38224 H 3659.28 4.88879 -1.18348 0
M  V30 38225 H 3658.98 5.09489 -2.92737 0
M  V30 38226 H 3660.51 5.69166 -2.21093 0
M  V30 38227 H 3661.92 4.18886 -3.91417 0
M  V30 38228 H 3660.32 3.83043 -4.61951 0
M  V30 38229 H 3661.39 2.49423 -4.15832 0
M  V30 38230 N 3662.73 1.26951 0.933869 0
M  V30 38231 C 3663.98 1.13094 1.68338 0
M  V30 38232 C 3664.31 -0.323637 1.91484 0
M  V30 38233 O 3663.59 -1.23721 1.50078 0
M  V30 38234 C 3663.87 1.90843 3.0537 0
M  V30 38235 C 3663.72 3.44249 2.89504 0
M  V30 38236 C 3665.04 1.70802 4.05604 0
M  V30 38237 H 3662.16 0.41222 0.610937 0
M  V30 38238 H 3664.8 1.56034 1.08413 0
M  V30 38239 H 3662.95 1.54349 3.56523 0
M  V30 38240 H 3664.62 3.90537 2.45516 0
M  V30 38241 H 3662.87 3.70903 2.24975 0
M  V30 38242 H 3663.54 3.93886 3.86728 0
M  V30 38243 H 3666.01 2.0261 3.6344 0
M  V30 38244 H 3664.89 2.27606 4.99486 0
M  V30 38245 H 3665.15 0.654404 4.3723 0
M  V30 38246 N 3664.21 -1.13949 1.08873 0
M  V30 38247 C 3665.46 -1.8537 0.822536 0
M  V30 38248 C 3665.79 -1.82994 -0.650151 0
M  V30 38249 O 3665.06 -1.26401 -1.47828 0
M  V30 38250 C 3665.35 -3.33791 1.35113 0
M  V30 38251 C 3665.2 -3.44714 2.88951 0
M  V30 38252 C 3666.52 -4.29044 0.980278 0
M  V30 38253 H 3663.64 -0.673059 0.300266 0
M  V30 38254 H 3666.28 -1.33781 1.34917 0
M  V30 38255 H 3664.43 -3.77856 0.903174 0
M  V30 38256 H 3666.1 -3.09401 3.42153 0
M  V30 38257 H 3664.34 -2.85771 3.2637 0
M  V30 38258 H 3665.02 -4.49061 3.21012 0
M  V30 38259 H 3667.49 -3.93021 1.36653 0
M  V30 38260 H 3666.37 -5.3134 1.37727 0
M  V30 38261 H 3666.63 -4.41958 -0.112175 0
M  V30 38262 N 3665.69 -0.875096 -1.31072 0
M  V30 38263 C 3666.91 -0.502419 -2.01223 0
M  V30 38264 C 3667.34 0.899024 -1.65225 0
M  V30 38265 O 3666.7 1.59411 -0.863587 0
M  V30 38266 C 3666.74 -0.672809 -3.54268 0
M  V30 38267 O 3665.85 0.285645 -4.1141 0
M  V30 38268 H 3665.19 -0.199192 -0.633418 0
M  V30 38269 H 3667.72 -1.17992 -1.6715 0
M  V30 38270 H 3667.73 -0.568044 -4.04026 0
M  V30 38271 H 3666.4 -1.69466 -3.79808 0
M  V30 38272 H 3664.98 0.135406 -3.72654 0
M  V30 38273 N 3667.17 1.44239 -0.635047 0
M  V30 38274 C 3668.39 2.06881 -0.146585 0
M  V30 38275 C 3668.82 1.47172 1.17141 0
M  V30 38276 O 3668.17 0.574666 1.71951 0
M  V30 38277 C 3668.22 3.60566 -0.0495328 0
M  V30 38278 O 3667.33 4.00258 0.993353 0
M  V30 38279 H 3666.67 0.658334 -0.0865621 0
M  V30 38280 H 3669.2 1.85048 -0.872836 0
M  V30 38281 H 3669.21 4.07761 0.139767 0
M  V30 38282 H 3667.88 4.03406 -1.01176 0
M  V30 38283 H 3666.46 3.64687 0.778307 0
M  V30 38284 N 3668.64 0.375833 1.53053 0
M  V30 38285 C 3669.57 -0.457499 2.28974 0
M  V30 38286 C 3670.56 -1.07513 1.31814 0
M  V30 38287 O 3671.74 -1.09045 1.60695 0
M  V30 38288 C 3668.87 -1.59206 3.08659 0
M  V30 38289 C 3667.82 -1.10116 4.13592 0
M  V30 38290 C 3667.15 -2.32676 4.81421 0
M  V30 38291 C 3668.45 -0.178628 5.21994 0
M  V30 38292 H 3670.14 0.175925 2.98883 0
M  V30 38293 H 3667.69 0.0860506 1.43743 0
M  V30 38294 H 3669.64 -2.18176 3.60524 0
M  V30 38295 H 3668.37 -2.25287 2.3646 0
M  V30 38296 H 3667.03 -0.534087 3.62689 0
M  V30 38297 H 3666.67 -2.97236 4.05783 0
M  V30 38298 H 3666.37 -2.00497 5.52336 0
M  V30 38299 H 3667.9 -2.92312 5.36084 0
M  V30 38300 H 3669.31 -0.676104 5.69299 0
M  V30 38301 H 3667.71 0.052766 6.00077 0
M  V30 38302 H 3668.78 0.77633 4.78645 0
M  V30 38303 N 3670.12 -1.57248 0.105276 0
M  V30 38304 C 3671.03 -2.18112 -0.863968 0
M  V30 38305 C 3672.05 -1.15339 -1.3028 0
M  V30 38306 O 3673.22 -1.47753 -1.36862 0
M  V30 38307 C 3670.29 -2.75761 -2.10136 0
M  V30 38308 C 3669.35 -3.93523 -1.71576 0
M  V30 38309 C 3668.58 -4.48413 -2.89416 0
M  V30 38310 O 3668.81 -4.02222 -4.04442 0
M  V30 38311 O 3667.74 -5.39294 -2.67294 0
M  V30 38312 H 3671.57 -3.01362 -0.376078 0
M  V30 38313 H 3669.15 -1.4892 -0.119617 0
M  V30 38314 H 3671.03 -3.12565 -2.82633 0
M  V30 38315 H 3669.71 -1.9555 -2.57957 0
M  V30 38316 H 3668.62 -3.61512 -0.962283 0
M  V30 38317 H 3669.95 -4.75128 -1.28508 0
M  V30 38318 N 3671.6 0.168458 -1.56697 0
M  V30 38319 C 3672.56 1.19232 -1.95746 0
M  V30 38320 C 3673.56 1.37027 -0.841443 0
M  V30 38321 O 3674.75 1.34384 -1.10845 0
M  V30 38322 C 3671.89 2.55682 -2.25476 0
M  V30 38323 H 3673.08 0.857842 -2.87369 0
M  V30 38324 H 3670.63 0.411015 -1.50799 0
M  V30 38325 H 3671.37 2.94139 -1.36576 0
M  V30 38326 H 3671.15 2.44132 -3.06826 0
M  V30 38327 H 3672.64 3.29465 -2.56599 0
M  V30 38328 N 3673.08 1.51417 0.437109 0
M  V30 38329 C 3674.01 1.75695 1.53797 0
M  V30 38330 C 3674.99 0.606787 1.58909 0
M  V30 38331 O 3676.17 0.849523 1.74633 0
M  V30 38332 C 3673.3 1.8822 2.91874 0
M  V30 38333 C 3672.26 3.03657 3.01623 0
M  V30 38334 C 3671.58 3.01366 4.41682 0
M  V30 38335 C 3672.88 4.43617 2.75683 0
M  V30 38336 H 3674.58 2.67873 1.33732 0
M  V30 38337 H 3672.12 1.28901 0.641914 0
M  V30 38338 H 3674.08 2.03787 3.68848 0
M  V30 38339 H 3672.8 0.926902 3.13171 0
M  V30 38340 H 3671.46 2.87795 2.27089 0
M  V30 38341 H 3671.11 2.03614 4.59946 0
M  V30 38342 H 3670.81 3.78883 4.49134 0
M  V30 38343 H 3672.33 3.19027 5.20629 0
M  V30 38344 H 3673.75 4.59828 3.4239 0
M  V30 38345 H 3672.14 5.22842 2.94545 0
M  V30 38346 H 3673.21 4.53639 1.71289 0
M  V30 38347 N 3674.56 -0.692567 1.41567 0
M  V30 38348 C 3675.47 -1.8362 1.46017 0
M  V30 38349 C 3676.48 -1.70434 0.350483 0
M  V30 38350 O 3677.66 -1.92296 0.598668 0
M  V30 38351 C 3674.72 -3.19626 1.34313 0
M  V30 38352 C 3673.78 -3.44899 2.55623 0
M  V30 38353 C 3673.02 -4.74417 2.44468 0
M  V30 38354 O 3673.24 -5.51109 1.47088 0
M  V30 38355 O 3672.17 -5.0054 3.34281 0
M  V30 38356 H 3676 -1.82822 2.42507 0
M  V30 38357 H 3673.59 -0.846018 1.23138 0
M  V30 38358 H 3675.47 -4.0082 1.30082 0
M  V30 38359 H 3674.14 -3.21101 0.409399 0
M  V30 38360 H 3673.05 -2.63623 2.65431 0
M  V30 38361 H 3674.38 -3.48241 3.47835 0
M  V30 38362 N 3676.03 -1.27445 -0.927123 0
M  V30 38363 C 3677.26 -1.16742 -1.71424 0
M  V30 38364 C 3677.68 0.27203 -1.86123 0
M  V30 38365 O 3677.04 1.197 -1.36167 0
M  V30 38366 C 3677.09 -1.85667 -3.09128 0
M  V30 38367 O 3676.19 -1.15502 -3.95895 0
M  V30 38368 H 3675.54 -0.405992 -0.52542 0
M  V30 38369 H 3678.07 -1.68525 -1.16019 0
M  V30 38370 H 3678.08 -1.93048 -3.59439 0
M  V30 38371 H 3676.75 -2.90379 -2.97747 0
M  V30 38372 H 3675.33 -1.16194 -3.54335 0
M  V30 38373 N 3677.51 1.1337 -1.09476 0
M  V30 38374 C 3678.75 1.86307 -0.840786 0
M  V30 38375 C 3679.12 1.81636 0.622295 0
M  V30 38376 O 3680.32 2.49817 0.992221 0
M  V30 38377 C 3678.59 3.30436 -1.36186 0
M  V30 38378 S 3680.15 4.20861 -1.24183 0
M  V30 38379 H 3676.97 0.642694 -0.304082 0
M  V30 38380 H 3679.57 1.36636 -1.39824 0
M  V30 38381 H 3678.27 3.3139 -2.42092 0
M  V30 38382 H 3677.8 3.85168 -0.800553 0
M  V30 38383 H 3679.82 4.95824 -0.193108 0
M  V30 38384 N 3678.99 0.882035 1.30606 0
M  V30 38385 C 3680.24 0.498999 1.96256 0
M  V30 38386 C 3680.57 -0.95123 1.69652 0
M  V30 38387 O 3679.82 -1.68675 0.992333 0
M  V30 38388 C 3680.12 0.716991 3.50134 0
M  V30 38389 C 3679.79 2.14185 3.96781 0
M  V30 38390 C 3678.45 2.53149 4.0923 0
M  V30 38391 C 3680.8 3.07055 4.21149 0
M  V30 38392 C 3678.13 3.842 4.43404 0
M  V30 38393 C 3680.48 4.37635 4.56792 0
M  V30 38394 C 3679.14 4.76496 4.67448 0
M  V30 38395 H 3678.41 0.182596 0.71815 0
M  V30 38396 H 3681.06 1.11733 1.55525 0
M  V30 38397 H 3679.37 0.0156077 3.91797 0
M  V30 38398 H 3681.06 0.400267 3.98997 0
M  V30 38399 H 3677.65 1.82939 3.87597 0
M  V30 38400 H 3681.84 2.78174 4.11015 0
M  V30 38401 H 3677.09 4.14055 4.49854 0
M  V30 38402 H 3681.27 5.09637 4.74598 0
M  V30 38403 H 3678.89 5.78083 4.93684 0
M  V30 38404 N 3680.47 -1.439 0.642688 0
M  V30 38405 C 3681.43 -2.29154 -0.0457455 0
M  V30 38406 C 3682.43 -1.41654 -0.760963 0
M  V30 38407 O 3683.62 -1.63401 -0.603804 0
M  V30 38408 C 3680.75 -3.23491 -1.07546 0
M  V30 38409 H 3681.95 -2.91514 0.704244 0
M  V30 38410 H 3679.5 -1.51005 0.403387 0
M  V30 38411 H 3680.23 -2.66005 -1.85504 0
M  V30 38412 H 3680.02 -3.87988 -0.5664 0
M  V30 38413 H 3681.51 -3.87506 -1.55656 0
M  V30 38414 N 3681.95 -0.383945 -1.52852 0
M  V30 38415 C 3683.19 0.20025 -2.01809 0
M  V30 38416 C 3683.53 1.46907 -1.27012 0
M  V30 38417 O 3682.8 1.90967 -0.369035 0
M  V30 38418 C 3683.08 0.473609 -3.56972 0
M  V30 38419 C 3682.94 -0.810126 -4.42444 0
M  V30 38420 C 3684.26 1.2665 -4.21483 0
M  V30 38421 H 3681.38 0.0713063 -0.733542 0
M  V30 38422 H 3684.02 -0.512457 -1.82959 0
M  V30 38423 H 3682.17 1.08075 -3.73165 0
M  V30 38424 H 3683.84 -1.44714 -4.38013 0
M  V30 38425 H 3682.08 -1.42659 -4.09671 0
M  V30 38426 H 3682.75 -0.573574 -5.49012 0
M  V30 38427 H 3685.23 0.752734 -4.09235 0
M  V30 38428 H 3684.11 1.42651 -5.30039 0
M  V30 38429 H 3684.37 2.28021 -3.7876 0
M  V30 38430 N 3683.43 1.5719 -0.113614 0
M  V30 38431 C 3684.67 1.94624 0.544608 0
M  V30 38432 C 3684.99 0.997457 1.67558 0
M  V30 38433 O 3684.26 0.0527865 1.95829 0
M  V30 38434 H 3682.84 0.718556 0.204173 0
M  V30 38435 H 3685.51 1.94055 -0.181292 0
M  V30 38436 H 3684.6 2.97522 0.942713 0
M  V30 38437 N 3684.9 -0.160146 1.56784 0
M  V30 38438 C 3686.31 -0.721522 1.72195 0
M  V30 38439 C 3686.67 -1.82276 0.725933 0
M  V30 38440 O 3685.79 -2.16119 -0.110305 0
M  V30 38441 C 3686.39 -1.31558 3.12215 0
M  V30 38442 C 3684.94 -1.82366 3.29272 0
M  V30 38443 C 3684.09 -0.706963 2.68137 0
M  V30 38444 H 3687.04 0.06538 1.58565 0
M  V30 38445 H 3687.06 -2.18534 3.11485 0
M  V30 38446 H 3686.58 -0.513849 3.84683 0
M  V30 38447 H 3684.68 -2.65147 2.61778 0
M  V30 38448 H 3684.79 -1.96141 4.3711 0
M  V30 38449 H 3683.15 -1.13026 2.28248 0
M  V30 38450 H 3683.94 0.083101 3.43199 0
M  V30 38451 N 3686.38 -1.51647 -0.429072 0
M  V30 38452 C 3687.63 -1.63956 -1.17479 0
M  V30 38453 C 3687.94 -0.365684 -1.92151 0
M  V30 38454 O 3689.15 -0.368268 -2.68991 0
M  V30 38455 C 3687.61 -2.89588 -2.13697 0
M  V30 38456 C 3687.21 -4.2401 -1.44635 0
M  V30 38457 C 3688.96 -3.11257 -2.88651 0
M  V30 38458 C 3686.86 -5.40785 -2.39385 0
M  V30 38459 H 3685.79 -0.6107 -0.442223 0
M  V30 38460 H 3688.45 -1.78121 -0.441057 0
M  V30 38461 H 3686.83 -2.69076 -2.90541 0
M  V30 38462 H 3688 -4.54934 -0.732932 0
M  V30 38463 H 3686.32 -4.08286 -0.818013 0
M  V30 38464 H 3688.91 -3.95675 -3.59646 0
M  V30 38465 H 3689.26 -2.2467 -3.5047 0
M  V30 38466 H 3689.79 -3.32147 -2.18913 0
M  V30 38467 H 3686.53 -6.29657 -1.82244 0
M  V30 38468 H 3686.05 -5.14227 -3.08757 0
M  V30 38469 H 3687.73 -5.73066 -3.00339 0
M  V30 38470 N 3687.86 0.685049 -1.41932 0
M  V30 38471 C 3689.11 1.44082 -1.4115 0
M  V30 38472 C 3689.42 1.95581 -0.0276136 0
M  V30 38473 O 3690.63 2.71305 0.102825 0
M  V30 38474 C 3689.08 2.60591 -2.48234 0
M  V30 38475 C 3688.69 2.15835 -3.9258 0
M  V30 38476 C 3690.44 3.38164 -2.56603 0
M  V30 38477 C 3688.34 3.29365 -4.91195 0
M  V30 38478 H 3687.27 0.541243 -0.52495 0
M  V30 38479 H 3689.92 0.742671 -1.67799 0
M  V30 38480 H 3688.31 3.32725 -2.14733 0
M  V30 38481 H 3689.48 1.50922 -4.35384 0
M  V30 38482 H 3687.79 1.51228 -3.87968 0
M  V30 38483 H 3690.39 4.22698 -3.27461 0
M  V30 38484 H 3690.73 3.84064 -1.60625 0
M  V30 38485 H 3691.27 2.73094 -2.89248 0
M  V30 38486 H 3688.01 2.88467 -5.88615 0
M  V30 38487 H 3687.53 3.93094 -4.53031 0
M  V30 38488 H 3689.21 3.94987 -5.1244 0
M  V30 38489 N 3689.34 1.27935 0.920351 0
M  V30 38490 C 3690.25 1.13126 2.05523 0
M  V30 38491 C 3691.26 0.0594515 1.73898 0
M  V30 38492 O 3692.44 0.267421 1.99617 0
M  V30 38493 C 3689.5 0.78761 3.37635 0
M  V30 38494 C 3688.57 1.94108 3.82911 0
M  V30 38495 C 3687.8 1.61373 5.08718 0
M  V30 38496 O 3688.02 0.525017 5.67979 0
M  V30 38497 O 3686.96 2.45527 5.49545 0
M  V30 38498 H 3690.78 2.08382 2.20932 0
M  V30 38499 H 3688.37 1.07191 1.04069 0
M  V30 38500 H 3690.25 0.609617 4.16967 0
M  V30 38501 H 3688.92 -0.135351 3.23417 0
M  V30 38502 H 3687.83 2.17418 3.04434 0
M  V30 38503 H 3689.16 2.84451 4.01682 0
M  V30 38504 N 3690.82 -1.12788 1.10076 0
M  V30 38505 C 3691.76 -2.18404 0.746211 0
M  V30 38506 C 3692.73 -1.63796 -0.275722 0
M  V30 38507 O 3693.92 -1.90162 -0.155842 0
M  V30 38508 C 3691.06 -3.44629 0.180166 0
M  V30 38509 C 3690.17 -4.1331 1.25695 0
M  V30 38510 C 3689.31 -5.27172 0.652945 0
M  V30 38511 C 3688.34 -5.87712 1.71057 0
M  V30 38512 N 3687.48 -6.92994 1.1271 0
M  V30 38513 H 3692.32 -2.48079 1.65109 0
M  V30 38514 H 3689.86 -1.21802 0.824789 0
M  V30 38515 H 3691.82 -4.1687 -0.165875 0
M  V30 38516 H 3690.45 -3.15384 -0.687958 0
M  V30 38517 H 3689.5 -3.39285 1.72017 0
M  V30 38518 H 3690.81 -4.54379 2.0577 0
M  V30 38519 H 3689.96 -6.06159 0.256136 0
M  V30 38520 H 3688.7 -4.8737 -0.179284 0
M  V30 38521 H 3687.71 -5.07415 2.11685 0
M  V30 38522 H 3688.93 -6.29585 2.54558 0
M  V30 38523 H 3686.88 -6.55237 0.31627 0
M  V30 38524 H 3686.8 -7.32641 1.86474 0
M  V30 38525 H 3688.06 -7.75818 0.756718 0
M  V30 38526 N 3692.29 -0.888949 -1.30136 0
M  V30 38527 C 3693.2 -0.362841 -2.31777 0
M  V30 38528 C 3694.22 0.536951 -1.65508 0
M  V30 38529 O 3695.4 0.429117 -1.96775 0
M  V30 38530 C 3692.46 0.410612 -3.4426 0
M  V30 38531 C 3691.52 -0.519409 -4.26146 0
M  V30 38532 C 3690.75 0.217226 -5.33258 0
M  V30 38533 O 3690.98 1.44274 -5.51852 0
M  V30 38534 O 3689.91 -0.434716 -6.00328 0
M  V30 38535 H 3693.74 -1.2058 -2.78737 0
M  V30 38536 H 3691.32 -0.652913 -1.34378 0
M  V30 38537 H 3693.2 0.848395 -4.12771 0
M  V30 38538 H 3691.88 1.22981 -2.99428 0
M  V30 38539 H 3690.79 -1.00608 -3.60318 0
M  V30 38540 H 3692.12 -1.30472 -4.74592 0
M  V30 38541 N 3693.77 1.43557 -0.65031 0
M  V30 38542 C 3695.19 1.56408 -0.317613 0
M  V30 38543 C 3695.39 1.6345 1.17841 0
M  V30 38544 O 3694.44 1.58798 1.96315 0
M  V30 38545 C 3695.76 2.8264 -1.02641 0
M  V30 38546 C 3697.3 2.9638 -1.00638 0
M  V30 38547 C 3697.78 4.2544 -1.69602 0
M  V30 38548 N 3699.27 4.32298 -1.66352 0
M  V30 38549 C 3700.01 5.3092 -2.1659 0
M  V30 38550 N 3699.5 6.35838 -2.75103 0
M  V30 38551 N 3701.29 5.22554 -2.07107 0
M  V30 38552 H 3693.45 1.3723 -1.62116 0
M  V30 38553 H 3695.71 0.658883 -0.681599 0
M  V30 38554 H 3695.41 2.83489 -2.08151 0
M  V30 38555 H 3695.29 3.72774 -0.576146 0
M  V30 38556 H 3697.68 2.95072 0.0403 0
M  V30 38557 H 3697.76 2.07543 -1.49532 0
M  V30 38558 H 3697.4 4.27507 -2.74226 0
M  V30 38559 H 3697.33 5.13168 -1.18177 0
M  V30 38560 H 3699.82 3.57098 -1.2365 0
M  V30 38561 H 3700.13 7.07406 -3.11121 0
M  V30 38562 H 3698.48 6.36469 -2.79163 0
M  V30 38563 H 3701.67 4.39504 -1.61101 0
M  V30 38564 H 3701.84 5.99256 -2.46568 0
M  V30 38565 N 3695.25 0.392045 1.52646 0
M  V30 38566 C 3696.2 -0.456634 2.28074 0
M  V30 38567 C 3697.19 -1.06069 1.32082 0
M  V30 38568 O 3698.4 -1.00085 1.49609 0
M  V30 38569 H 3694.77 -0.166017 0.733446 0
M  V30 38570 H 3696.74 0.200968 2.97722 0
M  V30 38571 C 3695.49 -1.57035 3.10218 0
M  V30 38572 H 3694.82 -1.11486 3.83941 0
M  V30 38573 H 3696.26 -2.13834 3.6613 0
M  V30 38574 C 3694.71 -2.52795 2.22702 0
M  V30 38575 O 3695.24 -3.5627 1.85566 0
M  V30 38576 N 3693.45 -2.22601 1.86808 0
M  V30 38577 H 3693 -1.38488 2.17207 0
M  V30 38578 H 3692.96 -2.86922 1.28543 0
M  V30 38579 N 3696.73 -1.57127 0.121948 0
M  V30 38580 C 3697.68 -2.15468 -0.827167 0
M  V30 38581 C 3698.65 -1.08049 -1.26153 0
M  V30 38582 O 3699.83 -1.35971 -1.33852 0
M  V30 38583 C 3696.97 -2.76071 -2.07072 0
M  V30 38584 C 3696.08 -3.97807 -1.68445 0
M  V30 38585 C 3695.22 -4.46487 -2.87789 0
M  V30 38586 C 3694.26 -5.60747 -2.45416 0
M  V30 38587 N 3693.39 -6.04158 -3.57684 0
M  V30 38588 H 3698.23 -2.96246 -0.322827 0
M  V30 38589 H 3695.77 -1.46357 -0.147651 0
M  V30 38590 H 3697.73 -3.0934 -2.79937 0
M  V30 38591 H 3696.36 -1.97978 -2.5496 0
M  V30 38592 H 3695.41 -3.7068 -0.854422 0
M  V30 38593 H 3696.72 -4.80656 -1.33307 0
M  V30 38594 H 3695.88 -4.8168 -3.68876 0
M  V30 38595 H 3694.62 -3.62593 -3.26156 0
M  V30 38596 H 3693.62 -5.25156 -1.62763 0
M  V30 38597 H 3694.85 -6.46409 -2.08164 0
M  V30 38598 H 3692.79 -5.23204 -3.95719 0
M  V30 38599 H 3692.71 -6.8187 -3.26479 0
M  V30 38600 H 3693.98 -6.43989 -4.39202 0
M  V30 38601 N 3698.21 0.151829 -1.56867 0
M  V30 38602 C 3699.15 1.20681 -1.98844 0
M  V30 38603 C 3700.15 1.44744 -0.880095 0
M  V30 38604 O 3701.35 1.45093 -1.06527 0
M  V30 38605 H 3697.73 0.406112 -0.632911 0
M  V30 38606 H 3699.7 0.826044 -2.86739 0
M  V30 38607 C 3698.45 2.53385 -2.381 0
M  V30 38608 H 3697.77 2.35698 -3.22934 0
M  V30 38609 H 3699.21 3.25842 -2.71298 0
M  V30 38610 C 3697.67 3.13573 -1.2318 0
M  V30 38611 O 3698.2 3.98189 -0.529934 0
M  V30 38612 N 3696.41 2.72951 -0.997303 0
M  V30 38613 H 3695.95 2.04241 -1.56982 0
M  V30 38614 H 3695.91 3.13556 -0.230276 0
M  V30 38615 N 3699.68 1.51872 0.421024 0
M  V30 38616 C 3700.65 1.73752 1.49475 0
M  V30 38617 C 3701.65 0.607422 1.48886 0
M  V30 38618 O 3702.84 0.87517 1.5062 0
M  V30 38619 C 3699.97 1.80898 2.88944 0
M  V30 38620 H 3701.16 2.69595 1.31372 0
M  V30 38621 H 3698.72 1.42108 0.650761 0
M  V30 38622 H 3699.45 0.869275 3.12433 0
M  V30 38623 H 3699.24 2.63043 2.90776 0
M  V30 38624 H 3700.73 1.99609 3.66805 0
M  V30 38625 N 3701.16 -0.677513 1.42294 0
M  V30 38626 C 3702.13 -1.77291 1.45261 0
M  V30 38627 C 3703.13 -1.57152 0.340582 0
M  V30 38628 O 3704.32 -1.63494 0.601288 0
M  V30 38629 C 3701.45 -3.15892 1.28161 0
M  V30 38630 H 3702.64 -1.76048 2.4279 0
M  V30 38631 H 3700.19 -0.886885 1.28701 0
M  V30 38632 H 3700.93 -3.22762 0.315437 0
M  V30 38633 H 3700.71 -3.31912 2.0875 0
M  V30 38634 H 3702.2 -3.95816 1.33114 0
M  V30 38635 N 3702.64 -1.28421 -0.913554 0
M  V30 38636 C 3703.57 -1.08166 -2.02071 0
M  V30 38637 C 3704.59 -0.033335 -1.62766 0
M  V30 38638 O 3705.77 -0.276411 -1.76347 0
M  V30 38639 C 3702.87 -0.621654 -3.3315 0
M  V30 38640 C 3702.05 -1.74543 -4.01065 0
M  V30 38641 C 3701.11 -1.27877 -5.10425 0
M  V30 38642 O 3700.13 -1.98103 -5.33614 0
M  V30 38643 N 3701.33 -0.142078 -5.80326 0
M  V30 38644 H 3704.1 -2.03513 -2.20005 0
M  V30 38645 H 3701.66 -1.20176 -1.08486 0
M  V30 38646 H 3703.65 -0.29306 -4.03638 0
M  V30 38647 H 3702.22 0.238976 -3.11685 0
M  V30 38648 H 3701.44 -2.24361 -3.24123 0
M  V30 38649 H 3702.73 -2.49927 -4.43186 0
M  V30 38650 H 3702.13 0.443746 -5.63957 0
M  V30 38651 H 3700.69 0.12724 -6.51676 0
M  V30 38652 N 3704.12 1.12202 -1.10672 0
M  V30 38653 C 3705.03 2.21595 -0.770259 0
M  V30 38654 C 3706.04 1.72429 0.233267 0
M  V30 38655 O 3707.22 2.01273 0.071414 0
M  V30 38656 C 3704.29 3.46065 -0.209743 0
M  V30 38657 C 3703.35 4.10058 -1.27086 0
M  V30 38658 C 3702.58 5.28587 -0.736992 0
M  V30 38659 O 3702.8 5.68733 0.435738 0
M  V30 38660 O 3701.74 5.82959 -1.49807 0
M  V30 38661 H 3705.56 2.52773 -1.68344 0
M  V30 38662 H 3703.15 1.20584 -0.882033 0
M  V30 38663 H 3705.03 4.21284 0.0988775 0
M  V30 38664 H 3703.7 3.16557 0.676261 0
M  V30 38665 H 3702.61 3.36607 -1.63237 0
M  V30 38666 H 3703.94 4.43727 -2.12996 0
M  V30 38667 N 3705.6 0.895838 1.29663 0
M  V30 38668 C 3706.53 0.387191 2.30267 0
M  V30 38669 C 3707.51 -0.535739 1.61443 0
M  V30 38670 O 3708.69 -0.447288 1.88979 0
M  V30 38671 C 3705.82 -0.389578 3.45108 0
M  V30 38672 C 3704.78 0.442573 4.25706 0
M  V30 38673 C 3704.1 -0.461459 5.32705 0
M  V30 38674 C 3705.4 1.69045 4.94187 0
M  V30 38675 H 3707.1 1.22791 2.73062 0
M  V30 38676 H 3704.64 0.591892 1.31273 0
M  V30 38677 H 3706.6 -0.75613 4.14561 0
M  V30 38678 H 3705.32 -1.26404 3.01147 0
M  V30 38679 H 3703.98 0.791406 3.57956 0
M  V30 38680 H 3703.63 -1.33395 4.84989 0
M  V30 38681 H 3703.33 0.0916039 5.87529 0
M  V30 38682 H 3704.85 -0.824288 6.05011 0
M  V30 38683 H 3706.26 1.39386 5.56098 0
M  V30 38684 H 3704.66 2.18454 5.58926 0
M  V30 38685 H 3705.73 2.42866 4.19695 0
M  V30 38686 N 3707.07 -1.43211 0.657914 0
M  V30 38687 C 3708.04 -2.2919 -0.021438 0
M  V30 38688 C 3709.04 -1.42454 -0.745896 0
M  V30 38689 O 3710.23 -1.64032 -0.586439 0
M  V30 38690 C 3707.36 -3.24614 -1.04109 0
M  V30 38691 H 3708.55 -2.90751 0.735124 0
M  V30 38692 H 3706.11 -1.50569 0.419381 0
M  V30 38693 H 3706.84 -2.67957 -1.82673 0
M  V30 38694 H 3706.63 -3.88566 -0.525217 0
M  V30 38695 H 3708.12 -3.89135 -1.51537 0
M  V30 38696 N 3708.55 -0.400135 -1.52436 0
M  V30 38697 C 3709.78 0.178327 -2.0613 0
M  V30 38698 C 3710.2 1.39614 -1.27096 0
M  V30 38699 O 3709.55 1.79665 -0.320441 0
M  V30 38700 C 3709.6 0.537707 -3.57479 0
M  V30 38701 O 3709.32 -0.631733 -4.33521 0
M  V30 38702 C 3710.83 1.17087 -4.27558 0
M  V30 38703 H 3708.05 0.0243501 -0.670558 0
M  V30 38704 H 3710.59 -0.568493 -1.96439 0
M  V30 38705 H 3708.74 1.23442 -3.67207 0
M  V30 38706 H 3709.16 -0.333895 -5.23436 0
M  V30 38707 H 3710.63 1.37261 -5.34662 0
M  V30 38708 H 3711.11 2.14138 -3.8346 0
M  V30 38709 H 3711.72 0.514613 -4.22175 0
M  V30 38710 N 3710.03 1.57061 -0.13028 0
M  V30 38711 C 3710.96 2.18921 0.812151 0
M  V30 38712 C 3711.94 1.13251 1.26918 0
M  V30 38713 O 3713.13 1.41531 1.32976 0
M  V30 38714 C 3710.26 2.79758 2.05798 0
M  V30 38715 C 3709.21 3.91108 1.73834 0
M  V30 38716 C 3708.54 4.38804 3.05541 0
M  V30 38717 C 3709.84 5.12678 0.997901 0
M  V30 38718 H 3711.53 2.97927 0.29664 0
M  V30 38719 H 3709.08 1.43306 0.141239 0
M  V30 38720 H 3711.03 3.21695 2.72195 0
M  V30 38721 H 3709.75 1.98058 2.59693 0
M  V30 38722 H 3708.41 3.49764 1.09822 0
M  V30 38723 H 3708.06 3.53948 3.57393 0
M  V30 38724 H 3707.76 5.13899 2.84923 0
M  V30 38725 H 3709.28 4.834 3.73037 0
M  V30 38726 H 3710.7 5.51565 1.56362 0
M  V30 38727 H 3709.1 5.93429 0.892274 0
M  V30 38728 H 3710.17 4.84898 -0.0133789 0
M  V30 38729 N 3711.51 -0.143508 1.56945 0
M  V30 38730 C 3712.44 -1.17878 2.01562 0
M  V30 38731 C 3713.42 -1.44603 0.895769 0
M  V30 38732 O 3714.61 -1.55464 1.16382 0
M  V30 38733 C 3711.74 -2.5111 2.39919 0
M  V30 38734 C 3710.69 -2.38899 3.55122 0
M  V30 38735 C 3710.02 -3.76873 3.79303 0
M  V30 38736 C 3711.32 -1.87012 4.87672 0
M  V30 38737 H 3713.01 -0.807779 2.88297 0
M  V30 38738 H 3710.56 -0.387124 1.38699 0
M  V30 38739 H 3712.51 -3.23763 2.69733 0
M  V30 38740 H 3711.23 -2.90052 1.50125 0
M  V30 38741 H 3709.89 -1.68698 3.25479 0
M  V30 38742 H 3709.54 -4.13257 2.86754 0
M  V30 38743 H 3709.24 -3.69563 4.56834 0
M  V30 38744 H 3710.76 -4.51069 4.11545 0
M  V30 38745 H 3712.18 -2.49461 5.1618 0
M  V30 38746 H 3710.57 -1.90584 5.69032 0
M  V30 38747 H 3711.64 -0.826026 4.77813 0
M  V30 38748 N 3712.99 -1.52093 -0.412964 0
M  V30 38749 C 3713.92 -1.78119 -1.50983 0
M  V30 38750 C 3714.9 -0.631991 -1.57924 0
M  V30 38751 O 3716.08 -0.877198 -1.7326 0
M  V30 38752 C 3713.21 -1.9284 -2.88843 0
M  V30 38753 C 3712.17 -3.08417 -2.96754 0
M  V30 38754 C 3711.49 -3.08355 -4.36831 0
M  V30 38755 C 3712.79 -4.47947 -2.68591 0
M  V30 38756 H 3714.49 -2.69967 -1.29454 0
M  V30 38757 H 3712.03 -1.29906 -0.621325 0
M  V30 38758 H 3713.99 -2.0963 -3.65559 0
M  V30 38759 H 3712.71 -0.976607 -3.11657 0
M  V30 38760 H 3711.37 -2.91371 -2.22482 0
M  V30 38761 H 3711.02 -2.10905 -4.56649 0
M  V30 38762 H 3710.72 -3.8598 -4.4305 0
M  V30 38763 H 3712.24 -3.27269 -5.15487 0
M  V30 38764 H 3713.66 -4.65217 -3.35031 0
M  V30 38765 H 3712.05 -5.27461 -2.8619 0
M  V30 38766 H 3713.12 -4.56306 -1.6405 0
M  V30 38767 N 3714.47 0.669957 -1.42651 0
M  V30 38768 C 3715.69 1.46312 -1.46995 0
M  V30 38769 C 3716.12 1.87912 -0.0840986 0
M  V30 38770 O 3715.47 1.5631 0.918527 0
M  V30 38771 C 3715.52 2.68536 -2.40668 0
M  V30 38772 O 3714.63 3.66985 -1.88138 0
M  V30 38773 H 3713.97 0.439363 -0.497852 0
M  V30 38774 H 3716.5 0.821315 -1.87392 0
M  V30 38775 H 3716.51 3.1655 -2.57411 0
M  V30 38776 H 3715.18 2.37598 -3.4135 0
M  V30 38777 H 3713.76 3.26041 -1.80974 0
M  V30 38778 N 3715.94 1.28904 0.90673 0
M  V30 38779 C 3716.87 1.15977 2.02661 0
M  V30 38780 C 3717.85 0.05575 1.70009 0
M  V30 38781 O 3719.04 0.233986 1.92785 0
M  V30 38782 C 3716.17 0.828175 3.37281 0
M  V30 38783 C 3715.12 1.88774 3.8412 0
M  V30 38784 C 3714.45 1.40962 5.15785 0
M  V30 38785 C 3715.75 3.29547 4.05211 0
M  V30 38786 H 3717.44 2.09662 2.13734 0
M  V30 38787 H 3714.99 1.00942 1.02697 0
M  V30 38788 H 3716.94 0.724481 4.15126 0
M  V30 38789 H 3715.67 -0.144373 3.26281 0
M  V30 38790 H 3714.33 1.9807 3.08486 0
M  V30 38791 H 3713.97 0.425936 5.01193 0
M  V30 38792 H 3713.67 2.11817 5.48094 0
M  V30 38793 H 3715.2 1.31928 5.96177 0
M  V30 38794 H 3716.61 3.23132 4.73559 0
M  V30 38795 H 3715.01 3.98298 4.48864 0
M  V30 38796 H 3716.08 3.73045 3.09783 0
M  V30 38797 N 3717.42 -1.11614 1.11266 0
M  V30 38798 C 3718.83 -1.64834 0.876742 0
M  V30 38799 C 3719.18 -1.87076 -0.591351 0
M  V30 38800 O 3718.31 -1.60363 -1.45302 0
M  V30 38801 C 3718.9 -2.99437 1.58502 0
M  V30 38802 C 3717.46 -3.49572 1.39558 0
M  V30 38803 C 3716.61 -2.24419 1.62885 0
M  V30 38804 H 3719.56 -0.952782 1.26916 0
M  V30 38805 H 3719.58 -3.66323 1.02898 0
M  V30 38806 H 3719.09 -2.83217 2.65349 0
M  V30 38807 H 3717.19 -3.70961 0.349124 0
M  V30 38808 H 3717.31 -4.28479 2.14341 0
M  V30 38809 H 3715.67 -2.31954 1.05212 0
M  V30 38810 H 3716.45 -2.10743 2.71002 0
M  V30 38811 N 3718.9 -0.902701 -1.29186 0
M  V30 38812 C 3719.86 -0.387525 -2.259 0
M  V30 38813 C 3720.86 0.479967 -1.5347 0
M  V30 38814 O 3722.05 0.284592 -1.7186 0
M  V30 38815 C 3719.18 0.445663 -3.37974 0
M  V30 38816 H 3720.38 -1.24172 -2.72986 0
M  V30 38817 H 3717.93 -0.681108 -1.40679 0
M  V30 38818 H 3718.67 1.31972 -2.96233 0
M  V30 38819 H 3718.45 -0.175968 -3.91705 0
M  V30 38820 H 3719.94 0.797312 -4.09918 0
M  V30 38821 N 3720.38 1.4286 -0.6655 0
M  V30 38822 C 3721.79 1.84849 -0.262283 0
M  V30 38823 C 3722.14 1.55709 1.19369 0
M  V30 38824 O 3721.26 1.01222 1.91267 0
M  V30 38825 C 3721.86 3.35535 -0.469248 0
M  V30 38826 C 3720.42 3.76208 -0.120238 0
M  V30 38827 C 3719.57 2.66505 -0.7662 0
M  V30 38828 H 3722.52 1.32838 -0.868319 0
M  V30 38829 H 3722.54 3.79457 0.281504 0
M  V30 38830 H 3722.05 3.56711 -1.52901 0
M  V30 38831 H 3720.15 3.6064 0.936442 0
M  V30 38832 H 3720.26 4.75883 -0.554271 0
M  V30 38833 H 3718.63 2.53927 -0.198337 0
M  V30 38834 H 3719.41 2.90507 -1.82923 0
M  V30 38835 N 3721.86 0.408213 1.52221 0
M  V30 38836 C 3722.82 -0.405811 2.25579 0
M  V30 38837 C 3723.82 -0.974412 1.27913 0
M  V30 38838 O 3725.01 -0.853435 1.51862 0
M  V30 38839 C 3722.14 -1.57116 3.02535 0
M  V30 38840 H 3723.33 0.236693 2.98965 0
M  V30 38841 H 3720.89 0.160714 1.55472 0
M  V30 38842 H 3721.62 -2.25056 2.33496 0
M  V30 38843 H 3721.41 -1.16994 3.74239 0
M  V30 38844 H 3722.9 -2.14701 3.5818 0
M  V30 38845 N 3723.33 -1.56989 0.138607 0
M  V30 38846 C 3724.56 -2.00644 -0.525039 0
M  V30 38847 C 3724.98 -1.01799 -1.58173 0
M  V30 38848 O 3724.34 0.00750816 -1.81298 0
M  V30 38849 C 3724.39 -3.43087 -1.11012 0
M  V30 38850 O 3723.49 -3.47214 -2.22523 0
M  V30 38851 H 3722.83 -0.651295 -0.129272 0
M  V30 38852 H 3725.36 -2.0327 0.232866 0
M  V30 38853 H 3725.37 -3.81711 -1.44086 0
M  V30 38854 H 3724.05 -4.14538 -0.336252 0
M  V30 38855 H 3722.63 -3.20425 -1.90741 0
M  V30 38856 N 3724.81 0.135183 -1.57019 0
M  V30 38857 C 3726.06 0.847038 -1.84264 0
M  V30 38858 C 3726.39 1.80281 -0.721977 0
M  V30 38859 O 3725.67 1.92567 0.273501 0
M  V30 38860 C 3725.95 1.61117 -3.22046 0
M  V30 38861 C 3725.8 0.676092 -4.4469 0
M  V30 38862 C 3727.12 2.57102 -3.57193 0
M  V30 38863 H 3724.24 0.306484 -0.670251 0
M  V30 38864 H 3726.88 0.11181 -1.89671 0
M  V30 38865 H 3725.03 2.23793 -3.17567 0
M  V30 38866 H 3726.7 0.0594198 -4.61262 0
M  V30 38867 H 3724.95 -0.0135289 -4.33798 0
M  V30 38868 H 3725.62 1.24705 -5.37729 0
M  V30 38869 H 3728.09 2.04539 -3.62358 0
M  V30 38870 H 3726.97 3.07609 -4.54607 0
M  V30 38871 H 3727.23 3.39014 -2.83764 0
M  V30 38872 N 3726.29 1.5231 0.404892 0
M  V30 38873 C 3727.22 1.72189 1.51273 0
M  V30 38874 C 3728.24 0.602303 1.51249 0
M  V30 38875 O 3729.42 0.877576 1.55438 0
M  V30 38876 C 3726.52 1.75104 2.90158 0
M  V30 38877 C 3725.7 3.04166 3.14327 0
M  V30 38878 C 3724.76 2.98837 4.33108 0
M  V30 38879 O 3723.78 3.72735 4.30183 0
M  V30 38880 N 3724.98 2.1692 5.38448 0
M  V30 38881 H 3727.75 2.67767 1.34613 0
M  V30 38882 H 3725.31 1.506 0.594238 0
M  V30 38883 H 3727.3 1.69065 3.67694 0
M  V30 38884 H 3725.87 0.869809 3.00255 0
M  V30 38885 H 3725.09 3.23821 2.24797 0
M  V30 38886 H 3726.38 3.89537 3.2732 0
M  V30 38887 H 3725.78 1.56319 5.43674 0
M  V30 38888 H 3724.34 2.16735 6.14711 0
M  V30 38889 N 3727.77 -0.662382 1.43004 0
M  V30 38890 C 3728.7 -1.78791 1.4341 0
M  V30 38891 C 3729.71 -1.5939 0.331451 0
M  V30 38892 O 3730.9 -1.6828 0.595321 0
M  V30 38893 C 3728 -3.16085 1.22244 0
M  V30 38894 C 3727.18 -3.62225 2.45177 0
M  V30 38895 C 3726.23 -4.78292 2.19371 0
M  V30 38896 O 3725.26 -4.882 2.9266 0
M  V30 38897 N 3726.46 -5.67864 1.20459 0
M  V30 38898 H 3729.23 -1.78924 2.40429 0
M  V30 38899 H 3726.79 -0.845911 1.38043 0
M  V30 38900 H 3728.78 -3.91406 1.02878 0
M  V30 38901 H 3727.35 -3.10778 0.337038 0
M  V30 38902 H 3726.57 -2.77448 2.80029 0
M  V30 38903 H 3727.86 -3.89797 3.2701 0
M  V30 38904 H 3727.26 -5.62523 0.598675 0
M  V30 38905 H 3725.81 -6.42945 1.07077 0
M  V30 38906 N 3729.25 -1.29383 -0.899882 0
M  V30 38907 C 3730.18 -1.10303 -2.00912 0
M  V30 38908 C 3731.19 -0.0505966 -1.62721 0
M  V30 38909 O 3732.38 -0.295099 -1.76044 0
M  V30 38910 C 3729.48 -0.656954 -3.32472 0
M  V30 38911 C 3728.65 -1.78787 -3.99192 0
M  V30 38912 C 3727.71 -1.33283 -5.0904 0
M  V30 38913 O 3726.74 -2.03752 -5.31483 0
M  V30 38914 N 3727.94 -0.203621 -5.80143 0
M  V30 38915 H 3730.71 -2.05835 -2.17834 0
M  V30 38916 H 3728.27 -1.2132 -1.07205 0
M  V30 38917 H 3730.26 -0.335854 -4.03304 0
M  V30 38918 H 3728.83 0.205904 -3.11921 0
M  V30 38919 H 3728.05 -2.27786 -3.21725 0
M  V30 38920 H 3729.34 -2.54614 -4.4051 0
M  V30 38921 H 3728.73 0.383905 -5.64396 0
M  V30 38922 H 3727.29 0.0581137 -6.51774 0
M  V30 38923 N 3730.72 1.11022 -1.11856 0
M  V30 38924 C 3731.95 1.87189 -0.893032 0
M  V30 38925 C 3732.37 1.79817 0.552026 0
M  V30 38926 O 3731.73 1.16371 1.39023 0
M  V30 38927 C 3731.78 3.33777 -1.36475 0
M  V30 38928 O 3730.88 4.08859 -0.539274 0
M  V30 38929 H 3730.23 0.581071 -0.32133 0
M  V30 38930 H 3732.76 1.40308 -1.48912 0
M  V30 38931 H 3732.77 3.84625 -1.36117 0
M  V30 38932 H 3731.44 3.38458 -2.417 0
M  V30 38933 H 3730.02 3.67888 -0.609335 0
M  V30 38934 N 3732.2 0.90954 1.28706 0
M  V30 38935 C 3733.15 0.393195 2.27426 0
M  V30 38936 C 3734.12 -0.530062 1.57415 0
M  V30 38937 O 3735.3 -0.453172 1.8534 0
M  V30 38938 C 3732.44 -0.364446 3.4317 0
M  V30 38939 C 3731.56 0.590832 4.27941 0
M  V30 38940 C 3730.69 -0.184838 5.30878 0
M  V30 38941 C 3729.73 0.764328 6.07309 0
M  V30 38942 N 3728.87 0.0224437 7.02096 0
M  V30 38943 H 3733.71 1.2401 2.70972 0
M  V30 38944 H 3731.25 0.622824 1.33264 0
M  V30 38945 H 3733.2 -0.819865 4.09065 0
M  V30 38946 H 3731.83 -1.17573 3.00627 0
M  V30 38947 H 3730.89 1.16478 3.62129 0
M  V30 38948 H 3732.2 1.31697 4.811 0
M  V30 38949 H 3731.35 -0.70101 6.02636 0
M  V30 38950 H 3730.09 -0.944058 4.78476 0
M  V30 38951 H 3729.1 1.29191 5.34406 0
M  V30 38952 H 3730.32 1.52304 6.61801 0
M  V30 38953 H 3728.27 -0.718863 6.52049 0
M  V30 38954 H 3728.18 0.688491 7.52858 0
M  V30 38955 H 3729.45 -0.47367 7.7806 0
M  V30 38956 N 3733.68 -1.42505 0.673067 0
M  V30 38957 C 3734.91 -2.0642 0.201385 0
M  V30 38958 C 3735.33 -1.50226 -1.13198 0
M  V30 38959 O 3734.69 -0.620054 -1.70367 0
M  V30 38960 C 3734.74 -3.60308 0.145113 0
M  V30 38961 O 3733.84 -4.02751 -0.886882 0
M  V30 38962 H 3733.18 -0.655807 0.103986 0
M  V30 38963 H 3735.71 -1.82669 0.921591 0
M  V30 38964 H 3735.72 -4.07988 -0.0316075 0
M  V30 38965 H 3734.4 -4.00581 1.11836 0
M  V30 38966 H 3732.97 -3.66623 -0.681343 0
M  V30 38967 N 3735.16 -0.41628 -1.52003 0
M  V30 38968 C 3736.09 0.39663 -2.30107 0
M  V30 38969 C 3737.07 1.03981 -1.34618 0
M  V30 38970 O 3738.25 1.04746 -1.6353 0
M  V30 38971 C 3735.38 1.50967 -3.12772 0
M  V30 38972 C 3734.34 0.991117 -4.16366 0
M  V30 38973 C 3733.66 2.1983 -4.87421 0
M  V30 38974 C 3734.96 0.0401681 -5.22285 0
M  V30 38975 H 3736.66 -0.255106 -2.98311 0
M  V30 38976 H 3734.2 -0.124131 -1.43464 0
M  V30 38977 H 3736.16 2.0854 -3.66182 0
M  V30 38978 H 3734.88 2.18939 -2.4235 0
M  V30 38979 H 3733.54 0.437739 -3.63977 0
M  V30 38980 H 3733.19 2.86373 -4.13521 0
M  V30 38981 H 3732.89 1.85782 -5.57457 0
M  V30 38982 H 3734.41 2.77996 -5.43646 0
M  V30 38983 H 3735.83 0.524926 -5.70892 0
M  V30 38984 H 3734.22 -0.211847 -5.99726 0
M  V30 38985 H 3735.29 -0.902961 -4.76419 0
M  V30 38986 N 3736.64 1.56914 -0.146931 0
M  V30 38987 C 3737.57 2.1977 0.788886 0
M  V30 38988 C 3738.55 1.14591 1.2571 0
M  V30 38989 O 3739.73 1.42934 1.31467 0
M  V30 38990 C 3736.86 2.81925 2.02819 0
M  V30 38991 C 3735.82 3.9293 1.69676 0
M  V30 38992 C 3735.14 4.4202 3.0087 0
M  V30 38993 C 3736.44 5.13708 0.943469 0
M  V30 38994 H 3738.14 2.98225 0.265024 0
M  V30 38995 H 3735.68 1.43447 0.126032 0
M  V30 38996 H 3737.64 3.24564 2.68768 0
M  V30 38997 H 3736.36 2.00801 2.57578 0
M  V30 38998 H 3735.02 3.50909 1.06106 0
M  V30 38999 H 3734.67 3.57719 3.53619 0
M  V30 39000 H 3734.37 5.16892 2.79457 0
M  V30 39001 H 3735.89 4.8733 3.67889 0
M  V30 39002 H 3737.3 5.53192 1.50504 0
M  V30 39003 H 3735.7 5.94342 0.829282 0
M  V30 39004 H 3736.77 4.84857 -0.0648081 0
M  V30 39005 N 3738.11 -0.126854 1.57089 0
M  V30 39006 C 3739.08 -1.14 1.98838 0
M  V30 39007 C 3740.08 -1.34748 0.877478 0
M  V30 39008 O 3741.27 -1.31398 1.14369 0
M  V30 39009 C 3738.4 -2.49614 2.32176 0
M  V30 39010 H 3739.59 -0.781349 2.89543 0
M  V30 39011 H 3737.15 -0.370889 1.51836 0
M  V30 39012 H 3737.88 -2.90414 1.44326 0
M  V30 39013 H 3737.67 -2.35911 3.13191 0
M  V30 39014 H 3739.16 -3.22545 2.65244 0
M  V30 39015 N 3739.59 -1.52523 -0.396809 0
M  V30 39016 C 3740.82 -1.71348 -1.16854 0
M  V30 39017 C 3741.24 -0.427497 -1.83178 0
M  V30 39018 O 3740.6 0.616093 -1.70511 0
M  V30 39019 C 3740.65 -2.85858 -2.19812 0
M  V30 39020 O 3739.75 -2.52287 -3.26229 0
M  V30 39021 H 3739.09 -0.570023 -0.340544 0
M  V30 39022 H 3741.62 -1.99281 -0.463497 0
M  V30 39023 H 3741.63 -3.11128 -2.63938 0
M  V30 39024 H 3740.31 -3.79154 -1.70924 0
M  V30 39025 H 3738.89 -2.37731 -2.87295 0
M  V30 39026 N 3741.07 0.654789 -1.43354 0
M  V30 39027 C 3742 1.77937 -1.51197 0
M  V30 39028 C 3742.98 1.66099 -0.366777 0
M  V30 39029 O 3744.17 1.85218 -0.583782 0
M  V30 39030 C 3741.3 3.16356 -1.43304 0
M  V30 39031 C 3740.25 3.42956 -2.56056 0
M  V30 39032 C 3739.58 4.81159 -2.33217 0
M  V30 39033 C 3740.88 3.37857 -3.98309 0
M  V30 39034 H 3742.57 1.71631 -2.45323 0
M  V30 39035 H 3740.12 0.824298 -1.18073 0
M  V30 39036 H 3742.07 3.94782 -1.47395 0
M  V30 39037 H 3740.79 3.23389 -0.456818 0
M  V30 39038 H 3739.45 2.66901 -2.51315 0
M  V30 39039 H 3739.1 4.84866 -1.33842 0
M  V30 39040 H 3738.8 4.99918 -3.08798 0
M  V30 39041 H 3740.33 5.61844 -2.39089 0
M  V30 39042 H 3741.74 4.06221 -4.04545 0
M  V30 39043 H 3740.14 3.68152 -4.73903 0
M  V30 39044 H 3741.21 2.36067 -4.23557 0
M  V30 39045 N 3742.55 1.29858 0.893007 0
M  V30 39046 C 3743.5 1.12176 1.98496 0
M  V30 39047 C 3744.48 0.0392352 1.60852 0
M  V30 39048 O 3745.68 0.261683 1.75055 0
M  V30 39049 C 3742.8 0.807318 3.33672 0
M  V30 39050 C 3741.89 1.92971 3.77655 0
M  V30 39051 N 3742.28 3.17409 3.93809 0
M  V30 39052 C 3740.58 1.82426 4.06985 0
M  V30 39053 C 3741.28 3.90679 4.30981 0
M  V30 39054 N 3740.26 3.1867 4.40398 0
M  V30 39055 H 3744.06 2.06566 2.09064 0
M  V30 39056 H 3741.57 1.2108 1.08228 0
M  V30 39057 H 3743.57 0.661676 4.11616 0
M  V30 39058 H 3742.23 -0.128589 3.24445 0
M  V30 39059 H 3743.24 3.52788 3.79158 0
M  V30 39060 H 3739.92 0.961508 4.06277 0
M  V30 39061 H 3741.31 4.97801 4.51269 0
M  V30 39062 N 3744.03 -1.10427 1.12443 0
M  V30 39063 C 3745.26 -1.86172 0.902632 0
M  V30 39064 C 3745.67 -1.80669 -0.548115 0
M  V30 39065 O 3745.03 -1.19545 -1.37895 0
M  V30 39066 C 3745.08 -3.34568 1.36918 0
M  V30 39067 O 3744.8 -3.3998 2.76306 0
M  V30 39068 C 3746.3 -4.27187 1.18432 0
M  V30 39069 H 3743.52 -0.588393 0.322544 0
M  V30 39070 H 3746.06 -1.39597 1.49442 0
M  V30 39071 H 3744.22 -3.78609 0.820616 0
M  V30 39072 H 3744.63 -4.32461 2.9678 0
M  V30 39073 H 3746.11 -5.29509 1.55963 0
M  V30 39074 H 3746.58 -4.39022 0.124907 0
M  V30 39075 H 3747.19 -3.88951 1.72038 0
M  V30 39076 N 3745.51 -0.916353 -1.28221 0
M  V30 39077 C 3746.73 -0.566182 -1.99522 0
M  V30 39078 C 3747.16 0.846004 -1.68001 0
M  V30 39079 O 3746.51 1.56583 -0.913866 0
M  V30 39080 C 3746.56 -0.785176 -3.51948 0
M  V30 39081 O 3745.67 0.154614 -4.1211 0
M  V30 39082 H 3745.01 -0.219243 -0.62676 0
M  V30 39083 H 3747.54 -1.2325 -1.63311 0
M  V30 39084 H 3747.55 -0.696295 -4.02015 0
M  V30 39085 H 3746.22 -1.81464 -3.74224 0
M  V30 39086 H 3744.8 0.0167807 -3.72896 0
M  V30 39087 N 3746.98 1.42146 -0.680615 0
M  V30 39088 C 3748.4 1.55699 -0.350718 0
M  V30 39089 C 3748.6 1.65912 1.14347 0
M  V30 39090 O 3747.66 1.62926 1.92902 0
M  V30 39091 C 3748.97 2.80399 -1.08613 0
M  V30 39092 C 3750.52 2.94178 -1.06902 0
M  V30 39093 C 3750.99 4.21747 -1.78588 0
M  V30 39094 N 3752.48 4.28672 -1.75485 0
M  V30 39095 C 3753.22 5.26207 -2.27803 0
M  V30 39096 N 3752.71 6.2986 -2.88529 0
M  V30 39097 N 3754.51 5.18044 -2.18144 0
M  V30 39098 H 3746.66 1.3376 -1.64991 0
M  V30 39099 H 3748.92 0.644277 -0.695422 0
M  V30 39100 H 3748.63 2.7901 -2.14118 0
M  V30 39101 H 3748.5 3.71468 -0.655088 0
M  V30 39102 H 3750.89 2.95092 -0.0222983 0
M  V30 39103 H 3750.97 2.04324 -1.539 0
M  V30 39104 H 3750.61 4.21595 -2.83232 0
M  V30 39105 H 3750.54 5.10546 -1.29036 0
M  V30 39106 H 3753.03 3.54395 -1.31197 0
M  V30 39107 H 3753.35 7.00648 -3.26056 0
M  V30 39108 H 3751.69 6.30405 -2.92601 0
M  V30 39109 H 3754.88 4.35988 -1.70387 0
M  V30 39110 H 3755.06 5.93892 -2.59223 0
M  V30 39111 N 3748.46 0.424336 1.5178 0
M  V30 39112 C 3749.69 -0.147932 2.06872 0
M  V30 39113 C 3750.11 -1.36806 1.29096 0
M  V30 39114 O 3749.47 -1.78358 0.32531 0
M  V30 39115 C 3749.52 -0.461694 3.57632 0
M  V30 39116 O 3748.62 -1.55029 3.82152 0
M  V30 39117 H 3747.96 -0.00756108 0.663957 0
M  V30 39118 H 3750.49 0.601922 1.95546 0
M  V30 39119 H 3750.5 -0.715935 4.01669 0
M  V30 39120 H 3749.18 0.430154 4.1367 0
M  V30 39121 H 3747.75 -1.28703 3.49986 0
M  V30 39122 N 3749.94 -1.56833 0.15525 0
M  V30 39123 C 3750.9 -2.15977 -0.767228 0
M  V30 39124 C 3751.9 -1.10366 -1.16944 0
M  V30 39125 O 3753.09 -1.35963 -1.08902 0
M  V30 39126 C 3750.22 -2.72959 -2.04221 0
M  V30 39127 H 3751.42 -2.98834 -0.252609 0
M  V30 39128 H 3748.97 -1.56016 -0.0942403 0
M  V30 39129 H 3749.71 -1.93791 -2.6003 0
M  V30 39130 H 3749.49 -3.50233 -1.76293 0
M  V30 39131 H 3750.98 -3.185 -2.70088 0
M  V30 39132 N 3751.42 0.118521 -1.57154 0
M  V30 39133 C 3752.65 0.839177 -1.88789 0
M  V30 39134 C 3753.06 1.7393 -0.744651 0
M  V30 39135 O 3752.4 1.8134 0.293535 0
M  V30 39136 C 3752.46 1.7244 -3.15444 0
M  V30 39137 C 3752.12 0.998535 -4.45958 0
M  V30 39138 C 3753.12 0.339123 -5.18793 0
M  V30 39139 C 3750.81 0.97957 -4.92656 0
M  V30 39140 C 3752.8 -0.32955 -6.36548 0
M  V30 39141 C 3750.49 0.3071 -6.10328 0
M  V30 39142 C 3751.49 -0.346305 -6.82121 0
M  V30 39143 O 3751.17 -1.00804 -7.97555 0
M  V30 39144 H 3750.91 0.246515 -0.629449 0
M  V30 39145 H 3753.46 0.107323 -2.05119 0
M  V30 39146 H 3751.69 2.49791 -2.95197 0
M  V30 39147 H 3753.38 2.31953 -3.33096 0
M  V30 39148 H 3754.14 0.34539 -4.83769 0
M  V30 39149 H 3750.02 1.47758 -4.36679 0
M  V30 39150 H 3753.57 -0.840135 -6.92523 0
M  V30 39151 H 3749.46 0.298597 -6.44809 0
M  V30 39152 H 3750.23 -0.91257 -8.13397 0
M  V30 39153 N 3752.9 1.52731 0.388715 0
M  V30 39154 C 3753.85 1.7391 1.47442 0
M  V30 39155 C 3754.83 0.59319 1.49566 0
M  V30 39156 O 3756.02 0.851033 1.55198 0
M  V30 39157 C 3753.15 1.91164 2.85152 0
M  V30 39158 C 3752.24 3.11688 2.87596 0
M  V30 39159 N 3752.63 4.34032 2.59711 0
M  V30 39160 C 3750.93 3.11939 3.18763 0
M  V30 39161 C 3751.63 5.15637 2.69245 0
M  V30 39162 N 3750.6 4.51331 3.02988 0
M  V30 39163 H 3754.4 2.66129 1.2471 0
M  V30 39164 H 3751.92 1.51042 0.596667 0
M  V30 39165 H 3753.92 2.04458 3.63321 0
M  V30 39166 H 3752.58 1.00158 3.08866 0
M  V30 39167 H 3753.59 4.6216 2.33727 0
M  V30 39168 H 3750.26 2.30744 3.47942 0
M  V30 39169 H 3751.65 6.23164 2.51228 0
M  V30 39170 N 3754.37 -0.647178 1.43699 0
M  V30 39171 C 3755.6 -1.43955 1.49304 0
M  V30 39172 C 3756.02 -1.87754 0.113983 0
M  V30 39173 O 3755.38 -1.57751 -0.893543 0
M  V30 39174 C 3755.43 -2.64673 2.44909 0
M  V30 39175 O 3754.53 -3.63945 1.93953 0
M  V30 39176 H 3753.87 -0.431387 0.504779 0
M  V30 39177 H 3756.4 -0.791399 1.88674 0
M  V30 39178 H 3756.41 -3.12414 2.62414 0
M  V30 39179 H 3755.09 -2.32137 3.45087 0
M  V30 39180 H 3753.67 -3.23121 1.86138 0
M  V30 39181 N 3755.85 -1.3033 -0.886108 0
M  V30 39182 C 3756.8 -1.13227 -1.97898 0
M  V30 39183 C 3757.79 -0.0477651 -1.60829 0
M  V30 39184 O 3758.98 -0.270963 -1.74914 0
M  V30 39185 C 3756.11 -0.825002 -3.3324 0
M  V30 39186 C 3755.19 -1.94971 -3.76626 0
M  V30 39187 N 3755.58 -3.19493 -3.9212 0
M  V30 39188 C 3753.88 -1.84582 -4.06012 0
M  V30 39189 C 3754.58 -3.92959 -4.28903 0
M  V30 39190 N 3753.56 -3.21001 -4.38702 0
M  V30 39191 H 3757.36 -2.07672 -2.07966 0
M  V30 39192 H 3754.88 -1.21653 -1.07584 0
M  V30 39193 H 3756.87 -0.683495 -4.11259 0
M  V30 39194 H 3755.53 0.111381 -3.24509 0
M  V30 39195 H 3756.54 -3.54794 -3.77282 0
M  V30 39196 H 3753.22 -0.98304 -4.05762 0
M  V30 39197 H 3754.61 -5.00187 -4.48623 0
M  V30 39198 N 3757.33 1.0983 -1.13028 0
M  V30 39199 C 3758.28 2.16349 -0.803855 0
M  V30 39200 C 3759.25 1.64469 0.232197 0
M  V30 39201 O 3760.43 1.90509 0.105369 0
M  V30 39202 C 3757.57 3.44031 -0.271475 0
M  V30 39203 C 3756.69 4.09832 -1.36609 0
M  V30 39204 C 3755.82 5.25255 -0.792486 0
M  V30 39205 C 3754.86 5.82971 -1.86579 0
M  V30 39206 N 3754 6.89762 -1.31044 0
M  V30 39207 H 3758.84 2.43614 -1.71628 0
M  V30 39208 H 3756.37 1.19572 -0.856793 0
M  V30 39209 H 3758.33 4.17163 0.0552904 0
M  V30 39210 H 3756.96 3.17097 0.604098 0
M  V30 39211 H 3756.01 3.34605 -1.80952 0
M  V30 39212 H 3757.33 4.48763 -2.17745 0
M  V30 39213 H 3756.48 6.05267 -0.416759 0
M  V30 39214 H 3755.22 4.87674 0.0500036 0
M  V30 39215 H 3754.22 5.01624 -2.25063 0
M  V30 39216 H 3755.45 6.22614 -2.71161 0
M  V30 39217 H 3753.39 6.54168 -0.489883 0
M  V30 39218 H 3753.31 7.2744 -2.05833 0
M  V30 39219 H 3754.58 7.73539 -0.962147 0
M  V30 39220 N 3758.81 0.92314 1.27734 0
M  V30 39221 C 3760.09 0.479758 1.89625 0
M  V30 39222 C 3760.47 -1.04194 1.83594 0
M  V30 39223 O 3759.81 -1.89411 1.27811 0
M  V30 39224 C 3760.02 1.0207 3.3374 0
M  V30 39225 C 3761.37 1.07844 4.10676 0
M  V30 39226 O 3762.4 0.970003 3.42738 0
M  V30 39227 O 3761.25 1.24485 5.32133 0
M  V30 39228 H 3758.35 0.153589 0.812613 0
M  V30 39229 H 3760.89 1.01453 1.36034 0
M  V30 39230 H 3759.67 2.0646 3.324 0
M  V30 39231 H 3759.29 0.467303 3.94844 0
M  V30 39232 N 3760.29 -1.41783 0.688143 0
M  V30 39233 C 3761.22 -2.2919 -0.0209497 0
M  V30 39234 C 3762.23 -1.44392 -0.751979 0
M  V30 39235 O 3763.42 -1.67973 -0.603917 0
M  V30 39236 C 3760.52 -3.22105 -1.05364 0
M  V30 39237 C 3759.69 -4.35624 -0.393741 0
M  V30 39238 C 3758.75 -5.09166 -1.32803 0
M  V30 39239 O 3757.78 -5.63215 -0.823242 0
M  V30 39240 N 3758.98 -5.15931 -2.66074 0
M  V30 39241 H 3761.75 -2.90688 0.72944 0
M  V30 39242 H 3759.31 -1.52854 0.533591 0
M  V30 39243 H 3761.3 -3.68172 -1.68023 0
M  V30 39244 H 3759.87 -2.61967 -1.70564 0
M  V30 39245 H 3759.09 -3.92035 0.412599 0
M  V30 39246 H 3760.38 -5.08758 0.0654274 0
M  V30 39247 H 3759.77 -4.73453 -3.0961 0
M  V30 39248 H 3758.33 -5.65599 -3.23946 0
M  V30 39249 N 3761.76 -0.432379 -1.51553 0
M  V30 39250 C 3762.73 0.369872 -2.26196 0
M  V30 39251 C 3763.73 0.953938 -1.29448 0
M  V30 39252 O 3764.92 0.829167 -1.53201 0
M  V30 39253 C 3762.05 1.52283 -3.04996 0
M  V30 39254 H 3763.24 -0.284225 -2.9855 0
M  V30 39255 H 3760.8 -0.185428 -1.55196 0
M  V30 39256 H 3761.53 2.21313 -2.37047 0
M  V30 39257 H 3761.32 1.11026 -3.76053 0
M  V30 39258 H 3762.81 2.08976 -3.61551 0
M  V30 39259 N 3763.24 1.56749 -0.163565 0
M  V30 39260 C 3764.17 2.20594 0.765532 0
M  V30 39261 C 3765.15 1.15918 1.24487 0
M  V30 39262 O 3766.34 1.4432 1.29944 0
M  V30 39263 C 3763.47 2.8406 1.99818 0
M  V30 39264 C 3762.42 3.94708 1.65499 0
M  V30 39265 C 3761.75 4.45186 2.96164 0
M  V30 39266 C 3763.05 5.1468 0.88893 0
M  V30 39267 H 3764.74 2.98489 0.233378 0
M  V30 39268 H 3762.29 1.43573 0.11081 0
M  V30 39269 H 3764.24 3.27397 2.6531 0
M  V30 39270 H 3762.97 2.03522 2.55434 0
M  V30 39271 H 3761.62 3.52015 1.02378 0
M  V30 39272 H 3761.27 3.61449 3.49805 0
M  V30 39273 H 3760.97 5.19827 2.73958 0
M  V30 39274 H 3762.5 4.91204 3.62699 0
M  V30 39275 H 3763.91 5.54757 1.44628 0
M  V30 39276 H 3762.31 5.95189 0.766198 0
M  V30 39277 H 3763.38 4.84761 -0.11623 0
M  V30 39278 N 3764.72 -0.110185 1.57214 0
M  V30 39279 C 3765.65 -1.13576 2.04017 0
M  V30 39280 C 3766.63 -1.4267 0.92624 0
M  V30 39281 O 3767.82 -1.5296 1.19653 0
M  V30 39282 C 3764.95 -2.45964 2.45192 0
M  V30 39283 C 3763.9 -2.31312 3.60109 0
M  V30 39284 C 3763.23 -3.68743 3.87212 0
M  V30 39285 C 3764.53 -1.76626 4.91529 0
M  V30 39286 H 3766.22 -0.746445 2.89946 0
M  V30 39287 H 3763.77 -0.357617 1.39489 0
M  V30 39288 H 3765.72 -3.17968 2.7654 0
M  V30 39289 H 3764.44 -2.86802 1.56243 0
M  V30 39290 H 3763.1 -1.61756 3.28984 0
M  V30 39291 H 3762.75 -4.07081 2.95455 0
M  V30 39292 H 3762.45 -3.5979 4.6457 0
M  V30 39293 H 3763.97 -4.42238 4.2102 0
M  V30 39294 H 3765.39 -2.38456 5.21356 0
M  V30 39295 H 3763.79 -1.78472 5.72947 0
M  V30 39296 H 3764.86 -0.724489 4.79457 0
M  V30 39297 N 3766.2 -1.52935 -0.38061 0
M  V30 39298 C 3767.42 -1.72577 -1.1503 0
M  V30 39299 C 3767.85 -0.446901 -1.82714 0
M  V30 39300 O 3767.21 0.597974 -1.71155 0
M  V30 39301 C 3767.25 -2.88174 -2.16768 0
M  V30 39302 O 3766.36 -2.55733 -3.23534 0
M  V30 39303 H 3765.7 -0.573602 -0.334479 0
M  V30 39304 H 3768.23 -1.99761 -0.442334 0
M  V30 39305 H 3768.24 -3.1391 -2.60623 0
M  V30 39306 H 3766.91 -3.80946 -1.66893 0
M  V30 39307 H 3765.49 -2.40765 -2.84757 0
M  V30 39308 N 3767.68 0.639548 -1.4404 0
M  V30 39309 C 3768.62 1.7519 -1.50257 0
M  V30 39310 C 3769.59 1.62349 -0.351022 0
M  V30 39311 O 3770.78 1.82394 -0.560092 0
M  V30 39312 C 3767.92 3.13405 -1.4447 0
M  V30 39313 C 3767.03 3.37282 -2.69935 0
M  V30 39314 C 3766.17 4.65422 -2.56039 0
M  V30 39315 C 3765.21 4.8245 -3.76708 0
M  V30 39316 N 3764.34 6.01859 -3.61539 0
M  V30 39317 H 3769.18 1.69211 -2.45299 0
M  V30 39318 H 3766.72 0.825554 -1.2175 0
M  V30 39319 H 3768.68 3.93326 -1.39106 0
M  V30 39320 H 3767.31 3.18419 -0.530007 0
M  V30 39321 H 3766.36 2.51361 -2.8552 0
M  V30 39322 H 3767.67 3.45746 -3.59529 0
M  V30 39323 H 3766.83 5.53491 -2.48461 0
M  V30 39324 H 3765.56 4.59302 -1.63992 0
M  V30 39325 H 3764.57 3.92813 -3.84679 0
M  V30 39326 H 3765.79 4.9039 -4.69781 0
M  V30 39327 H 3763.74 5.96844 -2.72237 0
M  V30 39328 H 3763.66 6.11342 -4.44744 0
M  V30 39329 H 3764.93 6.92512 -3.57838 0
M  V30 39330 N 3769.15 1.30798 0.879184 0
M  V30 39331 C 3770.12 1.17642 1.96705 0
M  V30 39332 C 3771.12 0.106041 1.6045 0
M  V30 39333 O 3772.31 0.354603 1.70553 0
M  V30 39334 C 3769.44 0.803684 3.31291 0
M  V30 39335 H 3770.63 2.14296 2.09803 0
M  V30 39336 H 3768.19 1.14277 1.06632 0
M  V30 39337 H 3768.92 -0.162102 3.23895 0
M  V30 39338 H 3768.71 1.5773 3.58976 0
M  V30 39339 H 3770.2 0.735273 4.11076 0
M  V30 39340 N 3770.63 -1.09229 1.13608 0
M  V30 39341 C 3771.88 -1.81715 0.900418 0
M  V30 39342 C 3772.21 -1.85587 -0.571952 0
M  V30 39343 O 3771.49 -1.32557 -1.42334 0
M  V30 39344 C 3771.77 -3.2776 1.49149 0
M  V30 39345 C 3771.62 -3.32148 3.03311 0
M  V30 39346 C 3772.94 -4.245 1.16137 0
M  V30 39347 H 3770.06 -0.659719 0.328543 0
M  V30 39348 H 3772.7 -1.27939 1.4047 0
M  V30 39349 H 3770.85 -3.73685 1.06262 0
M  V30 39350 H 3772.53 -2.94611 3.54968 0
M  V30 39351 H 3770.77 -2.71671 3.38197 0
M  V30 39352 H 3771.44 -4.35041 3.39769 0
M  V30 39353 H 3773.92 -3.86871 1.53199 0
M  V30 39354 H 3772.79 -5.25021 1.60139 0
M  V30 39355 H 3773.05 -4.42036 0.075375 0
M  V30 39356 N 3772.11 -0.929901 -1.27242 0
M  V30 39357 C 3773.04 -0.388006 -2.25892 0
M  V30 39358 C 3774.06 0.482496 -1.55486 0
M  V30 39359 O 3775.25 0.294764 -1.76049 0
M  V30 39360 C 3772.35 0.462485 -3.35729 0
M  V30 39361 C 3771.52 -0.389236 -4.35665 0
M  V30 39362 C 3770.58 0.398969 -5.24685 0
M  V30 39363 O 3769.6 -0.194096 -5.68869 0
M  V30 39364 N 3770.81 1.69826 -5.55103 0
M  V30 39365 H 3773.57 -1.23602 -2.73025 0
M  V30 39366 H 3771.13 -0.797564 -1.40892 0
M  V30 39367 H 3773.12 0.996905 -3.92229 0
M  V30 39368 H 3771.69 1.21125 -2.88179 0
M  V30 39369 H 3770.91 -1.10494 -3.78398 0
M  V30 39370 H 3772.2 -0.971437 -4.9944 0
M  V30 39371 H 3771.6 2.20238 -5.21068 0
M  V30 39372 H 3770.16 2.17916 -6.14293 0
M  V30 39373 N 3773.59 1.41416 -0.695653 0
M  V30 39374 C 3774.83 2.03093 -0.230811 0
M  V30 39375 C 3775.19 1.53906 1.1479 0
M  V30 39376 O 3776.39 2.0751 1.7086 0
M  V30 39377 C 3774.67 3.56252 -0.286195 0
M  V30 39378 S 3776.22 4.38675 0.104588 0
M  V30 39379 H 3773.04 0.704893 -0.0929896 0
M  V30 39380 H 3775.64 1.72848 -0.913448 0
M  V30 39381 H 3774.35 3.89545 -1.29162 0
M  V30 39382 H 3773.88 3.91199 0.415587 0
M  V30 39383 H 3775.89 4.77979 1.33231 0
M  V30 39384 N 3775.07 0.44041 1.51321 0
M  V30 39385 C 3776 -0.359972 2.30709 0
M  V30 39386 C 3776.98 -1.01826 1.36255 0
M  V30 39387 O 3778.16 -1.02131 1.65175 0
M  V30 39388 C 3775.29 -1.45972 3.15134 0
M  V30 39389 C 3774.25 -0.924752 4.1789 0
M  V30 39390 C 3773.57 -2.12048 4.90856 0
M  V30 39391 C 3774.87 0.042928 5.22282 0
M  V30 39392 H 3776.57 0.302533 2.97868 0
M  V30 39393 H 3774.11 0.146939 1.43248 0
M  V30 39394 H 3776.07 -2.02688 3.69453 0
M  V30 39395 H 3774.79 -2.15056 2.45802 0
M  V30 39396 H 3773.45 -0.379778 3.64628 0
M  V30 39397 H 3773.1 -2.79758 4.18024 0
M  V30 39398 H 3772.8 -1.7689 5.60343 0
M  V30 39399 H 3774.32 -2.69312 5.47999 0
M  V30 39400 H 3775.74 -0.434036 5.71655 0
M  V30 39401 H 3774.13 0.307232 5.99313 0
M  V30 39402 H 3775.2 0.978641 4.74922 0
M  V30 39403 N 3776.55 -1.5666 0.171876 0
M  V30 39404 C 3777.49 -2.19306 -0.775087 0
M  V30 39405 C 3778.49 -1.15726 -1.23709 0
M  V30 39406 O 3779.69 -1.33924 -1.20268 0
M  V30 39407 H 3776.07 -0.702535 -0.268232 0
M  V30 39408 H 3778.04 -2.97567 -0.222771 0
M  V30 39409 C 3776.79 -2.84847 -1.99392 0
M  V30 39410 H 3776.11 -3.64279 -1.64746 0
M  V30 39411 H 3777.55 -3.3215 -2.63539 0
M  V30 39412 C 3776.01 -1.84649 -2.81791 0
M  V30 39413 O 3776.54 -1.33231 -3.78962 0
M  V30 39414 N 3774.75 -1.53394 -2.46817 0
M  V30 39415 H 3774.29 -1.954 -1.67859 0
M  V30 39416 H 3774.25 -0.866057 -3.02236 0
M  V30 39417 N 3778.02 0.101846 -1.57271 0
M  V30 39418 C 3779.25 0.820296 -1.89944 0
M  V30 39419 C 3779.67 1.72612 -0.764898 0
M  V30 39420 O 3779.02 1.80588 0.263467 0
M  V30 39421 C 3779.07 1.63934 -3.22192 0
M  V30 39422 O 3778.8 0.769964 -4.31281 0
M  V30 39423 C 3780.3 2.46144 -3.68684 0
M  V30 39424 H 3777.52 0.234911 -0.628536 0
M  V30 39425 H 3780.06 0.0811003 -2.04339 0
M  V30 39426 H 3778.22 2.33111 -3.09416 0
M  V30 39427 H 3778.63 1.33656 -5.07185 0
M  V30 39428 H 3780.1 2.99116 -4.63933 0
M  V30 39429 H 3780.58 3.24297 -2.96189 0
M  V30 39430 H 3781.19 1.82178 -3.84306 0
M  V30 39431 N 3779.5 1.53135 0.372494 0
M  V30 39432 C 3780.73 1.73185 1.14113 0
M  V30 39433 C 3781.15 0.456585 1.82474 0
M  V30 39434 O 3780.51 -0.588889 1.7147 0
M  V30 39435 C 3780.56 2.89319 2.15236 0
M  V30 39436 O 3779.66 2.57445 3.22174 0
M  V30 39437 H 3779 0.575368 0.331432 0
M  V30 39438 H 3781.53 1.99993 0.431734 0
M  V30 39439 H 3781.54 3.15288 2.58955 0
M  V30 39440 H 3780.22 3.81825 1.6487 0
M  V30 39441 H 3778.79 2.42272 2.83476 0
M  V30 39442 N 3780.98 -0.6319 1.44377 0
M  V30 39443 C 3782.2 -1.42364 1.50822 0
M  V30 39444 C 3782.63 -1.87623 0.133891 0
M  V30 39445 O 3781.99 -1.5869 -0.876761 0
M  V30 39446 C 3782.04 -2.6206 2.47703 0
M  V30 39447 O 3781.14 -3.61867 1.97802 0
M  V30 39448 H 3780.48 -0.426009 0.509326 0
M  V30 39449 H 3783.01 -0.771343 1.89503 0
M  V30 39450 H 3783.02 -3.09613 2.65713 0
M  V30 39451 H 3781.7 -2.28464 3.4753 0
M  V30 39452 H 3780.27 -3.21128 1.89555 0
M  V30 39453 N 3782.46 -1.31262 -0.872235 0
M  V30 39454 C 3783.4 -1.18721 -1.97924 0
M  V30 39455 C 3784.37 -0.0735534 -1.65937 0
M  V30 39456 O 3785.56 -0.246012 -1.89207 0
M  V30 39457 C 3782.7 -0.898176 -3.33207 0
M  V30 39458 C 3781.81 -2.09495 -3.77804 0
M  V30 39459 C 3780.95 -1.7429 -5.01793 0
M  V30 39460 C 3779.99 -2.90388 -5.38833 0
M  V30 39461 N 3779.12 -2.55393 -6.54002 0
M  V30 39462 H 3783.96 -2.13418 -2.07982 0
M  V30 39463 H 3781.5 -1.06166 -1.01819 0
M  V30 39464 H 3783.46 -0.711162 -4.11094 0
M  V30 39465 H 3782.09 0.011953 -3.22798 0
M  V30 39466 H 3781.14 -2.39281 -2.95718 0
M  V30 39467 H 3782.45 -2.96398 -4.01186 0
M  V30 39468 H 3781.61 -1.52037 -5.87341 0
M  V30 39469 H 3780.35 -0.845749 -4.80311 0
M  V30 39470 H 3779.35 -3.13292 -4.51806 0
M  V30 39471 H 3780.58 -3.80809 -5.62283 0
M  V30 39472 H 3778.52 -1.68199 -6.3407 0
M  V30 39473 H 3778.44 -3.35826 -6.77316 0
M  V30 39474 H 3779.71 -2.36529 -7.42748 0
M  V30 39475 N 3783.94 1.08625 -1.14186 0
M  V30 39476 C 3784.85 2.19032 -0.840368 0
M  V30 39477 C 3785.86 1.73084 0.178292 0
M  V30 39478 O 3787.04 2.01399 0.00734423 0
M  V30 39479 C 3784.1 3.45223 -0.319734 0
M  V30 39480 C 3783.16 4.05807 -1.40067 0
M  V30 39481 C 3782.4 5.25975 -0.904785 0
M  V30 39482 O 3782.62 5.69832 0.25458 0
M  V30 39483 O 3781.55 5.77898 -1.68277 0
M  V30 39484 H 3785.38 2.47289 -1.76301 0
M  V30 39485 H 3782.96 1.17717 -0.919949 0
M  V30 39486 H 3784.85 4.21385 -0.0352008 0
M  V30 39487 H 3783.52 3.18548 0.575208 0
M  V30 39488 H 3782.43 3.31244 -1.73863 0
M  V30 39489 H 3783.76 4.36726 -2.27005 0
M  V30 39490 N 3785.41 0.936635 1.26747 0
M  V30 39491 C 3786.66 0.580639 1.93579 0
M  V30 39492 C 3786.98 -0.882416 1.73892 0
M  V30 39493 O 3786.25 -1.6265 1.09187 0
M  V30 39494 H 3784.83 0.211751 0.716359 0
M  V30 39495 H 3787.5 1.19097 1.54278 0
M  V30 39496 H 3786.59 0.794533 3.01817 0
M  V30 39497 N 3786.89 -1.41045 0.703143 0
M  V30 39498 C 3787.84 -2.30761 0.0426172 0
M  V30 39499 C 3788.81 -1.47519 -0.76338 0
M  V30 39500 O 3789.99 -1.76288 -0.729869 0
M  V30 39501 C 3787.13 -3.33631 -0.882295 0
M  V30 39502 C 3786.25 -4.31948 -0.0671039 0
M  V30 39503 C 3785.38 -5.21886 -0.990351 0
M  V30 39504 C 3784.42 -6.11868 -0.168514 0
M  V30 39505 N 3783.56 -6.94265 -1.04597 0
M  V30 39506 H 3788.4 -2.86684 0.813414 0
M  V30 39507 H 3785.94 -1.41188 0.412829 0
M  V30 39508 H 3787.89 -3.9183 -1.43266 0
M  V30 39509 H 3786.52 -2.7924 -1.61941 0
M  V30 39510 H 3785.58 -3.75634 0.600285 0
M  V30 39511 H 3786.89 -4.95536 0.569711 0
M  V30 39512 H 3786.04 -5.84956 -1.60969 0
M  V30 39513 H 3784.78 -4.58543 -1.66101 0
M  V30 39514 H 3783.79 -5.4784 0.463842 0
M  V30 39515 H 3785.01 -6.77268 0.498459 0
M  V30 39516 H 3782.96 -6.33522 -1.70251 0
M  V30 39517 H 3782.87 -7.54569 -0.464903 0
M  V30 39518 H 3784.14 -7.61796 -1.65188 0
M  V30 39519 N 3788.37 -0.448429 -1.51086 0
M  V30 39520 C 3789.65 0.174785 -1.94818 0
M  V30 39521 C 3790.03 1.59079 -1.3877 0
M  V30 39522 O 3789.38 2.21035 -0.579296 0
M  V30 39523 C 3789.59 0.141228 -3.48714 0
M  V30 39524 C 3790.93 0.341339 -4.23226 0
M  V30 39525 O 3791.96 0.218845 -3.55527 0
M  V30 39526 O 3790.82 0.586235 -5.43347 0
M  V30 39527 H 3787.91 0.123976 -0.817655 0
M  V30 39528 H 3790.46 -0.507205 -1.61943 0
M  V30 39529 H 3789.23 -0.848289 -3.81994 0
M  V30 39530 H 3788.85 0.865654 -3.88062 0
M  V30 39531 N 3789.85 1.56567 -0.180181 0
M  V30 39532 C 3790.78 2.21394 0.742092 0
M  V30 39533 C 3791.76 1.17232 1.23251 0
M  V30 39534 O 3792.94 1.4569 1.28406 0
M  V30 39535 C 3790.07 2.86163 1.96794 0
M  V30 39536 C 3789.03 3.96441 1.61303 0
M  V30 39537 C 3788.35 4.48302 2.91426 0
M  V30 39538 C 3789.65 5.15594 0.834291 0
M  V30 39539 H 3791.35 2.9872 0.201706 0
M  V30 39540 H 3788.89 1.43682 0.0955763 0
M  V30 39541 H 3790.85 3.30192 2.61823 0
M  V30 39542 H 3789.57 2.0622 2.53261 0
M  V30 39543 H 3788.23 3.53081 0.986389 0
M  V30 39544 H 3787.88 3.65139 3.45951 0
M  V30 39545 H 3787.58 5.22704 2.6843 0
M  V30 39546 H 3789.1 4.95024 3.57469 0
M  V30 39547 H 3790.52 5.5626 1.38736 0
M  V30 39548 H 3788.91 5.95968 0.703027 0
M  V30 39549 H 3789.98 4.8461 -0.167639 0
M  V30 39550 N 3791.33 -0.0935042 1.57322 0
M  V30 39551 C 3792.6 -0.828471 1.77188 0
M  V30 39552 C 3792.98 -1.96858 0.762251 0
M  V30 39553 O 3792.33 -2.27543 -0.208942 0
M  V30 39554 C 3792.54 -1.32158 3.2301 0
M  V30 39555 C 3793.89 -1.76372 3.86236 0
M  V30 39556 O 3794.91 -1.41777 3.26769 0
M  V30 39557 O 3793.77 -2.40345 4.90812 0
M  V30 39558 H 3790.87 -0.395298 0.726408 0
M  V30 39559 H 3793.41 -0.0752626 1.69533 0
M  V30 39560 H 3792.18 -0.504794 3.8803 0
M  V30 39561 H 3791.81 -2.13675 3.35304 0
M  V30 39562 N 3792.8 -1.5333 -0.364368 0
M  V30 39563 C 3794.22 -1.61245 -0.941105 0
M  V30 39564 C 3794.57 -0.480629 -1.90222 0
M  V30 39565 O 3793.69 0.392768 -2.12806 0
M  V30 39566 C 3794.29 -2.92266 -1.71365 0
M  V30 39567 C 3792.85 -3.02513 -2.23971 0
M  V30 39568 C 3791.99 -2.5655 -1.05249 0
M  V30 39569 H 3794.94 -1.58053 -0.143125 0
M  V30 39570 H 3794.96 -2.80137 -2.57495 0
M  V30 39571 H 3794.48 -3.74623 -1.01388 0
M  V30 39572 H 3792.58 -2.24747 -2.97186 0
M  V30 39573 H 3792.69 -4.07614 -2.51769 0
M  V30 39574 H 3791.05 -2.11455 -1.41982 0
M  V30 39575 H 3791.84 -3.41325 -0.367684 0
M  V30 39576 N 3794.28 0.624234 -1.4471 0
M  V30 39577 C 3795.19 1.76444 -1.54611 0
M  V30 39578 C 3796.21 1.68567 -0.4314 0
M  V30 39579 O 3797.38 1.89221 -0.689733 0
M  V30 39580 C 3794.45 3.12854 -1.4941 0
M  V30 39581 C 3793.51 3.3231 -2.71787 0
M  V30 39582 C 3792.74 4.62212 -2.66825 0
M  V30 39583 O 3792.97 5.43464 -1.73214 0
M  V30 39584 O 3791.9 4.84021 -3.57781 0
M  V30 39585 H 3795.73 1.71044 -2.50954 0
M  V30 39586 H 3793.31 0.786304 -1.27034 0
M  V30 39587 H 3795.19 3.94157 -1.49057 0
M  V30 39588 H 3793.87 3.18782 -0.562135 0
M  V30 39589 H 3792.78 2.50659 -2.77706 0
M  V30 39590 H 3794.11 3.31249 -3.64054 0
M  V30 39591 N 3795.76 1.31723 0.865262 0
M  V30 39592 C 3797.01 1.21858 1.62106 0
M  V30 39593 C 3797.34 -0.22168 1.92931 0
M  V30 39594 O 3796.61 -1.15592 1.56425 0
M  V30 39595 C 3796.9 2.06762 2.94825 0
M  V30 39596 C 3796.75 3.59111 2.70849 0
M  V30 39597 C 3798.07 1.92062 3.9598 0
M  V30 39598 H 3795.19 0.444025 0.588227 0
M  V30 39599 H 3797.83 1.61562 0.999894 0
M  V30 39600 H 3795.98 1.73031 3.4784 0
M  V30 39601 H 3797.65 4.03003 2.2447 0
M  V30 39602 H 3795.9 3.82307 2.04998 0
M  V30 39603 H 3796.57 4.13831 3.65305 0
M  V30 39604 H 3799.04 2.2159 3.52189 0
M  V30 39605 H 3797.92 2.53763 4.86719 0
M  V30 39606 H 3798.18 0.88525 4.33146 0
M  V30 39607 N 3797.24 -1.08018 1.14761 0
M  V30 39608 C 3798.49 -1.80482 0.91828 0
M  V30 39609 C 3798.81 -1.86415 -0.554953 0
M  V30 39610 O 3798.07 -1.3389 -1.4273 0
M  V30 39611 C 3798.37 -3.25803 1.46926 0
M  V30 39612 C 3798.03 -3.39981 2.96182 0
M  V30 39613 C 3796.7 -3.43558 3.36929 0
M  V30 39614 C 3799.05 -3.43334 3.92137 0
M  V30 39615 C 3796.38 -3.48083 4.72287 0
M  V30 39616 C 3798.73 -3.49395 5.27357 0
M  V30 39617 C 3797.39 -3.51246 5.67611 0
M  V30 39618 H 3796.66 -0.660432 0.336022 0
M  V30 39619 H 3799.31 -1.27154 1.43193 0
M  V30 39620 H 3797.61 -3.81867 0.876639 0
M  V30 39621 H 3799.31 -3.80434 1.26772 0
M  V30 39622 H 3795.9 -3.37891 2.6368 0
M  V30 39623 H 3800.08 -3.39798 3.61734 0
M  V30 39624 H 3795.34 -3.47811 5.02829 0
M  V30 39625 H 3799.51 -3.50935 6.01513 0
M  V30 39626 H 3797.14 -3.54506 6.7248 0
M  V30 39627 N 3798.72 -0.943344 -1.26249 0
M  V30 39628 C 3799.65 -0.411943 -2.25468 0
M  V30 39629 C 3800.66 0.465978 -1.55989 0
M  V30 39630 O 3801.85 0.276075 -1.76352 0
M  V30 39631 C 3798.95 0.42685 -3.36201 0
M  V30 39632 C 3798.12 -0.435422 -4.35227 0
M  V30 39633 C 3797.18 0.343296 -5.25079 0
M  V30 39634 O 3796.21 -0.254422 -5.68631 0
M  V30 39635 N 3797.41 1.63929 -5.56873 0
M  V30 39636 H 3800.18 -1.2649 -2.71699 0
M  V30 39637 H 3797.74 -0.812463 -1.40038 0
M  V30 39638 H 3799.73 0.955247 -3.93265 0
M  V30 39639 H 3798.3 1.18062 -2.89448 0
M  V30 39640 H 3797.52 -1.14501 -3.77204 0
M  V30 39641 H 3798.81 -1.02435 -4.98382 0
M  V30 39642 H 3798.2 2.14699 -5.23374 0
M  V30 39643 H 3796.76 2.11388 -6.1657 0
M  V30 39644 N 3800.2 1.4067 -0.710613 0
M  V30 39645 C 3801.61 1.5492 -0.383665 0
M  V30 39646 C 3801.81 1.683 1.10803 0
M  V30 39647 O 3800.87 1.66981 1.89403 0
M  V30 39648 C 3802.18 2.78032 -1.14537 0
M  V30 39649 C 3803.73 2.91845 -1.13118 0
M  V30 39650 C 3804.2 4.17864 -1.87494 0
M  V30 39651 N 3805.69 4.24853 -1.84538 0
M  V30 39652 C 3806.43 5.21256 -2.38913 0
M  V30 39653 N 3805.93 6.23598 -3.01824 0
M  V30 39654 N 3807.72 5.133 -2.29084 0
M  V30 39655 H 3799.87 1.30231 -1.67791 0
M  V30 39656 H 3802.13 0.629381 -0.708931 0
M  V30 39657 H 3801.84 2.74405 -2.19988 0
M  V30 39658 H 3801.71 3.69995 -0.733734 0
M  V30 39659 H 3804.1 2.94978 -0.0848866 0
M  V30 39660 H 3804.18 2.01014 -1.582 0
M  V30 39661 H 3803.82 4.15492 -2.92111 0
M  V30 39662 H 3803.75 5.07694 -1.39836 0
M  V30 39663 H 3806.25 3.51532 -1.38685 0
M  V30 39664 H 3806.56 6.93574 -3.40844 0
M  V30 39665 H 3804.9 6.24056 -3.05907 0
M  V30 39666 H 3808.09 4.32276 -1.79597 0
M  V30 39667 H 3808.27 5.88259 -2.71762 0
M  V30 39668 N 3801.67 0.456435 1.50846 0
M  V30 39669 C 3802.6 -0.335482 2.31077 0
M  V30 39670 C 3803.58 -1.00375 1.37328 0
M  V30 39671 O 3804.77 -1.00373 1.66249 0
M  V30 39672 C 3801.9 -1.42621 3.16665 0
M  V30 39673 C 3800.85 -0.880377 4.18848 0
M  V30 39674 C 3800.18 -2.0683 4.93078 0
M  V30 39675 C 3801.48 0.0983206 5.22207 0
M  V30 39676 H 3803.17 0.334109 2.9753 0
M  V30 39677 H 3800.72 0.162124 1.43084 0
M  V30 39678 H 3802.67 -1.98758 3.71582 0
M  V30 39679 H 3801.4 -2.12436 2.48069 0
M  V30 39680 H 3800.06 -0.341083 3.6501 0
M  V30 39681 H 3799.7 -2.75309 4.20968 0
M  V30 39682 H 3799.4 -1.70937 5.62187 0
M  V30 39683 H 3800.93 -2.63485 5.50825 0
M  V30 39684 H 3802.34 -0.37338 5.72083 0
M  V30 39685 H 3800.74 0.370779 5.98953 0
M  V30 39686 H 3801.81 1.02896 4.73857 0
M  V30 39687 N 3803.15 -1.56469 0.188482 0
M  V30 39688 C 3804.4 -1.97683 -0.452693 0
M  V30 39689 C 3804.73 -1.07509 -1.61727 0
M  V30 39690 O 3804.01 -0.125712 -1.94093 0
M  V30 39691 C 3804.29 -3.48171 -0.919196 0
M  V30 39692 C 3804.14 -4.49123 0.246735 0
M  V30 39693 C 3805.46 -4.02187 -1.78699 0
M  V30 39694 H 3802.58 -0.718731 -0.163077 0
M  V30 39695 H 3805.22 -1.87954 0.278073 0
M  V30 39696 H 3803.37 -3.56592 -1.54189 0
M  V30 39697 H 3805.04 -4.52746 0.884258 0
M  V30 39698 H 3803.29 -4.24371 0.899555 0
M  V30 39699 H 3803.96 -5.51865 -0.122082 0
M  V30 39700 H 3806.43 -3.96504 -1.26189 0
M  V30 39701 H 3805.31 -5.07866 -2.08238 0
M  V30 39702 H 3805.57 -3.47044 -2.73885 0
M  V30 39703 N 3804.63 0.0851597 -1.5737 0
M  V30 39704 C 3805.88 0.785571 -1.85773 0
M  V30 39705 C 3806.19 1.7941 -0.779204 0
M  V30 39706 O 3807.4 2.54312 -0.950666 0
M  V30 39707 C 3805.85 1.44799 -3.29486 0
M  V30 39708 C 3805.46 0.478721 -4.45435 0
M  V30 39709 C 3807.21 2.13155 -3.67104 0
M  V30 39710 C 3805.11 1.14629 -5.80185 0
M  V30 39711 H 3804.04 0.297133 -0.692985 0
M  V30 39712 H 3806.69 0.0386454 -1.83459 0
M  V30 39713 H 3805.08 2.24272 -3.26371 0
M  V30 39714 H 3806.25 -0.285229 -4.59916 0
M  V30 39715 H 3804.56 -0.0996696 -4.16281 0
M  V30 39716 H 3807.16 2.63852 -4.65066 0
M  V30 39717 H 3807.5 2.92497 -2.96228 0
M  V30 39718 H 3808.04 1.4053 -3.72151 0
M  V30 39719 H 3804.78 0.393468 -6.54318 0
M  V30 39720 H 3804.3 1.88143 -5.69528 0
M  V30 39721 H 3805.98 1.66995 -6.25077 0
M  V30 39722 N 3806.11 1.53521 0.356231 0
M  V30 39723 C 3807.34 1.74077 1.11825 0
M  V30 39724 C 3807.75 0.47403 1.82752 0
M  V30 39725 O 3807.11 -0.553618 1.739 0
M  V30 39726 C 3807.16 2.91247 2.14144 0
M  V30 39727 O 3806.88 4.1302 1.46103 0
M  V30 39728 C 3808.38 3.23751 3.0282 0
M  V30 39729 H 3805.6 0.581971 0.333992 0
M  V30 39730 H 3808.14 2.00301 0.4123 0
M  V30 39731 H 3806.3 2.67391 2.80323 0
M  V30 39732 H 3806.71 4.787 2.14352 0
M  V30 39733 H 3808.19 4.09118 3.70576 0
M  V30 39734 H 3808.66 2.39512 3.68145 0
M  V30 39735 H 3809.27 3.49567 2.42246 0
M  V30 39736 N 3807.59 -0.616551 1.45039 0
M  V30 39737 C 3808.55 -1.7097 1.5265 0
M  V30 39738 C 3809.55 -1.55566 0.406929 0
M  V30 39739 O 3810.74 -1.60796 0.67009 0
M  V30 39740 C 3807.87 -3.10172 1.41444 0
M  V30 39741 H 3809.06 -1.65592 2.50039 0
M  V30 39742 H 3806.62 -0.8315 1.32347 0
M  V30 39743 H 3807.35 -3.21134 0.452048 0
M  V30 39744 H 3807.14 -3.2276 2.2264 0
M  V30 39745 H 3808.63 -3.89814 1.49782 0
M  V30 39746 N 3809.06 -1.3218 -0.858264 0
M  V30 39747 C 3810.48 -1.11092 -1.14589 0
M  V30 39748 C 3810.68 0.110963 -2.01194 0
M  V30 39749 O 3809.74 0.796908 -2.39595 0
M  V30 39750 C 3811.05 -2.38855 -1.82671 0
M  V30 39751 C 3812.6 -2.44578 -1.95322 0
M  V30 39752 C 3813.07 -3.72252 -2.66819 0
M  V30 39753 N 3814.56 -3.73213 -2.74347 0
M  V30 39754 C 3815.3 -4.68704 -3.30309 0
M  V30 39755 N 3814.79 -5.74558 -3.87111 0
M  V30 39756 N 3816.59 -4.56206 -3.28378 0
M  V30 39757 H 3808.74 -2.10527 -0.281434 0
M  V30 39758 H 3811 -0.929311 -0.18731 0
M  V30 39759 H 3810.71 -3.28167 -1.26489 0
M  V30 39760 H 3810.58 -2.49542 -2.82858 0
M  V30 39761 H 3812.97 -1.55728 -2.50665 0
M  V30 39762 H 3813.05 -2.37846 -0.941429 0
M  V30 39763 H 3812.69 -4.61475 -2.12141 0
M  V30 39764 H 3812.62 -3.76254 -3.6843 0
M  V30 39765 H 3815.11 -2.967 -2.34046 0
M  V30 39766 H 3815.43 -6.43484 -4.27958 0
M  V30 39767 H 3813.77 -5.78317 -3.85453 0
M  V30 39768 H 3816.96 -3.72677 -2.83248 0
M  V30 39769 H 3817.14 -5.308 -3.71692 0
M  V30 39770 N 3810.54 1.07407 -1.15332 0
M  V30 39771 C 3811.77 1.84253 -0.952133 0
M  V30 39772 C 3812.19 1.81483 0.494539 0
M  V30 39773 O 3811.55 1.20735 1.3525 0
M  V30 39774 C 3811.6 3.29266 -1.47025 0
M  V30 39775 O 3810.7 4.06936 -0.669076 0
M  V30 39776 H 3810.04 0.570554 -0.339653 0
M  V30 39777 H 3812.57 1.35499 -1.53301 0
M  V30 39778 H 3812.58 3.801 -1.48284 0
M  V30 39779 H 3811.26 3.30597 -2.52345 0
M  V30 39780 H 3809.83 3.65763 -0.726067 0
M  V30 39781 N 3812.02 0.950026 1.25747 0
M  V30 39782 C 3813.27 0.598022 1.92631 0
M  V30 39783 C 3813.58 -0.868334 1.75269 0
M  V30 39784 O 3814.79 -1.3301 2.36687 0
M  V30 39785 C 3813.24 1.01885 3.45178 0
M  V30 39786 C 3812.85 2.50743 3.71257 0
M  V30 39787 C 3814.6 0.739157 4.18015 0
M  V30 39788 C 3812.5 2.8665 5.17287 0
M  V30 39789 H 3811.43 0.219951 0.721206 0
M  V30 39790 H 3814.08 1.15386 1.42683 0
M  V30 39791 H 3812.47 0.391464 3.9406 0
M  V30 39792 H 3813.64 3.18461 3.33045 0
M  V30 39793 H 3811.95 2.76135 3.11671 0
M  V30 39794 H 3814.55 0.983648 5.25574 0
M  V30 39795 H 3814.89 -0.324317 4.15035 0
M  V30 39796 H 3815.43 1.32667 3.75026 0
M  V30 39797 H 3812.17 3.91996 5.25376 0
M  V30 39798 H 3811.69 2.23601 5.56563 0
M  V30 39799 H 3813.37 2.75592 5.8537 0
M  V30 39800 N 3813.5 -1.40291 0.718063 0
M  V30 39801 C 3814.46 -2.29075 0.0757886 0
M  V30 39802 C 3815.46 -1.45489 -0.684805 0
M  V30 39803 O 3816.65 -1.66372 -0.516339 0
M  V30 39804 C 3813.78 -3.28737 -0.902476 0
M  V30 39805 H 3814.98 -2.87371 0.857779 0
M  V30 39806 H 3812.53 -1.48654 0.482865 0
M  V30 39807 H 3813.26 -2.75464 -1.71143 0
M  V30 39808 H 3813.05 -3.90444 -0.35994 0
M  V30 39809 H 3814.54 -3.95212 -1.34897 0
M  V30 39810 N 3814.98 -0.464428 -1.50602 0
M  V30 39811 C 3816.23 0.0945044 -2.01478 0
M  V30 39812 C 3816.54 1.41383 -1.35167 0
M  V30 39813 O 3817.74 2.05731 -1.77163 0
M  V30 39814 C 3816.2 0.21894 -3.59233 0
M  V30 39815 C 3815.81 -1.09156 -4.34499 0
M  V30 39816 C 3817.55 0.730188 -4.18173 0
M  V30 39817 C 3815.46 -0.931282 -5.84021 0
M  V30 39818 H 3814.39 0.0390933 -0.752986 0
M  V30 39819 H 3817.04 -0.598313 -1.73472 0
M  V30 39820 H 3815.42 0.975388 -3.838 0
M  V30 39821 H 3816.6 -1.85844 -4.21662 0
M  V30 39822 H 3814.91 -1.5334 -3.87138 0
M  V30 39823 H 3817.51 0.867026 -5.27624 0
M  V30 39824 H 3817.85 1.71979 -3.79116 0
M  V30 39825 H 3818.38 0.0313108 -3.97788 0
M  V30 39826 H 3815.12 -1.89406 -6.27539 0
M  V30 39827 H 3814.64 -0.204666 -5.99451 0
M  V30 39828 H 3816.32 -0.595231 -6.44256 0
M  V30 39829 N 3816.45 1.56367 -0.196777 0
M  V30 39830 C 3817.39 2.15075 0.76277 0
M  V30 39831 C 3818.37 1.08794 1.20842 0
M  V30 39832 O 3819.55 1.36915 1.29563 0
M  V30 39833 C 3816.68 2.71099 2.03034 0
M  V30 39834 C 3815.72 3.89984 1.72669 0
M  V30 39835 S 3816.56 5.28331 0.87331 0
M  V30 39836 C 3817.71 5.87778 2.15099 0
M  V30 39837 H 3817.94 2.96128 0.263699 0
M  V30 39838 H 3815.48 1.54389 0.0182416 0
M  V30 39839 H 3817.44 3.04021 2.75828 0
M  V30 39840 H 3816.1 1.90084 2.50053 0
M  V30 39841 H 3815.29 4.27601 2.66784 0
M  V30 39842 H 3814.89 3.58081 1.07954 0
M  V30 39843 H 3817.18 6.02243 3.10338 0
M  V30 39844 H 3818.13 6.84334 1.81912 0
M  V30 39845 H 3818.53 5.16398 2.28022 0
M  V30 39846 N 3817.93 -0.0768128 1.57413 0
M  V30 39847 C 3819.35 -0.431481 1.53657 0
M  V30 39848 C 3819.55 -1.79465 0.916225 0
M  V30 39849 O 3818.6 -2.47159 0.516573 0
M  V30 39850 C 3819.92 -0.37716 2.98325 0
M  V30 39851 C 3821.47 -0.457707 3.09635 0
M  V30 39852 C 3821.94 -0.433344 4.55945 0
M  V30 39853 N 3823.43 -0.493566 4.60563 0
M  V30 39854 C 3824.17 -0.496849 5.71243 0
M  V30 39855 N 3823.66 -0.455246 6.91303 0
M  V30 39856 N 3825.46 -0.543031 5.59471 0
M  V30 39857 H 3817.61 0.815846 1.96106 0
M  V30 39858 H 3819.87 0.305615 0.897387 0
M  V30 39859 H 3819.58 0.557689 3.4725 0
M  V30 39860 H 3819.45 -1.18926 3.57962 0
M  V30 39861 H 3821.84 -1.38298 2.60687 0
M  V30 39862 H 3821.92 0.382874 2.52918 0
M  V30 39863 H 3821.56 0.488057 5.0555 0
M  V30 39864 H 3821.49 -1.29139 5.1052 0
M  V30 39865 H 3823.98 -0.530171 3.74163 0
M  V30 39866 H 3824.3 -0.461538 7.71421 0
M  V30 39867 H 3822.64 -0.422011 6.93718 0
M  V30 39868 H 3825.83 -0.57319 4.64577 0
M  V30 39869 H 3826 -0.54212 6.45728 0
M  V30 39870 N 3819.41 -1.53708 -0.348084 0
M  V30 39871 C 3820.82 -1.62235 -0.92395 0
M  V30 39872 C 3821.17 -0.500778 -1.89701 0
M  V30 39873 O 3820.3 0.370175 -2.1321 0
M  V30 39874 C 3820.89 -2.94067 -1.68255 0
M  V30 39875 C 3819.45 -3.04871 -2.2075 0
M  V30 39876 C 3818.6 -2.57652 -1.02522 0
M  V30 39877 H 3821.55 -1.58196 -0.126353 0
M  V30 39878 H 3821.57 -2.82852 -2.54509 0
M  V30 39879 H 3821.08 -3.75677 -0.974089 0
M  V30 39880 H 3819.18 -2.27886 -2.94786 0
M  V30 39881 H 3819.3 -4.10261 -2.47432 0
M  V30 39882 H 3817.66 -2.12949 -1.39731 0
M  V30 39883 H 3818.44 -3.41696 -0.331461 0
M  V30 39884 N 3820.89 0.608851 -1.45364 0
M  V30 39885 C 3821.84 1.74078 -1.54272 0
M  V30 39886 C 3822.83 1.64294 -0.412781 0
M  V30 39887 O 3824.04 1.70103 -0.58864 0
M  V30 39888 H 3820.41 0.575088 -0.484538 0
M  V30 39889 H 3822.38 1.63691 -2.49495 0
M  V30 39890 C 3821.13 3.12455 -1.52536 0
M  V30 39891 H 3820.45 3.20642 -2.38807 0
M  V30 39892 H 3821.89 3.91489 -1.62826 0
M  V30 39893 C 3820.35 3.35974 -0.249584 0
M  V30 39894 O 3820.88 3.96055 0.67109 0
M  V30 39895 N 3819.09 2.90235 -0.145676 0
M  V30 39896 H 3818.64 2.41524 -0.895756 0
M  V30 39897 H 3818.59 3.06345 0.707113 0
M  V30 39898 N 3822.37 1.32633 0.851242 0
M  V30 39899 C 3823.31 1.21816 1.9815 0
M  V30 39900 C 3824.31 0.122212 1.68959 0
M  V30 39901 O 3825.51 0.285363 1.77724 0
M  V30 39902 H 3821.89 0.377697 0.650268 0
M  V30 39903 H 3823.86 2.174 2.04401 0
M  V30 39904 C 3822.61 0.96158 3.34139 0
M  V30 39905 H 3821.93 1.79711 3.57133 0
M  V30 39906 H 3823.37 0.92615 4.13761 0
M  V30 39907 C 3821.83 -0.335645 3.35224 0
M  V30 39908 O 3822.36 -1.34641 3.78464 0
M  V30 39909 N 3820.57 -0.358825 2.88376 0
M  V30 39910 H 3820.11 0.464239 2.53382 0
M  V30 39911 H 3820.07 -1.22663 2.89484 0
M  V30 39912 N 3823.84 -1.06794 1.159 0
M  V30 39913 C 3824.77 -2.1612 0.883988 0
M  V30 39914 C 3825.76 -1.69272 -0.167679 0
M  V30 39915 O 3826.94 -1.94189 -0.0208504 0
M  V30 39916 C 3824.07 -3.45229 0.378717 0
M  V30 39917 C 3823.02 -4.05559 1.36771 0
M  V30 39918 C 3822.35 -5.29816 0.721049 0
M  V30 39919 C 3823.65 -4.44928 2.73562 0
M  V30 39920 H 3825.34 -2.39383 1.79822 0
M  V30 39921 H 3822.89 -1.15048 0.866029 0
M  V30 39922 H 3824.84 -4.21041 0.173834 0
M  V30 39923 H 3823.57 -3.2157 -0.571007 0
M  V30 39924 H 3822.23 -3.31797 1.55905 0
M  V30 39925 H 3821.87 -5.02451 -0.235 0
M  V30 39926 H 3821.57 -5.71138 1.38111 0
M  V30 39927 H 3823.1 -6.0833 0.52607 0
M  V30 39928 H 3824.51 -5.11845 2.5824 0
M  V30 39929 H 3822.91 -4.9722 3.35995 0
M  V30 39930 H 3823.98 -3.56029 3.29199 0
M  V30 39931 N 3825.32 -0.956681 -1.25241 0
M  V30 39932 C 3826.57 -0.61348 -1.93298 0
M  V30 39933 C 3826.9 0.84764 -1.74725 0
M  V30 39934 O 3826.18 1.60844 -1.0936 0
M  V30 39935 C 3826.46 -0.975482 -3.46636 0
M  V30 39936 C 3826.31 -2.49248 -3.74427 0
M  V30 39937 C 3827.63 -0.502025 -4.37227 0
M  V30 39938 H 3824.75 -0.224351 -0.702023 0
M  V30 39939 H 3827.39 -1.1937 -1.4782 0
M  V30 39940 H 3825.54 -0.481738 -3.85502 0
M  V30 39941 H 3827.21 -3.06015 -3.45185 0
M  V30 39942 H 3825.46 -2.92929 -3.19961 0
M  V30 39943 H 3826.13 -2.69628 -4.81669 0
M  V30 39944 H 3828.6 -0.925585 -4.05675 0
M  V30 39945 H 3827.48 -0.783991 -5.43272 0
M  V30 39946 H 3827.74 0.598005 -4.38037 0
M  V30 39947 N 3826.8 1.39908 -0.725493 0
M  V30 39948 C 3827.75 2.27932 -0.0555715 0
M  V30 39949 C 3828.73 1.43771 0.72241 0
M  V30 39950 O 3829.93 1.66771 0.592982 0
M  V30 39951 C 3827.06 3.32404 0.858063 0
M  V30 39952 C 3826.14 4.24034 0.0747401 0
M  V30 39953 N 3826.53 4.96852 -0.94718 0
M  V30 39954 C 3824.83 4.4495 0.305823 0
M  V30 39955 C 3825.53 5.64134 -1.41871 0
M  V30 39956 N 3824.51 5.38553 -0.739043 0
M  V30 39957 H 3828.31 2.8168 -0.838656 0
M  V30 39958 H 3825.82 1.52477 -0.558964 0
M  V30 39959 H 3827.82 3.94321 1.3534 0
M  V30 39960 H 3826.48 2.80215 1.64041 0
M  V30 39961 H 3827.49 5.00576 -1.3283 0
M  V30 39962 H 3824.17 4.03722 1.06372 0
M  V30 39963 H 3825.56 6.3245 -2.2684 0
M  V30 39964 N 3828.28 0.472408 1.50353 0
M  V30 39965 C 3829.53 -0.0821273 2.02333 0
M  V30 39966 C 3829.85 -1.39603 1.3543 0
M  V30 39967 O 3829.11 -1.89987 0.469419 0
M  V30 39968 C 3829.41 -0.312568 3.56031 0
M  V30 39969 C 3829.07 0.919792 4.41419 0
M  V30 39970 C 3827.74 1.25767 4.64474 0
M  V30 39971 C 3830.09 1.74026 4.91289 0
M  V30 39972 C 3827.42 2.41605 5.34644 0
M  V30 39973 C 3829.77 2.88993 5.62731 0
M  V30 39974 C 3828.43 3.23194 5.84039 0
M  V30 39975 H 3827.7 -0.0300525 0.74039 0
M  V30 39976 H 3830.35 0.626757 1.80953 0
M  V30 39977 H 3828.65 -1.10371 3.75933 0
M  V30 39978 H 3830.35 -0.755622 3.93816 0
M  V30 39979 H 3826.94 0.646561 4.23695 0
M  V30 39980 H 3831.12 1.4924 4.7333 0
M  V30 39981 H 3826.38 2.68375 5.49349 0
M  V30 39982 H 3830.55 3.52914 6.00354 0
M  V30 39983 H 3828.18 4.13061 6.38189 0
M  V30 39984 N 3829.76 -1.5626 0.205067 0
M  V30 39985 C 3830.99 -2.02246 -0.436384 0
M  V30 39986 C 3831.4 -1.08511 -1.54502 0
M  V30 39987 O 3830.76 -0.0917312 -1.82269 0
M  V30 39988 C 3830.81 -3.47866 -0.983422 0
M  V30 39989 O 3830.53 -4.38025 0.0809936 0
M  V30 39990 C 3832.03 -4.09418 -1.69976 0
M  V30 39991 H 3829.25 -0.662159 -0.108566 0
M  V30 39992 H 3831.79 -2.02033 0.316694 0
M  V30 39993 H 3829.95 -3.48747 -1.68684 0
M  V30 39994 H 3830.36 -5.23476 -0.327659 0
M  V30 39995 H 3831.84 -5.13131 -2.03472 0
M  V30 39996 H 3832.31 -3.53454 -2.60704 0
M  V30 39997 H 3832.92 -4.12339 -1.04195 0
M  V30 39998 N 3831.24 0.0684638 -1.57451 0
M  V30 39999 C 3832.15 1.09882 -2.07276 0
M  V30 40000 C 3833.16 1.42185 -1.00297 0
M  V30 40001 O 3834.34 1.52295 -1.31789 0
M  V30 40002 C 3831.4 2.39214 -2.50953 0
M  V30 40003 C 3830.46 2.13853 -3.72244 0
M  V30 40004 C 3829.7 3.37019 -4.13829 0
M  V30 40005 O 3829.92 4.46261 -3.55256 0
M  V30 40006 O 3828.85 3.25035 -5.06592 0
M  V30 40007 H 3832.68 0.705535 -2.95391 0
M  V30 40008 H 3830.26 0.282823 -1.46699 0
M  V30 40009 H 3832.15 3.15322 -2.79553 0
M  V30 40010 H 3830.82 2.77916 -1.65965 0
M  V30 40011 H 3829.73 1.35439 -3.48722 0
M  V30 40012 H 3831.06 1.8003 -4.58094 0
M  V30 40013 N 3832.71 1.5389 0.339928 0
M  V30 40014 C 3833.94 1.75566 1.10414 0
M  V30 40015 C 3834.36 0.495188 1.81465 0
M  V30 40016 O 3833.72 -0.552385 1.7268 0
M  V30 40017 C 3833.77 2.9382 2.09051 0
M  V30 40018 O 3832.87 2.64221 3.1664 0
M  V30 40019 H 3832.21 0.582269 0.319153 0
M  V30 40020 H 3834.74 2.00864 0.389215 0
M  V30 40021 H 3834.75 3.2071 2.52209 0
M  V30 40022 H 3833.43 3.85237 1.56734 0
M  V30 40023 H 3832.01 2.4823 2.78274 0
M  V30 40024 N 3834.19 -0.601133 1.45685 0
M  V30 40025 C 3835.14 -1.71144 1.54849 0
M  V30 40026 C 3836.11 -1.61361 0.393943 0
M  V30 40027 O 3837.29 -1.80845 0.608254 0
M  V30 40028 C 3834.43 -3.09464 1.52728 0
M  V30 40029 C 3833.55 -3.30007 2.78782 0
M  V30 40030 C 3832.68 -4.5847 2.68289 0
M  V30 40031 C 3831.72 -4.72292 3.89367 0
M  V30 40032 N 3830.86 -5.92061 3.77369 0
M  V30 40033 H 3835.7 -1.62648 2.49699 0
M  V30 40034 H 3833.23 -0.792984 1.23896 0
M  V30 40035 H 3835.19 -3.895 1.49486 0
M  V30 40036 H 3833.82 -3.16902 0.614244 0
M  V30 40037 H 3832.87 -2.43703 2.92084 0
M  V30 40038 H 3834.19 -3.36093 3.68569 0
M  V30 40039 H 3833.34 -5.46709 2.63049 0
M  V30 40040 H 3832.08 -4.54792 1.76111 0
M  V30 40041 H 3831.08 -3.82476 3.94959 0
M  V30 40042 H 3832.31 -4.77762 4.82618 0
M  V30 40043 H 3830.26 -5.89417 2.87965 0
M  V30 40044 H 3830.17 -5.99335 4.60796 0
M  V30 40045 H 3831.44 -6.82781 3.76073 0
M  V30 40046 N 3835.67 -1.33083 -0.844196 0
M  V30 40047 C 3836.6 -1.25514 -1.96897 0
M  V30 40048 C 3837.58 -0.1368 -1.69549 0
M  V30 40049 O 3838.77 -0.3257 -1.91449 0
M  V30 40050 C 3835.9 -0.988153 -3.32946 0
M  V30 40051 C 3834.85 -2.06886 -3.74676 0
M  V30 40052 C 3834.18 -1.6541 -5.08472 0
M  V30 40053 C 3835.48 -3.48505 -3.89027 0
M  V30 40054 H 3837.17 -2.19621 -2.03487 0
M  V30 40055 H 3834.72 -1.05727 -0.97764 0
M  V30 40056 H 3836.67 -0.921717 -4.11196 0
M  V30 40057 H 3835.39 -0.0114641 -3.26598 0
M  V30 40058 H 3834.05 -2.12563 -2.98685 0
M  V30 40059 H 3833.7 -0.664577 -4.9859 0
M  V30 40060 H 3833.4 -2.37726 -5.37364 0
M  V30 40061 H 3834.92 -1.60222 -5.89204 0
M  V30 40062 H 3836.34 -3.45359 -4.57603 0
M  V30 40063 H 3834.73 -4.1926 -4.29349 0
M  V30 40064 H 3835.8 -3.874 -2.91632 0
M  V30 40065 N 3837.15 1.06178 -1.16464 0
M  V30 40066 C 3838.56 1.60463 -0.954388 0
M  V30 40067 C 3838.91 1.89684 0.501421 0
M  V30 40068 O 3838.03 1.67113 1.37485 0
M  V30 40069 C 3838.63 2.91534 -1.72608 0
M  V30 40070 C 3837.19 3.42516 -1.56077 0
M  V30 40071 C 3836.34 2.16392 -1.73407 0
M  V30 40072 H 3839.29 0.891143 -1.31318 0
M  V30 40073 H 3839.31 3.60996 -1.20258 0
M  V30 40074 H 3838.82 2.70234 -2.78559 0
M  V30 40075 H 3836.92 3.68873 -0.525717 0
M  V30 40076 H 3837.03 4.17765 -2.3454 0
M  V30 40077 H 3835.4 2.2667 -1.16159 0
M  V30 40078 H 3836.18 1.97573 -2.80748 0
M  V30 40079 N 3838.63 0.96331 1.24732 0
M  V30 40080 C 3839.56 0.447761 2.24784 0
M  V30 40081 C 3840.57 -0.441103 1.5671 0
M  V30 40082 O 3841.76 -0.247984 1.76769 0
M  V30 40083 C 3838.86 -0.373309 3.36838 0
M  V30 40084 C 3838.03 0.504608 4.3448 0
M  V30 40085 C 3837.09 -0.259717 5.25559 0
M  V30 40086 O 3836.12 0.344854 5.68154 0
M  V30 40087 N 3837.32 -1.55049 5.59411 0
M  V30 40088 H 3840.08 1.30797 2.69652 0
M  V30 40089 H 3837.65 0.834639 1.38728 0
M  V30 40090 H 3839.64 -0.892561 3.94735 0
M  V30 40091 H 3838.21 -1.13442 2.9129 0
M  V30 40092 H 3837.43 1.20488 3.75335 0
M  V30 40093 H 3838.72 1.10351 4.96689 0
M  V30 40094 H 3838.11 -2.06346 5.26724 0
M  V30 40095 H 3836.67 -2.01552 6.19855 0
M  V30 40096 N 3840.1 -1.39522 0.732902 0
M  V30 40097 C 3841.04 -2.28164 0.0403417 0
M  V30 40098 C 3842.01 -1.44276 -0.749873 0
M  V30 40099 O 3843.2 -1.7367 -0.732874 0
M  V30 40100 C 3840.33 -3.25102 -0.950073 0
M  V30 40101 C 3839.37 -4.25775 -0.248598 0
M  V30 40102 S 3840.2 -5.25384 1.03593 0
M  V30 40103 C 3841.36 -6.25882 0.0480632 0
M  V30 40104 H 3841.59 -2.86555 0.792073 0
M  V30 40105 H 3839.13 -1.45214 0.524615 0
M  V30 40106 H 3841.08 -3.81472 -1.51623 0
M  V30 40107 H 3839.75 -2.65735 -1.67463 0
M  V30 40108 H 3838.94 -4.94021 -0.997939 0
M  V30 40109 H 3838.54 -3.73194 0.245463 0
M  V30 40110 H 3840.83 -6.72843 -0.793027 0
M  V30 40111 H 3841.78 -7.04655 0.697613 0
M  V30 40112 H 3842.18 -5.63573 -0.323399 0
M  V30 40113 N 3841.58 -0.480375 -1.501 0
M  V30 40114 C 3842.49 0.314039 -2.32489 0
M  V30 40115 C 3843.51 0.987161 -1.43287 0
M  V30 40116 O 3844.68 0.973092 -1.76332 0
M  V30 40117 C 3841.75 1.37646 -3.18205 0
M  V30 40118 C 3840.81 0.718956 -4.23237 0
M  V30 40119 C 3840.04 1.73075 -5.04857 0
M  V30 40120 O 3840.27 2.95835 -4.87686 0
M  V30 40121 O 3839.2 1.29745 -5.8775 0
M  V30 40122 H 3843.03 -0.359753 -3.01562 0
M  V30 40123 H 3840.61 -0.242055 -1.47426 0
M  V30 40124 H 3842.49 1.99163 -3.71365 0
M  V30 40125 H 3841.17 2.03355 -2.5185 0
M  V30 40126 H 3840.07 0.0645834 -3.74044 0
M  V30 40127 H 3841.41 0.104656 -4.92089 0
M  V30 40128 N 3843.06 1.56149 -0.213351 0
M  V30 40129 C 3844.29 2.02474 0.425653 0
M  V30 40130 C 3844.7 1.09329 1.53924 0
M  V30 40131 O 3844.06 0.101396 1.82218 0
M  V30 40132 C 3844.11 3.48383 0.96496 0
M  V30 40133 O 3843.83 4.37976 -0.104222 0
M  V30 40134 C 3845.33 4.10314 1.67803 0
M  V30 40135 H 3842.55 0.662725 0.105053 0
M  V30 40136 H 3845.1 2.01862 -0.327404 0
M  V30 40137 H 3843.25 3.49637 1.66832 0
M  V30 40138 H 3843.67 5.23642 0.299893 0
M  V30 40139 H 3845.14 5.14203 2.00748 0
M  V30 40140 H 3845.62 3.54832 2.58826 0
M  V30 40141 H 3846.22 4.12886 1.02007 0
M  V30 40142 N 3844.54 -0.0601128 1.57485 0
M  V30 40143 C 3845.45 -1.08781 2.07855 0
M  V30 40144 C 3846.46 -1.41651 1.0105 0
M  V30 40145 O 3847.64 -1.51594 1.32595 0
M  V30 40146 C 3844.71 -2.3788 2.52218 0
M  V30 40147 C 3843.77 -2.11875 3.73373 0
M  V30 40148 C 3843 -3.34819 4.1561 0
M  V30 40149 O 3843.22 -4.44371 3.57618 0
M  V30 40150 O 3842.16 -3.22344 5.08309 0
M  V30 40151 H 3845.98 -0.68986 2.95761 0
M  V30 40152 H 3843.57 -0.275039 1.46846 0
M  V30 40153 H 3845.45 -3.13835 2.81221 0
M  V30 40154 H 3844.12 -2.77032 1.67437 0
M  V30 40155 H 3843.03 -1.33588 3.49435 0
M  V30 40156 H 3844.36 -1.77598 4.59042 0
M  V30 40157 N 3846.02 -1.54068 -0.331762 0
M  V30 40158 C 3847.26 -1.71541 -1.06855 0
M  V30 40159 C 3847.59 -0.487539 -1.88807 0
M  V30 40160 O 3846.86 0.498506 -1.89451 0
M  V30 40161 H 3845.44 -0.632464 -0.397489 0
M  V30 40162 H 3848.1 -1.91352 -0.370183 0
M  V30 40163 H 3847.19 -2.59146 -1.73924 0
M  V30 40164 N 3847.49 0.593399 -1.46002 0
M  V30 40165 C 3848.43 1.71749 -1.50258 0
M  V30 40166 C 3849.41 1.58618 -0.357629 0
M  V30 40167 O 3850.59 1.79983 -0.560219 0
M  V30 40168 C 3847.72 3.09709 -1.37105 0
M  V30 40169 C 3846.76 3.4139 -2.55646 0
M  V30 40170 S 3847.6 3.34649 -4.18055 0
M  V30 40171 C 3848.75 4.75165 -4.07392 0
M  V30 40172 H 3848.98 1.67878 -2.45366 0
M  V30 40173 H 3846.52 0.771252 -1.33757 0
M  V30 40174 H 3848.48 3.89304 -1.30203 0
M  V30 40175 H 3847.14 3.11081 -0.434439 0
M  V30 40176 H 3846.33 4.41876 -2.42407 0
M  V30 40177 H 3845.93 2.69341 -2.59482 0
M  V30 40178 H 3848.22 5.65304 -3.73413 0
M  V30 40179 H 3849.17 4.93461 -5.0784 0
M  V30 40180 H 3849.57 4.51513 -3.38816 0
M  V30 40181 N 3848.97 1.33529 0.837127 0
M  V30 40182 C 3850.25 1.15681 1.57725 0
M  V30 40183 C 3850.63 -0.276141 2.09286 0
M  V30 40184 O 3849.98 -1.27543 1.89592 0
M  V30 40185 C 3850.19 2.19941 2.70974 0
M  V30 40186 C 3851.54 2.54186 3.40109 0
M  V30 40187 O 3852.56 2.18621 2.81217 0
M  V30 40188 O 3851.42 3.15225 4.46426 0
M  V30 40189 H 3848.51 0.447538 0.695442 0
M  V30 40190 H 3851.06 1.45117 0.879731 0
M  V30 40191 H 3849.83 3.16185 2.30527 0
M  V30 40192 H 3849.45 1.91601 3.48389 0
M  V30 40193 N 3850.45 -1.05559 1.17026 0
M  V30 40194 C 3851.36 -2.16727 0.898145 0
M  V30 40195 C 3852.38 -1.73496 -0.132339 0
M  V30 40196 O 3853.55 -2.01347 0.0460556 0
M  V30 40197 C 3850.62 -3.44253 0.411152 0
M  V30 40198 C 3849.68 -4.01951 1.50777 0
M  V30 40199 C 3848.91 -5.23391 1.04392 0
M  V30 40200 O 3849.13 -5.70306 -0.103409 0
M  V30 40201 O 3848.07 -5.73233 1.8354 0
M  V30 40202 H 3851.89 -2.42528 1.82795 0
M  V30 40203 H 3849.48 -1.15237 0.950836 0
M  V30 40204 H 3851.36 -4.21144 0.146911 0
M  V30 40205 H 3850.04 -3.19961 -0.490548 0
M  V30 40206 H 3848.94 -3.26518 1.82585 0
M  V30 40207 H 3850.28 -4.30554 2.38505 0
M  V30 40208 N 3851.93 -0.969911 -1.2422 0
M  V30 40209 C 3853.18 -0.631759 -1.91972 0
M  V30 40210 C 3853.5 0.836001 -1.7617 0
M  V30 40211 O 3852.77 1.59698 -1.13461 0
M  V30 40212 H 3851.35 -0.23067 -0.710493 0
M  V30 40213 H 3854.01 -1.23146 -1.51067 0
M  V30 40214 H 3853.11 -0.874275 -2.99604 0
M  V30 40215 N 3853.41 1.39131 -0.740291 0
M  V30 40216 C 3854.35 2.30567 -0.103784 0
M  V30 40217 C 3855.32 1.49491 0.723999 0
M  V30 40218 O 3856.51 1.78161 0.682873 0
M  V30 40219 C 3853.65 3.35853 0.793528 0
M  V30 40220 C 3852.76 4.31974 -0.047443 0
M  V30 40221 C 3851.9 5.24329 0.851634 0
M  V30 40222 C 3850.94 6.121 0.00622874 0
M  V30 40223 N 3850.07 6.96794 0.86153 0
M  V30 40224 H 3854.91 2.84426 -0.889137 0
M  V30 40225 H 3852.45 1.40044 -0.450117 0
M  V30 40226 H 3854.41 3.95491 1.32827 0
M  V30 40227 H 3853.04 2.83436 1.5448 0
M  V30 40228 H 3852.09 3.7391 -0.699667 0
M  V30 40229 H 3853.4 4.93851 -0.700893 0
M  V30 40230 H 3852.56 5.89019 1.45403 0
M  V30 40231 H 3851.29 4.62786 1.53885 0
M  V30 40232 H 3850.3 5.46418 -0.608929 0
M  V30 40233 H 3851.52 6.75709 -0.67785 0
M  V30 40234 H 3849.47 6.37814 1.53394 0
M  V30 40235 H 3849.39 7.55537 0.264679 0
M  V30 40236 H 3850.66 7.65908 1.44932 0
M  V30 40237 N 3854.88 0.488329 1.49844 0
M  V30 40238 C 3855.79 -0.301705 2.32652 0
M  V30 40239 C 3856.81 -0.979548 1.43808 0
M  V30 40240 O 3857.99 -0.963727 1.76845 0
M  V30 40241 C 3855.05 -1.35956 3.18931 0
M  V30 40242 C 3854.11 -0.6965 4.23612 0
M  V30 40243 C 3853.35 -1.70396 5.05768 0
M  V30 40244 O 3853.57 -2.93244 4.89248 0
M  V30 40245 O 3852.5 -1.26626 5.8843 0
M  V30 40246 H 3856.33 0.37574 3.01367 0
M  V30 40247 H 3853.91 0.24987 1.47296 0
M  V30 40248 H 3855.8 -1.97191 3.72416 0
M  V30 40249 H 3854.47 -2.02017 2.52925 0
M  V30 40250 H 3853.38 -0.0447461 3.74073 0
M  V30 40251 H 3854.71 -0.0785581 4.92137 0
M  V30 40252 N 3856.36 -1.56034 0.221629 0
M  V30 40253 C 3857.77 -1.84493 -0.286208 0
M  V30 40254 C 3858.12 -1.14301 -1.59467 0
M  V30 40255 O 3857.25 -0.412709 -2.12428 0
M  V30 40256 C 3857.84 -3.34691 -0.526069 0
M  V30 40257 C 3856.4 -3.63467 -0.978214 0
M  V30 40258 C 3855.55 -2.77269 -0.0413299 0
M  V30 40259 H 3858.5 -1.52339 0.444818 0
M  V30 40260 H 3858.52 -3.54901 -1.37206 0
M  V30 40261 H 3858.03 -3.8575 0.426416 0
M  V30 40262 H 3856.14 -3.17864 -1.94405 0
M  V30 40263 H 3856.25 -4.71453 -0.852569 0
M  V30 40264 H 3854.61 -2.48732 -0.548135 0
M  V30 40265 H 3855.4 -3.31127 0.906074 0
M  V30 40266 N 3857.84 0.0517601 -1.57515 0
M  V30 40267 C 3858.77 1.08645 -2.01814 0
M  V30 40268 C 3859.79 1.33816 -0.927213 0
M  V30 40269 O 3860.97 1.31703 -1.20485 0
M  V30 40270 C 3858.07 2.43312 -2.35908 0
M  V30 40271 C 3857.25 2.37818 -3.67099 0
M  V30 40272 C 3856.31 3.54751 -3.88636 0
M  V30 40273 O 3855.33 3.35272 -4.5998 0
M  V30 40274 N 3856.53 4.75823 -3.32525 0
M  V30 40275 H 3859.3 0.709043 -2.91192 0
M  V30 40276 H 3856.86 0.240097 -1.6011 0
M  V30 40277 H 3858.85 3.20218 -2.47472 0
M  V30 40278 H 3857.42 2.7298 -1.52317 0
M  V30 40279 H 3856.64 1.46161 -3.66102 0
M  V30 40280 H 3857.93 2.31267 -4.53203 0
M  V30 40281 H 3857.33 4.94552 -2.74654 0
M  V30 40282 H 3855.89 5.50172 -3.49506 0
M  V30 40283 N 3859.32 1.54242 0.323587 0
M  V30 40284 C 3860.27 1.83625 1.39823 0
M  V30 40285 C 3861.24 0.683357 1.51392 0
M  V30 40286 O 3862.42 0.929783 1.66612 0
M  V30 40287 C 3859.56 2.06923 2.76183 0
M  V30 40288 C 3858.67 3.34606 2.73245 0
M  V30 40289 C 3857.81 3.47864 4.01452 0
M  V30 40290 C 3856.85 4.69422 3.92822 0
M  V30 40291 N 3855.99 4.79607 5.12759 0
M  V30 40292 H 3860.83 2.75305 1.14065 0
M  V30 40293 H 3858.36 1.36344 0.552164 0
M  V30 40294 H 3860.32 2.18422 3.55454 0
M  V30 40295 H 3858.95 1.18534 3.00249 0
M  V30 40296 H 3858 3.31845 1.85966 0
M  V30 40297 H 3859.31 4.23985 2.62751 0
M  V30 40298 H 3858.47 3.58905 4.89154 0
M  V30 40299 H 3857.21 2.56577 4.14752 0
M  V30 40300 H 3856.21 4.58438 3.03504 0
M  V30 40301 H 3857.44 5.62094 3.81087 0
M  V30 40302 H 3855.38 3.91236 5.26565 0
M  V30 40303 H 3855.3 5.62952 5.046 0
M  V30 40304 H 3856.57 4.9498 6.02175 0
M  V30 40305 N 3860.8 -0.585648 1.46314 0
M  V30 40306 C 3861.73 -1.70938 1.52686 0
M  V30 40307 C 3862.74 -1.57409 0.415475 0
M  V30 40308 O 3863.93 -1.64888 0.683686 0
M  V30 40309 C 3861.03 -3.0916 1.38827 0
M  V30 40310 C 3860.2 -3.4872 2.64033 0
M  V30 40311 C 3859.26 -4.65991 2.44415 0
M  V30 40312 O 3858.29 -4.72 3.18127 0
M  V30 40313 N 3859.49 -5.60681 1.50391 0
M  V30 40314 H 3862.26 -1.65928 2.49576 0
M  V30 40315 H 3859.82 -0.771548 1.42333 0
M  V30 40316 H 3861.81 -3.85402 1.2348 0
M  V30 40317 H 3860.38 -3.08554 0.501301 0
M  V30 40318 H 3859.6 -2.62214 2.94342 0
M  V30 40319 H 3860.89 -3.71915 3.47212 0
M  V30 40320 H 3860.29 -5.58559 0.896015 0
M  V30 40321 H 3858.84 -6.36365 1.41008 0
M  V30 40322 N 3862.28 -1.33971 -0.830033 0
M  V30 40323 C 3863.21 -1.27596 -1.95555 0
M  V30 40324 C 3864.19 -0.154775 -1.69394 0
M  V30 40325 O 3865.37 -0.345988 -1.91093 0
M  V30 40326 C 3862.5 -1.02341 -3.31879 0
M  V30 40327 C 3861.46 -2.10848 -3.72461 0
M  V30 40328 C 3860.78 -1.70794 -5.06689 0
M  V30 40329 C 3862.08 -3.52611 -3.85309 0
M  V30 40330 H 3863.78 -2.21767 -2.01147 0
M  V30 40331 H 3861.32 -1.06758 -0.966371 0
M  V30 40332 H 3863.27 -0.965278 -4.10195 0
M  V30 40333 H 3862 -0.0461036 -3.26567 0
M  V30 40334 H 3860.66 -2.15719 -2.96414 0
M  V30 40335 H 3860.31 -0.717422 -4.97857 0
M  V30 40336 H 3860.01 -2.43412 -5.34812 0
M  V30 40337 H 3861.53 -1.66463 -5.87471 0
M  V30 40338 H 3862.94 -3.50193 -4.53914 0
M  V30 40339 H 3861.34 -4.23791 -4.24878 0
M  V30 40340 H 3862.41 -3.90471 -2.87507 0
M  V30 40341 N 3863.75 1.04937 -1.17584 0
M  V30 40342 C 3864.66 2.16247 -0.909626 0
M  V30 40343 C 3865.68 1.73564 0.123136 0
M  V30 40344 O 3866.86 2.0132 -0.0567329 0
M  V30 40345 C 3863.92 3.44031 -0.429402 0
M  V30 40346 C 3862.98 4.01146 -1.52907 0
M  V30 40347 C 3862.21 5.2283 -1.07166 0
M  V30 40348 O 3862.44 5.70353 0.0731631 0
M  V30 40349 O 3861.37 5.72252 -1.86578 0
M  V30 40350 H 3865.2 2.41555 -1.84079 0
M  V30 40351 H 3862.78 1.14731 -0.956934 0
M  V30 40352 H 3864.66 4.2106 -0.169244 0
M  V30 40353 H 3863.34 3.20217 0.473573 0
M  V30 40354 H 3862.25 3.25545 -1.84314 0
M  V30 40355 H 3863.58 4.29283 -2.40785 0
M  V30 40356 N 3865.23 0.976485 1.23703 0
M  V30 40357 C 3866.48 0.641931 1.91634 0
M  V30 40358 C 3866.8 -0.826647 1.76611 0
M  V30 40359 O 3866.07 -1.59094 1.14307 0
M  V30 40360 H 3864.65 0.234435 0.70926 0
M  V30 40361 H 3867.31 1.23945 1.50411 0
M  V30 40362 H 3866.41 0.890152 2.99137 0
M  V30 40363 N 3866.71 -1.38737 0.747659 0
M  V30 40364 C 3867.99 -1.94279 0.226942 0
M  V30 40365 C 3868.37 -1.68345 -1.2737 0
M  V30 40366 O 3867.71 -1.01868 -2.04536 0
M  V30 40367 C 3867.92 -3.44244 0.574224 0
M  V30 40368 C 3869.27 -4.21272 0.530572 0
M  V30 40369 O 3870.3 -3.52499 0.512164 0
M  V30 40370 O 3869.16 -5.43863 0.536267 0
M  V30 40371 H 3866.25 -0.825736 0.045698 0
M  V30 40372 H 3868.8 -1.48164 0.827379 0
M  V30 40373 H 3867.57 -3.56605 1.61086 0
M  V30 40374 H 3867.19 -3.97563 -0.0545265 0
M  V30 40375 N 3868.19 -0.496268 -1.49583 0
M  V30 40376 C 3869.43 0.0483525 -2.04343 0
M  V30 40377 C 3869.79 1.3471 -1.36811 0
M  V30 40378 O 3870.99 1.97566 -1.82266 0
M  V30 40379 C 3869.26 0.202387 -3.56827 0
M  V30 40380 S 3870.82 0.701939 -4.33149 0
M  V30 40381 H 3867.64 0.00402282 -0.710989 0
M  V30 40382 H 3870.24 -0.669157 -1.83691 0
M  V30 40383 H 3868.95 -0.748227 -4.03522 0
M  V30 40384 H 3868.48 0.945276 -3.81874 0
M  V30 40385 H 3870.49 1.97179 -4.5534 0
M  V30 40386 N 3869.67 1.55914 -0.2299 0
M  V30 40387 C 3870.91 2.00422 0.401275 0
M  V30 40388 C 3871.27 1.11433 1.56354 0
M  V30 40389 O 3872.47 1.45323 2.2613 0
M  V30 40390 C 3870.74 3.47939 0.816885 0
M  V30 40391 S 3872.3 4.14465 1.44099 0
M  V30 40392 H 3869.12 0.699564 0.127011 0
M  V30 40393 H 3871.72 1.925 -0.341148 0
M  V30 40394 H 3870.42 4.10382 -0.0385701 0
M  V30 40395 H 3869.96 3.59752 1.59191 0
M  V30 40396 H 3871.97 4.14344 2.73008 0
M  V30 40397 N 3871.14 -0.043406 1.5754 0
M  V30 40398 C 3872.37 -0.752978 1.93249 0
M  V30 40399 C 3872.79 -1.68859 0.828742 0
M  V30 40400 O 3872.15 -1.80002 -0.216586 0
M  V30 40401 C 3872.2 -1.49847 3.27991 0
M  V30 40402 O 3871.3 -2.61088 3.19228 0
M  V30 40403 H 3870.64 -0.203536 0.632036 0
M  V30 40404 H 3873.17 -0.00316179 2.046 0
M  V30 40405 H 3873.18 -1.87155 3.62543 0
M  V30 40406 H 3871.86 -0.812179 4.07893 0
M  V30 40407 H 3870.44 -2.26429 2.96284 0
M  V30 40408 N 3872.62 -1.54412 -0.315402 0
M  V30 40409 C 3873.87 -1.73007 -1.05237 0
M  V30 40410 C 3874.2 -0.508113 -1.87746 0
M  V30 40411 O 3873.45 0.510087 -1.88935 0
M  V30 40412 C 3873.75 -2.96283 -1.99878 0
M  V30 40413 C 3873.42 -4.30696 -1.33461 0
M  V30 40414 C 3872.08 -4.67237 -1.15078 0
M  V30 40415 C 3874.43 -5.14079 -0.858597 0
M  V30 40416 C 3871.76 -5.84753 -0.477567 0
M  V30 40417 C 3874.11 -6.32286 -0.199167 0
M  V30 40418 C 3872.77 -6.675 -0.00326426 0
M  V30 40419 H 3872.04 -0.633077 -0.385091 0
M  V30 40420 H 3874.69 -1.88658 -0.328681 0
M  V30 40421 H 3873 -2.75352 -2.78727 0
M  V30 40422 H 3874.69 -3.07864 -2.56945 0
M  V30 40423 H 3871.28 -4.01951 -1.48772 0
M  V30 40424 H 3875.47 -4.86359 -0.988374 0
M  V30 40425 H 3870.72 -6.1059 -0.314665 0
M  V30 40426 H 3874.9 -6.96173 0.177639 0
M  V30 40427 H 3872.52 -7.58417 0.520413 0
M  V30 40428 N 3874.1 0.57788 -1.46623 0
M  V30 40429 C 3875.35 1.33215 -1.51449 0
M  V30 40430 C 3875.66 1.94837 -0.172614 0
M  V30 40431 O 3876.87 2.71321 -0.0987055 0
M  V30 40432 C 3875.32 2.4146 -2.6688 0
M  V30 40433 C 3874.93 1.8612 -4.07509 0
M  V30 40434 C 3876.68 3.18198 -2.80981 0
M  V30 40435 C 3874.58 2.92022 -5.14273 0
M  V30 40436 H 3873.51 0.500812 -0.563652 0
M  V30 40437 H 3876.16 0.616155 -1.72846 0
M  V30 40438 H 3874.55 3.1588 -2.38822 0
M  V30 40439 H 3875.72 1.1821 -4.4538 0
M  V30 40440 H 3874.04 1.22033 -3.98117 0
M  V30 40441 H 3876.63 3.97243 -3.57913 0
M  V30 40442 H 3876.98 3.71091 -1.88672 0
M  V30 40443 H 3877.51 2.50886 -3.08709 0
M  V30 40444 H 3874.25 2.4401 -6.08391 0
M  V30 40445 H 3873.77 3.58406 -4.80942 0
M  V30 40446 H 3875.45 3.55887 -5.40327 0
M  V30 40447 N 3875.58 1.34409 0.822917 0
M  V30 40448 C 3876.81 1.29843 1.61085 0
M  V30 40449 C 3877.22 -0.127494 1.88369 0
M  V30 40450 O 3876.58 -1.07457 1.4751 0
M  V30 40451 C 3876.63 2.08694 2.95176 0
M  V30 40452 O 3876.35 3.45726 2.69083 0
M  V30 40453 C 3877.85 2.11525 3.89579 0
M  V30 40454 H 3875.07 0.446679 0.500718 0
M  V30 40455 H 3877.62 1.77023 1.02388 0
M  V30 40456 H 3875.77 1.65156 3.50431 0
M  V30 40457 H 3876.18 3.86485 3.54583 0
M  V30 40458 H 3877.66 2.7112 4.80831 0
M  V30 40459 H 3878.14 1.10965 4.24951 0
M  V30 40460 H 3878.74 2.55152 3.40261 0
M  V30 40461 N 3877.06 -1.04312 1.18139 0
M  V30 40462 C 3877.99 -2.12295 0.863917 0
M  V30 40463 C 3879 -1.62219 -0.137441 0
M  V30 40464 O 3880.19 -1.78273 0.0900619 0
M  V30 40465 C 3877.29 -3.3783 0.269062 0
M  V30 40466 C 3876.46 -4.1715 1.31547 0
M  V30 40467 C 3875.52 -5.21017 0.736757 0
M  V30 40468 O 3874.55 -5.51438 1.41085 0
M  V30 40469 N 3875.75 -5.78619 -0.466935 0
M  V30 40470 H 3878.52 -2.40124 1.79334 0
M  V30 40471 H 3876.08 -1.20484 1.08144 0
M  V30 40472 H 3878.07 -4.04486 -0.1316 0
M  V30 40473 H 3876.64 -3.07464 -0.564332 0
M  V30 40474 H 3875.86 -3.45853 1.89154 0
M  V30 40475 H 3877.15 -4.6694 2.02101 0
M  V30 40476 H 3876.54 -5.562 -1.03238 0
M  V30 40477 H 3875.1 -6.46753 -0.80955 0
M  V30 40478 N 3878.53 -0.983032 -1.23184 0
M  V30 40479 C 3879.46 -0.544898 -2.27053 0
M  V30 40480 C 3880.45 0.423252 -1.6475 0
M  V30 40481 O 3881.63 0.316042 -1.91611 0
M  V30 40482 C 3878.76 0.150915 -3.46972 0
M  V30 40483 C 3877.71 -0.734781 -4.21646 0
M  V30 40484 C 3877.04 0.0933934 -5.34618 0
M  V30 40485 C 3878.34 -2.02687 -4.81368 0
M  V30 40486 H 3880.03 -1.4131 -2.63954 0
M  V30 40487 H 3877.58 -0.680917 -1.26884 0
M  V30 40488 H 3879.53 0.468751 -4.18785 0
M  V30 40489 H 3878.26 1.05359 -3.09139 0
M  V30 40490 H 3876.92 -1.03611 -3.51654 0
M  V30 40491 H 3876.56 0.996681 -4.93027 0
M  V30 40492 H 3876.26 -0.496122 -5.85502 0
M  V30 40493 H 3877.79 0.405551 -6.09252 0
M  V30 40494 H 3879.2 -1.77363 -5.45175 0
M  V30 40495 H 3877.6 -2.56438 -5.42549 0
M  V30 40496 H 3878.67 -2.71201 -4.01968 0
M  V30 40497 N 3880.01 1.38338 -0.755006 0
M  V30 40498 C 3881.26 2.00382 -0.312259 0
M  V30 40499 C 3881.59 1.59795 1.1036 0
M  V30 40500 O 3880.87 0.836161 1.75609 0
M  V30 40501 C 3881.15 3.57441 -0.436764 0
M  V30 40502 C 3881 4.07988 -1.89383 0
M  V30 40503 C 3882.32 4.39775 0.169006 0
M  V30 40504 H 3879.44 0.727983 -0.114935 0
M  V30 40505 H 3882.08 1.6426 -0.954916 0
M  V30 40506 H 3880.23 3.88343 0.110362 0
M  V30 40507 H 3881.9 3.87723 -2.49937 0
M  V30 40508 H 3880.15 3.60802 -2.40841 0
M  V30 40509 H 3880.82 5.17082 -1.93209 0
M  V30 40510 H 3883.29 4.15034 -0.297627 0
M  V30 40511 H 3882.17 5.48876 0.0516566 0
M  V30 40512 H 3882.43 4.2384 1.25746 0
M  V30 40513 N 3881.49 0.504194 1.49317 0
M  V30 40514 C 3882.44 -0.286196 2.30833 0
M  V30 40515 C 3883.43 -0.959794 1.39586 0
M  V30 40516 O 3884.64 -0.887118 1.56621 0
M  V30 40517 H 3881.01 -0.111154 0.74374 0
M  V30 40518 H 3882.98 0.421258 2.95412 0
M  V30 40519 C 3881.73 -1.33591 3.21012 0
M  V30 40520 H 3881.06 -0.826988 3.91153 0
M  V30 40521 H 3882.5 -1.86086 3.80983 0
M  V30 40522 C 3880.96 -2.35579 2.40841 0
M  V30 40523 O 3881.49 -3.41523 2.11482 0
M  V30 40524 N 3879.69 -2.0813 2.02806 0
M  V30 40525 H 3879.24 -1.21995 2.26881 0
M  V30 40526 H 3879.2 -2.76596 1.49472 0
M  V30 40527 N 3882.97 -1.5579 0.238166 0
M  V30 40528 C 3883.92 -2.17661 -0.678791 0
M  V30 40529 C 3884.9 -1.12986 -1.14556 0
M  V30 40530 O 3886.09 -1.38923 -1.09678 0
M  V30 40531 C 3883.22 -2.8729 -1.87935 0
M  V30 40532 C 3882.31 -3.99211 -1.43149 0
M  V30 40533 N 3882.7 -5.00971 -0.697286 0
M  V30 40534 C 3881 -4.11605 -1.71747 0
M  V30 40535 C 3881.7 -5.79826 -0.466594 0
M  V30 40536 N 3880.68 -5.33787 -1.02823 0
M  V30 40537 H 3884.48 -2.93696 -0.109595 0
M  V30 40538 H 3881.99 -1.6235 0.0401113 0
M  V30 40539 H 3883.99 -3.30037 -2.54718 0
M  V30 40540 H 3882.65 -2.12756 -2.45286 0
M  V30 40541 H 3883.66 -5.16728 -0.348275 0
M  V30 40542 H 3880.34 -3.48236 -2.30299 0
M  V30 40543 H 3881.73 -6.71795 0.118931 0
M  V30 40544 N 3884.45 0.0350506 -1.57561 0
M  V30 40545 C 3885.69 0.727062 -1.88998 0
M  V30 40546 C 3886.02 1.75679 -0.834702 0
M  V30 40547 O 3885.28 1.95003 0.165064 0
M  V30 40548 C 3885.58 1.43852 -3.27172 0
M  V30 40549 C 3885.24 0.545342 -4.4759 0
M  V30 40550 C 3883.9 0.299316 -4.80268 0
M  V30 40551 C 3886.26 -0.071704 -5.21151 0
M  V30 40552 C 3883.58 -0.572633 -5.83899 0
M  V30 40553 C 3885.94 -0.931319 -6.25707 0
M  V30 40554 C 3884.6 -1.18686 -6.56864 0
M  V30 40555 H 3883.87 0.266051 -0.691591 0
M  V30 40556 H 3886.52 -0.0129413 -1.91496 0
M  V30 40557 H 3884.82 2.25169 -3.20634 0
M  V30 40558 H 3886.52 1.9794 -3.48742 0
M  V30 40559 H 3883.11 0.747249 -4.22036 0
M  V30 40560 H 3887.29 0.105417 -4.96188 0
M  V30 40561 H 3882.55 -0.778989 -6.06417 0
M  V30 40562 H 3886.72 -1.41599 -6.81852 0
M  V30 40563 H 3884.35 -1.86425 -7.36987 0
M  V30 40564 N 3885.92 1.54577 0.307209 0
M  V30 40565 C 3887.17 1.74752 1.04084 0
M  V30 40566 C 3887.53 0.523587 1.85139 0
M  V30 40567 O 3886.82 -0.484024 1.85385 0
M  V30 40568 C 3887.01 2.97338 1.98304 0
M  V30 40569 C 3886.84 4.31536 1.26517 0
M  V30 40570 C 3885.61 4.95409 0.99489 0
M  V30 40571 C 3887.81 5.09881 0.672755 0
M  V30 40572 N 3885.79 6.13404 0.246634 0
M  V30 40573 C 3887.16 6.19974 0.0569509 0
M  V30 40574 C 3889.22 4.94543 0.577188 0
M  V30 40575 C 3887.92 7.16401 -0.645166 0
M  V30 40576 C 3889.95 5.91295 -0.111261 0
M  V30 40577 C 3889.31 7.00752 -0.715941 0
M  V30 40578 H 3885.41 0.692112 0.364012 0
M  V30 40579 H 3887.99 1.9205 0.320156 0
M  V30 40580 H 3886.16 2.81477 2.67629 0
M  V30 40581 H 3887.89 3.06067 2.64774 0
M  V30 40582 H 3884.65 4.55652 1.29145 0
M  V30 40583 H 3885.07 6.76904 -0.113827 0
M  V30 40584 H 3889.72 4.10052 1.03039 0
M  V30 40585 H 3887.43 8.00438 -1.11015 0
M  V30 40586 H 3891.02 5.81506 -0.185064 0
M  V30 40587 H 3889.9 7.74331 -1.24019 0
M  V30 40588 N 3887.4 -0.570096 1.46927 0
M  V30 40589 C 3888.35 -1.67821 1.58445 0
M  V30 40590 C 3889.32 -1.60489 0.428081 0
M  V30 40591 O 3890.5 -1.79514 0.646477 0
M  V30 40592 C 3887.64 -3.06155 1.59258 0
M  V30 40593 C 3886.76 -3.24019 2.85719 0
M  V30 40594 C 3885.89 -4.52676 2.77953 0
M  V30 40595 C 3884.93 -4.63927 3.99297 0
M  V30 40596 N 3884.07 -5.83924 3.89843 0
M  V30 40597 H 3888.91 -1.57315 2.53093 0
M  V30 40598 H 3886.45 -0.766526 1.2555 0
M  V30 40599 H 3888.4 -3.86241 1.57714 0
M  V30 40600 H 3887.03 -3.15528 0.681326 0
M  V30 40601 H 3886.09 -2.37452 2.97188 0
M  V30 40602 H 3887.4 -3.28199 3.75615 0
M  V30 40603 H 3886.55 -5.41006 2.74586 0
M  V30 40604 H 3885.29 -4.50954 1.85719 0
M  V30 40605 H 3884.3 -3.74012 4.02983 0
M  V30 40606 H 3885.52 -4.67418 4.92643 0
M  V30 40607 H 3883.47 -5.83176 3.00403 0
M  V30 40608 H 3883.38 -5.89426 4.73406 0
M  V30 40609 H 3884.65 -6.7465 3.90471 0
M  V30 40610 N 3888.88 -1.34844 -0.815777 0
M  V30 40611 C 3889.81 -1.29662 -1.9419 0
M  V30 40612 C 3890.79 -0.172733 -1.69221 0
M  V30 40613 O 3891.98 -0.366236 -1.90715 0
M  V30 40614 C 3889.11 -1.05855 -3.30775 0
M  V30 40615 C 3888.06 -2.14787 -3.70203 0
M  V30 40616 C 3887.39 -1.76158 -5.04849 0
M  V30 40617 C 3888.69 -3.56678 -3.81547 0
M  V30 40618 H 3890.38 -2.23888 -1.98783 0
M  V30 40619 H 3887.93 -1.07777 -0.954994 0
M  V30 40620 H 3889.88 -1.00873 -4.09149 0
M  V30 40621 H 3888.6 -0.0807378 -3.265 0
M  V30 40622 H 3887.26 -2.1885 -2.94109 0
M  V30 40623 H 3886.91 -0.770186 -4.97069 0
M  V30 40624 H 3886.61 -2.49071 -5.32201 0
M  V30 40625 H 3888.14 -1.72684 -5.85673 0
M  V30 40626 H 3889.55 -3.54987 -4.50174 0
M  V30 40627 H 3887.95 -4.28273 -4.20359 0
M  V30 40628 H 3889.02 -3.93499 -2.83349 0
M  V30 40629 N 3890.36 1.03684 -1.1869 0
M  V30 40630 C 3891.31 2.1011 -0.88531 0
M  V30 40631 C 3892.29 1.60231 0.14657 0
M  V30 40632 O 3893.49 1.76905 -0.0580094 0
M  V30 40633 C 3890.61 3.40758 -0.417037 0
M  V30 40634 C 3889.7 3.97393 -1.4812 0
M  V30 40635 N 3890.09 4.27793 -2.69864 0
M  V30 40636 C 3888.39 4.25311 -1.34262 0
M  V30 40637 C 3889.09 4.73169 -3.38357 0
M  V30 40638 N 3888.07 4.74217 -2.65743 0
M  V30 40639 H 3891.87 2.31496 -1.81071 0
M  V30 40640 H 3889.38 1.21472 -1.07788 0
M  V30 40641 H 3891.38 4.16501 -0.182459 0
M  V30 40642 H 3890.04 3.20796 0.501979 0
M  V30 40643 H 3891.05 4.17321 -3.06698 0
M  V30 40644 H 3887.73 4.14656 -0.486447 0
M  V30 40645 H 3889.12 5.05679 -4.42424 0
M  V30 40646 N 3891.84 0.989551 1.22661 0
M  V30 40647 C 3892.8 0.542222 2.22694 0
M  V30 40648 C 3893.8 -0.373104 1.56412 0
M  V30 40649 O 3894.99 -0.165526 1.73412 0
M  V30 40650 C 3892.12 -0.211781 3.40242 0
M  V30 40651 H 3893.32 1.42683 2.63783 0
M  V30 40652 H 3890.87 0.776401 1.35653 0
M  V30 40653 H 3891.6 -1.11252 3.0462 0
M  V30 40654 H 3891.39 0.445387 3.89562 0
M  V30 40655 H 3892.88 -0.513034 4.14437 0
M  V30 40656 N 3893.32 -1.37936 0.762332 0
M  V30 40657 C 3894.54 -2.04721 0.332253 0
M  V30 40658 C 3894.97 -1.57121 -1.03415 0
M  V30 40659 O 3894.32 -0.727146 -1.66079 0
M  V30 40660 C 3894.37 -3.58656 0.373962 0
M  V30 40661 O 3893.48 -4.07576 -0.628953 0
M  V30 40662 H 3892.82 -0.647866 0.145483 0
M  V30 40663 H 3895.35 -1.76438 1.0359 0
M  V30 40664 H 3895.36 -4.07363 0.227921 0
M  V30 40665 H 3894.03 -3.92658 1.37085 0
M  V30 40666 H 3892.61 -3.70214 -0.446806 0
M  V30 40667 N 3894.79 -0.512106 -1.49048 0
M  V30 40668 C 3895.74 0.260367 -2.29327 0
M  V30 40669 C 3896.71 0.950241 -1.36234 0
M  V30 40670 O 3897.9 0.954748 -1.65194 0
M  V30 40671 C 3895.04 1.31219 -3.19179 0
M  V30 40672 C 3894.15 0.632975 -4.27338 0
M  V30 40673 C 3893.28 1.66619 -5.04392 0
M  V30 40674 C 3892.32 0.969455 -6.04374 0
M  V30 40675 N 3891.46 1.94739 -6.74553 0
M  V30 40676 H 3896.3 -0.430436 -2.94875 0
M  V30 40677 H 3893.84 -0.224111 -1.45383 0
M  V30 40678 H 3895.79 1.93413 -3.69658 0
M  V30 40679 H 3894.42 1.97161 -2.55592 0
M  V30 40680 H 3893.48 -0.1025 -3.80262 0
M  V30 40681 H 3894.79 0.0850486 -4.98727 0
M  V30 40682 H 3893.94 2.36289 -5.58796 0
M  V30 40683 H 3892.68 2.24799 -4.32801 0
M  V30 40684 H 3891.69 0.258594 -5.49192 0
M  V30 40685 H 3892.91 0.394006 -6.77956 0
M  V30 40686 H 3890.86 2.5186 -6.05725 0
M  V30 40687 H 3890.77 1.45042 -7.41956 0
M  V30 40688 H 3892.04 2.63662 -7.33555 0
M  V30 40689 N 3896.27 1.55662 -0.246424 0
M  V30 40690 C 3897.68 1.84925 0.25682 0
M  V30 40691 C 3898.03 1.16823 1.57628 0
M  V30 40692 O 3897.16 0.446452 2.11745 0
M  V30 40693 C 3897.75 3.35485 0.472756 0
M  V30 40694 C 3896.31 3.64977 0.920266 0
M  V30 40695 C 3895.46 2.773 -0.00278646 0
M  V30 40696 H 3898.41 1.51612 -0.468998 0
M  V30 40697 H 3898.43 3.57039 1.31543 0
M  V30 40698 H 3897.94 3.85023 -0.487732 0
M  V30 40699 H 3896.04 3.20916 1.89324 0
M  V30 40700 H 3896.16 4.7275 0.777457 0
M  V30 40701 H 3894.52 2.49572 0.508495 0
M  V30 40702 H 3895.3 3.29644 -0.958639 0
M  V30 40703 N 3897.75 -0.0266943 1.57577 0
M  V30 40704 C 3898.7 -1.02657 2.06713 0
M  V30 40705 C 3899.67 -1.35775 0.956778 0
M  V30 40706 O 3900.85 -1.46072 1.2275 0
M  V30 40707 C 3897.99 -2.32171 2.55325 0
M  V30 40708 C 3897.1 -2.0519 3.80159 0
M  V30 40709 C 3896.24 -3.28592 4.17374 0
M  V30 40710 C 3895.28 -2.97177 5.35119 0
M  V30 40711 N 3894.42 -4.13036 5.67755 0
M  V30 40712 H 3899.26 -0.600615 2.91885 0
M  V30 40713 H 3896.79 -0.284942 1.44314 0
M  V30 40714 H 3898.75 -3.07848 2.81577 0
M  V30 40715 H 3897.38 -2.72485 1.73066 0
M  V30 40716 H 3896.43 -1.2 3.60977 0
M  V30 40717 H 3897.74 -1.78018 4.65952 0
M  V30 40718 H 3896.9 -4.12634 4.44767 0
M  V30 40719 H 3895.64 -3.5888 3.30237 0
M  V30 40720 H 3894.64 -2.11536 5.07476 0
M  V30 40721 H 3895.87 -2.68164 6.23911 0
M  V30 40722 H 3893.81 -4.43271 4.83577 0
M  V30 40723 H 3893.73 -3.89295 6.48063 0
M  V30 40724 H 3895 -4.97945 5.99725 0
M  V30 40725 N 3899.23 -1.54738 -0.299007 0
M  V30 40726 C 3900.18 -1.86584 -1.38886 0
M  V30 40727 C 3901.17 -0.73975 -1.52394 0
M  V30 40728 O 3902.38 -0.923767 -1.54488 0
M  V30 40729 H 3898.75 -0.591816 -0.463959 0
M  V30 40730 H 3900.72 -2.77676 -1.09263 0
M  V30 40731 C 3899.47 -2.13157 -2.74699 0
M  V30 40732 H 3898.79 -2.99281 -2.65086 0
M  V30 40733 H 3900.23 -2.39378 -3.49963 0
M  V30 40734 C 3898.69 -0.930763 -3.23788 0
M  V30 40735 O 3899.22 -0.152263 -4.01411 0
M  V30 40736 N 3897.43 -0.735595 -2.81136 0
M  V30 40737 H 3896.98 -1.37033 -2.18128 0
M  V30 40738 H 3896.93 0.06629 -3.1433 0
M  V30 40739 N 3900.71 0.562296 -1.47228 0
M  V30 40740 C 3901.67 1.65187 -1.5889 0
M  V30 40741 C 3902.67 1.53948 -0.464386 0
M  V30 40742 O 3903.86 1.58198 -0.729307 0
M  V30 40743 C 3900.99 3.04708 -1.52858 0
M  V30 40744 H 3902.18 1.56198 -2.56012 0
M  V30 40745 H 3899.74 0.781808 -1.35342 0
M  V30 40746 H 3900.47 3.19235 -0.570923 0
M  V30 40747 H 3900.26 3.14274 -2.34465 0
M  V30 40748 H 3901.75 3.83986 -1.64147 0
M  V30 40749 N 3902.18 1.35274 0.808615 0
M  V30 40750 C 3903.43 1.28434 1.5656 0
M  V30 40751 C 3903.76 -0.141808 1.93982 0
M  V30 40752 O 3903.01 -1.10658 1.61411 0
M  V30 40753 C 3903.31 2.13445 2.86663 0
M  V30 40754 C 3902.98 3.62265 2.68468 0
M  V30 40755 C 3901.64 4.0283 2.63214 0
M  V30 40756 C 3903.99 4.56702 2.51143 0
M  V30 40757 C 3901.32 5.36003 2.38574 0
M  V30 40758 C 3903.67 5.90071 2.28032 0
M  V30 40759 C 3902.34 6.29784 2.21199 0
M  V30 40760 H 3901.61 0.469973 0.572893 0
M  V30 40761 H 3904.25 1.67152 0.934475 0
M  V30 40762 H 3902.56 1.67601 3.54143 0
M  V30 40763 H 3904.26 2.05489 3.44347 0
M  V30 40764 H 3900.85 3.30073 2.73404 0
M  V30 40765 H 3905.03 4.26249 2.54216 0
M  V30 40766 H 3900.29 5.65775 2.31751 0
M  V30 40767 H 3904.46 6.62828 2.13616 0
M  V30 40768 H 3902.09 7.32908 2.01868 0
M  V30 40769 N 3903.66 -1.03053 1.19239 0
M  V30 40770 C 3904.59 -2.13198 0.952297 0
M  V30 40771 C 3905.57 -1.69719 -0.113741 0
M  V30 40772 O 3906.76 -1.94157 0.0409398 0
M  V30 40773 C 3903.89 -3.43849 0.488357 0
M  V30 40774 C 3902.84 -4.01002 1.49604 0
M  V30 40775 C 3902.17 -5.27254 0.889241 0
M  V30 40776 C 3903.47 -4.36 2.87578 0
M  V30 40777 H 3905.16 -2.33541 1.87347 0
M  V30 40778 H 3902.71 -1.12234 0.902192 0
M  V30 40779 H 3904.66 -4.20275 0.307697 0
M  V30 40780 H 3903.39 -3.23224 -0.468413 0
M  V30 40781 H 3902.04 -3.26669 1.66382 0
M  V30 40782 H 3901.69 -5.02944 -0.0750307 0
M  V30 40783 H 3901.39 -5.66455 1.56212 0
M  V30 40784 H 3902.92 -6.06348 0.719339 0
M  V30 40785 H 3904.33 -5.0337 2.74393 0
M  V30 40786 H 3902.73 -4.86278 3.51644 0
M  V30 40787 H 3903.8 -3.45375 3.40359 0
M  V30 40788 N 3905.14 -0.996042 -1.22134 0
M  V30 40789 C 3906.1 -0.554025 -2.22403 0
M  V30 40790 C 3907.1 0.364804 -1.56607 0
M  V30 40791 O 3908.29 0.156327 -1.73497 0
M  V30 40792 C 3905.43 0.193734 -3.40349 0
M  V30 40793 H 3906.62 -1.44079 -2.63023 0
M  V30 40794 H 3904.17 -0.783584 -1.35239 0
M  V30 40795 H 3904.91 1.09635 -3.05206 0
M  V30 40796 H 3904.69 -0.46604 -3.89321 0
M  V30 40797 H 3906.18 0.491048 -4.14703 0
M  V30 40798 N 3906.62 1.37529 -0.769636 0
M  V30 40799 C 3908.03 1.82394 -0.398676 0
M  V30 40800 C 3908.38 1.64135 1.0749 0
M  V30 40801 O 3907.51 1.1513 1.83232 0
M  V30 40802 C 3908.1 3.31129 -0.716847 0
M  V30 40803 C 3906.66 3.7428 -0.398969 0
M  V30 40804 C 3905.81 2.60087 -0.961776 0
M  V30 40805 H 3908.76 1.26031 -0.964463 0
M  V30 40806 H 3908.78 3.805 -0.000743762 0
M  V30 40807 H 3908.29 3.44387 -1.78939 0
M  V30 40808 H 3906.39 3.66593 0.666348 0
M  V30 40809 H 3906.5 4.70461 -0.905743 0
M  V30 40810 H 3904.87 2.51756 -0.386147 0
M  V30 40811 H 3905.65 2.76137 -2.03968 0
M  V30 40812 N 3908.1 0.520003 1.48774 0
M  V30 40813 C 3909.06 -0.237365 2.27968 0
M  V30 40814 C 3910.06 -0.876844 1.34789 0
M  V30 40815 O 3911.25 -0.738436 1.57774 0
M  V30 40816 C 3908.38 -1.34242 3.13356 0
M  V30 40817 H 3909.57 0.457805 2.96385 0
M  V30 40818 H 3907.13 0.275596 1.53851 0
M  V30 40819 H 3907.86 -2.07116 2.49547 0
M  V30 40820 H 3907.65 -0.88912 3.81886 0
M  V30 40821 H 3909.14 -1.87541 3.7312 0
M  V30 40822 N 3909.57 -1.55529 0.254676 0
M  V30 40823 C 3910.81 -2.01035 -0.369338 0
M  V30 40824 C 3911.18 -1.13906 -1.54562 0
M  V30 40825 O 3912.38 -1.48902 -2.23789 0
M  V30 40826 C 3910.65 -3.49195 -0.761428 0
M  V30 40827 S 3912.21 -4.16705 -1.37487 0
M  V30 40828 H 3909.03 -0.701496 -0.115866 0
M  V30 40829 H 3911.63 -1.91933 0.37173 0
M  V30 40830 H 3910.33 -4.10269 0.103853 0
M  V30 40831 H 3909.86 -3.62239 -1.53448 0
M  V30 40832 H 3911.88 -4.18635 -2.66382 0
M  V30 40833 N 3911.05 0.0183372 -1.57589 0
M  V30 40834 C 3911.98 1.01488 -2.10291 0
M  V30 40835 C 3912.96 1.37027 -1.00785 0
M  V30 40836 O 3914.15 1.45724 -1.28368 0
M  V30 40837 C 3911.28 2.3125 -2.59115 0
M  V30 40838 C 3910.23 2.09924 -3.72983 0
M  V30 40839 C 3909.56 3.4554 -4.08052 0
M  V30 40840 C 3910.86 1.47668 -5.0099 0
M  V30 40841 H 3912.55 0.576129 -2.93805 0
M  V30 40842 H 3910.1 0.275683 -1.41336 0
M  V30 40843 H 3912.05 3.01304 -2.94608 0
M  V30 40844 H 3910.78 2.77205 -1.72699 0
M  V30 40845 H 3909.43 1.423 -3.37855 0
M  V30 40846 H 3909.08 3.89163 -3.18686 0
M  V30 40847 H 3908.78 3.32092 -4.84756 0
M  V30 40848 H 3910.31 4.16939 -4.46088 0
M  V30 40849 H 3911.72 2.07654 -5.34371 0
M  V30 40850 H 3910.12 1.44764 -5.82377 0
M  V30 40851 H 3911.19 0.443719 -4.82866 0
M  V30 40852 N 3912.53 1.54894 0.290797 0
M  V30 40853 C 3913.94 1.65552 0.863101 0
M  V30 40854 C 3914.29 0.570839 1.87712 0
M  V30 40855 O 3913.42 -0.290788 2.14437 0
M  V30 40856 C 3914.01 3.00109 1.57225 0
M  V30 40857 C 3912.57 3.12854 2.09283 0
M  V30 40858 C 3911.72 2.6128 0.928887 0
M  V30 40859 H 3914.67 1.58556 0.0675528 0
M  V30 40860 H 3914.69 2.92103 2.43836 0
M  V30 40861 H 3914.2 3.79033 0.833988 0
M  V30 40862 H 3912.3 2.3867 2.86125 0
M  V30 40863 H 3912.42 4.19162 2.32035 0
M  V30 40864 H 3910.78 2.17988 1.31732 0
M  V30 40865 H 3911.56 3.42691 0.204414 0
M  V30 40866 N 3914.01 -0.55448 1.47524 0
M  V30 40867 C 3915.26 -1.30894 1.53984 0
M  V30 40868 C 3915.58 -1.9392 0.204904 0
M  V30 40869 O 3914.85 -1.80073 -0.77139 0
M  V30 40870 H 3913.43 -0.486083 0.567215 0
M  V30 40871 H 3916.09 -0.647252 1.83839 0
M  V30 40872 H 3915.19 -2.10105 2.30787 0
M  V30 40873 N 3915.49 -1.35701 -0.80143 0
M  V30 40874 C 3916.42 -1.31715 -1.92804 0
M  V30 40875 C 3917.4 -0.190671 -1.69028 0
M  V30 40876 O 3918.58 -0.386443 -1.90316 0
M  V30 40877 C 3915.71 -1.09358 -3.29633 0
M  V30 40878 C 3914.67 -2.18701 -3.67904 0
M  V30 40879 C 3913.99 -1.81503 -5.02952 0
M  V30 40880 C 3915.29 -3.60705 -3.77743 0
M  V30 40881 H 3916.99 -2.25983 -1.96397 0
M  V30 40882 H 3914.53 -1.08784 -0.943509 0
M  V30 40883 H 3916.49 -1.05207 -4.08056 0
M  V30 40884 H 3915.21 -0.115363 -3.26396 0
M  V30 40885 H 3913.87 -2.21958 -2.91771 0
M  V30 40886 H 3913.52 -0.822864 -4.96224 0
M  V30 40887 H 3913.22 -2.54702 -5.29529 0
M  V30 40888 H 3914.74 -1.78886 -5.83808 0
M  V30 40889 H 3916.15 -3.59742 -4.46384 0
M  V30 40890 H 3914.55 -4.32708 -4.15793 0
M  V30 40891 H 3915.62 -3.96482 -2.7916 0
M  V30 40892 N 3916.96 1.02419 -1.19783 0
M  V30 40893 C 3918.19 1.79512 -1.02874 0
M  V30 40894 C 3918.61 1.84015 0.422355 0
M  V30 40895 O 3917.96 1.28761 1.29333 0
M  V30 40896 C 3918.02 3.24341 -1.5964 0
M  V30 40897 O 3917.74 3.20139 -2.9907 0
M  V30 40898 C 3919.24 4.18014 -1.47578 0
M  V30 40899 H 3916.46 0.564776 -0.362311 0
M  V30 40900 H 3919 1.28971 -1.58703 0
M  V30 40901 H 3917.16 3.72056 -1.07948 0
M  V30 40902 H 3917.57 4.10989 -3.25866 0
M  V30 40903 H 3919.04 5.17507 -1.9207 0
M  V30 40904 H 3919.52 4.37119 -0.427044 0
M  V30 40905 H 3920.13 3.76176 -1.98424 0
M  V30 40906 N 3918.44 1.0025 1.21604 0
M  V30 40907 C 3919.39 0.531863 2.2171 0
M  V30 40908 C 3920.38 -0.405174 1.55715 0
M  V30 40909 O 3921.57 -0.230431 1.75494 0
M  V30 40910 C 3918.7 -0.142626 3.43004 0
M  V30 40911 C 3917.78 0.815282 4.1619 0
M  V30 40912 N 3918.18 1.96708 4.65982 0
M  V30 40913 C 3916.47 0.633147 4.41483 0
M  V30 40914 C 3917.17 2.56911 5.21893 0
M  V30 40915 N 3916.15 1.85093 5.11118 0
M  V30 40916 H 3919.95 1.41017 2.57859 0
M  V30 40917 H 3917.47 0.866004 1.37383 0
M  V30 40918 H 3919.46 -0.497249 4.13924 0
M  V30 40919 H 3918.12 -1.01695 3.08364 0
M  V30 40920 H 3919.13 2.34754 4.61639 0
M  V30 40921 H 3915.81 -0.194308 4.17048 0
M  V30 40922 H 3917.2 3.54306 5.70891 0
M  V30 40923 N 3919.92 -1.37119 0.776919 0
M  V30 40924 C 3921.17 -1.9881 0.340244 0
M  V30 40925 C 3921.48 -1.62368 -1.09068 0
M  V30 40926 O 3922.69 -2.172 -1.629 0
M  V30 40927 C 3921.15 -3.55558 0.557387 0
M  V30 40928 C 3920.75 -4.00933 1.99891 0
M  V30 40929 C 3922.5 -4.24098 0.184594 0
M  V30 40930 C 3920.4 -5.50411 2.16338 0
M  V30 40931 H 3919.33 -0.743821 0.123473 0
M  V30 40932 H 3921.99 -1.56582 0.956781 0
M  V30 40933 H 3920.37 -3.95791 -0.128682 0
M  V30 40934 H 3921.54 -3.71932 2.72036 0
M  V30 40935 H 3919.86 -3.45191 2.32878 0
M  V30 40936 H 3922.45 -5.33935 0.285921 0
M  V30 40937 H 3922.8 -4.07198 -0.865788 0
M  V30 40938 H 3923.33 -3.89185 0.823412 0
M  V30 40939 H 3920.07 -5.72244 3.19713 0
M  V30 40940 H 3919.59 -5.8108 1.48683 0
M  V30 40941 H 3921.27 -6.16455 1.96448 0
M  V30 40942 N 3921.4 -0.527886 -1.48496 0
M  V30 40943 C 3922.31 0.239916 -2.3337 0
M  V30 40944 C 3923.33 0.941075 -1.46355 0
M  V30 40945 O 3924.5 0.9165 -1.79338 0
M  V30 40946 C 3921.57 1.27453 -3.22423 0
M  V30 40947 C 3920.63 0.583942 -4.2531 0
M  V30 40948 C 3919.86 1.56926 -5.10108 0
M  V30 40949 O 3920.08 2.8017 -4.96851 0
M  V30 40950 O 3919.02 1.10981 -5.9158 0
M  V30 40951 H 3922.84 -0.45551 -3.00265 0
M  V30 40952 H 3920.43 -0.288835 -1.46581 0
M  V30 40953 H 3922.31 1.87248 -3.77513 0
M  V30 40954 H 3920.99 1.9524 -2.58192 0
M  V30 40955 H 3919.89 -0.0544486 -3.7406 0
M  V30 40956 H 3921.23 -0.0519511 -4.92173 0
M  V30 40957 N 3922.88 1.55391 -0.26292 0
M  V30 40958 C 3923.84 2.2075 0.616623 0
M  V30 40959 C 3924.84 1.1816 1.09064 0
M  V30 40960 O 3926.03 1.43142 0.992772 0
M  V30 40961 C 3923.16 2.86379 1.84932 0
M  V30 40962 H 3924.36 2.99864 0.0461486 0
M  V30 40963 H 3921.91 1.56294 -0.0134594 0
M  V30 40964 H 3922.64 2.11244 2.46062 0
M  V30 40965 H 3922.43 3.61546 1.51747 0
M  V30 40966 H 3923.92 3.36349 2.47505 0
M  V30 40967 N 3924.36 -0.00997961 1.57597 0
M  V30 40968 C 3925.58 -0.708158 1.94404 0
M  V30 40969 C 3926 -1.67858 0.864234 0
M  V30 40970 O 3925.36 -1.81817 -0.157731 0
M  V30 40971 C 3925.41 -1.4487 3.31202 0
M  V30 40972 O 3925.13 -0.517205 4.35036 0
M  V30 40973 C 3926.63 -2.2423 3.82408 0
M  V30 40974 H 3923.85 -0.197866 0.641163 0
M  V30 40975 H 3926.39 0.0381733 2.04464 0
M  V30 40976 H 3924.55 -2.14675 3.2248 0
M  V30 40977 H 3924.96 -1.03859 5.14114 0
M  V30 40978 H 3926.44 -2.71558 4.80583 0
M  V30 40979 H 3926.91 -3.06477 3.14592 0
M  V30 40980 H 3927.52 -1.59462 3.94274 0
M  V30 40981 N 3925.83 -1.55046 -0.282578 0
M  V30 40982 C 3927.08 -1.7546 -1.01694 0
M  V30 40983 C 3927.41 -0.548841 -1.86283 0
M  V30 40984 O 3926.69 0.453787 -1.89132 0
M  V30 40985 C 3926.97 -3.05426 -1.90754 0
M  V30 40986 C 3926.82 -4.36338 -1.09222 0
M  V30 40987 C 3928.14 -3.3137 -2.89624 0
M  V30 40988 H 3925.26 -0.63838 -0.368294 0
M  V30 40989 H 3927.9 -1.87772 -0.290085 0
M  V30 40990 H 3926.05 -2.9506 -2.52729 0
M  V30 40991 H 3927.73 -4.58648 -0.493915 0
M  V30 40992 H 3925.97 -4.31994 -0.395406 0
M  V30 40993 H 3926.64 -5.23581 -1.74833 0
M  V30 40994 H 3929.12 -3.41466 -2.37782 0
M  V30 40995 H 3927.99 -4.2359 -3.49089 0
M  V30 40996 H 3928.25 -2.50547 -3.64251 0
M  V30 40997 N 3927.31 0.546649 -1.47816 0
M  V30 40998 C 3928.26 1.67378 -1.61516 0
M  V30 40999 C 3929.25 1.62395 -0.482092 0
M  V30 41000 O 3930.46 1.67453 -0.660256 0
M  V30 41001 H 3926.83 0.55402 -0.508494 0
M  V30 41002 H 3928.81 1.52962 -2.56213 0
M  V30 41003 C 3927.55 3.05704 -1.65651 0
M  V30 41004 H 3926.88 3.10225 -2.52192 0
M  V30 41005 H 3928.32 3.84231 -1.79284 0
M  V30 41006 C 3926.78 3.34613 -0.391858 0
M  V30 41007 O 3927.31 3.98545 0.502505 0
M  V30 41008 N 3925.51 2.89356 -0.268644 0
M  V30 41009 H 3925.06 2.37508 -0.997389 0
M  V30 41010 H 3925.02 3.09068 0.576546 0
M  V30 41011 N 3928.79 1.36124 0.794222 0
M  V30 41012 C 3929.75 1.29914 1.88826 0
M  V30 41013 C 3930.75 0.207867 1.59451 0
M  V30 41014 O 3931.94 0.462351 1.67952 0
M  V30 41015 C 3929.07 1.01275 3.25509 0
M  V30 41016 H 3930.27 2.27205 1.95749 0
M  V30 41017 H 3927.82 1.20827 0.991484 0
M  V30 41018 H 3928.56 0.0442105 3.2427 0
M  V30 41019 H 3928.34 1.8024 3.48218 0
M  V30 41020 H 3929.83 0.995214 4.05568 0
M  V30 41021 N 3930.27 -1.01782 1.20325 0
M  V30 41022 C 3931.2 -2.12176 0.974856 0
M  V30 41023 C 3932.18 -1.6983 -0.0957338 0
M  V30 41024 O 3933.36 -1.94102 0.0615304 0
M  V30 41025 C 3930.49 -3.43312 0.524799 0
M  V30 41026 C 3929.45 -3.99393 1.53849 0
M  V30 41027 C 3928.77 -5.26281 0.945113 0
M  V30 41028 C 3930.07 -4.32925 2.92187 0
M  V30 41029 H 3931.77 -2.31541 1.89814 0
M  V30 41030 H 3929.31 -1.11271 0.914045 0
M  V30 41031 H 3931.27 -4.19925 0.352255 0
M  V30 41032 H 3929.99 -3.23702 -0.434104 0
M  V30 41033 H 3928.65 -3.24886 1.69837 0
M  V30 41034 H 3928.3 -5.02995 -0.0216825 0
M  V30 41035 H 3928 -5.64767 1.62211 0
M  V30 41036 H 3929.52 -6.05551 0.78361 0
M  V30 41037 H 3930.94 -5.00431 2.79717 0
M  V30 41038 H 3929.33 -4.82521 3.56781 0
M  V30 41039 H 3930.4 -3.41746 3.44003 0
M  V30 41040 N 3931.75 -1.00894 -1.21071 0
M  V30 41041 C 3932.99 -0.694912 -1.90522 0
M  V30 41042 C 3933.32 0.772771 -1.78163 0
M  V30 41043 O 3932.6 1.56061 -1.16083 0
M  V30 41044 C 3932.88 -1.12162 -3.42186 0
M  V30 41045 C 3932.74 -2.64905 -3.63518 0
M  V30 41046 C 3934.05 -0.687016 -4.34705 0
M  V30 41047 H 3931.17 -0.253924 -0.691875 0
M  V30 41048 H 3933.82 -1.25532 -1.42624 0
M  V30 41049 H 3931.97 -0.644809 -3.83112 0
M  V30 41050 H 3933.64 -3.2038 -3.31895 0
M  V30 41051 H 3931.88 -3.06236 -3.07249 0
M  V30 41052 H 3932.55 -2.89814 -4.698 0
M  V30 41053 H 3935.03 -1.09681 -4.01384 0
M  V30 41054 H 3933.9 -1.01371 -5.39458 0
M  V30 41055 H 3934.16 0.41168 -4.40179 0
M  V30 41056 N 3933.22 1.36705 -0.78418 0
M  V30 41057 C 3934.5 1.93609 -0.278372 0
M  V30 41058 C 3934.88 1.71663 1.22862 0
M  V30 41059 O 3934.23 1.07255 2.01764 0
M  V30 41060 C 3934.44 3.426 -0.665292 0
M  V30 41061 C 3935.79 4.19717 -0.642079 0
M  V30 41062 O 3936.81 3.51017 -0.605443 0
M  V30 41063 O 3935.67 5.4225 -0.680274 0
M  V30 41064 H 3932.76 0.824235 -0.0675748 0
M  V30 41065 H 3935.31 1.45918 -0.866371 0
M  V30 41066 H 3934.08 3.52208 -1.70485 0
M  V30 41067 H 3933.71 3.97567 -0.0508994 0
M  V30 41068 N 3934.7 0.535753 1.48214 0
M  V30 41069 C 3935.95 0.00173126 2.017 0
M  V30 41070 C 3936.26 -1.34773 1.41759 0
M  V30 41071 O 3937.47 -1.97044 1.86777 0
M  V30 41072 C 3935.93 -0.0472955 3.59869 0
M  V30 41073 C 3935.53 1.29762 4.28796 0
M  V30 41074 C 3937.28 -0.529841 4.2118 0
M  V30 41075 C 3935.19 1.20887 5.78913 0
M  V30 41076 H 3934.12 -0.00312281 0.753994 0
M  V30 41077 H 3936.77 0.680398 1.7042 0
M  V30 41078 H 3935.15 -0.791161 3.88016 0
M  V30 41079 H 3936.32 2.05751 4.12315 0
M  V30 41080 H 3934.64 1.71637 3.79381 0
M  V30 41081 H 3937.23 -0.614303 5.31159 0
M  V30 41082 H 3937.58 -1.53695 3.86889 0
M  V30 41083 H 3938.11 0.158514 3.97484 0
M  V30 41084 H 3934.85 2.19131 6.17788 0
M  V30 41085 H 3934.37 0.490438 5.97792 0
M  V30 41086 H 3936.05 0.901936 6.40683 0
M  V30 41087 N 3936.18 -1.5525 0.271158 0
M  V30 41088 C 3937.43 -1.98686 -0.347373 0
M  V30 41089 C 3937.74 -1.16295 -1.57273 0
M  V30 41090 O 3938.95 -1.49857 -2.26396 0
M  V30 41091 C 3937.4 -3.5362 -0.669399 0
M  V30 41092 C 3937.01 -4.44783 0.535931 0
M  V30 41093 C 3938.76 -4.05655 -1.25077 0
M  V30 41094 C 3936.66 -5.91099 0.188711 0
M  V30 41095 H 3935.59 -0.742075 -0.133568 0
M  V30 41096 H 3938.24 -1.79623 0.375189 0
M  V30 41097 H 3936.63 -3.68469 -1.45075 0
M  V30 41098 H 3937.8 -4.41702 1.31287 0
M  V30 41099 H 3936.12 -4.03361 1.03388 0
M  V30 41100 H 3938.71 -5.12513 -1.5243 0
M  V30 41101 H 3939.06 -3.54451 -2.18334 0
M  V30 41102 H 3939.59 -3.94229 -0.531795 0
M  V30 41103 H 3936.33 -6.4639 1.08905 0
M  V30 41104 H 3935.85 -5.97259 -0.551548 0
M  V30 41105 H 3937.53 -6.46624 -0.220489 0
M  V30 41106 N 3937.66 0.00162173 -1.576 0
M  V30 41107 C 3938.61 1.00203 -2.04801 0
M  V30 41108 C 3939.59 1.30412 -0.942422 0
M  V30 41109 O 3940.78 1.29537 -1.2062 0
M  V30 41110 C 3937.91 2.29455 -2.55353 0
M  V30 41111 C 3937 2.02218 -3.72785 0
M  V30 41112 N 3937.39 1.45133 -4.84531 0
M  V30 41113 C 3935.69 2.32369 -3.80685 0
M  V30 41114 C 3936.39 1.34329 -5.65977 0
M  V30 41115 N 3935.37 1.82835 -5.1193 0
M  V30 41116 H 3939.17 0.55514 -2.88609 0
M  V30 41117 H 3936.68 0.207352 -1.61071 0
M  V30 41118 H 3938.68 3.01964 -2.87443 0
M  V30 41119 H 3937.34 2.74798 -1.72962 0
M  V30 41120 H 3938.35 1.13036 -5.05414 0
M  V30 41121 H 3935.03 2.80598 -3.09146 0
M  V30 41122 H 3936.42 0.904505 -6.65784 0
M  V30 41123 N 3939.14 1.55194 0.274352 0
M  V30 41124 C 3940.38 1.75389 1.00415 0
M  V30 41125 C 3940.71 0.557277 1.86867 0
M  V30 41126 O 3939.98 -0.427849 1.91171 0
M  V30 41127 H 3938.56 0.646781 0.373742 0
M  V30 41128 H 3941.22 1.92594 0.298908 0
M  V30 41129 H 3940.31 2.65423 1.64186 0
M  V30 41130 N 3940.61 -0.538802 1.48104 0
M  V30 41131 C 3941.84 -1.31814 1.59087 0
M  V30 41132 C 3942.25 -1.87582 0.246919 0
M  V30 41133 O 3941.6 -1.6666 -0.772665 0
M  V30 41134 C 3941.66 -2.51269 2.57107 0
M  V30 41135 C 3941.32 -2.16654 4.02381 0
M  V30 41136 C 3942.32 -1.72849 4.90326 0
M  V30 41137 C 3940 -2.27447 4.47854 0
M  V30 41138 C 3942 -1.40291 6.21769 0
M  V30 41139 C 3939.68 -1.94502 5.7932 0
M  V30 41140 C 3940.68 -1.50994 6.661 0
M  V30 41141 O 3940.37 -1.18477 7.95122 0
M  V30 41142 H 3940.1 -0.407445 0.539412 0
M  V30 41143 H 3942.66 -0.657644 1.94587 0
M  V30 41144 H 3940.89 -3.20271 2.1671 0
M  V30 41145 H 3942.58 -3.13338 2.5802 0
M  V30 41146 H 3943.34 -1.63987 4.56435 0
M  V30 41147 H 3939.22 -2.60268 3.80501 0
M  V30 41148 H 3942.76 -1.06259 6.8946 0
M  V30 41149 H 3938.66 -2.03001 6.12748 0
M  V30 41150 H 3939.43 -1.3195 8.07794 0
M  V30 41151 N 3942.09 -1.36544 -0.786992 0
M  V30 41152 C 3943.33 -1.32292 -1.55814 0
M  V30 41153 C 3943.7 0.0960822 -1.91759 0
M  V30 41154 O 3944.9 0.263173 -2.67509 0
M  V30 41155 C 3943.17 -2.22203 -2.7993 0
M  V30 41156 S 3944.73 -2.35658 -3.7015 0
M  V30 41157 H 3941.55 -0.469857 -0.533625 0
M  V30 41158 H 3944.15 -1.7214 -0.926725 0
M  V30 41159 H 3942.85 -3.24248 -2.51578 0
M  V30 41160 H 3942.38 -1.83384 -3.48043 0
M  V30 41161 H 3944.4 -1.55587 -4.71176 0
M  V30 41162 N 3943.57 1.01143 -1.20863 0
M  V30 41163 C 3944.8 1.78411 -1.04772 0
M  V30 41164 C 3945.21 1.84453 0.402814 0
M  V30 41165 O 3944.57 1.30125 1.2796 0
M  V30 41166 C 3944.62 3.2263 -1.63071 0
M  V30 41167 O 3944.34 3.16949 -3.02449 0
M  V30 41168 C 3945.84 4.16425 -1.52004 0
M  V30 41169 H 3943.06 0.560901 -0.368281 0
M  V30 41170 H 3945.61 1.27281 -1.60062 0
M  V30 41171 H 3943.76 3.7089 -1.11888 0
M  V30 41172 H 3944.18 4.07509 -3.30207 0
M  V30 41173 H 3945.65 5.1544 -1.97548 0
M  V30 41174 H 3946.13 4.36641 -0.473382 0
M  V30 41175 H 3946.73 3.7405 -2.02402 0
M  V30 41176 N 3945.05 1.01535 1.20534 0
M  V30 41177 C 3946.29 0.712485 1.9158 0
M  V30 41178 C 3946.65 -0.744058 1.76997 0
M  V30 41179 O 3947.85 -1.15938 2.42512 0
M  V30 41180 C 3946.12 1.1346 3.38912 0
M  V30 41181 S 3947.68 0.953519 4.28315 0
M  V30 41182 H 3944.5 0.25979 0.661838 0
M  V30 41183 H 3947.1 1.30234 1.45806 0
M  V30 41184 H 3945.81 2.19058 3.47047 0
M  V30 41185 H 3945.34 0.537464 3.89711 0
M  V30 41186 H 3947.35 -0.143635 4.95992 0
M  V30 41187 N 3946.53 -1.36288 0.791419 0
M  V30 41188 C 3947.44 -2.3381 0.192403 0
M  V30 41189 C 3948.45 -1.61139 -0.656527 0
M  V30 41190 O 3949.63 -1.93111 -0.571844 0
M  V30 41191 C 3946.69 -3.40336 -0.661223 0
M  V30 41192 C 3945.75 -4.28803 0.206436 0
M  V30 41193 C 3944.99 -5.30242 -0.606543 0
M  V30 41194 O 3945.21 -5.39827 -1.84238 0
M  V30 41195 O 3944.14 -6.019 -0.00538536 0
M  V30 41196 H 3947.97 -2.86807 0.998774 0
M  V30 41197 H 3945.56 -1.38792 0.552914 0
M  V30 41198 H 3947.44 -4.05463 -1.14793 0
M  V30 41199 H 3946.11 -2.89635 -1.44545 0
M  V30 41200 H 3945.02 -3.66709 0.739941 0
M  V30 41201 H 3946.35 -4.82862 0.954227 0
M  V30 41202 N 3948.01 -0.543606 -1.47928 0
M  V30 41203 C 3948.94 0.200187 -2.3264 0
M  V30 41204 C 3949.92 0.921975 -1.42946 0
M  V30 41205 O 3951.1 0.905099 -1.71819 0
M  V30 41206 C 3948.23 1.23916 -3.24441 0
M  V30 41207 C 3947.19 0.634679 -4.23268 0
M  V30 41208 C 3946.51 1.7773 -5.04298 0
M  V30 41209 C 3947.81 -0.402615 -5.20746 0
M  V30 41210 H 3949.51 -0.507009 -2.95076 0
M  V30 41211 H 3947.05 -0.245271 -1.41896 0
M  V30 41212 H 3949 1.76756 -3.82538 0
M  V30 41213 H 3947.73 1.97612 -2.60033 0
M  V30 41214 H 3946.39 0.127692 -3.66378 0
M  V30 41215 H 3946.04 2.50297 -4.36303 0
M  V30 41216 H 3945.74 1.37869 -5.71197 0
M  V30 41217 H 3947.26 2.30922 -5.6525 0
M  V30 41218 H 3948.67 0.0392042 -5.73287 0
M  V30 41219 H 3947.07 -0.719356 -5.95773 0
M  V30 41220 H 3948.14 -1.30348 -4.67052 0
M  V30 41221 N 3949.48 1.55104 -0.279387 0
M  V30 41222 C 3950.76 1.91709 0.388179 0
M  V30 41223 C 3951.14 1.20415 1.73388 0
M  V30 41224 O 3950.49 0.332458 2.26068 0
M  V30 41225 C 3950.7 3.4504 0.524238 0
M  V30 41226 C 3952.05 4.16896 0.805156 0
M  V30 41227 O 3953.07 3.50957 0.608883 0
M  V30 41228 O 3951.93 5.33591 1.18079 0
M  V30 41229 H 3949.02 0.799038 0.213231 0
M  V30 41230 H 3951.57 1.66542 -0.325854 0
M  V30 41231 H 3950.34 3.89011 -0.422631 0
M  V30 41232 H 3949.96 3.76175 1.28758 0
M  V30 41233 N 3950.96 0.0067362 1.57599 0
M  V30 41234 C 3952.2 -0.681119 1.92718 0
M  V30 41235 C 3952.57 -1.70562 0.881623 0
M  V30 41236 O 3953.77 -2.44434 1.11828 0
M  V30 41237 C 3952.04 -1.30149 3.3286 0
M  V30 41238 S 3953.6 -2.01353 3.89875 0
M  V30 41239 H 3950.41 -0.224821 0.674519 0
M  V30 41240 H 3953.02 0.0650392 1.95392 0
M  V30 41241 H 3951.72 -0.543109 4.0679 0
M  V30 41242 H 3951.25 -2.08544 3.33576 0
M  V30 41243 H 3953.27 -3.28946 3.71496 0
M  V30 41244 N 3952.44 -1.55337 -0.266118 0
M  V30 41245 C 3953.69 -1.75471 -0.994618 0
M  V30 41246 C 3954 -0.567053 -1.872 0
M  V30 41247 O 3955.21 -0.65097 -2.6358 0
M  V30 41248 C 3953.66 -3.10584 -1.81839 0
M  V30 41249 C 3953.27 -4.3694 -0.989336 0
M  V30 41250 C 3955.02 -3.40066 -2.54078 0
M  V30 41251 C 3952.92 -5.63089 -1.80789 0
M  V30 41252 H 3951.85 -0.654085 -0.375086 0
M  V30 41253 H 3954.5 -1.81789 -0.250008 0
M  V30 41254 H 3952.89 -2.98323 -2.60422 0
M  V30 41255 H 3954.06 -4.60137 -0.24719 0
M  V30 41256 H 3952.37 -4.14652 -0.381177 0
M  V30 41257 H 3954.97 -4.31526 -3.15737 0
M  V30 41258 H 3955.31 -2.60511 -3.24715 0
M  V30 41259 H 3955.85 -3.53456 -1.8252 0
M  V30 41260 H 3952.59 -6.45412 -1.1456 0
M  V30 41261 H 3952.11 -5.44024 -2.52582 0
M  V30 41262 H 3953.79 -6.01642 -2.37983 0
M  V30 41263 N 3953.92 0.53094 -1.48387 0
M  V30 41264 C 3954.87 1.65655 -1.63282 0
M  V30 41265 C 3955.86 1.61875 -0.499289 0
M  V30 41266 O 3957.07 1.66744 -0.67798 0
M  V30 41267 H 3953.44 0.548596 -0.514341 0
M  V30 41268 H 3955.41 1.50236 -2.57821 0
M  V30 41269 C 3954.16 3.0393 -1.68884 0
M  V30 41270 H 3953.48 3.07533 -2.55468 0
M  V30 41271 H 3954.92 3.82308 -1.83349 0
M  V30 41272 C 3953.38 3.34179 -0.427326 0
M  V30 41273 O 3953.91 3.99055 0.460206 0
M  V30 41274 N 3952.12 2.89054 -0.299319 0
M  V30 41275 H 3951.67 2.36436 -1.02252 0
M  V30 41276 H 3951.62 3.09663 0.543732 0
M  V30 41277 N 3955.4 1.36959 0.779739 0
M  V30 41278 C 3956.62 1.34902 1.56873 0
M  V30 41279 C 3957.04 -0.0675013 1.88679 0
M  V30 41280 O 3956.4 -1.0271 1.50854 0
M  V30 41281 C 3956.45 2.1798 2.88387 0
M  V30 41282 O 3956.17 3.54111 2.57947 0
M  V30 41283 C 3957.67 2.23812 3.82653 0
M  V30 41284 H 3954.89 0.462383 0.486254 0
M  V30 41285 H 3957.43 1.8019 0.96704 0
M  V30 41286 H 3955.59 1.76221 3.45 0
M  V30 41287 H 3956 3.9757 3.42108 0
M  V30 41288 H 3957.48 2.8628 4.71962 0
M  V30 41289 H 3957.95 1.24428 4.21206 0
M  V30 41290 H 3958.56 2.65848 3.31971 0
M  V30 41291 N 3956.87 -1.00501 1.21398 0
M  V30 41292 C 3957.84 -2.07438 0.974793 0
M  V30 41293 C 3958.84 -1.60709 -0.054186 0
M  V30 41294 O 3960.03 -1.73235 0.183087 0
M  V30 41295 C 3957.16 -3.37645 0.469949 0
M  V30 41296 H 3958.35 -2.3009 1.9235 0
M  V30 41297 H 3955.9 -1.17477 1.03097 0
M  V30 41298 H 3956.64 -3.20673 -0.483679 0
M  V30 41299 H 3956.42 -3.72893 1.21217 0
M  V30 41300 H 3957.91 -4.16353 0.322466 0
M  V30 41301 N 3958.35 -1.02172 -1.19994 0
M  V30 41302 C 3959.58 -0.733241 -1.94006 0
M  V30 41303 C 3960 0.700579 -1.74567 0
M  V30 41304 O 3959.36 1.48274 -1.04328 0
M  V30 41305 C 3959.41 -1.08063 -3.44027 0
M  V30 41306 O 3958.51 -0.195208 -4.11938 0
M  V30 41307 H 3957.85 -0.271573 -0.605924 0
M  V30 41308 H 3960.38 -1.36648 -1.52278 0
M  V30 41309 H 3960.39 -1.0345 -3.94667 0
M  V30 41310 H 3959.07 -2.12526 -3.57499 0
M  V30 41311 H 3957.64 -0.299311 -3.71697 0
M  V30 41312 N 3959.83 1.35866 -0.798635 0
M  V30 41313 C 3960.78 2.29919 -0.201482 0
M  V30 41314 C 3961.75 1.52427 0.659944 0
M  V30 41315 O 3962.93 1.80897 0.606694 0
M  V30 41316 C 3960.07 3.38916 0.650367 0
M  V30 41317 C 3959.18 4.31384 -0.230615 0
M  V30 41318 C 3958.32 5.27469 0.628482 0
M  V30 41319 C 3957.36 6.11575 -0.253389 0
M  V30 41320 N 3956.5 6.99821 0.56522 0
M  V30 41321 H 3961.34 2.80399 -1.00897 0
M  V30 41322 H 3958.87 1.38009 -0.50911 0
M  V30 41323 H 3960.83 4.00768 1.15934 0
M  V30 41324 H 3959.46 2.89733 1.4232 0
M  V30 41325 H 3958.51 3.70606 -0.857625 0
M  V30 41326 H 3959.82 4.90434 -0.909721 0
M  V30 41327 H 3958.98 5.94656 1.2029 0
M  V30 41328 H 3957.72 4.68896 1.34118 0
M  V30 41329 H 3956.72 5.43343 -0.840136 0
M  V30 41330 H 3957.95 6.72225 -0.963831 0
M  V30 41331 H 3955.89 6.43746 1.26204 0
M  V30 41332 H 3955.81 7.55979 -0.0560081 0
M  V30 41333 H 3957.08 7.71366 1.12317 0
M  V30 41334 N 3961.31 0.551443 1.47638 0
M  V30 41335 C 3962.56 0.0231241 2.01687 0
M  V30 41336 C 3962.87 -1.33262 1.4318 0
M  V30 41337 O 3964.08 -1.95052 1.88857 0
M  V30 41338 C 3962.53 -0.00912393 3.59899 0
M  V30 41339 C 3962.14 1.34303 4.27395 0
M  V30 41340 C 3963.88 -0.485139 4.21719 0
M  V30 41341 C 3961.79 1.2702 5.77598 0
M  V30 41342 H 3960.72 0.00487448 0.753984 0
M  V30 41343 H 3963.37 0.698435 1.69688 0
M  V30 41344 H 3961.75 -0.749962 3.88834 0
M  V30 41345 H 3962.93 2.10112 4.10109 0
M  V30 41346 H 3961.24 1.75651 3.77539 0
M  V30 41347 H 3963.84 -0.557932 5.31781 0
M  V30 41348 H 3964.18 -1.49583 3.88498 0
M  V30 41349 H 3964.72 0.200664 3.97294 0
M  V30 41350 H 3961.45 2.25671 6.15429 0
M  V30 41351 H 3960.97 0.553814 5.97238 0
M  V30 41352 H 3962.65 0.969839 6.3969 0
M  V30 41353 N 3962.79 -1.54953 0.287609 0
M  V30 41354 C 3964.02 -2.03978 -0.328088 0
M  V30 41355 C 3964.42 -1.16497 -1.49081 0
M  V30 41356 O 3963.77 -0.180318 -1.82813 0
M  V30 41357 C 3963.83 -3.49069 -0.859704 0
M  V30 41358 C 3963.49 -4.56661 0.175998 0
M  V30 41359 C 3964.49 -5.10195 0.999849 0
M  V30 41360 C 3962.18 -5.01319 0.313839 0
M  V30 41361 C 3964.17 -6.06916 1.94761 0
M  V30 41362 C 3961.86 -5.97862 1.26506 0
M  V30 41363 C 3962.85 -6.50544 2.08044 0
M  V30 41364 O 3962.54 -7.45198 3.01555 0
M  V30 41365 H 3962.27 -0.671575 -0.0772188 0
M  V30 41366 H 3964.83 -2.01035 0.421186 0
M  V30 41367 H 3963.06 -3.49292 -1.65927 0
M  V30 41368 H 3964.75 -3.81364 -1.38983 0
M  V30 41369 H 3965.51 -4.76498 0.904157 0
M  V30 41370 H 3961.39 -4.59951 -0.310841 0
M  V30 41371 H 3964.94 -6.4796 2.58444 0
M  V30 41372 H 3960.83 -6.30978 1.36152 0
M  V30 41373 H 3961.6 -7.62956 2.9638 0
M  V30 41374 N 3964.26 -0.0150939 -1.57593 0
M  V30 41375 C 3965.2 1.00577 -2.0484 0
M  V30 41376 C 3966.18 1.32584 -0.941285 0
M  V30 41377 O 3967.36 1.44491 -1.21056 0
M  V30 41378 C 3964.49 2.3295 -2.4587 0
M  V30 41379 C 3963.53 2.16501 -3.67464 0
M  V30 41380 S 3964.37 1.47691 -5.14731 0
M  V30 41381 C 3965.52 2.81463 -5.59043 0
M  V30 41382 H 3965.75 0.603524 -2.9111 0
M  V30 41383 H 3963.29 0.196208 -1.53148 0
M  V30 41384 H 3965.25 3.09056 -2.70175 0
M  V30 41385 H 3963.91 2.70311 -1.59972 0
M  V30 41386 H 3963.1 3.14327 -3.93973 0
M  V30 41387 H 3962.7 1.48539 -3.43238 0
M  V30 41388 H 3964.99 3.77735 -5.62426 0
M  V30 41389 H 3965.94 2.59636 -6.58783 0
M  V30 41390 H 3966.34 2.86066 -4.86648 0
M  V30 41391 N 3965.74 1.55476 0.257876 0
M  V30 41392 C 3966.67 1.85824 1.34172 0
M  V30 41393 C 3967.69 0.743722 1.44819 0
M  V30 41394 O 3968.88 1.02173 1.46365 0
M  V30 41395 C 3965.98 2.01963 2.72148 0
M  V30 41396 C 3965.15 3.32741 2.83905 0
M  V30 41397 C 3964.21 3.38758 4.02653 0
M  V30 41398 O 3963.23 4.12041 3.92697 0
M  V30 41399 N 3964.44 2.67254 5.15321 0
M  V30 41400 H 3967.2 2.79379 1.08478 0
M  V30 41401 H 3964.76 1.55578 0.447989 0
M  V30 41402 H 3966.75 2.03342 3.49906 0
M  V30 41403 H 3965.32 1.15203 2.90598 0
M  V30 41404 H 3964.54 3.43773 1.92909 0
M  V30 41405 H 3965.83 4.18961 2.88702 0
M  V30 41406 H 3965.23 2.07427 5.26299 0
M  V30 41407 H 3963.79 2.74338 5.91254 0
M  V30 41408 N 3967.22 -0.523064 1.48667 0
M  V30 41409 C 3968.15 -1.64384 1.58281 0
M  V30 41410 C 3969.13 -1.56731 0.432901 0
M  V30 41411 O 3970.32 -1.77105 0.645453 0
M  V30 41412 C 3967.44 -3.02815 1.51725 0
M  V30 41413 C 3966.49 -3.28804 2.71643 0
M  V30 41414 S 3967.32 -3.14322 4.33546 0
M  V30 41415 C 3968.48 -4.55187 4.29599 0
M  V30 41416 H 3968.71 -1.5598 2.53096 0
M  V30 41417 H 3966.24 -0.706556 1.37285 0
M  V30 41418 H 3968.2 -3.82648 1.48629 0
M  V30 41419 H 3966.86 -3.08654 0.582365 0
M  V30 41420 H 3966.06 -4.29808 2.63214 0
M  V30 41421 H 3965.66 -2.56655 2.72038 0
M  V30 41422 H 3967.95 -5.46845 3.99959 0
M  V30 41423 H 3968.89 -4.6867 5.30805 0
M  V30 41424 H 3969.3 -4.34834 3.59972 0
M  V30 41425 N 3968.7 -1.37371 -0.772465 0
M  V30 41426 C 3969.63 -1.35775 -1.89967 0
M  V30 41427 C 3970.61 -0.226482 -1.68585 0
M  V30 41428 O 3971.79 -0.426725 -1.89454 0
M  V30 41429 C 3968.92 -1.16325 -3.2724 0
M  V30 41430 C 3967.88 -2.26456 -3.63183 0
M  V30 41431 C 3967.2 -1.9213 -4.98989 0
M  V30 41432 C 3968.5 -3.68636 -3.70006 0
M  V30 41433 H 3970.2 -2.30098 -1.9156 0
M  V30 41434 H 3967.74 -1.10761 -0.920222 0
M  V30 41435 H 3969.7 -1.13839 -4.05732 0
M  V30 41436 H 3968.42 -0.18457 -3.26078 0
M  V30 41437 H 3967.08 -2.28097 -2.86997 0
M  V30 41438 H 3966.73 -0.927935 -4.94367 0
M  V30 41439 H 3966.43 -2.65876 -5.24007 0
M  V30 41440 H 3967.95 -1.9123 -5.79882 0
M  V30 41441 H 3969.37 -3.69129 -4.38653 0
M  V30 41442 H 3967.76 -4.4143 -4.06521 0
M  V30 41443 H 3968.83 -4.02314 -2.70687 0
M  V30 41444 N 3970.18 0.998553 -1.21929 0
M  V30 41445 C 3971.11 2.10599 -1.00849 0
M  V30 41446 C 3972.09 1.69961 0.0687031 0
M  V30 41447 O 3973.27 1.9398 -0.0924027 0
M  V30 41448 C 3970.4 3.42434 -0.579351 0
M  V30 41449 C 3969.36 3.96895 -1.60183 0
M  V30 41450 C 3968.68 5.24711 -1.02872 0
M  V30 41451 C 3969.98 4.28222 -2.99037 0
M  V30 41452 H 3971.68 2.28492 -1.93473 0
M  V30 41453 H 3969.22 1.09803 -0.931631 0
M  V30 41454 H 3971.18 4.19312 -0.419017 0
M  V30 41455 H 3969.9 3.24352 0.382551 0
M  V30 41456 H 3968.56 3.22143 -1.74984 0
M  V30 41457 H 3968.21 5.02966 -0.0583424 0
M  V30 41458 H 3967.91 5.62114 -1.71176 0
M  V30 41459 H 3969.43 6.04228 -0.879849 0
M  V30 41460 H 3970.84 4.95918 -2.87643 0
M  V30 41461 H 3969.24 4.76784 -3.64413 0
M  V30 41462 H 3970.31 3.3623 -3.49396 0
M  V30 41463 N 3971.65 1.02807 1.1945 0
M  V30 41464 C 3972.89 0.732764 1.90814 0
M  V30 41465 C 3973.26 -0.725244 1.77776 0
M  V30 41466 O 3974.46 -1.13359 2.43728 0
M  V30 41467 C 3972.73 1.17048 3.3769 0
M  V30 41468 S 3974.29 0.998893 4.27279 0
M  V30 41469 H 3971.11 0.266796 0.659046 0
M  V30 41470 H 3973.71 1.31774 1.44416 0
M  V30 41471 H 3972.41 2.22727 3.44704 0
M  V30 41472 H 3971.94 0.578768 3.89119 0
M  V30 41473 H 3973.96 -0.0910204 4.96117 0
M  V30 41474 N 3973.13 -1.35441 0.805829 0
M  V30 41475 C 3974.54 -1.81273 0.446894 0
M  V30 41476 C 3974.89 -1.66927 -1.03101 0
M  V30 41477 O 3974.02 -1.19948 -1.80115 0
M  V30 41478 C 3974.61 -3.29113 0.804388 0
M  V30 41479 C 3973.17 -3.7309 0.498062 0
M  V30 41480 C 3972.32 -2.57445 1.0304 0
M  V30 41481 H 3975.27 -1.2343 0.997539 0
M  V30 41482 H 3975.29 -3.80364 0.101626 0
M  V30 41483 H 3974.8 -3.39521 1.88007 0
M  V30 41484 H 3972.91 -3.68231 -0.568918 0
M  V30 41485 H 3973.02 -4.67894 1.03016 0
M  V30 41486 H 3971.38 -2.50644 0.45276 0
M  V30 41487 H 3972.17 -2.70633 2.11218 0
M  V30 41488 N 3974.61 -0.559265 -1.47343 0
M  V30 41489 C 3975.89 0.0297924 -1.95577 0
M  V30 41490 C 3976.27 1.48347 -1.50188 0
M  V30 41491 O 3975.62 2.16129 -0.741658 0
M  V30 41492 C 3975.83 -0.117828 -3.48801 0
M  V30 41493 C 3977.17 0.0264603 -4.24592 0
M  V30 41494 O 3978.2 -0.0454789 -3.56171 0
M  V30 41495 O 3977.06 0.181579 -5.46198 0
M  V30 41496 H 3974.15 0.0629827 -0.824598 0
M  V30 41497 H 3976.7 -0.625933 -1.57734 0
M  V30 41498 H 3975.47 -1.12931 -3.7465 0
M  V30 41499 H 3975.09 0.575414 -3.93414 0
M  V30 41500 N 3976.09 1.54799 -0.295822 0
M  V30 41501 C 3977.5 1.85649 0.197857 0
M  V30 41502 C 3977.85 1.21779 1.53832 0
M  V30 41503 O 3976.98 0.513591 2.10217 0
M  V30 41504 C 3977.57 3.3682 0.365784 0
M  V30 41505 C 3976.13 3.6772 0.803685 0
M  V30 41506 C 3975.28 2.77151 -0.0910059 0
M  V30 41507 H 3978.23 1.50043 -0.516995 0
M  V30 41508 H 3978.25 3.61043 1.20117 0
M  V30 41509 H 3977.76 3.83277 -0.609977 0
M  V30 41510 H 3975.86 3.26777 1.79018 0
M  V30 41511 H 3975.97 4.74984 0.626661 0
M  V30 41512 H 3974.34 2.51064 0.428838 0
M  V30 41513 H 3975.12 3.26427 -1.06303 0
M  V30 41514 N 3977.57 0.0234513 1.57583 0
M  V30 41515 C 3978.53 -0.945288 2.08799 0
M  V30 41516 C 3979.53 -1.25771 1.00192 0
M  V30 41517 O 3980.72 -1.19899 1.26372 0
M  V30 41518 C 3977.85 -2.26348 2.5491 0
M  V30 41519 H 3979.05 -0.501818 2.95672 0
M  V30 41520 H 3976.6 -0.224479 1.5468 0
M  V30 41521 H 3977.33 -2.75336 1.7135 0
M  V30 41522 H 3977.12 -2.04986 3.3425 0
M  V30 41523 H 3978.61 -2.95796 2.94779 0
M  V30 41524 N 3979.05 -1.5561 -0.249627 0
M  V30 41525 C 3980.29 -1.77577 -0.979498 0
M  V30 41526 C 3980.62 -0.588231 -1.85077 0
M  V30 41527 O 3979.9 0.413567 -1.90052 0
M  V30 41528 C 3980.18 -3.09403 -1.84232 0
M  V30 41529 C 3980.04 -4.38556 -0.999423 0
M  V30 41530 C 3981.35 -3.37438 -2.8253 0
M  V30 41531 H 3978.47 -0.646048 -0.35467 0
M  V30 41532 H 3981.12 -1.88346 -0.250191 0
M  V30 41533 H 3979.27 -3.00354 -2.46414 0
M  V30 41534 H 3980.94 -4.59593 -0.396518 0
M  V30 41535 H 3979.18 -4.32736 -0.303684 0
M  V30 41536 H 3979.85 -5.27172 -1.63688 0
M  V30 41537 H 3982.33 -3.46433 -2.30485 0
M  V30 41538 H 3981.2 -4.30899 -3.40025 0
M  V30 41539 H 3981.46 -2.58217 -3.58854 0
M  V30 41540 N 3980.52 0.515172 -1.48942 0
M  V30 41541 C 3981.75 1.29928 -1.61658 0
M  V30 41542 C 3982.17 1.85966 -0.282562 0
M  V30 41543 O 3981.53 1.65156 0.747885 0
M  V30 41544 C 3981.58 2.41548 -2.67744 0
M  V30 41545 O 3980.68 3.45005 -2.25933 0
M  V30 41546 H 3980.02 0.384188 -0.541568 0
M  V30 41547 H 3982.55 0.618315 -1.95033 0
M  V30 41548 H 3982.56 2.87519 -2.89476 0
M  V30 41549 H 3981.24 2.00125 -3.64586 0
M  V30 41550 H 3979.82 3.0505 -2.14474 0
M  V30 41551 N 3982 1.37779 0.765169 0
M  V30 41552 C 3983.25 1.3335 1.52395 0
M  V30 41553 C 3983.58 -0.0800217 1.94335 0
M  V30 41554 O 3982.83 -1.05467 1.64849 0
M  V30 41555 C 3983.13 2.22457 2.79728 0
M  V30 41556 C 3982.8 3.70622 2.56807 0
M  V30 41557 C 3981.46 4.11 2.50265 0
M  V30 41558 C 3983.81 4.64461 2.36486 0
M  V30 41559 C 3981.14 5.43322 2.21401 0
M  V30 41560 C 3983.49 5.97027 2.09144 0
M  V30 41561 C 3982.15 6.36502 2.01051 0
M  V30 41562 H 3981.42 0.487961 0.557651 0
M  V30 41563 H 3984.07 1.7004 0.880824 0
M  V30 41564 H 3982.38 1.78783 3.48631 0
M  V30 41565 H 3984.07 2.1634 3.37636 0
M  V30 41566 H 3980.66 3.38604 2.62765 0
M  V30 41567 H 3984.85 4.34121 2.40526 0
M  V30 41568 H 3980.1 5.72862 2.13634 0
M  V30 41569 H 3984.28 6.69289 1.92421 0
M  V30 41570 H 3981.9 7.38959 1.78449 0
M  V30 41571 N 3983.48 -0.992073 1.22457 0
M  V30 41572 C 3984.7 -1.77256 1.0768 0
M  V30 41573 C 3985.13 -1.84458 -0.368345 0
M  V30 41574 O 3984.49 -1.29766 -1.26612 0
M  V30 41575 C 3984.54 -3.18355 1.69358 0
M  V30 41576 O 3983.64 -4.0136 0.947817 0
M  V30 41577 H 3982.98 -0.5458 0.378151 0
M  V30 41578 H 3985.51 -1.24617 1.62271 0
M  V30 41579 H 3985.52 -3.68982 1.74116 0
M  V30 41580 H 3984.2 -3.12428 2.7452 0
M  V30 41581 H 3982.77 -3.59893 0.976308 0
M  V30 41582 N 3984.96 -1.03439 -1.18904 0
M  V30 41583 C 3986.2 -0.742873 -1.90423 0
M  V30 41584 C 3986.56 0.715805 -1.78158 0
M  V30 41585 O 3987.76 1.12065 -2.44325 0
M  V30 41586 C 3986.03 -1.18837 -3.37064 0
M  V30 41587 S 3987.59 -1.02154 -4.26744 0
M  V30 41588 H 3984.41 -0.270287 -0.657621 0
M  V30 41589 H 3987.01 -1.32538 -1.43715 0
M  V30 41590 H 3985.72 -2.24551 -3.43518 0
M  V30 41591 H 3985.25 -0.599396 -3.88807 0
M  V30 41592 H 3987.26 0.0647088 -4.96158 0
M  V30 41593 N 3986.44 1.35011 -0.813001 0
M  V30 41594 C 3987.38 2.29692 -0.225857 0
M  V30 41595 C 3988.35 1.53118 0.64374 0
M  V30 41596 O 3989.54 1.81531 0.587473 0
M  V30 41597 C 3986.68 3.39587 0.614384 0
M  V30 41598 C 3985.79 4.31115 -0.276356 0
M  V30 41599 C 3984.93 5.28106 0.572502 0
M  V30 41600 C 3983.96 6.11272 -0.318241 0
M  V30 41601 N 3983.1 7.00381 0.490963 0
M  V30 41602 H 3987.94 2.79313 -1.03866 0
M  V30 41603 H 3985.48 1.37461 -0.523719 0
M  V30 41604 H 3987.44 4.01975 1.11676 0
M  V30 41605 H 3986.07 2.91226 1.39239 0
M  V30 41606 H 3985.12 3.69676 -0.896885 0
M  V30 41607 H 3986.43 4.89442 -0.961687 0
M  V30 41608 H 3985.58 5.95898 1.13976 0
M  V30 41609 H 3984.32 4.70292 1.29138 0
M  V30 41610 H 3983.33 5.42421 -0.897717 0
M  V30 41611 H 3984.55 6.71165 -1.03508 0
M  V30 41612 H 3982.5 6.45048 1.19369 0
M  V30 41613 H 3982.42 7.55877 -0.136187 0
M  V30 41614 H 3983.68 7.72514 1.04129 0
M  V30 41615 N 3987.91 0.567071 1.47044 0
M  V30 41616 C 3988.85 -0.212686 2.28211 0
M  V30 41617 C 3989.86 -0.870183 1.37592 0
M  V30 41618 O 3991.05 -0.742376 1.6233 0
M  V30 41619 C 3988.15 -1.31952 3.12157 0
M  V30 41620 C 3987.32 -0.756934 4.30801 0
M  V30 41621 C 3986.38 -1.74949 4.96265 0
M  V30 41622 O 3985.41 -1.29171 5.5435 0
M  V30 41623 N 3986.61 -3.08318 4.91854 0
M  V30 41624 H 3989.37 0.483604 2.95772 0
M  V30 41625 H 3986.93 0.403795 1.56784 0
M  V30 41626 H 3988.93 -1.98246 3.52818 0
M  V30 41627 H 3987.5 -1.9189 2.46773 0
M  V30 41628 H 3986.72 0.0830573 3.94112 0
M  V30 41629 H 3988 -0.360582 5.07521 0
M  V30 41630 H 3987.4 -3.48147 4.45881 0
M  V30 41631 H 3985.96 -3.70145 5.36504 0
M  V30 41632 N 3989.39 -1.5464 0.304027 0
M  V30 41633 C 3990.35 -2.22307 -0.557878 0
M  V30 41634 C 3991.35 -1.2101 -1.05893 0
M  V30 41635 O 3992.54 -1.45724 -0.954472 0
M  V30 41636 C 3989.68 -2.91181 -1.77274 0
M  V30 41637 H 3990.87 -2.99881 0.0333714 0
M  V30 41638 H 3988.42 -1.56204 0.0548934 0
M  V30 41639 H 3989.16 -2.17694 -2.40375 0
M  V30 41640 H 3988.94 -3.65442 -1.42108 0
M  V30 41641 H 3990.43 -3.42793 -2.38501 0
M  V30 41642 N 3990.87 -0.0318079 -1.57568 0
M  V30 41643 C 3991.8 0.947462 -2.13414 0
M  V30 41644 C 3992.78 1.33752 -1.05093 0
M  V30 41645 O 3993.97 1.41566 -1.32939 0
M  V30 41646 C 3991.1 2.2289 -2.66341 0
M  V30 41647 C 3990.05 1.97951 -3.79472 0
M  V30 41648 C 3989.38 3.32383 -4.18838 0
M  V30 41649 C 3990.68 1.31655 -5.05435 0
M  V30 41650 H 3992.37 0.482365 -2.95489 0
M  V30 41651 H 3989.92 0.230578 -1.42142 0
M  V30 41652 H 3991.87 2.91779 -3.04044 0
M  V30 41653 H 3990.59 2.7157 -1.81431 0
M  V30 41654 H 3989.25 1.31479 -3.42212 0
M  V30 41655 H 3988.9 3.78827 -3.30906 0
M  V30 41656 H 3988.6 3.16502 -4.95076 0
M  V30 41657 H 3990.12 4.02536 -4.59127 0
M  V30 41658 H 3991.54 1.90548 -5.40707 0
M  V30 41659 H 3989.93 1.26162 -5.86688 0
M  V30 41660 H 3991 0.289875 -4.84033 0
M  V30 41661 N 3992.35 1.55741 0.241371 0
M  V30 41662 C 3993.6 1.77032 0.966576 0
M  V30 41663 C 3993.91 0.596763 1.86274 0
M  V30 41664 O 3995.12 0.692821 2.62511 0
M  V30 41665 C 3993.57 3.13438 1.76875 0
M  V30 41666 C 3993.18 4.38458 0.919697 0
M  V30 41667 C 3994.92 3.44065 2.48635 0
M  V30 41668 C 3992.83 5.65894 1.71808 0
M  V30 41669 H 3991.76 0.659969 0.364632 0
M  V30 41670 H 3994.41 1.82164 0.221056 0
M  V30 41671 H 3992.79 3.02428 2.55643 0
M  V30 41672 H 3993.97 4.60472 0.173955 0
M  V30 41673 H 3992.28 4.15206 0.315161 0
M  V30 41674 H 3994.88 4.36494 3.08831 0
M  V30 41675 H 3995.22 2.65644 3.20529 0
M  V30 41676 H 3995.76 3.56315 1.76873 0
M  V30 41677 H 3992.5 6.47153 1.04278 0
M  V30 41678 H 3992.02 5.47974 2.43895 0
M  V30 41679 H 3993.69 6.05352 2.28381 0
M  V30 41680 N 3993.83 -0.507266 1.49213 0
M  V30 41681 C 3995.24 -0.837884 1.35837 0
M  V30 41682 C 3995.44 -1.97755 0.386669 0
M  V30 41683 O 3994.5 -2.51829 -0.183927 0
M  V30 41684 C 3995.81 -1.18399 2.76409 0
M  V30 41685 C 3997.36 -1.29257 2.85064 0
M  V30 41686 C 3997.83 -1.672 4.2639 0
M  V30 41687 N 3999.33 -1.74261 4.29171 0
M  V30 41688 C 4000.06 -2.05051 5.35482 0
M  V30 41689 N 3999.56 -2.34109 6.52047 0
M  V30 41690 N 4001.35 -2.0625 5.22893 0
M  V30 41691 H 3993.5 0.244348 2.1099 0
M  V30 41692 H 3995.76 0.0467144 0.946848 0
M  V30 41693 H 3995.47 -0.419992 3.49183 0
M  V30 41694 H 3995.34 -2.12891 3.1138 0
M  V30 41695 H 3997.73 -2.0473 2.12532 0
M  V30 41696 H 3997.81 -0.328315 2.53684 0
M  V30 41697 H 3997.46 -0.922796 4.99447 0
M  V30 41698 H 3997.39 -2.64715 4.55229 0
M  V30 41699 H 3999.88 -1.5399 3.45102 0
M  V30 41700 H 4000.19 -2.56774 7.28894 0
M  V30 41701 H 3998.53 -2.31579 6.55283 0
M  V30 41702 H 4001.73 -1.83021 4.30838 0
M  V30 41703 H 4001.9 -2.29912 6.05842 0
M  V30 41704 N 3995.3 -1.38182 -0.757851 0
M  V30 41705 C 3996.55 -1.34355 -1.5191 0
M  V30 41706 C 3996.88 0.0676662 -1.94082 0
M  V30 41707 O 3996.16 1.02796 -1.65116 0
M  V30 41708 C 3996.44 -2.29536 -2.77462 0
M  V30 41709 C 3996.29 -3.79499 -2.41455 0
M  V30 41710 C 3997.61 -2.22922 -3.79465 0
M  V30 41711 H 3994.73 -0.489365 -0.551082 0
M  V30 41712 H 3997.37 -1.68996 -0.868346 0
M  V30 41713 H 3995.52 -2.00125 -3.3299 0
M  V30 41714 H 3997.2 -4.19566 -1.91735 0
M  V30 41715 H 3995.44 -3.97388 -1.73969 0
M  V30 41716 H 3996.11 -4.41552 -3.31264 0
M  V30 41717 H 3998.59 -2.48876 -3.33466 0
M  V30 41718 H 3997.46 -2.91638 -4.65015 0
M  V30 41719 H 3997.72 -1.22665 -4.24742 0
M  V30 41720 N 3996.78 0.985565 -1.22981 0
M  V30 41721 C 3997.71 2.09517 -1.03077 0
M  V30 41722 C 3998.69 1.70025 0.0506726 0
M  V30 41723 O 3999.88 1.93871 -0.112972 0
M  V30 41724 C 3997.01 3.418 -0.615638 0
M  V30 41725 C 3995.96 3.95173 -1.64384 0
M  V30 41726 C 3995.29 5.2359 -1.08432 0
M  V30 41727 C 3996.59 4.25026 -3.03562 0
M  V30 41728 H 3998.28 2.26427 -1.95886 0
M  V30 41729 H 3995.83 1.08808 -0.943225 0
M  V30 41730 H 3997.78 4.18844 -0.463467 0
M  V30 41731 H 3996.51 3.24739 0.348128 0
M  V30 41732 H 3995.16 3.20269 -1.78391 0
M  V30 41733 H 3994.81 5.02876 -0.111685 0
M  V30 41734 H 3994.51 5.60267 -1.77128 0
M  V30 41735 H 3996.04 6.0326 -0.943886 0
M  V30 41736 H 3997.45 4.92839 -2.92886 0
M  V30 41737 H 3995.85 4.72892 -3.69449 0
M  V30 41738 H 3996.92 3.32505 -3.52943 0
M  V30 41739 N 3998.26 1.04068 1.18353 0
M  V30 41740 C 3999.68 0.759922 1.40347 0
M  V30 41741 C 3999.88 -0.65054 1.9071 0
M  V30 41742 O 3998.93 -1.41474 2.09145 0
M  V30 41743 C 4000.25 1.80603 2.40423 0
M  V30 41744 C 4001.79 1.82694 2.54149 0
M  V30 41745 C 4002.27 2.86297 3.57489 0
M  V30 41746 N 4003.76 2.85188 3.64996 0
M  V30 41747 C 4004.49 3.62002 4.44682 0
M  V30 41748 N 4003.99 4.48568 5.27976 0
M  V30 41749 N 4005.78 3.50492 4.39445 0
M  V30 41750 H 3997.93 1.95089 0.83989 0
M  V30 41751 H 4000.2 0.844116 0.431477 0
M  V30 41752 H 3999.9 2.81774 2.10466 0
M  V30 41753 H 3999.78 1.63818 3.3977 0
M  V30 41754 H 4002.16 0.821939 2.83422 0
M  V30 41755 H 4002.25 2.03555 1.54915 0
M  V30 41756 H 4001.89 3.86976 3.28956 0
M  V30 41757 H 4001.82 2.6269 4.56401 0
M  V30 41758 H 4004.31 2.22412 3.05518 0
M  V30 41759 H 4004.62 5.03891 5.8593 0
M  V30 41760 H 4002.97 4.52635 5.27396 0
M  V30 41761 H 4006.16 2.82266 3.73421 0
M  V30 41762 H 4006.33 4.10605 5.01306 0
M  V30 41763 N 3999.74 -1.34578 0.820149 0
M  V30 41764 C 4001.15 -1.80788 0.466096 0
M  V30 41765 C 4001.5 -1.68011 -1.01324 0
M  V30 41766 O 4000.63 -1.21852 -1.78833 0
M  V30 41767 C 4001.22 -3.28241 0.83925 0
M  V30 41768 C 3999.78 -3.72541 0.537605 0
M  V30 41769 C 3998.93 -2.56338 1.05764 0
M  V30 41770 H 4001.88 -1.22365 1.01057 0
M  V30 41771 H 4001.9 -3.80235 0.141963 0
M  V30 41772 H 4001.41 -3.37508 1.91598 0
M  V30 41773 H 3999.51 -3.68814 -0.52983 0
M  V30 41774 H 3999.62 -4.66775 1.07973 0
M  V30 41775 H 3997.99 -2.50149 0.479319 0
M  V30 41776 H 3998.77 -2.68377 2.14076 0
M  V30 41777 N 4001.22 -0.574861 -1.46742 0
M  V30 41778 C 4002.63 -0.235938 -1.57846 0
M  V30 41779 C 4002.83 1.26172 -1.57108 0
M  V30 41780 O 4001.89 2.04299 -1.48386 0
M  V30 41781 C 4003.2 -0.878209 -2.8759 0
M  V30 41782 C 4004.75 -0.851071 -3.01207 0
M  V30 41783 C 4005.22 -1.47274 -4.33676 0
M  V30 41784 N 4006.72 -1.43672 -4.40355 0
M  V30 41785 C 4007.45 -1.88719 -5.41454 0
M  V30 41786 N 4006.95 -2.41703 -6.4927 0
M  V30 41787 N 4008.74 -1.79683 -5.32607 0
M  V30 41788 H 4000.89 -1.54769 -1.45466 0
M  V30 41789 H 4003.15 -0.646453 -0.693399 0
M  V30 41790 H 4002.86 -1.93144 -2.93919 0
M  V30 41791 H 4002.73 -0.381731 -3.75263 0
M  V30 41792 H 4005.12 0.193521 -2.94465 0
M  V30 41793 H 4005.2 -1.38549 -2.1503 0
M  V30 41794 H 4004.85 -2.51649 -4.41175 0
M  V30 41795 H 4004.78 -0.913611 -5.18614 0
M  V30 41796 H 4007.27 -1.04934 -3.63039 0
M  V30 41797 H 4007.58 -2.73954 -7.22613 0
M  V30 41798 H 4005.92 -2.45725 -6.50111 0
M  V30 41799 H 4009.12 -1.38053 -4.47279 0
M  V30 41800 H 4009.29 -2.15106 -6.11255 0
M  V30 41801 N 4002.69 1.54476 -0.312224 0
M  V30 41802 C 4003.64 2.25394 0.57449 0
M  V30 41803 C 4004.64 1.26394 1.12787 0
M  V30 41804 O 4005.84 1.44208 1.07722 0
M  V30 41805 H 4002.22 0.723832 0.203891 0
M  V30 41806 H 4004.19 2.98364 -0.0460443 0
M  V30 41807 C 4002.94 3.01642 1.72937 0
M  V30 41808 H 4002.26 3.77632 1.31279 0
M  V30 41809 H 4003.7 3.54528 2.32564 0
M  V30 41810 C 4002.16 2.0927 2.64022 0
M  V30 41811 O 4002.69 1.66809 3.65428 0
M  V30 41812 N 4000.9 1.74993 2.32004 0
M  V30 41813 H 4000.44 2.0972 1.49584 0
M  V30 41814 H 4000.4 1.13465 2.93211 0
M  V30 41815 N 4004.17 0.0401637 1.57549 0
M  V30 41816 C 4005.12 -0.937976 2.10881 0
M  V30 41817 C 4006.09 -1.31595 1.0135 0
M  V30 41818 O 4007.27 -1.40735 1.28835 0
M  V30 41819 C 4004.41 -2.21133 2.64942 0
M  V30 41820 C 4003.53 -1.88882 3.8852 0
M  V30 41821 C 4002.66 -3.10594 4.30935 0
M  V30 41822 C 4001.7 -2.74213 5.47242 0
M  V30 41823 N 4000.84 -3.88584 5.84762 0
M  V30 41824 H 4005.68 -0.476276 2.94169 0
M  V30 41825 H 4003.22 -0.223477 1.45393 0
M  V30 41826 H 4005.17 -2.95628 2.9438 0
M  V30 41827 H 4003.8 -2.64899 1.84467 0
M  V30 41828 H 4002.86 -1.04582 3.65741 0
M  V30 41829 H 4004.17 -1.58095 4.73083 0
M  V30 41830 H 4003.32 -3.93399 4.61868 0
M  V30 41831 H 4002.06 -3.4455 3.45161 0
M  V30 41832 H 4001.07 -1.89822 5.15992 0
M  V30 41833 H 4002.29 -2.4146 6.34723 0
M  V30 41834 H 4000.24 -4.22362 5.01942 0
M  V30 41835 H 4000.15 -3.61459 6.63991 0
M  V30 41836 H 4001.42 -4.72061 6.20305 0
M  V30 41837 N 4005.65 -1.55866 -0.233109 0
M  V30 41838 C 4007.07 -1.48599 -0.582278 0
M  V30 41839 C 4007.27 -0.733049 -1.87693 0
M  V30 41840 O 4006.32 -0.268003 -2.51074 0
M  V30 41841 C 4007.64 -2.9309 -0.672218 0
M  V30 41842 C 4009.18 -3.03542 -0.763623 0
M  V30 41843 C 4009.66 -4.49368 -0.885008 0
M  V30 41844 N 4011.15 -4.53363 -0.949527 0
M  V30 41845 C 4011.88 -5.63461 -1.06296 0
M  V30 41846 N 4011.38 -6.83339 -1.14106 0
M  V30 41847 N 4013.17 -5.51288 -1.09719 0
M  V30 41848 H 4005.32 -2.03253 0.616604 0
M  V30 41849 H 4007.59 -0.92335 0.214778 0
M  V30 41850 H 4007.29 -3.51077 0.209291 0
M  V30 41851 H 4007.17 -3.44347 -1.53964 0
M  V30 41852 H 4009.55 -2.45627 -1.63558 0
M  V30 41853 H 4009.64 -2.55473 0.129236 0
M  V30 41854 H 4009.28 -5.07897 -0.0175548 0
M  V30 41855 H 4009.21 -4.95131 -1.79311 0
M  V30 41856 H 4011.7 -3.67028 -0.899953 0
M  V30 41857 H 4012.01 -7.62996 -1.22706 0
M  V30 41858 H 4010.36 -6.86072 -1.11039 0
M  V30 41859 H 4013.55 -4.56565 -1.03275 0
M  V30 41860 H 4013.72 -6.37126 -1.18214 0
M  V30 41861 N 4007.13 0.499346 -1.4948 0
M  V30 41862 C 4008.55 0.830668 -1.36279 0
M  V30 41863 C 4008.75 1.97547 -0.397151 0
M  V30 41864 O 4007.8 2.51923 0.170569 0
M  V30 41865 C 4009.11 1.16932 -2.77033 0
M  V30 41866 C 4010.66 1.27743 -2.85746 0
M  V30 41867 C 4011.14 1.64936 -4.2727 0
M  V30 41868 N 4012.63 1.71982 -4.30089 0
M  V30 41869 C 4013.36 2.02209 -5.36562 0
M  V30 41870 N 4012.86 2.30648 -6.53279 0
M  V30 41871 N 4014.65 2.03474 -5.2398 0
M  V30 41872 H 4006.8 -0.255534 -2.10857 0
M  V30 41873 H 4009.07 -0.0517351 -0.946587 0
M  V30 41874 H 4008.77 0.401468 -3.49401 0
M  V30 41875 H 4008.65 2.11236 -3.12504 0
M  V30 41876 H 4011.03 2.036 -2.13614 0
M  V30 41877 H 4011.11 0.314857 -2.53855 0
M  V30 41878 H 4010.76 0.896296 -4.99929 0
M  V30 41879 H 4010.69 2.62297 -4.56627 0
M  V30 41880 H 4013.18 1.52158 -3.45914 0
M  V30 41881 H 4013.49 2.52905 -7.30246 0
M  V30 41882 H 4011.84 2.28101 -6.56502 0
M  V30 41883 H 4015.03 1.80733 -4.31802 0
M  V30 41884 H 4015.2 2.26696 -6.07053 0
M  V30 41885 N 4008.61 1.38582 0.750513 0
M  V30 41886 C 4009.56 1.3256 1.85504 0
M  V30 41887 C 4010.54 0.209303 1.59533 0
M  V30 41888 O 4011.73 0.445537 1.71301 0
M  V30 41889 C 4008.86 1.15603 3.2325 0
M  V30 41890 C 4007.95 2.31868 3.55103 0
M  V30 41891 N 4008.34 3.57316 3.57993 0
M  V30 41892 C 4006.64 2.24487 3.85385 0
M  V30 41893 C 4007.34 4.3411 3.872 0
M  V30 41894 N 4006.31 3.63503 4.04186 0
M  V30 41895 H 4010.12 2.27538 1.86021 0
M  V30 41896 H 4007.63 1.31858 0.948015 0
M  V30 41897 H 4009.63 1.09372 4.02298 0
M  V30 41898 H 4008.29 0.215613 3.23983 0
M  V30 41899 H 4009.3 3.90946 3.39679 0
M  V30 41900 H 4005.98 1.38622 3.93815 0
M  V30 41901 H 4007.37 5.42778 3.96033 0
M  V30 41902 N 4010.09 -0.979029 1.23502 0
M  V30 41903 C 4011.33 -1.72305 1.06952 0
M  V30 41904 C 4011.66 -1.90193 -0.392458 0
M  V30 41905 O 4010.94 -1.4552 -1.29051 0
M  V30 41906 C 4011.22 -3.12052 1.7971 0
M  V30 41907 C 4011.08 -3.01726 3.33589 0
M  V30 41908 C 4012.39 -4.11498 1.56069 0
M  V30 41909 H 4009.51 -0.6254 0.389928 0
M  V30 41910 H 4012.16 -1.13968 1.52024 0
M  V30 41911 H 4010.31 -3.61856 1.41396 0
M  V30 41912 H 4011.98 -2.59436 3.81432 0
M  V30 41913 H 4010.22 -2.382 3.62551 0
M  V30 41914 H 4010.89 -4.00676 3.79688 0
M  V30 41915 H 4013.37 -3.70508 1.89376 0
M  V30 41916 H 4012.24 -5.07367 2.09451 0
M  V30 41917 H 4012.5 -4.39305 0.496353 0
M  V30 41918 N 4011.56 -1.04695 -1.178 0
M  V30 41919 C 4012.79 -0.77428 -1.91866 0
M  V30 41920 C 4013.21 0.669394 -1.76535 0
M  V30 41921 O 4012.56 1.45686 -1.09917 0
M  V30 41922 C 4012.61 -1.1391 -3.43084 0
M  V30 41923 O 4012.34 -2.5261 -3.57938 0
M  V30 41924 C 4013.84 -0.891843 -4.34236 0
M  V30 41925 H 4011.06 -0.281893 -0.608915 0
M  V30 41926 H 4013.6 -1.39629 -1.49412 0
M  V30 41927 H 4011.76 -0.561931 -3.83303 0
M  V30 41928 H 4012.17 -2.66764 -4.51594 0
M  V30 41929 H 4013.64 -1.1969 -5.38868 0
M  V30 41930 H 4014.12 0.173152 -4.38859 0
M  V30 41931 H 4014.73 -1.45261 -3.99724 0
M  V30 41932 N 4013.04 1.34141 -0.827275 0
M  V30 41933 C 4013.97 2.31968 -0.267056 0
M  V30 41934 C 4014.95 1.58442 0.618878 0
M  V30 41935 O 4016.14 1.864 0.544849 0
M  V30 41936 C 4013.27 3.42618 0.568319 0
M  V30 41937 C 4012.22 4.2743 -0.220842 0
M  V30 41938 C 4011.55 5.29589 0.73755 0
M  V30 41939 C 4012.85 5.02301 -1.43146 0
M  V30 41940 H 4014.54 2.79071 -1.08441 0
M  V30 41941 H 4012.09 1.34171 -0.522903 0
M  V30 41942 H 4014.04 4.10073 0.970453 0
M  V30 41943 H 4012.76 2.94174 1.41877 0
M  V30 41944 H 4011.42 3.61583 -0.604397 0
M  V30 41945 H 4011.07 4.77406 1.58408 0
M  V30 41946 H 4010.77 5.87211 0.213712 0
M  V30 41947 H 4012.3 5.99912 1.13745 0
M  V30 41948 H 4013.71 5.62587 -1.10311 0
M  V30 41949 H 4012.11 5.69519 -1.89125 0
M  V30 41950 H 4013.18 4.31744 -2.20737 0
M  V30 41951 N 4014.52 0.582635 1.46435 0
M  V30 41952 C 4015.93 0.156044 1.86047 0
M  V30 41953 C 4016.28 -1.28086 1.48621 0
M  V30 41954 O 4015.41 -1.96748 0.901074 0
M  V30 41955 C 4016 0.276417 3.37671 0
M  V30 41956 C 4014.56 -0.095302 3.76279 0
M  V30 41957 C 4013.71 0.612396 2.70453 0
M  V30 41958 H 4016.66 0.790859 1.3759 0
M  V30 41959 H 4016.68 -0.498245 3.77224 0
M  V30 41960 H 4016.19 1.32232 3.64879 0
M  V30 41961 H 4014.29 -1.14134 3.54689 0
M  V30 41962 H 4014.41 0.280965 4.78275 0
M  V30 41963 H 4012.77 0.052663 2.54646 0
M  V30 41964 H 4013.55 1.65994 3.00501 0
M  V30 41965 N 4016 -1.54309 0.320412 0
M  V30 41966 C 4017.22 -2.05392 -0.287904 0
M  V30 41967 C 4017.65 -1.19519 -1.45247 0
M  V30 41968 O 4017.01 -0.203588 -1.80153 0
M  V30 41969 C 4017.05 -3.53677 -0.703199 0
M  V30 41970 O 4016.16 -3.70757 -1.80592 0
M  V30 41971 H 4015.5 -0.661915 -0.0525773 0
M  V30 41972 H 4018.03 -1.99178 0.467905 0
M  V30 41973 H 4018.04 -3.95889 -0.986723 0
M  V30 41974 H 4016.71 -4.15634 0.148587 0
M  V30 41975 H 4015.29 -3.4045 -1.52144 0
M  V30 41976 N 4017.48 -0.0485183 -1.57525 0
M  V30 41977 C 4018.7 0.639027 -1.9731 0
M  V30 41978 C 4019.13 1.6374 -0.925782 0
M  V30 41979 O 4018.48 1.80958 0.111272 0
M  V30 41980 C 4018.53 1.30469 -3.3617 0
M  V30 41981 O 4017.64 2.42032 -3.33907 0
M  V30 41982 H 4016.98 0.16634 -0.642827 0
M  V30 41983 H 4019.51 -0.116131 -2.0427 0
M  V30 41984 H 4019.52 1.65699 -3.72838 0
M  V30 41985 H 4018.19 0.572985 -4.11934 0
M  V30 41986 H 4016.77 2.0877 -3.08982 0
M  V30 41987 N 4018.95 1.55988 0.224839 0
M  V30 41988 C 4020.36 1.69064 0.792108 0
M  V30 41989 C 4020.72 0.649941 1.85122 0
M  V30 41990 O 4019.84 -0.199576 2.15478 0
M  V30 41991 C 4020.44 3.06508 1.44355 0
M  V30 41992 C 4018.99 3.21449 1.95825 0
M  V30 41993 C 4018.14 2.64984 0.817234 0
M  V30 41994 H 4021.09 1.587 0.000242937 0
M  V30 41995 H 4021.11 3.02182 2.31227 0
M  V30 41996 H 4020.63 3.82229 0.672477 0
M  V30 41997 H 4018.73 2.50591 2.75745 0
M  V30 41998 H 4018.84 4.28626 2.14048 0
M  V30 41999 H 4017.2 2.23379 1.22367 0
M  V30 42000 H 4017.99 3.43249 0.0588836 0
M  V30 42001 N 4020.43 -0.491412 1.49743 0
M  V30 42002 C 4021.85 -0.823429 1.36718 0
M  V30 42003 C 4022.05 -1.97334 0.407622 0
M  V30 42004 O 4021.1 -2.5201 -0.157207 0
M  V30 42005 C 4022.42 -1.15461 2.77649 0
M  V30 42006 C 4023.96 -1.26226 2.86419 0
M  V30 42007 C 4024.44 -1.62668 4.28139 0
M  V30 42008 N 4025.93 -1.69699 4.30995 0
M  V30 42009 C 4026.67 -1.9936 5.37627 0
M  V30 42010 N 4026.16 -2.2718 6.54493 0
M  V30 42011 N 4027.95 -2.00692 5.25052 0
M  V30 42012 H 4020.11 0.266713 2.10719 0
M  V30 42013 H 4022.37 0.0567543 0.9463 0
M  V30 42014 H 4022.07 -0.382933 3.49609 0
M  V30 42015 H 4021.95 -2.09576 3.1362 0
M  V30 42016 H 4024.34 -2.02464 2.14691 0
M  V30 42017 H 4024.42 -0.30139 2.54018 0
M  V30 42018 H 4024.06 -0.869771 5.00397 0
M  V30 42019 H 4023.99 -2.59871 4.58011 0
M  V30 42020 H 4026.48 -1.50321 3.46716 0
M  V30 42021 H 4026.79 -2.49029 7.31577 0
M  V30 42022 H 4025.14 -2.24616 6.57703 0
M  V30 42023 H 4028.33 -1.78441 4.32754 0
M  V30 42024 H 4028.5 -2.23474 6.08246 0
M  V30 42025 N 4021.91 -1.38978 -0.743153 0
M  V30 42026 C 4023.14 -1.39196 -1.53751 0
M  V30 42027 C 4023.56 0.013626 -1.88095 0
M  V30 42028 O 4022.92 0.998482 -1.51328 0
M  V30 42029 C 4022.97 -2.26394 -2.80675 0
M  V30 42030 O 4022.07 -1.68821 -3.76262 0
M  V30 42031 H 4021.41 -0.474357 -0.464631 0
M  V30 42032 H 4023.94 -1.82872 -0.917547 0
M  V30 42033 H 4023.95 -2.4062 -3.29493 0
M  V30 42034 H 4022.63 -3.28547 -2.55009 0
M  V30 42035 H 4021.2 -1.63794 -3.35002 0
M  V30 42036 N 4023.39 0.972465 -1.2402 0
M  V30 42037 C 4024.34 2.0875 -1.02597 0
M  V30 42038 C 4025.33 1.69358 0.037583 0
M  V30 42039 O 4026.54 1.79622 -0.11658 0
M  V30 42040 H 4022.91 0.682973 -0.314725 0
M  V30 42041 H 4024.88 2.23982 -1.97167 0
M  V30 42042 C 4023.63 3.41715 -0.642358 0
M  V30 42043 H 4022.95 3.72482 -1.45249 0
M  V30 42044 H 4024.39 4.20649 -0.532038 0
M  V30 42045 C 4022.85 3.30568 0.650115 0
M  V30 42046 O 4023.38 3.64088 1.69713 0
M  V30 42047 N 4021.59 2.8371 0.629035 0
M  V30 42048 H 4021.14 2.5663 -0.223348 0
M  V30 42049 H 4021.09 2.76634 1.49402 0
M  V30 42050 N 4024.87 1.05318 1.17243 0
M  V30 42051 C 4026.09 0.784444 1.91453 0
M  V30 42052 C 4026.51 -0.660022 1.76887 0
M  V30 42053 O 4025.87 -1.45101 1.10688 0
M  V30 42054 C 4025.92 1.15728 3.42475 0
M  V30 42055 O 4025.64 2.54505 3.56594 0
M  V30 42056 C 4027.14 0.91486 4.33757 0
M  V30 42057 H 4024.36 0.285118 0.607411 0
M  V30 42058 H 4026.9 1.4042 1.48669 0
M  V30 42059 H 4025.06 0.58225 3.82999 0
M  V30 42060 H 4025.47 2.69155 4.50173 0
M  V30 42061 H 4026.95 1.22546 5.38225 0
M  V30 42062 H 4027.42 -0.149876 4.38944 0
M  V30 42063 H 4028.03 1.47379 3.98948 0
M  V30 42064 N 4026.34 -1.33701 0.834377 0
M  V30 42065 C 4027.76 -1.80284 0.485245 0
M  V30 42066 C 4028.11 -1.69077 -0.995367 0
M  V30 42067 O 4027.23 -1.23742 -1.7753 0
M  V30 42068 C 4027.83 -3.27332 0.874017 0
M  V30 42069 C 4026.39 -3.7195 0.577088 0
M  V30 42070 C 4025.53 -2.55202 1.08477 0
M  V30 42071 H 4028.48 -1.21286 1.0235 0
M  V30 42072 H 4028.5 -3.80063 0.182284 0
M  V30 42073 H 4028.02 -3.35457 1.95167 0
M  V30 42074 H 4026.12 -3.69355 -0.490682 0
M  V30 42075 H 4026.23 -4.65603 1.12917 0
M  V30 42076 H 4024.59 -2.49627 0.505823 0
M  V30 42077 H 4025.38 -2.66091 2.16911 0
M  V30 42078 N 4027.82 -0.590393 -1.46124 0
M  V30 42079 C 4028.76 0.186957 -2.27433 0
M  V30 42080 C 4029.73 0.889752 -1.36096 0
M  V30 42081 O 4030.92 0.902094 -1.65513 0
M  V30 42082 C 4028.04 1.26894 -3.14031 0
M  V30 42083 C 4027.09 0.671149 -4.21186 0
M  V30 42084 S 4027.92 -0.50786 -5.33086 0
M  V30 42085 C 4029.08 0.575133 -6.23252 0
M  V30 42086 H 4029.31 -0.502924 -2.93015 0
M  V30 42087 H 4026.85 -0.377474 -1.49715 0
M  V30 42088 H 4028.8 1.88839 -3.64486 0
M  V30 42089 H 4027.46 1.93081 -2.47747 0
M  V30 42090 H 4026.66 1.4847 -4.81636 0
M  V30 42091 H 4026.26 0.127206 -3.73784 0
M  V30 42092 H 4028.55 1.45879 -6.61608 0
M  V30 42093 H 4029.49 0.00721407 -7.081 0
M  V30 42094 H 4029.9 0.882733 -5.57555 0
M  V30 42095 N 4029.3 1.54136 -0.328591 0
M  V30 42096 C 4030.55 2.00262 0.271932 0
M  V30 42097 C 4030.87 1.2183 1.52258 0
M  V30 42098 O 4030.14 0.321449 1.93245 0
M  V30 42099 H 4028.72 0.739799 0.103471 0
M  V30 42100 H 4031.38 1.89721 -0.446297 0
M  V30 42101 H 4030.48 3.07656 0.524826 0
M  V30 42102 N 4030.78 0.0568716 1.57497 0
M  V30 42103 C 4032.06 -0.655815 1.84278 0
M  V30 42104 C 4032.44 -1.88696 0.946413 0
M  V30 42105 O 4031.78 -2.28498 0.00888906 0
M  V30 42106 C 4031.99 -1.00769 3.34136 0
M  V30 42107 C 4033.34 -1.38755 4.01288 0
M  V30 42108 O 4034.37 -1.09986 3.38794 0
M  V30 42109 O 4033.22 -1.9247 5.11486 0
M  V30 42110 H 4030.32 -0.324261 0.760778 0
M  V30 42111 H 4032.86 0.0866686 1.69479 0
M  V30 42112 H 4031.64 -0.132649 3.91075 0
M  V30 42113 H 4031.26 -1.80743 3.54144 0
M  V30 42114 N 4032.26 -1.56105 -0.216564 0
M  V30 42115 C 4033.2 -1.92821 -1.26841 0
M  V30 42116 C 4034.17 -0.786024 -1.46325 0
M  V30 42117 O 4035.36 -1.04235 -1.59811 0
M  V30 42118 C 4032.5 -2.25457 -2.61272 0
M  V30 42119 C 4031.61 -3.52634 -2.49546 0
M  V30 42120 C 4030.75 -3.74693 -3.76535 0
M  V30 42121 C 4029.79 -4.95368 -3.59551 0
M  V30 42122 N 4028.92 -5.13791 -4.78501 0
M  V30 42123 H 4033.76 -2.82509 -0.948291 0
M  V30 42124 H 4031.3 -1.39823 -0.456928 0
M  V30 42125 H 4033.26 -2.4239 -3.39563 0
M  V30 42126 H 4031.89 -1.38936 -2.9137 0
M  V30 42127 H 4030.94 -3.43867 -1.62664 0
M  V30 42128 H 4032.25 -4.41078 -2.3292 0
M  V30 42129 H 4031.41 -3.91749 -4.63268 0
M  V30 42130 H 4030.14 -2.84539 -3.96092 0
M  V30 42131 H 4029.15 -4.78257 -2.71202 0
M  V30 42132 H 4030.37 -5.87011 -3.4146 0
M  V30 42133 H 4028.32 -4.2658 -4.98362 0
M  V30 42134 H 4028.24 -5.96376 -4.6462 0
M  V30 42135 H 4029.51 -5.35287 -5.66647 0
M  V30 42136 N 4033.73 0.483463 -1.50001 0
M  V30 42137 C 4035.01 1.24476 -1.50881 0
M  V30 42138 C 4035.39 2.09657 -0.24643 0
M  V30 42139 O 4034.74 2.15113 0.770623 0
M  V30 42140 C 4034.95 2.08643 -2.79766 0
M  V30 42141 C 4036.3 2.67247 -3.29945 0
M  V30 42142 O 4037.32 2.18897 -2.81003 0
M  V30 42143 O 4036.18 3.55312 -4.1523 0
M  V30 42144 H 4033.27 0.564195 -0.604659 0
M  V30 42145 H 4035.82 0.496297 -1.62281 0
M  V30 42146 H 4034.59 1.45793 -3.63126 0
M  V30 42147 H 4034.22 2.90648 -2.71311 0
M  V30 42148 N 4035.21 1.39371 0.735772 0
M  V30 42149 C 4036.49 1.27062 1.4871 0
M  V30 42150 C 4036.87 -0.120137 2.10758 0
M  V30 42151 O 4036.22 -1.13129 1.9853 0
M  V30 42152 C 4036.43 2.39435 2.53913 0
M  V30 42153 C 4037.78 2.78715 3.20318 0
M  V30 42154 O 4038.8 2.38879 2.64226 0
M  V30 42155 O 4037.66 3.47471 4.21813 0
M  V30 42156 H 4034.75 0.497891 0.660329 0
M  V30 42157 H 4037.3 1.51242 0.769663 0
M  V30 42158 H 4036.07 3.32414 2.06438 0
M  V30 42159 H 4035.69 2.16915 3.33217 0
M  V30 42160 N 4036.69 -0.965875 1.24534 0
M  V30 42161 C 4037.97 -1.68456 0.994076 0
M  V30 42162 C 4038.35 -2.05498 -0.483078 0
M  V30 42163 O 4037.7 -1.75955 -1.45781 0
M  V30 42164 C 4037.91 -2.9152 1.91877 0
M  V30 42165 C 4039.25 -3.6372 2.19072 0
M  V30 42166 O 4040.28 -3.01581 1.89545 0
M  V30 42167 O 4039.14 -4.75584 2.69225 0
M  V30 42168 H 4036.23 -0.736533 0.376096 0
M  V30 42169 H 4038.78 -1.0198 1.3564 0
M  V30 42170 H 4037.55 -2.60853 2.9167 0
M  V30 42171 H 4037.17 -3.6573 1.55973 0
M  V30 42172 N 4038.17 -1.05938 -1.16683 0
M  V30 42173 C 4039.45 -0.687532 -1.83118 0
M  V30 42174 C 4039.83 0.83144 -1.94037 0
M  V30 42175 O 4039.17 1.74033 -1.4807 0
M  V30 42176 C 4039.38 -1.38529 -3.20329 0
M  V30 42177 C 4040.73 -1.52818 -3.96146 0
M  V30 42178 O 4041.76 -1.34491 -3.29834 0
M  V30 42179 O 4040.62 -1.82854 -5.15002 0
M  V30 42180 H 4037.71 -0.24295 -0.790509 0
M  V30 42181 H 4040.26 -1.15943 -1.23916 0
M  V30 42182 H 4039.03 -2.42123 -3.07395 0
M  V30 42183 H 4038.65 -0.903232 -3.87205 0
M  V30 42184 N 4039.65 1.33256 -0.841456 0
M  V30 42185 C 4040.92 1.92254 -0.360238 0
M  V30 42186 C 4041.3 1.76719 1.15471 0
M  V30 42187 O 4040.65 1.15716 1.97033 0
M  V30 42188 C 4040.86 3.3947 -0.810002 0
M  V30 42189 C 4042.21 4.16616 -0.819517 0
M  V30 42190 O 4043.23 3.48133 -0.753776 0
M  V30 42191 O 4042.09 5.38876 -0.909648 0
M  V30 42192 H 4039.19 0.820627 -0.102473 0
M  V30 42193 H 4041.73 1.42112 -0.92748 0
M  V30 42194 H 4040.51 3.44661 -1.85269 0
M  V30 42195 H 4040.13 3.96994 -0.219476 0
M  V30 42196 N 4041.13 0.598134 1.45809 0
M  V30 42197 C 4042.4 0.022072 1.95588 0
M  V30 42198 C 4042.78 -1.44313 1.54068 0
M  V30 42199 O 4042.13 -2.14086 0.7987 0
M  V30 42200 C 4042.34 0.210265 3.48366 0
M  V30 42201 C 4043.69 0.086122 4.24513 0
M  V30 42202 O 4044.71 0.139895 3.55925 0
M  V30 42203 O 4043.57 -0.0367001 5.46488 0
M  V30 42204 H 4040.67 -0.0410978 0.825978 0
M  V30 42205 H 4043.21 0.667534 1.56019 0
M  V30 42206 H 4041.98 1.22824 3.71524 0
M  V30 42207 H 4041.61 -0.470905 3.94802 0
M  V30 42208 N 4042.6 -1.5396 0.33676 0
M  V30 42209 C 4043.88 -1.93018 -0.31676 0
M  V30 42210 C 4044.26 -1.26767 -1.68799 0
M  V30 42211 O 4043.61 -0.416133 -2.24679 0
M  V30 42212 C 4043.82 -3.46748 -0.395817 0
M  V30 42213 C 4045.17 -4.19597 -0.649873 0
M  V30 42214 O 4046.19 -3.52975 -0.478208 0
M  V30 42215 O 4045.05 -5.37606 -0.981941 0
M  V30 42216 H 4042.14 -0.806401 -0.183428 0
M  V30 42217 H 4044.69 -1.65218 0.387441 0
M  V30 42218 H 4043.46 -3.87174 0.566718 0
M  V30 42219 H 4043.08 -3.80694 -1.14707 0
M  V30 42220 N 4044.08 -0.0652232 -1.57465 0
M  V30 42221 C 4045.04 0.889597 -2.11232 0
M  V30 42222 C 4046.04 1.2307 -1.03491 0
M  V30 42223 O 4047.23 1.16506 -1.29507 0
M  V30 42224 C 4044.37 2.1951 -2.60822 0
M  V30 42225 H 4045.56 0.423249 -2.96898 0
M  V30 42226 H 4043.11 0.18339 -1.5522 0
M  V30 42227 H 4043.85 2.70696 -1.7859 0
M  V30 42228 H 4043.63 1.96051 -3.39568 0
M  V30 42229 H 4045.12 2.87876 -3.02518 0
M  V30 42230 N 4045.56 1.56218 0.208282 0
M  V30 42231 C 4046.84 1.70657 0.955808 0
M  V30 42232 C 4047.22 0.616276 2.01904 0
M  V30 42233 O 4046.56 -0.374754 2.25406 0
M  V30 42234 C 4046.77 3.12482 1.55421 0
M  V30 42235 C 4048.12 3.72306 2.0414 0
M  V30 42236 O 4049.15 3.15528 1.6529 0
M  V30 42237 O 4048.01 4.71925 2.75588 0
M  V30 42238 H 4045.1 0.695561 0.447352 0
M  V30 42239 H 4047.65 1.68529 0.199017 0
M  V30 42240 H 4046.42 3.83301 0.787157 0
M  V30 42241 H 4046.04 3.18783 2.37619 0
M  V30 42242 N 4047.04 -0.475502 1.50256 0
M  V30 42243 C 4047.95 -1.59997 1.71576 0
M  V30 42244 C 4048.96 -1.63373 0.598777 0
M  V30 42245 O 4050.14 -1.81323 0.876576 0
M  V30 42246 C 4047.2 -2.96238 1.80123 0
M  V30 42247 C 4046.27 -3.03285 3.03836 0
M  V30 42248 C 4045.5 -4.33028 3.11966 0
M  V30 42249 O 4045.72 -5.23283 2.27004 0
M  V30 42250 O 4044.66 -4.45576 4.04655 0
M  V30 42251 H 4048.48 -1.44932 2.66886 0
M  V30 42252 H 4046.07 -0.65453 1.34299 0
M  V30 42253 H 4047.95 -3.77164 1.8795 0
M  V30 42254 H 4046.62 -3.1151 0.879951 0
M  V30 42255 H 4045.53 -2.21453 3.01512 0
M  V30 42256 H 4046.86 -2.92948 3.95528 0
M  V30 42257 N 4048.52 -1.39759 -0.72837 0
M  V30 42258 C 4049.46 -1.39008 -1.84243 0
M  V30 42259 C 4050.43 -0.248812 -1.64226 0
M  V30 42260 O 4051.62 -0.444937 -1.8554 0
M  V30 42261 C 4048.76 -1.24588 -3.21826 0
M  V30 42262 C 4047.87 -2.48315 -3.53502 0
M  V30 42263 C 4047.01 -2.26433 -4.80522 0
M  V30 42264 C 4046.04 -3.45801 -5.05063 0
M  V30 42265 N 4045.18 -3.23195 -6.23289 0
M  V30 42266 H 4050.02 -2.34237 -1.8422 0
M  V30 42267 H 4047.56 -1.16349 -0.900074 0
M  V30 42268 H 4049.52 -1.14238 -4.01255 0
M  V30 42269 H 4048.15 -0.329849 -3.2111 0
M  V30 42270 H 4047.2 -2.69243 -2.68724 0
M  V30 42271 H 4048.51 -3.37204 -3.67553 0
M  V30 42272 H 4047.66 -2.13363 -5.67945 0
M  V30 42273 H 4046.4 -1.34949 -4.68658 0
M  V30 42274 H 4045.41 -3.59362 -4.161 0
M  V30 42275 H 4046.63 -4.38195 -5.18808 0
M  V30 42276 H 4044.58 -2.34381 -6.127 0
M  V30 42277 H 4044.5 -4.05644 -6.37957 0
M  V30 42278 H 4045.76 -3.13832 -7.13533 0
M  V30 42279 N 4049.99 0.959257 -1.25044 0
M  V30 42280 C 4050.93 2.0544 -0.993452 0
M  V30 42281 C 4051.9 1.62424 0.0757137 0
M  V30 42282 O 4053.09 1.88395 -0.0629826 0
M  V30 42283 C 4050.22 3.34976 -0.500851 0
M  V30 42284 C 4049.26 3.96952 -1.55985 0
M  V30 42285 S 4050.09 4.33512 -3.14369 0
M  V30 42286 C 4051.25 5.66172 -2.66833 0
M  V30 42287 H 4051.48 2.26924 -1.92075 0
M  V30 42288 H 4049.02 1.09828 -1.08523 0
M  V30 42289 H 4050.97 4.09892 -0.223279 0
M  V30 42290 H 4049.64 3.11467 0.405877 0
M  V30 42291 H 4048.83 4.90332 -1.16578 0
M  V30 42292 H 4048.43 3.28499 -1.78786 0
M  V30 42293 H 4050.72 6.44077 -2.1017 0
M  V30 42294 H 4051.67 6.10445 -3.58835 0
M  V30 42295 H 4052.07 5.25185 -2.06981 0
M  V30 42296 N 4051.47 1.06556 1.16119 0
M  V30 42297 C 4052.4 0.636656 2.2018 0
M  V30 42298 C 4053.42 -0.306703 1.59885 0
M  V30 42299 O 4054.61 -0.0972787 1.78235 0
M  V30 42300 C 4051.71 -0.0864945 3.3879 0
M  V30 42301 C 4050.88 0.871016 4.2864 0
M  V30 42302 C 4049.94 0.186631 5.25869 0
M  V30 42303 O 4048.96 0.825127 5.63188 0
M  V30 42304 N 4050.17 -1.0708 5.70538 0
M  V30 42305 H 4052.93 1.5318 2.57597 0
M  V30 42306 H 4050.49 0.949208 1.31155 0
M  V30 42307 H 4052.48 -0.554811 4.00879 0
M  V30 42308 H 4051.05 -0.883472 2.99856 0
M  V30 42309 H 4050.27 1.51864 3.63773 0
M  V30 42310 H 4051.56 1.52049 4.8555 0
M  V30 42311 H 4050.96 -1.60963 5.42317 0
M  V30 42312 H 4049.52 -1.48294 6.34706 0
M  V30 42313 N 4052.95 -1.32808 0.848511 0
M  V30 42314 C 4054.18 -2.02194 0.461775 0
M  V30 42315 C 4054.6 -1.6338 -0.932131 0
M  V30 42316 O 4053.96 -0.831295 -1.61119 0
M  V30 42317 C 4054.01 -3.55551 0.601296 0
M  V30 42318 O 4053.11 -4.10751 -0.368476 0
M  V30 42319 H 4052.45 -0.637303 0.18639 0
M  V30 42320 H 4054.98 -1.69493 1.14601 0
M  V30 42321 H 4054.99 -4.05089 0.486528 0
M  V30 42322 H 4053.67 -3.83145 1.6178 0
M  V30 42323 H 4052.24 -3.72306 -0.210459 0
M  V30 42324 N 4054.43 -0.605858 -1.45489 0
M  V30 42325 C 4055.65 -0.104874 -2.07135 0
M  V30 42326 C 4056.08 1.20082 -1.44782 0
M  V30 42327 O 4055.44 1.73074 -0.539906 0
M  V30 42328 C 4055.48 0.0231224 -3.60593 0
M  V30 42329 O 4054.59 1.07379 -3.98175 0
M  V30 42330 H 4053.93 -0.0732807 -0.659944 0
M  V30 42331 H 4056.46 -0.835376 -1.86769 0
M  V30 42332 H 4056.47 0.221892 -4.07396 0
M  V30 42333 H 4055.14 -0.930282 -4.05362 0
M  V30 42334 H 4053.72 0.851625 -3.63045 0
M  V30 42335 N 4055.91 1.53779 -0.34492 0
M  V30 42336 C 4057.15 2.00539 0.250676 0
M  V30 42337 C 4057.48 1.23438 1.50957 0
M  V30 42338 O 4056.75 0.341927 1.92893 0
M  V30 42339 H 4055.33 0.740855 0.0956188 0
M  V30 42340 H 4057.99 1.89237 -0.466394 0
M  V30 42341 H 4057.08 3.08195 0.492166 0
M  V30 42342 N 4057.38 0.0735731 1.57428 0
M  V30 42343 C 4058.63 -0.594715 1.92733 0
M  V30 42344 C 4058.95 -1.70661 0.955723 0
M  V30 42345 O 4060.15 -2.43459 1.20166 0
M  V30 42346 C 4058.61 -1.10921 3.42381 0
M  V30 42347 C 4058.22 -0.028222 4.47991 0
M  V30 42348 C 4059.96 -1.75146 3.86683 0
M  V30 42349 C 4057.87 -0.556862 5.88772 0
M  V30 42350 H 4056.8 -0.225917 0.719359 0
M  V30 42351 H 4059.45 0.146095 1.82917 0
M  V30 42352 H 4057.83 -1.90304 3.47276 0
M  V30 42353 H 4059 0.74642 4.54714 0
M  V30 42354 H 4057.32 0.517908 4.13167 0
M  V30 42355 H 4059.92 -2.15732 4.89248 0
M  V30 42356 H 4060.26 -2.61216 3.24148 0
M  V30 42357 H 4060.79 -1.02382 3.84399 0
M  V30 42358 H 4057.53 0.266717 6.54957 0
M  V30 42359 H 4057.05 -1.29899 5.85565 0
M  V30 42360 H 4058.73 -1.0327 6.38705 0
M  V30 42361 N 4058.86 -1.56326 -0.199995 0
M  V30 42362 C 4060.27 -1.70302 -0.765111 0
M  V30 42363 C 4060.62 -0.67931 -1.84065 0
M  V30 42364 O 4059.75 0.16527 -2.15768 0
M  V30 42365 C 4060.34 -3.08766 -1.39461 0
M  V30 42366 C 4058.9 -3.24524 -1.90686 0
M  V30 42367 C 4058.05 -2.66251 -0.774974 0
M  V30 42368 H 4061 -1.5868 0.0250049 0
M  V30 42369 H 4061.02 -3.05823 -2.26391 0
M  V30 42370 H 4060.53 -3.83251 -0.611582 0
M  V30 42371 H 4058.64 -2.54946 -2.71723 0
M  V30 42372 H 4058.75 -4.31977 -2.07202 0
M  V30 42373 H 4057.11 -2.25298 -1.18798 0
M  V30 42374 H 4057.9 -3.433 -0.00426816 0
M  V30 42375 N 4060.34 0.467527 -1.50506 0
M  V30 42376 C 4061.29 1.58581 -1.70161 0
M  V30 42377 C 4062.28 1.59612 -0.567497 0
M  V30 42378 O 4063.49 1.63718 -0.748091 0
M  V30 42379 H 4059.86 0.526287 -0.537146 0
M  V30 42380 H 4061.83 1.39166 -2.63961 0
M  V30 42381 C 4060.58 2.96494 -1.81623 0
M  V30 42382 H 4059.91 2.96421 -2.68281 0
M  V30 42383 H 4061.35 3.74187 -1.99399 0
M  V30 42384 C 4059.81 3.32066 -0.568678 0
M  V30 42385 O 4060.34 4.00648 0.290539 0
M  V30 42386 N 4058.54 2.87525 -0.421647 0
M  V30 42387 H 4058.09 2.31887 -1.12188 0
M  V30 42388 H 4058.05 3.1169 0.411905 0
M  V30 42389 N 4061.82 1.40143 0.720948 0
M  V30 42390 C 4063.07 1.37858 1.47783 0
M  V30 42391 C 4063.39 -0.0201515 1.9499 0
M  V30 42392 O 4062.66 -0.973956 1.69973 0
M  V30 42393 H 4061.24 0.507359 0.548266 0
M  V30 42394 H 4063.9 1.75145 0.85499 0
M  V30 42395 H 4063 2.0501 2.35323 0
M  V30 42396 N 4063.3 -0.952612 1.25551 0
M  V30 42397 C 4064.54 -1.69411 1.10201 0
M  V30 42398 C 4064.87 -1.91698 -0.357312 0
M  V30 42399 O 4064.14 -1.50552 -1.25343 0
M  V30 42400 H 4062.72 -0.6278 0.404816 0
M  V30 42401 H 4065.38 -1.14521 1.57705 0
M  V30 42402 H 4064.47 -2.67253 1.6119 0
M  V30 42403 N 4064.77 -1.0717 -1.15553 0
M  V30 42404 C 4065.72 -0.660221 -2.18232 0
M  V30 42405 C 4066.71 0.313698 -1.57812 0
M  V30 42406 O 4067.9 0.127721 -1.76539 0
M  V30 42407 C 4065.03 -0.0575974 -3.43252 0
M  V30 42408 C 4064.12 -1.05655 -4.10729 0
M  V30 42409 N 4064.51 -2.23541 -4.53721 0
M  V30 42410 C 4062.8 -0.889467 -4.37041 0
M  V30 42411 C 4063.51 -2.86901 -5.06026 0
M  V30 42412 N 4062.48 -2.14577 -4.99457 0
M  V30 42413 H 4066.28 -1.55811 -2.49199 0
M  V30 42414 H 4063.8 -0.94463 -1.321 0
M  V30 42415 H 4065.79 0.255074 -4.16119 0
M  V30 42416 H 4064.45 0.835436 -3.13768 0
M  V30 42417 H 4065.47 -2.6127 -4.47167 0
M  V30 42418 H 4062.14 -0.0491735 -4.17471 0
M  V30 42419 H 4063.53 -3.86988 -5.49263 0
M  V30 42420 N 4066.25 1.32356 -0.855542 0
M  V30 42421 C 4067.5 1.96488 -0.455577 0
M  V30 42422 C 4067.82 1.68451 0.99416 0
M  V30 42423 O 4069.02 2.26328 1.4996 0
M  V30 42424 C 4067.48 3.51703 -0.763739 0
M  V30 42425 C 4067.09 3.88597 -2.22927 0
M  V30 42426 C 4068.83 4.22301 -0.431541 0
M  V30 42427 C 4066.74 5.36861 -2.4806 0
M  V30 42428 H 4065.67 0.735357 -0.16663 0
M  V30 42429 H 4068.32 1.50737 -1.04645 0
M  V30 42430 H 4066.7 3.95868 -0.102294 0
M  V30 42431 H 4067.87 3.55439 -2.93258 0
M  V30 42432 H 4066.19 3.31026 -2.52607 0
M  V30 42433 H 4068.79 5.3136 -0.596734 0
M  V30 42434 H 4069.13 4.11553 0.626907 0
M  V30 42435 H 4069.66 3.83722 -1.04892 0
M  V30 42436 H 4066.4 5.52631 -3.52533 0
M  V30 42437 H 4065.92 5.71423 -1.82308 0
M  V30 42438 H 4067.6 6.03953 -2.32055 0
M  V30 42439 N 4067.73 0.613565 1.45166 0
M  V30 42440 C 4069.15 0.277705 1.57165 0
M  V30 42441 C 4069.35 -1.21963 1.60398 0
M  V30 42442 O 4068.4 -2.00293 1.5375 0
M  V30 42443 C 4069.72 0.95415 2.8516 0
M  V30 42444 C 4071.26 0.930631 2.98845 0
M  V30 42445 C 4071.74 1.5872 4.29618 0
M  V30 42446 N 4073.23 1.55297 4.36391 0
M  V30 42447 C 4073.97 2.03008 5.3626 0
M  V30 42448 N 4073.46 2.58833 6.42633 0
M  V30 42449 N 4075.25 1.93741 5.27656 0
M  V30 42450 H 4067.41 1.58571 1.41311 0
M  V30 42451 H 4069.67 0.66461 0.676016 0
M  V30 42452 H 4069.37 2.00869 2.88694 0
M  V30 42453 H 4069.25 0.481091 3.74119 0
M  V30 42454 H 4071.64 -0.115381 2.94874 0
M  V30 42455 H 4071.72 1.44201 2.11281 0
M  V30 42456 H 4071.36 2.63257 4.34348 0
M  V30 42457 H 4071.29 1.05079 5.1601 0
M  V30 42458 H 4073.78 1.14522 3.60129 0
M  V30 42459 H 4074.09 2.93017 7.15095 0
M  V30 42460 H 4072.44 2.62875 6.43368 0
M  V30 42461 H 4075.63 1.49864 4.43462 0
M  V30 42462 H 4075.8 2.31237 6.05337 0
M  V30 42463 N 4069.21 -1.53594 0.353071 0
M  V30 42464 C 4070.14 -2.22897 -0.533794 0
M  V30 42465 C 4071.15 -1.23879 -1.0563 0
M  V30 42466 O 4072.34 -1.50178 -0.964825 0
M  V30 42467 C 4069.44 -2.90319 -1.74837 0
M  V30 42468 C 4068.62 -4.15735 -1.35951 0
M  V30 42469 C 4067.68 -4.66481 -2.43479 0
M  V30 42470 O 4066.7 -5.30464 -2.0639 0
M  V30 42471 N 4067.9 -4.43222 -3.74879 0
M  V30 42472 H 4070.67 -2.9964 0.0597782 0
M  V30 42473 H 4068.23 -1.60922 0.177646 0
M  V30 42474 H 4070.22 -3.2118 -2.46223 0
M  V30 42475 H 4068.79 -2.17105 -2.24909 0
M  V30 42476 H 4068.01 -3.91315 -0.476025 0
M  V30 42477 H 4069.3 -4.97296 -1.07583 0
M  V30 42478 H 4068.7 -3.92072 -4.07795 0
M  V30 42479 H 4067.25 -4.78665 -4.42406 0
M  V30 42480 N 4070.69 -0.0819208 -1.57387 0
M  V30 42481 C 4071.6 0.896252 -2.16805 0
M  V30 42482 C 4072.61 1.31978 -1.13393 0
M  V30 42483 O 4073.79 1.3904 -1.45705 0
M  V30 42484 C 4070.85 2.14206 -2.72611 0
M  V30 42485 C 4069.92 1.77399 -3.90932 0
M  V30 42486 C 4069.15 2.96041 -4.44067 0
M  V30 42487 O 4069.37 4.10369 -3.96174 0
M  V30 42488 O 4068.31 2.7527 -5.35266 0
M  V30 42489 H 4072.13 0.420774 -3.00771 0
M  V30 42490 H 4069.72 0.141711 -1.48726 0
M  V30 42491 H 4071.6 2.87241 -3.08335 0
M  V30 42492 H 4070.27 2.60832 -1.91699 0
M  V30 42493 H 4069.18 1.01584 -3.60044 0
M  V30 42494 H 4070.51 1.35547 -4.73168 0
M  V30 42495 N 4072.17 1.5643 0.191702 0
M  V30 42496 C 4073.39 1.85291 0.931771 0
M  V30 42497 C 4073.82 0.665895 1.75919 0
M  V30 42498 O 4073.17 -0.385282 1.77159 0
M  V30 42499 C 4073.22 3.12407 1.80094 0
M  V30 42500 O 4072.33 2.93198 2.90015 0
M  V30 42501 H 4071.67 0.610038 0.262202 0
M  V30 42502 H 4074.2 2.03659 0.195992 0
M  V30 42503 H 4074.21 3.43288 2.20493 0
M  V30 42504 H 4072.88 3.98422 1.19302 0
M  V30 42505 H 4071.46 2.73623 2.53347 0
M  V30 42506 N 4073.64 -0.459538 1.50751 0
M  V30 42507 C 4074.58 -1.57382 1.66624 0
M  V30 42508 C 4075.59 -1.53322 0.547385 0
M  V30 42509 O 4076.78 -1.585 0.820969 0
M  V30 42510 C 4073.88 -2.96282 1.64529 0
M  V30 42511 C 4073.05 -3.25088 2.92637 0
M  V30 42512 C 4072.11 -4.436 2.83029 0
M  V30 42513 O 4071.14 -4.43341 3.56984 0
M  V30 42514 N 4072.34 -5.45918 1.97368 0
M  V30 42515 H 4075.1 -1.44179 2.6274 0
M  V30 42516 H 4072.66 -0.648144 1.4836 0
M  V30 42517 H 4074.66 -3.7355 1.55699 0
M  V30 42518 H 4073.23 -3.03196 0.760998 0
M  V30 42519 H 4072.45 -2.36325 3.15506 0
M  V30 42520 H 4073.73 -3.41151 3.77483 0
M  V30 42521 H 4073.13 -5.48956 1.36617 0
M  V30 42522 H 4071.69 -6.22125 1.94433 0
M  V30 42523 N 4075.12 -1.40523 -0.713506 0
M  V30 42524 C 4076.03 -1.43275 -1.85767 0
M  V30 42525 C 4077.05 -0.325143 -1.70935 0
M  V30 42526 O 4078.22 -0.570056 -1.93164 0
M  V30 42527 C 4075.29 -1.29553 -3.21585 0
M  V30 42528 C 4074.35 -2.50475 -3.48656 0
M  V30 42529 C 4073.58 -2.37398 -4.77993 0
M  V30 42530 O 4073.81 -1.3889 -5.53232 0
M  V30 42531 O 4072.74 -3.26813 -5.05447 0
M  V30 42532 H 4076.57 -2.39767 -1.86402 0
M  V30 42533 H 4074.15 -1.21868 -0.864204 0
M  V30 42534 H 4076.03 -1.24117 -4.02707 0
M  V30 42535 H 4074.71 -0.361687 -3.21673 0
M  V30 42536 H 4073.61 -2.61488 -2.67535 0
M  V30 42537 H 4074.95 -3.42627 -3.53366 0
M  V30 42538 N 4076.6 0.94594 -1.26054 0
M  V30 42539 C 4077.53 2.04758 -1.02988 0
M  V30 42540 C 4078.54 1.62798 0.00809878 0
M  V30 42541 O 4079.73 1.76993 -0.231442 0
M  V30 42542 C 4076.83 3.34624 -0.536668 0
M  V30 42543 C 4076.01 4.05377 -1.6428 0
M  V30 42544 C 4075.07 5.13514 -1.14845 0
M  V30 42545 O 4074.09 5.38483 -1.84459 0
M  V30 42546 N 4075.29 5.805 0.00565814 0
M  V30 42547 H 4078.06 2.25113 -1.97848 0
M  V30 42548 H 4075.62 1.1151 -1.17376 0
M  V30 42549 H 4077.61 4.04253 -0.190241 0
M  V30 42550 H 4076.18 3.10976 0.318221 0
M  V30 42551 H 4075.4 3.29728 -2.16039 0
M  V30 42552 H 4076.69 4.49403 -2.38567 0
M  V30 42553 H 4076.09 5.62645 0.587126 0
M  V30 42554 H 4074.64 6.51141 0.293046 0
M  V30 42555 N 4078.08 1.07781 1.14983 0
M  V30 42556 C 4079.3 0.824969 1.90287 0
M  V30 42557 C 4079.73 -0.616493 1.7771 0
M  V30 42558 O 4079.09 -1.43128 1.11284 0
M  V30 42559 C 4079.13 1.24354 3.3848 0
M  V30 42560 O 4078.24 0.391526 4.10537 0
M  V30 42561 H 4077.58 0.300173 0.592277 0
M  V30 42562 H 4080.11 1.43757 1.45585 0
M  V30 42563 H 4080.12 1.22162 3.89282 0
M  V30 42564 H 4078.79 2.29341 3.46952 0
M  V30 42565 H 4077.37 0.476312 3.69845 0
M  V30 42566 N 4079.56 -1.31901 0.862549 0
M  V30 42567 C 4080.47 -2.32461 0.31607 0
M  V30 42568 C 4081.48 -1.64392 -0.570188 0
M  V30 42569 O 4082.66 -1.95871 -0.468676 0
M  V30 42570 C 4079.72 -3.43363 -0.479889 0
M  V30 42571 C 4078.78 -4.27106 0.433445 0
M  V30 42572 C 4078.02 -5.32712 -0.32462 0
M  V30 42573 O 4078.24 -5.48834 -1.55364 0
M  V30 42574 O 4077.17 -6.01082 0.313676 0
M  V30 42575 H 4081 -2.81109 1.1494 0
M  V30 42576 H 4078.58 -1.35666 0.625707 0
M  V30 42577 H 4080.47 -4.10978 -0.931386 0
M  V30 42578 H 4079.14 -2.9689 -1.28989 0
M  V30 42579 H 4078.05 -3.62271 0.933286 0
M  V30 42580 H 4079.38 -4.77125 1.20884 0
M  V30 42581 N 4081.03 -0.621255 -1.44838 0
M  V30 42582 C 4082.28 -0.122 -2.02433 0
M  V30 42583 C 4082.61 1.2493 -1.48682 0
M  V30 42584 O 4081.89 1.82709 -0.666919 0
M  V30 42585 C 4082.17 -0.0979145 -3.59967 0
M  V30 42586 C 4082.02 -1.50085 -4.24022 0
M  V30 42587 C 4083.34 0.582761 -4.36225 0
M  V30 42588 H 4080.46 -0.0458076 -0.735575 0
M  V30 42589 H 4083.1 -0.795842 -1.72529 0
M  V30 42590 H 4081.25 0.475902 -3.85574 0
M  V30 42591 H 4082.93 -2.1228 -4.09555 0
M  V30 42592 H 4081.17 -2.05761 -3.81896 0
M  V30 42593 H 4081.84 -1.43612 -5.32991 0
M  V30 42594 H 4084.32 0.0948864 -4.15992 0
M  V30 42595 H 4083.19 0.568767 -5.45945 0
M  V30 42596 H 4083.45 1.65135 -4.10101 0
M  V30 42597 N 4082.51 1.53405 -0.361211 0
M  V30 42598 C 4083.79 1.93498 0.286013 0
M  V30 42599 C 4084.17 1.29437 1.66761 0
M  V30 42600 O 4083.52 0.451825 2.23988 0
M  V30 42601 C 4083.73 3.47334 0.340602 0
M  V30 42602 C 4085.08 4.20578 0.583036 0
M  V30 42603 O 4086.1 3.53691 0.421992 0
M  V30 42604 O 4084.96 5.391 0.896288 0
M  V30 42605 H 4082.05 0.809218 0.170576 0
M  V30 42606 H 4084.6 1.64581 -0.413677 0
M  V30 42607 H 4083.37 3.86224 -0.628243 0
M  V30 42608 H 4082.99 3.82471 1.08636 0
M  V30 42609 N 4083.99 0.0902663 1.57341 0
M  V30 42610 C 4084.94 -0.880924 2.10294 0
M  V30 42611 C 4085.92 -1.24695 1.01685 0
M  V30 42612 O 4087.12 -1.22284 1.27967 0
M  V30 42613 C 4084.25 -2.14177 2.68297 0
M  V30 42614 C 4083.33 -1.80139 3.83941 0
M  V30 42615 N 4083.72 -1.16637 4.92168 0
M  V30 42616 C 4082.02 -2.09778 3.93585 0
M  V30 42617 C 4082.72 -1.01103 5.72846 0
M  V30 42618 N 4081.7 -1.52677 5.21719 0
M  V30 42619 H 4085.5 -0.385928 2.91355 0
M  V30 42620 H 4083.01 -0.11309 1.62006 0
M  V30 42621 H 4085.01 -2.84691 3.0456 0
M  V30 42622 H 4083.67 -2.64247 1.88689 0
M  V30 42623 H 4084.68 -0.833764 5.11145 0
M  V30 42624 H 4081.36 -2.62097 3.24979 0
M  V30 42625 H 4082.75 -0.514796 6.69925 0
M  V30 42626 N 4085.47 -1.56529 -0.183403 0
M  V30 42627 C 4086.72 -1.80945 -0.900182 0
M  V30 42628 C 4087.04 -0.665278 -1.833 0
M  V30 42629 O 4086.31 0.315663 -1.9334 0
M  V30 42630 H 4084.89 -0.667471 -0.335397 0
M  V30 42631 H 4087.55 -1.94009 -0.186112 0
M  V30 42632 H 4086.65 -2.74544 -1.48432 0
M  V30 42633 N 4086.95 0.451537 -1.50993 0
M  V30 42634 C 4088.22 1.21247 -1.53488 0
M  V30 42635 C 4088.6 2.09087 -0.290846 0
M  V30 42636 O 4087.95 2.16699 0.72482 0
M  V30 42637 C 4088.16 2.02662 -2.84129 0
M  V30 42638 C 4089.51 2.60189 -3.3554 0
M  V30 42639 O 4090.53 2.12887 -2.85583 0
M  V30 42640 O 4089.39 3.46424 -4.22673 0
M  V30 42641 H 4086.49 0.551243 -0.616491 0
M  V30 42642 H 4089.03 0.461763 -1.63297 0
M  V30 42643 H 4087.8 1.38057 -3.66136 0
M  V30 42644 H 4087.43 2.84827 -2.77415 0
M  V30 42645 N 4088.42 1.409 0.706044 0
M  V30 42646 C 4089.67 1.39693 1.46602 0
M  V30 42647 C 4090 0.00247451 1.945 0
M  V30 42648 O 4089.25 -0.983798 1.69174 0
M  V30 42649 C 4089.55 2.34121 2.70041 0
M  V30 42650 C 4089.22 3.81181 2.40857 0
M  V30 42651 C 4087.88 4.21245 2.32608 0
M  V30 42652 C 4090.23 4.74073 2.16574 0
M  V30 42653 C 4087.56 5.52223 1.98157 0
M  V30 42654 C 4089.91 6.0536 1.83634 0
M  V30 42655 C 4088.58 6.44457 1.73873 0
M  V30 42656 H 4087.85 0.511174 0.536454 0
M  V30 42657 H 4090.49 1.73623 0.807911 0
M  V30 42658 H 4088.8 1.93409 3.40735 0
M  V30 42659 H 4090.5 2.30466 3.28156 0
M  V30 42660 H 4087.09 3.49444 2.48167 0
M  V30 42661 H 4091.27 4.43932 2.21897 0
M  V30 42662 H 4086.53 5.81407 1.89145 0
M  V30 42663 H 4090.7 6.76848 1.63861 0
M  V30 42664 H 4088.33 7.45862 1.46946 0
M  V30 42665 N 4089.9 -0.939242 1.26554 0
M  V30 42666 C 4090.81 -2.0718 1.10063 0
M  V30 42667 C 4091.83 -1.73967 0.0336296 0
M  V30 42668 O 4093 -1.99992 0.237758 0
M  V30 42669 C 4090.07 -3.38767 0.737401 0
M  V30 42670 C 4089.13 -3.8575 1.88402 0
M  V30 42671 C 4088.36 -5.11058 1.53803 0
M  V30 42672 O 4088.59 -5.68695 0.440643 0
M  V30 42673 O 4087.52 -5.5313 2.37342 0
M  V30 42674 H 4091.35 -2.24001 2.05079 0
M  V30 42675 H 4088.93 -1.05649 1.05634 0
M  V30 42676 H 4090.81 -4.17826 0.547651 0
M  V30 42677 H 4089.49 -3.2318 -0.183347 0
M  V30 42678 H 4088.4 -3.07628 2.12875 0
M  V30 42679 H 4089.73 -4.05861 2.78456 0
M  V30 42680 N 4091.38 -1.08389 -1.14409 0
M  V30 42681 C 4092.31 -0.657756 -2.18515 0
M  V30 42682 C 4093.29 0.330387 -1.59208 0
M  V30 42683 O 4094.48 0.234292 -1.87038 0
M  V30 42684 C 4091.6 0.0325659 -3.38684 0
M  V30 42685 C 4090.65 -0.915696 -4.16554 0
M  V30 42686 S 4091.48 -2.42227 -4.77584 0
M  V30 42687 C 4092.64 -1.74405 -6.0111 0
M  V30 42688 H 4092.87 -1.53969 -2.54324 0
M  V30 42689 H 4090.4 -0.898858 -1.25538 0
M  V30 42690 H 4092.36 0.424579 -4.08298 0
M  V30 42691 H 4091.02 0.890995 -3.01198 0
M  V30 42692 H 4090.22 -0.37958 -5.02569 0
M  V30 42693 H 4089.82 -1.2486 -3.52542 0
M  V30 42694 H 4092.11 -1.06189 -6.69126 0
M  V30 42695 H 4093.05 -2.58293 -6.5931 0
M  V30 42696 H 4093.46 -1.2175 -5.51214 0
M  V30 42697 N 4092.86 1.31442 -0.869532 0
M  V30 42698 C 4094.1 1.97014 -0.48096 0
M  V30 42699 C 4094.44 1.68573 0.964198 0
M  V30 42700 O 4093.71 0.981983 1.67891 0
M  V30 42701 C 4094 3.52454 -0.738126 0
M  V30 42702 C 4093.85 3.9047 -2.23279 0
M  V30 42703 C 4095.17 4.39625 -0.204314 0
M  V30 42704 H 4092.29 0.715623 -0.176218 0
M  V30 42705 H 4094.93 1.55576 -1.09069 0
M  V30 42706 H 4093.08 3.87881 -0.219158 0
M  V30 42707 H 4094.75 3.65146 -2.81897 0
M  V30 42708 H 4092.99 3.39093 -2.70552 0
M  V30 42709 H 4093.66 4.98847 -2.36337 0
M  V30 42710 H 4096.14 4.11019 -0.6483 0
M  V30 42711 H 4095.02 5.47339 -0.413704 0
M  V30 42712 H 4095.28 4.32972 0.893731 0
M  V30 42713 N 4094.34 0.628927 1.44507 0
M  V30 42714 C 4095.56 0.137814 2.06942 0
M  V30 42715 C 4095.99 -1.17764 1.46674 0
M  V30 42716 O 4095.34 -1.72193 0.567372 0
M  V30 42717 C 4095.39 0.0342476 3.60584 0
M  V30 42718 O 4094.5 -1.01031 3.99833 0
M  V30 42719 H 4093.84 0.0837705 0.658695 0
M  V30 42720 H 4096.37 0.864983 1.85416 0
M  V30 42721 H 4096.38 -0.157051 4.07698 0
M  V30 42722 H 4095.05 0.994654 4.03831 0
M  V30 42723 H 4093.63 -0.79376 3.64354 0
M  V30 42724 N 4095.82 -1.53211 0.369342 0
M  V30 42725 C 4096.73 -2.2957 -0.483186 0
M  V30 42726 C 4097.74 -1.35686 -1.08928 0
M  V30 42727 O 4098.92 -1.68745 -1.09941 0
M  V30 42728 C 4095.98 -3.07289 -1.60543 0
M  V30 42729 C 4095.04 -4.16847 -1.02649 0
M  V30 42730 C 4094.28 -4.90851 -2.09525 0
M  V30 42731 O 4094.5 -4.64751 -3.30701 0
M  V30 42732 O 4093.43 -5.7669 -1.72372 0
M  V30 42733 H 4097.26 -3.03385 0.138299 0
M  V30 42734 H 4094.84 -1.48801 0.133615 0
M  V30 42735 H 4096.73 -3.55809 -2.25783 0
M  V30 42736 H 4095.4 -2.36307 -2.21225 0
M  V30 42737 H 4094.31 -3.72571 -0.337898 0
M  V30 42738 H 4095.64 -4.90006 -0.464173 0
M  V30 42739 N 4097.29 -0.0986092 -1.57291 0
M  V30 42740 C 4098.52 0.575931 -1.99243 0
M  V30 42741 C 4098.94 1.60712 -0.977406 0
M  V30 42742 O 4098.3 1.81221 0.0536451 0
M  V30 42743 C 4098.35 1.19708 -3.40151 0
M  V30 42744 O 4097.45 2.31287 -3.41438 0
M  V30 42745 H 4096.79 0.145805 -0.647794 0
M  V30 42746 H 4099.32 -0.181059 -2.03797 0
M  V30 42747 H 4099.33 1.53754 -3.7792 0
M  V30 42748 H 4098.01 0.441641 -4.13548 0
M  V30 42749 H 4096.59 1.98834 -3.15467 0
M  V30 42750 N 4098.77 1.56624 0.175099 0
M  V30 42751 C 4099.7 1.91214 1.2455 0
M  V30 42752 C 4100.68 0.774494 1.4297 0
M  V30 42753 O 4101.87 1.02744 1.58038 0
M  V30 42754 C 4098.99 2.15977 2.60905 0
M  V30 42755 C 4098.04 3.38667 2.59242 0
M  V30 42756 S 4098.87 4.93159 2.08698 0
M  V30 42757 C 4100.03 5.21012 3.46838 0
M  V30 42758 H 4100.26 2.81705 0.950244 0
M  V30 42759 H 4097.79 1.49664 0.379498 0
M  V30 42760 H 4099.75 2.30925 3.39387 0
M  V30 42761 H 4098.41 1.262 2.87632 0
M  V30 42762 H 4097.61 3.53183 3.59552 0
M  V30 42763 H 4097.21 3.22816 1.88854 0
M  V30 42764 H 4099.5 5.12758 4.42815 0
M  V30 42765 H 4100.44 6.22657 3.37201 0
M  V30 42766 H 4100.85 4.48591 3.42675 0
M  V30 42767 N 4100.25 -0.443523 1.5123 0
M  V30 42768 C 4101.5 -1.19524 1.63835 0
M  V30 42769 C 4101.83 -1.91009 0.350578 0
M  V30 42770 O 4101.1 -1.83335 -0.649514 0
M  V30 42771 C 4101.39 -2.21714 2.83751 0
M  V30 42772 C 4101.24 -1.54353 4.22487 0
M  V30 42773 C 4102.56 -3.22759 2.99189 0
M  V30 42774 H 4099.68 -0.433173 0.596263 0
M  V30 42775 H 4102.32 -0.485289 1.83698 0
M  V30 42776 H 4100.47 -2.82262 2.66947 0
M  V30 42777 H 4102.14 -0.971897 4.50946 0
M  V30 42778 H 4100.38 -0.845994 4.25471 0
M  V30 42779 H 4101.06 -2.28746 5.02374 0
M  V30 42780 H 4103.53 -2.72261 3.14664 0
M  V30 42781 H 4102.41 -3.91562 3.84669 0
M  V30 42782 H 4102.67 -3.88504 2.10991 0
M  V30 42783 N 4101.73 -1.41272 -0.698562 0
M  V30 42784 C 4102.66 -1.45654 -1.82503 0
M  V30 42785 C 4103.64 -0.315527 -1.67148 0
M  V30 42786 O 4104.82 -0.526551 -1.86925 0
M  V30 42787 C 4101.95 -1.33508 -3.20613 0
M  V30 42788 C 4100.91 -2.45389 -3.50668 0
M  V30 42789 C 4100.23 -2.1831 -4.88103 0
M  V30 42790 C 4101.53 -3.87731 -3.49946 0
M  V30 42791 H 4103.23 -2.39929 -1.79093 0
M  V30 42792 H 4100.77 -1.15483 -0.860216 0
M  V30 42793 H 4102.73 -1.35186 -3.99128 0
M  V30 42794 H 4101.45 -0.357158 -3.24641 0
M  V30 42795 H 4100.11 -2.42989 -2.74503 0
M  V30 42796 H 4099.76 -1.18868 -4.88753 0
M  V30 42797 H 4099.46 -2.93279 -5.09177 0
M  V30 42798 H 4100.98 -2.21699 -5.6893 0
M  V30 42799 H 4102.4 -3.91863 -4.18469 0
M  V30 42800 H 4100.79 -4.62358 -3.82551 0
M  V30 42801 H 4101.86 -4.16097 -2.4898 0
M  V30 42802 N 4103.21 0.932517 -1.27051 0
M  V30 42803 C 4104.12 2.06593 -1.1116 0
M  V30 42804 C 4105.13 1.73947 -0.0428551 0
M  V30 42805 O 4106.31 1.99863 -0.248361 0
M  V30 42806 C 4103.37 3.38371 -0.755356 0
M  V30 42807 C 4102.43 3.84745 -1.90445 0
M  V30 42808 C 4101.67 5.10235 -1.56511 0
M  V30 42809 O 4101.89 5.68454 -0.470796 0
M  V30 42810 O 4100.82 5.51863 -2.40272 0
M  V30 42811 H 4104.65 2.2291 -2.06264 0
M  V30 42812 H 4102.23 1.05087 -1.06193 0
M  V30 42813 H 4104.12 4.1753 -0.569802 0
M  V30 42814 H 4102.79 3.23273 0.166206 0
M  V30 42815 H 4101.7 3.06495 -2.14503 0
M  V30 42816 H 4103.03 4.04378 -2.80605 0
M  V30 42817 N 4104.68 1.08995 1.13833 0
M  V30 42818 C 4105.91 0.844956 1.8886 0
M  V30 42819 C 4106.33 -0.603413 1.78898 0
M  V30 42820 O 4105.68 -1.41506 1.15249 0
M  V30 42821 C 4105.73 1.26565 3.3862 0
M  V30 42822 O 4105.46 2.65721 3.48316 0
M  V30 42823 C 4106.96 1.05239 4.30627 0
M  V30 42824 H 4104.18 0.304298 0.598033 0
M  V30 42825 H 4106.72 1.45078 1.44127 0
M  V30 42826 H 4104.88 0.703804 3.80953 0
M  V30 42827 H 4105.29 2.83341 4.41382 0
M  V30 42828 H 4106.76 1.39607 5.34054 0
M  V30 42829 H 4107.24 -0.0101536 4.39199 0
M  V30 42830 H 4107.85 1.59997 3.94057 0
M  V30 42831 N 4106.16 -1.30979 0.87649 0
M  V30 42832 C 4107.12 -2.26635 0.341933 0
M  V30 42833 C 4108.12 -1.52472 -0.510789 0
M  V30 42834 O 4109.31 -1.71251 -0.31916 0
M  V30 42835 C 4106.45 -3.37008 -0.513666 0
M  V30 42836 H 4107.64 -2.75432 1.18647 0
M  V30 42837 H 4105.19 -1.42023 0.652627 0
M  V30 42838 H 4105.93 -2.93514 -1.37914 0
M  V30 42839 H 4105.71 -3.9198 0.0970132 0
M  V30 42840 H 4107.2 -4.08228 -0.879738 0
M  V30 42841 N 4107.64 -0.636582 -1.44171 0
M  V30 42842 C 4108.55 0.0661465 -2.34507 0
M  V30 42843 C 4109.57 0.82992 -1.52932 0
M  V30 42844 O 4110.74 0.780947 -1.85643 0
M  V30 42845 C 4107.81 1.03185 -3.30989 0
M  V30 42846 C 4106.87 0.266849 -4.2847 0
M  V30 42847 C 4106.1 1.18655 -5.20343 0
M  V30 42848 O 4106.32 2.42543 -5.16265 0
M  V30 42849 O 4105.26 0.667929 -5.98183 0
M  V30 42850 H 4109.08 -0.676984 -2.96058 0
M  V30 42851 H 4106.67 -0.39677 -1.44035 0
M  V30 42852 H 4108.55 1.58729 -3.90363 0
M  V30 42853 H 4107.23 1.7555 -2.71963 0
M  V30 42854 H 4106.13 -0.331767 -3.72626 0
M  V30 42855 H 4107.47 -0.41689 -4.90431 0
M  V30 42856 N 4109.12 1.53013 -0.377462 0
M  V30 42857 C 4110.07 2.27628 0.478376 0
M  V30 42858 C 4111.06 1.31064 1.07325 0
M  V30 42859 O 4112.27 1.48647 1.01508 0
M  V30 42860 H 4108.64 0.731828 0.173008 0
M  V30 42861 H 4110.61 2.97901 -0.172549 0
M  V30 42862 C 4109.36 3.08706 1.59988 0
M  V30 42863 H 4108.68 3.8286 1.15144 0
M  V30 42864 H 4110.12 3.64073 2.17318 0
M  V30 42865 C 4108.58 2.2028 2.54909 0
M  V30 42866 O 4109.11 1.82158 3.58024 0
M  V30 42867 N 4107.32 1.84676 2.24373 0
M  V30 42868 H 4106.87 2.15875 1.40555 0
M  V30 42869 H 4106.82 1.25799 2.88135 0
M  V30 42870 N 4110.6 0.106949 1.57237 0
M  V30 42871 C 4111.84 -0.554768 1.95065 0
M  V30 42872 C 4112.18 -1.67093 0.989626 0
M  V30 42873 O 4111.45 -1.94484 0.0247199 0
M  V30 42874 C 4111.73 -1.09881 3.42926 0
M  V30 42875 C 4111.59 0.0131048 4.49798 0
M  V30 42876 C 4112.91 -1.99349 3.92362 0
M  V30 42877 H 4110.02 -0.200191 0.70929 0
M  V30 42878 H 4112.67 0.180065 1.89145 0
M  V30 42879 H 4110.82 -1.72504 3.48101 0
M  V30 42880 H 4112.49 0.647885 4.56728 0
M  V30 42881 H 4110.73 0.677901 4.2847 0
M  V30 42882 H 4111.4 -0.408584 5.50486 0
M  V30 42883 H 4113.88 -1.46615 3.89414 0
M  V30 42884 H 4112.75 -2.34338 4.96364 0
M  V30 42885 H 4113.02 -2.91543 3.32348 0
M  V30 42886 N 4112.07 -1.56715 -0.166791 0
M  V30 42887 C 4113.02 -1.97683 -1.22573 0
M  V30 42888 C 4114.02 -0.866243 -1.45577 0
M  V30 42889 O 4115.22 -1.05137 -1.46103 0
M  V30 42890 H 4111.6 -0.629007 -0.412133 0
M  V30 42891 H 4113.57 -2.85937 -0.853368 0
M  V30 42892 C 4112.32 -2.35671 -2.55645 0
M  V30 42893 H 4111.64 -3.20671 -2.38768 0
M  V30 42894 H 4113.08 -2.68177 -3.28416 0
M  V30 42895 C 4111.54 -1.20183 -3.14734 0
M  V30 42896 O 4112.07 -0.491914 -3.98677 0
M  V30 42897 N 4110.28 -0.971212 -2.7389 0
M  V30 42898 H 4109.82 -1.55026 -2.05729 0
M  V30 42899 H 4109.78 -0.200345 -3.13761 0
M  V30 42900 N 4113.55 0.435497 -1.51463 0
M  V30 42901 C 4114.5 1.54936 -1.73487 0
M  V30 42902 C 4115.49 1.58372 -0.601225 0
M  V30 42903 O 4116.7 1.62094 -0.78265 0
M  V30 42904 H 4113.08 0.514775 -0.548189 0
M  V30 42905 H 4115.05 1.33536 -2.66854 0
M  V30 42906 C 4113.8 2.92575 -1.87871 0
M  V30 42907 H 4113.12 2.90663 -2.74509 0
M  V30 42908 H 4114.56 3.69873 -2.07291 0
M  V30 42909 C 4113.02 3.30785 -0.638986 0
M  V30 42910 O 4113.55 4.01174 0.20549 0
M  V30 42911 N 4111.75 2.86566 -0.482541 0
M  V30 42912 H 4111.3 2.29455 -1.17082 0
M  V30 42913 H 4111.26 3.12494 0.345698 0
M  V30 42914 N 4115.03 1.41641 0.69106 0
M  V30 42915 C 4116.28 1.40961 1.44825 0
M  V30 42916 C 4116.6 0.0212132 1.94988 0
M  V30 42917 O 4115.87 -0.937683 1.72001 0
M  V30 42918 H 4114.45 0.518874 0.537381 0
M  V30 42919 H 4117.11 1.7692 0.817646 0
M  V30 42920 H 4116.21 2.09956 2.30922 0
M  V30 42921 N 4116.51 -0.925766 1.27543 0
M  V30 42922 C 4117.46 -2.04798 1.10274 0
M  V30 42923 C 4118.45 -1.69381 0.0252991 0
M  V30 42924 O 4119.66 -1.79066 0.183166 0
M  V30 42925 H 4116.03 -0.670822 0.339856 0
M  V30 42926 H 4118 -2.1651 2.05344 0
M  V30 42927 C 4116.75 -3.39095 0.76874 0
M  V30 42928 H 4116.07 -3.66834 1.58973 0
M  V30 42929 H 4117.51 -4.18384 0.687792 0
M  V30 42930 C 4115.97 -3.32753 -0.526979 0
M  V30 42931 O 4116.5 -3.70136 -1.56083 0
M  V30 42932 N 4114.71 -2.85849 -0.523304 0
M  V30 42933 H 4114.26 -2.55624 0.31844 0
M  V30 42934 H 4114.21 -2.81988 -1.39032 0
M  V30 42935 N 4117.99 -1.09597 -1.13253 0
M  V30 42936 C 4119.4 -0.852176 -1.66117 0
M  V30 42937 C 4119.75 0.619058 -1.86178 0
M  V30 42938 O 4118.87 1.47666 -1.58189 0
M  V30 42939 C 4119.47 -1.54039 -3.01757 0
M  V30 42940 C 4118.03 -1.34353 -3.51605 0
M  V30 42941 C 4117.17 -1.59535 -2.26812 0
M  V30 42942 H 4120.13 -1.25488 -0.971517 0
M  V30 42943 H 4120.15 -0.974482 -3.6781 0
M  V30 42944 H 4119.66 -2.61115 -2.87125 0
M  V30 42945 H 4117.76 -0.294016 -3.71438 0
M  V30 42946 H 4117.87 -2.07957 -4.31614 0
M  V30 42947 H 4116.24 -1.01757 -2.3349 0
M  V30 42948 H 4117.02 -2.67844 -2.14743 0
M  V30 42949 N 4119.46 1.30512 -0.883424 0
M  V30 42950 C 4120.69 2.00899 -0.515221 0
M  V30 42951 C 4121.11 1.65794 0.888486 0
M  V30 42952 O 4120.47 0.87372 1.58858 0
M  V30 42953 C 4120.52 3.53832 -0.695353 0
M  V30 42954 O 4119.62 4.11583 0.259444 0
M  V30 42955 H 4118.97 0.632137 -0.203221 0
M  V30 42956 H 4121.5 1.66395 -1.19054 0
M  V30 42957 H 4121.51 4.03656 -0.593759 0
M  V30 42958 H 4120.18 3.78721 -1.71881 0
M  V30 42959 H 4118.76 3.72733 0.111675 0
M  V30 42960 N 4120.94 0.644219 1.43832 0
M  V30 42961 C 4122.35 0.234813 1.85217 0
M  V30 42962 C 4122.7 -1.21668 1.5392 0
M  V30 42963 O 4121.83 -1.92749 0.983711 0
M  V30 42964 C 4122.42 0.419386 3.36194 0
M  V30 42965 C 4120.98 0.0643766 3.76345 0
M  V30 42966 C 4120.13 0.726553 2.67613 0
M  V30 42967 H 4123.08 0.848504 1.34112 0
M  V30 42968 H 4123.1 -0.337804 3.78998 0
M  V30 42969 H 4122.61 1.47588 3.58942 0
M  V30 42970 H 4120.72 -0.989876 3.59211 0
M  V30 42971 H 4120.83 0.483565 4.76653 0
M  V30 42972 H 4119.19 0.160619 2.54193 0
M  V30 42973 H 4119.98 1.7859 2.9319 0
M  V30 42974 N 4122.42 -1.52811 0.385571 0
M  V30 42975 C 4123.35 -2.29261 -0.442911 0
M  V30 42976 C 4124.33 -1.32496 -1.06672 0
M  V30 42977 O 4125.52 -1.61386 -1.08019 0
M  V30 42978 C 4122.65 -3.09667 -1.57238 0
M  V30 42979 C 4121.6 -4.14285 -1.0748 0
M  V30 42980 C 4120.93 -4.82893 -2.29606 0
M  V30 42981 C 4122.23 -5.22098 -0.145387 0
M  V30 42982 H 4123.92 -2.98765 0.194952 0
M  V30 42983 H 4121.47 -1.43685 0.0952015 0
M  V30 42984 H 4123.42 -3.61906 -2.15876 0
M  V30 42985 H 4122.14 -2.37889 -2.23777 0
M  V30 42986 H 4120.8 -3.63021 -0.510983 0
M  V30 42987 H 4120.45 -4.07667 -2.94646 0
M  V30 42988 H 4120.15 -5.53601 -1.96976 0
M  V30 42989 H 4121.67 -5.37934 -2.88893 0
M  V30 42990 H 4123.09 -5.69718 -0.639841 0
M  V30 42991 H 4121.49 -6.00031 0.0909741 0
M  V30 42992 H 4122.56 -4.78141 0.806791 0
M  V30 42993 N 4123.9 -0.115287 -1.57178 0
M  V30 42994 C 4124.81 0.850063 -2.18657 0
M  V30 42995 C 4125.82 1.29543 -1.16167 0
M  V30 42996 O 4127 1.35918 -1.48621 0
M  V30 42997 C 4124.07 2.08375 -2.77093 0
M  V30 42998 C 4123.13 1.69067 -3.94607 0
M  V30 42999 C 4122.36 2.86555 -4.50247 0
M  V30 43000 O 4122.58 4.01873 -4.04789 0
M  V30 43001 O 4121.52 2.63854 -5.40985 0
M  V30 43002 H 4125.34 0.356881 -3.01596 0
M  V30 43003 H 4122.93 0.110132 -1.48994 0
M  V30 43004 H 4124.81 2.80637 -3.14358 0
M  V30 43005 H 4123.48 2.56707 -1.97188 0
M  V30 43006 H 4122.39 0.939245 -3.62117 0
M  V30 43007 H 4123.72 1.2548 -4.75936 0
M  V30 43008 N 4125.38 1.56801 0.158477 0
M  V30 43009 C 4126.34 1.96501 1.17983 0
M  V30 43010 C 4127.34 0.850151 1.36488 0
M  V30 43011 O 4128.53 1.11698 1.33676 0
M  V30 43012 C 4125.66 2.27099 2.54241 0
M  V30 43013 H 4126.86 2.8791 0.839527 0
M  V30 43014 H 4124.41 1.51058 0.401404 0
M  V30 43015 H 4125.14 1.38446 2.93263 0
M  V30 43016 H 4124.93 3.08374 2.42173 0
M  V30 43017 H 4126.42 2.58691 3.27824 0
M  V30 43018 N 4126.86 -0.427458 1.51692 0
M  V30 43019 C 4127.79 -1.52676 1.7667 0
M  V30 43020 C 4128.77 -1.5852 0.616893 0
M  V30 43021 O 4129.95 -1.74089 0.860626 0
M  V30 43022 C 4127.08 -2.9067 1.90075 0
M  V30 43023 C 4126.04 -2.99683 3.05571 0
M  V30 43024 C 4125.36 -4.39754 3.04172 0
M  V30 43025 C 4126.66 -2.72853 4.45363 0
M  V30 43026 H 4128.36 -1.32024 2.68719 0
M  V30 43027 H 4125.9 -0.633693 1.29307 0
M  V30 43028 H 4127.85 -3.67543 2.06132 0
M  V30 43029 H 4126.58 -3.12574 0.946824 0
M  V30 43030 H 4125.24 -2.25252 2.89235 0
M  V30 43031 H 4124.89 -4.5864 2.06538 0
M  V30 43032 H 4124.59 -4.46712 3.81735 0
M  V30 43033 H 4126.11 -5.18587 3.22336 0
M  V30 43034 H 4127.52 -3.39455 4.61999 0
M  V30 43035 H 4125.92 -2.9121 5.24706 0
M  V30 43036 H 4126.99 -1.68397 4.5472 0
M  V30 43037 N 4128.33 -1.42005 -0.683539 0
M  V30 43038 C 4129.26 -1.47581 -1.80948 0
M  V30 43039 C 4130.24 -0.333237 -1.66804 0
M  V30 43040 O 4131.43 -0.546347 -1.86356 0
M  V30 43041 C 4128.56 -1.36901 -3.19179 0
M  V30 43042 C 4127.51 -2.49095 -3.48046 0
M  V30 43043 C 4126.84 -2.23475 -4.8576 0
M  V30 43044 C 4128.14 -3.91421 -3.45814 0
M  V30 43045 H 4129.83 -2.41815 -1.76539 0
M  V30 43046 H 4127.38 -1.16389 -0.84792 0
M  V30 43047 H 4129.33 -1.39411 -3.97671 0
M  V30 43048 H 4128.06 -0.39157 -3.24244 0
M  V30 43049 H 4126.72 -2.45887 -2.7191 0
M  V30 43050 H 4126.36 -1.24046 -4.87465 0
M  V30 43051 H 4126.06 -2.98663 -5.06038 0
M  V30 43052 H 4127.59 -2.27721 -5.66547 0
M  V30 43053 H 4129 -3.96279 -4.1429 0
M  V30 43054 H 4127.4 -4.6639 -3.77625 0
M  V30 43055 H 4128.47 -4.18714 -2.44553 0
M  V30 43056 N 4129.81 0.918989 -1.28033 0
M  V30 43057 C 4130.77 2.0023 -1.11538 0
M  V30 43058 C 4131.77 1.607 -0.0566516 0
M  V30 43059 O 4132.96 1.71562 -0.30199 0
M  V30 43060 C 4130.1 3.33606 -0.70143 0
M  V30 43061 H 4131.29 2.16293 -2.07743 0
M  V30 43062 H 4128.84 1.10096 -1.10944 0
M  V30 43063 H 4129.58 3.23243 0.261625 0
M  V30 43064 H 4129.36 3.63657 -1.46616 0
M  V30 43065 H 4130.85 4.13143 -0.608517 0
M  V30 43066 N 4131.29 1.10196 1.12671 0
M  V30 43067 C 4132.54 0.8412 1.83761 0
M  V30 43068 C 4132.86 -0.635029 1.8437 0
M  V30 43069 O 4132.13 -1.46098 1.30507 0
M  V30 43070 H 4130.71 0.308204 0.680455 0
M  V30 43071 H 4133.37 1.39172 1.36444 0
M  V30 43072 H 4132.47 1.20184 2.88032 0
M  V30 43073 N 4132.77 -1.30042 0.890333 0
M  V30 43074 C 4133.73 -2.2626 0.365952 0
M  V30 43075 C 4134.73 -1.53005 -0.494589 0
M  V30 43076 O 4135.92 -1.7158 -0.300979 0
M  V30 43077 C 4133.05 -3.37534 -0.477893 0
M  V30 43078 H 4134.25 -2.74158 1.21562 0
M  V30 43079 H 4131.8 -1.41323 0.667653 0
M  V30 43080 H 4132.53 -2.9496 -1.34793 0
M  V30 43081 H 4132.32 -3.91855 0.138582 0
M  V30 43082 H 4133.81 -4.09138 -0.836391 0
M  V30 43083 N 4134.25 -0.651838 -1.43488 0
M  V30 43084 C 4135.16 0.0412702 -2.34564 0
M  V30 43085 C 4136.17 0.813653 -1.53804 0
M  V30 43086 O 4137.35 0.761213 -1.8646 0
M  V30 43087 C 4134.41 0.996686 -3.32065 0
M  V30 43088 C 4133.47 0.221389 -4.28729 0
M  V30 43089 C 4132.71 1.1313 -5.21572 0
M  V30 43090 O 4132.93 2.37053 -5.18808 0
M  V30 43091 O 4131.86 0.604447 -5.98857 0
M  V30 43092 H 4135.69 -0.708347 -2.95324 0
M  V30 43093 H 4133.27 -0.412024 -1.43606 0
M  V30 43094 H 4135.16 1.5458 -3.92024 0
M  V30 43095 H 4133.83 1.72655 -2.7381 0
M  V30 43096 H 4132.74 -0.371271 -3.72253 0
M  V30 43097 H 4134.07 -0.468883 -4.89962 0
M  V30 43098 N 4135.72 1.52604 -0.39367 0
M  V30 43099 C 4136.97 2.01235 0.186749 0
M  V30 43100 C 4137.29 1.28178 1.46954 0
M  V30 43101 O 4136.56 0.403122 1.91707 0
M  V30 43102 H 4135.14 0.743522 0.0720007 0
M  V30 43103 H 4137.8 1.87658 -0.526363 0
M  V30 43104 H 4136.9 3.09605 0.393867 0
M  V30 43105 N 4137.2 0.12362 1.57114 0
M  V30 43106 C 4138.45 -0.533258 1.95353 0
M  V30 43107 C 4138.78 -1.66391 1.00719 0
M  V30 43108 O 4138.03 -1.95674 0.0319296 0
M  V30 43109 C 4138.33 -1.10212 3.39983 0
M  V30 43110 C 4138 -0.0923378 4.50805 0
M  V30 43111 C 4136.66 0.185312 4.80843 0
M  V30 43112 C 4139.01 0.595574 5.17786 0
M  V30 43113 C 4136.34 1.15708 5.75177 0
M  V30 43114 C 4138.69 1.556 6.13165 0
M  V30 43115 C 4137.35 1.84159 6.41593 0
M  V30 43116 H 4136.62 -0.195133 0.714846 0
M  V30 43117 H 4139.27 0.205504 1.90394 0
M  V30 43118 H 4137.58 -1.91774 3.41658 0
M  V30 43119 H 4139.27 -1.61855 3.66884 0
M  V30 43120 H 4135.86 -0.318926 4.27412 0
M  V30 43121 H 4140.05 0.394242 4.94732 0
M  V30 43122 H 4135.3 1.38504 5.95505 0
M  V30 43123 H 4139.48 2.0947 6.6415 0
M  V30 43124 H 4137.1 2.59614 7.14496 0
M  V30 43125 N 4138.68 -1.56883 -0.15016 0
M  V30 43126 C 4140.09 -1.7265 -0.710543 0
M  V30 43127 C 4140.44 -0.737525 -1.8181 0
M  V30 43128 O 4139.57 0.0965415 -2.16185 0
M  V30 43129 C 4140.16 -3.13046 -1.29567 0
M  V30 43130 C 4138.72 -3.30426 -1.80265 0
M  V30 43131 C 4137.87 -2.68581 -0.689876 0
M  V30 43132 H 4140.82 -1.5852 0.0754752 0
M  V30 43133 H 4140.84 -3.1287 -2.16547 0
M  V30 43134 H 4140.35 -3.85003 -0.489344 0
M  V30 43135 H 4138.45 -2.63461 -2.63475 0
M  V30 43136 H 4138.57 -4.3835 -1.93354 0
M  V30 43137 H 4136.93 -2.28963 -1.1157 0
M  V30 43138 H 4137.71 -3.4314 0.104952 0
M  V30 43139 N 4140.16 0.419408 -1.51917 0
M  V30 43140 C 4141.57 0.998624 -1.57748 0
M  V30 43141 C 4141.92 1.91831 -0.41174 0
M  V30 43142 O 4141.05 2.11251 0.469231 0
M  V30 43143 C 4141.64 1.8179 -2.85898 0
M  V30 43144 C 4140.2 2.34731 -2.94242 0
M  V30 43145 C 4139.35 1.14429 -2.52589 0
M  V30 43146 H 4142.3 0.200012 -1.57435 0
M  V30 43147 H 4142.32 2.67427 -2.70672 0
M  V30 43148 H 4141.83 1.14828 -3.70724 0
M  V30 43149 H 4139.93 3.05096 -2.13887 0
M  V30 43150 H 4140.04 2.66301 -3.98272 0
M  V30 43151 H 4138.41 1.49513 -2.06199 0
M  V30 43152 H 4139.19 0.490496 -3.39778 0
M  V30 43153 N 4141.64 1.42366 0.675998 0
M  V30 43154 C 4142.57 1.40181 1.80068 0
M  V30 43155 C 4143.55 0.266249 1.60405 0
M  V30 43156 O 4144.73 0.456277 1.82894 0
M  V30 43157 C 4141.86 1.19152 3.1705 0
M  V30 43158 C 4140.9 2.35686 3.55464 0
M  V30 43159 S 4141.74 3.98215 3.5803 0
M  V30 43160 C 4142.89 3.79526 4.97706 0
M  V30 43161 H 4143.13 2.35354 1.81647 0
M  V30 43162 H 4140.66 1.29124 0.846551 0
M  V30 43163 H 4142.62 1.07706 3.96118 0
M  V30 43164 H 4141.28 0.255662 3.13058 0
M  V30 43165 H 4140.47 2.16717 4.55027 0
M  V30 43166 H 4140.07 2.4364 2.83753 0
M  V30 43167 H 4142.37 3.40442 5.85752 0
M  V30 43168 H 4143.31 4.78761 5.21721 0
M  V30 43169 H 4143.72 3.12415 4.70167 0
M  V30 43170 N 4143.11 -0.912187 1.28518 0
M  V30 43171 C 4144.04 -2.03151 1.15117 0
M  V30 43172 C 4145.03 -1.70031 0.0485427 0
M  V30 43173 O 4146.21 -1.92883 0.225812 0
M  V30 43174 C 4143.34 -3.37629 0.81387 0
M  V30 43175 C 4142.29 -3.84917 1.87144 0
M  V30 43176 C 4141.62 -5.16378 1.38774 0
M  V30 43177 C 4142.92 -4.06605 3.27826 0
M  V30 43178 H 4144.61 -2.14621 2.08754 0
M  V30 43179 H 4142.16 -1.03124 1.00506 0
M  V30 43180 H 4144.11 -4.15429 0.706877 0
M  V30 43181 H 4142.84 -3.26217 -0.158203 0
M  V30 43182 H 4141.5 -3.09323 1.96761 0
M  V30 43183 H 4141.14 -5.01369 0.404687 0
M  V30 43184 H 4140.84 -5.48987 2.09492 0
M  V30 43185 H 4142.37 -5.96731 1.294 0
M  V30 43186 H 4143.78 -4.74925 3.21122 0
M  V30 43187 H 4142.18 -4.50548 3.96392 0
M  V30 43188 H 4143.25 -3.11362 3.71728 0
M  V30 43189 N 4144.59 -1.10792 -1.12085 0
M  V30 43190 C 4145.87 -0.76458 -1.80038 0
M  V30 43191 C 4146.25 0.748394 -1.97389 0
M  V30 43192 O 4145.6 1.67596 -1.55318 0
M  V30 43193 C 4145.81 -1.51991 -3.14165 0
M  V30 43194 C 4147.16 -1.69482 -3.89308 0
M  V30 43195 O 4148.18 -1.48359 -3.23833 0
M  V30 43196 O 4147.04 -2.04533 -5.06783 0
M  V30 43197 H 4144.13 -0.27626 -0.779493 0
M  V30 43198 H 4146.68 -1.21095 -1.18887 0
M  V30 43199 H 4145.45 -2.54943 -2.9685 0
M  V30 43200 H 4145.07 -1.06665 -3.83025 0
M  V30 43201 N 4146.07 1.29568 -0.897217 0
M  V30 43202 C 4147.32 1.94939 -0.517858 0
M  V30 43203 C 4147.63 1.71529 0.940065 0
M  V30 43204 O 4148.84 2.30984 1.42683 0
M  V30 43205 C 4147.29 3.49095 -0.875245 0
M  V30 43206 C 4146.9 3.81308 -2.35177 0
M  V30 43207 C 4148.65 4.20714 -0.565675 0
M  V30 43208 C 4146.55 5.28698 -2.65014 0
M  V30 43209 H 4145.48 0.729684 -0.189941 0
M  V30 43210 H 4148.13 1.47332 -1.09387 0
M  V30 43211 H 4146.52 3.95342 -0.228185 0
M  V30 43212 H 4147.69 3.45929 -3.04417 0
M  V30 43213 H 4146.01 3.22822 -2.63011 0
M  V30 43214 H 4148.6 5.29192 -0.76548 0
M  V30 43215 H 4148.95 4.13339 0.495658 0
M  V30 43216 H 4149.48 3.80191 -1.17046 0
M  V30 43217 H 4146.22 5.41135 -3.69936 0
M  V30 43218 H 4145.74 5.65333 -2.00395 0
M  V30 43219 H 4147.42 5.96265 -2.51151 0
M  V30 43220 N 4147.55 0.659438 1.4314 0
M  V30 43221 C 4148.96 0.254444 1.84958 0
M  V30 43222 C 4149.31 -1.20028 1.55202 0
M  V30 43223 O 4148.44 -1.91695 1.0041 0
M  V30 43224 C 4149.03 0.45502 3.35731 0
M  V30 43225 C 4147.59 0.104289 3.76255 0
M  V30 43226 C 4146.74 0.754896 2.66827 0
M  V30 43227 H 4149.69 0.86268 1.33205 0
M  V30 43228 H 4149.71 -0.297587 3.79335 0
M  V30 43229 H 4149.22 1.51387 3.57356 0
M  V30 43230 H 4147.32 -0.951721 3.6024 0
M  V30 43231 H 4147.43 0.534093 4.76114 0
M  V30 43232 H 4145.8 0.187571 2.54008 0
M  V30 43233 H 4146.58 1.8169 2.91279 0
M  V30 43234 N 4149.03 -1.52393 0.401757 0
M  V30 43235 C 4150.44 -1.86571 -0.0694981 0
M  V30 43236 C 4150.79 -1.32087 -1.45077 0
M  V30 43237 O 4149.91 -0.657185 -2.0618 0
M  V30 43238 C 4150.51 -3.38539 -0.132887 0
M  V30 43239 C 4149.07 -3.72383 -0.548462 0
M  V30 43240 C 4148.21 -2.75865 0.281713 0
M  V30 43241 H 4151.17 -1.46125 0.619128 0
M  V30 43242 H 4151.19 -3.6846 -0.949602 0
M  V30 43243 H 4150.7 -3.78164 0.872559 0
M  V30 43244 H 4148.8 -3.38333 -1.56082 0
M  V30 43245 H 4148.91 -4.78173 -0.297966 0
M  V30 43246 H 4147.28 -2.53422 -0.254866 0
M  V30 43247 H 4148.06 -3.18329 1.28537 0
M  V30 43248 N 4150.5 -0.131951 -1.57047 0
M  V30 43249 C 4151.78 0.567146 -1.87197 0
M  V30 43250 C 4152.16 1.83966 -1.03536 0
M  V30 43251 O 4151.51 2.28196 -0.117898 0
M  V30 43252 C 4151.72 0.84712 -3.38563 0
M  V30 43253 C 4153.07 1.19451 -4.07451 0
M  V30 43254 O 4154.09 0.936965 -3.43656 0
M  V30 43255 O 4152.95 1.67847 -5.20086 0
M  V30 43256 H 4150.04 0.287594 -0.775383 0
M  V30 43257 H 4152.59 -0.16743 -1.68872 0
M  V30 43258 H 4151.36 -0.0540887 -3.91263 0
M  V30 43259 H 4150.99 1.6364 -3.62364 0
M  V30 43260 N 4151.98 1.5696 0.141838 0
M  V30 43261 C 4152.95 1.97741 1.15892 0
M  V30 43262 C 4153.95 0.86458 1.35579 0
M  V30 43263 O 4155.14 1.1311 1.32483 0
M  V30 43264 C 4152.27 2.29783 2.51818 0
M  V30 43265 H 4153.46 2.88784 0.808943 0
M  V30 43266 H 4151.01 1.51475 0.38536 0
M  V30 43267 H 4151.75 1.41549 2.91778 0
M  V30 43268 H 4151.53 3.10925 2.38889 0
M  V30 43269 H 4153.02 2.62154 3.25062 0
M  V30 43270 N 4153.46 -0.411345 1.52137 0
M  V30 43271 C 4154.74 -1.17135 1.56648 0
M  V30 43272 C 4155.12 -2.08242 0.346179 0
M  V30 43273 O 4154.47 -2.18545 -0.667112 0
M  V30 43274 C 4154.68 -1.95058 2.89402 0
M  V30 43275 C 4156.02 -2.51201 3.4232 0
M  V30 43276 O 4157.05 -2.0524 2.91127 0
M  V30 43277 O 4155.91 -3.35096 4.31709 0
M  V30 43278 H 4153 -0.534704 0.630889 0
M  V30 43279 H 4155.55 -0.418305 1.64464 0
M  V30 43280 H 4154.32 -1.28301 3.69668 0
M  V30 43281 H 4153.94 -2.77372 2.84869 0
M  V30 43282 N 4154.94 -1.42722 -0.668439 0
M  V30 43283 C 4156.22 -1.34012 -1.42478 0
M  V30 43284 C 4156.6 0.019445 -2.11091 0
M  V30 43285 O 4155.94 1.03528 -2.03701 0
M  V30 43286 C 4156.15 -2.51277 -2.422 0
M  V30 43287 C 4157.5 -2.9368 -3.06655 0
M  V30 43288 O 4158.53 -2.51213 -2.52528 0
M  V30 43289 O 4157.39 -3.672 -4.04754 0
M  V30 43290 H 4154.48 -0.528829 -0.635822 0
M  V30 43291 H 4157.03 -1.54742 -0.696627 0
M  V30 43292 H 4155.8 -3.41885 -1.90343 0
M  V30 43293 H 4155.42 -2.32567 -3.22488 0
M  V30 43294 N 4156.42 0.905358 -1.29 0
M  V30 43295 C 4157.33 2.04189 -1.15517 0
M  V30 43296 C 4158.34 1.73817 -0.0797422 0
M  V30 43297 O 4159.52 1.99291 -0.290699 0
M  V30 43298 C 4156.58 3.36693 -0.82696 0
M  V30 43299 C 4155.65 3.80619 -1.98563 0
M  V30 43300 C 4154.88 5.06801 -1.67299 0
M  V30 43301 O 4155.1 5.67327 -0.591267 0
M  V30 43302 O 4154.04 5.46643 -2.51923 0
M  V30 43303 H 4157.86 2.18485 -2.10946 0
M  V30 43304 H 4155.45 1.02811 -1.08398 0
M  V30 43305 H 4157.33 4.16227 -0.658238 0
M  V30 43306 H 4156 3.23553 0.0975972 0
M  V30 43307 H 4154.91 3.01876 -2.20956 0
M  V30 43308 H 4156.24 3.98335 -2.89119 0
M  V30 43309 N 4157.9 1.11385 1.11495 0
M  V30 43310 C 4159.12 0.884826 1.87025 0
M  V30 43311 C 4159.54 -0.56533 1.80137 0
M  V30 43312 O 4158.9 -1.3903 1.18224 0
M  V30 43313 C 4158.95 1.33719 3.35859 0
M  V30 43314 O 4158.67 2.73049 3.42602 0
M  V30 43315 C 4160.17 1.1435 4.28298 0
M  V30 43316 H 4157.39 0.316915 0.591444 0
M  V30 43317 H 4159.93 1.48103 1.41017 0
M  V30 43318 H 4158.09 0.784451 3.79375 0
M  V30 43319 H 4158.5 2.92639 4.35273 0
M  V30 43320 H 4159.98 1.50904 5.30973 0
M  V30 43321 H 4160.45 0.0830093 4.39122 0
M  V30 43322 H 4161.06 1.68319 3.90575 0
M  V30 43323 N 4159.37 -1.2909 0.904076 0
M  V30 43324 C 4160.31 -2.25807 0.329636 0
M  V30 43325 C 4161.28 -1.52628 -0.56067 0
M  V30 43326 O 4162.47 -1.81568 -0.506498 0
M  V30 43327 C 4159.6 -3.34532 -0.529719 0
M  V30 43328 C 4158.64 -4.25486 0.293871 0
M  V30 43329 S 4159.47 -5.07985 1.69445 0
M  V30 43330 C 4160.63 -6.20209 0.842138 0
M  V30 43331 H 4160.86 -2.74182 1.1494 0
M  V30 43332 H 4158.4 -1.3738 0.704699 0
M  V30 43333 H 4160.35 -3.97632 -1.01974 0
M  V30 43334 H 4159.02 -2.84842 -1.32377 0
M  V30 43335 H 4158.21 -5.02693 -0.36278 0
M  V30 43336 H 4157.81 -3.67059 0.717191 0
M  V30 43337 H 4160.1 -6.77466 0.0674614 0
M  V30 43338 H 4161.05 -6.901 1.58643 0
M  V30 43339 H 4161.45 -5.63119 0.394588 0
M  V30 43340 N 4160.85 -0.66702 -1.42789 0
M  V30 43341 C 4162.1 -0.186341 -2.01942 0
M  V30 43342 C 4162.43 1.20136 -1.52581 0
M  V30 43343 O 4161.71 1.80494 -0.724709 0
M  V30 43344 C 4161.99 -0.212386 -3.59473 0
M  V30 43345 C 4161.84 -1.63499 -4.19032 0
M  V30 43346 C 4163.16 0.443685 -4.37858 0
M  V30 43347 H 4160.28 -0.0691862 -0.733745 0
M  V30 43348 H 4162.92 -0.850328 -1.6991 0
M  V30 43349 H 4161.07 0.352994 -3.86893 0
M  V30 43350 H 4162.74 -2.25202 -4.02594 0
M  V30 43351 H 4160.99 -2.17807 -3.75157 0
M  V30 43352 H 4161.66 -1.60496 -5.28153 0
M  V30 43353 H 4164.13 -0.0375063 -4.16083 0
M  V30 43354 H 4163.01 0.394791 -5.47478 0
M  V30 43355 H 4163.27 1.52005 -4.15147 0
M  V30 43356 N 4162.33 1.52178 -0.409833 0
M  V30 43357 C 4163.24 2.30771 0.422149 0
M  V30 43358 C 4164.26 1.38526 1.05293 0
M  V30 43359 O 4165.43 1.716 1.05429 0
M  V30 43360 C 4162.5 3.11438 1.5234 0
M  V30 43361 C 4161.56 4.19422 0.915606 0
M  V30 43362 C 4160.79 4.96234 1.96438 0
M  V30 43363 O 4161.01 4.73355 3.18262 0
M  V30 43364 O 4159.95 5.81058 1.57021 0
M  V30 43365 H 4163.77 3.02912 -0.218688 0
M  V30 43366 H 4161.36 1.48395 -0.17302 0
M  V30 43367 H 4163.24 3.6167 2.1627 0
M  V30 43368 H 4161.92 2.4209 2.14882 0
M  V30 43369 H 4160.82 3.73336 0.238998 0
M  V30 43370 H 4162.16 4.91065 0.334093 0
M  V30 43371 N 4163.81 0.140278 1.56974 0
M  V30 43372 C 4164.74 -0.798195 2.19434 0
M  V30 43373 C 4165.72 -1.26194 1.14057 0
M  V30 43374 O 4166.9 -1.32072 1.42375 0
M  V30 43375 C 4164.03 -2.04013 2.81062 0
M  V30 43376 C 4162.99 -1.7134 3.92207 0
M  V30 43377 C 4162.31 -3.02741 4.40741 0
M  V30 43378 C 4163.61 -0.965237 5.13303 0
M  V30 43379 H 4165.31 -0.277664 2.9811 0
M  V30 43380 H 4162.85 -0.132112 1.43393 0
M  V30 43381 H 4164.81 -2.70141 3.23422 0
M  V30 43382 H 4163.53 -2.58427 1.99708 0
M  V30 43383 H 4162.19 -1.07593 3.50456 0
M  V30 43384 H 4161.84 -3.55132 3.56217 0
M  V30 43385 H 4161.54 -2.81645 5.15703 0
M  V30 43386 H 4163.06 -3.69951 4.85766 0
M  V30 43387 H 4164.48 -1.52847 5.52549 0
M  V30 43388 H 4162.87 -0.85447 5.93986 0
M  V30 43389 H 4163.94 0.044254 4.8488 0
M  V30 43390 N 4165.29 -1.57033 -0.133512 0
M  V30 43391 C 4166.25 -1.98353 -1.14842 0
M  V30 43392 C 4167.25 -0.871758 -1.35119 0
M  V30 43393 O 4168.44 -1.13811 -1.31882 0
M  V30 43394 C 4165.57 -2.31115 -2.50596 0
M  V30 43395 H 4166.76 -2.89209 -0.793616 0
M  V30 43396 H 4164.32 -1.51677 -0.377322 0
M  V30 43397 H 4165.05 -1.43094 -2.91023 0
M  V30 43398 H 4164.84 -3.12188 -2.37237 0
M  V30 43399 H 4166.33 -2.63874 -3.23667 0
M  V30 43400 N 4166.76 0.403271 -1.52353 0
M  V30 43401 C 4168.01 1.1468 -1.65926 0
M  V30 43402 C 4168.33 1.91503 -0.398245 0
M  V30 43403 O 4169.53 2.68327 -0.413872 0
M  V30 43404 C 4167.99 2.08751 -2.93174 0
M  V30 43405 C 4167.6 1.37417 -4.26404 0
M  V30 43406 C 4169.34 2.83327 -3.16111 0
M  V30 43407 C 4167.25 2.30172 -5.44771 0
M  V30 43408 H 4166.18 0.431794 -0.618118 0
M  V30 43409 H 4168.83 0.410761 -1.78844 0
M  V30 43410 H 4167.21 2.85932 -2.73969 0
M  V30 43411 H 4168.38 0.65561 -4.56112 0
M  V30 43412 H 4166.7 0.748596 -4.09616 0
M  V30 43413 H 4169.3 3.52879 -4.01722 0
M  V30 43414 H 4169.64 3.46606 -2.30587 0
M  V30 43415 H 4170.17 2.13244 -3.35815 0
M  V30 43416 H 4166.91 1.7153 -6.32659 0
M  V30 43417 H 4166.43 2.99984 -5.19393 0
M  V30 43418 H 4168.11 2.90569 -5.78082 0
M  V30 43419 N 4168.24 1.43075 0.66086 0
M  V30 43420 C 4169.2 1.4732 1.75583 0
M  V30 43421 C 4170.2 0.358899 1.56744 0
M  V30 43422 O 4171.39 0.620328 1.62781 0
M  V30 43423 C 4168.53 1.31839 3.14374 0
M  V30 43424 H 4169.72 2.44828 1.73202 0
M  V30 43425 H 4167.27 1.29728 0.871805 0
M  V30 43426 H 4168.01 0.353084 3.22372 0
M  V30 43427 H 4167.79 2.12609 3.29454 0
M  V30 43428 H 4169.28 1.37725 3.94236 0
M  V30 43429 N 4169.72 -0.898504 1.29478 0
M  V30 43430 C 4170.65 -2.01919 1.17265 0
M  V30 43431 C 4171.63 -1.6997 0.066574 0
M  V30 43432 O 4172.82 -1.92632 0.246257 0
M  V30 43433 C 4169.95 -3.36747 0.849634 0
M  V30 43434 C 4168.9 -3.8291 1.91216 0
M  V30 43435 C 4168.23 -5.14877 1.44243 0
M  V30 43436 C 4169.53 -4.03105 3.3212 0
M  V30 43437 H 4171.22 -2.12395 2.11019 0
M  V30 43438 H 4168.77 -1.02052 1.01594 0
M  V30 43439 H 4170.72 -4.14656 0.750899 0
M  V30 43440 H 4169.44 -3.26366 -0.123595 0
M  V30 43441 H 4168.1 -3.07219 2.0003 0
M  V30 43442 H 4167.75 -5.00912 0.457841 0
M  V30 43443 H 4167.45 -5.46734 2.15303 0
M  V30 43444 H 4168.97 -5.95325 1.35722 0
M  V30 43445 H 4170.39 -4.71492 3.26141 0
M  V30 43446 H 4168.79 -4.46318 4.01148 0
M  V30 43447 H 4169.86 -3.07402 3.7501 0
M  V30 43448 N 4171.2 -1.11974 -1.10903 0
M  V30 43449 C 4172.42 -0.895024 -1.87094 0
M  V30 43450 C 4172.85 0.550112 -1.79876 0
M  V30 43451 O 4172.21 1.38899 -1.16519 0
M  V30 43452 C 4172.25 -1.36831 -3.33631 0
M  V30 43453 O 4171.36 -0.543625 -4.08801 0
M  V30 43454 H 4170.7 -0.321948 -0.580728 0
M  V30 43455 H 4173.23 -1.49062 -1.40149 0
M  V30 43456 H 4173.24 -1.36526 -3.8448 0
M  V30 43457 H 4171.91 -2.4206 -3.38201 0
M  V30 43458 H 4170.49 -0.613249 -3.67823 0
M  V30 43459 N 4172.68 1.28609 -0.910909 0
M  V30 43460 C 4173.61 2.298 -0.414038 0
M  V30 43461 C 4174.59 1.62057 0.516862 0
M  V30 43462 O 4175.77 1.89488 0.425203 0
M  V30 43463 C 4172.9 3.45539 0.349276 0
M  V30 43464 C 4171.86 4.2516 -0.492225 0
M  V30 43465 C 4171.18 5.33207 0.399258 0
M  V30 43466 C 4172.48 4.92181 -1.74801 0
M  V30 43467 H 4174.18 2.7161 -1.2597 0
M  V30 43468 H 4171.72 1.30573 -0.607172 0
M  V30 43469 H 4173.68 4.15415 0.707697 0
M  V30 43470 H 4172.4 3.02602 1.22881 0
M  V30 43471 H 4171.06 3.57008 -0.833127 0
M  V30 43472 H 4170.71 4.86513 1.27726 0
M  V30 43473 H 4170.41 5.87382 -0.160165 0
M  V30 43474 H 4171.93 6.05931 0.753625 0
M  V30 43475 H 4173.34 5.54433 -1.45866 0
M  V30 43476 H 4171.74 5.56338 -2.24962 0
M  V30 43477 H 4172.81 4.16832 -2.47748 0
M  V30 43478 N 4174.15 0.674583 1.42433 0
M  V30 43479 C 4175.09 -0.0428186 2.2916 0
M  V30 43480 C 4176.1 -0.765723 1.43668 0
M  V30 43481 O 4177.29 -0.619918 1.6739 0
M  V30 43482 C 4174.39 -1.08433 3.21085 0
M  V30 43483 C 4173.56 -0.435291 4.35229 0
M  V30 43484 C 4172.62 -1.37656 5.07875 0
M  V30 43485 O 4171.65 -0.876948 5.62404 0
M  V30 43486 N 4172.85 -2.70985 5.13369 0
M  V30 43487 H 4175.61 0.701669 2.9137 0
M  V30 43488 H 4173.17 0.518981 1.53356 0
M  V30 43489 H 4175.17 -1.71529 3.66551 0
M  V30 43490 H 4173.74 -1.73056 2.60328 0
M  V30 43491 H 4172.96 0.375172 3.92411 0
M  V30 43492 H 4174.24 0.0168777 5.08797 0
M  V30 43493 H 4173.64 -3.14114 4.70477 0
M  V30 43494 H 4172.2 -3.29328 5.62482 0
M  V30 43495 N 4175.63 -1.51958 0.417898 0
M  V30 43496 C 4176.56 -2.24961 -0.438775 0
M  V30 43497 C 4177.58 -1.28248 -1.00281 0
M  V30 43498 O 4178.77 -1.54135 -0.900261 0
M  V30 43499 C 4175.87 -2.97473 -1.62366 0
M  V30 43500 C 4175.04 -4.21128 -1.18196 0
M  V30 43501 C 4174.1 -4.76388 -2.23475 0
M  V30 43502 O 4173.12 -5.3874 -1.83706 0
M  V30 43503 N 4174.33 -4.58723 -3.55743 0
M  V30 43504 H 4177.09 -2.99117 0.186812 0
M  V30 43505 H 4174.65 -1.60024 0.245739 0
M  V30 43506 H 4176.64 -3.31334 -2.32379 0
M  V30 43507 H 4175.21 -2.26449 -2.15499 0
M  V30 43508 H 4174.43 -3.92982 -0.309626 0
M  V30 43509 H 4175.72 -5.01412 -0.863941 0
M  V30 43510 H 4175.12 -4.09015 -3.90798 0
M  V30 43511 H 4173.68 -4.96998 -4.21706 0
M  V30 43512 N 4177.11 -0.1486 -1.56898 0
M  V30 43513 C 4178.39 0.54726 -1.87788 0
M  V30 43514 C 4178.77 1.82857 -1.05482 0
M  V30 43515 O 4178.12 2.28058 -0.142095 0
M  V30 43516 C 4178.33 0.811163 -3.39442 0
M  V30 43517 C 4179.67 1.15123 -4.08695 0
M  V30 43518 O 4180.7 0.900463 -3.4463 0
M  V30 43519 O 4179.56 1.62321 -5.21837 0
M  V30 43520 H 4176.65 0.279354 -0.77839 0
M  V30 43521 H 4179.2 -0.185332 -1.68685 0
M  V30 43522 H 4177.97 -0.0955843 -3.91183 0
M  V30 43523 H 4177.59 1.59788 -3.64079 0
M  V30 43524 N 4178.59 1.57102 0.125182 0
M  V30 43525 C 4179.52 1.96526 1.17941 0
M  V30 43526 C 4180.53 0.863781 1.37995 0
M  V30 43527 O 4181.72 1.1421 1.3718 0
M  V30 43528 C 4178.82 2.24301 2.54052 0
M  V30 43529 C 4178 3.55605 2.54683 0
M  V30 43530 C 4177.05 3.71664 3.72494 0
M  V30 43531 O 4176.08 4.43839 3.56364 0
M  V30 43532 N 4177.28 3.09966 4.90817 0
M  V30 43533 H 4180.05 2.87567 0.844107 0
M  V30 43534 H 4177.61 1.58815 0.314524 0
M  V30 43535 H 4179.6 2.32265 3.31414 0
M  V30 43536 H 4178.17 1.39417 2.79789 0
M  V30 43537 H 4177.39 3.58885 1.6308 0
M  V30 43538 H 4178.68 4.41922 2.52156 0
M  V30 43539 H 4178.08 2.51285 5.06826 0
M  V30 43540 H 4176.63 3.23461 5.65877 0
M  V30 43541 N 4180.07 -0.395186 1.52565 0
M  V30 43542 C 4181 -1.50174 1.73149 0
M  V30 43543 C 4182.01 -1.50862 0.611921 0
M  V30 43544 O 4183.2 -1.54876 0.887456 0
M  V30 43545 C 4180.3 -2.89038 1.76948 0
M  V30 43546 C 4179.47 -3.12384 3.06162 0
M  V30 43547 C 4178.53 -4.31197 3.01589 0
M  V30 43548 O 4177.56 -4.27801 3.75467 0
M  V30 43549 N 4178.76 -5.37056 2.20344 0
M  V30 43550 H 4181.53 -1.32906 2.68619 0
M  V30 43551 H 4179.09 -0.584636 1.50976 0
M  V30 43552 H 4181.08 -3.6661 1.71403 0
M  V30 43553 H 4179.65 -2.99695 0.888909 0
M  V30 43554 H 4178.87 -2.22731 3.25245 0
M  V30 43555 H 4180.16 -3.24834 3.91613 0
M  V30 43556 H 4179.55 -5.42667 1.59777 0
M  V30 43557 H 4178.11 -6.13318 2.20644 0
M  V30 43558 N 4181.54 -1.43423 -0.653263 0
M  V30 43559 C 4182.79 -1.44752 -1.41037 0
M  V30 43560 C 4183.11 -0.0729035 -1.94864 0
M  V30 43561 O 4182.38 0.891751 -1.74427 0
M  V30 43562 H 4180.96 -0.53294 -0.523435 0
M  V30 43563 H 4183.63 -1.79025 -0.770452 0
M  V30 43564 H 4182.72 -2.16005 -2.25274 0
M  V30 43565 N 4183.02 0.891625 -1.29953 0
M  V30 43566 C 4184.25 1.68139 -1.21425 0
M  V30 43567 C 4184.67 1.86802 0.2206 0
M  V30 43568 O 4184.03 1.39417 1.159 0
M  V30 43569 C 4184.08 3.0389 -1.94121 0
M  V30 43570 O 4183.18 3.92559 -1.26376 0
M  V30 43571 H 4182.52 0.514025 -0.420327 0
M  V30 43572 H 4185.05 1.11328 -1.7166 0
M  V30 43573 H 4185.06 3.53979 -2.02887 0
M  V30 43574 H 4183.74 2.89626 -2.98479 0
M  V30 43575 H 4182.32 3.50996 -1.25921 0
M  V30 43576 N 4184.5 1.12561 1.10308 0
M  V30 43577 C 4185.73 0.904933 1.86616 0
M  V30 43578 C 4186.15 -0.540565 1.80165 0
M  V30 43579 O 4185.51 -1.38279 1.17254 0
M  V30 43580 C 4185.56 1.38598 3.32901 0
M  V30 43581 O 4184.66 0.565297 4.08507 0
M  V30 43582 H 4184 0.325023 0.579013 0
M  V30 43583 H 4186.53 1.49803 1.39357 0
M  V30 43584 H 4186.54 1.38563 3.8375 0
M  V30 43585 H 4185.22 2.4385 3.36912 0
M  V30 43586 H 4183.79 0.632747 3.67492 0
M  V30 43587 N 4185.98 -1.28124 0.917717 0
M  V30 43588 C 4187.2 -1.99462 0.568305 0
M  V30 43589 C 4187.63 -1.68091 -0.844216 0
M  V30 43590 O 4186.99 -0.915531 -1.56486 0
M  V30 43591 C 4187.04 -3.51864 0.788921 0
M  V30 43592 O 4186.14 -4.12126 -0.150228 0
M  V30 43593 H 4185.48 -0.626527 0.21991 0
M  V30 43594 H 4188.01 -1.6318 1.23424 0
M  V30 43595 H 4188.02 -4.0194 0.700572 0
M  V30 43596 H 4186.7 -3.74031 1.81862 0
M  V30 43597 H 4185.27 -3.72898 -0.0128125 0
M  V30 43598 N 4187.46 -0.682127 -1.42073 0
M  V30 43599 C 4188.68 -0.214524 -2.06288 0
M  V30 43600 C 4189.11 1.12239 -1.50944 0
M  V30 43601 O 4188.47 1.69969 -0.63089 0
M  V30 43602 C 4188.51 -0.168052 -3.60208 0
M  V30 43603 O 4187.62 0.86122 -4.03307 0
M  V30 43604 H 4186.96 -0.10816 -0.655132 0
M  V30 43605 H 4189.49 -0.933203 -1.82078 0
M  V30 43606 H 4189.5 0.00562867 -4.08 0
M  V30 43607 H 4188.17 -1.14385 -3.99861 0
M  V30 43608 H 4186.75 0.657985 -3.67049 0
M  V30 43609 N 4188.94 1.51735 -0.425951 0
M  V30 43610 C 4189.9 2.26037 0.379458 0
M  V30 43611 C 4190.9 1.29042 0.959417 0
M  V30 43612 O 4192.09 1.52848 0.835653 0
M  V30 43613 C 4189.22 3.04348 1.53575 0
M  V30 43614 H 4190.41 2.98668 -0.271567 0
M  V30 43615 H 4187.97 1.55273 -0.178847 0
M  V30 43616 H 4188.7 2.36107 2.22315 0
M  V30 43617 H 4188.49 3.75579 1.12619 0
M  V30 43618 H 4189.98 3.60662 2.10506 0
M  V30 43619 N 4190.41 0.156919 1.56817 0
M  V30 43620 C 4191.34 -0.774876 2.20268 0
M  V30 43621 C 4192.32 -1.24977 1.15389 0
M  V30 43622 O 4193.51 -1.30554 1.43768 0
M  V30 43623 C 4190.64 -2.0102 2.8321 0
M  V30 43624 C 4189.59 -1.6717 3.94003 0
M  V30 43625 C 4188.92 -2.98049 4.43927 0
M  V30 43626 C 4190.22 -0.91074 5.14298 0
M  V30 43627 H 4191.91 -0.246029 2.98387 0
M  V30 43628 H 4189.46 -0.116896 1.43525 0
M  V30 43629 H 4191.41 -2.66696 3.26269 0
M  V30 43630 H 4190.14 -2.56294 2.02437 0
M  V30 43631 H 4188.8 -1.0387 3.51577 0
M  V30 43632 H 4188.44 -3.51334 3.59963 0
M  V30 43633 H 4188.14 -2.7616 5.18661 0
M  V30 43634 H 4189.67 -3.64778 4.89662 0
M  V30 43635 H 4191.08 -1.46978 5.54139 0
M  V30 43636 H 4189.48 -0.791421 5.94858 0
M  V30 43637 H 4190.55 0.0956795 4.84806 0
M  V30 43638 N 4191.89 -1.57166 -0.116849 0
M  V30 43639 C 4193.14 -1.846 -0.822627 0
M  V30 43640 C 4193.46 -0.742424 -1.80314 0
M  V30 43641 O 4192.73 0.233377 -1.94505 0
M  V30 43642 H 4191.31 -0.681096 -0.306785 0
M  V30 43643 H 4193.97 -1.94624 -0.103659 0
M  V30 43644 H 4193.07 -2.80592 -1.36654 0
M  V30 43645 N 4193.37 0.38709 -1.52772 0
M  V30 43646 C 4194.3 1.47938 -1.80656 0
M  V30 43647 C 4195.28 1.56828 -0.658705 0
M  V30 43648 O 4196.47 1.71746 -0.90648 0
M  V30 43649 C 4193.6 2.85528 -1.97714 0
M  V30 43650 C 4192.55 2.91476 -3.13409 0
M  V30 43651 C 4191.88 4.31534 -3.15725 0
M  V30 43652 C 4193.18 2.60949 -4.52441 0
M  V30 43653 H 4194.87 1.24853 -2.72125 0
M  V30 43654 H 4192.42 0.599187 -1.30942 0
M  V30 43655 H 4194.37 3.61948 -2.15804 0
M  V30 43656 H 4193.09 3.09954 -1.02936 0
M  V30 43657 H 4191.75 2.17504 -2.95106 0
M  V30 43658 H 4191.4 4.53003 -2.18626 0
M  V30 43659 H 4191.1 4.36434 -3.93445 0
M  V30 43660 H 4192.62 5.09858 -3.35972 0
M  V30 43661 H 4194.04 3.27086 -4.70837 0
M  V30 43662 H 4192.43 2.77196 -5.32243 0
M  V30 43663 H 4193.5 1.56281 -4.59025 0
M  V30 43664 N 4194.85 1.43768 0.645648 0
M  V30 43665 C 4195.78 1.45487 1.77105 0
M  V30 43666 C 4196.79 0.35003 1.58993 0
M  V30 43667 O 4197.98 0.61492 1.67574 0
M  V30 43668 C 4195.08 1.25925 3.14637 0
M  V30 43669 C 4194.25 2.49387 3.59339 0
M  V30 43670 C 4193.31 2.24938 4.75699 0
M  V30 43671 O 4192.34 2.98337 4.84751 0
M  V30 43672 N 4193.54 1.27078 5.6642 0
M  V30 43673 H 4196.31 2.42501 1.76106 0
M  V30 43674 H 4193.87 1.39021 0.829743 0
M  V30 43675 H 4195.86 1.07438 3.90178 0
M  V30 43676 H 4194.43 0.373284 3.10363 0
M  V30 43677 H 4193.65 2.83248 2.74161 0
M  V30 43678 H 4194.94 3.31537 3.85955 0
M  V30 43679 H 4194.34 0.664284 5.61786 0
M  V30 43680 H 4192.89 1.14574 6.41651 0
M  V30 43681 N 4196.33 -0.884721 1.30424 0
M  V30 43682 C 4197.55 -1.67493 1.22315 0
M  V30 43683 C 4197.98 -1.86916 -0.21069 0
M  V30 43684 O 4197.33 -1.40029 -1.15159 0
M  V30 43685 C 4197.38 -3.02857 1.9573 0
M  V30 43686 O 4196.49 -3.91884 1.28456 0
M  V30 43687 H 4195.83 -0.511788 0.423047 0
M  V30 43688 H 4198.36 -1.10416 1.72248 0
M  V30 43689 H 4198.37 -3.52898 2.04761 0
M  V30 43690 H 4197.04 -2.88039 3.00011 0
M  V30 43691 H 4195.62 -3.50323 1.27781 0
M  V30 43692 N 4197.8 -1.13144 -1.09709 0
M  V30 43693 C 4198.73 -0.8287 -2.183 0
M  V30 43694 C 4199.71 0.210703 -1.6879 0
M  V30 43695 O 4200.9 0.0702636 -1.94073 0
M  V30 43696 C 4198.03 -0.290735 -3.46081 0
M  V30 43697 C 4196.98 -1.26405 -4.08908 0
M  V30 43698 C 4196.31 -0.58598 -5.31479 0
M  V30 43699 C 4197.61 -2.6215 -4.51746 0
M  V30 43700 H 4199.3 -1.73672 -2.43882 0
M  V30 43701 H 4196.85 -0.836469 -1.17214 0
M  V30 43702 H 4198.8 -0.0666249 -4.21347 0
M  V30 43703 H 4197.53 0.652659 -3.20012 0
M  V30 43704 H 4196.19 -1.4741 -3.35657 0
M  V30 43705 H 4195.83 0.362795 -5.0169 0
M  V30 43706 H 4195.53 -1.23532 -5.74468 0
M  V30 43707 H 4197.06 -0.371083 -6.09471 0
M  V30 43708 H 4198.47 -2.4513 -5.18251 0
M  V30 43709 H 4196.87 -3.23232 -5.05609 0
M  V30 43710 H 4197.94 -3.20031 -3.64291 0
M  V30 43711 N 4199.28 1.27635 -0.924498 0
M  V30 43712 C 4200.53 1.94125 -0.562141 0
M  V30 43713 C 4200.85 1.73042 0.898969 0
M  V30 43714 O 4200.12 1.0763 1.63684 0
M  V30 43715 H 4198.7 0.718347 -0.204906 0
M  V30 43716 H 4201.36 1.55408 -1.1762 0
M  V30 43717 H 4200.46 3.02562 -0.765697 0
M  V30 43718 N 4200.76 0.689652 1.41709 0
M  V30 43719 C 4201.69 0.0348455 2.33474 0
M  V30 43720 C 4202.67 -0.773507 1.51495 0
M  V30 43721 O 4203.86 -0.727673 1.80052 0
M  V30 43722 C 4200.99 -0.906515 3.35261 0
M  V30 43723 C 4199.94 -0.205687 4.27505 0
M  V30 43724 C 4199.27 -1.261 5.19618 0
M  V30 43725 C 4200.57 0.9244 5.14055 0
M  V30 43726 H 4202.26 0.801259 2.88479 0
M  V30 43727 H 4199.81 0.386762 1.38709 0
M  V30 43728 H 4201.76 -1.37379 3.98378 0
M  V30 43729 H 4200.48 -1.70452 2.78592 0
M  V30 43730 H 4199.14 0.241501 3.65804 0
M  V30 43731 H 4198.79 -2.05139 4.59268 0
M  V30 43732 H 4198.49 -0.797119 5.82168 0
M  V30 43733 H 4200.01 -1.72891 5.85612 0
M  V30 43734 H 4201.43 0.537673 5.70773 0
M  V30 43735 H 4199.83 1.315 5.85515 0
M  V30 43736 H 4200.9 1.76668 4.51571 0
M  V30 43737 N 4202.24 -1.51507 0.433991 0
M  V30 43738 C 4203.46 -2.06962 -0.134756 0
M  V30 43739 C 4203.89 -1.29964 -1.35981 0
M  V30 43740 O 4203.25 -0.33666 -1.78147 0
M  V30 43741 C 4203.29 -3.57919 -0.438913 0
M  V30 43742 O 4202.4 -3.83131 -1.52592 0
M  V30 43743 H 4201.74 -0.663992 -0.00333325 0
M  V30 43744 H 4204.27 -1.95158 0.614361 0
M  V30 43745 H 4204.28 -4.02117 -0.690344 0
M  V30 43746 H 4202.95 -4.13387 0.456485 0
M  V30 43747 H 4201.53 -3.50798 -1.26471 0
M  V30 43748 N 4203.72 -0.165233 -1.56731 0
M  V30 43749 C 4204.96 0.480326 -1.96309 0
M  V30 43750 C 4205.29 1.64188 -1.05201 0
M  V30 43751 O 4204.56 1.95549 -0.117142 0
M  V30 43752 H 4203.14 0.180438 -0.72488 0
M  V30 43753 H 4205.8 -0.244995 -1.93354 0
M  V30 43754 H 4204.89 0.844385 -3.00461 0
M  V30 43755 N 4205.19 1.57226 0.108512 0
M  V30 43756 C 4206.13 1.97766 1.1585 0
M  V30 43757 C 4207.14 0.878369 1.37071 0
M  V30 43758 O 4208.33 1.15659 1.35961 0
M  V30 43759 C 4205.43 2.26983 2.51659 0
M  V30 43760 C 4204.6 3.58287 2.50897 0
M  V30 43761 C 4203.66 3.75594 3.68532 0
M  V30 43762 O 4202.69 4.47594 3.51636 0
M  V30 43763 N 4203.89 3.15155 4.87502 0
M  V30 43764 H 4206.65 2.88446 0.813559 0
M  V30 43765 H 4204.21 1.5914 0.297662 0
M  V30 43766 H 4206.21 2.35767 3.28932 0
M  V30 43767 H 4204.78 1.42377 2.78294 0
M  V30 43768 H 4204 3.60594 1.59265 0
M  V30 43769 H 4205.28 4.44571 2.47455 0
M  V30 43770 H 4204.68 2.56646 5.04132 0
M  V30 43771 H 4203.24 3.29444 5.62414 0
M  V30 43772 N 4206.67 -0.378982 1.52975 0
M  V30 43773 C 4207.64 -1.44627 1.77808 0
M  V30 43774 C 4208.64 -1.47154 0.648249 0
M  V30 43775 O 4209.83 -1.48149 0.916373 0
M  V30 43776 C 4206.96 -2.83846 1.88797 0
M  V30 43777 H 4208.15 -1.23887 2.73115 0
M  V30 43778 H 4205.7 -0.611325 1.43849 0
M  V30 43779 H 4206.44 -3.09917 0.955104 0
M  V30 43780 H 4206.22 -2.83411 2.70962 0
M  V30 43781 H 4207.71 -3.61161 2.09648 0
M  V30 43782 N 4208.15 -1.44108 -0.638015 0
M  V30 43783 C 4209.56 -1.41368 -1.21951 0
M  V30 43784 C 4209.91 -0.125486 -1.95798 0
M  V30 43785 O 4209.04 0.774456 -2.02067 0
M  V30 43786 C 4209.63 -2.56093 -2.21815 0
M  V30 43787 C 4208.19 -2.56569 -2.75407 0
M  V30 43788 C 4207.34 -2.3304 -1.50292 0
M  V30 43789 H 4210.29 -1.52789 -0.429104 0
M  V30 43790 H 4210.31 -2.28452 -3.04286 0
M  V30 43791 H 4209.82 -3.49835 -1.68039 0
M  V30 43792 H 4207.92 -1.6675 -3.33205 0
M  V30 43793 H 4208.04 -3.54834 -3.21916 0
M  V30 43794 H 4206.4 -1.82 -1.7818 0
M  V30 43795 H 4207.18 -3.28887 -0.984288 0
M  V30 43796 N 4209.63 0.877792 -1.30891 0
M  V30 43797 C 4210.85 1.66842 -1.23202 0
M  V30 43798 C 4211.28 1.87025 0.200775 0
M  V30 43799 O 4210.64 1.40638 1.14414 0
M  V30 43800 C 4210.68 3.01814 -1.97333 0
M  V30 43801 O 4209.79 3.91197 -1.30533 0
M  V30 43802 H 4209.13 0.509538 -0.425755 0
M  V30 43803 H 4211.66 1.09501 -1.72831 0
M  V30 43804 H 4211.67 3.51807 -2.0663 0
M  V30 43805 H 4210.34 2.86444 -3.01534 0
M  V30 43806 H 4208.92 3.49641 -1.29637 0
M  V30 43807 N 4211.11 1.13725 1.09108 0
M  V30 43808 C 4212.33 0.924676 1.85646 0
M  V30 43809 C 4212.76 -0.521426 1.80728 0
M  V30 43810 O 4212.11 -1.37028 1.18714 0
M  V30 43811 C 4212.16 1.42121 3.31412 0
M  V30 43812 O 4211.27 0.608592 4.07885 0
M  V30 43813 H 4210.61 0.331146 0.575533 0
M  V30 43814 H 4213.14 1.51272 1.3776 0
M  V30 43815 H 4213.15 1.42625 3.82259 0
M  V30 43816 H 4211.82 2.4741 3.34307 0
M  V30 43817 H 4210.4 0.671689 3.66801 0
M  V30 43818 N 4212.58 -1.27143 0.931254 0
M  V30 43819 C 4213.81 -1.98848 0.589428 0
M  V30 43820 C 4214.23 -1.68977 -0.82634 0
M  V30 43821 O 4213.59 -0.932077 -1.55506 0
M  V30 43822 C 4213.64 -3.51008 0.826197 0
M  V30 43823 O 4212.74 -4.12262 -0.106508 0
M  V30 43824 H 4212.09 -0.624159 0.226543 0
M  V30 43825 H 4214.62 -1.61862 1.25148 0
M  V30 43826 H 4214.63 -4.01175 0.743164 0
M  V30 43827 H 4213.3 -3.72081 1.85819 0
M  V30 43828 H 4211.88 -3.7289 0.0267391 0
M  V30 43829 N 4214.06 -0.697157 -1.41342 0
M  V30 43830 C 4215.29 -0.236392 -2.06048 0
M  V30 43831 C 4215.71 1.10632 -1.52126 0
M  V30 43832 O 4215.07 1.6929 -0.648882 0
M  V30 43833 C 4215.12 -0.206248 -3.6001 0
M  V30 43834 O 4214.22 0.818395 -4.04198 0
M  V30 43835 H 4213.56 -0.115102 -0.653948 0
M  V30 43836 H 4216.09 -0.952463 -1.81078 0
M  V30 43837 H 4216.1 -0.0376455 -4.07983 0
M  V30 43838 H 4214.78 -1.18619 -3.98625 0
M  V30 43839 H 4213.36 0.619018 -3.67726 0
M  V30 43840 N 4215.54 1.51274 -0.44202 0
M  V30 43841 C 4216.47 2.30747 0.357517 0
M  V30 43842 C 4217.45 1.36364 1.01681 0
M  V30 43843 O 4218.64 1.65284 1.01955 0
M  V30 43844 C 4215.77 3.15289 1.45636 0
M  V30 43845 C 4214.72 4.17989 0.920304 0
M  V30 43846 C 4214.05 4.91082 2.11525 0
M  V30 43847 C 4215.35 5.22277 -0.0484859 0
M  V30 43848 H 4217.04 2.97835 -0.305702 0
M  V30 43849 H 4214.59 1.43233 -0.148464 0
M  V30 43850 H 4216.54 3.69668 2.02295 0
M  V30 43851 H 4215.26 2.46031 2.14794 0
M  V30 43852 H 4213.92 3.64668 0.375898 0
M  V30 43853 H 4213.57 4.18322 2.79313 0
M  V30 43854 H 4213.27 5.6053 1.76293 0
M  V30 43855 H 4214.8 5.48286 2.68729 0
M  V30 43856 H 4216.21 5.717 0.427952 0
M  V30 43857 H 4214.61 5.9928 -0.313609 0
M  V30 43858 H 4215.68 4.74817 -0.983694 0
M  V30 43859 N 4217.02 0.173543 1.56642 0
M  V30 43860 C 4218.3 -0.517315 1.88635 0
M  V30 43861 C 4218.68 -1.81156 1.08378 0
M  V30 43862 O 4218.02 -2.27803 0.178359 0
M  V30 43863 C 4218.23 -0.757058 3.4069 0
M  V30 43864 C 4219.58 -1.08607 4.10475 0
M  V30 43865 O 4220.61 -0.845522 3.46019 0
M  V30 43866 O 4219.47 -1.53999 5.24354 0
M  V30 43867 H 4216.56 -0.266935 0.782735 0
M  V30 43868 H 4219.11 0.212145 1.68369 0
M  V30 43869 H 4217.88 0.157806 3.90982 0
M  V30 43870 H 4217.5 -1.53976 3.66575 0
M  V30 43871 N 4218.5 -1.57281 -0.100172 0
M  V30 43872 C 4219.46 -2.00745 -1.10609 0
M  V30 43873 C 4220.46 -0.900222 -1.33239 0
M  V30 43874 O 4221.65 -1.16582 -1.29438 0
M  V30 43875 C 4218.78 -2.36379 -2.45638 0
M  V30 43876 H 4219.98 -2.90827 -0.732092 0
M  V30 43877 H 4217.53 -1.52443 -0.345064 0
M  V30 43878 H 4218.26 -1.49235 -2.87923 0
M  V30 43879 H 4218.05 -3.1715 -2.30561 0
M  V30 43880 H 4219.54 -2.7068 -3.17997 0
M  V30 43881 N 4219.98 0.370864 -1.53174 0
M  V30 43882 C 4221.22 1.11186 -1.68766 0
M  V30 43883 C 4221.54 1.89987 -0.439331 0
M  V30 43884 O 4220.81 1.88121 0.546559 0
M  V30 43885 H 4219.39 0.413456 -0.622144 0
M  V30 43886 H 4222.06 0.418761 -1.90348 0
M  V30 43887 H 4221.15 1.80463 -2.54636 0
M  V30 43888 N 4221.45 1.44444 0.630363 0
M  V30 43889 C 4222.68 1.50751 1.4171 0
M  V30 43890 C 4223.1 0.132626 1.88334 0
M  V30 43891 O 4222.45 -0.861621 1.6088 0
M  V30 43892 C 4222.5 2.47285 2.6369 0
M  V30 43893 O 4222.23 3.79429 2.19009 0
M  V30 43894 C 4223.73 2.63064 3.56808 0
M  V30 43895 H 4220.95 0.511262 0.434571 0
M  V30 43896 H 4223.49 1.89416 0.770844 0
M  V30 43897 H 4221.65 2.11755 3.24405 0
M  V30 43898 H 4222.06 4.31554 2.98096 0
M  V30 43899 H 4223.53 3.34636 4.39002 0
M  V30 43900 H 4224.01 1.6832 4.05666 0
M  V30 43901 H 4224.62 2.99499 3.01961 0
M  V30 43902 N 4222.93 -0.870838 1.31355 0
M  V30 43903 C 4223.86 -1.99386 1.21522 0
M  V30 43904 C 4224.84 -1.6979 0.102612 0
M  V30 43905 O 4226.03 -1.92067 0.287062 0
M  V30 43906 C 4223.16 -3.34869 0.920872 0
M  V30 43907 C 4222.11 -3.78768 1.99295 0
M  V30 43908 C 4221.44 -5.11701 1.55132 0
M  V30 43909 C 4222.74 -3.95969 3.40596 0
M  V30 43910 H 4224.43 -2.07871 2.15476 0
M  V30 43911 H 4221.98 -0.998743 1.03736 0
M  V30 43912 H 4223.93 -4.1297 0.838684 0
M  V30 43913 H 4222.65 -3.26555 -0.0543397 0
M  V30 43914 H 4221.31 -3.02907 2.06502 0
M  V30 43915 H 4220.96 -4.99828 0.563989 0
M  V30 43916 H 4220.66 -5.42044 2.26851 0
M  V30 43917 H 4222.19 -5.92312 1.48319 0
M  V30 43918 H 4223.6 -4.64468 3.36069 0
M  V30 43919 H 4222 -4.37709 4.10525 0
M  V30 43920 H 4223.07 -2.99378 3.81446 0
M  V30 43921 N 4224.41 -1.14302 -1.08503 0
M  V30 43922 C 4225.63 -0.934508 -1.85153 0
M  V30 43923 C 4226.06 0.511834 -1.81002 0
M  V30 43924 O 4225.42 1.36396 -1.19439 0
M  V30 43925 C 4225.47 -1.43877 -3.30654 0
M  V30 43926 O 4224.57 -0.630215 -4.07556 0
M  V30 43927 H 4223.91 -0.334194 -0.573769 0
M  V30 43928 H 4226.44 -1.52001 -1.36956 0
M  V30 43929 H 4226.45 -1.44651 -3.81497 0
M  V30 43930 H 4225.13 -2.49179 -3.3299 0
M  V30 43931 H 4223.7 -0.691132 -3.66439 0
M  V30 43932 N 4225.89 1.26648 -0.937984 0
M  V30 43933 C 4227.16 1.89052 -0.501855 0
M  V30 43934 C 4227.54 1.84798 1.02044 0
M  V30 43935 O 4226.89 1.30013 1.87907 0
M  V30 43936 C 4227.1 3.32527 -1.05958 0
M  V30 43937 C 4228.45 4.09389 -1.1263 0
M  V30 43938 O 4229.47 3.41583 -1.00994 0
M  V30 43939 O 4228.33 5.30644 -1.30687 0
M  V30 43940 H 4225.43 0.810765 -0.163062 0
M  V30 43941 H 4227.97 1.34841 -1.03034 0
M  V30 43942 H 4226.75 3.29968 -2.10325 0
M  V30 43943 H 4226.37 3.94272 -0.513351 0
M  V30 43944 N 4227.37 0.704643 1.4097 0
M  V30 43945 C 4228.59 0.248774 2.05399 0
M  V30 43946 C 4229.01 -1.10538 1.53058 0
M  V30 43947 O 4228.37 -1.69255 0.682564 0
M  V30 43948 C 4228.42 0.207857 3.60902 0
M  V30 43949 O 4228.14 1.50853 4.11309 0
M  V30 43950 C 4229.64 -0.267899 4.4249 0
M  V30 43951 H 4226.86 0.113872 0.661267 0
M  V30 43952 H 4229.4 0.959777 1.80578 0
M  V30 43953 H 4227.56 -0.454032 3.8473 0
M  V30 43954 H 4227.97 1.40169 5.05424 0
M  V30 43955 H 4229.45 -0.245392 5.51454 0
M  V30 43956 H 4229.92 -1.30828 4.19262 0
M  V30 43957 H 4230.53 0.363317 4.23745 0
M  V30 43958 N 4228.84 -1.51038 0.450036 0
M  V30 43959 C 4230.07 -2.06605 -0.11046 0
M  V30 43960 C 4230.49 -1.31618 -1.3536 0
M  V30 43961 O 4229.84 -0.379338 -1.78514 0
M  V30 43962 C 4229.9 -3.59053 -0.419885 0
M  V30 43963 O 4229.62 -4.3121 0.773924 0
M  V30 43964 C 4231.12 -4.31176 -1.02966 0
M  V30 43965 H 4228.34 -0.670996 -0.00229042 0
M  V30 43966 H 4230.88 -1.94464 0.632771 0
M  V30 43967 H 4229.04 -3.71067 -1.11302 0
M  V30 43968 H 4229.45 -5.22055 0.505809 0
M  V30 43969 H 4230.92 -5.38886 -1.19608 0
M  V30 43970 H 4231.4 -3.90293 -2.01415 0
M  V30 43971 H 4232.01 -4.23639 -0.375533 0
M  V30 43972 N 4230.32 -0.181847 -1.56547 0
M  V30 43973 C 4231.29 0.730459 -2.17249 0
M  V30 43974 C 4232.29 1.15054 -1.12335 0
M  V30 43975 O 4233.48 1.06579 -1.37792 0
M  V30 43976 C 4230.61 1.99558 -2.76386 0
M  V30 43977 H 4231.8 0.201851 -2.9922 0
M  V30 43978 H 4229.35 0.0677459 -1.56153 0
M  V30 43979 H 4230.09 2.56703 -1.98177 0
M  V30 43980 H 4229.87 1.70323 -3.53175 0
M  V30 43981 H 4231.36 2.64643 -3.23039 0
M  V30 43982 N 4231.8 1.57332 0.09183 0
M  V30 43983 C 4233.03 1.90842 0.812047 0
M  V30 43984 C 4233.45 0.776424 1.71328 0
M  V30 43985 O 4232.81 -0.271836 1.79251 0
M  V30 43986 C 4232.86 3.23228 1.59862 0
M  V30 43987 O 4231.96 3.11048 2.70781 0
M  V30 43988 H 4231.3 0.625478 0.222875 0
M  V30 43989 H 4233.83 2.04493 0.0660759 0
M  V30 43990 H 4233.84 3.56616 1.98214 0
M  V30 43991 H 4232.52 4.05202 0.937225 0
M  V30 43992 H 4231.09 2.89181 2.35433 0
M  V30 43993 N 4233.28 -0.362736 1.53369 0
M  V30 43994 C 4234.24 -1.42733 1.79332 0
M  V30 43995 C 4235.24 -1.46458 0.66382 0
M  V30 43996 O 4236.43 -1.47169 0.932035 0
M  V30 43997 C 4233.56 -2.81827 1.91797 0
M  V30 43998 H 4234.76 -1.20984 2.74414 0
M  V30 43999 H 4232.31 -0.596033 1.44489 0
M  V30 44000 H 4233.04 -3.08886 0.987921 0
M  V30 44001 H 4232.83 -2.80522 2.73953 0
M  V30 44002 H 4234.32 -3.58917 2.13467 0
M  V30 44003 N 4234.76 -1.44777 -0.622694 0
M  V30 44004 C 4236.17 -1.42653 -1.20445 0
M  V30 44005 C 4236.52 -0.146246 -1.95654 0
M  V30 44006 O 4235.64 0.752981 -2.02877 0
M  V30 44007 C 4236.24 -2.58431 -2.19086 0
M  V30 44008 C 4234.8 -2.59476 -2.72671 0
M  V30 44009 C 4233.94 -2.34621 -1.47812 0
M  V30 44010 H 4236.9 -1.53235 -0.412874 0
M  V30 44011 H 4236.92 -2.31667 -3.01846 0
M  V30 44012 H 4236.43 -3.51598 -1.64319 0
M  V30 44013 H 4234.53 -1.70274 -3.31417 0
M  V30 44014 H 4234.64 -3.58228 -3.18134 0
M  V30 44015 H 4233.01 -1.83879 -1.7624 0
M  V30 44016 H 4233.79 -3.29912 -0.94935 0
M  V30 44017 N 4236.23 0.863859 -1.31815 0
M  V30 44018 C 4237.2 1.95319 -1.1993 0
M  V30 44019 C 4238.2 1.60315 -0.124759 0
M  V30 44020 O 4239.39 1.70127 -0.374484 0
M  V30 44021 C 4236.52 3.30331 -0.842292 0
M  V30 44022 H 4237.71 2.07287 -2.1673 0
M  V30 44023 H 4235.27 1.05291 -1.15514 0
M  V30 44024 H 4236 3.24062 0.124292 0
M  V30 44025 H 4235.79 3.57111 -1.61908 0
M  V30 44026 H 4237.28 4.1019 -0.783197 0
M  V30 44027 N 4237.71 1.14875 1.07895 0
M  V30 44028 C 4238.94 0.944314 1.84655 0
M  V30 44029 C 4239.36 -0.502228 1.81271 0
M  V30 44030 O 4238.72 -1.35761 1.20161 0
M  V30 44031 C 4238.77 1.45628 3.29886 0
M  V30 44032 O 4237.87 0.65182 4.07216 0
M  V30 44033 H 4237.21 0.337232 0.571988 0
M  V30 44034 H 4239.74 1.52725 1.36148 0
M  V30 44035 H 4239.75 1.46672 3.80725 0
M  V30 44036 H 4238.43 2.50942 3.31664 0
M  V30 44037 H 4237.01 0.710555 3.66068 0
M  V30 44038 N 4239.19 -1.26148 0.944687 0
M  V30 44039 C 4240.47 -1.88784 0.511874 0
M  V30 44040 C 4240.85 -1.85336 -1.01063 0
M  V30 44041 O 4240.2 -1.31008 -1.87214 0
M  V30 44042 C 4240.41 -3.3196 1.0772 0
M  V30 44043 C 4241.75 -4.08786 1.14799 0
M  V30 44044 O 4242.78 -3.41042 1.02804 0
M  V30 44045 O 4241.64 -5.29944 1.33499 0
M  V30 44046 H 4238.73 -0.809889 0.16736 0
M  V30 44047 H 4241.28 -1.34293 1.03748 0
M  V30 44048 H 4240.05 -3.28848 2.12072 0
M  V30 44049 H 4239.67 -3.93994 0.534253 0
M  V30 44050 N 4240.67 -0.712109 -1.40594 0
M  V30 44051 C 4241.95 -0.177426 -1.94794 0
M  V30 44052 C 4242.33 1.31613 -1.65049 0
M  V30 44053 O 4241.67 2.07063 -0.966299 0
M  V30 44054 C 4241.88 -0.48643 -3.45593 0
M  V30 44055 C 4243.23 -0.423189 -4.22486 0
M  V30 44056 O 4244.26 -0.422289 -3.53688 0
M  V30 44057 O 4243.11 -0.397683 -5.45051 0
M  V30 44058 H 4240.21 -0.0246686 -0.826632 0
M  V30 44059 H 4242.75 -0.789404 -1.50222 0
M  V30 44060 H 4241.53 -1.51959 -3.60589 0
M  V30 44061 H 4241.15 0.155686 -3.97295 0
M  V30 44062 N 4242.15 1.50797 -0.45804 0
M  V30 44063 C 4243.06 2.31997 0.348518 0
M  V30 44064 C 4244.07 1.41806 1.00832 0
M  V30 44065 O 4245.25 1.74868 0.999161 0
M  V30 44066 C 4242.31 3.16127 1.42354 0
M  V30 44067 C 4241.37 4.22123 0.781706 0
M  V30 44068 C 4240.61 5.02232 1.80551 0
M  V30 44069 O 4240.83 4.83241 3.03042 0
M  V30 44070 O 4239.76 5.85759 1.38456 0
M  V30 44071 H 4243.59 3.02063 -0.314946 0
M  V30 44072 H 4241.18 1.47769 -0.220143 0
M  V30 44073 H 4243.06 3.68367 2.04654 0
M  V30 44074 H 4241.73 2.48803 2.07071 0
M  V30 44075 H 4240.64 3.73907 0.120104 0
M  V30 44076 H 4241.97 4.91879 0.177696 0
M  V30 44077 N 4243.63 0.190147 1.56449 0
M  V30 44078 C 4244.87 -0.449034 1.97048 0
M  V30 44079 C 4245.19 -1.62494 1.078 0
M  V30 44080 O 4244.46 -1.95338 0.148238 0
M  V30 44081 H 4243.04 -0.168883 0.727659 0
M  V30 44082 H 4245.71 0.275725 1.9294 0
M  V30 44083 H 4244.8 -0.796477 3.01766 0
M  V30 44084 N 4245.1 -1.57379 -0.083485 0
M  V30 44085 C 4246.33 -1.9127 -0.801914 0
M  V30 44086 C 4246.75 -0.785499 -1.70914 0
M  V30 44087 O 4246.11 0.262326 -1.79392 0
M  V30 44088 C 4246.16 -3.24072 -1.58145 0
M  V30 44089 O 4245.26 -3.1248 -2.69128 0
M  V30 44090 H 4244.6 -0.626651 -0.219555 0
M  V30 44091 H 4247.13 -2.04525 -0.0552302 0
M  V30 44092 H 4247.14 -3.57662 -1.9632 0
M  V30 44093 H 4245.82 -4.05694 -0.915723 0
M  V30 44094 H 4244.4 -2.90426 -2.33896 0
M  V30 44095 N 4246.58 0.354597 -1.53559 0
M  V30 44096 C 4247.81 1.1164 -1.74196 0
M  V30 44097 C 4248.22 1.82702 -0.475975 0
M  V30 44098 O 4247.58 1.73959 0.551768 0
M  V30 44099 C 4247.63 2.13834 -2.91474 0
M  V30 44100 O 4247.35 1.45663 -4.13175 0
M  V30 44101 C 4248.85 3.02476 -3.24073 0
M  V30 44102 H 4246.07 0.333372 -0.582326 0
M  V30 44103 H 4248.62 0.410169 -2.00344 0
M  V30 44104 H 4246.77 2.80038 -2.67689 0
M  V30 44105 H 4247.19 2.13842 -4.78928 0
M  V30 44106 H 4248.66 3.7014 -4.09512 0
M  V30 44107 H 4249.14 3.6789 -2.39904 0
M  V30 44108 H 4249.74 2.41874 -3.49824 0
M  V30 44109 N 4248.06 1.45105 0.615008 0
M  V30 44110 C 4249.02 1.52831 1.70808 0
M  V30 44111 C 4250.02 0.408584 1.55522 0
M  V30 44112 O 4251.21 0.671801 1.60725 0
M  V30 44113 C 4248.34 1.41774 3.10021 0
M  V30 44114 H 4249.54 2.50215 1.65326 0
M  V30 44115 H 4247.09 1.32436 0.830092 0
M  V30 44116 H 4247.83 0.455465 3.21086 0
M  V30 44117 H 4247.61 2.22983 3.22523 0
M  V30 44118 H 4249.1 1.50197 3.89654 0
M  V30 44119 N 4249.54 -0.856857 1.32271 0
M  V30 44120 C 4250.5 -1.9468 1.20964 0
M  V30 44121 C 4251.5 -1.60247 0.133259 0
M  V30 44122 O 4252.69 -1.69926 0.383501 0
M  V30 44123 C 4249.82 -3.29879 0.859798 0
M  V30 44124 H 4251.02 -2.06135 2.17826 0
M  V30 44125 H 4248.57 -1.04677 1.16071 0
M  V30 44126 H 4249.3 -3.24123 -0.107104 0
M  V30 44127 H 4249.09 -3.56247 1.638 0
M  V30 44128 H 4250.58 -4.09769 0.80494 0
M  V30 44129 N 4251.02 -1.15446 -1.07285 0
M  V30 44130 C 4252.24 -0.95363 -1.83612 0
M  V30 44131 C 4252.66 0.498084 -1.82111 0
M  V30 44132 O 4252.02 1.34546 -1.23303 0
M  V30 44133 C 4252.07 -1.46092 -3.30665 0
M  V30 44134 O 4251.79 -2.85576 -3.32231 0
M  V30 44135 C 4253.29 -1.30167 -4.23759 0
M  V30 44136 H 4250.51 -0.338648 -0.579274 0
M  V30 44137 H 4253.05 -1.53235 -1.35423 0
M  V30 44138 H 4251.21 -0.924713 -3.76202 0
M  V30 44139 H 4251.62 -3.08593 -4.24112 0
M  V30 44140 H 4253.1 -1.70506 -5.25006 0
M  V30 44141 H 4253.57 -0.245929 -4.38511 0
M  V30 44142 H 4254.18 -1.82699 -3.84059 0
M  V30 44143 N 4252.49 1.25646 -0.951364 0
M  V30 44144 C 4253.77 1.88509 -0.521878 0
M  V30 44145 C 4254.15 1.8587 1.00078 0
M  V30 44146 O 4253.5 1.31999 1.86517 0
M  V30 44147 C 4253.71 3.31384 -1.09479 0
M  V30 44148 C 4255.06 4.08172 -1.16965 0
M  V30 44149 O 4256.08 3.40492 -1.04611 0
M  V30 44150 O 4254.94 5.29228 -1.36308 0
M  V30 44151 H 4252.03 0.80899 -0.171652 0
M  V30 44152 H 4254.58 1.33741 -1.04458 0
M  V30 44153 H 4253.35 3.27719 -2.13813 0
M  V30 44154 H 4252.97 3.93705 -0.55514 0
M  V30 44155 N 4253.97 0.719555 1.40215 0
M  V30 44156 C 4255.22 0.260261 2.00417 0
M  V30 44157 C 4255.54 -1.15177 1.57351 0
M  V30 44158 O 4254.81 -1.78153 0.81475 0
M  V30 44159 H 4253.39 0.0932334 0.741159 0
M  V30 44160 H 4256.05 0.926071 1.71493 0
M  V30 44161 H 4255.15 0.296474 3.10689 0
M  V30 44162 N 4255.45 -1.50552 0.466031 0
M  V30 44163 C 4256.67 -2.07201 -0.0908265 0
M  V30 44164 C 4257.1 -1.32819 -1.33194 0
M  V30 44165 O 4256.46 -0.374372 -1.77393 0
M  V30 44166 C 4256.51 -3.58769 -0.362894 0
M  V30 44167 O 4255.61 -3.86282 -1.44431 0
M  V30 44168 H 4254.95 -0.663913 0.0107517 0
M  V30 44169 H 4257.48 -1.93811 0.655619 0
M  V30 44170 H 4257.49 -4.03491 -0.604894 0
M  V30 44171 H 4256.17 -4.12326 0.544068 0
M  V30 44172 H 4254.74 -3.53402 -1.19002 0
M  V30 44173 N 4256.93 -0.198441 -1.56346 0
M  V30 44174 C 4258.16 0.444954 -2.02059 0
M  V30 44175 C 4258.57 1.54961 -1.07855 0
M  V30 44176 O 4257.93 1.82307 -0.0840038 0
M  V30 44177 C 4257.98 0.998159 -3.47446 0
M  V30 44178 O 4257.7 -0.0624246 -4.38056 0
M  V30 44179 C 4259.2 1.7171 -4.08694 0
M  V30 44180 H 4256.42 0.111372 -0.661693 0
M  V30 44181 H 4258.96 -0.308127 -2.02165 0
M  V30 44182 H 4257.12 1.70161 -3.48029 0
M  V30 44183 H 4257.53 0.349847 -5.23332 0
M  V30 44184 H 4259.01 2.05645 -5.12264 0
M  V30 44185 H 4259.48 2.622 -3.52346 0
M  V30 44186 H 4260.09 1.05942 -4.11894 0
M  V30 44187 N 4258.41 1.57421 0.0751377 0
M  V30 44188 C 4259.34 2.06496 1.09003 0
M  V30 44189 C 4260.32 0.957791 1.40572 0
M  V30 44190 O 4261.5 1.23031 1.50257 0
M  V30 44191 C 4258.63 2.5061 2.40441 0
M  V30 44192 C 4257.59 3.65172 2.23234 0
M  V30 44193 C 4256.91 3.9533 3.60026 0
M  V30 44194 C 4258.21 4.95341 1.65633 0
M  V30 44195 H 4259.91 2.91537 0.681673 0
M  V30 44196 H 4257.45 1.40251 0.326457 0
M  V30 44197 H 4259.41 2.83554 3.11729 0
M  V30 44198 H 4258.13 1.62593 2.83251 0
M  V30 44199 H 4256.79 3.32506 1.54387 0
M  V30 44200 H 4256.44 3.0445 4.00399 0
M  V30 44201 H 4256.14 4.72469 3.49352 0
M  V30 44202 H 4257.66 4.30767 4.3275 0
M  V30 44203 H 4259.07 5.26538 2.26783 0
M  V30 44204 H 4257.47 5.7678 1.65665 0
M  V30 44205 H 4258.54 4.80952 0.617508 0
M  V30 44206 N 4259.88 -0.346449 1.53745 0
M  V30 44207 C 4261.3 -0.689369 1.43944 0
M  V30 44208 C 4261.5 -1.9255 0.593853 0
M  V30 44209 O 4260.56 -2.52361 0.0837096 0
M  V30 44210 C 4261.87 -0.884716 2.8739 0
M  V30 44211 C 4263.42 -0.983518 2.97146 0
M  V30 44212 C 4263.89 -1.2112 4.41694 0
M  V30 44213 N 4265.38 -1.27847 4.45207 0
M  V30 44214 C 4266.12 -1.47209 5.54181 0
M  V30 44215 N 4265.61 -1.63764 6.73167 0
M  V30 44216 N 4267.41 -1.49734 5.4179 0
M  V30 44217 H 4259.56 0.466343 2.07217 0
M  V30 44218 H 4261.82 0.146691 0.936582 0
M  V30 44219 H 4261.53 -0.0479631 3.51667 0
M  V30 44220 H 4261.4 -1.7873 3.32168 0
M  V30 44221 H 4263.79 -1.81079 2.33011 0
M  V30 44222 H 4263.87 -0.0579029 2.55734 0
M  V30 44223 H 4263.51 -0.388863 5.06409 0
M  V30 44224 H 4263.44 -2.15033 4.80696 0
M  V30 44225 H 4265.93 -1.1659 3.59465 0
M  V30 44226 H 4266.25 -1.78165 7.51982 0
M  V30 44227 H 4264.59 -1.60905 6.76117 0
M  V30 44228 H 4267.78 -1.36381 4.47792 0
M  V30 44229 H 4267.96 -1.64482 6.26777 0
M  V30 44230 N 4261.36 -1.45429 -0.607304 0
M  V30 44231 C 4262.59 -1.52987 -1.39293 0
M  V30 44232 C 4263.01 -0.162572 -1.88099 0
M  V30 44233 O 4262.36 0.835917 -1.6223 0
M  V30 44234 C 4262.41 -2.51449 -2.59722 0
M  V30 44235 O 4262.13 -3.82865 -2.12945 0
M  V30 44236 C 4263.64 -2.68708 -3.52578 0
M  V30 44237 H 4260.86 -0.518111 -0.426382 0
M  V30 44238 H 4263.4 -1.90618 -0.740612 0
M  V30 44239 H 4261.55 -2.16889 -3.20995 0
M  V30 44240 H 4261.97 -4.36242 -2.91193 0
M  V30 44241 H 4263.44 -3.41578 -4.33623 0
M  V30 44242 H 4263.92 -1.74753 -4.02937 0
M  V30 44243 H 4264.53 -3.04265 -2.97158 0
M  V30 44244 N 4262.84 0.84983 -1.32724 0
M  V30 44245 C 4264.07 1.64191 -1.26713 0
M  V30 44246 C 4264.49 1.87409 0.161059 0
M  V30 44247 O 4263.85 1.43033 1.11406 0
M  V30 44248 C 4263.9 2.97561 -2.03691 0
M  V30 44249 O 4263 3.8834 -1.38801 0
M  V30 44250 H 4262.34 0.500392 -0.436468 0
M  V30 44251 H 4264.87 1.0581 -1.75115 0
M  V30 44252 H 4264.88 3.47345 -2.14046 0
M  V30 44253 H 4263.56 2.79983 -3.07542 0
M  V30 44254 H 4262.13 3.46812 -1.37024 0
M  V30 44255 N 4264.32 1.16013 1.06671 0
M  V30 44256 C 4265.73 0.947577 1.60866 0
M  V30 44257 C 4266.08 -0.509458 1.8947 0
M  V30 44258 O 4265.21 -1.38192 1.66529 0
M  V30 44259 C 4265.8 1.7137 2.92263 0
M  V30 44260 C 4264.36 1.54624 3.43174 0
M  V30 44261 C 4263.51 1.72488 2.17125 0
M  V30 44262 H 4266.46 1.30939 0.896702 0
M  V30 44263 H 4266.48 1.18727 3.61503 0
M  V30 44264 H 4265.99 2.77411 2.71413 0
M  V30 44265 H 4264.09 0.510075 3.69092 0
M  V30 44266 H 4264.2 2.32767 4.18755 0
M  V30 44267 H 4262.57 1.15197 2.2716 0
M  V30 44268 H 4263.35 2.79908 1.98762 0
M  V30 44269 N 4265.8 -1.25139 0.958014 0
M  V30 44270 C 4266.76 -2.24002 0.485372 0
M  V30 44271 C 4267.76 -1.55411 -0.412789 0
M  V30 44272 O 4268.95 -1.72934 -0.209604 0
M  V30 44273 C 4266.08 -3.39592 -0.298302 0
M  V30 44274 H 4267.27 -2.67329 1.35923 0
M  V30 44275 H 4264.83 -1.37585 0.741627 0
M  V30 44276 H 4265.56 -3.0169 -1.18968 0
M  V30 44277 H 4265.35 -3.9057 0.346101 0
M  V30 44278 H 4266.84 -4.12997 -0.61834 0
M  V30 44279 N 4267.27 -0.726981 -1.39831 0
M  V30 44280 C 4268.55 -0.198077 -1.94594 0
M  V30 44281 C 4268.93 1.29855 -1.66435 0
M  V30 44282 O 4268.28 2.06026 -0.988206 0
M  V30 44283 C 4268.49 -0.523057 -3.45058 0
M  V30 44284 C 4269.84 -0.467976 -4.22013 0
M  V30 44285 O 4270.86 -0.459779 -3.5322 0
M  V30 44286 O 4269.72 -0.455471 -5.44599 0
M  V30 44287 H 4266.81 -0.0334348 -0.826324 0
M  V30 44288 H 4269.36 -0.805292 -1.49376 0
M  V30 44289 H 4268.13 -1.55775 -3.58957 0
M  V30 44290 H 4267.76 0.113539 -3.97438 0
M  V30 44291 N 4268.75 1.50303 -0.474008 0
M  V30 44292 C 4269.7 2.25491 0.337345 0
M  V30 44293 C 4270.69 1.29201 0.958955 0
M  V30 44294 O 4271.88 1.54085 0.871022 0
M  V30 44295 C 4269.01 3.12688 1.41707 0
M  V30 44296 C 4268.09 4.16428 0.803048 0
M  V30 44297 N 4268.48 5.05739 -0.0783774 0
M  V30 44298 C 4266.78 4.33057 1.06667 0
M  V30 44299 C 4267.48 5.8013 -0.427144 0
M  V30 44300 N 4266.46 5.43238 0.19839 0
M  V30 44301 H 4270.26 2.91908 -0.341609 0
M  V30 44302 H 4267.78 1.5982 -0.288341 0
M  V30 44303 H 4269.77 3.65162 2.01153 0
M  V30 44304 H 4268.43 2.4782 2.09799 0
M  V30 44305 H 4269.44 5.15964 -0.447406 0
M  V30 44306 H 4266.12 3.79405 1.74235 0
M  V30 44307 H 4267.51 6.62044 -1.14664 0
M  V30 44308 N 4270.23 0.20673 1.56238 0
M  V30 44309 C 4271.48 -0.428109 1.97514 0
M  V30 44310 C 4271.8 -1.61341 1.09517 0
M  V30 44311 O 4271.07 -1.9517 0.168948 0
M  V30 44312 H 4269.65 -0.161156 0.729409 0
M  V30 44313 H 4272.31 0.296173 1.92637 0
M  V30 44314 H 4271.41 -0.764426 3.02594 0
M  V30 44315 N 4271.71 -1.57458 -0.0667882 0
M  V30 44316 C 4272.96 -1.87124 -0.763481 0
M  V30 44317 C 4273.28 -0.799413 -1.77861 0
M  V30 44318 O 4272.55 0.171379 -1.95149 0
M  V30 44319 H 4271.13 -0.690511 -0.284962 0
M  V30 44320 H 4273.79 -1.94855 -0.0416879 0
M  V30 44321 H 4272.89 -2.84798 -1.27658 0
M  V30 44322 N 4273.19 0.33829 -1.53926 0
M  V30 44323 C 4274.41 1.10227 -1.75684 0
M  V30 44324 C 4274.84 1.81412 -0.497119 0
M  V30 44325 O 4274.2 1.72739 0.550547 0
M  V30 44326 C 4274.24 2.08738 -2.94042 0
M  V30 44327 O 4273.35 3.16359 -2.64558 0
M  V30 44328 H 4272.69 0.318534 -0.582608 0
M  V30 44329 H 4275.22 0.387078 -2.00905 0
M  V30 44330 H 4275.23 2.51868 -3.20978 0
M  V30 44331 H 4273.9 1.56324 -3.85403 0
M  V30 44332 H 4272.48 2.78009 -2.48526 0
M  V30 44333 N 4274.67 1.45749 0.599583 0
M  V30 44334 C 4275.91 1.50405 1.36037 0
M  V30 44335 C 4276.24 0.148453 1.93632 0
M  V30 44336 O 4275.52 -0.838087 1.75517 0
M  V30 44337 C 4275.8 2.58951 2.50233 0
M  V30 44338 C 4275.66 4.03983 1.97783 0
M  V30 44339 C 4276.97 2.63714 3.52339 0
M  V30 44340 H 4274.09 0.547579 0.493281 0
M  V30 44341 H 4276.74 1.776 0.675147 0
M  V30 44342 H 4274.89 2.35893 3.08686 0
M  V30 44343 H 4276.56 4.38276 1.43917 0
M  V30 44344 H 4274.8 4.14261 1.28726 0
M  V30 44345 H 4275.47 4.75632 2.80139 0
M  V30 44346 H 4277.95 2.84396 3.03741 0
M  V30 44347 H 4276.82 3.41512 4.29722 0
M  V30 44348 H 4277.08 1.6911 4.08478 0
M  V30 44349 N 4276.14 -0.84278 1.33173 0
M  V30 44350 C 4277.39 -1.59462 1.24162 0
M  V30 44351 C 4277.71 -1.94037 -0.193561 0
M  V30 44352 O 4276.98 -1.60633 -1.12132 0
M  V30 44353 H 4275.56 -0.591233 0.456565 0
M  V30 44354 H 4278.22 -1.00743 1.66844 0
M  V30 44355 H 4277.32 -2.52631 1.8326 0
M  V30 44356 N 4277.62 -1.16577 -1.06054 0
M  V30 44357 C 4278.85 -0.973571 -1.83129 0
M  V30 44358 C 4279.27 0.473326 -1.82047 0
M  V30 44359 O 4278.63 1.33832 -1.22306 0
M  V30 44360 C 4278.68 -1.50858 -3.27527 0
M  V30 44361 O 4277.78 -0.716522 -4.06128 0
M  V30 44362 H 4277.12 -0.346289 -0.566551 0
M  V30 44363 H 4279.65 -1.54872 -1.33701 0
M  V30 44364 H 4279.66 -1.5271 -3.78343 0
M  V30 44365 H 4278.34 -2.56186 -3.2763 0
M  V30 44366 H 4276.91 -0.768704 -3.64891 0
M  V30 44367 N 4279.1 1.2463 -0.964637 0
M  V30 44368 C 4280.01 2.29214 -0.499796 0
M  V30 44369 C 4281.03 1.68404 0.43775 0
M  V30 44370 O 4282.2 1.98976 0.311544 0
M  V30 44371 C 4279.27 3.4609 0.205518 0
M  V30 44372 C 4278.33 4.22311 -0.771475 0
M  V30 44373 C 4277.56 5.33607 -0.0997266 0
M  V30 44374 O 4277.78 5.59444 1.11259 0
M  V30 44375 O 4276.72 5.96689 -0.790335 0
M  V30 44376 H 4280.54 2.71087 -1.36915 0
M  V30 44377 H 4278.13 1.30265 -0.731535 0
M  V30 44378 H 4280.01 4.1708 0.601856 0
M  V30 44379 H 4278.69 3.06201 1.04989 0
M  V30 44380 H 4277.59 3.53709 -1.21821 0
M  V30 44381 H 4278.93 4.6601 -1.58417 0
M  V30 44382 N 4280.58 0.734386 1.39444 0
M  V30 44383 C 4281.8 0.290939 2.05349 0
M  V30 44384 C 4282.23 -1.06559 1.55006 0
M  V30 44385 O 4281.59 -1.6751 0.693538 0
M  V30 44386 C 4281.63 0.301626 3.59336 0
M  V30 44387 O 4280.74 -0.710941 4.06226 0
M  V30 44388 H 4280.08 0.1324 0.650666 0
M  V30 44389 H 4282.61 1.00014 1.78489 0
M  V30 44390 H 4282.62 0.145802 4.07739 0
M  V30 44391 H 4281.29 1.29147 3.9534 0
M  V30 44392 H 4279.87 -0.521304 3.69238 0
M  V30 44393 N 4282.06 -1.50049 0.481972 0
M  V30 44394 C 4283.3 -2.01982 -0.0691055 0
M  V30 44395 C 4283.62 -1.36528 -1.39231 0
M  V30 44396 O 4282.89 -0.514207 -1.89031 0
M  V30 44397 H 4281.47 -0.746455 -0.0285287 0
M  V30 44398 H 4284.14 -1.8427 0.634877 0
M  V30 44399 H 4283.23 -3.11374 -0.212688 0
M  V30 44400 N 4283.53 -0.215012 -1.56126 0
M  V30 44401 C 4284.78 0.417628 -1.97738 0
M  V30 44402 C 4285.1 1.60758 -1.10371 0
M  V30 44403 O 4284.37 1.95078 -0.179296 0
M  V30 44404 H 4282.95 0.157286 -0.730254 0
M  V30 44405 H 4285.61 -0.306385 -1.92477 0
M  V30 44406 H 4284.71 0.748368 -3.02995 0
M  V30 44407 N 4285.01 1.57492 0.0584368 0
M  V30 44408 C 4286.24 1.92521 0.771384 0
M  V30 44409 C 4286.66 0.812591 1.69642 0
M  V30 44410 O 4286.02 -0.233753 1.79787 0
M  V30 44411 C 4286.07 3.26547 1.5297 0
M  V30 44412 O 4285.17 3.16722 2.64123 0
M  V30 44413 H 4284.51 0.630065 0.209558 0
M  V30 44414 H 4287.04 2.04587 0.022685 0
M  V30 44415 H 4287.05 3.6074 1.90606 0
M  V30 44416 H 4285.73 4.07099 0.851064 0
M  V30 44417 H 4284.3 2.9411 2.29246 0
M  V30 44418 N 4286.49 -0.330122 1.54104 0
M  V30 44419 C 4287.45 -1.38897 1.82319 0
M  V30 44420 C 4288.45 -1.45017 0.694737 0
M  V30 44421 O 4289.64 -1.45159 0.963042 0
M  V30 44422 C 4286.77 -2.77696 1.97732 0
M  V30 44423 H 4287.97 -1.15136 2.76918 0
M  V30 44424 H 4285.52 -0.565251 1.45721 0
M  V30 44425 H 4286.26 -3.06721 1.05322 0
M  V30 44426 H 4286.04 -2.74647 2.79841 0
M  V30 44427 H 4287.53 -3.54309 2.21032 0
M  V30 44428 N 4287.97 -1.46065 -0.591845 0
M  V30 44429 C 4289.21 -1.51125 -1.35237 0
M  V30 44430 C 4289.55 -0.15872 -1.9355 0
M  V30 44431 O 4288.82 0.828767 -1.75959 0
M  V30 44432 C 4289.11 -2.60274 -2.48856 0
M  V30 44433 C 4288.96 -4.05026 -1.95637 0
M  V30 44434 C 4290.28 -2.65579 -3.50936 0
M  V30 44435 H 4287.4 -0.550188 -0.49037 0
M  V30 44436 H 4290.04 -1.77956 -0.665719 0
M  V30 44437 H 4288.19 -2.37527 -3.0743 0
M  V30 44438 H 4289.86 -4.39033 -1.41591 0
M  V30 44439 H 4288.1 -4.14938 -1.26528 0
M  V30 44440 H 4288.77 -4.77111 -2.77612 0
M  V30 44441 H 4291.25 -2.86002 -3.02228 0
M  V30 44442 H 4290.13 -3.43786 -4.27905 0
M  V30 44443 H 4290.39 -1.71274 -4.07575 0
M  V30 44444 N 4289.45 0.835705 -1.33618 0
M  V30 44445 C 4290.72 1.57602 -1.15849 0
M  V30 44446 C 4291.1 2.09315 0.273914 0
M  V30 44447 O 4290.45 1.89727 1.27342 0
M  V30 44448 C 4290.66 2.7074 -2.20229 0
M  V30 44449 C 4292.01 3.39839 -2.54548 0
M  V30 44450 O 4293.03 2.80985 -2.1892 0
M  V30 44451 O 4291.89 4.4609 -3.15699 0
M  V30 44452 H 4288.99 0.694965 -0.448277 0
M  V30 44453 H 4291.53 0.878186 -1.4521 0
M  V30 44454 H 4290.3 2.3019 -3.1643 0
M  V30 44455 H 4289.93 3.48185 -1.91971 0
M  V30 44456 N 4290.92 1.17138 1.05434 0
M  V30 44457 C 4292.15 0.983269 1.8261 0
M  V30 44458 C 4292.57 -0.463665 1.82296 0
M  V30 44459 O 4291.93 -1.33182 1.23014 0
M  V30 44460 C 4291.98 1.52593 3.26723 0
M  V30 44461 O 4291.08 0.73805 4.05742 0
M  V30 44462 H 4290.43 0.349289 0.564707 0
M  V30 44463 H 4292.96 1.55579 1.32878 0
M  V30 44464 H 4292.97 1.54714 3.77528 0
M  V30 44465 H 4291.64 2.5792 3.26267 0
M  V30 44466 H 4290.22 0.788044 3.64478 0
M  V30 44467 N 4292.4 -1.24116 0.971232 0
M  V30 44468 C 4293.65 -1.92569 0.635997 0
M  V30 44469 C 4293.98 -1.75702 -0.827192 0
M  V30 44470 O 4293.26 -1.11229 -1.59557 0
M  V30 44471 C 4293.54 -3.45474 1.01587 0
M  V30 44472 C 4293.39 -3.71492 2.53601 0
M  V30 44473 C 4294.71 -4.36612 0.553017 0
M  V30 44474 H 4291.83 -0.699357 0.232528 0
M  V30 44475 H 4294.47 -1.46417 1.21087 0
M  V30 44476 H 4292.62 -3.84913 0.526695 0
M  V30 44477 H 4294.29 -3.4159 3.10022 0
M  V30 44478 H 4292.54 -3.16521 2.96643 0
M  V30 44479 H 4293.21 -4.78489 2.75231 0
M  V30 44480 H 4295.68 -4.04567 0.972866 0
M  V30 44481 H 4294.56 -5.4232 0.847339 0
M  V30 44482 H 4294.82 -4.38705 -0.546843 0
M  V30 44483 N 4293.88 -0.741771 -1.39052 0
M  V30 44484 C 4294.84 -0.114659 -2.28913 0
M  V30 44485 C 4295.84 0.660012 -1.4663 0
M  V30 44486 O 4297.03 0.488026 -1.67224 0
M  V30 44487 C 4294.17 0.846549 -3.30222 0
M  V30 44488 H 4295.36 -0.906432 -2.85874 0
M  V30 44489 H 4292.91 -0.508026 -1.47813 0
M  V30 44490 H 4293.65 1.66443 -2.78329 0
M  V30 44491 H 4293.43 0.293617 -3.90999 0
M  V30 44492 H 4294.92 1.28169 -3.97445 0
M  V30 44493 N 4295.36 1.49792 -0.489923 0
M  V30 44494 C 4296.61 2.02016 0.0583929 0
M  V30 44495 C 4296.93 1.37264 1.38505 0
M  V30 44496 O 4296.2 0.524224 1.88756 0
M  V30 44497 H 4294.78 0.746596 0.0245697 0
M  V30 44498 H 4297.44 1.8393 -0.64464 0
M  V30 44499 H 4296.54 3.11483 0.196172 0
M  V30 44500 N 4296.84 0.223289 1.5601 0
M  V30 44501 C 4297.75 -0.697415 2.23994 0
M  V30 44502 C 4298.76 -1.21233 1.24815 0
M  V30 44503 O 4299.94 -1.25357 1.57631 0
M  V30 44504 C 4297 -1.88792 2.90789 0
M  V30 44505 C 4296.06 -1.41481 4.05317 0
M  V30 44506 C 4295.3 -2.54858 4.68917 0
M  V30 44507 O 4295.52 -3.73033 4.31512 0
M  V30 44508 O 4294.45 -2.2596 5.57876 0
M  V30 44509 H 4298.28 -0.14827 3.03338 0
M  V30 44510 H 4295.87 -0.0072321 1.49398 0
M  V30 44511 H 4297.75 -2.58314 3.32944 0
M  V30 44512 H 4296.42 -2.42513 2.14404 0
M  V30 44513 H 4295.33 -0.687558 3.67727 0
M  V30 44514 H 4296.66 -0.92396 4.8345 0
M  V30 44515 N 4298.31 -1.5752 -0.0500839 0
M  V30 44516 C 4299.26 -2.01622 -1.06454 0
M  V30 44517 C 4300.25 -0.901874 -1.33248 0
M  V30 44518 O 4301.44 -1.1658 -1.33185 0
M  V30 44519 C 4298.57 -2.48177 -2.37199 0
M  V30 44520 C 4297.66 -3.66391 -2.13585 0
M  V30 44521 N 4298.05 -4.79839 -1.59964 0
M  V30 44522 C 4296.34 -3.73359 -2.43965 0
M  V30 44523 C 4297.05 -5.61579 -1.5167 0
M  V30 44524 N 4296.02 -5.06066 -1.98491 0
M  V30 44525 H 4299.82 -2.86766 -0.643627 0
M  V30 44526 H 4297.34 -1.60357 -0.256784 0
M  V30 44527 H 4299.33 -2.78022 -3.1066 0
M  V30 44528 H 4297.99 -1.6443 -2.79987 0
M  V30 44529 H 4299.01 -5.01699 -1.28524 0
M  V30 44530 H 4295.68 -3.00371 -2.89972 0
M  V30 44531 H 4297.07 -6.62688 -1.10881 0
M  V30 44532 N 4299.79 0.321945 -1.54277 0
M  V30 44533 C 4301.02 1.08357 -1.76843 0
M  V30 44534 C 4301.44 1.80875 -0.516332 0
M  V30 44535 O 4300.8 1.73313 0.532195 0
M  V30 44536 C 4300.85 2.05608 -2.96239 0
M  V30 44537 O 4299.95 3.13535 -2.67898 0
M  V30 44538 H 4299.29 0.312336 -0.585954 0
M  V30 44539 H 4301.82 0.365747 -2.01304 0
M  V30 44540 H 4301.83 2.48449 -3.23631 0
M  V30 44541 H 4300.51 1.52228 -3.8704 0
M  V30 44542 H 4299.09 2.75358 -2.51461 0
M  V30 44543 N 4301.27 1.46377 0.58409 0
M  V30 44544 C 4302.52 1.5184 1.34434 0
M  V30 44545 C 4302.85 0.168982 1.93463 0
M  V30 44546 O 4302.12 -0.819424 1.76396 0
M  V30 44547 C 4302.41 2.6159 2.47472 0
M  V30 44548 C 4302.26 4.06058 1.93487 0
M  V30 44549 C 4303.58 2.67436 3.49523 0
M  V30 44550 H 4300.7 0.55278 0.487445 0
M  V30 44551 H 4303.34 1.78306 0.656272 0
M  V30 44552 H 4301.49 2.39154 3.06166 0
M  V30 44553 H 4303.16 4.39777 1.39261 0
M  V30 44554 H 4301.41 4.15603 1.24325 0
M  V30 44555 H 4302.08 4.78577 2.75078 0
M  V30 44556 H 4304.55 2.87601 3.00707 0
M  V30 44557 H 4303.43 3.4605 4.26075 0
M  V30 44558 H 4303.69 1.73433 4.06661 0
M  V30 44559 N 4302.75 -0.828607 1.34059 0
M  V30 44560 C 4303.97 -1.62154 1.29309 0
M  V30 44561 C 4304.4 -1.87642 -0.131223 0
M  V30 44562 O 4303.76 -1.44787 -1.09116 0
M  V30 44563 C 4303.81 -2.94283 2.08399 0
M  V30 44564 O 4302.91 -3.86083 1.44962 0
M  V30 44565 H 4302.25 -0.493385 0.444373 0
M  V30 44566 H 4304.78 -1.03011 1.76776 0
M  V30 44567 H 4304.79 -3.43896 2.19545 0
M  V30 44568 H 4303.47 -2.75055 3.11958 0
M  V30 44569 H 4302.04 -3.44589 1.42524 0
M  V30 44570 N 4304.23 -1.17696 -1.04812 0
M  V30 44571 C 4305.48 -0.965791 -1.7753 0
M  V30 44572 C 4305.8 0.506512 -1.88307 0
M  V30 44573 O 4305.07 1.36761 -1.40261 0
M  V30 44574 H 4303.65 -0.354347 -0.657607 0
M  V30 44575 H 4306.31 -1.48241 -1.26533 0
M  V30 44576 H 4305.4 -1.3974 -2.79068 0
M  V30 44577 N 4305.71 1.23599 -0.977801 0
M  V30 44578 C 4307.12 1.44105 -0.685993 0
M  V30 44579 C 4307.32 1.87073 0.748727 0
M  V30 44580 O 4306.38 2.01513 1.52147 0
M  V30 44581 C 4307.69 2.4948 -1.6787 0
M  V30 44582 C 4309.24 2.63296 -1.69246 0
M  V30 44583 C 4309.71 3.71878 -2.6734 0
M  V30 44584 N 4311.2 3.79317 -2.65843 0
M  V30 44585 C 4311.94 4.62886 -3.38415 0
M  V30 44586 N 4311.44 5.50564 -4.20537 0
M  V30 44587 N 4313.23 4.57058 -3.27191 0
M  V30 44588 H 4305.38 0.940095 -1.90463 0
M  V30 44589 H 4307.64 0.474742 -0.820563 0
M  V30 44590 H 4307.35 2.24819 -2.70461 0
M  V30 44591 H 4307.22 3.4782 -1.45948 0
M  V30 44592 H 4309.61 2.87309 -0.673605 0
M  V30 44593 H 4309.69 1.6528 -1.95234 0
M  V30 44594 H 4309.33 3.48614 -3.69366 0
M  V30 44595 H 4309.26 4.6943 -2.38628 0
M  V30 44596 H 4311.76 3.16659 -2.06242 0
M  V30 44597 H 4312.07 6.11314 -4.72774 0
M  V30 44598 H 4310.41 5.50196 -4.24629 0
M  V30 44599 H 4313.6 3.87579 -2.62488 0
M  V30 44600 H 4313.78 5.21958 -3.8401 0
M  V30 44601 N 4307.18 0.749135 1.38657 0
M  V30 44602 C 4308.41 0.312703 2.05029 0
M  V30 44603 C 4308.83 -1.04909 1.56127 0
M  V30 44604 O 4308.19 -1.66765 0.711266 0
M  V30 44605 C 4308.24 0.339721 3.58996 0
M  V30 44606 O 4307.34 -0.667816 4.06957 0
M  V30 44607 H 4306.68 0.139294 0.649225 0
M  V30 44608 H 4309.21 1.01901 1.77418 0
M  V30 44609 H 4309.22 0.18904 4.07562 0
M  V30 44610 H 4307.9 1.33332 3.93948 0
M  V30 44611 H 4306.48 -0.482112 3.6977 0
M  V30 44612 N 4308.66 -1.4953 0.49786 0
M  V30 44613 C 4309.89 -2.07347 -0.0468556 0
M  V30 44614 C 4310.31 -1.35615 -1.30347 0
M  V30 44615 O 4309.67 -0.411915 -1.76559 0
M  V30 44616 C 4309.72 -3.59458 -0.286712 0
M  V30 44617 O 4308.82 -3.89258 -1.36205 0
M  V30 44618 H 4308.16 -0.663536 0.0248319 0
M  V30 44619 H 4310.69 -1.92377 0.696581 0
M  V30 44620 H 4310.7 -4.04683 -0.519171 0
M  V30 44621 H 4309.38 -4.11079 0.631406 0
M  V30 44622 H 4307.95 -3.55847 -1.11479 0
M  V30 44623 N 4310.14 -0.23156 -1.5589 0
M  V30 44624 C 4311.1 0.660974 -2.19462 0
M  V30 44625 C 4312.1 1.11422 -1.15938 0
M  V30 44626 O 4313.29 1.02141 -1.41113 0
M  V30 44627 C 4310.42 1.90664 -2.82595 0
M  V30 44628 H 4311.62 0.106555 -2.99711 0
M  V30 44629 H 4309.17 0.0180327 -1.5629 0
M  V30 44630 H 4309.91 2.50268 -2.06244 0
M  V30 44631 H 4309.69 1.59001 -3.58415 0
M  V30 44632 H 4311.18 2.54232 -3.31294 0
M  V30 44633 N 4311.62 1.57545 0.0417295 0
M  V30 44634 C 4312.85 1.92658 0.746098 0
M  V30 44635 C 4313.26 0.828598 1.70091 0
M  V30 44636 O 4312.6 -0.204739 1.82555 0
M  V30 44637 C 4312.66 3.23479 1.56849 0
M  V30 44638 C 4312.32 4.50297 0.779834 0
M  V30 44639 C 4313.32 5.19829 0.0856818 0
M  V30 44640 C 4311.01 4.96847 0.738115 0
M  V30 44641 C 4313 6.34183 -0.639629 0
M  V30 44642 C 4310.69 6.11099 0.00905152 0
M  V30 44643 C 4311.69 6.79621 -0.678592 0
M  V30 44644 O 4311.37 7.91689 -1.39585 0
M  V30 44645 H 4311.11 0.640724 0.21552 0
M  V30 44646 H 4313.66 2.05399 0.00715034 0
M  V30 44647 H 4311.89 3.07029 2.35096 0
M  V30 44648 H 4313.58 3.44013 2.1543 0
M  V30 44649 H 4314.34 4.84877 0.109025 0
M  V30 44650 H 4310.22 4.43366 1.26284 0
M  V30 44651 H 4313.77 6.87601 -1.17691 0
M  V30 44652 H 4309.66 6.45498 -0.0162589 0
M  V30 44653 H 4310.43 8.07978 -1.30821 0
M  V30 44654 N 4313.1 -0.313759 1.54445 0
M  V30 44655 C 4314.34 -1.04846 1.72777 0
M  V30 44656 C 4314.66 -1.88225 0.50954 0
M  V30 44657 O 4313.93 -1.9002 -0.476362 0
M  V30 44658 H 4312.51 -0.390081 0.63706 0
M  V30 44659 H 4315.18 -0.347826 1.91771 0
M  V30 44660 H 4314.27 -1.70888 2.61158 0
M  V30 44661 N 4314.57 -1.46684 -0.576319 0
M  V30 44662 C 4315.85 -1.42802 -1.33667 0
M  V30 44663 C 4316.23 -0.11484 -2.10787 0
M  V30 44664 O 4315.58 0.903634 -2.09873 0
M  V30 44665 C 4315.79 -2.66171 -2.2573 0
M  V30 44666 C 4317.14 -3.12588 -2.87357 0
M  V30 44667 O 4318.16 -2.66765 -2.3604 0
M  V30 44668 O 4317.02 -3.92198 -3.80582 0
M  V30 44669 H 4314.11 -0.568194 -0.600903 0
M  V30 44670 H 4316.66 -1.58859 -0.596806 0
M  V30 44671 H 4315.43 -3.53298 -1.68215 0
M  V30 44672 H 4315.05 -2.52605 -3.07045 0
M  V30 44673 N 4316.05 0.821486 -1.34497 0
M  V30 44674 C 4317.01 1.91405 -1.26083 0
M  V30 44675 C 4318.01 1.59837 -0.175699 0
M  V30 44676 O 4319.2 1.6885 -0.428419 0
M  V30 44677 C 4316.34 3.27484 -0.946958 0
M  V30 44678 H 4317.53 2.00287 -2.23215 0
M  V30 44679 H 4315.08 1.01563 -1.18805 0
M  V30 44680 H 4315.82 3.24293 0.0211308 0
M  V30 44681 H 4315.6 3.51779 -1.73188 0
M  V30 44682 H 4317.09 4.07491 -0.9133 0
M  V30 44683 N 4317.53 1.1825 1.04186 0
M  V30 44684 C 4318.76 1.00198 1.81019 0
M  V30 44685 C 4319.17 -0.449625 1.83368 0
M  V30 44686 O 4318.53 -1.3123 1.26827 0
M  V30 44687 C 4318.58 1.54808 3.26676 0
M  V30 44688 O 4318.3 2.94285 3.24543 0
M  V30 44689 C 4319.8 1.41357 4.20159 0
M  V30 44690 H 4317.02 0.353887 0.570092 0
M  V30 44691 H 4319.57 1.56771 1.31313 0
M  V30 44692 H 4317.72 1.02413 3.73618 0
M  V30 44693 H 4318.14 3.19729 4.15781 0
M  V30 44694 H 4319.61 1.84366 5.20301 0
M  V30 44695 H 4320.09 0.362106 4.37705 0
M  V30 44696 H 4320.69 1.92817 3.7908 0
M  V30 44697 N 4319.01 -1.23079 0.984342 0
M  V30 44698 C 4319.97 -2.22922 0.532777 0
M  V30 44699 C 4320.97 -1.56252 -0.379731 0
M  V30 44700 O 4322.16 -1.7334 -0.172875 0
M  V30 44701 C 4319.29 -3.40149 -0.226202 0
M  V30 44702 H 4320.49 -2.64386 1.41563 0
M  V30 44703 H 4318.04 -1.35981 0.770644 0
M  V30 44704 H 4318.77 -3.04146 -1.12542 0
M  V30 44705 H 4318.56 -3.89748 0.428869 0
M  V30 44706 H 4320.05 -4.14215 -0.530598 0
M  V30 44707 N 4320.49 -0.756478 -1.38258 0
M  V30 44708 C 4321.4 -0.132837 -2.34224 0
M  V30 44709 C 4322.41 0.697323 -1.59416 0
M  V30 44710 O 4323.59 0.620804 -1.91593 0
M  V30 44711 C 4320.65 0.747623 -3.38543 0
M  V30 44712 C 4319.71 -0.0972415 -4.2919 0
M  V30 44713 C 4318.95 0.74129 -5.28527 0
M  V30 44714 O 4319.17 1.97916 -5.34963 0
M  V30 44715 O 4318.1 0.158564 -6.01691 0
M  V30 44716 H 4321.93 -0.92546 -2.89256 0
M  V30 44717 H 4319.52 -0.517413 -1.40154 0
M  V30 44718 H 4321.4 1.25074 -4.02411 0
M  V30 44719 H 4320.07 1.51869 -2.85863 0
M  V30 44720 H 4318.98 -0.646376 -3.68474 0
M  V30 44721 H 4320.31 -0.831033 -4.85134 0
M  V30 44722 N 4321.96 1.49264 -0.505783 0
M  V30 44723 C 4323.21 2.02066 0.0369632 0
M  V30 44724 C 4323.53 1.38725 1.37041 0
M  V30 44725 O 4322.8 0.544215 1.88189 0
M  V30 44726 H 4321.38 0.746814 0.0166497 0
M  V30 44727 H 4324.05 1.83236 -0.664112 0
M  V30 44728 H 4323.14 3.11673 0.163125 0
M  V30 44729 N 4323.44 0.239823 1.55765 0
M  V30 44730 C 4324.39 -0.676474 2.17733 0
M  V30 44731 C 4325.38 -1.14436 1.13108 0
M  V30 44732 O 4326.57 -1.0953 1.3904 0
M  V30 44733 C 4323.7 -1.87629 2.87489 0
M  V30 44734 C 4322.78 -1.42724 3.99363 0
M  V30 44735 N 4323.17 -0.691954 5.01045 0
M  V30 44736 C 4321.47 -1.71309 4.11788 0
M  V30 44737 C 4322.17 -0.460423 5.79875 0
M  V30 44738 N 4321.15 -1.02255 5.33896 0
M  V30 44739 H 4324.95 -0.106469 2.93707 0
M  V30 44740 H 4322.47 0.041839 1.62346 0
M  V30 44741 H 4324.46 -2.54366 3.30308 0
M  V30 44742 H 4323.12 -2.45059 2.13017 0
M  V30 44743 H 4324.13 -0.342776 5.16764 0
M  V30 44744 H 4320.81 -2.29928 3.48481 0
M  V30 44745 H 4322.2 0.12608 6.71782 0
M  V30 44746 N 4324.92 -1.57565 -0.0333739 0
M  V30 44747 C 4326.33 -1.77445 -0.580518 0
M  V30 44748 C 4326.68 -0.870355 -1.75839 0
M  V30 44749 O 4325.81 -0.0640849 -2.16305 0
M  V30 44750 C 4326.4 -3.21795 -1.05989 0
M  V30 44751 C 4324.96 -3.42887 -1.55259 0
M  V30 44752 C 4324.11 -2.72959 -0.488748 0
M  V30 44753 H 4327.06 -1.57524 0.192854 0
M  V30 44754 H 4327.08 -3.28071 -1.92742 0
M  V30 44755 H 4326.59 -3.87572 -0.202411 0
M  V30 44756 H 4324.69 -2.82279 -2.43206 0
M  V30 44757 H 4324.81 -4.51485 -1.60306 0
M  V30 44758 H 4323.17 -2.36608 -0.94279 0
M  V30 44759 H 4323.95 -3.41416 0.359196 0
M  V30 44760 N 4326.4 0.305564 -1.54609 0
M  V30 44761 C 4327.36 1.35979 -1.84506 0
M  V30 44762 C 4328.36 1.43894 -0.71772 0
M  V30 44763 O 4329.55 1.43609 -0.986014 0
M  V30 44764 C 4326.68 2.74515 -2.02125 0
M  V30 44765 H 4327.88 1.10716 -2.78715 0
M  V30 44766 H 4325.43 0.541996 -1.46602 0
M  V30 44767 H 4326.16 3.05007 -1.10188 0
M  V30 44768 H 4325.95 2.70161 -2.84175 0
M  V30 44769 H 4327.44 3.50747 -2.26641 0
M  V30 44770 N 4327.88 1.46988 0.568532 0
M  V30 44771 C 4329.12 1.52728 1.32358 0
M  V30 44772 C 4329.45 0.186391 1.94107 0
M  V30 44773 O 4328.72 -0.788538 1.79329 0
M  V30 44774 H 4327.3 0.562551 0.491473 0
M  V30 44775 H 4329.96 1.83213 0.664764 0
M  V30 44776 H 4329.05 2.28771 2.12297 0
M  V30 44777 N 4329.35 -0.814342 1.3493 0
M  V30 44778 C 4330.77 -1.38776 1.24892 0
M  V30 44779 C 4331.12 -1.9582 -0.121982 0
M  V30 44780 O 4330.24 -1.90711 -1.02266 0
M  V30 44781 C 4330.84 -2.52287 2.26134 0
M  V30 44782 C 4329.4 -3.05513 2.1986 0
M  V30 44783 C 4328.54 -1.78431 2.12268 0
M  V30 44784 H 4331.49 -0.61802 1.46172 0
M  V30 44785 H 4331.51 -3.30623 1.88332 0
M  V30 44786 H 4331.03 -2.10739 3.259 0
M  V30 44787 H 4329.13 -3.51544 1.2348 0
M  V30 44788 H 4329.24 -3.64021 3.11489 0
M  V30 44789 H 4327.6 -1.99673 1.58123 0
M  V30 44790 H 4328.39 -1.39046 3.13881 0
M  V30 44791 N 4330.83 -1.18801 -1.03557 0
M  V30 44792 C 4332.08 -0.984566 -1.76496 0
M  V30 44793 C 4332.4 0.486511 -1.88833 0
M  V30 44794 O 4331.67 1.35266 -1.41704 0
M  V30 44795 H 4330.25 -0.361302 -0.653812 0
M  V30 44796 H 4332.91 -1.49575 -1.24954 0
M  V30 44797 H 4332.01 -1.42692 -2.77571 0
M  V30 44798 N 4332.31 1.22555 -0.990855 0
M  V30 44799 C 4333.54 1.95809 -0.68363 0
M  V30 44800 C 4333.96 1.72727 0.744778 0
M  V30 44801 O 4333.32 1.00521 1.50882 0
M  V30 44802 C 4333.37 3.46666 -0.992726 0
M  V30 44803 O 4332.47 4.12301 -0.0903086 0
M  V30 44804 H 4331.81 0.612639 -0.256064 0
M  V30 44805 H 4334.34 1.55706 -1.32728 0
M  V30 44806 H 4334.35 3.97172 -0.933723 0
M  V30 44807 H 4333.03 3.62792 -2.0336 0
M  V30 44808 H 4331.6 3.72338 -0.204619 0
M  V30 44809 N 4333.79 0.763799 1.37855 0
M  V30 44810 C 4335.04 0.325012 2.00179 0
M  V30 44811 C 4335.37 -1.0934 1.60494 0
M  V30 44812 O 4334.64 -1.75073 0.847326 0
M  V30 44813 C 4334.93 0.459515 3.57156 0
M  V30 44814 C 4334.78 1.91977 4.06774 0
M  V30 44815 C 4336.1 -0.141 4.39874 0
M  V30 44816 H 4333.22 0.119568 0.727236 0
M  V30 44817 H 4335.86 0.965356 1.63649 0
M  V30 44818 H 4334.01 -0.0856326 3.88406 0
M  V30 44819 H 4335.68 2.52401 3.86124 0
M  V30 44820 H 4333.92 2.43133 3.59261 0
M  V30 44821 H 4334.6 1.96498 5.15842 0
M  V30 44822 H 4337.07 0.324048 4.14836 0
M  V30 44823 H 4335.95 -0.0167065 5.48897 0
M  V30 44824 H 4336.21 -1.23045 4.24632 0
M  V30 44825 N 4335.27 -1.48993 0.513692 0
M  V30 44826 C 4336.49 -2.07385 -0.0248611 0
M  V30 44827 C 4336.92 -1.3699 -1.28901 0
M  V30 44828 O 4336.28 -0.430619 -1.76112 0
M  V30 44829 C 4336.32 -3.59742 -0.248571 0
M  V30 44830 O 4335.43 -3.90681 -1.32069 0
M  V30 44831 H 4334.77 -0.663235 0.0318682 0
M  V30 44832 H 4337.3 -1.91627 0.716946 0
M  V30 44833 H 4337.31 -4.05211 -0.47622 0
M  V30 44834 H 4335.98 -4.10386 0.674971 0
M  V30 44835 H 4334.56 -3.57009 -1.07699 0
M  V30 44836 N 4336.75 -0.248081 -1.55635 0
M  V30 44837 C 4337.97 0.383403 -2.03825 0
M  V30 44838 C 4338.4 1.50664 -1.12614 0
M  V30 44839 O 4337.75 1.80907 -0.119328 0
M  V30 44840 C 4337.8 0.867418 -3.50012 0
M  V30 44841 O 4336.91 1.9769 -3.61929 0
M  V30 44842 H 4336.25 0.0833973 -0.658742 0
M  V30 44843 H 4338.78 -0.374482 -2.01144 0
M  V30 44844 H 4338.79 1.17032 -3.90855 0
M  V30 44845 H 4337.46 0.045461 -4.15875 0
M  V30 44846 H 4336.04 1.6786 -3.32983 0
M  V30 44847 N 4338.22 1.5758 0.0250174 0
M  V30 44848 C 4339.45 1.94114 0.730373 0
M  V30 44849 C 4339.87 0.848392 1.67881 0
M  V30 44850 O 4339.23 -0.195565 1.80242 0
M  V30 44851 C 4339.28 3.29718 1.46009 0
M  V30 44852 O 4338.38 3.22253 2.57345 0
M  V30 44853 H 4337.72 0.634368 0.196146 0
M  V30 44854 H 4340.25 2.0459 -0.0207161 0
M  V30 44855 H 4340.26 3.64702 1.82911 0
M  V30 44856 H 4338.94 4.08813 0.764521 0
M  V30 44857 H 4337.52 2.98907 2.22956 0
M  V30 44858 N 4339.7 -0.29736 1.54769 0
M  V30 44859 C 4340.93 -1.05098 1.78219 0
M  V30 44860 C 4341.34 -1.80809 0.543455 0
M  V30 44861 O 4340.7 -1.75887 -0.486824 0
M  V30 44862 C 4340.75 -2.02869 2.9921 0
M  V30 44863 O 4340.47 -1.30228 4.18297 0
M  V30 44864 C 4341.97 -2.90239 3.35076 0
M  V30 44865 H 4339.19 -0.31153 0.594298 0
M  V30 44866 H 4341.74 -0.33553 2.01729 0
M  V30 44867 H 4339.89 -2.6991 2.77898 0
M  V30 44868 H 4340.31 -1.9592 4.86534 0
M  V30 44869 H 4341.78 -3.54686 4.22968 0
M  V30 44870 H 4342.26 -3.58732 2.53392 0
M  V30 44871 H 4342.86 -2.28724 3.5856 0
M  V30 44872 N 4341.18 -1.47287 -0.560729 0
M  V30 44873 C 4342.43 -1.53428 -1.31546 0
M  V30 44874 C 4342.75 -0.196682 -1.94006 0
M  V30 44875 O 4342.02 0.779017 -1.79745 0
M  V30 44876 H 4340.6 -0.565149 -0.488483 0
M  V30 44877 H 4343.26 -1.83563 -0.655039 0
M  V30 44878 H 4342.36 -2.29894 -2.11081 0
M  V30 44879 N 4342.66 0.807175 -1.3536 0
M  V30 44880 C 4343.62 1.90057 -1.28106 0
M  V30 44881 C 4344.62 1.59642 -0.192642 0
M  V30 44882 O 4345.81 1.68386 -0.446303 0
M  V30 44883 C 4342.94 3.26461 -0.981638 0
M  V30 44884 H 4344.14 1.97909 -2.25327 0
M  V30 44885 H 4341.69 1.00297 -1.19876 0
M  V30 44886 H 4342.42 3.24297 -0.013266 0
M  V30 44887 H 4342.21 3.49922 -1.76909 0
M  V30 44888 H 4343.7 4.06499 -0.956468 0
M  V30 44889 N 4344.14 1.19348 1.02926 0
M  V30 44890 C 4345.38 0.990188 1.75722 0
M  V30 44891 C 4345.7 -0.479852 1.89623 0
M  V30 44892 O 4346.9 -0.801956 2.59386 0
M  V30 44893 C 4345.36 1.72276 3.15989 0
M  V30 44894 C 4344.97 3.23288 3.10143 0
M  V30 44895 C 4346.71 1.60269 3.93083 0
M  V30 44896 C 4344.62 3.89136 4.4534 0
M  V30 44897 H 4343.55 0.366866 0.65873 0
M  V30 44898 H 4346.2 1.4284 1.15191 0
M  V30 44899 H 4344.58 1.21236 3.76985 0
M  V30 44900 H 4345.76 3.81443 2.5853 0
M  V30 44901 H 4344.07 3.35565 2.46546 0
M  V30 44902 H 4346.67 2.06816 4.93083 0
M  V30 44903 H 4347.01 0.55678 4.1256 0
M  V30 44904 H 4347.54 2.08653 3.38687 0
M  V30 44905 H 4344.28 4.93823 4.31067 0
M  V30 44906 H 4343.8 3.35769 4.9701 0
M  V30 44907 H 4345.48 3.92661 5.14224 0
M  V30 44908 N 4345.61 -1.22028 0.997341 0
M  V30 44909 C 4346.84 -1.95444 0.694005 0
M  V30 44910 C 4347.26 -1.7312 -0.735608 0
M  V30 44911 O 4346.62 -1.0132 -1.50346 0
M  V30 44912 C 4346.67 -3.46135 1.0111 0
M  V30 44913 O 4345.77 -4.12247 0.112173 0
M  V30 44914 H 4345.11 -0.611273 0.25931 0
M  V30 44915 H 4347.64 -1.55 1.33552 0
M  V30 44916 H 4347.65 -3.96671 0.954773 0
M  V30 44917 H 4346.33 -3.61708 2.05281 0
M  V30 44918 H 4344.91 -3.72224 0.224363 0
M  V30 44919 N 4347.09 -0.771099 -1.37448 0
M  V30 44920 C 4348.32 -0.346489 -2.03978 0
M  V30 44921 C 4348.74 1.0311 -1.58158 0
M  V30 44922 O 4348.09 1.65806 -0.76254 0
M  V30 44923 C 4348.14 -0.379811 -3.59499 0
M  V30 44924 O 4347.86 -1.70305 -4.03643 0
M  V30 44925 C 4349.37 0.0564765 -4.43264 0
M  V30 44926 H 4346.59 -0.145292 -0.655081 0
M  V30 44927 H 4349.13 -1.04484 -1.75793 0
M  V30 44928 H 4347.28 0.269955 -3.86458 0
M  V30 44929 H 4347.7 -1.64123 -4.9816 0
M  V30 44930 H 4349.17 -0.0179932 -5.51997 0
M  V30 44931 H 4349.65 1.10676 -4.25026 0
M  V30 44932 H 4350.26 -0.565077 -4.21529 0
M  V30 44933 N 4348.57 1.48719 -0.521586 0
M  V30 44934 C 4349.8 2.06897 0.0117602 0
M  V30 44935 C 4350.21 1.37926 1.28926 0
M  V30 44936 O 4349.57 0.464077 1.76501 0
M  V30 44937 C 4349.62 3.60648 0.248098 0
M  V30 44938 O 4349.34 4.27026 -0.978778 0
M  V30 44939 C 4350.84 4.35598 0.822772 0
M  V30 44940 H 4348.06 0.670341 -0.0297263 0
M  V30 44941 H 4350.61 1.91224 -0.724831 0
M  V30 44942 H 4348.76 3.75955 0.934717 0
M  V30 44943 H 4349.18 5.19048 -0.754313 0
M  V30 44944 H 4350.65 5.43979 0.937608 0
M  V30 44945 H 4351.13 3.99458 1.82564 0
M  V30 44946 H 4351.73 4.24948 0.172981 0
M  V30 44947 N 4350.05 0.256331 1.55501 0
M  V30 44948 C 4351.28 -0.369654 2.03571 0
M  V30 44949 C 4351.69 -1.50851 1.13532 0
M  V30 44950 O 4351.05 -1.81869 0.151608 0
M  V30 44951 C 4351.1 -0.868519 3.50912 0
M  V30 44952 O 4350.82 0.224963 4.37522 0
M  V30 44953 C 4352.32 -1.56424 4.14785 0
M  V30 44954 H 4349.54 -0.0867368 0.66537 0
M  V30 44955 H 4352.09 0.382947 2.00882 0
M  V30 44956 H 4350.24 -1.57127 3.54104 0
M  V30 44957 H 4350.65 -0.155375 5.2427 0
M  V30 44958 H 4352.13 -1.86491 5.19543 0
M  V30 44959 H 4352.61 -2.48943 3.61835 0
M  V30 44960 H 4353.21 -0.90582 4.15542 0
M  V30 44961 N 4351.53 -1.57591 -0.0166602 0
M  V30 44962 C 4352.77 -1.89458 -0.703563 0
M  V30 44963 C 4353.1 -0.855594 -1.75227 0
M  V30 44964 O 4352.37 0.109207 -1.95595 0
M  V30 44965 H 4350.95 -0.699228 -0.262849 0
M  V30 44966 H 4353.61 -1.94889 0.020325 0
M  V30 44967 H 4352.7 -2.88715 -1.18533 0
M  V30 44968 N 4353 0.289148 -1.54925 0
M  V30 44969 C 4353.95 1.35889 -1.8308 0
M  V30 44970 C 4354.94 1.45418 -0.688656 0
M  V30 44971 O 4356.13 1.49371 -0.949601 0
M  V30 44972 C 4353.26 2.72195 -2.09201 0
M  V30 44973 C 4352.35 2.66841 -3.29631 0
M  V30 44974 N 4352.74 2.31104 -4.49916 0
M  V30 44975 C 4351.03 2.97927 -3.31897 0
M  V30 44976 C 4351.74 2.35342 -5.31967 0
M  V30 44977 N 4350.71 2.73172 -4.69977 0
M  V30 44978 H 4354.51 1.07241 -2.73636 0
M  V30 44979 H 4352.03 0.497758 -1.54584 0
M  V30 44980 H 4354.02 3.49341 -2.27522 0
M  V30 44981 H 4352.68 3.01744 -1.19919 0
M  V30 44982 H 4353.7 2.03355 -4.76306 0
M  V30 44983 H 4350.37 3.32294 -2.52759 0
M  V30 44984 H 4351.76 2.1041 -6.38104 0
M  V30 44985 N 4354.48 1.47583 0.55291 0
M  V30 44986 C 4355.41 1.56456 1.67494 0
M  V30 44987 C 4356.43 0.450435 1.56445 0
M  V30 44988 O 4357.62 0.720245 1.63324 0
M  V30 44989 C 4354.72 1.4568 3.05991 0
M  V30 44990 C 4353.89 2.71735 3.42752 0
M  V30 44991 C 4352.95 2.54735 4.60431 0
M  V30 44992 O 4351.97 3.28562 4.64797 0
M  V30 44993 N 4353.18 1.62843 5.57192 0
M  V30 44994 H 4355.94 2.5321 1.60327 0
M  V30 44995 H 4353.5 1.44017 0.739652 0
M  V30 44996 H 4355.49 1.32035 3.82556 0
M  V30 44997 H 4354.06 0.569908 3.07361 0
M  V30 44998 H 4353.28 3.0011 2.55593 0
M  V30 44999 H 4354.57 3.55411 3.64089 0
M  V30 45000 H 4353.97 1.02021 5.56424 0
M  V30 45001 H 4352.53 1.55148 6.33066 0
M  V30 45002 N 4355.96 -0.799985 1.35787 0
M  V30 45003 C 4356.87 -1.94363 1.31378 0
M  V30 45004 C 4357.89 -1.72634 0.217614 0
M  V30 45005 O 4359.06 -1.96351 0.448146 0
M  V30 45006 C 4356.13 -3.29057 1.0919 0
M  V30 45007 C 4355.19 -3.63637 2.28181 0
M  V30 45008 C 4354.42 -4.91903 2.07043 0
M  V30 45009 O 4354.64 -5.60835 1.04022 0
M  V30 45010 O 4353.58 -5.24895 2.94566 0
M  V30 45011 H 4357.4 -2.01031 2.27641 0
M  V30 45012 H 4354.99 -0.938722 1.16225 0
M  V30 45013 H 4356.87 -4.0968 0.986912 0
M  V30 45014 H 4355.55 -3.23305 0.159823 0
M  V30 45015 H 4354.45 -2.83363 2.44246 0
M  V30 45016 H 4355.79 -3.74101 3.19859 0
M  V30 45017 N 4357.44 -1.19892 -1.02292 0
M  V30 45018 C 4358.69 -1.00323 -1.75441 0
M  V30 45019 C 4359.01 0.466455 -1.89339 0
M  V30 45020 O 4358.28 1.33755 -1.43131 0
M  V30 45021 H 4356.86 -0.368216 -0.649943 0
M  V30 45022 H 4359.52 -1.50892 -1.2336 0
M  V30 45023 H 4358.62 -1.45628 -2.76042 0
M  V30 45024 N 4358.92 1.21498 -1.0038 0
M  V30 45025 C 4360.19 1.86126 -0.601362 0
M  V30 45026 C 4360.57 1.89947 0.92105 0
M  V30 45027 O 4359.92 1.39791 1.80751 0
M  V30 45028 C 4360.13 3.26442 -1.23436 0
M  V30 45029 C 4361.48 4.02844 -1.34172 0
M  V30 45030 O 4362.5 3.35749 -1.18958 0
M  V30 45031 O 4361.36 5.22971 -1.58631 0
M  V30 45032 H 4358.46 0.800981 -0.20581 0
M  V30 45033 H 4361 1.2919 -1.10037 0
M  V30 45034 H 4359.77 3.18355 -2.2752 0
M  V30 45035 H 4359.4 3.90997 -0.721624 0
M  V30 45036 N 4360.39 0.778378 1.37037 0
M  V30 45037 C 4361.64 0.34503 1.99133 0
M  V30 45038 C 4361.96 -1.08399 1.62094 0
M  V30 45039 O 4361.23 -1.74537 0.889577 0
M  V30 45040 H 4359.81 0.124585 0.736538 0
M  V30 45041 H 4362.48 0.997974 1.67411 0
M  V30 45042 H 4361.57 0.427981 3.09152 0
M  V30 45043 N 4361.87 -1.4844 0.529465 0
M  V30 45044 C 4363.1 -2.074 -0.00286371 0
M  V30 45045 C 4363.52 -1.38349 -1.27441 0
M  V30 45046 O 4362.88 -0.449273 -1.75645 0
M  V30 45047 C 4362.93 -3.59986 -0.210401 0
M  V30 45048 O 4362.03 -3.9206 -1.27918 0
M  V30 45049 H 4361.37 -0.66286 0.0389009 0
M  V30 45050 H 4363.9 -1.90856 0.737231 0
M  V30 45051 H 4363.91 -4.05694 -0.433215 0
M  V30 45052 H 4362.59 -4.09647 0.71846 0
M  V30 45053 H 4361.17 -3.58131 -1.03906 0
M  V30 45054 N 4363.35 -0.264574 -1.55363 0
M  V30 45055 C 4364.26 0.637782 -2.25764 0
M  V30 45056 C 4365.28 1.17881 -1.27985 0
M  V30 45057 O 4366.45 1.21134 -1.60899 0
M  V30 45058 C 4363.52 1.81016 -2.95693 0
M  V30 45059 C 4362.58 1.30685 -4.08925 0
M  V30 45060 C 4361.81 2.42335 -4.75509 0
M  V30 45061 O 4362.04 3.61461 -4.4125 0
M  V30 45062 O 4360.97 2.1109 -5.63671 0
M  V30 45063 H 4364.8 0.0677937 -3.03624 0
M  V30 45064 H 4362.38 -0.0323808 -1.49365 0
M  V30 45065 H 4364.26 2.49396 -3.39676 0
M  V30 45066 H 4362.94 2.36744 -2.20758 0
M  V30 45067 H 4361.84 0.58982 -3.69421 0
M  V30 45068 H 4363.18 0.795457 -4.8573 0
M  V30 45069 N 4364.83 1.57598 0.00830251 0
M  V30 45070 C 4366.08 1.89829 0.693505 0
M  V30 45071 C 4366.4 0.864874 1.74771 0
M  V30 45072 O 4365.67 -0.0988323 1.95651 0
M  V30 45073 H 4364.25 0.700612 0.259137 0
M  V30 45074 H 4366.91 1.94876 -0.0306602 0
M  V30 45075 H 4366.01 2.89339 1.17 0
M  V30 45076 N 4366.31 -0.280928 1.55076 0
M  V30 45077 C 4367.22 -1.36923 1.90497 0
M  V30 45078 C 4368.23 -1.54451 0.80131 0
M  V30 45079 O 4369.41 -1.6873 1.09965 0
M  V30 45080 C 4366.47 -2.70977 2.16269 0
M  V30 45081 C 4365.54 -2.62264 3.39876 0
M  V30 45082 C 4364.77 -3.89925 3.64409 0
M  V30 45083 O 4364.99 -4.90236 2.9159 0
M  V30 45084 O 4363.93 -3.90607 4.57941 0
M  V30 45085 H 4367.75 -1.09883 2.83125 0
M  V30 45086 H 4365.34 -0.478763 1.41521 0
M  V30 45087 H 4367.22 -3.50256 2.34305 0
M  V30 45088 H 4365.89 -2.97821 1.26825 0
M  V30 45089 H 4364.8 -1.81389 3.27183 0
M  V30 45090 H 4366.13 -2.40372 4.29514 0
M  V30 45091 N 4367.79 -1.47874 -0.545076 0
M  V30 45092 C 4369.03 -1.54814 -1.29911 0
M  V30 45093 C 4369.35 -0.217248 -1.93786 0
M  V30 45094 O 4368.62 0.759909 -1.80561 0
M  V30 45095 H 4367.2 -0.570299 -0.482461 0
M  V30 45096 H 4369.87 -1.84247 -0.635533 0
M  V30 45097 H 4368.96 -2.3212 -2.08631 0
M  V30 45098 N 4369.26 0.792773 -1.36209 0
M  V30 45099 C 4370.17 1.93664 -1.32406 0
M  V30 45100 C 4371.19 1.72516 -0.226766 0
M  V30 45101 O 4372.37 1.9611 -0.458553 0
M  V30 45102 C 4369.43 3.28473 -1.10933 0
M  V30 45103 C 4368.49 3.62422 -2.30107 0
M  V30 45104 C 4367.72 4.90798 -2.09649 0
M  V30 45105 O 4367.95 5.60275 -1.06995 0
M  V30 45106 O 4366.88 5.23325 -2.97345 0
M  V30 45107 H 4370.71 1.99821 -2.28704 0
M  V30 45108 H 4368.29 0.932545 -1.16722 0
M  V30 45109 H 4370.17 4.09151 -1.00862 0
M  V30 45110 H 4368.85 3.23216 -0.176967 0
M  V30 45111 H 4367.76 2.82064 -2.45746 0
M  V30 45112 H 4369.09 3.72399 -3.21838 0
M  V30 45113 N 4370.74 1.20433 1.01654 0
M  V30 45114 C 4371.99 1.01252 1.74907 0
M  V30 45115 C 4372.31 -0.456407 1.89584 0
M  V30 45116 O 4371.58 -1.32994 1.43838 0
M  V30 45117 H 4370.16 0.371658 0.647981 0
M  V30 45118 H 4372.82 1.51544 1.22558 0
M  V30 45119 H 4371.92 1.4709 2.75265 0
M  V30 45120 N 4372.22 -1.20963 1.01023 0
M  V30 45121 C 4373.13 -2.27201 0.584523 0
M  V30 45122 C 4374.15 -1.69912 -0.374947 0
M  V30 45123 O 4375.32 -1.99995 -0.237481 0
M  V30 45124 C 4372.39 -3.46615 -0.0769269 0
M  V30 45125 C 4371.45 -4.19157 0.927682 0
M  V30 45126 C 4370.68 -5.32869 0.297703 0
M  V30 45127 O 4370.9 -5.63188 -0.90419 0
M  V30 45128 O 4369.84 -5.93344 1.01125 0
M  V30 45129 H 4373.66 -2.65818 1.46882 0
M  V30 45130 H 4371.25 -1.2746 0.779378 0
M  V30 45131 H 4373.13 -4.19026 -0.446645 0
M  V30 45132 H 4371.81 -3.09887 -0.935518 0
M  V30 45133 H 4370.71 -3.48944 1.34865 0
M  V30 45134 H 4372.05 -4.59809 1.75603 0
M  V30 45135 N 4373.7 -0.785634 -1.36622 0
M  V30 45136 C 4374.93 -0.368104 -2.03599 0
M  V30 45137 C 4375.34 1.01427 -1.59242 0
M  V30 45138 O 4374.7 1.64988 -0.780084 0
M  V30 45139 C 4374.75 -0.41792 -3.59076 0
M  V30 45140 O 4374.47 -1.74577 -4.01814 0
M  V30 45141 C 4375.97 0.00945924 -4.43299 0
M  V30 45142 H 4373.19 -0.152232 -0.653503 0
M  V30 45143 H 4375.73 -1.06343 -1.74675 0
M  V30 45144 H 4373.89 0.228951 -3.86723 0
M  V30 45145 H 4374.3 -1.69398 -4.96392 0
M  V30 45146 H 4375.78 -0.0765388 -5.51947 0
M  V30 45147 H 4376.25 1.06162 -4.26176 0
M  V30 45148 H 4376.86 -0.609754 -4.20906 0
M  V30 45149 N 4375.18 1.48157 -0.53733 0
M  V30 45150 C 4376.09 2.33518 0.225051 0
M  V30 45151 C 4377.1 1.46951 0.931737 0
M  V30 45152 O 4378.28 1.79918 0.905063 0
M  V30 45153 C 4375.34 3.23228 1.25397 0
M  V30 45154 C 4374.4 4.25673 0.556849 0
M  V30 45155 C 4373.64 5.11097 1.53675 0
M  V30 45156 O 4373.86 4.98625 2.77 0
M  V30 45157 O 4372.79 5.92275 1.07212 0
M  V30 45158 H 4376.62 2.99968 -0.47462 0
M  V30 45159 H 4374.2 1.46395 -0.298163 0
M  V30 45160 H 4376.09 3.78698 1.8484 0
M  V30 45161 H 4374.76 2.5943 1.93592 0
M  V30 45162 H 4373.67 3.74018 -0.0782654 0
M  V30 45163 H 4375 4.9213 -0.0832886 0
M  V30 45164 N 4376.65 0.272809 1.55221 0
M  V30 45165 C 4377.9 -0.343951 1.99152 0
M  V30 45166 C 4378.22 -1.56551 1.16261 0
M  V30 45167 O 4377.49 -1.94278 0.251574 0
M  V30 45168 H 4376.07 -0.130074 0.735588 0
M  V30 45169 H 4378.74 0.37761 1.91207 0
M  V30 45170 H 4377.83 -0.635398 3.05564 0
M  V30 45171 N 4378.13 -1.576 5.54043e-05 0
M  V30 45172 C 4379.41 -1.81794 -0.721822 0
M  V30 45173 C 4379.79 -0.877771 -1.91985 0
M  V30 45174 O 4379.14 0.0734924 -2.28382 0
M  V30 45175 C 4379.35 -3.30286 -1.12749 0
M  V30 45176 C 4380.7 -3.96025 -1.53132 0
M  V30 45177 O 4381.72 -3.34609 -1.22128 0
M  V30 45178 O 4380.58 -5.04214 -2.10784 0
M  V30 45179 H 4377.67 -0.748594 -0.351477 0
M  V30 45180 H 4380.22 -1.69681 0.0255137 0
M  V30 45181 H 4378.99 -3.90343 -0.273549 0
M  V30 45182 H 4378.61 -3.47398 -1.93393 0
M  V30 45183 N 4379.61 0.2727 -1.55223 0
M  V30 45184 C 4380.86 1.00575 -1.76104 0
M  V30 45185 C 4381.19 1.8593 -0.560691 0
M  V30 45186 O 4380.46 1.89417 0.441735 0
M  V30 45187 C 4380.75 1.88805 -3.06634 0
M  V30 45188 C 4380.6 1.06442 -4.37024 0
M  V30 45189 C 4381.92 2.87508 -3.33207 0
M  V30 45190 H 4379.04 0.364222 -0.640712 0
M  V30 45191 H 4381.68 0.278123 -1.87953 0
M  V30 45192 H 4379.83 2.50845 -2.96663 0
M  V30 45193 H 4381.5 0.464701 -4.58953 0
M  V30 45194 H 4379.75 0.367891 -4.32237 0
M  V30 45195 H 4380.42 1.71495 -5.24684 0
M  V30 45196 H 4382.89 2.35603 -3.42973 0
M  V30 45197 H 4381.77 3.46384 -4.25804 0
M  V30 45198 H 4382.03 3.62648 -2.52862 0
M  V30 45199 N 4381.09 1.48161 0.537226 0
M  V30 45200 C 4382.04 1.58546 1.63851 0
M  V30 45201 C 4383.02 0.443023 1.54681 0
M  V30 45202 O 4384.21 0.694067 1.62824 0
M  V30 45203 C 4381.34 1.62154 3.0259 0
M  V30 45204 C 4380.43 2.81852 3.16891 0
M  V30 45205 N 4380.82 4.06348 3.01189 0
M  V30 45206 C 4379.12 2.79033 3.47932 0
M  V30 45207 C 4379.82 4.86617 3.18714 0
M  V30 45208 N 4378.8 4.193 3.4596 0
M  V30 45209 H 4382.6 2.52555 1.5031 0
M  V30 45210 H 4380.11 1.44432 0.742504 0
M  V30 45211 H 4382.11 1.67687 3.81689 0
M  V30 45212 H 4380.77 0.692562 3.17228 0
M  V30 45213 H 4381.78 4.36898 2.78102 0
M  V30 45214 H 4378.46 1.9536 3.68973 0
M  V30 45215 H 4379.85 5.95396 3.11373 0
M  V30 45216 N 4382.57 -0.785538 1.36627 0
M  V30 45217 C 4383.79 -1.57443 1.34236 0
M  V30 45218 C 4384.21 -1.88649 -0.075499 0
M  V30 45219 O 4383.57 -1.50417 -1.03348 0
M  V30 45220 C 4383.62 -2.89309 2.16755 0
M  V30 45221 O 4383.34 -2.59446 3.53015 0
M  V30 45222 C 4384.84 -3.83598 2.22188 0
M  V30 45223 H 4382.06 -0.48821 0.460317 0
M  V30 45224 H 4384.6 -0.97467 1.79779 0
M  V30 45225 H 4382.76 -3.45744 1.74757 0
M  V30 45226 H 4383.17 -3.4379 3.96117 0
M  V30 45227 H 4384.65 -4.73171 2.84277 0
M  V30 45228 H 4385.12 -4.21729 1.22641 0
M  V30 45229 H 4385.73 -3.33095 2.64439 0
M  V30 45230 N 4384.04 -1.20971 -1.01014 0
M  V30 45231 C 4385.27 -1.05037 -1.78835 0
M  V30 45232 C 4385.69 0.395687 -1.83891 0
M  V30 45233 O 4385.05 1.28524 -1.27872 0
M  V30 45234 C 4385.1 -1.64614 -3.20834 0
M  V30 45235 O 4384.2 -0.88813 -4.02723 0
M  V30 45236 H 4383.55 -0.370007 -0.551354 0
M  V30 45237 H 4386.08 -1.60403 -1.27012 0
M  V30 45238 H 4386.09 -1.6862 -3.71526 0
M  V30 45239 H 4384.76 -2.69852 -3.16469 0
M  V30 45240 H 4383.34 -0.922775 -3.61302 0
M  V30 45241 N 4385.52 1.20426 -1.01663 0
M  V30 45242 C 4386.47 2.25247 -0.580223 0
M  V30 45243 C 4387.46 1.65059 0.381057 0
M  V30 45244 O 4388.67 1.78242 0.250976 0
M  V30 45245 H 4385.05 0.732689 -0.169325 0
M  V30 45246 H 4387.02 2.59384 -1.47521 0
M  V30 45247 C 4385.77 3.47638 0.0656658 0
M  V30 45248 H 4385.09 3.9423 -0.665013 0
M  V30 45249 H 4386.53 4.22681 0.334134 0
M  V30 45250 C 4384.99 3.10451 1.3085 0
M  V30 45251 O 4385.52 3.21989 2.40179 0
M  V30 45252 N 4383.72 2.65 1.19261 0
M  V30 45253 H 4383.27 2.55812 0.302974 0
M  V30 45254 H 4383.23 2.40489 2.02515 0
M  V30 45255 N 4387 0.792868 1.36203 0
M  V30 45256 C 4388.42 0.474957 1.52369 0
M  V30 45257 C 4388.62 -1.00616 1.74581 0
M  V30 45258 O 4387.67 -1.79156 1.77931 0
M  V30 45259 C 4388.99 1.3084 2.70742 0
M  V30 45260 C 4390.53 1.30244 2.84615 0
M  V30 45261 C 4391.01 2.1197 4.05996 0
M  V30 45262 N 4392.5 2.09434 4.13149 0
M  V30 45263 C 4393.23 2.69437 5.06154 0
M  V30 45264 N 4392.73 3.38312 6.0458 0
M  V30 45265 N 4394.52 2.59152 4.98795 0
M  V30 45266 H 4386.67 1.75226 1.2004 0
M  V30 45267 H 4388.94 0.745044 0.586185 0
M  V30 45268 H 4388.64 2.3589 2.60862 0
M  V30 45269 H 4388.52 0.952088 3.64986 0
M  V30 45270 H 4390.9 0.259851 2.93954 0
M  V30 45271 H 4390.99 1.69854 1.91268 0
M  V30 45272 H 4390.63 3.16262 3.97418 0
M  V30 45273 H 4390.56 1.69729 4.98497 0
M  V30 45274 H 4393.05 1.59309 3.42679 0
M  V30 45275 H 4393.36 3.81417 6.72117 0
M  V30 45276 H 4391.71 3.42414 6.04795 0
M  V30 45277 H 4394.9 2.04942 4.20852 0
M  V30 45278 H 4395.07 3.06205 5.71089 0
M  V30 45279 N 4388.48 -1.4787 0.54518 0
M  V30 45280 C 4389.41 -2.32661 -0.197711 0
M  V30 45281 C 4390.39 -1.43044 -0.920453 0
M  V30 45282 O 4391.57 -1.71915 -0.90327 0
M  V30 45283 C 4388.7 -3.24573 -1.23571 0
M  V30 45284 C 4387.66 -4.23335 -0.630174 0
M  V30 45285 C 4386.98 -5.04487 -1.77193 0
M  V30 45286 C 4388.28 -5.20703 0.408157 0
M  V30 45287 H 4389.98 -2.95022 0.510149 0
M  V30 45288 H 4387.52 -1.4187 0.246781 0
M  V30 45289 H 4389.48 -3.82726 -1.76349 0
M  V30 45290 H 4388.2 -2.60243 -1.97335 0
M  V30 45291 H 4386.86 -3.66391 -0.123793 0
M  V30 45292 H 4386.51 -4.36569 -2.49832 0
M  V30 45293 H 4386.21 -5.71343 -1.37261 0
M  V30 45294 H 4387.73 -5.65495 -2.3032 0
M  V30 45295 H 4389.15 -5.7329 -0.0331035 0
M  V30 45296 H 4387.54 -5.95696 0.725695 0
M  V30 45297 H 4388.61 -4.66913 1.30845 0
M  V30 45298 N 4389.96 -0.281037 -1.55074 0
M  V30 45299 C 4390.91 0.618508 -2.1945 0
M  V30 45300 C 4391.89 1.11396 -1.16102 0
M  V30 45301 O 4393.08 1.05805 -1.41895 0
M  V30 45302 C 4390.21 1.79941 -2.92363 0
M  V30 45303 C 4389.3 1.32086 -4.03006 0
M  V30 45304 N 4389.69 0.558868 -5.02703 0
M  V30 45305 C 4387.99 1.60331 -4.16185 0
M  V30 45306 C 4388.69 0.306518 -5.80892 0
M  V30 45307 N 4387.66 0.880636 -5.36419 0
M  V30 45308 H 4391.47 0.0285605 -2.93886 0
M  V30 45309 H 4388.98 -0.0848674 -1.62178 0
M  V30 45310 H 4390.98 2.45519 -3.36936 0
M  V30 45311 H 4389.64 2.39325 -2.19439 0
M  V30 45312 H 4390.65 0.205645 -5.17492 0
M  V30 45313 H 4387.32 2.20608 -3.54455 0
M  V30 45314 H 4388.71 -0.304146 -6.71211 0
M  V30 45315 N 4391.44 1.57598 -0.00841331 0
M  V30 45316 C 4392.37 2.04412 1.01444 0
M  V30 45317 C 4393.35 0.935656 1.32982 0
M  V30 45318 O 4394.53 1.20442 1.45003 0
M  V30 45319 C 4391.66 2.4488 2.3399 0
M  V30 45320 C 4390.7 3.66543 2.18057 0
M  V30 45321 S 4391.54 5.141 1.49872 0
M  V30 45322 C 4392.69 5.57845 2.83831 0
M  V30 45323 H 4392.93 2.90851 0.615859 0
M  V30 45324 H 4390.46 1.53064 0.202699 0
M  V30 45325 H 4392.42 2.68863 3.10199 0
M  V30 45326 H 4391.08 1.58825 2.70986 0
M  V30 45327 H 4390.27 3.92637 3.15994 0
M  V30 45328 H 4389.87 3.42605 1.49992 0
M  V30 45329 H 4392.16 5.60819 3.80116 0
M  V30 45330 H 4393.11 6.57676 2.62426 0
M  V30 45331 H 4393.52 4.85431 2.88126 0
M  V30 45332 N 4392.91 -0.264465 1.55365 0
M  V30 45333 C 4394.16 -0.996398 1.76635 0
M  V30 45334 C 4394.49 -1.8563 0.570543 0
M  V30 45335 O 4393.77 -1.89649 -0.431683 0
M  V30 45336 C 4394.05 -1.87176 3.07631 0
M  V30 45337 C 4393.9 -1.04123 4.37583 0
M  V30 45338 C 4395.22 -2.85737 3.34727 0
M  V30 45339 H 4392.34 -0.360819 0.642634 0
M  V30 45340 H 4394.98 -0.268152 1.88098 0
M  V30 45341 H 4393.13 -2.49268 2.97989 0
M  V30 45342 H 4394.81 -0.440355 4.59193 0
M  V30 45343 H 4393.05 -0.344963 4.32426 0
M  V30 45344 H 4393.72 -1.68711 5.25586 0
M  V30 45345 H 4396.2 -2.33781 3.44218 0
M  V30 45346 H 4395.07 -3.44121 4.27635 0
M  V30 45347 H 4395.33 -3.61302 2.54781 0
M  V30 45348 N 4394.39 -1.48444 -0.529361 0
M  V30 45349 C 4395.81 -1.34578 -0.857957 0
M  V30 45350 C 4396.01 -0.35727 -1.98307 0
M  V30 45351 O 4395.06 0.221291 -2.51528 0
M  V30 45352 C 4396.38 -2.74621 -1.2249 0
M  V30 45353 C 4397.92 -2.83114 -1.33474 0
M  V30 45354 C 4398.4 -4.23861 -1.73511 0
M  V30 45355 N 4399.89 -4.26536 -1.80613 0
M  V30 45356 C 4400.63 -5.32379 -2.12978 0
M  V30 45357 N 4400.12 -6.48499 -2.43763 0
M  V30 45358 N 4401.91 -5.19774 -2.13989 0
M  V30 45359 H 4394.07 -2.11329 0.212999 0
M  V30 45360 H 4396.33 -0.947437 0.0326532 0
M  V30 45361 H 4396.03 -3.48521 -0.471782 0
M  V30 45362 H 4395.91 -3.08185 -2.1749 0
M  V30 45363 H 4398.3 -2.09469 -2.07862 0
M  V30 45364 H 4398.38 -2.53169 -0.365938 0
M  V30 45365 H 4398.02 -4.98022 -0.996838 0
M  V30 45366 H 4397.95 -4.51249 -2.71443 0
M  V30 45367 H 4400.44 -3.42778 -1.59096 0
M  V30 45368 H 4400.75 -7.25002 -2.67566 0
M  V30 45369 H 4399.1 -6.51773 -2.41281 0
M  V30 45370 H 4402.29 -4.28073 -1.89396 0
M  V30 45371 H 4402.46 -6.02362 -2.38881 0
M  V30 45372 N 4395.87 0.778281 -1.37042 0
M  V30 45373 C 4396.8 1.90541 -1.34968 0
M  V30 45374 C 4397.78 1.6868 -0.219333 0
M  V30 45375 O 4398.97 1.89633 -0.41869 0
M  V30 45376 C 4396.1 3.2773 -1.14937 0
M  V30 45377 C 4395.05 3.64139 -2.24914 0
M  V30 45378 C 4394.38 4.99799 -1.90013 0
M  V30 45379 C 4395.68 3.71566 -3.67064 0
M  V30 45380 H 4397.37 1.92533 -2.29284 0
M  V30 45381 H 4394.92 0.924909 -1.1037 0
M  V30 45382 H 4396.87 4.06211 -1.12118 0
M  V30 45383 H 4395.59 3.26153 -0.170746 0
M  V30 45384 H 4394.25 2.87962 -2.26878 0
M  V30 45385 H 4393.9 4.94756 -0.90697 0
M  V30 45386 H 4393.6 5.25129 -2.63653 0
M  V30 45387 H 4395.12 5.80688 -1.8877 0
M  V30 45388 H 4396.54 4.40214 -3.67267 0
M  V30 45389 H 4394.93 4.08389 -4.39703 0
M  V30 45390 H 4396 2.7239 -4.01163 0
M  V30 45391 N 4397.35 1.21505 1.00371 0
M  V30 45392 C 4398.28 0.918743 2.08888 0
M  V30 45393 C 4399.26 -0.13422 1.62045 0
M  V30 45394 O 4400.44 -0.00497629 1.88499 0
M  V30 45395 C 4397.57 0.379763 3.36564 0
M  V30 45396 C 4396.62 1.41573 4.02318 0
M  V30 45397 S 4397.45 2.98536 4.44563 0
M  V30 45398 C 4398.6 2.46248 5.75424 0
M  V30 45399 H 4398.84 1.8377 2.33701 0
M  V30 45400 H 4396.37 1.04493 1.13669 0
M  V30 45401 H 4398.33 0.0753638 4.10431 0
M  V30 45402 H 4396.99 -0.517899 3.09801 0
M  V30 45403 H 4396.18 0.98825 4.94216 0
M  V30 45404 H 4395.78 1.66827 3.34731 0
M  V30 45405 H 4398.08 1.86814 6.51235 0
M  V30 45406 H 4399.02 3.36594 6.22985 0
M  V30 45407 H 4399.43 1.87913 5.32305 0
M  V30 45408 N 4398.83 -1.19885 1.023 0
M  V30 45409 C 4399.76 -2.25139 0.619253 0
M  V30 45410 C 4400.74 -1.66053 -0.368857 0
M  V30 45411 O 4401.92 -1.92547 -0.252873 0
M  V30 45412 C 4399.05 -3.47281 -0.0367562 0
M  V30 45413 C 4398.01 -4.19002 0.873012 0
M  V30 45414 C 4397.33 -5.34636 0.0824281 0
M  V30 45415 C 4398.63 -4.74444 2.18404 0
M  V30 45416 H 4400.33 -2.59166 1.49912 0
M  V30 45417 H 4397.87 -1.24577 0.722266 0
M  V30 45418 H 4399.82 -4.201 -0.330811 0
M  V30 45419 H 4398.55 -3.12436 -0.95138 0
M  V30 45420 H 4397.21 -3.48057 1.15117 0
M  V30 45421 H 4396.86 -4.96037 -0.834046 0
M  V30 45422 H 4396.56 -5.83554 0.688354 0
M  V30 45423 H 4398.08 -6.10256 -0.205023 0
M  V30 45424 H 4399.49 -5.39048 1.95191 0
M  V30 45425 H 4397.89 -5.33825 2.74137 0
M  V30 45426 H 4398.96 -3.92834 2.8427 0
M  V30 45427 N 4400.3 -0.80008 -1.35781 0
M  V30 45428 C 4401.23 -0.220266 -2.32459 0
M  V30 45429 C 4402.21 0.650675 -1.57163 0
M  V30 45430 O 4403.4 0.582294 -1.85265 0
M  V30 45431 C 4400.53 0.637233 -3.41404 0
M  V30 45432 C 4399.48 -0.134681 -4.27788 0
M  V30 45433 C 4398.81 0.8441 -5.27995 0
M  V30 45434 C 4400.11 -1.32997 -5.05083 0
M  V30 45435 H 4401.8 -1.02797 -2.812 0
M  V30 45436 H 4399.35 -0.495764 -1.35197 0
M  V30 45437 H 4401.3 1.05288 -4.08035 0
M  V30 45438 H 4400.03 1.47775 -2.91256 0
M  V30 45439 H 4398.69 -0.531424 -3.62728 0
M  V30 45440 H 4398.33 1.67994 -4.74117 0
M  V30 45441 H 4398.03 0.331977 -5.86661 0
M  V30 45442 H 4399.56 1.25809 -5.97499 0
M  V30 45443 H 4400.97 -0.989539 -5.64696 0
M  V30 45444 H 4399.37 -1.77613 -5.73214 0
M  V30 45445 H 4400.44 -2.11994 -4.36104 0
M  V30 45446 N 4401.78 1.47579 -0.553014 0
M  V30 45447 C 4402.69 2.33744 0.200271 0
M  V30 45448 C 4403.71 1.47931 0.916099 0
M  V30 45449 O 4404.88 1.80868 0.885929 0
M  V30 45450 C 4401.95 3.2454 1.21962 0
M  V30 45451 C 4401.01 4.2624 0.51167 0
M  V30 45452 C 4400.24 5.12698 1.48245 0
M  V30 45453 O 4400.47 5.01535 2.71696 0
M  V30 45454 O 4399.4 5.93378 1.00924 0
M  V30 45455 H 4403.23 2.99448 -0.506409 0
M  V30 45456 H 4400.81 1.4607 -0.313673 0
M  V30 45457 H 4402.69 3.80637 1.80813 0
M  V30 45458 H 4401.37 2.61469 1.90829 0
M  V30 45459 H 4400.27 3.73914 -0.117931 0
M  V30 45460 H 4401.61 4.92014 -0.135481 0
M  V30 45461 N 4403.26 0.289257 1.54923 0
M  V30 45462 C 4404.68 -0.0644842 1.5947 0
M  V30 45463 C 4404.88 -1.53415 1.30637 0
M  V30 45464 O 4403.93 -2.28516 1.07408 0
M  V30 45465 C 4405.24 0.322885 2.98961 0
M  V30 45466 C 4406.79 0.270674 3.11827 0
M  V30 45467 C 4407.27 0.632691 4.53609 0
M  V30 45468 N 4408.76 0.584779 4.59494 0
M  V30 45469 C 4409.49 0.837514 5.67251 0
M  V30 45470 N 4408.99 1.1556 6.83094 0
M  V30 45471 N 4410.78 0.765361 5.56865 0
M  V30 45472 H 4402.93 1.2472 1.71927 0
M  V30 45473 H 4405.2 0.504837 0.802399 0
M  V30 45474 H 4404.9 1.34553 3.24944 0
M  V30 45475 H 4404.78 -0.329308 3.7576 0
M  V30 45476 H 4407.16 -0.742705 2.85601 0
M  V30 45477 H 4407.24 0.957326 2.37211 0
M  V30 45478 H 4406.89 1.64382 4.80563 0
M  V30 45479 H 4406.82 -0.0759048 5.26545 0
M  V30 45480 H 4409.31 0.34938 3.76281 0
M  V30 45481 H 4409.62 1.33474 7.61186 0
M  V30 45482 H 4407.97 1.19352 6.84675 0
M  V30 45483 H 4411.16 0.516596 4.65241 0
M  V30 45484 H 4411.33 0.965702 6.40764 0
M  V30 45485 N 4404.74 -1.57591 0.016771 0
M  V30 45486 C 4405.67 -2.125 -0.967783 0
M  V30 45487 C 4406.65 -1.03812 -1.34748 0
M  V30 45488 O 4407.83 -1.31582 -1.42828 0
M  V30 45489 C 4404.96 -2.64202 -2.25421 0
M  V30 45490 C 4403.92 -3.77566 -2.01563 0
M  V30 45491 C 4403.24 -4.15648 -3.36365 0
M  V30 45492 C 4404.54 -5.04155 -1.36472 0
M  V30 45493 H 4406.24 -2.95015 -0.51054 0
M  V30 45494 H 4403.78 -1.41915 -0.244131 0
M  V30 45495 H 4405.74 -3.01246 -2.94667 0
M  V30 45496 H 4404.46 -1.78831 -2.73289 0
M  V30 45497 H 4403.12 -3.40941 -1.34739 0
M  V30 45498 H 4402.77 -3.27276 -3.81968 0
M  V30 45499 H 4402.47 -4.92033 -3.21212 0
M  V30 45500 H 4403.99 -4.55265 -4.06899 0
M  V30 45501 H 4405.41 -5.38864 -1.95699 0
M  V30 45502 H 4403.8 -5.85458 -1.31755 0
M  V30 45503 H 4404.87 -4.83734 -0.336049 0
M  V30 45504 N 4406.22 0.256222 -1.55503 0
M  V30 45505 C 4407.15 1.32095 -1.92544 0
M  V30 45506 C 4408.13 1.50681 -0.789247 0
M  V30 45507 O 4409.31 1.63445 -1.04877 0
M  V30 45508 C 4406.44 2.67744 -2.21202 0
M  V30 45509 C 4405.4 2.63866 -3.36985 0
M  V30 45510 C 4404.72 4.03224 -3.51162 0
M  V30 45511 C 4406.02 2.21665 -4.72929 0
M  V30 45512 H 4407.72 1.01341 -2.81727 0
M  V30 45513 H 4405.26 0.486057 -1.35549 0
M  V30 45514 H 4407.22 3.42357 -2.45703 0
M  V30 45515 H 4405.94 3.00115 -1.28835 0
M  V30 45516 H 4404.6 1.91712 -3.12478 0
M  V30 45517 H 4404.25 4.32845 -2.56231 0
M  V30 45518 H 4403.95 4.0152 -4.29017 0
M  V30 45519 H 4405.47 4.7955 -3.77974 0
M  V30 45520 H 4406.88 2.86006 -4.96864 0
M  V30 45521 H 4405.28 2.31091 -5.5382 0
M  V30 45522 H 4406.35 1.16817 -4.70619 0
M  V30 45523 N 4407.69 1.48722 0.521481 0
M  V30 45524 C 4408.63 1.59973 1.64138 0
M  V30 45525 C 4409.64 0.483518 1.55454 0
M  V30 45526 O 4410.83 0.754727 1.61759 0
M  V30 45527 C 4407.93 1.52137 3.02832 0
M  V30 45528 C 4407.1 2.78944 3.36911 0
M  V30 45529 C 4406.16 2.64444 4.54924 0
M  V30 45530 O 4405.19 3.38347 4.57723 0
M  V30 45531 N 4406.39 1.74625 5.53612 0
M  V30 45532 H 4409.15 2.56554 1.5492 0
M  V30 45533 H 4406.71 1.45553 0.708937 0
M  V30 45534 H 4408.71 1.4012 3.79669 0
M  V30 45535 H 4407.28 0.634976 3.06083 0
M  V30 45536 H 4406.5 3.05464 2.49169 0
M  V30 45537 H 4407.78 3.63054 3.56468 0
M  V30 45538 H 4407.18 1.13801 5.54135 0
M  V30 45539 H 4405.74 1.68542 6.29632 0
M  V30 45540 N 4409.17 -0.771003 1.37453 0
M  V30 45541 C 4410.4 -1.56011 1.35898 0
M  V30 45542 C 4410.82 -1.88718 -0.055486 0
M  V30 45543 O 4410.17 -1.51505 -1.01747 0
M  V30 45544 C 4410.22 -2.86993 2.19811 0
M  V30 45545 O 4409.94 -2.55687 3.55746 0
M  V30 45546 C 4411.45 -3.8122 2.26244 0
M  V30 45547 H 4408.67 -0.4833 0.46547 0
M  V30 45548 H 4411.21 -0.955547 1.80803 0
M  V30 45549 H 4409.36 -3.43871 1.78414 0
M  V30 45550 H 4409.78 -3.3957 3.99741 0
M  V30 45551 H 4411.25 -4.70129 2.89279 0
M  V30 45552 H 4411.73 -4.20405 1.27107 0
M  V30 45553 H 4412.34 -3.30271 2.67957 0
M  V30 45554 N 4410.65 -1.22035 -0.997255 0
M  V30 45555 C 4411.58 -1.01073 -2.10491 0
M  V30 45556 C 4412.56 0.0668944 -1.69968 0
M  V30 45557 O 4413.75 -0.0944669 -1.9397 0
M  V30 45558 C 4410.88 -0.582994 -3.42372 0
M  V30 45559 C 4409.83 -1.60606 -3.96724 0
M  V30 45560 C 4409.16 -1.0343 -5.24601 0
M  V30 45561 C 4410.46 -2.99493 -4.27904 0
M  V30 45562 H 4412.15 -1.93716 -2.28286 0
M  V30 45563 H 4409.7 -0.932799 -1.09703 0
M  V30 45564 H 4411.65 -0.423479 -4.19267 0
M  V30 45565 H 4410.37 0.379099 -3.24392 0
M  V30 45566 H 4409.03 -1.75327 -3.21956 0
M  V30 45567 H 4408.68 -0.0636948 -5.0296 0
M  V30 45568 H 4408.38 -1.71774 -5.61932 0
M  V30 45569 H 4409.9 -0.886278 -6.04134 0
M  V30 45570 H 4411.32 -2.8817 -4.95612 0
M  V30 45571 H 4409.72 -3.6492 -4.76396 0
M  V30 45572 H 4410.79 -3.49754 -3.35858 0
M  V30 45573 N 4412.13 1.19341 -1.02934 0
M  V30 45574 C 4413.54 1.70723 -0.755693 0
M  V30 45575 C 4413.89 1.82329 0.724612 0
M  V30 45576 O 4413.02 1.49477 1.56479 0
M  V30 45577 C 4413.61 3.1008 -1.36514 0
M  V30 45578 C 4412.17 3.58719 -1.14006 0
M  V30 45579 C 4411.32 2.35572 -1.46291 0
M  V30 45580 H 4414.27 1.04175 -1.19721 0
M  V30 45581 H 4414.29 3.72785 -0.762349 0
M  V30 45582 H 4413.8 3.016 -2.44252 0
M  V30 45583 H 4411.9 3.72512 -0.0809211 0
M  V30 45584 H 4412.01 4.4281 -1.8291 0
M  V30 45585 H 4410.38 2.38932 -0.882254 0
M  V30 45586 H 4411.16 2.29722 -2.55113 0
M  V30 45587 N 4413.61 0.80727 1.35355 0
M  V30 45588 C 4414.54 0.175798 2.28525 0
M  V30 45589 C 4415.55 -0.625302 1.50312 0
M  V30 45590 O 4416.74 -0.45755 1.72536 0
M  V30 45591 C 4413.84 -0.773355 3.29958 0
M  V30 45592 C 4413.01 -0.0184758 4.37396 0
M  V30 45593 C 4412.07 -0.886213 5.18684 0
M  V30 45594 O 4411.1 -0.336906 5.68202 0
M  V30 45595 N 4412.3 -2.2082 5.3686 0
M  V30 45596 H 4415.07 0.976191 2.83356 0
M  V30 45597 H 4412.63 0.662789 1.47712 0
M  V30 45598 H 4414.62 -1.3581 3.81232 0
M  V30 45599 H 4413.19 -1.47455 2.75637 0
M  V30 45600 H 4412.41 0.747485 3.87048 0
M  V30 45601 H 4413.7 0.501755 5.0632 0
M  V30 45602 H 4413.09 -2.67841 4.98275 0
M  V30 45603 H 4411.65 -2.74217 5.91311 0
M  V30 45604 N 4415.08 -1.47283 0.560833 0
M  V30 45605 C 4416.01 -2.32858 -0.173023 0
M  V30 45606 C 4417 -1.44012 -0.90523 0
M  V30 45607 O 4418.18 -1.72863 -0.884985 0
M  V30 45608 C 4415.31 -3.25865 -1.20121 0
M  V30 45609 C 4414.26 -4.2398 -0.585238 0
M  V30 45610 C 4413.59 -5.06338 -1.71832 0
M  V30 45611 C 4414.89 -5.20241 0.463361 0
M  V30 45612 H 4416.58 -2.94464 0.541411 0
M  V30 45613 H 4414.13 -1.416 0.261814 0
M  V30 45614 H 4416.08 -3.84575 -1.72279 0
M  V30 45615 H 4414.81 -2.62321 -1.94564 0
M  V30 45616 H 4413.47 -3.66502 -0.0849252 0
M  V30 45617 H 4413.11 -4.39195 -2.45188 0
M  V30 45618 H 4412.81 -5.72767 -1.31193 0
M  V30 45619 H 4414.34 -5.67906 -2.24309 0
M  V30 45620 H 4415.75 -5.73293 0.0277035 0
M  V30 45621 H 4414.15 -5.94893 0.788836 0
M  V30 45622 H 4415.22 -4.65499 1.3579 0
M  V30 45623 N 4416.56 -0.297469 -1.54767 0
M  V30 45624 C 4417.98 0.0560262 -1.59502 0
M  V30 45625 C 4418.18 1.5272 -1.31449 0
M  V30 45626 O 4417.23 2.27943 -1.08619 0
M  V30 45627 C 4418.55 -0.338736 -2.98786 0
M  V30 45628 C 4420.1 -0.287207 -3.1168 0
M  V30 45629 C 4420.57 -0.656738 -4.53267 0
M  V30 45630 N 4422.06 -0.609139 -4.59177 0
M  V30 45631 C 4422.8 -0.867585 -5.66798 0
M  V30 45632 N 4422.29 -1.19181 -6.82472 0
M  V30 45633 N 4424.09 -0.794883 -5.56451 0
M  V30 45634 H 4416.24 -1.2563 -1.71263 0
M  V30 45635 H 4418.5 -0.509085 -0.79971 0
M  V30 45636 H 4418.21 -1.36274 -3.24226 0
M  V30 45637 H 4418.08 0.309376 -3.75929 0
M  V30 45638 H 4420.47 0.727548 -2.85991 0
M  V30 45639 H 4420.55 -0.969892 -2.367 0
M  V30 45640 H 4420.19 -1.66928 -4.79685 0
M  V30 45641 H 4420.12 0.0479798 -5.26578 0
M  V30 45642 H 4422.61 -0.369331 -3.76091 0
M  V30 45643 H 4422.93 -1.37509 -7.60468 0
M  V30 45644 H 4421.27 -1.22982 -6.84033 0
M  V30 45645 H 4424.46 -0.541261 -4.6496 0
M  V30 45646 H 4424.63 -0.99967 -6.40243 0
M  V30 45647 N 4418.04 1.5758 -0.0251282 0
M  V30 45648 C 4418.99 2.11128 0.976096 0
M  V30 45649 C 4419.98 1.03693 1.33955 0
M  V30 45650 O 4421.19 1.22133 1.32225 0
M  V30 45651 H 4417.56 0.67448 0.332538 0
M  V30 45652 H 4419.53 2.94196 0.499119 0
M  V30 45653 C 4418.28 2.65025 2.25071 0
M  V30 45654 H 4417.61 3.4734 1.97977 0
M  V30 45655 H 4419.05 3.06143 2.93347 0
M  V30 45656 C 4417.51 1.57584 2.97773 0
M  V30 45657 O 4418.04 0.973341 3.89729 0
M  V30 45658 N 4416.24 1.29725 2.60038 0
M  V30 45659 H 4415.79 1.78906 1.85338 0
M  V30 45660 H 4415.75 0.580619 3.08992 0
M  V30 45661 N 4419.52 -0.247971 1.55637 0
M  V30 45662 C 4420.76 -0.977608 1.77681 0
M  V30 45663 C 4421.1 -1.85014 0.5902 0
M  V30 45664 O 4420.37 -1.90096 -0.411544 0
M  V30 45665 C 4420.66 -1.83903 3.09599 0
M  V30 45666 C 4420.51 -0.994756 4.38662 0
M  V30 45667 C 4421.83 -2.82171 3.37739 0
M  V30 45668 H 4418.95 -0.353982 0.646425 0
M  V30 45669 H 4421.59 -0.248186 1.88372 0
M  V30 45670 H 4419.74 -2.46094 3.00616 0
M  V30 45671 H 4421.41 -0.391627 4.59635 0
M  V30 45672 H 4419.65 -0.299079 4.32768 0
M  V30 45673 H 4420.32 -1.63126 5.27346 0
M  V30 45674 H 4422.8 -2.30117 3.46678 0
M  V30 45675 H 4421.68 -3.39566 4.31261 0
M  V30 45676 H 4421.94 -3.58579 2.58599 0
M  V30 45677 N 4421 -1.48997 -0.513587 0
M  V30 45678 C 4422.25 -1.57535 -1.26598 0
M  V30 45679 C 4422.57 -0.258304 -1.93282 0
M  V30 45680 O 4421.84 0.721438 -1.82132 0
M  V30 45681 H 4420.42 -0.580404 -0.470256 0
M  V30 45682 H 4423.08 -1.85554 -0.596308 0
M  V30 45683 H 4422.17 -2.36493 -2.0366 0
M  V30 45684 N 4422.48 0.763702 -1.3786 0
M  V30 45685 C 4423.72 1.51952 -1.33248 0
M  V30 45686 C 4424.04 1.94835 0.0801024 0
M  V30 45687 O 4423.31 1.66898 1.02576 0
M  V30 45688 H 4421.89 0.563609 -0.490259 0
M  V30 45689 H 4424.56 0.908444 -1.72433 0
M  V30 45690 H 4423.65 2.41516 -1.97677 0
M  V30 45691 N 4423.95 1.22562 0.990769 0
M  V30 45692 C 4425.2 1.05303 1.73318 0
M  V30 45693 C 4425.53 -0.410589 1.8981 0
M  V30 45694 O 4424.81 -1.30434 1.44282 0
M  V30 45695 C 4425.09 1.76724 3.13752 0
M  V30 45696 C 4424.94 3.30694 3.04895 0
M  V30 45697 C 4426.26 1.52135 4.12968 0
M  V30 45698 H 4423.38 0.383942 0.629093 0
M  V30 45699 H 4426.02 1.5093 1.15413 0
M  V30 45700 H 4424.17 1.37937 3.63188 0
M  V30 45701 H 4425.85 3.7894 2.63064 0
M  V30 45702 H 4424.09 3.60262 2.41648 0
M  V30 45703 H 4424.76 3.75847 4.04281 0
M  V30 45704 H 4427.24 1.85832 3.72298 0
M  V30 45705 H 4426.11 2.046 5.09343 0
M  V30 45706 H 4426.37 0.454411 4.39758 0
M  V30 45707 N 4425.43 -1.18793 1.03566 0
M  V30 45708 C 4426.85 -1.40668 0.753966 0
M  V30 45709 C 4427.05 -1.90432 -0.658619 0
M  V30 45710 O 4426.1 -2.08543 -1.42359 0
M  V30 45711 C 4427.42 -2.41186 1.79582 0
M  V30 45712 C 4428.96 -2.54922 1.81615 0
M  V30 45713 C 4429.44 -3.58699 2.84779 0
M  V30 45714 N 4430.93 -3.66202 2.83638 0
M  V30 45715 C 4431.67 -4.46212 3.60114 0
M  V30 45716 N 4431.16 -5.29872 4.46326 0
M  V30 45717 N 4432.95 -4.40927 3.48626 0
M  V30 45718 H 4425.11 -0.848153 1.94731 0
M  V30 45719 H 4427.37 -0.435051 0.842279 0
M  V30 45720 H 4427.07 -2.11659 2.8088 0
M  V30 45721 H 4426.95 -3.40461 1.62377 0
M  V30 45722 H 4429.34 -2.83768 0.809917 0
M  V30 45723 H 4429.42 -1.55777 2.02897 0
M  V30 45724 H 4429.06 -3.30594 3.85578 0
M  V30 45725 H 4428.99 -4.5751 2.60753 0
M  V30 45726 H 4431.48 -3.06458 2.21115 0
M  V30 45727 H 4431.79 -5.88061 5.01402 0
M  V30 45728 H 4430.14 -5.2931 4.50396 0
M  V30 45729 H 4433.33 -3.74614 2.80681 0
M  V30 45730 H 4433.5 -5.03042 4.08476 0
M  V30 45731 N 4426.91 -0.814437 -1.34925 0
M  V30 45732 C 4427.87 -0.235839 -2.27983 0
M  V30 45733 C 4428.87 0.581359 -1.49923 0
M  V30 45734 O 4430.06 0.398698 -1.69576 0
M  V30 45735 C 4427.19 0.670315 -3.34245 0
M  V30 45736 H 4428.39 -1.05669 -2.80667 0
M  V30 45737 H 4425.94 -0.585665 -1.44913 0
M  V30 45738 H 4426.68 1.51455 -2.86761 0
M  V30 45739 H 4426.46 0.0859444 -3.92006 0
M  V30 45740 H 4427.95 1.06921 -4.0368 0
M  V30 45741 N 4428.39 1.46984 -0.568636 0
M  V30 45742 C 4429.64 2.01646 -0.0466603 0
M  V30 45743 C 4429.95 1.44726 1.31582 0
M  V30 45744 O 4431.16 1.9112 1.92835 0
M  V30 45745 C 4429.61 3.59885 -0.0328785 0
M  V30 45746 C 4429.22 4.25799 -1.39281 0
M  V30 45747 C 4430.96 4.22256 0.43589 0
M  V30 45748 C 4428.87 5.76077 -1.33752 0
M  V30 45749 H 4427.8 0.753876 -0.0136735 0
M  V30 45750 H 4430.45 1.68862 -0.71819 0
M  V30 45751 H 4428.83 3.89682 0.704532 0
M  V30 45752 H 4430.01 4.07629 -2.14884 0
M  V30 45753 H 4428.32 3.75463 -1.80045 0
M  V30 45754 H 4430.92 5.32396 0.495833 0
M  V30 45755 H 4431.26 3.90217 1.45039 0
M  V30 45756 H 4431.8 3.97032 -0.247016 0
M  V30 45757 H 4428.53 6.12753 -2.32838 0
M  V30 45758 H 4428.05 5.96551 -0.623477 0
M  V30 45759 H 4429.73 6.38514 -1.04443 0
M  V30 45760 N 4429.87 0.305673 1.54607 0
M  V30 45761 C 4431.28 -0.186032 1.85771 0
M  V30 45762 C 4431.63 -1.53053 1.22756 0
M  V30 45763 O 4430.75 -2.09886 0.526966 0
M  V30 45764 C 4431.35 -0.34433 3.37046 0
M  V30 45765 C 4429.91 -0.780255 3.68224 0
M  V30 45766 C 4429.05 0.108651 2.77087 0
M  V30 45767 H 4432 0.526538 1.49711 0
M  V30 45768 H 4432.03 -1.17816 3.61801 0
M  V30 45769 H 4431.54 0.634369 3.8288 0
M  V30 45770 H 4429.64 -1.76934 3.2791 0
M  V30 45771 H 4429.75 -0.596404 4.75373 0
M  V30 45772 H 4428.12 -0.412843 2.51332 0
M  V30 45773 H 4428.9 1.08379 3.25744 0
M  V30 45774 N 4431.34 -1.57564 0.0334847 0
M  V30 45775 C 4432.57 -1.95998 -0.653329 0
M  V30 45776 C 4432.98 -0.908807 -1.65944 0
M  V30 45777 O 4432.32 0.117406 -1.83324 0
M  V30 45778 C 4432.39 -3.30594 -1.41237 0
M  V30 45779 C 4432.05 -4.53505 -0.564103 0
M  V30 45780 C 4433.05 -5.19646 0.162433 0
M  V30 45781 C 4430.73 -4.99803 -0.500223 0
M  V30 45782 C 4432.73 -6.30409 0.941477 0
M  V30 45783 C 4430.41 -6.10447 0.282522 0
M  V30 45784 C 4431.41 -6.75609 1.00208 0
M  V30 45785 O 4431.1 -7.84128 1.77198 0
M  V30 45786 H 4430.83 -0.650277 -0.184705 0
M  V30 45787 H 4433.39 -2.05199 0.0908562 0
M  V30 45788 H 4431.62 -3.17896 -2.20179 0
M  V30 45789 H 4433.3 -3.53899 -1.98771 0
M  V30 45790 H 4434.07 -4.84845 0.122441 0
M  V30 45791 H 4429.95 -4.48886 -1.04986 0
M  V30 45792 H 4433.49 -6.81202 1.50363 0
M  V30 45793 H 4429.39 -6.44685 0.324216 0
M  V30 45794 H 4430.16 -8.00816 1.69222 0
M  V30 45795 N 4432.82 0.239714 -1.55766 0
M  V30 45796 C 4433.75 1.3235 -1.859 0
M  V30 45797 C 4434.73 1.4605 -0.714713 0
M  V30 45798 O 4435.92 1.62151 -0.961214 0
M  V30 45799 C 4433.04 2.69613 -2.05004 0
M  V30 45800 C 4432.09 2.73025 -3.27658 0
M  V30 45801 S 4432.92 2.28912 -4.84107 0
M  V30 45802 C 4434.08 3.68086 -5.06225 0
M  V30 45803 H 4434.31 1.06592 -2.77535 0
M  V30 45804 H 4431.84 0.44106 -1.47966 0
M  V30 45805 H 4433.8 3.48646 -2.16694 0
M  V30 45806 H 4432.46 2.92605 -1.14198 0
M  V30 45807 H 4431.66 3.73849 -3.38014 0
M  V30 45808 H 4431.26 2.02041 -3.14731 0
M  V30 45809 H 4433.55 4.63639 -4.94009 0
M  V30 45810 H 4434.49 3.62659 -6.08181 0
M  V30 45811 H 4434.9 3.60932 -4.34038 0
M  V30 45812 N 4434.3 1.49267 0.505678 0
M  V30 45813 C 4435.23 1.61705 1.62432 0
M  V30 45814 C 4436.24 0.499979 1.54932 0
M  V30 45815 O 4437.43 0.771841 1.6095 0
M  V30 45816 C 4434.53 1.55341 3.01202 0
M  V30 45817 C 4433.71 2.82502 3.33933 0
M  V30 45818 C 4432.77 2.69254 4.52094 0
M  V30 45819 O 4431.79 3.43183 4.54108 0
M  V30 45820 N 4432.99 1.80487 5.51729 0
M  V30 45821 H 4435.76 2.58183 1.5219 0
M  V30 45822 H 4433.32 1.46297 0.693459 0
M  V30 45823 H 4435.31 1.44139 3.78161 0
M  V30 45824 H 4433.88 0.667404 3.05392 0
M  V30 45825 H 4433.1 3.0809 2.45915 0
M  V30 45826 H 4434.39 3.66814 3.52597 0
M  V30 45827 H 4433.79 1.19672 5.52897 0
M  V30 45828 H 4432.34 1.7521 6.27809 0
M  V30 45829 N 4435.78 -0.756381 1.38263 0
M  V30 45830 C 4437.02 -1.51767 1.34516 0
M  V30 45831 C 4437.36 -1.94089 -0.0656008 0
M  V30 45832 O 4436.63 -1.65225 -1.0262 0
M  V30 45833 C 4436.92 -2.77218 2.29831 0
M  V30 45834 C 4436.77 -2.41051 3.79756 0
M  V30 45835 C 4438.09 -3.79228 2.23325 0
M  V30 45836 H 4435.21 -0.550561 0.489951 0
M  V30 45837 H 4437.85 -0.866548 1.69089 0
M  V30 45838 H 4436 -3.32777 2.00479 0
M  V30 45839 H 4437.67 -1.91288 4.1977 0
M  V30 45840 H 4435.91 -1.73546 3.97573 0
M  V30 45841 H 4436.58 -3.30794 4.41904 0
M  V30 45842 H 4439.06 -3.33201 2.49231 0
M  V30 45843 H 4437.94 -4.64704 2.92132 0
M  V30 45844 H 4438.2 -4.24611 1.23117 0
M  V30 45845 N 4437.26 -1.23086 -0.984255 0
M  V30 45846 C 4438.51 -1.05472 -1.71926 0
M  V30 45847 C 4438.82 0.409144 -1.91273 0
M  V30 45848 O 4440.02 0.705134 -2.62183 0
M  V30 45849 C 4438.48 -1.83885 -3.09377 0
M  V30 45850 C 4438.09 -3.34576 -2.97931 0
M  V30 45851 C 4439.83 -1.74748 -3.86864 0
M  V30 45852 C 4437.74 -4.05396 -4.3059 0
M  V30 45853 H 4436.67 -0.391061 -0.64466 0
M  V30 45854 H 4439.32 -1.47017 -1.0981 0
M  V30 45855 H 4437.7 -1.35144 -3.72226 0
M  V30 45856 H 4438.88 -3.90775 -2.44195 0
M  V30 45857 H 4437.19 -3.44484 -2.33922 0
M  V30 45858 H 4439.79 -2.24974 -4.85068 0
M  V30 45859 H 4440.13 -0.709516 -4.10209 0
M  V30 45860 H 4440.66 -2.21079 -3.3071 0
M  V30 45861 H 4437.4 -5.09482 -4.12442 0
M  V30 45862 H 4436.92 -3.53984 -4.84206 0
M  V30 45863 H 4438.6 -4.11475 -4.99297 0
M  V30 45864 N 4438.73 1.18243 -1.04194 0
M  V30 45865 C 4439.66 2.24125 -0.654993 0
M  V30 45866 C 4440.65 1.66618 0.342393 0
M  V30 45867 O 4441.83 1.92925 0.222209 0
M  V30 45868 C 4438.96 3.47295 -0.0184978 0
M  V30 45869 C 4437.91 4.1756 -0.939561 0
M  V30 45870 C 4437.24 5.34438 -0.167474 0
M  V30 45871 C 4438.54 4.70909 -2.25924 0
M  V30 45872 H 4440.23 2.56748 -1.54016 0
M  V30 45873 H 4437.78 1.23412 -0.741993 0
M  V30 45874 H 4439.73 4.20573 0.263935 0
M  V30 45875 H 4438.46 3.1391 0.901554 0
M  V30 45876 H 4437.12 3.46181 -1.2064 0
M  V30 45877 H 4436.76 4.97301 0.755025 0
M  V30 45878 H 4436.46 5.82385 -0.781106 0
M  V30 45879 H 4437.99 6.10505 0.107911 0
M  V30 45880 H 4439.4 5.35875 -2.03742 0
M  V30 45881 H 4437.8 5.29396 -2.82595 0
M  V30 45882 H 4438.87 3.88262 -2.90484 0
M  V30 45883 N 4440.21 0.821581 1.34491 0
M  V30 45884 C 4441.15 0.187784 2.27426 0
M  V30 45885 C 4442.12 -0.655018 1.48823 0
M  V30 45886 O 4443.31 -0.619049 1.78045 0
M  V30 45887 C 4440.43 -0.737879 3.30565 0
M  V30 45888 C 4439.48 0.0272212 4.26491 0
M  V30 45889 S 4440.31 1.37347 5.17587 0
M  V30 45890 C 4441.47 0.452647 6.24261 0
M  V30 45891 H 4441.7 0.975697 2.80833 0
M  V30 45892 H 4439.24 0.61741 1.41518 0
M  V30 45893 H 4441.19 -1.2664 3.90477 0
M  V30 45894 H 4439.85 -1.4993 2.76007 0
M  V30 45895 H 4439.05 -0.676425 4.9944 0
M  V30 45896 H 4438.65 0.48625 3.70826 0
M  V30 45897 H 4440.94 -0.356319 6.76562 0
M  V30 45898 H 4441.88 1.15177 6.9867 0
M  V30 45899 H 4442.29 0.0416739 5.64485 0
M  V30 45900 N 4441.69 -1.4668 0.576422 0
M  V30 45901 C 4442.62 -2.33028 -0.148315 0
M  V30 45902 C 4443.6 -1.44965 -0.889905 0
M  V30 45903 O 4444.79 -1.73792 -0.866601 0
M  V30 45904 C 4441.92 -3.27121 -1.16658 0
M  V30 45905 C 4440.87 -4.24577 -0.540237 0
M  V30 45906 C 4440.2 -5.08132 -1.66452 0
M  V30 45907 C 4441.5 -5.1972 0.518514 0
M  V30 45908 H 4443.19 -2.93873 0.572612 0
M  V30 45909 H 4440.74 -1.41314 0.276818 0
M  V30 45910 H 4442.69 -3.8638 -1.68191 0
M  V30 45911 H 4441.41 -2.6437 -1.9177 0
M  V30 45912 H 4440.07 -3.66571 -0.046048 0
M  V30 45913 H 4439.72 -4.41771 -2.40516 0
M  V30 45914 H 4439.42 -5.74126 -1.25111 0
M  V30 45915 H 4440.94 -5.70254 -2.18273 0
M  V30 45916 H 4442.36 -5.73232 0.0885074 0
M  V30 45917 H 4440.76 -5.94023 0.851888 0
M  V30 45918 H 4441.83 -4.64032 1.40719 0
M  V30 45919 N 4443.17 -0.313868 -1.54443 0
M  V30 45920 C 4444.4 0.293846 -2.04803 0
M  V30 45921 C 4444.81 1.46533 -1.19052 0
M  V30 45922 O 4444.17 1.81181 -0.219003 0
M  V30 45923 C 4444.22 0.737682 -3.53893 0
M  V30 45924 O 4443.94 -0.387191 -4.36386 0
M  V30 45925 C 4445.44 1.40921 -4.20305 0
M  V30 45926 H 4442.66 0.0619823 -0.668131 0
M  V30 45927 H 4445.21 -0.45724 -1.99323 0
M  V30 45928 H 4443.36 1.43876 -3.59692 0
M  V30 45929 H 4443.77 -0.0393118 -5.24485 0
M  V30 45930 H 4445.25 1.6708 -5.26107 0
M  V30 45931 H 4445.73 2.35342 -3.70825 0
M  V30 45932 H 4446.33 0.75097 -4.18617 0
M  V30 45933 N 4444.65 1.57544 -0.0418402 0
M  V30 45934 C 4445.87 1.96627 0.643859 0
M  V30 45935 C 4446.29 0.918955 1.64926 0
M  V30 45936 O 4445.65 -0.0978683 1.82237 0
M  V30 45937 C 4445.7 3.35786 1.33903 0
M  V30 45938 O 4445.42 4.36502 0.373895 0
M  V30 45939 C 4446.92 3.89573 2.11536 0
M  V30 45940 H 4444.14 0.647322 0.176679 0
M  V30 45941 H 4446.68 2.04228 -0.105376 0
M  V30 45942 H 4444.84 3.29364 2.03956 0
M  V30 45943 H 4445.25 5.17251 0.868997 0
M  V30 45944 H 4446.73 4.89251 2.55611 0
M  V30 45945 H 4447.2 3.24499 2.95968 0
M  V30 45946 H 4447.81 3.99304 1.46413 0
M  V30 45947 N 4446.12 -0.23145 1.55891 0
M  V30 45948 C 4447.4 -0.981036 1.69219 0
M  V30 45949 C 4447.78 -2.02797 0.586235 0
M  V30 45950 O 4447.13 -2.24825 -0.408174 0
M  V30 45951 C 4447.34 -1.60043 3.10141 0
M  V30 45952 C 4448.69 -2.09645 3.69235 0
M  V30 45953 O 4449.71 -1.69956 3.13039 0
M  V30 45954 O 4448.57 -2.82564 4.67782 0
M  V30 45955 H 4445.66 -0.457628 0.688843 0
M  V30 45956 H 4448.21 -0.224014 1.68215 0
M  V30 45957 H 4446.98 -0.843971 3.8209 0
M  V30 45958 H 4446.61 -2.42325 3.15221 0
M  V30 45959 N 4447.6 -1.49533 -0.497755 0
M  V30 45960 C 4448.53 -1.69356 -1.60751 0
M  V30 45961 C 4449.51 -0.542274 -1.61225 0
M  V30 45962 O 4450.7 -0.778479 -1.77914 0
M  V30 45963 C 4447.83 -1.76308 -2.9922 0
M  V30 45964 C 4446.78 -2.91259 -3.13612 0
M  V30 45965 C 4446.11 -2.83327 -4.53464 0
M  V30 45966 C 4447.41 -4.3215 -2.93331 0
M  V30 45967 H 4449.1 -2.62268 -1.44416 0
M  V30 45968 H 4446.65 -1.2621 -0.693323 0
M  V30 45969 H 4448.6 -1.88762 -3.76758 0
M  V30 45970 H 4447.33 -0.799982 -3.16651 0
M  V30 45971 H 4445.98 -2.78413 -2.38499 0
M  V30 45972 H 4445.63 -1.84918 -4.67776 0
M  V30 45973 H 4445.33 -3.60481 -4.64033 0
M  V30 45974 H 4446.86 -2.97793 -5.33059 0
M  V30 45975 H 4448.27 -4.45661 -3.60637 0
M  V30 45976 H 4446.67 -5.10551 -3.15369 0
M  V30 45977 H 4447.74 -4.4637 -1.89425 0
M  V30 45978 N 4449.08 0.749038 -1.38662 0
M  V30 45979 C 4450.36 1.49916 -1.25637 0
M  V30 45980 C 4450.74 2.10634 0.140243 0
M  V30 45981 O 4450.09 1.97442 1.15018 0
M  V30 45982 C 4450.3 2.56186 -2.37001 0
M  V30 45983 C 4451.64 3.22963 -2.75645 0
M  V30 45984 O 4452.67 2.66493 -2.36347 0
M  V30 45985 O 4451.53 4.25109 -3.4343 0
M  V30 45986 H 4448.62 0.665049 -0.491567 0
M  V30 45987 H 4451.17 0.78406 -1.50501 0
M  V30 45988 H 4449.94 2.09601 -3.30429 0
M  V30 45989 H 4449.56 3.35272 -2.13726 0
M  V30 45990 N 4450.56 1.23606 0.977714 0
M  V30 45991 C 4451.81 1.06765 1.71597 0
M  V30 45992 C 4452.13 -0.395862 1.9094 0
M  V30 45993 O 4451.4 -1.28351 1.47996 0
M  V30 45994 H 4449.98 0.392085 0.635829 0
M  V30 45995 H 4452.64 1.55366 1.17675 0
M  V30 45996 H 4451.74 1.55773 2.70446 0
M  V30 45997 N 4452.04 -1.17688 1.0482 0
M  V30 45998 C 4452.95 -2.25227 0.656509 0
M  V30 45999 C 4453.96 -1.71019 -0.320701 0
M  V30 46000 O 4455.14 -2.00649 -0.173734 0
M  V30 46001 C 4452.2 -3.46684 0.0333848 0
M  V30 46002 C 4451.27 -4.15993 1.06056 0
M  V30 46003 C 4450.5 -5.31652 0.46708 0
M  V30 46004 O 4450.72 -5.65779 -0.724559 0
M  V30 46005 O 4449.66 -5.89827 1.1995 0
M  V30 46006 H 4453.48 -2.61011 1.55264 0
M  V30 46007 H 4451.07 -1.24916 0.819534 0
M  V30 46008 H 4452.95 -4.20235 -0.313109 0
M  V30 46009 H 4451.62 -3.12706 -0.836456 0
M  V30 46010 H 4450.53 -3.44477 1.45898 0
M  V30 46011 H 4451.86 -4.5399 1.90143 0
M  V30 46012 N 4453.52 -0.828702 -1.34053 0
M  V30 46013 C 4454.79 -0.341876 -1.92589 0
M  V30 46014 C 4455.17 1.17152 -1.75609 0
M  V30 46015 O 4454.52 1.98128 -1.13831 0
M  V30 46016 C 4454.73 -0.777572 -3.40228 0
M  V30 46017 C 4456.08 -0.779726 -4.17379 0
M  V30 46018 O 4457.1 -0.720522 -3.48837 0
M  V30 46019 O 4455.96 -0.858186 -5.3972 0
M  V30 46020 H 4453.06 -0.0946374 -0.821567 0
M  V30 46021 H 4455.6 -0.913877 -1.42991 0
M  V30 46022 H 4454.37 -1.81972 -3.46413 0
M  V30 46023 H 4454 -0.181583 -3.97185 0
M  V30 46024 N 4454.99 1.46373 -0.584193 0
M  V30 46025 C 4455.9 2.34116 0.150645 0
M  V30 46026 C 4456.92 1.49841 0.884514 0
M  V30 46027 O 4458.1 1.82707 0.847365 0
M  V30 46028 C 4455.16 3.27054 1.1505 0
M  V30 46029 C 4454.22 4.27229 0.421143 0
M  V30 46030 C 4453.45 5.15727 1.37337 0
M  V30 46031 O 4453.68 5.07185 2.60997 0
M  V30 46032 O 4452.61 5.95386 0.883145 0
M  V30 46033 H 4456.44 2.98307 -0.569813 0
M  V30 46034 H 4454.02 1.45372 -0.344586 0
M  V30 46035 H 4455.9 3.84387 1.72699 0
M  V30 46036 H 4454.58 2.65458 1.8524 0
M  V30 46037 H 4453.49 3.7358 -0.197217 0
M  V30 46038 H 4454.82 4.91615 -0.239814 0
M  V30 46039 N 4456.47 0.322054 1.54274 0
M  V30 46040 C 4457.42 -0.544585 2.24283 0
M  V30 46041 C 4458.39 -1.11286 1.23307 0
M  V30 46042 O 4459.57 -1.15348 1.51985 0
M  V30 46043 C 4456.71 -1.70034 3.00304 0
M  V30 46044 C 4455.83 -1.16144 4.16094 0
M  V30 46045 C 4454.96 -2.28276 4.79649 0
M  V30 46046 C 4454 -1.71627 5.87546 0
M  V30 46047 N 4453.14 -2.77416 6.44969 0
M  V30 46048 H 4457.98 0.0589955 2.97942 0
M  V30 46049 H 4455.51 0.0408862 1.47043 0
M  V30 46050 H 4457.47 -2.38042 3.42625 0
M  V30 46051 H 4456.1 -2.27523 2.28983 0
M  V30 46052 H 4455.15 -0.372959 3.78567 0
M  V30 46053 H 4456.47 -0.706913 4.93765 0
M  V30 46054 H 4455.62 -3.04192 5.24931 0
M  V30 46055 H 4454.36 -2.77065 4.01356 0
M  V30 46056 H 4453.36 -0.942092 5.41668 0
M  V30 46057 H 4454.59 -1.23717 6.67736 0
M  V30 46058 H 4452.54 -3.25499 5.69549 0
M  V30 46059 H 4452.45 -2.36521 7.18049 0
M  V30 46060 H 4453.72 -3.53165 6.94906 0
M  V30 46061 N 4457.95 -1.5752 0.0501946 0
M  V30 46062 C 4459.23 -1.83998 -0.66362 0
M  V30 46063 C 4459.61 -0.938406 -1.89096 0
M  V30 46064 O 4458.95 0.000797261 -2.285 0
M  V30 46065 C 4459.16 -3.33706 -1.02184 0
M  V30 46066 C 4460.51 -4.00696 -1.40455 0
M  V30 46067 O 4461.54 -3.38325 -1.11421 0
M  V30 46068 O 4460.4 -5.10665 -1.94636 0
M  V30 46069 H 4457.49 -0.759397 -0.327483 0
M  V30 46070 H 4460.04 -1.69514 0.0794834 0
M  V30 46071 H 4458.81 -3.91015 -0.149226 0
M  V30 46072 H 4458.43 -3.53374 -1.82243 0
M  V30 46073 N 4459.43 0.223179 -1.56012 0
M  V30 46074 C 4460.37 1.27657 -1.92282 0
M  V30 46075 C 4461.34 1.46656 -0.779815 0
M  V30 46076 O 4462.53 1.60252 -1.03557 0
M  V30 46077 C 4459.67 2.62226 -2.24347 0
M  V30 46078 C 4458.78 2.51038 -3.51573 0
M  V30 46079 C 4457.92 3.7812 -3.73094 0
M  V30 46080 C 4456.96 3.61648 -4.93839 0
M  V30 46081 N 4456.09 4.80675 -5.11758 0
M  V30 46082 H 4460.93 0.960259 -2.82105 0
M  V30 46083 H 4458.47 0.462852 -1.39628 0
M  V30 46084 H 4460.43 3.40588 -2.40948 0
M  V30 46085 H 4459.06 2.91956 -1.377 0
M  V30 46086 H 4458.11 1.6412 -3.43175 0
M  V30 46087 H 4459.42 2.34787 -4.40087 0
M  V30 46088 H 4458.58 4.64925 -3.89782 0
M  V30 46089 H 4457.32 3.97294 -2.82858 0
M  V30 46090 H 4456.32 2.73227 -4.77103 0
M  V30 46091 H 4457.55 3.43946 -5.85558 0
M  V30 46092 H 4455.49 5.00166 -4.24464 0
M  V30 46093 H 4455.41 4.67144 -5.94401 0
M  V30 46094 H 4456.68 5.68911 -5.3288 0
M  V30 46095 N 4460.91 1.49795 0.489818 0
M  V30 46096 C 4462.15 1.59529 1.24076 0
M  V30 46097 C 4462.47 0.289021 1.92846 0
M  V30 46098 O 4461.74 -0.692371 1.83257 0
M  V30 46099 H 4460.32 0.587812 0.460962 0
M  V30 46100 H 4462.99 1.86479 0.566713 0
M  V30 46101 H 4462.08 2.39703 1.99872 0
M  V30 46102 N 4462.38 -0.741673 1.39057 0
M  V30 46103 C 4463.35 -1.83728 1.37028 0
M  V30 46104 C 4464.35 -1.58541 0.26859 0
M  V30 46105 O 4465.54 -1.66065 0.526134 0
M  V30 46106 C 4462.67 -3.21406 1.13628 0
M  V30 46107 H 4463.86 -1.86932 2.34513 0
M  V30 46108 H 4461.41 -0.944632 1.24525 0
M  V30 46109 H 4462.15 -3.23865 0.167977 0
M  V30 46110 H 4461.93 -3.41083 1.93403 0
M  V30 46111 H 4463.42 -4.01473 1.14932 0
M  V30 46112 N 4463.86 -1.24123 -0.971145 0
M  V30 46113 C 4464.79 -1.05515 -2.083 0
M  V30 46114 C 4465.77 0.0308266 -1.70072 0
M  V30 46115 O 4466.96 -0.13559 -1.93726 0
M  V30 46116 C 4464.09 -0.655485 -3.41058 0
M  V30 46117 C 4463.04 -1.68985 -3.93228 0
M  V30 46118 C 4462.37 -1.14535 -5.22289 0
M  V30 46119 C 4463.67 -3.08502 -4.21455 0
M  V30 46120 H 4465.36 -1.98515 -2.24125 0
M  V30 46121 H 4462.91 -0.955859 -1.077 0
M  V30 46122 H 4464.86 -0.512317 -4.18274 0
M  V30 46123 H 4463.58 0.310205 -3.25123 0
M  V30 46124 H 4462.24 -1.82117 -3.18165 0
M  V30 46125 H 4461.89 -0.170366 -5.02711 0
M  V30 46126 H 4461.59 -1.83654 -5.58162 0
M  V30 46127 H 4463.12 -1.01422 -6.02118 0
M  V30 46128 H 4464.53 -2.98618 -4.89388 0
M  V30 46129 H 4462.93 -3.74943 -4.68549 0
M  V30 46130 H 4464 -3.56799 -3.28363 0
M  V30 46131 N 4465.34 1.17131 -1.05443 0
M  V30 46132 C 4466.62 1.83408 -0.679763 0
M  V30 46133 C 4467 1.93683 0.839658 0
M  V30 46134 O 4466.35 1.47331 1.74659 0
M  V30 46135 C 4466.56 3.20913 -1.3717 0
M  V30 46136 C 4467.9 3.9679 -1.51137 0
M  V30 46137 O 4468.93 3.30401 -1.33091 0
M  V30 46138 O 4467.79 5.15772 -1.8067 0
M  V30 46139 H 4464.88 0.791532 -0.239597 0
M  V30 46140 H 4467.43 1.24406 -1.15417 0
M  V30 46141 H 4466.2 3.08419 -2.40818 0
M  V30 46142 H 4465.82 3.87584 -0.88681 0
M  V30 46143 N 4466.82 0.835799 1.33612 0
M  V30 46144 C 4467.77 0.255319 2.31194 0
M  V30 46145 C 4468.76 -0.611014 1.57997 0
M  V30 46146 O 4469.97 -0.500918 1.7289 0
M  V30 46147 H 4466.34 0.0638349 0.749286 0
M  V30 46148 H 4468.31 1.09293 2.77665 0
M  V30 46149 C 4467.06 -0.557419 3.43203 0
M  V30 46150 H 4466.38 0.0998958 3.99675 0
M  V30 46151 H 4467.82 -0.929476 4.13687 0
M  V30 46152 C 4466.28 -1.73504 2.88787 0
M  V30 46153 O 4466.81 -2.83366 2.84722 0
M  V30 46154 N 4465.02 -1.55595 2.45436 0
M  V30 46155 H 4464.57 -0.662267 2.48941 0
M  V30 46156 H 4464.52 -2.34537 2.09379 0
M  V30 46157 N 4468.3 -1.46061 0.591947 0
M  V30 46158 C 4469.23 -2.33173 -0.123591 0
M  V30 46159 C 4470.21 -1.459 -0.874479 0
M  V30 46160 O 4471.39 -1.74701 -0.848119 0
M  V30 46161 C 4468.52 -3.2834 -1.13182 0
M  V30 46162 C 4467.48 -4.25126 -0.495174 0
M  V30 46163 C 4466.8 -5.09868 -1.61054 0
M  V30 46164 C 4468.1 -5.19141 0.573608 0
M  V30 46165 H 4469.8 -2.93249 0.603749 0
M  V30 46166 H 4467.34 -1.41013 0.291791 0
M  V30 46167 H 4469.3 -3.88143 -1.64083 0
M  V30 46168 H 4468.02 -2.66389 -1.88956 0
M  V30 46169 H 4466.68 -3.66599 -0.00716564 0
M  V30 46170 H 4466.33 -4.44297 -2.35817 0
M  V30 46171 H 4466.03 -5.75421 -1.19015 0
M  V30 46172 H 4467.55 -5.72537 -2.12213 0
M  V30 46173 H 4468.96 -5.73106 0.149301 0
M  V30 46174 H 4467.36 -5.93086 0.914844 0
M  V30 46175 H 4468.43 -4.62514 1.45633 0
M  V30 46176 N 4469.77 -0.330231 -1.54101 0
M  V30 46177 C 4470.7 0.525273 -2.27515 0
M  V30 46178 C 4471.69 1.11379 -1.28564 0
M  V30 46179 O 4472.87 1.13767 -1.57387 0
M  V30 46180 C 4470 1.68299 -3.03797 0
M  V30 46181 C 4468.95 1.22346 -4.10141 0
M  V30 46182 C 4468.28 2.46865 -4.74301 0
M  V30 46183 C 4469.58 0.333514 -5.21234 0
M  V30 46184 H 4471.27 -0.0871182 -2.99273 0
M  V30 46185 H 4468.82 -0.0433399 -1.43935 0
M  V30 46186 H 4470.77 2.28782 -3.53888 0
M  V30 46187 H 4469.5 2.32208 -2.29667 0
M  V30 46188 H 4468.16 0.641523 -3.60943 0
M  V30 46189 H 4467.8 3.09152 -3.9678 0
M  V30 46190 H 4467.5 2.16806 -5.4614 0
M  V30 46191 H 4469.03 3.08098 -5.2717 0
M  V30 46192 H 4470.44 0.844813 -5.67041 0
M  V30 46193 H 4468.84 0.125402 -5.99969 0
M  V30 46194 H 4469.91 -0.633893 -4.80739 0
M  V30 46195 N 4471.25 1.57491 -0.0585476 0
M  V30 46196 C 4472.48 1.97713 0.626451 0
M  V30 46197 C 4472.9 0.936189 1.63148 0
M  V30 46198 O 4472.26 -0.0997474 1.81025 0
M  V30 46199 C 4472.31 3.36994 1.28326 0
M  V30 46200 O 4471.41 3.35442 2.39901 0
M  V30 46201 H 4470.75 0.643873 0.162244 0
M  V30 46202 H 4473.28 2.04192 -0.129135 0
M  V30 46203 H 4473.29 3.73885 1.63322 0
M  V30 46204 H 4471.97 4.12291 0.546744 0
M  V30 46205 H 4470.55 3.10305 2.06798 0
M  V30 46206 N 4472.73 -0.214903 1.56128 0
M  V30 46207 C 4473.66 -1.28997 1.89453 0
M  V30 46208 C 4474.68 -1.42713 0.783376 0
M  V30 46209 O 4475.86 -1.43492 1.06171 0
M  V30 46210 C 4472.96 -2.66475 2.09391 0
M  V30 46211 C 4472.14 -2.74621 3.40444 0
M  V30 46212 C 4471.2 -3.93158 3.49733 0
M  V30 46213 O 4470.22 -3.81185 4.22713 0
M  V30 46214 N 4471.42 -5.07755 2.81364 0
M  V30 46215 H 4474.19 -1.00733 2.82264 0
M  V30 46216 H 4471.75 -0.404915 1.56755 0
M  V30 46217 H 4473.74 -3.44166 2.12914 0
M  V30 46218 H 4472.31 -2.8731 1.23173 0
M  V30 46219 H 4471.53 -1.83356 3.48962 0
M  V30 46220 H 4472.82 -2.77039 4.26764 0
M  V30 46221 H 4472.22 -5.20379 2.21862 0
M  V30 46222 H 4470.78 -5.83464 2.90539 0
M  V30 46223 N 4474.21 -1.50053 -0.481867 0
M  V30 46224 C 4475.14 -1.71051 -1.58945 0
M  V30 46225 C 4476.12 -0.559344 -1.6064 0
M  V30 46226 O 4477.3 -0.797306 -1.77078 0
M  V30 46227 C 4474.43 -1.79472 -2.97333 0
M  V30 46228 C 4473.39 -2.94569 -3.10505 0
M  V30 46229 C 4472.71 -2.88121 -4.50433 0
M  V30 46230 C 4474.01 -4.35237 -2.88731 0
M  V30 46231 H 4475.71 -2.63785 -1.41626 0
M  V30 46232 H 4473.25 -1.26939 -0.679897 0
M  V30 46233 H 4475.21 -1.92748 -3.74735 0
M  V30 46234 H 4473.93 -0.833523 -3.15785 0
M  V30 46235 H 4472.59 -2.80927 -2.35533 0
M  V30 46236 H 4472.24 -1.89869 -4.65788 0
M  V30 46237 H 4471.94 -3.65383 -4.60184 0
M  V30 46238 H 4473.46 -3.03431 -5.2987 0
M  V30 46239 H 4474.88 -4.49461 -3.5589 0
M  V30 46240 H 4473.27 -5.13867 -3.09937 0
M  V30 46241 H 4474.34 -4.48354 -1.8468 0
M  V30 46242 N 4475.69 0.734288 -1.39449 0
M  V30 46243 C 4476.94 1.48932 -1.36022 0
M  V30 46244 C 4477.25 1.95557 0.0408318 0
M  V30 46245 O 4478.45 2.70779 0.197685 0
M  V30 46246 C 4476.91 2.69117 -2.38965 0
M  V30 46247 C 4476.52 2.29438 -3.84788 0
M  V30 46248 C 4478.26 3.46935 -2.44615 0
M  V30 46249 C 4476.17 3.46349 -4.79371 0
M  V30 46250 H 4475.1 0.559278 -0.505692 0
M  V30 46251 H 4477.75 0.800925 -1.65098 0
M  V30 46252 H 4476.13 3.40034 -2.0296 0
M  V30 46253 H 4477.31 1.66062 -4.29837 0
M  V30 46254 H 4475.62 1.64709 -3.82439 0
M  V30 46255 H 4478.22 4.33896 -3.12471 0
M  V30 46256 H 4478.56 3.89449 -1.47089 0
M  V30 46257 H 4479.09 2.83047 -2.79517 0
M  V30 46258 H 4475.83 3.08884 -5.78161 0
M  V30 46259 H 4475.35 4.08703 -4.39001 0
M  V30 46260 H 4477.03 4.12674 -4.98306 0
M  V30 46261 N 4477.16 1.24636 0.964549 0
M  V30 46262 C 4478.13 1.04247 2.04121 0
M  V30 46263 C 4479.13 -0.0013191 1.608 0
M  V30 46264 O 4480.32 0.239944 1.7254 0
M  V30 46265 C 4477.45 0.580706 3.35918 0
M  V30 46266 H 4478.64 1.99811 2.23642 0
M  V30 46267 H 4476.2 1.06903 1.14024 0
M  V30 46268 H 4476.93 -0.377987 3.2209 0
M  V30 46269 H 4476.72 1.33411 3.68706 0
M  V30 46270 H 4478.21 0.45918 4.15068 0
M  V30 46271 N 4478.64 -1.1657 1.06062 0
M  V30 46272 C 4479.55 -2.24518 0.680361 0
M  V30 46273 C 4480.57 -1.7135 -0.302544 0
M  V30 46274 O 4481.74 -2.00822 -0.152443 0
M  V30 46275 C 4478.81 -3.46629 0.0701534 0
M  V30 46276 C 4477.87 -4.14845 1.10463 0
M  V30 46277 C 4477.1 -5.31127 0.523443 0
M  V30 46278 O 4477.33 -5.66516 -0.66451 0
M  V30 46279 O 4476.26 -5.88521 1.262 0
M  V30 46280 H 4480.09 -2.59349 1.58024 0
M  V30 46281 H 4477.67 -1.2404 0.832737 0
M  V30 46282 H 4479.55 -4.20544 -0.268519 0
M  V30 46283 H 4478.23 -3.13576 -0.803243 0
M  V30 46284 H 4477.14 -3.4291 1.49544 0
M  V30 46285 H 4478.47 -4.51947 1.94947 0
M  V30 46286 N 4480.12 -0.842873 -1.33167 0
M  V30 46287 C 4481.05 -0.294109 -2.3164 0
M  V30 46288 C 4482.03 0.600345 -1.59154 0
M  V30 46289 O 4483.22 0.523058 -1.87023 0
M  V30 46290 C 4480.35 0.528295 -3.43258 0
M  V30 46291 C 4479.3 -0.27071 -4.27143 0
M  V30 46292 C 4478.63 0.675695 -5.30413 0
M  V30 46293 C 4479.93 -1.48999 -5.00596 0
M  V30 46294 H 4481.62 -1.11691 -2.77787 0
M  V30 46295 H 4479.17 -0.538525 -1.33551 0
M  V30 46296 H 4481.12 0.92253 -4.11178 0
M  V30 46297 H 4479.84 1.38434 -2.9581 0
M  V30 46298 H 4478.5 -0.646554 -3.60853 0
M  V30 46299 H 4478.15 1.52825 -4.79222 0
M  V30 46300 H 4477.85 0.145168 -5.87421 0
M  V30 46301 H 4479.38 1.06736 -6.01199 0
M  V30 46302 H 4480.79 -1.16869 -5.61262 0
M  V30 46303 H 4479.19 -1.95759 -5.67273 0
M  V30 46304 H 4480.26 -2.25761 -4.29139 0
M  V30 46305 N 4481.6 1.45745 -0.599685 0
M  V30 46306 C 4482.85 2.01892 -0.0916182 0
M  V30 46307 C 4483.17 1.4716 1.27941 0
M  V30 46308 O 4482.44 0.662795 1.84347 0
M  V30 46309 H 4481.02 0.746362 -0.0308786 0
M  V30 46310 H 4483.68 1.78642 -0.7793 0
M  V30 46311 H 4482.78 3.1208 -0.0354184 0
M  V30 46312 N 4483.08 0.338398 1.53924 0
M  V30 46313 C 4484.01 -0.56368 2.21129 0
M  V30 46314 C 4484.99 -1.10429 1.19349 0
M  V30 46315 O 4486.17 -1.16552 1.48148 0
M  V30 46316 C 4483.3 -1.77495 2.88467 0
M  V30 46317 C 4482.35 -1.36426 4.04092 0
M  V30 46318 S 4483.18 -0.388405 5.3409 0
M  V30 46319 C 4484.33 -1.60662 6.04929 0
M  V30 46320 H 4484.57 0.00714997 2.97299 0
M  V30 46321 H 4482.1 0.122472 1.53913 0
M  V30 46322 H 4484.06 -2.46987 3.27884 0
M  V30 46323 H 4482.72 -2.31698 2.12072 0
M  V30 46324 H 4481.91 -2.26723 4.50125 0
M  V30 46325 H 4481.51 -0.748869 3.66426 0
M  V30 46326 H 4483.81 -2.54187 6.28009 0
M  V30 46327 H 4484.75 -1.18817 6.9806 0
M  V30 46328 H 4485.16 -1.80033 5.35022 0
M  V30 46329 N 4484.56 -1.57458 0.0668989 0
M  V30 46330 C 4485.83 -1.84692 -0.644068 0
M  V30 46331 C 4486.21 -0.958409 -1.8809 0
M  V30 46332 O 4485.56 -0.0234383 -2.28488 0
M  V30 46333 C 4485.77 -3.34771 -0.986392 0
M  V30 46334 C 4487.12 -4.02163 -1.36197 0
M  V30 46335 O 4488.14 -3.39488 -1.07827 0
M  V30 46336 O 4487 -5.12701 -1.89209 0
M  V30 46337 H 4484.1 -0.762828 -0.319411 0
M  V30 46338 H 4486.64 -1.6942 0.0974582 0
M  V30 46339 H 4485.41 -3.91152 -0.107745 0
M  V30 46340 H 4485.04 -3.55287 -1.78484 0
M  V30 46341 N 4486.03 0.20662 -1.5624 0
M  V30 46342 C 4486.98 1.2561 -1.93625 0
M  V30 46343 C 4487.95 1.45821 -0.795326 0
M  V30 46344 O 4489.14 1.59145 -1.0525 0
M  V30 46345 C 4486.28 2.59831 -2.27116 0
M  V30 46346 C 4485.39 2.47295 -3.54216 0
M  V30 46347 C 4484.52 3.74141 -3.77083 0
M  V30 46348 C 4483.56 3.5639 -4.97647 0
M  V30 46349 N 4482.7 4.7522 -5.16827 0
M  V30 46350 H 4487.54 0.930284 -2.83107 0
M  V30 46351 H 4485.08 0.448016 -1.40111 0
M  V30 46352 H 4487.03 3.38013 -2.44547 0
M  V30 46353 H 4485.66 2.9048 -1.40789 0
M  V30 46354 H 4484.72 1.60471 -3.44896 0
M  V30 46355 H 4486.03 2.30106 -4.42552 0
M  V30 46356 H 4485.18 4.60764 -3.94691 0
M  V30 46357 H 4483.92 3.94272 -2.87055 0
M  V30 46358 H 4482.93 2.68151 -4.79974 0
M  V30 46359 H 4484.15 3.37716 -5.89173 0
M  V30 46360 H 4482.1 4.95636 -4.29745 0
M  V30 46361 H 4482.01 4.60814 -5.99322 0
M  V30 46362 H 4483.28 5.63227 -5.38884 0
M  V30 46363 N 4487.51 1.50306 0.473902 0
M  V30 46364 C 4488.46 1.68964 1.57225 0
M  V30 46365 C 4489.43 0.530955 1.57385 0
M  V30 46366 O 4490.61 0.761194 1.74958 0
M  V30 46367 C 4487.75 1.7872 2.95217 0
M  V30 46368 C 4486.87 3.06072 3.04867 0
M  V30 46369 C 4486 3.06641 4.33757 0
M  V30 46370 C 4485.04 4.28458 4.37138 0
M  V30 46371 N 4484.18 4.26783 5.57495 0
M  V30 46372 H 4489.02 2.62735 1.40621 0
M  V30 46373 H 4486.55 1.30243 0.683743 0
M  V30 46374 H 4488.51 1.82358 3.75235 0
M  V30 46375 H 4487.14 0.883915 3.10462 0
M  V30 46376 H 4486.19 3.11919 2.1774 0
M  V30 46377 H 4487.51 3.9605 3.03226 0
M  V30 46378 H 4486.66 3.08992 5.2212 0
M  V30 46379 H 4485.4 2.14488 4.38003 0
M  V30 46380 H 4484.4 4.26323 3.47173 0
M  V30 46381 H 4485.63 5.21835 4.34586 0
M  V30 46382 H 4483.58 3.37482 5.62532 0
M  V30 46383 H 4483.49 5.10526 5.57583 0
M  V30 46384 H 4484.76 4.33275 6.47991 0
M  V30 46385 N 4488.99 -0.726883 1.39836 0
M  V30 46386 C 4490.27 -1.47898 1.28006 0
M  V30 46387 C 4490.65 -2.1083 -0.106715 0
M  V30 46388 O 4489.99 -1.99246 -1.11862 0
M  V30 46389 C 4490.2 -2.52384 2.41047 0
M  V30 46390 C 4491.55 -3.18536 2.80749 0
M  V30 46391 O 4492.58 -2.627 2.40556 0
M  V30 46392 O 4491.44 -4.19592 3.5015 0
M  V30 46393 H 4488.53 -0.657145 0.502085 0
M  V30 46394 H 4491.08 -0.760017 1.51729 0
M  V30 46395 H 4489.85 -2.04317 3.33722 0
M  V30 46396 H 4489.47 -3.31829 2.19033 0
M  V30 46397 N 4490.47 -1.25146 -0.957926 0
M  V30 46398 C 4491.71 -1.09861 -1.70465 0
M  V30 46399 C 4492.05 0.36012 -1.90832 0
M  V30 46400 O 4491.32 1.26563 -1.47689 0
M  V30 46401 C 4491.6 -1.84981 -3.08957 0
M  V30 46402 C 4491.46 -3.38662 -2.9602 0
M  V30 46403 C 4492.78 -1.63031 -4.0879 0
M  V30 46404 H 4489.9 -0.400486 -0.618692 0
M  V30 46405 H 4492.54 -1.53937 -1.11371 0
M  V30 46406 H 4490.69 -1.47517 -3.59403 0
M  V30 46407 H 4492.36 -3.85781 -2.52924 0
M  V30 46408 H 4490.6 -3.66542 -2.32012 0
M  V30 46409 H 4491.27 -3.86434 -3.94174 0
M  V30 46410 H 4493.75 -1.95638 -3.6724 0
M  V30 46411 H 4492.63 -2.18033 -5.03739 0
M  V30 46412 H 4492.89 -0.570846 -4.38399 0
M  V30 46413 N 4491.95 1.16006 -1.06679 0
M  V30 46414 C 4493.17 1.91065 -0.806773 0
M  V30 46415 C 4493.6 1.77114 0.633422 0
M  V30 46416 O 4492.95 1.09913 1.44183 0
M  V30 46417 C 4493 3.39651 -1.21118 0
M  V30 46418 O 4492.11 4.10892 -0.352334 0
M  V30 46419 H 4491.45 0.595115 -0.294507 0
M  V30 46420 H 4493.98 1.4695 -1.42362 0
M  V30 46421 H 4493.99 3.9043 -1.18442 0
M  V30 46422 H 4492.66 3.49124 -2.2602 0
M  V30 46423 H 4491.24 3.70283 -0.440998 0
M  V30 46424 N 4493.42 0.849923 1.32718 0
M  V30 46425 C 4494.37 0.289113 2.28982 0
M  V30 46426 C 4495.34 -0.601269 1.54835 0
M  V30 46427 O 4496.53 -0.537189 1.83082 0
M  V30 46428 C 4493.67 -0.520503 3.41152 0
M  V30 46429 C 4492.78 0.39514 4.30189 0
M  V30 46430 C 4491.91 -0.426648 5.29484 0
M  V30 46431 C 4490.95 0.48669 6.10162 0
M  V30 46432 N 4490.09 -0.297632 7.01469 0
M  V30 46433 H 4494.93 1.11529 2.76343 0
M  V30 46434 H 4492.47 0.561427 1.35965 0
M  V30 46435 H 4494.42 -1.00549 4.04902 0
M  V30 46436 H 4493.05 -1.31155 2.94955 0
M  V30 46437 H 4492.11 0.998489 3.67062 0
M  V30 46438 H 4493.42 1.09629 4.86603 0
M  V30 46439 H 4492.57 -0.974994 5.98814 0
M  V30 46440 H 4491.31 -1.16119 4.73675 0
M  V30 46441 H 4490.32 1.04696 5.3974 0
M  V30 46442 H 4491.54 1.21977 6.68056 0
M  V30 46443 H 4489.49 -1.01535 6.48095 0
M  V30 46444 H 4489.4 0.344583 7.55214 0
M  V30 46445 H 4490.67 -0.827858 7.75091 0
M  V30 46446 N 4494.9 -1.45425 0.607406 0
M  V30 46447 C 4495.85 -2.3053 -0.111544 0
M  V30 46448 C 4496.82 -1.42093 -0.860166 0
M  V30 46449 O 4498 -1.71022 -0.845938 0
M  V30 46450 C 4495.14 -3.26996 -1.10307 0
M  V30 46451 C 4494.26 -4.30536 -0.355342 0
M  V30 46452 C 4493.39 -5.1411 -1.33658 0
M  V30 46453 C 4492.43 -6.09378 -0.576648 0
M  V30 46454 N 4491.57 -6.85733 -1.50716 0
M  V30 46455 H 4496.41 -2.91475 0.620196 0
M  V30 46456 H 4493.95 -1.43629 0.317644 0
M  V30 46457 H 4495.9 -3.81391 -1.69107 0
M  V30 46458 H 4494.53 -2.67805 -1.80223 0
M  V30 46459 H 4493.59 -3.78803 0.348156 0
M  V30 46460 H 4494.9 -4.98234 0.237598 0
M  V30 46461 H 4494.05 -5.72904 -1.99664 0
M  V30 46462 H 4492.79 -4.4643 -1.96345 0
M  V30 46463 H 4491.8 -5.49714 0.0970452 0
M  V30 46464 H 4493.02 -6.79085 0.0451728 0
M  V30 46465 H 4490.97 -6.20742 -2.12168 0
M  V30 46466 H 4490.88 -7.49782 -0.96765 0
M  V30 46467 H 4492.15 -7.49068 -2.1568 0
M  V30 46468 N 4496.38 -0.346557 -1.53742 0
M  V30 46469 C 4497.33 0.52414 -2.26618 0
M  V30 46470 C 4498.32 1.09943 -1.28875 0
M  V30 46471 O 4499.53 1.04483 -1.46572 0
M  V30 46472 H 4495.9 0.187717 -0.728194 0
M  V30 46473 H 4497.87 -0.112495 -2.98188 0
M  V30 46474 C 4496.62 1.66175 -3.0542 0
M  V30 46475 H 4495.95 1.22835 -3.80462 0
M  V30 46476 H 4497.39 2.24609 -3.5962 0
M  V30 46477 C 4495.85 2.59295 -2.15099 0
M  V30 46478 O 4496.38 3.61621 -1.74908 0
M  V30 46479 N 4494.58 2.28048 -1.80118 0
M  V30 46480 H 4494.13 1.44876 -2.13 0
M  V30 46481 H 4494.09 2.90611 -1.19969 0
M  V30 46482 N 4497.86 1.5742 -0.0752483 0
M  V30 46483 C 4498.77 2.16423 0.905434 0
M  V30 46484 C 4499.78 1.12832 1.32457 0
M  V30 46485 O 4500.96 1.45114 1.39656 0
M  V30 46486 C 4498.03 2.717 2.1536 0
M  V30 46487 C 4497.09 3.90177 1.79055 0
M  V30 46488 C 4496.32 4.42808 2.9792 0
M  V30 46489 O 4496.54 3.94431 4.12045 0
M  V30 46490 O 4495.48 5.34095 2.77537 0
M  V30 46491 H 4499.3 3.0059 0.43352 0
M  V30 46492 H 4496.89 1.48665 0.148015 0
M  V30 46493 H 4498.77 3.07114 2.88546 0
M  V30 46494 H 4497.44 1.90591 2.61642 0
M  V30 46495 H 4496.35 3.5961 1.0311 0
M  V30 46496 H 4497.68 4.72589 1.37552 0
M  V30 46497 N 4499.34 -0.198331 1.56347 0
M  V30 46498 C 4500.75 -0.549032 1.49859 0
M  V30 46499 C 4500.95 -1.86013 0.774677 0
M  V30 46500 O 4500.01 -2.50414 0.323864 0
M  V30 46501 C 4501.32 -0.606765 2.94515 0
M  V30 46502 C 4502.87 -0.695818 3.05168 0
M  V30 46503 C 4503.34 -0.78469 4.51228 0
M  V30 46504 N 4504.84 -0.848303 4.55366 0
M  V30 46505 C 4505.57 -0.937179 5.65689 0
M  V30 46506 N 4505.07 -0.988559 6.85711 0
M  V30 46507 N 4506.86 -0.974118 5.53595 0
M  V30 46508 H 4499.01 0.661726 2.01829 0
M  V30 46509 H 4501.27 0.235293 0.918336 0
M  V30 46510 H 4500.98 0.287443 3.50523 0
M  V30 46511 H 4500.85 -1.46256 3.47691 0
M  V30 46512 H 4503.24 -1.58046 2.4921 0
M  V30 46513 H 4503.32 0.186111 2.55122 0
M  V30 46514 H 4502.97 0.0955857 5.0781 0
M  V30 46515 H 4502.9 -1.68237 4.99003 0
M  V30 46516 H 4505.39 -0.817973 3.68941 0
M  V30 46517 H 4505.7 -1.0568 7.6554 0
M  V30 46518 H 4504.04 -0.957292 6.88376 0
M  V30 46519 H 4507.24 -0.930793 4.58753 0
M  V30 46520 H 4507.41 -1.03992 6.39601 0
M  V30 46521 N 4500.81 -1.50555 -0.465925 0
M  V30 46522 C 4502.04 -1.65843 -1.24543 0
M  V30 46523 C 4502.46 -0.343551 -1.84936 0
M  V30 46524 O 4501.82 0.693181 -1.67525 0
M  V30 46525 C 4501.87 -2.75541 -2.32614 0
M  V30 46526 O 4500.97 -2.37153 -3.3739 0
M  V30 46527 H 4500.32 -0.553906 -0.366175 0
M  V30 46528 H 4502.85 -1.96961 -0.553857 0
M  V30 46529 H 4502.86 -2.98773 -2.77847 0
M  V30 46530 H 4501.53 -3.70968 -1.8803 0
M  V30 46531 H 4500.11 -2.24388 -2.97833 0
M  V30 46532 N 4502.29 0.719457 -1.4022 0
M  V30 46533 C 4503.26 1.81525 -1.39934 0
M  V30 46534 C 4504.26 1.58094 -0.293778 0
M  V30 46535 O 4505.45 1.65207 -0.552487 0
M  V30 46536 C 4502.58 3.19557 -1.18727 0
M  V30 46537 H 4503.77 1.83178 -2.37457 0
M  V30 46538 H 4501.32 0.924702 -1.26012 0
M  V30 46539 H 4502.06 3.23556 -0.21948 0
M  V30 46540 H 4501.84 3.37963 -1.98805 0
M  V30 46541 H 4503.33 3.99593 -1.21305 0
M  V30 46542 N 4503.77 1.25652 0.951275 0
M  V30 46543 C 4504.7 1.08815 2.06595 0
M  V30 46544 C 4505.68 -0.00376567 1.701 0
M  V30 46545 O 4506.87 0.166393 1.93486 0
M  V30 46546 C 4504 0.709662 3.39972 0
M  V30 46547 C 4502.95 1.75219 3.9049 0
M  V30 46548 C 4502.28 1.22829 5.20401 0
M  V30 46549 C 4503.58 3.15168 4.16493 0
M  V30 46550 H 4505.27 2.02056 2.20939 0
M  V30 46551 H 4502.82 0.972872 1.06166 0
M  V30 46552 H 4504.77 0.578796 4.17406 0
M  V30 46553 H 4503.49 -0.258442 3.25576 0
M  V30 46554 H 4502.15 1.87156 3.15227 0
M  V30 46555 H 4501.8 0.250321 5.02377 0
M  V30 46556 H 4501.5 1.92511 5.5517 0
M  V30 46557 H 4503.02 1.10989 6.00428 0
M  V30 46558 H 4504.44 3.06366 4.84575 0
M  V30 46559 H 4502.84 3.8235 4.62524 0
M  V30 46560 H 4503.91 3.61978 3.22645 0
M  V30 46561 N 4505.25 -1.15438 1.07293 0
M  V30 46562 C 4506.2 -2.22222 0.68703 0
M  V30 46563 C 4507.19 -1.66689 -0.301872 0
M  V30 46564 O 4508.4 -1.79236 -0.165649 0
M  V30 46565 H 4504.77 -0.723776 0.204089 0
M  V30 46566 H 4506.74 -2.5205 1.59728 0
M  V30 46567 C 4505.49 -3.47555 0.100272 0
M  V30 46568 H 4504.81 -3.90609 0.852348 0
M  V30 46569 H 4506.25 -4.23794 -0.132086 0
M  V30 46570 C 4504.71 -3.16341 -1.15889 0
M  V30 46571 O 4505.24 -3.33082 -2.24543 0
M  V30 46572 N 4503.45 -2.70389 -1.06481 0
M  V30 46573 H 4503 -2.56966 -0.180577 0
M  V30 46574 H 4502.95 -2.49878 -1.9081 0
M  V30 46575 N 4506.73 -0.85695 -1.32265 0
M  V30 46576 C 4507.64 -0.306212 -2.32593 0
M  V30 46577 C 4508.65 0.577152 -1.64149 0
M  V30 46578 O 4509.83 0.476974 -1.9567 0
M  V30 46579 C 4506.89 0.49444 -3.43156 0
M  V30 46580 C 4505.95 -0.415336 -4.27286 0
M  V30 46581 C 4505.19 0.347199 -5.32569 0
M  V30 46582 O 4505.41 1.57689 -5.4817 0
M  V30 46583 O 4504.34 -0.288193 -6.0121 0
M  V30 46584 H 4508.17 -1.13747 -2.81594 0
M  V30 46585 H 4505.76 -0.61995 -1.3593 0
M  V30 46586 H 4507.64 0.948799 -4.1058 0
M  V30 46587 H 4506.31 1.30246 -2.9634 0
M  V30 46588 H 4505.22 -0.91792 -3.62664 0
M  V30 46589 H 4506.55 -1.1886 -4.77633 0
M  V30 46590 N 4508.2 1.45101 -0.61511 0
M  V30 46591 C 4509.45 2.02483 -0.113418 0
M  V30 46592 C 4509.78 1.48151 1.25559 0
M  V30 46593 O 4509.06 0.659168 1.8299 0
M  V30 46594 C 4509.34 3.60005 -0.0826543 0
M  V30 46595 C 4509.19 4.24654 -1.48286 0
M  V30 46596 C 4510.51 4.35974 0.601248 0
M  V30 46597 H 4507.63 0.735763 -0.0426891 0
M  V30 46598 H 4510.27 1.72865 -0.788521 0
M  V30 46599 H 4508.42 3.85369 0.492242 0
M  V30 46600 H 4510.1 4.10451 -2.10541 0
M  V30 46601 H 4508.34 3.82765 -2.0414 0
M  V30 46602 H 4509.01 5.33595 -1.41351 0
M  V30 46603 H 4511.49 4.15948 0.11252 0
M  V30 46604 H 4510.36 5.45699 0.591905 0
M  V30 46605 H 4510.62 4.09397 1.66872 0
M  V30 46606 N 4509.68 0.354705 1.53557 0
M  V30 46607 C 4510.63 -0.513101 2.22151 0
M  V30 46608 C 4511.62 -1.0573 1.21284 0
M  V30 46609 O 4512.81 -0.98915 1.46782 0
M  V30 46610 C 4509.94 -1.65787 3.00615 0
M  V30 46611 C 4509.02 -1.12707 4.08849 0
M  V30 46612 N 4509.42 -0.318385 5.04797 0
M  V30 46613 C 4507.71 -1.40292 4.23361 0
M  V30 46614 C 4508.41 -0.0290179 5.81693 0
M  V30 46615 N 4507.39 -0.623701 5.4001 0
M  V30 46616 H 4511.19 0.111689 2.93688 0
M  V30 46617 H 4508.71 0.162148 1.61588 0
M  V30 46618 H 4510.7 -2.29164 3.48266 0
M  V30 46619 H 4509.36 -2.28583 2.30608 0
M  V30 46620 H 4510.37 0.0414912 5.17883 0
M  V30 46621 H 4507.05 -2.03445 3.64577 0
M  V30 46622 H 4508.44 0.624044 6.68996 0
M  V30 46623 N 4511.16 -1.57378 0.0835957 0
M  V30 46624 C 4512.09 -2.16413 -0.876784 0
M  V30 46625 C 4513.07 -1.09434 -1.30224 0
M  V30 46626 O 4514.26 -1.37521 -1.37119 0
M  V30 46627 C 4511.39 -2.73525 -2.14013 0
M  V30 46628 C 4510.34 -3.85775 -1.85368 0
M  V30 46629 C 4509.67 -4.2954 -3.18433 0
M  V30 46630 C 4510.97 -5.0949 -1.14966 0
M  V30 46631 H 4512.66 -2.96915 -0.384954 0
M  V30 46632 H 4510.21 -1.42823 -0.18372 0
M  V30 46633 H 4512.16 -3.13473 -2.81625 0
M  V30 46634 H 4510.88 -1.90261 -2.65458 0
M  V30 46635 H 4509.54 -3.46349 -1.20157 0
M  V30 46636 H 4509.19 -3.43182 -3.67743 0
M  V30 46637 H 4508.89 -5.05214 -3.00054 0
M  V30 46638 H 4510.42 -4.72113 -3.87223 0
M  V30 46639 H 4511.83 -5.4668 -1.72668 0
M  V30 46640 H 4510.23 -5.90519 -1.06805 0
M  V30 46641 H 4511.3 -4.84724 -0.130578 0
M  V30 46642 N 4512.64 0.190037 -1.5645 0
M  V30 46643 C 4513.89 0.910989 -1.81187 0
M  V30 46644 C 4514.22 1.82696 -0.65846 0
M  V30 46645 O 4513.49 1.91493 0.340708 0
M  V30 46646 C 4513.78 1.72286 -3.16211 0
M  V30 46647 C 4513.63 0.831263 -4.42052 0
M  V30 46648 C 4514.95 2.69442 -3.47979 0
M  V30 46649 H 4512.07 0.329747 -0.659118 0
M  V30 46650 H 4514.71 0.178102 -1.89163 0
M  V30 46651 H 4512.86 2.34767 -3.09543 0
M  V30 46652 H 4514.53 0.220767 -4.60771 0
M  V30 46653 H 4512.77 0.138254 -4.3358 0
M  V30 46654 H 4513.45 1.43442 -5.33037 0
M  V30 46655 H 4515.92 2.17091 -3.5498 0
M  V30 46656 H 4514.8 3.23326 -4.43566 0
M  V30 46657 H 4515.06 3.48734 -2.71729 0
M  V30 46658 N 4514.12 1.508 0.457934 0
M  V30 46659 C 4515.36 1.62687 1.21082 0
M  V30 46660 C 4515.7 0.332335 1.91335 0
M  V30 46661 O 4514.97 -0.666979 1.82706 0
M  V30 46662 C 4515.25 2.81623 2.24412 0
M  V30 46663 C 4515.11 4.20995 1.58377 0
M  V30 46664 C 4516.43 2.96096 3.256 0
M  V30 46665 H 4513.55 0.592103 0.438843 0
M  V30 46666 H 4516.19 1.83227 0.502796 0
M  V30 46667 H 4514.34 2.64241 2.84796 0
M  V30 46668 H 4516.01 4.49998 1.01488 0
M  V30 46669 H 4514.25 4.24644 0.886555 0
M  V30 46670 H 4514.92 5.00168 2.33529 0
M  V30 46671 H 4517.4 3.12052 2.75251 0
M  V30 46672 H 4516.28 3.80916 3.95215 0
M  V30 46673 H 4516.54 2.07274 3.905 0
M  V30 46674 N 4515.6 -0.71201 1.40599 0
M  V30 46675 C 4516.53 -1.83577 1.35553 0
M  V30 46676 C 4517.51 -1.61031 0.22534 0
M  V30 46677 O 4518.69 -1.83996 0.409584 0
M  V30 46678 C 4515.82 -3.19979 1.11045 0
M  V30 46679 C 4514.86 -3.61347 2.26563 0
M  V30 46680 S 4515.7 -3.68048 3.88974 0
M  V30 46681 C 4516.85 -5.07203 3.66737 0
M  V30 46682 H 4517.09 -1.87578 2.30655 0
M  V30 46683 H 4514.62 -0.879138 1.26927 0
M  V30 46684 H 4516.58 -3.98731 0.975901 0
M  V30 46685 H 4515.24 -3.13607 0.175908 0
M  V30 46686 H 4514.43 -4.60395 2.05066 0
M  V30 46687 H 4514.03 -2.89861 2.3634 0
M  V30 46688 H 4516.32 -5.94226 3.25425 0
M  V30 46689 H 4517.27 -5.33737 4.65329 0
M  V30 46690 H 4517.68 -4.77965 3.00349 0
M  V30 46691 N 4517.07 -1.26155 -0.944598 0
M  V30 46692 C 4518.49 -1.03194 -1.21751 0
M  V30 46693 C 4518.69 0.245042 -2.00004 0
M  V30 46694 O 4517.75 0.955094 -2.3374 0
M  V30 46695 C 4519.06 -2.26126 -1.98211 0
M  V30 46696 C 4520.61 -2.30991 -2.11215 0
M  V30 46697 C 4521.08 -3.53607 -2.91077 0
M  V30 46698 N 4522.57 -3.54064 -2.98652 0
M  V30 46699 C 4523.31 -4.45605 -3.60865 0
M  V30 46700 N 4522.8 -5.47431 -4.24607 0
M  V30 46701 N 4524.6 -4.33264 -3.58104 0
M  V30 46702 H 4516.75 -2.08179 -0.421363 0
M  V30 46703 H 4519.01 -0.914732 -0.248937 0
M  V30 46704 H 4518.72 -3.1899 -1.48117 0
M  V30 46705 H 4518.59 -2.30101 -2.98887 0
M  V30 46706 H 4520.98 -1.38645 -2.60503 0
M  V30 46707 H 4521.06 -2.3103 -1.09812 0
M  V30 46708 H 4520.7 -4.46281 -2.42477 0
M  V30 46709 H 4520.63 -3.50816 -3.92728 0
M  V30 46710 H 4523.12 -2.80412 -2.53333 0
M  V30 46711 H 4523.44 -6.13476 -4.69965 0
M  V30 46712 H 4521.78 -5.51292 -4.23204 0
M  V30 46713 H 4524.97 -3.52935 -3.07497 0
M  V30 46714 H 4525.15 -5.048 -4.06301 0
M  V30 46715 N 4518.55 1.14868 -1.07903 0
M  V30 46716 C 4519.48 2.21928 -0.725965 0
M  V30 46717 C 4520.46 1.67623 0.289211 0
M  V30 46718 O 4521.65 1.93534 0.160719 0
M  V30 46719 C 4518.78 3.4706 -0.128978 0
M  V30 46720 C 4517.73 4.14359 -1.07193 0
M  V30 46721 C 4517.06 5.33634 -0.337416 0
M  V30 46722 C 4518.36 4.63483 -2.40791 0
M  V30 46723 H 4520.05 2.51718 -1.62106 0
M  V30 46724 H 4517.6 1.20989 -0.78088 0
M  V30 46725 H 4519.55 4.21199 0.129999 0
M  V30 46726 H 4518.27 3.16619 0.801229 0
M  V30 46727 H 4516.93 3.42168 -1.31592 0
M  V30 46728 H 4516.58 4.99451 0.59643 0
M  V30 46729 H 4516.28 5.79605 -0.965992 0
M  V30 46730 H 4517.81 6.10539 -0.0863713 0
M  V30 46731 H 4519.22 5.29122 -2.20688 0
M  V30 46732 H 4517.62 5.20137 -2.99295 0
M  V30 46733 H 4518.69 3.78823 -3.02689 0
M  V30 46734 N 4520.03 0.863952 1.31809 0
M  V30 46735 C 4520.96 0.330924 2.31143 0
M  V30 46736 C 4521.94 -0.574949 1.60089 0
M  V30 46737 O 4523.13 -0.493238 1.87832 0
M  V30 46738 C 4520.26 -0.473619 3.44055 0
M  V30 46739 C 4519.21 0.338631 4.26658 0
M  V30 46740 C 4518.54 -0.591225 5.31421 0
M  V30 46741 C 4519.84 1.56944 4.98163 0
M  V30 46742 H 4521.53 1.16096 2.75975 0
M  V30 46743 H 4519.08 0.559704 1.32677 0
M  V30 46744 H 4521.03 -0.856998 4.12594 0
M  V30 46745 H 4519.75 -1.33711 2.97975 0
M  V30 46746 H 4518.41 0.703881 3.59779 0
M  V30 46747 H 4518.06 -1.45182 4.81592 0
M  V30 46748 H 4517.76 -0.0516957 5.87577 0
M  V30 46749 H 4519.28 -0.971579 6.02821 0
M  V30 46750 H 4520.7 1.25784 5.59331 0
M  V30 46751 H 4519.09 2.04759 5.64087 0
M  V30 46752 H 4520.16 2.32559 4.25493 0
M  V30 46753 N 4521.51 -1.44772 0.622796 0
M  V30 46754 C 4522.73 -2.06998 0.129041 0
M  V30 46755 C 4523.16 -1.46174 -1.18384 0
M  V30 46756 O 4522.52 -0.560068 -1.72432 0
M  V30 46757 C 4522.56 -3.60595 0.0189619 0
M  V30 46758 O 4521.67 -3.99401 -1.02725 0
M  V30 46759 H 4521.01 -0.659044 0.0809775 0
M  V30 46760 H 4523.54 -1.85781 0.857116 0
M  V30 46761 H 4523.55 -4.07627 -0.174332 0
M  V30 46762 H 4522.22 -4.04249 0.977526 0
M  V30 46763 H 4520.8 -3.64014 -0.809198 0
M  V30 46764 N 4522.99 -0.362844 -1.53366 0
M  V30 46765 C 4524.23 0.228042 -2.01514 0
M  V30 46766 C 4524.56 1.48644 -1.24975 0
M  V30 46767 O 4523.84 1.91457 -0.342683 0
M  V30 46768 C 4524.12 0.522759 -3.56285 0
M  V30 46769 C 4523.98 -0.749075 -4.43519 0
M  V30 46770 C 4525.29 1.32447 -4.19697 0
M  V30 46771 H 4522.41 0.0814085 -0.73249 0
M  V30 46772 H 4525.06 -0.487195 -1.83648 0
M  V30 46773 H 4523.21 1.13207 -3.7164 0
M  V30 46774 H 4524.88 -1.38664 -4.39966 0
M  V30 46775 H 4523.12 -1.37 -4.11599 0
M  V30 46776 H 4523.79 -0.49786 -5.4975 0
M  V30 46777 H 4526.27 0.80906 -4.08159 0
M  V30 46778 H 4525.14 1.49942 -5.28023 0
M  V30 46779 H 4525.4 2.33219 -3.75581 0
M  V30 46780 N 4524.46 1.57332 -0.0919406 0
M  V30 46781 C 4525.71 1.94238 0.572509 0
M  V30 46782 C 4526.04 0.973458 1.68387 0
M  V30 46783 O 4525.29 -0.00750032 1.95699 0
M  V30 46784 C 4525.59 3.37693 1.17039 0
M  V30 46785 C 4525.26 4.50528 0.183145 0
M  V30 46786 C 4523.92 4.81119 -0.0883968 0
M  V30 46787 C 4526.27 5.18881 -0.491132 0
M  V30 46788 C 4523.6 5.77391 -1.04096 0
M  V30 46789 C 4525.95 6.16175 -1.43215 0
M  V30 46790 C 4524.62 6.45173 -1.71196 0
M  V30 46791 H 4523.89 0.710769 0.209496 0
M  V30 46792 H 4526.53 1.9077 -0.167103 0
M  V30 46793 H 4524.84 3.37725 1.98618 0
M  V30 46794 H 4526.54 3.63549 1.69214 0
M  V30 46795 H 4523.13 4.26682 0.404974 0
M  V30 46796 H 4527.31 4.95426 -0.294486 0
M  V30 46797 H 4522.57 5.98175 -1.26478 0
M  V30 46798 H 4526.74 6.68236 -1.96046 0
M  V30 46799 H 4524.37 7.19582 -2.45166 0
M  V30 46800 N 4525.94 -0.181737 1.56549 0
M  V30 46801 C 4526.88 -1.25359 1.90684 0
M  V30 46802 C 4527.85 -1.43297 0.768426 0
M  V30 46803 O 4529.04 -1.58472 1.02073 0
M  V30 46804 C 4526.16 -2.61819 2.14869 0
M  V30 46805 C 4525.21 -2.60676 3.37565 0
M  V30 46806 S 4526.04 -2.10787 4.92269 0
M  V30 46807 C 4527.2 -3.49044 5.19538 0
M  V30 46808 H 4527.43 -0.962178 2.813 0
M  V30 46809 H 4524.97 -0.385839 1.49501 0
M  V30 46810 H 4526.92 -3.40363 2.29485 0
M  V30 46811 H 4525.58 -2.88165 1.2498 0
M  V30 46812 H 4524.78 -3.61046 3.51656 0
M  V30 46813 H 4524.38 -1.90221 3.22012 0
M  V30 46814 H 4526.67 -4.44985 5.10877 0
M  V30 46815 H 4527.61 -3.39837 6.21222 0
M  V30 46816 H 4528.02 -3.44574 4.47134 0
M  V30 46817 N 4527.42 -1.51041 -0.44993 0
M  V30 46818 C 4528.65 -1.67154 -1.22777 0
M  V30 46819 C 4529.07 -0.363146 -1.84561 0
M  V30 46820 O 4528.43 0.675374 -1.68251 0
M  V30 46821 C 4528.48 -2.77993 -2.29679 0
M  V30 46822 O 4527.58 -2.40719 -3.34856 0
M  V30 46823 H 4526.92 -0.557759 -0.360279 0
M  V30 46824 H 4529.45 -1.97537 -0.532936 0
M  V30 46825 H 4529.46 -3.01703 -2.74662 0
M  V30 46826 H 4528.14 -3.72942 -1.84085 0
M  V30 46827 H 4526.71 -2.27534 -2.95437 0
M  V30 46828 N 4528.9 0.704544 -1.40975 0
M  V30 46829 C 4530.31 1.01402 -1.23247 0
M  V30 46830 C 4530.51 2.01169 -0.11547 0
M  V30 46831 O 4529.57 2.47023 0.52306 0
M  V30 46832 C 4530.88 1.54719 -2.57842 0
M  V30 46833 C 4532.43 1.66648 -2.64948 0
M  V30 46834 C 4532.91 2.23369 -3.99838 0
M  V30 46835 N 4534.4 2.30741 -4.01637 0
M  V30 46836 C 4535.13 2.75637 -5.02804 0
M  V30 46837 N 4534.63 3.20203 -6.14363 0
M  V30 46838 N 4536.42 2.7512 -4.90169 0
M  V30 46839 H 4528.57 0.0434538 -2.12356 0
M  V30 46840 H 4530.84 0.0818619 -0.944459 0
M  V30 46841 H 4530.54 0.888712 -3.40286 0
M  V30 46842 H 4530.42 2.53074 -2.79702 0
M  V30 46843 H 4532.8 2.3161 -1.82868 0
M  V30 46844 H 4532.88 0.668631 -2.46907 0
M  V30 46845 H 4532.53 1.59026 -4.82362 0
M  V30 46846 H 4532.46 3.2389 -4.15214 0
M  V30 46847 H 4534.95 1.9928 -3.21086 0
M  V30 46848 H 4535.26 3.5306 -6.87436 0
M  V30 46849 H 4533.61 3.18134 -6.17912 0
M  V30 46850 H 4536.8 2.39646 -4.02103 0
M  V30 46851 H 4536.97 3.09792 -5.69151 0
M  V30 46852 N 4530.38 1.26654 0.937895 0
M  V30 46853 C 4531.6 1.15179 1.71876 0
M  V30 46854 C 4532.02 -0.292602 1.86519 0
M  V30 46855 O 4531.38 -1.20009 1.37492 0
M  V30 46856 C 4531.43 1.81936 3.1238 0
M  V30 46857 O 4531.15 3.20731 2.98435 0
M  V30 46858 C 4532.65 1.76457 4.06667 0
M  V30 46859 H 4529.87 0.400929 0.538049 0
M  V30 46860 H 4532.41 1.67336 1.17554 0
M  V30 46861 H 4530.57 1.33709 3.63594 0
M  V30 46862 H 4530.98 3.53816 3.87188 0
M  V30 46863 H 4532.46 2.27799 5.02804 0
M  V30 46864 H 4532.93 0.73176 4.33061 0
M  V30 46865 H 4533.54 2.24251 3.61375 0
M  V30 46866 N 4531.85 -1.14294 1.08511 0
M  V30 46867 C 4532.8 -2.19412 0.716042 0
M  V30 46868 C 4533.77 -1.634 -0.298268 0
M  V30 46869 O 4534.96 -1.8993 -0.182034 0
M  V30 46870 C 4532.1 -3.44845 0.132655 0
M  V30 46871 C 4531.21 -4.15003 1.19987 0
M  V30 46872 C 4530.34 -5.28022 0.580233 0
M  V30 46873 C 4529.38 -5.90014 1.62941 0
M  V30 46874 N 4528.52 -6.94482 1.03149 0
M  V30 46875 H 4533.36 -2.5033 1.61675 0
M  V30 46876 H 4530.9 -1.22927 0.807925 0
M  V30 46877 H 4532.86 -4.16602 -0.223308 0
M  V30 46878 H 4531.49 -3.14406 -0.731356 0
M  V30 46879 H 4530.54 -3.41623 1.67325 0
M  V30 46880 H 4531.85 -4.57171 1.99489 0
M  V30 46881 H 4531 -6.06455 0.172577 0
M  V30 46882 H 4529.74 -4.87077 -0.246432 0
M  V30 46883 H 4528.75 -5.10284 2.04672 0
M  V30 46884 H 4529.97 -6.33033 2.45857 0
M  V30 46885 H 4527.92 -6.55611 0.225941 0
M  V30 46886 H 4527.84 -7.35142 1.76359 0
M  V30 46887 H 4529.1 -7.76787 0.649731 0
M  V30 46888 N 4533.33 -0.87093 -1.31349 0
M  V30 46889 C 4534.56 -0.496027 -2.01381 0
M  V30 46890 C 4534.98 0.904266 -1.64938 0
M  V30 46891 O 4534.34 1.59684 -0.858522 0
M  V30 46892 C 4534.39 -0.661558 -3.5448 0
M  V30 46893 O 4533.49 0.298706 -4.11317 0
M  V30 46894 H 4532.83 -0.19718 -0.634047 0
M  V30 46895 H 4535.36 -1.17461 -1.67523 0
M  V30 46896 H 4535.37 -0.555214 -4.04205 0
M  V30 46897 H 4534.05 -1.68259 -3.80344 0
M  V30 46898 H 4532.63 0.147237 -3.72609 0
M  V30 46899 N 4534.81 1.4444 -0.630465 0
M  V30 46900 C 4536.06 2.01652 -0.134422 0
M  V30 46901 C 4536.38 1.49841 1.24791 0
M  V30 46902 O 4535.65 0.701748 1.829 0
M  V30 46903 H 4534.23 0.745539 -0.0467031 0
M  V30 46904 H 4536.89 1.76949 -0.817017 0
M  V30 46905 H 4535.99 3.11935 -0.101607 0
M  V30 46906 N 4536.29 0.370972 1.53172 0
M  V30 46907 C 4537.51 -0.22022 2.06228 0
M  V30 46908 C 4537.94 -1.41239 1.2423 0
M  V30 46909 O 4537.3 -1.79387 0.262708 0
M  V30 46910 C 4537.34 -0.586538 3.55798 0
M  V30 46911 O 4536.45 -1.68304 3.76494 0
M  V30 46912 H 4535.79 -0.0307866 0.663286 0
M  V30 46913 H 4538.32 0.533137 1.97532 0
M  V30 46914 H 4538.33 -0.85603 3.98919 0
M  V30 46915 H 4537 0.285159 4.14921 0
M  V30 46916 H 4535.58 -1.40869 3.45269 0
M  V30 46917 N 4537.77 -1.57281 0.100283 0
M  V30 46918 C 4538.71 -2.14308 -0.856782 0
M  V30 46919 C 4539.68 -1.063 -1.2763 0
M  V30 46920 O 4540.87 -1.34114 -1.35713 0
M  V30 46921 C 4538.01 -2.73191 -2.10857 0
M  V30 46922 C 4537.12 -3.95448 -1.73911 0
M  V30 46923 C 4536.26 -4.42479 -2.93915 0
M  V30 46924 C 4535.3 -5.57312 -2.53121 0
M  V30 46925 N 4534.43 -5.99171 -3.65976 0
M  V30 46926 H 4539.27 -2.95773 -0.363622 0
M  V30 46927 H 4536.81 -1.4614 -0.167807 0
M  V30 46928 H 4538.77 -3.05452 -2.84174 0
M  V30 46929 H 4537.4 -1.94446 -2.57664 0
M  V30 46930 H 4536.45 -3.69468 -0.905424 0
M  V30 46931 H 4537.76 -4.78774 -1.39918 0
M  V30 46932 H 4536.92 -4.7655 -3.75479 0
M  V30 46933 H 4535.65 -3.58064 -3.31122 0
M  V30 46934 H 4534.66 -5.22863 -1.69985 0
M  V30 46935 H 4535.88 -6.43479 -2.17052 0
M  V30 46936 H 4533.83 -5.17701 -4.02891 0
M  V30 46937 H 4533.75 -6.77306 -3.35845 0
M  V30 46938 H 4535.02 -6.37875 -4.48035 0
M  V30 46939 N 4539.25 0.173432 -1.56643 0
M  V30 46940 C 4540.47 0.910083 -1.86366 0
M  V30 46941 C 4540.9 1.7513 -0.68638 0
M  V30 46942 O 4540.25 1.77596 0.364581 0
M  V30 46943 C 4540.3 1.76436 -3.14488 0
M  V30 46944 O 4539.41 2.86573 -2.96563 0
M  V30 46945 H 4538.75 0.255065 -0.613056 0
M  V30 46946 H 4541.28 0.172211 -2.03874 0
M  V30 46947 H 4541.29 2.16471 -3.45838 0
M  V30 46948 H 4539.96 1.14644 -3.99787 0
M  V30 46949 H 4538.54 2.50136 -2.76561 0
M  V30 46950 N 4540.72 1.51278 0.441914 0
M  V30 46951 C 4541.95 1.67803 1.21889 0
M  V30 46952 C 4542.37 0.372929 1.84366 0
M  V30 46953 O 4541.73 -0.666441 1.68607 0
M  V30 46954 C 4541.78 2.79207 2.28201 0
M  V30 46955 O 4540.88 2.42491 3.33574 0
M  V30 46956 H 4540.22 0.559662 0.357316 0
M  V30 46957 H 4542.75 1.97817 0.522453 0
M  V30 46958 H 4542.76 3.03155 2.73058 0
M  V30 46959 H 4541.44 3.73913 1.82104 0
M  V30 46960 H 4540.02 2.29097 2.94226 0
M  V30 46961 N 4542.2 -0.697058 1.41347 0
M  V30 46962 C 4543.45 -1.45274 1.39923 0
M  V30 46963 C 4543.76 -1.95597 0.0110312 0
M  V30 46964 O 4544.97 -2.71208 -0.125823 0
M  V30 46965 C 4543.43 -2.62686 2.46016 0
M  V30 46966 C 4543.03 -2.19155 3.90736 0
M  V30 46967 C 4544.78 -3.40327 2.53727 0
M  V30 46968 C 4542.68 -3.33518 4.88385 0
M  V30 46969 H 4541.61 -0.545674 0.520342 0
M  V30 46970 H 4544.27 -0.756871 1.67164 0
M  V30 46971 H 4542.65 -3.34533 2.11904 0
M  V30 46972 H 4543.82 -1.54607 4.34089 0
M  V30 46973 H 4542.14 -1.54512 3.86672 0
M  V30 46974 H 4544.73 -4.25459 3.23865 0
M  V30 46975 H 4545.08 -3.85412 1.57363 0
M  V30 46976 H 4545.61 -2.75536 2.86923 0
M  V30 46977 H 4542.35 -2.93447 5.86148 0
M  V30 46978 H 4541.87 -3.9692 4.49682 0
M  V30 46979 H 4543.55 -3.99317 5.09073 0
M  V30 46980 N 4543.68 -1.2715 -0.931165 0
M  V30 46981 C 4544.92 -1.14517 -1.69308 0
M  V30 46982 C 4545.28 0.304572 -1.89569 0
M  V30 46983 O 4546.48 0.553251 -2.63045 0
M  V30 46984 C 4544.76 -1.90359 -3.02487 0
M  V30 46985 S 4546.31 -1.93898 -3.93636 0
M  V30 46986 H 4543.13 -0.408878 -0.58167 0
M  V30 46987 H 4545.73 -1.6101 -1.10887 0
M  V30 46988 H 4544.44 -2.94887 -2.85429 0
M  V30 46989 H 4543.97 -1.44346 -3.65961 0
M  V30 46990 H 4545.98 -1.0329 -4.8533 0
M  V30 46991 N 4545.16 1.13717 -1.09116 0
M  V30 46992 C 4546.07 2.22635 -0.739648 0
M  V30 46993 C 4547.08 1.72091 0.257007 0
M  V30 46994 O 4548.26 2.01156 0.0991447 0
M  V30 46995 C 4545.32 3.46321 -0.162031 0
M  V30 46996 C 4544.39 4.11771 -1.21423 0
M  V30 46997 C 4543.62 5.29552 -0.664078 0
M  V30 46998 O 4543.84 5.68079 0.514074 0
M  V30 46999 O 4542.78 5.84968 -1.41759 0
M  V30 47000 H 4546.6 2.55069 -1.64845 0
M  V30 47001 H 4544.19 1.21788 -0.865331 0
M  V30 47002 H 4546.07 4.21108 0.156925 0
M  V30 47003 H 4544.74 3.15595 0.719821 0
M  V30 47004 H 4543.65 3.38825 -1.58583 0
M  V30 47005 H 4544.98 4.4662 -2.06861 0
M  V30 47006 N 4546.64 0.877884 1.30885 0
M  V30 47007 C 4547.86 0.5067 2.01115 0
M  V30 47008 C 4548.29 -0.895506 1.65416 0
M  V30 47009 O 4547.64 -1.59227 0.866978 0
M  V30 47010 C 4547.69 0.680348 3.54124 0
M  V30 47011 O 4546.8 -0.276889 4.11469 0
M  V30 47012 H 4546.14 0.20054 0.632993 0
M  V30 47013 H 4548.67 1.18348 1.66898 0
M  V30 47014 H 4548.68 0.576642 4.03904 0
M  V30 47015 H 4547.35 1.70274 3.79446 0
M  V30 47016 H 4545.93 -0.127475 3.72682 0
M  V30 47017 N 4548.11 -1.44104 0.638116 0
M  V30 47018 C 4549.34 -2.0685 0.150988 0
M  V30 47019 C 4549.76 -1.47421 -1.16827 0
M  V30 47020 O 4549.12 -0.578325 -1.71829 0
M  V30 47021 C 4549.17 -3.60555 0.0572067 0
M  V30 47022 O 4548.27 -4.00468 -0.984832 0
M  V30 47023 H 4547.61 -0.658148 0.087963 0
M  V30 47024 H 4550.14 -1.84862 0.876772 0
M  V30 47025 H 4550.15 -4.07789 -0.131088 0
M  V30 47026 H 4548.83 -4.03189 1.02035 0
M  V30 47027 H 4547.41 -3.64852 -0.770544 0
M  V30 47028 N 4549.59 -0.37909 -1.52973 0
M  V30 47029 C 4550.82 0.20928 -2.06341 0
M  V30 47030 C 4551.24 1.40578 -1.24977 0
M  V30 47031 O 4550.6 1.79245 -0.272218 0
M  V30 47032 C 4550.65 0.567661 -3.56104 0
M  V30 47033 O 4549.75 1.66305 -3.77381 0
M  V30 47034 H 4549.09 0.0272686 -0.66344 0
M  V30 47035 H 4551.62 -0.543605 -1.97246 0
M  V30 47036 H 4551.63 0.834862 -3.99367 0
M  V30 47037 H 4550.31 -0.307159 -4.14764 0
M  V30 47038 H 4548.88 1.39036 -3.46011 0
M  V30 47039 N 4551.07 1.57225 -0.108623 0
M  V30 47040 C 4552 2.17781 0.842243 0
M  V30 47041 C 4552.98 1.11491 1.28467 0
M  V30 47042 O 4554.17 1.39685 1.34913 0
M  V30 47043 C 4551.3 2.76895 2.09634 0
M  V30 47044 C 4550.25 3.88676 1.79207 0
M  V30 47045 C 4549.58 4.34552 3.11559 0
M  V30 47046 C 4550.88 5.11255 1.06846 0
M  V30 47047 H 4552.57 2.9749 0.337669 0
M  V30 47048 H 4550.12 1.43097 0.160975 0
M  V30 47049 H 4552.07 3.17914 2.76602 0
M  V30 47050 H 4550.79 1.9446 2.62398 0
M  V30 47051 H 4549.45 3.48217 1.14632 0
M  V30 47052 H 4549.1 3.48989 3.62237 0
M  V30 47053 H 4548.8 5.09924 2.91978 0
M  V30 47054 H 4550.32 4.78214 3.79663 0
M  V30 47055 H 4551.74 5.49358 1.63949 0
M  V30 47056 H 4550.13 5.92143 0.97397 0
M  V30 47057 H 4551.2 4.84871 0.0534463 0
M  V30 47058 N 4552.55 -0.165123 1.56733 0
M  V30 47059 C 4553.8 -0.87908 1.81535 0
M  V30 47060 C 4554.11 -1.83142 0.686907 0
M  V30 47061 O 4555.32 -2.5882 0.820034 0
M  V30 47062 C 4553.77 -1.61376 3.21692 0
M  V30 47063 C 4553.38 -0.704748 4.42422 0
M  V30 47064 C 4555.12 -2.31558 3.55783 0
M  V30 47065 C 4553.03 -1.44002 5.736 0
M  V30 47066 H 4551.96 -0.332009 0.676968 0
M  V30 47067 H 4554.61 -0.131944 1.83025 0
M  V30 47068 H 4552.99 -2.40588 3.14537 0
M  V30 47069 H 4554.17 0.0508435 4.60772 0
M  V30 47070 H 4552.48 -0.112273 4.16249 0
M  V30 47071 H 4555.08 -2.87174 4.51038 0
M  V30 47072 H 4555.42 -3.07191 2.80961 0
M  V30 47073 H 4555.96 -1.59284 3.64518 0
M  V30 47074 H 4552.69 -0.725891 6.51468 0
M  V30 47075 H 4552.21 -2.16878 5.59217 0
M  V30 47076 H 4553.89 -1.98584 6.15771 0
M  V30 47077 N 4554.03 -1.5151 -0.433885 0
M  V30 47078 C 4555.25 -1.68447 -1.20997 0
M  V30 47079 C 4555.68 -0.382701 -1.84166 0
M  V30 47080 O 4555.03 0.65749 -1.68958 0
M  V30 47081 C 4555.08 -2.80413 -2.26717 0
M  V30 47082 O 4554.19 -2.44257 -3.32284 0
M  V30 47083 H 4553.53 -0.561549 -0.354343 0
M  V30 47084 H 4556.06 -1.98091 -0.511955 0
M  V30 47085 H 4556.07 -3.04599 -2.71447 0
M  V30 47086 H 4554.74 -3.74873 -1.80119 0
M  V30 47087 H 4553.32 -2.30655 -2.93007 0
M  V30 47088 N 4555.5 0.689552 -1.41714 0
M  V30 47089 C 4556.73 1.48324 -1.44964 0
M  V30 47090 C 4557.15 1.8801 -0.0581944 0
M  V30 47091 O 4556.51 1.55029 0.93998 0
M  V30 47092 C 4556.56 2.71827 -2.36944 0
M  V30 47093 O 4555.66 3.69542 -1.83063 0
M  V30 47094 H 4555.01 0.446182 -0.49175 0
M  V30 47095 H 4557.54 0.847062 -1.86242 0
M  V30 47096 H 4557.55 3.20067 -2.53024 0
M  V30 47097 H 4556.22 2.42279 -3.38044 0
M  V30 47098 H 4554.8 3.28504 -1.76464 0
M  V30 47099 N 4556.98 1.27642 0.924409 0
M  V30 47100 C 4557.95 1.10688 2.00701 0
M  V30 47101 C 4558.95 0.0498388 1.60723 0
M  V30 47102 O 4560.14 0.294714 1.71689 0
M  V30 47103 C 4557.27 0.687281 3.339 0
M  V30 47104 H 4558.46 2.06825 2.17172 0
M  V30 47105 H 4556.01 1.10477 1.10565 0
M  V30 47106 H 4556.75 -0.275326 3.23129 0
M  V30 47107 H 4556.53 1.45073 3.64275 0
M  V30 47108 H 4558.02 0.590998 4.13397 0
M  V30 47109 N 4558.46 -1.13137 1.09717 0
M  V30 47110 C 4559.69 -1.88318 0.856965 0
M  V30 47111 C 4560.1 -1.79278 -0.59201 0
M  V30 47112 O 4559.46 -1.16147 -1.4077 0
M  V30 47113 C 4559.51 -3.37807 1.28718 0
M  V30 47114 O 4559.23 -3.46617 2.67933 0
M  V30 47115 C 4560.73 -4.29948 1.07979 0
M  V30 47116 H 4557.95 -0.596083 0.3081 0
M  V30 47117 H 4560.5 -1.432 1.45993 0
M  V30 47118 H 4558.65 -3.80497 0.728046 0
M  V30 47119 H 4559.07 -4.39569 2.86146 0
M  V30 47120 H 4560.54 -5.33154 1.43005 0
M  V30 47121 H 4561.02 -4.39196 0.0178121 0
M  V30 47122 H 4561.62 -3.93031 1.62502 0
M  V30 47123 N 4559.94 -0.884812 -1.30418 0
M  V30 47124 C 4560.9 -0.356357 -2.26413 0
M  V30 47125 C 4561.9 0.501071 -1.52794 0
M  V30 47126 O 4563.09 0.308249 -1.71451 0
M  V30 47127 C 4560.22 0.492197 -3.37328 0
M  V30 47128 H 4561.42 -1.20398 -2.74671 0
M  V30 47129 H 4558.97 -0.661657 -1.41604 0
M  V30 47130 H 4559.7 1.36042 -2.94386 0
M  V30 47131 H 4559.49 -0.12197 -3.9191 0
M  V30 47132 H 4560.98 0.853727 -4.0878 0
M  V30 47133 N 4561.42 1.43763 -0.645749 0
M  V30 47134 C 4562.38 2.29164 0.0408682 0
M  V30 47135 C 4563.38 1.41816 0.757946 0
M  V30 47136 O 4564.57 1.63529 0.600324 0
M  V30 47137 C 4561.7 3.23719 1.06858 0
M  V30 47138 H 4562.89 2.91363 -0.710447 0
M  V30 47139 H 4560.45 1.50919 -0.4066 0
M  V30 47140 H 4561.18 2.66399 1.84938 0
M  V30 47141 H 4560.97 3.88107 0.558141 0
M  V30 47142 H 4562.46 3.87836 1.54831 0
M  V30 47143 N 4562.89 0.387197 1.5277 0
M  V30 47144 C 4563.86 -0.43686 2.24998 0
M  V30 47145 C 4564.86 -0.991947 1.26558 0
M  V30 47146 O 4566.05 -0.874282 1.50672 0
M  V30 47147 C 4563.18 -1.61271 3.00341 0
M  V30 47148 H 4564.37 0.19547 2.99262 0
M  V30 47149 H 4561.93 0.139273 1.55678 0
M  V30 47150 H 4562.66 -2.28252 2.30372 0
M  V30 47151 H 4562.45 -1.22141 3.72591 0
M  V30 47152 H 4563.94 -2.19617 3.55188 0
M  V30 47153 N 4564.37 -1.57165 0.116959 0
M  V30 47154 C 4565.3 -2.18224 -0.830682 0
M  V30 47155 C 4566.28 -1.12171 -1.27873 0
M  V30 47156 O 4567.47 -1.40399 -1.34171 0
M  V30 47157 C 4564.6 -2.78003 -2.08163 0
M  V30 47158 C 4563.55 -3.89621 -1.77143 0
M  V30 47159 C 4562.88 -4.36198 -3.0925 0
M  V30 47160 C 4564.18 -5.11814 -1.04133 0
M  V30 47161 H 4565.87 -2.97665 -0.321888 0
M  V30 47162 H 4563.42 -1.43181 -0.153384 0
M  V30 47163 H 4565.37 -3.19376 -2.74912 0
M  V30 47164 H 4564.1 -1.95849 -2.61363 0
M  V30 47165 H 4562.75 -3.4882 -1.12783 0
M  V30 47166 H 4562.4 -3.50905 -3.60381 0
M  V30 47167 H 4562.1 -5.11465 -2.8927 0
M  V30 47168 H 4563.63 -4.8022 -3.77122 0
M  V30 47169 H 4565.04 -5.50219 -1.61033 0
M  V30 47170 H 4563.44 -5.92652 -0.942553 0
M  V30 47171 H 4564.51 -4.84892 -0.0277317 0
M  V30 47172 N 4565.85 0.156809 -1.56818 0
M  V30 47173 C 4566.78 1.19582 -2.00555 0
M  V30 47174 C 4567.76 1.45357 -0.883477 0
M  V30 47175 O 4568.95 1.56445 -1.1506 0
M  V30 47176 C 4566.08 2.53135 -2.37782 0
M  V30 47177 C 4565.03 2.41901 -3.53083 0
M  V30 47178 C 4564.36 3.80075 -3.76094 0
M  V30 47179 C 4565.66 1.9114 -4.86069 0
M  V30 47180 H 4567.35 0.832192 -2.87602 0
M  V30 47181 H 4564.9 0.398869 -1.38366 0
M  V30 47182 H 4566.85 3.26038 -2.66978 0
M  V30 47183 H 4565.57 2.91314 -1.4766 0
M  V30 47184 H 4564.23 1.71451 -3.24037 0
M  V30 47185 H 4563.88 4.15673 -2.8324 0
M  V30 47186 H 4563.58 3.73423 -4.53684 0
M  V30 47187 H 4565.1 4.54542 -4.07706 0
M  V30 47188 H 4566.52 2.53828 -5.14047 0
M  V30 47189 H 4564.92 1.95402 -5.67396 0
M  V30 47190 H 4565.99 0.866506 -4.77095 0
M  V30 47191 N 4567.33 1.51738 0.425844 0
M  V30 47192 C 4568.55 1.69086 1.20102 0
M  V30 47193 C 4568.98 0.392462 1.8396 0
M  V30 47194 O 4568.34 -0.648521 1.69304 0
M  V30 47195 C 4568.38 2.81612 2.25227 0
M  V30 47196 O 4567.49 2.46015 3.30984 0
M  V30 47197 H 4566.83 0.56342 0.35136 0
M  V30 47198 H 4569.36 1.9836 0.501442 0
M  V30 47199 H 4569.37 3.06034 2.69828 0
M  V30 47200 H 4568.04 3.75823 1.78128 0
M  V30 47201 H 4566.62 2.32205 2.91779 0
M  V30 47202 N 4568.81 -0.682027 1.42078 0
M  V30 47203 C 4570.03 -1.47553 1.45749 0
M  V30 47204 C 4570.46 -1.87976 0.0681642 0
M  V30 47205 O 4569.82 -1.55526 -0.931746 0
M  V30 47206 C 4569.86 -2.70566 2.38382 0
M  V30 47207 O 4568.97 -3.68566 1.8502 0
M  V30 47208 H 4568.31 -0.443568 0.494109 0
M  V30 47209 H 4570.84 -0.837173 1.86688 0
M  V30 47210 H 4570.85 -3.18721 2.54718 0
M  V30 47211 H 4569.52 -2.40483 3.39324 0
M  V30 47212 H 4568.1 -3.27564 1.78204 0
M  V30 47213 N 4570.29 -1.2813 -0.917626 0
M  V30 47214 C 4571.53 -1.14831 -1.66308 0
M  V30 47215 C 4571.85 0.304311 -1.92611 0
M  V30 47216 O 4571.12 1.21143 -1.53952 0
M  V30 47217 H 4569.7 -0.421974 -0.616398 0
M  V30 47218 H 4572.37 -1.60804 -1.10128 0
M  V30 47219 H 4571.46 -1.68499 -2.62706 0
M  V30 47220 N 4571.76 1.12553 -1.10316 0
M  V30 47221 C 4572.73 2.16432 -0.754316 0
M  V30 47222 C 4573.73 1.59279 0.220629 0
M  V30 47223 O 4574.92 1.742 -0.00236715 0
M  V30 47224 C 4572.05 3.40699 -0.117106 0
M  V30 47225 H 4573.24 2.48805 -1.6744 0
M  V30 47226 H 4570.79 1.27539 -0.90352 0
M  V30 47227 H 4571.53 3.13924 0.813767 0
M  V30 47228 H 4571.31 3.83457 -0.818747 0
M  V30 47229 H 4572.8 4.17452 0.11124 0
M  V30 47230 N 4573.24 0.891716 1.29947 0
M  V30 47231 C 4574.49 0.51433 1.9617 0
M  V30 47232 C 4574.82 -0.935446 1.70185 0
M  V30 47233 O 4574.1 -1.662 1.01034 0
M  V30 47234 C 4574.38 0.797842 3.5115 0
M  V30 47235 C 4574.23 2.29874 3.86624 0
M  V30 47236 C 4575.55 0.278903 4.39215 0
M  V30 47237 H 4572.67 0.188339 0.712529 0
M  V30 47238 H 4575.31 1.11694 1.53702 0
M  V30 47239 H 4573.46 0.284962 3.87454 0
M  V30 47240 H 4575.13 2.88054 3.60309 0
M  V30 47241 H 4573.38 2.76269 3.34452 0
M  V30 47242 H 4574.05 2.4477 4.94764 0
M  V30 47243 H 4576.52 0.717969 4.09859 0
M  V30 47244 H 4575.4 0.506545 5.46558 0
M  V30 47245 H 4575.66 -0.820113 4.34427 0
M  V30 47246 N 4574.72 -1.43419 0.653364 0
M  V30 47247 C 4576 -1.95361 0.0967268 0
M  V30 47248 C 4576.38 -1.59465 -1.38326 0
M  V30 47249 O 4575.72 -0.879852 -2.10881 0
M  V30 47250 C 4575.93 -3.47309 0.34311 0
M  V30 47251 C 4577.28 -4.23874 0.248129 0
M  V30 47252 O 4578.31 -3.55132 0.275678 0
M  V30 47253 O 4577.17 -5.46229 0.171963 0
M  V30 47254 H 4574.26 -0.826945 -0.00953384 0
M  V30 47255 H 4576.81 -1.53357 0.726612 0
M  V30 47256 H 4575.58 -3.66564 1.36918 0
M  V30 47257 H 4575.2 -3.96312 -0.319835 0
M  V30 47258 N 4576.2 -0.395293 -1.52562 0
M  V30 47259 C 4577.43 0.184603 -2.05774 0
M  V30 47260 C 4577.84 1.40567 -1.2664 0
M  V30 47261 O 4577.18 1.81104 -0.307753 0
M  V30 47262 C 4577.24 0.613426 -3.54228 0
M  V30 47263 C 4576.9 -0.494999 -4.54311 0
M  V30 47264 C 4577.9 -1.35428 -5.01952 0
M  V30 47265 C 4575.59 -0.66374 -4.97895 0
M  V30 47266 C 4577.58 -2.36737 -5.91806 0
M  V30 47267 C 4575.27 -1.68016 -5.87549 0
M  V30 47268 C 4576.27 -2.53039 -6.34397 0
M  V30 47269 O 4575.95 -3.52943 -7.22279 0
M  V30 47270 H 4575.69 0.0300533 -0.675332 0
M  V30 47271 H 4578.24 -0.560777 -1.97597 0
M  V30 47272 H 4576.47 1.41088 -3.60043 0
M  V30 47273 H 4578.16 1.11967 -3.90152 0
M  V30 47274 H 4578.92 -1.23525 -4.69006 0
M  V30 47275 H 4574.8 -0.0116534 -4.60999 0
M  V30 47276 H 4578.35 -3.03135 -6.28295 0
M  V30 47277 H 4574.24 -1.79955 -6.19908 0
M  V30 47278 H 4575.01 -3.49022 -7.40355 0
M  V30 47279 N 4577.68 1.57101 -0.125292 0
M  V30 47280 C 4578.92 1.97296 0.53419 0
M  V30 47281 C 4579.28 1.00745 1.63445 0
M  V30 47282 O 4580.48 1.29902 2.35327 0
M  V30 47283 C 4578.75 3.41709 1.04736 0
M  V30 47284 S 4580.31 4.03919 1.71449 0
M  V30 47285 H 4577.13 0.689523 0.173434 0
M  V30 47286 H 4579.73 1.94349 -0.211865 0
M  V30 47287 H 4578.43 4.09724 0.235505 0
M  V30 47288 H 4577.97 3.48321 1.82855 0
M  V30 47289 H 4579.98 3.95192 3.00063 0
M  V30 47290 N 4579.15 -0.14849 1.56899 0
M  V30 47291 C 4580.08 -1.18517 2.01186 0
M  V30 47292 C 4581.06 -1.44887 0.891174 0
M  V30 47293 O 4582.25 -1.55832 1.15888 0
M  V30 47294 C 4579.38 -2.5187 2.39121 0
M  V30 47295 C 4578.33 -2.40025 3.54361 0
M  V30 47296 C 4577.66 -3.78075 3.78105 0
M  V30 47297 C 4578.96 -1.8856 4.87075 0
M  V30 47298 H 4580.65 -0.816928 2.88039 0
M  V30 47299 H 4578.2 -0.391526 1.38575 0
M  V30 47300 H 4580.15 -3.24617 2.68703 0
M  V30 47301 H 4578.88 -2.90527 1.49203 0
M  V30 47302 H 4577.54 -1.6973 3.24942 0
M  V30 47303 H 4577.18 -4.14165 2.8544 0
M  V30 47304 H 4576.88 -3.71012 4.55658 0
M  V30 47305 H 4578.41 -4.52373 4.10111 0
M  V30 47306 H 4579.82 -2.51099 5.15386 0
M  V30 47307 H 4578.22 -1.9239 5.68424 0
M  V30 47308 H 4579.29 -0.841192 4.77548 0
M  V30 47309 N 4580.63 -1.51961 -0.417791 0
M  V30 47310 C 4581.58 -1.71065 -1.50734 0
M  V30 47311 C 4582.57 -0.56454 -1.50671 0
M  V30 47312 O 4583.76 -0.821261 -1.56794 0
M  V30 47313 C 4580.89 -1.85687 -2.88748 0
M  V30 47314 C 4579.97 -3.06143 -2.93492 0
M  V30 47315 N 4580.36 -4.28997 -2.67946 0
M  V30 47316 C 4578.66 -3.05799 -3.24658 0
M  V30 47317 C 4579.36 -5.10405 -2.79037 0
M  V30 47318 N 4578.34 -4.45466 -3.11546 0
M  V30 47319 H 4582.14 -2.63701 -1.29766 0
M  V30 47320 H 4579.65 -1.49876 -0.625383 0
M  V30 47321 H 4581.65 -1.97488 -3.67157 0
M  V30 47322 H 4580.31 -0.942458 -3.10721 0
M  V30 47323 H 4581.32 -4.57616 -2.42504 0
M  V30 47324 H 4578 -2.24062 -3.52282 0
M  V30 47325 H 4579.39 -6.18257 -2.63075 0
M  V30 47326 N 4582.11 0.674483 -1.42438 0
M  V30 47327 C 4583.36 1.43666 -1.43136 0
M  V30 47328 C 4583.69 1.94141 -0.0476703 0
M  V30 47329 O 4582.96 1.70927 0.928128 0
M  V30 47330 C 4583.25 2.63346 -2.45603 0
M  V30 47331 C 4583.1 2.18501 -3.93164 0
M  V30 47332 C 4584.42 3.65562 -2.45055 0
M  V30 47333 H 4581.54 0.521059 -0.521217 0
M  V30 47334 H 4584.18 0.76649 -1.73853 0
M  V30 47335 H 4582.33 3.20522 -2.1954 0
M  V30 47336 H 4584 1.66489 -4.30208 0
M  V30 47337 H 4582.24 1.50071 -4.07015 0
M  V30 47338 H 4582.92 3.04467 -4.60439 0
M  V30 47339 H 4585.39 3.18103 -2.68234 0
M  V30 47340 H 4584.27 4.46882 -3.18729 0
M  V30 47341 H 4584.53 4.16711 -1.47664 0
M  V30 47342 N 4583.59 1.28615 0.910818 0
M  V30 47343 C 4584.52 1.15333 2.03028 0
M  V30 47344 C 4585.5 0.0503521 1.70025 0
M  V30 47345 O 4586.68 0.227864 1.92859 0
M  V30 47346 C 4583.81 0.817462 3.37542 0
M  V30 47347 C 4582.77 1.87554 3.84718 0
M  V30 47348 C 4582.09 1.39323 5.1623 0
M  V30 47349 C 4583.39 3.28258 4.06256 0
M  V30 47350 H 4585.09 2.08982 2.14399 0
M  V30 47351 H 4582.63 1.00616 1.03017 0
M  V30 47352 H 4584.59 0.711297 4.15353 0
M  V30 47353 H 4583.31 -0.154731 3.26233 0
M  V30 47354 H 4581.97 1.9709 3.09114 0
M  V30 47355 H 4581.62 0.410022 5.01326 0
M  V30 47356 H 4581.32 2.10076 5.48764 0
M  V30 47357 H 4582.84 1.30035 5.96593 0
M  V30 47358 H 4584.26 3.21627 4.74583 0
M  V30 47359 H 4582.65 3.96871 4.50126 0
M  V30 47360 H 4583.72 3.72059 3.10966 0
M  V30 47361 N 4585.07 -1.11967 1.10911 0
M  V30 47362 C 4586.01 -2.17843 0.762421 0
M  V30 47363 C 4586.98 -1.63996 -0.263542 0
M  V30 47364 O 4588.17 -1.90273 -0.141706 0
M  V30 47365 C 4585.31 -3.44486 0.205772 0
M  V30 47366 C 4584.42 -4.12364 1.28763 0
M  V30 47367 C 4583.56 -5.26672 0.692104 0
M  V30 47368 C 4582.6 -5.86425 1.7542 0
M  V30 47369 N 4581.73 -6.92137 1.17857 0
M  V30 47370 H 4586.57 -2.46845 1.66948 0
M  V30 47371 H 4584.11 -1.21185 0.833818 0
M  V30 47372 H 4586.07 -4.16982 -0.13489 0
M  V30 47373 H 4584.7 -3.15886 -0.664502 0
M  V30 47374 H 4583.75 -3.37997 1.74534 0
M  V30 47375 H 4585.06 -4.52837 2.09141 0
M  V30 47376 H 4584.22 -6.05952 0.301176 0
M  V30 47377 H 4582.95 -4.8749 -0.14306 0
M  V30 47378 H 4581.96 -5.05828 2.1545 0
M  V30 47379 H 4583.18 -6.27676 2.5923 0
M  V30 47380 H 4581.13 -6.54984 0.364955 0
M  V30 47381 H 4581.05 -7.31235 1.91913 0
M  V30 47382 H 4582.32 -7.75235 0.814353 0
M  V30 47383 N 4586.54 -0.898595 -1.29472 0
M  V30 47384 C 4587.77 -0.538632 -2.00284 0
M  V30 47385 C 4588.19 0.869076 -1.66819 0
M  V30 47386 O 4587.55 1.57827 -0.8922 0
M  V30 47387 C 4587.6 -0.7366 -3.52997 0
M  V30 47388 O 4586.7 0.211392 -4.11858 0
M  V30 47389 H 4586.05 -0.210585 -0.629722 0
M  V30 47390 H 4588.58 -1.20988 -1.64994 0
M  V30 47391 H 4588.59 -0.640827 -4.02936 0
M  V30 47392 H 4587.26 -1.76289 -3.76689 0
M  V30 47393 H 4585.84 0.0681681 -3.72838 0
M  V30 47394 N 4588.02 1.4307 -0.660961 0
M  V30 47395 C 4588.95 2.33497 0.0122008 0
M  V30 47396 C 4589.93 1.49906 0.803872 0
M  V30 47397 O 4591.12 1.78549 0.763801 0
M  V30 47398 C 4588.25 3.33366 0.973877 0
M  V30 47399 C 4587.2 4.27004 0.291777 0
M  V30 47400 C 4586.53 5.16972 1.36544 0
M  V30 47401 C 4587.83 5.15813 -0.820643 0
M  V30 47402 H 4589.52 2.90035 -0.742975 0
M  V30 47403 H 4587.07 1.3946 -0.358737 0
M  V30 47404 H 4589.02 3.95529 1.45378 0
M  V30 47405 H 4587.75 2.75101 1.76031 0
M  V30 47406 H 4586.4 3.66216 -0.167752 0
M  V30 47407 H 4586.05 4.55042 2.1435 0
M  V30 47408 H 4585.75 5.80444 0.91425 0
M  V30 47409 H 4587.28 5.82009 1.84655 0
M  V30 47410 H 4588.69 5.71741 -0.422567 0
M  V30 47411 H 4587.09 5.88045 -1.19677 0
M  V30 47412 H 4588.16 4.55039 -1.67534 0
M  V30 47413 N 4589.5 0.403378 1.5235 0
M  V30 47414 C 4590.43 -0.416125 2.29762 0
M  V30 47415 C 4591.41 -1.05118 1.33732 0
M  V30 47416 O 4592.6 -1.06129 1.62636 0
M  V30 47417 C 4589.73 -1.53613 3.11481 0
M  V30 47418 C 4588.68 -1.02638 4.15511 0
M  V30 47419 C 4588.01 -2.23954 4.85539 0
M  V30 47420 C 4589.31 -0.0844464 5.22232 0
M  V30 47421 H 4591 0.229806 2.98517 0
M  V30 47422 H 4588.55 0.111964 1.43564 0
M  V30 47423 H 4590.5 -2.11637 3.644 0
M  V30 47424 H 4589.22 -2.20986 2.40485 0
M  V30 47425 H 4587.88 -0.468582 3.63593 0
M  V30 47426 H 4587.53 -2.89869 4.11078 0
M  V30 47427 H 4587.23 -1.90502 5.55862 0
M  V30 47428 H 4588.75 -2.82595 5.41269 0
M  V30 47429 H 4590.17 -0.573308 5.70426 0
M  V30 47430 H 4588.57 0.160994 5.99884 0
M  V30 47431 H 4589.64 0.862537 4.77167 0
M  V30 47432 N 4590.98 -1.57033 0.133622 0
M  V30 47433 C 4591.89 -2.19635 -0.824487 0
M  V30 47434 C 4592.9 -1.17671 -1.28178 0
M  V30 47435 O 4594.08 -1.50197 -1.34174 0
M  V30 47436 C 4591.15 -2.79506 -2.05127 0
M  V30 47437 C 4590.21 -3.96554 -1.6445 0
M  V30 47438 C 4589.44 -4.5356 -2.81281 0
M  V30 47439 O 4589.66 -4.09452 -3.97122 0
M  V30 47440 O 4588.6 -5.44027 -2.57523 0
M  V30 47441 H 4592.42 -3.01992 -0.321659 0
M  V30 47442 H 4590.01 -1.49112 -0.0927365 0
M  V30 47443 H 4591.89 -3.17612 -2.76949 0
M  V30 47444 H 4590.56 -2.00171 -2.54388 0
M  V30 47445 H 4589.47 -3.63189 -0.89692 0
M  V30 47446 H 4590.8 -4.77368 -1.19917 0
M  V30 47447 N 4592.46 0.140167 -1.56975 0
M  V30 47448 C 4593.69 0.865115 -1.87615 0
M  V30 47449 C 4594.09 1.7494 -0.720611 0
M  V30 47450 O 4593.44 1.80918 0.318498 0
M  V30 47451 C 4593.5 1.76771 -3.13037 0
M  V30 47452 C 4593.16 1.0599 -4.44539 0
M  V30 47453 C 4594.16 0.410585 -5.18276 0
M  V30 47454 C 4591.85 1.04737 -4.91259 0
M  V30 47455 C 4593.84 -0.241796 -6.36941 0
M  V30 47456 C 4591.53 0.39118 -6.09847 0
M  V30 47457 C 4592.52 -0.252269 -6.82534 0
M  V30 47458 O 4592.21 -0.898038 -7.98868 0
M  V30 47459 H 4591.94 0.255166 -0.625992 0
M  V30 47460 H 4594.5 0.135581 -2.04952 0
M  V30 47461 H 4592.73 2.53836 -2.91727 0
M  V30 47462 H 4594.42 2.36521 -3.29868 0
M  V30 47463 H 4595.18 0.412025 -4.83247 0
M  V30 47464 H 4591.06 1.53762 -4.34601 0
M  V30 47465 H 4594.61 -0.744618 -6.93615 0
M  V30 47466 H 4590.5 0.38743 -6.44336 0
M  V30 47467 H 4591.27 -0.800389 -8.14577 0
M  V30 47468 N 4593.93 1.52181 0.409726 0
M  V30 47469 C 4595.18 1.67413 1.15519 0
M  V30 47470 C 4595.54 0.398812 1.88221 0
M  V30 47471 O 4594.83 -0.606716 1.8174 0
M  V30 47472 C 4595.02 2.83435 2.17713 0
M  V30 47473 C 4594.85 4.22127 1.55046 0
M  V30 47474 C 4593.62 4.87661 1.32343 0
M  V30 47475 C 4595.82 5.04252 1.01167 0
M  V30 47476 N 4593.8 6.10389 0.65562 0
M  V30 47477 C 4595.17 6.1821 0.470746 0
M  V30 47478 C 4597.23 4.89586 0.906079 0
M  V30 47479 C 4595.93 7.1911 -0.165425 0
M  V30 47480 C 4597.96 5.90719 0.283762 0
M  V30 47481 C 4597.32 7.03969 -0.24649 0
M  V30 47482 H 4593.42 0.666265 0.409408 0
M  V30 47483 H 4596 1.89484 0.447663 0
M  V30 47484 H 4594.17 2.6298 2.85825 0
M  V30 47485 H 4595.9 2.87707 2.84617 0
M  V30 47486 H 4592.66 4.46013 1.59278 0
M  V30 47487 H 4593.08 6.76154 0.338358 0
M  V30 47488 H 4597.73 4.02258 1.30186 0
M  V30 47489 H 4595.44 8.06064 -0.57327 0
M  V30 47490 H 4599.03 5.81444 0.203588 0
M  V30 47491 H 4597.91 7.80884 -0.720447 0
M  V30 47492 N 4595.41 -0.666919 1.42793 0
M  V30 47493 C 4596.36 -1.78025 1.46887 0
M  V30 47494 C 4597.33 -1.62989 0.319977 0
M  V30 47495 O 4598.51 -1.8343 0.525183 0
M  V30 47496 C 4595.65 -3.16105 1.38462 0
M  V30 47497 C 4594.77 -3.42372 2.63449 0
M  V30 47498 C 4593.9 -4.70223 2.47111 0
M  V30 47499 C 4592.94 -4.89551 3.67432 0
M  V30 47500 N 4592.08 -6.08648 3.49988 0
M  V30 47501 H 4596.92 -1.73862 2.42025 0
M  V30 47502 H 4594.46 -0.848638 1.20152 0
M  V30 47503 H 4596.41 -3.95909 1.31575 0
M  V30 47504 H 4595.04 -3.19373 0.469145 0
M  V30 47505 H 4594.1 -2.56764 2.80671 0
M  V30 47506 H 4595.41 -3.52544 3.52865 0
M  V30 47507 H 4594.56 -5.58131 2.37853 0
M  V30 47508 H 4593.3 -4.62348 1.55197 0
M  V30 47509 H 4592.31 -4.00082 3.77113 0
M  V30 47510 H 4593.53 -4.99266 4.60337 0
M  V30 47511 H 4591.48 -6.01931 2.60797 0
M  V30 47512 H 4591.39 -6.19718 4.32997 0
M  V30 47513 H 4592.66 -6.99214 3.44557 0
M  V30 47514 N 4596.89 -1.29096 -0.903985 0
M  V30 47515 C 4598.12 -1.19815 -1.6929 0
M  V30 47516 C 4598.54 0.238415 -1.86583 0
M  V30 47517 O 4597.9 1.17225 -1.38304 0
M  V30 47518 C 4597.95 -1.91212 -3.05729 0
M  V30 47519 O 4597.05 -1.22624 -3.93747 0
M  V30 47520 H 4596.39 -0.415403 -0.518012 0
M  V30 47521 H 4598.92 -1.7059 -1.12961 0
M  V30 47522 H 4598.93 -1.995 -3.55899 0
M  V30 47523 H 4597.61 -2.95702 -2.92461 0
M  V30 47524 H 4596.18 -1.22566 -3.52182 0
M  V30 47525 N 4598.37 1.11377 -1.11503 0
M  V30 47526 C 4599.3 2.17204 -0.731781 0
M  V30 47527 C 4600.31 1.61067 0.2369 0
M  V30 47528 O 4601.5 1.78489 0.0196964 0
M  V30 47529 C 4598.6 3.38845 -0.0608815 0
M  V30 47530 C 4597.78 4.24448 -1.05655 0
M  V30 47531 C 4596.84 5.2456 -0.415084 0
M  V30 47532 O 4595.86 5.59068 -1.0692 0
M  V30 47533 N 4597.06 5.74654 0.821741 0
M  V30 47534 H 4599.83 2.50694 -1.64234 0
M  V30 47535 H 4597.39 1.26904 -1.00533 0
M  V30 47536 H 4599.38 4.02912 0.379997 0
M  V30 47537 H 4597.95 3.03413 0.752269 0
M  V30 47538 H 4597.17 3.56827 -1.67536 0
M  V30 47539 H 4598.46 4.7848 -1.73015 0
M  V30 47540 H 4597.86 5.48802 1.37233 0
M  V30 47541 H 4596.41 6.40553 1.20559 0
M  V30 47542 N 4599.85 0.905449 1.28994 0
M  V30 47543 C 4600.78 0.344828 2.26591 0
M  V30 47544 C 4601.79 -0.512081 1.54537 0
M  V30 47545 O 4602.98 -0.328306 1.75455 0
M  V30 47546 C 4600.08 -0.52647 3.34786 0
M  V30 47547 C 4599.25 0.306025 4.36328 0
M  V30 47548 C 4598.31 -0.499025 5.23828 0
M  V30 47549 O 4597.34 0.0855005 5.69136 0
M  V30 47550 N 4598.54 -1.80388 5.51761 0
M  V30 47551 H 4601.31 1.18369 2.75334 0
M  V30 47552 H 4598.87 0.770531 1.42388 0
M  V30 47553 H 4600.86 -1.07157 3.90256 0
M  V30 47554 H 4599.43 -1.26603 2.85815 0
M  V30 47555 H 4598.65 1.03253 3.80437 0
M  V30 47556 H 4599.94 0.875949 5.01203 0
M  V30 47557 H 4599.34 -2.30142 5.1677 0
M  V30 47558 H 4597.89 -2.29599 6.10023 0
M  V30 47559 N 4601.33 -1.42718 0.668539 0
M  V30 47560 C 4602.27 -2.32586 -0.0254039 0
M  V30 47561 C 4603.27 -1.49473 -0.797124 0
M  V30 47562 O 4604.47 -1.65585 -0.705794 0
M  V30 47563 H 4600.85 -0.751515 -0.0270075 0
M  V30 47564 H 4602.82 -2.8882 0.750038 0
M  V30 47565 C 4601.57 -3.33974 -0.967309 0
M  V30 47566 H 4600.89 -3.97962 -0.382908 0
M  V30 47567 H 4602.33 -3.99455 -1.42167 0
M  V30 47568 C 4600.79 -2.65751 -2.0707 0
M  V30 47569 O 4601.32 -2.48465 -3.15639 0
M  V30 47570 N 4599.53 -2.24877 -1.84062 0
M  V30 47571 H 4599.07 -2.39136 -0.957696 0
M  V30 47572 H 4599.03 -1.79561 -2.5808 0
M  V30 47573 N 4602.8 -0.411452 -1.52134 0
M  V30 47574 C 4604.08 0.22224 -1.94333 0
M  V30 47575 C 4604.46 1.62416 -1.3485 0
M  V30 47576 O 4603.81 2.22382 -0.525223 0
M  V30 47577 C 4604.02 0.226222 -3.48266 0
M  V30 47578 C 4605.37 0.444444 -4.22268 0
M  V30 47579 O 4606.39 0.305478 -3.54888 0
M  V30 47580 O 4605.25 0.718559 -5.41755 0
M  V30 47581 H 4602.34 0.143878 -0.814388 0
M  V30 47582 H 4604.89 -0.467564 -1.63132 0
M  V30 47583 H 4603.66 -0.754885 -3.83949 0
M  V30 47584 H 4603.28 0.960028 -3.85836 0
M  V30 47585 N 4604.28 1.56959 -0.141948 0
M  V30 47586 C 4605.19 2.20069 0.812827 0
M  V30 47587 C 4606.21 1.18349 1.27552 0
M  V30 47588 O 4607.38 1.50907 1.33376 0
M  V30 47589 C 4604.45 2.8059 2.03642 0
M  V30 47590 C 4603.51 3.9742 1.62345 0
M  V30 47591 C 4602.74 4.55046 2.78871 0
M  V30 47592 O 4602.97 4.11552 3.94945 0
M  V30 47593 O 4601.9 5.45385 2.54634 0
M  V30 47594 H 4605.73 3.02158 0.30564 0
M  V30 47595 H 4603.31 1.49159 0.0848274 0
M  V30 47596 H 4605.19 3.19076 2.75261 0
M  V30 47597 H 4603.87 2.01517 2.53323 0
M  V30 47598 H 4602.77 3.63659 0.877647 0
M  V30 47599 H 4604.11 4.77998 1.17384 0
M  V30 47600 N 4605.76 -0.13184 1.57048 0
M  V30 47601 C 4606.67 -1.18143 2.02681 0
M  V30 47602 C 4607.69 -1.4611 0.944875 0
M  V30 47603 O 4608.86 -1.5748 1.25546 0
M  V30 47604 C 4605.93 -2.4913 2.41112 0
M  V30 47605 C 4604.99 -2.28675 3.63326 0
M  V30 47606 C 4604.22 -3.53417 3.99915 0
M  V30 47607 O 4604.44 -4.60211 3.36989 0
M  V30 47608 O 4603.38 -3.4518 4.93086 0
M  V30 47609 H 4607.2 -0.823966 2.92309 0
M  V30 47610 H 4604.79 -0.341694 1.4544 0
M  V30 47611 H 4606.67 -3.26329 2.66623 0
M  V30 47612 H 4605.35 -2.84377 1.54634 0
M  V30 47613 H 4604.25 -1.49378 3.42983 0
M  V30 47614 H 4605.59 -1.98339 4.50469 0
M  V30 47615 N 4607.24 -1.52396 -0.40165 0
M  V30 47616 C 4608.65 -1.58903 -0.980146 0
M  V30 47617 C 4609 -0.434099 -1.91337 0
M  V30 47618 O 4608.12 0.444545 -2.11785 0
M  V30 47619 C 4608.72 -2.88 -1.78441 0
M  V30 47620 C 4607.28 -2.96961 -2.31281 0
M  V30 47621 C 4606.43 -2.53907 -1.11474 0
M  V30 47622 H 4609.38 -1.57657 -0.181625 0
M  V30 47623 H 4609.4 -2.73774 -2.6425 0
M  V30 47624 H 4608.91 -3.72039 -1.10493 0
M  V30 47625 H 4607.01 -2.17433 -3.02579 0
M  V30 47626 H 4607.12 -4.01353 -2.61635 0
M  V30 47627 H 4605.49 -2.0793 -1.47096 0
M  V30 47628 H 4606.27 -3.40327 -0.450809 0
M  V30 47629 N 4608.72 0.659337 -1.43145 0
M  V30 47630 C 4609.96 1.4214 -1.44652 0
M  V30 47631 C 4610.29 1.9408 -0.0682589 0
M  V30 47632 O 4609.57 1.71902 0.909947 0
M  V30 47633 C 4609.85 2.60726 -2.48382 0
M  V30 47634 C 4609.71 2.14318 -3.95459 0
M  V30 47635 C 4611.02 3.62943 -2.48919 0
M  V30 47636 H 4608.14 0.515501 -0.526714 0
M  V30 47637 H 4610.79 0.748007 -1.74656 0
M  V30 47638 H 4608.94 3.18176 -2.22927 0
M  V30 47639 H 4610.61 1.61917 -4.3195 0
M  V30 47640 H 4608.85 1.45746 -4.08584 0
M  V30 47641 H 4609.52 2.99567 -4.63642 0
M  V30 47642 H 4612 3.15241 -2.71593 0
M  V30 47643 H 4610.87 4.43476 -3.23451 0
M  V30 47644 H 4611.13 4.15121 -1.52075 0
M  V30 47645 N 4610.19 1.29574 0.897126 0
M  V30 47646 C 4611.16 1.1492 1.98308 0
M  V30 47647 C 4612.16 0.0839193 1.60581 0
M  V30 47648 O 4613.35 0.331066 1.71025 0
M  V30 47649 C 4610.48 0.757952 3.32367 0
M  V30 47650 H 4611.67 2.11385 2.12736 0
M  V30 47651 H 4609.22 1.12797 1.08197 0
M  V30 47652 H 4609.96 -0.206723 3.2364 0
M  V30 47653 H 4609.74 1.52768 3.61116 0
M  V30 47654 H 4611.23 0.678553 4.1205 0
M  V30 47655 N 4611.67 -1.10784 1.12092 0
M  V30 47656 C 4612.9 -1.86458 0.896717 0
M  V30 47657 C 4613.31 -1.80494 -0.553849 0
M  V30 47658 O 4612.67 -1.19107 -1.38274 0
M  V30 47659 C 4612.72 -3.35001 1.35855 0
M  V30 47660 O 4612.44 -3.40856 2.75225 0
M  V30 47661 C 4613.94 -4.27561 1.17075 0
M  V30 47662 H 4611.16 -0.589414 0.320675 0
M  V30 47663 H 4613.71 -1.40071 1.48998 0
M  V30 47664 H 4611.86 -3.78867 0.808592 0
M  V30 47665 H 4612.28 -4.33401 2.95405 0
M  V30 47666 H 4613.75 -5.30001 1.54282 0
M  V30 47667 H 4614.23 -4.3906 0.110968 0
M  V30 47668 H 4614.83 -3.89495 1.70803 0
M  V30 47669 N 4613.15 -0.912277 -1.28512 0
M  V30 47670 C 4614.38 -0.559844 -1.99701 0
M  V30 47671 C 4614.8 0.851334 -1.67732 0
M  V30 47672 O 4614.16 1.56872 -0.90889 0
M  V30 47673 C 4614.21 -0.773998 -3.52195 0
M  V30 47674 O 4613.31 0.167697 -4.12059 0
M  V30 47675 H 4612.65 -0.217252 -0.627453 0
M  V30 47676 H 4615.18 -1.22731 -1.63702 0
M  V30 47677 H 4615.19 -0.683528 -4.02234 0
M  V30 47678 H 4613.87 -1.80275 -3.74798 0
M  V30 47679 H 4612.44 0.0286198 -3.72889 0
M  V30 47680 N 4614.63 1.42361 -0.676098 0
M  V30 47681 C 4615.56 2.29164 0.0403799 0
M  V30 47682 C 4616.57 1.43749 0.764194 0
M  V30 47683 O 4617.76 1.67455 0.618136 0
M  V30 47684 C 4614.86 3.212 1.08091 0
M  V30 47685 C 4614.04 4.35275 0.430659 0
M  V30 47686 C 4613.09 5.08022 1.37115 0
M  V30 47687 O 4612.12 5.62497 0.870962 0
M  V30 47688 N 4613.32 5.13657 2.70438 0
M  V30 47689 H 4616.09 2.91296 -0.704769 0
M  V30 47690 H 4613.65 1.53301 -0.520613 0
M  V30 47691 H 4615.64 3.66734 1.71139 0
M  V30 47692 H 4614.21 2.60512 1.72779 0
M  V30 47693 H 4613.43 3.9237 -0.379347 0
M  V30 47694 H 4614.72 5.08795 -0.0222921 0
M  V30 47695 H 4614.12 4.70811 3.13613 0
M  V30 47696 H 4612.67 5.62832 3.28729 0
M  V30 47697 N 4616.11 0.419515 1.51914 0
M  V30 47698 C 4617.04 -0.391732 2.30191 0
M  V30 47699 C 4618.02 -1.03694 1.34839 0
M  V30 47700 O 4619.2 -1.04398 1.63752 0
M  V30 47701 C 4616.33 -1.50301 3.13093 0
M  V30 47702 C 4615.29 -0.982253 4.16576 0
M  V30 47703 C 4614.61 -2.18792 4.87887 0
M  V30 47704 C 4615.91 -0.029052 5.22292 0
M  V30 47705 H 4617.61 0.261455 2.98256 0
M  V30 47706 H 4615.15 0.127184 1.43437 0
M  V30 47707 H 4617.11 -2.0776 3.66625 0
M  V30 47708 H 4615.83 -2.18423 2.42815 0
M  V30 47709 H 4614.49 -0.429991 3.6407 0
M  V30 47710 H 4614.14 -2.85492 4.14129 0
M  V30 47711 H 4613.84 -1.84595 5.57852 0
M  V30 47712 H 4615.36 -2.76838 5.44236 0
M  V30 47713 H 4616.77 -0.512775 5.71002 0
M  V30 47714 H 4615.17 0.224611 5.9968 0
M  V30 47715 H 4616.24 0.913099 4.76225 0
M  V30 47716 N 4617.58 -1.56882 0.15027 0
M  V30 47717 C 4618.51 -2.19937 -0.784206 0
M  V30 47718 C 4619.5 -1.14858 -1.25465 0
M  V30 47719 O 4620.68 -1.43213 -1.31163 0
M  V30 47720 C 4617.81 -2.82356 -2.02219 0
M  V30 47721 C 4616.76 -3.9329 -1.68839 0
M  V30 47722 C 4616.09 -4.42659 -2.99928 0
M  V30 47723 C 4617.39 -5.13908 -0.932533 0
M  V30 47724 H 4619.08 -2.9828 -0.258676 0
M  V30 47725 H 4616.63 -1.43474 -0.122979 0
M  V30 47726 H 4618.58 -3.25136 -2.68076 0
M  V30 47727 H 4617.31 -2.01349 -2.5715 0
M  V30 47728 H 4615.97 -3.51134 -1.05359 0
M  V30 47729 H 4615.61 -3.58471 -3.52857 0
M  V30 47730 H 4615.31 -5.17486 -2.78356 0
M  V30 47731 H 4616.84 -4.88112 -3.66851 0
M  V30 47732 H 4618.25 -5.53511 -1.49326 0
M  V30 47733 H 4616.65 -5.94518 -0.816631 0
M  V30 47734 H 4617.72 -4.84842 0.0751273 0
M  V30 47735 N 4619.06 0.12351 -1.57115 0
M  V30 47736 C 4620.01 1.1517 -2.00011 0
M  V30 47737 C 4620.98 1.414 -0.871504 0
M  V30 47738 O 4622.16 1.53342 -1.13538 0
M  V30 47739 C 4619.3 2.47427 -2.4057 0
M  V30 47740 C 4618.42 2.28172 -3.66827 0
M  V30 47741 C 4617.55 3.53627 -3.96385 0
M  V30 47742 C 4616.59 3.29509 -5.15839 0
M  V30 47743 N 4615.73 4.47156 -5.41291 0
M  V30 47744 H 4620.57 0.778907 -2.8764 0
M  V30 47745 H 4618.11 0.373116 -1.42289 0
M  V30 47746 H 4620.06 3.24575 -2.6212 0
M  V30 47747 H 4618.69 2.82608 -1.55988 0
M  V30 47748 H 4617.75 1.41963 -3.52917 0
M  V30 47749 H 4619.06 2.06324 -4.54127 0
M  V30 47750 H 4618.21 4.39195 -4.1856 0
M  V30 47751 H 4616.95 3.78502 -3.07551 0
M  V30 47752 H 4615.96 2.42332 -4.93513 0
M  V30 47753 H 4617.18 3.0601 -6.06246 0
M  V30 47754 H 4615.13 4.72159 -4.55414 0
M  V30 47755 H 4615.04 4.28397 -6.22906 0
M  V30 47756 H 4616.31 5.3387 -5.67982 0
M  V30 47757 N 4620.54 1.52607 0.393562 0
M  V30 47758 C 4621.95 1.5942 0.971705 0
M  V30 47759 C 4622.3 0.44424 1.91105 0
M  V30 47760 O 4621.43 -0.433307 2.12017 0
M  V30 47761 C 4622.02 2.88943 1.76911 0
M  V30 47762 C 4620.58 2.98183 2.29703 0
M  V30 47763 C 4619.73 2.54495 1.10126 0
M  V30 47764 H 4622.68 1.57751 0.173261 0
M  V30 47765 H 4622.7 2.75172 2.62794 0
M  V30 47766 H 4622.21 3.7262 1.08519 0
M  V30 47767 H 4620.31 2.19034 3.01421 0
M  V30 47768 H 4620.43 4.02735 2.59502 0
M  V30 47769 H 4618.79 2.08707 1.45991 0
M  V30 47770 H 4619.57 3.40561 0.432754 0
M  V30 47771 N 4622.02 -0.651737 1.43493 0
M  V30 47772 C 4622.97 -1.75777 1.45211 0
M  V30 47773 C 4623.95 -1.57678 0.320383 0
M  V30 47774 O 4625.14 -1.67765 0.56427 0
M  V30 47775 C 4622.27 -3.14372 1.37931 0
M  V30 47776 C 4621.36 -3.38014 2.56139 0
M  V30 47777 N 4621.75 -3.32122 3.81482 0
M  V30 47778 C 4620.05 -3.68738 2.50894 0
M  V30 47779 C 4620.75 -3.55885 4.60131 0
M  V30 47780 N 4619.73 -3.7777 3.90885 0
M  V30 47781 H 4623.53 -1.69649 2.39993 0
M  V30 47782 H 4621.04 -0.853459 1.38166 0
M  V30 47783 H 4623.04 -3.93662 1.37245 0
M  V30 47784 H 4621.7 -3.21682 0.441709 0
M  V30 47785 H 4622.71 -3.115 4.13749 0
M  V30 47786 H 4619.39 -3.83154 1.65829 0
M  V30 47787 H 4620.78 -3.57096 5.6915 0
M  V30 47788 N 4623.5 -1.30048 -0.890242 0
M  V30 47789 C 4624.72 -1.21478 -1.67483 0
M  V30 47790 C 4625.14 0.223175 -1.87476 0
M  V30 47791 O 4624.5 1.14823 -1.41851 0
M  V30 47792 C 4624.55 -1.93405 -3.05412 0
M  V30 47793 O 4624.27 -3.31586 -2.86325 0
M  V30 47794 C 4625.77 -1.91428 -3.99838 0
M  V30 47795 H 4622.99 -0.420623 -0.522798 0
M  V30 47796 H 4625.53 -1.71584 -1.11262 0
M  V30 47797 H 4623.69 -1.47111 -3.58381 0
M  V30 47798 H 4624.1 -3.67943 -3.73789 0
M  V30 47799 H 4625.58 -2.46303 -4.94003 0
M  V30 47800 H 4626.05 -0.891984 -4.30047 0
M  V30 47801 H 4626.66 -2.37509 -3.52803 0
M  V30 47802 N 4624.97 1.10188 -1.12678 0
M  V30 47803 C 4626.2 1.8598 -0.906593 0
M  V30 47804 C 4626.62 1.80785 0.544269 0
M  V30 47805 O 4625.97 1.19839 1.37641 0
M  V30 47806 C 4626.03 3.34276 -1.37629 0
M  V30 47807 O 4625.75 3.39392 -2.77029 0
M  V30 47808 C 4627.25 4.26934 -1.1934 0
M  V30 47809 H 4624.47 0.587705 -0.323796 0
M  V30 47810 H 4627.01 1.39279 -1.49738 0
M  V30 47811 H 4625.17 3.78433 -0.828672 0
M  V30 47812 H 4625.58 4.31828 -2.97699 0
M  V30 47813 H 4627.05 5.29175 -1.5709 0
M  V30 47814 H 4627.53 4.38995 -0.134251 0
M  V30 47815 H 4628.14 3.88584 -1.72866 0
M  V30 47816 N 4626.45 0.919079 1.28026 0
M  V30 47817 C 4627.68 0.570427 1.99401 0
M  V30 47818 C 4628.1 -0.842427 1.68181 0
M  V30 47819 O 4627.46 -1.56388 0.917196 0
M  V30 47820 C 4627.51 0.792665 3.5178 0
M  V30 47821 O 4626.61 -0.145843 4.12142 0
M  V30 47822 H 4625.95 0.220577 0.626292 0
M  V30 47823 H 4628.48 1.23598 1.63048 0
M  V30 47824 H 4628.49 0.704849 4.01865 0
M  V30 47825 H 4627.17 1.8226 3.73837 0
M  V30 47826 H 4625.75 -0.00884419 3.72899 0
M  V30 47827 N 4627.93 -1.42001 0.683638 0
M  V30 47828 C 4629.16 -2.06265 0.21672 0
M  V30 47829 C 4629.58 -1.51063 -1.12078 0
M  V30 47830 O 4628.94 -0.632698 -1.69902 0
M  V30 47831 C 4628.99 -3.6019 0.171885 0
M  V30 47832 O 4628.09 -4.03399 -0.856927 0
M  V30 47833 H 4627.43 -0.655016 0.108857 0
M  V30 47834 H 4629.96 -1.81979 0.935141 0
M  V30 47835 H 4629.97 -4.08 -0.00128686 0
M  V30 47836 H 4628.65 -3.99739 1.1481 0
M  V30 47837 H 4627.22 -3.67119 -0.654079 0
M  V30 47838 N 4629.41 -0.427565 -1.51689 0
M  V30 47839 C 4630.82 0.0378211 -1.86662 0
M  V30 47840 C 4631.17 1.42815 -1.3453 0
M  V30 47841 O 4630.3 2.05034 -0.692086 0
M  V30 47842 C 4630.89 0.0754075 -3.38716 0
M  V30 47843 C 4629.45 0.485177 -3.7326 0
M  V30 47844 C 4628.6 -0.328495 -2.75347 0
M  V30 47845 H 4631.55 -0.643841 -1.45053 0
M  V30 47846 H 4631.57 0.886926 -3.70019 0
M  V30 47847 H 4631.08 -0.93662 -3.76629 0
M  V30 47848 H 4629.18 1.50317 -3.40933 0
M  V30 47849 H 4629.3 0.216762 -4.78609 0
M  V30 47850 H 4627.66 0.211816 -2.53818 0
M  V30 47851 H 4628.44 -1.33922 -3.16101 0
M  V30 47852 N 4630.89 1.568 -0.158588 0
M  V30 47853 C 4632.3 1.8319 0.360302 0
M  V30 47854 C 4632.65 1.07784 1.63942 0
M  V30 47855 O 4631.77 0.326793 2.13918 0
M  V30 47856 C 4632.37 3.323 0.660478 0
M  V30 47857 C 4630.93 3.59231 1.12385 0
M  V30 47858 C 4630.08 2.76878 0.153 0
M  V30 47859 H 4633.03 1.54007 -0.383085 0
M  V30 47860 H 4633.05 3.49085 1.51393 0
M  V30 47861 H 4632.56 3.87155 -0.270663 0
M  V30 47862 H 4630.66 3.09774 2.07053 0
M  V30 47863 H 4630.77 4.67636 1.04181 0
M  V30 47864 H 4629.14 2.46322 0.647896 0
M  V30 47865 H 4629.92 3.34509 -0.771937 0
M  V30 47866 N 4632.37 -0.115176 1.57179 0
M  V30 47867 C 4633.64 -0.852811 1.7603 0
M  V30 47868 C 4634.02 -1.97889 0.735049 0
M  V30 47869 O 4633.37 -2.27233 -0.24028 0
M  V30 47870 C 4633.58 -1.36597 3.21158 0
M  V30 47871 C 4634.93 -1.81678 3.83768 0
M  V30 47872 O 4635.95 -1.46267 3.24784 0
M  V30 47873 O 4634.81 -2.47086 4.87453 0
M  V30 47874 H 4631.91 -0.405271 0.720891 0
M  V30 47875 H 4634.45 -0.0986189 1.69413 0
M  V30 47876 H 4633.22 -0.558221 3.87298 0
M  V30 47877 H 4632.85 -2.18275 3.32328 0
M  V30 47878 N 4633.84 -1.52813 -0.385464 0
M  V30 47879 C 4634.78 -1.72598 -1.49283 0
M  V30 47880 C 4635.75 -0.573872 -1.52136 0
M  V30 47881 O 4636.94 -0.8041 -1.70489 0
M  V30 47882 C 4634.07 -1.78679 -2.87735 0
M  V30 47883 C 4633.11 -3.00466 -3.02692 0
M  V30 47884 S 4633.94 -4.60376 -2.73522 0
M  V30 47885 C 4635.1 -4.69278 -4.14161 0
M  V30 47886 H 4635.33 -2.66252 -1.32276 0
M  V30 47887 H 4632.87 -1.4315 -0.578561 0
M  V30 47888 H 4634.82 -1.82868 -3.67518 0
M  V30 47889 H 4633.49 -0.861107 -3.02066 0
M  V30 47890 H 4632.68 -3.01272 -4.04044 0
M  V30 47891 H 4632.28 -2.94286 -2.30807 0
M  V30 47892 H 4634.57 -4.4811 -5.08138 0
M  V30 47893 H 4635.52 -5.71291 -4.18368 0
M  V30 47894 H 4635.92 -3.98086 -4.00235 0
M  V30 47895 N 4635.32 0.644118 -1.43836 0
M  V30 47896 C 4636.55 1.43637 -1.4961 0
M  V30 47897 C 4636.97 1.8773 -0.117979 0
M  V30 47898 O 4636.33 1.57941 0.890183 0
M  V30 47899 C 4636.38 2.64151 -2.45472 0
M  V30 47900 O 4635.48 3.63531 -1.94727 0
M  V30 47901 H 4634.82 0.430312 -0.505696 0
M  V30 47902 H 4637.35 0.787381 -1.88842 0
M  V30 47903 H 4637.36 3.11855 -2.63079 0
M  V30 47904 H 4636.04 2.31402 -3.4558 0
M  V30 47905 H 4634.61 3.22724 -1.86826 0
M  V30 47906 N 4636.8 1.30518 0.883332 0
M  V30 47907 C 4638.21 1.17514 1.45077 0
M  V30 47908 C 4638.56 -0.223537 1.94922 0
M  V30 47909 O 4637.69 -1.12034 1.85141 0
M  V30 47910 C 4638.28 2.12724 2.63693 0
M  V30 47911 C 4636.84 2.03694 3.16522 0
M  V30 47912 C 4635.99 2.02712 1.89217 0
M  V30 47913 H 4638.94 1.42764 0.693115 0
M  V30 47914 H 4638.96 1.70903 3.39959 0
M  V30 47915 H 4638.47 3.14513 2.27384 0
M  V30 47916 H 4636.57 1.05052 3.57484 0
M  V30 47917 H 4636.69 2.92159 3.7971 0
M  V30 47918 H 4635.05 1.47537 2.07617 0
M  V30 47919 H 4635.83 3.06234 1.55163 0
M  V30 47920 N 4638.28 -1.09589 1.13261 0
M  V30 47921 C 4639.52 -1.81731 0.893321 0
M  V30 47922 C 4639.85 -1.85632 -0.58059 0
M  V30 47923 O 4639.11 -1.31911 -1.44562 0
M  V30 47924 C 4639.41 -3.27797 1.42422 0
M  V30 47925 C 4639.07 -3.44031 2.91468 0
M  V30 47926 C 4637.73 -3.48169 3.32162 0
M  V30 47927 C 4640.09 -3.48705 3.87368 0
M  V30 47928 C 4637.41 -3.54559 4.67445 0
M  V30 47929 C 4639.77 -3.56629 5.22492 0
M  V30 47930 C 4638.43 -3.59035 5.62717 0
M  V30 47931 H 4637.7 -0.665 0.326889 0
M  V30 47932 H 4640.35 -1.29115 1.41427 0
M  V30 47933 H 4638.65 -3.83039 0.82393 0
M  V30 47934 H 4640.35 -3.82145 1.21517 0
M  V30 47935 H 4636.94 -3.41493 2.58999 0
M  V30 47936 H 4641.12 -3.4475 3.57017 0
M  V30 47937 H 4636.38 -3.54708 4.97988 0
M  V30 47938 H 4640.55 -3.59191 5.96619 0
M  V30 47939 H 4638.18 -3.63739 6.67531 0
M  V30 47940 N 4639.76 -0.925856 -1.27537 0
M  V30 47941 C 4641 -0.565323 -1.94449 0
M  V30 47942 C 4641.33 0.893099 -1.72783 0
M  V30 47943 O 4640.59 1.6521 -1.04901 0
M  V30 47944 C 4640.88 -0.835418 -3.47499 0
M  V30 47945 C 4640.55 -2.27529 -3.89283 0
M  V30 47946 C 4639.21 -2.66893 -4.00402 0
M  V30 47947 C 4641.56 -3.21173 -4.10484 0
M  V30 47948 C 4638.89 -3.99029 -4.30108 0
M  V30 47949 C 4641.24 -4.52887 -4.41674 0
M  V30 47950 C 4639.91 -4.92088 -4.51006 0
M  V30 47951 H 4639.18 -0.206866 -0.711539 0
M  V30 47952 H 4641.83 -1.16947 -1.51643 0
M  V30 47953 H 4640.13 -0.14858 -3.91518 0
M  V30 47954 H 4641.83 -0.535461 -3.97409 0
M  V30 47955 H 4638.42 -1.95989 -3.81164 0
M  V30 47956 H 4642.6 -2.91964 -4.01336 0
M  V30 47957 H 4637.86 -4.29085 -4.35541 0
M  V30 47958 H 4642.03 -5.25452 -4.57027 0
M  V30 47959 H 4639.66 -5.94506 -4.73779 0
M  V30 47960 N 4641.23 1.41636 -0.691159 0
M  V30 47961 C 4642.16 2.3347 -0.0373301 0
M  V30 47962 C 4643.14 1.51578 0.771894 0
M  V30 47963 O 4644.33 1.80129 0.725757 0
M  V30 47964 C 4641.46 3.35357 0.902946 0
M  V30 47965 C 4640.41 4.27527 0.201138 0
M  V30 47966 C 4639.74 5.19752 1.25547 0
M  V30 47967 C 4641.04 5.13956 -0.92987 0
M  V30 47968 H 4642.73 2.88394 -0.804328 0
M  V30 47969 H 4640.28 1.38668 -0.388238 0
M  V30 47970 H 4642.23 3.98524 1.36955 0
M  V30 47971 H 4640.96 2.78773 1.70156 0
M  V30 47972 H 4639.62 3.65778 -0.245394 0
M  V30 47973 H 4639.26 4.59486 2.0465 0
M  V30 47974 H 4638.96 5.82253 0.790923 0
M  V30 47975 H 4640.49 5.85795 1.72268 0
M  V30 47976 H 4641.9 5.70716 -0.543747 0
M  V30 47977 H 4640.3 5.85375 -1.32124 0
M  V30 47978 H 4641.37 4.51383 -1.77149 0
M  V30 47979 N 4642.71 0.435603 1.5146 0
M  V30 47980 C 4644.13 0.0878062 1.59358 0
M  V30 47981 C 4644.33 -1.40265 1.44665 0
M  V30 47982 O 4643.38 -2.17238 1.287 0
M  V30 47983 C 4644.7 0.606367 2.94523 0
M  V30 47984 C 4646.25 0.566656 3.07828 0
M  V30 47985 C 4646.72 1.06216 4.45513 0
M  V30 47986 N 4648.21 1.02008 4.51828 0
M  V30 47987 C 4648.95 1.37437 5.56685 0
M  V30 47988 N 4648.44 1.80143 6.6897 0
M  V30 47989 N 4650.24 1.29265 5.47035 0
M  V30 47990 H 4642.39 1.40539 1.59256 0
M  V30 47991 H 4644.65 0.579019 0.750627 0
M  V30 47992 H 4644.36 1.64912 3.1064 0
M  V30 47993 H 4644.23 0.0303423 3.77188 0
M  V30 47994 H 4646.62 -0.467106 2.9138 0
M  V30 47995 H 4646.7 1.17906 2.27006 0
M  V30 47996 H 4646.34 2.09438 4.62707 0
M  V30 47997 H 4646.27 0.426312 5.24872 0
M  V30 47998 H 4648.76 0.706438 3.71238 0
M  V30 47999 H 4649.08 2.05418 7.44999 0
M  V30 48000 H 4647.42 1.84068 6.70182 0
M  V30 48001 H 4650.61 0.957683 4.58199 0
M  V30 48002 H 4650.78 1.57204 6.28642 0
M  V30 48003 N 4644.19 -1.56714 0.166901 0
M  V30 48004 C 4645.12 -2.14917 -0.796461 0
M  V30 48005 C 4646.14 -1.10361 -1.19684 0
M  V30 48006 O 4647.32 -1.37565 -1.13746 0
M  V30 48007 C 4644.42 -2.67333 -2.08293 0
M  V30 48008 C 4643.6 -3.96499 -1.84682 0
M  V30 48009 C 4642.66 -4.34024 -2.97505 0
M  V30 48010 O 4641.68 -5.01983 -2.68332 0
M  V30 48011 N 4642.88 -3.95222 -4.25182 0
M  V30 48012 H 4645.65 -2.98206 -0.298901 0
M  V30 48013 H 4643.21 -1.61892 -0.016027 0
M  V30 48014 H 4645.2 -2.89438 -2.82857 0
M  V30 48015 H 4643.77 -1.88657 -2.49253 0
M  V30 48016 H 4642.99 -3.82817 -0.940468 0
M  V30 48017 H 4644.28 -4.80866 -1.66268 0
M  V30 48018 H 4643.68 -3.40503 -4.51746 0
M  V30 48019 H 4642.24 -4.22337 -4.96462 0
M  V30 48020 N 4645.67 0.106839 -1.57237 0
M  V30 48021 C 4646.9 0.825124 -1.89408 0
M  V30 48022 C 4647.31 1.73372 -0.757557 0
M  V30 48023 O 4646.65 1.81553 0.280051 0
M  V30 48024 C 4646.71 1.70091 -3.16716 0
M  V30 48025 C 4646.38 0.965366 -4.46687 0
M  V30 48026 C 4647.37 0.300559 -5.1903 0
M  V30 48027 C 4645.06 0.942931 -4.9337 0
M  V30 48028 C 4647.05 -0.376846 -6.36285 0
M  V30 48029 C 4644.74 0.261734 -6.10539 0
M  V30 48030 C 4645.74 -0.396987 -6.81845 0
M  V30 48031 O 4645.42 -1.06729 -7.96784 0
M  V30 48032 H 4645.16 0.24183 -0.631264 0
M  V30 48033 H 4647.71 0.092077 -2.05194 0
M  V30 48034 H 4645.94 2.4759 -2.97045 0
M  V30 48035 H 4647.63 2.29471 -3.3481 0
M  V30 48036 H 4648.4 0.309429 -4.84012 0
M  V30 48037 H 4644.27 1.44509 -4.37765 0
M  V30 48038 H 4647.82 -0.891577 -6.91879 0
M  V30 48039 H 4643.72 0.25067 -6.45013 0
M  V30 48040 H 4644.48 -0.972992 -8.12696 0
M  V30 48041 N 4647.15 1.53016 0.377354 0
M  V30 48042 C 4648.39 1.68876 1.12288 0
M  V30 48043 C 4648.73 0.433291 1.89305 0
M  V30 48044 O 4648 -0.569192 1.85985 0
M  V30 48045 C 4648.28 2.93122 2.09168 0
M  V30 48046 C 4648.14 4.28798 1.35838 0
M  V30 48047 C 4649.46 3.12939 3.09447 0
M  V30 48048 H 4646.57 0.614533 0.40684 0
M  V30 48049 H 4649.22 1.85634 0.404964 0
M  V30 48050 H 4647.37 2.78966 2.70389 0
M  V30 48051 H 4649.04 4.54745 0.774922 0
M  V30 48052 H 4647.28 4.28747 0.660214 0
M  V30 48053 H 4647.95 5.11844 2.06688 0
M  V30 48054 H 4650.43 3.26203 2.58323 0
M  V30 48055 H 4649.3 4.0133 3.74467 0
M  V30 48056 H 4649.57 2.27682 3.78963 0
M  V30 48057 N 4648.62 -0.636481 1.44176 0
M  V30 48058 C 4649.57 -1.74869 1.5063 0
M  V30 48059 C 4650.54 -1.62273 0.354477 0
M  V30 48060 O 4651.73 -1.82274 0.563973 0
M  V30 48061 C 4648.87 -3.13097 1.45136 0
M  V30 48062 C 4647.98 -3.36707 2.70652 0
M  V30 48063 C 4647.11 -4.64876 2.57029 0
M  V30 48064 C 4646.15 -4.81647 3.77734 0
M  V30 48065 N 4645.29 -6.01088 3.62819 0
M  V30 48066 H 4650.13 -1.68689 2.45658 0
M  V30 48067 H 4647.67 -0.822961 1.21925 0
M  V30 48068 H 4649.63 -3.93029 1.39943 0
M  V30 48069 H 4648.26 -3.18306 0.536783 0
M  V30 48070 H 4647.31 -2.50753 2.86054 0
M  V30 48071 H 4648.62 -3.4498 3.60264 0
M  V30 48072 H 4647.77 -5.52961 2.49639 0
M  V30 48073 H 4646.51 -4.58952 1.64969 0
M  V30 48074 H 4645.52 -3.91993 3.85515 0
M  V30 48075 H 4646.74 -4.89389 4.70824 0
M  V30 48076 H 4644.69 -5.96264 2.73506 0
M  V30 48077 H 4644.61 -6.10394 4.46044 0
M  V30 48078 H 4645.87 -6.91749 3.59311 0
M  V30 48079 N 4650.1 -1.30985 -0.876398 0
M  V30 48080 C 4651.35 -1.20064 -1.6257 0
M  V30 48081 C 4651.67 0.242879 -1.93482 0
M  V30 48082 O 4650.94 1.16184 -1.57728 0
M  V30 48083 H 4649.52 -0.441371 -0.602661 0
M  V30 48084 H 4652.18 -1.64226 -1.04957 0
M  V30 48085 H 4651.28 -1.76771 -2.57213 0
M  V30 48086 N 4651.58 1.08987 -1.13841 0
M  V30 48087 C 4652.53 2.13927 -0.788611 0
M  V30 48088 C 4653.51 1.59396 0.21946 0
M  V30 48089 O 4654.71 1.76985 0.0226935 0
M  V30 48090 C 4651.84 3.42304 -0.261268 0
M  V30 48091 C 4650.92 4.03732 -1.29851 0
M  V30 48092 N 4651.31 4.3965 -2.50082 0
M  V30 48093 C 4649.61 4.30989 -1.14735 0
M  V30 48094 C 4650.31 4.88102 -3.16436 0
M  V30 48095 N 4649.29 4.85838 -2.43849 0
M  V30 48096 H 4653.09 2.3951 -1.7033 0
M  V30 48097 H 4650.6 1.2626 -1.02139 0
M  V30 48098 H 4652.6 4.16899 0.00759393 0
M  V30 48099 H 4651.26 3.18175 0.647693 0
M  V30 48100 H 4652.27 4.30868 -2.87355 0
M  V30 48101 H 4648.95 4.16443 -0.296919 0
M  V30 48102 H 4650.34 5.25321 -4.18912 0
M  V30 48103 N 4653.06 0.932607 1.27044 0
M  V30 48104 C 4654.02 0.440143 2.24934 0
M  V30 48105 C 4655.02 -0.444017 1.54548 0
M  V30 48106 O 4656.21 -0.244404 1.72477 0
M  V30 48107 C 4653.34 -0.366661 3.38922 0
M  V30 48108 H 4654.54 1.3051 2.70013 0
M  V30 48109 H 4652.09 0.713756 1.39051 0
M  V30 48110 H 4652.82 -1.25022 2.99232 0
M  V30 48111 H 4652.61 0.267341 3.91188 0
M  V30 48112 H 4654.1 -0.701423 4.11667 0
M  V30 48113 N 4654.54 -1.41267 0.698661 0
M  V30 48114 C 4655.5 -2.29157 0.0442125 0
M  V30 48115 C 4656.5 -1.44531 -0.70479 0
M  V30 48116 O 4657.69 -1.65644 -0.539218 0
M  V30 48117 C 4654.82 -3.27462 -0.947694 0
M  V30 48118 H 4656.01 -2.88526 0.818095 0
M  V30 48119 H 4653.57 -1.49306 0.462333 0
M  V30 48120 H 4654.3 -2.73079 -1.74923 0
M  V30 48121 H 4654.09 -3.89911 -0.413713 0
M  V30 48122 H 4655.58 -3.93316 -1.4033 0
M  V30 48123 N 4656.01 -0.44363 -1.51227 0
M  V30 48124 C 4657.29 0.180969 -1.94761 0
M  V30 48125 C 4657.67 1.59519 -1.38264 0
M  V30 48126 O 4657.02 2.21218 -0.572275 0
M  V30 48127 C 4657.23 0.152299 -3.48668 0
M  V30 48128 C 4658.58 0.354775 -4.23115 0
M  V30 48129 O 4659.6 0.230132 -3.55456 0
M  V30 48130 O 4658.46 0.603483 -5.43158 0
M  V30 48131 H 4655.55 0.126571 -0.817257 0
M  V30 48132 H 4658.1 -0.502061 -1.62103 0
M  V30 48133 H 4656.87 -0.836157 -3.82262 0
M  V30 48134 H 4656.5 0.87797 -3.87785 0
M  V30 48135 N 4657.49 1.56623 -0.175209 0
M  V30 48136 C 4658.74 1.97292 0.469436 0
M  V30 48137 C 4659.07 1.06134 1.62632 0
M  V30 48138 O 4658.35 0.109252 1.94193 0
M  V30 48139 C 4658.63 3.47379 0.948681 0
M  V30 48140 C 4658.48 4.49316 -0.208649 0
M  V30 48141 C 4659.8 4.00658 1.82102 0
M  V30 48142 H 4656.92 0.717323 0.169165 0
M  V30 48143 H 4659.56 1.88183 -0.262128 0
M  V30 48144 H 4657.71 3.55272 1.57207 0
M  V30 48145 H 4659.39 4.53479 -0.845842 0
M  V30 48146 H 4657.63 4.25118 -0.863544 0
M  V30 48147 H 4658.3 5.51742 0.168865 0
M  V30 48148 H 4660.78 3.9542 1.29546 0
M  V30 48149 H 4659.65 5.06083 2.12536 0
M  V30 48150 H 4659.91 3.44709 2.76818 0
M  V30 48151 N 4658.97 -0.0984986 1.57292 0
M  V30 48152 C 4660.22 -0.802613 1.85915 0
M  V30 48153 C 4660.55 -1.78899 0.763248 0
M  V30 48154 O 4659.8 -1.94179 -0.243491 0
M  V30 48155 C 4660.1 -1.56916 3.21111 0
M  V30 48156 C 4659.77 -0.72522 4.4503 0
M  V30 48157 C 4658.43 -0.492558 4.78672 0
M  V30 48158 C 4660.78 -0.13831 5.21016 0
M  V30 48159 C 4658.11 0.336933 5.85732 0
M  V30 48160 C 4660.46 0.678485 6.28951 0
M  V30 48161 C 4659.12 0.921271 6.61112 0
M  V30 48162 H 4658.39 -0.293697 0.680311 0
M  V30 48163 H 4661.04 -0.0642169 1.91392 0
M  V30 48164 H 4659.35 -2.37903 3.11302 0
M  V30 48165 H 4661.04 -2.11829 3.40484 0
M  V30 48166 H 4657.63 -0.916668 4.18683 0
M  V30 48167 H 4661.82 -0.30523 4.95361 0
M  V30 48168 H 4657.07 0.53405 6.09063 0
M  V30 48169 H 4661.25 1.14014 6.87003 0
M  V30 48170 H 4658.87 1.56582 7.43899 0
M  V30 48171 N 4660.45 -1.53214 -0.369234 0
M  V30 48172 C 4661.36 -1.82347 -1.47603 0
M  V30 48173 C 4662.38 -0.711588 -1.58784 0
M  V30 48174 O 4663.55 -1.00126 -1.74747 0
M  V30 48175 C 4660.62 -2.00403 -2.82913 0
M  V30 48176 C 4659.68 -3.24307 -2.81289 0
M  V30 48177 C 4658.91 -3.41492 -4.10145 0
M  V30 48178 O 4659.13 -2.63051 -5.06123 0
M  V30 48179 O 4658.07 -4.34832 -4.16179 0
M  V30 48180 H 4661.89 -2.76371 -1.25909 0
M  V30 48181 H 4659.48 -1.38549 -0.558985 0
M  V30 48182 H 4661.36 -2.13872 -3.63093 0
M  V30 48183 H 4660.04 -1.0957 -3.04592 0
M  V30 48184 H 4658.94 -3.16264 -1.9982 0
M  V30 48185 H 4660.28 -4.15051 -2.64563 0
M  V30 48186 N 4661.93 0.628826 -1.44511 0
M  V30 48187 C 4662.89 1.72258 -1.51195 0
M  V30 48188 C 4663.89 1.55905 -0.393725 0
M  V30 48189 O 4665.08 1.61359 -0.656434 0
M  V30 48190 C 4662.21 3.1136 -1.38809 0
M  V30 48191 H 4663.41 1.67706 -2.48626 0
M  V30 48192 H 4660.96 0.842691 -1.31637 0
M  V30 48193 H 4661.69 3.21506 -0.424806 0
M  V30 48194 H 4661.48 3.24636 -2.19895 0
M  V30 48195 H 4662.97 3.9107 -1.46472 0
M  V30 48196 N 4663.41 1.31448 0.869439 0
M  V30 48197 C 4664.64 1.23947 1.65289 0
M  V30 48198 C 4665.04 -0.197495 1.88166 0
M  V30 48199 O 4664.39 -1.14014 1.44037 0
M  V30 48200 C 4664.45 1.91395 3.04316 0
M  V30 48201 C 4664.11 3.40736 3.04545 0
M  V30 48202 C 4665.11 4.36474 2.82465 0
M  V30 48203 C 4662.79 3.82437 3.25649 0
M  V30 48204 C 4664.79 5.71886 2.8147 0
M  V30 48205 C 4662.48 5.17962 3.24282 0
M  V30 48206 C 4663.47 6.12497 3.02219 0
M  V30 48207 O 4663.16 7.45544 3.00698 0
M  V30 48208 H 4662.89 0.429478 0.522039 0
M  V30 48209 H 4665.45 1.73876 1.09344 0
M  V30 48210 H 4663.68 1.36016 3.6199 0
M  V30 48211 H 4665.37 1.77803 3.64885 0
M  V30 48212 H 4666.13 4.05586 2.65942 0
M  V30 48213 H 4662.01 3.09286 3.41852 0
M  V30 48214 H 4665.56 6.45648 2.64168 0
M  V30 48215 H 4661.45 5.48485 3.40345 0
M  V30 48216 H 4662.22 7.54724 3.16756 0
M  V30 48217 N 4664.88 -1.08381 1.14417 0
M  V30 48218 C 4666.11 -1.84514 0.936066 0
M  V30 48219 C 4666.53 -1.81628 -0.515439 0
M  V30 48220 O 4665.88 -1.22013 -1.35717 0
M  V30 48221 C 4665.93 -3.32044 1.4293 0
M  V30 48222 O 4665.66 -3.34941 2.82393 0
M  V30 48223 C 4667.16 -4.24981 1.26118 0
M  V30 48224 H 4664.38 -0.582479 0.333105 0
M  V30 48225 H 4666.92 -1.36879 1.51935 0
M  V30 48226 H 4665.08 -3.77067 0.888773 0
M  V30 48227 H 4665.49 -4.27037 3.04532 0
M  V30 48228 H 4666.96 -5.26609 1.65489 0
M  V30 48229 H 4667.44 -4.38726 0.204074 0
M  V30 48230 H 4668.05 -3.85785 1.79026 0
M  V30 48231 N 4666.36 -0.939331 -1.26548 0
M  V30 48232 C 4667.29 -0.404783 -2.25597 0
M  V30 48233 C 4668.31 0.470928 -1.5584 0
M  V30 48234 O 4669.5 0.281672 -1.76264 0
M  V30 48235 C 4666.6 0.437522 -3.36064 0
M  V30 48236 C 4665.77 -0.421602 -4.35363 0
M  V30 48237 C 4664.83 0.359965 -5.24967 0
M  V30 48238 O 4663.85 -0.236367 -5.68709 0
M  V30 48239 N 4665.06 1.65696 -5.5635 0
M  V30 48240 H 4667.82 -1.25627 -2.72099 0
M  V30 48241 H 4665.38 -0.808012 -1.40295 0
M  V30 48242 H 4667.37 0.967728 -3.92959 0
M  V30 48243 H 4665.94 1.1898 -2.89072 0
M  V30 48244 H 4665.16 -1.13303 -3.77566 0
M  V30 48245 H 4666.45 -1.00853 -4.98705 0
M  V30 48246 H 4665.85 2.1636 -5.2269 0
M  V30 48247 H 4664.41 2.13345 -6.15896 0
M  V30 48248 N 4667.84 1.40895 -0.706143 0
M  V30 48249 C 4668.77 2.33417 -0.0620906 0
M  V30 48250 C 4669.75 1.52388 0.755774 0
M  V30 48251 O 4670.94 1.80889 0.706611 0
M  V30 48252 C 4668.07 3.36296 0.867326 0
M  V30 48253 C 4667.02 4.27716 0.155782 0
M  V30 48254 C 4666.35 5.21054 1.20027 0
M  V30 48255 C 4667.65 5.12941 -0.98433 0
M  V30 48256 H 4669.34 2.87524 -0.834871 0
M  V30 48257 H 4666.89 1.38248 -0.402924 0
M  V30 48258 H 4668.84 3.99954 1.32721 0
M  V30 48259 H 4667.56 2.80562 1.67189 0
M  V30 48260 H 4666.22 3.65497 -0.284176 0
M  V30 48261 H 4665.87 4.61631 1.99765 0
M  V30 48262 H 4665.57 5.83059 0.729123 0
M  V30 48263 H 4667.09 5.8759 1.66045 0
M  V30 48264 H 4668.51 5.70107 -0.604248 0
M  V30 48265 H 4666.9 5.8394 -1.38325 0
M  V30 48266 H 4667.97 4.49478 -1.81926 0
M  V30 48267 N 4669.32 0.451643 1.5099 0
M  V30 48268 C 4670.25 -0.342817 2.3097 0
M  V30 48269 C 4671.23 -1.0081 1.37008 0
M  V30 48270 O 4672.41 -1.00901 1.6593 0
M  V30 48271 C 4669.54 -1.43626 3.1621 0
M  V30 48272 C 4668.5 -0.89367 4.18566 0
M  V30 48273 C 4667.82 -2.08394 4.92419 0
M  V30 48274 C 4669.12 0.0817404 5.22236 0
M  V30 48275 H 4670.82 0.324661 2.97635 0
M  V30 48276 H 4668.36 0.157581 1.43135 0
M  V30 48277 H 4670.32 -1.99937 3.70949 0
M  V30 48278 H 4669.04 -2.13223 2.47394 0
M  V30 48279 H 4667.7 -0.35267 3.649 0
M  V30 48280 H 4667.35 -2.76644 4.20092 0
M  V30 48281 H 4667.05 -1.72721 5.61642 0
M  V30 48282 H 4668.57 -2.65232 5.49986 0
M  V30 48283 H 4669.99 -0.391541 5.71961 0
M  V30 48284 H 4668.38 0.351761 5.99068 0
M  V30 48285 H 4669.45 1.01391 4.74181 0
M  V30 48286 N 4670.8 -1.56528 0.183513 0
M  V30 48287 C 4672.02 -2.01625 -0.464214 0
M  V30 48288 C 4672.44 -1.06371 -1.55983 0
M  V30 48289 O 4671.8 -0.0666039 -1.82378 0
M  V30 48290 C 4671.85 -3.46478 -1.03127 0
M  V30 48291 O 4671.57 -4.38095 0.0206215 0
M  V30 48292 C 4673.07 -4.07037 -1.75602 0
M  V30 48293 H 4670.29 -0.6606 -0.117681 0
M  V30 48294 H 4672.83 -2.0245 0.288822 0
M  V30 48295 H 4670.99 -3.46389 -1.73474 0
M  V30 48296 H 4671.4 -5.22974 -0.399768 0
M  V30 48297 H 4672.88 -5.10278 -2.10524 0
M  V30 48298 H 4673.35 -3.49828 -2.65551 0
M  V30 48299 H 4673.96 -4.10864 -1.09868 0
M  V30 48300 N 4672.27 0.0901557 -1.57342 0
M  V30 48301 C 4673.18 1.12728 -2.05742 0
M  V30 48302 C 4674.2 1.43553 -0.983282 0
M  V30 48303 O 4675.38 1.54096 -1.29678 0
M  V30 48304 C 4672.44 2.4265 -2.47632 0
M  V30 48305 C 4671.5 2.18962 -3.69262 0
M  V30 48306 C 4670.74 3.4269 -4.09145 0
M  V30 48307 O 4670.96 4.51115 -3.49072 0
M  V30 48308 O 4669.89 3.31986 -5.02065 0
M  V30 48309 H 4673.72 0.746176 -2.94391 0
M  V30 48310 H 4671.3 0.303013 -1.46295 0
M  V30 48311 H 4673.19 3.19145 -2.75181 0
M  V30 48312 H 4671.86 2.80177 -1.62119 0
M  V30 48313 H 4670.77 1.40232 -3.46822 0
M  V30 48314 H 4672.1 1.86326 -4.5557 0
M  V30 48315 N 4673.75 1.53407 0.361103 0
M  V30 48316 C 4674.69 1.74951 1.46518 0
M  V30 48317 C 4675.66 0.598003 1.51204 0
M  V30 48318 O 4676.85 0.831122 1.69188 0
M  V30 48319 C 4673.97 1.83234 2.84856 0
M  V30 48320 C 4673.02 3.05243 2.97874 0
M  V30 48321 S 4673.85 4.64669 2.66163 0
M  V30 48322 C 4675.01 4.75807 4.06643 0
M  V30 48323 H 4675.24 2.68323 1.28024 0
M  V30 48324 H 4672.78 1.44053 0.555714 0
M  V30 48325 H 4674.73 1.88692 3.64562 0
M  V30 48326 H 4673.39 0.909054 3.00658 0
M  V30 48327 H 4672.59 3.07662 3.99199 0
M  V30 48328 H 4672.19 2.97921 2.26096 0
M  V30 48329 H 4674.48 4.56137 5.00944 0
M  V30 48330 H 4675.42 5.77875 4.09227 0
M  V30 48331 H 4675.83 4.04403 3.93851 0
M  V30 48332 N 4675.23 -0.621153 1.44843 0
M  V30 48333 C 4676.48 -1.38255 1.48369 0
M  V30 48334 C 4676.81 -1.93831 0.119692 0
M  V30 48335 O 4676.08 -1.74254 -0.86405 0
M  V30 48336 C 4676.37 -2.54049 2.55208 0
M  V30 48337 C 4676.22 -2.03758 4.01002 0
M  V30 48338 C 4677.54 -3.56215 2.58454 0
M  V30 48339 H 4674.66 -0.501355 0.540196 0
M  V30 48340 H 4677.3 -0.701437 1.76578 0
M  V30 48341 H 4675.45 -3.12153 2.31284 0
M  V30 48342 H 4677.12 -1.50408 4.36091 0
M  V30 48343 H 4675.37 -1.34862 4.12304 0
M  V30 48344 H 4676.04 -2.87169 4.71421 0
M  V30 48345 H 4678.51 -3.07929 2.79855 0
M  V30 48346 H 4677.39 -4.34744 3.35095 0
M  V30 48347 H 4677.65 -4.10943 1.63028 0
M  V30 48348 N 4676.71 -1.31907 -0.862456 0
M  V30 48349 C 4677.64 -1.22789 -1.98608 0
M  V30 48350 C 4678.62 -0.113421 -1.69721 0
M  V30 48351 O 4679.8 -0.299286 -1.9188 0
M  V30 48352 C 4676.93 -0.942176 -3.34276 0
M  V30 48353 C 4675.89 -2.01703 -3.77492 0
M  V30 48354 C 4675.21 -1.58387 -5.10703 0
M  V30 48355 C 4676.51 -3.4311 -3.93793 0
M  V30 48356 H 4678.21 -2.16796 -2.06495 0
M  V30 48357 H 4675.75 -1.0437 -0.992117 0
M  V30 48358 H 4677.71 -0.864963 -4.12427 0
M  V30 48359 H 4676.43 0.0335455 -3.26583 0
M  V30 48360 H 4675.09 -2.08426 -3.01586 0
M  V30 48361 H 4674.74 -0.595803 -4.99459 0
M  V30 48362 H 4674.44 -2.30298 -5.40589 0
M  V30 48363 H 4675.96 -1.52087 -5.91356 0
M  V30 48364 H 4677.38 -3.39019 -4.62319 0
M  V30 48365 H 4675.77 -4.13304 -4.35086 0
M  V30 48366 H 4676.84 -3.83344 -2.96943 0
M  V30 48367 N 4678.19 1.07773 -1.1499 0
M  V30 48368 C 4679.6 1.3237 -0.891642 0
M  V30 48369 C 4679.8 1.96092 0.463719 0
M  V30 48370 O 4678.86 2.21805 1.20659 0
M  V30 48371 C 4680.17 2.21898 -2.02933 0
M  V30 48372 C 4681.72 2.3536 -2.06337 0
M  V30 48373 C 4682.19 3.28233 -3.19416 0
M  V30 48374 N 4683.69 3.35813 -3.19036 0
M  V30 48375 C 4684.42 4.07725 -4.03173 0
M  V30 48376 N 4683.92 4.82288 -4.97363 0
M  V30 48377 N 4685.71 4.03622 -3.91211 0
M  V30 48378 H 4677.86 0.647967 -2.02275 0
M  V30 48379 H 4680.12 0.348118 -0.88177 0
M  V30 48380 H 4679.83 1.82331 -3.00746 0
M  V30 48381 H 4679.7 3.224 -1.958 0
M  V30 48382 H 4682.09 2.74182 -1.09126 0
M  V30 48383 H 4682.17 1.34577 -2.17538 0
M  V30 48384 H 4681.82 2.90131 -4.16877 0
M  V30 48385 H 4681.75 4.2896 -3.05452 0
M  V30 48386 H 4684.24 2.82661 -2.50821 0
M  V30 48387 H 4684.55 5.34641 -5.58013 0
M  V30 48388 H 4682.89 4.81319 -5.01355 0
M  V30 48389 H 4686.09 3.4448 -3.1694 0
M  V30 48390 H 4686.26 4.59401 -4.57006 0
M  V30 48391 N 4679.66 0.946029 1.26048 0
M  V30 48392 C 4680.59 0.477253 2.28571 0
M  V30 48393 C 4681.58 -0.471975 1.63421 0
M  V30 48394 O 4682.76 -0.372786 1.90588 0
M  V30 48395 C 4679.89 -0.253853 3.46371 0
M  V30 48396 C 4678.84 0.609284 4.23641 0
M  V30 48397 C 4678.17 -0.252064 5.34106 0
M  V30 48398 C 4679.47 1.88307 4.87173 0
M  V30 48399 H 4681.16 1.33412 2.68033 0
M  V30 48400 H 4678.71 0.642949 1.28849 0
M  V30 48401 H 4680.66 -0.592869 4.17209 0
M  V30 48402 H 4679.39 -1.1449 3.05875 0
M  V30 48403 H 4678.05 0.931262 3.54574 0
M  V30 48404 H 4677.69 -1.14261 4.89851 0
M  V30 48405 H 4677.39 0.322086 5.86717 0
M  V30 48406 H 4678.92 -0.58624 6.07779 0
M  V30 48407 H 4680.33 1.611 5.502 0
M  V30 48408 H 4678.73 2.40218 5.49923 0
M  V30 48409 H 4679.8 2.59148 4.09842 0
M  V30 48410 N 4681.14 -1.40518 0.713605 0
M  V30 48411 C 4682.55 -1.83852 0.324872 0
M  V30 48412 C 4682.9 -1.59671 -1.14015 0
M  V30 48413 O 4682.03 -1.07655 -1.87721 0
M  V30 48414 C 4682.62 -3.33749 0.582863 0
M  V30 48415 C 4681.18 -3.75583 0.247859 0
M  V30 48416 C 4680.33 -2.6375 0.856214 0
M  V30 48417 H 4683.28 -1.29814 0.912906 0
M  V30 48418 H 4683.3 -3.80194 -0.152548 0
M  V30 48419 H 4682.81 -3.51316 1.6492 0
M  V30 48420 H 4680.92 -3.63611 -0.813496 0
M  V30 48421 H 4681.03 -4.73728 0.715473 0
M  V30 48422 H 4679.39 -2.53107 0.284409 0
M  V30 48423 H 4680.18 -2.84131 1.92678 0
M  V30 48424 N 4682.62 -0.459644 -1.50748 0
M  V30 48425 C 4683.85 0.0971612 -2.06371 0
M  V30 48426 C 4684.26 1.35069 -1.32488 0
M  V30 48427 O 4683.6 1.79635 -0.384289 0
M  V30 48428 C 4683.66 0.462634 -3.56511 0
M  V30 48429 C 4683.33 -0.687243 -4.51803 0
M  V30 48430 C 4684.32 -1.56595 -4.95756 0
M  V30 48431 C 4682.01 -0.874318 -4.94632 0
M  V30 48432 C 4684 -2.61625 -5.81233 0
M  V30 48433 C 4681.69 -1.92785 -5.79894 0
M  V30 48434 C 4682.69 -2.79718 -6.23094 0
M  V30 48435 O 4682.38 -3.83259 -7.06659 0
M  V30 48436 H 4682.11 0.0013831 -0.675999 0
M  V30 48437 H 4684.66 -0.64408 -1.9504 0
M  V30 48438 H 4682.89 1.2569 -3.65703 0
M  V30 48439 H 4684.58 0.953184 -3.94549 0
M  V30 48440 H 4685.35 -1.43306 -4.63345 0
M  V30 48441 H 4681.23 -0.207168 -4.60534 0
M  V30 48442 H 4684.77 -3.29511 -6.14873 0
M  V30 48443 H 4680.67 -2.06086 -6.11718 0
M  V30 48444 H 4681.44 -3.80109 -7.24886 0
M  V30 48445 N 4684.1 1.56428 -0.191812 0
M  V30 48446 C 4685.03 2.16156 0.762169 0
M  V30 48447 C 4686.04 1.12252 1.17913 0
M  V30 48448 O 4687.23 1.39357 1.11543 0
M  V30 48449 C 4684.33 2.70613 2.04014 0
M  V30 48450 C 4683.51 3.99387 1.7835 0
M  V30 48451 C 4682.56 4.38702 2.90563 0
M  V30 48452 O 4681.59 5.06188 2.60312 0
M  V30 48453 N 4682.79 4.01937 4.1884 0
M  V30 48454 H 4685.56 2.98644 0.251421 0
M  V30 48455 H 4683.12 1.61897 -0.00973065 0
M  V30 48456 H 4685.11 2.93901 2.78216 0
M  V30 48457 H 4683.68 1.92599 2.4622 0
M  V30 48458 H 4682.9 3.84265 0.879446 0
M  V30 48459 H 4684.19 4.83451 1.58597 0
M  V30 48460 H 4683.59 3.47647 4.46271 0
M  V30 48461 H 4682.14 4.30182 4.8968 0
M  V30 48462 N 4685.58 -0.0818102 1.57388 0
M  V30 48463 C 4686.83 -0.781616 1.8594 0
M  V30 48464 C 4687.14 -1.79243 0.78302 0
M  V30 48465 O 4688.34 -2.54109 0.956076 0
M  V30 48466 C 4686.8 -1.44097 3.29794 0
M  V30 48467 C 4686.41 -0.469239 4.45536 0
M  V30 48468 C 4688.15 -2.12373 3.67557 0
M  V30 48469 C 4686.06 -1.13394 5.80427 0
M  V30 48470 H 4684.99 -0.295657 0.693616 0
M  V30 48471 H 4687.64 -0.0347406 1.83467 0
M  V30 48472 H 4686.02 -2.23577 3.26848 0
M  V30 48473 H 4687.2 0.295017 4.59855 0
M  V30 48474 H 4685.51 0.108529 4.16259 0
M  V30 48475 H 4688.11 -2.62862 4.65626 0
M  V30 48476 H 4688.45 -2.91866 2.9685 0
M  V30 48477 H 4688.98 -1.39737 3.72449 0
M  V30 48478 H 4685.72 -0.379541 6.544 0
M  V30 48479 H 4685.24 -1.8693 5.69927 0
M  V30 48480 H 4686.92 -1.65664 6.25431 0
M  V30 48481 N 4687.06 -1.53597 -0.352963 0
M  V30 48482 C 4688 -1.80924 -1.43301 0
M  V30 48483 C 4688.97 -0.654342 -1.52668 0
M  V30 48484 O 4690.16 -0.897818 -1.68356 0
M  V30 48485 C 4687.3 -2.01615 -2.80081 0
M  V30 48486 C 4686.41 -3.2933 -2.79581 0
M  V30 48487 C 4685.55 -3.4014 -4.08018 0
M  V30 48488 C 4684.58 -4.6184 -4.01709 0
M  V30 48489 N 4683.72 -4.69735 -5.21818 0
M  V30 48490 H 4688.56 -2.73079 -1.19298 0
M  V30 48491 H 4686.1 -1.35265 -0.578083 0
M  V30 48492 H 4688.06 -2.11599 -3.59558 0
M  V30 48493 H 4686.69 -1.12783 -3.02456 0
M  V30 48494 H 4685.74 -3.28235 -1.92265 0
M  V30 48495 H 4687.05 -4.18893 -2.70795 0
M  V30 48496 H 4686.2 -3.49505 -4.95914 0
M  V30 48497 H 4684.94 -2.48616 -4.19573 0
M  V30 48498 H 4683.95 -4.52563 -3.12197 0
M  V30 48499 H 4685.17 -5.54719 -3.91744 0
M  V30 48500 H 4683.12 -3.81116 -5.33935 0
M  V30 48501 H 4683.04 -5.5322 -5.15251 0
M  V30 48502 H 4684.3 -4.83398 -6.11512 0
M  V30 48503 N 4688.53 0.613463 -1.4517 0
M  V30 48504 C 4689.48 1.72451 -1.53393 0
M  V30 48505 C 4690.45 1.61689 -0.380248 0
M  V30 48506 O 4691.64 1.81354 -0.592899 0
M  V30 48507 C 4688.78 3.10748 -1.50099 0
M  V30 48508 C 4687.89 3.32359 -2.75974 0
M  V30 48509 C 4687.02 4.60728 -2.64392 0
M  V30 48510 C 4686.06 4.75577 -3.85348 0
M  V30 48511 N 4685.2 5.9524 -3.72336 0
M  V30 48512 H 4690.04 1.64759 -2.48311 0
M  V30 48513 H 4687.58 0.80346 -1.23219 0
M  V30 48514 H 4689.53 3.90753 -1.46178 0
M  V30 48515 H 4688.16 3.17411 -0.587355 0
M  V30 48516 H 4687.22 2.4617 -2.90008 0
M  V30 48517 H 4688.53 3.39205 -3.65707 0
M  V30 48518 H 4687.68 5.48919 -2.58404 0
M  V30 48519 H 4686.42 4.56269 -1.72249 0
M  V30 48520 H 4685.43 3.8581 -3.91702 0
M  V30 48521 H 4686.65 4.81837 -4.7855 0
M  V30 48522 H 4684.6 5.91837 -2.82958 0
M  V30 48523 H 4684.51 6.0322 -4.55699 0
M  V30 48524 H 4685.78 6.85945 -3.7027 0
M  V30 48525 N 4690.01 1.32363 0.855449 0
M  V30 48526 C 4691.26 1.22232 1.60444 0
M  V30 48527 C 4691.57 -0.214664 1.94418 0
M  V30 48528 O 4692.78 -0.437823 2.67947 0
M  V30 48529 C 4691.24 2.14073 2.89311 0
M  V30 48530 C 4690.84 3.62848 2.62764 0
M  V30 48531 C 4692.59 2.12777 3.67323 0
M  V30 48532 C 4690.49 4.46653 3.87627 0
M  V30 48533 H 4689.42 0.453925 0.602053 0
M  V30 48534 H 4692.08 1.57317 0.944642 0
M  V30 48535 H 4690.46 1.71901 3.56744 0
M  V30 48536 H 4691.63 4.13357 2.03648 0
M  V30 48537 H 4689.95 3.66268 1.98083 0
M  V30 48538 H 4692.54 2.72627 4.59977 0
M  V30 48539 H 4692.89 1.11855 4.00991 0
M  V30 48540 H 4693.42 2.53224 3.06794 0
M  V30 48541 H 4690.16 5.48386 3.591 0
M  V30 48542 H 4689.68 4.00896 4.46142 0
M  V30 48543 H 4691.36 4.59613 4.55373 0
M  V30 48544 N 4691.49 -1.07162 1.1556 0
M  V30 48545 C 4692.72 -1.83511 0.955583 0
M  V30 48546 C 4693.13 -1.82164 -0.496146 0
M  V30 48547 O 4692.49 -1.23446 -1.34415 0
M  V30 48548 C 4692.54 -3.30509 1.46444 0
M  V30 48549 O 4692.26 -3.31927 2.8593 0
M  V30 48550 C 4693.76 -4.2362 1.30618 0
M  V30 48551 H 4690.98 -0.578914 0.339264 0
M  V30 48552 H 4693.53 -1.3526 1.53379 0
M  V30 48553 H 4691.68 -3.76103 0.928716 0
M  V30 48554 H 4692.1 -4.23783 3.09044 0
M  V30 48555 H 4693.57 -5.24825 1.71065 0
M  V30 48556 H 4694.05 -4.38485 0.250596 0
M  V30 48557 H 4694.65 -3.83864 1.83108 0
M  V30 48558 N 4692.97 -0.9527 -1.25544 0
M  V30 48559 C 4694.24 -0.523884 -1.88454 0
M  V30 48560 C 4694.62 0.998806 -1.85976 0
M  V30 48561 O 4693.97 1.86376 -1.32197 0
M  V30 48562 C 4694.18 -1.09832 -3.31267 0
M  V30 48563 C 4695.53 -1.174 -4.08047 0
M  V30 48564 O 4696.55 -1.04973 -3.40381 0
M  V30 48565 O 4695.41 -1.36871 -5.29083 0
M  V30 48566 H 4692.51 -0.172513 -0.808807 0
M  V30 48567 H 4695.05 -1.04601 -1.33629 0
M  V30 48568 H 4693.83 -2.14162 -3.27491 0
M  V30 48569 H 4693.45 -0.559329 -3.93646 0
M  V30 48570 N 4694.45 1.40138 -0.721047 0
M  V30 48571 C 4695.67 2.05095 -0.272728 0
M  V30 48572 C 4696.09 1.54338 1.08744 0
M  V30 48573 O 4695.45 0.70227 1.68447 0
M  V30 48574 C 4695.5 3.60635 -0.249962 0
M  V30 48575 O 4695.22 4.0952 -1.55643 0
M  V30 48576 C 4696.72 4.42772 0.21624 0
M  V30 48577 H 4693.94 0.659893 -0.121582 0
M  V30 48578 H 4696.48 1.79446 -0.980786 0
M  V30 48579 H 4694.64 3.85234 0.409101 0
M  V30 48580 H 4695.05 5.03753 -1.46058 0
M  V30 48581 H 4696.53 5.51703 0.181018 0
M  V30 48582 H 4697 4.2076 1.25926 0
M  V30 48583 H 4697.61 4.23292 -0.412745 0
M  V30 48584 N 4695.92 0.467632 1.50502 0
M  V30 48585 C 4696.87 -0.342401 2.30066 0
M  V30 48586 C 4697.87 -0.993547 1.37204 0
M  V30 48587 O 4699.07 -0.925048 1.54411 0
M  V30 48588 H 4695.45 -0.129257 0.740808 0
M  V30 48589 H 4697.42 0.349094 2.96351 0
M  V30 48590 C 4696.17 -1.41379 3.17659 0
M  V30 48591 H 4695.49 -0.922127 3.8902 0
M  V30 48592 H 4696.93 -1.95321 3.76332 0
M  V30 48593 C 4695.39 -2.41382 2.35024 0
M  V30 48594 O 4695.92 -3.46579 2.03091 0
M  V30 48595 N 4694.12 -2.13014 1.9767 0
M  V30 48596 H 4693.67 -1.27491 2.23839 0
M  V30 48597 H 4693.63 -2.80159 1.42683 0
M  V30 48598 N 4697.4 -1.56324 0.200105 0
M  V30 48599 C 4698.63 -2.0255 -0.445899 0
M  V30 48600 C 4699.05 -1.07927 -1.54056 0
M  V30 48601 O 4698.41 -0.0636412 -1.81188 0
M  V30 48602 C 4698.46 -3.47179 -0.974639 0
M  V30 48603 O 4697.56 -3.55678 -2.08726 0
M  V30 48604 H 4696.9 -0.655866 -0.103615 0
M  V30 48605 H 4699.43 -2.022 0.312452 0
M  V30 48606 H 4699.44 -3.87071 -1.28996 0
M  V30 48607 H 4698.12 -4.15539 -0.173324 0
M  V30 48608 H 4696.69 -3.27663 -1.7802 0
M  V30 48609 N 4698.88 0.0734624 -1.57429 0
M  V30 48610 C 4700.3 0.42821 -1.53748 0
M  V30 48611 C 4700.5 1.79269 -0.920043 0
M  V30 48612 O 4699.55 2.47049 -0.521832 0
M  V30 48613 C 4700.86 0.370809 -2.98405 0
M  V30 48614 C 4702.41 0.451116 -3.09732 0
M  V30 48615 C 4702.89 0.423639 -4.56037 0
M  V30 48616 N 4704.38 0.483763 -4.60667 0
M  V30 48617 C 4705.11 0.48469 -5.71348 0
M  V30 48618 N 4704.61 0.440532 -6.91398 0
M  V30 48619 N 4706.4 0.531122 -5.59585 0
M  V30 48620 H 4698.55 -0.820017 -1.95932 0
M  V30 48621 H 4700.82 -0.307525 -0.896734 0
M  V30 48622 H 4700.52 -0.565078 -3.47131 0
M  V30 48623 H 4700.4 1.18164 -3.58214 0
M  V30 48624 H 4702.78 1.37743 -2.60981 0
M  V30 48625 H 4702.86 -0.388256 -2.52836 0
M  V30 48626 H 4702.51 -0.498815 -5.05445 0
M  V30 48627 H 4702.44 1.28052 -5.10794 0
M  V30 48628 H 4704.93 0.522207 -3.74275 0
M  V30 48629 H 4705.24 0.445119 -7.71517 0
M  V30 48630 H 4703.59 0.407246 -6.93806 0
M  V30 48631 H 4706.78 0.563301 -4.64698 0
M  V30 48632 H 4706.95 0.528376 -6.45842 0
M  V30 48633 N 4700.36 1.53782 0.344812 0
M  V30 48634 C 4701.61 1.70183 1.08261 0
M  V30 48635 C 4701.92 0.471067 1.89843 0
M  V30 48636 O 4703.13 0.516011 2.66551 0
M  V30 48637 C 4701.58 3.0093 1.97407 0
M  V30 48638 C 4701.19 4.3134 1.21038 0
M  V30 48639 C 4702.93 3.26697 2.71052 0
M  V30 48640 C 4700.84 5.53161 2.09206 0
M  V30 48641 H 4699.77 0.634152 0.407881 0
M  V30 48642 H 4702.42 1.80281 0.342183 0
M  V30 48643 H 4700.8 2.84686 2.75264 0
M  V30 48644 H 4701.98 4.58283 0.480998 0
M  V30 48645 H 4700.29 4.12175 0.591668 0
M  V30 48646 H 4702.89 4.14901 3.37285 0
M  V30 48647 H 4703.23 2.43651 3.3755 0
M  V30 48648 H 4703.77 3.43712 2.00268 0
M  V30 48649 H 4700.5 6.38747 1.47252 0
M  V30 48650 H 4700.02 5.30468 2.79936 0
M  V30 48651 H 4701.7 5.88754 2.68288 0
M  V30 48652 N 4701.84 -0.605756 1.45494 0
M  V30 48653 C 4703.25 -1.18772 1.44049 0
M  V30 48654 C 4703.6 -1.9547 0.169069 0
M  V30 48655 O 4702.72 -2.03742 -0.729253 0
M  V30 48656 C 4703.32 -2.16055 2.60971 0
M  V30 48657 C 4701.88 -2.69624 2.6264 0
M  V30 48658 C 4701.02 -1.45063 2.3633 0
M  V30 48659 H 4703.98 -0.394963 1.53707 0
M  V30 48660 H 4704 -2.99121 2.35174 0
M  V30 48661 H 4703.51 -1.60205 3.53491 0
M  V30 48662 H 4701.61 -3.29407 1.74131 0
M  V30 48663 H 4701.72 -3.13932 3.61917 0
M  V30 48664 H 4700.09 -1.74082 1.85924 0
M  V30 48665 H 4700.87 -0.910783 3.30998 0
M  V30 48666 N 4703.31 -1.32814 -0.848417 0
M  V30 48667 C 4704.73 -1.2132 -1.4191 0
M  V30 48668 C 4705.08 0.171778 -1.95447 0
M  V30 48669 O 4704.2 1.07086 -1.88047 0
M  V30 48670 C 4704.8 -2.1964 -2.5796 0
M  V30 48671 C 4703.36 -2.12014 -3.1101 0
M  V30 48672 C 4702.5 -2.07658 -1.83776 0
M  V30 48673 H 4705.45 -1.44552 -0.65502 0
M  V30 48674 H 4705.47 -1.79857 -3.35309 0
M  V30 48675 H 4704.99 -3.20431 -2.18965 0
M  V30 48676 H 4703.09 -1.14493 -3.54573 0
M  V30 48677 H 4703.2 -3.02124 -3.71831 0
M  V30 48678 H 4701.56 -1.5299 -2.03632 0
M  V30 48679 H 4702.35 -3.1024 -1.46989 0
M  V30 48680 N 4704.79 1.06547 -1.16127 0
M  V30 48681 C 4706.2 1.60765 -0.949289 0
M  V30 48682 C 4706.55 1.89524 0.507441 0
M  V30 48683 O 4705.68 1.66676 1.38015 0
M  V30 48684 C 4706.27 2.9208 -1.71681 0
M  V30 48685 C 4704.83 3.43009 -1.54989 0
M  V30 48686 C 4703.98 2.16941 -1.72719 0
M  V30 48687 H 4706.93 0.895308 -1.31034 0
M  V30 48688 H 4706.95 3.61376 -1.19111 0
M  V30 48689 H 4706.46 2.71117 -2.777 0
M  V30 48690 H 4704.57 3.69038 -0.514003 0
M  V30 48691 H 4704.68 4.18508 -2.33213 0
M  V30 48692 H 4703.04 2.27037 -1.15439 0
M  V30 48693 H 4703.83 1.98464 -2.8012 0
M  V30 48694 N 4706.27 0.959345 1.25037 0
M  V30 48695 C 4707.52 0.617592 1.93167 0
M  V30 48696 C 4707.85 -0.84392 1.74905 0
M  V30 48697 O 4707.12 -1.60611 1.09702 0
M  V30 48698 C 4707.41 0.982857 3.46427 0
M  V30 48699 C 4707.26 2.50045 3.73895 0
M  V30 48700 C 4708.58 0.51133 4.37119 0
M  V30 48701 H 4705.7 0.225844 0.701544 0
M  V30 48702 H 4708.34 1.19684 1.47566 0
M  V30 48703 H 4706.49 0.489942 3.85398 0
M  V30 48704 H 4708.16 3.06749 3.44533 0
M  V30 48705 H 4706.41 2.93609 3.19337 0
M  V30 48706 H 4707.08 2.70652 4.81094 0
M  V30 48707 H 4709.55 0.934217 4.05477 0
M  V30 48708 H 4708.43 0.795551 5.43104 0
M  V30 48709 H 4708.69 -0.58868 4.38163 0
M  V30 48710 N 4707.75 -1.39754 0.728469 0
M  V30 48711 C 4709 -2.00644 0.273557 0
M  V30 48712 C 4709.32 -1.5779 -1.13722 0
M  V30 48713 O 4708.58 -0.794949 -1.78827 0
M  V30 48714 C 4708.88 -3.56001 0.315901 0
M  V30 48715 C 4708.54 -4.18483 1.67878 0
M  V30 48716 C 4707.21 -4.35263 2.05182 0
M  V30 48717 C 4709.56 -4.5321 2.57391 0
M  V30 48718 C 4706.89 -4.84057 3.3152 0
M  V30 48719 C 4709.24 -5.0341 3.83095 0
M  V30 48720 C 4707.9 -5.18398 4.205 0
M  V30 48721 H 4707.17 -0.734208 0.100102 0
M  V30 48722 H 4709.82 -1.67177 0.934031 0
M  V30 48723 H 4708.12 -3.89454 -0.428148 0
M  V30 48724 H 4709.82 -4.00963 -0.0541165 0
M  V30 48725 H 4706.41 -4.05819 1.37872 0
M  V30 48726 H 4710.59 -4.3987 2.29843 0
M  V30 48727 H 4705.85 -4.93846 3.60452 0
M  V30 48728 H 4710.02 -5.29255 4.52618 0
M  V30 48729 H 4707.65 -5.55969 5.18462 0
M  V30 48730 N 4709.23 -0.475607 -1.50252 0
M  V30 48731 C 4710.5 0.139617 -1.95101 0
M  V30 48732 C 4710.88 1.5655 -1.41617 0
M  V30 48733 O 4710.23 2.19954 -0.61907 0
M  V30 48734 C 4710.44 0.0783072 -3.48912 0
M  V30 48735 C 4711.79 0.264946 -4.23773 0
M  V30 48736 O 4712.81 0.154683 -3.55864 0
M  V30 48737 O 4711.67 0.488135 -5.44316 0
M  V30 48738 H 4708.77 0.109208 -0.819758 0
M  V30 48739 H 4711.31 -0.536333 -1.61002 0
M  V30 48740 H 4710.08 -0.917052 -3.80402 0
M  V30 48741 H 4709.71 0.795518 -3.8956 0
M  V30 48742 N 4710.7 1.56216 -0.208392 0
M  V30 48743 C 4711.65 2.16326 0.720205 0
M  V30 48744 C 4712.64 1.10779 1.16691 0
M  V30 48745 O 4713.83 1.36805 1.12309 0
M  V30 48746 C 4710.96 2.83651 1.93383 0
M  V30 48747 C 4710.05 3.96406 1.50741 0
M  V30 48748 N 4710.44 4.99549 0.792762 0
M  V30 48749 C 4708.73 4.08253 1.79571 0
M  V30 48750 C 4709.44 5.7883 0.577161 0
M  V30 48751 N 4708.41 5.31727 1.12991 0
M  V30 48752 H 4712.21 2.93433 0.165622 0
M  V30 48753 H 4709.73 1.62397 -0.00912172 0
M  V30 48754 H 4711.72 3.25116 2.6097 0
M  V30 48755 H 4710.38 2.08036 2.49301 0
M  V30 48756 H 4711.4 5.15969 0.446822 0
M  V30 48757 H 4708.07 3.43778 2.36903 0
M  V30 48758 H 4709.46 6.71899 0.00929336 0
M  V30 48759 N 4712.18 -0.0651125 1.57465 0
M  V30 48760 C 4713.41 -0.779538 1.92193 0
M  V30 48761 C 4713.83 -1.69985 0.805392 0
M  V30 48762 O 4713.19 -1.79686 -0.241372 0
M  V30 48763 C 4713.24 -1.54352 3.25895 0
M  V30 48764 O 4712.34 -2.65463 3.156 0
M  V30 48765 H 4711.68 -0.212227 0.629171 0
M  V30 48766 H 4714.21 -0.0313574 2.04576 0
M  V30 48767 H 4714.22 -1.92133 3.59929 0
M  V30 48768 H 4712.9 -0.868314 4.06735 0
M  V30 48769 H 4711.48 -2.3049 2.93136 0
M  V30 48770 N 4713.66 -1.53962 -0.336652 0
M  V30 48771 C 4714.91 -1.72733 -1.074 0
M  V30 48772 C 4715.26 -0.48816 -1.86104 0
M  V30 48773 O 4714.55 0.519314 -1.84428 0
M  V30 48774 C 4714.75 -2.935 -2.03942 0
M  V30 48775 C 4714.58 -4.29043 -1.34729 0
M  V30 48776 C 4713.35 -4.9342 -1.08925 0
M  V30 48777 C 4715.55 -5.08504 -0.769936 0
M  V30 48778 N 4713.53 -6.12822 -0.363649 0
M  V30 48779 C 4714.9 -6.19752 -0.175254 0
M  V30 48780 C 4716.95 -4.93352 -0.67146 0
M  V30 48781 C 4715.66 -7.17502 0.508333 0
M  V30 48782 C 4717.68 -5.914 -0.00159969 0
M  V30 48783 C 4717.04 -7.01991 0.582082 0
M  V30 48784 H 4713.14 -0.68504 -0.377153 0
M  V30 48785 H 4715.73 -1.91404 -0.356748 0
M  V30 48786 H 4713.9 -2.76318 -2.72952 0
M  V30 48787 H 4715.63 -3.00959 -2.70566 0
M  V30 48788 H 4712.39 -4.53104 -1.37817 0
M  V30 48789 H 4712.81 -6.76998 -0.0153712 0
M  V30 48790 H 4717.45 -4.08011 -1.10846 0
M  V30 48791 H 4715.17 -8.02411 0.957201 0
M  V30 48792 H 4718.76 -5.81753 0.0740583 0
M  V30 48793 H 4717.64 -7.76557 1.0922 0
M  V30 48794 N 4715.14 0.598031 -1.45813 0
M  V30 48795 C 4716.39 1.35676 -1.50327 0
M  V30 48796 C 4716.71 1.9393 -0.148807 0
M  V30 48797 O 4715.97 1.76097 0.853725 0
M  V30 48798 C 4716.27 2.5166 -2.53775 0
M  V30 48799 C 4715.93 2.11494 -3.98222 0
M  V30 48800 C 4714.6 2.00254 -4.37552 0
M  V30 48801 C 4716.95 1.80291 -4.89024 0
M  V30 48802 C 4714.28 1.56047 -5.65567 0
M  V30 48803 C 4716.63 1.37567 -6.17461 0
M  V30 48804 C 4715.29 1.24893 -6.55712 0
M  V30 48805 H 4714.56 0.496473 -0.550087 0
M  V30 48806 H 4717.21 0.674989 -1.7921 0
M  V30 48807 H 4715.51 3.25217 -2.18497 0
M  V30 48808 H 4717.21 3.09886 -2.54503 0
M  V30 48809 H 4713.8 2.21172 -3.67125 0
M  V30 48810 H 4717.98 1.87867 -4.59369 0
M  V30 48811 H 4713.24 1.44865 -5.9399 0
M  V30 48812 H 4717.41 1.12471 -6.87258 0
M  V30 48813 H 4715.04 0.904121 -7.54804 0
M  V30 48814 N 4716.62 1.33262 0.841362 0
M  V30 48815 C 4717.85 1.27426 1.62623 0
M  V30 48816 C 4718.26 -0.157537 1.88543 0
M  V30 48817 O 4717.6 -1.10933 1.46423 0
M  V30 48818 C 4717.66 1.97807 3.00187 0
M  V30 48819 C 4717.32 3.4712 2.97249 0
M  V30 48820 C 4718.32 4.42367 2.73143 0
M  V30 48821 C 4716.01 3.89258 3.17464 0
M  V30 48822 C 4718 5.77728 2.69276 0
M  V30 48823 C 4715.69 5.24724 3.13222 0
M  V30 48824 C 4716.69 6.1877 2.89159 0
M  V30 48825 O 4716.37 7.51755 2.84816 0
M  V30 48826 H 4716.11 0.440454 0.512812 0
M  V30 48827 H 4718.66 1.76157 1.05631 0
M  V30 48828 H 4716.89 1.43664 3.59023 0
M  V30 48829 H 4718.58 1.85503 3.61031 0
M  V30 48830 H 4719.34 4.11136 2.57279 0
M  V30 48831 H 4715.22 3.16468 3.35215 0
M  V30 48832 H 4718.77 6.51106 2.50413 0
M  V30 48833 H 4714.66 5.5558 3.28635 0
M  V30 48834 H 4715.43 7.61273 3.00676 0
M  V30 48835 N 4718.1 -1.0593 1.1669 0
M  V30 48836 C 4719.34 -1.78797 0.950685 0
M  V30 48837 C 4719.67 -1.87386 -0.521239 0
M  V30 48838 O 4718.93 -1.36443 -1.40292 0
M  V30 48839 C 4719.22 -3.231 1.52779 0
M  V30 48840 C 4718.89 -3.34584 3.02266 0
M  V30 48841 C 4717.55 -3.37425 3.43071 0
M  V30 48842 C 4719.9 -3.36205 3.98266 0
M  V30 48843 C 4717.23 -3.39508 4.78489 0
M  V30 48844 C 4719.58 -3.39826 5.33574 0
M  V30 48845 C 4718.25 -3.40951 5.73854 0
M  V30 48846 H 4717.52 -0.654263 0.34788 0
M  V30 48847 H 4720.17 -1.2455 1.45463 0
M  V30 48848 H 4718.47 -3.80224 0.945374 0
M  V30 48849 H 4720.17 -3.78085 1.33613 0
M  V30 48850 H 4716.76 -3.3308 2.69732 0
M  V30 48851 H 4720.94 -3.33218 3.67804 0
M  V30 48852 H 4716.2 -3.38685 5.09021 0
M  V30 48853 H 4720.37 -3.40028 6.07745 0
M  V30 48854 H 4718 -3.42318 6.78765 0
M  V30 48855 N 4719.57 -0.965962 -1.24527 0
M  V30 48856 C 4720.5 -0.513556 -2.27782 0
M  V30 48857 C 4721.48 0.445916 -1.64151 0
M  V30 48858 O 4722.67 0.342418 -1.91157 0
M  V30 48859 C 4719.8 0.198717 -3.46731 0
M  V30 48860 C 4718.75 -0.676605 -4.22618 0
M  V30 48861 C 4718.08 0.16706 -5.34439 0
M  V30 48862 C 4719.38 -1.96034 -4.84116 0
M  V30 48863 H 4721.07 -1.37659 -2.65877 0
M  V30 48864 H 4718.62 -0.663366 -1.2781 0
M  V30 48865 H 4720.57 0.52642 -4.18099 0
M  V30 48866 H 4719.3 1.09609 -3.07658 0
M  V30 48867 H 4717.96 -0.987554 -3.53048 0
M  V30 48868 H 4717.6 1.06453 -4.91606 0
M  V30 48869 H 4717.3 -0.415387 -5.8613 0
M  V30 48870 H 4718.83 0.489474 -6.08635 0
M  V30 48871 H 4720.24 -1.69833 -5.47567 0
M  V30 48872 H 4718.64 -2.48937 -5.46032 0
M  V30 48873 H 4719.71 -2.65636 -4.05667 0
M  V30 48874 N 4721.05 1.39365 -0.73587 0
M  V30 48875 C 4722.28 2.05318 -0.293124 0
M  V30 48876 C 4722.7 1.55119 1.06394 0
M  V30 48877 O 4722.06 0.69532 1.67437 0
M  V30 48878 C 4722.11 3.59304 -0.305449 0
M  V30 48879 O 4721.21 4.06301 0.706618 0
M  V30 48880 H 4720.55 0.650525 -0.133092 0
M  V30 48881 H 4723.08 1.78383 -1.00204 0
M  V30 48882 H 4723.09 4.07724 -0.150141 0
M  V30 48883 H 4721.77 3.95203 -1.29567 0
M  V30 48884 H 4720.34 3.69293 0.517375 0
M  V30 48885 N 4722.53 0.483569 1.49998 0
M  V30 48886 C 4723.44 -0.30909 2.32555 0
M  V30 48887 C 4724.46 -0.984109 1.43497 0
M  V30 48888 O 4725.63 -0.969336 1.76538 0
M  V30 48889 C 4722.7 -1.36968 3.18497 0
M  V30 48890 C 4721.76 -0.709946 4.23389 0
M  V30 48891 C 4720.99 -1.72 5.05224 0
M  V30 48892 O 4721.21 -2.94796 4.88315 0
M  V30 48893 O 4720.15 -1.28494 5.88025 0
M  V30 48894 H 4723.97 0.36617 3.01484 0
M  V30 48895 H 4721.56 0.245192 1.47374 0
M  V30 48896 H 4723.44 -1.98372 3.71788 0
M  V30 48897 H 4722.12 -2.02819 2.52282 0
M  V30 48898 H 4721.02 -0.0566224 3.74057 0
M  V30 48899 H 4722.36 -0.0941827 4.9211 0
M  V30 48900 N 4724.01 -1.56103 0.216674 0
M  V30 48901 C 4725.24 -2.02271 -0.420731 0
M  V30 48902 C 4725.65 -1.0958 -1.54236 0
M  V30 48903 O 4724.99 -0.0967953 -1.83445 0
M  V30 48904 C 4725.05 -3.44787 -1.01793 0
M  V30 48905 C 4724.71 -4.56989 -0.0323548 0
M  V30 48906 C 4725.71 -5.14223 0.766235 0
M  V30 48907 C 4723.4 -5.02228 0.0849857 0
M  V30 48908 C 4725.39 -6.15163 1.66892 0
M  V30 48909 C 4723.08 -6.03008 0.991206 0
M  V30 48910 C 4724.08 -6.59351 1.78172 0
M  V30 48911 O 4723.76 -7.5817 2.67272 0
M  V30 48912 H 4723.5 -0.667357 -0.107752 0
M  V30 48913 H 4726.05 -2.02746 0.329105 0
M  V30 48914 H 4724.28 -3.41365 -1.81677 0
M  V30 48915 H 4725.97 -3.74632 -1.56224 0
M  V30 48916 H 4726.73 -4.80124 0.686004 0
M  V30 48917 H 4722.61 -4.58056 -0.520188 0
M  V30 48918 H 4726.16 -6.59068 2.28638 0
M  V30 48919 H 4722.05 -6.36528 1.07247 0
M  V30 48920 H 4722.82 -7.75673 2.61292 0
M  V30 48921 N 4725.49 0.0567608 -1.57498 0
M  V30 48922 C 4726.42 1.06586 -2.07754 0
M  V30 48923 C 4727.4 1.39444 -0.974131 0
M  V30 48924 O 4728.58 1.48811 -1.24776 0
M  V30 48925 C 4725.71 2.375 -2.53399 0
M  V30 48926 C 4724.67 2.18957 -3.67753 0
M  V30 48927 C 4723.99 3.55388 -3.99504 0
M  V30 48928 C 4725.29 1.59841 -4.9724 0
M  V30 48929 H 4726.99 0.647603 -2.92312 0
M  V30 48930 H 4724.53 0.310066 -1.40622 0
M  V30 48931 H 4726.48 3.08399 -2.87173 0
M  V30 48932 H 4725.21 2.81334 -1.65888 0
M  V30 48933 H 4723.87 1.50496 -3.34285 0
M  V30 48934 H 4723.52 3.96819 -3.09102 0
M  V30 48935 H 4723.22 3.43814 -4.76514 0
M  V30 48936 H 4724.74 4.27693 -4.35788 0
M  V30 48937 H 4726.15 2.20623 -5.29149 0
M  V30 48938 H 4724.55 1.58922 -5.78674 0
M  V30 48939 H 4725.62 0.561337 -4.8164 0
M  V30 48940 N 4726.96 1.54139 0.328482 0
M  V30 48941 C 4727.9 1.78019 1.42774 0
M  V30 48942 C 4728.87 0.629942 1.49902 0
M  V30 48943 O 4730.06 0.866822 1.67387 0
M  V30 48944 C 4727.19 1.89235 2.80905 0
M  V30 48945 C 4726.23 3.11493 2.91332 0
M  V30 48946 S 4727.06 4.7021 2.56247 0
M  V30 48947 C 4728.22 4.84326 3.96459 0
M  V30 48948 H 4728.45 2.70978 1.22303 0
M  V30 48949 H 4725.99 1.45199 0.525033 0
M  V30 48950 H 4727.94 1.96382 3.60478 0
M  V30 48951 H 4726.61 0.972623 2.98662 0
M  V30 48952 H 4725.8 3.1606 3.92584 0
M  V30 48953 H 4725.4 3.0265 2.19725 0
M  V30 48954 H 4727.69 4.6666 4.91156 0
M  V30 48955 H 4728.64 5.86425 3.96877 0
M  V30 48956 H 4729.04 4.12666 3.85184 0
M  V30 48957 N 4728.44 -0.59029 1.46128 0
M  V30 48958 C 4729.69 -1.34494 1.50314 0
M  V30 48959 C 4730 -1.94976 0.15609 0
M  V30 48960 O 4731.21 -2.71394 0.0756991 0
M  V30 48961 C 4729.67 -2.43714 2.64824 0
M  V30 48962 C 4729.27 -1.89568 4.05916 0
M  V30 48963 C 4731.02 -3.20569 2.78273 0
M  V30 48964 C 4728.92 -2.96372 5.11779 0
M  V30 48965 H 4727.85 -0.505573 0.559385 0
M  V30 48966 H 4730.51 -0.630787 1.72318 0
M  V30 48967 H 4728.89 -3.17893 2.36135 0
M  V30 48968 H 4730.06 -1.21982 4.44361 0
M  V30 48969 H 4728.38 -1.25404 3.97068 0
M  V30 48970 H 4730.97 -4.00263 3.54533 0
M  V30 48971 H 4731.32 -3.72678 1.85519 0
M  V30 48972 H 4731.85 -2.53494 3.06571 0
M  V30 48973 H 4728.59 -2.49159 6.063 0
M  V30 48974 H 4728.11 -3.62471 4.77886 0
M  V30 48975 H 4729.79 -3.60455 5.37291 0
M  V30 48976 N 4729.92 -1.33707 -0.834283 0
M  V30 48977 C 4730.85 -1.20179 -1.95166 0
M  V30 48978 C 4731.86 -0.131629 -1.62267 0
M  V30 48979 O 4733.05 -0.382467 -1.74354 0
M  V30 48980 C 4730.15 -0.821832 -3.28784 0
M  V30 48981 C 4729.33 -1.9846 -3.89785 0
M  V30 48982 C 4728.39 -1.58487 -5.01765 0
M  V30 48983 O 4727.41 -2.29986 -5.20668 0
M  V30 48984 N 4728.61 -0.492494 -5.78407 0
M  V30 48985 H 4731.38 -2.16436 -2.07306 0
M  V30 48986 H 4728.94 -1.26512 -1.01026 0
M  V30 48987 H 4730.93 -0.536432 -4.01129 0
M  V30 48988 H 4729.5 0.0501959 -3.1256 0
M  V30 48989 H 4728.72 -2.43537 -3.09973 0
M  V30 48990 H 4730.01 -2.76251 -4.27274 0
M  V30 48991 H 4729.41 0.10215 -5.65608 0
M  V30 48992 H 4727.96 -0.266784 -6.51254 0
M  V30 48993 N 4731.4 1.0531 -1.1725 0
M  V30 48994 C 4732.33 2.1302 -0.845887 0
M  V30 48995 C 4733.34 1.62096 0.151189 0
M  V30 48996 O 4734.53 1.78343 -0.0749445 0
M  V30 48997 C 4731.63 3.38046 -0.24041 0
M  V30 48998 C 4730.81 4.1825 -1.28006 0
M  V30 48999 C 4729.86 5.21623 -0.692559 0
M  V30 49000 O 4728.89 5.52614 -1.36405 0
M  V30 49001 N 4730.09 5.78202 0.515974 0
M  V30 49002 H 4732.86 2.41635 -1.77292 0
M  V30 49003 H 4730.42 1.21397 -1.07119 0
M  V30 49004 H 4732.41 4.0436 0.165888 0
M  V30 49005 H 4730.98 3.06974 0.590379 0
M  V30 49006 H 4730.2 3.47444 -1.86215 0
M  V30 49007 H 4731.49 4.68636 -1.98135 0
M  V30 49008 H 4730.89 5.55305 1.07949 0
M  V30 49009 H 4729.44 6.46043 0.864353 0
M  V30 49010 N 4732.88 0.972553 1.24013 0
M  V30 49011 C 4734.1 0.654872 1.96263 0
M  V30 49012 C 4734.52 -0.776648 1.72086 0
M  V30 49013 O 4733.88 -1.52167 1.00754 0
M  V30 49014 C 4733.93 0.926042 3.49438 0
M  V30 49015 O 4733.65 2.30129 3.7279 0
M  V30 49016 C 4735.15 0.623223 4.38897 0
M  V30 49017 H 4732.37 0.243929 0.625092 0
M  V30 49018 H 4734.91 1.3018 1.57713 0
M  V30 49019 H 4733.07 0.325243 3.86032 0
M  V30 49020 H 4733.48 2.38499 4.67139 0
M  V30 49021 H 4734.96 0.863381 5.45206 0
M  V30 49022 H 4735.43 -0.4426 4.36964 0
M  V30 49023 H 4736.04 1.20415 4.07898 0
M  V30 49024 N 4734.35 -1.38973 0.74325 0
M  V30 49025 C 4735.77 -1.83121 0.363796 0
M  V30 49026 C 4736.12 -1.62054 -1.10603 0
M  V30 49027 O 4735.24 -1.11613 -1.85396 0
M  V30 49028 C 4735.84 -3.32437 0.653525 0
M  V30 49029 C 4734.4 -3.74973 0.32747 0
M  V30 49030 C 4733.54 -2.61875 0.911967 0
M  V30 49031 H 4736.49 -1.27849 0.940236 0
M  V30 49032 H 4736.51 -3.80432 -0.0718694 0
M  V30 49033 H 4736.03 -3.47739 1.72335 0
M  V30 49034 H 4734.13 -3.65255 -0.736185 0
M  V30 49035 H 4734.24 -4.72103 0.815797 0
M  V30 49036 H 4732.6 -2.52447 0.338033 0
M  V30 49037 H 4733.39 -2.7998 1.98661 0
M  V30 49038 N 4735.83 -0.491517 -1.49739 0
M  V30 49039 C 4737.08 0.0563544 -2.02422 0
M  V30 49040 C 4737.41 1.37867 -1.37197 0
M  V30 49041 O 4736.66 1.89374 -0.493575 0
M  V30 49042 C 4736.96 0.267203 -3.564 0
M  V30 49043 C 4736.63 -0.97593 -4.40212 0
M  V30 49044 C 4735.29 -1.31672 -4.62835 0
M  V30 49045 C 4737.64 -1.80268 -4.89033 0
M  V30 49046 C 4734.97 -2.48394 -5.31524 0
M  V30 49047 C 4737.32 -2.96136 -5.59005 0
M  V30 49048 C 4735.99 -3.30605 -5.79876 0
M  V30 49049 H 4735.26 0.0206215 -0.740713 0
M  V30 49050 H 4737.9 -0.649749 -1.8014 0
M  V30 49051 H 4736.21 1.05575 -3.77308 0
M  V30 49052 H 4737.9 0.70541 -3.94747 0
M  V30 49053 H 4734.49 -0.700464 -4.22837 0
M  V30 49054 H 4738.68 -1.55256 -4.71391 0
M  V30 49055 H 4733.93 -2.75349 -5.45887 0
M  V30 49056 H 4738.11 -3.6053 -5.95811 0
M  V30 49057 H 4735.74 -4.21154 -6.32877 0
M  V30 49058 N 4737.31 1.55986 -0.224949 0
M  V30 49059 C 4738.56 1.98686 0.406432 0
M  V30 49060 C 4738.89 1.11254 1.59173 0
M  V30 49061 O 4738.16 0.170977 1.93747 0
M  V30 49062 C 4738.45 3.50221 0.837685 0
M  V30 49063 C 4738.3 4.48425 -0.35149 0
M  V30 49064 C 4739.62 4.06249 1.69263 0
M  V30 49065 H 4736.74 0.722342 0.146258 0
M  V30 49066 H 4739.38 1.87254 -0.321865 0
M  V30 49067 H 4737.53 3.60094 1.45824 0
M  V30 49068 H 4739.2 4.50558 -0.989685 0
M  V30 49069 H 4737.45 4.22156 -0.998355 0
M  V30 49070 H 4738.12 5.52 -0.00675311 0
M  V30 49071 H 4740.59 3.99341 1.169 0
M  V30 49072 H 4739.47 5.12588 1.96328 0
M  V30 49073 H 4739.73 3.53341 2.65711 0
M  V30 49074 N 4738.79 -0.0484076 1.57526 0
M  V30 49075 C 4740.2 -0.403696 1.5441 0
M  V30 49076 C 4740.4 -1.77783 0.948446 0
M  V30 49077 O 4739.46 -2.46187 0.561069 0
M  V30 49078 C 4740.77 -0.323289 2.98957 0
M  V30 49079 C 4742.32 -0.401783 3.10411 0
M  V30 49080 C 4742.8 -0.351034 4.56653 0
M  V30 49081 N 4744.29 -0.410413 4.61378 0
M  V30 49082 C 4745.02 -0.393732 5.72047 0
M  V30 49083 N 4744.52 -0.330481 6.92011 0
M  V30 49084 N 4746.31 -0.44203 5.60359 0
M  V30 49085 H 4738.46 0.851085 1.94603 0
M  V30 49086 H 4740.73 0.321752 0.891729 0
M  V30 49087 H 4740.43 0.620232 3.46188 0
M  V30 49088 H 4740.31 -1.1245 3.60048 0
M  V30 49089 H 4742.69 -1.33573 2.63139 0
M  V30 49090 H 4742.77 0.428431 2.52187 0
M  V30 49091 H 4742.42 0.579164 5.04587 0
M  V30 49092 H 4742.35 -1.1991 5.12766 0
M  V30 49093 H 4744.84 -0.462597 3.75058 0
M  V30 49094 H 4745.15 -0.322321 7.72128 0
M  V30 49095 H 4743.5 -0.296816 6.94366 0
M  V30 49096 H 4746.69 -0.4893 4.65536 0
M  V30 49097 H 4746.86 -0.425561 6.46601 0
M  V30 49098 N 4740.27 -1.54311 -0.320303 0
M  V30 49099 C 4741.68 -1.45093 -0.664838 0
M  V30 49100 C 4741.88 -0.626449 -1.91515 0
M  V30 49101 O 4740.94 -0.126531 -2.52183 0
M  V30 49102 C 4742.25 -2.88851 -0.835809 0
M  V30 49103 C 4743.8 -2.98773 -0.932941 0
M  V30 49104 C 4744.27 -4.43687 -1.13606 0
M  V30 49105 N 4745.77 -4.47313 -1.20272 0
M  V30 49106 C 4746.5 -5.566 -1.37782 0
M  V30 49107 N 4746 -6.75849 -1.52314 0
M  V30 49108 N 4747.79 -5.44253 -1.40516 0
M  V30 49109 H 4739.94 -2.06396 0.501447 0
M  V30 49110 H 4742.2 -0.933957 0.162567 0
M  V30 49111 H 4741.91 -3.51698 0.0117328 0
M  V30 49112 H 4741.78 -3.35154 -1.73066 0
M  V30 49113 H 4744.17 -2.36051 -1.77098 0
M  V30 49114 H 4744.25 -2.55796 -0.0144883 0
M  V30 49115 H 4743.9 -5.06996 -0.302853 0
M  V30 49116 H 4743.83 -4.84276 -2.06843 0
M  V30 49117 H 4746.32 -3.61392 -1.10472 0
M  V30 49118 H 4746.63 -7.54898 -1.65376 0
M  V30 49119 H 4744.97 -6.78751 -1.49406 0
M  V30 49120 H 4748.17 -4.50042 -1.28761 0
M  V30 49121 H 4748.34 -6.29479 -1.5382 0
M  V30 49122 N 4741.74 0.582532 -1.46439 0
M  V30 49123 C 4742.68 1.70612 -1.53049 0
M  V30 49124 C 4743.69 1.5732 -0.418824 0
M  V30 49125 O 4744.88 1.64742 -0.687193 0
M  V30 49126 C 4741.98 3.08864 -1.39485 0
M  V30 49127 C 4741.15 3.48157 -2.64774 0
M  V30 49128 C 4740.21 4.6547 -2.45407 0
M  V30 49129 O 4739.24 4.71322 -3.19131 0
M  V30 49130 N 4740.44 5.60359 -1.51584 0
M  V30 49131 H 4743.2 1.65396 -2.49928 0
M  V30 49132 H 4740.76 0.768517 -1.42497 0
M  V30 49133 H 4742.76 3.85138 -1.243 0
M  V30 49134 H 4741.33 3.08447 -0.507867 0
M  V30 49135 H 4740.55 2.61587 -2.949 0
M  V30 49136 H 4741.83 3.71176 -3.48003 0
M  V30 49137 H 4741.23 5.58367 -0.907901 0
M  V30 49138 H 4739.79 6.36063 -1.42362 0
M  V30 49139 N 4743.22 1.34147 0.82718 0
M  V30 49140 C 4744.47 1.26451 1.5855 0
M  V30 49141 C 4744.8 -0.166332 1.93486 0
M  V30 49142 O 4744.08 -1.11065 1.59671 0
M  V30 49143 C 4744.36 2.15121 2.88782 0
M  V30 49144 C 4744.21 3.66721 2.60452 0
M  V30 49145 C 4745.53 2.03325 3.90317 0
M  V30 49146 H 4742.65 0.46069 0.575268 0
M  V30 49147 H 4745.29 1.64359 0.953211 0
M  V30 49148 H 4743.44 1.82922 3.42742 0
M  V30 49149 H 4745.11 4.09266 2.12835 0
M  V30 49150 H 4743.36 3.88021 1.93964 0
M  V30 49151 H 4744.03 4.24124 3.53302 0
M  V30 49152 H 4746.5 2.31587 3.45698 0
M  V30 49153 H 4745.38 2.67599 4.79252 0
M  V30 49154 H 4745.64 1.00894 4.30433 0
M  V30 49155 N 4744.7 -1.04686 1.17807 0
M  V30 49156 C 4746.12 -1.2996 0.926424 0
M  V30 49157 C 4746.32 -1.97252 -0.411566 0
M  V30 49158 O 4745.37 -2.24926 -1.14736 0
M  V30 49159 C 4746.69 -2.1644 2.08745 0
M  V30 49160 C 4748.23 -2.29806 2.12504 0
M  V30 49161 C 4748.71 -3.19649 3.28007 0
M  V30 49162 N 4750.2 -3.27236 3.27828 0
M  V30 49163 C 4750.93 -3.96892 4.13841 0
M  V30 49164 N 4750.43 -4.68932 5.09975 0
M  V30 49165 N 4752.22 -3.93108 4.01775 0
M  V30 49166 H 4744.37 -0.59411 2.03922 0
M  V30 49167 H 4746.64 -0.324617 0.890689 0
M  V30 49168 H 4746.34 -1.74293 3.05475 0
M  V30 49169 H 4746.22 -3.17096 2.04279 0
M  V30 49170 H 4748.6 -2.71192 1.16357 0
M  V30 49171 H 4748.69 -1.28762 2.21029 0
M  V30 49172 H 4748.33 -2.78976 4.24423 0
M  V30 49173 H 4748.26 -4.20711 3.16718 0
M  V30 49174 H 4750.75 -2.75912 2.58227 0
M  V30 49175 H 4751.06 -5.19658 5.71992 0
M  V30 49176 H 4749.41 -4.67857 5.1394 0
M  V30 49177 H 4752.6 -3.35956 3.25962 0
M  V30 49178 H 4752.77 -4.47123 4.69026 0
M  V30 49179 N 4746.18 -0.979116 -1.23495 0
M  V30 49180 C 4747.13 -0.517984 -2.24912 0
M  V30 49181 C 4748.1 0.442468 -1.60098 0
M  V30 49182 O 4749.28 0.350299 -1.87557 0
M  V30 49183 C 4746.42 0.174692 -3.44658 0
M  V30 49184 C 4745.53 -0.82587 -4.24032 0
M  V30 49185 C 4744.67 -0.108133 -5.3109 0
M  V30 49186 C 4743.71 -1.09799 -6.02171 0
M  V30 49187 N 4742.85 -0.409497 -7.00905 0
M  V30 49188 H 4747.69 -1.38761 -2.63722 0
M  V30 49189 H 4745.22 -0.695349 -1.29628 0
M  V30 49190 H 4747.18 0.593088 -4.12963 0
M  V30 49191 H 4745.81 1.00819 -3.06652 0
M  V30 49192 H 4744.86 -1.36266 -3.55156 0
M  V30 49193 H 4746.17 -1.58022 -4.73107 0
M  V30 49194 H 4745.33 0.367692 -6.05585 0
M  V30 49195 H 4744.07 0.678824 -4.82953 0
M  V30 49196 H 4743.07 -1.58458 -5.2647 0
M  V30 49197 H 4744.3 -1.88559 -6.52397 0
M  V30 49198 H 4742.24 0.358275 -6.55021 0
M  V30 49199 H 4742.16 -1.10252 -7.47917 0
M  V30 49200 H 4743.43 0.0439817 -7.79488 0
M  V30 49201 N 4747.66 1.38577 -0.75061 0
M  V30 49202 C 4748.59 2.33102 -0.136319 0
M  V30 49203 C 4749.57 1.54715 0.70691 0
M  V30 49204 O 4750.75 1.83045 0.648705 0
M  V30 49205 C 4747.88 3.38885 0.759897 0
M  V30 49206 C 4746.84 4.27995 0.019628 0
M  V30 49207 C 4746.16 5.24609 1.0339 0
M  V30 49208 C 4747.46 5.0955 -1.14702 0
M  V30 49209 H 4749.16 2.84723 -0.925922 0
M  V30 49210 H 4746.7 1.36896 -0.446703 0
M  V30 49211 H 4748.66 4.03974 1.19929 0
M  V30 49212 H 4747.38 2.85739 1.58179 0
M  V30 49213 H 4746.04 3.64408 -0.400312 0
M  V30 49214 H 4745.69 4.67753 1.84977 0
M  V30 49215 H 4745.39 5.85083 0.543258 0
M  V30 49216 H 4746.91 5.92575 1.47267 0
M  V30 49217 H 4748.33 5.67896 -0.785318 0
M  V30 49218 H 4746.72 5.79244 -1.56832 0
M  V30 49219 H 4747.79 4.43463 -1.96134 0
M  V30 49220 N 4749.14 0.499451 1.49477 0
M  V30 49221 C 4750.07 -0.269162 2.31943 0
M  V30 49222 C 4751.05 -0.964005 1.40146 0
M  V30 49223 O 4752.23 -0.955708 1.69056 0
M  V30 49224 C 4749.36 -1.33493 3.2062 0
M  V30 49225 C 4748.32 -0.760054 4.21197 0
M  V30 49226 C 4747.64 -1.92623 4.98799 0
M  V30 49227 C 4748.94 0.247844 5.21712 0
M  V30 49228 H 4750.64 0.419186 2.96451 0
M  V30 49229 H 4748.18 0.203038 1.42561 0
M  V30 49230 H 4750.13 -1.88034 3.77122 0
M  V30 49231 H 4748.86 -2.05244 2.54052 0
M  V30 49232 H 4747.52 -0.236402 3.65837 0
M  V30 49233 H 4747.17 -2.63139 4.28681 0
M  V30 49234 H 4746.87 -1.54765 5.66852 0
M  V30 49235 H 4748.39 -2.476 5.58145 0
M  V30 49236 H 4749.8 -0.209378 5.72918 0
M  V30 49237 H 4748.2 0.542172 5.97646 0
M  V30 49238 H 4749.27 1.16425 4.70716 0
M  V30 49239 N 4750.61 -1.55865 0.233218 0
M  V30 49240 C 4751.54 -2.23785 -0.66652 0
M  V30 49241 C 4752.52 -1.21348 -1.19201 0
M  V30 49242 O 4753.71 -1.49965 -1.23387 0
M  V30 49243 C 4750.84 -2.92678 -1.86968 0
M  V30 49244 C 4749.79 -4.01687 -1.47754 0
M  V30 49245 C 4749.12 -4.57935 -2.76042 0
M  V30 49246 C 4750.42 -5.18128 -0.658811 0
M  V30 49247 H 4752.11 -2.99232 -0.1002 0
M  V30 49248 H 4749.66 -1.43924 -0.0467534 0
M  V30 49249 H 4751.61 -3.38889 -2.50465 0
M  V30 49250 H 4750.34 -2.14697 -2.46115 0
M  V30 49251 H 4749 -3.56225 -0.865981 0
M  V30 49252 H 4748.64 -3.76671 -3.33359 0
M  V30 49253 H 4748.34 -5.31514 -2.50534 0
M  V30 49254 H 4749.87 -5.06871 -3.40461 0
M  V30 49255 H 4751.28 -5.60648 -1.19775 0
M  V30 49256 H 4749.68 -5.98011 -0.500342 0
M  V30 49257 H 4750.75 -4.83762 0.332026 0
M  V30 49258 N 4752.09 0.0400529 -1.57549 0
M  V30 49259 C 4753.34 0.733058 -1.88766 0
M  V30 49260 C 4753.67 1.75943 -0.82912 0
M  V30 49261 O 4752.92 1.94949 0.171254 0
M  V30 49262 C 4753.22 1.4489 -3.26713 0
M  V30 49263 C 4752.89 0.55955 -4.47415 0
M  V30 49264 C 4751.55 0.314562 -4.80171 0
M  V30 49265 C 4753.9 -0.0551575 -5.21171 0
M  V30 49266 C 4751.23 -0.554091 -5.84078 0
M  V30 49267 C 4753.58 -0.911449 -6.25999 0
M  V30 49268 C 4752.24 -1.166 -6.57237 0
M  V30 49269 H 4751.51 0.268245 -0.690743 0
M  V30 49270 H 4754.16 -0.0068614 -1.91499 0
M  V30 49271 H 4752.47 2.26186 -3.19918 0
M  V30 49272 H 4754.16 1.99046 -3.48112 0
M  V30 49273 H 4750.75 0.760645 -4.21796 0
M  V30 49274 H 4754.94 0.12117 -4.96152 0
M  V30 49275 H 4750.19 -0.759732 -6.06661 0
M  V30 49276 H 4754.37 -1.39434 -6.82298 0
M  V30 49277 H 4751.99 -1.84084 -7.37575 0
M  V30 49278 N 4753.57 1.54478 0.312115 0
M  V30 49279 C 4754.82 1.72441 1.04627 0
M  V30 49280 C 4755.13 0.511229 1.88801 0
M  V30 49281 O 4756.34 0.572434 2.65397 0
M  V30 49282 C 4754.79 3.05049 1.90979 0
M  V30 49283 C 4754.4 4.3381 1.11861 0
M  V30 49284 C 4756.15 3.32373 2.64061 0
M  V30 49285 C 4754.05 5.57474 1.97425 0
M  V30 49286 H 4752.98 0.642661 0.394338 0
M  V30 49287 H 4755.63 1.80967 0.303866 0
M  V30 49288 H 4754.02 2.9046 2.69163 0
M  V30 49289 H 4755.19 4.592 0.383681 0
M  V30 49290 H 4753.5 4.13337 0.504106 0
M  V30 49291 H 4756.1 4.21962 3.28408 0
M  V30 49292 H 4756.44 2.50756 3.32306 0
M  V30 49293 H 4756.98 3.47882 1.92932 0
M  V30 49294 H 4753.72 6.41726 1.3367 0
M  V30 49295 H 4753.24 5.36286 2.68621 0
M  V30 49296 H 4754.92 5.94312 2.55739 0
M  V30 49297 N 4755.05 -0.574758 1.46746 0
M  V30 49298 C 4756.29 -1.34364 1.54032 0
M  V30 49299 C 4756.65 -1.91051 0.19071 0
M  V30 49300 O 4757.85 -2.68444 0.138349 0
M  V30 49301 C 4756.12 -2.43697 2.61431 0
M  V30 49302 S 4757.68 -3.30905 2.88179 0
M  V30 49303 H 4754.5 -0.45766 0.544121 0
M  V30 49304 H 4757.1 -0.659895 1.84026 0
M  V30 49305 H 4755.81 -2.00457 3.58113 0
M  V30 49306 H 4755.34 -3.16834 2.33195 0
M  V30 49307 H 4757.35 -4.42735 2.24055 0
M  V30 49308 N 4756.53 -1.34584 -0.820054 0
M  V30 49309 C 4757.77 -1.26851 -1.57332 0
M  V30 49310 C 4758.09 0.160599 -1.94338 0
M  V30 49311 O 4757.36 1.0939 -1.62514 0
M  V30 49312 H 4755.94 -0.466535 -0.583399 0
M  V30 49313 H 4758.61 -1.6853 -0.978968 0
M  V30 49314 H 4757.7 -1.87521 -2.49484 0
M  V30 49315 N 4758 1.0406 -1.18361 0
M  V30 49316 C 4759.23 1.8145 -1.00451 0
M  V30 49317 C 4759.65 1.82825 0.442358 0
M  V30 49318 O 4759.01 1.24559 1.31737 0
M  V30 49319 C 4759.06 3.2492 -1.56395 0
M  V30 49320 O 4758.16 4.04853 -0.785351 0
M  V30 49321 H 4757.5 0.560592 -0.355855 0
M  V30 49322 H 4760.03 1.31053 -1.57119 0
M  V30 49323 H 4760.04 3.75697 -1.5911 0
M  V30 49324 H 4758.72 3.23234 -2.6171 0
M  V30 49325 H 4757.3 3.63534 -0.830526 0
M  V30 49326 N 4759.48 0.985651 1.22974 0
M  V30 49327 C 4760.43 0.529904 2.24634 0
M  V30 49328 C 4761.4 -0.433972 1.60331 0
M  V30 49329 O 4762.58 -0.340348 1.8774 0
M  V30 49330 C 4759.72 -0.156411 3.44745 0
M  V30 49331 C 4758.84 0.848346 4.23588 0
M  V30 49332 C 4757.97 0.136296 5.31025 0
M  V30 49333 C 4757.01 1.12991 6.01581 0
M  V30 49334 N 4756.15 0.446662 7.00678 0
M  V30 49335 H 4760.99 1.40157 2.62983 0
M  V30 49336 H 4758.52 0.702213 1.29257 0
M  V30 49337 H 4760.48 -0.571179 4.13272 0
M  V30 49338 H 4759.11 -0.991917 3.07182 0
M  V30 49339 H 4758.16 1.38147 3.54428 0
M  V30 49340 H 4759.48 1.60528 4.72263 0
M  V30 49341 H 4758.63 -0.335571 6.05771 0
M  V30 49342 H 4757.37 -0.653203 4.83306 0
M  V30 49343 H 4756.37 1.61248 5.25623 0
M  V30 49344 H 4757.6 1.92016 6.51388 0
M  V30 49345 H 4755.55 -0.323533 6.55202 0
M  V30 49346 H 4755.46 1.14217 7.47322 0
M  V30 49347 H 4756.73 -0.00264293 7.795 0
M  V30 49348 N 4760.96 -1.38177 0.757949 0
M  V30 49349 C 4761.87 -2.34209 0.13533 0
M  V30 49350 C 4762.89 -1.5949 -0.695627 0
M  V30 49351 O 4764.06 -1.91659 -0.618765 0
M  V30 49352 C 4761.13 -3.38623 -0.74402 0
M  V30 49353 C 4760.19 -4.29179 0.101809 0
M  V30 49354 C 4759.42 -5.28605 -0.735665 0
M  V30 49355 O 4759.64 -5.35173 -1.97347 0
M  V30 49356 O 4758.58 -6.01708 -0.152161 0
M  V30 49357 H 4762.4 -2.89157 0.928537 0
M  V30 49358 H 4759.99 -1.40099 0.518904 0
M  V30 49359 H 4761.87 -4.02544 -1.24646 0
M  V30 49360 H 4760.55 -2.86024 -1.51565 0
M  V30 49361 H 4759.45 -3.68405 0.650297 0
M  V30 49362 H 4760.79 -4.85045 0.836195 0
M  V30 49363 N 4762.44 -0.507371 -1.4921 0
M  V30 49364 C 4763.39 0.267647 -2.29243 0
M  V30 49365 C 4764.36 0.954562 -1.35931 0
M  V30 49366 O 4765.54 0.959988 -1.6489 0
M  V30 49367 C 4762.68 1.32232 -3.18761 0
M  V30 49368 C 4761.79 0.64654 -4.27134 0
M  V30 49369 C 4760.93 1.6822 -5.03861 0
M  V30 49370 C 4759.97 0.988638 -6.04063 0
M  V30 49371 N 4759.1 1.96879 -6.73931 0
M  V30 49372 H 4763.94 -0.421071 -2.9501 0
M  V30 49373 H 4761.48 -0.219494 -1.45453 0
M  V30 49374 H 4763.44 1.94586 -3.69042 0
M  V30 49375 H 4762.07 1.97972 -2.54965 0
M  V30 49376 H 4761.12 -0.0904263 -3.80293 0
M  V30 49377 H 4762.43 0.100882 -4.98698 0
M  V30 49378 H 4761.59 2.38062 -5.58043 0
M  V30 49379 H 4760.33 2.26172 -4.32085 0
M  V30 49380 H 4759.33 0.276029 -5.49107 0
M  V30 49381 H 4760.56 0.415529 -6.77828 0
M  V30 49382 H 4758.5 2.53782 -6.04922 0
M  V30 49383 H 4758.42 1.47397 -7.41492 0
M  V30 49384 H 4759.69 2.6599 -7.32714 0
M  V30 49385 N 4763.92 1.55739 -0.241481 0
M  V30 49386 C 4765.15 2.02914 0.388499 0
M  V30 49387 C 4765.55 1.1202 1.52474 0
M  V30 49388 O 4764.9 0.125967 1.83268 0
M  V30 49389 C 4764.96 3.46363 0.962953 0
M  V30 49390 C 4764.62 4.56982 -0.0403522 0
M  V30 49391 C 4765.62 5.12938 -0.847947 0
M  V30 49392 C 4763.31 5.02029 -0.164875 0
M  V30 49393 C 4765.3 6.1243 -1.76657 0
M  V30 49394 C 4762.99 6.01354 -1.08701 0
M  V30 49395 C 4763.98 6.56433 -1.88639 0
M  V30 49396 O 4763.67 7.53822 -2.793 0
M  V30 49397 H 4763.4 0.668987 0.0971217 0
M  V30 49398 H 4765.96 2.02197 -0.361319 0
M  V30 49399 H 4764.19 3.44213 1.76223 0
M  V30 49400 H 4765.88 3.7707 1.50244 0
M  V30 49401 H 4766.64 4.78972 -0.762301 0
M  V30 49402 H 4762.52 4.58825 0.447249 0
M  V30 49403 H 4766.07 6.55347 -2.39094 0
M  V30 49404 H 4761.96 6.34742 -1.1736 0
M  V30 49405 H 4762.73 7.71418 -2.73599 0
M  V30 49406 N 4765.39 -0.0316971 1.57568 0
M  V30 49407 C 4766.81 -0.387296 1.5483 0
M  V30 49408 C 4767.01 -1.76767 0.967249 0
M  V30 49409 O 4766.07 -2.45579 0.587149 0
M  V30 49410 C 4767.38 -0.291562 2.99283 0
M  V30 49411 C 4768.93 -0.368837 3.10819 0
M  V30 49412 C 4769.4 -0.30258 4.56999 0
M  V30 49413 N 4770.89 -0.361455 4.61788 0
M  V30 49414 C 4771.63 -0.333037 5.72432 0
M  V30 49415 N 4771.12 -0.257065 6.92323 0
M  V30 49416 N 4772.92 -0.382571 5.60797 0
M  V30 49417 H 4765.07 0.871677 1.93689 0
M  V30 49418 H 4767.33 0.331192 0.888266 0
M  V30 49419 H 4767.04 0.656915 3.45511 0
M  V30 49420 H 4766.91 -1.08625 3.61221 0
M  V30 49421 H 4769.3 -1.30775 2.64541 0
M  V30 49422 H 4769.38 0.455154 2.51718 0
M  V30 49423 H 4769.02 0.63265 5.03944 0
M  V30 49424 H 4768.95 -1.14464 5.14009 0
M  V30 49425 H 4771.44 -0.422791 3.75527 0
M  V30 49426 H 4771.76 -0.240408 7.72426 0
M  V30 49427 H 4770.1 -0.223152 6.94642 0
M  V30 49428 H 4773.29 -0.439896 4.66028 0
M  V30 49429 H 4773.47 -0.356956 6.47016 0
M  V30 49430 N 4766.87 -1.54642 -0.303919 0
M  V30 49431 C 4767.8 -1.81759 -1.3963 0
M  V30 49432 C 4768.82 -0.700402 -1.46963 0
M  V30 49433 O 4770.01 -0.977833 -1.49334 0
M  V30 49434 C 4767.11 -1.93794 -2.78023 0
M  V30 49435 C 4766.28 -3.24166 -2.93658 0
M  V30 49436 C 4765.34 -3.26655 -4.12532 0
M  V30 49437 O 4764.36 -4.00201 -4.04756 0
M  V30 49438 N 4765.57 -2.51838 -5.23028 0
M  V30 49439 H 4768.33 -2.76035 -1.16725 0
M  V30 49440 H 4765.89 -1.5418 -0.493978 0
M  V30 49441 H 4767.88 -1.92864 -3.55789 0
M  V30 49442 H 4766.45 -1.06526 -2.9389 0
M  V30 49443 H 4765.67 -3.37894 -2.0303 0
M  V30 49444 H 4766.96 -4.10206 -3.01012 0
M  V30 49445 H 4766.36 -1.91711 -5.32225 0
M  V30 49446 H 4764.92 -2.56665 -5.99138 0
M  V30 49447 N 4768.35 0.566968 -1.47048 0
M  V30 49448 C 4769.28 1.68476 -1.61673 0
M  V30 49449 C 4770.26 1.63579 -0.466476 0
M  V30 49450 O 4771.45 1.81352 -0.694638 0
M  V30 49451 C 4768.58 3.07119 -1.62158 0
M  V30 49452 C 4767.53 3.26857 -2.76312 0
M  V30 49453 C 4766.86 4.66187 -2.61866 0
M  V30 49454 C 4768.16 3.13171 -4.17997 0
M  V30 49455 H 4769.85 1.56493 -2.55246 0
M  V30 49456 H 4767.4 0.751443 -1.22839 0
M  V30 49457 H 4769.35 3.85154 -1.70981 0
M  V30 49458 H 4768.07 3.20038 -0.651399 0
M  V30 49459 H 4766.73 2.51227 -2.66984 0
M  V30 49460 H 4766.38 4.75893 -1.62896 0
M  V30 49461 H 4766.08 4.80344 -3.38442 0
M  V30 49462 H 4767.6 5.4637 -2.72603 0
M  V30 49463 H 4769.02 3.81033 -4.28353 0
M  V30 49464 H 4767.42 3.38842 -4.95284 0
M  V30 49465 H 4768.49 2.10042 -4.37048 0
M  V30 49466 N 4769.83 1.35017 0.812906 0
M  V30 49467 C 4771.24 1.14917 1.10753 0
M  V30 49468 C 4771.44 -0.0426109 2.01455 0
M  V30 49469 O 4770.5 -0.715127 2.42161 0
M  V30 49470 C 4771.81 2.44917 1.74459 0
M  V30 49471 C 4773.36 2.51066 1.86908 0
M  V30 49472 C 4773.84 3.81094 2.54031 0
M  V30 49473 N 4775.33 3.8231 2.61521 0
M  V30 49474 C 4776.06 4.79645 3.1421 0
M  V30 49475 N 4775.56 5.87366 3.67386 0
M  V30 49476 N 4777.35 4.67089 3.12705 0
M  V30 49477 H 4769.5 2.11361 0.209816 0
M  V30 49478 H 4771.77 0.935133 0.15566 0
M  V30 49479 H 4771.47 3.32271 1.15278 0
M  V30 49480 H 4771.35 2.58999 2.74225 0
M  V30 49481 H 4773.73 1.64146 2.45235 0
M  V30 49482 H 4773.81 2.40904 0.860158 0
M  V30 49483 H 4773.46 4.68409 1.96355 0
M  V30 49484 H 4773.39 3.88542 3.55447 0
M  V30 49485 H 4775.88 3.04473 2.23841 0
M  V30 49486 H 4776.19 6.57639 4.05871 0
M  V30 49487 H 4774.54 5.91067 3.65602 0
M  V30 49488 H 4777.73 3.82076 2.70435 0
M  V30 49489 H 4777.9 5.4311 3.53462 0
M  V30 49490 N 4771.31 -1.03431 1.18911 0
M  V30 49491 C 4772.58 -1.73775 0.897871 0
M  V30 49492 C 4772.96 -2.0246 -0.59776 0
M  V30 49493 O 4772.31 -1.67488 -1.55435 0
M  V30 49494 C 4772.52 -3.01839 1.75197 0
M  V30 49495 C 4773.87 -3.75453 1.98293 0
M  V30 49496 O 4774.89 -3.11753 1.72303 0
M  V30 49497 O 4773.75 -4.89957 2.42083 0
M  V30 49498 H 4770.85 -0.756498 0.334125 0
M  V30 49499 H 4773.39 -1.09439 1.29697 0
M  V30 49500 H 4772.16 -2.76827 2.76555 0
M  V30 49501 H 4771.79 -3.73914 1.35181 0
M  V30 49502 N 4772.78 -0.992159 -1.2245 0
M  V30 49503 C 4773.71 -0.561756 -2.26642 0
M  V30 49504 C 4774.7 0.410997 -1.6506 0
M  V30 49505 O 4775.88 0.301793 -1.91841 0
M  V30 49506 C 4773.01 0.125125 -3.47075 0
M  V30 49507 C 4771.96 -0.766096 -4.21088 0
M  V30 49508 C 4771.29 0.0536605 -5.34673 0
M  V30 49509 C 4772.59 -2.06259 -4.79849 0
M  V30 49510 H 4774.28 -1.43268 -2.62897 0
M  V30 49511 H 4771.83 -0.690328 -1.26374 0
M  V30 49512 H 4773.78 0.437616 -4.19122 0
M  V30 49513 H 4772.51 1.03058 -3.09914 0
M  V30 49514 H 4771.17 -1.06222 -3.50874 0
M  V30 49515 H 4770.81 0.960014 -4.93754 0
M  V30 49516 H 4770.51 -0.53962 -5.85117 0
M  V30 49517 H 4772.04 0.360263 -6.09536 0
M  V30 49518 H 4773.45 -1.8141 -5.43841 0
M  V30 49519 H 4771.85 -2.60463 -5.40628 0
M  V30 49520 H 4772.92 -2.74181 -3.99941 0
M  V30 49521 N 4774.26 1.37773 -0.765266 0
M  V30 49522 C 4775.21 2.2768 -0.12083 0
M  V30 49523 C 4776.2 1.45781 0.680936 0
M  V30 49524 O 4777.39 1.68401 0.544974 0
M  V30 49525 C 4774.52 3.34725 0.762509 0
M  V30 49526 C 4773.6 4.24074 -0.0467372 0
M  V30 49527 N 4773.99 4.93936 -1.08909 0
M  V30 49528 C 4772.29 4.45644 0.178261 0
M  V30 49529 C 4772.99 5.59839 -1.5797 0
M  V30 49530 N 4771.97 5.36215 -0.892986 0
M  V30 49531 H 4775.77 2.79163 -0.918987 0
M  V30 49532 H 4773.29 1.50814 -0.602406 0
M  V30 49533 H 4775.28 3.98035 1.23991 0
M  V30 49534 H 4773.94 2.84798 1.55948 0
M  V30 49535 H 4774.95 4.96567 -1.47112 0
M  V30 49536 H 4771.63 4.06603 0.947657 0
M  V30 49537 H 4773.02 6.25694 -2.4486 0
M  V30 49538 N 4775.74 0.515277 1.48938 0
M  V30 49539 C 4776.97 -0.0205306 2.0689 0
M  V30 49540 C 4777.38 -1.29509 1.37378 0
M  V30 49541 O 4776.74 -1.76696 0.456591 0
M  V30 49542 C 4776.79 -0.263384 3.60539 0
M  V30 49543 O 4776.51 0.960667 4.27437 0
M  V30 49544 C 4778.01 -0.84123 4.35245 0
M  V30 49545 H 4775.23 0.0268844 0.670461 0
M  V30 49546 H 4777.78 0.716719 1.91529 0
M  V30 49547 H 4775.93 -0.950645 3.75555 0
M  V30 49548 H 4776.35 0.732303 5.19363 0
M  V30 49549 H 4777.82 -0.960659 5.43576 0
M  V30 49550 H 4778.3 -1.84256 3.98681 0
M  V30 49551 H 4778.9 -0.190994 4.24871 0
M  V30 49552 N 4777.22 -1.55609 0.249737 0
M  V30 49553 C 4778.15 -2.24479 -0.642747 0
M  V30 49554 C 4779.13 -1.22605 -1.17907 0
M  V30 49555 O 4780.32 -1.51265 -1.21789 0
M  V30 49556 C 4777.45 -2.94645 -1.83853 0
M  V30 49557 C 4776.4 -4.03232 -1.43485 0
M  V30 49558 C 4775.73 -4.60838 -2.71169 0
M  V30 49559 C 4777.03 -5.18798 -0.603819 0
M  V30 49560 H 4778.72 -2.99322 -0.0684573 0
M  V30 49561 H 4776.27 -1.43966 -0.0314857 0
M  V30 49562 H 4778.22 -3.41526 -2.46856 0
M  V30 49563 H 4776.94 -2.17295 -2.43824 0
M  V30 49564 H 4775.6 -3.57124 -0.828149 0
M  V30 49565 H 4775.25 -3.80185 -3.29345 0
M  V30 49566 H 4774.95 -5.34141 -2.44882 0
M  V30 49567 H 4776.47 -5.10454 -3.35066 0
M  V30 49568 H 4777.89 -5.61887 -1.13822 0
M  V30 49569 H 4776.28 -5.98508 -0.436887 0
M  V30 49570 H 4777.35 -4.83383 0.383317 0
M  V30 49571 N 4778.7 0.0233405 -1.57583 0
M  V30 49572 C 4779.97 0.74873 -1.80702 0
M  V30 49573 C 4780.35 1.93267 -0.849174 0
M  V30 49574 O 4779.7 2.28248 0.107388 0
M  V30 49575 C 4779.91 1.1764 -3.28576 0
M  V30 49576 C 4781.26 1.58994 -3.93708 0
M  V30 49577 O 4782.28 1.27082 -3.32759 0
M  V30 49578 O 4781.14 2.18246 -5.0103 0
M  V30 49579 H 4778.24 0.362551 -0.743294 0
M  V30 49580 H 4780.78 -0.000321616 -1.697 0
M  V30 49581 H 4779.56 0.331466 -3.89894 0
M  V30 49582 H 4779.18 1.98529 -3.44488 0
M  V30 49583 N 4780.18 1.54801 0.295713 0
M  V30 49584 C 4781.4 1.78657 1.0534 0
M  V30 49585 C 4781.83 0.546958 1.79972 0
M  V30 49586 O 4781.18 -0.502701 1.74191 0
M  V30 49587 C 4781.23 2.99687 2.0055 0
M  V30 49588 O 4780.34 2.73181 3.08943 0
M  V30 49589 H 4779.68 0.591171 0.302346 0
M  V30 49590 H 4782.21 2.01896 0.331527 0
M  V30 49591 H 4782.22 3.27801 2.4292 0
M  V30 49592 H 4780.89 3.89568 1.45636 0
M  V30 49593 H 4779.47 2.56098 2.7105 0
M  V30 49594 N 4781.65 -0.559161 1.47347 0
M  V30 49595 C 4782.6 -1.66187 1.56096 0
M  V30 49596 C 4783.59 -1.55321 0.420012 0
M  V30 49597 O 4784.78 -1.63837 0.669819 0
M  V30 49598 C 4781.91 -3.04964 1.57645 0
M  V30 49599 C 4780.99 -3.2104 2.77117 0
M  V30 49600 N 4781.39 -3.07188 4.01832 0
M  V30 49601 C 4779.68 -3.52036 2.73837 0
M  V30 49602 C 4780.38 -3.25902 4.81832 0
M  V30 49603 N 4779.36 -3.52146 4.14118 0
M  V30 49604 H 4783.16 -1.54043 2.50296 0
M  V30 49605 H 4780.68 -0.763863 1.43314 0
M  V30 49606 H 4782.67 -3.84137 1.62002 0
M  V30 49607 H 4781.33 -3.18221 0.645393 0
M  V30 49608 H 4782.34 -2.84557 4.32722 0
M  V30 49609 H 4779.02 -3.71832 1.89861 0
M  V30 49610 H 4780.41 -3.20177 5.90708 0
M  V30 49611 N 4783.13 -1.35446 -0.805734 0
M  V30 49612 C 4784.38 -1.28958 -1.56518 0
M  V30 49613 C 4784.71 0.135529 -1.93727 0
M  V30 49614 O 4783.99 1.0851 -1.61418 0
M  V30 49615 C 4784.27 -2.19688 -2.85323 0
M  V30 49616 C 4784.12 -3.70819 -2.54585 0
M  V30 49617 C 4785.44 -2.09509 -3.87033 0
M  V30 49618 H 4782.56 -0.469784 -0.567866 0
M  V30 49619 H 4785.2 -1.65855 -0.926942 0
M  V30 49620 H 4783.35 -1.88352 -3.39788 0
M  V30 49621 H 4785.02 -4.12601 -2.06297 0
M  V30 49622 H 4783.27 -3.91058 -1.87766 0
M  V30 49623 H 4783.94 -4.29691 -3.4651 0
M  V30 49624 H 4786.41 -2.37057 -3.4197 0
M  V30 49625 H 4785.29 -2.75189 -4.74934 0
M  V30 49626 H 4785.55 -1.07729 -4.28774 0
M  V30 49627 N 4784.61 1.02799 -1.19458 0
M  V30 49628 C 4786.03 1.28469 -0.946983 0
M  V30 49629 C 4786.23 1.97882 0.380133 0
M  V30 49630 O 4785.28 2.26723 1.11143 0
M  V30 49631 C 4786.59 2.13092 -2.12161 0
M  V30 49632 C 4788.14 2.26396 -2.16134 0
M  V30 49633 C 4788.62 3.14391 -3.3305 0
M  V30 49634 N 4790.11 3.21979 -3.32992 0
M  V30 49635 C 4790.84 3.90258 -4.20103 0
M  V30 49636 N 4790.34 4.60759 -5.17371 0
M  V30 49637 N 4792.13 3.86666 -4.07978 0
M  V30 49638 H 4784.28 0.561593 -2.04841 0
M  V30 49639 H 4786.55 0.310406 -0.895741 0
M  V30 49640 H 4786.25 1.69411 -3.08209 0
M  V30 49641 H 4786.13 3.13806 -2.09298 0
M  V30 49642 H 4788.51 2.69307 -1.20656 0
M  V30 49643 H 4788.59 1.25229 -2.2305 0
M  V30 49644 H 4788.24 2.72189 -4.28807 0
M  V30 49645 H 4788.17 4.15619 -3.23371 0
M  V30 49646 H 4790.66 2.71769 -2.62584 0
M  V30 49647 H 4790.97 5.10493 -5.80187 0
M  V30 49648 H 4789.32 4.59622 -5.21319 0
M  V30 49649 H 4792.51 3.30727 -3.31266 0
M  V30 49650 H 4792.68 4.39604 -4.7608 0
M  V30 49651 N 4786.09 0.998639 1.21922 0
M  V30 49652 C 4787.34 0.676392 1.90445 0
M  V30 49653 C 4787.66 -0.794657 1.78074 0
M  V30 49654 O 4786.93 -1.57006 1.17158 0
M  V30 49655 H 4785.51 0.24719 0.704916 0
M  V30 49656 H 4788.17 1.26638 1.48151 0
M  V30 49657 H 4787.26 0.943963 2.97482 0
M  V30 49658 N 4787.57 -1.37365 0.772562 0
M  V30 49659 C 4788.81 -1.98917 0.333931 0
M  V30 49660 C 4789.13 -1.62021 -1.09583 0
M  V30 49661 O 4790.33 -2.16682 -1.63589 0
M  V30 49662 C 4788.79 -3.55733 0.546096 0
M  V30 49663 C 4788.4 -4.01566 1.98617 0
M  V30 49664 C 4790.14 -4.24155 0.171128 0
M  V30 49665 C 4788.05 -5.51095 2.14589 0
M  V30 49666 H 4786.98 -0.74421 0.121111 0
M  V30 49667 H 4789.63 -1.56885 0.951805 0
M  V30 49668 H 4788.01 -3.95748 -0.141248 0
M  V30 49669 H 4789.19 -3.72794 2.70853 0
M  V30 49670 H 4787.5 -3.45929 2.31781 0
M  V30 49671 H 4790.1 -5.34023 0.268968 0
M  V30 49672 H 4790.44 -4.06921 -0.878712 0
M  V30 49673 H 4790.97 -3.89444 0.811051 0
M  V30 49674 H 4787.71 -5.73257 3.17895 0
M  V30 49675 H 4787.23 -5.81549 1.46837 0
M  V30 49676 H 4788.91 -6.17076 1.9449 0
M  V30 49677 N 4789.04 -0.523168 -1.48663 0
M  V30 49678 C 4789.99 0.243318 -2.29514 0
M  V30 49679 C 4790.96 0.940091 -1.36936 0
M  V30 49680 O 4792.15 0.942445 -1.65899 0
M  V30 49681 C 4789.29 1.28844 -3.20146 0
M  V30 49682 C 4788.4 0.6012 -4.27796 0
M  V30 49683 C 4787.53 1.62866 -5.05616 0
M  V30 49684 C 4786.57 0.924513 -6.05078 0
M  V30 49685 N 4785.71 1.8972 -6.75981 0
M  V30 49686 H 4790.55 -0.452338 -2.94547 0
M  V30 49687 H 4788.09 -0.234909 -1.45212 0
M  V30 49688 H 4790.04 1.90661 -3.71085 0
M  V30 49689 H 4788.67 1.95256 -2.5705 0
M  V30 49690 H 4787.73 -0.130756 -3.80175 0
M  V30 49691 H 4789.04 0.0479831 -4.98777 0
M  V30 49692 H 4788.19 2.3213 -5.60536 0
M  V30 49693 H 4786.93 2.21577 -4.34459 0
M  V30 49694 H 4785.94 0.217773 -5.49369 0
M  V30 49695 H 4787.16 0.343613 -6.7823 0
M  V30 49696 H 4785.11 2.47351 -6.0758 0
M  V30 49697 H 4785.02 1.39524 -7.43013 0
M  V30 49698 H 4786.29 2.58203 -7.35494 0
M  V30 49699 N 4790.52 1.55474 -0.257986 0
M  V30 49700 C 4791.47 2.21839 0.636861 0
M  V30 49701 C 4792.44 1.186 1.1629 0
M  V30 49702 O 4793.62 1.47085 1.21534 0
M  V30 49703 C 4790.76 2.93016 1.82306 0
M  V30 49704 C 4789.88 4.10936 1.33251 0
M  V30 49705 C 4789.01 4.698 2.47915 0
M  V30 49706 C 4788.05 5.79947 1.95776 0
M  V30 49707 N 4787.19 6.32946 3.03848 0
M  V30 49708 H 4792.03 2.97931 0.0642544 0
M  V30 49709 H 4789.57 1.47086 0.0199514 0
M  V30 49710 H 4791.52 3.32489 2.52006 0
M  V30 49711 H 4790.15 2.19379 2.36797 0
M  V30 49712 H 4789.21 3.76701 0.529178 0
M  V30 49713 H 4790.52 4.9042 0.910482 0
M  V30 49714 H 4789.67 5.11903 3.25638 0
M  V30 49715 H 4788.41 3.89556 2.93424 0
M  V30 49716 H 4787.42 5.3731 1.16527 0
M  V30 49717 H 4788.64 6.62049 1.51223 0
M  V30 49718 H 4786.59 5.55603 3.48771 0
M  V30 49719 H 4786.5 7.07654 2.6601 0
M  V30 49720 H 4787.77 6.79709 3.81597 0
M  V30 49721 N 4792 -0.0149831 1.57593 0
M  V30 49722 C 4792.93 -1.0104 2.10507 0
M  V30 49723 C 4793.91 -1.36813 1.01076 0
M  V30 49724 O 4795.1 -1.4545 1.28678 0
M  V30 49725 C 4792.23 -2.30698 2.59606 0
M  V30 49726 C 4791.18 -2.09129 3.73429 0
M  V30 49727 C 4790.51 -3.44671 4.08786 0
M  V30 49728 C 4791.81 -1.46602 5.01304 0
M  V30 49729 H 4793.5 -0.569874 2.93927 0
M  V30 49730 H 4791.05 -0.272674 1.41395 0
M  V30 49731 H 4793 -3.00677 2.95248 0
M  V30 49732 H 4791.72 -2.76837 1.73289 0
M  V30 49733 H 4790.38 -1.41581 3.38158 0
M  V30 49734 H 4790.03 -3.88484 3.19514 0
M  V30 49735 H 4789.73 -3.3106 4.85462 0
M  V30 49736 H 4791.25 -4.15988 4.46974 0
M  V30 49737 H 4792.67 -2.06516 5.34812 0
M  V30 49738 H 4791.07 -1.43524 5.82684 0
M  V30 49739 H 4792.14 -0.433441 4.82959 0
M  V30 49740 N 4793.48 -1.54955 -0.2875 0
M  V30 49741 C 4794.41 -1.89844 -1.35947 0
M  V30 49742 C 4795.39 -0.758729 -1.52241 0
M  V30 49743 O 4796.57 -1.01563 -1.65525 0
M  V30 49744 C 4793.7 -2.15762 -2.72147 0
M  V30 49745 C 4792.66 -3.316 -2.70602 0
M  V30 49746 C 4791.98 -3.42966 -4.10217 0
M  V30 49747 C 4793.28 -4.68367 -2.31149 0
M  V30 49748 H 4794.98 -2.79628 -1.06997 0
M  V30 49749 H 4792.52 -1.34542 -0.513268 0
M  V30 49750 H 4794.48 -2.38755 -3.47237 0
M  V30 49751 H 4793.2 -1.22762 -3.0265 0
M  V30 49752 H 4791.86 -3.08552 -1.97968 0
M  V30 49753 H 4791.51 -2.47458 -4.37919 0
M  V30 49754 H 4791.21 -4.20841 -4.10082 0
M  V30 49755 H 4792.73 -3.68235 -4.87068 0
M  V30 49756 H 4794.15 -4.91001 -2.95958 0
M  V30 49757 H 4792.54 -5.49052 -2.42202 0
M  V30 49758 H 4793.61 -4.6817 -1.26275 0
M  V30 49759 N 4794.96 0.551339 -1.47641 0
M  V30 49760 C 4795.87 1.6852 -1.63213 0
M  V30 49761 C 4796.88 1.66208 -0.514873 0
M  V30 49762 O 4798.06 1.85549 -0.783179 0
M  V30 49763 C 4795.12 3.05019 -1.64816 0
M  V30 49764 C 4794.18 3.18352 -2.88011 0
M  V30 49765 C 4793.42 4.4834 -2.89528 0
M  V30 49766 O 4793.64 5.34156 -2.00084 0
M  V30 49767 O 4792.57 4.65589 -3.81459 0
M  V30 49768 H 4796.4 1.58324 -2.59166 0
M  V30 49769 H 4793.99 0.722017 -1.30795 0
M  V30 49770 H 4795.87 3.86239 -1.68516 0
M  V30 49771 H 4794.54 3.15584 -0.720308 0
M  V30 49772 H 4793.45 2.36508 -2.89853 0
M  V30 49773 H 4794.78 3.12694 -3.8011 0
M  V30 49774 N 4796.43 1.35872 0.79854 0
M  V30 49775 C 4797.34 1.31584 1.94223 0
M  V30 49776 C 4798.36 0.219451 1.72611 0
M  V30 49777 O 4799.54 0.450236 1.96303 0
M  V30 49778 C 4796.6 1.0954 3.28941 0
M  V30 49779 C 4795.66 2.28568 3.63394 0
M  V30 49780 C 4794.9 2.07566 4.91683 0
M  V30 49781 O 4795.12 1.04619 5.60724 0
M  V30 49782 O 4794.05 2.95124 5.24581 0
M  V30 49783 H 4797.88 2.27855 2.00788 0
M  V30 49784 H 4795.46 1.16325 0.937485 0
M  V30 49785 H 4797.35 0.991271 4.09575 0
M  V30 49786 H 4796.02 0.163264 3.23288 0
M  V30 49787 H 4794.93 2.44548 2.83103 0
M  V30 49788 H 4796.26 3.20257 3.7376 0
M  V30 49789 N 4797.91 -1.02164 1.20001 0
M  V30 49790 C 4798.84 -2.10702 0.902068 0
M  V30 49791 C 4799.86 -1.6244 -0.108159 0
M  V30 49792 O 4801.05 -1.78081 0.122203 0
M  V30 49793 C 4798.15 -3.3729 0.329953 0
M  V30 49794 C 4797.32 -4.14709 1.3905 0
M  V30 49795 C 4796.38 -5.19603 0.830614 0
M  V30 49796 O 4795.4 -5.48803 1.51008 0
M  V30 49797 N 4796.61 -5.79367 -0.362493 0
M  V30 49798 H 4799.37 -2.3685 1.83636 0
M  V30 49799 H 4796.93 -1.18514 1.103 0
M  V30 49800 H 4798.92 -4.04658 -0.0586211 0
M  V30 49801 H 4797.49 -3.08432 -0.508782 0
M  V30 49802 H 4796.71 -3.42385 1.95362 0
M  V30 49803 H 4798 -4.63218 2.10491 0
M  V30 49804 H 4797.4 -5.57972 -0.931885 0
M  V30 49805 H 4795.96 -6.48108 -0.692762 0
M  V30 49806 N 4799.39 -1.00509 -1.21391 0
M  V30 49807 C 4800.64 -0.686482 -1.90084 0
M  V30 49808 C 4800.96 0.785202 -1.78493 0
M  V30 49809 O 4800.23 1.56382 -1.17989 0
M  V30 49810 H 4798.81 -0.250924 -0.703595 0
M  V30 49811 H 4801.47 -1.27422 -1.47478 0
M  V30 49812 H 4800.57 -0.959726 -2.96978 0
M  V30 49813 N 4800.87 1.36954 -0.779835 0
M  V30 49814 C 4802.12 1.98737 -0.344475 0
M  V30 49815 C 4802.43 1.626 1.08722 0
M  V30 49816 O 4803.64 2.17546 1.62437 0
M  V30 49817 C 4802.09 3.55438 -0.564954 0
M  V30 49818 C 4801.7 4.00507 -2.00744 0
M  V30 49819 C 4803.44 4.24058 -0.19362 0
M  V30 49820 C 4801.35 5.49949 -2.17509 0
M  V30 49821 H 4800.28 0.743557 -0.125056 0
M  V30 49822 H 4802.93 1.56378 -0.960112 0
M  V30 49823 H 4801.31 3.95817 0.120258 0
M  V30 49824 H 4802.49 3.71352 -2.72827 0
M  V30 49825 H 4800.8 3.44695 -2.33612 0
M  V30 49826 H 4803.4 5.33873 -0.297285 0
M  V30 49827 H 4803.74 4.07381 0.857119 0
M  V30 49828 H 4804.28 3.89009 -0.831693 0
M  V30 49829 H 4801.02 5.71563 -3.20931 0
M  V30 49830 H 4800.54 5.80762 -1.49919 0
M  V30 49831 H 4802.21 6.16036 -1.97759 0
M  V30 49832 N 4802.35 0.531045 1.48384 0
M  V30 49833 C 4803.59 -0.00266611 2.025 0
M  V30 49834 C 4803.92 -1.34181 1.40804 0
M  V30 49835 O 4803.18 -1.87998 0.54361 0
M  V30 49836 C 4803.48 -0.172616 3.56983 0
M  V30 49837 C 4803.14 1.0923 4.3747 0
M  V30 49838 C 4801.8 1.43897 4.59181 0
M  V30 49839 C 4804.16 1.9317 4.84081 0
M  V30 49840 C 4801.48 2.62399 5.24751 0
M  V30 49841 C 4803.84 3.10852 5.50957 0
M  V30 49842 C 4802.5 3.45863 5.70907 0
M  V30 49843 H 4801.77 -0.000975598 0.740999 0
M  V30 49844 H 4804.42 0.697282 1.78354 0
M  V30 49845 H 4802.72 -0.955339 3.79974 0
M  V30 49846 H 4804.42 -0.600502 3.96478 0
M  V30 49847 H 4801.01 0.812325 4.20832 0
M  V30 49848 H 4805.19 1.67699 4.67109 0
M  V30 49849 H 4800.45 2.89726 5.38395 0
M  V30 49850 H 4804.62 3.762 5.86043 0
M  V30 49851 H 4802.25 4.37786 6.21488 0
M  V30 49852 N 4803.82 -1.55335 0.266227 0
M  V30 49853 C 4804.75 -2.25149 -0.618902 0
M  V30 49854 C 4805.74 -1.23849 -1.166 0
M  V30 49855 O 4806.92 -1.52548 -1.20178 0
M  V30 49856 C 4804.05 -2.96578 -1.80717 0
M  V30 49857 C 4803 -4.04731 -1.39201 0
M  V30 49858 C 4802.33 -4.63688 -2.66266 0
M  V30 49859 C 4803.63 -5.19409 -0.54876 0
M  V30 49860 H 4805.32 -2.99377 -0.0367063 0
M  V30 49861 H 4802.87 -1.43991 -0.0162144 0
M  V30 49862 H 4804.82 -3.44125 -2.4322 0
M  V30 49863 H 4803.55 -2.19869 -2.41506 0
M  V30 49864 H 4802.21 -3.57982 -0.790225 0
M  V30 49865 H 4801.85 -3.83657 -3.25294 0
M  V30 49866 H 4801.55 -5.36708 -2.39203 0
M  V30 49867 H 4803.08 -5.13979 -3.29633 0
M  V30 49868 H 4804.49 -5.63063 -1.07856 0
M  V30 49869 H 4802.89 -5.98937 -0.373383 0
M  V30 49870 H 4803.96 -4.82949 0.434564 0
M  V30 49871 N 4805.3 0.0066254 -1.57599 0
M  V30 49872 C 4806.72 0.362615 -1.55426 0
M  V30 49873 C 4806.92 1.75206 -0.995249 0
M  V30 49874 O 4805.98 2.44613 -0.626144 0
M  V30 49875 C 4807.29 0.243912 -2.99709 0
M  V30 49876 C 4808.84 0.319342 -3.11367 0
M  V30 49877 C 4809.31 0.229837 -4.57423 0
M  V30 49878 N 4810.8 0.287943 -4.62304 0
M  V30 49879 C 4811.54 0.241926 -5.72889 0
M  V30 49880 N 4811.03 0.14689 -6.92644 0
M  V30 49881 N 4812.83 0.293305 -5.61334 0
M  V30 49882 H 4804.98 -0.902381 -1.92278 0
M  V30 49883 H 4807.24 -0.345281 -0.882884 0
M  V30 49884 H 4806.95 -0.7118 -3.44422 0
M  V30 49885 H 4806.82 1.02864 -3.62903 0
M  V30 49886 H 4809.21 1.2655 -2.66588 0
M  V30 49887 H 4809.29 -0.495143 -2.50962 0
M  V30 49888 H 4808.93 -0.712743 -5.02874 0
M  V30 49889 H 4808.86 1.06272 -5.15765 0
M  V30 49890 H 4811.35 0.362994 -3.76153 0
M  V30 49891 H 4811.67 0.117492 -7.72711 0
M  V30 49892 H 4810.01 0.112612 -6.94909 0
M  V30 49893 H 4813.2 0.3657 -4.66669 0
M  V30 49894 H 4813.38 0.253976 -6.47502 0
M  V30 49895 N 4806.78 1.55106 0.279278 0
M  V30 49896 C 4807.74 1.86787 1.32827 0
M  V30 49897 C 4808.74 0.74204 1.42655 0
M  V30 49898 O 4809.93 1.01025 1.41914 0
M  V30 49899 C 4807.07 2.06755 2.71044 0
M  V30 49900 H 4808.26 2.80554 1.05969 0
M  V30 49901 H 4805.81 1.47501 0.517035 0
M  V30 49902 H 4806.55 1.15349 3.03092 0
M  V30 49903 H 4806.33 2.8872 2.65298 0
M  V30 49904 H 4807.82 2.32561 3.4685 0
M  V30 49905 N 4808.26 -0.543502 1.47932 0
M  V30 49906 C 4809.48 -1.3299 1.59149 0
M  V30 49907 C 4809.91 -1.86471 0.247022 0
M  V30 49908 O 4809.27 -1.63698 -0.779266 0
M  V30 49909 C 4809.32 -2.46613 2.63086 0
M  V30 49910 O 4808.42 -3.49253 2.19307 0
M  V30 49911 H 4807.76 -0.394453 0.534137 0
M  V30 49912 H 4810.29 -0.655421 1.93818 0
M  V30 49913 H 4810.3 -2.92991 2.83937 0
M  V30 49914 H 4808.98 -2.07046 3.607 0
M  V30 49915 H 4807.55 -3.09087 2.08614 0
M  V30 49916 N 4809.74 -1.36293 -0.791323 0
M  V30 49917 C 4810.98 -1.3061 -1.55141 0
M  V30 49918 C 4811.32 0.114974 -1.93859 0
M  V30 49919 O 4810.59 1.06792 -1.6256 0
M  V30 49920 C 4810.87 -2.22702 -2.82977 0
M  V30 49921 C 4810.73 -3.73498 -2.50638 0
M  V30 49922 C 4812.05 -2.13602 -3.84789 0
M  V30 49923 H 4809.17 -0.475781 -0.562852 0
M  V30 49924 H 4811.81 -1.66829 -0.909299 0
M  V30 49925 H 4809.96 -1.91945 -3.37771 0
M  V30 49926 H 4811.63 -4.14765 -2.01909 0
M  V30 49927 H 4809.87 -3.93027 -1.83608 0
M  V30 49928 H 4810.54 -4.33342 -3.41933 0
M  V30 49929 H 4813.02 -2.40671 -3.39436 0
M  V30 49930 H 4811.9 -2.80211 -4.71988 0
M  V30 49931 H 4812.16 -1.12271 -4.27607 0
M  V30 49932 N 4811.22 1.01526 -1.20541 0
M  V30 49933 C 4812.46 1.75405 -1.01789 0
M  V30 49934 C 4812.79 1.88944 0.448747 0
M  V30 49935 O 4812.07 1.41625 1.33314 0
M  V30 49936 C 4812.35 3.17249 -1.70367 0
M  V30 49937 C 4812.21 3.11496 -3.24484 0
M  V30 49938 C 4813.52 4.1595 -1.43784 0
M  V30 49939 H 4810.64 0.6367 -0.371189 0
M  V30 49940 H 4813.29 1.1843 -1.48574 0
M  V30 49941 H 4811.44 3.65894 -1.30591 0
M  V30 49942 H 4813.11 2.70645 -3.73563 0
M  V30 49943 H 4811.35 2.48858 -3.5532 0
M  V30 49944 H 4812.02 4.11771 -3.67625 0
M  V30 49945 H 4814.5 3.75966 -1.78293 0
M  V30 49946 H 4813.37 5.13361 -1.94297 0
M  V30 49947 H 4813.63 4.40585 -0.365719 0
M  V30 49948 N 4812.69 1.01151 1.20856 0
M  V30 49949 C 4813.92 0.71698 1.9408 0
M  V30 49950 C 4814.34 -0.721507 1.7447 0
M  V30 49951 O 4813.69 -1.48885 1.05544 0
M  V30 49952 C 4813.74 1.03674 3.46315 0
M  V30 49953 O 4813.47 2.41873 3.6528 0
M  V30 49954 C 4814.97 0.762539 4.36692 0
M  V30 49955 H 4812.19 0.263692 0.617015 0
M  V30 49956 H 4814.73 1.35132 1.53491 0
M  V30 49957 H 4812.89 0.447892 3.84802 0
M  V30 49958 H 4813.3 2.5324 4.59314 0
M  V30 49959 H 4814.77 1.0364 5.42183 0
M  V30 49960 H 4815.25 -0.30336 4.38151 0
M  V30 49961 H 4815.86 1.33331 4.0386 0
M  V30 49962 N 4814.17 -1.36538 0.787088 0
M  V30 49963 C 4815.13 -2.28412 0.189859 0
M  V30 49964 C 4816.13 -1.48721 -0.611447 0
M  V30 49965 O 4817.32 -1.68738 -0.432783 0
M  V30 49966 C 4814.46 -3.32826 -0.737521 0
M  V30 49967 H 4815.65 -2.82739 0.999931 0
M  V30 49968 H 4813.2 -1.46063 0.55635 0
M  V30 49969 H 4813.94 -2.83651 -1.57202 0
M  V30 49970 H 4813.72 -3.91753 -0.164906 0
M  V30 49971 H 4815.21 -4.01444 -1.15033 0
M  V30 49972 N 4815.65 -0.538906 -1.481 0
M  V30 49973 C 4816.87 -0.0103423 -2.07397 0
M  V30 49974 C 4817.3 1.26557 -1.39158 0
M  V30 49975 O 4816.66 1.75356 -0.460448 0
M  V30 49976 C 4816.71 0.187476 -3.60112 0
M  V30 49977 O 4815.81 1.25419 -3.92866 0
M  V30 49978 H 4815.15 -0.0431208 -0.662598 0
M  V30 49979 H 4817.68 -0.749368 -1.90383 0
M  V30 49980 H 4817.69 0.407374 -4.05961 0
M  V30 49981 H 4816.37 -0.744529 -4.09182 0
M  V30 49982 H 4814.94 1.01623 -3.58786 0
M  V30 49983 N 4817.13 1.55192 -0.274461 0
M  V30 49984 C 4818.35 2.04447 0.348752 0
M  V30 49985 C 4818.78 1.15155 1.48731 0
M  V30 49986 O 4818.14 0.150016 1.80678 0
M  V30 49987 C 4818.18 3.51434 0.807885 0
M  V30 49988 O 4817.29 3.65232 1.91519 0
M  V30 49989 H 4816.63 0.660063 0.0722044 0
M  V30 49990 H 4819.16 2.00479 -0.408569 0
M  V30 49991 H 4819.17 3.92785 1.10382 0
M  V30 49992 H 4817.84 4.15892 -0.0251327 0
M  V30 49993 H 4816.42 3.35784 1.62184 0
M  V30 49994 N 4818.61 0.00173253 1.576 0
M  V30 49995 C 4819.85 -0.681404 1.90266 0
M  V30 49996 C 4820.17 -1.74217 0.875985 0
M  V30 49997 O 4819.44 -1.95709 -0.0863724 0
M  V30 49998 H 4818.02 -0.254671 0.702248 0
M  V30 49999 H 4820.69 0.0430681 1.94852 0
M  V30 50000 H 4819.78 -1.15156 2.90079 0
M  V30 50001 N 4820.08 -1.55252 -0.271048 0
M  V30 50002 C 4821.31 -1.8031 -1.02484 0
M  V30 50003 C 4821.73 -0.57552 -1.79079 0
M  V30 50004 O 4821.09 0.474926 -1.74969 0
M  V30 50005 C 4821.14 -3.02839 -1.95757 0
M  V30 50006 O 4820.24 -2.78062 -3.04558 0
M  V30 50007 H 4819.59 -0.595906 -0.292903 0
M  V30 50008 H 4822.12 -2.02398 -0.299365 0
M  V30 50009 H 4822.13 -3.31625 -2.37674 0
M  V30 50010 H 4820.8 -3.91835 -1.3942 0
M  V30 50011 H 4819.38 -2.60378 -2.66941 0
M  V30 50012 N 4821.56 0.535649 -1.48218 0
M  V30 50013 C 4822.53 1.62294 -1.61843 0
M  V30 50014 C 4823.53 1.53086 -0.492078 0
M  V30 50015 O 4824.72 1.56857 -0.757723 0
M  V30 50016 C 4821.85 3.01902 -1.58329 0
M  V30 50017 H 4823.04 1.51555 -2.58788 0
M  V30 50018 H 4820.59 0.757269 -1.3673 0
M  V30 50019 H 4821.33 3.18153 -0.628411 0
M  V30 50020 H 4821.11 3.09994 -2.40096 0
M  V30 50021 H 4822.6 3.80963 -1.71046 0
M  V30 50022 N 4823.04 1.36711 0.784084 0
M  V30 50023 C 4823.97 1.34159 1.91111 0
M  V30 50024 C 4824.95 0.212181 1.68771 0
M  V30 50025 O 4826.14 0.410648 1.89809 0
M  V30 50026 C 4823.27 1.13547 3.28214 0
M  V30 50027 C 4822.22 2.23369 3.6509 0
M  V30 50028 C 4821.55 1.87893 5.006 0
M  V30 50029 C 4822.85 3.65486 3.73118 0
M  V30 50030 H 4824.54 2.28466 1.93504 0
M  V30 50031 H 4822.09 1.09976 0.929579 0
M  V30 50032 H 4824.04 1.10395 4.06683 0
M  V30 50033 H 4822.76 0.156919 3.26223 0
M  V30 50034 H 4821.42 2.25655 2.88921 0
M  V30 50035 H 4821.07 0.885989 4.95136 0
M  V30 50036 H 4820.77 2.61424 5.26242 0
M  V30 50037 H 4822.29 1.86306 5.81483 0
M  V30 50038 H 4823.71 3.65397 4.41767 0
M  V30 50039 H 4822.11 4.37967 4.10249 0
M  V30 50040 H 4823.18 4.00005 2.74088 0
M  V30 50041 N 4824.52 -1.00885 1.21078 0
M  V30 50042 C 4825.45 -2.09733 0.924365 0
M  V30 50043 C 4826.46 -1.62546 -0.0909237 0
M  V30 50044 O 4827.65 -1.77942 0.141084 0
M  V30 50045 C 4824.75 -3.36921 0.365708 0
M  V30 50046 C 4823.93 -4.13211 1.4344 0
M  V30 50047 C 4822.98 -5.18693 0.885678 0
M  V30 50048 O 4822.01 -5.47171 1.56821 0
M  V30 50049 N 4823.21 -5.79719 -0.301023 0
M  V30 50050 H 4825.98 -2.34889 1.86138 0
M  V30 50051 H 4823.54 -1.17337 1.11551 0
M  V30 50052 H 4825.53 -4.04697 -0.0156984 0
M  V30 50053 H 4824.1 -3.08954 -0.47604 0
M  V30 50054 H 4823.32 -3.40294 1.98982 0
M  V30 50055 H 4824.61 -4.6096 2.15392 0
M  V30 50056 H 4824.01 -5.58929 -0.872652 0
M  V30 50057 H 4822.56 -6.48806 -0.623983 0
M  V30 50058 N 4826 -1.01791 -1.20318 0
M  V30 50059 C 4827.23 -0.726208 -1.93416 0
M  V30 50060 C 4827.63 0.717256 -1.75077 0
M  V30 50061 O 4826.98 1.49832 -1.06283 0
M  V30 50062 C 4827.04 -0.983742 -3.45778 0
M  V30 50063 C 4826.7 -2.41658 -3.87879 0
M  V30 50064 C 4827.7 -3.39746 -3.93534 0
M  V30 50065 C 4825.39 -2.75767 -4.19831 0
M  V30 50066 C 4827.38 -4.70003 -4.30553 0
M  V30 50067 C 4825.07 -4.06237 -4.56525 0
M  V30 50068 C 4826.06 -5.03166 -4.61858 0
M  V30 50069 O 4825.75 -6.31301 -4.97709 0
M  V30 50070 H 4825.48 -0.265845 -0.621532 0
M  V30 50071 H 4828.04 -1.36235 -1.53718 0
M  V30 50072 H 4826.27 -0.290437 -3.85608 0
M  V30 50073 H 4827.96 -0.68342 -4.00105 0
M  V30 50074 H 4828.72 -3.14731 -3.69011 0
M  V30 50075 H 4824.6 -2.01008 -4.1487 0
M  V30 50076 H 4828.15 -5.45658 -4.3463 0
M  V30 50077 H 4824.04 -4.3103 -4.80503 0
M  V30 50078 H 4824.81 -6.35609 -5.15697 0
M  V30 50079 N 4827.47 1.36119 -0.794317 0
M  V30 50080 C 4828.75 1.93397 -0.292753 0
M  V30 50081 C 4829.13 1.72571 1.21583 0
M  V30 50082 O 4828.48 1.08752 2.00961 0
M  V30 50083 C 4828.69 3.42096 -0.690734 0
M  V30 50084 C 4830.04 4.19228 -0.673252 0
M  V30 50085 O 4831.06 3.50557 -0.631512 0
M  V30 50086 O 4829.92 5.41729 -0.720552 0
M  V30 50087 H 4827.01 0.82371 -0.0736983 0
M  V30 50088 H 4829.56 1.4527 -0.877191 0
M  V30 50089 H 4828.33 3.50932 -1.73097 0
M  V30 50090 H 4827.96 3.97519 -0.0804434 0
M  V30 50091 N 4828.95 0.546753 1.47812 0
M  V30 50092 C 4830.18 0.0233584 2.06887 0
M  V30 50093 C 4830.6 -1.26566 1.40094 0
M  V30 50094 O 4829.95 -1.75688 0.493968 0
M  V30 50095 C 4830 -0.186849 3.61017 0
M  V30 50096 O 4829.72 1.05112 4.25304 0
M  V30 50097 C 4831.23 -0.748719 4.36931 0
M  V30 50098 H 4828.45 0.0410998 0.66974 0
M  V30 50099 H 4830.99 0.757184 1.89966 0
M  V30 50100 H 4829.14 -0.870771 3.77487 0
M  V30 50101 H 4829.56 0.842303 5.17692 0
M  V30 50102 H 4831.03 -0.845142 5.45492 0
M  V30 50103 H 4831.51 -1.75758 4.02499 0
M  V30 50104 H 4832.12 -0.100829 4.2518 0
M  V30 50105 N 4830.43 -1.55044 0.282687 0
M  V30 50106 C 4831.36 -2.25792 -0.594987 0
M  V30 50107 C 4832.34 -1.25078 -1.1528 0
M  V30 50108 O 4833.53 -1.53814 -1.18553 0
M  V30 50109 C 4830.66 -2.98478 -1.77562 0
M  V30 50110 C 4829.61 -4.06185 -1.349 0
M  V30 50111 C 4828.94 -4.66486 -2.61333 0
M  V30 50112 C 4830.24 -5.19962 -0.493639 0
M  V30 50113 H 4831.93 -2.994 -0.00495128 0
M  V30 50114 H 4829.48 -1.44 -0.000941378 0
M  V30 50115 H 4831.43 -3.46685 -2.39556 0
M  V30 50116 H 4830.15 -2.22418 -2.3916 0
M  V30 50117 H 4828.81 -3.588 -0.752212 0
M  V30 50118 H 4828.46 -3.87086 -3.21207 0
M  V30 50119 H 4828.16 -5.39215 -2.33497 0
M  V30 50120 H 4829.68 -5.17446 -3.24163 0
M  V30 50121 H 4831.1 -5.64175 -1.01878 0
M  V30 50122 H 4829.5 -5.993 -0.309836 0
M  V30 50123 H 4830.57 -4.82461 0.485763 0
M  V30 50124 N 4831.91 -0.0100904 -1.57597 0
M  V30 50125 C 4833.16 0.671878 -1.90181 0
M  V30 50126 C 4833.47 1.74373 -0.886192 0
M  V30 50127 O 4834.68 2.48103 -1.1026 0
M  V30 50128 C 4833.13 1.24624 -3.37634 0
M  V30 50129 C 4832.74 0.208681 -4.47514 0
M  V30 50130 C 4834.48 1.90582 -3.79313 0
M  V30 50131 C 4832.39 0.793608 -5.86051 0
M  V30 50132 H 4831.32 0.254715 -0.709673 0
M  V30 50133 H 4833.97 -0.072285 -1.83358 0
M  V30 50134 H 4832.35 2.0414 -3.39327 0
M  V30 50135 H 4833.53 -0.562624 -4.57352 0
M  V30 50136 H 4831.84 -0.351035 -4.14918 0
M  V30 50137 H 4834.44 2.35267 -4.8016 0
M  V30 50138 H 4834.78 2.74063 -3.13361 0
M  V30 50139 H 4835.32 1.17785 -3.79963 0
M  V30 50140 H 4832.06 -0.00263899 -6.555 0
M  V30 50141 H 4831.58 1.53384 -5.79856 0
M  V30 50142 H 4833.25 1.28918 -6.34026 0
M  V30 50143 N 4833.39 1.55393 0.262811 0
M  V30 50144 C 4834.61 1.80851 1.01527 0
M  V30 50145 C 4835.04 0.585009 1.78772 0
M  V30 50146 O 4834.39 -0.46564 1.75218 0
M  V30 50147 C 4834.44 3.03873 1.94148 0
M  V30 50148 O 4833.55 2.79673 3.03079 0
M  V30 50149 H 4832.89 0.597451 0.289738 0
M  V30 50150 H 4835.42 2.02554 0.288627 0
M  V30 50151 H 4835.43 3.3288 2.35912 0
M  V30 50152 H 4834.1 3.92569 1.3734 0
M  V30 50153 H 4832.68 2.6179 2.65557 0
M  V30 50154 N 4834.87 -0.527781 1.485 0
M  V30 50155 C 4835.8 -1.6413 1.66083 0
M  V30 50156 C 4836.78 -1.62284 0.509682 0
M  V30 50157 O 4837.96 -1.79446 0.742476 0
M  V30 50158 C 4835.09 -3.02711 1.70244 0
M  V30 50159 C 4834.05 -3.19416 2.84881 0
M  V30 50160 C 4833.37 -4.5908 2.74134 0
M  V30 50161 C 4834.67 -3.01979 4.26153 0
M  V30 50162 H 4836.37 -1.4967 2.59305 0
M  V30 50163 H 4833.91 -0.71861 1.24788 0
M  V30 50164 H 4835.86 -3.80485 1.81133 0
M  V30 50165 H 4834.59 -3.18198 0.736023 0
M  V30 50166 H 4833.25 -2.4406 2.73551 0
M  V30 50167 H 4832.9 -4.71406 1.75456 0
M  V30 50168 H 4832.6 -4.71202 3.51059 0
M  V30 50169 H 4834.12 -5.3895 2.86993 0
M  V30 50170 H 4835.53 -3.69543 4.38305 0
M  V30 50171 H 4833.93 -3.25592 5.04093 0
M  V30 50172 H 4835 -1.9838 4.42463 0
M  V30 50173 N 4836.34 -1.37125 -0.776822 0
M  V30 50174 C 4837.28 -1.26842 -1.89701 0
M  V30 50175 C 4838.25 -0.149977 -1.61907 0
M  V30 50176 O 4839.44 -0.323307 -1.85707 0
M  V30 50177 C 4836.57 -0.959974 -3.24811 0
M  V30 50178 C 4835.61 -2.0946 -3.71522 0
M  V30 50179 S 4836.44 -3.71382 -3.85793 0
M  V30 50180 C 4837.6 -3.42677 -5.23759 0
M  V30 50181 H 4837.83 -2.21654 -1.98134 0
M  V30 50182 H 4835.37 -1.22688 -0.93739 0
M  V30 50183 H 4837.32 -0.788838 -4.02849 0
M  V30 50184 H 4835.99 -0.0294241 -3.14086 0
M  V30 50185 H 4835.18 -1.83366 -4.6946 0
M  V30 50186 H 4834.78 -2.22561 -3.00571 0
M  V30 50187 H 4837.07 -2.97351 -6.0876 0
M  V30 50188 H 4838.02 -4.39924 -5.54862 0
M  V30 50189 H 4838.42 -2.77725 -4.91456 0
M  V30 50190 N 4837.82 1.00242 -1.21611 0
M  V30 50191 C 4838.73 2.12511 -0.993783 0
M  V30 50192 C 4839.75 1.73913 0.0549327 0
M  V30 50193 O 4840.92 2.00942 -0.13569 0
M  V30 50194 C 4837.99 3.42081 -0.564073 0
M  V30 50195 C 4837.05 3.94837 -1.6853 0
M  V30 50196 C 4836.28 5.18222 -1.276 0
M  V30 50197 O 4836.51 5.70201 -0.150706 0
M  V30 50198 O 4835.44 5.6449 -2.0889 0
M  V30 50199 H 4839.27 2.34145 -1.93416 0
M  V30 50200 H 4836.85 1.10887 -1.00122 0
M  V30 50201 H 4838.73 4.20072 -0.334342 0
M  V30 50202 H 4837.41 3.21829 0.347552 0
M  V30 50203 H 4836.31 3.18061 -1.96946 0
M  V30 50204 H 4837.65 4.19503 -2.57445 0
M  V30 50205 N 4839.3 1.02428 1.19776 0
M  V30 50206 C 4840.25 0.571767 2.20714 0
M  V30 50207 C 4841.23 -0.377022 1.5642 0
M  V30 50208 O 4842.43 -0.198739 1.75881 0
M  V30 50209 C 4839.55 -0.0807348 3.43205 0
M  V30 50210 C 4838.64 0.890219 4.14652 0
M  V30 50211 N 4839.03 2.05081 4.62359 0
M  V30 50212 C 4837.33 0.712675 4.40269 0
M  V30 50213 C 4838.03 2.66282 5.17174 0
M  V30 50214 N 4837.01 1.94282 5.07696 0
M  V30 50215 H 4840.81 1.45645 2.55274 0
M  V30 50216 H 4838.32 0.890644 1.35799 0
M  V30 50217 H 4840.32 -0.422508 4.14754 0
M  V30 50218 H 4838.98 -0.961165 3.10148 0
M  V30 50219 H 4839.99 2.43043 4.5733 0
M  V30 50220 H 4836.67 -0.119053 4.1733 0
M  V30 50221 H 4838.06 3.64545 5.64408 0
M  V30 50222 N 4840.78 -1.35696 0.801525 0
M  V30 50223 C 4841.71 -2.32435 0.222739 0
M  V30 50224 C 4842.69 -1.57232 -0.649002 0
M  V30 50225 O 4843.87 -1.85326 -0.580322 0
M  V30 50226 C 4841 -3.41472 -0.633599 0
M  V30 50227 C 4839.96 -4.27773 0.139233 0
M  V30 50228 C 4839.28 -5.28085 -0.83848 0
M  V30 50229 C 4840.58 -5.04941 1.33535 0
M  V30 50230 H 4842.28 -2.8109 1.03096 0
M  V30 50231 H 4839.82 -1.35144 0.497203 0
M  V30 50232 H 4841.78 -4.08147 -1.04853 0
M  V30 50233 H 4840.5 -2.91413 -1.47465 0
M  V30 50234 H 4839.16 -3.62671 0.535284 0
M  V30 50235 H 4838.81 -4.74296 -1.67489 0
M  V30 50236 H 4838.51 -5.86696 -0.325734 0
M  V30 50237 H 4840.03 -5.97632 -1.25173 0
M  V30 50238 H 4841.45 -5.6459 0.995547 0
M  V30 50239 H 4839.84 -5.73024 1.78223 0
M  V30 50240 H 4840.91 -4.35878 2.12458 0
M  V30 50241 N 4842.26 -0.554584 -1.4752 0
M  V30 50242 C 4843.2 0.19458 -2.29978 0
M  V30 50243 C 4844.17 0.910833 -1.38899 0
M  V30 50244 O 4845.36 0.907043 -1.67861 0
M  V30 50245 C 4842.5 1.22024 -3.22807 0
M  V30 50246 C 4841.61 0.510323 -4.28975 0
M  V30 50247 C 4840.75 1.52105 -5.08957 0
M  V30 50248 C 4839.78 0.795959 -6.06903 0
M  V30 50249 N 4838.92 1.75339 -6.79853 0
M  V30 50250 H 4843.76 -0.514714 -2.93521 0
M  V30 50251 H 4841.3 -0.265658 -1.44681 0
M  V30 50252 H 4843.26 1.82746 -3.75046 0
M  V30 50253 H 4841.89 1.8976 -2.61134 0
M  V30 50254 H 4840.94 -0.211368 -3.79812 0
M  V30 50255 H 4842.25 -0.0578256 -4.98766 0
M  V30 50256 H 4841.4 2.20188 -5.65334 0
M  V30 50257 H 4840.14 2.12311 -4.39062 0
M  V30 50258 H 4839.15 0.101195 -5.49707 0
M  V30 50259 H 4840.37 0.199673 -6.78806 0
M  V30 50260 H 4838.32 2.34408 -6.1269 0
M  V30 50261 H 4838.24 1.23732 -7.45806 0
M  V30 50262 H 4839.5 2.42544 -7.40805 0
M  V30 50263 N 4843.73 1.54892 -0.290906 0
M  V30 50264 C 4844.7 2.21826 0.576706 0
M  V30 50265 C 4845.7 1.20108 1.06915 0
M  V30 50266 O 4846.89 1.4491 0.966792 0
M  V30 50267 C 4844.02 2.89668 1.79737 0
M  V30 50268 H 4845.21 2.99899 -0.00794594 0
M  V30 50269 H 4842.76 1.56245 -0.0416483 0
M  V30 50270 H 4843.5 2.15648 2.42212 0
M  V30 50271 H 4843.28 3.64224 1.45201 0
M  V30 50272 H 4844.77 3.40759 2.41398 0
M  V30 50273 N 4845.21 0.018448 1.57589 0
M  V30 50274 C 4846.45 -0.666778 1.93219 0
M  V30 50275 C 4846.82 -1.69902 0.894274 0
M  V30 50276 O 4848.02 -2.43596 1.13641 0
M  V30 50277 C 4846.29 -1.27672 3.33818 0
M  V30 50278 S 4847.85 -1.9845 3.9136 0
M  V30 50279 H 4844.66 -0.219802 0.676172 0
M  V30 50280 H 4847.27 0.079558 1.95338 0
M  V30 50281 H 4845.97 -0.512863 4.07183 0
M  V30 50282 H 4845.5 -2.06059 3.35117 0
M  V30 50283 H 4847.52 -3.26176 3.7393 0
M  V30 50284 N 4846.69 -1.5553 -0.254567 0
M  V30 50285 C 4847.65 -1.88877 -1.29839 0
M  V30 50286 C 4848.65 -0.764641 -1.41456 0
M  V30 50287 O 4849.84 -1.0327 -1.40289 0
M  V30 50288 C 4846.97 -2.11041 -2.67721 0
M  V30 50289 H 4848.17 -2.82204 -1.01492 0
M  V30 50290 H 4845.72 -1.48305 -0.493504 0
M  V30 50291 H 4846.46 -1.20157 -3.01219 0
M  V30 50292 H 4846.24 -2.92904 -2.60672 0
M  V30 50293 H 4847.73 -2.3805 -3.43106 0
M  V30 50294 N 4848.17 0.519898 -1.48778 0
M  V30 50295 C 4849.08 1.6502 -1.6675 0
M  V30 50296 C 4850.09 1.65078 -0.550012 0
M  V30 50297 O 4851.27 1.83846 -0.82236 0
M  V30 50298 C 4848.33 3.01454 -1.71249 0
M  V30 50299 C 4847.4 3.12171 -2.94699 0
M  V30 50300 C 4846.63 4.42098 -2.98973 0
M  V30 50301 O 4846.85 5.29792 -2.11369 0
M  V30 50302 O 4845.79 4.57393 -3.91249 0
M  V30 50303 H 4849.61 1.52791 -2.62466 0
M  V30 50304 H 4847.2 0.694111 -1.32297 0
M  V30 50305 H 4849.08 3.82578 -1.7667 0
M  V30 50306 H 4847.75 3.13985 -0.787085 0
M  V30 50307 H 4846.66 2.30306 -2.94805 0
M  V30 50308 H 4847.99 3.04561 -3.86657 0
M  V30 50309 N 4849.65 1.37535 0.769539 0
M  V30 50310 C 4850.9 1.32188 1.52346 0
M  V30 50311 C 4851.21 -0.0905868 1.9539 0
M  V30 50312 O 4852.41 -0.266533 2.70189 0
M  V30 50313 C 4850.87 2.32039 2.75111 0
M  V30 50314 C 4850.48 3.78825 2.39156 0
M  V30 50315 C 4852.22 2.35706 3.53048 0
M  V30 50316 C 4850.13 4.70401 3.58437 0
M  V30 50317 H 4849.06 0.491295 0.571966 0
M  V30 50318 H 4851.71 1.63006 0.842682 0
M  V30 50319 H 4850.09 1.94241 3.45089 0
M  V30 50320 H 4851.27 4.25472 1.76947 0
M  V30 50321 H 4849.58 3.78124 1.74389 0
M  V30 50322 H 4852.18 3.01328 4.41708 0
M  V30 50323 H 4852.52 1.3713 3.93066 0
M  V30 50324 H 4853.05 2.72223 2.90068 0
M  V30 50325 H 4849.79 5.70113 3.23498 0
M  V30 50326 H 4849.31 4.28457 4.19743 0
M  V30 50327 H 4850.99 4.87643 4.25222 0
M  V30 50328 N 4851.12 -0.995956 1.22141 0
M  V30 50329 C 4852.09 -2.06708 0.990182 0
M  V30 50330 C 4853.09 -1.60745 -0.0422413 0
M  V30 50331 O 4854.28 -1.73094 0.195956 0
M  V30 50332 C 4851.41 -3.37287 0.495029 0
M  V30 50333 H 4852.6 -2.28654 1.94055 0
M  V30 50334 H 4850.16 -1.16707 1.03967 0
M  V30 50335 H 4850.89 -3.21023 -0.459835 0
M  V30 50336 H 4850.68 -3.71982 1.23984 0
M  V30 50337 H 4852.17 -4.16102 0.353399 0
M  V30 50338 N 4852.6 -1.03061 -1.19231 0
M  V30 50339 C 4853.57 -0.617495 -2.20725 0
M  V30 50340 C 4854.57 0.319801 -1.57588 0
M  V30 50341 O 4855.76 0.106572 -1.73874 0
M  V30 50342 C 4852.89 0.0961762 -3.40764 0
M  V30 50343 H 4854.08 -1.51554 -2.58789 0
M  V30 50344 H 4851.63 -0.821996 -1.3294 0
M  V30 50345 H 4852.37 1.00848 -3.08221 0
M  V30 50346 H 4852.15 -0.577353 -3.87826 0
M  V30 50347 H 4853.64 0.372073 -4.15939 0
M  V30 50348 N 4854.08 1.35269 -0.80871 0
M  V30 50349 C 4855.01 2.28506 -0.17823 0
M  V30 50350 C 4856.03 1.50379 0.623702 0
M  V30 50351 O 4857.21 1.72585 0.455714 0
M  V30 50352 C 4854.31 3.3004 0.769843 0
M  V30 50353 C 4853.49 4.37398 0.0138212 0
M  V30 50354 C 4852.55 5.18778 0.880693 0
M  V30 50355 O 4851.57 5.68238 0.330859 0
M  V30 50356 N 4852.77 5.37095 2.20248 0
M  V30 50357 H 4855.54 2.83252 -0.979206 0
M  V30 50358 H 4853.1 1.47641 -0.66436 0
M  V30 50359 H 4855.09 3.81376 1.35405 0
M  V30 50360 H 4853.66 2.75794 1.47162 0
M  V30 50361 H 4852.88 3.86968 -0.751604 0
M  V30 50362 H 4854.17 5.06266 -0.507143 0
M  V30 50363 H 4853.57 4.9856 2.67311 0
M  V30 50364 H 4852.13 5.91602 2.73587 0
M  V30 50365 N 4855.56 0.5624 1.47224 0
M  V30 50366 C 4856.97 0.222547 1.58041 0
M  V30 50367 C 4857.17 -1.275 1.56032 0
M  V30 50368 O 4856.23 -2.05549 1.46648 0
M  V30 50369 C 4857.54 0.853795 2.88324 0
M  V30 50370 C 4859.09 0.825503 3.01918 0
M  V30 50371 C 4859.57 1.43592 4.34909 0
M  V30 50372 N 4861.06 1.39933 4.41557 0
M  V30 50373 C 4861.79 1.84122 5.43035 0
M  V30 50374 N 4861.29 2.3619 6.51296 0
M  V30 50375 N 4863.08 1.75161 5.34111 0
M  V30 50376 H 4855.23 1.5353 1.46773 0
M  V30 50377 H 4857.5 0.640551 0.698855 0
M  V30 50378 H 4857.2 1.90645 2.95546 0
M  V30 50379 H 4857.08 0.349902 3.75574 0
M  V30 50380 H 4859.46 -0.218479 2.9429 0
M  V30 50381 H 4859.54 1.36721 2.16197 0
M  V30 50382 H 4859.19 2.47899 4.43293 0
M  V30 50383 H 4859.12 0.869609 5.1937 0
M  V30 50384 H 4861.61 1.01852 3.63916 0
M  V30 50385 H 4861.92 2.67818 7.24909 0
M  V30 50386 H 4860.27 2.40204 6.52171 0
M  V30 50387 H 4863.46 1.34256 4.48434 0
M  V30 50388 H 4863.63 2.09916 6.13057 0
M  V30 50389 N 4857.04 -1.54735 0.299116 0
M  V30 50390 C 4858.26 -2.04513 -0.313375 0
M  V30 50391 C 4858.68 -1.17649 -1.47663 0
M  V30 50392 O 4858.04 -0.201704 -1.81382 0
M  V30 50393 C 4858.09 -3.53173 -0.771418 0
M  V30 50394 O 4857.81 -4.36735 0.345533 0
M  V30 50395 C 4859.31 -4.18941 -1.44926 0
M  V30 50396 H 4856.53 -0.667509 -0.0683549 0
M  V30 50397 H 4859.07 -1.9975 0.438199 0
M  V30 50398 H 4857.23 -3.58303 -1.47302 0
M  V30 50399 H 4857.64 -5.24499 -0.0107376 0
M  V30 50400 H 4859.12 -5.24488 -1.72093 0
M  V30 50401 H 4859.59 -3.68562 -2.3887 0
M  V30 50402 H 4860.2 -4.17882 -0.790881 0
M  V30 50403 N 4858.51 -0.0268051 -1.57577 0
M  V30 50404 C 4859.76 0.651669 -1.90883 0
M  V30 50405 C 4860.08 1.73423 -0.904637 0
M  V30 50406 O 4861.28 2.46919 -1.12886 0
M  V30 50407 C 4859.74 1.21036 -3.38937 0
M  V30 50408 C 4859.35 0.161204 -4.4771 0
M  V30 50409 C 4861.09 1.86548 -3.81314 0
M  V30 50410 C 4859 0.731405 -5.8686 0
M  V30 50411 H 4857.93 0.247173 -0.712335 0
M  V30 50412 H 4860.58 -0.0917285 -1.83271 0
M  V30 50413 H 4858.96 2.0053 -3.41473 0
M  V30 50414 H 4860.13 -0.6111 -4.5673 0
M  V30 50415 H 4858.45 -0.395023 -4.14522 0
M  V30 50416 H 4861.05 2.30161 -4.82628 0
M  V30 50417 H 4861.39 2.70724 -3.16251 0
M  V30 50418 H 4861.92 1.13748 -3.8119 0
M  V30 50419 H 4858.66 -0.0721634 -6.5546 0
M  V30 50420 H 4858.18 1.47225 -5.81451 0
M  V30 50421 H 4859.86 1.22186 -6.35358 0
M  V30 50422 N 4859.99 1.55663 0.246315 0
M  V30 50423 C 4860.94 1.9119 1.32473 0
M  V30 50424 C 4861.93 0.791048 1.49796 0
M  V30 50425 O 4863.14 0.975671 1.51264 0
M  V30 50426 H 4859.52 0.607222 0.443605 0
M  V30 50427 H 4861.49 2.81225 0.997754 0
M  V30 50428 C 4860.24 2.22358 2.67306 0
M  V30 50429 H 4859.56 3.08106 2.54776 0
M  V30 50430 H 4861 2.51119 3.41636 0
M  V30 50431 C 4859.46 1.04013 3.20442 0
M  V30 50432 O 4859.99 0.28842 4.00663 0
M  V30 50433 N 4858.19 0.830592 2.78477 0
M  V30 50434 H 4857.74 1.44358 2.13351 0
M  V30 50435 H 4857.7 0.0404363 3.14374 0
M  V30 50436 N 4861.47 -0.512001 1.49051 0
M  V30 50437 C 4862.72 -1.26608 1.59192 0
M  V30 50438 C 4863.07 -1.90493 0.27023 0
M  V30 50439 O 4862.36 -1.77207 -0.728586 0
M  V30 50440 C 4862.56 -2.36436 2.68016 0
M  V30 50441 C 4862.39 -1.8332 4.10638 0
M  V30 50442 C 4861.16 -1.65114 4.77562 0
M  V30 50443 C 4863.36 -1.35136 4.96229 0
M  V30 50444 N 4861.34 -1.06811 6.04537 0
M  V30 50445 C 4862.71 -0.88897 6.13594 0
M  V30 50446 C 4864.76 -1.23606 4.82313 0
M  V30 50447 C 4863.47 -0.322701 7.18576 0
M  V30 50448 C 4865.49 -0.683771 5.87434 0
M  V30 50449 C 4864.85 -0.231552 7.04019 0
M  V30 50450 H 4860.95 -0.453655 0.636962 0
M  V30 50451 H 4863.54 -0.575151 1.86011 0
M  V30 50452 H 4861.71 -3.03004 2.42988 0
M  V30 50453 H 4863.44 -3.03476 2.6774 0
M  V30 50454 H 4860.2 -1.89163 4.34182 0
M  V30 50455 H 4860.62 -0.796189 6.72302 0
M  V30 50456 H 4865.26 -1.5717 3.92502 0
M  V30 50457 H 4862.98 0.0252271 8.08096 0
M  V30 50458 H 4866.57 -0.59749 5.78724 0
M  V30 50459 H 4865.45 0.189145 7.83972 0
M  V30 50460 N 4862.95 -1.37941 -0.762235 0
M  V30 50461 C 4863.88 -1.30355 -1.88521 0
M  V30 50462 C 4864.89 -0.217458 -1.61341 0
M  V30 50463 O 4866.08 -0.474351 -1.72082 0
M  V30 50464 C 4863.18 -0.994958 -3.23966 0
M  V30 50465 C 4862.36 -2.18842 -3.78717 0
M  V30 50466 C 4861.41 -1.84862 -4.92659 0
M  V30 50467 O 4860.44 -2.57262 -5.07745 0
M  V30 50468 N 4861.64 -0.798403 -5.74983 0
M  V30 50469 H 4864.41 -2.2712 -1.95541 0
M  V30 50470 H 4861.97 -1.3169 -0.941779 0
M  V30 50471 H 4863.96 -0.748308 -3.97722 0
M  V30 50472 H 4862.53 -0.115556 -3.12386 0
M  V30 50473 H 4861.75 -2.59625 -2.96628 0
M  V30 50474 H 4863.04 -2.98512 -4.12029 0
M  V30 50475 H 4862.44 -0.19781 -5.65354 0
M  V30 50476 H 4860.99 -0.611624 -6.48924 0
M  V30 50477 N 4864.43 0.989464 -1.22668 0
M  V30 50478 C 4865.37 2.0802 -0.999806 0
M  V30 50479 C 4866.34 1.65909 0.0796464 0
M  V30 50480 O 4867.53 1.90669 -0.0706385 0
M  V30 50481 C 4864.67 3.40065 -0.587354 0
M  V30 50482 C 4863.78 3.95499 -1.73795 0
M  V30 50483 C 4862.92 5.15717 -1.27315 0
M  V30 50484 C 4861.96 5.63296 -2.39507 0
M  V30 50485 N 4861.09 6.74751 -1.9405 0
M  V30 50486 H 4865.93 2.26761 -1.93348 0
M  V30 50487 H 4863.47 1.11168 -0.963336 0
M  V30 50488 H 4865.43 4.15898 -0.329373 0
M  V30 50489 H 4864.06 3.21315 0.309313 0
M  V30 50490 H 4863.11 3.16506 -2.11017 0
M  V30 50491 H 4864.42 4.26788 -2.58173 0
M  V30 50492 H 4863.58 5.98851 -0.972757 0
M  V30 50493 H 4862.32 4.8606 -0.399616 0
M  V30 50494 H 4861.32 4.78749 -2.70332 0
M  V30 50495 H 4862.55 5.94977 -3.27383 0
M  V30 50496 H 4860.49 6.4687 -1.09063 0
M  V30 50497 H 4860.41 7.05376 -2.71993 0
M  V30 50498 H 4861.68 7.61381 -1.67089 0
M  V30 50499 N 4865.91 1.03692 1.18683 0
M  V30 50500 C 4867.15 0.738096 1.88569 0
M  V30 50501 C 4867.48 -0.733909 1.80122 0
M  V30 50502 O 4866.74 -1.55094 1.1935 0
M  V30 50503 C 4867.03 1.14489 3.38566 0
M  V30 50504 C 4866.7 2.61654 3.67217 0
M  V30 50505 C 4865.36 3.01859 3.74746 0
M  V30 50506 C 4867.71 3.56826 3.79901 0
M  V30 50507 C 4865.04 4.36132 3.92435 0
M  V30 50508 C 4867.39 4.90813 3.99106 0
M  V30 50509 C 4866.06 5.30695 4.0487 0
M  V30 50510 H 4865.33 0.270088 0.690024 0
M  V30 50511 H 4867.98 1.30125 1.40498 0
M  V30 50512 H 4866.28 0.500474 3.8859 0
M  V30 50513 H 4867.98 0.891088 3.90974 0
M  V30 50514 H 4864.57 2.29511 3.61971 0
M  V30 50515 H 4868.75 3.26912 3.7342 0
M  V30 50516 H 4864.01 4.66556 3.9514 0
M  V30 50517 H 4868.18 5.64466 4.07862 0
M  V30 50518 H 4865.81 6.34748 4.18329 0
M  V30 50519 N 4867.38 -1.34838 0.815872 0
M  V30 50520 C 4868.62 -2.0032 0.406367 0
M  V30 50521 C 4868.99 -1.63296 -1.00986 0
M  V30 50522 O 4870.19 -2.21568 -1.52188 0
M  V30 50523 C 4868.46 -3.52419 0.594593 0
M  V30 50524 S 4870.02 -4.37926 0.276889 0
M  V30 50525 H 4866.84 -0.69415 0.153873 0
M  V30 50526 H 4869.44 -1.64259 1.06015 0
M  V30 50527 H 4868.14 -3.76852 1.62513 0
M  V30 50528 H 4867.67 -3.9333 -0.0741774 0
M  V30 50529 H 4869.69 -4.87746 -0.912043 0
M  V30 50530 N 4868.86 -0.570199 -1.46923 0
M  V30 50531 C 4870.11 -0.0488061 -2.01641 0
M  V30 50532 C 4870.42 1.31428 -1.44866 0
M  V30 50533 O 4871.63 1.92632 -1.91325 0
M  V30 50534 C 4870.09 -0.0367082 -3.59881 0
M  V30 50535 C 4869.69 -1.39734 -4.2565 0
M  V30 50536 C 4871.44 0.431396 -4.22302 0
M  V30 50537 C 4869.34 -1.34365 -5.75934 0
M  V30 50538 H 4868.27 -0.0144757 -0.753861 0
M  V30 50539 H 4870.93 -0.719987 -1.68785 0
M  V30 50540 H 4869.31 0.700385 -3.89757 0
M  V30 50541 H 4870.48 -2.15318 -4.074 0
M  V30 50542 H 4868.8 -1.80444 -3.75272 0
M  V30 50543 H 4871.39 0.490167 -5.32449 0
M  V30 50544 H 4871.74 1.44624 -3.90371 0
M  V30 50545 H 4872.27 -0.251241 -3.97006 0
M  V30 50546 H 4869.01 -2.3349 -6.12505 0
M  V30 50547 H 4868.53 -0.629825 -5.96484 0
M  V30 50548 H 4870.21 -1.05122 -6.38403 0
M  V30 50549 N 4870.34 1.54575 -0.307318 0
M  V30 50550 C 4871.29 2.23753 0.565962 0
M  V30 50551 C 4872.26 1.22239 1.12458 0
M  V30 50552 O 4873.44 1.50877 1.16793 0
M  V30 50553 C 4870.58 2.98668 1.72892 0
M  V30 50554 C 4869.69 4.14967 1.20109 0
M  V30 50555 C 4868.83 4.77449 2.32843 0
M  V30 50556 C 4867.87 5.85882 1.77226 0
M  V30 50557 N 4867.01 6.42292 2.83558 0
M  V30 50558 H 4871.85 2.97984 -0.0305626 0
M  V30 50559 H 4869.38 1.47075 -0.0268532 0
M  V30 50560 H 4871.34 3.40338 2.41301 0
M  V30 50561 H 4869.97 2.26801 2.29698 0
M  V30 50562 H 4869.02 3.78194 0.409065 0
M  V30 50563 H 4870.33 4.93068 0.753997 0
M  V30 50564 H 4869.49 5.22004 3.09187 0
M  V30 50565 H 4868.23 3.98694 2.80882 0
M  V30 50566 H 4867.23 5.40745 0.993736 0
M  V30 50567 H 4868.46 6.66525 1.30083 0
M  V30 50568 H 4866.4 5.66418 3.30919 0
M  V30 50569 H 4866.32 7.15759 2.43362 0
M  V30 50570 H 4867.59 6.91505 3.5978 0
M  V30 50571 N 4871.82 0.0351614 1.57561 0
M  V30 50572 C 4873.09 -0.681148 1.83357 0
M  V30 50573 C 4873.47 -1.89982 0.920319 0
M  V30 50574 O 4872.82 -2.28489 -0.0226012 0
M  V30 50575 C 4873.03 -1.05364 3.32715 0
M  V30 50576 C 4874.38 -1.44272 3.99338 0
M  V30 50577 O 4875.4 -1.14645 3.37246 0
M  V30 50578 O 4874.26 -1.995 5.08785 0
M  V30 50579 H 4871.36 -0.334715 0.756237 0
M  V30 50580 H 4873.9 0.0633044 1.69582 0
M  V30 50581 H 4872.68 -0.186531 3.90855 0
M  V30 50582 H 4872.3 -1.85606 3.51619 0
M  V30 50583 N 4873.3 -1.55792 -0.238056 0
M  V30 50584 C 4874.57 -1.68802 -0.988201 0
M  V30 50585 C 4874.95 -0.577633 -2.03043 0
M  V30 50586 O 4874.3 0.417701 -2.2465 0
M  V30 50587 C 4874.51 -3.09459 -1.61356 0
M  V30 50588 C 4875.86 -3.68343 -2.11208 0
M  V30 50589 O 4876.88 -3.12316 -1.71281 0
M  V30 50590 O 4875.74 -4.6658 -2.84544 0
M  V30 50591 H 4872.84 -0.686897 -0.460544 0
M  V30 50592 H 4875.38 -1.68118 -0.231143 0
M  V30 50593 H 4874.15 -3.81729 -0.860161 0
M  V30 50594 H 4873.78 -3.14191 -2.43659 0
M  V30 50595 N 4874.77 0.504089 -1.49321 0
M  V30 50596 C 4876 1.28723 -1.62619 0
M  V30 50597 C 4876.42 1.8575 -0.296374 0
M  V30 50598 O 4875.78 1.65707 0.735591 0
M  V30 50599 C 4875.83 2.39551 -2.69532 0
M  V30 50600 O 4874.93 3.43316 -2.2849 0
M  V30 50601 H 4874.27 0.380153 -0.544408 0
M  V30 50602 H 4876.8 0.603803 -1.95488 0
M  V30 50603 H 4876.81 2.8536 -2.91605 0
M  V30 50604 H 4875.49 1.9741 -3.66063 0
M  V30 50605 H 4874.07 3.03447 -2.16735 0
M  V30 50606 N 4876.25 1.38343 0.754909 0
M  V30 50607 C 4877.5 1.34678 1.51624 0
M  V30 50608 C 4877.83 -0.0635354 1.94096 0
M  V30 50609 O 4877.11 -1.02445 1.65334 0
M  V30 50610 C 4877.39 2.30126 2.76973 0
M  V30 50611 C 4877.24 3.80012 2.40647 0
M  V30 50612 C 4878.56 2.23729 3.7899 0
M  V30 50613 H 4875.68 0.490536 0.550039 0
M  V30 50614 H 4878.32 1.69181 0.864748 0
M  V30 50615 H 4876.47 2.00833 3.32563 0
M  V30 50616 H 4878.14 4.19973 1.90842 0
M  V30 50617 H 4876.39 3.97757 1.73123 0
M  V30 50618 H 4877.06 4.42256 3.30324 0
M  V30 50619 H 4879.53 2.49586 3.32936 0
M  V30 50620 H 4878.41 2.92627 4.64393 0
M  V30 50621 H 4878.67 1.23569 4.2448 0
M  V30 50622 N 4877.73 -0.982945 1.23191 0
M  V30 50623 C 4878.66 -2.09297 1.03523 0
M  V30 50624 C 4879.64 -1.70035 -0.0470538 0
M  V30 50625 O 4880.83 -1.93847 0.117098 0
M  V30 50626 C 4877.96 -3.41668 0.622911 0
M  V30 50627 C 4876.91 -3.94822 1.65225 0
M  V30 50628 C 4876.24 -5.23358 1.09546 0
M  V30 50629 C 4877.54 -4.24379 3.04466 0
M  V30 50630 H 4879.23 -2.26009 1.96367 0
M  V30 50631 H 4876.78 -1.08607 0.945539 0
M  V30 50632 H 4878.73 -4.18744 0.472381 0
M  V30 50633 H 4877.45 -3.24813 -0.341215 0
M  V30 50634 H 4876.11 -3.19888 1.79073 0
M  V30 50635 H 4875.76 -5.02851 0.122388 0
M  V30 50636 H 4875.46 -5.59889 1.7832 0
M  V30 50637 H 4876.98 -6.03058 0.956723 0
M  V30 50638 H 4878.4 -4.92215 2.93935 0
M  V30 50639 H 4876.79 -4.72105 3.70455 0
M  V30 50640 H 4877.86 -3.31753 3.53649 0
M  V30 50641 N 4879.21 -1.0432 -1.18132 0
M  V30 50642 C 4880.44 -0.767071 -1.91832 0
M  V30 50643 C 4880.85 0.679958 -1.76559 0
M  V30 50644 O 4880.19 1.47544 -1.09437 0
M  V30 50645 C 4880.25 -1.05687 -3.43614 0
M  V30 50646 C 4879.92 -2.49831 -3.82666 0
M  V30 50647 C 4880.91 -3.48017 -3.86238 0
M  V30 50648 C 4878.6 -2.8461 -4.13887 0
M  V30 50649 C 4880.59 -4.7903 -4.20486 0
M  V30 50650 C 4878.28 -4.15829 -4.47805 0
M  V30 50651 C 4879.28 -5.1285 -4.51081 0
M  V30 50652 O 4878.96 -6.41716 -4.84206 0
M  V30 50653 H 4878.7 -0.278969 -0.615753 0
M  V30 50654 H 4881.25 -1.39465 -1.50793 0
M  V30 50655 H 4879.48 -0.372165 -3.84905 0
M  V30 50656 H 4881.17 -0.768134 -3.98566 0
M  V30 50657 H 4881.94 -3.22488 -3.62252 0
M  V30 50658 H 4877.81 -2.09762 -4.10513 0
M  V30 50659 H 4881.36 -5.54754 -4.22958 0
M  V30 50660 H 4877.26 -4.41126 -4.71252 0
M  V30 50661 H 4878.02 -6.46405 -5.02099 0
M  V30 50662 N 4880.69 1.34403 -0.823012 0
M  V30 50663 C 4881.93 1.98283 -0.411126 0
M  V30 50664 C 4882.26 1.65249 1.02582 0
M  V30 50665 O 4881.52 0.916251 1.72926 0
M  V30 50666 C 4881.82 3.52979 -0.560392 0
M  V30 50667 C 4881.48 4.05924 -1.96307 0
M  V30 50668 C 4880.14 4.20095 -2.34678 0
M  V30 50669 C 4882.5 4.34402 -2.88 0
M  V30 50670 C 4879.82 4.6007 -3.64078 0
M  V30 50671 C 4882.18 4.75823 -4.16864 0
M  V30 50672 C 4880.84 4.88199 -4.55212 0
M  V30 50673 H 4880.11 0.725568 -0.150442 0
M  V30 50674 H 4882.76 1.60345 -1.04698 0
M  V30 50675 H 4881.06 3.91478 0.158844 0
M  V30 50676 H 4882.76 4.00384 -0.222227 0
M  V30 50677 H 4879.35 3.95357 -1.65501 0
M  V30 50678 H 4883.53 4.22992 -2.59599 0
M  V30 50679 H 4878.79 4.67842 -3.93616 0
M  V30 50680 H 4882.96 4.96817 -4.88002 0
M  V30 50681 H 4880.59 5.18932 -5.5553 0
M  V30 50682 N 4882.16 0.577983 1.46619 0
M  V30 50683 C 4883.09 -0.145835 2.33044 0
M  V30 50684 C 4884.08 -0.888361 1.45059 0
M  V30 50685 O 4885.26 -0.864751 1.73884 0
M  V30 50686 C 4882.39 -1.1631 3.27245 0
M  V30 50687 C 4881.34 -0.535718 4.24634 0
M  V30 50688 C 4880.67 -1.65912 5.08308 0
M  V30 50689 C 4881.97 0.524044 5.19664 0
M  V30 50690 H 4883.66 0.575739 2.93812 0
M  V30 50691 H 4881.21 0.278322 1.41285 0
M  V30 50692 H 4883.16 -1.6778 3.86559 0
M  V30 50693 H 4881.89 -1.91489 2.64574 0
M  V30 50694 H 4880.55 -0.042147 3.66576 0
M  V30 50695 H 4880.19 -2.40045 4.42026 0
M  V30 50696 H 4879.89 -1.245 5.74259 0
M  V30 50697 H 4881.42 -2.17666 5.70486 0
M  V30 50698 H 4882.83 0.0946075 5.73222 0
M  V30 50699 H 4881.23 0.858209 5.93932 0
M  V30 50700 H 4882.3 1.41213 4.63882 0
M  V30 50701 N 4883.64 -1.54409 0.315511 0
M  V30 50702 C 4884.57 -2.27004 -0.546959 0
M  V30 50703 C 4885.55 -1.27495 -1.12601 0
M  V30 50704 O 4886.74 -1.56294 -1.15264 0
M  V30 50705 C 4883.87 -3.02177 -1.71191 0
M  V30 50706 C 4882.82 -4.08955 -1.26254 0
M  V30 50707 C 4882.15 -4.71924 -2.5138 0
M  V30 50708 C 4883.45 -5.20892 -0.383236 0
M  V30 50709 H 4885.14 -2.99343 0.0585569 0
M  V30 50710 H 4882.69 -1.4397 0.0296034 0
M  V30 50711 H 4884.64 -3.51689 -2.32149 0
M  V30 50712 H 4883.37 -2.27441 -2.34389 0
M  V30 50713 H 4882.02 -3.60315 -0.675936 0
M  V30 50714 H 4881.67 -3.93812 -3.12924 0
M  V30 50715 H 4881.37 -5.44047 -2.22007 0
M  V30 50716 H 4882.9 -5.24206 -3.13114 0
M  V30 50717 H 4884.31 -5.66209 -0.898883 0
M  V30 50718 H 4882.71 -5.99822 -0.182646 0
M  V30 50719 H 4883.78 -4.81322 0.587991 0
M  V30 50720 N 4885.12 -0.0435168 -1.5754 0
M  V30 50721 C 4886.05 0.962513 -2.0801 0
M  V30 50722 C 4887.07 1.27968 -1.00638 0
M  V30 50723 O 4888.25 1.24181 -1.28224 0
M  V30 50724 C 4885.35 2.28612 -2.50179 0
M  V30 50725 C 4884.53 2.152 -3.80799 0
M  V30 50726 C 4883.59 3.30619 -4.09362 0
M  V30 50727 O 4882.61 3.06863 -4.79399 0
M  V30 50728 N 4883.81 4.5486 -3.6067 0
M  V30 50729 H 4886.58 0.531787 -2.94944 0
M  V30 50730 H 4884.14 0.142908 -1.61268 0
M  V30 50731 H 4886.13 3.04679 -2.66369 0
M  V30 50732 H 4884.7 2.63277 -1.68534 0
M  V30 50733 H 4883.92 1.23772 -3.74265 0
M  V30 50734 H 4885.21 2.03458 -4.6635 0
M  V30 50735 H 4884.61 4.77052 -3.04036 0
M  V30 50736 H 4883.17 5.28047 -3.82112 0
M  V30 50737 N 4886.6 1.55916 0.229791 0
M  V30 50738 C 4887.84 1.7881 0.956805 0
M  V30 50739 C 4888.18 0.611751 1.84313 0
M  V30 50740 O 4887.45 -0.389331 1.90564 0
M  V30 50741 C 4887.74 3.11724 1.80277 0
M  V30 50742 C 4887.59 4.39793 0.943494 0
M  V30 50743 C 4888.91 3.41009 2.7821 0
M  V30 50744 H 4886.03 0.650512 0.346414 0
M  V30 50745 H 4888.67 1.88649 0.226186 0
M  V30 50746 H 4886.82 3.03468 2.42569 0
M  V30 50747 H 4888.49 4.6006 0.337959 0
M  V30 50748 H 4886.73 4.33087 0.248553 0
M  V30 50749 H 4887.4 5.29214 1.56961 0
M  V30 50750 H 4889.88 3.4934 2.26055 0
M  V30 50751 H 4888.76 4.35194 3.3451 0
M  V30 50752 H 4889.02 2.62766 3.55537 0
M  V30 50753 N 4888.08 -0.496163 1.49586 0
M  V30 50754 C 4889.3 -1.27859 1.633 0
M  V30 50755 C 4889.73 -1.85591 0.306221 0
M  V30 50756 O 4889.08 -1.66095 -0.726792 0
M  V30 50757 C 4889.13 -2.38119 2.70799 0
M  V30 50758 O 4888.24 -3.421 2.30308 0
M  V30 50759 H 4887.58 -0.37726 0.546416 0
M  V30 50760 H 4890.11 -0.593428 1.95805 0
M  V30 50761 H 4890.12 -2.8381 2.93114 0
M  V30 50762 H 4888.79 -1.95466 3.67105 0
M  V30 50763 H 4887.37 -3.02294 2.18341 0
M  V30 50764 N 4889.55 -1.38742 -0.747561 0
M  V30 50765 C 4890.8 -1.35279 -1.50684 0
M  V30 50766 C 4891.13 0.0552676 -1.94421 0
M  V30 50767 O 4890.38 1.03359 -1.66179 0
M  V30 50768 C 4890.68 -2.26001 -2.76872 0
M  V30 50769 C 4890.35 -3.73863 -2.52067 0
M  V30 50770 C 4889.01 -4.14154 -2.45011 0
M  V30 50771 C 4891.36 -4.67435 -2.30552 0
M  V30 50772 C 4888.69 -5.46097 -2.14464 0
M  V30 50773 C 4891.04 -5.99642 -2.01524 0
M  V30 50774 C 4889.71 -6.39011 -1.92929 0
M  V30 50775 H 4888.98 -0.495023 -0.551392 0
M  V30 50776 H 4891.62 -1.71148 -0.859098 0
M  V30 50777 H 4889.93 -1.83208 -3.46326 0
M  V30 50778 H 4891.63 -2.20623 -3.34853 0
M  V30 50779 H 4888.22 -3.41922 -2.58432 0
M  V30 50780 H 4892.4 -4.37149 -2.34978 0
M  V30 50781 H 4887.66 -5.75536 -2.06322 0
M  V30 50782 H 4891.83 -6.71685 -1.83882 0
M  V30 50783 H 4889.46 -7.41171 -1.69024 0
M  V30 50784 N 4891.03 0.976398 -1.2371 0
M  V30 50785 C 4891.96 2.08745 -1.04631 0
M  V30 50786 C 4892.94 1.70057 0.0380358 0
M  V30 50787 O 4894.13 1.93782 -0.127376 0
M  V30 50788 C 4891.26 3.41333 -0.641022 0
M  V30 50789 C 4890.21 3.93941 -1.67316 0
M  V30 50790 C 4889.54 5.2277 -1.1232 0
M  V30 50791 C 4890.84 4.22759 -3.06712 0
M  V30 50792 H 4892.53 2.24965 -1.97563 0
M  V30 50793 H 4890.08 1.08104 -0.951285 0
M  V30 50794 H 4892.03 4.18488 -0.494581 0
M  V30 50795 H 4890.76 3.24989 0.323985 0
M  V30 50796 H 4889.41 3.18934 -1.80767 0
M  V30 50797 H 4889.06 5.02779 -0.149054 0
M  V30 50798 H 4888.76 5.58936 -1.81287 0
M  V30 50799 H 4890.29 6.02542 -0.988691 0
M  V30 50800 H 4891.7 4.90649 -2.96541 0
M  V30 50801 H 4890.1 4.70134 -3.72953 0
M  V30 50802 H 4891.17 3.29873 -3.55404 0
M  V30 50803 N 4892.51 1.04945 1.17577 0
M  V30 50804 C 4893.76 0.759178 1.88054 0
M  V30 50805 C 4894.09 -0.711855 1.80683 0
M  V30 50806 O 4893.36 -1.52031 1.21313 0
M  V30 50807 C 4893.65 1.23712 3.38182 0
M  V30 50808 C 4893.5 2.77091 3.54317 0
M  V30 50809 C 4894.82 0.834166 4.32122 0
M  V30 50810 H 4891.94 0.277261 0.682858 0
M  V30 50811 H 4894.58 1.30301 1.38281 0
M  V30 50812 H 4892.73 0.774471 3.80702 0
M  V30 50813 H 4894.4 3.3146 3.2083 0
M  V30 50814 H 4892.65 3.16488 2.96678 0
M  V30 50815 H 4893.32 3.05593 4.59692 0
M  V30 50816 H 4895.79 1.23242 3.9743 0
M  V30 50817 H 4894.67 1.19622 5.35707 0
M  V30 50818 H 4894.93 -0.26204 4.41323 0
M  V30 50819 N 4893.99 -1.33965 0.830128 0
M  V30 50820 C 4895.27 -1.92553 0.343926 0
M  V30 50821 C 4895.65 -1.75734 -1.16965 0
M  V30 50822 O 4894.99 -1.14042 -1.98007 0
M  V30 50823 C 4895.2 -3.40145 0.781192 0
M  V30 50824 C 4896.55 -4.17296 0.784167 0
M  V30 50825 O 4897.58 -3.4876 0.724234 0
M  V30 50826 O 4896.44 -5.39628 0.863929 0
M  V30 50827 H 4893.53 -0.821466 0.0955116 0
M  V30 50828 H 4896.08 -1.42893 0.915398 0
M  V30 50829 H 4894.85 -3.46219 1.82341 0
M  V30 50830 H 4894.47 -3.97166 0.18581 0
M  V30 50831 N 4895.47 -0.585751 -1.4631 0
M  V30 50832 C 4896.38 0.148154 -2.34132 0
M  V30 50833 C 4897.39 0.882919 -1.49935 0
M  V30 50834 O 4898.57 0.84542 -1.82797 0
M  V30 50835 C 4895.63 1.14702 -3.27176 0
M  V30 50836 C 4894.7 0.416596 -4.27274 0
M  V30 50837 C 4893.93 1.36788 -5.15873 0
M  V30 50838 O 4894.15 2.60457 -5.07463 0
M  V30 50839 O 4893.09 0.876809 -5.95479 0
M  V30 50840 H 4896.91 -0.572987 -2.98246 0
M  V30 50841 H 4894.5 -0.346133 -1.45335 0
M  V30 50842 H 4896.38 1.72289 -3.8457 0
M  V30 50843 H 4895.05 1.84958 -2.65655 0
M  V30 50844 H 4893.96 -0.201192 -3.73559 0
M  V30 50845 H 4895.29 -0.245045 -4.9159 0
M  V30 50846 N 4896.95 1.5424 -0.323695 0
M  V30 50847 C 4898.19 2.00175 0.278289 0
M  V30 50848 C 4898.51 1.21346 1.52644 0
M  V30 50849 O 4897.78 0.315312 1.93346 0
M  V30 50850 H 4896.36 0.739467 0.105819 0
M  V30 50851 H 4899.03 1.89862 -0.440271 0
M  V30 50852 H 4898.12 3.07487 0.534592 0
M  V30 50853 N 4898.42 0.0518709 1.57515 0
M  V30 50854 C 4899.67 -0.622677 1.93004 0
M  V30 50855 C 4900 -1.70453 0.930559 0
M  V30 50856 O 4899.28 -1.94452 -0.0433402 0
M  V30 50857 C 4899.56 -1.21812 3.38871 0
M  V30 50858 C 4899.41 -0.144276 4.49569 0
M  V30 50859 C 4900.73 -2.12955 3.85147 0
M  V30 50860 H 4897.85 -0.224885 0.701852 0
M  V30 50861 H 4900.49 0.113778 1.89659 0
M  V30 50862 H 4898.64 -1.84578 3.41853 0
M  V30 50863 H 4900.32 0.487691 4.58715 0
M  V30 50864 H 4898.56 0.527575 4.3058 0
M  V30 50865 H 4899.23 -0.600934 5.48719 0
M  V30 50866 H 4901.71 -1.6015 3.84046 0
M  V30 50867 H 4900.58 -2.51561 4.87861 0
M  V30 50868 H 4900.84 -3.02992 3.21944 0
M  V30 50869 N 4899.9 -1.56035 -0.221519 0
M  V30 50870 C 4901.13 -1.83479 -0.966962 0
M  V30 50871 C 4901.55 -0.632202 -1.77158 0
M  V30 50872 O 4900.91 0.41902 -1.76391 0
M  V30 50873 C 4900.96 -3.08914 -1.86023 0
M  V30 50874 O 4900.06 -2.8761 -2.95557 0
M  V30 50875 H 4899.4 -0.604923 -0.273796 0
M  V30 50876 H 4901.93 -2.03248 -0.234822 0
M  V30 50877 H 4901.94 -3.39018 -2.27004 0
M  V30 50878 H 4900.62 -3.96072 -1.26884 0
M  V30 50879 H 4899.19 -2.68739 -2.58523 0
M  V30 50880 N 4901.38 0.488223 -1.49847 0
M  V30 50881 C 4902.79 1.0695 -1.53032 0
M  V30 50882 C 4903.14 1.93509 -0.323865 0
M  V30 50883 O 4902.27 2.08893 0.565042 0
M  V30 50884 C 4902.86 1.94634 -2.77314 0
M  V30 50885 C 4901.42 2.479 -2.83236 0
M  V30 50886 C 4900.57 1.25825 -2.4711 0
M  V30 50887 H 4903.52 0.271571 -1.56359 0
M  V30 50888 H 4903.54 2.79487 -2.582 0
M  V30 50889 H 4903.05 1.31608 -3.65104 0
M  V30 50890 H 4901.15 3.14528 -1.99756 0
M  V30 50891 H 4901.27 2.84179 -3.85719 0
M  V30 50892 H 4899.63 1.58757 -1.99169 0
M  V30 50893 H 4900.41 0.644875 -3.37189 0
M  V30 50894 N 4902.86 1.39136 0.740193 0
M  V30 50895 C 4904.1 1.36278 1.50187 0
M  V30 50896 C 4904.44 -0.0429453 1.94153 0
M  V30 50897 O 4903.71 -1.00685 1.66411 0
M  V30 50898 C 4903.99 2.33051 2.74517 0
M  V30 50899 C 4903.85 3.82543 2.36603 0
M  V30 50900 C 4905.17 2.27736 3.76596 0
M  V30 50901 H 4902.29 0.496343 0.544805 0
M  V30 50902 H 4904.93 1.70088 0.846755 0
M  V30 50903 H 4903.08 2.04349 3.30415 0
M  V30 50904 H 4904.75 4.21973 1.86376 0
M  V30 50905 H 4902.99 3.99571 1.68895 0
M  V30 50906 H 4903.66 4.45734 3.25615 0
M  V30 50907 H 4906.14 2.53103 3.3027 0
M  V30 50908 H 4905.02 2.97536 4.61263 0
M  V30 50909 H 4905.28 1.28064 4.23145 0
M  V30 50910 N 4904.34 -0.969824 1.24226 0
M  V30 50911 C 4905.27 -2.08187 1.05737 0
M  V30 50912 C 4906.25 -1.70075 -0.0290167 0
M  V30 50913 O 4907.43 -1.93712 0.137651 0
M  V30 50914 C 4904.56 -3.40988 0.659114 0
M  V30 50915 C 4903.52 -3.93048 1.69403 0
M  V30 50916 C 4902.84 -5.22167 1.1509 0
M  V30 50917 C 4904.14 -4.21126 3.0895 0
M  V30 50918 H 4905.84 -2.23914 1.98753 0
M  V30 50919 H 4903.38 -1.07598 0.957005 0
M  V30 50920 H 4905.33 -4.18219 0.516767 0
M  V30 50921 H 4904.06 -3.25156 -0.306745 0
M  V30 50922 H 4902.72 -3.17971 1.82455 0
M  V30 50923 H 4902.37 -5.02693 0.175715 0
M  V30 50924 H 4902.07 -5.57966 1.84248 0
M  V30 50925 H 4903.59 -6.0201 1.02063 0
M  V30 50926 H 4905 -4.8907 2.99139 0
M  V30 50927 H 4903.4 -4.68149 3.75441 0
M  V30 50928 H 4904.47 -3.27983 3.57148 0
M  V30 50929 N 4905.81 -1.05567 -1.17018 0
M  V30 50930 C 4906.74 -0.681104 -2.23346 0
M  V30 50931 C 4907.72 0.322924 -1.67007 0
M  V30 50932 O 4908.91 0.199679 -1.93171 0
M  V30 50933 C 4906.04 -0.0590274 -3.4725 0
M  V30 50934 C 4904.99 -0.988228 -4.16435 0
M  V30 50935 C 4904.32 -0.229834 -5.34206 0
M  V30 50936 C 4905.62 -2.31405 -4.68241 0
M  V30 50937 H 4907.31 -1.57002 -2.54933 0
M  V30 50938 H 4904.86 -0.756345 -1.22537 0
M  V30 50939 H 4906.81 0.214834 -4.20852 0
M  V30 50940 H 4905.54 0.864858 -3.14941 0
M  V30 50941 H 4904.2 -1.24672 -3.4475 0
M  V30 50942 H 4903.84 0.696936 -4.98148 0
M  V30 50943 H 4903.54 -0.849019 -5.81434 0
M  V30 50944 H 4905.07 0.0366548 -6.10589 0
M  V30 50945 H 4906.48 -2.09982 -5.33461 0
M  V30 50946 H 4904.88 -2.88754 -5.26062 0
M  V30 50947 H 4905.95 -2.94995 -3.84845 0
M  V30 50948 N 4907.29 1.33523 -0.837221 0
M  V30 50949 C 4908.22 2.28077 -0.226659 0
M  V30 50950 C 4909.24 1.51668 0.591664 0
M  V30 50951 O 4910.43 1.73513 0.419003 0
M  V30 50952 C 4907.53 3.31599 0.699664 0
M  V30 50953 C 4906.7 4.37329 -0.0789605 0
M  V30 50954 C 4905.76 5.20529 0.770454 0
M  V30 50955 O 4904.78 5.68812 0.210253 0
M  V30 50956 N 4905.99 5.41646 2.08806 0
M  V30 50957 H 4908.75 2.81111 -1.03907 0
M  V30 50958 H 4906.31 1.46199 -0.695527 0
M  V30 50959 H 4908.3 3.84162 1.27285 0
M  V30 50960 H 4906.87 2.78853 1.41279 0
M  V30 50961 H 4906.09 3.85287 -0.833516 0
M  V30 50962 H 4907.38 5.05077 -0.614416 0
M  V30 50963 H 4906.78 5.04117 2.56675 0
M  V30 50964 H 4905.34 5.97272 2.60977 0
M  V30 50965 N 4908.77 0.593501 1.45998 0
M  V30 50966 C 4909.7 -0.12111 2.33186 0
M  V30 50967 C 4910.68 -0.872926 1.45993 0
M  V30 50968 O 4911.87 -0.84626 1.74792 0
M  V30 50969 C 4909 -1.12833 3.2846 0
M  V30 50970 C 4907.95 -0.49065 4.25178 0
M  V30 50971 C 4907.28 -1.60511 5.1004 0
M  V30 50972 C 4908.58 0.579132 5.19079 0
M  V30 50973 H 4910.27 0.60687 2.93185 0
M  V30 50974 H 4907.82 0.293291 1.40982 0
M  V30 50975 H 4909.77 -1.6367 3.88317 0
M  V30 50976 H 4908.49 -1.88672 2.6659 0
M  V30 50977 H 4907.15 -0.0032644 3.666 0
M  V30 50978 H 4906.8 -2.35344 4.44547 0
M  V30 50979 H 4906.5 -1.18402 5.75547 0
M  V30 50980 H 4908.02 -2.11603 5.72762 0
M  V30 50981 H 4909.44 0.1554 5.73089 0
M  V30 50982 H 4907.84 0.921155 5.92988 0
M  V30 50983 H 4908.91 1.46125 4.62359 0
M  V30 50984 N 4910.25 -1.54066 0.33187 0
M  V30 50985 C 4911.18 -2.27571 -0.522852 0
M  V30 50986 C 4912.16 -1.28683 -1.11242 0
M  V30 50987 O 4913.34 -1.57508 -1.136 0
M  V30 50988 C 4910.47 -3.03976 -1.67976 0
M  V30 50989 C 4909.43 -4.10271 -1.21909 0
M  V30 50990 C 4908.75 -4.74564 -2.4636 0
M  V30 50991 C 4910.05 -5.21269 -0.327967 0
M  V30 50992 H 4911.75 -2.99264 0.0903029 0
M  V30 50993 H 4909.29 -1.4393 0.0448716 0
M  V30 50994 H 4911.25 -3.54131 -2.28406 0
M  V30 50995 H 4909.97 -2.29914 -2.31963 0
M  V30 50996 H 4908.63 -3.61011 -0.637682 0
M  V30 50997 H 4908.28 -3.97109 -3.08729 0
M  V30 50998 H 4907.98 -5.46371 -2.16224 0
M  V30 50999 H 4909.5 -5.27497 -3.07537 0
M  V30 51000 H 4910.92 -5.67131 -0.838778 0
M  V30 51001 H 4909.31 -5.99982 -0.119017 0
M  V30 51002 H 4910.38 -4.80671 0.639008 0
M  V30 51003 N 4911.73 -0.0602235 -1.57485 0
M  V30 51004 C 4912.95 0.624347 -1.97779 0
M  V30 51005 C 4913.38 1.63048 -0.937925 0
M  V30 51006 O 4912.73 1.81036 0.0978209 0
M  V30 51007 C 4912.78 1.27967 -3.3713 0
M  V30 51008 O 4911.89 2.39544 -3.35697 0
M  V30 51009 H 4911.23 0.161558 -0.644046 0
M  V30 51010 H 4913.76 -0.131308 -2.04178 0
M  V30 51011 H 4913.77 1.62924 -3.74059 0
M  V30 51012 H 4912.44 0.542356 -4.12349 0
M  V30 51013 H 4911.02 2.06468 -3.10525 0
M  V30 51014 N 4913.2 1.56151 0.213241 0
M  V30 51015 C 4914.44 1.81328 0.943372 0
M  V30 51016 C 4914.81 0.634998 1.81195 0
M  V30 51017 O 4916.01 0.766256 2.57647 0
M  V30 51018 C 4914.28 3.11443 1.75323 0
M  V30 51019 S 4915.84 3.57964 2.53786 0
M  V30 51020 H 4912.66 0.636549 0.316743 0
M  V30 51021 H 4915.26 1.94388 0.208245 0
M  V30 51022 H 4913.96 3.95232 1.10543 0
M  V30 51023 H 4913.49 3.01213 2.5305 0
M  V30 51024 H 4915.51 3.2196 3.77566 0
M  V30 51025 N 4914.68 -0.48027 1.50104 0
M  V30 51026 C 4915.65 -1.56175 1.67755 0
M  V30 51027 C 4916.65 -1.51154 0.548556 0
M  V30 51028 O 4917.84 -1.53937 0.815417 0
M  V30 51029 C 4914.97 -2.95817 1.69425 0
M  V30 51030 H 4916.16 -1.41845 2.64235 0
M  V30 51031 H 4913.71 -0.706 1.39446 0
M  V30 51032 H 4914.45 -3.15602 0.746059 0
M  V30 51033 H 4914.23 -3.0087 2.51436 0
M  V30 51034 H 4915.72 -3.74352 1.85068 0
M  V30 51035 N 4916.16 -1.39527 -0.732804 0
M  V30 51036 C 4917.09 -1.4116 -1.86 0
M  V30 51037 C 4918.07 -0.274673 -1.67868 0
M  V30 51038 O 4919.26 -0.480811 -1.88154 0
M  V30 51039 C 4916.39 -1.2565 -3.23774 0
M  V30 51040 C 4915.34 -2.36765 -3.56548 0
M  V30 51041 C 4914.67 -2.06343 -4.93282 0
M  V30 51042 C 4915.97 -3.79082 -3.59297 0
M  V30 51043 H 4917.66 -2.3549 -1.84891 0
M  V30 51044 H 4915.21 -1.13351 -0.888122 0
M  V30 51045 H 4917.16 -1.25413 -4.02305 0
M  V30 51046 H 4915.88 -0.277886 -3.25416 0
M  V30 51047 H 4914.54 -2.36223 -2.80347 0
M  V30 51048 H 4914.19 -1.06914 -4.91506 0
M  V30 51049 H 4913.89 -2.80775 -5.16177 0
M  V30 51050 H 4915.41 -2.07759 -5.74168 0
M  V30 51051 H 4916.83 -3.81541 -4.27901 0
M  V30 51052 H 4915.23 -4.52892 -3.93712 0
M  V30 51053 H 4916.3 -4.09902 -2.59053 0
M  V30 51054 N 4917.64 0.963222 -1.24739 0
M  V30 51055 C 4918.88 1.72168 -1.10171 0
M  V30 51056 C 4919.24 1.88732 0.352717 0
M  V30 51057 O 4920.44 2.61552 0.620015 0
M  V30 51058 C 4918.71 3.07233 -1.82599 0
M  V30 51059 S 4920.27 3.98443 -1.83817 0
M  V30 51060 H 4917.09 0.591887 -0.393943 0
M  V30 51061 H 4919.69 1.14949 -1.58136 0
M  V30 51062 H 4918.4 2.92841 -2.87528 0
M  V30 51063 H 4917.93 3.69516 -1.34986 0
M  V30 51064 H 4919.94 4.87802 -0.909054 0
M  V30 51065 N 4919.12 1.06186 1.16457 0
M  V30 51066 C 4920.36 0.776392 1.86592 0
M  V30 51067 C 4920.69 -0.699146 1.82036 0
M  V30 51068 O 4919.96 -1.50575 1.25316 0
M  V30 51069 H 4918.54 0.284208 0.690822 0
M  V30 51070 H 4921.2 1.34313 1.4123 0
M  V30 51071 H 4920.29 1.10032 2.9206 0
M  V30 51072 N 4920.59 -1.33077 0.84429 0
M  V30 51073 C 4921.82 -2.0234 0.455353 0
M  V30 51074 C 4922.24 -1.63083 -0.937313 0
M  V30 51075 O 4921.6 -0.826175 -1.61382 0
M  V30 51076 C 4921.65 -3.55741 0.590005 0
M  V30 51077 O 4920.75 -4.10631 -0.381516 0
M  V30 51078 H 4920.1 -0.637891 0.184366 0
M  V30 51079 H 4922.63 -1.69856 1.14062 0
M  V30 51080 H 4922.64 -4.05241 0.473664 0
M  V30 51081 H 4921.31 -3.83657 1.60562 0
M  V30 51082 H 4919.89 -3.72237 -0.222279 0
M  V30 51083 N 4922.07 -0.601236 -1.45681 0
M  V30 51084 C 4923.02 0.121315 -2.30481 0
M  V30 51085 C 4923.99 0.866182 -1.41727 0
M  V30 51086 O 4925.17 0.85318 -1.70662 0
M  V30 51087 C 4922.31 1.11692 -3.26525 0
M  V30 51088 C 4921.43 0.373589 -4.30382 0
M  V30 51089 C 4920.56 1.35836 -5.13539 0
M  V30 51090 C 4919.6 0.602475 -6.09128 0
M  V30 51091 N 4918.74 1.53621 -6.85088 0
M  V30 51092 H 4923.58 -0.607835 -2.91735 0
M  V30 51093 H 4921.12 -0.311553 -1.43763 0
M  V30 51094 H 4923.07 1.70722 -3.8067 0
M  V30 51095 H 4921.7 1.81356 -2.67039 0
M  V30 51096 H 4920.76 -0.332095 -3.78948 0
M  V30 51097 H 4922.07 -0.216475 -4.9833 0
M  V30 51098 H 4921.22 2.0209 -5.72053 0
M  V30 51099 H 4919.96 1.98235 -4.45594 0
M  V30 51100 H 4918.97 -0.0737414 -5.49751 0
M  V30 51101 H 4920.19 -0.0163854 -6.79098 0
M  V30 51102 H 4918.14 2.14797 -6.19837 0
M  V30 51103 H 4918.05 0.999425 -7.49365 0
M  V30 51104 H 4919.32 2.18853 -7.48147 0
M  V30 51105 N 4923.55 1.53888 -0.340036 0
M  V30 51106 C 4924.8 2.01153 0.257932 0
M  V30 51107 C 4925.13 1.22755 1.50482 0
M  V30 51108 O 4924.41 0.314223 1.91945 0
M  V30 51109 C 4924.69 3.5547 0.575592 0
M  V30 51110 C 4924.54 4.44582 -0.683152 0
M  V30 51111 C 4925.86 4.17685 1.38662 0
M  V30 51112 H 4922.98 0.731201 0.0922735 0
M  V30 51113 H 4925.62 1.84351 -0.459878 0
M  V30 51114 H 4923.77 3.69919 1.18712 0
M  V30 51115 H 4925.44 4.41976 -1.32117 0
M  V30 51116 H 4923.69 4.13587 -1.30875 0
M  V30 51117 H 4924.36 5.50429 -0.416194 0
M  V30 51118 H 4926.83 4.06913 0.869562 0
M  V30 51119 H 4925.71 5.25739 1.57764 0
M  V30 51120 H 4925.97 3.72078 2.38769 0
M  V30 51121 N 4925.03 0.0685745 1.57451 0
M  V30 51122 C 4925.96 -0.897395 2.15567 0
M  V30 51123 C 4926.94 -1.31262 1.08186 0
M  V30 51124 O 4928.13 -1.38425 1.36207 0
M  V30 51125 C 4925.26 -2.16613 2.7147 0
M  V30 51126 C 4924.21 -1.89041 3.83989 0
M  V30 51127 C 4923.54 -3.22517 4.26482 0
M  V30 51128 C 4924.84 -1.19822 5.0837 0
M  V30 51129 H 4926.53 -0.413269 2.96534 0
M  V30 51130 H 4924.08 -0.19734 1.42641 0
M  V30 51131 H 4926.03 -2.84603 3.10771 0
M  V30 51132 H 4924.75 -2.67262 1.8772 0
M  V30 51133 H 4923.41 -1.23456 3.45187 0
M  V30 51134 H 4923.06 -3.71001 3.39658 0
M  V30 51135 H 4922.76 -3.04861 5.02328 0
M  V30 51136 H 4924.28 -3.9171 4.68397 0
M  V30 51137 H 4925.7 -1.77876 5.45007 0
M  V30 51138 H 4924.09 -1.12435 5.89473 0
M  V30 51139 H 4925.16 -0.176826 4.84577 0
M  V30 51140 N 4926.51 -1.56262 -0.204957 0
M  V30 51141 C 4927.47 -1.92912 -1.23764 0
M  V30 51142 C 4928.47 -0.809257 -1.38952 0
M  V30 51143 O 4929.66 -1.07681 -1.36933 0
M  V30 51144 C 4926.79 -2.19452 -2.60871 0
M  V30 51145 H 4927.99 -2.8529 -0.924628 0
M  V30 51146 H 4925.54 -1.49799 -0.446072 0
M  V30 51147 H 4926.27 -1.29679 -2.97244 0
M  V30 51148 H 4926.06 -3.01049 -2.51221 0
M  V30 51149 H 4927.55 -2.48845 -3.35359 0
M  V30 51150 N 4927.99 0.472303 -1.50356 0
M  V30 51151 C 4928.95 1.55284 -1.68581 0
M  V30 51152 C 4929.95 1.50861 -0.556564 0
M  V30 51153 O 4931.14 1.53502 -0.82357 0
M  V30 51154 C 4928.27 2.94915 -1.70992 0
M  V30 51155 H 4929.46 1.40442 -2.64983 0
M  V30 51156 H 4927.02 0.698595 -1.39819 0
M  V30 51157 H 4927.75 3.15202 -0.762785 0
M  V30 51158 H 4927.54 2.99532 -2.53028 0
M  V30 51159 H 4929.03 3.73366 -1.8705 0
M  V30 51160 N 4929.46 1.39914 0.725394 0
M  V30 51161 C 4930.39 1.42144 1.85249 0
M  V30 51162 C 4931.37 0.283572 1.6772 0
M  V30 51163 O 4932.56 0.490783 1.87896 0
M  V30 51164 C 4929.69 1.27365 3.23103 0
M  V30 51165 C 4928.64 2.38652 3.55287 0
M  V30 51166 C 4927.97 2.08956 4.9218 0
M  V30 51167 C 4929.27 3.80982 3.57281 0
M  V30 51168 H 4930.96 2.36468 1.83639 0
M  V30 51169 H 4928.51 1.1382 0.882098 0
M  V30 51170 H 4930.46 1.27544 4.01635 0
M  V30 51171 H 4929.19 0.29514 3.25264 0
M  V30 51172 H 4927.85 2.37706 2.7909 0
M  V30 51173 H 4927.49 1.0952 4.90932 0
M  V30 51174 H 4927.19 2.83509 5.14681 0
M  V30 51175 H 4928.72 2.10801 5.73058 0
M  V30 51176 H 4930.13 3.83805 4.25871 0
M  V30 51177 H 4928.53 4.54973 3.91304 0
M  V30 51178 H 4929.6 4.1127 2.56876 0
M  V30 51179 N 4930.94 -0.956593 1.25248 0
M  V30 51180 C 4931.9 -2.03453 1.05544 0
M  V30 51181 C 4932.9 -1.60798 0.00891969 0
M  V30 51182 O 4934.09 -1.72383 0.250925 0
M  V30 51183 C 4931.23 -3.35541 0.602083 0
M  V30 51184 H 4932.42 -2.22365 2.01231 0
M  V30 51185 H 4929.97 -1.13341 1.07627 0
M  V30 51186 H 4930.71 -3.22324 -0.357471 0
M  V30 51187 H 4930.49 -3.67849 1.35756 0
M  V30 51188 H 4931.98 -4.14767 0.4856 0
M  V30 51189 N 4932.42 -1.06802 -1.15892 0
M  V30 51190 C 4933.38 -0.687405 -2.18649 0
M  V30 51191 C 4934.38 0.269504 -1.58525 0
M  V30 51192 O 4935.57 0.0512015 -1.74125 0
M  V30 51193 C 4932.7 -0.0122841 -3.40898 0
M  V30 51194 H 4933.9 -1.5971 -2.53836 0
M  V30 51195 H 4931.45 -0.863874 -1.30257 0
M  V30 51196 H 4932.19 0.909915 -3.11273 0
M  V30 51197 H 4931.97 -0.700445 -3.85793 0
M  V30 51198 H 4933.46 0.239557 -4.16912 0
M  V30 51199 N 4933.9 1.32627 -0.851335 0
M  V30 51200 C 4935.12 2.02095 -0.466078 0
M  V30 51201 C 4935.55 1.63578 0.928651 0
M  V30 51202 O 4934.91 0.834722 1.60941 0
M  V30 51203 C 4934.95 3.55423 -0.608862 0
M  V30 51204 O 4934.06 4.10828 0.359733 0
M  V30 51205 H 4933.4 0.636905 -0.187746 0
M  V30 51206 H 4935.93 1.69249 -1.14961 0
M  V30 51207 H 4935.94 4.04984 -0.495148 0
M  V30 51208 H 4934.61 3.828 -1.62595 0
M  V30 51209 H 4933.19 3.7235 0.202535 0
M  V30 51210 N 4935.38 0.608953 1.4536 0
M  V30 51211 C 4936.6 0.109283 2.07112 0
M  V30 51212 C 4937.03 -1.19774 1.45037 0
M  V30 51213 O 4936.38 -1.72959 0.543588 0
M  V30 51214 C 4936.43 -0.0154478 3.60597 0
M  V30 51215 O 4935.54 -1.06532 3.98403 0
M  V30 51216 H 4934.88 0.0746851 0.659786 0
M  V30 51217 H 4937.41 0.839349 1.86591 0
M  V30 51218 H 4937.42 -0.213221 4.07442 0
M  V30 51219 H 4936.09 0.938907 4.05163 0
M  V30 51220 H 4934.67 -0.843896 3.63226 0
M  V30 51221 N 4936.85 -1.53705 0.348193 0
M  V30 51222 C 4938.1 -2.00592 -0.246407 0
M  V30 51223 C 4938.42 -1.23759 -1.50694 0
M  V30 51224 O 4937.69 -0.346032 -1.9282 0
M  V30 51225 H 4936.27 -0.741057 -0.0940418 0
M  V30 51226 H 4938.93 -1.89138 0.470421 0
M  V30 51227 H 4938.03 -3.08299 -0.485605 0
M  V30 51228 N 4938.33 -0.0769235 -1.57412 0
M  V30 51229 C 4939.56 0.603334 -1.9843 0
M  V30 51230 C 4939.98 1.62044 -0.955165 0
M  V30 51231 O 4939.34 1.81129 0.0786141 0
M  V30 51232 C 4939.39 1.24384 -3.38469 0
M  V30 51233 O 4938.49 2.3597 -3.38219 0
M  V30 51234 H 4937.83 0.154718 -0.645723 0
M  V30 51235 H 4940.36 -0.152957 -2.04027 0
M  V30 51236 H 4940.37 1.58947 -3.75766 0
M  V30 51237 H 4939.05 0.49859 -4.12901 0
M  V30 51238 H 4937.63 2.03162 -3.12697 0
M  V30 51239 N 4939.81 1.56368 0.196667 0
M  V30 51240 C 4941.04 1.84994 0.937649 0
M  V30 51241 C 4941.46 0.660306 1.76129 0
M  V30 51242 O 4940.82 -0.390905 1.77036 0
M  V30 51243 C 4940.87 3.11834 1.81085 0
M  V30 51244 O 4939.97 2.92276 2.90944 0
M  V30 51245 H 4939.31 0.609202 0.264138 0
M  V30 51246 H 4941.84 2.03596 0.202457 0
M  V30 51247 H 4941.85 3.42587 2.21581 0
M  V30 51248 H 4940.53 3.98041 1.20566 0
M  V30 51249 H 4939.1 2.72818 2.54214 0
M  V30 51250 N 4941.29 -0.464322 1.50605 0
M  V30 51251 C 4942.51 -1.24367 1.65975 0
M  V30 51252 C 4942.94 -1.84899 0.345518 0
M  V30 51253 O 4942.3 -1.67599 -0.691398 0
M  V30 51254 C 4942.34 -2.32321 2.75788 0
M  V30 51255 O 4941.45 -3.37137 2.37512 0
M  V30 51256 H 4940.79 -0.365585 0.554296 0
M  V30 51257 H 4943.32 -0.551761 1.9702 0
M  V30 51258 H 4943.33 -2.77529 2.99068 0
M  V30 51259 H 4942 -1.87635 3.71168 0
M  V30 51260 H 4940.58 -2.97594 2.24704 0
M  V30 51261 N 4942.77 -1.40296 -0.717964 0
M  V30 51262 C 4943.73 -1.40127 -1.81376 0
M  V30 51263 C 4944.73 -0.29546 -1.58062 0
M  V30 51264 O 4945.92 -0.554245 -1.65148 0
M  V30 51265 C 4943.05 -1.19067 -3.19431 0
M  V30 51266 H 4944.24 -2.37652 -1.82925 0
M  V30 51267 H 4941.8 -1.2611 -0.92336 0
M  V30 51268 H 4942.53 -0.222923 -3.23533 0
M  V30 51269 H 4942.32 -1.99164 -3.37751 0
M  V30 51270 H 4943.81 -1.2173 -3.99464 0
M  V30 51271 N 4944.24 0.949938 -1.25754 0
M  V30 51272 C 4945.47 1.73499 -1.13634 0
M  V30 51273 C 4945.89 1.85602 0.305525 0
M  V30 51274 O 4945.25 1.33988 1.22135 0
M  V30 51275 C 4945.3 3.12424 -1.80066 0
M  V30 51276 O 4944.4 3.97912 -1.0835 0
M  V30 51277 H 4943.75 0.532651 -0.396458 0
M  V30 51278 H 4946.28 1.19037 -1.66407 0
M  V30 51279 H 4946.29 3.62859 -1.8654 0
M  V30 51280 H 4944.96 3.02931 -2.84966 0
M  V30 51281 H 4943.54 3.56371 -1.0979 0
M  V30 51282 N 4945.72 1.07416 1.15324 0
M  V30 51283 C 4946.95 0.818923 1.90548 0
M  V30 51284 C 4947.37 -0.622132 1.77514 0
M  V30 51285 O 4946.73 -1.43481 1.10829 0
M  V30 51286 C 4946.78 1.23279 3.38873 0
M  V30 51287 O 4945.88 0.37849 4.10659 0
M  V30 51288 H 4945.22 0.298291 0.593227 0
M  V30 51289 H 4947.75 1.43294 1.46041 0
M  V30 51290 H 4947.76 1.20926 3.89668 0
M  V30 51291 H 4946.44 2.28238 3.47678 0
M  V30 51292 H 4945.02 0.464567 3.69995 0
M  V30 51293 N 4947.2 -1.32174 0.858357 0
M  V30 51294 C 4948.43 -2.01845 0.476789 0
M  V30 51295 C 4948.85 -1.64068 -0.919963 0
M  V30 51296 O 4948.21 -0.843245 -1.60496 0
M  V30 51297 C 4948.26 -3.55095 0.627703 0
M  V30 51298 O 4947.36 -4.11013 -0.337941 0
M  V30 51299 H 4946.7 -0.6359 0.191121 0
M  V30 51300 H 4949.23 -1.68637 1.15857 0
M  V30 51301 H 4949.24 -4.04716 0.516619 0
M  V30 51302 H 4947.92 -3.81932 1.64622 0
M  V30 51303 H 4946.49 -3.72452 -0.182786 0
M  V30 51304 N 4948.68 -0.616653 -1.45035 0
M  V30 51305 C 4949.9 -0.120265 -2.07051 0
M  V30 51306 C 4950.33 1.19003 -1.45671 0
M  V30 51307 O 4949.69 1.72668 -0.552753 0
M  V30 51308 C 4949.73 -0.00367578 -3.606 0
M  V30 51309 O 4948.84 1.04417 -3.98962 0
M  V30 51310 H 4948.18 -0.0781831 -0.659381 0
M  V30 51311 H 4950.71 -0.849232 -1.86143 0
M  V30 51312 H 4950.72 0.191611 -4.0755 0
M  V30 51313 H 4949.39 -0.960381 -4.0466 0
M  V30 51314 H 4947.97 0.824622 -3.63668 0
M  V30 51315 N 4950.16 1.53519 -0.356339 0
M  V30 51316 C 4951.12 2.24072 0.482103 0
M  V30 51317 C 4952.12 1.24534 1.01724 0
M  V30 51318 O 4953.31 1.4888 0.904461 0
M  V30 51319 C 4950.44 2.97031 1.67289 0
M  V30 51320 H 4951.63 2.99595 -0.135136 0
M  V30 51321 H 4949.19 1.55927 -0.107879 0
M  V30 51322 H 4949.92 2.25727 2.32847 0
M  V30 51323 H 4949.71 3.70055 1.29623 0
M  V30 51324 H 4951.2 3.50691 2.26728 0
M  V30 51325 N 4951.63 0.0852704 1.57369 0
M  V30 51326 C 4953.05 -0.445365 1.8131 0
M  V30 51327 C 4953.4 -1.68792 1.00019 0
M  V30 51328 O 4952.52 -2.1521 0.226648 0
M  V30 51329 C 4953.12 -0.814771 3.28857 0
M  V30 51330 C 4951.68 -1.2902 3.53597 0
M  V30 51331 C 4950.82 -0.281992 2.75862 0
M  V30 51332 H 4953.77 0.310826 1.55626 0
M  V30 51333 H 4953.79 -1.67512 3.41643 0
M  V30 51334 H 4953.31 0.0897673 3.87996 0
M  V30 51335 H 4951.41 -2.21278 2.99778 0
M  V30 51336 H 4951.52 -1.25882 4.62267 0
M  V30 51337 H 4949.88 -0.762096 2.43031 0
M  V30 51338 H 4950.67 0.615054 3.37745 0
M  V30 51339 N 4953.11 -1.5647 -0.188372 0
M  V30 51340 C 4954.36 -1.81284 -0.90906 0
M  V30 51341 C 4954.69 -0.660404 -1.82626 0
M  V30 51342 O 4953.97 0.33867 -1.91529 0
M  V30 51343 C 4954.25 -3.16395 -1.71949 0
M  V30 51344 C 4954.1 -4.4214 -0.826559 0
M  V30 51345 C 4955.42 -3.48265 -2.69071 0
M  V30 51346 H 4952.54 -0.659468 -0.329045 0
M  V30 51347 H 4955.18 -1.89182 -0.176089 0
M  V30 51348 H 4953.33 -3.09792 -2.34438 0
M  V30 51349 H 4955.01 -4.60795 -0.215863 0
M  V30 51350 H 4953.25 -4.33594 -0.13364 0
M  V30 51351 H 4953.92 -5.33189 -1.42875 0
M  V30 51352 H 4956.4 -3.55211 -2.16713 0
M  V30 51353 H 4955.27 -4.4391 -3.22854 0
M  V30 51354 H 4955.53 -2.721 -3.48445 0
M  V30 51355 N 4954.59 0.456329 -1.50849 0
M  V30 51356 C 4955.55 1.53487 -1.70219 0
M  V30 51357 C 4956.55 1.50262 -0.572534 0
M  V30 51358 O 4957.74 1.5262 -0.839804 0
M  V30 51359 C 4954.88 2.93084 -1.7411 0
M  V30 51360 H 4956.07 1.37624 -2.66458 0
M  V30 51361 H 4953.62 0.683726 -1.40552 0
M  V30 51362 H 4954.36 3.14375 -0.796174 0
M  V30 51363 H 4954.14 2.96831 -2.5619 0
M  V30 51364 H 4955.63 3.71361 -1.91 0
M  V30 51365 N 4956.07 1.40675 0.710514 0
M  V30 51366 C 4957.03 1.41087 1.8063 0
M  V30 51367 C 4958.03 0.303839 1.57903 0
M  V30 51368 O 4959.22 0.562995 1.64851 0
M  V30 51369 C 4956.35 1.20759 3.18795 0
M  V30 51370 H 4957.55 2.38619 1.81662 0
M  V30 51371 H 4955.1 1.26598 0.916659 0
M  V30 51372 H 4955.84 0.240078 3.2341 0
M  V30 51373 H 4955.62 2.00952 3.36691 0
M  V30 51374 H 4957.11 1.23847 3.98813 0
M  V30 51375 N 4957.55 -0.943255 1.26256 0
M  V30 51376 C 4958.77 -1.72894 1.14553 0
M  V30 51377 C 4959.2 -1.85762 -0.295678 0
M  V30 51378 O 4958.56 -1.34634 -1.21422 0
M  V30 51379 C 4958.6 -3.11464 1.81721 0
M  V30 51380 O 4957.71 -3.97332 1.10458 0
M  V30 51381 H 4957.05 -0.530541 0.399277 0
M  V30 51382 H 4959.58 -1.18153 1.67036 0
M  V30 51383 H 4959.59 -3.61865 1.88462 0
M  V30 51384 H 4958.26 -3.01415 2.86569 0
M  V30 51385 H 4956.84 -3.55784 1.11678 0
M  V30 51386 N 4959.03 -1.08026 -1.14753 0
M  V30 51387 C 4960.25 -0.829017 -1.90111 0
M  V30 51388 C 4960.68 0.612709 -1.77841 0
M  V30 51389 O 4960.03 1.42891 -1.11588 0
M  V30 51390 C 4960.08 -1.25074 -3.38214 0
M  V30 51391 O 4959.19 -0.400263 -4.10453 0
M  V30 51392 H 4958.53 -0.301433 -0.591637 0
M  V30 51393 H 4961.06 -1.44067 -1.45279 0
M  V30 51394 H 4961.07 -1.2299 -3.89021 0
M  V30 51395 H 4959.74 -2.30079 -3.46463 0
M  V30 51396 H 4958.32 -0.484182 -3.69743 0
M  V30 51397 N 4960.5 1.31717 -0.865354 0
M  V30 51398 C 4961.75 1.96485 -0.473064 0
M  V30 51399 C 4962.07 1.68764 0.976916 0
M  V30 51400 O 4961.34 1.00057 1.6842 0
M  V30 51401 H 4959.92 0.726941 -0.171947 0
M  V30 51402 H 4962.58 1.60608 -1.10413 0
M  V30 51403 H 4961.68 3.05737 -0.626977 0
M  V30 51404 N 4961.98 0.624336 1.44706 0
M  V30 51405 C 4962.91 -0.122969 2.2887 0
M  V30 51406 C 4963.93 -0.81552 1.40901 0
M  V30 51407 O 4965.12 -0.678104 1.65118 0
M  V30 51408 C 4962.22 -1.19601 3.17094 0
M  V30 51409 C 4961.39 -0.5873 4.33439 0
M  V30 51410 C 4960.45 -1.55341 5.02748 0
M  V30 51411 O 4959.47 -1.07318 5.58991 0
M  V30 51412 N 4960.68 -2.8878 5.03574 0
M  V30 51413 H 4963.44 0.599296 2.93647 0
M  V30 51414 H 4961 0.465008 1.55078 0
M  V30 51415 H 4962.99 -1.84248 3.60326 0
M  V30 51416 H 4961.56 -1.82058 2.54113 0
M  V30 51417 H 4960.78 0.237648 3.93483 0
M  V30 51418 H 4962.07 -0.161148 5.08545 0
M  V30 51419 H 4961.47 -3.30382 4.59199 0
M  V30 51420 H 4960.03 -3.48806 5.50615 0
M  V30 51421 N 4963.46 -1.53328 0.364476 0
M  V30 51422 C 4964.42 -2.24325 -0.470213 0
M  V30 51423 C 4965.42 -1.25072 -1.01063 0
M  V30 51424 O 4966.61 -1.49357 -0.896553 0
M  V30 51425 C 4963.74 -2.97914 -1.65711 0
M  V30 51426 H 4964.94 -2.9952 0.151023 0
M  V30 51427 H 4962.49 -1.55868 0.116147 0
M  V30 51428 H 4963.23 -2.26959 -2.31647 0
M  V30 51429 H 4963.01 -3.70737 -1.27658 0
M  V30 51430 H 4964.5 -3.51888 -2.24865 0
M  V30 51431 N 4964.94 -0.0936148 -1.57322 0
M  V30 51432 C 4966.17 0.578864 -1.98637 0
M  V30 51433 C 4966.58 1.61816 -0.972682 0
M  V30 51434 O 4965.94 1.82461 0.0378996 0
M  V30 51435 C 4965.99 1.2279 -3.40007 0
M  V30 51436 O 4965.71 0.23018 -4.37495 0
M  V30 51437 C 4967.21 1.98613 -3.96318 0
M  V30 51438 H 4964.43 0.155301 -0.652781 0
M  V30 51439 H 4966.97 -0.172465 -2.03771 0
M  V30 51440 H 4965.13 1.93017 -3.35892 0
M  V30 51441 H 4965.54 0.698466 -5.19829 0
M  V30 51442 H 4967.02 2.39387 -4.97391 0
M  V30 51443 H 4967.49 2.8514 -3.34054 0
M  V30 51444 H 4968.1 1.33206 -4.03901 0
M  V30 51445 N 4966.42 1.56568 0.180071 0
M  V30 51446 C 4967.64 1.85622 0.913907 0
M  V30 51447 C 4968.06 0.677954 1.76208 0
M  V30 51448 O 4967.42 -0.353108 1.79051 0
M  V30 51449 C 4967.47 3.13625 1.79782 0
M  V30 51450 O 4967.19 4.26909 0.98387 0
M  V30 51451 C 4968.69 3.55964 2.64206 0
M  V30 51452 H 4965.91 0.616053 0.265933 0
M  V30 51453 H 4968.45 2.03681 0.1828 0
M  V30 51454 H 4966.61 2.97418 2.48237 0
M  V30 51455 H 4967.02 4.99896 1.58758 0
M  V30 51456 H 4968.5 4.48455 3.21857 0
M  V30 51457 H 4968.97 2.79665 3.38651 0
M  V30 51458 H 4969.58 3.74753 2.01098 0
M  V30 51459 N 4967.89 -0.448323 1.51089 0
M  V30 51460 C 4968.83 -1.5614 1.67789 0
M  V30 51461 C 4969.84 -1.52911 0.558764 0
M  V30 51462 O 4971.03 -1.57886 0.832725 0
M  V30 51463 C 4968.13 -2.95052 1.66727 0
M  V30 51464 C 4967.3 -3.22905 2.95045 0
M  V30 51465 C 4966.36 -4.41484 2.86318 0
M  V30 51466 O 4965.39 -4.40675 3.60269 0
M  V30 51467 N 4966.59 -5.44436 2.01419 0
M  V30 51468 H 4969.35 -1.42222 2.63805 0
M  V30 51469 H 4966.91 -0.637101 1.48838 0
M  V30 51470 H 4968.91 -3.72383 1.58471 0
M  V30 51471 H 4967.48 -3.02622 0.78351 0
M  V30 51472 H 4966.7 -2.33974 3.17254 0
M  V30 51473 H 4967.98 -3.38336 3.80008 0
M  V30 51474 H 4967.38 -5.47925 1.40693 0
M  V30 51475 H 4965.94 -6.20663 1.99051 0
M  V30 51476 N 4969.37 -1.4105 -0.703043 0
M  V30 51477 C 4970.6 -1.43542 -1.49701 0
M  V30 51478 C 4971.02 -0.0402514 -1.88057 0
M  V30 51479 O 4970.38 0.954731 -1.54125 0
M  V30 51480 C 4970.43 -2.3434 -2.74075 0
M  V30 51481 O 4969.53 -1.79529 -3.71272 0
M  V30 51482 H 4968.87 -0.48747 -0.450854 0
M  V30 51483 H 4971.4 -1.85425 -0.864795 0
M  V30 51484 H 4971.41 -2.49958 -3.22467 0
M  V30 51485 H 4970.09 -3.35716 -2.45494 0
M  V30 51486 H 4968.67 -1.73321 -3.30173 0
M  V30 51487 N 4970.85 0.936546 -1.26754 0
M  V30 51488 C 4971.8 2.03593 -1.08713 0
M  V30 51489 C 4972.77 1.66097 0.00920703 0
M  V30 51490 O 4973.95 1.90198 -0.151444 0
M  V30 51491 C 4971.09 3.37268 -0.731058 0
M  V30 51492 C 4970.21 3.87772 -1.90413 0
M  V30 51493 C 4969.34 5.09853 -1.49074 0
M  V30 51494 C 4968.38 5.52631 -2.63183 0
M  V30 51495 N 4967.52 6.65914 -2.22494 0
M  V30 51496 H 4972.36 2.18356 -2.02792 0
M  V30 51497 H 4969.89 1.06982 -1.00962 0
M  V30 51498 H 4971.85 4.14127 -0.505473 0
M  V30 51499 H 4970.48 3.22337 0.172755 0
M  V30 51500 H 4969.53 3.07271 -2.24251 0
M  V30 51501 H 4970.85 4.15454 -2.76043 0
M  V30 51502 H 4970 5.94186 -1.22587 0
M  V30 51503 H 4968.74 4.83928 -0.605411 0
M  V30 51504 H 4967.74 4.66853 -2.90394 0
M  V30 51505 H 4968.97 5.80556 -3.52323 0
M  V30 51506 H 4966.91 6.41662 -1.36401 0
M  V30 51507 H 4966.83 6.93206 -3.01665 0
M  V30 51508 H 4968.1 7.53609 -1.99232 0
M  V30 51509 N 4972.33 1.08633 1.14178 0
M  V30 51510 C 4973.55 0.839087 1.89668 0
M  V30 51511 C 4973.98 -0.603269 1.78164 0
M  V30 51512 O 4973.34 -1.42297 1.12344 0
M  V30 51513 C 4973.38 1.26866 3.37546 0
M  V30 51514 O 4972.49 0.422024 4.10235 0
M  V30 51515 H 4971.83 0.304566 0.59003 0
M  V30 51516 H 4974.36 1.44835 1.44513 0
M  V30 51517 H 4974.37 1.25052 3.88363 0
M  V30 51518 H 4973.04 2.31913 3.45238 0
M  V30 51519 H 4971.62 0.503784 3.69481 0
M  V30 51520 N 4973.81 -1.31256 0.872327 0
M  V30 51521 C 4975.03 -2.01328 0.49817 0
M  V30 51522 C 4975.46 -1.65034 -0.90251 0
M  V30 51523 O 4974.81 -0.860221 -1.59593 0
M  V30 51524 C 4974.86 -3.54409 0.66533 0
M  V30 51525 O 4973.97 -4.11348 -0.294329 0
M  V30 51526 H 4973.31 -0.633837 0.197855 0
M  V30 51527 H 4975.84 -1.67398 1.17639 0
M  V30 51528 H 4975.85 -4.04145 0.559515 0
M  V30 51529 H 4974.52 -3.80165 1.68664 0
M  V30 51530 H 4973.1 -3.72625 -0.143272 0
M  V30 51531 N 4975.28 -0.632002 -1.44373 0
M  V30 51532 C 4976.51 -0.14394 -2.06399 0
M  V30 51533 C 4976.93 1.18183 -1.47235 0
M  V30 51534 O 4976.28 1.72509 -0.595559 0
M  V30 51535 C 4976.34 -0.0239524 -3.61492 0
M  V30 51536 O 4976.06 -1.29729 -4.18452 0
M  V30 51537 C 4977.56 0.492701 -4.40553 0
M  V30 51538 H 4974.78 -0.0800777 -0.666205 0
M  V30 51539 H 4977.32 -0.866651 -1.85228 0
M  V30 51540 H 4975.48 0.649204 -3.81922 0
M  V30 51541 H 4975.89 -1.1427 -5.11901 0
M  V30 51542 H 4977.36 0.525667 -5.49491 0
M  V30 51543 H 4977.84 1.51992 -4.12062 0
M  V30 51544 H 4978.45 -0.147234 -4.25045 0
M  V30 51545 N 4976.76 1.53132 -0.372602 0
M  V30 51546 C 4977.71 2.25952 0.470551 0
M  V30 51547 C 4978.68 1.26899 1.07172 0
M  V30 51548 O 4979.86 1.55695 1.10289 0
M  V30 51549 C 4977 3.05732 1.60069 0
M  V30 51550 C 4976.12 4.19688 1.02401 0
M  V30 51551 C 4975.25 4.86895 2.12383 0
M  V30 51552 C 4974.29 5.92871 1.52217 0
M  V30 51553 N 4973.43 6.53741 2.56061 0
M  V30 51554 H 4978.27 2.97587 -0.15692 0
M  V30 51555 H 4975.81 1.46829 -0.0892088 0
M  V30 51556 H 4977.76 3.50266 2.26649 0
M  V30 51557 H 4976.39 2.36339 2.19872 0
M  V30 51558 H 4975.45 3.79589 0.248292 0
M  V30 51559 H 4976.76 4.95823 0.544192 0
M  V30 51560 H 4975.91 5.34648 2.86769 0
M  V30 51561 H 4974.65 4.10248 2.63719 0
M  V30 51562 H 4973.66 5.44473 0.763494 0
M  V30 51563 H 4974.88 6.71442 1.01697 0
M  V30 51564 H 4972.83 5.79943 3.06597 0
M  V30 51565 H 4972.74 7.25437 2.12786 0
M  V30 51566 H 4974.01 7.06142 3.30127 0
M  V30 51567 N 4978.24 0.101957 1.5727 0
M  V30 51568 C 4979.19 -0.854501 2.14399 0
M  V30 51569 C 4980.16 -1.27517 1.06436 0
M  V30 51570 O 4981.34 -1.35571 1.34258 0
M  V30 51571 C 4978.48 -2.10566 2.73415 0
M  V30 51572 C 4977.6 -1.7349 3.95632 0
M  V30 51573 C 4976.73 -2.93444 4.42791 0
M  V30 51574 C 4975.77 -2.52527 5.57581 0
M  V30 51575 N 4974.91 -3.65338 5.9956 0
M  V30 51576 H 4979.75 -0.360474 2.95812 0
M  V30 51577 H 4977.28 -0.166252 1.46157 0
M  V30 51578 H 4979.24 -2.83849 3.05755 0
M  V30 51579 H 4977.87 -2.57457 1.9472 0
M  V30 51580 H 4976.92 -0.901492 3.69564 0
M  V30 51581 H 4978.24 -1.39409 4.78922 0
M  V30 51582 H 4977.39 -3.74972 4.7695 0
M  V30 51583 H 4976.13 -3.30741 3.58416 0
M  V30 51584 H 4975.13 -1.69428 5.23043 0
M  V30 51585 H 4976.36 -2.16367 6.4371 0
M  V30 51586 H 4974.3 -4.0234 5.1813 0
M  V30 51587 H 4974.22 -3.35124 6.77663 0
M  V30 51588 H 4975.49 -4.47356 6.38352 0
M  V30 51589 N 4979.72 -1.56661 -0.171765 0
M  V30 51590 C 4980.94 -1.86463 -0.9081 0
M  V30 51591 C 4981.37 -0.688243 -1.75057 0
M  V30 51592 O 4980.73 0.36269 -1.77635 0
M  V30 51593 C 4980.77 -3.14676 -1.76101 0
M  V30 51594 O 4979.88 -2.96868 -2.86258 0
M  V30 51595 H 4979.22 -0.613327 -0.254412 0
M  V30 51596 H 4981.75 -2.03892 -0.170041 0
M  V30 51597 H 4981.76 -3.46069 -2.16103 0
M  V30 51598 H 4980.43 -3.99909 -1.14219 0
M  V30 51599 H 4979.01 -2.76827 -2.49842 0
M  V30 51600 N 4981.2 0.440304 -1.51324 0
M  V30 51601 C 4982.14 1.53423 -1.72424 0
M  V30 51602 C 4983.11 1.56163 -0.565881 0
M  V30 51603 O 4984.3 1.73219 -0.799978 0
M  V30 51604 C 4981.44 2.91163 -1.85252 0
M  V30 51605 C 4980.55 2.97974 -3.12787 0
M  V30 51606 C 4979.69 4.26818 -3.16227 0
M  V30 51607 C 4978.73 4.27486 -4.38089 0
M  V30 51608 N 4977.86 5.4785 -4.39095 0
M  V30 51609 H 4982.7 1.34734 -2.65802 0
M  V30 51610 H 4980.24 0.654561 -1.31734 0
M  V30 51611 H 4982.2 3.7108 -1.90671 0
M  V30 51612 H 4980.83 3.08416 -0.952852 0
M  V30 51613 H 4979.88 2.10738 -3.16692 0
M  V30 51614 H 4981.19 2.94328 -4.02706 0
M  V30 51615 H 4980.35 5.15107 -3.20546 0
M  V30 51616 H 4979.08 4.33116 -2.24191 0
M  V30 51617 H 4978.09 3.3759 -4.3395 0
M  V30 51618 H 4979.31 4.22854 -5.31386 0
M  V30 51619 H 4977.26 5.54875 -3.49928 0
M  V30 51620 H 4977.18 5.46073 -5.2282 0
M  V30 51621 H 4978.45 6.38179 -4.47602 0
M  V30 51622 N 4982.68 1.41421 0.695553 0
M  V30 51623 C 4983.62 1.4327 1.80948 0
M  V30 51624 C 4984.59 0.287073 1.636 0
M  V30 51625 O 4985.78 0.488119 1.84451 0
M  V30 51626 C 4982.92 1.32066 3.1883 0
M  V30 51627 C 4982.03 2.56497 3.47611 0
M  V30 51628 C 4981.17 2.37587 4.75106 0
M  V30 51629 C 4980.2 3.57494 4.96854 0
M  V30 51630 N 4979.34 3.37654 6.15576 0
M  V30 51631 H 4984.18 2.38473 1.78703 0
M  V30 51632 H 4981.72 1.18418 0.872674 0
M  V30 51633 H 4983.68 1.23572 3.9848 0
M  V30 51634 H 4982.31 0.404704 3.20253 0
M  V30 51635 H 4981.36 2.75441 2.62367 0
M  V30 51636 H 4982.67 3.45691 3.59582 0
M  V30 51637 H 4981.82 2.2656 5.6281 0
M  V30 51638 H 4980.56 1.4585 4.65381 0
M  V30 51639 H 4979.57 3.68976 4.07599 0
M  V30 51640 H 4980.79 4.50185 5.08439 0
M  V30 51641 H 4978.74 2.48617 6.07063 0
M  V30 51642 H 4978.66 4.20423 6.28316 0
M  V30 51643 H 4979.92 3.304 7.06014 0
M  V30 51644 N 4984.15 -0.929811 1.27249 0
M  V30 51645 C 4985.06 -2.06356 1.11599 0
M  V30 51646 C 4986.08 -1.73938 0.0465571 0
M  V30 51647 O 4987.26 -1.99809 0.252614 0
M  V30 51648 C 4984.32 -3.3821 0.762556 0
M  V30 51649 C 4983.38 -3.84339 1.91264 0
M  V30 51650 C 4982.61 -5.09901 1.57597 0
M  V30 51651 O 4982.84 -5.68352 0.482893 0
M  V30 51652 O 4981.77 -5.51351 2.41446 0
M  V30 51653 H 4985.6 -2.2247 2.06738 0
M  V30 51654 H 4983.18 -1.04861 1.06417 0
M  V30 51655 H 4985.06 -4.17408 0.578687 0
M  V30 51656 H 4983.74 -3.23308 -0.159325 0
M  V30 51657 H 4982.65 -3.06038 2.15155 0
M  V30 51658 H 4983.98 -4.0378 2.81465 0
M  V30 51659 N 4985.63 -1.09237 -1.13601 0
M  V30 51660 C 4986.54 -0.742017 -2.22556 0
M  V30 51661 C 4987.56 0.255176 -1.72119 0
M  V30 51662 O 4988.73 0.097004 -2.01166 0
M  V30 51663 C 4985.8 -0.165717 -3.46304 0
M  V30 51664 C 4984.86 -1.21861 -4.11641 0
M  V30 51665 C 4984.09 -0.669712 -5.29481 0
M  V30 51666 O 4984.32 0.508029 -5.68133 0
M  V30 51667 O 4983.25 -1.42381 -5.84817 0
M  V30 51668 H 4987.08 -1.65116 -2.54893 0
M  V30 51669 H 4984.66 -0.866627 -1.21696 0
M  V30 51670 H 4986.54 0.152444 -4.21124 0
M  V30 51671 H 4985.22 0.716462 -3.15672 0
M  V30 51672 H 4984.12 -1.58943 -3.38656 0
M  V30 51673 H 4985.46 -2.07336 -4.46399 0
M  V30 51674 N 4987.11 1.30792 -0.879276 0
M  V30 51675 C 4988.06 2.28281 -0.340048 0
M  V30 51676 C 4989.03 1.56136 0.56663 0
M  V30 51677 O 4990.21 1.84233 0.496273 0
M  V30 51678 C 4987.35 3.42227 0.444381 0
M  V30 51679 C 4986.46 4.29202 -0.490868 0
M  V30 51680 C 4985.6 5.30303 0.308598 0
M  V30 51681 C 4984.64 6.08927 -0.622486 0
M  V30 51682 N 4983.78 7.01958 0.141303 0
M  V30 51683 H 4988.62 2.7379 -1.17657 0
M  V30 51684 H 4986.15 1.3468 -0.591575 0
M  V30 51685 H 4988.11 4.07042 0.915043 0
M  V30 51686 H 4986.74 2.97803 1.24552 0
M  V30 51687 H 4985.79 3.64747 -1.08001 0
M  V30 51688 H 4987.1 4.84041 -1.20442 0
M  V30 51689 H 4986.26 6.00838 0.841364 0
M  V30 51690 H 4985 4.76144 1.05539 0
M  V30 51691 H 4984 5.37273 -1.16693 0
M  V30 51692 H 4985.23 6.65173 -1.36828 0
M  V30 51693 H 4983.17 6.50195 0.870737 0
M  V30 51694 H 4983.09 7.54259 -0.512725 0
M  V30 51695 H 4984.36 7.76743 0.654998 0
M  V30 51696 N 4988.59 0.639649 1.44036 0
M  V30 51697 C 4989.5 -0.0611553 2.3452 0
M  V30 51698 C 4990.51 -0.826664 1.53109 0
M  V30 51699 O 4991.69 -0.776994 1.85808 0
M  V30 51700 C 4988.75 -1.0248 3.31208 0
M  V30 51701 C 4987.82 -0.257729 4.28526 0
M  V30 51702 C 4987.05 -1.17547 5.20594 0
M  V30 51703 O 4987.27 -2.41443 5.1678 0
M  V30 51704 O 4986.21 -0.655197 5.98323 0
M  V30 51705 H 4990.03 0.683284 2.95914 0
M  V30 51706 H 4987.62 0.399834 1.4395 0
M  V30 51707 H 4989.5 -1.57898 3.907 0
M  V30 51708 H 4988.17 -1.74971 2.72336 0
M  V30 51709 H 4987.08 0.339697 3.72555 0
M  V30 51710 H 4988.41 0.427327 4.90341 0
M  V30 51711 N 4990.07 -1.52932 0.380717 0
M  V30 51712 C 4991.01 -2.26199 -0.458562 0
M  V30 51713 C 4991.98 -1.27466 -1.06497 0
M  V30 51714 O 4993.17 -1.56278 -1.09462 0
M  V30 51715 C 4990.31 -3.06576 -1.58445 0
M  V30 51716 C 4989.42 -4.20225 -1.00174 0
M  V30 51717 C 4988.56 -4.88015 -2.09798 0
M  V30 51718 C 4987.59 -5.9367 -1.49071 0
M  V30 51719 N 4986.73 -6.5509 -2.5259 0
M  V30 51720 H 4991.57 -2.97499 0.1727 0
M  V30 51721 H 4989.11 -1.4678 0.0969942 0
M  V30 51722 H 4991.07 -3.51463 -2.24788 0
M  V30 51723 H 4989.7 -2.37502 -2.18615 0
M  V30 51724 H 4988.75 -3.79715 -0.228158 0
M  V30 51725 H 4990.06 -4.96104 -0.517889 0
M  V30 51726 H 4989.21 -5.36161 -2.83929 0
M  V30 51727 H 4987.95 -4.11641 -2.6154 0
M  V30 51728 H 4986.96 -5.4487 -0.734608 0
M  V30 51729 H 4988.18 -6.71972 -0.981346 0
M  V30 51730 H 4986.13 -5.81561 -3.03517 0
M  V30 51731 H 4986.05 -7.26555 -2.08935 0
M  V30 51732 H 4987.31 -7.07883 -3.26377 0
M  V30 51733 N 4991.54 -0.110296 -1.57214 0
M  V30 51734 C 4992.45 0.857001 -2.18386 0
M  V30 51735 C 4993.47 1.29911 -1.15755 0
M  V30 51736 O 4994.65 1.36389 -1.48189 0
M  V30 51737 C 4991.71 2.09254 -2.7643 0
M  V30 51738 C 4990.77 1.70319 -3.94069 0
M  V30 51739 C 4990 2.87983 -4.49335 0
M  V30 51740 O 4990.23 4.03156 -4.03511 0
M  V30 51741 O 4989.16 2.65571 -5.40144 0
M  V30 51742 H 4992.99 0.366455 -3.01481 0
M  V30 51743 H 4990.57 0.114862 -1.48958 0
M  V30 51744 H 4992.45 2.81633 -3.13466 0
M  V30 51745 H 4991.13 2.57332 -1.96372 0
M  V30 51746 H 4990.04 0.950737 -3.61817 0
M  V30 51747 H 4991.37 1.26991 -4.75536 0
M  V30 51748 N 4993.02 1.5675 0.163455 0
M  V30 51749 C 4993.97 1.97015 1.20223 0
M  V30 51750 C 4994.94 0.835236 1.43572 0
M  V30 51751 O 4996.12 1.09599 1.56181 0
M  V30 51752 C 4993.26 2.34195 2.53469 0
M  V30 51753 C 4992.38 3.60901 2.37433 0
M  V30 51754 C 4991.51 3.87257 3.636 0
M  V30 51755 C 4990.55 5.07286 3.42531 0
M  V30 51756 N 4989.69 5.29736 4.60787 0
M  V30 51757 H 4994.53 2.85565 0.851857 0
M  V30 51758 H 4992.06 1.41294 0.409207 0
M  V30 51759 H 4994.02 2.53775 3.3114 0
M  V30 51760 H 4992.65 1.48746 2.86487 0
M  V30 51761 H 4991.7 3.4919 1.50899 0
M  V30 51762 H 4993.02 4.4873 2.17815 0
M  V30 51763 H 4992.17 4.07248 4.49705 0
M  V30 51764 H 4990.91 2.97819 3.86206 0
M  V30 51765 H 4989.91 4.87186 2.54813 0
M  V30 51766 H 4991.14 5.98262 3.21339 0
M  V30 51767 H 4989.09 4.4325 4.83597 0
M  V30 51768 H 4989 6.11802 4.44111 0
M  V30 51769 H 4990.27 5.54211 5.48152 0
M  V30 51770 N 4994.5 -0.432272 1.51556 0
M  V30 51771 C 4995.78 -1.19283 1.55019 0
M  V30 51772 C 4996.16 -2.08699 0.317448 0
M  V30 51773 O 4995.5 -2.17605 -0.697166 0
M  V30 51774 C 4995.71 -1.99027 2.86686 0
M  V30 51775 C 4997.06 -2.55895 3.38826 0
M  V30 51776 O 4998.09 -2.09233 2.88271 0
M  V30 51777 O 4996.95 -3.41014 4.2705 0
M  V30 51778 H 4994.04 -0.543347 0.62346 0
M  V30 51779 H 4996.59 -0.440931 1.63872 0
M  V30 51780 H 4995.36 -1.33384 3.67865 0
M  V30 51781 H 4994.98 -2.81271 2.8102 0
M  V30 51782 N 4995.98 -1.41788 -0.688044 0
M  V30 51783 C 4997.23 -1.41269 -1.44525 0
M  V30 51784 C 4997.55 -0.0253632 -1.94984 0
M  V30 51785 O 4996.82 0.934021 -1.722 0
M  V30 51786 H 4995.4 -0.520017 -0.536276 0
M  V30 51787 H 4998.06 -1.77093 -0.813879 0
M  V30 51788 H 4997.15 -2.10447 -2.30475 0
M  V30 51789 N 4997.46 0.92305 -1.2774 0
M  V30 51790 C 4998.37 2.05761 -1.12692 0
M  V30 51791 C 4999.38 1.73911 -0.0557808 0
M  V30 51792 O 5000.56 1.99673 -0.263207 0
M  V30 51793 C 4997.62 3.37801 -0.780482 0
M  V30 51794 C 4996.68 3.8332 -1.93299 0
M  V30 51795 C 4995.92 5.09058 -1.60299 0
M  V30 51796 O 4996.14 5.68088 -0.513028 0
M  V30 51797 O 4995.07 5.50062 -2.44366 0
M  V30 51798 H 4998.9 2.21371 -2.07915 0
M  V30 51799 H 4996.49 1.04295 -1.06971 0
M  V30 51800 H 4998.37 4.17095 -0.600815 0
M  V30 51801 H 4997.04 3.23388 0.142177 0
M  V30 51802 H 4995.95 3.04892 -2.16775 0
M  V30 51803 H 4997.28 4.02282 -2.83602 0
M  V30 51804 N 4998.93 1.09838 1.1302 0
M  V30 51805 C 5000.16 0.858968 1.88227 0
M  V30 51806 C 5000.58 -0.590101 1.79341 0
M  V30 51807 O 4999.93 -1.40646 1.16297 0
M  V30 51808 C 4999.99 1.29078 3.3767 0
M  V30 51809 O 4999.71 2.68302 3.46332 0
M  V30 51810 C 5001.21 1.08437 4.29833 0
M  V30 51811 H 4998.43 0.308734 0.595755 0
M  V30 51812 H 5000.97 1.46145 1.43045 0
M  V30 51813 H 4999.13 0.732095 3.8042 0
M  V30 51814 H 4999.54 2.86613 4.39264 0
M  V30 51815 H 5001.01 1.43572 5.33002 0
M  V30 51816 H 5001.49 0.0224859 4.39194 0
M  V30 51817 H 5002.1 1.62921 3.92857 0
M  V30 51818 N 5000.41 -1.30324 0.8862 0
M  V30 51819 C 5001.64 -2.00788 0.519496 0
M  V30 51820 C 5002.06 -1.65982 -0.884955 0
M  V30 51821 O 5001.42 -0.877099 -1.58672 0
M  V30 51822 C 5001.47 -3.53683 0.702882 0
M  V30 51823 O 5000.57 -4.11637 -0.250683 0
M  V30 51824 H 4999.91 -0.631703 0.204566 0
M  V30 51825 H 5002.44 -1.66141 1.19408 0
M  V30 51826 H 5002.45 -4.03529 0.602349 0
M  V30 51827 H 5001.13 -3.78354 1.72687 0
M  V30 51828 H 4999.71 -3.72756 -0.103742 0
M  V30 51829 N 5001.89 -0.647279 -1.43694 0
M  V30 51830 C 5003.14 -0.157946 -2.01482 0
M  V30 51831 C 5003.46 1.23034 -1.51287 0
M  V30 51832 O 5002.73 1.82068 -0.723046 0
M  V30 51833 H 5001.31 -0.0554007 -0.744943 0
M  V30 51834 H 5003.97 -0.837612 -1.75983 0
M  V30 51835 H 5003.07 -0.138004 -3.11795 0
M  V30 51836 N 5003.37 1.52728 -0.388822 0
M  V30 51837 C 5004.59 2.0647 0.196138 0
M  V30 51838 C 5005.02 1.2587 1.3978 0
M  V30 51839 O 5004.38 0.283625 1.79068 0
M  V30 51840 C 5004.42 3.56458 0.544975 0
M  V30 51841 O 5003.53 3.78432 1.63899 0
M  V30 51842 H 5002.87 0.6636 0.0230436 0
M  V30 51843 H 5005.4 1.96896 -0.556154 0
M  V30 51844 H 5005.41 3.99891 0.809416 0
M  V30 51845 H 5004.08 4.1456 -0.333562 0
M  V30 51846 H 5002.66 3.46889 1.3683 0
M  V30 51847 N 5004.85 0.118632 1.57153 0
M  V30 51848 C 5005.78 -0.862173 2.12366 0
M  V30 51849 C 5006.79 -1.23021 1.06629 0
M  V30 51850 O 5007.98 -1.17922 1.34002 0
M  V30 51851 C 5005.08 -2.16416 2.60802 0
M  V30 51852 C 5004.25 -1.96787 3.90632 0
M  V30 51853 C 5003.31 -3.10711 4.2467 0
M  V30 51854 O 5002.34 -2.83641 4.93494 0
M  V30 51855 N 5003.54 -4.37134 3.81961 0
M  V30 51856 H 5006.31 -0.39046 2.97146 0
M  V30 51857 H 5003.87 -0.0658022 1.61766 0
M  V30 51858 H 5005.86 -2.91623 2.80603 0
M  V30 51859 H 5004.43 -2.54937 1.80904 0
M  V30 51860 H 5003.65 -1.05774 3.79744 0
M  V30 51861 H 5004.94 -1.80976 4.75526 0
M  V30 51862 H 5004.33 -4.62003 3.26451 0
M  V30 51863 H 5002.89 -5.09214 4.06871 0
M  V30 51864 N 5006.32 -1.56835 -0.15514 0
M  V30 51865 C 5007.23 -2.00904 -1.21139 0
M  V30 51866 C 5008.25 -0.923081 -1.47496 0
M  V30 51867 O 5009.43 -1.23195 -1.59327 0
M  V30 51868 C 5006.49 -2.37387 -2.52682 0
M  V30 51869 C 5005.55 -3.59892 -2.34044 0
M  V30 51870 C 5004.79 -3.94625 -3.59315 0
M  V30 51871 O 5005.01 -3.3012 -4.65163 0
M  V30 51872 O 5003.94 -4.87908 -3.52462 0
M  V30 51873 H 5007.77 -2.91054 -0.867269 0
M  V30 51874 H 5005.35 -1.44917 -0.363247 0
M  V30 51875 H 5007.24 -2.61749 -3.30251 0
M  V30 51876 H 5005.91 -1.50395 -2.86641 0
M  V30 51877 H 5004.82 -3.40727 -1.54453 0
M  V30 51878 H 5006.15 -4.47475 -2.05004 0
M  V30 51879 N 5007.8 0.424229 -1.51783 0
M  V30 51880 C 5009.08 1.18459 -1.5565 0
M  V30 51881 C 5009.46 2.08528 -0.328512 0
M  V30 51882 O 5008.81 2.17971 0.685616 0
M  V30 51883 C 5009.02 1.97504 -2.87738 0
M  V30 51884 C 5010.37 2.54094 -3.40178 0
M  V30 51885 O 5011.39 2.07701 -2.89376 0
M  V30 51886 O 5010.25 3.38744 -4.28853 0
M  V30 51887 H 5007.34 0.540033 -0.626333 0
M  V30 51888 H 5009.89 0.432234 -1.64103 0
M  V30 51889 H 5008.66 1.31431 -3.68567 0
M  V30 51890 H 5008.28 2.79777 -2.82508 0
M  V30 51891 N 5009.28 1.4215 0.680515 0
M  V30 51892 C 5010.21 1.41125 1.806 0
M  V30 51893 C 5011.23 0.311155 1.59799 0
M  V30 51894 O 5012.41 0.573873 1.69024 0
M  V30 51895 C 5009.51 1.18215 3.17614 0
M  V30 51896 C 5008.69 2.4055 3.65314 0
M  V30 51897 C 5007.75 2.13271 4.81043 0
M  V30 51898 O 5006.77 2.86428 4.91882 0
M  V30 51899 N 5007.97 1.13228 5.6935 0
M  V30 51900 H 5010.74 2.38135 1.81967 0
M  V30 51901 H 5008.3 1.36956 0.863398 0
M  V30 51902 H 5010.29 0.978918 3.92682 0
M  V30 51903 H 5008.86 0.297489 3.11181 0
M  V30 51904 H 5008.08 2.76478 2.80987 0
M  V30 51905 H 5009.37 3.22026 3.93924 0
M  V30 51906 H 5008.77 0.527091 5.63239 0
M  V30 51907 H 5007.33 0.988925 6.44254 0
M  V30 51908 N 5010.76 -0.916262 1.28228 0
M  V30 51909 C 5011.69 -2.03515 1.14471 0
M  V30 51910 C 5012.67 -1.70045 0.0431441 0
M  V30 51911 O 5013.85 -1.92953 0.219687 0
M  V30 51912 C 5010.98 -3.37886 0.803146 0
M  V30 51913 C 5009.94 -3.85509 1.85921 0
M  V30 51914 C 5009.26 -5.16816 1.37134 0
M  V30 51915 C 5010.56 -4.07644 3.26533 0
M  V30 51916 H 5012.26 -2.15283 2.08072 0
M  V30 51917 H 5009.8 -1.03443 1.00178 0
M  V30 51918 H 5011.76 -4.15651 0.693684 0
M  V30 51919 H 5010.48 -3.26165 -0.168559 0
M  V30 51920 H 5009.14 -3.09946 1.95777 0
M  V30 51921 H 5008.79 -5.01495 0.388766 0
M  V30 51922 H 5008.49 -5.4965 2.07748 0
M  V30 51923 H 5010.01 -5.97139 1.27505 0
M  V30 51924 H 5011.43 -4.75942 3.19613 0
M  V30 51925 H 5009.82 -4.51804 3.94959 0
M  V30 51926 H 5010.89 -3.1254 3.70738 0
M  V30 51927 N 5012.24 -1.10435 -1.12436 0
M  V30 51928 C 5013.48 -0.856583 -1.85586 0
M  V30 51929 C 5013.84 0.606841 -1.82158 0
M  V30 51930 O 5015.04 0.970962 -2.50651 0
M  V30 51931 C 5013.31 -1.38988 -3.29267 0
M  V30 51932 S 5014.87 -1.27754 -4.19791 0
M  V30 51933 H 5011.69 -0.309531 -0.640087 0
M  V30 51934 H 5014.29 -1.4098 -1.35444 0
M  V30 51935 H 5013 -2.44899 -3.29321 0
M  V30 51936 H 5012.53 -0.833247 -3.84474 0
M  V30 51937 H 5014.54 -0.235225 -4.95642 0
M  V30 51938 N 5013.72 1.29852 -0.893099 0
M  V30 51939 C 5014.94 1.99974 -0.530859 0
M  V30 51940 C 5015.36 1.66893 0.88274 0
M  V30 51941 O 5014.72 0.910408 1.5817 0
M  V30 51942 C 5014.77 3.54545 -0.705712 0
M  V30 51943 O 5014.49 3.86451 -2.06366 0
M  V30 51944 C 5015.99 4.41936 -0.347542 0
M  V30 51945 H 5013.21 0.639122 -0.204362 0
M  V30 51946 H 5015.75 1.65545 -1.20063 0
M  V30 51947 H 5013.91 3.87311 -0.0832047 0
M  V30 51948 H 5014.32 4.81139 -2.0882 0
M  V30 51949 H 5015.8 5.49538 -0.520751 0
M  V30 51950 H 5016.27 4.33341 0.714986 0
M  V30 51951 H 5016.88 4.14629 -0.946713 0
M  V30 51952 N 5015.19 0.65489 1.43349 0
M  V30 51953 C 5016.16 -0.0262756 2.29185 0
M  V30 51954 C 5017.16 -0.748901 1.42296 0
M  V30 51955 O 5018.35 -0.5899 1.63908 0
M  V30 51956 C 5015.48 -1.04794 3.24393 0
M  V30 51957 H 5016.67 0.728985 2.90905 0
M  V30 51958 H 5014.22 0.416202 1.50657 0
M  V30 51959 H 5014.96 -1.83238 2.67571 0
M  V30 51960 H 5014.74 -0.533417 3.88455 0
M  V30 51961 H 5016.23 -1.52358 3.88814 0
M  V30 51962 N 5016.67 -1.5252 0.396917 0
M  V30 51963 C 5017.6 -2.29584 -0.425861 0
M  V30 51964 C 5018.58 -1.33285 -1.05684 0
M  V30 51965 O 5019.77 -1.62184 -1.06817 0
M  V30 51966 C 5016.9 -3.10827 -1.54932 0
M  V30 51967 C 5015.85 -4.15072 -1.04399 0
M  V30 51968 C 5015.18 -4.84586 -2.26011 0
M  V30 51969 C 5016.48 -5.22191 -0.106583 0
M  V30 51970 H 5018.17 -2.98611 0.21715 0
M  V30 51971 H 5015.72 -1.4361 0.105877 0
M  V30 51972 H 5017.67 -3.635 -2.1318 0
M  V30 51973 H 5016.39 -2.39546 -2.22003 0
M  V30 51974 H 5015.05 -3.63391 -0.483991 0
M  V30 51975 H 5014.7 -4.09846 -2.91609 0
M  V30 51976 H 5014.4 -5.5505 -1.92856 0
M  V30 51977 H 5015.93 -5.40066 -2.84887 0
M  V30 51978 H 5017.34 -5.70178 -0.597484 0
M  V30 51979 H 5015.74 -5.99947 0.135563 0
M  V30 51980 H 5016.81 -4.77528 0.842302 0
M  V30 51981 N 5018.15 -0.126964 -1.57088 0
M  V30 51982 C 5019.4 0.529883 -1.95755 0
M  V30 51983 C 5019.73 1.65819 -1.01082 0
M  V30 51984 O 5019 1.94437 -0.0494845 0
M  V30 51985 C 5019.29 1.05505 -3.44297 0
M  V30 51986 C 5019.14 -0.0703834 -4.49745 0
M  V30 51987 C 5020.46 1.94336 -3.94869 0
M  V30 51988 H 5017.58 0.191143 -0.711782 0
M  V30 51989 H 5020.22 -0.204137 -1.889 0
M  V30 51990 H 5018.37 1.68057 -3.5027 0
M  V30 51991 H 5020.04 -0.705994 -4.55866 0
M  V30 51992 H 5018.28 -0.732409 -4.27572 0
M  V30 51993 H 5018.96 0.338449 -5.50961 0
M  V30 51994 H 5021.43 1.41644 -3.91249 0
M  V30 51995 H 5020.31 2.27998 -4.99308 0
M  V30 51996 H 5020.57 2.87287 -3.36034 0
M  V30 51997 N 5019.63 1.56915 0.14682 0
M  V30 51998 C 5020.58 1.99228 1.20046 0
M  V30 51999 C 5021.57 0.884711 1.44462 0
M  V30 52000 O 5022.78 1.06989 1.44752 0
M  V30 52001 H 5019.15 0.634205 0.404089 0
M  V30 52002 H 5021.12 2.87001 0.816886 0
M  V30 52003 C 5019.87 2.38907 2.52623 0
M  V30 52004 H 5019.19 3.23685 2.34665 0
M  V30 52005 H 5020.63 2.72337 3.24975 0
M  V30 52006 C 5019.09 1.24181 3.13178 0
M  V30 52007 O 5019.62 0.542643 3.98018 0
M  V30 52008 N 5017.83 1.00601 2.72631 0
M  V30 52009 H 5017.38 1.57634 2.03739 0
M  V30 52010 H 5017.33 0.240285 3.1348 0
M  V30 52011 N 5021.11 -0.416173 1.52006 0
M  V30 52012 C 5022.04 -1.52546 1.71063 0
M  V30 52013 C 5023.05 -1.51691 0.591073 0
M  V30 52014 O 5024.24 -1.56084 0.866028 0
M  V30 52015 C 5021.34 -2.91449 1.72948 0
M  V30 52016 C 5020.51 -3.16574 3.01828 0
M  V30 52017 C 5019.57 -4.35312 2.95618 0
M  V30 52018 O 5018.6 -4.32934 3.69536 0
M  V30 52019 N 5019.8 -5.40041 2.12922 0
M  V30 52020 H 5022.56 -1.36595 2.66762 0
M  V30 52021 H 5020.13 -0.605387 1.50156 0
M  V30 52022 H 5022.12 -3.68938 1.66334 0
M  V30 52023 H 5020.69 -3.00892 0.847524 0
M  V30 52024 H 5019.91 -2.27192 3.22145 0
M  V30 52025 H 5021.2 -3.30199 3.87099 0
M  V30 52026 H 5020.59 -5.44818 1.52284 0
M  V30 52027 H 5019.15 -6.16301 2.12171 0
M  V30 52028 N 5022.58 -1.42509 -0.672966 0
M  V30 52029 C 5023.51 -1.48922 -1.79846 0
M  V30 52030 C 5024.49 -0.345624 -1.66552 0
M  V30 52031 O 5025.68 -0.560181 -1.85945 0
M  V30 52032 C 5022.81 -1.39269 -3.18153 0
M  V30 52033 C 5021.76 -2.51674 -3.46185 0
M  V30 52034 C 5021.09 -2.27079 -4.84086 0
M  V30 52035 C 5022.39 -3.9398 -3.42895 0
M  V30 52036 H 5024.08 -2.4312 -1.74737 0
M  V30 52037 H 5021.63 -1.17016 -0.839247 0
M  V30 52038 H 5023.58 -1.42363 -3.96624 0
M  V30 52039 H 5022.31 -0.415656 -3.23944 0
M  V30 52040 H 5020.97 -2.47901 -2.70076 0
M  V30 52041 H 5020.61 -1.27665 -4.86529 0
M  V30 52042 H 5020.31 -3.02416 -5.03804 0
M  V30 52043 H 5021.84 -2.31925 -5.64839 0
M  V30 52044 H 5023.25 -3.99347 -4.11333 0
M  V30 52045 H 5021.65 -4.69183 -3.74149 0
M  V30 52046 H 5022.72 -4.2052 -2.41435 0
M  V30 52047 N 5024.06 0.909449 -1.28712 0
M  V30 52048 C 5025.01 2.03377 -1.12873 0
M  V30 52049 C 5026 1.69335 -0.046867 0
M  V30 52050 O 5027.21 1.78818 -0.205954 0
M  V30 52051 H 5023.58 0.666439 -0.348371 0
M  V30 52052 H 5025.56 2.13877 -2.08084 0
M  V30 52053 C 5024.3 3.38089 -0.81186 0
M  V30 52054 H 5023.63 3.6478 -1.63632 0
M  V30 52055 H 5025.07 4.17474 -0.741016 0
M  V30 52056 C 5023.53 3.33397 0.484561 0
M  V30 52057 O 5024.06 3.72094 1.51357 0
M  V30 52058 N 5022.26 2.86493 0.48686 0
M  V30 52059 H 5021.81 2.55198 -0.350967 0
M  V30 52060 H 5021.77 2.83736 1.3543 0
M  V30 52061 N 5025.54 1.1103 1.11848 0
M  V30 52062 C 5026.49 0.764739 2.17762 0
M  V30 52063 C 5027.46 -0.261796 1.64024 0
M  V30 52064 O 5028.64 -0.139681 1.90288 0
M  V30 52065 C 5025.78 0.209438 3.44464 0
M  V30 52066 C 5024.89 1.29202 4.12227 0
M  V30 52067 C 5024.03 0.697708 5.26598 0
M  V30 52068 C 5023.07 1.76044 5.86238 0
M  V30 52069 N 5022.21 1.18594 6.92012 0
M  V30 52070 H 5027.05 1.67211 2.46667 0
M  V30 52071 H 5024.58 0.835107 1.21097 0
M  V30 52072 H 5026.54 -0.130453 4.16996 0
M  V30 52073 H 5025.17 -0.66114 3.15957 0
M  V30 52074 H 5024.22 1.74893 3.37811 0
M  V30 52075 H 5025.53 2.09623 4.52614 0
M  V30 52076 H 5024.69 0.307625 6.0592 0
M  V30 52077 H 5023.43 -0.137872 4.87505 0
M  V30 52078 H 5022.43 2.15988 5.05598 0
M  V30 52079 H 5023.66 2.59897 6.274 0
M  V30 52080 H 5021.6 0.371925 6.54945 0
M  V30 52081 H 5021.52 1.92691 7.31031 0
M  V30 52082 H 5022.79 0.822602 7.75147 0
M  V30 52083 N 5027.02 -1.29376 0.899973 0
M  V30 52084 C 5028.27 -1.95548 0.526032 0
M  V30 52085 C 5028.59 -1.70949 -0.927729 0
M  V30 52086 O 5027.85 -1.01551 -1.6729 0
M  V30 52087 C 5028.15 -3.49112 0.765236 0
M  V30 52088 C 5027.81 -3.93788 2.1964 0
M  V30 52089 C 5026.48 -4.05698 2.58772 0
M  V30 52090 C 5028.83 -4.16872 3.12837 0
M  V30 52091 C 5026.16 -4.3806 3.90282 0
M  V30 52092 C 5028.51 -4.50709 4.43896 0
M  V30 52093 C 5027.17 -4.60828 4.82901 0
M  V30 52094 H 5026.44 -0.715562 0.192489 0
M  V30 52095 H 5029.09 -1.53968 1.13868 0
M  V30 52096 H 5027.39 -3.91738 0.0696687 0
M  V30 52097 H 5029.09 -3.98407 0.455284 0
M  V30 52098 H 5025.68 -3.85036 1.8827 0
M  V30 52099 H 5029.86 -4.07137 2.83819 0
M  V30 52100 H 5025.12 -4.44098 4.20223 0
M  V30 52101 H 5029.29 -4.6752 5.16137 0
M  V30 52102 H 5026.92 -4.8566 5.8484 0
M  V30 52103 N 5028.5 -0.662483 -1.43 0
M  V30 52104 C 5029.46 0.014121 -2.29196 0
M  V30 52105 C 5030.46 0.741344 -1.42691 0
M  V30 52106 O 5031.65 0.581199 -1.64219 0
M  V30 52107 C 5028.78 1.03072 -3.24944 0
M  V30 52108 H 5029.97 -0.744402 -2.90514 0
M  V30 52109 H 5027.53 -0.424186 -1.50434 0
M  V30 52110 H 5028.26 1.81816 -2.68539 0
M  V30 52111 H 5028.05 0.512809 -3.88732 0
M  V30 52112 H 5029.54 1.50294 -3.89617 0
M  V30 52113 N 5029.97 1.52307 -0.404999 0
M  V30 52114 C 5031.25 1.94237 0.230476 0
M  V30 52115 C 5031.63 1.3416 1.62986 0
M  V30 52116 O 5030.98 0.515791 2.22602 0
M  V30 52117 C 5031.19 3.48167 0.240984 0
M  V30 52118 C 5032.54 4.22075 0.46234 0
M  V30 52119 O 5033.56 3.54755 0.320519 0
M  V30 52120 O 5032.42 5.41446 0.741518 0
M  V30 52121 H 5029.51 0.813771 0.147329 0
M  V30 52122 H 5032.06 1.63328 -0.460644 0
M  V30 52123 H 5030.83 3.84266 -0.738602 0
M  V30 52124 H 5030.46 3.85425 0.976375 0
M  V30 52125 N 5031.45 0.135293 1.57018 0
M  V30 52126 C 5032.4 -0.808832 2.16163 0
M  V30 52127 C 5033.37 -1.2523 1.09117 0
M  V30 52128 O 5034.55 -1.32692 1.37104 0
M  V30 52129 C 5031.69 -2.04719 2.7782 0
M  V30 52130 C 5030.81 -1.6506 3.99223 0
M  V30 52131 C 5029.94 -2.83986 4.48916 0
M  V30 52132 C 5028.98 -2.40643 5.62812 0
M  V30 52133 N 5028.12 -3.52538 6.07175 0
M  V30 52134 H 5032.96 -0.297647 2.9651 0
M  V30 52135 H 5030.5 -0.135212 1.46477 0
M  V30 52136 H 5032.45 -2.77299 3.11707 0
M  V30 52137 H 5031.08 -2.53268 2.00137 0
M  V30 52138 H 5030.14 -0.822899 3.71393 0
M  V30 52139 H 5031.45 -1.29219 4.81772 0
M  V30 52140 H 5030.6 -3.64771 4.84796 0
M  V30 52141 H 5029.34 -3.23064 3.65351 0
M  V30 52142 H 5028.35 -1.58295 5.26519 0
M  V30 52143 H 5029.57 -2.02665 6.48154 0
M  V30 52144 H 5027.52 -3.91259 5.26547 0
M  V30 52145 H 5027.43 -3.20675 6.84619 0
M  V30 52146 H 5028.7 -4.33715 6.47697 0
M  V30 52147 N 5032.93 -1.5699 -0.138497 0
M  V30 52148 C 5033.84 -2.02178 -1.19001 0
M  V30 52149 C 5034.86 -0.938673 -1.46509 0
M  V30 52150 O 5036.03 -1.24878 -1.58011 0
M  V30 52151 C 5033.1 -2.40054 -2.5015 0
M  V30 52152 C 5032.16 -3.62354 -2.30214 0
M  V30 52153 C 5031.39 -3.98413 -3.55109 0
M  V30 52154 O 5031.61 -3.35035 -4.61636 0
M  V30 52155 O 5030.55 -4.91619 -3.47267 0
M  V30 52156 H 5034.37 -2.91957 -0.83635 0
M  V30 52157 H 5031.96 -1.45294 -0.347856 0
M  V30 52158 H 5033.84 -2.65237 -3.27456 0
M  V30 52159 H 5032.52 -1.53427 -2.8503 0
M  V30 52160 H 5031.42 -3.42346 -1.50831 0
M  V30 52161 H 5032.76 -4.49624 -2.00247 0
M  V30 52162 N 5034.41 0.408106 -1.52224 0
M  V30 52163 C 5035.64 1.17666 -1.70183 0
M  V30 52164 C 5036.05 1.84255 -0.411761 0
M  V30 52165 O 5035.41 1.71922 0.612293 0
M  V30 52166 C 5035.46 2.23901 -2.83814 0
M  V30 52167 O 5035.18 1.6003 -4.07826 0
M  V30 52168 C 5036.68 3.13629 -3.13292 0
M  V30 52169 H 5033.9 0.353542 -0.570306 0
M  V30 52170 H 5036.45 0.480013 -1.98787 0
M  V30 52171 H 5034.6 2.89233 -2.57727 0
M  V30 52172 H 5035.01 2.30468 -4.71153 0
M  V30 52173 H 5036.49 3.84241 -3.96311 0
M  V30 52174 H 5036.97 3.76058 -2.26885 0
M  V30 52175 H 5037.57 2.53965 -3.41148 0
M  V30 52176 N 5035.89 1.42864 0.665399 0
M  V30 52177 C 5036.82 1.49874 1.79054 0
M  V30 52178 C 5037.8 0.354452 1.66366 0
M  V30 52179 O 5038.98 0.570034 1.85645 0
M  V30 52180 C 5036.11 1.40954 3.1741 0
M  V30 52181 C 5035.07 2.53507 3.44845 0
M  V30 52182 C 5034.39 2.29643 4.82875 0
M  V30 52183 C 5035.69 3.95793 3.40801 0
M  V30 52184 H 5037.39 2.44044 1.73445 0
M  V30 52185 H 5034.93 1.17459 0.833029 0
M  V30 52186 H 5036.89 1.44464 3.95864 0
M  V30 52187 H 5035.61 0.43283 3.23719 0
M  V30 52188 H 5034.27 2.49329 2.68757 0
M  V30 52189 H 5033.92 1.30243 4.85845 0
M  V30 52190 H 5033.62 3.05083 5.02193 0
M  V30 52191 H 5035.14 2.34917 5.63601 0
M  V30 52192 H 5036.55 4.01523 4.0921 0
M  V30 52193 H 5034.95 4.71161 3.71655 0
M  V30 52194 H 5036.02 4.21795 2.39201 0
M  V30 52195 N 5037.36 -0.902611 1.29192 0
M  V30 52196 C 5038.61 -1.64746 1.16368 0
M  V30 52197 C 5038.93 -1.93518 -0.284614 0
M  V30 52198 O 5040.13 -2.66194 -0.534136 0
M  V30 52199 C 5038.59 -2.9684 2.03504 0
M  V30 52200 C 5038.2 -2.75674 3.5314 0
M  V30 52201 C 5039.94 -3.74755 1.99396 0
M  V30 52202 C 5037.85 -4.03477 4.32389 0
M  V30 52203 H 5036.78 -0.618026 0.431926 0
M  V30 52204 H 5039.43 -1.00074 1.5381 0
M  V30 52205 H 5037.81 -3.62709 1.58928 0
M  V30 52206 H 5038.98 -2.18417 4.05747 0
M  V30 52207 H 5037.3 -2.11159 3.58889 0
M  V30 52208 H 5039.9 -4.69506 2.55867 0
M  V30 52209 H 5040.24 -4.04763 0.973265 0
M  V30 52210 H 5040.77 -3.15723 2.42 0
M  V30 52211 H 5037.51 -3.78637 5.35084 0
M  V30 52212 H 5037.03 -4.60305 3.84551 0
M  V30 52213 H 5038.71 -4.71647 4.42898 0
M  V30 52214 N 5038.84 -1.11622 -1.11258 0
M  V30 52215 C 5039.77 -0.734092 -2.17126 0
M  V30 52216 C 5040.79 0.235186 -1.61092 0
M  V30 52217 O 5041.98 0.0177969 -1.78491 0
M  V30 52218 C 5039.08 -0.0644873 -3.38839 0
M  V30 52219 C 5038.25 -1.06107 -4.24335 0
M  V30 52220 C 5037.31 -0.420666 -5.24516 0
M  V30 52221 O 5036.33 -1.07515 -5.58954 0
M  V30 52222 N 5037.54 0.815626 -5.74742 0
M  V30 52223 H 5040.3 -1.64501 -2.50519 0
M  V30 52224 H 5037.86 -1.00668 -1.26797 0
M  V30 52225 H 5039.85 0.37571 -4.02952 0
M  V30 52226 H 5038.42 0.74904 -3.03493 0
M  V30 52227 H 5037.64 -1.67916 -3.56648 0
M  V30 52228 H 5038.93 -1.73524 -4.78296 0
M  V30 52229 H 5038.33 1.36649 -5.48948 0
M  V30 52230 H 5036.89 1.19877 -6.40681 0
M  V30 52231 N 5040.32 1.28897 -0.906821 0
M  V30 52232 C 5041.57 1.95267 -0.536395 0
M  V30 52233 C 5041.9 1.71438 0.918651 0
M  V30 52234 O 5041.15 1.02437 1.66749 0
M  V30 52235 C 5041.45 3.48701 -0.78374 0
M  V30 52236 C 5041.12 3.92618 -2.21725 0
M  V30 52237 C 5039.78 4.0432 -2.6092 0
M  V30 52238 C 5042.13 4.15207 -3.15044 0
M  V30 52239 C 5039.46 4.35984 -3.926 0
M  V30 52240 C 5041.81 4.48349 -4.4628 0
M  V30 52241 C 5040.47 4.58261 -4.85338 0
M  V30 52242 H 5039.74 0.714531 -0.196281 0
M  V30 52243 H 5042.39 1.53362 -1.14683 0
M  V30 52244 H 5040.7 3.91696 -0.0904425 0
M  V30 52245 H 5042.39 3.9816 -0.476407 0
M  V30 52246 H 5038.98 3.84032 -1.90309 0
M  V30 52247 H 5043.17 4.05626 -2.85974 0
M  V30 52248 H 5038.42 4.41863 -4.22572 0
M  V30 52249 H 5042.6 4.64777 -5.18609 0
M  V30 52250 H 5040.22 4.82552 -5.87408 0
M  V30 52251 N 5041.8 0.670057 1.42646 0
M  V30 52252 C 5042.73 0.0026671 2.335 0
M  V30 52253 C 5043.71 -0.794311 1.50415 0
M  V30 52254 O 5044.9 -0.752417 1.79032 0
M  V30 52255 C 5042.03 -0.952631 3.33979 0
M  V30 52256 C 5040.98 -0.264582 4.27181 0
M  V30 52257 C 5040.31 -1.33249 5.17831 0
M  V30 52258 C 5041.61 0.85347 5.1528 0
M  V30 52259 H 5043.3 0.761427 2.89556 0
M  V30 52260 H 5040.85 0.36761 1.39229 0
M  V30 52261 H 5042.8 -1.42856 3.96447 0
M  V30 52262 H 5041.52 -1.74275 2.76217 0
M  V30 52263 H 5040.18 0.191067 3.66102 0
M  V30 52264 H 5039.83 -2.11448 4.56397 0
M  V30 52265 H 5039.53 -0.877272 5.81014 0
M  V30 52266 H 5041.05 -1.80945 5.83173 0
M  V30 52267 H 5042.47 0.458964 5.7146 0
M  V30 52268 H 5040.86 1.23419 5.87271 0
M  V30 52269 H 5041.93 1.70428 4.53963 0
M  V30 52270 N 5043.28 -1.5209 0.413071 0
M  V30 52271 C 5044.69 -1.59471 0.0641396 0
M  V30 52272 C 5044.89 -1.42567 -1.42397 0
M  V30 52273 O 5043.95 -1.25461 -2.19125 0
M  V30 52274 C 5045.26 -2.9539 0.562578 0
M  V30 52275 C 5046.81 -3.08635 0.520897 0
M  V30 52276 C 5047.29 -4.47041 0.995909 0
M  V30 52277 N 5048.78 -4.53293 0.952891 0
M  V30 52278 C 5049.51 -5.58664 1.29158 0
M  V30 52279 N 5049.01 -6.7157 1.70192 0
M  V30 52280 N 5050.8 -5.48893 1.2113 0
M  V30 52281 H 5042.95 -1.61325 1.38159 0
M  V30 52282 H 5045.21 -0.75914 0.567812 0
M  V30 52283 H 5044.92 -3.13053 1.60282 0
M  V30 52284 H 5044.79 -3.77191 -0.0256549 0
M  V30 52285 H 5047.18 -2.90654 -0.51031 0
M  V30 52286 H 5047.26 -2.28731 1.14523 0
M  V30 52287 H 5046.91 -4.65765 2.02546 0
M  V30 52288 H 5046.84 -5.25447 0.348347 0
M  V30 52289 H 5049.33 -3.72246 0.65125 0
M  V30 52290 H 5049.64 -7.47966 1.94336 0
M  V30 52291 H 5047.99 -6.72841 1.74099 0
M  V30 52292 H 5051.18 -4.5957 0.889557 0
M  V30 52293 H 5051.35 -6.30906 1.47855 0
M  V30 52294 N 5044.76 -0.143618 -1.56944 0
M  V30 52295 C 5046 0.511128 -1.97906 0
M  V30 52296 C 5046.36 1.62258 -1.02646 0
M  V30 52297 O 5047.56 2.33795 -1.32639 0
M  V30 52298 C 5045.83 1.00741 -3.42908 0
M  V30 52299 S 5047.39 1.66723 -4.05893 0
M  V30 52300 H 5044.21 0.165375 -0.6915 0
M  V30 52301 H 5046.81 -0.234532 -1.94088 0
M  V30 52302 H 5045.51 0.187673 -4.09971 0
M  V30 52303 H 5045.05 1.78777 -3.50432 0
M  V30 52304 H 5047.06 2.9543 -3.98667 0
M  V30 52305 N 5046.23 1.57062 0.130169 0
M  V30 52306 C 5047.48 1.8426 0.839907 0
M  V30 52307 C 5047.81 0.72705 1.804 0
M  V30 52308 O 5047.06 -0.282563 1.93649 0
M  V30 52309 C 5047.36 3.17884 1.63354 0
M  V30 52310 C 5047.03 4.43478 0.814735 0
M  V30 52311 C 5045.69 4.77583 0.588898 0
M  V30 52312 C 5048.04 5.20632 0.243254 0
M  V30 52313 C 5045.37 5.86292 -0.218854 0
M  V30 52314 C 5047.72 6.3019 -0.551629 0
M  V30 52315 C 5046.39 6.62834 -0.787886 0
M  V30 52316 H 5045.66 0.674256 0.307344 0
M  V30 52317 H 5048.3 1.91224 0.102765 0
M  V30 52318 H 5046.61 3.06446 2.44127 0
M  V30 52319 H 5048.31 3.36147 2.18646 0
M  V30 52320 H 5044.9 4.16751 1.00084 0
M  V30 52321 H 5049.08 4.94645 0.404971 0
M  V30 52322 H 5044.34 6.10015 -0.41123 0
M  V30 52323 H 5048.51 6.89161 -1.0015 0
M  V30 52324 H 5046.14 7.46903 -1.41563 0
M  V30 52325 N 5047.71 -0.400028 1.52439 0
M  V30 52326 C 5048.64 -1.49464 1.79395 0
M  V30 52327 C 5049.62 -1.57381 0.645385 0
M  V30 52328 O 5050.81 -1.72508 0.891886 0
M  V30 52329 C 5047.94 -2.87194 1.95287 0
M  V30 52330 C 5046.89 -2.94123 3.10927 0
M  V30 52331 C 5046.22 -4.34196 3.12055 0
M  V30 52332 C 5047.52 -2.64775 4.50212 0
M  V30 52333 H 5049.21 -1.27156 2.71057 0
M  V30 52334 H 5046.76 -0.610267 1.30429 0
M  V30 52335 H 5048.71 -3.63765 2.12728 0
M  V30 52336 H 5047.43 -3.10816 1.00305 0
M  V30 52337 H 5046.09 -2.19999 2.93251 0
M  V30 52338 H 5045.74 -4.5484 2.14777 0
M  V30 52339 H 5045.44 -4.39754 3.8973 0
M  V30 52340 H 5046.97 -5.12688 3.31637 0
M  V30 52341 H 5048.38 -3.31066 4.68047 0
M  V30 52342 H 5046.78 -2.81698 5.29874 0
M  V30 52343 H 5047.85 -1.60168 4.57684 0
M  V30 52344 N 5049.19 -1.43215 -0.657814 0
M  V30 52345 C 5050.12 -1.50821 -1.78256 0
M  V30 52346 C 5051.1 -0.36327 -1.66176 0
M  V30 52347 O 5052.29 -0.579872 -1.85341 0
M  V30 52348 C 5049.42 -1.42636 -3.16658 0
M  V30 52349 C 5048.37 -2.55332 -3.43496 0
M  V30 52350 C 5047.7 -2.32201 -4.8165 0
M  V30 52351 C 5049 -3.97595 -3.38697 0
M  V30 52352 H 5050.69 -2.4496 -1.72148 0
M  V30 52353 H 5048.24 -1.17899 -0.826788 0
M  V30 52354 H 5050.19 -1.46562 -3.95092 0
M  V30 52355 H 5048.91 -0.449991 -3.23485 0
M  V30 52356 H 5047.57 -2.50751 -2.67431 0
M  V30 52357 H 5047.22 -1.32818 -4.85148 0
M  V30 52358 H 5046.92 -3.07742 -5.00568 0
M  V30 52359 H 5048.44 -2.37903 -5.62347 0
M  V30 52360 H 5049.86 -4.03687 -4.07074 0
M  V30 52361 H 5048.25 -4.73125 -3.69151 0
M  V30 52362 H 5049.32 -4.23057 -2.36961 0
M  V30 52363 N 5050.67 0.895746 -1.29669 0
M  V30 52364 C 5051.58 2.03324 -1.17031 0
M  V30 52365 C 5052.59 1.73753 -0.0926573 0
M  V30 52366 O 5053.77 1.99069 -0.305501 0
M  V30 52367 C 5050.83 3.36069 -0.851959 0
M  V30 52368 C 5049.9 3.79133 -2.01387 0
M  V30 52369 C 5049.13 5.05543 -1.71061 0
M  V30 52370 O 5049.35 5.66872 -0.633412 0
M  V30 52371 O 5048.29 5.44755 -2.55979 0
M  V30 52372 H 5052.11 2.16911 -2.12564 0
M  V30 52373 H 5049.7 1.02003 -1.09159 0
M  V30 52374 H 5051.58 4.15727 -0.689152 0
M  V30 52375 H 5050.25 3.23616 0.0735496 0
M  V30 52376 H 5049.16 3.00226 -2.23194 0
M  V30 52377 H 5050.49 3.96176 -2.92072 0
M  V30 52378 N 5052.15 1.1221 1.10665 0
M  V30 52379 C 5053.37 0.899004 1.86903 0
M  V30 52380 C 5053.8 -0.546283 1.79993 0
M  V30 52381 O 5053.15 -1.38651 1.16815 0
M  V30 52382 C 5053.2 1.3754 3.33339 0
M  V30 52383 O 5052.31 0.552324 4.08685 0
M  V30 52384 H 5051.65 0.323183 0.580042 0
M  V30 52385 H 5054.18 1.4936 1.39832 0
M  V30 52386 H 5054.19 1.37344 3.84188 0
M  V30 52387 H 5052.86 2.42779 3.37685 0
M  V30 52388 H 5051.44 0.621076 3.67692 0
M  V30 52389 N 5053.62 -1.28415 0.913644 0
M  V30 52390 C 5054.57 -2.29271 0.392118 0
M  V30 52391 C 5055.57 -1.61345 -0.516141 0
M  V30 52392 O 5056.77 -1.75558 -0.397398 0
M  V30 52393 H 5053.15 -0.744175 0.108204 0
M  V30 52394 H 5055.12 -2.70687 1.25584 0
M  V30 52395 C 5053.87 -3.45907 -0.352693 0
M  V30 52396 H 5053.19 -3.98377 0.336988 0
M  V30 52397 H 5054.63 -4.18475 -0.682251 0
M  V30 52398 C 5053.09 -2.98578 -1.56055 0
M  V30 52399 O 5053.62 -3.01042 -2.65964 0
M  V30 52400 N 5051.82 -2.5424 -1.4075 0
M  V30 52401 H 5051.37 -2.52434 -0.513314 0
M  V30 52402 H 5051.33 -2.22933 -2.21694 0
M  V30 52403 N 5055.1 -0.677613 -1.42289 0
M  V30 52404 C 5056.33 -0.207974 -2.06355 0
M  V30 52405 C 5056.75 1.12718 -1.50587 0
M  V30 52406 O 5056.11 1.70168 -0.62549 0
M  V30 52407 C 5056.16 -0.156615 -3.6026 0
M  V30 52408 O 5055.26 0.87402 -4.03032 0
M  V30 52409 H 5054.6 -0.106079 -0.655472 0
M  V30 52410 H 5057.13 -0.927418 -1.82374 0
M  V30 52411 H 5057.14 0.0185823 -4.07996 0
M  V30 52412 H 5055.82 -1.13115 -4.00222 0
M  V30 52413 H 5054.39 0.669636 -3.66838 0
M  V30 52414 N 5056.58 1.51869 -0.421131 0
M  V30 52415 C 5057.81 2.0684 0.152298 0
M  V30 52416 C 5058.23 1.28807 1.37078 0
M  V30 52417 O 5057.59 0.321545 1.78426 0
M  V30 52418 C 5057.64 3.57534 0.469242 0
M  V30 52419 O 5056.74 3.81824 1.55835 0
M  V30 52420 H 5056.08 0.66394 0.00896252 0
M  V30 52421 H 5058.61 1.95672 -0.597793 0
M  V30 52422 H 5058.62 4.01517 0.724411 0
M  V30 52423 H 5057.3 4.13759 -0.421422 0
M  V30 52424 H 5055.87 3.49713 1.29441 0
M  V30 52425 N 5058.06 0.151939 1.56866 0
M  V30 52426 C 5059.28 -0.507973 2.01083 0
M  V30 52427 C 5059.71 -1.57302 1.03139 0
M  V30 52428 O 5059.07 -1.81298 0.00789464 0
M  V30 52429 C 5059.11 -1.08094 3.44018 0
M  V30 52430 O 5058.22 -2.19565 3.49092 0
M  V30 52431 H 5057.56 -0.123734 0.652369 0
M  V30 52432 H 5060.09 0.250127 2.03065 0
M  V30 52433 H 5060.1 -1.40838 3.82921 0
M  V30 52434 H 5058.77 -0.301022 4.14809 0
M  V30 52435 H 5057.35 -1.88012 3.22034 0
M  V30 52436 N 5059.54 -1.57128 -0.121838 0
M  V30 52437 C 5060.78 -1.84977 -0.831353 0
M  V30 52438 C 5061.12 -0.737267 -1.79661 0
M  V30 52439 O 5060.39 0.257131 -1.92793 0
M  V30 52440 C 5060.67 -3.23403 -1.58375 0
M  V30 52441 C 5060.53 -4.45248 -0.638288 0
M  V30 52442 C 5061.85 -3.59364 -2.54058 0
M  V30 52443 H 5058.96 -0.672831 -0.300779 0
M  V30 52444 H 5061.61 -1.89759 -0.095692 0
M  V30 52445 H 5059.76 -3.19457 -2.21087 0
M  V30 52446 H 5061.43 -4.61296 -0.0202304 0
M  V30 52447 H 5059.67 -4.33771 0.0503825 0
M  V30 52448 H 5060.34 -5.38769 -1.20132 0
M  V30 52449 H 5062.82 -3.64082 -2.01453 0
M  V30 52450 H 5061.69 -4.57204 -3.03736 0
M  V30 52451 H 5061.96 -2.86634 -3.36591 0
M  V30 52452 N 5061.01 0.391938 -1.52649 0
M  V30 52453 C 5062.43 0.731798 -1.41834 0
M  V30 52454 C 5062.63 1.94228 -0.536429 0
M  V30 52455 O 5061.69 2.52498 -0.00875448 0
M  V30 52456 C 5063 0.969643 -2.84637 0
M  V30 52457 C 5064.55 1.0713 -2.94096 0
M  V30 52458 C 5065.02 1.34179 -4.37904 0
M  V30 52459 N 5066.51 1.41007 -4.41216 0
M  V30 52460 C 5067.25 1.63596 -5.49567 0
M  V30 52461 N 5066.74 1.83676 -6.68008 0
M  V30 52462 N 5068.54 1.65752 -5.37106 0
M  V30 52463 H 5060.69 -0.404621 -2.0851 0
M  V30 52464 H 5062.95 -0.118823 -0.940524 0
M  V30 52465 H 5062.66 0.152341 -3.5137 0
M  V30 52466 H 5062.53 1.88512 -3.26716 0
M  V30 52467 H 5064.92 1.87917 -2.27533 0
M  V30 52468 H 5065 0.133797 -2.5545 0
M  V30 52469 H 5064.64 0.539029 -5.05032 0
M  V30 52470 H 5064.57 2.29209 -4.741 0
M  V30 52471 H 5067.06 1.2721 -3.55845 0
M  V30 52472 H 5067.38 2.00411 -7.46361 0
M  V30 52473 H 5065.72 1.80906 -6.71042 0
M  V30 52474 H 5068.91 1.49614 -4.43546 0
M  V30 52475 H 5069.09 1.83016 -6.21618 0
M  V30 52476 N 5062.49 1.43562 0.650209 0
M  V30 52477 C 5063.74 1.4655 1.41049 0
M  V30 52478 C 5064.09 0.0894788 1.92192 0
M  V30 52479 O 5063.39 -0.892368 1.6955 0
M  V30 52480 C 5063.58 2.44538 2.60646 0
M  V30 52481 C 5063.41 3.91532 2.21208 0
M  V30 52482 C 5062.18 4.59873 2.09391 0
M  V30 52483 C 5064.38 4.81282 1.81306 0
M  V30 52484 N 5062.36 5.91778 1.63316 0
M  V30 52485 C 5063.73 6.02483 1.46335 0
M  V30 52486 C 5065.79 4.68516 1.68516 0
M  V30 52487 C 5064.49 7.12335 0.998554 0
M  V30 52488 C 5066.51 5.78374 1.23441 0
M  V30 52489 C 5065.88 6.98703 0.894092 0
M  V30 52490 H 5061.98 0.591368 0.511672 0
M  V30 52491 H 5064.56 1.79762 0.747915 0
M  V30 52492 H 5062.73 2.13347 3.24557 0
M  V30 52493 H 5064.46 2.37944 3.2736 0
M  V30 52494 H 5061.22 4.1442 2.29244 0
M  V30 52495 H 5061.64 6.61804 1.42632 0
M  V30 52496 H 5066.28 3.7594 1.93465 0
M  V30 52497 H 5064 8.04736 0.736552 0
M  V30 52498 H 5067.59 5.70516 1.1403 0
M  V30 52499 H 5066.47 7.82264 0.550626 0
M  V30 52500 N 5063.97 -0.888857 1.30143 0
M  V30 52501 C 5064.9 -1.99968 1.12006 0
M  V30 52502 C 5065.92 -1.62672 0.0644191 0
M  V30 52503 O 5067.1 -1.75787 0.310044 0
M  V30 52504 C 5064.2 -3.31901 0.685176 0
M  V30 52505 C 5063.38 -3.97658 1.82172 0
M  V30 52506 C 5062.44 -5.0789 1.37603 0
M  V30 52507 O 5061.46 -5.29732 2.0826 0
M  V30 52508 N 5062.66 -5.79949 0.252901 0
M  V30 52509 H 5065.43 -2.16078 2.07679 0
M  V30 52510 H 5062.99 -1.06171 1.22227 0
M  V30 52511 H 5064.98 -4.03004 0.370106 0
M  V30 52512 H 5063.55 -3.12085 -0.179397 0
M  V30 52513 H 5062.77 -3.19779 2.30511 0
M  V30 52514 H 5064.06 -4.38331 2.58347 0
M  V30 52515 H 5063.46 -5.64702 -0.335942 0
M  V30 52516 H 5062.02 -6.518 -0.00273899 0
M  V30 52517 N 5065.45 -1.12795 -1.10068 0
M  V30 52518 C 5066.41 -0.80234 -2.14698 0
M  V30 52519 C 5067.41 0.185094 -1.59731 0
M  V30 52520 O 5068.6 -0.0411703 -1.74151 0
M  V30 52521 C 5065.73 -0.192969 -3.40353 0
M  V30 52522 H 5066.93 -1.72941 -2.45013 0
M  V30 52523 H 5064.48 -0.931706 -1.25495 0
M  V30 52524 H 5065.21 0.743637 -3.15659 0
M  V30 52525 H 5065 -0.903961 -3.81538 0
M  V30 52526 H 5066.49 0.0182236 -4.17596 0
M  V30 52527 N 5066.93 1.27928 -0.920441 0
M  V30 52528 C 5067.88 2.24725 -0.385045 0
M  V30 52529 C 5068.86 1.52716 0.506607 0
M  V30 52530 O 5070.05 1.736 0.345237 0
M  V30 52531 C 5067.18 3.41325 0.36768 0
M  V30 52532 C 5066.27 4.20647 -0.540073 0
M  V30 52533 N 5066.66 4.779 -1.65667 0
M  V30 52534 C 5064.96 4.44689 -0.341713 0
M  V30 52535 C 5065.66 5.37645 -2.22066 0
M  V30 52536 N 5064.63 5.22175 -1.51111 0
M  V30 52537 H 5068.44 2.66567 -1.23771 0
M  V30 52538 H 5065.95 1.42776 -0.773869 0
M  V30 52539 H 5067.95 4.09763 0.768133 0
M  V30 52540 H 5066.61 3.01016 1.21736 0
M  V30 52541 H 5067.62 4.76066 -2.03916 0
M  V30 52542 H 5064.29 4.1487 0.467899 0
M  V30 52543 H 5065.68 5.92937 -3.16031 0
M  V30 52544 N 5068.4 0.685149 1.41928 0
M  V30 52545 C 5069.64 0.215748 2.03258 0
M  V30 52546 C 5070.01 -1.15928 1.53051 0
M  V30 52547 O 5071.21 -1.72394 2.06237 0
M  V30 52548 C 5069.48 0.259775 3.56455 0
M  V30 52549 S 5071.04 -0.137108 4.38586 0
M  V30 52550 H 5067.86 0.087761 0.705563 0
M  V30 52551 H 5070.46 0.900608 1.7352 0
M  V30 52552 H 5069.16 1.2627 3.90492 0
M  V30 52553 H 5068.69 -0.444579 3.9088 0
M  V30 52554 H 5070.71 -1.36771 4.76978 0
M  V30 52555 N 5069.88 -1.51644 0.429179 0
M  V30 52556 C 5070.81 -2.30435 -0.377067 0
M  V30 52557 C 5071.79 -1.35497 -1.02833 0
M  V30 52558 O 5072.98 -1.64414 -1.03353 0
M  V30 52559 C 5070.11 -3.14043 -1.48304 0
M  V30 52560 C 5069.06 -4.17193 -0.955708 0
M  V30 52561 C 5068.39 -4.89271 -2.15681 0
M  V30 52562 C 5069.69 -5.223 0.00420498 0
M  V30 52563 H 5071.38 -2.98084 0.280441 0
M  V30 52564 H 5068.93 -1.43353 0.136315 0
M  V30 52565 H 5070.88 -3.6794 -2.05422 0
M  V30 52566 H 5069.61 -2.44201 -2.16872 0
M  V30 52567 H 5068.26 -3.64336 -0.406801 0
M  V30 52568 H 5067.91 -4.15939 -2.8285 0
M  V30 52569 H 5067.61 -5.59016 -1.81039 0
M  V30 52570 H 5069.14 -5.45988 -2.73367 0
M  V30 52571 H 5070.55 -5.71317 -0.476406 0
M  V30 52572 H 5068.95 -5.99524 0.26279 0
M  V30 52573 H 5070.02 -4.75634 0.943404 0
M  V30 52574 N 5071.36 -0.160256 -1.56783 0
M  V30 52575 C 5072.59 0.494095 -2.00914 0
M  V30 52576 C 5073 1.57545 -1.04044 0
M  V30 52577 O 5072.36 1.82457 -0.0395223 0
M  V30 52578 C 5072.41 1.08259 -3.44909 0
M  V30 52579 O 5072.13 0.0444164 -4.38077 0
M  V30 52580 C 5073.63 1.81625 -4.04385 0
M  V30 52581 H 5070.85 0.127474 -0.65878 0
M  V30 52582 H 5073.4 -0.258736 -2.02857 0
M  V30 52583 H 5071.55 1.78597 -3.43776 0
M  V30 52584 H 5071.97 0.47736 -5.22323 0
M  V30 52585 H 5073.44 2.18076 -5.07097 0
M  V30 52586 H 5073.92 2.70715 -3.45847 0
M  V30 52587 H 5074.52 1.15955 -4.09188 0
M  V30 52588 N 5072.84 1.57191 0.113503 0
M  V30 52589 C 5073.77 2.03776 1.14006 0
M  V30 52590 C 5074.75 0.923227 1.42865 0
M  V30 52591 O 5075.94 1.1933 1.53212 0
M  V30 52592 C 5073.07 2.44672 2.46481 0
M  V30 52593 C 5072.02 3.5962 2.32072 0
M  V30 52594 C 5071.35 3.86433 3.69559 0
M  V30 52595 C 5072.65 4.91155 1.77663 0
M  V30 52596 H 5074.34 2.89788 0.752564 0
M  V30 52597 H 5071.89 1.39413 0.36056 0
M  V30 52598 H 5073.84 2.75868 3.18551 0
M  V30 52599 H 5072.56 1.55638 2.87131 0
M  V30 52600 H 5071.22 3.28642 1.6245 0
M  V30 52601 H 5070.87 2.94595 4.07704 0
M  V30 52602 H 5070.57 4.63809 3.6077 0
M  V30 52603 H 5072.09 4.20086 4.43125 0
M  V30 52604 H 5073.51 5.20851 2.39556 0
M  V30 52605 H 5071.9 5.72569 1.79681 0
M  V30 52606 H 5072.97 4.79303 0.734607 0
M  V30 52607 N 5074.32 -0.383837 1.52854 0
M  V30 52608 C 5075.27 -1.46886 1.7438 0
M  V30 52609 C 5076.25 -1.49376 0.597962 0
M  V30 52610 O 5077.44 -1.54926 0.855983 0
M  V30 52611 C 5074.57 -2.8454 1.92073 0
M  V30 52612 C 5073.66 -2.86599 3.12605 0
M  V30 52613 N 5074.05 -2.58324 4.34859 0
M  V30 52614 C 5072.35 -3.17766 3.12955 0
M  V30 52615 C 5073.05 -2.67598 5.16494 0
M  V30 52616 N 5072.02 -3.01546 4.52296 0
M  V30 52617 H 5075.83 -1.23859 2.66526 0
M  V30 52618 H 5073.34 -0.591842 1.51232 0
M  V30 52619 H 5075.34 -3.62667 2.05617 0
M  V30 52620 H 5074 -3.08545 1.01144 0
M  V30 52621 H 5075.01 -2.3225 4.62904 0
M  V30 52622 H 5071.69 -3.47203 2.31854 0
M  V30 52623 H 5073.08 -2.49238 6.23963 0
M  V30 52624 N 5075.8 -1.43905 -0.642587 0
M  V30 52625 C 5077.04 -1.45367 -1.39826 0
M  V30 52626 C 5077.36 -0.0856976 -1.95412 0
M  V30 52627 O 5078.56 0.0221902 -2.71491 0
M  V30 52628 C 5077.02 -2.55865 -2.53102 0
M  V30 52629 C 5076.63 -3.98818 -2.04078 0
M  V30 52630 C 5078.37 -2.66535 -3.30393 0
M  V30 52631 C 5076.28 -5.00762 -3.14629 0
M  V30 52632 H 5075.21 -0.540795 -0.525411 0
M  V30 52633 H 5077.86 -1.69931 -0.692499 0
M  V30 52634 H 5076.24 -2.24521 -3.262 0
M  V30 52635 H 5077.42 -4.39675 -1.37922 0
M  V30 52636 H 5075.73 -3.92289 -1.39637 0
M  V30 52637 H 5078.33 -3.39872 -4.12784 0
M  V30 52638 H 5078.67 -1.71963 -3.79123 0
M  V30 52639 H 5079.2 -2.97233 -2.64381 0
M  V30 52640 H 5075.94 -5.96924 -2.70855 0
M  V30 52641 H 5075.46 -4.64508 -3.79463 0
M  V30 52642 H 5077.14 -5.23947 -3.79591 0
M  V30 52643 N 5077.27 0.881943 -1.30612 0
M  V30 52644 C 5078.5 1.66465 -1.22365 0
M  V30 52645 C 5078.91 1.87969 0.215441 0
M  V30 52646 O 5078.25 1.42942 1.15383 0
M  V30 52647 C 5078.32 3.06128 -1.88483 0
M  V30 52648 C 5077.98 3.07783 -3.37815 0
M  V30 52649 C 5078.98 2.86617 -4.33759 0
M  V30 52650 C 5076.66 3.29284 -3.79312 0
M  V30 52651 C 5078.66 2.86914 -5.69174 0
M  V30 52652 C 5076.34 3.2921 -5.14844 0
M  V30 52653 C 5077.34 3.0805 -6.09585 0
M  V30 52654 O 5077.03 3.07798 -7.42641 0
M  V30 52655 H 5076.76 0.526114 -0.424477 0
M  V30 52656 H 5079.32 1.10998 -1.72825 0
M  V30 52657 H 5077.55 3.63271 -1.32556 0
M  V30 52658 H 5079.23 3.66565 -1.74314 0
M  V30 52659 H 5080 2.698 -4.0303 0
M  V30 52660 H 5075.88 3.44788 -3.0601 0
M  V30 52661 H 5079.42 2.70317 -6.43098 0
M  V30 52662 H 5075.32 3.45564 -5.45212 0
M  V30 52663 H 5076.09 3.23943 -7.51667 0
M  V30 52664 N 5078.75 1.13378 1.09468 0
M  V30 52665 C 5080.17 0.871893 1.33679 0
M  V30 52666 C 5080.37 -0.492778 1.95382 0
M  V30 52667 O 5079.42 -1.23939 2.1999 0
M  V30 52668 C 5080.74 1.99616 2.24886 0
M  V30 52669 C 5082.28 2.0282 2.38397 0
M  V30 52670 C 5082.76 3.14508 3.32939 0
M  V30 52671 N 5084.25 3.14016 3.40512 0
M  V30 52672 C 5084.99 3.97076 4.13665 0
M  V30 52673 N 5084.48 4.90149 4.89618 0
M  V30 52674 N 5086.27 3.85176 4.09385 0
M  V30 52675 H 5078.43 2.01291 0.677924 0
M  V30 52676 H 5080.69 0.876505 0.36117 0
M  V30 52677 H 5080.39 2.98006 1.86776 0
M  V30 52678 H 5080.27 1.90993 3.25272 0
M  V30 52679 H 5082.66 1.05043 2.75771 0
M  V30 52680 H 5082.74 2.15516 1.37792 0
M  V30 52681 H 5082.38 4.12524 2.96288 0
M  V30 52682 H 5082.31 2.99051 4.33447 0
M  V30 52683 H 5084.8 2.46597 2.86353 0
M  V30 52684 H 5085.11 5.50015 5.42866 0
M  V30 52685 H 5083.46 4.94155 4.88709 0
M  V30 52686 H 5086.65 3.11792 3.49147 0
M  V30 52687 H 5086.82 4.50136 4.66135 0
M  V30 52688 N 5080.23 -1.27438 0.927213 0
M  V30 52689 C 5081.18 -2.28842 0.416413 0
M  V30 52690 C 5082.17 -1.61884 -0.499 0
M  V30 52691 O 5083.38 -1.7597 -0.378756 0
M  V30 52692 H 5079.75 -0.742985 0.116091 0
M  V30 52693 H 5081.72 -2.6934 1.28447 0
M  V30 52694 C 5080.47 -3.46261 -0.315985 0
M  V30 52695 H 5079.8 -3.97997 0.379222 0
M  V30 52696 H 5081.24 -4.19175 -0.637828 0
M  V30 52697 C 5079.69 -3.00216 -1.52879 0
M  V30 52698 O 5080.22 -3.03846 -2.62756 0
M  V30 52699 N 5078.43 -2.55718 -1.38045 0
M  V30 52700 H 5077.98 -2.52964 -0.486511 0
M  V30 52701 H 5077.94 -2.25272 -2.19317 0
M  V30 52702 N 5081.71 -0.692666 -1.41562 0
M  V30 52703 C 5082.93 -0.229849 -2.06122 0
M  V30 52704 C 5083.36 1.11114 -1.51774 0
M  V30 52705 O 5082.72 1.69495 -0.643504 0
M  V30 52706 C 5082.76 -0.194817 -3.60073 0
M  V30 52707 O 5081.87 0.831224 -4.03936 0
M  V30 52708 H 5081.21 -0.113025 -0.65431 0
M  V30 52709 H 5083.74 -0.946709 -1.8138 0
M  V30 52710 H 5083.75 -0.0246921 -4.07993 0
M  V30 52711 H 5082.42 -1.17353 -3.99 0
M  V30 52712 H 5081 0.63069 -3.67528 0
M  V30 52713 N 5083.19 1.51414 -0.437215 0
M  V30 52714 C 5084.41 2.0699 0.130351 0
M  V30 52715 C 5084.84 1.30253 1.35704 0
M  V30 52716 O 5084.19 0.340451 1.78075 0
M  V30 52717 C 5084.24 3.58011 0.431294 0
M  V30 52718 O 5083.35 3.83455 1.51776 0
M  V30 52719 H 5082.69 0.663997 0.00192005 0
M  V30 52720 H 5085.22 1.95027 -0.618513 0
M  V30 52721 H 5085.23 4.02263 0.681784 0
M  V30 52722 H 5083.9 4.13289 -0.465283 0
M  V30 52723 H 5082.48 3.51067 1.25725 0
M  V30 52724 N 5084.66 0.168568 1.56696 0
M  V30 52725 C 5085.61 -0.762798 2.1783 0
M  V30 52726 C 5086.58 -1.22888 1.11749 0
M  V30 52727 O 5087.77 -1.29754 1.39887 0
M  V30 52728 C 5084.91 -1.9878 2.821 0
M  V30 52729 C 5084.02 -1.56554 4.02635 0
M  V30 52730 C 5083.15 -2.744 4.54839 0
M  V30 52731 C 5082.19 -2.28651 5.6779 0
M  V30 52732 N 5081.33 -3.3958 6.14516 0
M  V30 52733 H 5086.17 -0.234686 2.97074 0
M  V30 52734 H 5083.71 -0.104112 1.46731 0
M  V30 52735 H 5085.66 -2.70625 3.17518 0
M  V30 52736 H 5084.29 -2.48966 2.05464 0
M  V30 52737 H 5083.35 -0.743936 3.73055 0
M  V30 52738 H 5084.66 -1.18971 4.84404 0
M  V30 52739 H 5083.81 -3.54405 4.92424 0
M  V30 52740 H 5082.55 -3.15241 3.72121 0
M  V30 52741 H 5081.56 -1.47092 5.29759 0
M  V30 52742 H 5082.78 -1.88871 6.52307 0
M  V30 52743 H 5080.73 -3.80002 5.34728 0
M  V30 52744 H 5080.64 -3.06081 6.91267 0
M  V30 52745 H 5081.91 -4.19879 6.56751 0
M  V30 52746 N 5086.14 -1.57249 -0.105165 0
M  V30 52747 C 5087.37 -1.90146 -0.828197 0
M  V30 52748 C 5087.79 -0.761871 -1.7198 0
M  V30 52749 O 5087.15 0.287023 -1.79014 0
M  V30 52750 C 5087.2 -3.21861 -1.62596 0
M  V30 52751 O 5086.3 -3.08742 -2.73409 0
M  V30 52752 H 5085.64 -0.623566 -0.22817 0
M  V30 52753 H 5088.17 -2.0443 -0.0834107 0
M  V30 52754 H 5088.18 -3.54923 -2.01231 0
M  V30 52755 H 5086.86 -4.04393 -0.971544 0
M  V30 52756 H 5085.44 -2.87175 -2.37876 0
M  V30 52757 N 5087.62 0.375726 -1.53056 0
M  V30 52758 C 5088.55 1.47956 -1.75047 0
M  V30 52759 C 5089.57 1.50071 -0.631083 0
M  V30 52760 O 5090.75 1.53733 -0.907107 0
M  V30 52761 C 5087.85 2.86761 -1.80614 0
M  V30 52762 C 5087.03 3.0846 -3.10115 0
M  V30 52763 C 5086.09 4.27321 -3.07056 0
M  V30 52764 O 5085.11 4.22985 -3.80884 0
M  V30 52765 N 5086.31 5.34206 -2.27166 0
M  V30 52766 H 5089.08 1.29474 -2.7029 0
M  V30 52767 H 5086.64 0.565363 -1.51708 0
M  V30 52768 H 5088.63 3.64398 -1.76057 0
M  V30 52769 H 5087.2 2.98539 -0.927002 0
M  V30 52770 H 5086.42 2.18571 -3.28055 0
M  V30 52771 H 5087.71 3.1982 -3.95718 0
M  V30 52772 H 5087.11 5.40588 -1.66675 0
M  V30 52773 H 5085.67 6.10459 -2.28437 0
M  V30 52774 N 5089.1 1.44244 0.634946 0
M  V30 52775 C 5090.03 1.46799 1.76019 0
M  V30 52776 C 5091.04 0.361836 1.58728 0
M  V30 52777 O 5092.23 0.627356 1.67112 0
M  V30 52778 C 5089.33 1.28259 3.13692 0
M  V30 52779 C 5088.51 2.52051 3.57476 0
M  V30 52780 C 5087.56 2.28467 4.74014 0
M  V30 52781 O 5086.59 3.01932 4.8252 0
M  V30 52782 N 5087.79 1.31284 5.6546 0
M  V30 52783 H 5090.56 2.43803 1.74299 0
M  V30 52784 H 5088.12 1.39634 0.819389 0
M  V30 52785 H 5090.11 1.10335 3.89369 0
M  V30 52786 H 5088.68 0.396339 3.10077 0
M  V30 52787 H 5087.9 2.85277 2.72049 0
M  V30 52788 H 5089.19 3.34396 3.8348 0
M  V30 52789 H 5088.59 0.706015 5.61277 0
M  V30 52790 H 5087.14 1.19339 6.40782 0
M  V30 52791 N 5090.58 -0.875004 1.31078 0
M  V30 52792 C 5091.49 -2.01437 1.20251 0
M  V30 52793 C 5092.5 -1.73584 0.120288 0
M  V30 52794 O 5093.68 -1.98558 0.337133 0
M  V30 52795 C 5090.74 -3.34671 0.905317 0
M  V30 52796 C 5089.8 -3.75881 2.07393 0
M  V30 52797 C 5089.04 -5.02758 1.79082 0
M  V30 52798 O 5089.26 -5.65793 0.723516 0
M  V30 52799 O 5088.19 -5.40614 2.64613 0
M  V30 52800 H 5092.02 -2.13502 2.15988 0
M  V30 52801 H 5089.61 -1.00253 1.10768 0
M  V30 52802 H 5091.49 -4.14578 0.755203 0
M  V30 52803 H 5090.16 -3.23692 -0.0220557 0
M  V30 52804 H 5089.07 -2.96637 2.27942 0
M  V30 52805 H 5090.4 -3.91479 2.98337 0
M  V30 52806 N 5092.05 -1.13957 -1.08865 0
M  V30 52807 C 5092.98 -0.8449 -2.17678 0
M  V30 52808 C 5093.97 0.198153 -1.68942 0
M  V30 52809 O 5095.15 0.0558391 -1.9412 0
M  V30 52810 C 5092.28 -0.316446 -3.45855 0
M  V30 52811 C 5091.23 -1.29441 -4.07957 0
M  V30 52812 C 5090.56 -0.625461 -5.31029 0
M  V30 52813 C 5091.86 -2.655 -4.49786 0
M  V30 52814 H 5093.55 -1.7548 -2.42584 0
M  V30 52815 H 5091.1 -0.845157 -1.16589 0
M  V30 52816 H 5093.05 -0.0979357 -4.21286 0
M  V30 52817 H 5091.78 0.628859 -3.20489 0
M  V30 52818 H 5090.44 -1.49901 -3.34552 0
M  V30 52819 H 5090.08 0.325502 -5.01946 0
M  V30 52820 H 5089.78 -1.27797 -5.73534 0
M  V30 52821 H 5091.31 -0.416366 -6.09179 0
M  V30 52822 H 5092.72 -2.48975 -5.16415 0
M  V30 52823 H 5091.12 -3.26981 -5.03193 0
M  V30 52824 H 5092.19 -3.2273 -3.61903 0
M  V30 52825 N 5093.53 1.26945 -0.933958 0
M  V30 52826 C 5094.46 2.29016 -0.45542 0
M  V30 52827 C 5095.44 1.62963 0.487547 0
M  V30 52828 O 5096.63 1.90224 0.390955 0
M  V30 52829 C 5093.76 3.46113 0.286893 0
M  V30 52830 C 5092.71 4.24203 -0.568832 0
M  V30 52831 C 5092.04 5.33841 0.303018 0
M  V30 52832 C 5093.34 4.88948 -1.8365 0
M  V30 52833 H 5095.03 2.69294 -1.30848 0
M  V30 52834 H 5092.58 1.29457 -0.630625 0
M  V30 52835 H 5094.53 4.16624 0.632653 0
M  V30 52836 H 5093.26 3.04769 1.17403 0
M  V30 52837 H 5091.91 3.55447 -0.897385 0
M  V30 52838 H 5091.56 4.88738 1.1893 0
M  V30 52839 H 5091.26 5.86997 -0.266086 0
M  V30 52840 H 5092.79 6.07192 0.644209 0
M  V30 52841 H 5094.2 5.51712 -1.55843 0
M  V30 52842 H 5092.6 5.5219 -2.3496 0
M  V30 52843 H 5093.67 4.12296 -2.55226 0
M  V30 52844 N 5095.01 0.700164 1.41193 0
M  V30 52845 C 5095.94 0.0521953 2.33442 0
M  V30 52846 C 5096.92 -0.762227 1.52066 0
M  V30 52847 O 5098.11 -0.714272 1.80587 0
M  V30 52848 C 5095.24 -0.881574 3.35925 0
M  V30 52849 C 5094.19 -0.173911 4.27647 0
M  V30 52850 C 5093.52 -1.22235 5.20541 0
M  V30 52851 C 5094.82 0.962577 5.13353 0
M  V30 52852 H 5096.51 0.822675 2.87876 0
M  V30 52853 H 5094.06 0.39706 1.38418 0
M  V30 52854 H 5096.01 -1.34415 3.99388 0
M  V30 52855 H 5094.73 -1.68377 2.79851 0
M  V30 52856 H 5093.39 0.268679 3.65614 0
M  V30 52857 H 5093.04 -2.0172 4.6078 0
M  V30 52858 H 5092.74 -0.753833 5.82744 0
M  V30 52859 H 5094.26 -1.68534 5.8688 0
M  V30 52860 H 5095.68 0.580076 5.70358 0
M  V30 52861 H 5094.08 1.35848 5.84521 0
M  V30 52862 H 5095.15 1.80019 4.50246 0
M  V30 52863 N 5096.49 -1.5118 0.445239 0
M  V30 52864 C 5097.77 -1.9478 -0.178897 0
M  V30 52865 C 5098.15 -1.38434 -1.59371 0
M  V30 52866 O 5097.49 -0.574629 -2.21157 0
M  V30 52867 C 5097.7 -3.48684 -0.148589 0
M  V30 52868 C 5099.05 -4.23153 -0.350272 0
M  V30 52869 O 5100.08 -3.5548 -0.226349 0
M  V30 52870 O 5098.93 -5.43222 -0.597702 0
M  V30 52871 H 5096.03 -0.817391 -0.125701 0
M  V30 52872 H 5098.57 -1.6205 0.503786 0
M  V30 52873 H 5097.35 -3.82173 0.840224 0
M  V30 52874 H 5096.97 -3.87879 -0.873843 0
M  V30 52875 N 5097.97 -0.176876 -1.56604 0
M  V30 52876 C 5098.9 0.746763 -2.21237 0
M  V30 52877 C 5099.88 1.23498 -1.16971 0
M  V30 52878 O 5101.06 1.28713 -1.45419 0
M  V30 52879 C 5098.19 1.97397 -2.85747 0
M  V30 52880 C 5097.15 1.62139 -3.961 0
M  V30 52881 C 5096.47 2.92372 -4.47686 0
M  V30 52882 C 5097.77 0.845172 -5.15416 0
M  V30 52883 H 5099.47 0.208011 -2.98677 0
M  V30 52884 H 5097.01 0.0986089 -1.43662 0
M  V30 52885 H 5098.97 2.62519 -3.29639 0
M  V30 52886 H 5097.69 2.53695 -2.05685 0
M  V30 52887 H 5096.35 0.99384 -3.52872 0
M  V30 52888 H 5096 3.46721 -3.64408 0
M  V30 52889 H 5095.7 2.69532 -5.22136 0
M  V30 52890 H 5097.22 3.58513 -4.94268 0
M  V30 52891 H 5098.63 1.39909 -5.55966 0
M  V30 52892 H 5097.03 0.715605 -5.95818 0
M  V30 52893 H 5098.1 -0.157409 -4.84644 0
M  V30 52894 N 5099.44 1.57302 0.0968247 0
M  V30 52895 C 5100.38 1.97183 1.14865 0
M  V30 52896 C 5101.36 0.844783 1.38932 0
M  V30 52897 O 5102.54 1.10493 1.52721 0
M  V30 52898 C 5099.67 2.28711 2.49817 0
M  V30 52899 C 5098.71 3.51166 2.42042 0
M  V30 52900 S 5099.55 5.02947 1.83861 0
M  V30 52901 C 5100.7 5.3765 3.20442 0
M  V30 52902 H 5100.93 2.86091 0.80867 0
M  V30 52903 H 5098.47 1.51369 0.304439 0
M  V30 52904 H 5100.43 2.47553 3.27457 0
M  V30 52905 H 5099.09 1.40378 2.80985 0
M  V30 52906 H 5098.28 3.70663 3.41504 0
M  V30 52907 H 5097.88 3.31827 1.72531 0
M  V30 52908 H 5100.17 5.3419 4.1671 0
M  V30 52909 H 5101.12 6.38688 3.0575 0
M  V30 52910 H 5101.52 4.65111 3.19893 0
M  V30 52911 N 5100.92 -0.367603 1.53253 0
M  V30 52912 C 5102.17 -1.10858 1.70535 0
M  V30 52913 C 5102.52 -1.8705 0.450566 0
M  V30 52914 O 5101.82 -1.83344 -0.556367 0
M  V30 52915 C 5102.01 -2.09814 2.89331 0
M  V30 52916 C 5101.84 -1.43346 4.26242 0
M  V30 52917 C 5100.61 -1.18844 4.91125 0
M  V30 52918 C 5102.81 -0.872231 5.0685 0
M  V30 52919 N 5100.79 -0.487043 6.11965 0
M  V30 52920 C 5102.16 -0.300083 6.19273 0
M  V30 52921 C 5104.22 -0.770722 4.91899 0
M  V30 52922 C 5102.92 0.363671 7.1838 0
M  V30 52923 C 5104.95 -0.120752 5.91277 0
M  V30 52924 C 5104.31 0.44053 7.03021 0
M  V30 52925 H 5100.41 -0.390879 0.677302 0
M  V30 52926 H 5102.99 -0.395238 1.90646 0
M  V30 52927 H 5101.16 -2.78464 2.70763 0
M  V30 52928 H 5102.89 -2.76575 2.95446 0
M  V30 52929 H 5099.65 -1.46918 4.50236 0
M  V30 52930 H 5100.07 -0.151767 6.7683 0
M  V30 52931 H 5104.71 -1.19044 4.05695 0
M  V30 52932 H 5102.43 0.79534 8.04177 0
M  V30 52933 H 5106.02 -0.0431656 5.81784 0
M  V30 52934 H 5104.9 0.935518 7.786 0
M  V30 52935 N 5102.4 -1.44578 -0.627288 0
M  V30 52936 C 5103.63 -1.51276 -1.41881 0
M  V30 52937 C 5104.05 -0.13988 -1.87579 0
M  V30 52938 O 5103.41 0.87169 -1.58969 0
M  V30 52939 C 5103.46 -2.48538 -2.61268 0
M  V30 52940 O 5102.56 -1.98956 -3.61234 0
M  V30 52941 H 5101.9 -0.510683 -0.424381 0
M  V30 52942 H 5104.43 -1.89748 -0.765289 0
M  V30 52943 H 5104.44 -2.667 -3.08764 0
M  V30 52944 H 5103.12 -3.48257 -2.27353 0
M  V30 52945 H 5101.69 -1.90579 -3.20521 0
M  V30 52946 N 5103.88 0.86804 -1.3154 0
M  V30 52947 C 5105.13 1.61603 -1.20695 0
M  V30 52948 C 5105.44 1.94205 0.233206 0
M  V30 52949 O 5106.65 2.67517 0.463371 0
M  V30 52950 C 5105.1 2.9134 -2.11302 0
M  V30 52951 C 5104.71 2.66215 -3.60325 0
M  V30 52952 C 5106.46 3.69337 -2.09262 0
M  V30 52953 C 5104.36 3.91871 -4.42934 0
M  V30 52954 H 5103.29 0.606357 -0.44816 0
M  V30 52955 H 5105.94 0.959611 -1.56409 0
M  V30 52956 H 5104.33 3.58368 -1.68489 0
M  V30 52957 H 5105.5 2.07583 -4.11395 0
M  V30 52958 H 5103.81 2.01569 -3.64361 0
M  V30 52959 H 5106.41 4.62557 -2.68225 0
M  V30 52960 H 5106.75 4.0204 -1.08024 0
M  V30 52961 H 5107.29 3.09196 -2.50285 0
M  V30 52962 H 5104.03 3.64317 -5.44934 0
M  V30 52963 H 5103.55 4.49947 -3.9662 0
M  V30 52964 H 5105.23 4.59738 -4.55247 0
M  V30 52965 N 5105.36 1.14532 1.0826 0
M  V30 52966 C 5106.6 0.925785 1.8111 0
M  V30 52967 C 5106.96 -0.541785 1.84614 0
M  V30 52968 O 5106.25 -1.39623 1.31209 0
M  V30 52969 C 5106.45 1.46238 3.26112 0
M  V30 52970 C 5106.27 2.98059 3.36736 0
M  V30 52971 C 5105.04 3.6652 3.47837 0
M  V30 52972 C 5107.24 3.95914 3.28263 0
M  V30 52973 N 5105.22 5.0624 3.47267 0
M  V30 52974 C 5106.6 5.21895 3.34703 0
M  V30 52975 C 5108.65 3.88013 3.1201 0
M  V30 52976 C 5107.35 6.40897 3.26563 0
M  V30 52977 C 5109.38 5.06563 3.05201 0
M  V30 52978 C 5108.74 6.31414 3.12244 0
M  V30 52979 H 5104.84 0.392318 0.676469 0
M  V30 52980 H 5107.42 1.45571 1.29295 0
M  V30 52981 H 5105.6 0.959208 3.76369 0
M  V30 52982 H 5107.33 1.18261 3.87035 0
M  V30 52983 H 5104.08 3.17079 3.51792 0
M  V30 52984 H 5104.51 5.79184 3.50535 0
M  V30 52985 H 5109.15 2.92361 3.05426 0
M  V30 52986 H 5106.87 7.36792 3.31908 0
M  V30 52987 H 5110.45 5.02201 2.93743 0
M  V30 52988 H 5109.33 7.21607 3.07007 0
M  V30 52989 N 5106.84 -1.26448 0.940677 0
M  V30 52990 C 5108.25 -1.75724 0.630714 0
M  V30 52991 C 5108.6 -1.76634 -0.854105 0
M  V30 52992 O 5107.72 -1.37813 -1.66843 0
M  V30 52993 C 5108.32 -3.1911 1.13816 0
M  V30 52994 C 5106.88 -3.66002 0.878625 0
M  V30 52995 C 5106.02 -2.45501 1.28937 0
M  V30 52996 H 5108.97 -1.12531 1.11904 0
M  V30 52997 H 5109 -3.77309 0.491757 0
M  V30 52998 H 5108.51 -3.18416 2.21885 0
M  V30 52999 H 5106.61 -3.72127 -0.187703 0
M  V30 53000 H 5106.72 -4.54839 1.50528 0
M  V30 53001 H 5105.09 -2.44668 0.707799 0
M  V30 53002 H 5105.87 -2.47507 2.37897 0
M  V30 53003 N 5108.31 -0.707642 -1.4082 0
M  V30 53004 C 5109.22 -0.050807 -2.34545 0
M  V30 53005 C 5110.24 0.752672 -1.56878 0
M  V30 53006 O 5111.42 0.687457 -1.89304 0
M  V30 53007 C 5108.48 0.865613 -3.3572 0
M  V30 53008 C 5107.54 0.0529804 -4.29267 0
M  V30 53009 C 5106.77 0.925754 -5.2561 0
M  V30 53010 O 5107 2.16512 -5.27711 0
M  V30 53011 O 5105.93 0.368983 -6.00768 0
M  V30 53012 H 5109.76 -0.82369 -2.92317 0
M  V30 53013 H 5107.34 -0.46806 -1.41879 0
M  V30 53014 H 5109.22 1.39077 -3.97788 0
M  V30 53015 H 5107.9 1.61778 -2.80374 0
M  V30 53016 H 5106.81 -0.517061 -3.70509 0
M  V30 53017 H 5108.14 -0.660788 -4.87744 0
M  V30 53018 N 5109.79 1.50942 -0.45325 0
M  V30 53019 C 5110.72 2.31006 0.340359 0
M  V30 53020 C 5111.7 1.37116 1.00665 0
M  V30 53021 O 5112.89 1.66037 1.00724 0
M  V30 53022 C 5110.02 3.16363 1.43289 0
M  V30 53023 C 5108.97 4.18661 0.889216 0
M  V30 53024 C 5108.3 4.9264 2.0787 0
M  V30 53025 C 5109.6 5.22227 -0.0872978 0
M  V30 53026 H 5111.29 2.976 -0.327828 0
M  V30 53027 H 5108.84 1.43118 -0.159104 0
M  V30 53028 H 5110.79 3.71162 1.99542 0
M  V30 53029 H 5109.51 2.4762 2.1296 0
M  V30 53030 H 5108.17 3.64937 0.348787 0
M  V30 53031 H 5107.82 4.20386 2.76197 0
M  V30 53032 H 5107.52 5.61825 1.72123 0
M  V30 53033 H 5109.05 5.50268 2.64647 0
M  V30 53034 H 5110.46 5.72003 0.385455 0
M  V30 53035 H 5108.86 5.9903 -0.358136 0
M  V30 53036 H 5109.93 4.74073 -1.01895 0
M  V30 53037 N 5111.27 0.185179 1.56508 0
M  V30 53038 C 5112.68 -0.329157 1.83776 0
M  V30 53039 C 5113.03 -1.62089 1.10551 0
M  V30 53040 O 5112.16 -2.13333 0.363055 0
M  V30 53041 C 5112.75 -0.603981 3.33373 0
M  V30 53042 C 5111.31 -1.06271 3.61086 0
M  V30 53043 C 5110.46 -0.105983 2.77097 0
M  V30 53044 H 5113.41 0.40917 1.53335 0
M  V30 53045 H 5113.43 -1.45446 3.51605 0
M  V30 53046 H 5112.94 0.336337 3.8664 0
M  V30 53047 H 5111.04 -2.01766 3.13243 0
M  V30 53048 H 5111.16 -0.962288 4.69337 0
M  V30 53049 H 5109.52 -0.605995 2.47386 0
M  V30 53050 H 5110.3 0.828603 3.3315 0
M  V30 53051 N 5112.75 -1.57351 -0.0884812 0
M  V30 53052 C 5113.71 -2.01561 -1.09114 0
M  V30 53053 C 5114.71 -0.910099 -1.32566 0
M  V30 53054 O 5115.9 -1.17541 -1.28568 0
M  V30 53055 C 5113.03 -2.38198 -2.43874 0
M  V30 53056 H 5114.23 -2.91363 -0.710459 0
M  V30 53057 H 5111.78 -1.52696 -0.333725 0
M  V30 53058 H 5112.51 -1.5137 -2.86806 0
M  V30 53059 H 5112.3 -3.18854 -2.28198 0
M  V30 53060 H 5113.79 -2.73036 -3.15977 0
M  V30 53061 N 5114.23 0.359471 -1.53446 0
M  V30 53062 C 5115.46 1.12029 -1.73588 0
M  V30 53063 C 5115.86 1.83333 -0.467502 0
M  V30 53064 O 5115.21 1.74643 0.569691 0
M  V30 53065 C 5115.27 2.19026 -2.85075 0
M  V30 53066 C 5114.93 1.67436 -4.25223 0
M  V30 53067 C 5115.93 1.13516 -5.07356 0
M  V30 53068 C 5113.61 1.72764 -4.71654 0
M  V30 53069 C 5115.61 0.656098 -6.34014 0
M  V30 53070 C 5113.3 1.24469 -5.9829 0
M  V30 53071 C 5114.29 0.709829 -6.79301 0
M  V30 53072 O 5113.98 0.234031 -8.03559 0
M  V30 53073 H 5113.71 0.340641 -0.5839 0
M  V30 53074 H 5116.27 0.422382 -2.0101 0
M  V30 53075 H 5114.5 2.92329 -2.53142 0
M  V30 53076 H 5116.19 2.80549 -2.93338 0
M  V30 53077 H 5116.95 1.08734 -4.72654 0
M  V30 53078 H 5112.83 2.13336 -4.08667 0
M  V30 53079 H 5116.38 0.237948 -6.97194 0
M  V30 53080 H 5112.27 1.28947 -6.32489 0
M  V30 53081 H 5113.04 0.352796 -8.17739 0
M  V30 53082 N 5115.7 1.44909 0.619611 0
M  V30 53083 C 5116.95 1.48004 1.3762 0
M  V30 53084 C 5117.27 0.118363 1.9464 0
M  V30 53085 O 5116.54 -0.850798 1.7646 0
M  V30 53086 H 5115.12 0.545011 0.510854 0
M  V30 53087 H 5117.79 1.80775 0.728459 0
M  V30 53088 H 5116.88 2.21203 2.20171 0
M  V30 53089 N 5117.18 -0.861052 1.31999 0
M  V30 53090 C 5118.6 -1.14823 1.1085 0
M  V30 53091 C 5118.8 -2.0117 -0.11521 0
M  V30 53092 O 5117.85 -2.39426 -0.801963 0
M  V30 53093 C 5119.17 -1.83175 2.38469 0
M  V30 53094 C 5120.72 -1.95838 2.44165 0
M  V30 53095 C 5121.19 -2.67604 3.71688 0
M  V30 53096 N 5122.68 -2.75134 3.72633 0
M  V30 53097 C 5123.42 -3.31298 4.68006 0
M  V30 53098 N 5122.91 -3.88322 5.7374 0
M  V30 53099 N 5124.71 -3.2934 4.55512 0
M  V30 53100 H 5116.86 -0.285877 2.10467 0
M  V30 53101 H 5119.12 -0.189271 0.928914 0
M  V30 53102 H 5118.83 -1.27181 3.27899 0
M  V30 53103 H 5118.7 -2.83384 2.48945 0
M  V30 53104 H 5121.09 -2.50993 1.55198 0
M  V30 53105 H 5121.17 -0.946447 2.37647 0
M  V30 53106 H 5120.81 -2.13114 4.61026 0
M  V30 53107 H 5120.74 -3.69223 3.75475 0
M  V30 53108 H 5123.23 -2.34672 2.96205 0
M  V30 53109 H 5123.55 -4.29316 6.42579 0
M  V30 53110 H 5121.89 -3.86673 5.77502 0
M  V30 53111 H 5125.08 -2.84034 3.72079 0
M  V30 53112 H 5125.25 -3.72812 5.30015 0
M  V30 53113 N 5118.66 -1.15105 -1.07651 0
M  V30 53114 C 5119.61 -0.845033 -2.14774 0
M  V30 53115 C 5120.58 0.20074 -1.64883 0
M  V30 53116 O 5121.76 0.0689607 -1.90675 0
M  V30 53117 C 5118.9 -0.337139 -3.43449 0
M  V30 53118 C 5118.02 -1.44412 -4.07148 0
M  V30 53119 C 5117.15 -0.892671 -5.23646 0
M  V30 53120 C 5116.19 -1.9768 -5.793 0
M  V30 53121 N 5115.33 -1.44195 -6.87133 0
M  V30 53122 H 5120.17 -1.7625 -2.40291 0
M  V30 53123 H 5117.7 -0.879476 -1.17914 0
M  V30 53124 H 5119.66 -0.0244026 -4.17193 0
M  V30 53125 H 5118.29 0.543419 -3.18193 0
M  V30 53126 H 5117.34 -1.8731 -3.31088 0
M  V30 53127 H 5118.66 -2.26277 -4.44522 0
M  V30 53128 H 5117.81 -0.532296 -6.0436 0
M  V30 53129 H 5116.55 -0.0431569 -4.87681 0
M  V30 53130 H 5115.55 -2.34604 -4.97233 0
M  V30 53131 H 5116.78 -2.83004 -6.17321 0
M  V30 53132 H 5114.72 -0.614747 -6.53113 0
M  V30 53133 H 5114.64 -2.1969 -7.23376 0
M  V30 53134 H 5115.91 -1.10973 -7.7156 0
M  V30 53135 N 5120.14 1.25947 -0.94737 0
M  V30 53136 C 5121.1 2.24405 -0.466364 0
M  V30 53137 C 5122.1 1.55056 0.42595 0
M  V30 53138 O 5123.29 1.7275 0.224259 0
M  V30 53139 C 5120.42 3.39327 0.327082 0
M  V30 53140 H 5121.62 2.68472 -1.33652 0
M  V30 53141 H 5119.17 1.38209 -0.729935 0
M  V30 53142 H 5119.9 3.00671 1.21522 0
M  V30 53143 H 5119.69 3.90849 -0.312976 0
M  V30 53144 H 5121.18 4.12458 0.653332 0
M  V30 53145 N 5121.62 0.7151 1.40442 0
M  V30 53146 C 5122.58 0.0709532 2.2909 0
M  V30 53147 C 5123.58 -0.687874 1.45344 0
M  V30 53148 O 5124.77 -0.51985 1.66262 0
M  V30 53149 C 5121.9 -0.909413 3.28546 0
M  V30 53150 H 5123.09 0.851712 2.87552 0
M  V30 53151 H 5120.65 0.479726 1.48756 0
M  V30 53152 H 5121.38 -1.71724 2.75102 0
M  V30 53153 H 5121.17 -0.36818 3.90368 0
M  V30 53154 H 5122.66 -1.3573 3.94927 0
M  V30 53155 N 5123.09 -1.50699 0.461248 0
M  V30 53156 C 5124.03 -2.26125 -0.374164 0
M  V30 53157 C 5125.04 -1.31067 -0.965669 0
M  V30 53158 O 5126.23 -1.5665 -0.855746 0
M  V30 53159 C 5123.33 -3.02002 -1.5378 0
M  V30 53160 C 5122.5 -4.2434 -1.06086 0
M  V30 53161 C 5121.56 -4.82593 -2.09739 0
M  V30 53162 O 5120.59 -5.43781 -1.682 0
M  V30 53163 N 5121.79 -4.68724 -3.42459 0
M  V30 53164 H 5124.55 -2.98459 0.272405 0
M  V30 53165 H 5122.11 -1.59255 0.29147 0
M  V30 53166 H 5124.11 -3.37854 -2.22794 0
M  V30 53167 H 5122.68 -2.32528 -2.08925 0
M  V30 53168 H 5121.9 -3.93708 -0.196946 0
M  V30 53169 H 5123.18 -5.0368 -0.719979 0
M  V30 53170 H 5122.58 -4.2004 -3.78924 0
M  V30 53171 H 5121.14 -5.08872 -4.07299 0
M  V30 53172 N 5124.57 -0.193476 -1.56408 0
M  V30 53173 C 5125.82 0.445719 -1.97534 0
M  V30 53174 C 5126.15 1.6174 -1.0803 0
M  V30 53175 O 5125.4 1.95338 -0.119051 0
M  V30 53176 C 5125.7 0.949597 -3.44554 0
M  V30 53177 C 5125.37 -0.108541 -4.50769 0
M  V30 53178 C 5124.03 -0.399295 -4.7954 0
M  V30 53179 C 5126.38 -0.825604 -5.14619 0
M  V30 53180 C 5123.71 -1.41212 -5.69453 0
M  V30 53181 C 5126.06 -1.82756 -6.05626 0
M  V30 53182 C 5124.73 -2.12553 -6.32754 0
M  V30 53183 H 5124 0.1631 -0.722827 0
M  V30 53184 H 5126.64 -0.290101 -1.8929 0
M  V30 53185 H 5124.95 1.76366 -3.4986 0
M  V30 53186 H 5126.64 1.45354 -3.73729 0
M  V30 53187 H 5123.23 0.128242 -4.28408 0
M  V30 53188 H 5127.42 -0.614203 -4.92485 0
M  V30 53189 H 5122.67 -1.6489 -5.88745 0
M  V30 53190 H 5126.85 -2.38843 -6.54161 0
M  V30 53191 H 5124.48 -2.9118 -7.02224 0
M  V30 53192 N 5126.05 1.57396 0.0801353 0
M  V30 53193 C 5127.3 1.87116 0.782018 0
M  V30 53194 C 5127.63 0.784642 1.77643 0
M  V30 53195 O 5126.9 -0.205925 1.93407 0
M  V30 53196 C 5127.19 3.27488 1.49745 0
M  V30 53197 C 5127.04 4.46784 0.520014 0
M  V30 53198 C 5128.36 3.65974 2.44441 0
M  V30 53199 H 5125.48 0.680569 0.282834 0
M  V30 53200 H 5128.12 1.89946 0.0453471 0
M  V30 53201 H 5126.27 3.25206 2.1254 0
M  V30 53202 H 5127.94 4.61187 -0.102081 0
M  V30 53203 H 5126.19 4.33485 -0.165371 0
M  V30 53204 H 5126.86 5.41765 1.05805 0
M  V30 53205 H 5129.33 3.69296 1.91729 0
M  V30 53206 H 5128.21 4.65096 2.91507 0
M  V30 53207 H 5128.47 2.95457 3.28873 0
M  V30 53208 N 5127.53 -0.351328 1.53634 0
M  V30 53209 C 5128.81 -1.10898 1.61124 0
M  V30 53210 C 5129.19 -2.06723 0.427629 0
M  V30 53211 O 5128.53 -2.20994 -0.580838 0
M  V30 53212 C 5128.74 -1.83551 2.96833 0
M  V30 53213 C 5130.09 -2.37574 3.51914 0
M  V30 53214 O 5131.12 -1.93658 2.98957 0
M  V30 53215 O 5129.97 -3.17897 4.44526 0
M  V30 53216 H 5127.07 -0.509535 0.651386 0
M  V30 53217 H 5129.61 -0.353446 1.65978 0
M  V30 53218 H 5128.39 -1.13696 3.74418 0
M  V30 53219 H 5128.01 -2.6598 2.95534 0
M  V30 53220 N 5129.01 -1.45235 -0.611918 0
M  V30 53221 C 5129.94 -1.56416 -1.73368 0
M  V30 53222 C 5130.92 -0.415954 -1.64936 0
M  V30 53223 O 5132.1 -0.638543 -1.83402 0
M  V30 53224 C 5129.23 -1.52638 -3.1196 0
M  V30 53225 C 5128.19 -2.66131 -3.35199 0
M  V30 53226 C 5127.51 -2.47406 -4.74019 0
M  V30 53227 C 5128.81 -4.08169 -3.25877 0
M  V30 53228 H 5130.51 -2.50313 -1.64268 0
M  V30 53229 H 5128.05 -1.2047 -0.788861 0
M  V30 53230 H 5130.01 -1.59057 -3.90229 0
M  V30 53231 H 5128.73 -0.552678 -3.2189 0
M  V30 53232 H 5127.39 -2.59132 -2.59318 0
M  V30 53233 H 5127.04 -1.48185 -4.80677 0
M  V30 53234 H 5126.74 -3.23511 -4.90524 0
M  V30 53235 H 5128.26 -2.55673 -5.54494 0
M  V30 53236 H 5129.67 -4.16434 -3.94025 0
M  V30 53237 H 5128.07 -4.8463 -3.53913 0
M  V30 53238 H 5129.14 -4.30382 -2.23382 0
M  V30 53239 N 5130.49 0.85404 -1.32453 0
M  V30 53240 C 5131.42 1.97822 -1.24051 0
M  V30 53241 C 5132.4 1.69646 -0.124226 0
M  V30 53242 O 5133.58 1.91686 -0.311497 0
M  V30 53243 C 5130.71 3.33669 -0.963441 0
M  V30 53244 C 5129.67 3.762 -2.04103 0
M  V30 53245 C 5128.99 5.09684 -1.61635 0
M  V30 53246 C 5130.29 3.916 -3.45611 0
M  V30 53247 H 5131.99 2.0511 -2.18106 0
M  V30 53248 H 5129.53 0.985452 -1.04999 0
M  V30 53249 H 5131.48 4.11868 -0.891206 0
M  V30 53250 H 5130.21 3.26598 0.01275 0
M  V30 53251 H 5128.87 3.00253 -2.10342 0
M  V30 53252 H 5128.52 4.99069 -0.627594 0
M  V30 53253 H 5128.22 5.39112 -2.33736 0
M  V30 53254 H 5129.74 5.90376 -1.5585 0
M  V30 53255 H 5131.15 4.60151 -3.41956 0
M  V30 53256 H 5129.55 4.32446 -4.16066 0
M  V30 53257 H 5130.62 2.94496 -3.85227 0
M  V30 53258 N 5131.96 1.15674 1.07039 0
M  V30 53259 C 5133.21 0.931736 1.79341 0
M  V30 53260 C 5133.53 -0.542355 1.87306 0
M  V30 53261 O 5132.8 -1.39413 1.37626 0
M  V30 53262 H 5131.38 0.341733 0.66425 0
M  V30 53263 H 5134.04 1.45799 1.29339 0
M  V30 53264 H 5133.14 1.34389 2.81684 0
M  V30 53265 N 5133.44 -1.25443 0.954036 0
M  V30 53266 C 5134.67 -1.96927 0.624757 0
M  V30 53267 C 5135.08 -1.71115 -0.807232 0
M  V30 53268 O 5134.42 -0.983567 -1.5515 0
M  V30 53269 C 5134.48 -3.50422 0.802799 0
M  V30 53270 C 5134.15 -3.99909 2.21183 0
M  V30 53271 C 5135.15 -4.1065 3.18845 0
M  V30 53272 C 5132.83 -4.33589 2.53586 0
M  V30 53273 C 5134.82 -4.54386 4.47004 0
M  V30 53274 C 5132.51 -4.7701 3.81974 0
M  V30 53275 C 5133.51 -4.87372 4.78496 0
M  V30 53276 O 5133.2 -5.2983 6.04595 0
M  V30 53277 H 5132.93 -0.634502 0.233201 0
M  V30 53278 H 5135.48 -1.60587 1.28066 0
M  V30 53279 H 5133.71 -3.86596 0.0897403 0
M  V30 53280 H 5135.4 -4.03115 0.474662 0
M  V30 53281 H 5136.17 -3.84862 2.95138 0
M  V30 53282 H 5132.05 -4.24751 1.79186 0
M  V30 53283 H 5135.59 -4.62388 5.22344 0
M  V30 53284 H 5131.49 -5.02244 4.05489 0
M  V30 53285 H 5132.26 -5.48017 6.07963 0
M  V30 53286 N 5134.92 -0.722538 -1.40061 0
M  V30 53287 C 5136.17 -0.265049 -2.00758 0
M  V30 53288 C 5136.49 1.1439 -1.57306 0
M  V30 53289 O 5135.75 1.79162 -0.787361 0
M  V30 53290 C 5136.05 -0.300807 -3.56132 0
M  V30 53291 C 5135.71 -1.66102 -4.19191 0
M  V30 53292 C 5134.38 -2.03335 -4.36129 0
M  V30 53293 C 5136.73 -2.55468 -4.54297 0
M  V30 53294 C 5134.06 -3.29465 -4.85458 0
M  V30 53295 C 5136.41 -3.80957 -5.05029 0
M  V30 53296 C 5135.07 -4.18298 -5.20176 0
M  V30 53297 H 5134.34 -0.0969884 -0.734625 0
M  V30 53298 H 5136.99 -0.926936 -1.67571 0
M  V30 53299 H 5135.29 0.444653 -3.89269 0
M  V30 53300 H 5136.99 0.0711132 -4.00937 0
M  V30 53301 H 5133.58 -1.36151 -4.064 0
M  V30 53302 H 5137.77 -2.27976 -4.40841 0
M  V30 53303 H 5133.02 -3.58355 -4.9537 0
M  V30 53304 H 5137.2 -4.5037 -5.31168 0
M  V30 53305 H 5134.82 -5.16101 -5.58161 0
M  V30 53306 N 5136.4 1.50453 -0.469234 0
M  V30 53307 C 5137.62 2.0722 0.0864163 0
M  V30 53308 C 5138.05 1.33102 1.32911 0
M  V30 53309 O 5137.41 0.378147 1.77313 0
M  V30 53310 C 5137.45 3.58846 0.355258 0
M  V30 53311 O 5136.56 3.86588 1.43609 0
M  V30 53312 H 5135.9 0.663889 -0.0121647 0
M  V30 53313 H 5138.43 1.93671 -0.659742 0
M  V30 53314 H 5138.44 4.03619 0.596305 0
M  V30 53315 H 5137.11 4.12209 -0.552843 0
M  V30 53316 H 5135.69 3.53654 1.1825 0
M  V30 53317 N 5137.88 0.201768 1.56303 0
M  V30 53318 C 5138.81 -0.711472 2.22397 0
M  V30 53319 C 5139.79 -1.21621 1.18921 0
M  V30 53320 O 5140.97 -1.26383 1.47448 0
M  V30 53321 C 5138.1 -1.92826 2.88852 0
M  V30 53322 C 5137.06 -1.55817 3.98629 0
M  V30 53323 C 5136.38 -2.85212 4.52281 0
M  V30 53324 C 5137.68 -0.763067 5.16696 0
M  V30 53325 H 5139.38 -0.160468 2.9897 0
M  V30 53326 H 5136.92 -0.0757411 1.43801 0
M  V30 53327 H 5138.87 -2.57242 3.33774 0
M  V30 53328 H 5137.6 -2.50391 2.09695 0
M  V30 53329 H 5136.26 -0.937575 3.54408 0
M  V30 53330 H 5135.91 -3.4088 3.69878 0
M  V30 53331 H 5135.61 -2.61191 5.26358 0
M  V30 53332 H 5137.13 -3.50604 4.99909 0
M  V30 53333 H 5138.54 -1.31047 5.58122 0
M  V30 53334 H 5136.94 -0.620725 5.96881 0
M  V30 53335 H 5138.01 0.234492 4.84333 0
M  V30 53336 N 5139.35 -1.57436 -0.071787 0
M  V30 53337 C 5140.3 -2.0369 -1.08532 0
M  V30 53338 C 5141.27 -0.917522 -1.38458 0
M  V30 53339 O 5142.46 -1.18519 -1.49526 0
M  V30 53340 C 5139.6 -2.48575 -2.39384 0
M  V30 53341 C 5138.71 -3.7413 -2.15988 0
M  V30 53342 C 5137.84 -4.07798 -3.40404 0
M  V30 53343 C 5136.88 -5.26394 -3.12372 0
M  V30 53344 N 5136.02 -5.557 -4.29118 0
M  V30 53345 H 5140.86 -2.90046 -0.683916 0
M  V30 53346 H 5138.4 -1.43439 -0.326133 0
M  V30 53347 H 5140.35 -2.7265 -3.15781 0
M  V30 53348 H 5138.98 -1.65196 -2.77327 0
M  V30 53349 H 5138.04 -3.57394 -1.30283 0
M  V30 53350 H 5139.35 -4.60665 -1.91282 0
M  V30 53351 H 5138.5 -4.32774 -4.25196 0
M  V30 53352 H 5137.24 -3.19829 -3.68185 0
M  V30 53353 H 5136.25 -5.01214 -2.25975 0
M  V30 53354 H 5137.47 -6.1598 -2.85912 0
M  V30 53355 H 5135.42 -4.70691 -4.56931 0
M  V30 53356 H 5135.33 -6.36654 -4.07686 0
M  V30 53357 H 5136.6 -5.85227 -5.14907 0
M  V30 53358 N 5140.83 0.343176 -1.53818 0
M  V30 53359 C 5142.06 1.10342 -1.75021 0
M  V30 53360 C 5142.47 1.82343 -0.489539 0
M  V30 53361 O 5141.83 1.74364 0.538824 0
M  V30 53362 C 5141.88 2.11662 -2.93055 0
M  V30 53363 O 5141.6 1.42589 -4.14246 0
M  V30 53364 C 5143.1 3.00059 -3.26312 0
M  V30 53365 H 5140.32 0.329036 -0.584788 0
M  V30 53366 H 5142.87 0.395269 -2.00644 0
M  V30 53367 H 5141.02 2.78041 -2.69763 0
M  V30 53368 H 5141.44 2.10277 -4.80504 0
M  V30 53369 H 5142.91 3.67087 -4.12252 0
M  V30 53370 H 5143.39 3.66097 -2.42631 0
M  V30 53371 H 5143.99 2.39268 -3.51612 0
M  V30 53372 N 5142.31 1.45558 0.604207 0
M  V30 53373 C 5143.72 1.44175 1.18619 0
M  V30 53374 C 5144.07 0.171149 1.95452 0
M  V30 53375 O 5143.2 -0.727084 2.0382 0
M  V30 53376 C 5143.79 2.612 2.15777 0
M  V30 53377 C 5142.35 2.62927 2.69344 0
M  V30 53378 C 5141.5 2.36484 1.44812 0
M  V30 53379 H 5144.45 1.53749 0.393327 0
M  V30 53380 H 5144.47 2.35492 2.98871 0
M  V30 53381 H 5143.98 3.53662 1.59828 0
M  V30 53382 H 5142.08 1.74481 3.29222 0
M  V30 53383 H 5142.2 3.62251 3.13546 0
M  V30 53384 H 5140.56 1.86109 1.73884 0
M  V30 53385 H 5141.34 3.31095 0.90726 0
M  V30 53386 N 5143.79 -0.847003 1.32905 0
M  V30 53387 C 5144.72 -1.96304 1.18311 0
M  V30 53388 C 5145.73 -1.62385 0.116139 0
M  V30 53389 O 5146.92 -1.74711 0.365813 0
M  V30 53390 C 5144.02 -3.29554 0.790421 0
M  V30 53391 C 5143.19 -3.91661 1.94731 0
M  V30 53392 C 5142.25 -5.03255 1.53692 0
M  V30 53393 O 5141.28 -5.22839 2.25007 0
M  V30 53394 N 5142.48 -5.78851 0.437279 0
M  V30 53395 H 5145.25 -2.09361 2.14448 0
M  V30 53396 H 5142.81 -1.02229 1.25542 0
M  V30 53397 H 5144.8 -4.01623 0.498131 0
M  V30 53398 H 5143.37 -3.12498 -0.0800188 0
M  V30 53399 H 5142.59 -3.12283 2.40568 0
M  V30 53400 H 5143.88 -4.2989 2.72161 0
M  V30 53401 H 5143.28 -5.65485 -0.156117 0
M  V30 53402 H 5141.83 -6.51479 0.204628 0
M  V30 53403 N 5145.27 -1.1624 -1.06424 0
M  V30 53404 C 5146.49 -0.967249 -1.82899 0
M  V30 53405 C 5146.91 0.484537 -1.82477 0
M  V30 53406 O 5146.27 1.33626 -1.24299 0
M  V30 53407 C 5146.32 -1.48545 -3.2957 0
M  V30 53408 O 5146.04 -2.88037 -3.301 0
M  V30 53409 C 5147.54 -1.33313 -4.2278 0
M  V30 53410 H 5144.76 -0.342943 -0.576742 0
M  V30 53411 H 5147.3 -1.54237 -1.34281 0
M  V30 53412 H 5145.46 -0.952645 -3.75504 0
M  V30 53413 H 5145.87 -3.11736 -4.21807 0
M  V30 53414 H 5147.35 -1.74403 -5.23725 0
M  V30 53415 H 5147.82 -0.278511 -4.38316 0
M  V30 53416 H 5148.43 -1.85548 -3.8269 0
M  V30 53417 N 5146.74 1.24935 -0.960675 0
M  V30 53418 C 5147.65 2.29372 -0.492516 0
M  V30 53419 C 5148.67 1.68264 0.443095 0
M  V30 53420 O 5149.85 1.98876 0.31786 0
M  V30 53421 C 5146.91 3.46023 0.216505 0
M  V30 53422 C 5145.97 4.22554 -0.758063 0
M  V30 53423 C 5145.21 5.33636 -0.0827845 0
M  V30 53424 O 5145.43 5.59088 1.13035 0
M  V30 53425 O 5144.36 5.96937 -0.771387 0
M  V30 53426 H 5148.19 2.7152 -1.36054 0
M  V30 53427 H 5145.77 1.30496 -0.727396 0
M  V30 53428 H 5147.66 4.16887 0.615095 0
M  V30 53429 H 5146.33 3.05866 1.0596 0
M  V30 53430 H 5145.24 3.54094 -1.20698 0
M  V30 53431 H 5146.57 4.6651 -1.56936 0
M  V30 53432 N 5148.22 0.729956 1.39676 0
M  V30 53433 C 5149.17 0.0866874 2.30637 0
M  V30 53434 C 5150.14 -0.735063 1.4895 0
M  V30 53435 O 5151.32 -0.696063 1.7765 0
M  V30 53436 C 5148.46 -0.818406 3.35255 0
M  V30 53437 C 5147.58 0.0154153 4.31997 0
M  V30 53438 C 5146.71 -0.890484 5.23683 0
M  V30 53439 C 5145.75 -0.0516094 6.12078 0
M  V30 53440 N 5144.89 -0.913166 6.96136 0
M  V30 53441 H 5149.73 0.868025 2.85078 0
M  V30 53442 H 5147.27 0.439722 1.40374 0
M  V30 53443 H 5149.22 -1.35756 3.94495 0
M  V30 53444 H 5147.85 -1.56577 2.82282 0
M  V30 53445 H 5146.91 0.671926 3.74419 0
M  V30 53446 H 5148.22 0.66426 4.94357 0
M  V30 53447 H 5147.37 -1.49766 5.87924 0
M  V30 53448 H 5146.11 -1.57312 4.61632 0
M  V30 53449 H 5145.12 0.568401 5.46854 0
M  V30 53450 H 5146.34 0.627734 6.76193 0
M  V30 53451 H 5144.29 -1.58119 6.36659 0
M  V30 53452 H 5144.2 -0.320687 7.5532 0
M  V30 53453 H 5145.47 -1.50606 7.64812 0
M  V30 53454 N 5149.7 -1.50202 0.477206 0
M  V30 53455 C 5150.65 -2.28657 -0.313779 0
M  V30 53456 C 5151.62 -1.33981 -0.981755 0
M  V30 53457 O 5152.8 -1.62923 -0.993014 0
M  V30 53458 C 5149.94 -3.16032 -1.38628 0
M  V30 53459 C 5149.06 -4.25745 -0.732466 0
M  V30 53460 C 5148.19 -5.00369 -1.78337 0
M  V30 53461 C 5147.23 -6.01949 -1.11014 0
M  V30 53462 N 5146.37 -6.69828 -2.10417 0
M  V30 53463 H 5151.21 -2.95799 0.361549 0
M  V30 53464 H 5148.74 -1.45866 0.190144 0
M  V30 53465 H 5150.7 -3.65047 -2.01981 0
M  V30 53466 H 5149.33 -2.50924 -2.03069 0
M  V30 53467 H 5148.38 -3.80398 0.0137883 0
M  V30 53468 H 5149.7 -4.98393 -0.201337 0
M  V30 53469 H 5148.85 -5.53133 -2.49257 0
M  V30 53470 H 5147.59 -4.2744 -2.34832 0
M  V30 53471 H 5146.59 -5.48439 -0.386604 0
M  V30 53472 H 5147.82 -6.76853 -0.55201 0
M  V30 53473 H 5145.76 -5.99686 -2.65918 0
M  V30 53474 H 5145.68 -7.38372 -1.62306 0
M  V30 53475 H 5146.95 -7.27206 -2.80698 0
M  V30 53476 N 5151.18 -0.210054 -1.56194 0
M  V30 53477 C 5152.11 0.699668 -2.22771 0
M  V30 53478 C 5153.09 1.20989 -1.19565 0
M  V30 53479 O 5154.27 1.25599 -1.48116 0
M  V30 53480 C 5151.4 1.91292 -2.8987 0
M  V30 53481 C 5150.36 1.53701 -3.9945 0
M  V30 53482 C 5149.68 2.8281 -4.53787 0
M  V30 53483 C 5150.98 0.735655 -5.17093 0
M  V30 53484 H 5152.68 0.144611 -2.99051 0
M  V30 53485 H 5150.22 0.0681139 -1.43839 0
M  V30 53486 H 5152.18 2.55468 -3.35133 0
M  V30 53487 H 5150.9 2.49275 -2.1102 0
M  V30 53488 H 5149.56 0.918767 -3.549 0
M  V30 53489 H 5149.21 3.38914 -3.71681 0
M  V30 53490 H 5148.91 2.58396 -5.27736 0
M  V30 53491 H 5150.43 3.47948 -5.01761 0
M  V30 53492 H 5151.85 1.28085 -5.58809 0
M  V30 53493 H 5150.24 0.589062 -5.97202 0
M  V30 53494 H 5151.31 -0.260174 -4.84202 0
M  V30 53495 N 5152.66 1.57472 0.0634368 0
M  V30 53496 C 5153.6 2.04262 1.0745 0
M  V30 53497 C 5154.57 0.924852 1.3797 0
M  V30 53498 O 5155.76 1.1931 1.48895 0
M  V30 53499 C 5152.9 2.49841 2.38062 0
M  V30 53500 C 5152.01 3.7527 2.14001 0
M  V30 53501 C 5151.15 4.09597 3.38236 0
M  V30 53502 C 5150.19 5.28043 3.09576 0
M  V30 53503 N 5149.32 5.57968 4.26165 0
M  V30 53504 H 5154.16 2.90404 0.668524 0
M  V30 53505 H 5151.7 1.4361 0.318521 0
M  V30 53506 H 5153.66 2.74321 3.14331 0
M  V30 53507 H 5152.29 1.66664 2.76447 0
M  V30 53508 H 5151.34 3.5808 1.28386 0
M  V30 53509 H 5152.65 4.61673 1.88836 0
M  V30 53510 H 5151.81 4.35023 4.22895 0
M  V30 53511 H 5150.54 3.21778 3.66484 0
M  V30 53512 H 5149.55 5.02405 2.23314 0
M  V30 53513 H 5150.77 6.17487 2.82642 0
M  V30 53514 H 5148.72 4.73107 4.54429 0
M  V30 53515 H 5148.64 6.38807 4.04303 0
M  V30 53516 H 5149.91 5.87949 5.11797 0
M  V30 53517 N 5154.13 -0.335013 1.53998 0
M  V30 53518 C 5155.04 -1.43505 1.8559 0
M  V30 53519 C 5156.06 -1.5716 0.746782 0
M  V30 53520 O 5157.24 -1.72474 1.03994 0
M  V30 53521 C 5154.3 -2.78378 2.06655 0
M  V30 53522 C 5153.36 -2.73995 3.30492 0
M  V30 53523 C 5152.6 -4.02436 3.50543 0
M  V30 53524 O 5152.82 -5.00138 2.7426 0
M  V30 53525 O 5151.75 -4.0639 4.43994 0
M  V30 53526 H 5155.58 -1.19721 2.79107 0
M  V30 53527 H 5153.16 -0.527984 1.39759 0
M  V30 53528 H 5155.05 -3.58239 2.21907 0
M  V30 53529 H 5153.72 -3.02076 1.16327 0
M  V30 53530 H 5152.63 -1.92725 3.20637 0
M  V30 53531 H 5153.96 -2.55252 4.20841 0
M  V30 53532 N 5155.61 -1.45876 -0.596479 0
M  V30 53533 C 5156.84 -1.53794 -1.37952 0
M  V30 53534 C 5157.25 -0.173152 -1.88406 0
M  V30 53535 O 5156.59 0.83744 -1.63501 0
M  V30 53536 C 5156.66 -2.47053 -2.61161 0
M  V30 53537 C 5156.32 -3.93573 -2.3227 0
M  V30 53538 C 5157.32 -4.83169 -1.91948 0
M  V30 53539 C 5155 -4.38588 -2.44839 0
M  V30 53540 C 5157 -6.15788 -1.64571 0
M  V30 53541 C 5154.68 -5.71246 -2.17075 0
M  V30 53542 C 5155.68 -6.59665 -1.77005 0
M  V30 53543 O 5155.37 -7.89863 -1.49573 0
M  V30 53544 H 5155.1 -0.523015 -0.428289 0
M  V30 53545 H 5157.65 -1.91858 -0.733462 0
M  V30 53546 H 5155.88 -2.03981 -3.28525 0
M  V30 53547 H 5157.57 -2.45531 -3.23217 0
M  V30 53548 H 5158.34 -4.49652 -1.81764 0
M  V30 53549 H 5154.22 -3.7 -2.74993 0
M  V30 53550 H 5157.76 -6.84761 -1.33221 0
M  V30 53551 H 5153.66 -6.04314 -2.26879 0
M  V30 53552 H 5154.43 -8.01997 -1.63533 0
M  V30 53553 N 5157.09 0.839943 -1.33352 0
M  V30 53554 C 5158.32 1.63245 -1.2793 0
M  V30 53555 C 5158.74 1.87524 0.147127 0
M  V30 53556 O 5158.1 1.43857 1.1034 0
M  V30 53557 C 5158.15 2.96039 -2.05896 0
M  V30 53558 O 5157.25 3.87298 -1.41683 0
M  V30 53559 H 5156.59 0.497135 -0.440174 0
M  V30 53560 H 5159.12 1.04506 -1.75897 0
M  V30 53561 H 5159.13 3.45745 -2.16621 0
M  V30 53562 H 5157.81 2.7769 -3.09615 0
M  V30 53563 H 5156.38 3.45785 -1.39598 0
M  V30 53564 N 5158.57 1.16803 1.05806 0
M  V30 53565 C 5159.5 0.836849 2.13376 0
M  V30 53566 C 5160.51 -0.158059 1.62031 0
M  V30 53567 O 5161.7 0.0673838 1.78373 0
M  V30 53568 C 5158.8 0.226078 3.38145 0
M  V30 53569 C 5157.98 1.26231 4.18789 0
M  V30 53570 C 5157.03 0.67044 5.21911 0
M  V30 53571 O 5156.06 1.34061 5.53187 0
M  V30 53572 N 5157.26 -0.54048 5.77978 0
M  V30 53573 H 5160.03 1.76266 2.42385 0
M  V30 53574 H 5157.59 1.06603 1.2185 0
M  V30 53575 H 5159.58 -0.183028 4.04286 0
M  V30 53576 H 5158.15 -0.603386 3.06721 0
M  V30 53577 H 5157.37 1.84741 3.4823 0
M  V30 53578 H 5158.66 1.96147 4.69472 0
M  V30 53579 H 5158.06 -1.10302 5.54842 0
M  V30 53580 H 5156.61 -0.891731 6.45671 0
M  V30 53581 N 5160.05 -1.24424 0.967287 0
M  V30 53582 C 5160.99 -2.25396 0.496498 0
M  V30 53583 C 5161.96 -1.59669 -0.457725 0
M  V30 53584 O 5163.15 -1.87214 -0.36818 0
M  V30 53585 C 5160.29 -3.44475 -0.207572 0
M  V30 53586 C 5159.4 -4.24801 0.78537 0
M  V30 53587 C 5158.54 -5.31169 0.0574498 0
M  V30 53588 C 5157.58 -6.03192 1.04048 0
M  V30 53589 N 5156.71 -7.01264 0.342596 0
M  V30 53590 H 5161.55 -2.65034 1.36238 0
M  V30 53591 H 5159.09 -1.30285 0.682948 0
M  V30 53592 H 5161.05 -4.12378 -0.632467 0
M  V30 53593 H 5159.68 -3.05676 -1.03741 0
M  V30 53594 H 5158.73 -3.5644 1.32871 0
M  V30 53595 H 5160.04 -4.74594 1.535 0
M  V30 53596 H 5159.2 -6.05206 -0.425461 0
M  V30 53597 H 5157.94 -4.82283 -0.724878 0
M  V30 53598 H 5156.94 -5.27958 1.53427 0
M  V30 53599 H 5158.17 -6.54167 1.82325 0
M  V30 53600 H 5156.11 -6.54649 -0.420763 0
M  V30 53601 H 5156.03 -7.48935 1.0311 0
M  V30 53602 H 5157.3 -7.7941 -0.11836 0
M  V30 53603 N 5161.53 -0.737353 -1.39287 0
M  V30 53604 C 5162.49 -0.10739 -2.28948 0
M  V30 53605 C 5163.49 0.664664 -1.4642 0
M  V30 53606 O 5164.68 0.493333 -1.67068 0
M  V30 53607 C 5161.81 0.857029 -3.29951 0
M  V30 53608 H 5163 -0.897351 -2.8616 0
M  V30 53609 H 5160.56 -0.503331 -1.47974 0
M  V30 53610 H 5161.29 1.67326 -2.77799 0
M  V30 53611 H 5161.08 0.30603 -3.90904 0
M  V30 53612 H 5162.57 1.2943 -3.97036 0
M  V30 53613 N 5163 1.49946 -0.485165 0
M  V30 53614 C 5164.25 2.02696 0.0650309 0
M  V30 53615 C 5164.58 1.36539 1.38097 0
M  V30 53616 O 5163.86 0.495743 1.88076 0
M  V30 53617 C 5164.14 3.59338 0.234159 0
M  V30 53618 C 5163.99 4.36046 -1.10379 0
M  V30 53619 C 5165.31 4.29 0.9822 0
M  V30 53620 H 5162.43 0.736667 0.0221598 0
M  V30 53621 H 5165.07 1.79128 -0.633496 0
M  V30 53622 H 5163.22 3.79549 0.829128 0
M  V30 53623 H 5164.9 4.27371 -1.73642 0
M  V30 53624 H 5163.14 3.9923 -1.697 0
M  V30 53625 H 5163.81 5.43956 -0.938935 0
M  V30 53626 H 5166.29 4.13348 0.477759 0
M  V30 53627 H 5165.16 5.38383 1.06936 0
M  V30 53628 H 5165.42 3.93142 2.02218 0
M  V30 53629 N 5164.48 0.218335 1.5608 0
M  V30 53630 C 5165.39 -0.704523 2.23771 0
M  V30 53631 C 5166.41 -1.21628 1.24429 0
M  V30 53632 O 5167.58 -1.25857 1.57232 0
M  V30 53633 C 5164.65 -1.89714 2.90188 0
M  V30 53634 C 5163.71 -1.42768 4.04865 0
M  V30 53635 C 5162.94 -2.56345 4.68106 0
M  V30 53636 O 5163.17 -3.74401 4.30325 0
M  V30 53637 O 5162.1 -2.2773 5.57156 0
M  V30 53638 H 5165.93 -0.1579 3.03289 0
M  V30 53639 H 5163.51 -0.0119753 1.49395 0
M  V30 53640 H 5165.39 -2.5937 3.32122 0
M  V30 53641 H 5164.07 -2.43193 2.13633 0
M  V30 53642 H 5162.97 -0.69923 3.67507 0
M  V30 53643 H 5164.31 -0.939304 4.83154 0
M  V30 53644 N 5165.96 -1.57504 -0.0550848 0
M  V30 53645 C 5167.21 -1.8724 -0.749943 0
M  V30 53646 C 5167.52 -0.813331 -1.77888 0
M  V30 53647 O 5168.73 -0.999069 -2.5245 0
M  V30 53648 C 5167.18 -3.32192 -1.38479 0
M  V30 53649 C 5166.79 -4.46268 -0.39355 0
M  V30 53650 C 5168.54 -3.71108 -2.06104 0
M  V30 53651 C 5166.44 -5.82268 -1.03526 0
M  V30 53652 H 5165.37 -0.698534 -0.283842 0
M  V30 53653 H 5168.02 -1.835 -0.00359546 0
M  V30 53654 H 5166.41 -3.30596 -2.17997 0
M  V30 53655 H 5167.58 -4.59288 0.373027 0
M  V30 53656 H 5165.89 -4.16014 0.179166 0
M  V30 53657 H 5168.49 -4.70021 -2.54921 0
M  V30 53658 H 5168.83 -3.01761 -2.86786 0
M  V30 53659 H 5169.37 -3.74767 -1.33396 0
M  V30 53660 H 5166.11 -6.5495 -0.268414 0
M  V30 53661 H 5165.63 -5.73018 -1.7723 0
M  V30 53662 H 5167.31 -6.28153 -1.55025 0
M  V30 53663 N 5167.44 0.326842 -1.54174 0
M  V30 53664 C 5168.37 1.40735 -1.86322 0
M  V30 53665 C 5169.35 1.54123 -0.719738 0
M  V30 53666 O 5170.53 1.68056 -0.973176 0
M  V30 53667 C 5167.66 2.7755 -2.08767 0
M  V30 53668 C 5166.62 2.78953 -3.24606 0
M  V30 53669 C 5165.94 4.18813 -3.32415 0
M  V30 53670 C 5167.24 2.42994 -4.62333 0
M  V30 53671 H 5168.94 1.14078 -2.76815 0
M  V30 53672 H 5166.48 0.547342 -1.33192 0
M  V30 53673 H 5168.44 3.53201 -2.29841 0
M  V30 53674 H 5167.16 3.05676 -1.1502 0
M  V30 53675 H 5165.82 2.05757 -3.03414 0
M  V30 53676 H 5165.47 4.44075 -2.36233 0
M  V30 53677 H 5165.17 4.20659 -4.10268 0
M  V30 53678 H 5166.69 4.96282 -3.5572 0
M  V30 53679 H 5168.11 3.08358 -4.8331 0
M  V30 53680 H 5166.5 2.56096 -5.4271 0
M  V30 53681 H 5167.57 1.38148 -4.64804 0
M  V30 53682 N 5168.92 1.46191 0.588735 0
M  V30 53683 C 5170.33 1.31012 0.911478 0
M  V30 53684 C 5170.53 0.277088 1.99586 0
M  V30 53685 O 5169.59 -0.322444 2.50433 0
M  V30 53686 C 5170.9 2.69463 1.33454 0
M  V30 53687 C 5172.45 2.77507 1.44772 0
M  V30 53688 C 5172.92 4.16526 1.90447 0
M  V30 53689 N 5174.41 4.18914 1.9765 0
M  V30 53690 C 5175.15 5.23367 2.34253 0
M  V30 53691 N 5174.65 6.38152 2.69691 0
M  V30 53692 N 5176.44 5.10731 2.34756 0
M  V30 53693 H 5168.59 2.12016 -0.127689 0
M  V30 53694 H 5170.85 0.947984 0.00554267 0
M  V30 53695 H 5170.56 3.46338 0.611807 0
M  V30 53696 H 5170.43 2.99173 2.29729 0
M  V30 53697 H 5172.82 2.00925 2.16133 0
M  V30 53698 H 5172.9 2.51489 0.467635 0
M  V30 53699 H 5172.54 4.93601 1.19667 0
M  V30 53700 H 5172.47 4.39948 2.89402 0
M  V30 53701 H 5174.97 3.3609 1.72777 0
M  V30 53702 H 5175.28 7.13634 2.96557 0
M  V30 53703 H 5173.62 6.41524 2.67343 0
M  V30 53704 H 5176.81 4.20095 2.06488 0
M  V30 53705 H 5176.99 5.92249 2.62954 0
M  V30 53706 N 5170.39 -0.832859 1.33795 0
M  V30 53707 C 5171.62 -1.62043 1.28645 0
M  V30 53708 C 5172.04 -1.88269 -0.141456 0
M  V30 53709 O 5171.39 -1.46709 -1.08548 0
M  V30 53710 C 5171.44 -2.96715 2.065 0
M  V30 53711 O 5171.17 -2.71638 3.43721 0
M  V30 53712 C 5172.67 -3.91137 2.08631 0
M  V30 53713 H 5169.89 -0.504016 0.442954 0
M  V30 53714 H 5172.43 -1.03697 1.76259 0
M  V30 53715 H 5170.59 -3.51646 1.62554 0
M  V30 53716 H 5171 -3.57439 3.83846 0
M  V30 53717 H 5172.47 -4.82827 2.67548 0
M  V30 53718 H 5172.95 -4.25762 1.07811 0
M  V30 53719 H 5173.56 -3.42143 2.52623 0
M  V30 53720 N 5171.87 -1.17362 -1.05185 0
M  V30 53721 C 5172.8 -0.848153 -2.1293 0
M  V30 53722 C 5173.82 0.149464 -1.62112 0
M  V30 53723 O 5175.01 -0.0768424 -1.78335 0
M  V30 53724 C 5172.11 -0.244008 -3.3802 0
M  V30 53725 C 5171.28 -1.28451 -4.18114 0
M  V30 53726 C 5170.34 -0.698109 -5.21549 0
M  V30 53727 O 5169.36 -1.36993 -5.52469 0
M  V30 53728 N 5170.57 0.509821 -5.78257 0
M  V30 53729 H 5173.33 -1.77549 -2.41447 0
M  V30 53730 H 5170.89 -1.07248 -1.21283 0
M  V30 53731 H 5172.88 0.161585 -4.04377 0
M  V30 53732 H 5171.45 0.587112 -3.07037 0
M  V30 53733 H 5170.67 -1.86585 -3.47246 0
M  V30 53734 H 5171.96 -1.98634 -4.68425 0
M  V30 53735 H 5171.36 1.07358 -5.55419 0
M  V30 53736 H 5169.92 0.857477 -6.46135 0
M  V30 53737 N 5173.35 1.23909 -0.973872 0
M  V30 53738 C 5174.3 2.27139 -0.501059 0
M  V30 53739 C 5175.29 1.63624 0.438574 0
M  V30 53740 O 5176.5 1.77254 0.313184 0
M  V30 53741 H 5172.87 0.738165 -0.143586 0
M  V30 53742 H 5174.84 2.64387 -1.38355 0
M  V30 53743 C 5173.59 3.47195 0.187255 0
M  V30 53744 H 5172.92 3.96316 -0.526675 0
M  V30 53745 H 5174.36 4.21254 0.481814 0
M  V30 53746 C 5172.81 3.05683 1.41631 0
M  V30 53747 O 5173.34 3.13389 2.51298 0
M  V30 53748 N 5171.55 2.60666 1.28459 0
M  V30 53749 H 5171.1 2.54595 0.39229 0
M  V30 53750 H 5171.06 2.33257 2.10805 0
M  V30 53751 N 5174.83 0.744729 1.38894 0
M  V30 53752 C 5175.78 0.0870176 2.27834 0
M  V30 53753 C 5176.76 -0.702503 1.44754 0
M  V30 53754 O 5177.95 -0.569913 1.67574 0
M  V30 53755 C 5175.08 -0.812115 3.33556 0
M  V30 53756 C 5174.17 -0.0162222 4.24097 0
M  V30 53757 N 5174.56 1.01565 4.95498 0
M  V30 53758 C 5172.86 -0.244397 4.4533 0
M  V30 53759 C 5173.56 1.49642 5.62123 0
M  V30 53760 N 5172.54 0.813286 5.37482 0
M  V30 53761 H 5176.34 0.877444 2.80496 0
M  V30 53762 H 5173.85 0.579951 1.51692 0
M  V30 53763 H 5175.85 -1.29886 3.96151 0
M  V30 53764 H 5174.51 -1.60159 2.82452 0
M  V30 53765 H 5175.52 1.39724 4.98696 0
M  V30 53766 H 5172.2 -1.00791 4.05151 0
M  V30 53767 H 5173.59 2.35545 6.2926 0
M  V30 53768 N 5176.31 -1.49687 0.49311 0
M  V30 53769 C 5177.56 -2.01622 -0.0560024 0
M  V30 53770 C 5177.87 -1.37843 -1.38775 0
M  V30 53771 O 5179.07 -1.81061 -2.0231 0
M  V30 53772 C 5177.53 -3.59586 -0.150282 0
M  V30 53773 C 5177.14 -4.32334 1.17435 0
M  V30 53774 C 5178.88 -4.19491 -0.650179 0
M  V30 53775 C 5176.79 -5.82136 1.04267 0
M  V30 53776 H 5175.72 -0.753595 -0.0247032 0
M  V30 53777 H 5178.37 -1.72297 0.631339 0
M  V30 53778 H 5176.75 -3.85593 -0.901899 0
M  V30 53779 H 5177.93 -4.18035 1.93865 0
M  V30 53780 H 5176.24 -3.84138 1.60707 0
M  V30 53781 H 5178.84 -5.29184 -0.766086 0
M  V30 53782 H 5179.18 -3.82332 -1.64707 0
M  V30 53783 H 5179.71 -3.97775 0.0446769 0
M  V30 53784 H 5176.45 -6.23807 2.01358 0
M  V30 53785 H 5175.97 -5.9895 0.31913 0
M  V30 53786 H 5177.65 -6.43002 0.718183 0
M  V30 53787 N 5177.78 -0.226609 -1.55962 0
M  V30 53788 C 5178.71 0.676 -2.23501 0
M  V30 53789 C 5179.7 1.19714 -1.20841 0
M  V30 53790 O 5180.88 1.24021 -1.4944 0
M  V30 53791 C 5178.01 1.88207 -2.91883 0
M  V30 53792 C 5176.96 1.49456 -4.01057 0
M  V30 53793 C 5176.29 2.77981 -4.56761 0
M  V30 53794 C 5177.59 0.680769 -5.17844 0
M  V30 53795 H 5179.28 0.112884 -2.99187 0
M  V30 53796 H 5176.83 0.052854 -1.43903 0
M  V30 53797 H 5178.78 2.51899 -3.37824 0
M  V30 53798 H 5177.51 2.47023 -2.13652 0
M  V30 53799 H 5176.17 0.881073 -3.55855 0
M  V30 53800 H 5175.81 3.34953 -3.75254 0
M  V30 53801 H 5175.51 2.52785 -5.30447 0
M  V30 53802 H 5177.04 3.42607 -5.05424 0
M  V30 53803 H 5178.45 1.22151 -5.60136 0
M  V30 53804 H 5176.85 0.525688 -5.97793 0
M  V30 53805 H 5177.92 -0.311516 -4.83898 0
M  V30 53806 N 5179.26 1.57531 0.0467312 0
M  V30 53807 C 5180.49 1.92699 0.753303 0
M  V30 53808 C 5180.91 0.824852 1.69828 0
M  V30 53809 O 5180.26 -0.200091 1.814 0
M  V30 53810 C 5180.31 3.27733 1.52555 0
M  V30 53811 O 5180.03 4.33712 0.618522 0
M  V30 53812 C 5181.54 3.77074 2.33087 0
M  V30 53813 H 5178.76 0.636374 0.212765 0
M  V30 53814 H 5181.3 2.04498 0.00952172 0
M  V30 53815 H 5179.45 3.17386 2.22137 0
M  V30 53816 H 5179.87 5.11552 1.15821 0
M  V30 53817 H 5181.34 4.74119 2.82693 0
M  V30 53818 H 5181.82 3.07359 3.13731 0
M  V30 53819 H 5182.43 3.90448 1.68614 0
M  V30 53820 N 5180.74 -0.318661 1.54345 0
M  V30 53821 C 5181.69 -1.41247 1.84803 0
M  V30 53822 C 5182.68 -1.53323 0.72031 0
M  V30 53823 O 5183.89 -1.5565 0.904046 0
M  V30 53824 H 5180.26 -0.471448 0.585868 0
M  V30 53825 H 5182.23 -1.12785 2.76264 0
M  V30 53826 C 5180.98 -2.77387 2.09646 0
M  V30 53827 H 5180.31 -2.68871 2.95886 0
M  V30 53828 H 5181.75 -3.52979 2.34908 0
M  V30 53829 C 5180.21 -3.24945 0.889512 0
M  V30 53830 O 5180.74 -4.01572 0.101204 0
M  V30 53831 N 5178.94 -2.82049 0.699783 0
M  V30 53832 H 5178.49 -2.19853 1.34248 0
M  V30 53833 H 5178.45 -3.1422 -0.106258 0
M  V30 53834 N 5182.22 -1.46501 -0.580974 0
M  V30 53835 C 5183.17 -1.53612 -1.68486 0
M  V30 53836 C 5184.15 -0.396908 -1.55928 0
M  V30 53837 O 5185.34 -0.645424 -1.64813 0
M  V30 53838 C 5182.47 -1.531 -3.07271 0
M  V30 53839 C 5181.56 -2.72321 -3.25119 0
M  V30 53840 N 5181.95 -3.97227 -3.1312 0
M  V30 53841 C 5180.25 -2.68581 -3.56062 0
M  V30 53842 C 5180.95 -4.76941 -3.33019 0
M  V30 53843 N 5179.93 -4.08845 -3.58255 0
M  V30 53844 H 5183.73 -2.47981 -1.57742 0
M  V30 53845 H 5181.24 -1.42164 -0.785054 0
M  V30 53846 H 5183.24 -1.56282 -3.86499 0
M  V30 53847 H 5181.9 -0.598081 -3.19144 0
M  V30 53848 H 5182.91 -4.2845 -2.90949 0
M  V30 53849 H 5179.59 -1.8432 -3.7461 0
M  V30 53850 H 5180.98 -5.8589 -3.28911 0
M  V30 53851 N 5183.7 0.825752 -1.34235 0
M  V30 53852 C 5185.11 1.3983 -1.23711 0
M  V30 53853 C 5185.46 1.9571 0.13858 0
M  V30 53854 O 5184.58 1.89837 1.03879 0
M  V30 53855 C 5185.18 2.54195 -2.23987 0
M  V30 53856 C 5183.74 3.07366 -2.17262 0
M  V30 53857 C 5182.88 1.80224 -2.10747 0
M  V30 53858 H 5185.84 0.63039 -1.45643 0
M  V30 53859 H 5185.86 3.32208 -1.85522 0
M  V30 53860 H 5185.37 2.13495 -3.24101 0
M  V30 53861 H 5183.47 3.52579 -1.20495 0
M  V30 53862 H 5183.58 3.66649 -3.08391 0
M  V30 53863 H 5181.95 2.01006 -1.56424 0
M  V30 53864 H 5182.73 1.41702 -3.12691 0
M  V30 53865 N 5185.17 1.17918 1.04561 0
M  V30 53866 C 5186.12 0.897995 2.14567 0
M  V30 53867 C 5187.12 -0.139824 1.68822 0
M  V30 53868 O 5188.32 0.00785791 1.79998 0
M  V30 53869 H 5184.7 0.272892 0.700738 0
M  V30 53870 H 5186.67 1.83276 2.35484 0
M  V30 53871 C 5185.42 0.434755 3.44971 0
M  V30 53872 H 5184.74 1.22482 3.80576 0
M  V30 53873 H 5186.18 0.276952 4.23095 0
M  V30 53874 C 5184.64 -0.848623 3.26037 0
M  V30 53875 O 5185.17 -1.91398 3.53171 0
M  V30 53876 N 5183.38 -0.799275 2.79392 0
M  V30 53877 H 5182.92 0.0679097 2.5751 0
M  V30 53878 H 5182.88 -1.6584 2.67104 0
M  V30 53879 N 5186.65 -1.23391 0.980429 0
M  V30 53880 C 5187.88 -1.96382 0.667004 0
M  V30 53881 C 5188.3 -1.7209 -0.759395 0
M  V30 53882 O 5187.66 -0.992381 -1.51728 0
M  V30 53883 C 5187.71 -3.47495 0.9633 0
M  V30 53884 O 5186.81 -4.12363 0.05535 0
M  V30 53885 H 5186.15 -0.614788 0.250861 0
M  V30 53886 H 5188.68 -1.56826 1.31403 0
M  V30 53887 H 5188.69 -3.97949 0.900017 0
M  V30 53888 H 5187.37 -3.64503 2.00276 0
M  V30 53889 H 5185.95 -3.72498 0.173045 0
M  V30 53890 N 5188.13 -0.752084 -1.38497 0
M  V30 53891 C 5189.08 -0.112716 -2.32327 0
M  V30 53892 C 5190.07 0.706983 -1.53942 0
M  V30 53893 O 5191.28 0.606249 -1.69483 0
M  V30 53894 H 5187.65 -0.017654 -0.751793 0
M  V30 53895 H 5189.62 -0.920174 -2.83858 0
M  V30 53896 C 5188.37 0.767339 -3.39127 0
M  V30 53897 H 5187.7 0.145982 -3.99533 0
M  V30 53898 H 5189.14 1.18202 -4.07191 0
M  V30 53899 C 5187.6 1.90929 -2.77575 0
M  V30 53900 O 5188.13 3.00332 -2.66764 0
M  V30 53901 N 5186.33 1.70388 -2.35407 0
M  V30 53902 H 5185.88 0.814044 -2.44399 0
M  V30 53903 H 5185.84 2.46965 -1.94566 0
M  V30 53904 N 5189.61 1.49423 -0.501041 0
M  V30 53905 C 5190.86 2.01649 0.0453091 0
M  V30 53906 C 5191.17 1.38577 1.38043 0
M  V30 53907 O 5192.38 1.82131 2.01347 0
M  V30 53908 C 5190.83 3.59661 0.13121 0
M  V30 53909 C 5190.44 4.31705 -1.19726 0
M  V30 53910 C 5192.19 4.1983 0.627923 0
M  V30 53911 C 5190.09 5.81575 -1.07352 0
M  V30 53912 H 5189.02 0.753716 0.0207064 0
M  V30 53913 H 5191.67 1.7196 -0.640468 0
M  V30 53914 H 5190.06 3.86066 0.881438 0
M  V30 53915 H 5191.23 4.17001 -1.96079 0
M  V30 53916 H 5189.54 3.83281 -1.62742 0
M  V30 53917 H 5192.14 5.29582 0.738011 0
M  V30 53918 H 5192.48 3.832 1.62677 0
M  V30 53919 H 5193.02 3.97746 -0.0657712 0
M  V30 53920 H 5189.76 6.2273 -2.04664 0
M  V30 53921 H 5189.28 5.98773 -0.350889 0
M  V30 53922 H 5190.96 6.42612 -0.752273 0
M  V30 53923 N 5191.09 0.234877 1.5584 0
M  V30 53924 C 5192.32 -0.397097 2.02748 0
M  V30 53925 C 5192.73 -1.52947 1.11372 0
M  V30 53926 O 5192.07 -1.83319 0.118197 0
M  V30 53927 C 5192.13 -0.977627 3.45952 0
M  V30 53928 C 5191.79 0.02098 4.56995 0
M  V30 53929 C 5192.79 0.826195 5.13293 0
M  V30 53930 C 5190.48 0.143592 5.02095 0
M  V30 53931 C 5192.47 1.7406 6.13174 0
M  V30 53932 C 5190.16 1.06151 6.0181 0
M  V30 53933 C 5191.16 1.85855 6.57227 0
M  V30 53934 O 5190.84 2.76102 7.54999 0
M  V30 53935 H 5190.58 -0.0999567 0.668569 0
M  V30 53936 H 5193.13 0.352744 2.02348 0
M  V30 53937 H 5191.36 -1.77681 3.43462 0
M  V30 53938 H 5193.05 -1.51841 3.7643 0
M  V30 53939 H 5193.81 0.74199 4.79291 0
M  V30 53940 H 5189.69 -0.466695 4.58632 0
M  V30 53941 H 5193.24 2.36314 6.56355 0
M  V30 53942 H 5189.13 1.14669 6.35233 0
M  V30 53943 H 5189.9 2.70327 7.72571 0
M  V30 53944 N 5192.57 -1.57553 -0.0383763 0
M  V30 53945 C 5193.51 -2.07024 -1.06036 0
M  V30 53946 C 5194.51 -0.982126 -1.38024 0
M  V30 53947 O 5195.71 -1.16707 -1.37038 0
M  V30 53948 H 5192.09 -0.660535 -0.35944 0
M  V30 53949 H 5194.06 -2.91946 -0.617236 0
M  V30 53950 C 5192.81 -2.55743 -2.35565 0
M  V30 53951 H 5192.13 -3.39082 -2.1181 0
M  V30 53952 H 5193.57 -2.94077 -3.05442 0
M  V30 53953 C 5192.03 -1.4546 -3.0388 0
M  V30 53954 O 5192.56 -0.81554 -3.93334 0
M  V30 53955 N 5190.77 -1.19143 -2.65053 0
M  V30 53956 H 5190.31 -1.71294 -1.92395 0
M  V30 53957 H 5190.27 -0.455664 -3.1108 0
M  V30 53958 N 5194.04 0.310471 -1.54512 0
M  V30 53959 C 5195.27 1.06605 -1.77322 0
M  V30 53960 C 5195.69 1.81264 -0.528107 0
M  V30 53961 O 5195.04 1.75468 0.501718 0
M  V30 53962 C 5195.09 2.05398 -2.97479 0
M  V30 53963 O 5194.82 1.3377 -4.17178 0
M  V30 53964 C 5196.32 2.9307 -3.32603 0
M  V30 53965 H 5193.54 0.316557 -0.591635 0
M  V30 53966 H 5196.08 0.35262 -2.01437 0
M  V30 53967 H 5194.24 2.72257 -2.75599 0
M  V30 53968 H 5194.65 2.00038 -4.84856 0
M  V30 53969 H 5196.12 3.58259 -4.19945 0
M  V30 53970 H 5196.6 3.60868 -2.50342 0
M  V30 53971 H 5197.21 2.31755 -3.56608 0
M  V30 53972 N 5195.52 1.46807 0.573196 0
M  V30 53973 C 5196.45 1.60957 1.6916 0
M  V30 53974 C 5197.43 0.459537 1.63775 0
M  V30 53975 O 5198.62 0.686944 1.81644 0
M  V30 53976 C 5195.75 1.60855 3.07803 0
M  V30 53977 C 5194.7 2.74924 3.28025 0
M  V30 53978 C 5194.03 2.59887 4.67293 0
M  V30 53979 C 5195.33 4.16665 3.1494 0
M  V30 53980 H 5197.02 2.5458 1.57573 0
M  V30 53981 H 5194.57 1.22519 0.756643 0
M  V30 53982 H 5196.52 1.69347 3.85875 0
M  V30 53983 H 5195.24 0.637827 3.20311 0
M  V30 53984 H 5193.9 2.65917 2.52357 0
M  V30 53985 H 5193.55 1.60877 4.76579 0
M  V30 53986 H 5193.25 3.36403 4.81775 0
M  V30 53987 H 5194.78 2.70284 5.4752 0
M  V30 53988 H 5196.19 4.26734 3.82846 0
M  V30 53989 H 5194.59 4.93843 3.40939 0
M  V30 53990 H 5195.66 4.36153 2.11892 0
M  V30 53991 N 5197 -0.818622 1.34671 0
M  V30 53992 C 5198.22 -1.61189 1.3051 0
M  V30 53993 C 5198.65 -1.87734 -0.117275 0
M  V30 53994 O 5198.01 -1.45594 -1.08037 0
M  V30 53995 C 5198.06 -2.92726 2.1058 0
M  V30 53996 O 5197.16 -3.84995 1.47827 0
M  V30 53997 H 5196.5 -0.490069 0.448027 0
M  V30 53998 H 5199.03 -1.01694 1.77537 0
M  V30 53999 H 5199.04 -3.42254 2.22094 0
M  V30 54000 H 5197.72 -2.72729 3.13993 0
M  V30 54001 H 5196.29 -3.4352 1.45081 0
M  V30 54002 N 5198.48 -1.18471 -1.03934 0
M  V30 54003 C 5199.73 -0.978958 -1.76807 0
M  V30 54004 C 5200.05 0.492503 -1.88678 0
M  V30 54005 O 5199.32 1.35715 -1.41274 0
M  V30 54006 H 5197.9 -0.359224 -0.654956 0
M  V30 54007 H 5200.56 -1.49177 -1.25428 0
M  V30 54008 H 5199.65 -1.4181 -2.78022 0
M  V30 54009 N 5199.96 1.22869 -0.986959 0
M  V30 54010 C 5200.89 2.26878 -0.552144 0
M  V30 54011 C 5201.87 1.64884 0.41799 0
M  V30 54012 O 5203.05 1.91711 0.309923 0
M  V30 54013 C 5200.18 3.47018 0.139837 0
M  V30 54014 C 5199.14 4.21409 -0.748239 0
M  V30 54015 C 5198.46 5.34646 0.0763252 0
M  V30 54016 C 5199.76 4.80719 -2.04223 0
M  V30 54017 H 5201.46 2.63502 -1.42152 0
M  V30 54018 H 5199 1.26666 -0.684964 0
M  V30 54019 H 5200.95 4.18932 0.455379 0
M  V30 54020 H 5199.68 3.09474 1.04371 0
M  V30 54021 H 5198.34 3.51321 -1.04734 0
M  V30 54022 H 5197.99 4.93342 0.980936 0
M  V30 54023 H 5197.69 5.8534 -0.514812 0
M  V30 54024 H 5199.21 6.09378 0.386099 0
M  V30 54025 H 5200.62 5.44606 -1.79103 0
M  V30 54026 H 5199.02 5.41728 -2.58169 0
M  V30 54027 H 5200.09 4.011 -2.72483 0
M  V30 54028 N 5201.43 0.759419 1.38096 0
M  V30 54029 C 5202.68 0.318655 2.00281 0
M  V30 54030 C 5203.01 -1.09849 1.60146 0
M  V30 54031 O 5202.29 -1.75341 0.841763 0
M  V30 54032 C 5202.57 0.448173 3.573 0
M  V30 54033 C 5202.42 1.90684 4.07381 0
M  V30 54034 C 5203.74 -0.154965 4.39827 0
M  V30 54035 H 5200.86 0.117258 0.727612 0
M  V30 54036 H 5203.5 0.960155 1.63954 0
M  V30 54037 H 5201.65 -0.0979637 3.88376 0
M  V30 54038 H 5203.33 2.51173 3.86923 0
M  V30 54039 H 5201.57 2.41991 3.60032 0
M  V30 54040 H 5202.24 1.94859 5.16463 0
M  V30 54041 H 5204.72 0.310876 4.14937 0
M  V30 54042 H 5203.59 -0.0341335 5.48889 0
M  V30 54043 H 5203.85 -1.24392 4.24239 0
M  V30 54044 N 5202.91 -1.49156 0.508959 0
M  V30 54045 C 5203.82 -2.33046 -0.269574 0
M  V30 54046 C 5204.84 -1.45146 -0.959611 0
M  V30 54047 O 5206.01 -1.78158 -0.939233 0
M  V30 54048 C 5203.08 -3.20776 -1.31543 0
M  V30 54049 C 5202.14 -4.24533 -0.637982 0
M  V30 54050 C 5201.37 -5.08071 -1.634 0
M  V30 54051 O 5201.6 -4.93248 -2.86465 0
M  V30 54052 O 5200.53 -5.90121 -1.18495 0
M  V30 54053 H 5204.36 -3.0082 0.417289 0
M  V30 54054 H 5201.94 -1.46937 0.270171 0
M  V30 54055 H 5203.82 -3.75101 -1.92033 0
M  V30 54056 H 5202.5 -2.55688 -1.98507 0
M  V30 54057 H 5201.4 -3.74099 0.00687509 0
M  V30 54058 H 5202.74 -4.92199 -0.0106425 0
M  V30 54059 N 5204.39 -0.243138 -1.55713 0
M  V30 54060 C 5205.64 0.38265 -1.98852 0
M  V30 54061 C 5205.97 1.58221 -1.13121 0
M  V30 54062 O 5205.22 1.9486 -0.181136 0
M  V30 54063 C 5205.52 0.839499 -3.47401 0
M  V30 54064 C 5205.19 -0.251895 -4.50196 0
M  V30 54065 C 5203.85 -0.551655 -4.78027 0
M  V30 54066 C 5206.2 -0.988908 -5.11732 0
M  V30 54067 C 5203.53 -1.59257 -5.64672 0
M  V30 54068 C 5205.88 -2.01931 -5.99505 0
M  V30 54069 C 5204.54 -2.32576 -6.25671 0
M  V30 54070 H 5203.81 0.140022 -0.72765 0
M  V30 54071 H 5206.46 -0.350176 -1.88271 0
M  V30 54072 H 5204.77 1.65146 -3.55294 0
M  V30 54073 H 5206.46 1.3339 -3.78164 0
M  V30 54074 H 5203.05 -0.00811808 -4.28599 0
M  V30 54075 H 5207.24 -0.770572 -4.90281 0
M  V30 54076 H 5202.49 -1.83537 -5.83201 0
M  V30 54077 H 5206.67 -2.59534 -6.46232 0
M  V30 54078 H 5204.29 -3.13373 -6.92605 0
M  V30 54079 N 5205.87 1.57571 0.0300203 0
M  V30 54080 C 5207.15 1.80383 0.756384 0
M  V30 54081 C 5207.53 0.840974 1.93626 0
M  V30 54082 O 5206.87 -0.117062 2.282 0
M  V30 54083 C 5207.08 3.28074 1.19032 0
M  V30 54084 C 5208.43 3.9303 1.60662 0
M  V30 54085 O 5209.46 3.32217 1.28492 0
M  V30 54086 O 5208.31 5.001 2.20368 0
M  V30 54087 H 5205.41 0.74175 0.365699 0
M  V30 54088 H 5207.95 1.69699 0.00687212 0
M  V30 54089 H 5206.73 3.8975 0.347991 0
M  V30 54090 H 5206.35 3.43644 1.99987 0
M  V30 54091 N 5207.35 -0.302273 1.54674 0
M  V30 54092 C 5208.59 -1.03559 1.73551 0
M  V30 54093 C 5208.92 -1.87841 0.523514 0
M  V30 54094 O 5208.19 -1.90369 -0.462228 0
M  V30 54095 H 5206.77 -0.385336 0.639942 0
M  V30 54096 H 5209.43 -0.333565 1.92024 0
M  V30 54097 H 5208.52 -1.68943 2.62421 0
M  V30 54098 N 5208.82 -1.47109 -0.565403 0
M  V30 54099 C 5210.05 -1.56686 -1.34659 0
M  V30 54100 C 5210.46 -0.213077 -1.87996 0
M  V30 54101 O 5209.81 0.802571 -1.65241 0
M  V30 54102 C 5209.87 -2.52537 -2.55862 0
M  V30 54103 C 5209.53 -3.98411 -2.23869 0
M  V30 54104 C 5210.53 -4.87131 -1.81656 0
M  V30 54105 C 5208.21 -4.43683 -2.35481 0
M  V30 54106 C 5210.21 -6.1914 -1.51473 0
M  V30 54107 C 5207.89 -5.75722 -2.04909 0
M  V30 54108 C 5208.89 -6.63271 -1.62972 0
M  V30 54109 O 5208.58 -7.92858 -1.32785 0
M  V30 54110 H 5208.31 -0.531982 -0.417098 0
M  V30 54111 H 5210.87 -1.93371 -0.692601 0
M  V30 54112 H 5209.1 -2.10904 -3.24124 0
M  V30 54113 H 5210.79 -2.52332 -3.17936 0
M  V30 54114 H 5211.55 -4.53406 -1.72185 0
M  V30 54115 H 5207.43 -3.7575 -2.67083 0
M  V30 54116 H 5210.97 -6.87433 -1.18666 0
M  V30 54117 H 5206.87 -6.08991 -2.1401 0
M  V30 54118 H 5207.64 -8.05285 -1.46485 0
M  V30 54119 N 5210.3 0.811468 -1.35103 0
M  V30 54120 C 5211.53 1.59744 -1.31017 0
M  V30 54121 C 5211.94 1.88847 0.1155 0
M  V30 54122 O 5211.28 1.48857 1.07644 0
M  V30 54123 C 5211.35 2.95707 -2.04445 0
M  V30 54124 C 5211.01 2.89443 -3.53655 0
M  V30 54125 C 5212.01 2.63222 -4.48342 0
M  V30 54126 C 5209.69 3.08714 -3.96233 0
M  V30 54127 C 5211.69 2.5634 -5.83582 0
M  V30 54128 C 5209.37 3.01456 -5.31571 0
M  V30 54129 C 5210.37 2.75304 -6.25057 0
M  V30 54130 O 5210.06 2.68 -7.57912 0
M  V30 54131 H 5209.79 0.502873 -0.451768 0
M  V30 54132 H 5212.34 1.01681 -1.78466 0
M  V30 54133 H 5210.57 3.55734 -1.51626 0
M  V30 54134 H 5212.26 3.56809 -1.93499 0
M  V30 54135 H 5213.03 2.48057 -4.16765 0
M  V30 54136 H 5208.91 3.28082 -3.23856 0
M  V30 54137 H 5212.45 2.35848 -6.56522 0
M  V30 54138 H 5208.35 3.16177 -5.62763 0
M  V30 54139 H 5209.12 2.83643 -7.67782 0
M  V30 54140 N 5211.78 1.19021 1.03304 0
M  V30 54141 C 5212.71 0.947795 2.13399 0
M  V30 54142 C 5213.69 -0.117323 1.69695 0
M  V30 54143 O 5214.88 0.0368415 1.94165 0
M  V30 54144 C 5212.01 0.481098 3.43952 0
M  V30 54145 C 5210.96 1.48757 4.01317 0
M  V30 54146 C 5210.29 0.87811 5.2744 0
M  V30 54147 C 5211.59 2.86657 4.36606 0
M  V30 54148 H 5213.28 1.86854 2.33936 0
M  V30 54149 H 5210.83 0.899821 1.12424 0
M  V30 54150 H 5212.78 0.298825 4.20339 0
M  V30 54151 H 5211.5 -0.475234 3.23124 0
M  V30 54152 H 5210.16 1.65692 3.27019 0
M  V30 54153 H 5209.81 -0.0856464 5.02927 0
M  V30 54154 H 5209.51 1.55016 5.66784 0
M  V30 54155 H 5211.03 0.706539 6.06498 0
M  V30 54156 H 5212.45 2.7333 5.03948 0
M  V30 54157 H 5210.85 3.50616 4.8702 0
M  V30 54158 H 5211.92 3.39629 3.46093 0
M  V30 54159 N 5213.26 -1.22344 0.993461 0
M  V30 54160 C 5214.17 -2.27985 0.553156 0
M  V30 54161 C 5215.18 -1.69379 -0.398327 0
M  V30 54162 O 5216.36 -1.99649 -0.26502 0
M  V30 54163 C 5213.43 -3.46476 -0.124687 0
M  V30 54164 C 5212.49 -4.20396 0.86983 0
M  V30 54165 C 5211.72 -5.33229 0.224239 0
M  V30 54166 O 5211.94 -5.61888 -0.981718 0
M  V30 54167 O 5210.88 -5.94682 0.929383 0
M  V30 54168 H 5214.7 -2.67817 1.43205 0
M  V30 54169 H 5212.29 -1.28522 0.761739 0
M  V30 54170 H 5214.17 -4.18371 -0.504348 0
M  V30 54171 H 5212.84 -3.08568 -0.978135 0
M  V30 54172 H 5211.75 -3.5077 1.30044 0
M  V30 54173 H 5213.08 -4.62185 1.6925 0
M  V30 54174 N 5214.74 -0.766732 -1.37692 0
M  V30 54175 C 5215.96 -0.338787 -2.04614 0
M  V30 54176 C 5216.39 1.02913 -1.5745 0
M  V30 54177 O 5215.74 1.65846 -0.732445 0
M  V30 54178 C 5215.79 -0.38541 -3.58534 0
M  V30 54179 O 5214.9 0.615937 -4.07774 0
M  V30 54180 H 5214.24 -0.14755 -0.647399 0
M  V30 54181 H 5216.77 -1.04152 -1.76106 0
M  V30 54182 H 5216.78 -0.240925 -4.07288 0
M  V30 54183 H 5215.45 -1.38338 -3.92218 0
M  V30 54184 H 5214.03 0.434985 -3.70354 0
M  V30 54185 N 5216.21 1.48884 -0.516862 0
M  V30 54186 C 5217.49 1.95412 0.0857606 0
M  V30 54187 C 5217.87 1.4588 1.52585 0
M  V30 54188 O 5217.22 0.679492 2.18163 0
M  V30 54189 C 5217.43 3.48995 -0.0179421 0
M  V30 54190 C 5218.78 4.24342 0.147981 0
M  V30 54191 O 5219.8 3.56155 0.0564873 0
M  V30 54192 O 5218.66 5.45455 0.337844 0
M  V30 54193 H 5215.75 0.822458 0.0865595 0
M  V30 54194 H 5218.3 1.59461 -0.580528 0
M  V30 54195 H 5217.07 3.77729 -1.02161 0
M  V30 54196 H 5216.7 3.91606 0.687786 0
M  V30 54197 N 5217.69 0.251393 1.55582 0
M  V30 54198 C 5219.1 -0.250915 1.85006 0
M  V30 54199 C 5219.45 -1.57255 1.17326 0
M  V30 54200 O 5218.58 -2.11601 0.45321 0
M  V30 54201 C 5219.17 -0.462043 3.35635 0
M  V30 54202 C 5217.73 -0.908609 3.65269 0
M  V30 54203 C 5216.88 0.0116393 2.77298 0
M  V30 54204 H 5219.83 0.473836 1.51461 0
M  V30 54205 H 5219.85 -1.30402 3.57457 0
M  V30 54206 H 5219.36 0.500021 3.84865 0
M  V30 54207 H 5217.47 -1.88298 3.21519 0
M  V30 54208 H 5217.58 -0.76236 4.72996 0
M  V30 54209 H 5215.94 -0.500524 2.49734 0
M  V30 54210 H 5216.73 0.969158 3.29336 0
M  V30 54211 N 5219.17 -1.57585 -0.0216635 0
M  V30 54212 C 5220.41 -1.91459 -0.715735 0
M  V30 54213 C 5220.78 -0.850746 -1.72123 0
M  V30 54214 O 5221.98 -1.07405 -2.46409 0
M  V30 54215 C 5220.25 -3.30461 -1.36126 0
M  V30 54216 S 5221.81 -3.86183 -2.08346 0
M  V30 54217 H 5218.62 -0.670359 -0.236939 0
M  V30 54218 H 5221.23 -1.95477 0.0298198 0
M  V30 54219 H 5219.93 -4.05746 -0.616322 0
M  V30 54220 H 5219.46 -3.29764 -2.14521 0
M  V30 54221 H 5221.48 -3.65508 -3.35587 0
M  V30 54222 N 5220.65 0.294066 -1.54832 0
M  V30 54223 C 5221.58 1.36751 -1.89266 0
M  V30 54224 C 5222.56 1.52561 -0.752268 0
M  V30 54225 O 5223.75 1.65954 -1.0086 0
M  V30 54226 C 5220.88 2.73059 -2.14607 0
M  V30 54227 C 5219.83 2.72005 -3.3045 0
M  V30 54228 C 5219.16 4.11667 -3.41224 0
M  V30 54229 C 5220.46 2.33132 -4.67383 0
M  V30 54230 H 5222.15 1.08181 -2.79172 0
M  V30 54231 H 5219.7 0.518967 -1.34323 0
M  V30 54232 H 5221.65 3.48246 -2.37281 0
M  V30 54233 H 5220.37 3.03168 -1.21478 0
M  V30 54234 H 5219.03 1.99274 -3.0771 0
M  V30 54235 H 5218.68 4.38964 -2.456 0
M  V30 54236 H 5218.38 4.11862 -4.19098 0
M  V30 54237 H 5219.9 4.88625 -3.66167 0
M  V30 54238 H 5221.32 2.98037 -4.89741 0
M  V30 54239 H 5219.71 2.44527 -5.48021 0
M  V30 54240 H 5220.78 1.28258 -4.6763 0
M  V30 54241 N 5222.13 1.47406 0.557593 0
M  V30 54242 C 5223.37 1.5424 1.31673 0
M  V30 54243 C 5223.71 0.20385 1.93127 0
M  V30 54244 O 5222.98 -0.787473 1.77846 0
M  V30 54245 C 5223.26 2.66011 2.42714 0
M  V30 54246 C 5223.12 4.09482 1.86131 0
M  V30 54247 C 5224.44 2.73697 3.44642 0
M  V30 54248 H 5221.56 0.561483 0.477395 0
M  V30 54249 H 5224.2 1.79461 0.624004 0
M  V30 54250 H 5222.35 2.44637 3.01803 0
M  V30 54251 H 5224.02 4.42218 1.31306 0
M  V30 54252 H 5222.26 4.17778 1.16809 0
M  V30 54253 H 5222.93 4.83461 2.66401 0
M  V30 54254 H 5225.41 2.92978 2.95471 0
M  V30 54255 H 5224.29 3.53679 4.19764 0
M  V30 54256 H 5224.55 1.8074 4.03467 0
M  V30 54257 N 5223.61 -0.804292 1.35532 0
M  V30 54258 C 5224.85 -1.57484 1.303 0
M  V30 54259 C 5225.21 -1.91622 -0.12046 0
M  V30 54260 O 5226.41 -2.67152 -0.297171 0
M  V30 54261 C 5224.68 -2.82733 2.18625 0
M  V30 54262 S 5226.24 -3.73117 2.30931 0
M  V30 54263 H 5223.06 -0.539557 0.463033 0
M  V30 54264 H 5225.66 -0.948541 1.70947 0
M  V30 54265 H 5224.36 -2.55681 3.21023 0
M  V30 54266 H 5223.9 -3.50347 1.78943 0
M  V30 54267 H 5225.91 -4.73117 1.49582 0
M  V30 54268 N 5225.08 -1.19567 -1.02672 0
M  V30 54269 C 5226.03 -0.932017 -2.13111 0
M  V30 54270 C 5227.03 0.112948 -1.69023 0
M  V30 54271 O 5228.23 -0.0364931 -1.79963 0
M  V30 54272 H 5224.61 -0.284006 -0.696308 0
M  V30 54273 H 5226.58 -1.86999 -2.32538 0
M  V30 54274 C 5225.33 -0.489582 -3.44236 0
M  V30 54275 H 5224.65 -1.28521 -3.78579 0
M  V30 54276 H 5226.09 -0.344228 -4.226 0
M  V30 54277 C 5224.55 0.796646 -3.27346 0
M  V30 54278 O 5225.08 1.85755 -3.56171 0
M  V30 54279 N 5223.28 0.754725 -2.80628 0
M  V30 54280 H 5222.83 -0.108869 -2.5737 0
M  V30 54281 H 5222.79 1.6157 -2.69708 0
M  V30 54282 N 5226.56 1.21816 -0.999936 0
M  V30 54283 C 5227.51 2.26025 -0.549126 0
M  V30 54284 C 5228.5 1.64518 0.403768 0
M  V30 54285 O 5229.71 1.77879 0.275516 0
M  V30 54286 H 5226.08 0.734953 -0.159211 0
M  V30 54287 H 5228.06 2.61393 -1.43932 0
M  V30 54288 C 5226.8 3.47514 0.113568 0
M  V30 54289 H 5226.13 3.95109 -0.610621 0
M  V30 54290 H 5227.57 4.22181 0.392352 0
M  V30 54291 C 5226.03 3.08619 1.35115 0
M  V30 54292 O 5226.56 3.18648 2.44594 0
M  V30 54293 N 5224.76 2.63332 1.22901 0
M  V30 54294 H 5224.31 2.5537 0.338198 0
M  V30 54295 H 5224.27 2.37676 2.0581 0
M  V30 54296 N 5228.04 0.774023 1.37283 0
M  V30 54297 C 5229.45 0.404497 1.82265 0
M  V30 54298 C 5229.8 -1.06966 1.64477 0
M  V30 54299 O 5228.93 -1.82863 1.15715 0
M  V30 54300 C 5229.52 0.727415 3.30899 0
M  V30 54301 C 5228.08 0.410916 3.7415 0
M  V30 54302 C 5227.23 0.970074 2.59778 0
M  V30 54303 H 5230.18 0.968482 1.25722 0
M  V30 54304 H 5230.2 0.0128912 3.80498 0
M  V30 54305 H 5229.71 1.80038 3.43814 0
M  V30 54306 H 5227.81 -0.654641 3.66804 0
M  V30 54307 H 5227.93 0.920757 4.70169 0
M  V30 54308 H 5226.29 0.394182 2.51631 0
M  V30 54309 H 5227.07 2.04849 2.75485 0
M  V30 54310 N 5229.52 -1.48607 0.52475 0
M  V30 54311 C 5230.43 -2.33319 -0.244841 0
M  V30 54312 C 5231.44 -1.46156 -0.944163 0
M  V30 54313 O 5232.62 -1.79144 -0.920284 0
M  V30 54314 C 5229.68 -3.22153 -1.28133 0
M  V30 54315 C 5228.75 -4.25186 -0.592918 0
M  V30 54316 C 5227.98 -5.09775 -1.58002 0
M  V30 54317 O 5228.2 -4.96259 -2.81218 0
M  V30 54318 O 5227.14 -5.91344 -1.12229 0
M  V30 54319 H 5230.96 -3.0036 0.449171 0
M  V30 54320 H 5228.55 -1.46642 0.28574 0
M  V30 54321 H 5230.43 -3.77117 -1.88044 0
M  V30 54322 H 5229.1 -2.57779 -1.95784 0
M  V30 54323 H 5228.01 -3.74071 0.0465529 0
M  V30 54324 H 5229.34 -4.92182 0.0415624 0
M  V30 54325 N 5231 -0.25964 -1.55447 0
M  V30 54326 C 5232.24 0.362073 -1.99542 0
M  V30 54327 C 5232.57 1.56656 -1.14772 0
M  V30 54328 O 5231.85 1.93318 -0.214093 0
M  V30 54329 C 5232.13 0.759464 -3.52 0
M  V30 54330 C 5231.99 -0.451291 -4.4753 0
M  V30 54331 C 5233.3 1.60172 -4.09918 0
M  V30 54332 H 5230.42 0.130131 -0.72542 0
M  V30 54333 H 5233.07 -0.363496 -1.8649 0
M  V30 54334 H 5231.22 1.37767 -3.63253 0
M  V30 54335 H 5232.89 -1.0898 -4.48242 0
M  V30 54336 H 5231.13 -1.09214 -4.19827 0
M  V30 54337 H 5231.8 -0.129712 -5.51848 0
M  V30 54338 H 5234.28 1.07976 -4.01846 0
M  V30 54339 H 5233.15 1.84861 -5.16834 0
M  V30 54340 H 5233.41 2.57774 -3.59173 0
M  V30 54341 N 5232.47 1.57594 0.0133061 0
M  V30 54342 C 5233.88 1.7817 0.557874 0
M  V30 54343 C 5234.24 0.892677 1.74716 0
M  V30 54344 O 5233.36 0.0916251 2.16206 0
M  V30 54345 C 5233.96 3.23118 1.01882 0
M  V30 54346 C 5232.51 3.44837 1.50879 0
M  V30 54347 C 5231.66 2.73559 0.453948 0
M  V30 54348 H 5234.61 1.57265 -0.212898 0
M  V30 54349 H 5234.63 3.30499 1.88549 0
M  V30 54350 H 5234.15 3.87798 0.153039 0
M  V30 54351 H 5232.25 2.85354 2.39592 0
M  V30 54352 H 5232.36 4.5349 1.54543 0
M  V30 54353 H 5230.72 2.3779 0.912582 0
M  V30 54354 H 5231.51 3.40931 -0.402644 0
M  V30 54355 N 5233.95 -0.28585 1.54986 0
M  V30 54356 C 5235.2 -1.01914 1.74985 0
M  V30 54357 C 5235.53 -1.86741 0.543882 0
M  V30 54358 O 5234.78 -1.89875 -0.473905 0
M  V30 54359 C 5235.08 -1.94183 3.00046 0
M  V30 54360 C 5234.75 -1.2521 4.33167 0
M  V30 54361 C 5233.41 -1.06133 4.6935 0
M  V30 54362 C 5235.76 -0.760246 5.15626 0
M  V30 54363 C 5233.09 -0.365785 5.85559 0
M  V30 54364 C 5235.44 -0.0783564 6.32551 0
M  V30 54365 C 5234.11 0.124236 6.67384 0
M  V30 54366 H 5233.38 -0.372928 0.640317 0
M  V30 54367 H 5236.02 -0.292585 1.89252 0
M  V30 54368 H 5234.33 -2.73416 2.80626 0
M  V30 54369 H 5236.02 -2.51018 3.12716 0
M  V30 54370 H 5232.61 -1.41067 4.0472 0
M  V30 54371 H 5236.8 -0.895294 4.88158 0
M  V30 54372 H 5232.05 -0.197978 6.11079 0
M  V30 54373 H 5236.23 0.310584 6.95707 0
M  V30 54374 H 5233.86 0.665184 7.57284 0
M  V30 54375 N 5235.43 -1.477 -0.549768 0
M  V30 54376 C 5236.67 -1.5629 -1.3173 0
M  V30 54377 C 5237.03 -0.223109 -1.90699 0
M  V30 54378 O 5238.24 -0.183893 -2.6817 0
M  V30 54379 C 5236.51 -2.6553 -2.39225 0
M  V30 54380 S 5238.07 -2.93754 -3.25966 0
M  V30 54381 H 5234.88 -0.551811 -0.448359 0
M  V30 54382 H 5237.49 -1.8512 -0.628564 0
M  V30 54383 H 5236.19 -3.61464 -1.9435 0
M  V30 54384 H 5235.72 -2.38539 -3.1283 0
M  V30 54385 H 5237.74 -2.31537 -4.38868 0
M  V30 54386 N 5236.91 0.797093 -1.35957 0
M  V30 54387 C 5238.14 1.58346 -1.32703 0
M  V30 54388 C 5238.55 1.88959 0.0954633 0
M  V30 54389 O 5237.89 1.49991 1.06059 0
M  V30 54390 C 5237.95 2.93522 -2.0757 0
M  V30 54391 C 5237.62 2.85676 -3.56705 0
M  V30 54392 C 5238.61 2.58452 -4.51108 0
M  V30 54393 C 5236.3 3.04494 -3.99485 0
M  V30 54394 C 5238.29 2.50136 -5.86268 0
M  V30 54395 C 5235.98 2.95801 -5.34738 0
M  V30 54396 C 5236.98 2.68659 -6.27942 0
M  V30 54397 O 5236.66 2.59946 -7.60712 0
M  V30 54398 H 5236.4 0.498053 -0.457076 0
M  V30 54399 H 5238.95 0.997826 -1.79534 0
M  V30 54400 H 5237.18 3.54105 -1.5539 0
M  V30 54401 H 5238.87 3.54737 -1.97273 0
M  V30 54402 H 5239.64 2.43623 -4.19372 0
M  V30 54403 H 5235.51 3.24629 -3.27318 0
M  V30 54404 H 5239.06 2.28871 -6.58987 0
M  V30 54405 H 5234.96 3.10191 -5.66085 0
M  V30 54406 H 5235.72 2.75484 -7.70747 0
M  V30 54407 N 5238.39 1.2011 1.02036 0
M  V30 54408 C 5239.64 1.00322 1.74981 0
M  V30 54409 C 5239.95 -0.465747 1.89974 0
M  V30 54410 O 5241.15 -0.782658 2.59974 0
M  V30 54411 C 5239.61 1.74619 3.147 0
M  V30 54412 C 5239.22 3.25584 3.07732 0
M  V30 54413 C 5240.96 1.63186 3.91881 0
M  V30 54414 C 5238.87 3.92434 4.42436 0
M  V30 54415 H 5237.8 0.371751 0.655986 0
M  V30 54416 H 5240.45 1.43692 1.14126 0
M  V30 54417 H 5238.83 1.24034 3.76074 0
M  V30 54418 H 5240.01 3.83354 2.55688 0
M  V30 54419 H 5238.32 3.37388 2.44046 0
M  V30 54420 H 5240.92 2.10475 4.91533 0
M  V30 54421 H 5241.26 0.587425 4.12135 0
M  V30 54422 H 5241.79 2.11164 3.37127 0
M  V30 54423 H 5238.53 4.97013 4.27385 0
M  V30 54424 H 5238.05 3.39454 4.94501 0
M  V30 54425 H 5239.73 3.96471 5.11292 0
M  V30 54426 N 5239.86 -1.21284 1.00638 0
M  V30 54427 C 5240.81 -2.23703 0.567955 0
M  V30 54428 C 5241.78 -1.61044 -0.406696 0
M  V30 54429 O 5242.97 -1.88291 -0.308433 0
M  V30 54430 C 5240.11 -3.44961 -0.0978748 0
M  V30 54431 C 5239.22 -4.22087 0.92012 0
M  V30 54432 C 5238.35 -5.30717 0.226408 0
M  V30 54433 C 5237.39 -5.99576 1.23186 0
M  V30 54434 N 5236.53 -6.99819 0.565524 0
M  V30 54435 H 5241.37 -2.60566 1.44601 0
M  V30 54436 H 5238.91 -1.28047 0.724051 0
M  V30 54437 H 5240.87 -4.14182 -0.500951 0
M  V30 54438 H 5239.5 -3.08821 -0.939636 0
M  V30 54439 H 5238.55 -3.52033 1.44143 0
M  V30 54440 H 5239.86 -4.6947 1.68521 0
M  V30 54441 H 5239.01 -6.06254 -0.232704 0
M  V30 54442 H 5237.75 -4.84345 -0.571076 0
M  V30 54443 H 5236.76 -5.2281 1.70146 0
M  V30 54444 H 5237.98 -6.48035 2.03045 0
M  V30 54445 H 5235.93 -6.55656 -0.212278 0
M  V30 54446 H 5235.85 -7.45276 1.26885 0
M  V30 54447 H 5237.11 -7.79392 0.129663 0
M  V30 54448 N 5241.34 -0.781292 -1.36871 0
M  V30 54449 C 5242.27 -0.18821 -2.3274 0
M  V30 54450 C 5243.25 0.672271 -1.56251 0
M  V30 54451 O 5244.44 0.60777 -1.84445 0
M  V30 54452 C 5241.57 0.684221 -3.40493 0
M  V30 54453 C 5240.52 -0.0757146 -4.27933 0
M  V30 54454 C 5239.85 0.916783 -5.26782 0
M  V30 54455 C 5241.15 -1.26024 -5.06868 0
M  V30 54456 H 5242.84 -0.989116 -2.8259 0
M  V30 54457 H 5240.39 -0.477086 -1.35867 0
M  V30 54458 H 5242.34 1.10901 -4.06545 0
M  V30 54459 H 5241.07 1.51775 -2.89192 0
M  V30 54460 H 5239.72 -0.481386 -3.63426 0
M  V30 54461 H 5239.37 1.74512 -4.71757 0
M  V30 54462 H 5239.07 0.412794 -5.86148 0
M  V30 54463 H 5240.6 1.34031 -5.95708 0
M  V30 54464 H 5242.01 -0.911624 -5.66006 0
M  V30 54465 H 5240.41 -1.69696 -5.75607 0
M  V30 54466 H 5241.48 -2.05964 -4.38984 0
M  V30 54467 N 5242.82 1.48327 -0.532624 0
M  V30 54468 C 5244.05 2.074 -0.00155046 0
M  V30 54469 C 5244.47 1.3862 1.27146 0
M  V30 54470 O 5243.83 0.453011 1.75549 0
M  V30 54471 C 5243.88 3.6003 0.202739 0
M  V30 54472 O 5242.98 3.92331 1.27083 0
M  V30 54473 H 5242.32 0.662775 -0.0403116 0
M  V30 54474 H 5244.85 1.90699 -0.741291 0
M  V30 54475 H 5244.86 4.05785 0.42458 0
M  V30 54476 H 5243.54 4.09494 -0.727177 0
M  V30 54477 H 5242.11 3.58352 1.03143 0
M  V30 54478 N 5244.3 0.26788 1.55307 0
M  V30 54479 C 5245.52 -0.357416 2.04297 0
M  V30 54480 C 5245.95 -1.49218 1.14523 0
M  V30 54481 O 5245.31 -1.8074 0.142356 0
M  V30 54482 C 5245.35 -0.822775 3.51088 0
M  V30 54483 O 5244.46 -1.93065 3.64417 0
M  V30 54484 H 5243.8 -0.0750018 0.659751 0
M  V30 54485 H 5246.33 0.400067 2.00651 0
M  V30 54486 H 5246.34 -1.12046 3.92313 0
M  V30 54487 H 5245.01 0.00750241 4.15899 0
M  V30 54488 H 5243.59 -1.63606 3.35093 0
M  V30 54489 N 5245.78 -1.57599 -0.00494828 0
M  V30 54490 C 5247.03 -1.89531 -0.689995 0
M  V30 54491 C 5247.34 -0.869513 -1.75211 0
M  V30 54492 O 5248.54 -1.07888 -2.49143 0
M  V30 54493 C 5247 -3.3643 -1.2784 0
M  V30 54494 C 5246.61 -4.47294 -0.251374 0
M  V30 54495 C 5248.35 -3.77478 -1.94193 0
M  V30 54496 C 5246.26 -5.85267 -0.849494 0
M  V30 54497 H 5245.19 -0.707211 -0.261475 0
M  V30 54498 H 5247.84 -1.83418 0.0547854 0
M  V30 54499 H 5246.22 -3.37364 -2.07369 0
M  V30 54500 H 5247.4 -4.57868 0.518957 0
M  V30 54501 H 5245.71 -4.15234 0.311427 0
M  V30 54502 H 5248.31 -4.77893 -2.39838 0
M  V30 54503 H 5248.65 -3.10732 -2.7704 0
M  V30 54504 H 5249.18 -3.78821 -1.21405 0
M  V30 54505 H 5245.92 -6.55473 -0.0599104 0
M  V30 54506 H 5245.44 -5.78366 -1.5891 0
M  V30 54507 H 5247.12 -6.32767 -1.34962 0
M  V30 54508 N 5247.25 0.277627 -1.55135 0
M  V30 54509 C 5248.2 1.34306 -1.87698 0
M  V30 54510 C 5249.17 1.49295 -0.728026 0
M  V30 54511 O 5250.36 1.63777 -0.978864 0
M  V30 54512 C 5247.5 2.69914 -2.15035 0
M  V30 54513 C 5246.61 2.63185 -3.42575 0
M  V30 54514 C 5245.74 3.90942 -3.59636 0
M  V30 54515 C 5244.78 3.78705 -4.80884 0
M  V30 54516 N 5243.92 4.98286 -4.94627 0
M  V30 54517 H 5248.76 1.05837 -2.78572 0
M  V30 54518 H 5246.3 0.511421 -1.37924 0
M  V30 54519 H 5248.26 3.48809 -2.28884 0
M  V30 54520 H 5246.89 2.96596 -1.27401 0
M  V30 54521 H 5245.94 1.76026 -3.37222 0
M  V30 54522 H 5247.25 2.50041 -4.31603 0
M  V30 54523 H 5246.4 4.78277 -3.73277 0
M  V30 54524 H 5245.14 4.06948 -2.68784 0
M  V30 54525 H 5244.15 2.89752 -4.67251 0
M  V30 54526 H 5245.37 3.64222 -5.73166 0
M  V30 54527 H 5243.32 5.14711 -4.06705 0
M  V30 54528 H 5243.24 4.87655 -5.77693 0
M  V30 54529 H 5244.5 5.87207 -5.12649 0
M  V30 54530 N 5248.73 1.4799 0.541927 0
M  V30 54531 C 5249.98 1.55628 1.3003 0
M  V30 54532 C 5250.31 0.224322 1.929 0
M  V30 54533 O 5249.59 -0.768566 1.78671 0
M  V30 54534 C 5249.87 2.68571 2.39879 0
M  V30 54535 C 5249.72 4.11433 1.81778 0
M  V30 54536 C 5251.04 2.77337 3.4172 0
M  V30 54537 H 5248.16 0.566514 0.471413 0
M  V30 54538 H 5250.8 1.80113 0.604935 0
M  V30 54539 H 5248.95 2.47824 2.99191 0
M  V30 54540 H 5250.63 4.43586 1.26608 0
M  V30 54541 H 5248.87 4.18993 1.12371 0
M  V30 54542 H 5249.54 4.86259 2.61259 0
M  V30 54543 H 5252.02 2.96096 2.92347 0
M  V30 54544 H 5250.89 3.58112 4.15989 0
M  V30 54545 H 5251.15 1.85009 4.01527 0
M  V30 54546 N 5250.21 -0.789872 1.36377 0
M  V30 54547 C 5251.49 -1.53579 1.21131 0
M  V30 54548 C 5251.87 -2.10124 -0.202711 0
M  V30 54549 O 5251.22 -1.9394 -1.20829 0
M  V30 54550 C 5251.43 -2.63109 2.29291 0
M  V30 54551 C 5252.77 -3.31003 2.65936 0
M  V30 54552 O 5253.8 -2.73392 2.28331 0
M  V30 54553 O 5252.66 -4.35117 3.30658 0
M  V30 54554 H 5249.75 -0.679349 0.471607 0
M  V30 54555 H 5252.3 -0.828394 1.48107 0
M  V30 54556 H 5251.07 -2.19318 3.24061 0
M  V30 54557 H 5250.69 -3.41469 2.03678 0
M  V30 54558 N 5251.69 -1.20649 -1.01398 0
M  V30 54559 C 5252.92 -1.04395 -1.78632 0
M  V30 54560 C 5253.33 0.406706 -1.84367 0
M  V30 54561 O 5252.69 1.28234 -1.29855 0
M  V30 54562 C 5252.74 -1.6239 -3.22973 0
M  V30 54563 O 5252.46 -3.01779 -3.17586 0
M  V30 54564 C 5253.96 -1.51124 -4.16745 0
M  V30 54565 H 5251.18 -0.367096 -0.561677 0
M  V30 54566 H 5253.73 -1.59793 -1.27618 0
M  V30 54567 H 5251.88 -1.11105 -3.71126 0
M  V30 54568 H 5252.3 -3.29346 -4.08205 0
M  V30 54569 H 5253.77 -1.96459 -5.15856 0
M  V30 54570 H 5254.25 -0.464165 -4.3674 0
M  V30 54571 H 5254.85 -2.01612 -3.74476 0
M  V30 54572 N 5253.17 1.20748 -1.0128 0
M  V30 54573 C 5254.58 1.42081 -0.726984 0
M  V30 54574 C 5254.78 1.89141 0.69484 0
M  V30 54575 O 5253.84 2.05788 1.46313 0
M  V30 54576 C 5255.15 2.44569 -1.74947 0
M  V30 54577 C 5256.7 2.58341 -1.76717 0
M  V30 54578 C 5257.18 3.64068 -2.77882 0
M  V30 54579 N 5258.67 3.71548 -2.76598 0
M  V30 54580 C 5259.4 4.53003 -3.51533 0
M  V30 54581 N 5258.9 5.38293 -4.36133 0
M  V30 54582 N 5260.69 4.475 -3.40148 0
M  V30 54583 H 5252.84 0.88516 -1.93077 0
M  V30 54584 H 5255.1 0.451046 -0.833824 0
M  V30 54585 H 5254.81 2.1698 -2.76789 0
M  V30 54586 H 5254.68 3.43498 -1.5585 0
M  V30 54587 H 5257.07 2.85262 -0.755616 0
M  V30 54588 H 5257.15 1.59621 -1.99887 0
M  V30 54589 H 5256.8 3.37892 -3.79199 0
M  V30 54590 H 5256.73 4.62403 -2.51975 0
M  V30 54591 H 5259.22 3.10622 -2.15227 0
M  V30 54592 H 5259.53 5.97522 -4.90089 0
M  V30 54593 H 5257.88 5.37808 -4.40213 0
M  V30 54594 H 5261.07 3.79902 -2.73481 0
M  V30 54595 H 5261.24 5.10745 -3.98802 0
M  V30 54596 N 5254.65 0.78854 1.36454 0
M  V30 54597 C 5255.88 0.371896 2.03225 0
M  V30 54598 C 5256.28 -1.01621 1.59593 0
M  V30 54599 O 5255.63 -1.66297 0.780441 0
M  V30 54600 C 5255.69 0.355304 3.5774 0
M  V30 54601 C 5255.35 1.69084 4.2457 0
M  V30 54602 C 5256.35 2.64617 4.4752 0
M  V30 54603 C 5254.03 1.96989 4.62061 0
M  V30 54604 C 5256.03 3.8625 5.0704 0
M  V30 54605 C 5253.72 3.1889 5.21299 0
M  V30 54606 C 5254.71 4.13339 5.43728 0
M  V30 54607 O 5254.4 5.33091 6.01722 0
M  V30 54608 H 5254.13 0.151475 0.65881 0
M  V30 54609 H 5256.69 1.06833 1.7543 0
M  V30 54610 H 5254.92 -0.397618 3.8465 0
M  V30 54611 H 5256.61 -0.0365528 4.05884 0
M  V30 54612 H 5257.37 2.44344 4.18952 0
M  V30 54613 H 5253.25 1.24293 4.43928 0
M  V30 54614 H 5256.8 4.59984 5.24462 0
M  V30 54615 H 5252.69 3.39041 5.49292 0
M  V30 54616 H 5253.46 5.34143 6.20188 0
M  V30 54617 N 5256.12 -1.48042 0.540482 0
M  V30 54618 C 5257.35 -2.06895 0.0145881 0
M  V30 54619 C 5257.77 -1.39557 -1.27159 0
M  V30 54620 O 5257.12 -0.486516 -1.75896 0
M  V30 54621 C 5257.17 -3.60934 -0.202151 0
M  V30 54622 O 5256.9 -4.25745 1.03308 0
M  V30 54623 C 5258.4 -4.3661 -0.767234 0
M  V30 54624 H 5255.62 -0.669908 0.0382604 0
M  V30 54625 H 5258.16 -1.90285 0.749124 0
M  V30 54626 H 5256.32 -3.77114 -0.886765 0
M  V30 54627 H 5256.73 -5.18045 0.82035 0
M  V30 54628 H 5258.2 -5.45129 -0.868259 0
M  V30 54629 H 5258.68 -4.01751 -1.77462 0
M  V30 54630 H 5259.29 -4.25134 -0.118852 0
M  V30 54631 N 5257.6 -0.276112 -1.55162 0
M  V30 54632 C 5258.83 0.343701 -2.04025 0
M  V30 54633 C 5259.24 1.49393 -1.15444 0
M  V30 54634 O 5258.6 1.81661 -0.174756 0
M  V30 54635 C 5258.65 0.823762 -3.51989 0
M  V30 54636 O 5258.37 -0.280661 -4.372 0
M  V30 54637 C 5259.87 1.51129 -4.16743 0
M  V30 54638 H 5257.09 0.0782566 -0.666421 0
M  V30 54639 H 5259.64 -0.408498 -2.00379 0
M  V30 54640 H 5257.79 1.52605 -3.56077 0
M  V30 54641 H 5258.21 0.0885987 -5.24425 0
M  V30 54642 H 5259.68 1.7986 -5.21876 0
M  V30 54643 H 5260.16 2.44315 -3.64975 0
M  V30 54644 H 5260.76 0.852829 -4.16662 0
M  V30 54645 N 5259.08 1.576 -0.00340966 0
M  V30 54646 C 5260.31 1.94998 0.691616 0
M  V30 54647 C 5260.72 0.878464 1.67118 0
M  V30 54648 O 5260.08 -0.142279 1.81945 0
M  V30 54649 C 5260.13 3.32421 1.42051 0
M  V30 54650 O 5259.85 4.3546 0.480227 0
M  V30 54651 C 5261.35 3.84299 2.20973 0
M  V30 54652 H 5258.57 0.642821 0.192412 0
M  V30 54653 H 5261.12 2.04425 -0.0555425 0
M  V30 54654 H 5259.27 3.24292 2.11927 0
M  V30 54655 H 5259.69 5.14978 0.994873 0
M  V30 54656 H 5261.16 4.82873 2.67466 0
M  V30 54657 H 5261.64 3.17185 3.03793 0
M  V30 54658 H 5262.24 3.95614 1.56107 0
M  V30 54659 N 5260.56 -0.269396 1.5528 0
M  V30 54660 C 5261.49 -1.35546 1.84824 0
M  V30 54661 C 5262.5 -1.45367 0.732965 0
M  V30 54662 O 5263.69 -1.47119 1.01086 0
M  V30 54663 C 5260.79 -2.73637 1.99939 0
M  V30 54664 C 5259.96 -2.86364 3.30627 0
M  V30 54665 C 5259.02 -4.05154 3.35763 0
M  V30 54666 O 5258.05 -3.95741 4.09118 0
M  V30 54667 N 5259.25 -5.17288 2.63426 0
M  V30 54668 H 5262.02 -1.10547 2.78567 0
M  V30 54669 H 5259.58 -0.459512 1.55242 0
M  V30 54670 H 5261.57 -3.51404 2.00742 0
M  V30 54671 H 5260.14 -2.91444 1.13046 0
M  V30 54672 H 5259.36 -1.95453 3.42333 0
M  V30 54673 H 5260.65 -2.918 4.16809 0
M  V30 54674 H 5260.05 -5.27822 2.03519 0
M  V30 54675 H 5258.6 -5.93272 2.69947 0
M  V30 54676 N 5262.04 -1.48275 -0.534071 0
M  V30 54677 C 5262.97 -1.58576 -1.65488 0
M  V30 54678 C 5263.98 -0.470321 -1.55858 0
M  V30 54679 O 5265.17 -0.740986 -1.62394 0
M  V30 54680 C 5262.27 -1.49564 -3.04111 0
M  V30 54681 C 5261.44 -2.76078 -3.39264 0
M  V30 54682 C 5260.5 -2.60578 -4.5715 0
M  V30 54683 O 5259.53 -3.34454 -4.60575 0
M  V30 54684 N 5260.73 -1.69925 -5.55073 0
M  V30 54685 H 5263.49 -2.55231 -1.5709 0
M  V30 54686 H 5261.06 -1.44947 -0.721252 0
M  V30 54687 H 5263.05 -1.36896 -3.80843 0
M  V30 54688 H 5261.62 -0.609003 -3.0661 0
M  V30 54689 H 5260.84 -3.03341 -2.5175 0
M  V30 54690 H 5262.13 -3.60018 -3.59533 0
M  V30 54691 H 5261.52 -1.09099 -5.5508 0
M  V30 54692 H 5260.08 -1.63198 -6.31039 0
M  V30 54693 N 5263.51 0.782628 -1.36794 0
M  V30 54694 C 5264.76 1.54306 -1.31596 0
M  V30 54695 C 5265.09 1.93929 0.102628 0
M  V30 54696 O 5264.37 1.63237 1.05755 0
M  V30 54697 C 5264.65 2.81553 -2.24499 0
M  V30 54698 C 5264.5 2.48255 -3.75086 0
M  V30 54699 C 5265.82 3.83421 -2.16048 0
M  V30 54700 H 5262.94 0.559811 -0.479355 0
M  V30 54701 H 5265.58 0.898658 -1.67404 0
M  V30 54702 H 5263.73 3.36542 -1.94092 0
M  V30 54703 H 5265.41 1.99264 -4.16043 0
M  V30 54704 H 5263.65 1.81102 -3.94189 0
M  V30 54705 H 5264.32 3.39167 -4.35511 0
M  V30 54706 H 5266.8 3.37897 -2.42827 0
M  V30 54707 H 5265.67 4.70194 -2.83211 0
M  V30 54708 H 5265.93 4.26883 -1.14992 0
M  V30 54709 N 5264.99 1.21185 1.00757 0
M  V30 54710 C 5266.24 1.02904 1.74753 0
M  V30 54711 C 5266.57 -0.436707 1.89226 0
M  V30 54712 O 5265.85 -1.3241 1.42471 0
M  V30 54713 C 5266.13 1.72384 3.16158 0
M  V30 54714 C 5265.98 3.26461 3.09424 0
M  V30 54715 C 5267.3 1.4643 4.15026 0
M  V30 54716 H 5264.42 0.375236 0.634324 0
M  V30 54717 H 5267.06 1.49325 1.17482 0
M  V30 54718 H 5265.21 1.32918 3.65055 0
M  V30 54719 H 5266.88 3.75278 2.68261 0
M  V30 54720 H 5265.13 3.56897 2.4659 0
M  V30 54721 H 5265.8 3.7024 4.09422 0
M  V30 54722 H 5268.27 1.80684 3.74823 0
M  V30 54723 H 5267.15 1.97562 5.12114 0
M  V30 54724 H 5267.41 0.393765 4.40343 0
M  V30 54725 N 5266.47 -1.20209 1.01919 0
M  V30 54726 C 5267.42 -2.23088 0.59165 0
M  V30 54727 C 5268.39 -1.61466 -0.389592 0
M  V30 54728 O 5269.57 -1.88607 -0.288445 0
M  V30 54729 C 5266.71 -3.45046 -0.0612815 0
M  V30 54730 C 5265.83 -4.21088 0.964836 0
M  V30 54731 C 5264.96 -5.30447 0.282685 0
M  V30 54732 C 5264 -5.98236 1.29538 0
M  V30 54733 N 5263.14 -6.9918 0.639718 0
M  V30 54734 H 5267.98 -2.59018 1.47356 0
M  V30 54735 H 5265.51 -1.27271 0.737592 0
M  V30 54736 H 5267.47 -4.1469 -0.456994 0
M  V30 54737 H 5266.1 -3.09801 -0.906828 0
M  V30 54738 H 5265.15 -3.50484 1.47869 0
M  V30 54739 H 5266.47 -4.67656 1.73491 0
M  V30 54740 H 5265.62 -6.06466 -0.168389 0
M  V30 54741 H 5264.36 -4.84923 -0.519673 0
M  V30 54742 H 5263.36 -5.20976 1.75682 0
M  V30 54743 H 5264.59 -6.45845 2.09907 0
M  V30 54744 H 5262.53 -6.55845 -0.142725 0
M  V30 54745 H 5262.45 -7.43888 1.34782 0
M  V30 54746 H 5263.72 -7.79211 0.212321 0
M  V30 54747 N 5267.95 -0.795765 -1.36034 0
M  V30 54748 C 5268.88 -0.212884 -2.32528 0
M  V30 54749 C 5269.86 0.655661 -1.56956 0
M  V30 54750 O 5271.04 0.588173 -1.85079 0
M  V30 54751 C 5268.17 0.648069 -3.412 0
M  V30 54752 C 5267.13 -0.121098 -4.27829 0
M  V30 54753 C 5266.45 0.860859 -5.27725 0
M  V30 54754 C 5267.75 -1.31393 -5.05503 0
M  V30 54755 H 5269.45 -1.01903 -2.81525 0
M  V30 54756 H 5266.99 -0.49147 -1.35354 0
M  V30 54757 H 5268.95 1.06583 -4.07699 0
M  V30 54758 H 5267.67 1.48699 -2.90785 0
M  V30 54759 H 5266.33 -0.519905 -3.62895 0
M  V30 54760 H 5265.98 1.69498 -4.73581 0
M  V30 54761 H 5265.68 0.350602 -5.86553 0
M  V30 54762 H 5267.2 1.27705 -5.97096 0
M  V30 54763 H 5268.62 -0.971605 -5.65007 0
M  V30 54764 H 5267.01 -1.75792 -5.73775 0
M  V30 54765 H 5268.08 -2.10608 -4.36775 0
M  V30 54766 N 5269.43 1.47754 -0.548326 0
M  V30 54767 C 5270.68 2.01691 -0.018867 0
M  V30 54768 C 5270.99 1.42899 1.33564 0
M  V30 54769 O 5272.19 1.88445 1.95451 0
M  V30 54770 C 5270.65 3.59896 0.0167205 0
M  V30 54771 C 5270.26 4.27678 -1.334 0
M  V30 54772 C 5272 4.21615 0.49404 0
M  V30 54773 C 5269.91 5.77865 -1.258 0
M  V30 54774 H 5268.84 0.753993 -0.00328299 0
M  V30 54775 H 5271.49 1.69835 -0.694851 0
M  V30 54776 H 5269.87 3.88674 0.758168 0
M  V30 54777 H 5271.05 4.10552 -2.09246 0
M  V30 54778 H 5269.36 3.77909 -1.74854 0
M  V30 54779 H 5271.96 5.31662 0.569155 0
M  V30 54780 H 5272.3 3.88181 1.50403 0
M  V30 54781 H 5272.83 3.97335 -0.192278 0
M  V30 54782 H 5269.57 6.15904 -2.24372 0
M  V30 54783 H 5269.09 5.97353 -0.541207 0
M  V30 54784 H 5270.77 6.39893 -0.956334 0
M  V30 54785 N 5270.9 0.284337 1.55014 0
M  V30 54786 C 5272.15 -0.329142 1.99402 0
M  V30 54787 C 5272.47 -1.55683 1.17422 0
M  V30 54788 O 5271.74 -1.94086 0.266005 0
M  V30 54789 H 5270.32 -0.124604 0.736534 0
M  V30 54790 H 5272.99 0.39181 1.90921 0
M  V30 54791 H 5272.08 -0.612672 3.06027 0
M  V30 54792 N 5272.38 -1.57596 0.0117675 0
M  V30 54793 C 5273.61 -1.95766 -0.68487 0
M  V30 54794 C 5274.03 -0.887343 -1.65855 0
M  V30 54795 O 5273.39 0.153444 -1.80649 0
M  V30 54796 C 5273.44 -3.33036 -1.38273 0
M  V30 54797 O 5272.54 -3.28172 -2.49754 0
M  V30 54798 H 5271.88 -0.638773 -0.181287 0
M  V30 54799 H 5274.41 -2.04485 0.0684602 0
M  V30 54800 H 5274.42 -3.68872 -1.74349 0
M  V30 54801 H 5273.1 -4.10486 -0.668899 0
M  V30 54802 H 5271.68 -3.04029 -2.15919 0
M  V30 54803 N 5273.86 0.261157 -1.55421 0
M  V30 54804 C 5274.81 1.32564 -1.85501 0
M  V30 54805 C 5275.79 1.44152 -0.714773 0
M  V30 54806 O 5276.99 1.47634 -0.976388 0
M  V30 54807 C 5274.12 2.68377 -2.14077 0
M  V30 54808 C 5273.2 2.60852 -3.34391 0
M  V30 54809 N 5273.59 2.22951 -4.54012 0
M  V30 54810 C 5271.89 2.91892 -3.37217 0
M  V30 54811 C 5272.59 2.25708 -5.36126 0
M  V30 54812 N 5271.57 2.6465 -4.74828 0
M  V30 54813 H 5275.37 1.02288 -2.75526 0
M  V30 54814 H 5272.88 0.469794 -1.55456 0
M  V30 54815 H 5274.88 3.4518 -2.33786 0
M  V30 54816 H 5273.54 2.99532 -1.25343 0
M  V30 54817 H 5274.55 1.94731 -4.79896 0
M  V30 54818 H 5271.23 3.27681 -2.58711 0
M  V30 54819 H 5272.62 1.98866 -6.41796 0
M  V30 54820 N 5275.34 1.48556 0.526201 0
M  V30 54821 C 5276.57 1.60434 1.30647 0
M  V30 54822 C 5276.98 0.266029 1.86916 0
M  V30 54823 O 5276.34 -0.745203 1.66592 0
M  V30 54824 C 5276.39 2.65386 2.45464 0
M  V30 54825 O 5276.11 3.94023 1.91513 0
M  V30 54826 C 5277.61 2.87738 3.37227 0
M  V30 54827 H 5274.83 0.540831 0.397168 0
M  V30 54828 H 5277.38 1.94411 0.634392 0
M  V30 54829 H 5275.53 2.34257 3.08549 0
M  V30 54830 H 5275.94 4.51633 2.66699 0
M  V30 54831 H 5277.42 3.64965 4.14131 0
M  V30 54832 H 5277.9 1.96702 3.92689 0
M  V30 54833 H 5278.5 3.20186 2.79931 0
M  V30 54834 N 5276.82 -0.775363 1.37207 0
M  V30 54835 C 5278.07 -1.52905 1.31541 0
M  V30 54836 C 5278.38 -1.9535 -0.0988687 0
M  V30 54837 O 5279.58 -2.70073 -0.277984 0
M  V30 54838 C 5278.04 -2.76092 2.3087 0
M  V30 54839 C 5277.65 -2.4076 3.77808 0
M  V30 54840 C 5279.39 -3.54044 2.34208 0
M  V30 54841 C 5277.3 -3.60428 4.68877 0
M  V30 54842 H 5276.23 -0.574044 0.488866 0
M  V30 54843 H 5278.88 -0.849585 1.62648 0
M  V30 54844 H 5277.26 -3.4591 1.92776 0
M  V30 54845 H 5278.44 -1.78749 4.24718 0
M  V30 54846 H 5276.75 -1.7599 3.77381 0
M  V30 54847 H 5279.35 -4.42981 2.99452 0
M  V30 54848 H 5279.69 -3.93644 1.35463 0
M  V30 54849 H 5280.22 -2.9122 2.70991 0
M  V30 54850 H 5276.96 -3.25912 5.68737 0
M  V30 54851 H 5276.48 -4.21556 4.26674 0
M  V30 54852 H 5278.16 -4.27285 4.85836 0
M  V30 54853 N 5278.3 -1.21718 -1.00112 0
M  V30 54854 C 5279.52 -1.06363 -1.7805 0
M  V30 54855 C 5279.95 0.38201 -1.8418 0
M  V30 54856 O 5279.3 1.2757 -1.28823 0
M  V30 54857 C 5279.35 -1.66993 -3.19602 0
M  V30 54858 O 5278.46 -0.918034 -4.02052 0
M  V30 54859 H 5277.8 -0.374094 -0.548589 0
M  V30 54860 H 5280.33 -1.61342 -1.25816 0
M  V30 54861 H 5280.34 -1.71376 -3.70262 0
M  V30 54862 H 5279.01 -2.72196 -3.14455 0
M  V30 54863 H 5277.59 -0.949599 -3.60606 0
M  V30 54864 N 5279.77 1.19667 -1.02555 0
M  V30 54865 C 5280.72 2.22771 -0.603472 0
M  V30 54866 C 5281.69 1.61671 0.381024 0
M  V30 54867 O 5282.88 1.88757 0.278439 0
M  V30 54868 C 5280.02 3.45073 0.0429821 0
M  V30 54869 C 5279.13 4.2057 -0.987154 0
M  V30 54870 C 5278.26 5.3029 -0.310812 0
M  V30 54871 C 5277.3 5.97541 -1.32709 0
M  V30 54872 N 5276.44 6.9883 -0.676788 0
M  V30 54873 H 5281.28 2.58232 -1.48728 0
M  V30 54874 H 5278.82 1.26878 -0.744331 0
M  V30 54875 H 5280.77 4.14926 0.434995 0
M  V30 54876 H 5279.4 3.10277 0.890386 0
M  V30 54877 H 5278.46 3.49695 -1.49726 0
M  V30 54878 H 5279.77 4.6673 -1.75969 0
M  V30 54879 H 5278.92 6.06547 0.136225 0
M  V30 54880 H 5277.66 4.85192 0.493949 0
M  V30 54881 H 5276.67 5.20037 -1.78442 0
M  V30 54882 H 5277.89 6.44723 -2.13329 0
M  V30 54883 H 5275.84 6.55911 0.107942 0
M  V30 54884 H 5275.75 7.43163 -1.38725 0
M  V30 54885 H 5277.02 7.79087 -0.253641 0
M  V30 54886 N 5281.25 0.802969 1.3561 0
M  V30 54887 C 5282.5 0.382211 1.99166 0
M  V30 54888 C 5282.83 -1.04698 1.6356 0
M  V30 54889 O 5282.11 -1.72575 0.897121 0
M  V30 54890 C 5282.39 0.561618 3.55693 0
M  V30 54891 C 5282.24 2.03548 4.01109 0
M  V30 54892 C 5283.56 -0.0149588 4.40097 0
M  V30 54893 H 5280.68 0.140348 0.723513 0
M  V30 54894 H 5283.32 1.01183 1.60817 0
M  V30 54895 H 5281.47 0.0256449 3.88492 0
M  V30 54896 H 5283.14 2.63356 3.78736 0
M  V30 54897 H 5281.39 2.53323 3.52151 0
M  V30 54898 H 5282.06 2.11191 5.10002 0
M  V30 54899 H 5284.53 0.442727 4.13738 0
M  V30 54900 H 5283.41 0.140509 5.4872 0
M  V30 54901 H 5283.67 -1.10833 4.27982 0
M  V30 54902 N 5282.73 -1.47461 0.556154 0
M  V30 54903 C 5283.96 -2.06868 0.0365312 0
M  V30 54904 C 5284.37 -1.40897 -1.25672 0
M  V30 54905 O 5283.73 -0.505145 -1.7537 0
M  V30 54906 C 5283.78 -3.61128 -0.163857 0
M  V30 54907 O 5283.5 -4.24626 1.07818 0
M  V30 54908 C 5285 -4.37399 -0.720882 0
M  V30 54909 H 5282.22 -0.669465 0.0453635 0
M  V30 54910 H 5284.77 -1.8948 0.769264 0
M  V30 54911 H 5282.92 -3.78034 -0.846717 0
M  V30 54912 H 5283.34 -5.17146 0.875249 0
M  V30 54913 H 5284.81 -5.46019 -0.810392 0
M  V30 54914 H 5285.29 -4.0361 -1.73191 0
M  V30 54915 H 5285.89 -4.25236 -0.0737545 0
M  V30 54916 N 5284.21 -0.292554 -1.54861 0
M  V30 54917 C 5285.45 0.319666 -2.00265 0
M  V30 54918 C 5285.79 1.54186 -1.18069 0
M  V30 54919 O 5285.06 1.9282 -0.25505 0
M  V30 54920 C 5285.34 0.684629 -3.53532 0
M  V30 54921 C 5285.2 -0.546118 -4.46472 0
M  V30 54922 C 5286.52 1.51441 -4.13223 0
M  V30 54923 H 5283.64 0.114715 -0.728018 0
M  V30 54924 H 5286.28 -0.402972 -1.85678 0
M  V30 54925 H 5284.43 1.30031 -3.66093 0
M  V30 54926 H 5286.1 -1.18464 -4.4583 0
M  V30 54927 H 5284.34 -1.18095 -4.17416 0
M  V30 54928 H 5285.01 -0.246737 -5.51448 0
M  V30 54929 H 5287.49 0.994279 -4.04046 0
M  V30 54930 H 5286.37 1.73856 -5.20639 0
M  V30 54931 H 5286.63 2.50098 -3.64559 0
M  V30 54932 N 5285.69 1.57587 -0.020125 0
M  V30 54933 C 5286.63 2.09671 0.964717 0
M  V30 54934 C 5287.6 0.996687 1.32873 0
M  V30 54935 O 5288.79 1.27035 1.42362 0
M  V30 54936 C 5285.93 2.62108 2.24484 0
M  V30 54937 C 5285.04 3.86086 1.93807 0
M  V30 54938 C 5284.18 4.2695 3.16049 0
M  V30 54939 C 5283.21 5.4371 2.8115 0
M  V30 54940 N 5282.35 5.79773 3.95989 0
M  V30 54941 H 5287.19 2.9354 0.513647 0
M  V30 54942 H 5284.73 1.45097 0.241949 0
M  V30 54943 H 5286.69 2.90597 2.99348 0
M  V30 54944 H 5285.32 1.81084 2.67224 0
M  V30 54945 H 5284.37 3.64382 1.09224 0
M  V30 54946 H 5285.68 4.71034 1.64098 0
M  V30 54947 H 5284.83 4.56828 3.99241 0
M  V30 54948 H 5283.57 3.40752 3.48912 0
M  V30 54949 H 5282.58 5.13536 1.96369 0
M  V30 54950 H 5283.8 6.31601 2.49513 0
M  V30 54951 H 5281.75 4.96531 4.28711 0
M  V30 54952 H 5281.67 6.5934 3.69873 0
M  V30 54953 H 5282.93 6.14252 4.79911 0
M  V30 54954 N 5287.16 -0.252911 1.55557 0
M  V30 54955 C 5288.41 -0.979674 1.7631 0
M  V30 54956 C 5288.73 -1.86712 0.582936 0
M  V30 54957 O 5289.93 -2.63018 0.67334 0
M  V30 54958 C 5288.39 -1.79194 3.12118 0
M  V30 54959 C 5288 -0.952179 4.37764 0
M  V30 54960 C 5289.74 -2.51179 3.42212 0
M  V30 54961 C 5287.65 -1.75998 5.64605 0
M  V30 54962 H 5286.58 -0.369515 0.657248 0
M  V30 54963 H 5289.23 -0.234555 1.81995 0
M  V30 54964 H 5287.61 -2.57878 3.00525 0
M  V30 54965 H 5288.78 -0.208089 4.6033 0
M  V30 54966 H 5287.1 -0.345936 4.14961 0
M  V30 54967 H 5289.7 -3.12059 4.34193 0
M  V30 54968 H 5290.04 -3.2249 2.6326 0
M  V30 54969 H 5290.57 -1.7951 3.54994 0
M  V30 54970 H 5287.31 -1.09073 6.46362 0
M  V30 54971 H 5286.83 -2.47951 5.4615 0
M  V30 54972 H 5288.51 -2.32863 6.03642 0
M  V30 54973 N 5288.64 -1.48833 -0.518315 0
M  V30 54974 C 5289.89 -1.57133 -1.27098 0
M  V30 54975 C 5290.21 -0.252166 -1.93363 0
M  V30 54976 O 5289.48 0.727217 -1.81902 0
M  V30 54977 H 5288.06 -0.578908 -0.472096 0
M  V30 54978 H 5290.72 -1.85363 -0.602196 0
M  V30 54979 H 5289.82 -2.35845 -2.0441 0
M  V30 54980 N 5290.12 0.768075 -1.37617 0
M  V30 54981 C 5291.4 1.51633 -1.23559 0
M  V30 54982 C 5291.78 2.1042 0.169257 0
M  V30 54983 O 5291.12 1.95838 1.17728 0
M  V30 54984 C 5291.33 2.59428 -2.33448 0
M  V30 54985 C 5292.68 3.26731 -2.71168 0
M  V30 54986 O 5293.71 2.69725 -2.32652 0
M  V30 54987 O 5292.57 4.29802 -3.37539 0
M  V30 54988 H 5289.66 0.671761 -0.482355 0
M  V30 54989 H 5292.21 0.804726 -1.49406 0
M  V30 54990 H 5290.98 2.14134 -3.27509 0
M  V30 54991 H 5290.6 3.38185 -2.09085 0
M  V30 54992 N 5291.6 1.22247 0.994655 0
M  V30 54993 C 5292.53 1.01521 2.10276 0
M  V30 54994 C 5293.51 -0.0632768 1.69982 0
M  V30 54995 O 5294.69 0.098595 1.9395 0
M  V30 54996 C 5291.82 0.59028 3.42247 0
M  V30 54997 C 5290.78 1.6145 3.96381 0
M  V30 54998 C 5290.1 1.04547 5.2438 0
M  V30 54999 C 5291.4 3.00403 4.27265 0
M  V30 55000 H 5293.1 1.94202 2.27873 0
M  V30 55001 H 5290.64 0.935132 1.09505 0
M  V30 55002 H 5292.6 0.432402 4.19176 0
M  V30 55003 H 5291.32 -0.372194 3.24472 0
M  V30 55004 H 5289.98 1.76012 3.21583 0
M  V30 55005 H 5289.63 0.0743994 5.02945 0
M  V30 55006 H 5289.33 1.72969 5.61565 0
M  V30 55007 H 5290.85 0.899134 6.03944 0
M  V30 55008 H 5292.27 2.89224 4.94997 0
M  V30 55009 H 5290.66 3.65933 4.75619 0
M  V30 55010 H 5291.73 3.50468 3.35113 0
M  V30 55011 N 5293.08 -1.19122 1.03188 0
M  V30 55012 C 5294.02 -2.22448 0.615278 0
M  V30 55013 C 5294.99 -1.61871 -0.372445 0
M  V30 55014 O 5296.18 -1.88902 -0.268425 0
M  V30 55015 C 5293.32 -3.45091 -0.0246814 0
M  V30 55016 C 5292.43 -4.20041 1.00944 0
M  V30 55017 C 5291.57 -5.30118 0.33893 0
M  V30 55018 C 5290.61 -5.96828 1.35876 0
M  V30 55019 N 5289.74 -6.98462 0.713839 0
M  V30 55020 H 5294.58 -2.5744 1.50095 0
M  V30 55021 H 5292.12 -1.26482 0.751049 0
M  V30 55022 H 5294.08 -4.15151 -0.412985 0
M  V30 55023 H 5292.71 -3.10745 -0.873919 0
M  V30 55024 H 5291.76 -3.48896 1.51578 0
M  V30 55025 H 5293.07 -4.6579 1.78441 0
M  V30 55026 H 5292.23 -6.06611 -0.104056 0
M  V30 55027 H 5290.96 -4.85447 -0.468211 0
M  V30 55028 H 5289.97 -5.19083 1.81198 0
M  V30 55029 H 5291.19 -6.43583 2.16745 0
M  V30 55030 H 5289.14 -6.55959 -0.0731557 0
M  V30 55031 H 5289.06 -7.42417 1.42664 0
M  V30 55032 H 5290.33 -7.78942 0.294955 0
M  V30 55033 N 5294.55 -0.810149 -1.35183 0
M  V30 55034 C 5295.97 -0.494322 -1.51752 0
M  V30 55035 C 5296.17 0.983845 -1.75849 0
M  V30 55036 O 5295.23 1.76876 -1.80198 0
M  V30 55037 C 5296.54 -1.34277 -2.69054 0
M  V30 55038 C 5298.09 -1.33858 -2.82933 0
M  V30 55039 C 5298.56 -2.17123 -4.03264 0
M  V30 55040 N 5300.05 -2.14678 -4.10448 0
M  V30 55041 C 5300.79 -2.7586 -5.02681 0
M  V30 55042 N 5300.28 -3.45983 -6.00223 0
M  V30 55043 N 5302.08 -2.65483 -4.95455 0
M  V30 55044 H 5294.23 -1.76741 -1.17799 0
M  V30 55045 H 5296.49 -0.752449 -0.57665 0
M  V30 55046 H 5296.2 -2.39193 -2.57837 0
M  V30 55047 H 5296.07 -0.99849 -3.63744 0
M  V30 55048 H 5298.46 -0.297264 -2.93599 0
M  V30 55049 H 5298.54 -1.72276 -1.89089 0
M  V30 55050 H 5298.18 -3.21297 -3.93358 0
M  V30 55051 H 5298.11 -1.76063 -4.96296 0
M  V30 55052 H 5300.6 -1.6366 -3.40623 0
M  V30 55053 H 5300.92 -3.89945 -6.67205 0
M  V30 55054 H 5299.26 -3.50088 -6.00386 0
M  V30 55055 H 5302.45 -2.10285 -4.18208 0
M  V30 55056 H 5302.63 -3.13453 -5.67143 0
M  V30 55057 N 5296.03 1.47164 -0.563966 0
M  V30 55058 C 5297.26 2.06845 -0.0475014 0
M  V30 55059 C 5297.68 1.41562 1.24923 0
M  V30 55060 O 5297.03 0.514438 1.75099 0
M  V30 55061 C 5297.08 3.6121 0.144704 0
M  V30 55062 O 5296.8 4.24048 -1.10068 0
M  V30 55063 C 5298.31 4.37775 0.697676 0
M  V30 55064 H 5295.53 0.669215 -0.0489132 0
M  V30 55065 H 5298.07 1.89069 -0.779302 0
M  V30 55066 H 5296.22 3.78477 0.826657 0
M  V30 55067 H 5296.64 5.16674 -0.902662 0
M  V30 55068 H 5298.11 5.46441 0.781423 0
M  V30 55069 H 5298.59 4.04523 1.71048 0
M  V30 55070 H 5299.2 4.25269 0.0512021 0
M  V30 55071 N 5297.51 0.300763 1.54704 0
M  V30 55072 C 5298.46 -0.575442 2.23511 0
M  V30 55073 C 5299.43 -1.12975 1.21762 0
M  V30 55074 O 5300.61 -1.17432 1.50381 0
M  V30 55075 C 5297.75 -1.74157 2.97932 0
M  V30 55076 C 5296.87 -1.21867 4.14454 0
M  V30 55077 C 5296 -2.34865 4.76458 0
M  V30 55078 C 5295.04 -1.79708 5.85125 0
M  V30 55079 N 5294.18 -2.86278 6.41085 0
M  V30 55080 H 5299.02 0.0179305 2.97995 0
M  V30 55081 H 5296.55 0.0206183 1.47086 0
M  V30 55082 H 5298.51 -2.42742 3.39312 0
M  V30 55083 H 5297.14 -2.30657 2.25825 0
M  V30 55084 H 5296.19 -0.425094 3.78017 0
M  V30 55085 H 5297.51 -0.774892 4.92744 0
M  V30 55086 H 5296.66 -3.11397 5.20689 0
M  V30 55087 H 5295.4 -2.8257 3.97499 0
M  V30 55088 H 5294.4 -1.01665 5.40319 0
M  V30 55089 H 5295.63 -1.32908 6.65967 0
M  V30 55090 H 5293.57 -3.33317 5.6501 0
M  V30 55091 H 5293.49 -2.46394 7.14721 0
M  V30 55092 H 5294.76 -3.62708 6.89973 0
M  V30 55093 N 5298.99 -1.57574 0.028482 0
M  V30 55094 C 5299.92 -2.05687 -0.988329 0
M  V30 55095 C 5300.9 -0.952515 -1.3178 0
M  V30 55096 O 5302.08 -1.22279 -1.43457 0
M  V30 55097 C 5299.21 -2.4784 -2.30853 0
M  V30 55098 C 5298.26 -3.6929 -2.13371 0
M  V30 55099 S 5299.09 -5.15967 -1.43313 0
M  V30 55100 C 5300.25 -5.61414 -2.76704 0
M  V30 55101 H 5300.48 -2.91612 -0.578771 0
M  V30 55102 H 5298.01 -1.53309 -0.18319 0
M  V30 55103 H 5299.97 -2.72791 -3.0675 0
M  V30 55104 H 5298.63 -1.62263 -2.68942 0
M  V30 55105 H 5297.82 -3.96629 -3.10969 0
M  V30 55106 H 5297.43 -3.44487 -1.45617 0
M  V30 55107 H 5299.72 -5.65614 -3.72943 0
M  V30 55108 H 5300.66 -6.60965 -2.5403 0
M  V30 55109 H 5301.07 -4.89061 -2.81921 0
M  V30 55110 N 5300.47 0.244658 -1.55689 0
M  V30 55111 C 5301.71 0.973824 -1.77889 0
M  V30 55112 C 5302.05 1.84888 -0.594136 0
M  V30 55113 O 5301.32 1.90183 0.407497 0
M  V30 55114 C 5301.6 1.83244 -3.0999 0
M  V30 55115 C 5301.46 0.985417 -4.38873 0
M  V30 55116 C 5302.78 2.81452 -3.38339 0
M  V30 55117 H 5299.89 0.352606 -0.647177 0
M  V30 55118 H 5302.54 0.244177 -1.88424 0
M  V30 55119 H 5300.69 2.45453 -3.01139 0
M  V30 55120 H 5302.36 0.381844 -4.59717 0
M  V30 55121 H 5300.6 0.289868 -4.3283 0
M  V30 55122 H 5301.27 1.62004 -5.27692 0
M  V30 55123 H 5303.75 2.29378 -3.47167 0
M  V30 55124 H 5302.62 3.38648 -4.31983 0
M  V30 55125 H 5302.89 3.58028 -2.59362 0
M  V30 55126 N 5301.94 1.49106 0.510415 0
M  V30 55127 C 5303.36 1.3566 0.840749 0
M  V30 55128 C 5303.56 0.382494 1.97836 0
M  V30 55129 O 5302.62 -0.189242 2.5179 0
M  V30 55130 C 5303.93 2.76159 1.18983 0
M  V30 55131 C 5305.48 2.84791 1.29858 0
M  V30 55132 C 5305.95 4.26036 1.681 0
M  V30 55133 N 5307.44 4.28802 1.75166 0
M  V30 55134 C 5308.18 5.35048 2.06181 0
M  V30 55135 N 5307.67 6.51551 2.35485 0
M  V30 55136 N 5309.47 5.22457 2.07353 0
M  V30 55137 H 5301.62 2.11041 -0.239894 0
M  V30 55138 H 5303.88 0.946945 -0.0447157 0
M  V30 55139 H 5303.59 3.49094 0.427361 0
M  V30 55140 H 5303.46 3.1093 2.13548 0
M  V30 55141 H 5305.85 2.12099 2.05178 0
M  V30 55142 H 5305.93 2.53614 0.333669 0
M  V30 55143 H 5305.57 4.99251 0.933336 0
M  V30 55144 H 5305.5 4.5467 2.65675 0
M  V30 55145 H 5307.99 3.44776 1.54718 0
M  V30 55146 H 5308.31 7.28351 2.58312 0
M  V30 55147 H 5306.65 6.54793 2.32962 0
M  V30 55148 H 5309.84 4.3045 1.8393 0
M  V30 55149 H 5310.02 6.05355 2.31191 0
M  V30 55150 N 5303.42 -0.760766 1.38022 0
M  V30 55151 C 5304.65 -1.54996 1.37054 0
M  V30 55152 C 5305.07 -1.88754 -0.0414598 0
M  V30 55153 O 5304.42 -1.52257 -1.00618 0
M  V30 55154 C 5304.47 -2.85352 2.21938 0
M  V30 55155 O 5304.19 -2.53037 3.57637 0
M  V30 55156 C 5305.7 -3.79528 2.29071 0
M  V30 55157 H 5302.92 -0.479828 0.469048 0
M  V30 55158 H 5305.46 -0.942084 1.81508 0
M  V30 55159 H 5303.61 -3.42535 1.80965 0
M  V30 55160 H 5304.03 -3.3659 4.02253 0
M  V30 55161 H 5305.5 -4.67967 2.92765 0
M  V30 55162 H 5305.98 -4.19449 1.30228 0
M  V30 55163 H 5306.59 -3.28271 2.70404 0
M  V30 55164 N 5304.9 -1.22773 -0.988158 0
M  V30 55165 C 5306.15 -1.04926 -1.7226 0
M  V30 55166 C 5306.46 0.415215 -1.91142 0
M  V30 55167 O 5307.67 0.713455 -2.61958 0
M  V30 55168 C 5306.12 -1.82902 -3.0996 0
M  V30 55169 C 5305.73 -3.33629 -2.98992 0
M  V30 55170 C 5307.48 -1.73519 -3.87416 0
M  V30 55171 C 5305.38 -4.04027 -4.31875 0
M  V30 55172 H 5304.31 -0.389013 -0.645899 0
M  V30 55173 H 5306.96 -1.46668 -1.10276 0
M  V30 55174 H 5305.35 -1.33961 -3.72653 0
M  V30 55175 H 5306.52 -3.89998 -2.45434 0
M  V30 55176 H 5304.84 -3.4374 -2.35014 0
M  V30 55177 H 5307.43 -2.23433 -4.8578 0
M  V30 55178 H 5307.78 -0.696488 -4.10432 0
M  V30 55179 H 5308.31 -2.20028 -3.3141 0
M  V30 55180 H 5305.05 -5.0817 -4.14058 0
M  V30 55181 H 5304.57 -3.52445 -4.85327 0
M  V30 55182 H 5306.25 -4.09888 -5.00601 0
M  V30 55183 N 5306.38 1.18573 -1.03818 0
M  V30 55184 C 5307.33 2.24164 -0.620756 0
M  V30 55185 C 5308.32 1.65719 0.351223 0
M  V30 55186 O 5309.53 1.78665 0.218785 0
M  V30 55187 H 5305.9 0.729516 -0.182513 0
M  V30 55188 H 5307.87 2.56681 -1.52175 0
M  V30 55189 C 5306.62 3.477 0.00295108 0
M  V30 55190 H 5305.94 3.92967 -0.736013 0
M  V30 55191 H 5307.39 4.23215 0.257839 0
M  V30 55192 C 5305.84 3.12761 1.25229 0
M  V30 55193 O 5306.37 3.26269 2.34332 0
M  V30 55194 N 5304.58 2.67108 1.14461 0
M  V30 55195 H 5304.13 2.56317 0.256783 0
M  V30 55196 H 5304.09 2.44103 1.98144 0
M  V30 55197 N 5307.86 0.817307 1.34751 0
M  V30 55198 C 5308.79 0.24985 2.32159 0
M  V30 55199 C 5309.77 -0.630608 1.57979 0
M  V30 55200 O 5310.95 -0.558654 1.85991 0
M  V30 55201 C 5308.08 -0.593705 3.42188 0
M  V30 55202 C 5307.04 0.189147 4.27582 0
M  V30 55203 C 5306.36 -0.776793 5.29027 0
M  V30 55204 C 5307.66 1.39418 5.03349 0
M  V30 55205 H 5309.36 1.06369 2.79868 0
M  V30 55206 H 5306.9 0.512941 1.34555 0
M  V30 55207 H 5308.86 -1.00083 4.09343 0
M  V30 55208 H 5307.58 -1.44054 2.93114 0
M  V30 55209 H 5306.24 0.577573 3.62022 0
M  V30 55210 H 5305.89 -1.61943 4.76218 0
M  V30 55211 H 5305.59 -0.257242 5.87037 0
M  V30 55212 H 5307.11 -1.18189 5.99052 0
M  V30 55213 H 5308.53 1.06137 5.6339 0
M  V30 55214 H 5306.92 1.84898 5.70905 0
M  V30 55215 H 5307.99 2.1753 4.33369 0
M  V30 55216 N 5309.34 -1.46863 0.571763 0
M  V30 55217 C 5310.57 -2.06517 0.0583855 0
M  V30 55218 C 5310.97 -1.42275 -1.24718 0
M  V30 55219 O 5310.32 -0.518355 -1.76235 0
M  V30 55220 C 5310.38 -3.58981 -0.193088 0
M  V30 55221 C 5310.04 -4.45352 1.02523 0
M  V30 55222 C 5311.04 -4.82569 1.93452 0
M  V30 55223 C 5308.72 -4.86652 1.24399 0
M  V30 55224 C 5310.72 -5.59901 3.04614 0
M  V30 55225 C 5308.41 -5.63746 2.35869 0
M  V30 55226 C 5309.4 -6.00283 3.25806 0
M  V30 55227 O 5309.09 -6.7582 4.35341 0
M  V30 55228 H 5308.82 -0.674187 0.0494821 0
M  V30 55229 H 5311.38 -1.89642 0.789 0
M  V30 55230 H 5309.61 -3.74123 -0.978187 0
M  V30 55231 H 5311.3 -4.00603 -0.653628 0
M  V30 55232 H 5312.06 -4.51249 1.77761 0
M  V30 55233 H 5307.94 -4.5767 0.553081 0
M  V30 55234 H 5311.49 -5.88338 3.74839 0
M  V30 55235 H 5307.38 -5.94479 2.51526 0
M  V30 55236 H 5308.15 -6.94232 4.33571 0
M  V30 55237 N 5310.81 -0.308963 -1.54542 0
M  V30 55238 C 5312.04 0.299911 -2.04412 0
M  V30 55239 C 5312.45 1.47459 -1.18543 0
M  V30 55240 O 5311.79 1.82547 -0.205527 0
M  V30 55241 C 5311.86 0.811455 -3.50222 0
M  V30 55242 C 5311.52 -0.238994 -4.56375 0
M  V30 55243 C 5312.52 -1.07015 -5.08767 0
M  V30 55244 C 5310.2 -0.382985 -5.00838 0
M  V30 55245 C 5312.2 -2.03117 -6.04171 0
M  V30 55246 C 5309.88 -1.34743 -5.9606 0
M  V30 55247 C 5310.88 -2.17 -6.47611 0
M  V30 55248 O 5310.57 -3.11809 -7.40966 0
M  V30 55249 H 5310.3 0.0679446 -0.672577 0
M  V30 55250 H 5312.86 -0.448886 -2.00435 0
M  V30 55251 H 5311.09 1.61091 -3.51549 0
M  V30 55252 H 5312.77 1.33708 -3.83245 0
M  V30 55253 H 5313.54 -0.969821 -4.75205 0
M  V30 55254 H 5309.42 0.247345 -4.60336 0
M  V30 55255 H 5312.96 -2.6736 -6.44332 0
M  V30 55256 H 5308.86 -1.44846 -6.29039 0
M  V30 55257 H 5309.63 -3.06879 -7.58793 0
M  V30 55258 N 5312.29 1.57557 -0.0368381 0
M  V30 55259 C 5313.24 2.11848 0.960379 0
M  V30 55260 C 5314.23 1.04686 1.33181 0
M  V30 55261 O 5315.44 1.23112 1.31314 0
M  V30 55262 H 5311.81 0.676932 0.327516 0
M  V30 55263 H 5313.79 2.94559 0.477242 0
M  V30 55264 C 5312.53 2.6669 2.23095 0
M  V30 55265 H 5311.86 3.48802 1.95391 0
M  V30 55266 H 5313.3 3.08315 2.91063 0
M  V30 55267 C 5311.76 1.59793 2.96594 0
M  V30 55268 O 5312.29 1.00228 3.88995 0
M  V30 55269 N 5310.49 1.31654 2.59067 0
M  V30 55270 H 5310.04 1.80279 1.84004 0
M  V30 55271 H 5310 0.603565 3.08552 0
M  V30 55272 N 5313.77 -0.236398 1.55817 0
M  V30 55273 C 5314.72 -1.31253 1.9203 0
M  V30 55274 C 5315.71 -1.49289 0.80057 0
M  V30 55275 O 5316.92 -1.50639 0.985282 0
M  V30 55276 H 5313.29 -0.439729 0.610035 0
M  V30 55277 H 5315.26 -0.979827 2.81854 0
M  V30 55278 C 5314.01 -2.65884 2.24055 0
M  V30 55279 H 5313.34 -2.52809 3.09722 0
M  V30 55280 H 5314.78 -3.40031 2.53289 0
M  V30 55281 C 5313.23 -3.19773 1.06051 0
M  V30 55282 O 5313.76 -4.00471 0.313926 0
M  V30 55283 N 5311.97 -2.77943 0.848307 0
M  V30 55284 H 5311.52 -2.12428 1.45713 0
M  V30 55285 H 5311.48 -3.14342 0.0604529 0
M  V30 55286 N 5315.25 -1.49374 -0.5025 0
M  V30 55287 C 5316.66 -1.36104 -0.833543 0
M  V30 55288 C 5316.86 -0.392981 -1.97631 0
M  V30 55289 O 5315.92 0.175886 -2.51887 0
M  V30 55290 C 5317.23 -2.76786 -1.17516 0
M  V30 55291 C 5318.78 -2.85475 -1.28346 0
M  V30 55292 C 5319.26 -4.26921 -1.65838 0
M  V30 55293 N 5320.75 -4.29725 -1.7289 0
M  V30 55294 C 5321.48 -5.36134 -2.03341 0
M  V30 55295 N 5320.98 -6.52791 -2.32026 0
M  V30 55296 N 5322.77 -5.23549 -2.04579 0
M  V30 55297 H 5314.92 -2.10911 0.251083 0
M  V30 55298 H 5317.18 -0.946694 0.0497369 0
M  V30 55299 H 5316.89 -3.49316 -0.408842 0
M  V30 55300 H 5316.76 -3.12058 -2.11896 0
M  V30 55301 H 5319.15 -2.13184 -2.0405 0
M  V30 55302 H 5319.23 -2.53788 -0.320214 0
M  V30 55303 H 5318.88 -4.99739 -0.906846 0
M  V30 55304 H 5318.81 -4.56072 -2.6326 0
M  V30 55305 H 5321.3 -3.45592 -1.52888 0
M  V30 55306 H 5321.61 -7.2971 -2.54446 0
M  V30 55307 H 5319.96 -6.56019 -2.29486 0
M  V30 55308 H 5323.15 -4.3142 -1.81644 0
M  V30 55309 H 5323.32 -6.06573 -2.27977 0
M  V30 55310 N 5316.73 0.753436 -1.38424 0
M  V30 55311 C 5317.95 1.54267 -1.37874 0
M  V30 55312 C 5318.37 1.88774 0.0314491 0
M  V30 55313 O 5317.73 1.52789 0.998094 0
M  V30 55314 C 5317.78 2.84171 -2.23448 0
M  V30 55315 O 5317.5 2.51136 -3.58974 0
M  V30 55316 C 5319 3.78308 -2.3108 0
M  V30 55317 H 5316.22 0.477333 -0.471586 0
M  V30 55318 H 5318.76 0.932445 -1.82005 0
M  V30 55319 H 5316.92 3.41571 -1.82779 0
M  V30 55320 H 5317.33 3.34452 -4.04033 0
M  V30 55321 H 5318.81 4.66407 -2.95243 0
M  V30 55322 H 5319.28 4.18752 -1.32451 0
M  V30 55323 H 5319.89 3.26832 -2.72141 0
M  V30 55324 N 5318.2 1.23295 0.981634 0
M  V30 55325 C 5319.45 1.06588 1.72531 0
M  V30 55326 C 5319.78 -0.396472 1.9011 0
M  V30 55327 O 5319.06 -1.29358 1.45247 0
M  V30 55328 C 5319.34 1.79051 3.1243 0
M  V30 55329 C 5319.19 3.32951 3.02429 0
M  V30 55330 C 5320.51 1.552 4.11826 0
M  V30 55331 H 5317.63 0.388607 0.626222 0
M  V30 55332 H 5320.27 1.51783 1.14288 0
M  V30 55333 H 5318.42 1.40632 3.62153 0
M  V30 55334 H 5320.1 3.80884 2.6024 0
M  V30 55335 H 5318.34 3.62048 2.38964 0
M  V30 55336 H 5319.01 3.78841 4.01477 0
M  V30 55337 H 5321.49 1.88594 3.70906 0
M  V30 55338 H 5320.36 2.0838 5.07808 0
M  V30 55339 H 5320.62 0.48708 4.39409 0
M  V30 55340 N 5319.68 -1.1802 1.04446 0
M  V30 55341 C 5320.61 -2.21292 0.596877 0
M  V30 55342 C 5321.63 -1.59306 -0.335464 0
M  V30 55343 O 5322.82 -1.7803 -0.12938 0
M  V30 55344 C 5319.92 -3.38579 -0.147529 0
M  V30 55345 C 5319.09 -4.3014 0.793636 0
M  V30 55346 C 5318.15 -5.2612 0.0918411 0
M  V30 55347 O 5317.17 -5.64583 0.723509 0
M  V30 55348 N 5318.38 -5.68516 -1.17344 0
M  V30 55349 H 5321.14 -2.60315 1.48513 0
M  V30 55350 H 5318.7 -1.32844 0.92542 0
M  V30 55351 H 5320.69 -3.99814 -0.626957 0
M  V30 55352 H 5319.26 -2.98215 -0.937361 0
M  V30 55353 H 5318.48 -3.66451 1.45285 0
M  V30 55354 H 5319.77 -4.88211 1.43275 0
M  V30 55355 H 5319.17 -5.39328 -1.7071 0
M  V30 55356 H 5317.73 -6.31931 -1.59707 0
M  V30 55357 N 5321.16 -0.824441 -1.34316 0
M  V30 55358 C 5322.12 -0.252776 -2.27802 0
M  V30 55359 C 5323.12 0.570201 -1.50351 0
M  V30 55360 O 5324.31 0.386085 -1.69868 0
M  V30 55361 C 5321.45 0.645457 -3.34734 0
M  V30 55362 H 5322.64 -1.07752 -2.79874 0
M  V30 55363 H 5320.19 -0.596418 -1.44473 0
M  V30 55364 H 5320.93 1.4932 -2.87878 0
M  V30 55365 H 5320.71 0.05681 -3.92059 0
M  V30 55366 H 5322.2 1.03918 -4.04464 0
M  V30 55367 N 5322.64 1.46557 -0.579543 0
M  V30 55368 C 5323.89 2.01606 -0.0616444 0
M  V30 55369 C 5324.2 1.457 1.30503 0
M  V30 55370 O 5325.41 1.92548 1.91409 0
M  V30 55371 C 5323.86 3.59851 -0.0596226 0
M  V30 55372 C 5323.47 4.24752 -1.42442 0
M  V30 55373 C 5325.21 4.22568 0.404498 0
M  V30 55374 C 5323.12 5.75067 -1.3803 0
M  V30 55375 H 5322.05 0.753754 -0.0192756 0
M  V30 55376 H 5324.7 1.68323 -0.73072 0
M  V30 55377 H 5323.08 3.90195 0.675554 0
M  V30 55378 H 5324.26 4.06021 -2.17907 0
M  V30 55379 H 5322.57 3.74115 -1.8283 0
M  V30 55380 H 5325.17 5.3275 0.456254 0
M  V30 55381 H 5325.51 3.91284 1.42135 0
M  V30 55382 H 5326.05 3.96838 -0.276515 0
M  V30 55383 H 5322.79 6.11006 -2.37386 0
M  V30 55384 H 5322.31 5.96071 -0.667793 0
M  V30 55385 H 5323.98 6.37721 -1.09185 0
M  V30 55386 N 5324.12 0.317154 1.54376 0
M  V30 55387 C 5325.36 -0.287765 2.00748 0
M  V30 55388 C 5325.7 -1.52288 1.20507 0
M  V30 55389 O 5324.97 -1.9239 0.285694 0
M  V30 55390 C 5325.25 -0.628298 3.54576 0
M  V30 55391 C 5325.11 0.617078 4.45547 0
M  V30 55392 C 5326.43 -1.44848 4.1558 0
M  V30 55393 H 5323.54 -0.103118 0.72975 0
M  V30 55394 H 5326.19 0.432461 1.85013 0
M  V30 55395 H 5324.34 -1.2419 3.68116 0
M  V30 55396 H 5326.01 1.25541 4.43889 0
M  V30 55397 H 5324.25 1.24721 4.15484 0
M  V30 55398 H 5324.92 0.334437 5.50986 0
M  V30 55399 H 5327.4 -0.929873 4.05577 0
M  V30 55400 H 5326.27 -1.65551 5.23339 0
M  V30 55401 H 5326.54 -2.44266 3.68492 0
M  V30 55402 N 5325.59 -1.57535 0.0451932 0
M  V30 55403 C 5326.5 -2.14656 -0.946571 0
M  V30 55404 C 5327.52 -1.10284 -1.34586 0
M  V30 55405 O 5328.7 -1.42422 -1.424 0
M  V30 55406 C 5325.76 -2.67541 -2.20506 0
M  V30 55407 C 5324.82 -3.86689 -1.86468 0
M  V30 55408 C 5324.06 -4.37042 -3.06317 0
M  V30 55409 O 5324.28 -3.86495 -4.19497 0
M  V30 55410 O 5323.21 -5.28701 -2.87679 0
M  V30 55411 H 5327.04 -2.99708 -0.490804 0
M  V30 55412 H 5324.62 -1.48355 -0.176358 0
M  V30 55413 H 5326.51 -3.01552 -2.94354 0
M  V30 55414 H 5325.18 -1.85564 -2.65232 0
M  V30 55415 H 5324.09 -3.57577 -1.09954 0
M  V30 55416 H 5325.42 -4.69878 -1.46546 0
M  V30 55417 N 5327.07 0.228132 -1.5594 0
M  V30 55418 C 5328 1.286 -1.94895 0
M  V30 55419 C 5328.98 1.49233 -0.816298 0
M  V30 55420 O 5330.17 1.61527 -1.07808 0
M  V30 55421 C 5327.3 2.63711 -2.25995 0
M  V30 55422 C 5326.25 2.57745 -3.41689 0
M  V30 55423 C 5325.58 3.96824 -3.58377 0
M  V30 55424 C 5326.88 2.13099 -4.7685 0
M  V30 55425 H 5328.57 0.962431 -2.83509 0
M  V30 55426 H 5326.12 0.461529 -1.36403 0
M  V30 55427 H 5328.07 3.37869 -2.51838 0
M  V30 55428 H 5326.8 2.97743 -1.34227 0
M  V30 55429 H 5325.45 1.86044 -3.15885 0
M  V30 55430 H 5325.1 4.28153 -2.63997 0
M  V30 55431 H 5324.8 3.93716 -4.3619 0
M  V30 55432 H 5326.33 4.72654 -3.86562 0
M  V30 55433 H 5327.74 2.76997 -5.01942 0
M  V30 55434 H 5326.14 2.21064 -5.57899 0
M  V30 55435 H 5327.21 1.08309 -4.72649 0
M  V30 55436 N 5328.55 1.49639 0.494571 0
M  V30 55437 C 5329.5 1.66781 1.59539 0
M  V30 55438 C 5330.47 0.509215 1.58102 0
M  V30 55439 O 5331.65 0.737011 1.75991 0
M  V30 55440 C 5328.79 1.74635 2.97652 0
M  V30 55441 C 5327.91 3.01842 3.09056 0
M  V30 55442 C 5327.04 3.00634 4.37941 0
M  V30 55443 C 5326.08 4.22393 4.43002 0
M  V30 55444 N 5325.22 4.19059 5.63324 0
M  V30 55445 H 5330.06 2.60772 1.44229 0
M  V30 55446 H 5327.59 1.29289 0.701627 0
M  V30 55447 H 5329.55 1.77169 3.77713 0
M  V30 55448 H 5328.18 0.841046 3.11651 0
M  V30 55449 H 5327.23 3.08889 2.22018 0
M  V30 55450 H 5328.55 3.91834 3.08655 0
M  V30 55451 H 5327.7 3.01767 5.26328 0
M  V30 55452 H 5326.44 2.08431 4.40917 0
M  V30 55453 H 5325.44 4.21498 3.53015 0
M  V30 55454 H 5326.67 5.15796 4.41736 0
M  V30 55455 H 5324.61 3.29697 5.67129 0
M  V30 55456 H 5324.53 5.02794 5.64566 0
M  V30 55457 H 5325.8 4.24304 6.53901 0
M  V30 55458 N 5330.03 -0.746085 1.38821 0
M  V30 55459 C 5330.98 -1.88133 1.3678 0
M  V30 55460 C 5331.97 -1.67507 0.252554 0
M  V30 55461 O 5333.18 -1.74983 0.421997 0
M  V30 55462 H 5329.55 -0.6191 0.426871 0
M  V30 55463 H 5331.52 -1.8697 2.32561 0
M  V30 55464 C 5330.27 -3.25699 1.21719 0
M  V30 55465 H 5329.59 -3.4216 2.068 0
M  V30 55466 H 5331.03 -4.05357 1.24346 0
M  V30 55467 C 5329.49 -3.36816 -0.0753073 0
M  V30 55468 O 5330.02 -3.87745 -1.04959 0
M  V30 55469 N 5328.23 -2.90288 -0.134659 0
M  V30 55470 H 5327.78 -2.49032 0.658866 0
M  V30 55471 H 5327.73 -2.98106 -0.999004 0
M  V30 55472 N 5331.51 -1.23814 -0.975081 0
M  V30 55473 C 5332.45 -1.02401 -2.06839 0
M  V30 55474 C 5333.42 0.0602786 -1.65991 0
M  V30 55475 O 5334.61 -0.0928857 -1.90574 0
M  V30 55476 C 5331.75 -0.627001 -3.39356 0
M  V30 55477 C 5330.86 -1.78399 -3.93444 0
M  V30 55478 C 5330 -1.33325 -5.14196 0
M  V30 55479 C 5329.04 -2.46065 -5.60463 0
M  V30 55480 N 5328.17 -2.01911 -6.7244 0
M  V30 55481 H 5333.01 -1.95981 -2.24489 0
M  V30 55482 H 5330.55 -0.976244 -1.10036 0
M  V30 55483 H 5332.51 -0.377888 -4.15485 0
M  V30 55484 H 5331.14 0.271793 -3.21654 0
M  V30 55485 H 5330.19 -2.14696 -3.14022 0
M  V30 55486 H 5331.5 -2.63137 -4.23746 0
M  V30 55487 H 5330.66 -1.04258 -5.97675 0
M  V30 55488 H 5329.39 -0.456314 -4.85561 0
M  V30 55489 H 5328.4 -2.75901 -4.75562 0
M  V30 55490 H 5329.62 -3.34304 -5.91116 0
M  V30 55491 H 5327.57 -1.16605 -6.45553 0
M  V30 55492 H 5327.49 -2.80206 -7.02154 0
M  V30 55493 H 5328.76 -1.75963 -7.59379 0
M  V30 55494 N 5332.98 1.17465 -1.0507 0
M  V30 55495 C 5334.4 1.69332 -0.786363 0
M  V30 55496 C 5334.75 1.83606 0.691607 0
M  V30 55497 O 5333.87 1.52275 1.53757 0
M  V30 55498 C 5334.47 3.07567 -1.42085 0
M  V30 55499 C 5333.03 3.56605 -1.20458 0
M  V30 55500 C 5332.17 2.32895 -1.50516 0
M  V30 55501 H 5335.12 1.01999 -1.21581 0
M  V30 55502 H 5335.14 3.71349 -0.829464 0
M  V30 55503 H 5334.66 2.97146 -2.49652 0
M  V30 55504 H 5332.76 3.72306 -0.148099 0
M  V30 55505 H 5332.87 4.39439 -1.90867 0
M  V30 55506 H 5331.23 2.37302 -0.925207 0
M  V30 55507 H 5332.02 2.25083 -2.59215 0
M  V30 55508 N 5334.46 0.831553 1.33877 0
M  V30 55509 C 5335.43 0.264853 2.27665 0
M  V30 55510 C 5336.43 -0.56222 1.50651 0
M  V30 55511 O 5337.62 -0.377071 1.7007 0
M  V30 55512 C 5334.75 -0.627697 3.35071 0
M  V30 55513 H 5335.94 1.09235 2.79299 0
M  V30 55514 H 5333.49 0.604071 1.44155 0
M  V30 55515 H 5334.23 -1.47791 2.88666 0
M  V30 55516 H 5334.01 -0.0360173 3.92083 0
M  V30 55517 H 5335.5 -1.01772 4.05009 0
M  V30 55518 N 5335.94 -1.46248 0.587307 0
M  V30 55519 C 5337.36 -1.5764 0.24934 0
M  V30 55520 C 5337.56 -1.58174 -1.24833 0
M  V30 55521 O 5336.61 -1.50116 -2.03031 0
M  V30 55522 C 5337.93 -2.86833 0.90261 0
M  V30 55523 C 5339.47 -3.00473 0.876629 0
M  V30 55524 C 5339.95 -4.32409 1.50953 0
M  V30 55525 N 5341.44 -4.39119 1.47408 0
M  V30 55526 C 5342.18 -5.39831 1.93312 0
M  V30 55527 N 5341.67 -6.47193 2.47211 0
M  V30 55528 N 5343.46 -5.31061 1.84201 0
M  V30 55529 H 5335.62 -1.44146 1.55999 0
M  V30 55530 H 5337.88 -0.687882 0.652321 0
M  V30 55531 H 5337.58 -2.92267 1.95634 0
M  V30 55532 H 5337.46 -3.74926 0.413598 0
M  V30 55533 H 5339.85 -2.94619 -0.168498 0
M  V30 55534 H 5339.93 -2.13845 1.40371 0
M  V30 55535 H 5339.57 -4.39021 2.55388 0
M  V30 55536 H 5339.5 -5.17819 0.957637 0
M  V30 55537 H 5341.99 -3.62134 1.08014 0
M  V30 55538 H 5342.3 -7.20259 2.80083 0
M  V30 55539 H 5340.65 -6.48 2.51239 0
M  V30 55540 H 5343.84 -4.4609 1.41848 0
M  V30 55541 H 5344.01 -6.09406 2.20292 0
M  V30 55542 N 5337.42 -0.325336 -1.54205 0
M  V30 55543 C 5338.67 0.269873 -2.01602 0
M  V30 55544 C 5339.02 1.49638 -1.20938 0
M  V30 55545 O 5338.31 1.89485 -0.283904 0
M  V30 55546 C 5338.51 0.654169 -3.51362 0
M  V30 55547 C 5338.34 -0.533554 -4.46524 0
M  V30 55548 C 5337.11 -1.03321 -4.94624 0
M  V30 55549 C 5339.3 -1.3863 -4.95264 0
M  V30 55550 N 5337.29 -2.18516 -5.73693 0
M  V30 55551 C 5338.66 -2.38539 -5.72275 0
M  V30 55552 C 5340.71 -1.41386 -4.77404 0
M  V30 55553 C 5339.42 -3.41011 -6.33328 0
M  V30 55554 C 5341.44 -2.42729 -5.39293 0
M  V30 55555 C 5340.8 -3.41365 -6.16157 0
M  V30 55556 H 5336.9 0.0625504 -0.779494 0
M  V30 55557 H 5339.49 -0.460777 -1.89169 0
M  V30 55558 H 5337.66 1.35395 -3.64037 0
M  V30 55559 H 5339.39 1.231 -3.85524 0
M  V30 55560 H 5336.14 -0.60421 -4.6973 0
M  V30 55561 H 5336.57 -2.76627 -6.17905 0
M  V30 55562 H 5341.21 -0.664942 -4.17538 0
M  V30 55563 H 5338.93 -4.16808 -6.92313 0
M  V30 55564 H 5342.51 -2.45665 -5.2739 0
M  V30 55565 H 5341.39 -4.18499 -6.63195 0
M  V30 55566 N 5338.9 1.57509 -0.0535471 0
M  V30 55567 C 5339.85 2.08183 0.929729 0
M  V30 55568 C 5340.83 0.987495 1.27033 0
M  V30 55569 O 5342.02 1.2508 1.25235 0
M  V30 55570 C 5339.15 2.63229 2.20376 0
M  V30 55571 C 5338.24 3.79635 1.89044 0
M  V30 55572 N 5338.63 4.89314 1.28083 0
M  V30 55573 C 5336.93 3.88585 2.189 0
M  V30 55574 C 5337.63 5.70333 1.14435 0
M  V30 55575 N 5336.6 5.18016 1.64803 0
M  V30 55576 H 5340.41 2.90376 0.453772 0
M  V30 55577 H 5337.92 1.61698 0.150842 0
M  V30 55578 H 5339.92 2.97837 2.91717 0
M  V30 55579 H 5338.58 1.82475 2.68576 0
M  V30 55580 H 5339.59 5.09061 0.952745 0
M  V30 55581 H 5336.27 3.18778 2.69604 0
M  V30 55582 H 5337.66 6.68542 0.670894 0
M  V30 55583 N 5340.38 -0.219858 1.56059 0
M  V30 55584 C 5341.32 -1.27248 1.92553 0
M  V30 55585 C 5342.29 -1.4649 0.782934 0
M  V30 55586 O 5343.48 -1.60031 1.03897 0
M  V30 55587 C 5340.62 -2.61748 2.24905 0
M  V30 55588 C 5339.73 -2.5029 3.52107 0
M  V30 55589 C 5338.87 -3.77325 3.73898 0
M  V30 55590 C 5337.9 -3.60596 4.94608 0
M  V30 55591 N 5337.04 -4.79585 5.12779 0
M  V30 55592 H 5341.88 -0.954252 2.82308 0
M  V30 55593 H 5339.42 -0.459879 1.39727 0
M  V30 55594 H 5341.38 -3.40074 2.41672 0
M  V30 55595 H 5340.01 -2.91663 1.38321 0
M  V30 55596 H 5339.06 -1.63389 3.43523 0
M  V30 55597 H 5340.37 -2.3385 4.40585 0
M  V30 55598 H 5339.52 -4.64094 3.90771 0
M  V30 55599 H 5338.26 -3.96692 2.83702 0
M  V30 55600 H 5337.27 -2.72211 4.77683 0
M  V30 55601 H 5338.49 -3.42698 5.86289 0
M  V30 55602 H 5336.44 -4.99262 4.25528 0
M  V30 55603 H 5336.36 -4.65878 5.95394 0
M  V30 55604 H 5337.62 -5.67775 5.34089 0
M  V30 55605 N 5341.85 -1.49899 -0.486629 0
M  V30 55606 C 5342.82 -1.67092 -1.56885 0
M  V30 55607 C 5343.82 -0.542143 -1.51385 0
M  V30 55608 O 5345.01 -0.808885 -1.54281 0
M  V30 55609 C 5342.14 -1.6817 -2.96533 0
M  V30 55610 H 5343.33 -2.63631 -1.42964 0
M  V30 55611 H 5340.88 -1.39146 -0.711905 0
M  V30 55612 H 5341.62 -0.732674 -3.15915 0
M  V30 55613 H 5341.4 -2.50158 -3.01933 0
M  V30 55614 H 5342.89 -1.83479 -3.75134 0
M  V30 55615 N 5343.33 0.738712 -1.39215 0
M  V30 55616 C 5344.28 1.85269 -1.37638 0
M  V30 55617 C 5345.25 1.64406 -0.236629 0
M  V30 55618 O 5346.43 1.85864 -0.431169 0
M  V30 55619 C 5343.57 3.22741 -1.22199 0
M  V30 55620 C 5342.69 3.55334 -2.45687 0
M  V30 55621 C 5341.82 4.82188 -2.22864 0
M  V30 55622 C 5340.86 5.07613 -3.42047 0
M  V30 55623 N 5340 6.25668 -3.18565 0
M  V30 55624 H 5344.84 1.85951 -2.32865 0
M  V30 55625 H 5342.37 0.908675 -1.15678 0
M  V30 55626 H 5344.33 4.02091 -1.1126 0
M  V30 55627 H 5342.96 3.21346 -0.306033 0
M  V30 55628 H 5342.01 2.70713 -2.67243 0
M  V30 55629 H 5343.33 3.70042 -3.3447 0
M  V30 55630 H 5342.48 5.69511 -2.09146 0
M  V30 55631 H 5341.22 4.69645 -1.3147 0
M  V30 55632 H 5340.22 4.18752 -3.56267 0
M  V30 55633 H 5341.45 5.22042 -4.34337 0
M  V30 55634 H 5339.4 6.14421 -2.29832 0
M  V30 55635 H 5339.31 6.40947 -4.00903 0
M  V30 55636 H 5340.58 7.15841 -3.08533 0
M  V30 55637 N 5344.81 1.24329 0.968501 0
M  V30 55638 C 5345.76 1.03497 2.06294 0
M  V30 55639 C 5346.73 -0.0514749 1.6602 0
M  V30 55640 O 5347.91 0.102991 1.90522 0
M  V30 55641 C 5345.05 0.644989 3.39019 0
M  V30 55642 C 5344.16 1.80483 3.92492 0
M  V30 55643 C 5343.3 1.3605 5.13482 0
M  V30 55644 C 5342.34 2.49034 5.5915 0
M  V30 55645 N 5341.48 2.05475 6.7136 0
M  V30 55646 H 5346.32 1.97169 2.23447 0
M  V30 55647 H 5343.85 0.982066 1.09517 0
M  V30 55648 H 5345.81 0.399917 4.15279 0
M  V30 55649 H 5344.44 -0.254732 3.21793 0
M  V30 55650 H 5343.49 2.16359 3.12879 0
M  V30 55651 H 5344.8 2.6538 4.22344 0
M  V30 55652 H 5343.96 1.07426 5.97114 0
M  V30 55653 H 5342.7 0.482058 4.85312 0
M  V30 55654 H 5341.7 2.78419 4.74092 0
M  V30 55655 H 5342.93 3.37434 5.89334 0
M  V30 55656 H 5340.87 1.20027 6.44926 0
M  V30 55657 H 5340.79 2.83926 7.00658 0
M  V30 55658 H 5342.06 1.79988 7.58436 0
M  V30 55659 N 5346.29 -1.16906 1.05692 0
M  V30 55660 C 5347.53 -1.87567 0.771137 0
M  V30 55661 C 5347.87 -1.81132 -0.700336 0
M  V30 55662 O 5347.14 -1.22279 -1.51255 0
M  V30 55663 C 5347.42 -3.37388 1.25863 0
M  V30 55664 C 5347.28 -3.52546 2.79341 0
M  V30 55665 C 5348.6 -4.31582 0.861664 0
M  V30 55666 H 5345.72 -0.681079 0.281603 0
M  V30 55667 H 5348.36 -1.37449 1.31179 0
M  V30 55668 H 5346.51 -3.80201 0.798696 0
M  V30 55669 H 5348.18 -3.18713 3.33496 0
M  V30 55670 H 5346.42 -2.94657 3.1837 0
M  V30 55671 H 5347.09 -4.57737 3.08514 0
M  V30 55672 H 5349.57 -3.96637 1.2577 0
M  V30 55673 H 5348.45 -5.34934 1.23031 0
M  V30 55674 H 5348.71 -4.41481 -0.233934 0
M  V30 55675 N 5347.77 -0.838641 -1.33434 0
M  V30 55676 C 5348.7 -0.229086 -2.28052 0
M  V30 55677 C 5349.71 0.590049 -1.51731 0
M  V30 55678 O 5350.9 0.417157 -1.73557 0
M  V30 55679 C 5348 0.696134 -3.31673 0
M  V30 55680 C 5347.17 -0.0836144 -4.3732 0
M  V30 55681 C 5346.23 0.764914 -5.20611 0
M  V30 55682 O 5345.26 0.2042 -5.68834 0
M  V30 55683 N 5346.46 2.0823 -5.41868 0
M  V30 55684 H 5349.22 -1.04206 -2.81 0
M  V30 55685 H 5346.79 -0.697083 -1.46124 0
M  V30 55686 H 5348.78 1.26876 -3.84298 0
M  V30 55687 H 5347.35 1.40982 -2.79003 0
M  V30 55688 H 5346.57 -0.837616 -3.85198 0
M  V30 55689 H 5347.86 -0.61979 -5.05011 0
M  V30 55690 H 5347.25 2.56139 -5.0439 0
M  V30 55691 H 5345.81 2.60341 -5.9755 0
M  V30 55692 N 5349.24 1.45934 -0.595055 0
M  V30 55693 C 5350.17 2.33198 0.118628 0
M  V30 55694 C 5351.15 1.46086 0.871372 0
M  V30 55695 O 5352.34 1.74881 0.844399 0
M  V30 55696 C 5349.47 3.2858 1.12483 0
M  V30 55697 C 5348.42 4.2523 0.486125 0
M  V30 55698 C 5347.75 5.1021 1.59968 0
M  V30 55699 C 5349.05 5.19017 -0.584655 0
M  V30 55700 H 5350.74 2.9312 -0.609989 0
M  V30 55701 H 5348.29 1.4095 -0.294791 0
M  V30 55702 H 5350.24 3.88491 1.63257 0
M  V30 55703 H 5348.97 2.66791 1.88388 0
M  V30 55704 H 5347.63 3.666 -0.00063684 0
M  V30 55705 H 5347.27 4.44798 2.3487 0
M  V30 55706 H 5346.97 5.75673 1.1779 0
M  V30 55707 H 5348.5 5.72987 2.10994 0
M  V30 55708 H 5349.91 5.73072 -0.161499 0
M  V30 55709 H 5348.31 5.9289 -0.927465 0
M  V30 55710 H 5349.38 4.62203 -1.46617 0
M  V30 55711 N 5350.72 0.33351 1.54031 0
M  V30 55712 C 5351.95 -0.267741 2.0516 0
M  V30 55713 C 5352.37 -1.45005 1.20909 0
M  V30 55714 O 5351.72 -1.80888 0.242058 0
M  V30 55715 C 5351.77 -0.692555 3.54804 0
M  V30 55716 O 5351.49 0.442732 4.35857 0
M  V30 55717 C 5353 -1.35558 4.22065 0
M  V30 55718 H 5350.22 -0.0534689 0.668866 0
M  V30 55719 H 5352.76 0.482585 1.98724 0
M  V30 55720 H 5350.91 -1.39284 3.61495 0
M  V30 55721 H 5351.33 0.106099 5.24393 0
M  V30 55722 H 5352.8 -1.60367 5.28192 0
M  V30 55723 H 5353.28 -2.30601 3.73791 0
M  V30 55724 H 5353.89 -0.6976 4.1954 0
M  V30 55725 N 5352.2 -1.57478 0.0618994 0
M  V30 55726 C 5353.61 -1.80629 -0.472231 0
M  V30 55727 C 5353.96 -0.97502 -1.70258 0
M  V30 55728 O 5353.09 -0.194675 -2.15523 0
M  V30 55729 C 5353.68 -3.27611 -0.863501 0
M  V30 55730 C 5352.24 -3.51643 -1.34255 0
M  V30 55731 C 5351.39 -2.75413 -0.322913 0
M  V30 55732 H 5354.34 -1.56071 0.287689 0
M  V30 55733 H 5354.36 -3.39119 -1.72565 0
M  V30 55734 H 5353.87 -3.88087 0.032159 0
M  V30 55735 H 5351.97 -2.9646 -2.25704 0
M  V30 55736 H 5352.09 -4.60347 -1.32731 0
M  V30 55737 H 5350.45 -2.41873 -0.79809 0
M  V30 55738 H 5351.23 -3.38621 0.564848 0
M  V30 55739 N 5353.68 0.211579 -1.56173 0
M  V30 55740 C 5354.93 0.932641 -1.79294 0
M  V30 55741 C 5355.25 1.84469 -0.63214 0
M  V30 55742 O 5354.52 1.9274 0.350451 0
M  V30 55743 H 5353.1 0.34737 -0.661319 0
M  V30 55744 H 5355.76 0.221041 -1.93642 0
M  V30 55745 H 5354.86 1.53355 -2.71825 0
M  V30 55746 N 5355.16 1.50155 0.478672 0
M  V30 55747 C 5356.09 1.64609 1.59489 0
M  V30 55748 C 5357.1 0.527843 1.54005 0
M  V30 55749 O 5358.29 0.800746 1.59532 0
M  V30 55750 C 5355.39 1.60748 2.98351 0
M  V30 55751 C 5354.56 2.88479 3.28783 0
M  V30 55752 C 5353.62 2.77365 4.47163 0
M  V30 55753 O 5352.65 3.51318 4.47844 0
M  V30 55754 N 5353.85 1.90409 5.48384 0
M  V30 55755 H 5356.62 2.60886 1.47509 0
M  V30 55756 H 5354.18 1.47524 0.666959 0
M  V30 55757 H 5356.17 1.50936 3.755 0
M  V30 55758 H 5354.74 0.72238 3.04139 0
M  V30 55759 H 5353.96 3.12475 2.40318 0
M  V30 55760 H 5355.25 3.73114 3.45924 0
M  V30 55761 H 5354.64 1.29625 5.50649 0
M  V30 55762 H 5353.2 1.86506 6.24547 0
M  V30 55763 N 5356.63 -0.731319 1.39605 0
M  V30 55764 C 5357.86 -1.52054 1.40311 0
M  V30 55765 C 5358.28 -1.888 -0.00141284 0
M  V30 55766 O 5357.63 -1.54357 -0.973661 0
M  V30 55767 C 5357.69 -2.8058 2.27941 0
M  V30 55768 O 5357.41 -2.45394 3.62924 0
M  V30 55769 C 5358.91 -3.74584 2.3707 0
M  V30 55770 H 5356.13 -0.469771 0.479121 0
M  V30 55771 H 5358.67 -0.903372 1.83465 0
M  V30 55772 H 5356.83 -3.3862 1.8819 0
M  V30 55773 H 5357.24 -3.27982 4.09302 0
M  V30 55774 H 5358.71 -4.61651 3.02625 0
M  V30 55775 H 5359.19 -4.16592 1.39096 0
M  V30 55776 H 5359.8 -3.22462 2.77306 0
M  V30 55777 N 5358.11 -1.24841 -0.961894 0
M  V30 55778 C 5359.02 -1.06312 -2.09129 0
M  V30 55779 C 5360.04 -0.00227592 -1.74 0
M  V30 55780 O 5361.21 -0.201682 -2.00388 0
M  V30 55781 C 5358.28 -0.676237 -3.40041 0
M  V30 55782 C 5357.34 -1.81421 -3.89082 0
M  V30 55783 C 5356.57 -1.44569 -5.13746 0
M  V30 55784 O 5356.8 -0.338095 -5.69397 0
M  V30 55785 O 5355.73 -2.27336 -5.57317 0
M  V30 55786 H 5359.56 -2.01009 -2.2766 0
M  V30 55787 H 5357.14 -1.03713 -1.07535 0
M  V30 55788 H 5359.02 -0.472272 -4.18745 0
M  V30 55789 H 5357.7 0.241553 -3.22797 0
M  V30 55790 H 5356.61 -2.07297 -3.11414 0
M  V30 55791 H 5357.94 -2.71098 -4.10812 0
M  V30 55792 N 5359.59 1.16344 -1.0631 0
M  V30 55793 C 5360.84 1.87155 -0.781073 0
M  V30 55794 C 5361.17 1.81501 0.69072 0
M  V30 55795 O 5360.44 1.23079 1.50605 0
M  V30 55796 C 5360.73 3.36716 -1.2765 0
M  V30 55797 C 5360.58 3.5106 -2.81207 0
M  V30 55798 C 5361.9 4.31119 -0.884539 0
M  V30 55799 H 5359.02 0.679576 -0.285211 0
M  V30 55800 H 5361.66 1.36751 -1.31906 0
M  V30 55801 H 5359.81 3.79772 -0.818848 0
M  V30 55802 H 5361.48 3.1694 -3.35182 0
M  V30 55803 H 5359.73 2.92965 -3.19928 0
M  V30 55804 H 5360.4 4.56094 -3.10937 0
M  V30 55805 H 5362.87 3.95965 -1.27871 0
M  V30 55806 H 5361.75 5.34274 -1.25866 0
M  V30 55807 H 5362.01 4.41598 0.210518 0
M  V30 55808 N 5361.07 0.845705 1.32987 0
M  V30 55809 C 5362.02 0.281842 2.29073 0
M  V30 55810 C 5362.99 -0.606182 1.54644 0
M  V30 55811 O 5364.17 -0.542999 1.8291 0
M  V30 55812 C 5361.31 -0.531331 3.40985 0
M  V30 55813 C 5360.42 0.38148 4.30312 0
M  V30 55814 C 5359.56 -0.443457 5.29346 0
M  V30 55815 C 5358.6 0.467316 6.10314 0
M  V30 55816 N 5357.73 -0.319902 7.01371 0
M  V30 55817 H 5362.57 1.10651 2.76696 0
M  V30 55818 H 5360.11 0.557108 1.36142 0
M  V30 55819 H 5362.07 -1.01834 4.04581 0
M  V30 55820 H 5360.7 -1.3209 2.94537 0
M  V30 55821 H 5359.75 0.98683 3.67377 0
M  V30 55822 H 5361.06 1.08084 4.86949 0
M  V30 55823 H 5360.22 -0.994001 5.98502 0
M  V30 55824 H 5358.96 -1.17622 4.73304 0
M  V30 55825 H 5357.96 1.02982 5.40069 0
M  V30 55826 H 5359.19 1.19855 6.6844 0
M  V30 55827 H 5357.13 -1.03593 6.47769 0
M  V30 55828 H 5357.05 0.320604 7.5532 0
M  V30 55829 H 5358.32 -0.852463 7.74825 0
M  V30 55830 N 5362.55 -1.45617 0.602786 0
M  V30 55831 C 5363.8 -2.01482 0.0937103 0
M  V30 55832 C 5364.11 -1.47757 -1.28168 0
M  V30 55833 O 5365.31 -1.95569 -1.88322 0
M  V30 55834 C 5363.77 -3.5971 0.116864 0
M  V30 55835 C 5363.38 -4.22432 1.49181 0
M  V30 55836 C 5365.12 -4.23158 -0.33722 0
M  V30 55837 C 5363.03 -5.72798 1.47161 0
M  V30 55838 H 5361.96 -0.753352 0.0312647 0
M  V30 55839 H 5364.61 -1.67139 0.757406 0
M  V30 55840 H 5362.99 -3.91221 -0.613391 0
M  V30 55841 H 5364.17 -4.02503 2.24339 0
M  V30 55842 H 5362.48 -3.71159 1.88759 0
M  V30 55843 H 5365.08 -5.33408 -0.37144 0
M  V30 55844 H 5365.42 -3.93496 -1.35892 0
M  V30 55845 H 5365.95 -3.96348 0.339614 0
M  V30 55846 H 5362.69 -6.07152 2.47076 0
M  V30 55847 H 5362.21 -5.94933 0.762538 0
M  V30 55848 H 5363.89 -6.35903 1.19317 0
M  V30 55849 N 5364.02 -0.341674 -1.53852 0
M  V30 55850 C 5365.3 0.310597 -1.93118 0
M  V30 55851 C 5365.68 1.68394 -1.27306 0
M  V30 55852 O 5365.03 2.24545 -0.423304 0
M  V30 55853 C 5365.24 0.384745 -3.46873 0
M  V30 55854 C 5366.59 0.636474 -4.19803 0
M  V30 55855 O 5367.61 0.466937 -3.53126 0
M  V30 55856 O 5366.47 0.964773 -5.37917 0
M  V30 55857 H 5363.56 0.180853 -0.806983 0
M  V30 55858 H 5366.11 -0.392714 -1.65093 0
M  V30 55859 H 5364.88 -0.579076 -3.86991 0
M  V30 55860 H 5364.51 1.13491 -3.81058 0
M  V30 55861 N 5365.5 1.57443 -0.07025 0
M  V30 55862 C 5366.43 2.15662 0.8951 0
M  V30 55863 C 5367.41 1.08326 1.31147 0
M  V30 55864 O 5368.6 1.36354 1.3828 0
M  V30 55865 C 5365.73 2.71701 2.16324 0
M  V30 55866 C 5364.68 3.8419 1.88632 0
M  V30 55867 C 5364.01 4.26825 3.22063 0
M  V30 55868 C 5365.31 5.08497 1.19281 0
M  V30 55869 H 5367 2.96578 0.410113 0
M  V30 55870 H 5364.55 1.42662 0.195822 0
M  V30 55871 H 5366.5 3.11074 2.84273 0
M  V30 55872 H 5365.23 1.88004 2.67062 0
M  V30 55873 H 5363.89 3.45318 1.23089 0
M  V30 55874 H 5363.53 3.40052 3.70639 0
M  V30 55875 H 5363.23 5.02652 3.04326 0
M  V30 55876 H 5364.76 4.68813 3.91212 0
M  V30 55877 H 5366.17 5.45196 1.77296 0
M  V30 55878 H 5364.57 5.89592 1.11808 0
M  V30 55879 H 5365.64 4.84596 0.171669 0
M  V30 55880 N 5366.98 -0.203294 1.56283 0
M  V30 55881 C 5368.39 -0.768704 1.70141 0
M  V30 55882 C 5368.74 -1.84208 0.675423 0
M  V30 55883 O 5367.87 -2.15733 -0.169824 0
M  V30 55884 C 5368.46 -1.40112 3.0847 0
M  V30 55885 C 5367.02 -1.91371 3.24121 0
M  V30 55886 C 5366.17 -0.780592 2.66087 0
M  V30 55887 H 5369.12 0.0216555 1.58685 0
M  V30 55888 H 5369.14 -2.27036 3.05344 0
M  V30 55889 H 5368.65 -0.61967 3.83121 0
M  V30 55890 H 5366.75 -2.72261 2.54372 0
M  V30 55891 H 5366.87 -2.08113 4.31539 0
M  V30 55892 H 5365.23 -1.19273 2.25047 0
M  V30 55893 H 5366.01 -0.0115144 3.43298 0
M  V30 55894 N 5368.46 -1.50407 -0.470702 0
M  V30 55895 C 5369.39 -1.72228 -1.5767 0
M  V30 55896 C 5370.37 -0.571267 -1.6022 0
M  V30 55897 O 5371.56 -0.810443 -1.76481 0
M  V30 55898 C 5368.69 -1.81677 -2.95991 0
M  V30 55899 C 5367.64 -2.96868 -3.08307 0
M  V30 55900 C 5366.97 -2.91461 -4.4828 0
M  V30 55901 C 5368.27 -4.37371 -2.85489 0
M  V30 55902 H 5369.96 -2.6483 -1.39662 0
M  V30 55903 H 5367.51 -1.2744 -0.670445 0
M  V30 55904 H 5369.46 -1.95527 -3.73292 0
M  V30 55905 H 5368.18 -0.856967 -3.15157 0
M  V30 55906 H 5366.84 -2.82669 -2.33439 0
M  V30 55907 H 5366.49 -1.93326 -4.64364 0
M  V30 55908 H 5366.19 -3.68792 -4.57456 0
M  V30 55909 H 5367.71 -3.0736 -5.276 0
M  V30 55910 H 5369.13 -4.52094 -3.5254 0
M  V30 55911 H 5367.52 -5.16156 -3.06109 0
M  V30 55912 H 5368.59 -4.49714 -1.81343 0
M  V30 55913 N 5369.94 0.723905 -1.39991 0
M  V30 55914 C 5371.35 1.30269 -1.33742 0
M  V30 55915 C 5371.7 1.96199 -0.00697479 0
M  V30 55916 O 5370.82 1.9702 0.89511 0
M  V30 55917 C 5371.42 2.3688 -2.42226 0
M  V30 55918 C 5369.98 2.90404 -2.39463 0
M  V30 55919 C 5369.13 1.64095 -2.23535 0
M  V30 55920 H 5372.08 0.52062 -1.49917 0
M  V30 55921 H 5372.1 3.17531 -2.09653 0
M  V30 55922 H 5371.61 1.88866 -3.39045 0
M  V30 55923 H 5369.71 3.42669 -1.46316 0
M  V30 55924 H 5369.82 3.42763 -3.34739 0
M  V30 55925 H 5368.19 1.88849 -1.70903 0
M  V30 55926 H 5368.97 1.18117 -3.2234 0
M  V30 55927 N 5371.42 1.2535 0.95526 0
M  V30 55928 C 5372.66 1.09456 1.69417 0
M  V30 55929 C 5372.98 -0.364391 1.92176 0
M  V30 55930 O 5374.18 -0.64375 2.63758 0
M  V30 55931 C 5372.64 1.91055 3.05001 0
M  V30 55932 C 5372.25 3.41438 2.90041 0
M  V30 55933 C 5373.99 1.83729 3.8268 0
M  V30 55934 C 5371.9 4.15335 4.21011 0
M  V30 55935 H 5370.83 0.406001 0.635358 0
M  V30 55936 H 5373.48 1.4954 1.06349 0
M  V30 55937 H 5371.86 1.43794 3.6897 0
M  V30 55938 H 5373.04 3.96368 2.35008 0
M  V30 55939 H 5371.35 3.4985 2.25818 0
M  V30 55940 H 5373.95 2.36234 4.79685 0
M  V30 55941 H 5374.29 0.805062 4.08441 0
M  V30 55942 H 5374.82 2.28737 3.2546 0
M  V30 55943 H 5371.56 5.18969 4.00439 0
M  V30 55944 H 5371.08 3.65189 4.75812 0
M  V30 55945 H 5372.76 4.23016 4.89557 0
M  V30 55946 N 5372.89 -1.15778 1.06926 0
M  V30 55947 C 5374.14 -1.86738 0.790987 0
M  V30 55948 C 5374.47 -1.81865 -0.681085 0
M  V30 55949 O 5373.75 -1.23876 -1.4995 0
M  V30 55950 C 5374.03 -3.36034 1.29434 0
M  V30 55951 C 5373.88 -3.49563 2.83065 0
M  V30 55952 C 5375.2 -4.30644 0.90739 0
M  V30 55953 H 5372.32 -0.678054 0.288811 0
M  V30 55954 H 5374.96 -1.3605 1.32629 0
M  V30 55955 H 5373.11 -3.79333 0.838977 0
M  V30 55956 H 5374.79 -3.15158 3.36858 0
M  V30 55957 H 5373.03 -2.91264 3.21478 0
M  V30 55958 H 5373.7 -4.54439 3.13351 0
M  V30 55959 H 5376.18 -3.95281 1.2997 0
M  V30 55960 H 5375.05 -5.33599 1.28698 0
M  V30 55961 H 5375.31 -4.41704 -0.187096 0
M  V30 55962 N 5374.37 -0.852746 -1.32537 0
M  V30 55963 C 5375.33 -0.301039 -2.27214 0
M  V30 55964 C 5376.33 0.538181 -1.51526 0
M  V30 55965 O 5377.52 0.349967 -1.70648 0
M  V30 55966 C 5374.66 0.57431 -3.36028 0
M  V30 55967 H 5375.85 -1.13664 -2.77525 0
M  V30 55968 H 5373.4 -0.626929 -1.43176 0
M  V30 55969 H 5374.14 1.4318 -2.90981 0
M  V30 55970 H 5373.92 -0.0263643 -3.92091 0
M  V30 55971 H 5375.41 0.953157 -4.06577 0
M  V30 55972 N 5375.85 1.45295 -0.6105 0
M  V30 55973 C 5377.07 2.071 -0.111486 0
M  V30 55974 C 5377.5 1.45165 1.19619 0
M  V30 55975 O 5376.86 0.545429 1.72901 0
M  V30 55976 C 5376.91 3.60598 0.0116104 0
M  V30 55977 O 5376.01 3.98516 1.06108 0
M  V30 55978 H 5375.35 0.659707 -0.0753872 0
M  V30 55979 H 5377.88 1.86501 -0.841334 0
M  V30 55980 H 5377.89 4.07465 0.208885 0
M  V30 55981 H 5376.57 4.05063 -0.943218 0
M  V30 55982 H 5375.14 3.63315 0.84003 0
M  V30 55983 N 5377.33 0.349828 1.53668 0
M  V30 55984 C 5378.28 -0.519316 2.26729 0
M  V30 55985 C 5379.27 -1.09669 1.29109 0
M  V30 55986 O 5380.48 -1.0417 1.46794 0
M  V30 55987 H 5376.85 -0.186167 0.728592 0
M  V30 55988 H 5378.82 0.118841 2.98163 0
M  V30 55989 C 5377.57 -1.65524 3.05773 0
M  V30 55990 H 5376.89 -1.22025 3.80723 0
M  V30 55991 H 5378.33 -2.23843 3.60098 0
M  V30 55992 C 5376.79 -2.58836 2.15651 0
M  V30 55993 O 5377.32 -3.61248 1.75677 0
M  V30 55994 N 5375.53 -2.27664 1.80603 0
M  V30 55995 H 5375.08 -1.44422 2.13307 0
M  V30 55996 H 5375.03 -2.90355 1.20587 0
M  V30 55997 N 5378.81 -1.57404 0.0785986 0
M  V30 55998 C 5379.74 -2.16134 -0.88365 0
M  V30 55999 C 5380.72 -1.0902 -1.30571 0
M  V30 56000 O 5381.9 -1.37085 -1.37555 0
M  V30 56001 C 5379.03 -2.72844 -2.1488 0
M  V30 56002 C 5377.99 -3.85185 -1.86592 0
M  V30 56003 C 5377.31 -4.28527 -3.19795 0
M  V30 56004 C 5378.61 -5.09122 -1.16583 0
M  V30 56005 H 5380.31 -2.96791 -0.394379 0
M  V30 56006 H 5377.85 -1.42764 -0.188254 0
M  V30 56007 H 5379.8 -3.12577 -2.82619 0
M  V30 56008 H 5378.53 -1.89418 -2.66061 0
M  V30 56009 H 5377.19 -3.45966 -1.21256 0
M  V30 56010 H 5376.84 -3.42013 -3.68831 0
M  V30 56011 H 5376.54 -5.04259 -3.01656 0
M  V30 56012 H 5378.06 -4.70881 -3.8872 0
M  V30 56013 H 5379.47 -5.46129 -1.74403 0
M  V30 56014 H 5377.87 -5.90177 -1.08679 0
M  V30 56015 H 5378.94 -4.8468 -0.145967 0
M  V30 56016 N 5380.28 0.195003 -1.56389 0
M  V30 56017 C 5381.22 1.26971 -1.89614 0
M  V30 56018 C 5382.2 1.43943 -0.75625 0
M  V30 56019 O 5383.38 1.59331 -1.00726 0
M  V30 56020 C 5380.51 2.63631 -2.12642 0
M  V30 56021 C 5379.55 2.63528 -3.35343 0
M  V30 56022 S 5380.39 2.14953 -4.90465 0
M  V30 56023 C 5381.54 3.53436 -5.1656 0
M  V30 56024 H 5381.77 0.985992 -2.80474 0
M  V30 56025 H 5379.31 0.3985 -1.49169 0
M  V30 56026 H 5381.27 3.42296 -2.26591 0
M  V30 56027 H 5379.93 2.89214 -1.22532 0
M  V30 56028 H 5379.12 3.64014 -3.48582 0
M  V30 56029 H 5378.72 1.92944 -3.20388 0
M  V30 56030 H 5381.01 4.493 -5.07086 0
M  V30 56031 H 5381.96 3.45092 -6.18318 0
M  V30 56032 H 5382.36 3.48352 -4.44197 0
M  V30 56033 N 5381.76 1.50654 0.462719 0
M  V30 56034 C 5383.01 1.613 1.211 0
M  V30 56035 C 5383.32 0.322825 1.92918 0
M  V30 56036 O 5384.53 0.308306 2.69744 0
M  V30 56037 C 5382.99 2.8476 2.2009 0
M  V30 56038 C 5382.59 4.20686 1.54037 0
M  V30 56039 C 5384.34 3.04755 2.95508 0
M  V30 56040 C 5382.25 5.35323 2.51362 0
M  V30 56041 H 5381.18 0.600706 0.455707 0
M  V30 56042 H 5383.83 1.77095 0.480594 0
M  V30 56043 H 5382.21 2.62543 2.96458 0
M  V30 56044 H 5383.38 4.5319 0.834009 0
M  V30 56045 H 5381.7 4.06364 0.908686 0
M  V30 56046 H 5384.29 3.87572 3.68364 0
M  V30 56047 H 5384.64 2.16814 3.55383 0
M  V30 56048 H 5385.17 3.27193 2.26252 0
M  V30 56049 H 5381.91 6.25444 1.96213 0
M  V30 56050 H 5381.43 5.07227 3.20126 0
M  V30 56051 H 5383.11 5.6624 3.1302 0
M  V30 56052 N 5383.24 -0.716471 1.40373 0
M  V30 56053 C 5384.15 -1.86069 1.42882 0
M  V30 56054 C 5385.17 -1.71003 0.321535 0
M  V30 56055 O 5386.34 -1.93284 0.565977 0
M  V30 56056 C 5383.41 -3.21858 1.28874 0
M  V30 56057 C 5382.47 -3.49184 2.49738 0
M  V30 56058 C 5381.7 -4.78493 2.36389 0
M  V30 56059 O 5381.92 -5.53524 1.37722 0
M  V30 56060 O 5380.86 -5.06136 3.25746 0
M  V30 56061 H 5384.68 -1.86908 2.39373 0
M  V30 56062 H 5382.27 -0.866775 1.21686 0
M  V30 56063 H 5384.15 -4.02968 1.23267 0
M  V30 56064 H 5382.83 -3.21749 0.354896 0
M  V30 56065 H 5381.73 -2.68086 2.60923 0
M  V30 56066 H 5383.07 -3.54089 3.4188 0
M  V30 56067 N 5384.72 -1.25855 -0.948599 0
M  V30 56068 C 5385.97 -1.1096 -1.69393 0
M  V30 56069 C 5386.29 0.348376 -1.91355 0
M  V30 56070 O 5385.55 1.27279 -1.48655 0
M  V30 56071 C 5385.85 -1.81576 -3.07839 0
M  V30 56072 C 5385.51 -3.31487 -3.05658 0
M  V30 56073 C 5384.18 -3.72382 -3.04771 0
M  V30 56074 C 5386.53 -4.27236 -2.98528 0
M  V30 56075 C 5383.86 -5.07426 -2.94509 0
M  V30 56076 C 5386.21 -5.62311 -2.89808 0
M  V30 56077 C 5384.87 -6.02527 -2.87259 0
M  V30 56078 H 5384.14 -0.406033 -0.619854 0
M  V30 56079 H 5386.79 -1.56204 -1.10782 0
M  V30 56080 H 5385.09 -1.2878 -3.70031 0
M  V30 56081 H 5386.79 -1.67498 -3.64342 0
M  V30 56082 H 5383.38 -2.98952 -3.07125 0
M  V30 56083 H 5387.56 -3.96628 -2.98328 0
M  V30 56084 H 5382.82 -5.37757 -2.90909 0
M  V30 56085 H 5386.99 -6.36192 -2.83253 0
M  V30 56086 H 5384.62 -7.07126 -2.79064 0
M  V30 56087 N 5386.2 1.1521 -1.07538 0
M  V30 56088 C 5387.16 2.18207 -0.701313 0
M  V30 56089 C 5388.16 1.58694 0.259404 0
M  V30 56090 O 5389.35 1.74154 0.0401132 0
M  V30 56091 C 5386.48 3.40883 -0.0339901 0
M  V30 56092 H 5387.67 2.52814 -1.61323 0
M  V30 56093 H 5385.23 1.29704 -0.87215 0
M  V30 56094 H 5385.96 3.11846 0.890077 0
M  V30 56095 H 5385.75 3.85339 -0.724996 0
M  V30 56096 H 5387.24 4.17056 0.213005 0
M  V30 56097 N 5387.67 0.859763 1.32083 0
M  V30 56098 C 5388.95 0.386732 1.91739 0
M  V30 56099 C 5389.33 -1.13021 1.78296 0
M  V30 56100 O 5388.68 -1.95417 1.18424 0
M  V30 56101 C 5388.89 0.856767 3.3832 0
M  V30 56102 C 5390.24 0.876927 4.15446 0
M  V30 56103 O 5391.26 0.801742 3.4706 0
M  V30 56104 O 5390.12 0.983919 5.3757 0
M  V30 56105 H 5387.21 0.113786 0.819135 0
M  V30 56106 H 5389.76 0.947001 1.40819 0
M  V30 56107 H 5388.53 1.90008 3.42071 0
M  V30 56108 H 5388.16 0.274234 3.96653 0
M  V30 56109 N 5389.15 -1.44969 0.618196 0
M  V30 56110 C 5390.4 -2.02159 0.117553 0
M  V30 56111 C 5390.73 -1.48521 -1.25585 0
M  V30 56112 O 5389.98 -0.654257 -1.8444 0
M  V30 56113 C 5390.28 -3.57378 0.0396117 0
M  V30 56114 C 5389.95 -4.30214 1.35008 0
M  V30 56115 C 5388.61 -4.49829 1.70902 0
M  V30 56116 C 5390.96 -4.7176 2.21567 0
M  V30 56117 C 5388.29 -5.08248 2.93088 0
M  V30 56118 C 5390.64 -5.31531 3.43012 0
M  V30 56119 C 5389.31 -5.49368 3.79145 0
M  V30 56120 H 5388.58 -0.73975 0.0430157 0
M  V30 56121 H 5391.22 -1.739 0.801933 0
M  V30 56122 H 5389.53 -3.84976 -0.728082 0
M  V30 56123 H 5391.22 -3.99344 -0.364073 0
M  V30 56124 H 5387.81 -4.15267 1.06072 0
M  V30 56125 H 5392 -4.5633 1.95133 0
M  V30 56126 H 5387.25 -5.20246 3.21177 0
M  V30 56127 H 5391.43 -5.62676 4.10327 0
M  V30 56128 H 5389.06 -5.94403 4.73909 0
M  V30 56129 N 5390.63 -0.357973 -1.53481 0
M  V30 56130 C 5391.86 0.234727 -2.05262 0
M  V30 56131 C 5392.27 1.43613 -1.23174 0
M  V30 56132 O 5391.61 1.818 -0.263499 0
M  V30 56133 C 5391.67 0.699624 -3.52627 0
M  V30 56134 C 5391.34 -0.384066 -4.55383 0
M  V30 56135 C 5392.33 -1.23147 -5.05105 0
M  V30 56136 C 5390.02 -0.542128 -4.99366 0
M  V30 56137 C 5392.01 -2.22235 -5.97403 0
M  V30 56138 C 5389.7 -1.53638 -5.91471 0
M  V30 56139 C 5390.7 -2.37494 -6.40379 0
M  V30 56140 O 5390.39 -3.35225 -7.30671 0
M  V30 56141 H 5390.12 0.0465127 -0.674398 0
M  V30 56142 H 5392.67 -0.512425 -1.98905 0
M  V30 56143 H 5390.9 1.49826 -3.56496 0
M  V30 56144 H 5392.59 1.21448 -3.87305 0
M  V30 56145 H 5393.36 -1.12051 -4.71879 0
M  V30 56146 H 5389.24 0.100767 -4.6089 0
M  V30 56147 H 5392.78 -2.87724 -6.355 0
M  V30 56148 H 5388.68 -1.64785 -6.24112 0
M  V30 56149 H 5389.45 -3.30865 -7.48646 0
M  V30 56150 N 5392.11 1.5736 -0.086945 0
M  V30 56151 C 5393.02 2.1709 0.889326 0
M  V30 56152 C 5394.03 1.13813 1.31615 0
M  V30 56153 O 5395.21 1.46148 1.38574 0
M  V30 56154 C 5392.28 2.73293 2.13335 0
M  V30 56155 C 5391.34 3.91497 1.7615 0
M  V30 56156 C 5390.57 4.4501 2.94622 0
M  V30 56157 O 5390.79 3.97482 4.09102 0
M  V30 56158 O 5389.73 5.36142 2.7356 0
M  V30 56159 H 5393.55 3.00904 0.41117 0
M  V30 56160 H 5391.14 1.48771 0.136962 0
M  V30 56161 H 5393.02 3.0925 2.86256 0
M  V30 56162 H 5391.69 1.9253 2.60219 0
M  V30 56163 H 5390.6 3.60366 1.00434 0
M  V30 56164 H 5391.93 4.73598 1.34036 0
M  V30 56165 N 5393.59 -0.186707 1.5649 0
M  V30 56166 C 5394.53 -1.25077 1.96108 0
M  V30 56167 C 5395.53 -1.46667 0.84766 0
M  V30 56168 O 5396.73 -1.47428 1.03271 0
M  V30 56169 H 5393.11 -0.420099 0.623716 0
M  V30 56170 H 5395.08 -0.889661 2.84829 0
M  V30 56171 C 5393.83 -2.58622 2.32401 0
M  V30 56172 H 5393.15 -2.42827 3.17608 0
M  V30 56173 H 5394.59 -3.318 2.63978 0
M  V30 56174 C 5393.05 -3.16237 1.1617 0
M  V30 56175 O 5393.58 -3.9927 0.441174 0
M  V30 56176 N 5391.79 -2.75103 0.936303 0
M  V30 56177 H 5391.33 -2.07684 1.52398 0
M  V30 56178 H 5391.29 -3.1399 0.160428 0
M  V30 56179 N 5395.07 -1.50897 -0.454723 0
M  V30 56180 C 5396.3 -1.66243 -1.22665 0
M  V30 56181 C 5396.7 -0.351941 -1.85898 0
M  V30 56182 O 5396.05 0.677788 -1.70739 0
M  V30 56183 C 5396.11 -2.70821 -2.36424 0
M  V30 56184 C 5395.77 -4.1392 -1.93699 0
M  V30 56185 C 5396.77 -4.99264 -1.45021 0
M  V30 56186 C 5394.45 -4.59928 -2.01921 0
M  V30 56187 C 5396.45 -6.28671 -1.05129 0
M  V30 56188 C 5394.14 -5.89335 -1.61639 0
M  V30 56189 C 5395.13 -6.73533 -1.13324 0
M  V30 56190 O 5394.82 -8.00523 -0.736073 0
M  V30 56191 H 5394.55 -0.561456 -0.376488 0
M  V30 56192 H 5397.11 -1.97975 -0.547255 0
M  V30 56193 H 5395.34 -2.34366 -3.07587 0
M  V30 56194 H 5397.03 -2.7522 -2.98343 0
M  V30 56195 H 5397.79 -4.64929 -1.38078 0
M  V30 56196 H 5393.67 -3.94526 -2.38475 0
M  V30 56197 H 5397.22 -6.94342 -0.673467 0
M  V30 56198 H 5393.11 -6.23188 -1.68247 0
M  V30 56199 H 5393.88 -8.13933 -0.863473 0
M  V30 56200 N 5396.54 0.709016 -1.40751 0
M  V30 56201 C 5397.48 1.83407 -1.37458 0
M  V30 56202 C 5398.49 1.60393 -0.278896 0
M  V30 56203 O 5399.68 1.70145 -0.539702 0
M  V30 56204 C 5396.78 3.19931 -1.11792 0
M  V30 56205 C 5395.95 3.70086 -2.33141 0
M  V30 56206 C 5395.01 4.85242 -2.03535 0
M  V30 56207 O 5394.04 4.97553 -2.76459 0
M  V30 56208 N 5395.24 5.71516 -1.01734 0
M  V30 56209 H 5398 1.86728 -2.3442 0
M  V30 56210 H 5395.56 0.890816 -1.35189 0
M  V30 56211 H 5397.56 3.94575 -0.899603 0
M  V30 56212 H 5396.13 3.11717 -0.234734 0
M  V30 56213 H 5395.35 2.865 -2.70761 0
M  V30 56214 H 5396.63 4.00333 -3.14024 0
M  V30 56215 H 5396.03 5.64187 -0.413505 0
M  V30 56216 H 5394.59 6.46116 -0.858923 0
M  V30 56217 N 5398.02 1.26356 0.941911 0
M  V30 56218 C 5398.98 1.07911 2.02207 0
M  V30 56219 C 5399.98 0.0276849 1.60776 0
M  V30 56220 O 5401.17 0.271026 1.72079 0
M  V30 56221 C 5398.31 0.641201 3.34816 0
M  V30 56222 H 5399.5 2.03812 2.20001 0
M  V30 56223 H 5397.05 1.08943 1.12077 0
M  V30 56224 H 5397.79 -0.31983 3.22719 0
M  V30 56225 H 5397.57 1.4004 3.66239 0
M  V30 56226 H 5399.06 0.533972 4.14172 0
M  V30 56227 N 5399.5 -1.14638 1.08148 0
M  V30 56228 C 5400.72 -1.90022 0.831039 0
M  V30 56229 C 5401.15 -1.77906 -0.610816 0
M  V30 56230 O 5400.51 -1.1174 -1.42772 0
M  V30 56231 C 5400.56 -3.38081 1.25434 0
M  V30 56232 O 5399.66 -4.1041 0.40463 0
M  V30 56233 H 5399 -0.591316 0.302062 0
M  V30 56234 H 5401.53 -1.45125 1.44221 0
M  V30 56235 H 5401.54 -3.8889 1.23404 0
M  V30 56236 H 5400.22 -3.46218 2.30448 0
M  V30 56237 H 5398.79 -3.69692 0.488116 0
M  V30 56238 N 5400.98 -0.866756 -1.31625 0
M  V30 56239 C 5402.21 -0.490461 -2.01003 0
M  V30 56240 C 5402.62 0.916186 -1.6508 0
M  V30 56241 O 5401.98 1.59972 -0.878356 0
M  V30 56242 C 5402.03 -0.634137 -3.55895 0
M  V30 56243 O 5401.75 -1.98539 -3.9053 0
M  V30 56244 C 5403.25 -0.258432 -4.42546 0
M  V30 56245 H 5400.47 -0.191443 -0.64311 0
M  V30 56246 H 5403.01 -1.16704 -1.6793 0
M  V30 56247 H 5401.17 -0.0051542 -3.874 0
M  V30 56248 H 5401.58 -1.99084 -4.85248 0
M  V30 56249 H 5403.06 -0.409926 -5.50476 0
M  V30 56250 H 5403.53 0.802149 -4.31813 0
M  V30 56251 H 5404.14 -0.862983 -4.16453 0
M  V30 56252 N 5402.46 1.44639 -0.625876 0
M  V30 56253 C 5403.37 2.34451 0.0835309 0
M  V30 56254 C 5404.38 1.52313 0.841236 0
M  V30 56255 O 5405.56 1.85059 0.794689 0
M  V30 56256 C 5402.62 3.30215 1.05636 0
M  V30 56257 C 5401.68 4.2826 0.298608 0
M  V30 56258 C 5400.92 5.19449 1.2251 0
M  V30 56259 O 5401.14 5.14452 2.46363 0
M  V30 56260 O 5400.07 5.97671 0.71226 0
M  V30 56261 H 5403.9 2.96552 -0.655016 0
M  V30 56262 H 5401.48 1.44325 -0.38608 0
M  V30 56263 H 5403.37 3.89175 1.61619 0
M  V30 56264 H 5402.04 2.70654 1.77561 0
M  V30 56265 H 5400.95 3.72862 -0.304132 0
M  V30 56266 H 5402.28 4.90727 -0.380518 0
M  V30 56267 N 5403.93 0.366107 1.53289 0
M  V30 56268 C 5405.16 -0.224163 2.05682 0
M  V30 56269 C 5405.58 -1.42408 1.23957 0
M  V30 56270 O 5404.93 -1.80333 0.280372 0
M  V30 56271 C 5404.98 -0.61714 3.56193 0
M  V30 56272 O 5404.71 0.535084 4.3482 0
M  V30 56273 C 5406.21 -1.26574 4.24846 0
M  V30 56274 H 5403.43 -0.0392692 0.66985 0
M  V30 56275 H 5405.97 0.524629 1.97656 0
M  V30 56276 H 5404.13 -1.31585 3.64368 0
M  V30 56277 H 5404.54 0.217307 5.2405 0
M  V30 56278 H 5406.01 -1.49127 5.31474 0
M  V30 56279 H 5406.49 -2.2262 3.78599 0
M  V30 56280 H 5407.1 -0.608453 4.20925 0
M  V30 56281 N 5405.41 -1.57312 0.095289 0
M  V30 56282 C 5406.34 -2.17059 -0.860677 0
M  V30 56283 C 5407.32 -1.10398 -1.29407 0
M  V30 56284 O 5408.51 -1.38537 -1.36093 0
M  V30 56285 C 5405.64 -2.75108 -2.11974 0
M  V30 56286 C 5404.59 -3.87142 -1.82496 0
M  V30 56287 C 5403.92 -4.31895 -3.15232 0
M  V30 56288 C 5405.22 -5.1033 -1.11176 0
M  V30 56289 H 5406.91 -2.97193 -0.362878 0
M  V30 56290 H 5404.46 -1.42956 -0.173101 0
M  V30 56291 H 5406.41 -3.15557 -2.79288 0
M  V30 56292 H 5405.13 -1.92229 -2.64037 0
M  V30 56293 H 5403.79 -3.47233 -1.1758 0
M  V30 56294 H 5403.44 -3.45906 -3.65183 0
M  V30 56295 H 5403.14 -5.0743 -2.96291 0
M  V30 56296 H 5404.67 -4.74978 -3.83704 0
M  V30 56297 H 5406.08 -5.47948 -1.686 0
M  V30 56298 H 5404.48 -5.91296 -1.02414 0
M  V30 56299 H 5405.55 -4.84808 -0.0945522 0
M  V30 56300 N 5406.89 0.178405 -1.56587 0
M  V30 56301 C 5407.82 1.2454 -1.92412 0
M  V30 56302 C 5408.83 1.40846 -0.816471 0
M  V30 56303 O 5410.02 1.40975 -1.09491 0
M  V30 56304 C 5407.12 2.61515 -2.15553 0
M  V30 56305 C 5406.3 2.666 -3.46761 0
M  V30 56306 C 5405.36 3.84888 -3.58814 0
M  V30 56307 O 5404.38 3.71216 -4.31495 0
M  V30 56308 N 5405.58 5.0105 -2.93138 0
M  V30 56309 H 5408.35 0.941175 -2.84538 0
M  V30 56310 H 5405.91 0.368219 -1.57657 0
M  V30 56311 H 5407.9 3.39103 -2.20888 0
M  V30 56312 H 5406.47 2.84357 -1.29845 0
M  V30 56313 H 5405.69 1.75161 -3.53146 0
M  V30 56314 H 5406.98 2.67003 -4.33113 0
M  V30 56315 H 5406.38 5.15059 -2.33946 0
M  V30 56316 H 5404.93 5.76524 -3.04078 0
M  V30 56317 N 5408.37 1.51136 0.446714 0
M  V30 56318 C 5409.61 1.64994 1.2065 0
M  V30 56319 C 5409.97 0.353948 1.88709 0
M  V30 56320 O 5411.17 0.368193 2.66266 0
M  V30 56321 C 5409.44 2.81379 2.20365 0
M  V30 56322 S 5411 3.15511 3.04956 0
M  V30 56323 H 5407.82 0.581386 0.409281 0
M  V30 56324 H 5410.42 1.8901 0.499546 0
M  V30 56325 H 5409.13 3.73994 1.68988 0
M  V30 56326 H 5408.66 2.59523 2.95654 0
M  V30 56327 H 5410.67 2.6122 4.21875 0
M  V30 56328 N 5409.85 -0.701542 1.41125 0
M  V30 56329 C 5411.26 -1.28124 1.35798 0
M  V30 56330 C 5411.61 -1.96163 0.0381874 0
M  V30 56331 O 5410.73 -1.98419 -0.863653 0
M  V30 56332 C 5411.33 -2.32997 2.45964 0
M  V30 56333 C 5409.89 -2.86557 2.44053 0
M  V30 56334 C 5409.03 -1.60518 2.26118 0
M  V30 56335 H 5411.99 -0.496703 1.50727 0
M  V30 56336 H 5412.01 -3.14155 2.14678 0
M  V30 56337 H 5411.52 -1.83448 3.42007 0
M  V30 56338 H 5409.62 -3.40298 1.51749 0
M  V30 56339 H 5409.73 -3.37394 3.4015 0
M  V30 56340 H 5408.1 -1.86107 1.73886 0
M  V30 56341 H 5408.88 -1.12974 3.24179 0
M  V30 56342 N 5411.32 -1.26854 -0.935197 0
M  V30 56343 C 5412.74 -1.04096 -1.2098 0
M  V30 56344 C 5412.94 0.230172 -2.00181 0
M  V30 56345 O 5412 0.937697 -2.34443 0
M  V30 56346 C 5413.31 -2.27593 -1.96525 0
M  V30 56347 C 5414.86 -2.32555 -2.09493 0
M  V30 56348 C 5415.33 -3.55761 -2.88441 0
M  V30 56349 N 5416.82 -3.56274 -2.96012 0
M  V30 56350 C 5417.56 -4.48275 -3.57543 0
M  V30 56351 N 5417.05 -5.50571 -4.20527 0
M  V30 56352 N 5418.85 -4.35914 -3.54874 0
M  V30 56353 H 5411 -2.08486 -0.405881 0
M  V30 56354 H 5413.26 -0.916557 -0.242132 0
M  V30 56355 H 5412.97 -3.20082 -1.45742 0
M  V30 56356 H 5412.84 -2.32315 -2.97169 0
M  V30 56357 H 5415.23 -1.40577 -2.59465 0
M  V30 56358 H 5415.31 -2.3184 -1.08093 0
M  V30 56359 H 5414.95 -4.48071 -2.39154 0
M  V30 56360 H 5414.88 -3.53725 -3.9011 0
M  V30 56361 H 5417.37 -2.82287 -2.51242 0
M  V30 56362 H 5417.69 -6.16951 -4.65393 0
M  V30 56363 H 5416.03 -5.54422 -4.19095 0
M  V30 56364 H 5419.22 -3.5521 -3.04866 0
M  V30 56365 H 5419.4 -5.07806 -4.02539 0
M  V30 56366 N 5412.8 1.14063 -1.08754 0
M  V30 56367 C 5414.04 1.86837 -0.828938 0
M  V30 56368 C 5414.41 1.81237 0.633816 0
M  V30 56369 O 5415.61 2.49182 1.00806 0
M  V30 56370 C 5413.88 3.31294 -1.34085 0
M  V30 56371 S 5415.44 4.21641 -1.21508 0
M  V30 56372 H 5412.26 0.644611 -0.299995 0
M  V30 56373 H 5414.86 1.37522 -1.38953 0
M  V30 56374 H 5413.56 3.32921 -2.39983 0
M  V30 56375 H 5413.09 3.85669 -0.776079 0
M  V30 56376 H 5415.11 4.95937 -0.16162 0
M  V30 56377 N 5414.28 0.873724 1.31163 0
M  V30 56378 C 5415.51 0.500312 2.01275 0
M  V30 56379 C 5415.93 -0.900753 1.6513 0
M  V30 56380 O 5415.29 -1.59501 0.861918 0
M  V30 56381 C 5415.34 0.669101 3.54338 0
M  V30 56382 O 5414.44 -0.289951 4.11379 0
M  V30 56383 H 5413.78 0.198529 0.633626 0
M  V30 56384 H 5416.31 1.17817 1.67273 0
M  V30 56385 H 5416.32 0.563816 4.04086 0
M  V30 56386 H 5415 1.69069 3.79985 0
M  V30 56387 H 5413.57 -0.139306 3.7264 0
M  V30 56388 N 5415.76 -1.44305 0.633538 0
M  V30 56389 C 5416.72 -2.29121 -0.0602954 0
M  V30 56390 C 5417.72 -1.41168 -0.769942 0
M  V30 56391 O 5418.91 -1.63014 -0.614167 0
M  V30 56392 C 5416.04 -3.22802 -1.09598 0
M  V30 56393 H 5417.24 -2.91955 0.685719 0
M  V30 56394 H 5414.79 -1.51258 0.393791 0
M  V30 56395 H 5415.52 -2.64822 -1.8719 0
M  V30 56396 H 5415.31 -3.8762 -0.591025 0
M  V30 56397 H 5416.8 -3.8651 -1.58114 0
M  V30 56398 N 5417.24 -0.374231 -1.53092 0
M  V30 56399 C 5418.46 0.215831 -2.06274 0
M  V30 56400 C 5418.89 1.40974 -1.2453 0
M  V30 56401 O 5418.24 1.7933 -0.266525 0
M  V30 56402 C 5418.29 0.578964 -3.55922 0
M  V30 56403 O 5417.4 1.67503 -3.76851 0
M  V30 56404 H 5416.74 0.0293748 -0.66335 0
M  V30 56405 H 5419.27 -0.53734 -1.97418 0
M  V30 56406 H 5419.28 0.847538 -3.991 0
M  V30 56407 H 5417.95 -0.293989 -4.1486 0
M  V30 56408 H 5416.53 1.40134 -3.45568 0
M  V30 56409 N 5418.71 1.57259 -0.10363 0
M  V30 56410 C 5419.96 1.94947 0.558885 0
M  V30 56411 C 5420.29 0.986097 1.67301 0
M  V30 56412 O 5419.57 0.0206147 1.94489 0
M  V30 56413 C 5419.85 3.42693 1.10605 0
M  V30 56414 C 5419.7 4.498 -0.00361058 0
M  V30 56415 C 5421.02 3.9194 2.00177 0
M  V30 56416 H 5418.14 0.708866 0.201688 0
M  V30 56417 H 5420.78 1.89182 -0.176072 0
M  V30 56418 H 5418.93 3.47737 1.73238 0
M  V30 56419 H 5420.61 4.56863 -0.638243 0
M  V30 56420 H 5418.85 4.28613 -0.668855 0
M  V30 56421 H 5419.52 5.50398 0.420202 0
M  V30 56422 H 5422 3.89104 1.47437 0
M  V30 56423 H 5420.87 4.95868 2.35385 0
M  V30 56424 H 5421.13 3.31732 2.92244 0
M  V30 56425 N 5420.19 -0.170098 1.56679 0
M  V30 56426 C 5421.6 -0.732442 1.71733 0
M  V30 56427 C 5421.95 -1.82734 0.714344 0
M  V30 56428 O 5421.08 -2.16044 -0.124026 0
M  V30 56429 C 5421.67 -1.33537 3.11373 0
M  V30 56430 C 5420.23 -1.84453 3.28107 0
M  V30 56431 C 5419.38 -0.723975 2.67682 0
M  V30 56432 H 5422.33 0.0553101 1.58604 0
M  V30 56433 H 5422.35 -2.20508 3.10091 0
M  V30 56434 H 5421.86 -0.538265 3.84349 0
M  V30 56435 H 5419.97 -2.66804 2.60089 0
M  V30 56436 H 5420.08 -1.98913 4.35856 0
M  V30 56437 H 5418.44 -1.14473 2.27526 0
M  V30 56438 H 5419.23 0.0613068 3.43245 0
M  V30 56439 N 5421.67 -1.51371 -0.438693 0
M  V30 56440 C 5422.63 -1.71998 -1.5149 0
M  V30 56441 C 5423.63 -0.590031 -1.49584 0
M  V30 56442 O 5424.82 -0.857559 -1.5163 0
M  V30 56443 C 5421.96 -1.77519 -2.91033 0
M  V30 56444 H 5423.15 -2.68046 -1.34505 0
M  V30 56445 H 5420.7 -1.4134 -0.667277 0
M  V30 56446 H 5421.44 -0.832809 -3.13424 0
M  V30 56447 H 5421.22 -2.59637 -2.93821 0
M  V30 56448 H 5422.71 -1.95321 -3.69106 0
M  V30 56449 N 5423.15 0.694048 -1.41495 0
M  V30 56450 C 5424.1 1.82927 -1.43668 0
M  V30 56451 C 5425.09 1.66454 -0.314549 0
M  V30 56452 O 5426.3 1.73297 -0.48665 0
M  V30 56453 H 5422.67 0.602831 -0.449554 0
M  V30 56454 H 5424.64 1.7821 -2.3934 0
M  V30 56455 C 5423.39 3.20957 -1.33723 0
M  V30 56456 H 5422.71 3.34249 -2.19357 0
M  V30 56457 H 5424.15 4.00462 -1.39305 0
M  V30 56458 C 5422.61 3.36863 -0.0497516 0
M  V30 56459 O 5423.14 3.91374 0.904956 0
M  V30 56460 N 5421.35 2.90588 0.0268278 0
M  V30 56461 H 5420.9 2.46415 -0.750839 0
M  V30 56462 H 5420.85 3.01608 0.887675 0
M  V30 56463 N 5424.63 1.27348 0.928456 0
M  V30 56464 C 5426.04 1.12367 1.49099 0
M  V30 56465 C 5426.39 -0.291598 1.94021 0
M  V30 56466 O 5425.51 -1.18443 1.81108 0
M  V30 56467 C 5426.11 2.03368 2.70974 0
M  V30 56468 C 5424.67 1.92495 3.23454 0
M  V30 56469 C 5423.82 1.95968 1.96193 0
M  V30 56470 H 5426.77 1.40252 0.74264 0
M  V30 56471 H 5426.79 1.58904 3.45731 0
M  V30 56472 H 5426.3 3.06365 2.38249 0
M  V30 56473 H 5424.4 0.924803 3.60941 0
M  V30 56474 H 5424.51 2.78695 3.897 0
M  V30 56475 H 5422.88 1.40183 2.12652 0
M  V30 56476 H 5423.66 3.00618 1.65782 0
M  V30 56477 N 5426.11 -1.13484 1.09357 0
M  V30 56478 C 5427.35 -1.8438 0.827553 0
M  V30 56479 C 5427.67 -1.83894 -0.648681 0
M  V30 56480 O 5426.94 -1.2942 -1.47062 0
M  V30 56481 H 5425.52 -0.682721 0.303151 0
M  V30 56482 H 5428.19 -1.37473 1.38157 0
M  V30 56483 H 5427.28 -2.88915 1.18045 0
M  V30 56484 N 5427.58 -0.880667 -1.30698 0
M  V30 56485 C 5428.83 -0.49768 -1.96599 0
M  V30 56486 C 5429.16 0.949841 -1.69386 0
M  V30 56487 O 5428.44 1.67051 -0.996211 0
M  V30 56488 C 5428.72 -0.768042 -3.51814 0
M  V30 56489 C 5428.57 -2.26588 -3.88559 0
M  V30 56490 C 5429.89 -0.241656 -4.39436 0
M  V30 56491 H 5427.01 -0.182292 -0.7141 0
M  V30 56492 H 5429.65 -1.10387 -1.54644 0
M  V30 56493 H 5427.8 -0.252103 -3.87681 0
M  V30 56494 H 5429.48 -2.84989 -3.62738 0
M  V30 56495 H 5427.72 -2.73423 -3.36782 0
M  V30 56496 H 5428.39 -2.40567 -4.96822 0
M  V30 56497 H 5430.87 -0.683195 -4.10453 0
M  V30 56498 H 5429.74 -0.460189 -5.46968 0
M  V30 56499 H 5430 0.856915 -4.33716 0
M  V30 56500 N 5429.06 1.43967 -0.641182 0
M  V30 56501 C 5430.3 2.03825 -0.153143 0
M  V30 56502 C 5430.67 1.49414 1.2058 0
M  V30 56503 O 5431.87 2.00839 1.78654 0
M  V30 56504 C 5430.14 3.57085 -0.15004 0
M  V30 56505 S 5431.7 4.37957 0.271911 0
M  V30 56506 H 5428.51 0.707928 -0.066023 0
M  V30 56507 H 5431.12 1.76208 -0.846823 0
M  V30 56508 H 5429.82 3.9419 -1.14202 0
M  V30 56509 H 5429.35 3.89328 0.564566 0
M  V30 56510 H 5431.37 4.72547 1.51373 0
M  V30 56511 N 5430.54 0.382345 1.52892 0
M  V30 56512 C 5431.79 -0.201663 2.01091 0
M  V30 56513 C 5432.11 -1.479 1.27085 0
M  V30 56514 O 5431.38 -1.92001 0.388897 0
M  V30 56515 H 5429.96 -0.0775111 0.742968 0
M  V30 56516 H 5432.62 0.512435 1.88043 0
M  V30 56517 H 5431.72 -0.41681 3.09304 0
M  V30 56518 N 5432.02 -1.57202 0.111969 0
M  V30 56519 C 5432.97 -2.16189 -0.85821 0
M  V30 56520 C 5433.96 -1.10921 -1.28035 0
M  V30 56521 O 5435.17 -1.29237 -1.25291 0
M  V30 56522 H 5431.54 -0.691787 -0.294846 0
M  V30 56523 H 5433.51 -2.965 -0.336161 0
M  V30 56524 C 5432.26 -2.77031 -2.10117 0
M  V30 56525 H 5431.58 -3.57727 -1.78526 0
M  V30 56526 H 5433.02 -3.21851 -2.76022 0
M  V30 56527 C 5431.48 -1.73762 -2.88632 0
M  V30 56528 O 5432.01 -1.18673 -3.8377 0
M  V30 56529 N 5430.22 -1.43864 -2.52491 0
M  V30 56530 H 5429.77 -1.88852 -1.75193 0
M  V30 56531 H 5429.72 -0.750092 -3.05321 0
M  V30 56532 N 5433.5 0.161787 -1.56767 0
M  V30 56533 C 5434.74 0.883245 -1.84332 0
M  V30 56534 C 5435.1 1.7901 -0.694228 0
M  V30 56535 O 5436.3 2.54988 -0.850551 0
M  V30 56536 C 5434.57 1.64988 -3.17039 0
M  V30 56537 S 5436.13 2.4188 -3.66114 0
M  V30 56538 H 5432.95 0.295644 -0.646619 0
M  V30 56539 H 5435.55 0.144222 -1.94967 0
M  V30 56540 H 5434.25 0.974885 -3.98653 0
M  V30 56541 H 5433.79 2.4301 -3.0937 0
M  V30 56542 H 5435.8 3.66776 -3.342 0
M  V30 56543 N 5434.97 1.51602 0.430659 0
M  V30 56544 C 5436.22 1.64275 1.1772 0
M  V30 56545 C 5436.54 0.364473 1.91564 0
M  V30 56546 O 5435.81 -0.619926 1.85833 0
M  V30 56547 H 5434.39 0.605448 0.437541 0
M  V30 56548 H 5437.05 1.88559 0.4931 0
M  V30 56549 H 5436.15 2.47362 1.90312 0
M  V30 56550 N 5436.45 -0.686534 1.41861 0
M  V30 56551 C 5437.36 -1.82997 1.46797 0
M  V30 56552 C 5438.38 -1.70283 0.357735 0
M  V30 56553 O 5439.55 -1.9204 0.606848 0
M  V30 56554 C 5436.62 -3.19052 1.35672 0
M  V30 56555 C 5435.68 -3.43808 2.57089 0
M  V30 56556 C 5434.91 -4.73372 2.46485 0
M  V30 56557 O 5435.14 -5.50478 1.49432 0
M  V30 56558 O 5434.07 -4.99112 3.36408 0
M  V30 56559 H 5437.9 -1.81788 2.43283 0
M  V30 56560 H 5435.48 -0.840769 1.23497 0
M  V30 56561 H 5437.36 -4.00263 1.31787 0
M  V30 56562 H 5436.04 -3.20923 0.423064 0
M  V30 56563 H 5434.94 -2.62491 2.66551 0
M  V30 56564 H 5436.28 -3.46757 3.49314 0
M  V30 56565 N 5437.93 -1.27838 -0.92169 0
M  V30 56566 C 5438.88 -1.10928 -2.04445 0
M  V30 56567 C 5439.87 -0.0307065 -1.69372 0
M  V30 56568 O 5441.08 -0.188881 -1.79006 0
M  V30 56569 H 5437.45 -0.341996 -0.669733 0
M  V30 56570 H 5439.42 -2.06034 -2.15853 0
M  V30 56571 C 5438.17 -0.779562 -3.38848 0
M  V30 56572 H 5437.5 -1.60144 -3.66325 0
M  V30 56573 H 5438.94 -0.701146 -4.18163 0
M  V30 56574 C 5437.39 0.516353 -3.3292 0
M  V30 56575 O 5437.92 1.54901 -3.70633 0
M  V30 56576 N 5436.13 0.514176 -2.86015 0
M  V30 56577 H 5435.68 -0.326599 -2.55521 0
M  V30 56578 H 5435.64 1.38131 -2.82431 0
M  V30 56579 N 5439.41 1.12903 -1.09958 0
M  V30 56580 C 5440.65 1.84576 -0.84022 0
M  V30 56581 C 5440.99 1.83607 0.632627 0
M  V30 56582 O 5440.26 1.27808 1.46613 0
M  V30 56583 C 5440.55 3.32484 -1.38298 0
M  V30 56584 C 5440.4 3.41935 -2.92233 0
M  V30 56585 C 5441.72 4.28087 -1.02125 0
M  V30 56586 H 5438.84 0.670158 -0.306687 0
M  V30 56587 H 5441.48 1.32485 -1.3619 0
M  V30 56588 H 5439.63 3.76975 -0.939255 0
M  V30 56589 H 5441.3 3.06116 -3.45095 0
M  V30 56590 H 5439.54 2.82638 -3.29087 0
M  V30 56591 H 5440.21 4.45971 -3.2529 0
M  V30 56592 H 5442.69 3.91696 -1.40404 0
M  V30 56593 H 5441.57 5.29999 -1.428 0
M  V30 56594 H 5441.83 4.42045 0.0699199 0
M  V30 56595 N 5440.89 0.887586 1.30229 0
M  V30 56596 C 5442.12 0.521619 1.99907 0
M  V30 56597 C 5442.52 -0.895028 1.66691 0
M  V30 56598 O 5441.87 -1.6005 0.901646 0
M  V30 56599 C 5441.93 0.619688 3.54119 0
M  V30 56600 C 5441.59 2.00112 4.10858 0
M  V30 56601 C 5442.59 2.97083 4.26658 0
M  V30 56602 C 5440.28 2.30721 4.46176 0
M  V30 56603 C 5442.27 4.22797 4.76992 0
M  V30 56604 C 5439.96 3.5668 4.96208 0
M  V30 56605 C 5440.95 4.52533 5.11569 0
M  V30 56606 O 5440.64 5.76257 5.6052 0
M  V30 56607 H 5440.37 0.199927 0.645759 0
M  V30 56608 H 5442.93 1.19552 1.67022 0
M  V30 56609 H 5441.16 -0.111199 3.8654 0
M  V30 56610 H 5442.85 0.264622 4.05036 0
M  V30 56611 H 5443.61 2.74748 3.99673 0
M  V30 56612 H 5439.49 1.5688 4.33485 0
M  V30 56613 H 5443.04 4.9762 4.88897 0
M  V30 56614 H 5438.93 3.78852 5.22629 0
M  V30 56615 H 5439.7 5.78676 5.78858 0
M  V30 56616 N 5442.36 -1.43625 0.648807 0
M  V30 56617 C 5443.3 -2.29046 -0.0841053 0
M  V30 56618 C 5444.31 -1.42265 -0.791487 0
M  V30 56619 O 5445.5 -1.66245 -0.64998 0
M  V30 56620 C 5442.6 -3.19079 -1.14201 0
M  V30 56621 C 5441.77 -4.34374 -0.513647 0
M  V30 56622 C 5440.83 -5.05312 -1.46785 0
M  V30 56623 O 5439.86 -5.60732 -0.978148 0
M  V30 56624 N 5441.06 -5.08403 -2.80191 0
M  V30 56625 H 5443.82 -2.92587 0.649051 0
M  V30 56626 H 5441.38 -1.54267 0.491263 0
M  V30 56627 H 5443.38 -3.63401 -1.78106 0
M  V30 56628 H 5441.95 -2.57167 -1.77719 0
M  V30 56629 H 5441.17 -3.93023 0.3044 0
M  V30 56630 H 5442.45 -5.08745 -0.0748083 0
M  V30 56631 H 5441.85 -4.64741 -3.22541 0
M  V30 56632 H 5440.41 -5.56456 -3.3941 0
M  V30 56633 N 5443.84 -0.390448 -1.52687 0
M  V30 56634 C 5445.08 0.191135 -2.03504 0
M  V30 56635 C 5445.45 1.43947 -1.27056 0
M  V30 56636 O 5446.65 2.09829 -1.68004 0
M  V30 56637 C 5444.92 0.451428 -3.54538 0
M  V30 56638 S 5446.48 1.00313 -4.2718 0
M  V30 56639 H 5443.3 0.0537338 -0.708967 0
M  V30 56640 H 5445.9 -0.539059 -1.87921 0
M  V30 56641 H 5444.6 -0.464205 -4.07766 0
M  V30 56642 H 5444.13 1.21001 -3.74329 0
M  V30 56643 H 5446.15 2.28539 -4.40436 0
M  V30 56644 N 5445.32 1.5714 -0.120304 0
M  V30 56645 C 5446.27 2.11939 0.840595 0
M  V30 56646 C 5447.25 1.04049 1.2273 0
M  V30 56647 O 5448.45 1.3028 1.19818 0
M  V30 56648 C 5445.58 2.72339 2.09013 0
M  V30 56649 C 5444.66 3.87312 1.72773 0
M  V30 56650 N 5445.05 4.94306 1.07215 0
M  V30 56651 C 5443.35 3.9752 2.02222 0
M  V30 56652 C 5444.05 5.74673 0.901424 0
M  V30 56653 N 5443.03 5.2454 1.42684 0
M  V30 56654 H 5446.83 2.92039 0.330206 0
M  V30 56655 H 5444.34 1.62192 0.0821243 0
M  V30 56656 H 5446.34 3.09942 2.78822 0
M  V30 56657 H 5445 1.93702 2.60594 0
M  V30 56658 H 5446.01 5.12644 0.735978 0
M  V30 56659 H 5442.69 3.29926 2.55841 0
M  V30 56660 H 5444.08 6.70786 0.386738 0
M  V30 56661 N 5446.8 -0.153471 1.56851 0
M  V30 56662 C 5447.75 -1.18966 1.97777 0
M  V30 56663 C 5448.72 -1.43038 0.844361 0
M  V30 56664 O 5449.9 -1.5548 1.10591 0
M  V30 56665 C 5447.04 -2.51973 2.35804 0
M  V30 56666 C 5446.15 -2.3513 3.62405 0
M  V30 56667 C 5445.29 -3.61127 3.89565 0
M  V30 56668 C 5444.33 -3.39294 5.09457 0
M  V30 56669 N 5443.46 -4.57405 5.32659 0
M  V30 56670 H 5448.3 -0.833657 2.86102 0
M  V30 56671 H 5445.84 -0.400202 1.41551 0
M  V30 56672 H 5447.8 -3.29518 2.55879 0
M  V30 56673 H 5446.43 -2.85534 1.50567 0
M  V30 56674 H 5445.48 -1.48672 3.50144 0
M  V30 56675 H 5446.79 -2.14953 4.50107 0
M  V30 56676 H 5445.95 -4.47102 4.10103 0
M  V30 56677 H 5444.69 -3.84302 3.00272 0
M  V30 56678 H 5443.69 -2.51706 4.88799 0
M  V30 56679 H 5444.92 -3.17524 6.00296 0
M  V30 56680 H 5442.86 -4.80764 4.4632 0
M  V30 56681 H 5442.78 -4.40206 6.14617 0
M  V30 56682 H 5444.05 -5.44612 5.5769 0
M  V30 56683 N 5448.28 -1.51828 -0.422613 0
M  V30 56684 C 5449.52 -1.66892 -1.1801 0
M  V30 56685 C 5449.88 -0.383925 -1.88122 0
M  V30 56686 O 5451.08 -0.410507 -2.65647 0
M  V30 56687 C 5449.35 -2.84849 -2.1586 0
M  V30 56688 S 5450.91 -3.20323 -2.99898 0
M  V30 56689 H 5447.73 -0.587824 -0.39998 0
M  V30 56690 H 5450.33 -1.89781 -0.469413 0
M  V30 56691 H 5449.04 -3.76635 -1.63016 0
M  V30 56692 H 5448.57 -2.64193 -2.91488 0
M  V30 56693 H 5450.58 -2.67898 -4.17666 0
M  V30 56694 N 5449.75 0.679002 -1.42223 0
M  V30 56695 C 5451.17 0.991621 -1.25056 0
M  V30 56696 C 5451.37 2.00928 -0.151736 0
M  V30 56697 O 5450.43 2.47926 0.478419 0
M  V30 56698 C 5451.74 1.50043 -2.60591 0
M  V30 56699 C 5453.29 1.61842 -2.67911 0
M  V30 56700 C 5453.76 2.16121 -4.03802 0
M  V30 56701 N 5455.25 2.2346 -4.05734 0
M  V30 56702 C 5455.99 2.66523 -5.07694 0
M  V30 56703 N 5455.48 3.0907 -6.20038 0
M  V30 56704 N 5457.28 2.66234 -4.95051 0
M  V30 56705 H 5449.43 0.00514385 -2.12399 0
M  V30 56706 H 5451.69 0.0648132 -0.945782 0
M  V30 56707 H 5451.4 0.82719 -3.41834 0
M  V30 56708 H 5451.27 2.47988 -2.84221 0
M  V30 56709 H 5453.66 2.28274 -1.87016 0
M  V30 56710 H 5453.74 0.623987 -2.48073 0
M  V30 56711 H 5453.38 1.50299 -4.85152 0
M  V30 56712 H 5453.31 3.16348 -4.20989 0
M  V30 56713 H 5455.8 1.93456 -3.24628 0
M  V30 56714 H 5456.12 3.40603 -6.93693 0
M  V30 56715 H 5454.46 3.06937 -6.2355 0
M  V30 56716 H 5457.65 2.32355 -4.06361 0
M  V30 56717 H 5457.83 2.99475 -5.74646 0
M  V30 56718 N 5451.23 1.28325 0.914897 0
M  V30 56719 C 5452.46 1.18376 1.703 0
M  V30 56720 C 5452.88 -0.254225 1.86374 0
M  V30 56721 O 5452.24 -1.18393 1.37305 0
M  V30 56722 C 5452.29 1.88613 3.07339 0
M  V30 56723 O 5451.39 1.19282 3.94773 0
M  V30 56724 H 5450.73 0.410996 0.521515 0
M  V30 56725 H 5453.26 1.69626 1.14403 0
M  V30 56726 H 5453.27 1.96475 3.57577 0
M  V30 56727 H 5451.95 2.93212 2.94957 0
M  V30 56728 H 5450.53 1.19576 3.53208 0
M  V30 56729 N 5452.71 -1.12318 1.10555 0
M  V30 56730 C 5453.96 -1.83213 0.843554 0
M  V30 56731 C 5454.27 -1.85077 -0.632927 0
M  V30 56732 O 5455.48 -2.5198 -1.01086 0
M  V30 56733 C 5453.93 -3.28988 1.45927 0
M  V30 56734 C 5453.54 -3.3548 2.96913 0
M  V30 56735 C 5455.29 -4.04846 1.27672 0
M  V30 56736 C 5453.19 -4.75597 3.51513 0
M  V30 56737 H 5452.12 -0.68646 0.311911 0
M  V30 56738 H 5454.77 -1.26458 1.32968 0
M  V30 56739 H 5453.16 -3.85618 0.900814 0
M  V30 56740 H 5454.33 -2.88783 3.59084 0
M  V30 56741 H 5452.65 -2.73096 3.14336 0
M  V30 56742 H 5455.24 -5.0831 1.65907 0
M  V30 56743 H 5455.59 -4.15727 0.218404 0
M  V30 56744 H 5456.12 -3.54578 1.80331 0
M  V30 56745 H 5452.86 -4.69911 4.57016 0
M  V30 56746 H 5452.38 -5.22742 2.9411 0
M  V30 56747 H 5454.06 -5.4454 3.49407 0
M  V30 56748 N 5454.19 -0.89448 -1.29757 0
M  V30 56749 C 5455.14 -0.358039 -2.29828 0
M  V30 56750 C 5456.13 0.540036 -1.60561 0
M  V30 56751 O 5457.34 0.423416 -1.74949 0
M  V30 56752 H 5453.71 -0.0971445 -0.745699 0
M  V30 56753 H 5455.68 -1.21551 -2.72521 0
M  V30 56754 C 5454.43 0.404005 -3.45345 0
M  V30 56755 H 5453.76 -0.277811 -3.98834 0
M  V30 56756 H 5455.2 0.744299 -4.17416 0
M  V30 56757 C 5453.65 1.6047 -2.96228 0
M  V30 56758 O 5454.18 2.70403 -2.97061 0
M  V30 56759 N 5452.39 1.44508 -2.52122 0
M  V30 56760 H 5451.94 0.550732 -2.51644 0
M  V30 56761 H 5451.9 2.24979 -2.19618 0
M  V30 56762 N 5455.67 1.43279 -0.656415 0
M  V30 56763 C 5456.9 2.05826 -0.178692 0
M  V30 56764 C 5457.31 1.49304 1.16211 0
M  V30 56765 O 5456.65 0.620223 1.72913 0
M  V30 56766 C 5456.71 3.59496 -0.0165364 0
M  V30 56767 C 5456.37 4.38617 -1.28313 0
M  V30 56768 C 5457.37 4.70469 -2.21258 0
M  V30 56769 C 5455.06 4.78571 -1.52561 0
M  V30 56770 C 5457.05 5.41188 -3.3674 0
M  V30 56771 C 5454.74 5.49035 -2.68336 0
M  V30 56772 C 5455.74 5.80266 -3.6025 0
M  V30 56773 O 5455.42 6.49289 -4.74003 0
M  V30 56774 H 5455.16 0.670155 -0.0887049 0
M  V30 56775 H 5457.71 1.84719 -0.898225 0
M  V30 56776 H 5455.94 3.7919 0.758398 0
M  V30 56777 H 5457.63 4.03732 0.418954 0
M  V30 56778 H 5458.39 4.40118 -2.03768 0
M  V30 56779 H 5454.27 4.53667 -0.818975 0
M  V30 56780 H 5457.82 5.65483 -4.08503 0
M  V30 56781 H 5453.71 5.78803 -2.85758 0
M  V30 56782 H 5454.48 6.67773 -4.73309 0
M  V30 56783 N 5457.15 0.398539 1.52478 0
M  V30 56784 C 5458.42 -0.238708 1.94138 0
M  V30 56785 C 5458.8 -1.63553 1.33468 0
M  V30 56786 O 5458.15 -2.22819 0.506351 0
M  V30 56787 C 5458.36 -0.25574 3.48062 0
M  V30 56788 C 5459.71 -0.480228 4.21876 0
M  V30 56789 O 5460.73 -0.335554 3.54616 0
M  V30 56790 O 5459.59 -0.764464 5.41127 0
M  V30 56791 H 5456.69 -0.150777 0.813139 0
M  V30 56792 H 5459.23 0.453716 1.63522 0
M  V30 56793 H 5458 0.722306 3.84576 0
M  V30 56794 H 5457.63 -0.992705 3.85008 0
M  V30 56795 N 5458.62 -1.57074 0.128636 0
M  V30 56796 C 5459.53 -2.19372 -0.831456 0
M  V30 56797 C 5460.55 -1.17263 -1.28551 0
M  V30 56798 O 5461.73 -1.49771 -1.3465 0
M  V30 56799 C 5458.79 -2.78853 -2.06014 0
M  V30 56800 C 5457.85 -3.96029 -1.65708 0
M  V30 56801 C 5457.08 -4.52665 -2.82719 0
M  V30 56802 O 5457.31 -4.08189 -3.9842 0
M  V30 56803 O 5456.24 -5.43207 -2.59249 0
M  V30 56804 H 5460.07 -3.01888 -0.331246 0
M  V30 56805 H 5457.65 -1.49082 -0.0974702 0
M  V30 56806 H 5459.53 -3.16731 -2.77956 0
M  V30 56807 H 5458.21 -1.99362 -2.55023 0
M  V30 56808 H 5457.12 -3.62902 -0.908447 0
M  V30 56809 H 5458.45 -4.76985 -1.21432 0
M  V30 56810 N 5460.1 0.14515 -1.5693 0
M  V30 56811 C 5461.05 1.17916 -1.98405 0
M  V30 56812 C 5462.02 1.42588 -0.851935 0
M  V30 56813 O 5463.2 1.54892 -1.11414 0
M  V30 56814 C 5460.34 2.50719 -2.37137 0
M  V30 56815 C 5459.46 2.33205 -3.63647 0
M  V30 56816 C 5458.59 3.59056 -3.91474 0
M  V30 56817 C 5457.63 3.36587 -5.11249 0
M  V30 56818 N 5456.77 4.54573 -5.35077 0
M  V30 56819 H 5461.61 0.818473 -2.8654 0
M  V30 56820 H 5459.14 0.39269 -1.41762 0
M  V30 56821 H 5461.1 3.28156 -2.57623 0
M  V30 56822 H 5459.73 2.84731 -1.52079 0
M  V30 56823 H 5458.78 1.46813 -3.50927 0
M  V30 56824 H 5460.1 2.12563 -4.51241 0
M  V30 56825 H 5459.25 4.44921 -4.12468 0
M  V30 56826 H 5457.99 3.82704 -3.02306 0
M  V30 56827 H 5456.99 2.4911 -4.90127 0
M  V30 56828 H 5458.22 3.14336 -6.01972 0
M  V30 56829 H 5456.17 4.78391 -4.48863 0
M  V30 56830 H 5456.08 4.36941 -6.16943 0
M  V30 56831 H 5457.35 5.41647 -5.6057 0
M  V30 56832 N 5461.58 1.5205 0.414556 0
M  V30 56833 C 5462.86 1.56401 1.17465 0
M  V30 56834 C 5463.24 0.341783 2.08315 0
M  V30 56835 O 5462.58 -0.671723 2.18404 0
M  V30 56836 C 5462.79 2.8899 1.95668 0
M  V30 56837 C 5464.14 3.41789 2.51923 0
M  V30 56838 O 5465.17 2.90693 2.05854 0
M  V30 56839 O 5464.03 4.31001 3.36007 0
M  V30 56840 H 5461.12 0.629759 0.536034 0
M  V30 56841 H 5463.67 1.64375 0.421776 0
M  V30 56842 H 5462.44 3.69396 1.29081 0
M  V30 56843 H 5462.06 2.84283 2.77973 0
M  V30 56844 N 5463.06 -0.67145 1.42581 0
M  V30 56845 C 5464.47 -1.25215 1.38485 0
M  V30 56846 C 5464.82 -1.96038 0.0797879 0
M  V30 56847 O 5463.94 -2.00206 -0.821371 0
M  V30 56848 C 5464.54 -2.27727 2.5085 0
M  V30 56849 C 5463.1 -2.81316 2.50077 0
M  V30 56850 C 5462.25 -1.55686 2.29472 0
M  V30 56851 H 5465.2 -0.46462 1.51746 0
M  V30 56852 H 5465.22 -3.09531 2.21294 0
M  V30 56853 H 5464.73 -1.76152 3.45821 0
M  V30 56854 H 5462.83 -3.37003 1.58934 0
M  V30 56855 H 5462.94 -3.30103 3.4723 0
M  V30 56856 H 5461.31 -1.82376 1.77795 0
M  V30 56857 H 5462.09 -1.06072 3.26502 0
M  V30 56858 N 5464.54 -1.28809 -0.908079 0
M  V30 56859 C 5465.78 -1.16293 -1.65777 0
M  V30 56860 C 5466.11 0.287322 -1.92366 0
M  V30 56861 O 5465.37 1.22486 -1.52629 0
M  V30 56862 C 5465.66 -1.91277 -3.01907 0
M  V30 56863 C 5465.33 -3.41044 -2.94958 0
M  V30 56864 C 5463.99 -3.81889 -2.92769 0
M  V30 56865 C 5466.34 -4.36517 -2.84785 0
M  V30 56866 C 5463.67 -5.16539 -2.78217 0
M  V30 56867 C 5466.02 -5.71247 -2.71772 0
M  V30 56868 C 5464.69 -6.11361 -2.67945 0
M  V30 56869 H 5463.96 -0.425547 -0.606622 0
M  V30 56870 H 5466.61 -1.59649 -1.05756 0
M  V30 56871 H 5464.91 -1.40487 -3.65747 0
M  V30 56872 H 5466.61 -1.79005 -3.58829 0
M  V30 56873 H 5463.2 -3.08572 -2.97458 0
M  V30 56874 H 5467.38 -4.05919 -2.85558 0
M  V30 56875 H 5462.64 -5.46739 -2.73653 0
M  V30 56876 H 5466.81 -6.44882 -2.6287 0
M  V30 56877 H 5464.44 -7.15646 -2.56426 0
M  V30 56878 N 5466.01 1.1173 -1.11149 0
M  V30 56879 C 5466.94 2.19758 -0.789229 0
M  V30 56880 C 5467.92 1.68383 0.241084 0
M  V30 56881 O 5469.11 1.93915 0.105223 0
M  V30 56882 C 5466.24 3.46549 -0.228326 0
M  V30 56883 C 5465.19 4.11119 -1.19017 0
M  V30 56884 C 5464.52 5.32449 -0.490115 0
M  V30 56885 C 5465.82 4.56397 -2.53967 0
M  V30 56886 H 5467.51 2.46972 -1.69249 0
M  V30 56887 H 5465.06 1.18703 -0.815212 0
M  V30 56888 H 5467.01 4.21399 0.00931094 0
M  V30 56889 H 5465.74 3.18784 0.710218 0
M  V30 56890 H 5464.4 3.38259 -1.41338 0
M  V30 56891 H 5464.04 5.00955 0.453139 0
M  V30 56892 H 5463.74 5.76601 -1.1316 0
M  V30 56893 H 5465.27 6.10041 -0.261199 0
M  V30 56894 H 5466.68 5.22584 -2.35752 0
M  V30 56895 H 5465.08 5.11352 -3.14069 0
M  V30 56896 H 5466.15 3.69999 -3.13415 0
M  V30 56897 N 5467.49 0.901349 1.29281 0
M  V30 56898 C 5468.73 0.53504 1.97273 0
M  V30 56899 C 5469.1 -0.902167 1.69484 0
M  V30 56900 O 5470.3 -1.37543 2.30945 0
M  V30 56901 C 5468.57 0.821217 3.47837 0
M  V30 56902 S 5470.13 0.559465 4.35219 0
M  V30 56903 H 5466.94 0.198433 0.682748 0
M  V30 56904 H 5469.55 1.16414 1.57061 0
M  V30 56905 H 5468.25 1.8654 3.65556 0
M  V30 56906 H 5467.78 0.180298 3.92987 0
M  V30 56907 H 5469.8 -0.594767 4.92623 0
M  V30 56908 N 5468.97 -1.42929 0.664004 0
M  V30 56909 C 5469.92 -2.32577 -0.0327882 0
M  V30 56910 C 5470.91 -1.4922 -0.801865 0
M  V30 56911 O 5472.12 -1.65361 -0.711048 0
M  V30 56912 H 5468.49 -0.751425 -0.0293934 0
M  V30 56913 H 5470.46 -2.89057 0.740864 0
M  V30 56914 C 5469.21 -3.33665 -0.977908 0
M  V30 56915 H 5468.54 -3.97839 -0.395541 0
M  V30 56916 H 5469.98 -3.99002 -1.43434 0
M  V30 56917 C 5468.44 -2.65092 -2.07913 0
M  V30 56918 O 5468.97 -2.47461 -3.16427 0
M  V30 56919 N 5467.17 -2.24291 -1.84775 0
M  V30 56920 H 5466.72 -2.38831 -0.965284 0
M  V30 56921 H 5466.68 -1.78741 -2.58648 0
M  V30 56922 N 5470.45 -0.40662 -1.52264 0
M  V30 56923 C 5471.41 0.408172 -2.25536 0
M  V30 56924 C 5472.41 0.97575 -1.27811 0
M  V30 56925 O 5473.6 0.855023 -1.51773 0
M  V30 56926 C 5470.73 1.57433 -3.0237 0
M  V30 56927 H 5471.93 -0.233564 -2.98989 0
M  V30 56928 H 5469.48 -0.159087 -1.55488 0
M  V30 56929 H 5470.21 2.253 -2.3326 0
M  V30 56930 H 5470 1.17386 -3.74116 0
M  V30 56931 H 5471.49 2.15076 -3.57956 0
M  V30 56932 N 5471.93 1.57004 -0.136964 0
M  V30 56933 C 5473.17 1.97688 0.519513 0
M  V30 56934 C 5473.53 1.01957 1.62692 0
M  V30 56935 O 5474.73 1.31647 2.34356 0
M  V30 56936 C 5473 3.42478 1.02194 0
M  V30 56937 S 5474.56 4.05182 1.68442 0
M  V30 56938 H 5471.38 0.690793 0.168305 0
M  V30 56939 H 5473.98 1.94186 -0.226302 0
M  V30 56940 H 5472.69 4.09887 0.20505 0
M  V30 56941 H 5472.22 3.49671 1.80261 0
M  V30 56942 H 5474.23 3.97411 2.97118 0
M  V30 56943 N 5473.4 -0.136826 1.57005 0
M  V30 56944 C 5474.65 -0.846036 1.83539 0
M  V30 56945 C 5474.97 -1.81243 0.719433 0
M  V30 56946 O 5474.24 -1.94192 -0.258093 0
M  V30 56947 H 5472.82 -0.315422 0.67714 0
M  V30 56948 H 5475.49 -0.1284 1.94477 0
M  V30 56949 H 5474.58 -1.40212 2.78832 0
M  V30 56950 N 5474.88 -1.52268 -0.406486 0
M  V30 56951 C 5476.13 -1.66456 -1.15319 0
M  V30 56952 C 5476.46 -0.395795 -1.9043 0
M  V30 56953 O 5475.71 0.621317 -1.85575 0
M  V30 56954 C 5476.01 -2.83898 -2.1711 0
M  V30 56955 C 5475.68 -4.22016 -1.58786 0
M  V30 56956 C 5474.34 -4.59584 -1.42605 0
M  V30 56957 C 5476.69 -5.08078 -1.16218 0
M  V30 56958 C 5474.02 -5.80888 -0.823763 0
M  V30 56959 C 5476.37 -6.2999 -0.574063 0
M  V30 56960 C 5475.04 -6.66304 -0.399404 0
M  V30 56961 H 5474.31 -0.609106 -0.421984 0
M  V30 56962 H 5476.95 -1.86375 -0.440066 0
M  V30 56963 H 5475.26 -2.58325 -2.94577 0
M  V30 56964 H 5476.95 -2.92072 -2.74763 0
M  V30 56965 H 5473.54 -3.92414 -1.72365 0
M  V30 56966 H 5477.73 -4.79636 -1.27527 0
M  V30 56967 H 5472.98 -6.07646 -0.676481 0
M  V30 56968 H 5477.16 -6.96001 -0.235836 0
M  V30 56969 H 5474.79 -7.60168 0.0693934 0
M  V30 56970 N 5476.36 0.663879 -1.42935 0
M  V30 56971 C 5477.6 1.43578 -1.45481 0
M  V30 56972 C 5477.96 1.91862 -0.0729062 0
M  V30 56973 O 5479.17 2.68787 0.0269304 0
M  V30 56974 C 5477.44 2.59307 -2.45956 0
M  V30 56975 S 5479 3.47994 -2.67292 0
M  V30 56976 H 5475.81 0.490243 -0.514959 0
M  V30 56977 H 5478.42 0.771771 -1.79622 0
M  V30 56978 H 5477.12 2.22092 -3.45114 0
M  V30 56979 H 5476.65 3.3057 -2.13278 0
M  V30 56980 H 5478.67 4.5567 -1.96415 0
M  V30 56981 N 5477.84 1.29288 0.901235 0
M  V30 56982 C 5478.79 1.14287 2.00517 0
M  V30 56983 C 5479.76 0.0366012 1.6606 0
M  V30 56984 O 5480.94 0.203838 1.89708 0
M  V30 56985 C 5478.08 0.823789 3.35123 0
M  V30 56986 C 5477.19 2.01034 3.82373 0
M  V30 56987 C 5476.33 1.63077 5.05548 0
M  V30 56988 C 5475.37 2.78323 5.45163 0
M  V30 56989 N 5474.5 2.40773 6.59525 0
M  V30 56990 H 5479.34 2.08736 2.12681 0
M  V30 56991 H 5476.88 1.03874 1.04157 0
M  V30 56992 H 5478.84 0.619485 4.12575 0
M  V30 56993 H 5477.47 -0.0837978 3.22691 0
M  V30 56994 H 5476.52 2.32639 3.0097 0
M  V30 56995 H 5477.83 2.87395 4.07683 0
M  V30 56996 H 5476.99 1.38927 5.9058 0
M  V30 56997 H 5475.73 0.738633 4.82074 0
M  V30 56998 H 5474.73 3.03158 4.58667 0
M  V30 56999 H 5475.96 3.68199 5.70619 0
M  V30 57000 H 5473.9 1.54044 6.37657 0
M  V30 57001 H 5473.82 3.20667 6.84623 0
M  V30 57002 H 5475.09 2.19938 7.47828 0
M  V30 57003 N 5479.32 -1.11139 1.1174 0
M  V30 57004 C 5480.55 -1.86471 0.889501 0
M  V30 57005 C 5480.95 -1.80586 -0.564375 0
M  V30 57006 O 5480.3 -1.18748 -1.40159 0
M  V30 57007 C 5480.36 -3.36061 1.27683 0
M  V30 57008 C 5480.02 -3.65712 2.74051 0
M  V30 57009 C 5481.02 -3.62928 3.72262 0
M  V30 57010 C 5478.71 -3.94618 3.10776 0
M  V30 57011 C 5480.7 -3.88633 5.05216 0
M  V30 57012 C 5478.39 -4.19981 4.43913 0
M  V30 57013 C 5479.38 -4.16977 5.40943 0
M  V30 57014 O 5479.07 -4.41701 6.71681 0
M  V30 57015 H 5478.8 -0.596427 0.318199 0
M  V30 57016 H 5481.36 -1.4146 1.48923 0
M  V30 57017 H 5479.59 -3.81693 0.620259 0
M  V30 57018 H 5481.28 -3.92765 1.02423 0
M  V30 57019 H 5482.04 -3.40643 3.45235 0
M  V30 57020 H 5477.92 -3.96091 2.35867 0
M  V30 57021 H 5481.47 -3.86204 5.80941 0
M  V30 57022 H 5477.36 -4.41744 4.70673 0
M  V30 57023 H 5478.13 -4.59253 6.77517 0
M  V30 57024 N 5480.79 -0.908192 -1.28801 0
M  V30 57025 C 5481.76 -0.397137 -2.25733 0
M  V30 57026 C 5482.76 0.473429 -1.53673 0
M  V30 57027 O 5483.95 0.277274 -1.71979 0
M  V30 57028 C 5481.08 0.431273 -3.38161 0
M  V30 57029 H 5482.27 -1.25333 -2.72455 0
M  V30 57030 H 5479.83 -0.68709 -1.40388 0
M  V30 57031 H 5480.56 1.3071 -2.96792 0
M  V30 57032 H 5480.35 -0.19264 -3.91626 0
M  V30 57033 H 5481.84 0.779856 -4.10254 0
M  V30 57034 N 5482.27 1.42575 -0.671575 0
M  V30 57035 C 5483.69 1.55918 -0.340824 0
M  V30 57036 C 5483.89 1.65183 1.15399 0
M  V30 57037 O 5482.94 1.61698 1.93933 0
M  V30 57038 C 5484.26 2.81083 -1.06831 0
M  V30 57039 C 5485.81 2.94851 -1.05032 0
M  V30 57040 C 5486.28 4.22872 -1.75907 0
M  V30 57041 N 5487.77 4.29777 -1.72759 0
M  V30 57042 C 5488.51 5.27642 -2.24457 0
M  V30 57043 N 5488 6.31679 -2.84523 0
M  V30 57044 N 5489.8 5.19419 -2.1485 0
M  V30 57045 H 5481.95 1.34805 -1.64138 0
M  V30 57046 H 5484.21 0.648679 -0.691317 0
M  V30 57047 H 5483.92 2.80364 -2.12342 0
M  V30 57048 H 5483.79 3.71876 -0.631487 0
M  V30 57049 H 5486.18 2.951 -0.00356007 0
M  V30 57050 H 5486.26 2.05297 -1.526 0
M  V30 57051 H 5485.9 4.23384 -2.80549 0
M  V30 57052 H 5485.83 5.11355 -1.25791 0
M  V30 57053 H 5488.32 3.55221 -1.28944 0
M  V30 57054 H 5488.64 7.02704 -3.216 0
M  V30 57055 H 5486.98 6.3225 -2.88592 0
M  V30 57056 H 5490.17 4.37061 -1.67615 0
M  V30 57057 H 5490.34 5.95526 -2.55447 0
M  V30 57058 N 5483.75 0.414689 1.52046 0
M  V30 57059 C 5485 -0.159278 2.01873 0
M  V30 57060 C 5485.33 -1.44669 1.30004 0
M  V30 57061 O 5484.58 -1.9164 0.396578 0
M  V30 57062 C 5484.88 -0.448202 3.54578 0
M  V30 57063 C 5484.55 0.750676 4.44607 0
M  V30 57064 C 5483.21 1.07951 4.68935 0
M  V30 57065 C 5485.56 1.55151 4.97572 0
M  V30 57066 C 5482.89 2.21027 5.43474 0
M  V30 57067 C 5485.24 2.67308 5.73349 0
M  V30 57068 C 5483.9 3.00671 5.95947 0
M  V30 57069 H 5483.17 -0.0582841 0.738704 0
M  V30 57070 H 5485.82 0.557248 1.83213 0
M  V30 57071 H 5484.13 -1.24636 3.71447 0
M  V30 57072 H 5485.82 -0.905353 3.90646 0
M  V30 57073 H 5482.41 0.484407 4.25854 0
M  V30 57074 H 5486.6 1.31069 4.7868 0
M  V30 57075 H 5481.85 2.47217 5.5919 0
M  V30 57076 H 5486.03 3.29747 6.13384 0
M  V30 57077 H 5483.65 3.88407 6.53486 0
M  V30 57078 N 5485.23 -1.56929 0.145288 0
M  V30 57079 C 5486.51 -1.87672 -0.551222 0
M  V30 57080 C 5486.89 -1.05096 -1.8308 0
M  V30 57081 O 5486.23 -0.137281 -2.28087 0
M  V30 57082 C 5486.44 -3.3927 -0.818326 0
M  V30 57083 C 5487.79 -4.08451 -1.15986 0
M  V30 57084 O 5488.82 -3.4444 -0.907736 0
M  V30 57085 O 5487.68 -5.21493 -1.63422 0
M  V30 57086 H 5484.77 -0.777798 -0.280996 0
M  V30 57087 H 5487.32 -1.68724 0.181771 0
M  V30 57088 H 5486.09 -3.91203 0.0873272 0
M  V30 57089 H 5485.71 -3.63741 -1.60556 0
M  V30 57090 N 5486.71 0.128498 -1.57075 0
M  V30 57091 C 5487.95 0.837946 -1.84349 0
M  V30 57092 C 5488.28 1.80323 -0.728969 0
M  V30 57093 O 5487.54 1.93679 0.280503 0
M  V30 57094 C 5487.84 1.63015 -3.18058 0
M  V30 57095 C 5487.5 0.810015 -4.43565 0
M  V30 57096 C 5486.16 0.583816 -4.77645 0
M  V30 57097 C 5488.52 0.237713 -5.20658 0
M  V30 57098 C 5485.84 -0.225093 -5.86268 0
M  V30 57099 C 5488.2 -0.558335 -6.30131 0
M  V30 57100 C 5486.86 -0.794939 -6.6275 0
M  V30 57101 H 5486.13 0.306626 -0.674582 0
M  V30 57102 H 5488.78 0.10073 -1.91235 0
M  V30 57103 H 5487.08 2.43801 -3.06706 0
M  V30 57104 H 5488.78 2.18288 -3.3638 0
M  V30 57105 H 5485.37 0.9964 -4.16857 0
M  V30 57106 H 5489.55 0.399707 -4.94688 0
M  V30 57107 H 5484.81 -0.417721 -6.09971 0
M  V30 57108 H 5488.98 -1.00883 -6.89054 0
M  V30 57109 H 5486.61 -1.42358 -7.46752 0
M  V30 57110 N 5488.19 1.52481 0.398405 0
M  V30 57111 C 5489.12 1.71326 1.5074 0
M  V30 57112 C 5490.1 0.560954 1.52617 0
M  V30 57113 O 5491.28 0.789617 1.71165 0
M  V30 57114 C 5488.41 1.76233 2.8924 0
M  V30 57115 C 5487.45 2.97889 3.05229 0
M  V30 57116 S 5488.29 4.5804 2.77415 0
M  V30 57117 C 5489.44 4.65749 4.18125 0
M  V30 57118 H 5489.68 2.65121 1.34529 0
M  V30 57119 H 5487.21 1.42655 0.590677 0
M  V30 57120 H 5489.17 1.79746 3.69055 0
M  V30 57121 H 5487.83 0.835466 3.02785 0
M  V30 57122 H 5487.02 2.97836 4.06583 0
M  V30 57123 H 5486.62 2.92319 2.33293 0
M  V30 57124 H 5488.91 4.43786 5.11918 0
M  V30 57125 H 5489.86 5.67724 4.23197 0
M  V30 57126 H 5490.27 3.94678 4.03595 0
M  V30 57127 N 5489.66 -0.656289 1.43285 0
M  V30 57128 C 5490.59 -1.78096 1.51011 0
M  V30 57129 C 5491.57 -1.66137 0.365038 0
M  V30 57130 O 5492.76 -1.85279 0.581844 0
M  V30 57131 C 5489.89 -3.16506 1.42973 0
M  V30 57132 C 5488.84 -3.43224 2.55697 0
M  V30 57133 C 5488.17 -4.81403 2.32713 0
M  V30 57134 C 5489.47 -3.38274 3.97955 0
M  V30 57135 H 5491.16 -1.71887 2.45143 0
M  V30 57136 H 5488.71 -0.825533 1.17987 0
M  V30 57137 H 5490.66 -3.94936 1.46982 0
M  V30 57138 H 5489.39 -3.23437 0.453433 0
M  V30 57139 H 5488.05 -2.67164 2.51036 0
M  V30 57140 H 5487.69 -4.85006 1.33334 0
M  V30 57141 H 5487.39 -5.00241 3.08275 0
M  V30 57142 H 5488.92 -5.62094 2.38501 0
M  V30 57143 H 5490.33 -4.06645 4.0412 0
M  V30 57144 H 5488.73 -3.68648 4.73517 0
M  V30 57145 H 5489.8 -2.36511 4.23309 0
M  V30 57146 N 5491.14 -1.29765 -0.894366 0
M  V30 57147 C 5492.37 -1.20771 -1.67625 0
M  V30 57148 C 5492.78 0.233368 -1.87755 0
M  V30 57149 O 5492.12 1.16742 -1.41835 0
M  V30 57150 C 5492.18 -1.85553 -3.07913 0
M  V30 57151 C 5491.85 -3.34862 -3.10992 0
M  V30 57152 C 5492.85 -4.31004 -2.90743 0
M  V30 57153 C 5490.53 -3.76153 -3.32888 0
M  V30 57154 C 5492.52 -5.6641 -2.92332 0
M  V30 57155 C 5490.21 -5.11679 -3.34108 0
M  V30 57156 C 5491.21 -6.06618 -3.13853 0
M  V30 57157 O 5490.9 -7.3967 -3.14871 0
M  V30 57158 H 5490.63 -0.419437 -0.53014 0
M  V30 57159 H 5493.18 -1.71758 -1.12642 0
M  V30 57160 H 5491.41 -1.29084 -3.64519 0
M  V30 57161 H 5493.1 -1.70808 -3.68211 0
M  V30 57162 H 5493.87 -4.00437 -2.73634 0
M  V30 57163 H 5489.75 -3.02706 -3.47692 0
M  V30 57164 H 5493.29 -6.40489 -2.76441 0
M  V30 57165 H 5489.19 -5.4189 -3.5075 0
M  V30 57166 H 5489.96 -7.48542 -3.31101 0
M  V30 57167 N 5492.62 1.10545 -1.12328 0
M  V30 57168 C 5493.58 2.15036 -0.793231 0
M  V30 57169 C 5494.58 1.59651 0.191863 0
M  V30 57170 O 5495.77 1.74167 -0.0337875 0
M  V30 57171 C 5492.9 3.40432 -0.17854 0
M  V30 57172 H 5494.1 2.45744 -1.71901 0
M  V30 57173 H 5491.65 1.25889 -0.926378 0
M  V30 57174 H 5492.39 3.15341 0.757011 0
M  V30 57175 H 5492.17 3.81917 -0.887779 0
M  V30 57176 H 5493.66 4.17585 0.0359256 0
M  V30 57177 N 5494.1 0.91501 1.28317 0
M  V30 57178 C 5495.04 0.402872 2.27257 0
M  V30 57179 C 5496.01 -0.523357 1.57639 0
M  V30 57180 O 5497.2 -0.445279 1.85531 0
M  V30 57181 C 5494.34 -0.349836 3.43322 0
M  V30 57182 C 5493.45 0.609043 4.27685 0
M  V30 57183 C 5492.59 -0.162239 5.30952 0
M  V30 57184 C 5491.63 0.790173 6.06978 0
M  V30 57185 N 5490.76 0.0523294 7.0208 0
M  V30 57186 H 5495.6 1.25162 2.70441 0
M  V30 57187 H 5493.14 0.628491 1.32998 0
M  V30 57188 H 5495.1 -0.802445 4.0941 0
M  V30 57189 H 5493.73 -1.16292 3.01125 0
M  V30 57190 H 5492.78 1.18018 3.61629 0
M  V30 57191 H 5494.09 1.33744 4.80535 0
M  V30 57192 H 5493.25 -0.675351 6.02929 0
M  V30 57193 H 5491.99 -0.923683 4.78873 0
M  V30 57194 H 5490.99 1.31465 5.33851 0
M  V30 57195 H 5492.22 1.55119 6.61147 0
M  V30 57196 H 5490.16 -0.691101 6.52349 0
M  V30 57197 H 5490.08 0.720532 7.52559 0
M  V30 57198 H 5491.35 -0.440546 7.78254 0
M  V30 57199 N 5495.58 -1.42217 0.679127 0
M  V30 57200 C 5496.99 -1.84589 0.279942 0
M  V30 57201 C 5497.34 -1.56843 -1.17875 0
M  V30 57202 O 5496.46 -1.03045 -1.90291 0
M  V30 57203 C 5497.06 -3.35071 0.501303 0
M  V30 57204 C 5495.62 -3.76076 0.156198 0
M  V30 57205 C 5494.76 -2.6576 0.791642 0
M  V30 57206 H 5497.71 -1.32002 0.880979 0
M  V30 57207 H 5497.74 -3.79709 -0.245216 0
M  V30 57208 H 5497.25 -3.55233 1.56304 0
M  V30 57209 H 5495.35 -3.61519 -0.901922 0
M  V30 57210 H 5495.46 -4.75331 0.599739 0
M  V30 57211 H 5493.83 -2.53725 0.222603 0
M  V30 57212 H 5494.61 -2.88745 1.85692 0
M  V30 57213 N 5497.05 -0.422747 -1.51824 0
M  V30 57214 C 5498.29 0.147926 -2.03864 0
M  V30 57215 C 5498.66 1.4122 -1.30081 0
M  V30 57216 O 5499.86 2.06218 -1.72417 0
M  V30 57217 C 5498.13 0.376123 -3.55415 0
M  V30 57218 S 5499.69 0.912293 -4.29212 0
M  V30 57219 H 5496.51 0.0386835 -0.709947 0
M  V30 57220 H 5499.11 -0.578799 -1.86736 0
M  V30 57221 H 5497.81 -0.550594 -4.0669 0
M  V30 57222 H 5497.34 1.13034 -3.76811 0
M  V30 57223 H 5499.36 2.19145 -4.45185 0
M  V30 57224 N 5498.53 1.5685 -0.153609 0
M  V30 57225 C 5499.77 1.98228 0.498517 0
M  V30 57226 C 5500.14 1.03677 1.61602 0
M  V30 57227 O 5501.34 1.34125 2.32946 0
M  V30 57228 C 5499.61 3.43543 0.985557 0
M  V30 57229 S 5501.17 4.06946 1.64135 0
M  V30 57230 H 5497.99 0.692539 0.160969 0
M  V30 57231 H 5500.59 1.93935 -0.246886 0
M  V30 57232 H 5499.29 4.10082 0.161564 0
M  V30 57233 H 5498.82 3.51563 1.76542 0
M  V30 57234 H 5500.84 4.0054 2.92886 0
M  V30 57235 N 5500.01 -0.120166 1.57141 0
M  V30 57236 C 5500.97 -1.13152 1.99322 0
M  V30 57237 C 5501.97 -1.34373 0.883205 0
M  V30 57238 O 5503.16 -1.3091 1.14927 0
M  V30 57239 C 5500.3 -2.48624 2.33236 0
M  V30 57240 H 5501.49 -0.769018 2.89873 0
M  V30 57241 H 5499.04 -0.364422 1.51992 0
M  V30 57242 H 5499.78 -2.89797 1.45561 0
M  V30 57243 H 5499.56 -2.34576 3.14192 0
M  V30 57244 H 5501.05 -3.21413 2.66614 0
M  V30 57245 N 5501.49 -1.5269 -0.390313 0
M  V30 57246 C 5502.73 -1.67918 -1.13716 0
M  V30 57247 C 5503.07 -0.417226 -1.89665 0
M  V30 57248 O 5502.34 0.58494 -1.85496 0
M  V30 57249 C 5502.63 -2.91338 -2.11646 0
M  V30 57250 C 5502.48 -4.27631 -1.39469 0
M  V30 57251 C 5503.8 -3.10304 -3.12089 0
M  V30 57252 H 5500.92 -0.611061 -0.412035 0
M  V30 57253 H 5503.56 -1.85284 -0.420688 0
M  V30 57254 H 5501.71 -2.76664 -2.72744 0
M  V30 57255 H 5503.38 -4.54071 -0.813448 0
M  V30 57256 H 5501.62 -4.28171 -0.696539 0
M  V30 57257 H 5502.29 -5.10073 -2.1102 0
M  V30 57258 H 5504.77 -3.24001 -2.61079 0
M  V30 57259 H 5503.65 -3.9814 -3.77856 0
M  V30 57260 H 5503.91 -2.24461 -3.8088 0
M  V30 57261 N 5502.97 0.648681 -1.43631 0
M  V30 57262 C 5504.24 1.40616 -1.35966 0
M  V30 57263 C 5504.62 2.11098 -0.00968444 0
M  V30 57264 O 5503.97 2.05111 1.00707 0
M  V30 57265 C 5504.18 2.3871 -2.54595 0
M  V30 57266 C 5505.53 3.02573 -2.97883 0
M  V30 57267 O 5506.55 2.49037 -2.54674 0
M  V30 57268 O 5505.41 3.99649 -3.7275 0
M  V30 57269 H 5502.51 0.628464 -0.537552 0
M  V30 57270 H 5505.05 0.675208 -1.55689 0
M  V30 57271 H 5503.82 1.85607 -3.44479 0
M  V30 57272 H 5503.45 3.19248 -2.36994 0
M  V30 57273 N 5504.44 1.30237 0.887472 0
M  V30 57274 C 5505.86 1.17053 1.45449 0
M  V30 57275 C 5506.21 -0.229724 1.9485 0
M  V30 57276 O 5505.33 -1.12621 1.84785 0
M  V30 57277 C 5505.93 2.11885 2.64367 0
M  V30 57278 C 5504.49 2.02688 3.17167 0
M  V30 57279 C 5503.63 2.02111 1.89859 0
M  V30 57280 H 5506.58 1.42543 0.697644 0
M  V30 57281 H 5506.6 1.69823 3.405 0
M  V30 57282 H 5506.12 3.13789 2.28381 0
M  V30 57283 H 5504.22 1.03917 3.57816 0
M  V30 57284 H 5504.33 2.90952 3.80636 0
M  V30 57285 H 5502.69 1.46877 2.08085 0
M  V30 57286 H 5503.48 3.0574 1.56134 0
M  V30 57287 N 5505.92 -1.09948 1.12913 0
M  V30 57288 C 5507.17 -1.81383 0.882227 0
M  V30 57289 C 5507.48 -1.86378 -0.593527 0
M  V30 57290 O 5508.69 -2.54067 -0.957186 0
M  V30 57291 C 5507.15 -3.25819 1.52872 0
M  V30 57292 C 5506.75 -3.29107 3.03962 0
M  V30 57293 C 5508.5 -4.02047 1.3623 0
M  V30 57294 C 5506.41 -4.68034 3.61522 0
M  V30 57295 H 5505.34 -0.67969 0.326402 0
M  V30 57296 H 5507.99 -1.23609 1.35621 0
M  V30 57297 H 5506.37 -3.83621 0.982406 0
M  V30 57298 H 5507.54 -2.81101 3.65129 0
M  V30 57299 H 5505.86 -2.66367 3.20058 0
M  V30 57300 H 5508.45 -5.04677 1.76651 0
M  V30 57301 H 5508.8 -4.1517 0.306537 0
M  V30 57302 H 5509.33 -3.50673 1.87811 0
M  V30 57303 H 5506.07 -4.60112 4.66881 0
M  V30 57304 H 5505.59 -5.16386 3.05132 0
M  V30 57305 H 5507.27 -5.37006 3.60879 0
M  V30 57306 N 5507.4 -0.921802 -1.2783 0
M  V30 57307 C 5508.31 -0.42175 -2.30778 0
M  V30 57308 C 5509.33 0.494627 -1.66822 0
M  V30 57309 O 5510.5 0.378865 -1.97804 0
M  V30 57310 C 5507.57 0.322807 -3.45194 0
M  V30 57311 C 5506.63 -0.627767 -4.24685 0
M  V30 57312 C 5505.86 0.0813509 -5.33638 0
M  V30 57313 O 5506.08 1.30174 -5.55348 0
M  V30 57314 O 5505.02 -0.58746 -5.99026 0
M  V30 57315 H 5508.84 -1.2764 -2.75575 0
M  V30 57316 H 5506.43 -0.686923 -1.32671 0
M  V30 57317 H 5508.31 0.742999 -4.14798 0
M  V30 57318 H 5506.99 1.15316 -3.02463 0
M  V30 57319 H 5505.89 -1.09752 -3.57638 0
M  V30 57320 H 5507.23 -1.42516 -4.71116 0
M  V30 57321 N 5508.88 1.41855 -0.686659 0
M  V30 57322 C 5509.83 2.326 -0.00421687 0
M  V30 57323 C 5510.82 1.50476 0.778024 0
M  V30 57324 O 5512.03 1.66471 0.684651 0
M  V30 57325 H 5508.4 0.751798 0.0174351 0
M  V30 57326 H 5510.37 2.87841 -0.786757 0
M  V30 57327 C 5509.12 3.35178 0.924701 0
M  V30 57328 H 5508.44 3.98417 0.332198 0
M  V30 57329 H 5509.88 4.01234 1.37068 0
M  V30 57330 C 5508.34 2.68366 2.03669 0
M  V30 57331 O 5508.87 2.52464 3.1245 0
M  V30 57332 N 5507.08 2.27202 1.81184 0
M  V30 57333 H 5506.63 2.40336 0.927166 0
M  V30 57334 H 5506.58 1.82833 2.55772 0
M  V30 57335 N 5510.36 0.430792 1.51598 0
M  V30 57336 C 5511.27 -0.390266 2.31331 0
M  V30 57337 C 5512.28 -1.03371 1.39966 0
M  V30 57338 O 5513.46 -1.03051 1.73039 0
M  V30 57339 C 5510.52 -1.48028 3.1351 0
M  V30 57340 C 5509.58 -0.857644 4.20646 0
M  V30 57341 C 5508.82 -1.89572 4.98897 0
M  V30 57342 O 5509.04 -3.117 4.77702 0
M  V30 57343 O 5507.97 -1.48989 5.83169 0
M  V30 57344 H 5511.8 0.260465 3.02581 0
M  V30 57345 H 5509.39 0.19348 1.48142 0
M  V30 57346 H 5511.27 -2.11259 3.6462 0
M  V30 57347 H 5509.94 -2.11521 2.45032 0
M  V30 57348 H 5508.85 -0.187461 3.7363 0
M  V30 57349 H 5510.18 -0.266301 4.91479 0
M  V30 57350 N 5511.83 -1.56766 0.161924 0
M  V30 57351 C 5512.74 -2.21086 -0.784737 0
M  V30 57352 C 5513.76 -1.19963 -1.26035 0
M  V30 57353 O 5514.94 -1.52593 -1.31443 0
M  V30 57354 C 5512 -2.8316 -2.00053 0
M  V30 57355 C 5511.06 -3.99455 -1.57271 0
M  V30 57356 C 5510.3 -4.5856 -2.73054 0
M  V30 57357 O 5510.52 -4.16548 -3.89672 0
M  V30 57358 O 5509.45 -5.48584 -2.47668 0
M  V30 57359 H 5513.28 -3.02523 -0.267136 0
M  V30 57360 H 5510.86 -1.49255 -0.0658259 0
M  V30 57361 H 5512.75 -3.22556 -2.71175 0
M  V30 57362 H 5511.42 -2.04727 -2.50736 0
M  V30 57363 H 5510.33 -3.64748 -0.831265 0
M  V30 57364 H 5511.66 -4.79454 -1.11288 0
M  V30 57365 N 5513.31 0.11183 -1.57203 0
M  V30 57366 C 5514.59 0.849063 -1.76211 0
M  V30 57367 C 5514.97 1.97733 -0.73926 0
M  V30 57368 O 5514.32 2.27284 0.235443 0
M  V30 57369 C 5514.53 1.35913 -3.21448 0
M  V30 57370 C 5515.88 1.80861 -3.84154 0
M  V30 57371 O 5516.9 1.45575 -3.25094 0
M  V30 57372 O 5515.76 2.46048 -4.87978 0
M  V30 57373 H 5512.85 0.403736 -0.721752 0
M  V30 57374 H 5515.4 0.095013 -1.69434 0
M  V30 57375 H 5514.17 0.549977 -3.87416 0
M  V30 57376 H 5513.79 2.17568 -3.32791 0
M  V30 57377 N 5514.79 1.52895 0.38221 0
M  V30 57378 C 5516.21 1.42297 0.722752 0
M  V30 57379 C 5516.41 0.548785 1.93883 0
M  V30 57380 O 5515.46 0.0248319 2.52488 0
M  V30 57381 C 5516.78 2.85249 0.951499 0
M  V30 57382 C 5518.32 2.94772 1.05255 0
M  V30 57383 C 5518.8 4.3875 1.31388 0
M  V30 57384 N 5520.29 4.42105 1.38195 0
M  V30 57385 C 5521.03 5.50597 1.60094 0
M  V30 57386 N 5520.52 6.69164 1.79418 0
M  V30 57387 N 5522.31 5.3815 1.62328 0
M  V30 57388 H 5514.47 2.08249 -0.417889 0
M  V30 57389 H 5516.73 0.939748 -0.124809 0
M  V30 57390 H 5516.43 3.5146 0.129965 0
M  V30 57391 H 5516.31 3.27909 1.86428 0
M  V30 57392 H 5518.7 2.28725 1.86464 0
M  V30 57393 H 5518.78 2.5553 0.117529 0
M  V30 57394 H 5518.42 5.05365 0.506861 0
M  V30 57395 H 5518.35 4.7555 2.26186 0
M  V30 57396 H 5520.84 3.56648 1.24942 0
M  V30 57397 H 5521.15 7.47622 1.95654 0
M  V30 57398 H 5519.5 6.72181 1.7663 0
M  V30 57399 H 5522.69 4.4449 1.46787 0
M  V30 57400 H 5522.86 6.22771 1.79055 0
M  V30 57401 N 5516.27 -0.641055 1.43973 0
M  V30 57402 C 5517.22 -1.75347 1.50074 0
M  V30 57403 C 5518.19 -1.62385 0.349323 0
M  V30 57404 O 5519.37 -1.82453 0.558183 0
M  V30 57405 C 5516.51 -3.13556 1.44142 0
M  V30 57406 C 5515.62 -3.37565 2.69581 0
M  V30 57407 C 5514.76 -4.65689 2.55552 0
M  V30 57408 C 5513.8 -4.82844 3.76203 0
M  V30 57409 N 5512.94 -6.02237 3.60909 0
M  V30 57410 H 5517.78 -1.69468 2.45122 0
M  V30 57411 H 5515.31 -0.826828 1.21663 0
M  V30 57412 H 5517.27 -3.93471 1.38694 0
M  V30 57413 H 5515.9 -3.18474 0.526675 0
M  V30 57414 H 5514.95 -2.5166 2.85257 0
M  V30 57415 H 5516.26 -3.46122 3.59167 0
M  V30 57416 H 5515.42 -5.5375 2.47882 0
M  V30 57417 H 5514.16 -4.59473 1.63511 0
M  V30 57418 H 5513.16 -3.93215 3.84268 0
M  V30 57419 H 5514.39 -4.90882 4.69268 0
M  V30 57420 H 5512.33 -5.97129 2.71612 0
M  V30 57421 H 5512.25 -6.11807 4.44104 0
M  V30 57422 H 5513.52 -6.92886 3.57113 0
M  V30 57423 N 5517.75 -1.30706 -0.880552 0
M  V30 57424 C 5518.69 -1.17462 -1.98674 0
M  V30 57425 C 5519.66 -0.0630152 -1.6598 0
M  V30 57426 O 5520.85 -0.233993 -1.8936 0
M  V30 57427 C 5517.99 -0.877 -3.3377 0
M  V30 57428 C 5517.1 -2.07092 -3.79127 0
M  V30 57429 C 5516.24 -1.711 -5.0289 0
M  V30 57430 C 5515.28 -2.86961 -5.40666 0
M  V30 57431 N 5514.41 -2.51235 -6.55611 0
M  V30 57432 H 5519.25 -2.12093 -2.09333 0
M  V30 57433 H 5516.79 -1.05518 -1.02491 0
M  V30 57434 H 5518.75 -0.685044 -4.11537 0
M  V30 57435 H 5517.38 0.0324498 -3.22784 0
M  V30 57436 H 5516.43 -2.37398 -2.97231 0
M  V30 57437 H 5517.74 -2.93844 -4.0306 0
M  V30 57438 H 5516.9 -1.48305 -5.88295 0
M  V30 57439 H 5515.64 -0.815233 -4.80838 0
M  V30 57440 H 5514.64 -3.10416 -4.53786 0
M  V30 57441 H 5515.87 -3.7723 -5.64689 0
M  V30 57442 H 5513.81 -1.6417 -6.35125 0
M  V30 57443 H 5513.73 -3.31518 -6.79435 0
M  V30 57444 H 5515 -2.31808 -7.44235 0
M  V30 57445 N 5519.23 1.09347 -1.13494 0
M  V30 57446 C 5520.19 2.14183 -0.815994 0
M  V30 57447 C 5521.19 1.59846 0.174919 0
M  V30 57448 O 5522.38 1.74122 -0.0522583 0
M  V30 57449 C 5519.51 3.40224 -0.214637 0
M  V30 57450 H 5520.7 2.43907 -1.74497 0
M  V30 57451 H 5518.26 1.24899 -0.939678 0
M  V30 57452 H 5518.99 3.16126 0.723523 0
M  V30 57453 H 5518.78 3.80954 -0.928236 0
M  V30 57454 H 5520.27 4.17599 -0.0083668 0
M  V30 57455 N 5520.7 0.928568 1.2734 0
M  V30 57456 C 5521.95 0.570304 1.94616 0
M  V30 57457 C 5522.28 -0.88632 1.72795 0
M  V30 57458 O 5521.56 -1.63238 1.05752 0
M  V30 57459 C 5521.84 0.898087 3.48721 0
M  V30 57460 C 5521.69 2.40853 3.79882 0
M  V30 57461 C 5523.01 0.404583 4.38236 0
M  V30 57462 H 5520.13 0.208669 0.706842 0
M  V30 57463 H 5522.77 1.1605 1.5044 0
M  V30 57464 H 5520.92 0.395815 3.86478 0
M  V30 57465 H 5522.6 2.98256 3.51911 0
M  V30 57466 H 5520.84 2.85734 3.26402 0
M  V30 57467 H 5521.51 2.5884 4.87551 0
M  V30 57468 H 5523.99 0.835062 4.07635 0
M  V30 57469 H 5522.86 0.662876 5.44883 0
M  V30 57470 H 5523.12 -0.695354 4.36597 0
M  V30 57471 N 5522.18 -1.41489 0.694172 0
M  V30 57472 C 5523.41 -2.06098 0.232042 0
M  V30 57473 C 5523.83 -1.51892 -1.10952 0
M  V30 57474 O 5523.19 -0.645307 -1.69427 0
M  V30 57475 C 5523.24 -3.60052 0.198648 0
M  V30 57476 O 5522.34 -4.04024 -0.826925 0
M  V30 57477 H 5521.68 -0.654189 0.113722 0
M  V30 57478 H 5524.21 -1.81279 0.948639 0
M  V30 57479 H 5524.22 -4.0799 0.0290338 0
M  V30 57480 H 5522.9 -3.98875 1.17778 0
M  V30 57481 H 5521.47 -3.67595 -0.626778 0
M  V30 57482 N 5523.66 -0.438826 -1.51367 0
M  V30 57483 C 5524.61 0.386243 -2.29371 0
M  V30 57484 C 5525.6 1.01955 -1.35283 0
M  V30 57485 O 5526.81 0.954346 -1.52618 0
M  V30 57486 H 5523.18 0.143371 -0.738206 0
M  V30 57487 H 5525.15 -0.292476 -2.96963 0
M  V30 57488 C 5523.9 1.47415 -3.14903 0
M  V30 57489 H 5523.23 0.996198 -3.8719 0
M  V30 57490 H 5524.67 2.02468 -3.72536 0
M  V30 57491 C 5523.12 2.45823 -2.30375 0
M  V30 57492 O 5523.65 3.50391 -1.9644 0
M  V30 57493 N 5521.86 2.16747 -1.93569 0
M  V30 57494 H 5521.41 1.3174 -2.21365 0
M  V30 57495 H 5521.37 2.82831 -1.3731 0
M  V30 57496 N 5525.14 1.56678 -0.170236 0
M  V30 57497 C 5526.39 1.96025 0.475078 0
M  V30 57498 C 5526.7 1.05885 1.64462 0
M  V30 57499 O 5527.91 1.34909 2.3561 0
M  V30 57500 C 5526.36 3.48553 0.896582 0
M  V30 57501 C 5525.97 4.47317 -0.247299 0
M  V30 57502 C 5527.71 3.96721 1.51038 0
M  V30 57503 C 5525.62 5.91082 0.193774 0
M  V30 57504 H 5524.55 0.731889 0.181257 0
M  V30 57505 H 5527.2 1.81673 -0.258294 0
M  V30 57506 H 5525.58 3.5832 1.6859 0
M  V30 57507 H 5526.76 4.49264 -1.02461 0
M  V30 57508 H 5525.07 4.092 -0.770982 0
M  V30 57509 H 5527.67 5.01588 1.8524 0
M  V30 57510 H 5528.01 3.39597 2.4079 0
M  V30 57511 H 5528.55 3.89967 0.785515 0
M  V30 57512 H 5525.28 6.52078 -0.668944 0
M  V30 57513 H 5524.8 5.92444 0.936466 0
M  V30 57514 H 5526.48 6.43847 0.638011 0
M  V30 57515 N 5526.62 -0.103492 1.5726 0
M  V30 57516 C 5527.56 -1.14506 2.02463 0
M  V30 57517 C 5528.56 -1.41967 0.924213 0
M  V30 57518 O 5529.76 -1.41747 1.1094 0
M  V30 57519 H 5526.14 -0.386446 0.645107 0
M  V30 57520 H 5528.11 -0.737429 2.89145 0
M  V30 57521 C 5526.86 -2.45939 2.45783 0
M  V30 57522 H 5526.18 -2.2565 3.30034 0
M  V30 57523 H 5527.62 -3.17341 2.81195 0
M  V30 57524 C 5526.08 -3.09635 1.3277 0
M  V30 57525 O 5526.61 -3.9637 0.652198 0
M  V30 57526 N 5524.82 -2.69753 1.08081 0
M  V30 57527 H 5524.36 -1.99314 1.63192 0
M  V30 57528 H 5524.32 -3.12699 0.326642 0
M  V30 57529 N 5528.09 -1.53096 -0.374097 0
M  V30 57530 C 5529.32 -1.72762 -1.13846 0
M  V30 57531 C 5529.74 -0.452702 -1.83292 0
M  V30 57532 O 5529.09 0.573845 -1.73243 0
M  V30 57533 C 5529.15 -2.88731 -2.17523 0
M  V30 57534 O 5528.87 -4.11289 -1.50906 0
M  V30 57535 C 5530.37 -3.202 -3.06572 0
M  V30 57536 H 5527.59 -0.57804 -0.340751 0
M  V30 57537 H 5530.13 -1.99807 -0.435613 0
M  V30 57538 H 5528.29 -2.64106 -2.8342 0
M  V30 57539 H 5528.7 -4.7617 -2.19915 0
M  V30 57540 H 5530.17 -4.04772 -3.75318 0
M  V30 57541 H 5530.65 -2.35206 -3.70911 0
M  V30 57542 H 5531.26 -3.4672 -2.46303 0
M  V30 57543 N 5529.57 0.633411 -1.44311 0
M  V30 57544 C 5530.5 1.75671 -1.53825 0
M  V30 57545 C 5531.48 1.65535 -0.391423 0
M  V30 57546 O 5532.67 1.8433 -0.611246 0
M  V30 57547 C 5529.8 3.14192 -1.4799 0
M  V30 57548 C 5528.75 3.39113 -2.61125 0
M  V30 57549 C 5528.08 4.7764 -2.40342 0
M  V30 57550 C 5529.38 3.319 -4.03286 0
M  V30 57551 H 5531.07 1.67966 -2.47847 0
M  V30 57552 H 5528.62 0.806658 -1.19285 0
M  V30 57553 H 5530.57 3.92547 -1.53246 0
M  V30 57554 H 5529.3 3.22675 -0.504832 0
M  V30 57555 H 5527.95 2.63136 -2.55254 0
M  V30 57556 H 5527.6 4.82824 -1.41033 0
M  V30 57557 H 5527.3 4.95273 -3.16194 0
M  V30 57558 H 5528.83 5.58229 -2.47413 0
M  V30 57559 H 5530.24 4.00164 -4.10538 0
M  V30 57560 H 5528.64 3.61068 -4.79322 0
M  V30 57561 H 5529.71 2.29746 -4.27018 0
M  V30 57562 N 5531.05 1.31171 0.873608 0
M  V30 57563 C 5531.98 1.21101 1.99642 0
M  V30 57564 C 5532.96 0.0990281 1.69811 0
M  V30 57565 O 5534.15 0.283007 1.92127 0
M  V30 57566 C 5531.28 0.913802 3.35063 0
M  V30 57567 C 5530.23 1.98495 3.79188 0
M  V30 57568 C 5529.56 1.54051 5.12028 0
M  V30 57569 C 5530.86 3.39759 3.96687 0
M  V30 57570 H 5532.55 2.15037 2.08325 0
M  V30 57571 H 5530.1 1.03525 1.00093 0
M  V30 57572 H 5532.05 0.829966 4.13146 0
M  V30 57573 H 5530.77 -0.0612323 3.26543 0
M  V30 57574 H 5529.43 2.05862 3.03342 0
M  V30 57575 H 5529.08 0.553437 4.99946 0
M  V30 57576 H 5528.78 2.25707 5.42522 0
M  V30 57577 H 5530.3 1.47068 5.92624 0
M  V30 57578 H 5531.72 3.35088 4.65176 0
M  V30 57579 H 5530.12 4.096 4.38575 0
M  V30 57580 H 5531.19 3.80813 3.00182 0
M  V30 57581 N 5532.53 -1.08744 1.14072 0
M  V30 57582 C 5533.81 -1.77687 0.817722 0
M  V30 57583 C 5534.19 -1.99525 -0.689431 0
M  V30 57584 O 5533.53 -1.60228 -1.62909 0
M  V30 57585 C 5533.74 -3.09512 1.61256 0
M  V30 57586 C 5535.09 -3.84102 1.80972 0
M  V30 57587 O 5536.12 -3.19283 1.57913 0
M  V30 57588 O 5534.97 -5.00483 2.19496 0
M  V30 57589 H 5532.07 -0.770943 0.299293 0
M  V30 57590 H 5534.61 -1.15237 1.24573 0
M  V30 57591 H 5533.39 -2.89146 2.63648 0
M  V30 57592 H 5533.01 -3.79688 1.17995 0
M  V30 57593 N 5534.01 -0.935308 -1.26845 0
M  V30 57594 C 5534.95 -0.438975 -2.26587 0
M  V30 57595 C 5535.92 0.498212 -1.58452 0
M  V30 57596 O 5537.11 0.415706 -1.86216 0
M  V30 57597 C 5534.25 0.295172 -3.43835 0
M  V30 57598 C 5533.36 -0.677007 -4.26662 0
M  V30 57599 C 5532.5 0.0777482 -5.31143 0
M  V30 57600 C 5531.54 -0.886638 -6.05644 0
M  V30 57601 N 5530.67 -0.164018 -7.01908 0
M  V30 57602 H 5535.51 -1.29449 -2.68416 0
M  V30 57603 H 5533.05 -0.64957 -1.31981 0
M  V30 57604 H 5535.01 0.73721 -4.10635 0
M  V30 57605 H 5533.64 1.11487 -3.02937 0
M  V30 57606 H 5532.69 -1.23756 -3.59706 0
M  V30 57607 H 5534 -1.41372 -4.78346 0
M  V30 57608 H 5533.16 0.579345 -6.03928 0
M  V30 57609 H 5531.89 0.847381 -4.80282 0
M  V30 57610 H 5530.9 -1.39941 -5.31692 0
M  V30 57611 H 5532.12 -1.65618 -6.58595 0
M  V30 57612 H 5530.07 0.587231 -6.53366 0
M  V30 57613 H 5529.99 -0.840166 -7.51317 0
M  V30 57614 H 5531.26 0.316677 -7.78856 0
M  V30 57615 N 5535.48 1.41118 -0.701666 0
M  V30 57616 C 5536.45 2.29147 -0.0490897 0
M  V30 57617 C 5537.45 1.44681 0.701712 0
M  V30 57618 O 5538.64 1.65759 0.535691 0
M  V30 57619 C 5535.77 3.27663 0.940722 0
M  V30 57620 H 5536.96 2.88351 -0.824234 0
M  V30 57621 H 5534.52 1.49207 -0.465509 0
M  V30 57622 H 5535.25 2.73451 1.74342 0
M  V30 57623 H 5535.04 3.89998 0.405413 0
M  V30 57624 H 5536.53 3.93613 1.39493 0
M  V30 57625 N 5536.96 0.446847 1.51133 0
M  V30 57626 C 5538.24 -0.176824 1.94799 0
M  V30 57627 C 5538.62 -1.59224 1.38604 0
M  V30 57628 O 5537.97 -2.21095 0.576982 0
M  V30 57629 C 5538.18 -0.144878 3.48699 0
M  V30 57630 C 5539.53 -0.345768 4.2319 0
M  V30 57631 O 5540.55 -0.222566 3.55504 0
M  V30 57632 O 5539.41 -0.591921 5.43285 0
M  V30 57633 H 5536.5 -0.124832 0.817524 0
M  V30 57634 H 5539.05 0.50551 1.61996 0
M  V30 57635 H 5537.82 0.844291 3.82083 0
M  V30 57636 H 5537.44 -0.869715 3.87971 0
M  V30 57637 N 5538.44 -1.56585 0.178542 0
M  V30 57638 C 5539.86 -1.5861 -0.177535 0
M  V30 57639 C 5540.06 -1.19416 -1.62302 0
M  V30 57640 O 5539.11 -0.909143 -2.35565 0
M  V30 57641 C 5540.43 -3.00499 0.109828 0
M  V30 57642 C 5541.97 -3.12962 0.0486136 0
M  V30 57643 C 5542.45 -4.56956 0.309062 0
M  V30 57644 N 5543.94 -4.62486 0.257093 0
M  V30 57645 C 5544.67 -5.71765 0.432689 0
M  V30 57646 N 5544.17 -6.89575 0.667736 0
M  V30 57647 N 5545.96 -5.60893 0.368092 0
M  V30 57648 H 5538.11 -1.80347 1.12199 0
M  V30 57649 H 5540.38 -0.836214 0.446598 0
M  V30 57650 H 5540.08 -3.33676 1.11144 0
M  V30 57651 H 5539.96 -3.72474 -0.595242 0
M  V30 57652 H 5542.34 -2.79608 -0.943589 0
M  V30 57653 H 5542.43 -2.43409 0.786506 0
M  V30 57654 H 5542.07 -4.91021 1.29851 0
M  V30 57655 H 5542 -5.24678 -0.449526 0
M  V30 57656 H 5544.49 -3.77812 0.0813636 0
M  V30 57657 H 5544.8 -7.68741 0.790981 0
M  V30 57658 H 5543.15 -6.91421 0.704436 0
M  V30 57659 H 5546.34 -4.67734 0.185002 0
M  V30 57660 H 5546.51 -6.46003 0.508365 0
M  V30 57661 N 5539.92 0.0951507 -1.57313 0
M  V30 57662 C 5541.16 0.799837 -1.86361 0
M  V30 57663 C 5541.5 1.78384 -0.767655 0
M  V30 57664 O 5540.77 1.93202 0.224371 0
M  V30 57665 C 5541.06 1.52863 -3.26044 0
M  V30 57666 C 5540.91 0.562624 -4.46267 0
M  V30 57667 C 5542.23 2.47922 -3.63624 0
M  V30 57668 H 5539.35 0.289315 -0.677839 0
M  V30 57669 H 5541.99 0.0634701 -1.89894 0
M  V30 57670 H 5540.14 2.15633 -3.23163 0
M  V30 57671 H 5541.81 -0.058069 -4.61263 0
M  V30 57672 H 5540.05 -0.124 -4.33623 0
M  V30 57673 H 5540.72 1.1097 -5.40731 0
M  V30 57674 H 5543.2 1.95244 -3.67449 0
M  V30 57675 H 5542.08 2.95932 -4.62294 0
M  V30 57676 H 5542.34 3.31677 -2.92306 0
M  V30 57677 N 5541.4 1.53292 0.365972 0
M  V30 57678 C 5542.63 1.73112 1.12764 0
M  V30 57679 C 5543.03 0.459726 1.8353 0
M  V30 57680 O 5542.38 -0.57709 1.744 0
M  V30 57681 C 5542.44 2.84144 2.20232 0
M  V30 57682 C 5542.1 4.24509 1.69237 0
M  V30 57683 C 5543.1 5.0687 1.15666 0
M  V30 57684 C 5540.79 4.70918 1.74762 0
M  V30 57685 C 5542.78 6.3373 0.682969 0
M  V30 57686 C 5540.47 5.97757 1.27004 0
M  V30 57687 C 5541.46 6.78994 0.738619 0
M  V30 57688 O 5541.15 8.03453 0.268093 0
M  V30 57689 H 5540.88 0.582451 0.343113 0
M  V30 57690 H 5543.44 2.00829 0.430899 0
M  V30 57691 H 5541.67 2.519 2.93399 0
M  V30 57692 H 5543.36 2.92146 2.8179 0
M  V30 57693 H 5544.12 4.72189 1.10737 0
M  V30 57694 H 5540 4.07759 2.15067 0
M  V30 57695 H 5543.55 6.97087 0.2675 0
M  V30 57696 H 5539.44 6.31937 1.31627 0
M  V30 57697 H 5540.21 8.17582 0.387458 0
M  V30 57698 N 5542.88 -0.625749 1.44645 0
M  V30 57699 C 5543.83 -1.7313 1.48358 0
M  V30 57700 C 5544.81 -1.57074 0.348772 0
M  V30 57701 O 5546 -1.6672 0.594438 0
M  V30 57702 C 5543.13 -3.11833 1.43579 0
M  V30 57703 C 5542.22 -3.33339 2.62194 0
M  V30 57704 N 5542.61 -3.25187 3.87411 0
M  V30 57705 C 5540.91 -3.64153 2.57505 0
M  V30 57706 C 5541.61 -3.47528 4.66475 0
M  V30 57707 N 5540.58 -3.70658 3.97635 0
M  V30 57708 H 5544.38 -1.65293 2.43013 0
M  V30 57709 H 5541.9 -0.828399 1.39683 0
M  V30 57710 H 5543.9 -3.91122 1.44323 0
M  V30 57711 H 5542.56 -3.20832 0.49966 0
M  V30 57712 H 5543.57 -3.03987 4.193 0
M  V30 57713 H 5540.24 -3.801 1.72713 0
M  V30 57714 H 5541.63 -3.46772 5.75499 0
M  V30 57715 N 5544.35 -1.31632 -0.86664 0
M  V30 57716 C 5545.29 -1.15384 -1.98038 0
M  V30 57717 C 5546.3 -0.0920204 -1.6254 0
M  V30 57718 O 5547.49 -0.339836 -1.75235 0
M  V30 57719 C 5544.59 -0.741412 -3.30691 0
M  V30 57720 C 5543.76 -1.88895 -3.94509 0
M  V30 57721 C 5542.82 -1.46204 -5.05481 0
M  V30 57722 O 5541.85 -2.17221 -5.26121 0
M  V30 57723 N 5543.05 -0.3513 -5.79436 0
M  V30 57724 H 5545.81 -2.11316 -2.12522 0
M  V30 57725 H 5543.37 -1.24011 -1.04081 0
M  V30 57726 H 5545.37 -0.438455 -4.02318 0
M  V30 57727 H 5543.94 0.1264 -3.12344 0
M  V30 57728 H 5543.16 -2.35905 -3.1582 0
M  V30 57729 H 5544.44 -2.6575 -4.33883 0
M  V30 57730 H 5543.84 0.240046 -5.6519 0
M  V30 57731 H 5542.4 -0.107892 -6.51711 0
M  V30 57732 N 5545.83 1.08138 -1.14647 0
M  V30 57733 C 5546.76 2.17136 -0.858744 0
M  V30 57734 C 5547.74 1.69065 0.187392 0
M  V30 57735 O 5548.93 1.94151 0.0434776 0
M  V30 57736 C 5546.06 3.45647 -0.338462 0
M  V30 57737 C 5545.01 4.07125 -1.32036 0
M  V30 57738 C 5544.34 5.3062 -0.659261 0
M  V30 57739 C 5545.64 4.48086 -2.68359 0
M  V30 57740 H 5547.33 2.41462 -1.77021 0
M  V30 57741 H 5544.88 1.16049 -0.852563 0
M  V30 57742 H 5546.83 4.21215 -0.124759 0
M  V30 57743 H 5545.55 3.20882 0.60844 0
M  V30 57744 H 5544.21 3.33591 -1.52028 0
M  V30 57745 H 5543.86 5.02143 0.293534 0
M  V30 57746 H 5543.56 5.72709 -1.31447 0
M  V30 57747 H 5545.09 6.08901 -0.455147 0
M  V30 57748 H 5546.5 5.14819 -2.52258 0
M  V30 57749 H 5544.9 5.01101 -3.30178 0
M  V30 57750 H 5545.97 3.5984 -3.25027 0
M  V30 57751 N 5547.31 0.942022 1.26348 0
M  V30 57752 C 5548.24 0.396565 2.24728 0
M  V30 57753 C 5549.22 -0.515086 1.54226 0
M  V30 57754 O 5550.4 -0.452341 1.82992 0
M  V30 57755 C 5547.53 -0.430114 3.35958 0
M  V30 57756 C 5546.58 0.42013 4.24426 0
M  V30 57757 S 5547.41 1.8446 5.02727 0
M  V30 57758 C 5548.57 1.026 6.17434 0
M  V30 57759 H 5548.8 1.23034 2.70647 0
M  V30 57760 H 5546.33 0.745196 1.35226 0
M  V30 57761 H 5548.29 -0.901174 4.00486 0
M  V30 57762 H 5546.95 -1.23858 2.88649 0
M  V30 57763 H 5546.14 -0.213298 5.03548 0
M  V30 57764 H 5545.75 0.825908 3.64767 0
M  V30 57765 H 5548.04 0.268669 6.76967 0
M  V30 57766 H 5548.98 1.79072 6.85083 0
M  V30 57767 H 5549.39 0.561686 5.61699 0
M  V30 57768 N 5548.79 -1.40744 0.70914 0
M  V30 57769 C 5550.04 -2.00605 0.245395 0
M  V30 57770 C 5550.36 -1.56493 -1.1634 0
M  V30 57771 O 5549.63 -0.801519 -1.78753 0
M  V30 57772 H 5548.21 -0.74183 0.0877359 0
M  V30 57773 H 5550.87 -1.72175 0.913331 0
M  V30 57774 H 5549.96 -3.109 0.273432 0
M  V30 57775 N 5550.27 -0.454856 -1.50893 0
M  V30 57776 C 5551.22 0.365993 -2.25043 0
M  V30 57777 C 5552.2 0.975308 -1.27971 0
M  V30 57778 O 5553.39 0.890546 -1.52965 0
M  V30 57779 C 5550.52 1.45672 -3.10861 0
M  V30 57780 C 5549.61 0.85594 -4.15373 0
M  V30 57781 N 5550 -0.0140565 -5.05798 0
M  V30 57782 C 5548.3 1.12165 -4.31665 0
M  V30 57783 C 5549 -0.353334 -5.80626 0
M  V30 57784 N 5547.97 0.267457 -5.42942 0
M  V30 57785 H 5551.77 -0.304459 -2.92319 0
M  V30 57786 H 5549.29 -0.267994 -1.60174 0
M  V30 57787 H 5551.29 2.05781 -3.62574 0
M  V30 57788 H 5549.95 2.12933 -2.45132 0
M  V30 57789 H 5550.96 -0.381755 -5.16491 0
M  V30 57790 H 5547.63 1.79045 -3.77159 0
M  V30 57791 H 5549.02 -1.06236 -6.63448 0
M  V30 57792 N 5551.74 1.56489 -0.186844 0
M  V30 57793 C 5553.16 1.58701 0.169121 0
M  V30 57794 C 5553.36 1.20275 1.61667 0
M  V30 57795 O 5552.42 0.921622 2.35079 0
M  V30 57796 C 5553.73 3.00437 -0.125762 0
M  V30 57797 C 5555.28 3.12932 -0.06521 0
M  V30 57798 C 5555.75 4.56786 -0.333291 0
M  V30 57799 N 5557.24 4.62343 -0.281616 0
M  V30 57800 C 5557.98 5.71528 -0.463005 0
M  V30 57801 N 5557.47 6.89211 -0.704297 0
M  V30 57802 N 5559.27 5.6069 -0.397833 0
M  V30 57803 H 5551.42 1.7975 -1.13154 0
M  V30 57804 H 5553.68 0.833834 -0.451027 0
M  V30 57805 H 5553.39 3.33082 -1.12912 0
M  V30 57806 H 5553.26 3.72784 0.575481 0
M  V30 57807 H 5555.65 2.80104 0.928747 0
M  V30 57808 H 5555.73 2.42988 -0.799403 0
M  V30 57809 H 5555.37 4.90325 -1.32453 0
M  V30 57810 H 5555.3 5.24909 0.421695 0
M  V30 57811 H 5557.79 3.77764 -0.101399 0
M  V30 57812 H 5558.11 7.68311 -0.831738 0
M  V30 57813 H 5556.45 6.91037 -0.741094 0
M  V30 57814 H 5559.64 4.6763 -0.209804 0
M  V30 57815 H 5559.82 6.45724 -0.542617 0
M  V30 57816 N 5553.22 -0.0868067 1.57361 0
M  V30 57817 C 5554.63 -0.64038 1.75374 0
M  V30 57818 C 5554.98 -1.7869 0.810203 0
M  V30 57819 O 5554.11 -2.16398 -0.00933105 0
M  V30 57820 C 5554.7 -1.16845 3.18014 0
M  V30 57821 C 5553.26 -1.66801 3.37423 0
M  V30 57822 C 5552.41 -0.581065 2.71144 0
M  V30 57823 H 5555.36 0.139305 1.58087 0
M  V30 57824 H 5555.38 -2.03761 3.21344 0
M  V30 57825 H 5554.89 -0.333773 3.86662 0
M  V30 57826 H 5552.99 -2.52642 2.73866 0
M  V30 57827 H 5553.11 -1.75529 4.45787 0
M  V30 57828 H 5551.47 -1.02251 2.33274 0
M  V30 57829 H 5552.25 0.243167 3.42438 0
M  V30 57830 N 5554.7 -1.53484 -0.357838 0
M  V30 57831 C 5555.63 -1.76762 -1.45904 0
M  V30 57832 C 5556.64 -0.648554 -1.49324 0
M  V30 57833 O 5557.83 -0.924986 -1.52664 0
M  V30 57834 C 5554.93 -1.83948 -2.84633 0
M  V30 57835 C 5554.11 -3.13694 -3.0482 0
M  V30 57836 C 5553.17 -3.12022 -4.23709 0
M  V30 57837 O 5552.19 -3.85795 -4.18511 0
M  V30 57838 N 5553.39 -2.33385 -5.31518 0
M  V30 57839 H 5556.16 -2.71782 -1.26311 0
M  V30 57840 H 5553.72 -1.52357 -0.54762 0
M  V30 57841 H 5555.71 -1.80298 -3.62318 0
M  V30 57842 H 5554.28 -0.96178 -2.97437 0
M  V30 57843 H 5553.5 -3.30584 -2.14728 0
M  V30 57844 H 5554.79 -3.99423 -3.1518 0
M  V30 57845 H 5554.19 -1.72973 -5.38606 0
M  V30 57846 H 5552.74 -2.35546 -6.07751 0
M  V30 57847 N 5556.18 0.618069 -1.44975 0
M  V30 57848 C 5557.11 1.74029 -1.55679 0
M  V30 57849 C 5558.09 1.65111 -0.408958 0
M  V30 57850 O 5559.27 1.83671 -0.630762 0
M  V30 57851 C 5556.4 3.12604 -1.51314 0
M  V30 57852 C 5555.36 3.36324 -2.64707 0
M  V30 57853 C 5554.68 4.75064 -2.45395 0
M  V30 57854 C 5555.98 3.27604 -4.06784 0
M  V30 57855 H 5557.68 1.65327 -2.49614 0
M  V30 57856 H 5555.22 0.793961 -1.20134 0
M  V30 57857 H 5557.18 3.909 -1.57401 0
M  V30 57858 H 5555.9 3.22121 -0.539027 0
M  V30 57859 H 5554.56 2.60414 -2.58031 0
M  V30 57860 H 5554.21 4.81301 -1.46146 0
M  V30 57861 H 5553.91 4.91891 -3.21429 0
M  V30 57862 H 5555.43 5.55573 -2.5332 0
M  V30 57863 H 5556.85 3.95787 -4.14759 0
M  V30 57864 H 5555.24 3.55964 -4.83125 0
M  V30 57865 H 5556.31 2.25204 -4.29431 0
M  V30 57866 N 5557.66 1.3209 0.859647 0
M  V30 57867 C 5558.57 1.22594 2.0002 0
M  V30 57868 C 5559.58 0.140538 1.73432 0
M  V30 57869 O 5560.76 0.360282 1.98151 0
M  V30 57870 C 5557.82 0.944313 3.33592 0
M  V30 57871 C 5556.88 2.11765 3.73435 0
M  V30 57872 C 5556.12 1.84937 5.00634 0
M  V30 57873 O 5556.34 0.789498 5.6491 0
M  V30 57874 O 5555.27 2.70904 5.37489 0
M  V30 57875 H 5559.1 2.18465 2.10967 0
M  V30 57876 H 5556.69 1.11931 0.989538 0
M  V30 57877 H 5558.57 0.803535 4.13668 0
M  V30 57878 H 5557.24 0.0157221 3.23696 0
M  V30 57879 H 5556.15 2.31388 2.93956 0
M  V30 57880 H 5557.48 3.02886 3.8797 0
M  V30 57881 N 5559.13 -1.07528 1.15219 0
M  V30 57882 C 5560.08 -2.16782 0.843098 0
M  V30 57883 C 5561.08 -1.68411 -0.182742 0
M  V30 57884 O 5562.28 -1.7996 -0.0379532 0
M  V30 57885 H 5558.66 -0.707456 0.25497 0
M  V30 57886 H 5560.63 -2.40072 1.77224 0
M  V30 57887 C 5559.38 -3.45966 0.346821 0
M  V30 57888 H 5558.7 -3.8357 1.12757 0
M  V30 57889 H 5560.14 -4.23662 0.169188 0
M  V30 57890 C 5558.6 -3.23772 -0.931323 0
M  V30 57891 O 5559.13 -3.48186 -2.00324 0
M  V30 57892 N 5557.34 -2.77268 -0.87012 0
M  V30 57893 H 5556.88 -2.576 0.00235279 0
M  V30 57894 H 5556.84 -2.62796 -1.72584 0
M  V30 57895 N 5560.61 -0.948709 -1.25846 0
M  V30 57896 C 5561.54 -0.482116 -2.28469 0
M  V30 57897 C 5562.52 0.468496 -1.63521 0
M  V30 57898 O 5563.71 0.368729 -1.90667 0
M  V30 57899 C 5560.84 0.246481 -3.46424 0
M  V30 57900 C 5559.79 -0.618299 -4.2351 0
M  V30 57901 C 5559.12 0.240696 -5.34158 0
M  V30 57902 C 5560.42 -1.89344 -4.86771 0
M  V30 57903 H 5562.11 -1.33982 -2.67748 0
M  V30 57904 H 5559.66 -0.64569 -1.28712 0
M  V30 57905 H 5561.61 0.583988 -4.17334 0
M  V30 57906 H 5560.34 1.13838 -3.06118 0
M  V30 57907 H 5558.99 -0.938807 -3.54375 0
M  V30 57908 H 5558.64 1.13218 -4.90093 0
M  V30 57909 H 5558.34 -0.334573 -5.86647 0
M  V30 57910 H 5559.87 0.573303 -6.07903 0
M  V30 57911 H 5561.28 -1.62271 -5.49855 0
M  V30 57912 H 5559.68 -2.41388 -5.4941 0
M  V30 57913 H 5560.75 -2.6002 -4.09289 0
M  V30 57914 N 5562.09 1.40366 -0.716594 0
M  V30 57915 C 5563.02 2.33365 -0.0794354 0
M  V30 57916 C 5564 1.52945 0.744428 0
M  V30 57917 O 5565.19 1.81409 0.693148 0
M  V30 57918 C 5562.32 3.36931 0.842311 0
M  V30 57919 C 5561.27 4.2782 0.123991 0
M  V30 57920 C 5560.6 5.21932 1.16152 0
M  V30 57921 C 5561.9 5.12195 -1.02242 0
M  V30 57922 H 5563.59 2.86896 -0.856216 0
M  V30 57923 H 5561.14 1.37945 -0.413187 0
M  V30 57924 H 5563.09 4.00929 1.29745 0
M  V30 57925 H 5561.81 2.81797 1.651 0
M  V30 57926 H 5560.47 3.65276 -0.31133 0
M  V30 57927 H 5560.12 4.63103 1.96329 0
M  V30 57928 H 5559.82 5.83585 0.685773 0
M  V30 57929 H 5561.34 5.88807 1.61674 0
M  V30 57930 H 5562.76 5.69642 -0.646599 0
M  V30 57931 H 5561.16 5.82896 -1.42661 0
M  V30 57932 H 5562.23 4.48114 -1.85262 0
M  V30 57933 N 5563.57 0.462852 1.5065 0
M  V30 57934 C 5564.81 -0.0938227 2.04185 0
M  V30 57935 C 5565.17 -1.37721 1.33779 0
M  V30 57936 O 5566.37 -2.01574 1.77824 0
M  V30 57937 C 5564.64 -0.281759 3.56288 0
M  V30 57938 S 5566.2 -0.798174 4.3148 0
M  V30 57939 H 5563.02 -0.0198469 0.710723 0
M  V30 57940 H 5565.62 0.628105 1.85135 0
M  V30 57941 H 5564.33 0.658227 4.05087 0
M  V30 57942 H 5563.86 -1.03004 3.79676 0
M  V30 57943 H 5565.87 -2.07265 4.50839 0
M  V30 57944 N 5565.05 -1.56387 0.19514 0
M  V30 57945 C 5565.99 -2.19094 -0.725716 0
M  V30 57946 C 5566.96 -1.13819 -1.20973 0
M  V30 57947 O 5568.15 -1.4207 -1.27361 0
M  V30 57948 C 5565.29 -2.85434 -1.93963 0
M  V30 57949 C 5564.4 -4.05234 -1.49698 0
M  V30 57950 C 5563.54 -4.59431 -2.6664 0
M  V30 57951 C 5562.58 -5.71589 -2.18981 0
M  V30 57952 N 5561.71 -6.20191 -3.29101 0
M  V30 57953 H 5566.55 -2.9743 -0.184229 0
M  V30 57954 H 5564.09 -1.46887 -0.0791917 0
M  V30 57955 H 5566.05 -3.22066 -2.65197 0
M  V30 57956 H 5564.68 -2.09661 -2.45443 0
M  V30 57957 H 5563.73 -3.74264 -0.68051 0
M  V30 57958 H 5565.04 -4.86354 -1.10732 0
M  V30 57959 H 5564.2 -4.98369 -3.45996 0
M  V30 57960 H 5562.93 -3.77418 -3.0888 0
M  V30 57961 H 5561.94 -5.32179 -1.38079 0
M  V30 57962 H 5563.16 -6.55419 -1.77772 0
M  V30 57963 H 5561.11 -5.41101 -3.70872 0
M  V30 57964 H 5561.03 -6.96363 -2.94304 0
M  V30 57965 H 5562.3 -6.63783 -4.08671 0
M  V30 57966 N 5566.52 0.0784603 -1.57405 0
M  V30 57967 C 5567.77 0.780026 -1.87199 0
M  V30 57968 C 5568.1 1.77559 -0.786532 0
M  V30 57969 O 5567.38 1.93429 0.203867 0
M  V30 57970 C 5567.66 1.49396 -3.27647 0
M  V30 57971 C 5567.51 0.515259 -4.46839 0
M  V30 57972 C 5568.83 2.44051 -3.66234 0
M  V30 57973 H 5565.95 0.28211 -0.680869 0
M  V30 57974 H 5568.59 0.0433258 -1.89951 0
M  V30 57975 H 5566.74 2.12193 -3.25432 0
M  V30 57976 H 5568.42 -0.106989 -4.61176 0
M  V30 57977 H 5566.66 -0.169984 -4.33467 0
M  V30 57978 H 5567.33 1.05228 -5.41877 0
M  V30 57979 H 5569.81 1.91336 -3.69499 0
M  V30 57980 H 5568.68 2.91012 -4.65406 0
M  V30 57981 H 5568.94 3.28558 -2.95807 0
M  V30 57982 N 5568 1.53671 0.349693 0
M  V30 57983 C 5568.95 1.81919 1.44942 0
M  V30 57984 C 5569.94 0.689273 1.54743 0
M  V30 57985 O 5571.15 0.872503 1.5744 0
M  V30 57986 H 5567.53 0.576251 0.483156 0
M  V30 57987 H 5569.5 2.73936 1.18329 0
M  V30 57988 C 5568.25 2.04015 2.81555 0
M  V30 57989 H 5567.57 2.90409 2.74778 0
M  V30 57990 H 5569.01 2.27749 3.5764 0
M  V30 57991 C 5567.47 0.823863 3.26671 0
M  V30 57992 O 5568 0.0202763 4.01695 0
M  V30 57993 N 5566.2 0.642815 2.83401 0
M  V30 57994 H 5565.75 1.29791 2.22513 0
M  V30 57995 H 5565.71 -0.169544 3.13943 0
M  V30 57996 N 5569.48 -0.610372 1.453 0
M  V30 57997 C 5570.39 -1.74958 1.56291 0
M  V30 57998 C 5571.41 -1.68147 0.447495 0
M  V30 57999 O 5572.58 -1.88553 0.707791 0
M  V30 58000 C 5569.65 -3.11411 1.52394 0
M  V30 58001 C 5568.71 -3.29697 2.74952 0
M  V30 58002 C 5567.94 -4.5964 2.71231 0
M  V30 58003 O 5568.16 -5.41783 1.78402 0
M  V30 58004 O 5567.1 -4.80578 3.62392 0
M  V30 58005 H 5570.92 -1.68637 2.52577 0
M  V30 58006 H 5568.51 -0.774124 1.2778 0
M  V30 58007 H 5570.39 -3.92714 1.52818 0
M  V30 58008 H 5569.07 -3.1823 0.592584 0
M  V30 58009 H 5567.97 -2.47993 2.8009 0
M  V30 58010 H 5569.31 -3.27753 3.67204 0
M  V30 58011 N 5570.96 -1.32544 -0.85263 0
M  V30 58012 C 5571.92 -1.21585 -1.94293 0
M  V30 58013 C 5572.92 -0.138374 -1.60204 0
M  V30 58014 O 5574.11 -0.388923 -1.69803 0
M  V30 58015 C 5571.24 -0.870325 -3.29603 0
M  V30 58016 H 5572.44 -2.18483 -2.05439 0
M  V30 58017 H 5569.99 -1.16404 -1.04306 0
M  V30 58018 H 5570.72 0.0967558 -3.24156 0
M  V30 58019 H 5570.51 -1.64936 -3.55722 0
M  V30 58020 H 5572 -0.818018 -4.0951 0
M  V30 58021 N 5572.44 1.06915 -1.15788 0
M  V30 58022 C 5573.4 2.12404 -0.861242 0
M  V30 58023 C 5574.4 1.60181 0.140974 0
M  V30 58024 O 5575.59 1.73972 -0.0891803 0
M  V30 58025 C 5572.72 3.39692 -0.286755 0
M  V30 58026 H 5573.92 2.40151 -1.79632 0
M  V30 58027 H 5571.47 1.22878 -0.965959 0
M  V30 58028 H 5572.2 3.1759 0.656305 0
M  V30 58029 H 5571.99 3.789 -1.00883 0
M  V30 58030 H 5573.48 4.17487 -0.0969439 0
M  V30 58031 N 5573.92 0.95537 1.25341 0
M  V30 58032 C 5575.33 0.651179 1.74976 0
M  V30 58033 C 5575.68 -0.833433 1.77619 0
M  V30 58034 O 5574.8 -1.65223 1.39751 0
M  V30 58035 C 5575.4 1.17533 3.1776 0
M  V30 58036 C 5573.96 0.92128 3.64951 0
M  V30 58037 C 5573.1 1.31793 2.43979 0
M  V30 58038 H 5576.05 1.13209 1.11218 0
M  V30 58039 H 5576.08 0.535757 3.76709 0
M  V30 58040 H 5575.59 2.25586 3.15805 0
M  V30 58041 H 5573.69 -0.144261 3.72321 0
M  V30 58042 H 5573.8 1.55826 4.53051 0
M  V30 58043 H 5572.17 0.736305 2.43825 0
M  V30 58044 H 5572.95 2.40769 2.44714 0
M  V30 58045 N 5575.39 -1.39984 0.724028 0
M  V30 58046 C 5576.3 -2.3447 0.078176 0
M  V30 58047 C 5577.32 -1.57746 -0.734312 0
M  V30 58048 O 5578.5 -1.90093 -0.665318 0
M  V30 58049 C 5575.56 -3.36708 -0.826374 0
M  V30 58050 C 5574.62 -4.293 -0.00287944 0
M  V30 58051 C 5573.85 -5.26654 -0.86435 0
M  V30 58052 O 5574.08 -5.30202 -2.10339 0
M  V30 58053 O 5573.01 -6.01158 -0.298845 0
M  V30 58054 H 5576.84 -2.91335 0.857749 0
M  V30 58055 H 5574.42 -1.41323 0.484586 0
M  V30 58056 H 5576.3 -3.99384 -1.34425 0
M  V30 58057 H 5574.98 -2.82243 -1.58495 0
M  V30 58058 H 5573.89 -3.69881 0.560266 0
M  V30 58059 H 5575.22 -4.8694 0.717665 0
M  V30 58060 N 5576.87 -0.470835 -1.50402 0
M  V30 58061 C 5577.82 0.32347 -2.28522 0
M  V30 58062 C 5578.79 0.987425 -1.33563 0
M  V30 58063 O 5579.97 0.999912 -1.625 0
M  V30 58064 C 5577.11 1.39966 -3.15442 0
M  V30 58065 C 5576.23 0.750507 -4.25431 0
M  V30 58066 C 5575.36 1.80457 -4.99609 0
M  V30 58067 C 5574.4 1.13565 -6.01473 0
M  V30 58068 N 5573.54 2.13255 -6.6893 0
M  V30 58069 H 5578.38 -0.349006 -2.95949 0
M  V30 58070 H 5575.91 -0.183959 -1.45945 0
M  V30 58071 H 5577.87 2.03527 -3.64188 0
M  V30 58072 H 5576.5 2.0413 -2.50061 0
M  V30 58073 H 5575.55 0.00233719 -3.804 0
M  V30 58074 H 5576.87 0.222463 -4.98304 0
M  V30 58075 H 5576.02 2.51599 -5.52071 0
M  V30 58076 H 5574.76 2.36642 -4.26441 0
M  V30 58077 H 5573.76 0.409849 -5.4827 0
M  V30 58078 H 5574.99 0.580697 -6.76613 0
M  V30 58079 H 5572.94 2.68458 -5.98554 0
M  V30 58080 H 5572.85 1.65435 -7.37677 0
M  V30 58081 H 5574.12 2.83778 -7.2601 0
M  V30 58082 N 5578.35 1.56282 -0.203431 0
M  V30 58083 C 5579.76 1.84147 0.307687 0
M  V30 58084 C 5580.11 1.12435 1.60788 0
M  V30 58085 O 5579.24 0.387927 2.12895 0
M  V30 58086 C 5579.83 3.34055 0.565034 0
M  V30 58087 C 5578.39 3.62302 1.0205 0
M  V30 58088 C 5577.54 2.77202 0.0736369 0
M  V30 58089 H 5580.49 1.52847 -0.427036 0
M  V30 58090 H 5580.51 3.53278 1.41332 0
M  V30 58091 H 5580.02 3.86221 -0.381436 0
M  V30 58092 H 5578.12 3.15577 1.98096 0
M  V30 58093 H 5578.24 4.70428 0.907448 0
M  V30 58094 H 5576.6 2.48076 0.577082 0
M  V30 58095 H 5577.38 3.32161 -0.867426 0
M  V30 58096 N 5579.83 -0.0701116 1.57444 0
M  V30 58097 C 5580.76 -1.10989 2.00534 0
M  V30 58098 C 5581.77 -1.34887 0.911557 0
M  V30 58099 O 5582.96 -1.33098 1.18942 0
M  V30 58100 C 5580.06 -2.46045 2.33056 0
M  V30 58101 C 5579.23 -2.42079 3.64303 0
M  V30 58102 C 5578.29 -3.59256 3.84476 0
M  V30 58103 O 5577.32 -3.40609 4.56042 0
M  V30 58104 N 5578.52 -4.79666 3.26957 0
M  V30 58105 H 5581.29 -0.742927 2.90346 0
M  V30 58106 H 5578.85 -0.258738 1.59819 0
M  V30 58107 H 5580.84 -3.2308 2.43723 0
M  V30 58108 H 5579.41 -2.74737 1.49126 0
M  V30 58109 H 5578.63 -1.50418 3.64374 0
M  V30 58110 H 5579.92 -2.36532 4.50478 0
M  V30 58111 H 5579.32 -4.97719 2.68872 0
M  V30 58112 H 5577.87 -5.54207 3.43071 0
M  V30 58113 N 5581.31 -1.53855 -0.341539 0
M  V30 58114 C 5582.58 -1.61827 -1.0987 0
M  V30 58115 C 5582.96 -0.440783 -2.06447 0
M  V30 58116 O 5582.31 0.566755 -2.2136 0
M  V30 58117 C 5582.52 -2.97996 -1.81657 0
M  V30 58118 C 5583.87 -3.5342 -2.35329 0
M  V30 58119 O 5584.89 -3.00184 -1.91751 0
M  V30 58120 O 5583.75 -4.46541 -3.1506 0
M  V30 58121 H 5580.85 -0.654617 -0.505377 0
M  V30 58122 H 5583.39 -1.662 -0.34287 0
M  V30 58123 H 5582.16 -3.75134 -1.1131 0
M  V30 58124 H 5581.79 -2.97222 -2.64093 0
M  V30 58125 N 5582.78 0.602658 -1.45622 0
M  V30 58126 C 5584.06 1.36219 -1.4037 0
M  V30 58127 C 5584.44 2.1096 -0.0768387 0
M  V30 58128 O 5583.79 2.08211 0.941305 0
M  V30 58129 C 5584 2.30489 -2.6206 0
M  V30 58130 C 5585.35 2.92943 -3.07359 0
M  V30 58131 O 5586.37 2.40809 -2.62468 0
M  V30 58132 O 5585.23 3.87588 -3.85276 0
M  V30 58133 H 5582.32 0.611044 -0.557274 0
M  V30 58134 H 5584.87 0.625335 -1.57758 0
M  V30 58135 H 5583.64 1.74554 -3.50209 0
M  V30 58136 H 5583.26 3.11547 -2.47031 0
M  V30 58137 N 5584.26 1.32995 0.845589 0
M  V30 58138 C 5585.49 1.27236 1.63785 0
M  V30 58139 C 5585.91 -0.155075 1.8746 0
M  V30 58140 O 5585.27 -1.10948 1.43388 0
M  V30 58141 C 5585.32 2.0464 2.96909 0
M  V30 58142 O 5584.42 1.4004 3.87895 0
M  V30 58143 H 5583.76 0.438063 0.498996 0
M  V30 58144 H 5586.29 1.75452 1.05251 0
M  V30 58145 H 5586.3 2.15154 3.4666 0
M  V30 58146 H 5584.98 3.08435 2.79 0
M  V30 58147 H 5583.55 1.3813 3.46373 0
M  V30 58148 N 5585.74 -1.063 1.16353 0
M  V30 58149 C 5586.99 -1.78744 0.943136 0
M  V30 58150 C 5587.31 -1.87647 -0.530418 0
M  V30 58151 O 5586.58 -1.38511 -1.38534 0
M  V30 58152 H 5585.16 -0.66206 0.345956 0
M  V30 58153 H 5587.82 -1.28408 1.4662 0
M  V30 58154 H 5586.92 -2.80823 1.3618 0
M  V30 58155 N 5587.22 -0.962004 -1.24833 0
M  V30 58156 C 5588.45 -0.638209 -1.96811 0
M  V30 58157 C 5588.86 0.791209 -1.71421 0
M  V30 58158 O 5588.22 1.53016 -0.9946 0
M  V30 58159 C 5588.27 -0.896383 -3.5021 0
M  V30 58160 O 5587.99 -2.2696 -3.74727 0
M  V30 58161 C 5589.49 -0.58599 -4.3941 0
M  V30 58162 H 5586.71 -0.23862 -0.627137 0
M  V30 58163 H 5589.26 -1.28839 -1.58811 0
M  V30 58164 H 5587.41 -0.292504 -3.86294 0
M  V30 58165 H 5587.82 -2.3453 -4.69144 0
M  V30 58166 H 5589.3 -0.817127 -5.45919 0
M  V30 58167 H 5589.78 0.479631 -4.36573 0
M  V30 58168 H 5590.38 -1.16952 -4.08904 0
M  V30 58169 N 5588.7 1.39598 -0.731441 0
M  V30 58170 C 5589.66 2.28992 -0.0976842 0
M  V30 58171 C 5590.66 1.46137 0.670865 0
M  V30 58172 O 5591.85 1.66858 0.500411 0
M  V30 58173 C 5588.98 3.29585 0.871008 0
M  V30 58174 H 5590.17 2.86538 -0.885212 0
M  V30 58175 H 5587.73 1.48186 -0.497054 0
M  V30 58176 H 5588.46 2.77088 1.68502 0
M  V30 58177 H 5588.25 3.90771 0.322598 0
M  V30 58178 H 5589.74 3.96484 1.31112 0
M  V30 58179 N 5590.17 0.478804 1.50151 0
M  V30 58180 C 5591.42 -0.0733687 2.01967 0
M  V30 58181 C 5591.74 -1.39519 1.36233 0
M  V30 58182 O 5591.01 -1.89139 0.510216 0
M  V30 58183 H 5589.59 -0.0301043 0.746393 0
M  V30 58184 H 5592.26 0.630986 1.84403 0
M  V30 58185 H 5591.35 -0.21926 3.11329 0
M  V30 58186 N 5591.65 -1.56171 0.211716 0
M  V30 58187 C 5592.9 -1.97649 -0.421801 0
M  V30 58188 C 5593.22 -1.10031 -1.60991 0
M  V30 58189 O 5592.49 -0.175178 -1.95115 0
M  V30 58190 H 5591.07 -0.72992 -0.158827 0
M  V30 58191 H 5593.73 -1.92541 0.302322 0
M  V30 58192 H 5592.83 -3.02836 -0.754762 0
M  V30 58193 N 5593.13 0.061761 -1.57479 0
M  V30 58194 C 5594.38 0.757874 -1.8692 0
M  V30 58195 C 5594.69 1.78232 -0.805783 0
M  V30 58196 O 5595.9 2.52871 -0.988358 0
M  V30 58197 C 5594.35 1.39886 -3.31602 0
M  V30 58198 C 5593.96 0.412464 -4.46097 0
M  V30 58199 C 5595.71 2.07675 -3.70231 0
M  V30 58200 C 5593.61 1.05994 -5.81824 0
M  V30 58201 H 5592.54 0.2868 -0.697325 0
M  V30 58202 H 5595.19 0.0113741 -1.83496 0
M  V30 58203 H 5593.58 2.19396 -3.29668 0
M  V30 58204 H 5594.75 -0.353554 -4.59442 0
M  V30 58205 H 5593.07 -0.161529 -4.16087 0
M  V30 58206 H 5595.66 2.56911 -4.68936 0
M  V30 58207 H 5596.01 2.88062 -3.00542 0
M  V30 58208 H 5596.54 1.34983 -3.74198 0
M  V30 58209 H 5593.28 0.296175 -6.54831 0
M  V30 58210 H 5592.8 1.79657 -5.72262 0
M  V30 58211 H 5594.48 1.57686 -6.2749 0
M  V30 58212 N 5594.61 1.54034 0.333374 0
M  V30 58213 C 5595.83 1.76035 1.09665 0
M  V30 58214 C 5596.26 0.502908 1.81252 0
M  V30 58215 O 5595.62 -0.54503 1.72914 0
M  V30 58216 C 5595.66 2.94707 2.07799 0
M  V30 58217 O 5594.77 2.65566 3.15513 0
M  V30 58218 H 5594.11 0.583622 0.316672 0
M  V30 58219 H 5596.64 2.01028 0.380662 0
M  V30 58220 H 5596.65 3.2178 2.50842 0
M  V30 58221 H 5595.32 3.859 1.55093 0
M  V30 58222 H 5593.9 2.49412 2.77215 0
M  V30 58223 N 5596.09 -0.594927 1.4594 0
M  V30 58224 C 5597.31 -1.38476 1.54399 0
M  V30 58225 C 5597.74 -1.87221 0.181629 0
M  V30 58226 O 5597.09 -1.60872 -0.836063 0
M  V30 58227 C 5597.14 -2.55667 2.54296 0
M  V30 58228 O 5596.25 -3.56713 2.06954 0
M  V30 58229 H 5595.59 -0.4129 0.52001 0
M  V30 58230 H 5598.12 -0.722832 1.91406 0
M  V30 58231 H 5598.13 -3.02746 2.73512 0
M  V30 58232 H 5596.8 -2.19539 3.53235 0
M  V30 58233 H 5595.38 -3.16197 1.97672 0
M  V30 58234 N 5597.56 -1.33441 -0.838524 0
M  V30 58235 C 5598.79 -1.27957 -1.62587 0
M  V30 58236 C 5599.21 0.149436 -1.88208 0
M  V30 58237 O 5598.56 1.09169 -1.46248 0
M  V30 58238 C 5598.62 -2.05241 -2.97588 0
M  V30 58239 O 5598.34 -3.42567 -2.73093 0
M  V30 58240 C 5599.84 -2.06971 -3.92018 0
M  V30 58241 H 5597.06 -0.440814 -0.50589 0
M  V30 58242 H 5599.6 -1.75818 -1.04444 0
M  V30 58243 H 5597.76 -1.61061 -3.52332 0
M  V30 58244 H 5598.17 -3.82327 -3.59063 0
M  V30 58245 H 5599.64 -2.65498 -4.83957 0
M  V30 58246 H 5600.12 -1.06005 -4.26215 0
M  V30 58247 H 5600.73 -2.5117 -3.43211 0
M  V30 58248 N 5599.04 1.05681 -1.16915 0
M  V30 58249 C 5600.27 1.82818 -0.979413 0
M  V30 58250 C 5600.69 1.82198 0.467511 0
M  V30 58251 O 5600.05 1.22732 1.33441 0
M  V30 58252 C 5600.1 3.27044 -1.51903 0
M  V30 58253 O 5599.2 4.05897 -0.729484 0
M  V30 58254 H 5598.54 0.565443 -0.348096 0
M  V30 58255 H 5601.07 1.33206 -1.55298 0
M  V30 58256 H 5601.08 3.77854 -1.53917 0
M  V30 58257 H 5599.76 3.2681 -2.57231 0
M  V30 58258 H 5598.34 3.64644 -0.780349 0
M  V30 58259 N 5600.52 0.96861 1.24321 0
M  V30 58260 C 5601.48 0.504385 2.23581 0
M  V30 58261 C 5602.48 -0.399571 1.55756 0
M  V30 58262 O 5603.67 -0.194905 1.73106 0
M  V30 58263 C 5600.81 -0.269441 3.39834 0
M  V30 58264 H 5602 1.38189 2.66165 0
M  V30 58265 H 5599.55 0.753289 1.3695 0
M  V30 58266 H 5600.29 -1.16401 3.0269 0
M  V30 58267 H 5600.07 0.379271 3.90261 0
M  V30 58268 H 5601.56 -0.58323 4.13507 0
M  V30 58269 N 5602 -1.39208 0.738834 0
M  V30 58270 C 5603.22 -2.05255 0.297493 0
M  V30 58271 C 5603.65 -1.55345 -1.06064 0
M  V30 58272 O 5603.01 -0.698882 -1.67288 0
M  V30 58273 C 5603.06 -3.59238 0.313096 0
M  V30 58274 O 5602.16 -4.06451 -0.697969 0
M  V30 58275 H 5601.5 -0.65024 0.134477 0
M  V30 58276 H 5604.03 -1.78169 1.00583 0
M  V30 58277 H 5604.04 -4.07691 0.158818 0
M  V30 58278 H 5602.72 -3.94926 1.30408 0
M  V30 58279 H 5601.29 -3.69403 -0.509514 0
M  V30 58280 N 5603.48 -0.48676 -1.49895 0
M  V30 58281 C 5604.72 0.0628739 -2.02703 0
M  V30 58282 C 5605.06 1.37952 -1.36686 0
M  V30 58283 O 5604.33 1.88023 -0.497744 0
M  V30 58284 C 5604.61 0.230335 -3.59363 0
M  V30 58285 C 5604.47 -1.10843 -4.35929 0
M  V30 58286 C 5605.79 0.977634 -4.29104 0
M  V30 58287 H 5602.91 0.0213758 -0.73669 0
M  V30 58288 H 5605.55 -0.635402 -1.7906 0
M  V30 58289 H 5603.7 0.825089 -3.79637 0
M  V30 58290 H 5605.37 -1.74097 -4.27186 0
M  V30 58291 H 5603.61 -1.70124 -3.99049 0
M  V30 58292 H 5604.28 -0.944723 -5.43856 0
M  V30 58293 H 5606.76 0.47336 -4.13399 0
M  V30 58294 H 5605.64 1.06363 -5.38496 0
M  V30 58295 H 5605.9 2.01799 -3.93357 0
M  V30 58296 N 5604.96 1.56057 -0.219996 0
M  V30 58297 C 5605.9 2.21587 0.707244 0
M  V30 58298 C 5606.9 1.19478 1.20089 0
M  V30 58299 O 5608.1 1.37561 1.1609 0
M  V30 58300 H 5604.48 0.710455 0.24649 0
M  V30 58301 H 5606.45 2.98112 0.131109 0
M  V30 58302 C 5605.2 2.90847 1.90534 0
M  V30 58303 H 5604.52 3.69175 1.53459 0
M  V30 58304 H 5605.96 3.40101 2.53194 0
M  V30 58305 C 5604.42 1.93232 2.75976 0
M  V30 58306 O 5604.95 1.44828 3.74683 0
M  V30 58307 N 5603.16 1.60916 2.4198 0
M  V30 58308 H 5602.7 2.00472 1.61767 0
M  V30 58309 H 5602.66 0.95864 2.99429 0
M  V30 58310 N 5606.43 -0.0534086 1.57509 0
M  V30 58311 C 5607.85 -0.408596 1.54281 0
M  V30 58312 C 5608.05 -1.78083 0.942797 0
M  V30 58313 O 5607.11 -2.46364 0.55325 0
M  V30 58314 C 5608.42 -0.332779 2.98853 0
M  V30 58315 C 5609.97 -0.411636 3.10281 0
M  V30 58316 C 5610.44 -0.365531 4.56539 0
M  V30 58317 N 5611.93 -0.42506 4.61246 0
M  V30 58318 C 5612.67 -0.411892 5.71919 0
M  V30 58319 N 5612.16 -0.35245 6.91903 0
M  V30 58320 N 5613.96 -0.459819 5.60216 0
M  V30 58321 H 5606.11 0.844902 1.94872 0
M  V30 58322 H 5608.37 0.318919 0.892746 0
M  V30 58323 H 5608.08 0.609238 3.46383 0
M  V30 58324 H 5607.95 -1.13593 3.5969 0
M  V30 58325 H 5610.34 -1.34408 2.62714 0
M  V30 58326 H 5610.42 0.420422 2.52321 0
M  V30 58327 H 5610.06 0.563141 5.04768 0
M  V30 58328 H 5609.99 -1.21537 5.12383 0
M  V30 58329 H 5612.48 -0.474502 3.74909 0
M  V30 58330 H 5612.8 -0.346834 7.72021 0
M  V30 58331 H 5611.14 -0.31886 6.94268 0
M  V30 58332 H 5614.33 -0.504078 4.65378 0
M  V30 58333 H 5614.51 -0.446088 6.46463 0
M  V30 58334 N 5607.91 -1.54208 -0.325201 0
M  V30 58335 C 5609.14 -1.76041 -1.08135 0
M  V30 58336 C 5609.55 -0.508224 -1.82246 0
M  V30 58337 O 5608.89 0.530648 -1.75869 0
M  V30 58338 C 5608.95 -2.89883 -2.12621 0
M  V30 58339 C 5608.62 -4.28847 -1.57922 0
M  V30 58340 C 5609.62 -5.09759 -1.02187 0
M  V30 58341 C 5607.3 -4.75386 -1.62215 0
M  V30 58342 C 5609.29 -6.35318 -0.514706 0
M  V30 58343 C 5606.98 -6.00914 -1.11111 0
M  V30 58344 C 5607.98 -6.80714 -0.558336 0
M  V30 58345 O 5607.67 -8.03881 -0.0549774 0
M  V30 58346 H 5607.4 -0.591343 -0.32755 0
M  V30 58347 H 5609.95 -2.01901 -0.377501 0
M  V30 58348 H 5608.18 -2.59591 -2.86618 0
M  V30 58349 H 5609.87 -2.99515 -2.73945 0
M  V30 58350 H 5610.64 -4.74959 -0.981787 0
M  V30 58351 H 5606.52 -4.13318 -2.0418 0
M  V30 58352 H 5610.06 -6.97551 -0.0825861 0
M  V30 58353 H 5605.96 -6.35205 -1.14826 0
M  V30 58354 H 5606.73 -8.18322 -0.170554 0
M  V30 58355 N 5609.39 0.587179 -1.46253 0
M  V30 58356 C 5610.64 1.34174 -1.506 0
M  V30 58357 C 5610.95 1.94943 -0.160239 0
M  V30 58358 O 5612.16 2.71378 -0.0814751 0
M  V30 58359 C 5610.61 2.4315 -2.65342 0
M  V30 58360 C 5610.22 1.88704 -4.06319 0
M  V30 58361 C 5611.97 3.19976 -2.78955 0
M  V30 58362 C 5609.87 2.95282 -5.12409 0
M  V30 58363 H 5608.8 0.504381 -0.56046 0
M  V30 58364 H 5611.45 0.627118 -1.72451 0
M  V30 58365 H 5609.84 3.1739 -2.36811 0
M  V30 58366 H 5611.01 1.21036 -4.4462 0
M  V30 58367 H 5609.32 1.24558 -3.97334 0
M  V30 58368 H 5611.92 3.99508 -3.55384 0
M  V30 58369 H 5612.26 3.72282 -1.86311 0
M  V30 58370 H 5612.8 2.52841 -3.0711 0
M  V30 58371 H 5609.54 2.47869 -6.06829 0
M  V30 58372 H 5609.06 3.61453 -4.78656 0
M  V30 58373 H 5610.74 3.59311 -5.38056 0
M  V30 58374 N 5610.87 1.33884 0.831435 0
M  V30 58375 C 5611.8 1.27391 1.95688 0
M  V30 58376 C 5612.78 0.153002 1.6941 0
M  V30 58377 O 5613.96 0.343987 1.91129 0
M  V30 58378 C 5611.09 1.01994 3.31986 0
M  V30 58379 C 5610.05 2.10458 3.72681 0
M  V30 58380 C 5609.37 1.70263 5.06867 0
M  V30 58381 C 5610.67 3.52208 3.85677 0
M  V30 58382 H 5612.37 2.21556 2.01379 0
M  V30 58383 H 5609.91 1.06657 0.967488 0
M  V30 58384 H 5611.87 0.960985 4.10296 0
M  V30 58385 H 5610.59 0.0426857 3.26572 0
M  V30 58386 H 5609.25 2.15408 2.96639 0
M  V30 58387 H 5608.9 0.712211 4.97932 0
M  V30 58388 H 5608.6 2.42852 5.35067 0
M  V30 58389 H 5610.12 1.65848 5.87645 0
M  V30 58390 H 5611.54 3.49717 4.5428 0
M  V30 58391 H 5609.93 4.23346 4.25322 0
M  V30 58392 H 5611 3.9017 2.87915 0
M  V30 58393 N 5612.35 -1.0506 1.17474 0
M  V30 58394 C 5613.28 -2.12839 0.850419 0
M  V30 58395 C 5614.29 -1.62128 -0.147739 0
M  V30 58396 O 5615.48 -1.78326 0.0787401 0
M  V30 58397 C 5612.58 -3.37994 0.247605 0
M  V30 58398 C 5611.75 -4.17977 1.28895 0
M  V30 58399 C 5610.81 -5.21474 0.703659 0
M  V30 58400 O 5609.84 -5.52323 1.37581 0
M  V30 58401 N 5611.04 -5.78311 -0.503667 0
M  V30 58402 H 5613.8 -2.41258 1.77806 0
M  V30 58403 H 5611.37 -1.21168 1.07377 0
M  V30 58404 H 5613.36 -4.04394 -0.157282 0
M  V30 58405 H 5611.93 -3.07099 -0.583844 0
M  V30 58406 H 5611.15 -3.47047 1.86954 0
M  V30 58407 H 5612.44 -4.68213 1.99132 0
M  V30 58408 H 5611.83 -5.55533 -1.06767 0
M  V30 58409 H 5610.39 -6.46226 -0.850601 0
M  V30 58410 N 5613.82 -0.97519 -1.23806 0
M  V30 58411 C 5614.75 -0.530469 -2.27395 0
M  V30 58412 C 5615.73 0.433705 -1.64478 0
M  V30 58413 O 5616.92 0.328202 -1.91407 0
M  V30 58414 C 5614.05 0.172944 -3.46869 0
M  V30 58415 C 5613 -0.707993 -4.22104 0
M  V30 58416 C 5612.33 0.127339 -5.34548 0
M  V30 58417 C 5613.63 -1.99626 -4.82645 0
M  V30 58418 H 5615.32 -1.39631 -2.64846 0
M  V30 58419 H 5612.87 -0.672846 -1.27314 0
M  V30 58420 H 5614.82 0.495334 -4.18479 0
M  V30 58421 H 5613.55 1.0732 -3.08464 0
M  V30 58422 H 5612.21 -1.01376 -3.52304 0
M  V30 58423 H 5611.85 1.02797 -4.92384 0
M  V30 58424 H 5611.55 -0.458934 -5.85805 0
M  V30 58425 H 5613.08 0.444229 -6.08982 0
M  V30 58426 H 5614.49 -1.73898 -5.4629 0
M  V30 58427 H 5612.89 -2.52988 -5.44166 0
M  V30 58428 H 5613.96 -2.68643 -4.03682 0
M  V30 58429 N 5615.3 1.38815 -0.746207 0
M  V30 58430 C 5616.26 2.28875 -0.121966 0
M  V30 58431 C 5617.26 1.4684 0.655328 0
M  V30 58432 O 5618.45 1.67379 0.482685 0
M  V30 58433 C 5615.59 3.3049 0.836002 0
M  V30 58434 H 5616.78 2.85583 -0.915554 0
M  V30 58435 H 5614.33 1.4765 -0.512743 0
M  V30 58436 H 5615.07 2.78859 1.65554 0
M  V30 58437 H 5614.85 3.91091 0.281133 0
M  V30 58438 H 5616.34 3.97852 1.269 0
M  V30 58439 N 5616.78 0.494703 1.49634 0
M  V30 58440 C 5617.71 -0.323701 2.26903 0
M  V30 58441 C 5618.73 -0.936234 1.33186 0
M  V30 58442 O 5619.91 -0.820639 1.58517 0
M  V30 58443 C 5617.01 -1.47014 3.05352 0
M  V30 58444 C 5616.19 -0.966078 4.26598 0
M  V30 58445 C 5615.25 -1.98937 4.87145 0
M  V30 58446 O 5614.27 -1.56046 5.47392 0
M  V30 58447 N 5615.47 -3.31933 4.76236 0
M  V30 58448 H 5618.24 0.33882 2.97779 0
M  V30 58449 H 5615.8 0.326873 1.58566 0
M  V30 58450 H 5617.79 -2.15213 3.42733 0
M  V30 58451 H 5616.36 -2.03693 2.37124 0
M  V30 58452 H 5615.58 -0.109198 3.94049 0
M  V30 58453 H 5616.87 -0.607603 5.05159 0
M  V30 58454 H 5616.27 -3.69473 4.28376 0
M  V30 58455 H 5614.83 -3.95862 5.17819 0
M  V30 58456 N 5618.26 -1.55938 0.228269 0
M  V30 58457 C 5619.17 -2.24215 -0.69026 0
M  V30 58458 C 5620.18 -1.25201 -1.20833 0
M  V30 58459 O 5621.36 -1.58031 -1.24853 0
M  V30 58460 C 5618.43 -2.91391 -1.87863 0
M  V30 58461 C 5617.49 -4.05766 -1.40187 0
M  V30 58462 C 5616.72 -4.69728 -2.53359 0
M  V30 58463 O 5616.94 -4.327 -3.71654 0
M  V30 58464 O 5615.88 -5.58594 -2.24178 0
M  V30 58465 H 5619.7 -3.03384 -0.138586 0
M  V30 58466 H 5617.29 -1.494 -0.00246252 0
M  V30 58467 H 5619.17 -3.33767 -2.5725 0
M  V30 58468 H 5617.84 -2.15177 -2.41828 0
M  V30 58469 H 5616.75 -3.67945 -0.675815 0
M  V30 58470 H 5618.08 -4.83742 -0.908521 0
M  V30 58471 N 5619.74 0.0450548 -1.57536 0
M  V30 58472 C 5620.97 0.750163 -1.925 0
M  V30 58473 C 5621.37 1.70265 -0.825006 0
M  V30 58474 O 5620.72 1.82512 0.208592 0
M  V30 58475 C 5620.78 1.57532 -3.23147 0
M  V30 58476 C 5620.44 0.789337 -4.50132 0
M  V30 58477 C 5621.44 0.096654 -5.1981 0
M  V30 58478 C 5619.13 0.748601 -4.9669 0
M  V30 58479 C 5621.12 -0.626241 -6.34316 0
M  V30 58480 C 5618.81 0.0219503 -6.11096 0
M  V30 58481 C 5619.8 -0.664245 -6.79762 0
M  V30 58482 O 5619.49 -1.37913 -7.91982 0
M  V30 58483 H 5619.22 0.216872 -0.640267 0
M  V30 58484 H 5621.78 0.0114858 -2.05397 0
M  V30 58485 H 5620.01 2.35743 -3.06532 0
M  V30 58486 H 5621.7 2.16156 -3.43557 0
M  V30 58487 H 5622.46 0.119259 -4.84853 0
M  V30 58488 H 5618.34 1.27219 -4.43099 0
M  V30 58489 H 5621.89 -1.16239 -6.87848 0
M  V30 58490 H 5617.78 -0.00263399 -6.455 0
M  V30 58491 H 5618.55 -1.29115 -8.08252 0
M  V30 58492 N 5621.21 1.54379 0.317018 0
M  V30 58493 C 5622.45 1.74625 1.06233 0
M  V30 58494 C 5622.82 0.512607 1.85031 0
M  V30 58495 O 5624.02 0.59253 2.62188 0
M  V30 58496 C 5622.29 2.99043 1.95725 0
M  V30 58497 S 5623.85 3.40221 2.77119 0
M  V30 58498 H 5620.67 0.613982 0.358535 0
M  V30 58499 H 5623.27 1.92564 0.337562 0
M  V30 58500 H 5621.97 3.8697 1.36683 0
M  V30 58501 H 5621.5 2.83646 2.72596 0
M  V30 58502 H 5623.52 2.96034 3.98219 0
M  V30 58503 N 5622.69 -0.579414 1.46562 0
M  V30 58504 C 5623.94 -1.33486 1.51743 0
M  V30 58505 C 5624.26 -1.9424 0.171994 0
M  V30 58506 O 5623.53 -1.78739 -0.801812 0
M  V30 58507 H 5622.11 -0.49563 0.558892 0
M  V30 58508 H 5624.77 -0.678329 1.82715 0
M  V30 58509 H 5623.87 -2.13988 2.27191 0
M  V30 58510 N 5624.17 -1.34323 -0.824323 0
M  V30 58511 C 5625.45 -1.17183 -1.56612 0
M  V30 58512 C 5625.83 0.256121 -2.09541 0
M  V30 58513 O 5625.18 1.25725 -1.90802 0
M  V30 58514 C 5625.39 -2.22521 -2.6886 0
M  V30 58515 C 5626.73 -2.57426 -3.37664 0
M  V30 58516 O 5627.76 -2.21299 -2.79115 0
M  V30 58517 O 5626.62 -3.19478 -4.43392 0
M  V30 58518 H 5623.71 -0.454165 -0.691132 0
M  V30 58519 H 5626.26 -1.45951 -0.865818 0
M  V30 58520 H 5625.03 -3.18374 -2.27494 0
M  V30 58521 H 5624.65 -1.94922 -3.46542 0
M  V30 58522 N 5625.65 1.04435 -1.1803 0
M  V30 58523 C 5626.89 1.79139 -0.984301 0
M  V30 58524 C 5627.25 1.85956 0.477936 0
M  V30 58525 O 5628.45 2.56829 0.793255 0
M  V30 58526 C 5626.72 3.18739 -1.6168 0
M  V30 58527 S 5628.28 4.09826 -1.56805 0
M  V30 58528 H 5625.1 0.616868 -0.353547 0
M  V30 58529 H 5627.7 1.2525 -1.50109 0
M  V30 58530 H 5626.41 3.11384 -2.67335 0
M  V30 58531 H 5625.94 3.77704 -1.10014 0
M  V30 58532 H 5627.95 4.92783 -0.581348 0
M  V30 58533 N 5627.13 0.981742 1.23287 0
M  V30 58534 C 5628.07 0.522769 2.24802 0
M  V30 58535 C 5629.04 -0.43906 1.60192 0
M  V30 58536 O 5630.23 -0.346307 1.87631 0
M  V30 58537 C 5627.37 -0.167356 3.44694 0
M  V30 58538 C 5626.48 0.834893 4.23856 0
M  V30 58539 C 5625.62 0.119436 5.31066 0
M  V30 58540 C 5624.66 1.11081 6.01936 0
M  V30 58541 N 5623.79 0.424413 7.00816 0
M  V30 58542 H 5628.63 1.39322 2.63426 0
M  V30 58543 H 5626.17 0.698106 1.29479 0
M  V30 58544 H 5628.13 -0.584297 4.13088 0
M  V30 58545 H 5626.76 -1.00166 3.06866 0
M  V30 58546 H 5625.81 1.37021 3.54865 0
M  V30 58547 H 5627.12 1.59028 4.7277 0
M  V30 58548 H 5626.28 -0.354802 6.05662 0
M  V30 58549 H 5625.01 -0.668544 4.83096 0
M  V30 58550 H 5624.02 1.59578 5.26132 0
M  V30 58551 H 5625.24 1.89947 6.51995 0
M  V30 58552 H 5623.19 -0.344333 6.55096 0
M  V30 58553 H 5623.11 1.11843 7.47681 0
M  V30 58554 H 5624.38 -0.0273915 7.79495 0
M  V30 58555 N 5628.6 -1.38417 0.753558 0
M  V30 58556 C 5629.55 -2.32315 0.115188 0
M  V30 58557 C 5630.55 -1.54017 -0.705344 0
M  V30 58558 O 5631.75 -1.69548 -0.604445 0
M  V30 58559 H 5628.13 -0.751774 0.018454 0
M  V30 58560 H 5630.1 -2.8376 0.923194 0
M  V30 58561 C 5628.85 -3.39209 -0.76373 0
M  V30 58562 H 5628.17 -3.99549 -0.14173 0
M  V30 58563 H 5629.61 -4.07316 -1.17769 0
M  V30 58564 C 5628.07 -2.77778 -1.90633 0
M  V30 58565 O 5628.6 -2.67084 -3.00048 0
M  V30 58566 N 5626.81 -2.35588 -1.70137 0
M  V30 58567 H 5626.35 -2.44486 -0.811442 0
M  V30 58568 H 5626.31 -1.94828 -2.46758 0
M  V30 58569 N 5630.08 -0.502631 -1.4937 0
M  V30 58570 C 5631.31 0.0402358 -2.07361 0
M  V30 58571 C 5631.73 1.29913 -1.3603 0
M  V30 58572 O 5631.09 1.76426 -0.41755 0
M  V30 58573 C 5631.14 0.275235 -3.59548 0
M  V30 58574 O 5630.24 1.34962 -3.89691 0
M  V30 58575 H 5629.58 -0.0269501 -0.663453 0
M  V30 58576 H 5632.11 -0.702719 -1.92154 0
M  V30 58577 H 5632.12 0.506249 -4.04847 0
M  V30 58578 H 5630.8 -0.644527 -4.10875 0
M  V30 58579 H 5629.38 1.10342 -3.56201 0
M  V30 58580 N 5631.56 1.55815 -0.236535 0
M  V30 58581 C 5632.81 1.98688 0.391076 0
M  V30 58582 C 5633.14 1.12449 1.58699 0
M  V30 58583 O 5632.39 0.172874 1.94935 0
M  V30 58584 C 5632.69 3.47042 0.854218 0
M  V30 58585 C 5632.36 4.50299 -0.232809 0
M  V30 58586 C 5631.02 4.78257 -0.531386 0
M  V30 58587 C 5633.37 5.12147 -0.967207 0
M  V30 58588 C 5630.7 5.65342 -1.56862 0
M  V30 58589 C 5633.05 6.00356 -1.99388 0
M  V30 58590 C 5631.71 6.26652 -2.29922 0
M  V30 58591 H 5630.98 0.72705 0.143105 0
M  V30 58592 H 5633.63 1.88418 -0.342192 0
M  V30 58593 H 5631.94 3.54591 1.66651 0
M  V30 58594 H 5633.63 3.77595 1.34992 0
M  V30 58595 H 5630.22 4.28599 0.0100507 0
M  V30 58596 H 5634.41 4.90604 -0.749782 0
M  V30 58597 H 5629.66 5.83974 -1.81064 0
M  V30 58598 H 5633.84 6.47326 -2.56792 0
M  V30 58599 H 5631.46 6.93927 -3.10434 0
M  V30 58600 N 5633.04 -0.0366996 1.57557 0
M  V30 58601 C 5634.32 -0.764023 1.80061 0
M  V30 58602 C 5634.7 -1.9398 0.832758 0
M  V30 58603 O 5634.04 -2.28148 -0.126735 0
M  V30 58604 C 5634.25 -1.20421 3.27566 0
M  V30 58605 C 5635.6 -1.62326 3.92346 0
M  V30 58606 O 5636.63 -1.29899 3.3167 0
M  V30 58607 O 5635.49 -2.22486 4.99161 0
M  V30 58608 H 5632.58 -0.36884 0.740193 0
M  V30 58609 H 5635.13 -0.0140657 1.69694 0
M  V30 58610 H 5633.9 -0.364509 3.89599 0
M  V30 58611 H 5633.52 -2.01442 3.42793 0
M  V30 58612 N 5634.52 -1.54545 -0.308827 0
M  V30 58613 C 5635.43 -1.87999 -1.40334 0
M  V30 58614 C 5636.44 -0.773349 -1.5587 0
M  V30 58615 O 5637.62 -1.06906 -1.70684 0
M  V30 58616 C 5634.68 -2.11351 -2.74831 0
M  V30 58617 C 5633.75 -3.35095 -2.68346 0
M  V30 58618 C 5632.98 -3.57323 -3.96429 0
M  V30 58619 O 5633.2 -2.82709 -4.95411 0
M  V30 58620 O 5632.14 -4.50828 -3.98795 0
M  V30 58621 H 5635.96 -2.81099 -1.14967 0
M  V30 58622 H 5633.55 -1.40635 -0.504186 0
M  V30 58623 H 5635.43 -2.27956 -3.54421 0
M  V30 58624 H 5634.1 -1.21438 -3.00058 0
M  V30 58625 H 5633.01 -3.23862 -1.87255 0
M  V30 58626 H 5634.34 -4.25113 -2.48072 0
M  V30 58627 N 5636 0.571634 -1.46868 0
M  V30 58628 C 5636.93 1.68988 -1.61137 0
M  V30 58629 C 5637.91 1.63726 -0.46128 0
M  V30 58630 O 5639.09 1.81571 -0.688877 0
M  V30 58631 C 5636.22 3.07632 -1.61183 0
M  V30 58632 C 5635.18 3.27733 -2.75273 0
M  V30 58633 C 5634.5 4.67016 -2.60384 0
M  V30 58634 C 5635.8 3.14497 -4.17 0
M  V30 58635 H 5637.5 1.57302 -2.54748 0
M  V30 58636 H 5635.04 0.755339 -1.22599 0
M  V30 58637 H 5636.99 3.85695 -1.69758 0
M  V30 58638 H 5635.72 3.20243 -0.641235 0
M  V30 58639 H 5634.38 2.52074 -2.66185 0
M  V30 58640 H 5634.03 4.76407 -1.61384 0
M  V30 58641 H 5633.73 4.81416 -3.36916 0
M  V30 58642 H 5635.25 5.47233 -2.70867 0
M  V30 58643 H 5636.66 3.82392 -4.27141 0
M  V30 58644 H 5635.06 3.40413 -4.94205 0
M  V30 58645 H 5636.13 2.11428 -4.36378 0
M  V30 58646 N 5637.47 1.34758 0.817188 0
M  V30 58647 C 5638.7 1.30682 1.6105 0
M  V30 58648 C 5639.12 -0.115277 1.87746 0
M  V30 58649 O 5638.48 -1.07882 1.45709 0
M  V30 58650 C 5638.53 2.10892 2.92502 0
M  V30 58651 O 5637.63 1.48236 3.84837 0
M  V30 58652 H 5636.97 0.448549 0.489592 0
M  V30 58653 H 5639.5 1.77645 1.01505 0
M  V30 58654 H 5639.51 2.22458 3.42018 0
M  V30 58655 H 5638.19 3.14283 2.72395 0
M  V30 58656 H 5636.77 1.45446 3.43365 0
M  V30 58657 N 5638.95 -1.03808 1.18582 0
M  V30 58658 C 5639.9 -2.1188 0.915189 0
M  V30 58659 C 5640.87 -1.65453 -0.146421 0
M  V30 58660 O 5642.05 -1.90799 -0.00623351 0
M  V30 58661 C 5639.19 -3.42155 0.449875 0
M  V30 58662 C 5638.31 -4.02179 1.5772 0
M  V30 58663 C 5637.44 -5.20428 1.06435 0
M  V30 58664 C 5636.48 -5.72488 2.16619 0
M  V30 58665 N 5635.62 -6.82021 1.66709 0
M  V30 58666 H 5640.46 -2.34366 1.84055 0
M  V30 58667 H 5637.99 -1.14958 0.917768 0
M  V30 58668 H 5639.95 -4.16887 0.161553 0
M  V30 58669 H 5638.58 -3.19808 -0.43851 0
M  V30 58670 H 5637.63 -3.2475 1.98095 0
M  V30 58671 H 5638.95 -4.36842 2.4077 0
M  V30 58672 H 5638.1 -6.02284 0.730709 0
M  V30 58673 H 5636.84 -4.87275 0.203473 0
M  V30 58674 H 5635.84 -4.89251 2.50825 0
M  V30 58675 H 5637.07 -6.07683 3.03147 0
M  V30 58676 H 5635.02 -6.50739 0.829145 0
M  V30 58677 H 5634.93 -7.15762 2.43354 0
M  V30 58678 H 5636.2 -7.67495 1.3628 0
M  V30 58679 N 5640.43 -0.988266 -1.22764 0
M  V30 58680 C 5641.68 -0.657008 -1.90699 0
M  V30 58681 C 5641.99 0.813996 -1.77858 0
M  V30 58682 O 5643.2 1.25665 -2.40667 0
M  V30 58683 C 5641.65 -1.12457 -3.41879 0
M  V30 58684 C 5641.26 -2.62047 -3.63367 0
M  V30 58685 C 5643.01 -0.867423 -4.15543 0
M  V30 58686 C 5640.91 -3.0243 -5.08223 0
M  V30 58687 H 5639.84 -0.242037 -0.714097 0
M  V30 58688 H 5642.49 -1.19721 -1.39065 0
M  V30 58689 H 5640.88 -0.512524 -3.92669 0
M  V30 58690 H 5642.05 -3.28557 -3.23089 0
M  V30 58691 H 5640.36 -2.85593 -3.03027 0
M  V30 58692 H 5642.96 -1.14489 -5.22299 0
M  V30 58693 H 5643.3 0.196465 -4.15836 0
M  V30 58694 H 5643.84 -1.44143 -3.70766 0
M  V30 58695 H 5640.58 -4.07975 -5.13066 0
M  V30 58696 H 5640.1 -2.40619 -5.4942 0
M  V30 58697 H 5641.78 -2.93473 -5.76613 0
M  V30 58698 N 5641.91 1.38015 -0.760888 0
M  V30 58699 C 5643.16 1.99193 -0.317054 0
M  V30 58700 C 5643.47 1.61086 1.10953 0
M  V30 58701 O 5644.68 2.15287 1.6542 0
M  V30 58702 C 5643.13 3.56183 -0.515917 0
M  V30 58703 C 5642.74 4.03235 -1.95206 0
M  V30 58704 C 5644.48 4.24285 -0.135162 0
M  V30 58705 C 5642.39 5.52894 -2.09909 0
M  V30 58706 H 5641.32 0.74521 -0.114797 0
M  V30 58707 H 5643.97 1.57686 -0.93847 0
M  V30 58708 H 5642.35 3.95614 0.174795 0
M  V30 58709 H 5643.53 3.75077 -2.67683 0
M  V30 58710 H 5641.84 3.47881 -2.2884 0
M  V30 58711 H 5644.44 5.34232 -0.223683 0
M  V30 58712 H 5644.78 4.06161 0.913179 0
M  V30 58713 H 5645.32 3.90118 -0.778005 0
M  V30 58714 H 5642.05 5.75931 -3.13023 0
M  V30 58715 H 5641.57 5.82773 -1.41901 0
M  V30 58716 H 5643.25 6.18703 -1.89251 0
M  V30 58717 N 5643.39 0.510546 1.49101 0
M  V30 58718 C 5644.32 -0.299617 2.27233 0
M  V30 58719 C 5645.33 -0.922055 1.34171 0
M  V30 58720 O 5646.52 -0.80378 1.59379 0
M  V30 58721 C 5643.62 -1.43767 3.06894 0
M  V30 58722 C 5642.79 -0.920777 4.27598 0
M  V30 58723 C 5641.85 -1.93759 4.89228 0
M  V30 58724 O 5640.88 -1.50231 5.49017 0
M  V30 58725 N 5642.08 -3.26863 4.7973 0
M  V30 58726 H 5644.84 0.370385 2.97402 0
M  V30 58727 H 5642.41 0.343672 1.5821 0
M  V30 58728 H 5644.4 -2.11565 3.44996 0
M  V30 58729 H 5642.97 -2.01167 2.39271 0
M  V30 58730 H 5642.19 -0.0673973 3.94142 0
M  V30 58731 H 5643.48 -0.55399 5.05775 0
M  V30 58732 H 5642.87 -3.64909 4.32271 0
M  V30 58733 H 5641.43 -3.90348 5.21988 0
M  V30 58734 N 5644.86 -1.55687 0.244795 0
M  V30 58735 C 5645.81 -2.21292 -0.655646 0
M  V30 58736 C 5646.78 -1.1761 -1.17291 0
M  V30 58737 O 5647.97 -1.4605 -1.22777 0
M  V30 58738 C 5645.11 -2.9146 -1.84784 0
M  V30 58739 C 5644.22 -4.09791 -1.3673 0
M  V30 58740 C 5643.35 -4.67681 -2.51889 0
M  V30 58741 C 5642.39 -5.78266 -2.00686 0
M  V30 58742 N 5641.53 -6.30347 -3.09203 0
M  V30 58743 H 5646.37 -2.97866 -0.0895109 0
M  V30 58744 H 5643.91 -1.47064 -0.0324208 0
M  V30 58745 H 5645.86 -3.3034 -2.54816 0
M  V30 58746 H 5644.49 -2.17363 -2.38649 0
M  V30 58747 H 5643.55 -3.76239 -0.561096 0
M  V30 58748 H 5644.86 -4.8963 -0.952027 0
M  V30 58749 H 5644.01 -5.09124 -3.29966 0
M  V30 58750 H 5642.75 -3.87054 -2.96716 0
M  V30 58751 H 5641.76 -5.36302 -1.21078 0
M  V30 58752 H 5642.98 -6.60743 -1.5683 0
M  V30 58753 H 5640.93 -5.52626 -3.53469 0
M  V30 58754 H 5640.84 -7.05373 -2.72 0
M  V30 58755 H 5642.11 -6.76449 -3.87346 0
M  V30 58756 N 5646.34 0.0283435 -1.57575 0
M  V30 58757 C 5647.59 0.720075 -1.89586 0
M  V30 58758 C 5647.92 1.74967 -0.842623 0
M  V30 58759 O 5647.2 1.93979 0.142226 0
M  V30 58760 C 5647.48 1.38897 -3.32234 0
M  V30 58761 C 5647.33 0.37284 -4.48252 0
M  V30 58762 C 5648.65 2.32276 -3.73812 0
M  V30 58763 H 5645.77 0.260306 -0.6895 0
M  V30 58764 H 5648.41 -0.0171275 -1.89992 0
M  V30 58765 H 5646.56 2.01733 -3.32018 0
M  V30 58766 H 5648.23 -0.253654 -4.60602 0
M  V30 58767 H 5646.48 -0.307802 -4.32707 0
M  V30 58768 H 5647.15 0.879357 -5.44951 0
M  V30 58769 H 5649.62 1.79484 -3.754 0
M  V30 58770 H 5648.5 2.76058 -4.74429 0
M  V30 58771 H 5648.76 3.18981 -3.0611 0
M  V30 58772 N 5647.82 1.54706 0.300627 0
M  V30 58773 C 5649.07 1.74005 1.03579 0
M  V30 58774 C 5649.4 0.526038 1.87251 0
M  V30 58775 O 5648.65 -0.492002 1.89414 0
M  V30 58776 C 5648.95 2.9818 1.97037 0
M  V30 58777 C 5648.62 4.31952 1.29337 0
M  V30 58778 C 5647.28 4.68316 1.10606 0
M  V30 58779 C 5649.63 5.14877 0.809413 0
M  V30 58780 C 5646.96 5.85183 0.421644 0
M  V30 58781 C 5649.31 6.32448 0.138712 0
M  V30 58782 C 5647.97 6.67473 -0.0605475 0
M  V30 58783 H 5647.24 0.636729 0.379021 0
M  V30 58784 H 5649.89 1.88964 0.310631 0
M  V30 58785 H 5648.2 2.78004 2.76082 0
M  V30 58786 H 5649.89 3.10306 2.5399 0
M  V30 58787 H 5646.48 4.03355 1.44922 0
M  V30 58788 H 5650.67 4.87281 0.941834 0
M  V30 58789 H 5645.92 6.10863 0.256279 0
M  V30 58790 H 5650.1 6.95972 -0.244184 0
M  V30 58791 H 5647.72 7.57884 -0.592892 0
M  V30 58792 N 5649.3 -0.563837 1.47169 0
M  V30 58793 C 5650.26 -1.65353 1.58717 0
M  V30 58794 C 5651.26 -1.53997 0.462774 0
M  V30 58795 O 5652.45 -1.58275 0.727651 0
M  V30 58796 C 5649.58 -3.04868 1.52539 0
M  V30 58797 H 5650.78 -1.56466 2.55849 0
M  V30 58798 H 5648.33 -0.783224 1.3526 0
M  V30 58799 H 5649.06 -3.19295 0.567582 0
M  V30 58800 H 5648.85 -3.1452 2.34136 0
M  V30 58801 H 5650.34 -3.84158 1.63745 0
M  V30 58802 N 5650.78 -1.3519 -0.81003 0
M  V30 58803 C 5652 -1.31534 -1.60354 0
M  V30 58804 C 5652.43 0.105319 -1.87805 0
M  V30 58805 O 5651.78 1.07108 -1.46279 0
M  V30 58806 C 5651.83 -2.1244 -2.91379 0
M  V30 58807 O 5650.94 -1.50275 -3.84046 0
M  V30 58808 H 5650.28 -0.451139 -0.487206 0
M  V30 58809 H 5652.81 -1.78181 -1.00562 0
M  V30 58810 H 5652.82 -2.24269 -3.40833 0
M  V30 58811 H 5651.49 -3.15723 -2.70724 0
M  V30 58812 H 5650.07 -1.47265 -3.42589 0
M  V30 58813 N 5652.25 1.03178 -1.19131 0
M  V30 58814 C 5653.67 1.28769 -0.942899 0
M  V30 58815 C 5653.87 1.9776 0.386414 0
M  V30 58816 O 5652.93 2.26369 1.11862 0
M  V30 58817 C 5654.24 2.13764 -2.11484 0
M  V30 58818 C 5655.79 2.27081 -2.15414 0
M  V30 58819 C 5656.26 3.15446 -3.32051 0
M  V30 58820 N 5657.75 3.23035 -3.31968 0
M  V30 58821 C 5658.49 3.9159 -4.18862 0
M  V30 58822 N 5657.98 4.624 -5.15906 0
M  V30 58823 N 5659.78 3.87959 -4.06748 0
M  V30 58824 H 5651.93 0.568093 -2.04662 0
M  V30 58825 H 5654.19 0.313249 -0.894751 0
M  V30 58826 H 5653.9 1.70389 -3.07669 0
M  V30 58827 H 5653.77 3.14469 -2.08301 0
M  V30 58828 H 5656.16 2.69688 -1.19801 0
M  V30 58829 H 5656.24 1.25937 -2.22651 0
M  V30 58830 H 5655.88 2.73549 -4.27941 0
M  V30 58831 H 5655.81 4.16643 -3.2205 0
M  V30 58832 H 5658.3 2.72601 -2.6172 0
M  V30 58833 H 5658.62 5.12332 -5.78563 0
M  V30 58834 H 5656.96 4.61274 -5.19857 0
M  V30 58835 H 5660.15 3.31778 -3.30214 0
M  V30 58836 H 5660.33 4.41114 -4.74682 0
M  V30 58837 N 5653.73 0.994763 1.22238 0
M  V30 58838 C 5654.68 0.546583 2.24234 0
M  V30 58839 C 5655.65 -0.422045 1.60649 0
M  V30 58840 O 5656.83 -0.326386 1.87988 0
M  V30 58841 C 5653.97 -0.130787 3.44852 0
M  V30 58842 C 5653.09 0.879802 4.22946 0
M  V30 58843 C 5652.22 0.175756 5.30909 0
M  V30 58844 C 5651.26 1.17459 6.00724 0
M  V30 58845 N 5650.4 0.49872 7.00326 0
M  V30 58846 H 5655.24 1.42108 2.61934 0
M  V30 58847 H 5652.78 0.7118 1.28732 0
M  V30 58848 H 5654.73 -0.540451 4.13685 0
M  V30 58849 H 5653.36 -0.969061 3.07911 0
M  V30 58850 H 5652.42 1.40778 3.53392 0
M  V30 58851 H 5653.73 1.64034 4.71057 0
M  V30 58852 H 5652.88 -0.290543 6.06004 0
M  V30 58853 H 5651.62 -0.617268 4.83778 0
M  V30 58854 H 5650.63 1.6515 5.2441 0
M  V30 58855 H 5651.85 1.96852 6.49943 0
M  V30 58856 H 5649.8 -0.274832 6.55424 0
M  V30 58857 H 5649.71 1.19767 7.46453 0
M  V30 58858 H 5650.98 0.055286 7.7948 0
M  V30 58859 N 5655.21 -1.3761 0.768196 0
M  V30 58860 C 5656.12 -2.34102 0.152731 0
M  V30 58861 C 5657.14 -1.60002 -0.683755 0
M  V30 58862 O 5658.31 -1.92114 -0.604504 0
M  V30 58863 C 5655.38 -3.39166 -0.718834 0
M  V30 58864 C 5654.44 -4.29092 0.133701 0
M  V30 58865 C 5653.67 -5.29138 -0.696361 0
M  V30 58866 O 5653.89 -5.36625 -1.93364 0
M  V30 58867 O 5652.83 -6.01804 -0.10744 0
M  V30 58868 H 5656.65 -2.88459 0.950001 0
M  V30 58869 H 5654.24 -1.3971 0.529301 0
M  V30 58870 H 5656.12 -4.03459 -1.21651 0
M  V30 58871 H 5654.8 -2.87143 -1.49435 0
M  V30 58872 H 5653.7 -3.67911 0.677657 0
M  V30 58873 H 5655.04 -4.8441 0.872218 0
M  V30 58874 N 5656.69 -0.518446 -1.48828 0
M  V30 58875 C 5657.62 0.239603 -2.32267 0
M  V30 58876 C 5658.6 0.94608 -1.41362 0
M  V30 58877 O 5659.78 0.934102 -1.70259 0
M  V30 58878 C 5656.91 1.29399 -3.22294 0
M  V30 58879 C 5655.87 0.706355 -4.22131 0
M  V30 58880 C 5655.19 1.86255 -5.01212 0
M  V30 58881 C 5656.49 -0.314262 -5.21354 0
M  V30 58882 H 5658.19 -0.456904 -2.95893 0
M  V30 58883 H 5655.73 -0.221176 -1.42291 0
M  V30 58884 H 5657.69 1.83217 -3.79486 0
M  V30 58885 H 5656.41 2.01992 -2.56645 0
M  V30 58886 H 5655.07 0.189795 -3.66108 0
M  V30 58887 H 5654.72 2.57658 -4.31997 0
M  V30 58888 H 5654.42 1.47534 -5.68777 0
M  V30 58889 H 5655.94 2.40473 -5.61253 0
M  V30 58890 H 5657.36 0.136403 -5.73138 0
M  V30 58891 H 5655.75 -0.618236 -5.96907 0
M  V30 58892 H 5656.82 -1.2241 -4.69195 0
M  V30 58893 N 5658.17 1.55555 -0.253048 0
M  V30 58894 C 5659.1 2.24616 0.637968 0
M  V30 58895 C 5660.08 1.22856 1.17646 0
M  V30 58896 O 5661.26 1.51524 1.21467 0
M  V30 58897 C 5658.39 2.95035 1.83225 0
M  V30 58898 C 5657.35 4.03536 1.42627 0
M  V30 58899 C 5656.67 4.61414 2.70188 0
M  V30 58900 C 5657.97 5.18925 0.592776 0
M  V30 58901 H 5659.67 2.99336 0.0620865 0
M  V30 58902 H 5657.21 1.43972 0.0284215 0
M  V30 58903 H 5659.17 3.42051 2.46129 0
M  V30 58904 H 5657.89 2.17814 2.43361 0
M  V30 58905 H 5656.55 3.57299 0.820547 0
M  V30 58906 H 5656.2 3.80885 3.28535 0
M  V30 58907 H 5655.9 5.34661 2.43745 0
M  V30 58908 H 5657.42 5.11166 3.33979 0
M  V30 58909 H 5658.83 5.62128 1.12626 0
M  V30 58910 H 5657.23 5.98599 0.424148 0
M  V30 58911 H 5658.3 4.833 -0.393604 0
M  V30 58912 N 5659.64 -0.0199865 1.57587 0
M  V30 58913 C 5660.55 -1.03452 2.10558 0
M  V30 58914 C 5661.57 -1.39031 1.04624 0
M  V30 58915 O 5662.75 -1.48168 1.36412 0
M  V30 58916 C 5659.81 -2.3138 2.58194 0
M  V30 58917 C 5658.87 -2.02298 3.78648 0
M  V30 58918 C 5658.11 -3.24126 4.24002 0
M  V30 58919 O 5658.33 -4.3512 3.68819 0
M  V30 58920 O 5657.26 -3.09294 5.16353 0
M  V30 58921 H 5661.09 -0.614314 2.97422 0
M  V30 58922 H 5658.67 -0.237553 1.47499 0
M  V30 58923 H 5660.56 -3.06572 2.89122 0
M  V30 58924 H 5659.23 -2.72678 1.74437 0
M  V30 58925 H 5658.14 -1.24645 3.52724 0
M  V30 58926 H 5659.47 -1.6585 4.63416 0
M  V30 58927 N 5661.12 -1.54863 -0.292418 0
M  V30 58928 C 5662.35 -1.78295 -1.04376 0
M  V30 58929 C 5662.76 -0.546767 -1.81127 0
M  V30 58930 O 5662.1 0.493224 -1.76955 0
M  V30 58931 C 5662.17 -2.94328 -2.06425 0
M  V30 58932 C 5661.83 -4.321 -1.4879 0
M  V30 58933 C 5662.83 -5.11811 -0.913511 0
M  V30 58934 C 5660.51 -4.7872 -1.52095 0
M  V30 58935 C 5662.51 -6.36267 -0.37983 0
M  V30 58936 C 5660.19 -6.03136 -0.983401 0
M  V30 58937 C 5661.19 -6.81745 -0.413821 0
M  V30 58938 O 5660.88 -8.03817 0.11555 0
M  V30 58939 H 5660.61 -0.598158 -0.314933 0
M  V30 58940 H 5663.17 -2.02657 -0.33459 0
M  V30 58941 H 5661.4 -2.65612 -2.81047 0
M  V30 58942 H 5663.08 -3.05258 -2.6753 0
M  V30 58943 H 5663.85 -4.76935 -0.88082 0
M  V30 58944 H 5659.73 -4.17556 -1.95367 0
M  V30 58945 H 5663.27 -6.97569 0.0653934 0
M  V30 58946 H 5659.17 -6.37498 -1.01327 0
M  V30 58947 H 5659.94 -8.185 0.00306271 0
M  V30 58948 N 5662.6 0.556024 -1.47466 0
M  V30 58949 C 5663.88 1.31684 -1.44633 0
M  V30 58950 C 5664.26 2.10609 -0.143915 0
M  V30 58951 O 5663.61 2.111 0.874588 0
M  V30 58952 C 5663.82 2.22036 -2.6926 0
M  V30 58953 C 5665.16 2.83017 -3.16523 0
M  V30 58954 O 5666.19 2.32337 -2.69996 0
M  V30 58955 O 5665.05 3.75134 -3.97412 0
M  V30 58956 H 5662.14 0.593005 -0.576432 0
M  V30 58957 H 5664.69 0.574829 -1.59668 0
M  V30 58958 H 5663.46 1.63324 -3.55585 0
M  V30 58959 H 5663.08 3.0353 -2.56818 0
M  V30 58960 N 5664.08 1.35617 0.802849 0
M  V30 58961 C 5665.01 1.31513 1.92942 0
M  V30 58962 C 5665.99 0.188902 1.69048 0
M  V30 58963 O 5667.18 0.384451 1.90357 0
M  V30 58964 C 5664.31 1.09013 3.29748 0
M  V30 58965 C 5663.26 2.18316 3.68133 0
M  V30 58966 C 5662.59 1.80976 5.03142 0
M  V30 58967 C 5663.89 3.60309 3.7812 0
M  V30 58968 H 5665.58 2.25778 1.96634 0
M  V30 58969 H 5663.13 1.08685 0.944647 0
M  V30 58970 H 5665.08 1.0478 4.08166 0
M  V30 58971 H 5663.8 0.111947 3.26408 0
M  V30 58972 H 5662.46 2.21652 2.92003 0
M  V30 58973 H 5662.11 0.81767 4.9631 0
M  V30 58974 H 5661.81 2.54147 5.29795 0
M  V30 58975 H 5663.33 1.78275 5.83995 0
M  V30 58976 H 5664.75 3.59275 4.4676 0
M  V30 58977 H 5663.14 4.32272 4.16246 0
M  V30 58978 H 5664.21 3.9619 2.79574 0
M  V30 58979 N 5665.56 -1.02544 1.19676 0
M  V30 58980 C 5666.49 -2.10987 0.895374 0
M  V30 58981 C 5667.5 -1.62405 -0.113316 0
M  V30 58982 O 5668.69 -1.78119 0.116548 0
M  V30 58983 C 5665.79 -3.37393 0.319243 0
M  V30 58984 C 5664.96 -4.15149 1.37732 0
M  V30 58985 C 5664.02 -5.19864 0.814113 0
M  V30 58986 O 5663.05 -5.4928 1.49265 0
M  V30 58987 N 5664.25 -5.79249 -0.380885 0
M  V30 58988 H 5667.02 -2.37432 1.82883 0
M  V30 58989 H 5664.58 -1.18864 1.09923 0
M  V30 58990 H 5666.57 -4.04637 -0.0714684 0
M  V30 58991 H 5665.14 -3.08269 -0.518572 0
M  V30 58992 H 5664.36 -3.43003 1.94274 0
M  V30 58993 H 5665.65 -4.63884 2.09019 0
M  V30 58994 H 5665.05 -5.57673 -0.949595 0
M  V30 58995 H 5663.6 -6.47885 -0.713335 0
M  V30 58996 N 5667.04 -1.00123 -1.21709 0
M  V30 58997 C 5667.97 -0.516711 -2.233 0
M  V30 58998 C 5668.98 0.392677 -1.57993 0
M  V30 58999 O 5670.17 0.193478 -1.77448 0
M  V30 59000 C 5667.27 0.269494 -3.37827 0
M  V30 59001 C 5666.44 -0.638051 -4.32721 0
M  V30 59002 C 5665.5 0.0978896 -5.26109 0
M  V30 59003 O 5664.53 -0.519501 -5.66824 0
M  V30 59004 N 5665.73 1.37763 -5.63916 0
M  V30 59005 H 5668.49 -1.39032 -2.655 0
M  V30 59006 H 5666.06 -0.876927 -1.36094 0
M  V30 59007 H 5668.05 0.770686 -3.97294 0
M  V30 59008 H 5666.62 1.04426 -2.94642 0
M  V30 59009 H 5665.84 -1.31979 -3.7145 0
M  V30 59010 H 5667.13 -1.25581 -4.93059 0
M  V30 59011 H 5666.52 1.90042 -5.32823 0
M  V30 59012 H 5665.08 1.82385 -6.25763 0
M  V30 59013 N 5668.51 1.37201 -0.775483 0
M  V30 59014 C 5669.93 1.52961 -0.455542 0
M  V30 59015 C 5670.13 1.73288 1.02828 0
M  V30 59016 O 5669.19 1.75638 1.81404 0
M  V30 59017 C 5670.5 2.72384 -1.27386 0
M  V30 59018 C 5672.05 2.86248 -1.26614 0
M  V30 59019 C 5672.52 4.08659 -2.0679 0
M  V30 59020 N 5674.01 4.15778 -2.04163 0
M  V30 59021 C 5674.75 5.09539 -2.62978 0
M  V30 59022 N 5674.24 6.08833 -3.30596 0
M  V30 59023 N 5676.04 5.02051 -2.52788 0
M  V30 59024 H 5668.19 1.22259 -1.73685 0
M  V30 59025 H 5670.45 0.595612 -0.73753 0
M  V30 59026 H 5670.16 2.63841 -2.32553 0
M  V30 59027 H 5670.03 3.66168 -0.905596 0
M  V30 59028 H 5672.42 2.9426 -0.222448 0
M  V30 59029 H 5672.5 1.93412 -1.67408 0
M  V30 59030 H 5672.14 4.01408 -3.11182 0
M  V30 59031 H 5672.07 5.00616 -1.63376 0
M  V30 59032 H 5674.56 3.44677 -1.54938 0
M  V30 59033 H 5674.88 6.76913 -3.72839 0
M  V30 59034 H 5673.22 6.09101 -3.34695 0
M  V30 59035 H 5676.41 4.23424 -1.99574 0
M  V30 59036 H 5676.59 5.74937 -2.98918 0
M  V30 59037 N 5669.99 0.526331 1.48551 0
M  V30 59038 C 5670.9 -0.242358 2.33345 0
M  V30 59039 C 5671.92 -0.942607 1.46256 0
M  V30 59040 O 5673.09 -0.918377 1.79242 0
M  V30 59041 C 5670.16 -1.2779 3.2229 0
M  V30 59042 C 5669.22 -0.588393 4.25249 0
M  V30 59043 C 5668.45 -1.5746 5.09943 0
M  V30 59044 O 5668.68 -2.80689 4.96558 0
M  V30 59045 O 5667.61 -1.116 5.91464 0
M  V30 59046 H 5671.44 0.452368 3.00312 0
M  V30 59047 H 5669.02 0.287301 1.46612 0
M  V30 59048 H 5670.9 -1.87643 3.77317 0
M  V30 59049 H 5669.58 -1.9551 2.57988 0
M  V30 59050 H 5668.48 0.0505337 3.74066 0
M  V30 59051 H 5669.82 0.0468 4.92178 0
M  V30 59052 N 5671.47 -1.55419 0.261294 0
M  V30 59053 C 5672.43 -2.20685 -0.618933 0
M  V30 59054 C 5673.43 -1.18046 -1.09187 0
M  V30 59055 O 5674.62 -1.43038 -0.99427 0
M  V30 59056 C 5671.75 -2.86185 -1.85232 0
M  V30 59057 H 5672.95 -2.99859 -0.0492869 0
M  V30 59058 H 5670.5 -1.56296 0.0118237 0
M  V30 59059 H 5671.24 -2.10986 -2.46283 0
M  V30 59060 H 5671.02 -3.61387 -1.52126 0
M  V30 59061 H 5672.51 -3.3609 -2.47857 0
M  V30 59062 N 5672.95 0.011629 -1.57596 0
M  V30 59063 C 5673.91 0.991528 -2.06643 0
M  V30 59064 C 5674.91 1.2797 -0.973674 0
M  V30 59065 O 5676.1 1.22682 -1.23672 0
M  V30 59066 C 5673.23 2.31966 -2.49809 0
M  V30 59067 H 5674.43 0.567504 -2.94482 0
M  V30 59068 H 5671.98 0.258852 -1.54142 0
M  V30 59069 H 5672.71 2.79081 -1.65179 0
M  V30 59070 H 5672.5 2.12374 -3.29605 0
M  V30 59071 H 5673.99 3.02283 -2.88122 0
M  V30 59072 N 5674.43 1.55016 0.284201 0
M  V30 59073 C 5675.65 1.79106 1.0358 0
M  V30 59074 C 5676.07 0.558797 1.80341 0
M  V30 59075 O 5675.43 -0.471863 1.76294 0
M  V30 59076 C 5675.48 3.00922 2.0032 0
M  V30 59077 O 5675.2 4.19388 1.2667 0
M  V30 59078 C 5676.7 3.3753 2.87382 0
M  V30 59079 H 5673.92 0.596923 0.30647 0
M  V30 59080 H 5676.46 2.02006 0.318379 0
M  V30 59081 H 5674.62 2.80181 2.6754 0
M  V30 59082 H 5675.03 4.88181 1.91779 0
M  V30 59083 H 5676.51 4.25966 3.5108 0
M  V30 59084 H 5676.98 2.56431 3.56567 0
M  V30 59085 H 5677.59 3.60491 2.25669 0
M  V30 59086 N 5675.9 -0.548196 1.47758 0
M  V30 59087 C 5676.85 -1.65448 1.60921 0
M  V30 59088 C 5677.82 -1.59835 0.451887 0
M  V30 59089 O 5679.01 -1.78533 0.673086 0
M  V30 59090 C 5676.15 -3.03754 1.63791 0
M  V30 59091 C 5675.26 -3.19737 2.90504 0
M  V30 59092 C 5674.39 -4.48495 2.84651 0
M  V30 59093 C 5673.43 -4.57941 4.06148 0
M  V30 59094 N 5672.57 -5.78065 3.98479 0
M  V30 59095 H 5677.41 -1.53536 2.55403 0
M  V30 59096 H 5674.95 -0.747781 1.26675 0
M  V30 59097 H 5676.91 -3.83854 1.63437 0
M  V30 59098 H 5675.54 -3.1448 0.728146 0
M  V30 59099 H 5674.59 -2.33009 3.00684 0
M  V30 59100 H 5675.9 -3.2258 3.80452 0
M  V30 59101 H 5675.05 -5.36865 2.82596 0
M  V30 59102 H 5673.79 -4.48144 1.92401 0
M  V30 59103 H 5672.8 -3.67981 4.08497 0
M  V30 59104 H 5674.02 -4.60044 4.99536 0
M  V30 59105 H 5671.97 -5.78647 3.09037 0
M  V30 59106 H 5671.89 -5.82325 4.82114 0
M  V30 59107 H 5673.15 -6.68772 4.00455 0
M  V30 59108 N 5677.38 -1.36041 -0.795646 0
M  V30 59109 C 5678.61 -1.33227 -1.5895 0
M  V30 59110 C 5679.03 0.0853936 -1.87906 0
M  V30 59111 O 5678.39 1.0555 -1.47407 0
M  V30 59112 C 5678.44 -2.15518 -2.89109 0
M  V30 59113 O 5677.54 -1.5434 -3.8243 0
M  V30 59114 H 5676.88 -0.456281 -0.482394 0
M  V30 59115 H 5679.41 -1.79238 -0.986663 0
M  V30 59116 H 5679.42 -2.27871 -3.38436 0
M  V30 59117 H 5678.1 -3.18577 -2.6736 0
M  V30 59118 H 5676.68 -1.50891 -3.41008 0
M  V30 59119 N 5678.86 1.01908 -1.20218 0
M  V30 59120 C 5680.09 1.79609 -1.03708 0
M  V30 59121 C 5680.51 1.83593 0.40931 0
M  V30 59122 O 5679.87 1.26915 1.29469 0
M  V30 59123 C 5679.92 3.22046 -1.62231 0
M  V30 59124 O 5679.02 4.03371 -0.858248 0
M  V30 59125 H 5678.36 0.554082 -0.365909 0
M  V30 59126 H 5680.89 1.28198 -1.59457 0
M  V30 59127 H 5680.9 3.72766 -1.6586 0
M  V30 59128 H 5679.58 3.18461 -2.67498 0
M  V30 59129 H 5678.15 3.61976 -0.895962 0
M  V30 59130 N 5680.34 1.00767 1.21176 0
M  V30 59131 C 5681.75 0.720955 1.42388 0
M  V30 59132 C 5681.95 -0.702852 1.88844 0
M  V30 59133 O 5681.01 -1.47184 2.05166 0
M  V30 59134 C 5682.32 1.73908 2.45309 0
M  V30 59135 C 5683.87 1.7562 2.59088 0
M  V30 59136 C 5684.35 2.76336 3.65243 0
M  V30 59137 N 5685.84 2.7502 3.72717 0
M  V30 59138 C 5686.57 3.4961 4.54489 0
M  V30 59139 N 5686.07 4.33847 5.40137 0
M  V30 59140 N 5687.86 3.38248 4.48938 0
M  V30 59141 H 5680.01 1.927 0.893336 0
M  V30 59142 H 5682.28 0.831904 0.454576 0
M  V30 59143 H 5681.98 2.75867 2.18152 0
M  V30 59144 H 5681.86 1.54392 3.44155 0
M  V30 59145 H 5684.24 0.743517 2.8558 0
M  V30 59146 H 5684.32 1.99209 1.60466 0
M  V30 59147 H 5683.97 3.77763 3.39496 0
M  V30 59148 H 5683.9 2.50012 4.63467 0
M  V30 59149 H 5686.39 2.13908 3.11531 0
M  V30 59150 H 5686.7 4.87551 5.99594 0
M  V30 59151 H 5685.05 4.37929 5.3967 0
M  V30 59152 H 5688.24 2.71868 3.81058 0
M  V30 59153 H 5688.41 3.96633 5.12431 0
M  V30 59154 N 5681.82 -1.36787 0.782749 0
M  V30 59155 C 5683.04 -2.03676 0.363806 0
M  V30 59156 C 5683.46 -1.59028 -1.01762 0
M  V30 59157 O 5682.82 -0.776599 -1.65152 0
M  V30 59158 C 5682.87 -3.59164 0.410339 0
M  V30 59159 O 5682.59 -4.02182 1.73728 0
M  V30 59160 C 5684.09 -4.43296 -0.0188162 0
M  V30 59161 H 5681.31 -0.653823 0.150852 0
M  V30 59162 H 5683.85 -1.74899 1.05974 0
M  V30 59163 H 5682.01 -3.86674 -0.237113 0
M  V30 59164 H 5682.42 -4.96748 1.6835 0
M  V30 59165 H 5683.9 -5.51962 0.0648884 0
M  V30 59166 H 5684.37 -4.25951 -1.07061 0
M  V30 59167 H 5684.98 -4.21034 0.600869 0
M  V30 59168 N 5683.29 -0.534202 -1.4827 0
M  V30 59169 C 5684.52 -0.00375755 -2.074 0
M  V30 59170 C 5684.94 1.26999 -1.38755 0
M  V30 59171 O 5684.3 1.75501 -0.454879 0
M  V30 59172 C 5684.35 0.198908 -3.60051 0
M  V30 59173 O 5683.45 1.26665 -3.92466 0
M  V30 59174 H 5682.8 -0.0410169 -0.662732 0
M  V30 59175 H 5685.33 -0.74332 -1.9062 0
M  V30 59176 H 5685.34 0.420261 -4.0583 0
M  V30 59177 H 5684.01 -0.731534 -4.09416 0
M  V30 59178 H 5682.59 1.02762 -3.58461 0
M  V30 59179 N 5684.77 1.55278 -0.269533 0
M  V30 59180 C 5686.02 1.99768 0.34936 0
M  V30 59181 C 5686.35 1.15767 1.55922 0
M  V30 59182 O 5685.63 0.226398 1.93178 0
M  V30 59183 C 5685.91 3.52477 0.737036 0
M  V30 59184 C 5685.76 4.47234 -0.479778 0
M  V30 59185 C 5687.08 4.1093 1.57559 0
M  V30 59186 H 5684.2 0.726234 0.12551 0
M  V30 59187 H 5686.84 1.86255 -0.375364 0
M  V30 59188 H 5684.99 3.64123 1.35451 0
M  V30 59189 H 5686.66 4.47539 -1.11832 0
M  V30 59190 H 5684.91 4.19123 -1.11885 0
M  V30 59191 H 5685.58 5.51754 -0.164847 0
M  V30 59192 H 5688.05 4.02526 1.05415 0
M  V30 59193 H 5686.93 5.18001 1.81566 0
M  V30 59194 H 5687.19 3.60807 2.55482 0
M  V30 59195 N 5686.25 -0.00327115 1.576 0
M  V30 59196 C 5687.18 -1.02384 2.05061 0
M  V30 59197 C 5688.2 -1.30899 0.967947 0
M  V30 59198 O 5689.38 -1.27933 1.2448 0
M  V30 59199 C 5686.48 -2.35939 2.43282 0
M  V30 59200 C 5685.66 -2.2641 3.74242 0
M  V30 59201 C 5684.72 -3.42626 3.99367 0
M  V30 59202 O 5683.74 -3.2096 4.70078 0
M  V30 59203 N 5684.94 -4.65367 3.47007 0
M  V30 59204 H 5687.71 -0.619112 2.93236 0
M  V30 59205 H 5685.27 -0.190721 1.60773 0
M  V30 59206 H 5687.26 -3.12453 2.57207 0
M  V30 59207 H 5685.83 -2.68165 1.60644 0
M  V30 59208 H 5685.05 -1.34828 3.70426 0
M  V30 59209 H 5686.34 -2.17213 4.60104 0
M  V30 59210 H 5685.74 -4.85867 2.8974 0
M  V30 59211 H 5684.3 -5.39158 3.66268 0
M  V30 59212 N 5687.73 -1.55165 -0.275976 0
M  V30 59213 C 5689.14 -1.6637 -0.847235 0
M  V30 59214 C 5689.49 -0.588758 -1.87158 0
M  V30 59215 O 5688.62 0.270275 -2.14706 0
M  V30 59216 C 5689.21 -3.01599 -1.54349 0
M  V30 59217 C 5687.77 -3.14841 -2.06282 0
M  V30 59218 C 5686.92 -2.62156 -0.903867 0
M  V30 59219 H 5689.87 -1.58613 -0.0523921 0
M  V30 59220 H 5689.89 -2.94421 -2.41032 0
M  V30 59221 H 5689.4 -3.79813 -0.797715 0
M  V30 59222 H 5687.5 -2.41394 -2.8383 0
M  V30 59223 H 5687.61 -4.21361 -2.28017 0
M  V30 59224 H 5685.98 -2.19238 -1.29642 0
M  V30 59225 H 5686.76 -3.42871 -0.171645 0
M  V30 59226 N 5689.21 0.540352 -1.48047 0
M  V30 59227 C 5690.43 1.32172 -1.5918 0
M  V30 59228 C 5690.85 1.87162 -0.248181 0
M  V30 59229 O 5690.21 1.65874 0.761066 0
M  V30 59230 C 5690.26 2.47985 -2.63031 0
M  V30 59231 O 5689.98 1.95264 -3.92178 0
M  V30 59232 C 5691.48 3.39957 -2.84507 0
M  V30 59233 H 5688.7 0.402311 -0.537017 0
M  V30 59234 H 5691.24 0.652915 -1.93797 0
M  V30 59235 H 5689.4 3.1077 -2.31302 0
M  V30 59236 H 5689.81 2.70996 -4.49067 0
M  V30 59237 H 5691.29 4.17595 -3.60997 0
M  V30 59238 H 5691.76 3.94548 -1.92946 0
M  V30 59239 H 5692.37 2.82973 -3.175 0
M  V30 59240 N 5690.69 1.36461 0.78842 0
M  V30 59241 C 5691.93 1.30747 1.54634 0
M  V30 59242 C 5692.26 -0.112961 1.94172 0
M  V30 59243 O 5691.52 -1.08247 1.63037 0
M  V30 59244 C 5691.81 2.17682 2.83459 0
M  V30 59245 C 5691.48 3.66215 2.63054 0
M  V30 59246 C 5690.14 4.06697 2.57198 0
M  V30 59247 C 5692.49 4.60384 2.44327 0
M  V30 59248 C 5689.82 5.3949 2.30581 0
M  V30 59249 C 5692.17 5.93395 2.19237 0
M  V30 59250 C 5690.84 6.33002 2.11814 0
M  V30 59251 H 5690.11 0.478435 0.565845 0
M  V30 59252 H 5692.76 1.68523 0.909528 0
M  V30 59253 H 5691.06 1.72846 3.51613 0
M  V30 59254 H 5692.76 2.10585 3.41255 0
M  V30 59255 H 5689.35 3.341 2.68468 0
M  V30 59256 H 5693.53 4.2998 2.47852 0
M  V30 59257 H 5688.79 5.69157 2.23317 0
M  V30 59258 H 5692.96 6.6593 2.03741 0
M  V30 59259 H 5690.59 7.35827 1.90953 0
M  V30 59260 N 5692.16 -1.01269 1.20757 0
M  V30 59261 C 5693.39 -1.7852 1.04585 0
M  V30 59262 C 5693.81 -1.84411 -0.404744 0
M  V30 59263 O 5693.16 -1.29991 -1.28096 0
M  V30 59264 C 5693.21 -3.228 1.62733 0
M  V30 59265 O 5692.94 -3.17265 3.02117 0
M  V30 59266 C 5694.44 -4.16584 1.51568 0
M  V30 59267 H 5691.66 -0.561286 0.367694 0
M  V30 59268 H 5694.2 -1.27448 1.59929 0
M  V30 59269 H 5692.36 -3.71007 1.115 0
M  V30 59270 H 5692.77 -4.07855 3.2978 0
M  V30 59271 H 5694.24 -5.15647 1.97008 0
M  V30 59272 H 5694.72 -4.36691 0.468812 0
M  V30 59273 H 5695.33 -3.74262 2.02011 0
M  V30 59274 N 5693.64 -1.01408 -1.2064 0
M  V30 59275 C 5694.6 -0.587019 -2.21555 0
M  V30 59276 C 5695.6 0.341488 -1.57132 0
M  V30 59277 O 5696.79 0.130523 -1.7371 0
M  V30 59278 C 5693.93 0.143128 -3.40599 0
M  V30 59279 H 5695.12 -1.47973 -2.60853 0
M  V30 59280 H 5692.67 -0.803598 -1.3406 0
M  V30 59281 H 5693.41 1.05086 -3.06802 0
M  V30 59282 H 5693.19 -0.523852 -3.88585 0
M  V30 59283 H 5694.68 0.429358 -4.15387 0
M  V30 59284 N 5695.12 1.3637 -0.789992 0
M  V30 59285 C 5696.34 2.0401 -0.373467 0
M  V30 59286 C 5696.77 1.59174 1.00225 0
M  V30 59287 O 5696.13 0.760489 1.64579 0
M  V30 59288 C 5696.18 3.57829 -0.446209 0
M  V30 59289 O 5695.28 4.08761 0.546637 0
M  V30 59290 H 5694.62 0.644801 -0.158517 0
M  V30 59291 H 5697.15 1.74313 -1.07126 0
M  V30 59292 H 5697.16 4.0682 -0.31002 0
M  V30 59293 H 5695.84 3.89814 -1.44976 0
M  V30 59294 H 5694.41 3.71039 0.372061 0
M  V30 59295 N 5696.6 0.542057 1.47985 0
M  V30 59296 C 5697.53 -0.25135 2.27818 0
M  V30 59297 C 5698.54 -0.893388 1.36097 0
M  V30 59298 O 5699.73 -0.769793 1.61048 0
M  V30 59299 C 5696.83 -1.37225 3.09875 0
M  V30 59300 C 5696 -0.82987 4.29455 0
M  V30 59301 C 5695.06 -1.83339 4.93228 0
M  V30 59302 O 5694.09 -1.38552 5.5208 0
M  V30 59303 N 5695.29 -3.16614 4.86555 0
M  V30 59304 H 5698.06 0.433385 2.9655 0
M  V30 59305 H 5695.62 0.377154 1.57446 0
M  V30 59306 H 5697.61 -2.042 3.49406 0
M  V30 59307 H 5696.18 -1.96046 2.43484 0
M  V30 59308 H 5695.4 0.0162213 3.94197 0
M  V30 59309 H 5696.69 -0.446583 5.06836 0
M  V30 59310 H 5696.09 -3.55658 4.39914 0
M  V30 59311 H 5694.64 -3.79188 5.30151 0
M  V30 59312 N 5698.08 -1.55133 0.277764 0
M  V30 59313 C 5699.31 -2.03766 -0.341034 0
M  V30 59314 C 5699.71 -1.15548 -1.49818 0
M  V30 59315 O 5699.06 -0.168707 -1.82924 0
M  V30 59316 C 5699.12 -3.48516 -0.881852 0
M  V30 59317 C 5698.78 -4.56764 0.146998 0
M  V30 59318 C 5699.78 -5.1082 0.967432 0
M  V30 59319 C 5697.46 -5.01508 0.282 0
M  V30 59320 C 5699.46 -6.0814 1.90903 0
M  V30 59321 C 5697.15 -5.98654 1.22707 0
M  V30 59322 C 5698.14 -6.51851 2.03909 0
M  V30 59323 O 5697.83 -7.47098 2.96817 0
M  V30 59324 H 5697.56 -0.671071 -0.0814816 0
M  V30 59325 H 5700.12 -2.01299 0.408412 0
M  V30 59326 H 5698.35 -3.48232 -1.68142 0
M  V30 59327 H 5700.04 -3.80474 -1.41402 0
M  V30 59328 H 5700.8 -4.77062 0.873882 0
M  V30 59329 H 5696.68 -4.59744 -0.340041 0
M  V30 59330 H 5700.23 -6.49588 2.54324 0
M  V30 59331 H 5696.12 -6.3183 1.32143 0
M  V30 59332 H 5696.89 -7.64822 2.91529 0
M  V30 59333 N 5699.55 -0.00508679 -1.57599 0
M  V30 59334 C 5700.97 0.351054 -1.55691 0
M  V30 59335 C 5701.17 1.74461 -1.00824 0
M  V30 59336 O 5700.23 2.44141 -0.644305 0
M  V30 59337 C 5701.54 0.221632 -2.99882 0
M  V30 59338 C 5703.09 0.296194 -3.11595 0
M  V30 59339 C 5703.56 0.195838 -4.57581 0
M  V30 59340 N 5705.05 0.253579 -4.62505 0
M  V30 59341 C 5705.79 0.199344 -5.73053 0
M  V30 59342 N 5705.28 0.0954117 -6.92734 0
M  V30 59343 N 5707.08 0.251581 -5.61537 0
M  V30 59344 H 5699.23 -0.916645 -1.91602 0
M  V30 59345 H 5701.49 -0.351833 -0.880294 0
M  V30 59346 H 5701.2 -0.737376 -3.43883 0
M  V30 59347 H 5701.07 1.00165 -3.63658 0
M  V30 59348 H 5703.46 1.24565 -2.67521 0
M  V30 59349 H 5703.54 -0.51378 -2.50587 0
M  V30 59350 H 5703.18 -0.750094 -5.02331 0
M  V30 59351 H 5703.11 1.02436 -5.16541 0
M  V30 59352 H 5705.6 0.33503 -3.76412 0
M  V30 59353 H 5705.92 0.060064 -7.72777 0
M  V30 59354 H 5704.26 0.060967 -6.94973 0
M  V30 59355 H 5707.45 0.331009 -4.66928 0
M  V30 59356 H 5707.63 0.20585 -6.47673 0
M  V30 59357 N 5701.03 1.55309 0.267743 0
M  V30 59358 C 5701.99 1.87769 1.31436 0
M  V30 59359 C 5702.99 0.752621 1.42099 0
M  V30 59360 O 5704.18 1.02077 1.4116 0
M  V30 59361 C 5701.32 2.08764 2.695 0
M  V30 59362 H 5702.51 2.81334 1.03881 0
M  V30 59363 H 5700.06 1.47881 0.506059 0
M  V30 59364 H 5700.8 1.17598 3.02227 0
M  V30 59365 H 5700.58 2.90683 2.63145 0
M  V30 59366 H 5702.07 2.35133 3.45112 0
M  V30 59367 N 5702.51 -0.532493 1.48332 0
M  V30 59368 C 5703.44 -1.64657 1.65561 0
M  V30 59369 C 5704.42 -1.62445 0.504527 0
M  V30 59370 O 5705.61 -1.79681 0.736775 0
M  V30 59371 C 5702.74 -3.0325 1.69282 0
M  V30 59372 C 5701.69 -3.20319 2.83866 0
M  V30 59373 C 5701.02 -4.59948 2.72675 0
M  V30 59374 C 5702.32 -3.0333 4.25192 0
M  V30 59375 H 5704.01 -1.50493 2.58829 0
M  V30 59376 H 5701.56 -0.722569 1.24559 0
M  V30 59377 H 5703.51 -3.81058 1.79924 0
M  V30 59378 H 5702.23 -3.18431 0.725916 0
M  V30 59379 H 5700.89 -2.44927 2.72775 0
M  V30 59380 H 5700.54 -4.71961 1.73959 0
M  V30 59381 H 5700.24 -4.72314 3.49561 0
M  V30 59382 H 5701.76 -5.39859 2.85281 0
M  V30 59383 H 5703.18 -3.70932 4.37129 0
M  V30 59384 H 5701.57 -3.27191 5.03057 0
M  V30 59385 H 5702.64 -1.99784 4.41831 0
M  V30 59386 N 5703.99 -1.36878 -0.781172 0
M  V30 59387 C 5705.21 -1.34906 -1.57528 0
M  V30 59388 C 5705.64 0.0654588 -1.87986 0
M  V30 59389 O 5705 1.03981 -1.48518 0
M  V30 59390 C 5705.04 -2.18573 -2.86807 0
M  V30 59391 O 5704.15 -1.58388 -3.80772 0
M  V30 59392 H 5703.49 -0.461372 -0.477527 0
M  V30 59393 H 5706.02 -1.80274 -0.967597 0
M  V30 59394 H 5706.03 -2.31448 -3.36 0
M  V30 59395 H 5704.7 -3.21395 -2.63966 0
M  V30 59396 H 5703.28 -1.54499 -3.39388 0
M  V30 59397 N 5705.47 1.00628 -1.21292 0
M  V30 59398 C 5706.71 1.74643 -1.0309 0
M  V30 59399 C 5707.05 1.89272 0.434694 0
M  V30 59400 O 5706.32 1.42611 1.32258 0
M  V30 59401 C 5706.6 3.15974 -1.7272 0
M  V30 59402 C 5706.46 3.09076 -3.2679 0
M  V30 59403 C 5707.78 4.1487 -1.46871 0
M  V30 59404 H 5704.89 0.633924 -0.375911 0
M  V30 59405 H 5707.54 1.17323 -1.4945 0
M  V30 59406 H 5705.69 3.64913 -1.33307 0
M  V30 59407 H 5707.36 2.67861 -3.75564 0
M  V30 59408 H 5705.6 2.4621 -3.5716 0
M  V30 59409 H 5706.27 4.09028 -3.70675 0
M  V30 59410 H 5708.75 3.74631 -1.81083 0
M  V30 59411 H 5707.62 5.11903 -1.98106 0
M  V30 59412 H 5707.89 4.40301 -0.398451 0
M  V30 59413 N 5706.94 1.02047 1.20101 0
M  V30 59414 C 5707.87 0.6145 2.25269 0
M  V30 59415 C 5708.86 -0.372361 1.65974 0
M  V30 59416 O 5710.04 -0.256937 1.92493 0
M  V30 59417 C 5707.17 -0.0440864 3.47272 0
M  V30 59418 C 5706.12 0.864166 4.19185 0
M  V30 59419 C 5705.45 0.0711431 5.34653 0
M  V30 59420 C 5706.75 2.17402 4.74904 0
M  V30 59421 H 5708.44 1.49365 2.59481 0
M  V30 59422 H 5705.99 0.719634 1.24729 0
M  V30 59423 H 5707.94 -0.339677 4.20029 0
M  V30 59424 H 5706.67 -0.957973 3.12235 0
M  V30 59425 H 5705.33 1.14382 3.48299 0
M  V30 59426 H 5704.97 -0.844514 4.9586 0
M  V30 59427 H 5704.67 0.676035 5.83698 0
M  V30 59428 H 5706.2 -0.217904 6.10211 0
M  V30 59429 H 5707.61 1.94053 5.39459 0
M  V30 59430 H 5706.01 2.7301 5.34402 0
M  V30 59431 H 5707.08 2.83441 3.93433 0
M  V30 59432 N 5708.42 -1.3595 0.797213 0
M  V30 59433 C 5709.67 -1.98638 0.372475 0
M  V30 59434 C 5709.99 -1.63575 -1.06152 0
M  V30 59435 O 5709.26 -0.913576 -1.73293 0
M  V30 59436 H 5707.84 -0.734748 0.134736 0
M  V30 59437 H 5710.5 -1.66018 1.02098 0
M  V30 59438 H 5709.6 -3.08532 0.470599 0
M  V30 59439 N 5709.9 -0.549898 -1.47695 0
M  V30 59440 C 5711.14 -0.0253823 -2.04384 0
M  V30 59441 C 5711.5 1.29687 -1.41581 0
M  V30 59442 O 5712.71 1.90864 -1.89273 0
M  V30 59443 C 5710.98 0.0735539 -3.57324 0
M  V30 59444 S 5712.54 0.545252 -4.35399 0
M  V30 59445 H 5709.35 -0.0216241 -0.710671 0
M  V30 59446 H 5711.96 -0.734976 -1.81158 0
M  V30 59447 H 5710.66 -0.893284 -4.0056 0
M  V30 59448 H 5710.19 0.806924 -3.85035 0
M  V30 59449 H 5712.21 1.80627 -4.62156 0
M  V30 59450 N 5711.38 1.54983 -0.285987 0
M  V30 59451 C 5712.63 1.99437 0.32702 0
M  V30 59452 C 5712.95 1.17587 1.55558 0
M  V30 59453 O 5712.22 0.26807 1.94057 0
M  V30 59454 H 5710.8 0.736666 0.12382 0
M  V30 59455 H 5713.46 1.90879 -0.393841 0
M  V30 59456 H 5712.56 3.06092 0.609415 0
M  V30 59457 N 5712.86 0.0134446 1.57594 0
M  V30 59458 C 5713.81 -0.982409 2.05749 0
M  V30 59459 C 5714.79 -1.29505 0.954846 0
M  V30 59460 O 5715.98 -1.28378 1.21853 0
M  V30 59461 C 5713.11 -2.27003 2.57535 0
M  V30 59462 C 5712.2 -1.98645 3.74701 0
M  V30 59463 N 5712.59 -1.40495 4.85896 0
M  V30 59464 C 5710.89 -2.28719 3.82889 0
M  V30 59465 C 5711.59 -1.28913 5.67236 0
M  V30 59466 N 5710.56 -1.77933 5.13654 0
M  V30 59467 H 5714.37 -0.527524 2.89127 0
M  V30 59468 H 5711.88 -0.191944 1.61262 0
M  V30 59469 H 5713.88 -2.99202 2.90317 0
M  V30 59470 H 5712.54 -2.73132 1.75581 0
M  V30 59471 H 5713.55 -1.08199 5.06472 0
M  V30 59472 H 5710.22 -2.7763 3.11814 0
M  V30 59473 H 5711.61 -0.840817 6.66618 0
M  V30 59474 N 5714.33 -1.55449 -0.259503 0
M  V30 59475 C 5715.56 -1.80731 -1.00717 0
M  V30 59476 C 5715.98 -0.587417 -1.79429 0
M  V30 59477 O 5715.33 0.443757 -1.77023 0
M  V30 59478 C 5715.39 -3.04071 -1.95507 0
M  V30 59479 O 5715.11 -4.2135 -1.19982 0
M  V30 59480 C 5716.61 -3.42059 -2.81976 0
M  V30 59481 H 5713.83 -0.601723 -0.296934 0
M  V30 59482 H 5716.37 -2.02487 -0.286201 0
M  V30 59483 H 5714.53 -2.84402 -2.63048 0
M  V30 59484 H 5714.94 -4.91171 -1.83988 0
M  V30 59485 H 5716.41 -4.31497 -3.44259 0
M  V30 59486 H 5716.89 -2.62071 -3.52442 0
M  V30 59487 H 5717.5 -3.64035 -2.19906 0
M  V30 59488 N 5715.81 0.524619 -1.48612 0
M  V30 59489 C 5717.04 1.30952 -1.6083 0
M  V30 59490 C 5717.46 1.86141 -0.270748 0
M  V30 59491 O 5716.82 1.64677 0.758357 0
M  V30 59492 C 5716.87 2.43243 -2.66205 0
M  V30 59493 O 5715.97 3.46432 -2.23737 0
M  V30 59494 H 5715.31 0.387619 -0.539117 0
M  V30 59495 H 5717.84 0.630686 -1.94637 0
M  V30 59496 H 5717.85 2.89352 -2.87645 0
M  V30 59497 H 5716.53 2.02436 -3.63308 0
M  V30 59498 H 5715.11 3.06405 -2.12533 0
M  V30 59499 N 5717.29 1.3729 0.773902 0
M  V30 59500 C 5718.52 1.35739 1.56811 0
M  V30 59501 C 5718.94 -0.0554885 1.88018 0
M  V30 59502 O 5718.3 -1.03192 1.49068 0
M  V30 59503 C 5718.35 2.2009 2.85644 0
M  V30 59504 O 5717.45 1.60405 3.79926 0
M  V30 59505 H 5716.79 0.463898 0.475074 0
M  V30 59506 H 5719.32 1.80785 0.958023 0
M  V30 59507 H 5719.33 2.33227 3.34767 0
M  V30 59508 H 5718.01 3.2279 2.62258 0
M  V30 59509 H 5716.58 1.56297 3.38564 0
M  V30 59510 N 5718.77 -0.999829 1.21824 0
M  V30 59511 C 5720 -1.77401 1.06473 0
M  V30 59512 C 5720.41 -1.84829 -0.385162 0
M  V30 59513 O 5719.77 -1.31343 -1.2671 0
M  V30 59514 C 5719.82 -3.21056 1.66148 0
M  V30 59515 O 5719.54 -3.14043 3.05465 0
M  V30 59516 C 5721.04 -4.14953 1.55978 0
M  V30 59517 H 5718.26 -0.557355 0.373626 0
M  V30 59518 H 5720.81 -1.25745 1.61272 0
M  V30 59519 H 5718.96 -3.69804 1.15429 0
M  V30 59520 H 5719.37 -4.04334 3.34087 0
M  V30 59521 H 5720.85 -5.13528 2.02466 0
M  V30 59522 H 5721.33 -4.36169 0.515103 0
M  V30 59523 H 5721.93 -3.72098 2.05969 0
M  V30 59524 N 5720.25 -1.02682 -1.19558 0
M  V30 59525 C 5721.19 -0.605843 -2.22707 0
M  V30 59526 C 5722.16 0.379303 -1.61711 0
M  V30 59527 O 5723.35 0.27643 -1.88787 0
M  V30 59528 C 5720.49 0.0393099 -3.45078 0
M  V30 59529 C 5719.6 -0.991629 -4.20465 0
M  V30 59530 C 5718.74 -0.316455 -5.30257 0
M  V30 59531 C 5717.78 -1.33345 -5.97399 0
M  V30 59532 N 5716.91 -0.684224 -6.98758 0
M  V30 59533 H 5721.75 -1.49003 -2.58074 0
M  V30 59534 H 5719.29 -0.745681 -1.26799 0
M  V30 59535 H 5721.25 0.43058 -4.14972 0
M  V30 59536 H 5719.88 0.887084 -3.10372 0
M  V30 59537 H 5718.93 -1.50098 -3.49535 0
M  V30 59538 H 5720.24 -1.76465 -4.66542 0
M  V30 59539 H 5719.4 0.12977 -6.06561 0
M  V30 59540 H 5718.14 0.488785 -4.85244 0
M  V30 59541 H 5717.14 -1.78995 -5.19847 0
M  V30 59542 H 5718.37 -2.14015 -6.44496 0
M  V30 59543 H 5716.31 0.100962 -6.55922 0
M  V30 59544 H 5716.23 -1.39516 -7.43015 0
M  V30 59545 H 5717.5 -0.261932 -7.7906 0
M  V30 59546 N 5721.73 1.35525 -0.804411 0
M  V30 59547 C 5722.97 2.00657 -0.389369 0
M  V30 59548 C 5723.33 1.62434 1.02367 0
M  V30 59549 O 5724.53 2.2027 1.54061 0
M  V30 59550 C 5722.8 3.52911 -0.564693 0
M  V30 59551 S 5724.36 4.38145 -0.239752 0
M  V30 59552 H 5721.18 0.69543 -0.147982 0
M  V30 59553 H 5723.78 1.65152 -1.04619 0
M  V30 59554 H 5722.48 3.78216 -1.59313 0
M  V30 59555 H 5722.02 3.93253 0.107522 0
M  V30 59556 H 5724.03 4.86955 0.953362 0
M  V30 59557 N 5723.2 0.557723 1.47402 0
M  V30 59558 C 5724.43 0.0386765 2.06564 0
M  V30 59559 C 5724.84 -1.2607 1.41078 0
M  V30 59560 O 5724.18 -1.76722 0.501515 0
M  V30 59561 C 5724.25 -0.227334 3.5878 0
M  V30 59562 C 5723.91 0.982683 4.4631 0
M  V30 59563 C 5724.91 1.88838 4.84393 0
M  V30 59564 C 5722.59 1.1975 4.87817 0
M  V30 59565 C 5724.59 2.99258 5.62782 0
M  V30 59566 C 5722.27 2.30479 5.65971 0
M  V30 59567 C 5723.27 3.20064 6.03364 0
M  V30 59568 O 5722.96 4.28873 6.79944 0
M  V30 59569 H 5722.69 0.0430466 0.674628 0
M  V30 59570 H 5725.25 0.770868 1.90386 0
M  V30 59571 H 5723.48 -1.01384 3.73173 0
M  V30 59572 H 5725.16 -0.691825 3.99961 0
M  V30 59573 H 5725.93 1.73447 4.52925 0
M  V30 59574 H 5721.81 0.509384 4.58177 0
M  V30 59575 H 5725.35 3.69208 5.91888 0
M  V30 59576 H 5721.25 2.45842 5.96852 0
M  V30 59577 H 5722.02 4.26927 6.98338 0
M  V30 59578 N 5724.68 -1.5483 0.294202 0
M  V30 59579 C 5725.93 -1.99607 -0.316438 0
M  V30 59580 C 5726.25 -1.18411 -1.54932 0
M  V30 59581 O 5725.52 -0.278358 -1.93912 0
M  V30 59582 H 5724.1 -0.737313 -0.119912 0
M  V30 59583 H 5726.76 -1.90668 0.403958 0
M  V30 59584 H 5725.86 -3.06411 -0.593174 0
M  V30 59585 N 5726.16 -0.021802 -1.57585 0
M  V30 59586 C 5727.4 0.662665 -1.9336 0
M  V30 59587 C 5727.76 1.69711 -0.897888 0
M  V30 59588 O 5728.96 2.43354 -1.14159 0
M  V30 59589 C 5727.24 1.26961 -3.34089 0
M  V30 59590 S 5728.79 1.97617 -3.91782 0
M  V30 59591 H 5725.61 0.218363 -0.676638 0
M  V30 59592 H 5728.21 -0.0837153 -1.95321 0
M  V30 59593 H 5726.92 0.504195 -4.07291 0
M  V30 59594 H 5726.45 2.05345 -3.35555 0
M  V30 59595 H 5728.46 3.25379 -3.74623 0
M  V30 59596 N 5727.64 1.55584 0.251256 0
M  V30 59597 C 5728.6 1.89153 1.29437 0
M  V30 59598 C 5729.6 0.76765 1.41293 0
M  V30 59599 O 5730.79 1.03568 1.40069 0
M  V30 59600 C 5727.92 2.1161 2.67271 0
M  V30 59601 H 5729.12 2.8242 1.00891 0
M  V30 59602 H 5726.67 1.48409 0.490346 0
M  V30 59603 H 5727.4 1.20797 3.00963 0
M  V30 59604 H 5727.19 2.93458 2.60048 0
M  V30 59605 H 5728.68 2.3878 3.42599 0
M  V30 59606 N 5729.12 -0.516731 1.48888 0
M  V30 59607 C 5730.34 -1.30097 1.61522 0
M  V30 59608 C 5730.77 -1.85995 0.280615 0
M  V30 59609 O 5730.12 -1.65077 -0.749613 0
M  V30 59610 C 5730.17 -2.41828 2.67491 0
M  V30 59611 O 5729.28 -3.45241 2.25571 0
M  V30 59612 H 5728.62 -0.384755 0.541165 0
M  V30 59613 H 5731.15 -0.620355 1.94969 0
M  V30 59614 H 5731.16 -2.87822 2.89175 0
M  V30 59615 H 5729.83 -2.00507 3.64376 0
M  V30 59616 H 5728.41 -3.05274 2.14155 0
M  V30 59617 N 5730.59 -1.37698 -0.766611 0
M  V30 59618 C 5731.56 -1.33695 -1.86167 0
M  V30 59619 C 5732.56 -0.239978 -1.58999 0
M  V30 59620 O 5733.75 -0.496124 -1.66986 0
M  V30 59621 C 5730.88 -1.07818 -3.23401 0
M  V30 59622 H 5732.07 -2.31106 -1.91128 0
M  V30 59623 H 5729.62 -1.22802 -0.966917 0
M  V30 59624 H 5730.36 -0.109591 -3.24115 0
M  V30 59625 H 5730.14 -1.87225 -3.44513 0
M  V30 59626 H 5731.63 -1.07679 -4.03478 0
M  V30 59627 N 5732.07 0.993354 -1.22353 0
M  V30 59628 C 5733.32 1.7354 -1.04937 0
M  V30 59629 C 5733.65 1.89723 0.414594 0
M  V30 59630 O 5732.93 1.44006 1.30738 0
M  V30 59631 C 5733.21 3.14125 -1.76062 0
M  V30 59632 C 5733.06 3.05593 -3.3005 0
M  V30 59633 C 5734.38 4.13289 -1.51263 0
M  V30 59634 H 5731.5 0.629902 -0.382613 0
M  V30 59635 H 5734.14 1.15731 -1.50686 0
M  V30 59636 H 5732.29 3.63479 -1.3717 0
M  V30 59637 H 5733.96 2.63863 -3.78383 0
M  V30 59638 H 5732.21 2.42408 -3.59751 0
M  V30 59639 H 5732.88 4.05073 -3.74993 0
M  V30 59640 H 5735.35 3.72689 -1.85046 0
M  V30 59641 H 5734.23 5.09773 -2.03525 0
M  V30 59642 H 5734.49 4.39853 -0.445128 0
M  V30 59643 N 5733.55 1.03315 1.19012 0
M  V30 59644 C 5734.78 0.751869 1.92755 0
M  V30 59645 C 5735.19 -0.68992 1.75743 0
M  V30 59646 O 5734.55 -1.46957 1.08212 0
M  V30 59647 C 5734.6 1.09904 3.44388 0
M  V30 59648 O 5734.32 2.48422 3.60858 0
M  V30 59649 C 5735.82 0.841182 4.35246 0
M  V30 59650 H 5733.04 0.274778 0.612158 0
M  V30 59651 H 5735.59 1.37879 1.51029 0
M  V30 59652 H 5733.74 0.517227 3.83932 0
M  V30 59653 H 5734.16 2.61484 4.54672 0
M  V30 59654 H 5735.63 1.13402 5.40226 0
M  V30 59655 H 5736.11 -0.22428 4.38627 0
M  V30 59656 H 5736.71 1.40593 4.0139 0
M  V30 59657 N 5735.03 -1.35096 0.811587 0
M  V30 59658 C 5735.94 -2.33498 0.227132 0
M  V30 59659 C 5736.95 -1.62097 -0.632505 0
M  V30 59660 O 5738.13 -1.9394 -0.543079 0
M  V30 59661 C 5735.2 -3.41281 -0.610567 0
M  V30 59662 C 5734.26 -4.28449 0.270145 0
M  V30 59663 C 5733.49 -5.31085 -0.527668 0
M  V30 59664 O 5733.71 -5.42505 -1.76194 0
M  V30 59665 O 5732.65 -6.01841 0.0840736 0
M  V30 59666 H 5736.47 -2.85291 1.04129 0
M  V30 59667 H 5734.06 -1.37955 0.573481 0
M  V30 59668 H 5735.94 -4.07125 -1.08754 0
M  V30 59669 H 5734.61 -2.91751 -1.40224 0
M  V30 59670 H 5733.52 -3.65569 0.794362 0
M  V30 59671 H 5734.85 -4.8139 1.02589 0
M  V30 59672 N 5736.51 -0.565532 -1.47104 0
M  V30 59673 C 5737.46 0.198054 -2.27138 0
M  V30 59674 C 5738.44 0.877695 -1.34853 0
M  V30 59675 O 5739.63 0.774627 -1.59149 0
M  V30 59676 C 5736.76 1.22212 -3.2081 0
M  V30 59677 C 5735.85 0.545469 -4.20578 0
M  V30 59678 N 5736.24 -0.389206 -5.043 0
M  V30 59679 C 5734.54 0.798363 -4.38796 0
M  V30 59680 C 5735.24 -0.783055 -5.76405 0
M  V30 59681 N 5734.21 -0.136021 -5.4343 0
M  V30 59682 H 5738.02 -0.520456 -2.89255 0
M  V30 59683 H 5735.53 -0.386068 -1.57744 0
M  V30 59684 H 5737.53 1.78319 -3.76839 0
M  V30 59685 H 5736.19 1.94163 -2.60251 0
M  V30 59686 H 5737.2 -0.763824 -5.12236 0
M  V30 59687 H 5733.87 1.50575 -3.89401 0
M  V30 59688 H 5735.26 -1.55156 -6.5374 0
M  V30 59689 N 5737.98 1.54671 -0.302409 0
M  V30 59690 C 5739.22 2.02077 0.307308 0
M  V30 59691 C 5739.59 1.18608 1.50984 0
M  V30 59692 O 5740.79 1.55718 2.19102 0
M  V30 59693 C 5739.06 3.51372 0.653626 0
M  V30 59694 S 5740.62 4.20738 1.246 0
M  V30 59695 H 5737.44 0.704728 0.0942273 0
M  V30 59696 H 5740.04 1.90699 -0.430609 0
M  V30 59697 H 5738.74 4.09755 -0.230036 0
M  V30 59698 H 5738.27 3.66789 1.4223 0
M  V30 59699 H 5740.29 4.26633 2.53375 0
M  V30 59700 N 5739.46 0.0301588 1.57571 0
M  V30 59701 C 5740.71 -0.647605 1.91021 0
M  V30 59702 C 5741.02 -1.7323 0.908326 0
M  V30 59703 O 5742.23 -2.46678 1.13411 0
M  V30 59704 C 5740.69 -1.20315 3.39194 0
M  V30 59705 C 5740.29 -0.151675 4.47743 0
M  V30 59706 C 5742.04 -1.85736 3.8171 0
M  V30 59707 C 5739.95 -0.718913 5.87014 0
M  V30 59708 H 5738.88 -0.245657 0.71286 0
M  V30 59709 H 5741.53 0.0956289 1.83251 0
M  V30 59710 H 5739.91 -1.99802 3.41899 0
M  V30 59711 H 5741.08 0.62082 4.56599 0
M  V30 59712 H 5739.4 0.403845 4.14437 0
M  V30 59713 H 5741.99 -2.29134 4.83117 0
M  V30 59714 H 5742.34 -2.7005 3.16826 0
M  V30 59715 H 5742.87 -1.12937 3.81432 0
M  V30 59716 H 5739.61 0.0861136 6.55443 0
M  V30 59717 H 5739.13 -1.45987 5.81763 0
M  V30 59718 H 5740.81 -1.20833 6.35616 0
M  V30 59719 N 5740.94 -1.55715 -0.243001 0
M  V30 59720 C 5742.17 -1.81789 -0.987946 0
M  V30 59721 C 5742.58 -0.606414 -1.78796 0
M  V30 59722 O 5741.94 0.424956 -1.77483 0
M  V30 59723 C 5741.99 -3.06128 -1.92271 0
M  V30 59724 O 5741.71 -4.22599 -1.15506 0
M  V30 59725 C 5743.21 -3.45031 -2.78332 0
M  V30 59726 H 5740.43 -0.604839 -0.290536 0
M  V30 59727 H 5742.98 -2.0278 -0.264709 0
M  V30 59728 H 5741.13 -2.87176 -2.60017 0
M  V30 59729 H 5741.55 -4.93094 -1.78769 0
M  V30 59730 H 5743.02 -4.35124 -3.39663 0
M  V30 59731 H 5743.5 -2.65794 -3.49643 0
M  V30 59732 H 5744.1 -3.66347 -2.16032 0
M  V30 59733 N 5742.42 0.508828 -1.4916 0
M  V30 59734 C 5743.35 1.62002 -1.6816 0
M  V30 59735 C 5744.33 1.61622 -0.530306 0
M  V30 59736 O 5745.51 1.78486 -0.765267 0
M  V30 59737 C 5742.64 3.00519 -1.74085 0
M  V30 59738 C 5741.6 3.15762 -2.88926 0
M  V30 59739 C 5740.92 4.55552 -2.79958 0
M  V30 59740 C 5742.22 2.96527 -4.29964 0
M  V30 59741 H 5743.92 1.46356 -2.6119 0
M  V30 59742 H 5741.46 0.702661 -1.25693 0
M  V30 59743 H 5743.42 3.78147 -1.85964 0
M  V30 59744 H 5742.14 3.17235 -0.776484 0
M  V30 59745 H 5740.8 2.40557 -2.76637 0
M  V30 59746 H 5740.45 4.69134 -1.81445 0
M  V30 59747 H 5740.15 4.66693 -3.57031 0
M  V30 59748 H 5741.67 5.35252 -2.93833 0
M  V30 59749 H 5743.09 3.63931 -4.42975 0
M  V30 59750 H 5741.48 3.19146 -5.08199 0
M  V30 59751 H 5742.55 1.9273 -4.44953 0
M  V30 59752 N 5743.9 1.38103 0.759297 0
M  V30 59753 C 5744.83 1.37585 1.8866 0
M  V30 59754 C 5745.81 0.242588 1.68361 0
M  V30 59755 O 5746.99 0.444817 1.89037 0
M  V30 59756 C 5744.12 1.19448 3.26113 0
M  V30 59757 C 5743.08 2.29918 3.61001 0
M  V30 59758 C 5742.4 1.96892 4.9713 0
M  V30 59759 C 5743.7 3.72156 3.66465 0
M  V30 59760 H 5745.4 2.31919 1.89351 0
M  V30 59761 H 5742.94 1.11635 0.909591 0
M  V30 59762 H 5744.9 1.17712 4.04625 0
M  V30 59763 H 5743.62 0.215734 3.25887 0
M  V30 59764 H 5742.28 2.3083 2.84804 0
M  V30 59765 H 5741.93 0.975153 4.93457 0
M  V30 59766 H 5741.63 2.70874 5.21441 0
M  V30 59767 H 5743.15 1.96764 5.78028 0
M  V30 59768 H 5744.56 3.73306 4.35104 0
M  V30 59769 H 5742.96 4.45296 4.02283 0
M  V30 59770 H 5744.03 4.04883 2.66828 0
M  V30 59771 N 5745.37 -0.986851 1.22878 0
M  V30 59772 C 5746.79 -1.25181 0.990041 0
M  V30 59773 C 5746.99 -1.99058 -0.31275 0
M  V30 59774 O 5746.05 -2.30365 -1.03384 0
M  V30 59775 C 5747.36 -2.05768 2.19272 0
M  V30 59776 C 5748.91 -2.1893 2.23693 0
M  V30 59777 C 5749.38 -3.02905 3.43529 0
M  V30 59778 N 5750.87 -3.10491 3.43729 0
M  V30 59779 C 5751.61 -3.75774 4.33107 0
M  V30 59780 N 5751.1 -4.42933 5.32712 0
M  V30 59781 N 5752.9 -3.72596 4.20867 0
M  V30 59782 H 5745.05 -0.491743 2.06629 0
M  V30 59783 H 5747.31 -0.279825 0.905761 0
M  V30 59784 H 5747.02 -1.58853 3.13781 0
M  V30 59785 H 5746.89 -3.06521 2.19829 0
M  V30 59786 H 5749.28 -2.65056 1.29728 0
M  V30 59787 H 5749.36 -1.17587 2.27172 0
M  V30 59788 H 5749 -2.57478 4.37799 0
M  V30 59789 H 5748.93 -4.04403 3.37291 0
M  V30 59790 H 5751.42 -2.627 2.71657 0
M  V30 59791 H 5751.74 -4.90506 5.9718 0
M  V30 59792 H 5750.08 -4.41662 5.36618 0
M  V30 59793 H 5753.27 -3.19293 3.423 0
M  V30 59794 H 5753.45 -4.23192 4.90726 0
M  V30 59795 N 5746.85 -1.03945 -1.18462 0
M  V30 59796 C 5747.82 -0.633882 -2.2026 0
M  V30 59797 C 5748.82 0.308081 -1.57821 0
M  V30 59798 O 5750.01 0.0936476 -1.73948 0
M  V30 59799 C 5747.14 0.0708495 -3.40826 0
M  V30 59800 H 5748.33 -1.53473 -2.57655 0
M  V30 59801 H 5745.88 -0.831853 -1.32325 0
M  V30 59802 H 5746.62 0.985551 -3.08962 0
M  V30 59803 H 5746.4 -0.606159 -3.87386 0
M  V30 59804 H 5747.89 0.341152 -4.16204 0
M  V30 59805 N 5748.33 1.34664 -0.81874 0
M  V30 59806 C 5749.26 2.32133 -0.252321 0
M  V30 59807 C 5750.24 1.58046 0.628926 0
M  V30 59808 O 5751.43 1.8605 0.556674 0
M  V30 59809 C 5748.56 3.42251 0.590063 0
M  V30 59810 C 5747.51 4.27561 -0.193697 0
M  V30 59811 C 5746.84 5.2911 0.771163 0
M  V30 59812 C 5748.14 5.032 -1.39954 0
M  V30 59813 H 5749.83 2.79754 -1.06667 0
M  V30 59814 H 5747.38 1.345 -0.514373 0
M  V30 59815 H 5749.33 4.09449 0.996472 0
M  V30 59816 H 5748.05 2.93267 1.43742 0
M  V30 59817 H 5746.71 3.6196 -0.581425 0
M  V30 59818 H 5746.36 4.7639 1.61436 0
M  V30 59819 H 5746.06 5.87064 0.250995 0
M  V30 59820 H 5747.58 5.99178 1.17552 0
M  V30 59821 H 5749 5.63276 -1.06736 0
M  V30 59822 H 5747.4 5.70708 -1.85505 0
M  V30 59823 H 5748.47 4.33137 -2.17991 0
M  V30 59824 N 5749.81 0.573325 1.46802 0
M  V30 59825 C 5750.77 -0.154986 2.28675 0
M  V30 59826 C 5751.77 -0.827657 1.37864 0
M  V30 59827 O 5752.96 -0.681048 1.60335 0
M  V30 59828 C 5750.09 -1.22852 3.17994 0
M  V30 59829 H 5751.29 0.564409 2.94541 0
M  V30 59830 H 5748.84 0.330909 1.52757 0
M  V30 59831 H 5749.58 -1.9798 2.56855 0
M  V30 59832 H 5749.36 -0.750801 3.84845 0
M  V30 59833 H 5750.85 -1.73961 3.79641 0
M  V30 59834 N 5751.29 -1.54509 0.310607 0
M  V30 59835 C 5752.52 -2.0474 -0.298168 0
M  V30 59836 C 5752.93 -1.18743 -1.46784 0
M  V30 59837 O 5752.29 -0.215178 -1.81227 0
M  V30 59838 C 5752.34 -3.53737 -0.74515 0
M  V30 59839 O 5752.06 -4.36466 0.37798 0
M  V30 59840 C 5753.56 -4.20006 -1.41808 0
M  V30 59841 H 5750.78 -0.667999 -0.0633924 0
M  V30 59842 H 5753.32 -1.99419 0.453031 0
M  V30 59843 H 5751.48 -3.59388 -1.44635 0
M  V30 59844 H 5751.89 -5.24492 0.0282411 0
M  V30 59845 H 5753.37 -5.25753 -1.6819 0
M  V30 59846 H 5753.84 -3.70327 -2.36124 0
M  V30 59847 H 5754.45 -4.18458 -0.759804 0
M  V30 59848 N 5752.77 -0.0385148 -1.57553 0
M  V30 59849 C 5753.71 0.958124 -2.1195 0
M  V30 59850 C 5754.71 1.3307 -1.04828 0
M  V30 59851 O 5755.91 1.31183 -1.23252 0
M  V30 59852 H 5752.29 0.326796 -0.67728 0
M  V30 59853 H 5754.26 0.474107 -2.9461 0
M  V30 59854 C 5753.01 2.22811 -2.66928 0
M  V30 59855 H 5752.33 1.95019 -3.49009 0
M  V30 59856 H 5753.77 2.90735 -3.08625 0
M  V30 59857 C 5752.23 2.96424 -1.60108 0
M  V30 59858 O 5752.76 3.88888 -1.00642 0
M  V30 59859 N 5750.97 2.58927 -1.31929 0
M  V30 59860 H 5750.51 1.83812 -1.80474 0
M  V30 59861 H 5750.47 3.08488 -0.606849 0
M  V30 59862 N 5754.24 1.55842 0.23474 0
M  V30 59863 C 5755.65 1.68557 0.802827 0
M  V30 59864 C 5756.01 0.638173 1.85531 0
M  V30 59865 O 5755.13 -0.213254 2.15347 0
M  V30 59866 C 5755.73 3.05585 1.46299 0
M  V30 59867 C 5754.28 3.20199 1.97862 0
M  V30 59868 C 5753.43 2.6446 0.834043 0
M  V30 59869 H 5756.38 1.58697 0.0103201 0
M  V30 59870 H 5756.4 3.00708 2.33142 0
M  V30 59871 H 5755.92 3.81795 0.696734 0
M  V30 59872 H 5754.02 2.48835 2.7733 0
M  V30 59873 H 5754.13 4.27258 2.16765 0
M  V30 59874 H 5752.49 2.22598 1.23783 0
M  V30 59875 H 5753.28 3.43205 0.0806782 0
M  V30 59876 N 5755.72 -0.50091 1.49428 0
M  V30 59877 C 5756.68 -1.58472 1.65587 0
M  V30 59878 C 5757.68 -1.51896 0.527673 0
M  V30 59879 O 5758.87 -1.55046 0.794126 0
M  V30 59880 C 5756.01 -2.98124 1.65332 0
M  V30 59881 H 5757.2 -1.45473 2.62255 0
M  V30 59882 H 5754.75 -0.725151 1.3846 0
M  V30 59883 H 5755.49 -3.166 0.702495 0
M  V30 59884 H 5755.27 -3.04306 2.47265 0
M  V30 59885 H 5756.76 -3.76867 1.79891 0
M  V30 59886 N 5757.2 -1.38504 -0.751963 0
M  V30 59887 C 5758.13 -1.38583 -1.87928 0
M  V30 59888 C 5759.11 -0.251513 -1.6823 0
M  V30 59889 O 5760.3 -0.454836 -1.88799 0
M  V30 59890 C 5757.43 -1.21176 -3.25475 0
M  V30 59891 C 5756.38 -2.31829 -3.59777 0
M  V30 59892 C 5755.71 -1.99525 -4.96078 0
M  V30 59893 C 5757.01 -3.74095 -3.64487 0
M  V30 59894 H 5758.7 -2.3292 -1.88119 0
M  V30 59895 H 5756.25 -1.12116 -0.903658 0
M  V30 59896 H 5758.2 -1.19856 -4.03996 0
M  V30 59897 H 5756.92 -0.233014 -3.25768 0
M  V30 59898 H 5755.58 -2.32337 -2.83576 0
M  V30 59899 H 5755.23 -1.00131 -4.92933 0
M  V30 59900 H 5754.93 -2.73635 -5.19998 0
M  V30 59901 H 5756.45 -1.99827 -5.76976 0
M  V30 59902 H 5757.87 -3.75608 -4.33118 0
M  V30 59903 H 5756.26 -4.47423 -3.99916 0
M  V30 59904 H 5757.33 -4.06293 -2.64677 0
M  V30 59905 N 5758.68 0.980321 -1.234 0
M  V30 59906 C 5760.09 1.24654 -0.996666 0
M  V30 59907 C 5760.29 1.99221 0.302189 0
M  V30 59908 O 5759.35 2.3091 1.02161 0
M  V30 59909 C 5760.66 2.04602 -2.2036 0
M  V30 59910 C 5762.21 2.17741 -2.24851 0
M  V30 59911 C 5762.69 3.01079 -3.45131 0
M  V30 59912 N 5764.18 3.08664 -3.4537 0
M  V30 59913 C 5764.91 3.73472 -4.35094 0
M  V30 59914 N 5764.41 4.40102 -5.35053 0
M  V30 59915 N 5766.2 3.70359 -4.22837 0
M  V30 59916 H 5758.35 0.480778 -2.06887 0
M  V30 59917 H 5760.61 0.275017 -0.907232 0
M  V30 59918 H 5760.32 1.57186 -3.14619 0
M  V30 59919 H 5760.19 3.05351 -2.21451 0
M  V30 59920 H 5762.58 2.64364 -1.31131 0
M  V30 59921 H 5762.66 1.1638 -2.27792 0
M  V30 59922 H 5762.31 2.55152 -4.39158 0
M  V30 59923 H 5762.24 4.02609 -3.39431 0
M  V30 59924 H 5764.73 2.61255 -2.73046 0
M  V30 59925 H 5765.04 4.87332 -5.99772 0
M  V30 59926 H 5763.39 4.3881 -5.38953 0
M  V30 59927 H 5766.58 3.17474 -3.43989 0
M  V30 59928 H 5766.75 4.20584 -4.92964 0
M  V30 59929 N 5760.16 1.04571 1.17909 0
M  V30 59930 C 5761.11 0.611484 2.19647 0
M  V30 59931 C 5762.09 -0.348746 1.57075 0
M  V30 59932 O 5763.28 -0.166983 1.76211 0
M  V30 59933 C 5760.41 -0.0188172 3.43295 0
M  V30 59934 C 5759.5 0.964865 4.12978 0
M  V30 59935 N 5759.89 2.13387 4.58584 0
M  V30 59936 C 5758.19 0.791971 4.38912 0
M  V30 59937 C 5758.89 2.75567 5.12287 0
M  V30 59938 N 5757.86 2.03407 5.04109 0
M  V30 59939 H 5761.66 1.50226 2.52605 0
M  V30 59940 H 5759.18 0.914993 1.3417 0
M  V30 59941 H 5761.18 -0.347629 4.15448 0
M  V30 59942 H 5759.84 -0.905067 3.11831 0
M  V30 59943 H 5760.85 2.51252 4.52872 0
M  V30 59944 H 5757.52 -0.0437586 4.17477 0
M  V30 59945 H 5758.91 3.74666 5.57741 0
M  V30 59946 N 5761.63 -1.34228 0.82587 0
M  V30 59947 C 5762.88 -1.97453 0.41173 0
M  V30 59948 C 5763.2 -1.66197 -1.03141 0
M  V30 59949 O 5764.4 -2.22934 -1.5496 0
M  V30 59950 C 5762.86 -3.53316 0.685269 0
M  V30 59951 C 5762.47 -3.93463 2.14222 0
M  V30 59952 C 5764.21 -4.23157 0.33744 0
M  V30 59953 C 5762.12 -5.4225 2.36049 0
M  V30 59954 H 5761.05 -0.738884 0.150222 0
M  V30 59955 H 5763.7 -1.53029 1.01264 0
M  V30 59956 H 5762.08 -3.95997 0.0141571 0
M  V30 59957 H 5763.25 -3.61878 2.85274 0
M  V30 59958 H 5761.57 -3.36567 2.45177 0
M  V30 59959 H 5764.17 -5.32556 0.478317 0
M  V30 59960 H 5764.51 -4.10055 -0.718355 0
M  V30 59961 H 5765.04 -3.85962 0.963249 0
M  V30 59962 H 5761.78 -5.6034 3.40145 0
M  V30 59963 H 5761.3 -5.75339 1.69545 0
M  V30 59964 H 5762.98 -6.08969 2.18554 0
M  V30 59965 N 5763.11 -0.581102 -1.46496 0
M  V30 59966 C 5764.04 0.140875 -2.33075 0
M  V30 59967 C 5765.02 0.885272 -1.45248 0
M  V30 59968 O 5766.21 0.861048 -1.74068 0
M  V30 59969 C 5763.34 1.15613 -3.27492 0
M  V30 59970 C 5762.29 0.526679 -4.24747 0
M  V30 59971 C 5761.62 1.64829 -5.0866 0
M  V30 59972 C 5762.92 -0.535103 -5.19552 0
M  V30 59973 H 5764.61 -0.581991 -2.93689 0
M  V30 59974 H 5762.16 -0.281328 -1.41225 0
M  V30 59975 H 5764.11 1.66956 -3.86915 0
M  V30 59976 H 5762.83 1.90926 -2.64981 0
M  V30 59977 H 5761.49 0.034345 -3.66584 0
M  V30 59978 H 5761.14 2.39104 -4.42536 0
M  V30 59979 H 5760.84 1.23277 -5.74523 0
M  V30 59980 H 5762.37 2.16452 -5.70948 0
M  V30 59981 H 5763.78 -0.106807 -5.732 0
M  V30 59982 H 5762.18 -0.870848 -5.93748 0
M  V30 59983 H 5763.25 -1.422 -4.63581 0
M  V30 59984 N 5764.59 1.54342 -0.318797 0
M  V30 59985 C 5765.84 2.00778 0.285629 0
M  V30 59986 C 5766.17 1.20669 1.5216 0
M  V30 59987 O 5765.44 0.287741 1.9236 0
M  V30 59988 C 5765.73 3.54643 0.624525 0
M  V30 59989 C 5765.58 4.45481 -0.621819 0
M  V30 59990 C 5766.9 4.15734 1.44405 0
M  V30 59991 H 5764.02 0.72986 0.102341 0
M  V30 59992 H 5766.66 1.84967 -0.434429 0
M  V30 59993 H 5764.81 3.68248 1.23798 0
M  V30 59994 H 5766.48 4.43755 -1.26014 0
M  V30 59995 H 5764.73 4.15351 -1.25163 0
M  V30 59996 H 5765.4 5.5095 -0.3403 0
M  V30 59997 H 5767.87 4.05676 0.925556 0
M  V30 59998 H 5766.75 5.23515 1.64994 0
M  V30 59999 H 5767.01 3.68752 2.43874 0
M  V30 60000 N 5766.07 0.0468696 1.5753 0
M  V30 60001 C 5767.29 -0.641092 1.97243 0
M  V30 60002 C 5767.72 -1.63837 0.924068 0
M  V30 60003 O 5767.08 -1.80946 -0.113166 0
M  V30 60004 C 5767.12 -1.30821 3.36033 0
M  V30 60005 O 5766.23 -2.42382 3.33654 0
M  V30 60006 H 5765.57 -0.167013 0.642653 0
M  V30 60007 H 5768.1 0.113993 2.04282 0
M  V30 60008 H 5768.11 -1.66089 3.72664 0
M  V30 60009 H 5766.78 -0.577296 4.11874 0
M  V30 60010 H 5765.36 -2.09093 3.08763 0
M  V30 60011 N 5767.55 -1.55964 -0.226472 0
M  V30 60012 C 5768.48 -1.88491 -1.30398 0
M  V30 60013 C 5769.49 -0.772774 -1.4329 0
M  V30 60014 O 5770.68 -1.05104 -1.44275 0
M  V30 60015 C 5767.78 -2.07409 -2.6802 0
M  V30 60016 C 5766.95 -3.38399 -2.77137 0
M  V30 60017 C 5766.01 -3.46809 -3.9574 0
M  V30 60018 O 5765.04 -4.19876 -3.84309 0
M  V30 60019 N 5766.24 -2.77591 -5.09827 0
M  V30 60020 H 5769.01 -2.81509 -1.02823 0
M  V30 60021 H 5766.57 -1.5645 -0.416526 0
M  V30 60022 H 5768.56 -2.10356 -3.45735 0
M  V30 60023 H 5767.13 -1.2104 -2.88215 0
M  V30 60024 H 5766.35 -3.47593 -1.85938 0
M  V30 60025 H 5767.64 -4.24698 -2.80195 0
M  V30 60026 H 5767.03 -2.17997 -5.22009 0
M  V30 60027 H 5765.59 -2.86205 -5.85602 0
M  V30 60028 N 5769.02 0.492978 -1.49691 0
M  V30 60029 C 5770.27 1.24412 -1.59267 0
M  V30 60030 C 5770.59 1.92907 -0.284949 0
M  V30 60031 O 5769.86 1.8311 0.696238 0
M  V30 60032 H 5768.44 0.462202 -0.586838 0
M  V30 60033 H 5771.11 0.570648 -1.86359 0
M  V30 60034 H 5770.2 2.00378 -2.39281 0
M  V30 60035 N 5770.5 1.38901 0.744607 0
M  V30 60036 C 5771.43 1.39578 1.8719 0
M  V30 60037 C 5772.41 0.260431 1.68095 0
M  V30 60038 O 5773.6 0.464842 1.88555 0
M  V30 60039 C 5770.73 1.229 3.24827 0
M  V30 60040 C 5769.68 2.33734 3.58542 0
M  V30 60041 C 5769.01 2.02153 4.95013 0
M  V30 60042 C 5770.31 3.76022 3.62498 0
M  V30 60043 H 5772 2.33914 1.86881 0
M  V30 60044 H 5769.55 1.12594 0.8977 0
M  V30 60045 H 5771.5 1.21997 4.03354 0
M  V30 60046 H 5770.23 0.250287 3.2564 0
M  V30 60047 H 5768.88 2.33837 2.8234 0
M  V30 60048 H 5768.53 1.02744 4.92395 0
M  V30 60049 H 5768.23 2.76389 5.18539 0
M  V30 60050 H 5769.76 2.02884 5.75908 0
M  V30 60051 H 5771.17 3.779 4.3112 0
M  V30 60052 H 5769.57 4.49538 3.97537 0
M  V30 60053 H 5770.64 4.07691 2.62519 0
M  V30 60054 N 5771.98 -0.973763 1.23918 0
M  V30 60055 C 5773.23 -1.71023 1.06929 0
M  V30 60056 C 5773.54 -1.91614 -0.39288 0
M  V30 60057 O 5774.75 -2.62773 -0.682835 0
M  V30 60058 C 5773.2 -3.07804 1.86507 0
M  V30 60059 C 5772.81 -2.95078 3.37095 0
M  V30 60060 C 5774.56 -3.85365 1.78028 0
M  V30 60061 C 5772.46 -4.27131 4.09039 0
M  V30 60062 H 5771.39 -0.641315 0.396524 0
M  V30 60063 H 5774.04 -1.08557 1.47945 0
M  V30 60064 H 5772.43 -3.71064 1.38301 0
M  V30 60065 H 5773.6 -2.40866 3.92836 0
M  V30 60066 H 5771.92 -2.30987 3.46459 0
M  V30 60067 H 5774.51 -4.83139 2.29087 0
M  V30 60068 H 5774.86 -4.09592 0.74434 0
M  V30 60069 H 5775.39 -3.2882 2.23881 0
M  V30 60070 H 5772.13 -4.08099 5.12967 0
M  V30 60071 H 5771.65 -4.81181 3.58085 0
M  V30 60072 H 5773.33 -4.95783 4.15702 0
M  V30 60073 N 5773.46 -1.05195 -1.17353 0
M  V30 60074 C 5774.87 -0.773305 -1.39614 0
M  V30 60075 C 5775.07 0.632279 -1.91323 0
M  V30 60076 O 5774.13 1.39468 -2.10487 0
M  V30 60077 C 5775.44 -1.82893 -2.38685 0
M  V30 60078 C 5776.99 -1.85115 -2.52391 0
M  V30 60079 C 5777.47 -2.89701 -3.54736 0
M  V30 60080 N 5778.96 -2.88664 -3.62253 0
M  V30 60081 C 5779.69 -3.66237 -4.41201 0
M  V30 60082 N 5779.19 -4.53595 -5.23663 0
M  V30 60083 N 5780.98 -3.54677 -4.36074 0
M  V30 60084 H 5773.13 -1.95883 -0.821202 0
M  V30 60085 H 5775.4 -0.848202 -0.423388 0
M  V30 60086 H 5775.1 -2.83774 -2.07763 0
M  V30 60087 H 5774.98 -1.67059 -3.38188 0
M  V30 60088 H 5777.36 -0.848996 -2.82624 0
M  V30 60089 H 5777.44 -2.05027 -1.52962 0
M  V30 60090 H 5777.09 -3.90103 -3.25242 0
M  V30 60091 H 5777.02 -2.67041 -4.53868 0
M  V30 60092 H 5779.51 -2.25323 -3.03378 0
M  V30 60093 H 5779.82 -5.09469 -5.81086 0
M  V30 60094 H 5778.17 -4.57656 -5.23044 0
M  V30 60095 H 5781.36 -2.85823 -3.70706 0
M  V30 60096 H 5781.53 -4.15379 -4.97358 0
M  V30 60097 N 5774.94 1.33788 -0.832977 0
M  V30 60098 C 5775.85 2.33107 -0.26425 0
M  V30 60099 C 5776.86 1.63083 0.606637 0
M  V30 60100 O 5778.04 1.94779 0.512156 0
M  V30 60101 C 5775.1 3.4221 0.556195 0
M  V30 60102 C 5774.16 4.27965 -0.338273 0
M  V30 60103 C 5773.4 5.31857 0.44311 0
M  V30 60104 O 5773.62 5.4524 1.67541 0
M  V30 60105 O 5772.55 6.01631 -0.179811 0
M  V30 60106 H 5776.38 2.83598 -1.08655 0
M  V30 60107 H 5773.97 1.37025 -0.595356 0
M  V30 60108 H 5775.85 4.08803 1.02263 0
M  V30 60109 H 5774.52 2.93945 1.35565 0
M  V30 60110 H 5773.43 3.64259 -0.852421 0
M  V30 60111 H 5774.76 4.79697 -1.10234 0
M  V30 60112 N 5776.41 0.588863 1.46185 0
M  V30 60113 C 5777.34 -0.128513 2.33146 0
M  V30 60114 C 5778.33 -0.877557 1.45715 0
M  V30 60115 O 5779.51 -0.851805 1.74522 0
M  V30 60116 C 5776.64 -1.13875 3.281 0
M  V30 60117 C 5775.59 -0.504147 4.2502 0
M  V30 60118 C 5774.92 -1.62129 5.09527 0
M  V30 60119 C 5776.22 0.562649 5.19261 0
M  V30 60120 H 5777.91 0.597558 2.93376 0
M  V30 60121 H 5775.46 0.288814 1.41074 0
M  V30 60122 H 5777.41 -1.64902 3.87795 0
M  V30 60123 H 5776.14 -1.89518 2.6599 0
M  V30 60124 H 5774.8 -0.0149037 3.66597 0
M  V30 60125 H 5774.44 -2.36754 4.43798 0
M  V30 60126 H 5774.14 -1.20229 5.75168 0
M  V30 60127 H 5775.67 -2.13421 5.72087 0
M  V30 60128 H 5777.08 0.137204 5.73136 0
M  V30 60129 H 5775.48 0.902323 5.93277 0
M  V30 60130 H 5776.55 1.44657 4.6282 0
M  V30 60131 N 5777.89 -1.54171 0.326977 0
M  V30 60132 C 5779.14 -2.0063 -0.27457 0
M  V30 60133 C 5779.47 -1.2151 -1.51873 0
M  V30 60134 O 5778.72 -0.286232 -1.93595 0
M  V30 60135 C 5779.02 -3.51432 -0.650429 0
M  V30 60136 C 5778.69 -4.48175 0.49495 0
M  V30 60137 C 5777.35 -4.74345 0.809319 0
M  V30 60138 C 5779.7 -5.05637 1.26416 0
M  V30 60139 C 5777.03 -5.55235 1.89556 0
M  V30 60140 C 5779.38 -5.8771 2.34051 0
M  V30 60141 C 5778.05 -6.12181 2.66066 0
M  V30 60142 H 5777.32 -0.734157 -0.100472 0
M  V30 60143 H 5779.96 -1.86102 0.451463 0
M  V30 60144 H 5778.27 -3.63704 -1.45694 0
M  V30 60145 H 5779.96 -3.84823 -1.12748 0
M  V30 60146 H 5776.55 -4.27928 0.239852 0
M  V30 60147 H 5780.74 -4.85398 1.03454 0
M  V30 60148 H 5775.99 -5.72424 2.14803 0
M  V30 60149 H 5780.17 -6.31253 2.94096 0
M  V30 60150 H 5777.8 -6.74647 3.50364 0
M  V30 60151 N 5779.37 -0.0552232 -1.57503 0
M  V30 60152 C 5780.65 0.657743 -1.84209 0
M  V30 60153 C 5781.03 1.88795 -0.944438 0
M  V30 60154 O 5780.38 2.28499 -0.00649761 0
M  V30 60155 C 5780.59 1.01118 -3.3403 0
M  V30 60156 C 5781.93 1.39175 -4.01143 0
M  V30 60157 O 5782.96 1.10341 -3.38679 0
M  V30 60158 O 5781.82 1.93005 -5.11284 0
M  V30 60159 H 5778.91 0.325057 -0.760439 0
M  V30 60160 H 5781.46 -0.0848948 -1.69488 0
M  V30 60161 H 5780.23 0.136742 -3.91061 0
M  V30 60162 H 5779.85 1.81114 -3.53954 0
M  V30 60163 N 5780.85 1.56082 0.218198 0
M  V30 60164 C 5782.08 1.83072 0.957509 0
M  V30 60165 C 5782.49 0.632563 1.78312 0
M  V30 60166 O 5781.83 -0.408235 1.79106 0
M  V30 60167 C 5781.89 3.03842 1.92147 0
M  V30 60168 C 5781.56 4.38707 1.28005 0
M  V30 60169 C 5782.55 5.15587 0.668278 0
M  V30 60170 C 5780.24 4.85431 1.29081 0
M  V30 60171 C 5782.23 6.37355 0.0758259 0
M  V30 60172 C 5779.92 6.07141 0.694517 0
M  V30 60173 C 5780.92 6.82943 0.08808 0
M  V30 60174 O 5780.61 8.0235 -0.49893 0
M  V30 60175 H 5780.34 0.612503 0.286035 0
M  V30 60176 H 5782.89 2.04022 0.237519 0
M  V30 60177 H 5781.12 2.78718 2.68054 0
M  V30 60178 H 5782.81 3.17675 2.52661 0
M  V30 60179 H 5783.58 4.80594 0.652265 0
M  V30 60180 H 5779.46 4.26401 1.75223 0
M  V30 60181 H 5783 6.96463 -0.398138 0
M  V30 60182 H 5778.9 6.41606 0.707954 0
M  V30 60183 H 5779.66 8.17553 -0.393576 0
M  V30 60184 N 5782.33 -0.485033 1.49951 0
M  V30 60185 C 5783.28 -1.60553 1.68302 0
M  V30 60186 C 5784.27 -1.60262 0.548859 0
M  V30 60187 O 5785.48 -1.64579 0.728963 0
M  V30 60188 H 5781.85 -0.53251 0.530977 0
M  V30 60189 H 5783.82 -1.42232 2.62321 0
M  V30 60190 C 5782.57 -2.9859 1.78155 0
M  V30 60191 H 5781.89 -2.99527 2.64809 0
M  V30 60192 H 5783.33 -3.76485 1.95025 0
M  V30 60193 C 5781.79 -3.32706 0.529944 0
M  V30 60194 O 5782.32 -4.00282 -0.337206 0
M  V30 60195 N 5780.53 -2.87997 0.388114 0
M  V30 60196 H 5780.08 -2.33178 1.09479 0
M  V30 60197 H 5780.03 -3.11189 -0.448197 0
M  V30 60198 N 5783.81 -1.39293 -0.73723 0
M  V30 60199 C 5784.74 -1.40569 -1.86448 0
M  V30 60200 C 5785.72 -0.269342 -1.67954 0
M  V30 60201 O 5786.9 -0.474835 -1.88305 0
M  V30 60202 C 5784.03 -1.24621 -3.24171 0
M  V30 60203 C 5782.99 -2.35632 -3.57298 0
M  V30 60204 C 5782.31 -2.04776 -4.93934 0
M  V30 60205 C 5783.61 -3.77939 -3.60498 0
M  V30 60206 H 5785.31 -2.34902 -1.85638 0
M  V30 60207 H 5782.85 -1.13068 -0.891716 0
M  V30 60208 H 5784.8 -1.24135 -4.02702 0
M  V30 60209 H 5783.53 -0.267553 -3.25502 0
M  V30 60210 H 5782.19 -2.35332 -2.81095 0
M  V30 60211 H 5781.84 -1.05353 -4.91843 0
M  V30 60212 H 5781.54 -2.79135 -5.17066 0
M  V30 60213 H 5783.06 -2.05935 -5.74824 0
M  V30 60214 H 5784.47 -3.80181 -4.2911 0
M  V30 60215 H 5782.87 -4.5164 -3.95148 0
M  V30 60216 H 5783.94 -4.09077 -2.60353 0
M  V30 60217 N 5785.28 0.967178 -1.24432 0
M  V30 60218 C 5786.7 1.2359 -1.00983 0
M  V30 60219 C 5786.9 1.9953 0.281042 0
M  V30 60220 O 5785.96 2.31981 0.997058 0
M  V30 60221 C 5787.27 2.02253 -2.22518 0
M  V30 60222 C 5788.82 2.15344 -2.27148 0
M  V30 60223 C 5789.29 2.97402 -3.48305 0
M  V30 60224 N 5790.78 3.04984 -3.48625 0
M  V30 60225 C 5791.52 3.68836 -4.3903 0
M  V30 60226 N 5791.01 4.34402 -5.39691 0
M  V30 60227 N 5792.81 3.65853 -4.26741 0
M  V30 60228 H 5784.96 0.458808 -2.07385 0
M  V30 60229 H 5787.22 0.265379 -0.910098 0
M  V30 60230 H 5786.93 1.53841 -3.16269 0
M  V30 60231 H 5786.8 3.02985 -2.24677 0
M  V30 60232 H 5789.19 2.62959 -1.33928 0
M  V30 60233 H 5789.27 1.13958 -2.29014 0
M  V30 60234 H 5788.91 2.5048 -4.4184 0
M  V30 60235 H 5788.84 3.98986 -3.43682 0
M  V30 60236 H 5791.33 2.58344 -2.75802 0
M  V30 60237 H 5791.65 4.80944 -6.04907 0
M  V30 60238 H 5789.99 4.33069 -5.43577 0
M  V30 60239 H 5793.18 3.13807 -3.47337 0
M  V30 60240 H 5793.36 4.15332 -4.97397 0
M  V30 60241 N 5786.76 1.05816 1.16794 0
M  V30 60242 C 5788.18 0.780698 1.39202 0
M  V30 60243 C 5788.38 -0.622124 1.91656 0
M  V30 60244 O 5787.43 -1.3835 2.11224 0
M  V30 60245 C 5788.75 1.84156 2.37712 0
M  V30 60246 C 5790.29 1.86451 2.51406 0
M  V30 60247 C 5790.77 2.91578 3.53194 0
M  V30 60248 N 5792.26 2.90581 3.60717 0
M  V30 60249 C 5793 3.68572 4.39252 0
M  V30 60250 N 5792.49 4.56366 5.2125 0
M  V30 60251 N 5794.28 3.56984 4.34187 0
M  V30 60252 H 5786.44 1.96315 0.810802 0
M  V30 60253 H 5788.7 0.850436 0.418883 0
M  V30 60254 H 5788.4 2.84871 2.06255 0
M  V30 60255 H 5788.28 1.6885 3.37297 0
M  V30 60256 H 5790.67 0.863972 2.82169 0
M  V30 60257 H 5790.75 2.05835 1.51873 0
M  V30 60258 H 5790.39 3.91822 3.23168 0
M  V30 60259 H 5790.32 2.69444 4.52446 0
M  V30 60260 H 5792.81 2.26929 3.02178 0
M  V30 60261 H 5793.12 5.12544 5.78376 0
M  V30 60262 H 5791.47 4.60424 5.2061 0
M  V30 60263 H 5794.66 2.87785 3.69185 0
M  V30 60264 H 5794.83 4.1801 4.95148 0
M  V30 60265 N 5788.24 -1.33344 0.84006 0
M  V30 60266 C 5789.49 -1.97352 0.435482 0
M  V30 60267 C 5789.81 -1.66869 -1.00894 0
M  V30 60268 O 5789.08 -0.968246 -1.70299 0
M  V30 60269 H 5787.66 -0.73009 0.158043 0
M  V30 60270 H 5790.32 -1.62686 1.07328 0
M  V30 60271 H 5789.42 -3.06878 0.568518 0
M  V30 60272 N 5789.72 -0.596607 -1.45871 0
M  V30 60273 C 5790.68 0.118586 -2.28893 0
M  V30 60274 C 5791.68 0.805619 -1.39163 0
M  V30 60275 O 5792.87 0.655454 -1.61398 0
M  V30 60276 C 5790 1.17778 -3.19908 0
M  V30 60277 H 5791.2 -0.611196 -2.93606 0
M  V30 60278 H 5788.75 -0.355169 -1.52211 0
M  V30 60279 H 5789.48 1.93869 -2.59972 0
M  V30 60280 H 5789.27 0.689481 -3.8599 0
M  V30 60281 H 5790.76 1.67899 -3.82361 0
M  V30 60282 N 5791.2 1.53995 -0.335149 0
M  V30 60283 C 5792.16 2.23387 0.512937 0
M  V30 60284 C 5793.16 1.23121 1.03431 0
M  V30 60285 O 5794.35 1.47619 0.924892 0
M  V30 60286 C 5791.48 2.94697 1.71366 0
M  V30 60287 H 5792.67 2.99753 -0.093836 0
M  V30 60288 H 5790.23 1.56061 -0.0863808 0
M  V30 60289 H 5790.96 2.22497 2.35936 0
M  V30 60290 H 5790.75 3.68233 1.3471 0
M  V30 60291 H 5792.24 3.47533 2.3154 0
M  V30 60292 N 5792.67 0.0635752 1.57472 0
M  V30 60293 C 5793.64 -0.891807 2.11138 0
M  V30 60294 C 5794.64 -1.23178 1.03362 0
M  V30 60295 O 5795.83 -1.16642 1.29385 0
M  V30 60296 C 5792.96 -2.19783 2.60592 0
M  V30 60297 H 5794.15 -0.426356 2.96854 0
M  V30 60298 H 5791.7 -0.185014 1.55201 0
M  V30 60299 H 5792.44 -2.70883 1.78306 0
M  V30 60300 H 5792.22 -1.96407 3.39362 0
M  V30 60301 H 5793.71 -2.88192 3.02217 0
M  V30 60302 N 5794.15 -1.56196 -0.209917 0
M  V30 60303 C 5795.09 -1.88394 -1.28775 0
M  V30 60304 C 5796.06 -0.74248 -1.44658 0
M  V30 60305 O 5797.25 -0.992011 -1.60285 0
M  V30 60306 C 5794.37 -2.10116 -2.65648 0
M  V30 60307 C 5793.42 -3.32813 -2.66716 0
M  V30 60308 S 5794.25 -4.88391 -2.19623 0
M  V30 60309 C 5795.41 -5.13164 -3.58349 0
M  V30 60310 H 5795.64 -2.7952 -1.01271 0
M  V30 60311 H 5793.18 -1.48782 -0.412716 0
M  V30 60312 H 5795.13 -2.23314 -3.44443 0
M  V30 60313 H 5793.79 -1.19767 -2.9037 0
M  V30 60314 H 5792.99 -3.45093 -3.67324 0
M  V30 60315 H 5792.59 -3.18532 -1.95993 0
M  V30 60316 H 5794.88 -5.02775 -4.54118 0
M  V30 60317 H 5795.82 -6.14997 -3.50976 0
M  V30 60318 H 5796.23 -4.40853 -3.52575 0
M  V30 60319 N 5795.63 0.477074 -1.50206 0
M  V30 60320 C 5797.05 0.810322 -1.37499 0
M  V30 60321 C 5797.25 1.96935 -0.426468 0
M  V30 60322 O 5796.3 2.52149 0.133108 0
M  V30 60323 C 5797.62 1.12802 -2.78741 0
M  V30 60324 C 5799.16 1.23482 -2.87613 0
M  V30 60325 C 5799.64 1.58568 -4.29675 0
M  V30 60326 N 5801.13 1.65571 -4.32597 0
M  V30 60327 C 5801.86 1.94212 -5.39508 0
M  V30 60328 N 5801.36 2.20913 -6.56635 0
M  V30 60329 N 5803.15 1.95663 -5.26946 0
M  V30 60330 H 5795.3 -0.286845 -2.10454 0
M  V30 60331 H 5797.57 -0.0657982 -0.945714 0
M  V30 60332 H 5797.27 0.349493 -3.49959 0
M  V30 60333 H 5797.15 2.06568 -3.15609 0
M  V30 60334 H 5799.53 2.00403 -2.16617 0
M  V30 60335 H 5799.62 0.277092 -2.54295 0
M  V30 60336 H 5799.26 0.821894 -5.01206 0
M  V30 60337 H 5799.19 2.55481 -4.60475 0
M  V30 60338 H 5801.68 1.47 -3.48137 0
M  V30 60339 H 5801.99 2.42023 -7.33924 0
M  V30 60340 H 5800.34 2.18318 -6.5982 0
M  V30 60341 H 5803.53 1.74296 -4.34441 0
M  V30 60342 H 5803.7 2.17649 -6.10355 0
M  V30 60343 N 5797.11 1.39683 0.729833 0
M  V30 60344 C 5798.02 1.411 1.87424 0
M  V30 60345 C 5799.03 0.305202 1.71302 0
M  V30 60346 O 5800.21 0.547508 1.93815 0
M  V30 60347 C 5797.28 1.25797 3.23073 0
M  V30 60348 C 5796.34 2.46395 3.51551 0
M  V30 60349 C 5795.57 2.31812 4.80727 0
M  V30 60350 O 5795.79 1.32434 5.54813 0
M  V30 60351 O 5794.73 3.20901 5.09221 0
M  V30 60352 H 5798.55 2.37578 1.89183 0
M  V30 60353 H 5796.14 1.20853 0.878347 0
M  V30 60354 H 5798.02 1.19416 4.04126 0
M  V30 60355 H 5796.69 0.324178 3.22073 0
M  V30 60356 H 5795.6 2.58353 2.70564 0
M  V30 60357 H 5796.93 3.38486 3.57335 0
M  V30 60358 N 5798.59 -0.960565 1.24944 0
M  V30 60359 C 5799.5 -2.09016 1.06534 0
M  V30 60360 C 5800.51 -1.74 0.00412758 0
M  V30 60361 O 5801.69 -2.00366 0.203814 0
M  V30 60362 C 5798.75 -3.39969 0.679855 0
M  V30 60363 C 5797.81 -3.88889 1.81835 0
M  V30 60364 C 5797.05 -5.13592 1.45116 0
M  V30 60365 O 5797.27 -5.69361 0.344154 0
M  V30 60366 O 5796.2 -5.57075 2.27929 0
M  V30 60367 H 5800.03 -2.27446 2.01251 0
M  V30 60368 H 5797.62 -1.07425 1.03828 0
M  V30 60369 H 5799.5 -4.18695 0.476728 0
M  V30 60370 H 5798.17 -3.22823 -0.238118 0
M  V30 60371 H 5797.08 -3.11193 2.07628 0
M  V30 60372 H 5798.41 -4.10524 2.71535 0
M  V30 60373 N 5800.06 -1.06434 -1.16231 0
M  V30 60374 C 5801.31 -0.783064 -1.87072 0
M  V30 60375 C 5801.64 0.688788 -1.81575 0
M  V30 60376 O 5800.92 1.50474 -1.23239 0
M  V30 60377 C 5801.2 -1.28009 -3.3658 0
M  V30 60378 C 5801.05 -2.8158 -3.5076 0
M  V30 60379 C 5802.37 -0.889127 -4.31025 0
M  V30 60380 H 5799.49 -0.285934 -0.679272 0
M  V30 60381 H 5802.13 -1.32051 -1.36611 0
M  V30 60382 H 5800.28 -0.822889 -3.79685 0
M  V30 60383 H 5801.96 -3.35519 -3.16583 0
M  V30 60384 H 5800.2 -3.2024 -2.92624 0
M  V30 60385 H 5800.87 -3.11422 -4.55763 0
M  V30 60386 H 5803.35 -1.28293 -3.95828 0
M  V30 60387 H 5802.22 -1.26434 -5.3414 0
M  V30 60388 H 5802.48 0.205818 -4.41621 0
M  V30 60389 N 5801.54 1.32897 -0.84712 0
M  V30 60390 C 5802.96 1.50331 -0.535983 0
M  V30 60391 C 5803.16 1.78495 0.934977 0
M  V30 60392 O 5802.21 1.85007 1.71839 0
M  V30 60393 C 5803.53 2.65249 -1.41646 0
M  V30 60394 C 5805.08 2.79134 -1.4161 0
M  V30 60395 C 5805.55 3.97123 -2.28161 0
M  V30 60396 N 5807.04 4.04372 -2.25915 0
M  V30 60397 C 5807.78 4.94883 -2.89618 0
M  V30 60398 N 5807.27 5.90453 -3.62404 0
M  V30 60399 N 5809.07 4.87945 -2.79045 0
M  V30 60400 H 5801.22 1.1288 -1.79922 0
M  V30 60401 H 5803.48 0.55568 -0.768065 0
M  V30 60402 H 5803.19 2.51143 -2.46212 0
M  V30 60403 H 5803.06 3.60853 -1.09842 0
M  V30 60404 H 5805.45 2.92668 -0.378116 0
M  V30 60405 H 5805.53 1.84266 -1.77425 0
M  V30 60406 H 5805.17 3.84348 -3.32022 0
M  V30 60407 H 5805.1 4.91252 -1.89683 0
M  V30 60408 H 5807.59 3.3598 -1.72991 0
M  V30 60409 H 5807.91 6.56198 -4.08197 0
M  V30 60410 H 5806.25 5.90503 -3.66512 0
M  V30 60411 H 5809.44 4.1225 -2.21738 0
M  V30 60412 H 5809.61 5.58283 -3.28974 0
M  V30 60413 N 5803.02 0.604335 1.45553 0
M  V30 60414 C 5803.95 -0.154498 2.28679 0
M  V30 60415 C 5804.97 -0.83486 1.39764 0
M  V30 60416 O 5806.15 -0.700794 1.64168 0
M  V30 60417 C 5803.25 -1.23959 3.15416 0
M  V30 60418 C 5802.43 -0.646976 4.32589 0
M  V30 60419 C 5801.49 -1.62254 5.0056 0
M  V30 60420 O 5800.51 -1.15011 5.57459 0
M  V30 60421 N 5801.71 -2.95692 4.99546 0
M  V30 60422 H 5804.48 0.558772 2.94445 0
M  V30 60423 H 5802.04 0.443593 1.55704 0
M  V30 60424 H 5804.03 -1.89197 3.57752 0
M  V30 60425 H 5802.6 -1.85543 2.5158 0
M  V30 60426 H 5801.82 0.183399 3.93773 0
M  V30 60427 H 5803.11 -0.231215 5.08274 0
M  V30 60428 H 5802.51 -3.36679 4.54603 0
M  V30 60429 H 5801.07 -3.56361 5.45756 0
M  V30 60430 N 5804.5 -1.53815 0.343311 0
M  V30 60431 C 5805.43 -2.27953 -0.505925 0
M  V30 60432 C 5806.41 -1.29506 -1.10283 0
M  V30 60433 O 5807.59 -1.58348 -1.12426 0
M  V30 60434 C 5804.72 -3.05216 -1.65712 0
M  V30 60435 C 5803.68 -4.11165 -1.18857 0
M  V30 60436 C 5803 -4.76381 -2.42827 0
M  V30 60437 C 5804.3 -5.21499 -0.289219 0
M  V30 60438 H 5806 -2.99188 0.11254 0
M  V30 60439 H 5803.54 -1.43893 0.0555666 0
M  V30 60440 H 5805.5 -3.55819 -2.25767 0
M  V30 60441 H 5804.22 -2.31632 -2.30248 0
M  V30 60442 H 5802.88 -3.61475 -0.610835 0
M  V30 60443 H 5802.53 -3.99392 -3.05769 0
M  V30 60444 H 5802.23 -5.47962 -2.12158 0
M  V30 60445 H 5803.75 -5.29768 -3.03608 0
M  V30 60446 H 5805.17 -5.67739 -0.796609 0
M  V30 60447 H 5803.56 -6.00054 -0.0744256 0
M  V30 60448 H 5804.63 -4.80183 0.674712 0
M  V30 60449 N 5805.98 -0.0719254 -1.57436 0
M  V30 60450 C 5806.91 0.931231 -2.08335 0
M  V30 60451 C 5807.89 1.29103 -0.988493 0
M  V30 60452 O 5809.07 1.40031 -1.26189 0
M  V30 60453 C 5806.2 2.2393 -2.54112 0
M  V30 60454 C 5805.24 2.03106 -3.75034 0
M  V30 60455 S 5806.08 1.2903 -5.19723 0
M  V30 60456 C 5807.23 2.61116 -5.68831 0
M  V30 60457 H 5807.47 0.498133 -2.93097 0
M  V30 60458 H 5805 0.140842 -1.53756 0
M  V30 60459 H 5806.96 2.9911 -2.81147 0
M  V30 60460 H 5805.62 2.64365 -1.69617 0
M  V30 60461 H 5804.81 2.99913 -4.05054 0
M  V30 60462 H 5804.41 1.36062 -3.48372 0
M  V30 60463 H 5806.71 3.57203 -5.75684 0
M  V30 60464 H 5807.65 2.35706 -6.67719 0
M  V30 60465 H 5808.06 2.68327 -4.96649 0
M  V30 60466 N 5807.45 1.56305 0.201631 0
M  V30 60467 C 5808.69 1.82024 0.92987 0
M  V30 60468 C 5809.06 0.648446 1.80719 0
M  V30 60469 O 5810.26 0.785382 2.5707 0
M  V30 60470 C 5808.53 3.12737 1.73003 0
M  V30 60471 S 5810.09 3.5984 2.51119 0
M  V30 60472 H 5806.91 0.638885 0.312004 0
M  V30 60473 H 5809.51 1.94537 0.193793 0
M  V30 60474 H 5808.21 3.96043 1.07602 0
M  V30 60475 H 5807.74 3.03085 2.50805 0
M  V30 60476 H 5809.76 3.24757 3.75163 0
M  V30 60477 N 5808.93 -0.469102 1.50457 0
M  V30 60478 C 5809.86 -1.57486 1.72396 0
M  V30 60479 C 5810.84 -1.60159 0.572971 0
M  V30 60480 O 5812.03 -1.76394 0.812321 0
M  V30 60481 C 5809.16 -2.95798 1.81992 0
M  V30 60482 C 5808.11 -3.07991 2.97196 0
M  V30 60483 C 5807.44 -4.47969 2.91937 0
M  V30 60484 C 5808.74 -2.85023 4.37675 0
M  V30 60485 H 5810.43 -1.3938 2.64979 0
M  V30 60486 H 5807.98 -0.669089 1.27512 0
M  V30 60487 H 5809.93 -3.73084 1.95924 0
M  V30 60488 H 5808.66 -3.15065 0.860321 0
M  V30 60489 H 5807.32 -2.33138 2.82918 0
M  V30 60490 H 5806.96 -4.64158 1.9382 0
M  V30 60491 H 5806.66 -4.57063 3.69279 0
M  V30 60492 H 5808.19 -5.27273 3.07921 0
M  V30 60493 H 5809.6 -3.52058 4.52469 0
M  V30 60494 H 5808 -3.0556 5.16482 0
M  V30 60495 H 5809.07 -1.80865 4.49907 0
M  V30 60496 N 5810.41 -1.40068 -0.722415 0
M  V30 60497 C 5811.34 -1.42538 -1.84946 0
M  V30 60498 C 5812.32 -0.287141 -1.67659 0
M  V30 60499 O 5813.51 -0.494781 -1.87791 0
M  V30 60500 C 5810.64 -1.28052 -3.22831 0
M  V30 60501 C 5809.59 -2.39408 -3.54778 0
M  V30 60502 C 5808.92 -2.10003 -4.91735 0
M  V30 60503 C 5810.22 -3.81742 -3.5647 0
M  V30 60504 H 5811.91 -2.36858 -1.83136 0
M  V30 60505 H 5809.46 -1.14008 -0.879674 0
M  V30 60506 H 5811.41 -1.28399 -4.01362 0
M  V30 60507 H 5810.13 -0.302062 -3.252 0
M  V30 60508 H 5808.79 -2.383 -2.78584 0
M  V30 60509 H 5808.44 -1.10564 -4.90698 0
M  V30 60510 H 5808.14 -2.84604 -5.14076 0
M  V30 60511 H 5809.67 -2.12021 -5.72608 0
M  V30 60512 H 5811.08 -3.84711 -4.25053 0
M  V30 60513 H 5809.48 -4.55805 -3.90335 0
M  V30 60514 H 5810.55 -4.11816 -2.56 0
M  V30 60515 N 5811.89 0.953925 -1.25451 0
M  V30 60516 C 5813.12 1.73327 -1.12984 0
M  V30 60517 C 5813.53 1.86132 0.316298 0
M  V30 60518 O 5812.89 1.35955 1.21748 0
M  V30 60519 C 5812.94 3.14669 -1.77949 0
M  V30 60520 O 5812.66 3.02489 -3.1691 0
M  V30 60521 C 5814.16 4.08878 -1.71271 0
M  V30 60522 H 5811.38 0.543104 -0.394055 0
M  V30 60523 H 5813.93 1.19672 -1.65827 0
M  V30 60524 H 5812.08 3.65265 -1.29074 0
M  V30 60525 H 5812.5 3.91656 -3.48864 0
M  V30 60526 H 5813.97 5.0566 -2.21386 0
M  V30 60527 H 5814.45 4.33957 -0.676629 0
M  V30 60528 H 5815.05 3.64197 -2.19637 0
M  V30 60529 N 5813.37 1.07049 1.15665 0
M  V30 60530 C 5814.78 0.795418 1.38366 0
M  V30 60531 C 5814.98 -0.601761 1.92305 0
M  V30 60532 O 5814.04 -1.36101 2.1268 0
M  V30 60533 C 5815.35 1.86667 2.35745 0
M  V30 60534 C 5816.9 1.89107 2.49414 0
M  V30 60535 C 5817.38 2.95308 3.50082 0
M  V30 60536 N 5818.87 2.94391 3.57615 0
M  V30 60537 C 5819.6 3.7321 4.35318 0
M  V30 60538 N 5819.1 4.61869 5.16381 0
M  V30 60539 N 5820.89 3.61569 4.30377 0
M  V30 60540 H 5813.04 1.97164 0.789934 0
M  V30 60541 H 5815.3 0.854831 0.40984 0
M  V30 60542 H 5815.01 2.87043 2.03222 0
M  V30 60543 H 5814.88 1.72418 3.35487 0
M  V30 60544 H 5817.27 0.893851 2.81237 0
M  V30 60545 H 5817.35 2.07435 1.49681 0
M  V30 60546 H 5817 3.95228 3.18994 0
M  V30 60547 H 5816.93 2.74228 4.49563 0
M  V30 60548 H 5819.42 2.30121 2.99755 0
M  V30 60549 H 5819.73 5.18649 5.72907 0
M  V30 60550 H 5818.08 4.6592 5.15697 0
M  V30 60551 H 5821.27 2.91685 3.66111 0
M  V30 60552 H 5821.44 4.23239 4.90686 0
M  V30 60553 N 5814.85 -1.32446 0.854156 0
M  V30 60554 C 5816.12 -1.91901 0.378601 0
M  V30 60555 C 5816.5 -1.77815 -1.13776 0
M  V30 60556 O 5815.85 -1.17595 -1.95918 0
M  V30 60557 C 5816.06 -3.3868 0.842418 0
M  V30 60558 C 5817.41 -4.15814 0.859308 0
M  V30 60559 O 5818.43 -3.47397 0.787023 0
M  V30 60560 O 5817.29 -5.37982 0.961122 0
M  V30 60561 H 5814.39 -0.81961 0.110313 0
M  V30 60562 H 5816.93 -1.41219 0.941023 0
M  V30 60563 H 5815.7 -3.42874 1.88556 0
M  V30 60564 H 5815.33 -3.96766 0.257417 0
M  V30 60565 N 5816.32 -0.612045 -1.4523 0
M  V30 60566 C 5817.27 0.116613 -2.32307 0
M  V30 60567 C 5818.27 0.855139 -1.46232 0
M  V30 60568 O 5819.47 0.7702 -1.6269 0
M  V30 60569 H 5815.85 0.0564638 -0.749877 0
M  V30 60570 H 5817.82 -0.636175 -2.9154 0
M  V30 60571 C 5816.57 1.09756 -3.29923 0
M  V30 60572 H 5815.89 0.538708 -3.96154 0
M  V30 60573 H 5817.33 1.57725 -3.93572 0
M  V30 60574 C 5815.79 2.17335 -2.57424 0
M  V30 60575 O 5816.32 3.25142 -2.35893 0
M  V30 60576 N 5814.52 1.92741 -2.17484 0
M  V30 60577 H 5814.07 1.05076 -2.35195 0
M  V30 60578 H 5814.03 2.64924 -1.693 0
M  V30 60579 N 5817.8 1.53631 -0.351463 0
M  V30 60580 C 5819.21 1.86241 0.130768 0
M  V30 60581 C 5819.56 1.27248 1.4934 0
M  V30 60582 O 5818.69 0.589079 2.08228 0
M  V30 60583 C 5819.28 3.3792 0.244061 0
M  V30 60584 C 5817.84 3.70379 0.670531 0
M  V30 60585 C 5816.99 2.76642 -0.190911 0
M  V30 60586 H 5819.94 1.4808 -0.570776 0
M  V30 60587 H 5819.96 3.65141 1.07017 0
M  V30 60588 H 5819.47 3.80827 -0.747822 0
M  V30 60589 H 5817.57 3.33021 1.67115 0
M  V30 60590 H 5817.69 4.76935 0.454934 0
M  V30 60591 H 5816.05 2.52447 0.338004 0
M  V30 60592 H 5816.83 3.2238 -1.18007 0
M  V30 60593 N 5819.28 0.0802736 1.57395 0
M  V30 60594 C 5820.19 -0.898521 2.16711 0
M  V30 60595 C 5821.21 -1.32096 1.13254 0
M  V30 60596 O 5822.38 -1.39192 1.45559 0
M  V30 60597 C 5819.45 -2.14491 2.72386 0
M  V30 60598 C 5818.51 -1.77808 3.90746 0
M  V30 60599 C 5817.74 -2.96505 4.43757 0
M  V30 60600 O 5817.96 -4.10783 3.95744 0
M  V30 60601 O 5816.9 -2.7583 5.34978 0
M  V30 60602 H 5820.72 -0.423922 3.00727 0
M  V30 60603 H 5818.31 -0.143268 1.48711 0
M  V30 60604 H 5820.19 -2.87564 3.08034 0
M  V30 60605 H 5818.87 -2.61032 1.91426 0
M  V30 60606 H 5817.77 -1.01961 3.59937 0
M  V30 60607 H 5819.11 -1.36043 4.73026 0
M  V30 60608 N 5820.76 -1.5641 -0.193339 0
M  V30 60609 C 5821.72 -1.93826 -1.22327 0
M  V30 60610 C 5822.72 -0.819561 -1.38347 0
M  V30 60611 O 5823.91 -1.08695 -1.36129 0
M  V30 60612 C 5821.04 -2.21384 -2.59233 0
M  V30 60613 H 5822.24 -2.8597 -0.903401 0
M  V30 60614 H 5819.79 -1.50127 -0.434927 0
M  V30 60615 H 5820.52 -1.31884 -2.96272 0
M  V30 60616 H 5820.31 -3.02907 -2.48977 0
M  V30 60617 H 5821.8 -2.51331 -3.33501 0
M  V30 60618 N 5822.24 0.461116 -1.50703 0
M  V30 60619 C 5823.46 1.23548 -1.65962 0
M  V30 60620 C 5823.88 1.85583 -0.347042 0
M  V30 60621 O 5823.24 1.69675 0.67207 0
M  V30 60622 C 5823.29 2.33694 -2.75807 0
M  V30 60623 O 5823.01 1.74201 -4.01977 0
M  V30 60624 C 5824.51 3.24398 -3.02127 0
M  V30 60625 H 5821.73 0.373279 -0.557587 0
M  V30 60626 H 5824.27 0.549269 -1.96985 0
M  V30 60627 H 5822.43 2.98073 -2.4745 0
M  V30 60628 H 5822.84 2.46811 -4.62801 0
M  V30 60629 H 5824.32 3.97872 -3.82625 0
M  V30 60630 H 5824.79 3.83766 -2.13589 0
M  V30 60631 H 5825.4 2.65746 -3.32053 0
M  V30 60632 N 5823.71 1.40449 0.714977 0
M  V30 60633 C 5824.65 1.36679 1.83988 0
M  V30 60634 C 5825.66 0.272095 1.6051 0
M  V30 60635 O 5826.85 0.532485 1.70373 0
M  V30 60636 C 5823.95 1.10434 3.20402 0
M  V30 60637 C 5823.12 2.3157 3.71071 0
M  V30 60638 C 5822.18 2.01477 4.861 0
M  V30 60639 O 5821.21 2.74348 4.9872 0
M  V30 60640 N 5822.41 0.9931 5.71942 0
M  V30 60641 H 5825.17 2.33627 1.8772 0
M  V30 60642 H 5822.73 1.3481 0.896539 0
M  V30 60643 H 5824.73 0.882869 3.94953 0
M  V30 60644 H 5823.3 0.221518 3.11814 0
M  V30 60645 H 5822.52 2.69544 2.87645 0
M  V30 60646 H 5823.8 3.12324 4.0166 0
M  V30 60647 H 5823.2 0.389585 5.64357 0
M  V30 60648 H 5821.76 0.831526 6.46474 0
M  V30 60649 N 5825.19 -0.947259 1.25955 0
M  V30 60650 C 5826.12 -2.04866 1.02774 0
M  V30 60651 C 5827.14 -1.62797 -0.0098026 0
M  V30 60652 O 5828.33 -1.77017 0.229589 0
M  V30 60653 C 5825.43 -3.3468 0.533166 0
M  V30 60654 C 5824.6 -4.05549 1.63855 0
M  V30 60655 C 5823.66 -5.13634 1.14308 0
M  V30 60656 O 5822.68 -5.38675 1.83895 0
M  V30 60657 N 5823.89 -5.80499 -0.0117336 0
M  V30 60658 H 5826.65 -2.2532 1.97613 0
M  V30 60659 H 5824.21 -1.11632 1.1726 0
M  V30 60660 H 5826.2 -4.04272 0.18601 0
M  V30 60661 H 5824.77 -3.10943 -0.321475 0
M  V30 60662 H 5823.99 -3.29954 2.15694 0
M  V30 60663 H 5825.28 -4.49652 2.38097 0
M  V30 60664 H 5824.68 -5.62583 -0.593014 0
M  V30 60665 H 5823.24 -6.5111 -0.299861 0
M  V30 60666 N 5826.67 -1.07661 -1.15095 0
M  V30 60667 C 5827.6 -0.643868 -2.18928 0
M  V30 60668 C 5828.58 0.34049 -1.58995 0
M  V30 60669 O 5829.77 0.246164 -1.86886 0
M  V30 60670 C 5826.89 0.054071 -3.38657 0
M  V30 60671 C 5825.94 -0.889228 -4.17127 0
M  V30 60672 S 5826.77 -2.39189 -4.79112 0
M  V30 60673 C 5827.93 -1.70585 -6.02206 0
M  V30 60674 H 5828.16 -1.52351 -2.55297 0
M  V30 60675 H 5825.69 -0.890868 -1.26107 0
M  V30 60676 H 5827.65 0.450497 -4.08021 0
M  V30 60677 H 5826.31 0.910103 -3.00626 0
M  V30 60678 H 5825.51 -0.34766 -5.02799 0
M  V30 60679 H 5825.11 -1.22619 -3.53328 0
M  V30 60680 H 5827.4 -1.01938 -6.69787 0
M  V30 60681 H 5828.34 -2.54101 -6.60937 0
M  V30 60682 H 5828.75 -1.18247 -5.51976 0
M  V30 60683 N 5828.15 1.31991 -0.861168 0
M  V30 60684 C 5829.1 2.30665 -0.299433 0
M  V30 60685 C 5830.09 1.59135 0.580724 0
M  V30 60686 O 5831.3 1.73815 0.467803 0
M  V30 60687 H 5827.67 0.74793 -0.0781354 0
M  V30 60688 H 5829.64 2.75526 -1.14576 0
M  V30 60689 C 5828.39 3.44205 0.491762 0
M  V30 60690 H 5827.71 3.99411 -0.17622 0
M  V30 60691 H 5829.15 4.15387 0.850288 0
M  V30 60692 C 5827.61 2.92048 1.67957 0
M  V30 60693 O 5828.14 2.90083 2.77876 0
M  V30 60694 N 5826.35 2.48363 1.50878 0
M  V30 60695 H 5825.9 2.50161 0.614595 0
M  V30 60696 H 5825.85 2.13821 2.30495 0
M  V30 60697 N 5829.63 0.619739 1.44903 0
M  V30 60698 C 5830.9 0.0511391 1.95533 0
M  V30 60699 C 5831.28 -1.42007 1.56196 0
M  V30 60700 O 5830.63 -2.12876 0.830431 0
M  V30 60701 C 5830.84 0.262019 3.48015 0
M  V30 60702 C 5832.19 0.149206 4.24338 0
M  V30 60703 O 5833.21 0.19278 3.55678 0
M  V30 60704 O 5832.07 0.0445266 5.46482 0
M  V30 60705 H 5829.17 -0.028817 0.826498 0
M  V30 60706 H 5831.71 0.690649 1.5501 0
M  V30 60707 H 5830.48 1.28332 3.69657 0
M  V30 60708 H 5830.11 -0.412175 3.95458 0
M  V30 60709 N 5831.1 -1.53442 0.359606 0
M  V30 60710 C 5832.03 -2.28477 -0.481719 0
M  V30 60711 C 5833.02 -1.30668 -1.08903 0
M  V30 60712 O 5834.2 -1.59531 -1.1074 0
M  V30 60713 C 5831.33 -3.06956 -1.62466 0
M  V30 60714 C 5830.28 -4.12403 -1.14489 0
M  V30 60715 C 5829.61 -4.7893 -2.3776 0
M  V30 60716 C 5830.91 -5.21776 -0.233891 0
M  V30 60717 H 5832.6 -2.99052 0.144267 0
M  V30 60718 H 5830.15 -1.43826 0.0708252 0
M  V30 60719 H 5832.1 -3.58193 -2.21981 0
M  V30 60720 H 5830.83 -2.34061 -2.27779 0
M  V30 60721 H 5829.49 -3.62103 -0.572462 0
M  V30 60722 H 5829.13 -4.02613 -3.01516 0
M  V30 60723 H 5828.83 -5.50182 -2.06334 0
M  V30 60724 H 5830.36 -5.32959 -2.97972 0
M  V30 60725 H 5831.77 -5.68552 -0.736348 0
M  V30 60726 H 5830.17 -6.00099 -0.0107777 0
M  V30 60727 H 5831.24 -4.7944 0.725604 0
M  V30 60728 N 5832.58 -0.0886195 -1.57351 0
M  V30 60729 C 5833.83 0.576262 -1.93293 0
M  V30 60730 C 5834.14 1.6974 -0.971994 0
M  V30 60731 O 5835.35 2.42299 -1.22488 0
M  V30 60732 C 5833.81 1.07643 -3.43425 0
M  V30 60733 C 5833.41 -0.0146063 -4.47998 0
M  V30 60734 C 5835.16 1.71441 -3.8834 0
M  V30 60735 C 5833.07 0.500551 -5.89278 0
M  V30 60736 H 5832 0.21903 -0.721486 0
M  V30 60737 H 5834.65 -0.163575 -1.82769 0
M  V30 60738 H 5833.03 1.86975 -3.49079 0
M  V30 60739 H 5834.2 -0.789856 -4.5398 0
M  V30 60740 H 5832.52 -0.557382 -4.12653 0
M  V30 60741 H 5835.11 2.11045 -4.91288 0
M  V30 60742 H 5835.46 2.58105 -3.26631 0
M  V30 60743 H 5835.99 0.987024 -3.8536 0
M  V30 60744 H 5832.73 -0.329318 -6.54672 0
M  V30 60745 H 5832.25 1.24295 -5.8678 0
M  V30 60746 H 5833.93 0.971596 -6.39663 0
M  V30 60747 N 5834.06 1.5651 0.185041 0
M  V30 60748 C 5835.31 1.80403 0.902094 0
M  V30 60749 C 5835.62 0.663561 1.84001 0
M  V30 60750 O 5836.83 0.787054 2.59842 0
M  V30 60751 C 5835.28 3.19614 1.65454 0
M  V30 60752 C 5834.89 4.4149 0.760954 0
M  V30 60753 C 5836.64 3.52809 2.36064 0
M  V30 60754 C 5834.54 5.71723 1.51285 0
M  V30 60755 H 5833.47 0.672692 0.340591 0
M  V30 60756 H 5836.12 1.82842 0.155208 0
M  V30 60757 H 5834.51 3.11452 2.44568 0
M  V30 60758 H 5835.68 4.60799 0.00775679 0
M  V30 60759 H 5834 4.16072 0.165198 0
M  V30 60760 H 5836.59 4.47349 2.92887 0
M  V30 60761 H 5836.94 2.77032 3.10739 0
M  V30 60762 H 5837.47 3.62463 1.63906 0
M  V30 60763 H 5834.21 6.50493 0.808679 0
M  V30 60764 H 5833.73 5.56414 2.23972 0
M  V30 60765 H 5835.41 6.13195 2.06399 0
M  V30 60766 N 5835.54 -0.453117 1.50946 0
M  V30 60767 C 5836.79 -1.20146 1.6251 0
M  V30 60768 C 5837.11 -1.92084 0.335995 0
M  V30 60769 O 5836.38 -1.84892 -0.647445 0
M  V30 60770 H 5834.96 -0.446481 0.598886 0
M  V30 60771 H 5837.62 -0.521037 1.87806 0
M  V30 60772 H 5836.72 -1.93963 2.44509 0
M  V30 60773 N 5837.02 -1.40826 -0.707518 0
M  V30 60774 C 5837.96 -1.41731 -1.82157 0
M  V30 60775 C 5838.93 -0.273193 -1.63838 0
M  V30 60776 O 5840.12 -0.472464 -1.84858 0
M  V30 60777 C 5837.26 -1.29358 -3.19938 0
M  V30 60778 C 5836.37 -2.53541 -3.49773 0
M  V30 60779 C 5835.51 -2.3355 -4.77104 0
M  V30 60780 C 5834.55 -3.53269 -4.99867 0
M  V30 60781 N 5833.68 -3.32423 -6.18417 0
M  V30 60782 H 5838.52 -2.36949 -1.80718 0
M  V30 60783 H 5836.06 -1.17674 -0.882682 0
M  V30 60784 H 5838.02 -1.20189 -3.99513 0
M  V30 60785 H 5836.65 -0.377538 -3.20585 0
M  V30 60786 H 5835.7 -2.73207 -2.64693 0
M  V30 60787 H 5837.01 -3.4263 -3.625 0
M  V30 60788 H 5836.17 -2.2178 -5.64711 0
M  V30 60789 H 5834.9 -1.41899 -4.666 0
M  V30 60790 H 5833.91 -3.65507 -4.10713 0
M  V30 60791 H 5835.13 -4.45858 -5.12238 0
M  V30 60792 H 5833.08 -2.43461 -6.09149 0
M  V30 60793 H 5833 -4.15081 -6.31857 0
M  V30 60794 H 5834.27 -3.24402 -7.0879 0
M  V30 60795 N 5838.5 0.940566 -1.26456 0
M  V30 60796 C 5839.74 1.68933 -1.12203 0
M  V30 60797 C 5840.07 1.91311 0.333753 0
M  V30 60798 O 5839.35 1.49422 1.24513 0
M  V30 60799 C 5839.63 3.06375 -1.89226 0
M  V30 60800 C 5839.49 2.91319 -3.42714 0
M  V30 60801 C 5840.8 4.06501 -1.68656 0
M  V30 60802 H 5837.92 0.613107 -0.408985 0
M  V30 60803 H 5840.57 1.09236 -1.55459 0
M  V30 60804 H 5838.72 3.57334 -1.52463 0
M  V30 60805 H 5840.39 2.47577 -3.89234 0
M  V30 60806 H 5838.63 2.26932 -3.69708 0
M  V30 60807 H 5839.3 3.88804 -3.91836 0
M  V30 60808 H 5841.78 3.64505 -2.00686 0
M  V30 60809 H 5840.65 5.00682 -2.24963 0
M  V30 60810 H 5840.91 4.3757 -0.631284 0
M  V30 60811 N 5839.97 1.0827 1.14523 0
M  V30 60812 C 5841.2 0.833061 1.89934 0
M  V30 60813 C 5841.62 -0.608923 1.77971 0
M  V30 60814 O 5840.98 -1.42653 1.11892 0
M  V30 60815 C 5841.03 1.25793 3.37947 0
M  V30 60816 O 5840.13 0.408998 4.10367 0
M  V30 60817 H 5839.47 0.302691 0.590994 0
M  V30 60818 H 5842 1.44376 1.44972 0
M  V30 60819 H 5842.01 1.23818 3.88758 0
M  V30 60820 H 5840.69 2.30816 3.45972 0
M  V30 60821 H 5839.27 0.49205 3.69639 0
M  V30 60822 N 5841.45 -1.31533 0.868156 0
M  V30 60823 C 5842.68 -2.0095 0.4926 0
M  V30 60824 C 5843.09 -1.65178 -0.914429 0
M  V30 60825 O 5842.45 -0.880058 -1.59879 0
M  V30 60826 C 5842.5 -3.55827 0.637923 0
M  V30 60827 O 5842.22 -3.90319 1.98954 0
M  V30 60828 C 5843.72 -4.42518 0.263142 0
M  V30 60829 H 5840.94 -0.642906 0.192128 0
M  V30 60830 H 5843.49 -1.67806 1.16882 0
M  V30 60831 H 5841.64 -3.87399 0.00927679 0
M  V30 60832 H 5842.06 -4.85036 1.996 0
M  V30 60833 H 5843.53 -5.50432 0.415784 0
M  V30 60834 H 5844.01 -4.31898 -0.797553 0
M  V30 60835 H 5844.61 -4.1636 0.867414 0
M  V30 60836 N 5842.93 -0.627415 -1.44573 0
M  V30 60837 C 5843.89 0.0700075 -2.29093 0
M  V30 60838 C 5844.89 0.77592 -1.40841 0
M  V30 60839 O 5846.08 0.621072 -1.62752 0
M  V30 60840 C 5843.21 1.10966 -3.22334 0
M  V30 60841 H 5844.41 -0.673337 -2.92243 0
M  V30 60842 H 5841.96 -0.387375 -1.51424 0
M  V30 60843 H 5842.7 1.88311 -2.64026 0
M  V30 60844 H 5842.48 0.607451 -3.87366 0
M  V30 60845 H 5843.97 1.59751 -3.85836 0
M  V30 60846 N 5844.41 1.5325 -0.367738 0
M  V30 60847 C 5845.34 2.28729 0.469596 0
M  V30 60848 C 5846.32 1.31244 1.08208 0
M  V30 60849 O 5847.5 1.60116 1.09893 0
M  V30 60850 C 5844.63 3.07814 1.60836 0
M  V30 60851 C 5843.59 4.13004 1.12301 0
M  V30 60852 C 5842.91 4.80184 2.35217 0
M  V30 60853 C 5844.21 5.21893 0.206217 0
M  V30 60854 H 5845.91 2.98972 -0.160124 0
M  V30 60855 H 5843.45 1.43786 -0.0784516 0
M  V30 60856 H 5845.41 3.59366 2.20078 0
M  V30 60857 H 5844.13 2.35266 2.26534 0
M  V30 60858 H 5842.79 3.62401 0.55325 0
M  V30 60859 H 5842.44 4.04206 2.99377 0
M  V30 60860 H 5842.14 5.51268 2.03413 0
M  V30 60861 H 5843.66 5.34531 2.95142 0
M  V30 60862 H 5845.08 5.68934 0.706186 0
M  V30 60863 H 5843.47 6.00096 -0.0210472 0
M  V30 60864 H 5844.54 4.79049 -0.751019 0
M  V30 60865 N 5845.89 0.096963 1.57301 0
M  V30 60866 C 5846.83 -0.861304 2.14127 0
M  V30 60867 C 5847.8 -1.27854 1.06031 0
M  V30 60868 O 5848.99 -1.35996 1.33827 0
M  V30 60869 C 5846.13 -2.11433 2.72746 0
M  V30 60870 C 5845.24 -1.74746 3.9508 0
M  V30 60871 C 5844.38 -2.94848 4.41857 0
M  V30 60872 C 5843.41 -2.54296 5.56776 0
M  V30 60873 N 5842.55 -3.6724 5.98397 0
M  V30 60874 H 5847.39 -0.369864 2.95696 0
M  V30 60875 H 5844.93 -0.170891 1.46104 0
M  V30 60876 H 5846.89 -2.84818 3.04852 0
M  V30 60877 H 5845.52 -2.58074 1.93902 0
M  V30 60878 H 5844.57 -0.91322 3.69276 0
M  V30 60879 H 5845.88 -1.40929 4.78477 0
M  V30 60880 H 5845.03 -3.76484 4.75757 0
M  V30 60881 H 5843.77 -3.31877 3.57364 0
M  V30 60882 H 5842.78 -1.71088 5.22503 0
M  V30 60883 H 5844 -2.1841 6.43019 0
M  V30 60884 H 5841.95 -4.03983 5.1685 0
M  V30 60885 H 5841.87 -3.37274 6.76596 0
M  V30 60886 H 5843.13 -4.4938 6.36928 0
M  V30 60887 N 5847.36 -1.56606 -0.176738 0
M  V30 60888 C 5848.61 -1.81327 -0.892472 0
M  V30 60889 C 5848.93 -0.673075 -1.83016 0
M  V30 60890 O 5848.2 0.30743 -1.93473 0
M  V30 60891 H 5846.78 -0.668893 -0.332553 0
M  V30 60892 H 5849.44 -1.94087 -0.177852 0
M  V30 60893 H 5848.54 -2.75173 -1.47262 0
M  V30 60894 N 5848.84 0.445106 -1.51184 0
M  V30 60895 C 5849.79 1.53792 -1.68321 0
M  V30 60896 C 5850.78 1.51664 -0.537298 0
M  V30 60897 O 5851.97 1.58248 -0.792874 0
M  V30 60898 C 5849.1 2.92047 -1.80454 0
M  V30 60899 C 5848.18 2.98961 -3.00805 0
M  V30 60900 N 5848.57 2.75633 -4.24099 0
M  V30 60901 C 5846.87 3.30116 -2.99899 0
M  V30 60902 C 5847.57 2.88189 -5.05294 0
M  V30 60903 N 5846.55 3.19522 -4.3978 0
M  V30 60904 H 5850.35 1.34496 -2.6132 0
M  V30 60905 H 5847.86 0.652288 -1.48724 0
M  V30 60906 H 5849.86 3.70656 -1.9084 0
M  V30 60907 H 5848.52 3.12369 -0.886314 0
M  V30 60908 H 5849.53 2.50711 -4.53172 0
M  V30 60909 H 5846.21 3.56262 -2.17678 0
M  V30 60910 H 5847.6 2.74173 -6.13416 0
M  V30 60911 N 5850.32 1.41199 0.70004 0
M  V30 60912 C 5851.57 1.41525 1.4609 0
M  V30 60913 C 5851.92 0.0221811 1.92387 0
M  V30 60914 O 5851.21 -0.951143 1.66324 0
M  V30 60915 C 5851.41 2.35269 2.69042 0
M  V30 60916 C 5851.24 3.83552 2.34772 0
M  V30 60917 C 5850.01 4.52266 2.25353 0
M  V30 60918 C 5852.2 4.74644 1.98034 0
M  V30 60919 N 5850.19 5.85702 1.83921 0
M  V30 60920 C 5851.56 5.96994 1.67325 0
M  V30 60921 C 5853.61 4.62333 1.84805 0
M  V30 60922 C 5852.32 7.08405 1.24717 0
M  V30 60923 C 5854.34 5.73701 1.43601 0
M  V30 60924 C 5853.7 6.95147 1.138 0
M  V30 60925 H 5849.8 0.573103 0.532049 0
M  V30 60926 H 5852.39 1.77035 0.810351 0
M  V30 60927 H 5850.56 2.01861 3.31823 0
M  V30 60928 H 5852.29 2.26345 3.35485 0
M  V30 60929 H 5849.04 4.06146 2.43603 0
M  V30 60930 H 5849.47 6.56409 1.65699 0
M  V30 60931 H 5854.11 3.68941 2.065 0
M  V30 60932 H 5851.83 8.01667 1.01766 0
M  V30 60933 H 5855.41 5.66177 1.33921 0
M  V30 60934 H 5854.29 7.79859 0.823983 0
M  V30 60935 N 5851.8 -0.933846 1.26953 0
M  V30 60936 C 5852.76 -2.01516 1.09197 0
M  V30 60937 C 5853.76 -1.60755 0.0379216 0
M  V30 60938 O 5854.95 -1.71903 0.281977 0
M  V30 60939 C 5852.08 -3.344 0.662507 0
M  V30 60940 H 5853.28 -2.18699 2.05209 0
M  V30 60941 H 5850.83 -1.11381 1.09654 0
M  V30 60942 H 5851.56 -3.22916 -0.299275 0
M  V30 60943 H 5851.35 -3.6534 1.42369 0
M  V30 60944 H 5852.84 -4.13824 0.560333 0
M  V30 60945 N 5853.28 -1.08875 -1.13947 0
M  V30 60946 C 5854.22 -0.717628 -2.21253 0
M  V30 60947 C 5855.22 0.278842 -1.67089 0
M  V30 60948 O 5856.42 0.140901 -1.79448 0
M  V30 60949 H 5852.8 -0.214057 -0.720891 0
M  V30 60950 H 5854.77 -1.63191 -2.49822 0
M  V30 60951 C 5853.52 -0.14822 -3.47384 0
M  V30 60952 H 5852.84 -0.906165 -3.89395 0
M  V30 60953 H 5854.28 0.073596 -4.23936 0
M  V30 60954 C 5852.74 1.11512 -3.1791 0
M  V30 60955 O 5853.27 2.19926 -3.36148 0
M  V30 60956 N 5851.48 1.0274 -2.71832 0
M  V30 60957 H 5851.02 0.145102 -2.57191 0
M  V30 60958 H 5850.98 1.87344 -2.52487 0
M  V30 60959 N 5854.75 1.3107 -0.875119 0
M  V30 60960 C 5856.17 1.78705 -0.540485 0
M  V30 60961 C 5856.52 1.72059 0.942874 0
M  V30 60962 O 5855.64 1.29145 1.73639 0
M  V30 60963 C 5856.24 3.24488 -0.974317 0
M  V30 60964 C 5854.8 3.69998 -0.691257 0
M  V30 60965 C 5853.94 2.51743 -1.16278 0
M  V30 60966 H 5856.89 1.18079 -1.06033 0
M  V30 60967 H 5856.91 3.79322 -0.299136 0
M  V30 60968 H 5856.43 3.29293 -2.05396 0
M  V30 60969 H 5854.53 3.7069 0.376806 0
M  V30 60970 H 5854.64 4.61909 -1.2719 0
M  V30 60971 H 5853 2.47952 -0.582389 0
M  V30 60972 H 5853.79 2.59291 -2.24995 0
M  V30 60973 N 5856.23 0.635073 1.44238 0
M  V30 60974 C 5857.51 0.0718751 1.95468 0
M  V30 60975 C 5857.89 -1.40342 1.57693 0
M  V30 60976 O 5857.24 -2.11983 0.852963 0
M  V30 60977 C 5857.45 0.298916 3.47718 0
M  V30 60978 C 5858.8 0.194205 4.24156 0
M  V30 60979 O 5859.82 0.230493 3.55453 0
M  V30 60980 O 5858.68 0.102486 5.46404 0
M  V30 60981 H 5855.77 -0.0200493 0.826757 0
M  V30 60982 H 5858.32 0.707051 1.54269 0
M  V30 60983 H 5857.09 1.32246 3.68275 0
M  V30 60984 H 5856.71 -0.370208 3.95873 0
M  V30 60985 N 5857.71 -1.53052 0.37586 0
M  V30 60986 C 5858.64 -2.28975 -0.457459 0
M  V30 60987 C 5859.62 -1.31816 -1.07511 0
M  V30 60988 O 5860.81 -1.60697 -1.09042 0
M  V30 60989 C 5857.94 -3.08662 -1.59201 0
M  V30 60990 C 5856.89 -4.13594 -1.10109 0
M  V30 60991 C 5856.22 -4.81425 -2.32667 0
M  V30 60992 C 5857.52 -5.21995 -0.178537 0
M  V30 60993 H 5859.21 -2.98882 0.175977 0
M  V30 60994 H 5856.76 -1.43743 0.0860759 0
M  V30 60995 H 5858.71 -3.60528 -2.18169 0
M  V30 60996 H 5857.43 -2.36464 -2.25283 0
M  V30 60997 H 5856.09 -3.6269 -0.534024 0
M  V30 60998 H 5855.74 -4.05788 -2.97229 0
M  V30 60999 H 5855.44 -5.52339 -2.00487 0
M  V30 61000 H 5856.96 -5.36089 -2.92303 0
M  V30 61001 H 5858.38 -5.69301 -0.676004 0
M  V30 61002 H 5856.78 -6.00077 0.0528714 0
M  V30 61003 H 5857.85 -4.78644 0.776414 0
M  V30 61004 N 5859.19 -0.105304 -1.57248 0
M  V30 61005 C 5860.15 0.835514 -2.13429 0
M  V30 61006 C 5861.15 1.20395 -1.06592 0
M  V30 61007 O 5862.34 1.1317 -1.32432 0
M  V30 61008 C 5859.47 2.12797 -2.66328 0
M  V30 61009 H 5860.67 0.347501 -2.9788 0
M  V30 61010 H 5858.22 0.1438 -1.55637 0
M  V30 61011 H 5858.95 2.6606 -1.85425 0
M  V30 61012 H 5858.74 1.8734 -3.4445 0
M  V30 61013 H 5860.23 2.80078 -3.09751 0
M  V30 61014 N 5860.67 1.56697 0.168431 0
M  V30 61015 C 5861.89 1.86655 0.904129 0
M  V30 61016 C 5862.32 0.691967 1.7491 0
M  V30 61017 O 5861.67 -0.358909 1.77712 0
M  V30 61018 C 5861.72 3.1505 1.75431 0
M  V30 61019 O 5860.83 2.97476 2.85625 0
M  V30 61020 H 5860.17 0.613867 0.253106 0
M  V30 61021 H 5862.7 2.03928 0.165701 0
M  V30 61022 H 5862.71 3.46528 2.15366 0
M  V30 61023 H 5861.38 4.00151 1.13367 0
M  V30 61024 H 5859.96 2.77358 2.49252 0
M  V30 61025 N 5862.14 -0.437082 1.51418 0
M  V30 61026 C 5863.37 -1.21353 1.68191 0
M  V30 61027 C 5863.79 -1.84246 0.378813 0
M  V30 61028 O 5863.15 -1.68819 -0.661055 0
M  V30 61029 C 5863.2 -2.27309 2.79934 0
M  V30 61030 O 5862.3 -3.32799 2.43555 0
M  V30 61031 H 5861.65 -0.355528 0.5608 0
M  V30 61032 H 5864.18 -0.516135 1.97983 0
M  V30 61033 H 5864.19 -2.72089 3.04026 0
M  V30 61034 H 5862.86 -1.8091 3.74492 0
M  V30 61035 H 5861.44 -2.93493 2.30036 0
M  V30 61036 N 5863.62 -1.41568 -0.692542 0
M  V30 61037 C 5864.55 -1.46429 -1.81881 0
M  V30 61038 C 5865.53 -0.322639 -1.67012 0
M  V30 61039 O 5866.72 -0.534503 -1.867 0
M  V30 61040 C 5863.85 -1.34871 -3.20042 0
M  V30 61041 C 5862.8 -2.4688 -3.4962 0
M  V30 61042 C 5862.13 -2.20386 -4.87169 0
M  V30 61043 C 5863.43 -3.89217 -3.48292 0
M  V30 61044 H 5865.12 -2.40689 -1.7807 0
M  V30 61045 H 5862.67 -1.15848 -0.855293 0
M  V30 61046 H 5864.62 -1.36883 -3.98548 0
M  V30 61047 H 5863.35 -0.370974 -3.24486 0
M  V30 61048 H 5862 -2.44155 -2.73466 0
M  V30 61049 H 5861.65 -1.20948 -4.88242 0
M  V30 61050 H 5861.35 -2.95444 -5.07924 0
M  V30 61051 H 5862.88 -2.24119 -5.67982 0
M  V30 61052 H 5864.29 -3.9364 -4.16798 0
M  V30 61053 H 5862.69 -4.63982 -3.80579 0
M  V30 61054 H 5863.76 -4.17153 -2.47207 0
M  V30 61055 N 5865.1 0.927101 -1.27446 0
M  V30 61056 C 5866.03 2.03205 -1.0602 0
M  V30 61057 C 5867.05 1.62792 -0.0160982 0
M  V30 61058 O 5868.23 1.7663 -0.257722 0
M  V30 61059 C 5865.33 3.33789 -0.586343 0
M  V30 61060 C 5864.51 4.02891 -1.70287 0
M  V30 61061 C 5863.57 5.11751 -1.22465 0
M  V30 61062 O 5862.59 5.35682 -1.92442 0
M  V30 61063 N 5863.79 5.80444 -0.0806202 0
M  V30 61064 H 5866.56 2.22148 -2.01172 0
M  V30 61065 H 5864.12 1.09753 -1.19021 0
M  V30 61066 H 5866.11 4.03925 -0.250303 0
M  V30 61067 H 5864.68 3.11415 0.271966 0
M  V30 61068 H 5863.9 3.26481 -2.20916 0
M  V30 61069 H 5865.19 4.45808 -2.4522 0
M  V30 61070 H 5864.59 5.63455 0.503437 0
M  V30 61071 H 5863.15 6.51505 0.196237 0
M  V30 61072 N 5866.58 1.09478 1.13368 0
M  V30 61073 C 5867.81 0.851751 1.88225 0
M  V30 61074 C 5868.22 -0.600644 1.79413 0
M  V30 61075 O 5867.56 -1.42523 1.159 0
M  V30 61076 C 5867.62 1.20886 3.38566 0
M  V30 61077 C 5867.29 2.66627 3.71159 0
M  V30 61078 C 5868.28 3.64875 3.70355 0
M  V30 61079 C 5865.97 3.02762 4.008 0
M  V30 61080 C 5867.96 4.97283 3.98733 0
M  V30 61081 C 5865.65 4.35362 4.2884 0
M  V30 61082 C 5866.65 5.32432 4.27791 0
M  V30 61083 O 5866.33 6.62646 4.55144 0
M  V30 61084 H 5866.07 0.306118 0.602717 0
M  V30 61085 H 5868.62 1.46043 1.44432 0
M  V30 61086 H 5866.85 0.543231 3.82865 0
M  V30 61087 H 5868.54 0.944892 3.94749 0
M  V30 61088 H 5869.31 3.38302 3.47529 0
M  V30 61089 H 5865.18 2.27838 4.00763 0
M  V30 61090 H 5868.73 5.73042 3.9783 0
M  V30 61091 H 5864.63 4.61677 4.51137 0
M  V30 61092 H 5865.39 6.68127 4.7281 0
M  V30 61093 N 5868.06 -1.30604 0.882058 0
M  V30 61094 C 5868.97 -2.31966 0.350585 0
M  V30 61095 C 5869.98 -1.65222 -0.545692 0
M  V30 61096 O 5871.16 -1.96546 -0.439512 0
M  V30 61097 C 5868.22 -3.44038 -0.428803 0
M  V30 61098 C 5867.29 -4.26415 0.496877 0
M  V30 61099 C 5866.52 -5.33135 -0.245409 0
M  V30 61100 O 5866.74 -5.51082 -1.47189 0
M  V30 61101 O 5865.68 -6.00549 0.402978 0
M  V30 61102 H 5869.5 -2.7937 1.19105 0
M  V30 61103 H 5867.09 -1.34721 0.645801 0
M  V30 61104 H 5868.97 -4.12317 -0.870201 0
M  V30 61105 H 5867.64 -2.98774 -1.24562 0
M  V30 61106 H 5866.55 -3.60844 0.987026 0
M  V30 61107 H 5867.88 -4.75275 1.27962 0
M  V30 61108 N 5869.54 -0.642713 -1.43899 0
M  V30 61109 C 5870.47 0.104804 -2.27959 0
M  V30 61110 C 5871.45 0.840085 -1.39217 0
M  V30 61111 O 5872.63 0.841809 -1.68659 0
M  V30 61112 C 5869.76 1.15485 -3.18404 0
M  V30 61113 C 5868.8 0.518797 -4.23333 0
M  V30 61114 S 5869.64 -0.699806 -5.30908 0
M  V30 61115 C 5870.79 0.349962 -6.24921 0
M  V30 61116 H 5871.03 -0.608283 -2.91011 0
M  V30 61117 H 5868.56 -0.431228 -1.48256 0
M  V30 61118 H 5870.52 1.75569 -3.7106 0
M  V30 61119 H 5869.18 1.84019 -2.5455 0
M  V30 61120 H 5868.37 1.31001 -4.86677 0
M  V30 61121 H 5867.97 -0.00769501 -3.73999 0
M  V30 61122 H 5870.26 1.21921 -6.66439 0
M  V30 61123 H 5871.21 -0.248191 -7.07665 0
M  V30 61124 H 5871.62 0.681057 -5.60377 0
M  V30 61125 N 5871.01 1.52851 -0.383971 0
M  V30 61126 C 5871.94 2.29214 0.44531 0
M  V30 61127 C 5872.92 1.32384 1.0681 0
M  V30 61128 O 5874.11 1.61273 1.08188 0
M  V30 61129 C 5871.24 3.09502 1.57562 0
M  V30 61130 C 5870.19 4.14172 1.07914 0
M  V30 61131 C 5869.52 4.82652 2.30111 0
M  V30 61132 C 5870.82 5.22082 0.150852 0
M  V30 61133 H 5872.51 2.98785 -0.191825 0
M  V30 61134 H 5870.06 1.43695 -0.0936977 0
M  V30 61135 H 5872.01 3.6168 2.16254 0
M  V30 61136 H 5870.74 2.37655 2.24026 0
M  V30 61137 H 5869.4 3.62968 0.514782 0
M  V30 61138 H 5869.04 4.07359 2.95073 0
M  V30 61139 H 5868.74 5.53395 1.97555 0
M  V30 61140 H 5870.27 5.37632 2.89456 0
M  V30 61141 H 5871.68 5.69651 0.645803 0
M  V30 61142 H 5870.08 6.0004 -0.0846942 0
M  V30 61143 H 5871.15 4.78225 -0.801787 0
M  V30 61144 N 5872.49 0.113641 1.5719 0
M  V30 61145 C 5873.42 -0.835286 2.18049 0
M  V30 61146 C 5874.4 -1.2811 1.11901 0
M  V30 61147 O 5875.59 -1.34467 1.40115 0
M  V30 61148 C 5872.72 -2.08749 2.77563 0
M  V30 61149 C 5871.67 -1.77965 3.89246 0
M  V30 61150 C 5871 -3.1017 4.35544 0
M  V30 61151 C 5872.3 -1.05213 5.11593 0
M  V30 61152 H 5873.99 -0.32817 2.97596 0
M  V30 61153 H 5871.54 -0.156406 1.43148 0
M  V30 61154 H 5873.49 -2.75586 3.18795 0
M  V30 61155 H 5872.21 -2.61776 1.95297 0
M  V30 61156 H 5870.87 -1.13519 3.48581 0
M  V30 61157 H 5870.52 -3.61121 3.50144 0
M  V30 61158 H 5870.22 -2.90349 5.10854 0
M  V30 61159 H 5871.75 -3.78135 4.79423 0
M  V30 61160 H 5873.16 -1.62194 5.49878 0
M  V30 61161 H 5871.56 -0.955061 5.92451 0
M  V30 61162 H 5872.63 -0.0379666 4.84885 0
M  V30 61163 N 5873.97 -1.56785 -0.160118 0
M  V30 61164 C 5874.9 -2.00302 -1.20005 0
M  V30 61165 C 5875.88 -0.880407 -1.45543 0
M  V30 61166 O 5877.07 -1.14729 -1.56687 0
M  V30 61167 C 5874.2 -2.37247 -2.53636 0
M  V30 61168 C 5873.15 -3.52572 -2.42646 0
M  V30 61169 C 5872.48 -3.75291 -3.80868 0
M  V30 61170 C 5873.78 -4.85664 -1.92166 0
M  V30 61171 H 5875.47 -2.87426 -0.838261 0
M  V30 61172 H 5873.02 -1.38281 -0.401789 0
M  V30 61173 H 5874.97 -2.66289 -3.26601 0
M  V30 61174 H 5873.69 -1.47045 -2.91625 0
M  V30 61175 H 5872.35 -3.23675 -1.72135 0
M  V30 61176 H 5872 -2.82362 -4.1627 0
M  V30 61177 H 5871.7 -4.52895 -3.7438 0
M  V30 61178 H 5873.22 -4.06746 -4.55401 0
M  V30 61179 H 5874.64 -5.1351 -2.54913 0
M  V30 61180 H 5873.03 -5.66982 -1.96599 0
M  V30 61181 H 5874.1 -4.76911 -0.876574 0
M  V30 61182 N 5875.45 0.429046 -1.51647 0
M  V30 61183 C 5876.68 1.2 -1.68546 0
M  V30 61184 C 5877.09 1.84805 -0.386329 0
M  V30 61185 O 5876.45 1.71062 0.635928 0
M  V30 61186 C 5876.5 2.27791 -2.80702 0
M  V30 61187 O 5876.22 1.65635 -4.05582 0
M  V30 61188 C 5877.72 3.17917 -3.0894 0
M  V30 61189 H 5874.94 0.361368 -0.56538 0
M  V30 61190 H 5877.48 0.507362 -1.98106 0
M  V30 61191 H 5875.64 2.92757 -2.53717 0
M  V30 61192 H 5876.05 2.36939 -4.67932 0
M  V30 61193 H 5877.53 3.89666 -3.90979 0
M  V30 61194 H 5878 3.79149 -2.21681 0
M  V30 61195 H 5878.61 2.58643 -3.37615 0
M  V30 61196 N 5876.93 1.41934 0.685024 0
M  V30 61197 C 5878.2 1.32343 1.4403 0
M  V30 61198 C 5878.58 -0.0440419 2.11054 0
M  V30 61199 O 5877.93 -1.05894 2.02481 0
M  V30 61200 C 5878.14 2.48437 2.45112 0
M  V30 61201 C 5879.49 2.90087 3.10056 0
M  V30 61202 O 5880.51 2.48254 2.55438 0
M  V30 61203 O 5879.37 3.62459 4.09006 0
M  V30 61204 H 5876.47 0.521384 0.641941 0
M  V30 61205 H 5879.01 1.5392 0.714612 0
M  V30 61206 H 5877.78 3.39644 1.94314 0
M  V30 61207 H 5877.41 2.28793 3.25176 0
M  V30 61208 N 5878.4 -0.920329 1.27936 0
M  V30 61209 C 5879.63 -1.708 1.17653 0
M  V30 61210 C 5880.05 -1.86265 -0.262123 0
M  V30 61211 O 5879.41 -1.36802 -1.18974 0
M  V30 61212 C 5879.46 -3.08136 1.87309 0
M  V30 61213 O 5878.56 -3.95275 1.17607 0
M  V30 61214 H 5877.9 -0.523253 0.408782 0
M  V30 61215 H 5880.43 -1.15121 1.6914 0
M  V30 61216 H 5880.44 -3.58407 1.94958 0
M  V30 61217 H 5879.12 -2.96197 2.91959 0
M  V30 61218 H 5877.7 -3.53712 1.18077 0
M  V30 61219 N 5879.88 -1.10078 -1.12786 0
M  V30 61220 C 5881.13 -0.83578 -1.83569 0
M  V30 61221 C 5881.44 0.640766 -1.84807 0
M  V30 61222 O 5882.65 1.02153 -2.51549 0
M  V30 61223 C 5881.11 -1.44531 -3.29604 0
M  V30 61224 C 5880.71 -2.95488 -3.36736 0
M  V30 61225 C 5882.46 -1.25954 -4.05383 0
M  V30 61226 C 5880.36 -3.49494 -4.77083 0
M  V30 61227 H 5879.29 -0.308998 -0.687776 0
M  V30 61228 H 5881.95 -1.32431 -1.27021 0
M  V30 61229 H 5880.33 -0.884459 -3.85997 0
M  V30 61230 H 5881.5 -3.57856 -2.90302 0
M  V30 61231 H 5879.82 -3.13176 -2.74426 0
M  V30 61232 H 5882.41 -1.6375 -5.09009 0
M  V30 61233 H 5882.76 -0.200779 -4.15816 0
M  V30 61234 H 5883.29 -1.78826 -3.55339 0
M  V30 61235 H 5880.03 -4.5502 -4.71844 0
M  V30 61236 H 5879.55 -2.91891 -5.23984 0
M  V30 61237 H 5881.23 -3.47096 -5.46016 0
M  V30 61238 N 5881.36 1.30135 -0.888972 0
M  V30 61239 C 5882.58 2.00677 -0.523768 0
M  V30 61240 C 5883.01 1.6617 0.88142 0
M  V30 61241 O 5882.37 0.880474 1.58485 0
M  V30 61242 C 5882.42 3.53533 -0.710408 0
M  V30 61243 O 5881.52 4.1169 0.241922 0
M  V30 61244 H 5880.86 0.631266 -0.20591 0
M  V30 61245 H 5883.39 1.65887 -1.19761 0
M  V30 61246 H 5883.4 4.034 -0.610936 0
M  V30 61247 H 5882.08 3.77986 -1.73492 0
M  V30 61248 H 5880.65 3.72777 0.0958082 0
M  V30 61249 N 5882.84 0.650335 1.43556 0
M  V30 61250 C 5883.79 -0.0430169 2.3076 0
M  V30 61251 C 5884.76 -0.817579 1.44585 0
M  V30 61252 O 5885.94 -0.794764 1.73459 0
M  V30 61253 C 5883.08 -1.00545 3.30128 0
M  V30 61254 C 5882.19 -0.227297 4.31402 0
M  V30 61255 C 5881.33 -1.18327 5.17853 0
M  V30 61256 C 5880.37 -0.395381 6.10822 0
M  V30 61257 N 5879.5 -1.3028 6.89907 0
M  V30 61258 H 5884.34 0.706503 2.89504 0
M  V30 61259 H 5881.88 0.360168 1.42623 0
M  V30 61260 H 5883.84 -1.57703 3.86245 0
M  V30 61261 H 5882.47 -1.72188 2.7304 0
M  V30 61262 H 5881.52 0.460524 3.77602 0
M  V30 61263 H 5882.83 0.385491 4.97308 0
M  V30 61264 H 5881.99 -1.82558 5.78582 0
M  V30 61265 H 5880.73 -1.82997 4.52066 0
M  V30 61266 H 5879.73 0.260292 5.49184 0
M  V30 61267 H 5880.96 0.246872 6.78651 0
M  V30 61268 H 5878.9 -1.93635 6.26771 0
M  V30 61269 H 5878.82 -0.744504 7.52325 0
M  V30 61270 H 5880.09 -1.93334 7.55144 0
M  V30 61271 N 5884.32 -1.52645 0.392072 0
M  V30 61272 C 5885.23 -2.30263 -0.449012 0
M  V30 61273 C 5886.24 -1.3729 -1.069 0
M  V30 61274 O 5887.42 -1.7036 -1.07421 0
M  V30 61275 C 5884.48 -3.09641 -1.55959 0
M  V30 61276 C 5883.54 -4.18327 -0.964419 0
M  V30 61277 C 5882.78 -4.93911 -2.02207 0
M  V30 61278 O 5883 -4.69614 -3.23757 0
M  V30 61279 O 5881.93 -5.79188 -1.63782 0
M  V30 61280 H 5885.76 -3.03146 0.183375 0
M  V30 61281 H 5883.35 -1.48586 0.155716 0
M  V30 61282 H 5885.23 -3.59125 -2.2047 0
M  V30 61283 H 5883.9 -2.39569 -2.17689 0
M  V30 61284 H 5882.81 -3.73032 -0.282487 0
M  V30 61285 H 5884.14 -4.90642 -0.391294 0
M  V30 61286 N 5885.79 -0.121976 -1.57127 0
M  V30 61287 C 5887.07 0.579021 -1.86833 0
M  V30 61288 C 5887.45 1.8462 -1.02366 0
M  V30 61289 O 5886.8 2.28266 -0.103406 0
M  V30 61290 C 5887.01 0.868601 -3.38018 0
M  V30 61291 C 5888.36 1.22036 -4.06685 0
M  V30 61292 O 5889.38 0.958768 -3.43054 0
M  V30 61293 O 5888.24 1.71146 -5.1901 0
M  V30 61294 H 5885.33 0.292512 -0.773541 0
M  V30 61295 H 5887.88 -0.156704 -1.68975 0
M  V30 61296 H 5886.65 -0.0292432 -3.91289 0
M  V30 61297 H 5886.28 1.65938 -3.61317 0
M  V30 61298 N 5887.27 1.56867 0.151801 0
M  V30 61299 C 5888.5 1.87604 0.884281 0
M  V30 61300 C 5888.92 0.71048 1.74166 0
M  V30 61301 O 5888.28 -0.34004 1.78083 0
M  V30 61302 C 5888.33 3.16893 1.7208 0
M  V30 61303 O 5887.43 3.00489 2.82454 0
M  V30 61304 H 5886.77 0.616517 0.246581 0
M  V30 61305 H 5889.3 2.04092 0.144063 0
M  V30 61306 H 5889.31 3.48792 2.11679 0
M  V30 61307 H 5887.99 4.01331 1.09117 0
M  V30 61308 H 5886.57 2.79987 2.46296 0
M  V30 61309 N 5888.75 -0.420997 1.51873 0
M  V30 61310 C 5889.99 -1.17832 1.67018 0
M  V30 61311 C 5890.35 -1.88081 0.385927 0
M  V30 61312 O 5891.56 -2.65603 0.413333 0
M  V30 61313 C 5889.83 -2.15557 2.85079 0
M  V30 61314 S 5891.39 -2.99557 3.20642 0
M  V30 61315 H 5888.2 -0.399354 0.58825 0
M  V30 61316 H 5890.81 -0.467393 1.89831 0
M  V30 61317 H 5889.51 -1.62615 3.76808 0
M  V30 61318 H 5889.04 -2.91207 2.64504 0
M  V30 61319 H 5891.06 -4.17381 2.68343 0
M  V30 61320 N 5890.23 -1.42295 -0.677488 0
M  V30 61321 C 5891.47 -1.43831 -1.4382 0
M  V30 61322 C 5891.83 -0.0527855 -1.92328 0
M  V30 61323 O 5891.12 0.924562 -1.67817 0
M  V30 61324 C 5891.32 -2.39519 -2.65265 0
M  V30 61325 C 5891.15 -3.87239 -2.2864 0
M  V30 61326 C 5889.92 -4.55793 -2.18129 0
M  V30 61327 C 5892.11 -4.77735 -1.90458 0
M  V30 61328 N 5890.1 -5.88553 -1.7458 0
M  V30 61329 C 5891.47 -5.99581 -1.57806 0
M  V30 61330 C 5893.52 -4.65214 -1.77426 0
M  V30 61331 C 5892.22 -7.103 -1.13431 0
M  V30 61332 C 5894.25 -5.75913 -1.34456 0
M  V30 61333 C 5893.61 -6.96869 -1.02727 0
M  V30 61334 H 5889.71 -0.581495 -0.522864 0
M  V30 61335 H 5892.3 -1.78302 -0.782083 0
M  V30 61336 H 5890.47 -2.07115 -3.2857 0
M  V30 61337 H 5892.2 -2.31653 -3.31842 0
M  V30 61338 H 5888.95 -4.0997 -2.37111 0
M  V30 61339 H 5889.38 -6.58962 -1.55236 0
M  V30 61340 H 5894.02 -3.7218 -2.00604 0
M  V30 61341 H 5891.74 -8.03184 -0.889991 0
M  V30 61342 H 5895.32 -5.68236 -1.24897 0
M  V30 61343 H 5894.2 -7.81071 -0.69981 0
M  V30 61344 N 5891.71 0.913531 -1.28423 0
M  V30 61345 C 5892.62 2.04918 -1.14218 0
M  V30 61346 C 5893.63 1.73864 -0.0687035 0
M  V30 61347 O 5894.81 1.99472 -0.278038 0
M  V30 61348 C 5891.87 3.37211 -0.805564 0
M  V30 61349 C 5890.93 3.81872 -1.96143 0
M  V30 61350 C 5890.17 5.07853 -1.64077 0
M  V30 61351 O 5890.39 5.67691 -0.555231 0
M  V30 61352 O 5889.32 5.48231 -2.48447 0
M  V30 61353 H 5893.15 2.1982 -2.09554 0
M  V30 61354 H 5890.74 1.03497 -1.07743 0
M  V30 61355 H 5892.62 4.16637 -0.631795 0
M  V30 61356 H 5891.29 3.23484 0.11814 0
M  V30 61357 H 5890.2 3.03273 -2.19035 0
M  V30 61358 H 5891.53 4.00163 -2.86584 0
M  V30 61359 N 5893.18 1.10674 1.122 0
M  V30 61360 C 5894.11 0.779906 2.2009 0
M  V30 61361 C 5895.1 -0.24822 1.68279 0
M  V30 61362 O 5896.28 -0.113443 1.93868 0
M  V30 61363 C 5893.41 0.213633 3.46642 0
M  V30 61364 C 5892.36 1.17273 4.1162 0
M  V30 61365 C 5891.69 0.467539 5.32652 0
M  V30 61366 C 5892.99 2.5203 4.57469 0
M  V30 61367 H 5894.68 1.68201 2.47687 0
M  V30 61368 H 5892.23 0.810173 1.19047 0
M  V30 61369 H 5894.18 -0.0271743 4.21391 0
M  V30 61370 H 5892.91 -0.723725 3.1848 0
M  V30 61371 H 5891.57 1.39903 3.38855 0
M  V30 61372 H 5891.21 -0.474371 5.00758 0
M  V30 61373 H 5890.91 1.10715 5.77075 0
M  V30 61374 H 5892.44 0.235336 6.10146 0
M  V30 61375 H 5893.85 2.33534 5.23579 0
M  V30 61376 H 5892.25 3.11898 5.12679 0
M  V30 61377 H 5893.32 3.11844 3.71324 0
M  V30 61378 N 5894.66 -1.29661 0.89586 0
M  V30 61379 C 5896.08 -1.48238 0.591408 0
M  V30 61380 C 5896.28 -1.81842 -0.868086 0
M  V30 61381 O 5895.33 -1.91257 -1.64854 0
M  V30 61382 C 5896.65 -2.59809 1.51393 0
M  V30 61383 C 5898.2 -2.73686 1.51872 0
M  V30 61384 C 5898.67 -3.88381 2.42743 0
M  V30 61385 N 5900.16 -3.95708 2.40768 0
M  V30 61386 C 5900.9 -4.83793 3.07786 0
M  V30 61387 N 5900.39 -5.76596 3.84069 0
M  V30 61388 N 5902.19 -4.77252 2.96962 0
M  V30 61389 H 5894.34 -1.06125 1.83987 0
M  V30 61390 H 5896.6 -0.526791 0.788159 0
M  V30 61391 H 5896.31 -2.41832 2.55363 0
M  V30 61392 H 5896.18 -3.56527 1.23159 0
M  V30 61393 H 5898.57 -2.91063 0.486478 0
M  V30 61394 H 5898.65 -1.77554 1.84141 0
M  V30 61395 H 5898.29 -3.71761 3.46059 0
M  V30 61396 H 5898.22 -4.83873 2.07784 0
M  V30 61397 H 5900.71 -3.29328 1.85342 0
M  V30 61398 H 5901.03 -6.40596 4.3227 0
M  V30 61399 H 5899.37 -5.76493 3.88176 0
M  V30 61400 H 5902.56 -4.03736 2.36886 0
M  V30 61401 H 5902.73 -5.45689 3.49468 0
M  V30 61402 N 5896.14 -0.657939 -1.43209 0
M  V30 61403 C 5897.07 0.0171293 -2.33494 0
M  V30 61404 C 5898.05 0.807035 -1.49736 0
M  V30 61405 O 5899.24 0.767568 -1.78387 0
M  V30 61406 C 5896.37 0.980912 -3.3316 0
M  V30 61407 C 5895.32 0.30079 -4.26942 0
M  V30 61408 C 5894.65 1.37635 -5.16683 0
M  V30 61409 C 5895.95 -0.809754 -5.15985 0
M  V30 61410 H 5897.64 -0.736851 -2.90191 0
M  V30 61411 H 5895.19 -0.355793 -1.39535 0
M  V30 61412 H 5897.14 1.46212 -3.95221 0
M  V30 61413 H 5895.86 1.76611 -2.74729 0
M  V30 61414 H 5894.52 -0.160021 -3.66251 0
M  V30 61415 H 5894.17 2.1531 -4.54588 0
M  V30 61416 H 5893.87 0.9265 -5.8025 0
M  V30 61417 H 5895.39 1.85883 -5.81618 0
M  V30 61418 H 5896.81 -0.410498 -5.71828 0
M  V30 61419 H 5895.21 -1.18436 -5.88297 0
M  V30 61420 H 5896.28 -1.66574 -4.55391 0
M  V30 61421 N 5897.62 1.52435 -0.400162 0
M  V30 61422 C 5899.04 1.5952 -0.0506172 0
M  V30 61423 C 5899.24 1.41355 1.43601 0
M  V30 61424 O 5898.29 1.23599 2.20181 0
M  V30 61425 C 5899.6 2.95857 -0.537515 0
M  V30 61426 C 5901.15 3.09066 -0.494711 0
M  V30 61427 C 5901.63 4.47869 -0.957973 0
M  V30 61428 N 5903.12 4.54084 -0.914426 0
M  V30 61429 C 5903.85 5.59739 -1.24417 0
M  V30 61430 N 5903.35 6.72989 -1.64492 0
M  V30 61431 N 5905.14 5.49901 -1.16472 0
M  V30 61432 H 5897.29 1.62491 -1.36786 0
M  V30 61433 H 5899.56 0.763927 -0.561355 0
M  V30 61434 H 5899.26 3.14401 -1.57622 0
M  V30 61435 H 5899.14 3.77156 0.0576326 0
M  V30 61436 H 5901.52 2.90211 0.534933 0
M  V30 61437 H 5901.6 2.29694 -1.1258 0
M  V30 61438 H 5901.25 4.67466 -1.9859 0
M  V30 61439 H 5901.18 5.25723 -0.303787 0
M  V30 61440 H 5903.67 3.72785 -0.619667 0
M  V30 61441 H 5903.98 7.49587 -1.87988 0
M  V30 61442 H 5902.33 6.74293 -1.68388 0
M  V30 61443 H 5905.52 4.60308 -0.850563 0
M  V30 61444 H 5905.69 6.32137 -1.42501 0
M  V30 61445 N 5899.1 0.130307 1.5706 0
M  V30 61446 C 5900.34 -0.527889 1.97466 0
M  V30 61447 C 5900.7 -1.63123 1.01267 0
M  V30 61448 O 5901.9 -2.34912 1.30652 0
M  V30 61449 C 5900.17 -1.03645 3.42042 0
M  V30 61450 S 5901.73 -1.70158 4.04465 0
M  V30 61451 H 5898.55 -0.171232 0.690073 0
M  V30 61452 H 5901.15 0.218069 1.9428 0
M  V30 61453 H 5899.86 -0.222423 4.09797 0
M  V30 61454 H 5899.39 -1.81742 3.48903 0
M  V30 61455 H 5901.4 -2.988 3.96148 0
M  V30 61456 N 5900.58 -1.56946 -0.14348 0
M  V30 61457 C 5901.54 -1.9762 -1.16099 0
M  V30 61458 C 5902.54 -0.86316 -1.35669 0
M  V30 61459 O 5903.73 -1.12971 -1.32602 0
M  V30 61460 C 5900.86 -2.29519 -2.52059 0
M  V30 61461 H 5902.05 -2.88699 -0.811965 0
M  V30 61462 H 5899.61 -1.51435 -0.386945 0
M  V30 61463 H 5900.34 -1.41243 -2.91926 0
M  V30 61464 H 5900.13 -3.10675 -2.39214 0
M  V30 61465 H 5901.62 -2.61813 -3.25336 0
M  V30 61466 N 5902.05 0.412937 -1.52094 0
M  V30 61467 C 5902.98 1.5098 -1.78122 0
M  V30 61468 C 5903.96 1.57923 -0.632019 0
M  V30 61469 O 5905.15 1.73258 -0.877229 0
M  V30 61470 C 5902.28 2.88839 -1.92845 0
M  V30 61471 C 5901.23 2.96749 -3.08422 0
M  V30 61472 C 5900.56 4.36826 -3.08362 0
M  V30 61473 C 5901.86 2.68583 -4.47952 0
M  V30 61474 H 5903.55 1.29449 -2.69969 0
M  V30 61475 H 5901.1 0.621303 -1.29907 0
M  V30 61476 H 5903.05 3.65555 -2.09636 0
M  V30 61477 H 5901.78 3.11655 -0.976662 0
M  V30 61478 H 5900.44 2.22477 -2.91375 0
M  V30 61479 H 5900.08 4.56645 -2.10913 0
M  V30 61480 H 5899.78 4.43043 -3.85988 0
M  V30 61481 H 5901.31 5.15482 -3.27278 0
M  V30 61482 H 5902.72 3.35023 -4.65223 0
M  V30 61483 H 5901.12 2.8618 -5.27466 0
M  V30 61484 H 5902.19 1.64042 -4.56309 0
M  V30 61485 N 5903.53 1.42652 0.669932 0
M  V30 61486 C 5904.76 1.46997 1.4631 0
M  V30 61487 C 5905.18 0.0841316 1.87912 0
M  V30 61488 O 5904.54 -0.918499 1.56311 0
M  V30 61489 C 5904.59 2.40673 2.68531 0
M  V30 61490 O 5903.69 1.88145 3.66981 0
M  V30 61491 H 5903.03 0.497859 0.439354 0
M  V30 61492 H 5905.56 1.87393 0.821282 0
M  V30 61493 H 5905.57 2.57416 3.16545 0
M  V30 61494 H 5904.25 3.41355 2.37592 0
M  V30 61495 H 5902.82 1.8098 3.26038 0
M  V30 61496 N 5905.01 -0.906708 1.28905 0
M  V30 61497 C 5905.94 -2.02659 1.15981 0
M  V30 61498 C 5906.92 -1.70009 0.0557799 0
M  V30 61499 O 5908.11 -1.92785 0.23402 0
M  V30 61500 C 5905.24 -3.3728 0.828234 0
M  V30 61501 C 5904.19 -3.84117 1.88781 0
M  V30 61502 C 5903.52 -5.15782 1.40971 0
M  V30 61503 C 5904.82 -4.05206 3.29554 0
M  V30 61504 H 5906.51 -2.1373 2.09666 0
M  V30 61505 H 5904.06 -1.02695 1.00944 0
M  V30 61506 H 5906.01 -4.15124 0.724554 0
M  V30 61507 H 5904.73 -3.26281 -0.144316 0
M  V30 61508 H 5903.39 -3.08483 1.98075 0
M  V30 61509 H 5903.04 -5.01193 0.426025 0
M  V30 61510 H 5902.74 -5.4809 2.11827 0
M  V30 61511 H 5904.26 -5.96175 1.31939 0
M  V30 61512 H 5905.68 -4.73554 3.23141 0
M  V30 61513 H 5904.07 -4.48857 3.98306 0
M  V30 61514 H 5905.14 -3.09777 3.7305 0
M  V30 61515 N 5906.49 -1.11268 -1.11612 0
M  V30 61516 C 5907.73 -0.860428 -1.83311 0
M  V30 61517 C 5908.06 0.613946 -1.84556 0
M  V30 61518 O 5907.32 1.46915 -1.29284 0
M  V30 61519 C 5907.62 -1.36492 -3.3031 0
M  V30 61520 C 5907.28 -2.85222 -3.49227 0
M  V30 61521 C 5905.94 -3.25835 -3.54098 0
M  V30 61522 C 5908.3 -3.81022 -3.55629 0
M  V30 61523 C 5905.62 -4.6098 -3.62924 0
M  V30 61524 C 5907.98 -5.15981 -3.65987 0
M  V30 61525 C 5906.64 -5.56155 -3.69117 0
M  V30 61526 H 5905.91 -0.314853 -0.670782 0
M  V30 61527 H 5908.56 -1.39077 -1.31642 0
M  V30 61528 H 5906.86 -0.754774 -3.84461 0
M  V30 61529 H 5908.56 -1.14611 -3.84272 0
M  V30 61530 H 5905.15 -2.52803 -3.46105 0
M  V30 61531 H 5909.33 -3.50746 -3.51128 0
M  V30 61532 H 5904.59 -4.91516 -3.63624 0
M  V30 61533 H 5908.76 -5.9005 -3.69884 0
M  V30 61534 H 5906.39 -6.60868 -3.75709 0
M  V30 61535 N 5907.97 1.29185 -0.902724 0
M  V30 61536 C 5908.9 2.30058 -0.399438 0
M  V30 61537 C 5909.88 1.61726 0.527142 0
M  V30 61538 O 5911.06 1.89214 0.437226 0
M  V30 61539 C 5908.19 3.4531 0.37121 0
M  V30 61540 C 5907.15 4.25464 -0.465218 0
M  V30 61541 C 5906.47 5.32943 0.433108 0
M  V30 61542 C 5907.77 4.93281 -1.71672 0
M  V30 61543 H 5909.47 2.72404 -1.24242 0
M  V30 61544 H 5907.01 1.30956 -0.598868 0
M  V30 61545 H 5908.96 4.14957 0.734061 0
M  V30 61546 H 5907.69 3.01815 1.248 0
M  V30 61547 H 5906.35 3.5753 -0.810441 0
M  V30 61548 H 5906 4.85692 1.30812 0
M  V30 61549 H 5905.7 5.87472 -0.122864 0
M  V30 61550 H 5907.22 6.05441 0.792085 0
M  V30 61551 H 5908.63 5.55348 -1.42343 0
M  V30 61552 H 5907.03 5.57755 -2.21425 0
M  V30 61553 H 5908.1 4.18397 -2.45096 0
M  V30 61554 N 5909.44 0.665525 1.42858 0
M  V30 61555 C 5910.38 -0.0685243 2.28097 0
M  V30 61556 C 5911.35 -0.817831 1.40536 0
M  V30 61557 O 5912.54 -0.81487 1.69977 0
M  V30 61558 C 5909.67 -1.10404 3.20201 0
M  V30 61559 C 5908.71 -0.451383 4.24105 0
M  V30 61560 S 5909.54 0.78418 5.29727 0
M  V30 61561 C 5910.7 -0.250498 6.25399 0
M  V30 61562 H 5910.93 0.654503 2.90006 0
M  V30 61563 H 5908.47 0.45476 1.47551 0
M  V30 61564 H 5910.42 -1.69644 3.73806 0
M  V30 61565 H 5909.09 -1.79946 2.57446 0
M  V30 61566 H 5908.28 -1.23242 4.887 0
M  V30 61567 H 5907.88 0.0671941 3.7394 0
M  V30 61568 H 5910.17 -1.11303 6.68295 0
M  V30 61569 H 5911.12 0.360743 7.0718 0
M  V30 61570 H 5911.52 -0.59182 5.61389 0
M  V30 61571 N 5910.92 -1.52221 0.40824 0
M  V30 61572 C 5911.88 -2.2558 -0.405772 0
M  V30 61573 C 5912.88 -1.27915 -0.974389 0
M  V30 61574 O 5914.07 -1.51864 -0.853408 0
M  V30 61575 C 5911.21 -3.02538 -1.57111 0
M  V30 61576 H 5912.4 -2.98964 0.236745 0
M  V30 61577 H 5909.95 -1.55471 0.160741 0
M  V30 61578 H 5910.69 -2.335 -2.25052 0
M  V30 61579 H 5910.47 -3.74241 -1.16988 0
M  V30 61580 H 5911.96 -3.58184 -2.14695 0
M  V30 61581 N 5912.4 -0.138635 -1.56989 0
M  V30 61582 C 5913.65 0.515321 -1.96144 0
M  V30 61583 C 5913.98 1.65063 -1.02312 0
M  V30 61584 O 5913.25 1.94395 -0.0639328 0
M  V30 61585 C 5913.54 1.02944 -3.45072 0
M  V30 61586 C 5913.39 -0.103804 -4.4968 0
M  V30 61587 C 5914.71 1.91397 -3.96302 0
M  V30 61588 H 5911.83 0.185848 -0.713183 0
M  V30 61589 H 5914.47 -0.21817 -1.88743 0
M  V30 61590 H 5912.62 1.65449 -3.51509 0
M  V30 61591 H 5914.29 -0.739853 -4.55328 0
M  V30 61592 H 5912.54 -0.764164 -4.27016 0
M  V30 61593 H 5913.21 0.297494 -5.51198 0
M  V30 61594 H 5915.68 1.38733 -3.92291 0
M  V30 61595 H 5914.56 2.24281 -5.00988 0
M  V30 61596 H 5914.82 2.84782 -3.3816 0
M  V30 61597 N 5913.88 1.57019 0.135155 0
M  V30 61598 C 5914.83 2.00115 1.18562 0
M  V30 61599 C 5915.82 0.895423 1.438 0
M  V30 61600 O 5917.03 1.08062 1.43953 0
M  V30 61601 H 5913.4 0.63719 0.399365 0
M  V30 61602 H 5915.37 2.876 0.795535 0
M  V30 61603 C 5914.12 2.40778 2.50841 0
M  V30 61604 H 5913.44 3.2542 2.32254 0
M  V30 61605 H 5914.88 2.74745 3.22942 0
M  V30 61606 C 5913.34 1.26505 3.12247 0
M  V30 61607 O 5913.87 0.572207 3.97604 0
M  V30 61608 N 5912.08 1.02624 2.71876 0
M  V30 61609 H 5911.63 1.59143 2.02561 0
M  V30 61610 H 5911.58 0.263574 3.13293 0
M  V30 61611 N 5915.36 -0.404866 1.52311 0
M  V30 61612 C 5916.61 -1.14853 1.65806 0
M  V30 61613 C 5916.92 -1.91544 0.396241 0
M  V30 61614 O 5918.12 -2.6837 0.411063 0
M  V30 61615 C 5916.58 -2.09058 2.92955 0
M  V30 61616 C 5916.19 -1.37863 4.2626 0
M  V30 61617 C 5917.93 -2.83657 3.15814 0
M  V30 61618 C 5915.84 -2.30742 5.44529 0
M  V30 61619 H 5914.77 -0.432441 0.617666 0
M  V30 61620 H 5917.42 -0.412632 1.788 0
M  V30 61621 H 5915.8 -2.86218 2.7367 0
M  V30 61622 H 5916.98 -0.660383 4.56043 0
M  V30 61623 H 5915.29 -0.752882 4.09537 0
M  V30 61624 H 5917.89 -3.53299 4.01353 0
M  V30 61625 H 5918.23 -3.46847 2.30224 0
M  V30 61626 H 5918.76 -2.13595 3.35592 0
M  V30 61627 H 5915.5 -1.72192 6.32479 0
M  V30 61628 H 5915.02 -3.00528 5.19079 0
M  V30 61629 H 5916.7 -2.91174 5.77777 0
M  V30 61630 N 5916.83 -1.43006 -0.662357 0
M  V30 61631 C 5917.78 -1.47454 -1.77555 0
M  V30 61632 C 5918.75 -0.325178 -1.62886 0
M  V30 61633 O 5919.94 -0.531036 -1.83261 0
M  V30 61634 C 5917.08 -1.39471 -3.15661 0
M  V30 61635 C 5916.19 -2.64541 -3.41529 0
M  V30 61636 C 5915.32 -2.48611 -4.69432 0
M  V30 61637 C 5914.36 -3.68993 -4.88375 0
M  V30 61638 N 5913.5 -3.51929 -6.07528 0
M  V30 61639 H 5918.34 -2.42579 -1.73088 0
M  V30 61640 H 5915.88 -1.20422 -0.844798 0
M  V30 61641 H 5917.84 -1.32838 -3.95487 0
M  V30 61642 H 5916.47 -0.479339 -3.19221 0
M  V30 61643 H 5915.52 -2.8149 -2.55867 0
M  V30 61644 H 5916.83 -3.53989 -3.51416 0
M  V30 61645 H 5915.98 -2.39634 -5.57369 0
M  V30 61646 H 5914.72 -1.56672 -4.6185 0
M  V30 61647 H 5913.73 -3.78388 -3.98876 0
M  V30 61648 H 5914.95 -4.61929 -4.97794 0
M  V30 61649 H 5912.9 -2.62718 -6.01095 0
M  V30 61650 H 5912.82 -4.34973 -6.18332 0
M  V30 61651 H 5914.08 -3.46787 -6.98111 0
M  V30 61652 N 5918.31 0.899859 -1.29384 0
M  V30 61653 C 5919.54 1.68379 -1.20233 0
M  V30 61654 C 5919.96 1.87306 0.237069 0
M  V30 61655 O 5919.31 1.40996 1.15872 0
M  V30 61656 C 5919.36 3.06838 -1.91135 0
M  V30 61657 O 5919.08 2.88776 -3.29454 0
M  V30 61658 C 5920.59 4.01246 -1.88459 0
M  V30 61659 H 5917.81 0.525902 -0.416735 0
M  V30 61660 H 5920.35 1.12531 -1.70754 0
M  V30 61661 H 5918.5 3.59462 -1.4445 0
M  V30 61662 H 5918.92 3.76507 -3.65161 0
M  V30 61663 H 5920.39 4.95815 -2.42634 0
M  V30 61664 H 5920.87 4.30696 -0.860076 0
M  V30 61665 H 5921.48 3.54554 -2.34886 0
M  V30 61666 N 5919.79 1.11858 1.1102 0
M  V30 61667 C 5921.2 0.8855 1.64365 0
M  V30 61668 C 5921.55 -0.581389 1.87388 0
M  V30 61669 O 5920.68 -1.44446 1.61134 0
M  V30 61670 C 5921.27 1.60093 2.9859 0
M  V30 61671 C 5919.83 1.41416 3.48825 0
M  V30 61672 C 5918.98 1.64077 2.23549 0
M  V30 61673 H 5921.93 1.27422 0.946015 0
M  V30 61674 H 5921.95 1.04845 3.6577 0
M  V30 61675 H 5921.46 2.66852 2.81801 0
M  V30 61676 H 5919.56 0.368857 3.7077 0
M  V30 61677 H 5919.68 2.16618 4.27333 0
M  V30 61678 H 5918.04 1.06445 2.3139 0
M  V30 61679 H 5918.82 2.7212 2.09298 0
M  V30 61680 N 5921.27 -1.28704 0.909562 0
M  V30 61681 C 5922.51 -1.95441 0.54135 0
M  V30 61682 C 5922.85 -1.7146 -0.911874 0
M  V30 61683 O 5922.12 -1.03317 -1.6479 0
M  V30 61684 C 5922.41 -3.50016 0.84622 0
M  V30 61685 C 5922.26 -3.83415 2.35187 0
M  V30 61686 C 5923.58 -4.38789 0.339482 0
M  V30 61687 H 5920.7 -0.709862 0.198153 0
M  V30 61688 H 5923.34 -1.52147 1.13804 0
M  V30 61689 H 5921.49 -3.87023 0.338398 0
M  V30 61690 H 5923.16 -3.563 2.92999 0
M  V30 61691 H 5921.4 -3.30608 2.80857 0
M  V30 61692 H 5922.07 -4.9134 2.51574 0
M  V30 61693 H 5924.55 -4.08829 0.774456 0
M  V30 61694 H 5923.43 -5.45807 0.581914 0
M  V30 61695 H 5923.69 -4.35517 -0.760091 0
M  V30 61696 N 5922.75 -0.673092 -1.42503 0
M  V30 61697 C 5923.99 -0.194935 -2.01861 0
M  V30 61698 C 5924.33 1.19486 -1.53091 0
M  V30 61699 O 5923.6 1.80184 -0.732385 0
M  V30 61700 C 5923.88 -0.227685 -3.59379 0
M  V30 61701 C 5923.74 -1.65281 -4.18333 0
M  V30 61702 C 5925.06 0.425043 -4.38043 0
M  V30 61703 H 5922.17 -0.0723089 -0.733444 0
M  V30 61704 H 5924.82 -0.857553 -1.69547 0
M  V30 61705 H 5922.97 0.336522 -3.8704 0
M  V30 61706 H 5924.64 -2.26913 -4.01632 0
M  V30 61707 H 5922.88 -2.19402 -3.74226 0
M  V30 61708 H 5923.55 -1.62742 -5.27465 0
M  V30 61709 H 5926.03 -0.0552172 -4.16063 0
M  V30 61710 H 5924.9 0.371483 -5.47642 0
M  V30 61711 H 5925.17 1.50236 -4.1579 0
M  V30 61712 N 5924.22 1.52002 -0.416307 0
M  V30 61713 C 5925.47 2.02189 0.157363 0
M  V30 61714 C 5925.8 1.30102 1.44178 0
M  V30 61715 O 5925.08 0.409493 1.9014 0
M  V30 61716 C 5925.36 3.57897 0.397721 0
M  V30 61717 C 5925.21 4.40625 -0.90387 0
M  V30 61718 C 5926.53 4.24076 1.17674 0
M  V30 61719 H 5923.65 0.734891 0.0557179 0
M  V30 61720 H 5926.29 1.8183 -0.551182 0
M  V30 61721 H 5924.44 3.75375 1.00128 0
M  V30 61722 H 5926.12 4.34842 -1.5398 0
M  V30 61723 H 5924.36 4.06551 -1.51324 0
M  V30 61724 H 5925.03 5.47671 -0.689995 0
M  V30 61725 H 5927.51 4.10741 0.665688 0
M  V30 61726 H 5926.38 5.32948 1.31367 0
M  V30 61727 H 5926.64 3.83515 2.19929 0
M  V30 61728 N 5925.7 0.146958 1.56913 0
M  V30 61729 C 5926.61 -0.805797 2.20327 0
M  V30 61730 C 5927.63 -1.27174 1.18755 0
M  V30 61731 O 5928.8 -1.32893 1.51332 0
M  V30 61732 C 5925.87 -2.02745 2.81239 0
M  V30 61733 C 5924.93 -1.61075 3.97936 0
M  V30 61734 C 5924.16 -2.77417 4.55934 0
M  V30 61735 O 5924.39 -3.93629 4.12811 0
M  V30 61736 O 5923.32 -2.52892 5.46195 0
M  V30 61737 H 5927.15 -0.295992 3.02254 0
M  V30 61738 H 5924.73 -0.0800651 1.49185 0
M  V30 61739 H 5926.61 -2.7424 3.19953 0
M  V30 61740 H 5925.29 -2.52679 2.02325 0
M  V30 61741 H 5924.2 -0.866032 3.63938 0
M  V30 61742 H 5925.53 -1.15858 4.7837 0
M  V30 61743 N 5927.18 -1.57089 -0.126826 0
M  V30 61744 C 5928.13 -2.00741 -1.17499 0
M  V30 61745 C 5929.12 -0.903036 -1.43323 0
M  V30 61746 O 5930.33 -1.08824 -1.43378 0
M  V30 61747 H 5926.7 -0.639299 -0.39598 0
M  V30 61748 H 5928.68 -2.88018 -0.780271 0
M  V30 61749 C 5927.42 -2.42105 -2.4956 0
M  V30 61750 H 5926.75 -3.26647 -2.30524 0
M  V30 61751 H 5928.19 -2.76453 -3.2148 0
M  V30 61752 C 5926.65 -1.28159 -3.11572 0
M  V30 61753 O 5927.18 -0.593285 -3.97295 0
M  V30 61754 N 5925.38 -1.04065 -2.71328 0
M  V30 61755 H 5924.93 -1.60215 -2.01715 0
M  V30 61756 H 5924.89 -0.280185 -3.13149 0
M  V30 61757 N 5928.66 0.396782 -1.52523 0
M  V30 61758 C 5929.91 1.13972 -1.66413 0
M  V30 61759 C 5930.22 1.91332 -0.406393 0
M  V30 61760 O 5931.43 2.68148 -0.42529 0
M  V30 61761 C 5929.88 2.07502 -2.9406 0
M  V30 61762 C 5929.49 1.35601 -4.26985 0
M  V30 61763 C 5931.24 2.81979 -3.17314 0
M  V30 61764 C 5929.14 2.27851 -5.45745 0
M  V30 61765 H 5928.07 0.429159 -0.61995 0
M  V30 61766 H 5930.72 0.403144 -1.79017 0
M  V30 61767 H 5929.11 2.84763 -2.75184 0
M  V30 61768 H 5930.28 0.636188 -4.56387 0
M  V30 61769 H 5928.59 0.731153 -4.09931 0
M  V30 61770 H 5931.19 3.51166 -4.03221 0
M  V30 61771 H 5931.53 3.45621 -2.3206 0
M  V30 61772 H 5932.07 2.11813 -3.3672 0
M  V30 61773 H 5928.81 1.68836 -6.33384 0
M  V30 61774 H 5928.33 2.97771 -5.20666 0
M  V30 61775 H 5930.01 2.88106 -5.79313 0
M  V30 61776 N 5930.14 1.43355 0.654764 0
M  V30 61777 C 5931.37 1.48327 1.44245 0
M  V30 61778 C 5931.78 0.100674 1.88531 0
M  V30 61779 O 5931.14 -0.888775 1.59396 0
M  V30 61780 C 5931.19 2.42779 2.67845 0
M  V30 61781 O 5930.91 3.75661 2.25411 0
M  V30 61782 C 5932.41 2.56977 3.61217 0
M  V30 61783 H 5929.63 0.503821 0.443177 0
M  V30 61784 H 5932.17 1.88081 0.80285 0
M  V30 61785 H 5930.33 2.06224 3.27949 0
M  V30 61786 H 5930.74 4.26438 3.05371 0
M  V30 61787 H 5932.22 3.27144 4.44613 0
M  V30 61788 H 5932.69 1.61418 4.08462 0
M  V30 61789 H 5933.3 2.94336 3.06996 0
M  V30 61790 N 5931.62 -0.892985 1.2986 0
M  V30 61791 C 5932.55 -2.01418 1.18124 0
M  V30 61792 C 5933.53 -1.6994 0.0738085 0
M  V30 61793 O 5934.71 -1.92526 0.254454 0
M  V30 61794 C 5931.84 -3.36382 0.86396 0
M  V30 61795 C 5930.8 -3.82093 1.92844 0
M  V30 61796 C 5930.12 -5.14258 1.46433 0
M  V30 61797 C 5931.42 -4.01687 3.33833 0
M  V30 61798 H 5933.12 -2.11495 2.11921 0
M  V30 61799 H 5930.66 -1.01619 1.02027 0
M  V30 61800 H 5932.61 -4.14332 0.768542 0
M  V30 61801 H 5931.34 -3.26416 -0.109701 0
M  V30 61802 H 5930 -3.06365 2.01336 0
M  V30 61803 H 5929.65 -5.00713 0.479159 0
M  V30 61804 H 5929.35 -5.45813 2.17628 0
M  V30 61805 H 5930.87 -5.94742 1.38255 0
M  V30 61806 H 5932.28 -4.701 3.28145 0
M  V30 61807 H 5930.68 -4.44607 4.03044 0
M  V30 61808 H 5931.75 -3.05803 3.76315 0
M  V30 61809 N 5933.09 -1.12445 -1.10425 0
M  V30 61810 C 5934.03 -0.736143 -2.16 0
M  V30 61811 C 5935 0.272749 -1.60296 0
M  V30 61812 O 5936.19 0.166678 -1.87762 0
M  V30 61813 C 5933.32 -0.0896136 -3.38581 0
M  V30 61814 C 5932.36 -1.06535 -4.1298 0
M  V30 61815 S 5933.19 -2.59295 -4.68536 0
M  V30 61816 C 5934.35 -1.95973 -5.94429 0
M  V30 61817 H 5934.58 -1.63042 -2.48605 0
M  V30 61818 H 5932.12 -0.943553 -1.22215 0
M  V30 61819 H 5934.07 0.277036 -4.09564 0
M  V30 61820 H 5932.74 0.781778 -3.04215 0
M  V30 61821 H 5931.93 -0.560602 -5.00872 0
M  V30 61822 H 5931.53 -1.37494 -3.47809 0
M  V30 61823 H 5933.82 -1.30254 -6.64861 0
M  V30 61824 H 5934.77 -2.81905 -6.49565 0
M  V30 61825 H 5935.17 -1.41552 -5.46464 0
M  V30 61826 N 5934.57 1.2822 -0.916375 0
M  V30 61827 C 5935.81 1.96635 -0.558027 0
M  V30 61828 C 5936.18 1.70526 0.882326 0
M  V30 61829 O 5937.38 2.32534 1.34838 0
M  V30 61830 C 5935.65 3.46855 -0.861755 0
M  V30 61831 S 5937.21 4.34536 -0.610219 0
M  V30 61832 H 5934.02 0.680386 -0.206388 0
M  V30 61833 H 5936.63 1.55691 -1.18239 0
M  V30 61834 H 5935.33 3.63354 -1.90793 0
M  V30 61835 H 5934.86 3.92749 -0.226149 0
M  V30 61836 H 5936.88 4.93283 0.537235 0
M  V30 61837 N 5936.05 0.68064 1.42144 0
M  V30 61838 C 5936.98 0.0200197 2.33491 0
M  V30 61839 C 5937.96 -0.783111 1.51001 0
M  V30 61840 O 5939.15 -0.739091 1.79586 0
M  V30 61841 C 5936.28 -0.927785 3.34678 0
M  V30 61842 C 5935.23 -0.232829 4.27366 0
M  V30 61843 C 5934.56 -1.29397 5.18807 0
M  V30 61844 C 5935.86 0.89174 5.14631 0
M  V30 61845 H 5937.55 0.782925 2.88982 0
M  V30 61846 H 5935.1 0.377947 1.38952 0
M  V30 61847 H 5937.05 -1.39906 3.97497 0
M  V30 61848 H 5935.77 -1.72218 2.77504 0
M  V30 61849 H 5934.43 0.218269 3.6595 0
M  V30 61850 H 5934.08 -2.08051 4.57956 0
M  V30 61851 H 5933.78 -0.83407 5.8165 0
M  V30 61852 H 5935.3 -1.76606 5.84502 0
M  V30 61853 H 5936.72 0.501419 5.71103 0
M  V30 61854 H 5935.11 1.2778 5.86338 0
M  V30 61855 H 5936.18 1.73797 4.52684 0
M  V30 61856 N 5937.53 -1.51779 0.424362 0
M  V30 61857 C 5938.94 -1.59419 0.075989 0
M  V30 61858 C 5939.14 -1.43621 -1.41334 0
M  V30 61859 O 5938.2 -1.27086 -2.18187 0
M  V30 61860 C 5939.51 -2.94964 0.584515 0
M  V30 61861 C 5941.06 -3.0824 0.543819 0
M  V30 61862 C 5941.54 -4.46289 1.0291 0
M  V30 61863 N 5943.03 -4.52572 0.986552 0
M  V30 61864 C 5943.76 -5.57689 1.33306 0
M  V30 61865 N 5943.26 -6.70287 1.75178 0
M  V30 61866 N 5945.05 -5.47978 1.25205 0
M  V30 61867 H 5937.2 -1.60294 1.39354 0
M  V30 61868 H 5939.46 -0.7549 0.573438 0
M  V30 61869 H 5939.17 -3.11854 1.62604 0
M  V30 61870 H 5939.04 -3.772 0.00237696 0
M  V30 61871 H 5941.43 -2.91025 -0.488696 0
M  V30 61872 H 5941.51 -2.27874 1.1622 0
M  V30 61873 H 5941.16 -4.64247 2.06002 0
M  V30 61874 H 5941.09 -5.25173 0.387386 0
M  V30 61875 H 5943.58 -3.71752 0.678896 0
M  V30 61876 H 5943.89 -7.46501 1.99889 0
M  V30 61877 H 5942.24 -6.71528 1.79094 0
M  V30 61878 H 5945.43 -4.58896 0.923686 0
M  V30 61879 H 5945.6 -6.2979 1.52539 0
M  V30 61880 N 5939.01 -0.155278 -1.56833 0
M  V30 61881 C 5940.25 0.493762 -1.95563 0
M  V30 61882 C 5940.57 1.65465 -1.04311 0
M  V30 61883 O 5941.77 2.36886 -1.32655 0
M  V30 61884 C 5940.23 0.929801 -3.47682 0
M  V30 61885 C 5939.84 -0.204604 -4.47533 0
M  V30 61886 C 5941.58 1.54816 -3.95262 0
M  V30 61887 C 5939.49 0.250167 -5.90871 0
M  V30 61888 H 5938.42 0.188232 -0.730126 0
M  V30 61889 H 5941.07 -0.240947 -1.81911 0
M  V30 61890 H 5939.45 1.72002 -3.56695 0
M  V30 61891 H 5940.63 -0.981693 -4.50222 0
M  V30 61892 H 5938.94 -0.731901 -4.09917 0
M  V30 61893 H 5941.54 1.90018 -4.99797 0
M  V30 61894 H 5941.88 2.44019 -3.37284 0
M  V30 61895 H 5942.41 0.822691 -3.892 0
M  V30 61896 H 5939.15 -0.60669 -6.52686 0
M  V30 61897 H 5938.67 0.992956 -5.91524 0
M  V30 61898 H 5940.35 0.699419 -6.43208 0
M  V30 61899 N 5940.48 1.57154 0.118493 0
M  V30 61900 C 5941.41 2.03413 1.14653 0
M  V30 61901 C 5942.39 0.918686 1.43158 0
M  V30 61902 O 5943.58 1.18843 1.5359 0
M  V30 61903 C 5940.71 2.43888 2.47257 0
M  V30 61904 C 5939.66 3.58881 2.33213 0
M  V30 61905 C 5938.99 3.85257 3.70784 0
M  V30 61906 C 5940.29 4.90588 1.79222 0
M  V30 61907 H 5941.98 2.89547 0.76176 0
M  V30 61908 H 5939.53 1.39298 0.364985 0
M  V30 61909 H 5941.48 2.74855 3.19426 0
M  V30 61910 H 5940.21 1.54725 2.87624 0
M  V30 61911 H 5938.87 3.28125 1.63492 0
M  V30 61912 H 5938.51 2.93299 4.08637 0
M  V30 61913 H 5938.21 4.62662 3.6224 0
M  V30 61914 H 5939.74 4.18677 4.44457 0
M  V30 61915 H 5941.15 5.20088 2.41208 0
M  V30 61916 H 5939.55 5.71995 1.81497 0
M  V30 61917 H 5940.62 4.79068 0.749821 0
M  V30 61918 N 5941.96 -0.388688 1.52732 0
M  V30 61919 C 5942.89 -1.49435 1.73787 0
M  V30 61920 C 5943.91 -1.506 0.618338 0
M  V30 61921 O 5945.1 -1.54497 0.89404 0
M  V30 61922 C 5942.2 -2.88282 1.78176 0
M  V30 61923 C 5941.37 -3.11078 3.07489 0
M  V30 61924 C 5940.43 -4.29909 3.03422 0
M  V30 61925 O 5939.45 -4.26199 3.77284 0
M  V30 61926 N 5940.66 -5.36113 2.22628 0
M  V30 61927 H 5943.42 -1.31761 2.69182 0
M  V30 61928 H 5940.98 -0.578205 1.51223 0
M  V30 61929 H 5942.97 -3.65878 1.72962 0
M  V30 61930 H 5941.54 -2.99314 0.901658 0
M  V30 61931 H 5940.76 -2.21344 3.26191 0
M  V30 61932 H 5942.05 -3.23164 3.92992 0
M  V30 61933 H 5941.45 -5.41982 1.62086 0
M  V30 61934 H 5940.01 -6.12373 2.23253 0
M  V30 61935 N 5943.44 -1.437 -0.647152 0
M  V30 61936 C 5944.39 -1.49329 -1.75981 0
M  V30 61937 C 5945.36 -0.342436 -1.62532 0
M  V30 61938 O 5946.54 -0.550443 -1.82688 0
M  V30 61939 C 5943.68 -1.42811 -3.14164 0
M  V30 61940 C 5942.8 -2.68148 -3.38704 0
M  V30 61941 C 5941.93 -2.53575 -4.66769 0
M  V30 61942 C 5940.97 -3.74152 -4.84434 0
M  V30 61943 N 5940.11 -3.58353 -6.03761 0
M  V30 61944 H 5944.95 -2.44401 -1.70505 0
M  V30 61945 H 5942.48 -1.21312 -0.831978 0
M  V30 61946 H 5944.44 -1.37025 -3.94056 0
M  V30 61947 H 5943.07 -0.513169 -3.18695 0
M  V30 61948 H 5942.12 -2.84188 -2.52867 0
M  V30 61949 H 5943.44 -3.57696 -3.47642 0
M  V30 61950 H 5942.59 -2.45532 -5.54796 0
M  V30 61951 H 5941.33 -1.61562 -4.60162 0
M  V30 61952 H 5940.33 -3.82598 -3.94841 0
M  V30 61953 H 5941.56 -4.67182 -4.92866 0
M  V30 61954 H 5939.5 -2.69078 -5.98275 0
M  V30 61955 H 5939.42 -4.41507 -6.13684 0
M  V30 61956 H 5940.69 -3.54172 -6.94393 0
M  V30 61957 N 5944.92 0.886085 -1.30331 0
M  V30 61958 C 5945.85 2.00788 -1.1919 0
M  V30 61959 C 5946.83 1.69898 -0.0828198 0
M  V30 61960 O 5948.01 1.92388 -0.264661 0
M  V30 61961 C 5945.14 3.35919 -0.881787 0
M  V30 61962 C 5944.1 3.81065 -1.94868 0
M  V30 61963 C 5943.42 5.13474 -1.49158 0
M  V30 61964 C 5944.72 3.99911 -3.35959 0
M  V30 61965 H 5946.42 2.10368 -2.13039 0
M  V30 61966 H 5943.96 1.01076 -1.02565 0
M  V30 61967 H 5945.92 4.13919 -0.790505 0
M  V30 61968 H 5944.64 3.26469 0.092389 0
M  V30 61969 H 5943.3 3.05293 -2.02958 0
M  V30 61970 H 5942.95 5.00451 -0.505706 0
M  V30 61971 H 5942.65 5.44651 -2.2052 0
M  V30 61972 H 5944.17 5.94 -1.41407 0
M  V30 61973 H 5945.59 4.68353 -3.30634 0
M  V30 61974 H 5943.98 4.42463 -4.05397 0
M  V30 61975 H 5945.05 3.03803 -3.77931 0
M  V30 61976 N 5946.4 1.13029 1.09828 0
M  V30 61977 C 5947.65 0.884156 1.81289 0
M  V30 61978 C 5947.96 -0.591543 1.86441 0
M  V30 61979 O 5949.16 -0.954482 2.54169 0
M  V30 61980 C 5947.62 1.53219 3.25656 0
M  V30 61981 C 5947.23 3.04312 3.28783 0
M  V30 61982 C 5948.97 1.36658 4.01901 0
M  V30 61983 C 5946.88 3.6202 4.67649 0
M  V30 61984 H 5945.81 0.327125 0.679342 0
M  V30 61985 H 5948.46 1.35752 1.23465 0
M  V30 61986 H 5946.84 0.986488 3.83516 0
M  V30 61987 H 5948.02 3.65428 2.80712 0
M  V30 61988 H 5946.33 3.20342 2.66027 0
M  V30 61989 H 5948.93 1.77188 5.04488 0
M  V30 61990 H 5949.27 0.310955 4.15137 0
M  V30 61991 H 5949.8 1.88185 3.50473 0
M  V30 61992 H 5946.54 4.6737 4.59614 0
M  V30 61993 H 5946.06 3.05681 5.16061 0
M  V30 61994 H 5947.74 3.6145 5.36621 0
M  V30 61995 N 5947.87 -1.27732 0.923162 0
M  V30 61996 C 5948.82 -2.26996 0.417334 0
M  V30 61997 C 5949.79 -1.57969 -0.513309 0
M  V30 61998 O 5950.98 -1.85811 -0.433456 0
M  V30 61999 C 5948.12 -3.43538 -0.327968 0
M  V30 62000 C 5947.23 -4.27289 0.636263 0
M  V30 62001 C 5946.36 -5.31045 -0.128428 0
M  V30 62002 C 5945.4 -6.06463 0.828805 0
M  V30 62003 N 5944.54 -7.02033 0.0970326 0
M  V30 62004 H 5949.38 -2.69639 1.26882 0
M  V30 62005 H 5946.92 -1.32595 0.636946 0
M  V30 62006 H 5948.88 -4.09913 -0.77636 0
M  V30 62007 H 5947.51 -3.01859 -1.14372 0
M  V30 62008 H 5946.56 -3.60871 1.20318 0
M  V30 62009 H 5947.87 -4.79674 1.36801 0
M  V30 62010 H 5947.02 -6.03347 -0.636946 0
M  V30 62011 H 5945.76 -4.79451 -0.893172 0
M  V30 62012 H 5944.77 -5.33003 1.34861 0
M  V30 62013 H 5945.99 -6.60145 1.59326 0
M  V30 62014 H 5943.94 -6.52776 -0.64955 0
M  V30 62015 H 5943.86 -7.52084 0.768436 0
M  V30 62016 H 5945.12 -7.78519 -0.390983 0
M  V30 62017 N 5949.35 -0.688168 -1.41782 0
M  V30 62018 C 5950.76 -0.29169 -1.84407 0
M  V30 62019 C 5951.11 1.16874 -1.57591 0
M  V30 62020 O 5950.24 1.89631 -1.04255 0
M  V30 62021 C 5950.83 -0.522628 -3.34745 0
M  V30 62022 C 5949.39 -0.180141 -3.75969 0
M  V30 62023 C 5948.54 -0.808548 -2.6525 0
M  V30 62024 H 5951.49 -0.889366 -1.31438 0
M  V30 62025 H 5951.51 0.221033 -3.79857 0
M  V30 62026 H 5951.02 -1.58563 -3.54231 0
M  V30 62027 H 5949.13 0.878885 -3.62086 0
M  V30 62028 H 5949.24 -0.629993 -4.7494 0
M  V30 62029 H 5947.6 -0.238754 -2.53578 0
M  V30 62030 H 5948.39 -1.87527 -2.87556 0
M  V30 62031 N 5950.83 1.51552 -0.432405 0
M  V30 62032 C 5952.24 1.86673 0.0318617 0
M  V30 62033 C 5952.59 1.34986 1.42384 0
M  V30 62034 O 5951.72 0.698628 2.04812 0
M  V30 62035 C 5952.31 3.38738 0.0645936 0
M  V30 62036 C 5950.87 3.73413 0.473259 0
M  V30 62037 C 5950.02 2.75241 -0.337284 0
M  V30 62038 H 5952.97 1.44847 -0.648468 0
M  V30 62039 H 5952.99 3.703 0.875109 0
M  V30 62040 H 5952.5 3.76328 -0.948639 0
M  V30 62041 H 5950.6 3.41412 1.49228 0
M  V30 62042 H 5950.72 4.78676 0.201482 0
M  V30 62043 H 5949.08 2.53884 0.203712 0
M  V30 62044 H 5949.86 3.15672 -1.3493 0
M  V30 62045 N 5952.31 0.163593 1.56749 0
M  V30 62046 C 5953.27 -0.755725 2.16383 0
M  V30 62047 C 5954.27 -1.16356 1.10987 0
M  V30 62048 O 5955.46 -1.08177 1.36541 0
M  V30 62049 C 5952.59 -2.02766 2.74042 0
M  V30 62050 H 5953.79 -0.236705 2.98964 0
M  V30 62051 H 5951.34 -0.0859377 1.56064 0
M  V30 62052 H 5952.07 -2.58995 1.95172 0
M  V30 62053 H 5951.86 -1.74427 3.51166 0
M  V30 62054 H 5953.35 -2.68389 3.19933 0
M  V30 62055 N 5953.79 -1.57215 -0.110157 0
M  V30 62056 C 5955.2 -1.74404 -0.666344 0
M  V30 62057 C 5955.55 -0.783587 -1.79873 0
M  V30 62058 O 5954.67 0.0414545 -2.1636 0
M  V30 62059 C 5955.27 -3.16244 -1.21553 0
M  V30 62060 C 5953.83 -3.3491 -1.71792 0
M  V30 62061 C 5952.97 -2.70251 -0.621252 0
M  V30 62062 H 5955.93 -1.58277 0.115821 0
M  V30 62063 H 5955.95 -3.18284 -2.08508 0
M  V30 62064 H 5955.46 -3.86124 -0.391137 0
M  V30 62065 H 5953.56 -2.70086 -2.5668 0
M  V30 62066 H 5953.67 -4.43132 -1.82128 0
M  V30 62067 H 5952.04 -2.3173 -1.05703 0
M  V30 62068 H 5952.82 -3.42761 0.192305 0
M  V30 62069 N 5955.26 0.380583 -1.52936 0
M  V30 62070 C 5956.49 1.14577 -1.72278 0
M  V30 62071 C 5956.91 1.83483 -0.444928 0
M  V30 62072 O 5956.26 1.72999 0.581184 0
M  V30 62073 C 5956.32 2.18745 -2.87807 0
M  V30 62074 O 5956.04 1.52648 -4.10646 0
M  V30 62075 C 5957.54 3.07927 -3.18898 0
M  V30 62076 H 5954.76 0.343198 -0.57659 0
M  V30 62077 H 5957.3 0.444079 -1.9962 0
M  V30 62078 H 5955.46 2.84537 -2.62902 0
M  V30 62079 H 5955.87 2.21932 -4.75233 0
M  V30 62080 H 5957.34 3.7703 -4.03178 0
M  V30 62081 H 5957.82 3.71905 -2.33631 0
M  V30 62082 H 5958.43 2.47771 -3.45673 0
M  V30 62083 N 5956.74 1.44041 0.639523 0
M  V30 62084 C 5957.97 1.50068 1.43159 0
M  V30 62085 C 5958.39 0.123972 1.87691 0
M  V30 62086 O 5957.75 -0.885136 1.58225 0
M  V30 62087 C 5957.8 2.46314 2.63366 0
M  V30 62088 O 5956.9 1.95887 3.62908 0
M  V30 62089 H 5956.24 0.507067 0.428695 0
M  V30 62090 H 5958.77 1.89093 0.781349 0
M  V30 62091 H 5958.78 2.64073 3.11014 0
M  V30 62092 H 5957.46 3.46317 2.30298 0
M  V30 62093 H 5956.04 1.87855 3.22126 0
M  V30 62094 N 5958.22 -0.879161 1.308 0
M  V30 62095 C 5959.17 -1.98549 1.17674 0
M  V30 62096 C 5960.14 -1.65974 0.0647815 0
M  V30 62097 O 5961.32 -1.89335 0.236008 0
M  V30 62098 C 5958.46 -3.33677 0.880551 0
M  V30 62099 C 5957.58 -3.78906 2.07495 0
M  V30 62100 C 5956.71 -5.02708 1.71635 0
M  V30 62101 C 5955.75 -5.4036 2.87536 0
M  V30 62102 N 5954.89 -6.55343 2.51933 0
M  V30 62103 H 5959.73 -2.09107 2.12316 0
M  V30 62104 H 5957.26 -1.02379 1.05627 0
M  V30 62105 H 5959.22 -4.11464 0.689423 0
M  V30 62106 H 5957.85 -3.22787 -0.0290149 0
M  V30 62107 H 5956.9 -2.96978 2.37714 0
M  V30 62108 H 5958.22 -4.02747 2.94273 0
M  V30 62109 H 5957.37 -5.88136 1.48931 0
M  V30 62110 H 5956.11 -4.80751 0.82035 0
M  V30 62111 H 5955.11 -4.53455 3.10899 0
M  V30 62112 H 5956.34 -5.64288 3.77831 0
M  V30 62113 H 5954.29 -6.3495 1.64845 0
M  V30 62114 H 5954.2 -6.79082 3.32241 0
M  V30 62115 H 5955.47 -7.43988 2.32599 0
M  V30 62116 N 5959.7 -1.1361 -1.09227 0
M  V30 62117 C 5960.65 -0.815355 -2.15918 0
M  V30 62118 C 5961.62 0.223443 -1.6459 0
M  V30 62119 O 5962.8 0.0952312 -1.90562 0
M  V30 62120 C 5959.94 -0.289776 -3.43881 0
M  V30 62121 C 5959.05 -1.38788 -4.09099 0
M  V30 62122 C 5958.19 -0.820422 -5.24826 0
M  V30 62123 C 5957.23 -1.89678 -5.8197 0
M  V30 62124 N 5956.37 -1.34712 -6.89055 0
M  V30 62125 H 5961.21 -1.72922 -2.42697 0
M  V30 62126 H 5958.74 -0.863143 -1.19114 0
M  V30 62127 H 5960.7 0.0330932 -4.17187 0
M  V30 62128 H 5959.33 0.587217 -3.17414 0
M  V30 62129 H 5958.38 -1.8273 -3.33637 0
M  V30 62130 H 5959.69 -2.2013 -4.47598 0
M  V30 62131 H 5958.85 -0.448958 -6.05037 0
M  V30 62132 H 5957.59 0.0240547 -4.87694 0
M  V30 62133 H 5956.59 -2.27729 -5.00419 0
M  V30 62134 H 5957.82 -2.7447 -6.21163 0
M  V30 62135 H 5955.76 -0.524683 -6.53898 0
M  V30 62136 H 5955.68 -2.09701 -7.26334 0
M  V30 62137 H 5956.95 -1.00329 -7.73016 0
M  V30 62138 N 5961.18 1.27241 -0.929923 0
M  V30 62139 C 5962.13 2.28753 -0.421283 0
M  V30 62140 C 5963.12 1.6199 0.495553 0
M  V30 62141 O 5964.33 1.7605 0.375009 0
M  V30 62142 H 5960.7 0.742736 -0.117672 0
M  V30 62143 H 5962.67 2.69066 -1.2902 0
M  V30 62144 C 5961.42 3.46328 0.308615 0
M  V30 62145 H 5960.74 3.97916 -0.387692 0
M  V30 62146 H 5962.18 4.1931 0.628905 0
M  V30 62147 C 5960.64 3.00541 1.5224 0
M  V30 62148 O 5961.17 3.04404 2.62108 0
M  V30 62149 N 5959.38 2.56012 1.37501 0
M  V30 62150 H 5958.93 2.53067 0.481126 0
M  V30 62151 H 5958.88 2.25738 2.18837 0
M  V30 62152 N 5962.66 0.695678 1.41415 0
M  V30 62153 C 5963.6 0.0304194 2.3078 0
M  V30 62154 C 5964.57 -0.771166 1.47113 0
M  V30 62155 O 5965.76 -0.739177 1.759 0
M  V30 62156 C 5962.9 -0.899917 3.3316 0
M  V30 62157 C 5962.01 -0.0899343 4.31906 0
M  V30 62158 C 5961.15 -1.01792 5.21356 0
M  V30 62159 C 5960.18 -0.200853 6.1177 0
M  V30 62160 N 5959.32 -1.08265 6.93702 0
M  V30 62161 H 5964.16 0.798249 2.8711 0
M  V30 62162 H 5961.7 0.40536 1.41405 0
M  V30 62163 H 5963.66 -1.45335 3.91067 0
M  V30 62164 H 5962.29 -1.63414 2.7838 0
M  V30 62165 H 5961.34 0.580422 3.75946 0
M  V30 62166 H 5962.65 0.54351 4.9583 0
M  V30 62167 H 5961.8 -1.64058 5.84097 0
M  V30 62168 H 5960.54 -1.68522 4.57659 0
M  V30 62169 H 5959.55 0.434879 5.48077 0
M  V30 62170 H 5960.77 0.462654 6.77522 0
M  V30 62171 H 5958.72 -1.73597 6.32614 0
M  V30 62172 H 5958.64 -0.504781 7.54313 0
M  V30 62173 H 5959.9 -1.69212 7.60912 0
M  V30 62174 N 5964.13 -1.51321 0.440437 0
M  V30 62175 C 5965.41 -1.94722 -0.18508 0
M  V30 62176 C 5965.79 -1.37927 -1.5981 0
M  V30 62177 O 5965.14 -0.567605 -2.21338 0
M  V30 62178 C 5965.35 -3.48635 -0.159658 0
M  V30 62179 C 5966.7 -4.23039 -0.363705 0
M  V30 62180 O 5967.72 -3.55406 -0.237634 0
M  V30 62181 O 5966.58 -5.43029 -0.614946 0
M  V30 62182 H 5963.67 -0.816988 -0.128296 0
M  V30 62183 H 5966.22 -1.62209 0.498638 0
M  V30 62184 H 5964.99 -3.82437 0.828086 0
M  V30 62185 H 5964.61 -3.87599 -0.886153 0
M  V30 62186 N 5965.61 -0.171903 -1.5666 0
M  V30 62187 C 5966.86 0.4736 -1.97192 0
M  V30 62188 C 5967.19 1.62856 -1.0579 0
M  V30 62189 O 5966.47 1.94216 -0.105152 0
M  V30 62190 C 5966.75 0.956012 -3.47178 0
M  V30 62191 C 5966.6 -0.199165 -4.49359 0
M  V30 62192 C 5967.92 1.82947 -4.00273 0
M  V30 62193 H 5965.04 0.170678 -0.716964 0
M  V30 62194 H 5967.68 -0.258156 -1.88238 0
M  V30 62195 H 5965.83 1.57956 -3.5494 0
M  V30 62196 H 5967.5 -0.836268 -4.53657 0
M  V30 62197 H 5965.75 -0.854569 -4.25299 0
M  V30 62198 H 5966.42 0.18051 -5.51705 0
M  V30 62199 H 5968.89 1.3038 -3.95146 0
M  V30 62200 H 5967.77 2.13604 -5.05633 0
M  V30 62201 H 5968.03 2.77545 -3.44124 0
M  V30 62202 N 5967.09 1.57271 0.101818 0
M  V30 62203 C 5968.5 1.74755 0.657086 0
M  V30 62204 C 5968.85 0.793115 1.79455 0
M  V30 62205 O 5967.98 -0.0299798 2.16379 0
M  V30 62206 C 5968.57 3.16884 1.19874 0
M  V30 62207 C 5967.13 3.35816 1.70013 0
M  V30 62208 C 5966.28 2.70577 0.606911 0
M  V30 62209 H 5969.23 1.58213 -0.124213 0
M  V30 62210 H 5969.25 3.19385 2.06818 0
M  V30 62211 H 5968.76 3.86326 0.370654 0
M  V30 62212 H 5966.86 2.71443 2.55244 0
M  V30 62213 H 5966.98 4.44092 1.79775 0
M  V30 62214 H 5965.34 2.32288 1.04473 0
M  V30 62215 H 5966.12 3.42654 -0.21048 0
M  V30 62216 N 5968.57 -0.372467 1.53135 0
M  V30 62217 C 5969.81 -1.11748 1.69234 0
M  V30 62218 C 5970.15 -1.89165 0.439332 0
M  V30 62219 O 5969.42 -1.86166 -0.563252 0
M  V30 62220 C 5969.7 -2.08231 2.93789 0
M  V30 62221 C 5969.56 -1.34469 4.2923 0
M  V30 62222 C 5970.88 -3.08446 3.13925 0
M  V30 62223 H 5968 -0.404876 0.615828 0
M  V30 62224 H 5970.64 -0.399036 1.85762 0
M  V30 62225 H 5968.79 -2.69497 2.79828 0
M  V30 62226 H 5970.46 -0.7604 4.5499 0
M  V30 62227 H 5968.7 -0.646523 4.28955 0
M  V30 62228 H 5969.37 -2.05053 5.12501 0
M  V30 62229 H 5971.85 -2.5728 3.27026 0
M  V30 62230 H 5970.73 -3.73184 4.02523 0
M  V30 62231 H 5970.99 -3.78235 2.28891 0
M  V30 62232 N 5970.05 -1.44378 -0.631875 0
M  V30 62233 C 5970.96 -1.53676 -1.77259 0
M  V30 62234 C 5971.97 -0.422484 -1.68793 0
M  V30 62235 O 5973.15 -0.679722 -1.89583 0
M  V30 62236 C 5970.21 -1.47754 -3.13639 0
M  V30 62237 C 5969.27 -2.70027 -3.33742 0
M  V30 62238 C 5968.51 -2.64378 -4.63616 0
M  V30 62239 O 5968.73 -1.70339 -5.44372 0
M  V30 62240 O 5967.66 -3.55218 -4.85905 0
M  V30 62241 H 5971.49 -2.50046 -1.72368 0
M  V30 62242 H 5969.07 -1.26617 -0.793007 0
M  V30 62243 H 5970.96 -1.46972 -3.9494 0
M  V30 62244 H 5969.63 -0.545277 -3.19074 0
M  V30 62245 H 5968.54 -2.76378 -2.52123 0
M  V30 62246 H 5969.87 -3.62298 -3.33168 0
M  V30 62247 N 5971.52 0.872212 -1.31264 0
M  V30 62248 C 5972.49 1.96077 -1.18687 0
M  V30 62249 C 5973.49 1.60391 -0.114577 0
M  V30 62250 O 5974.68 1.70362 -0.363673 0
M  V30 62251 C 5971.81 3.30859 -0.8213 0
M  V30 62252 H 5973 2.08659 -2.1541 0
M  V30 62253 H 5970.56 1.06022 -1.14843 0
M  V30 62254 H 5971.29 3.23976 0.144866 0
M  V30 62255 H 5971.08 3.58132 -1.59637 0
M  V30 62256 H 5972.57 4.10679 -0.757135 0
M  V30 62257 N 5973 1.14188 1.08623 0
M  V30 62258 C 5973.93 0.849531 2.17498 0
M  V30 62259 C 5974.91 -0.194557 1.68984 0
M  V30 62260 O 5976.1 -0.0517074 1.94131 0
M  V30 62261 C 5973.23 0.323806 3.45787 0
M  V30 62262 C 5972.18 1.30309 4.07681 0
M  V30 62263 C 5971.51 0.636762 5.30895 0
M  V30 62264 C 5972.81 2.66457 4.49219 0
M  V30 62265 H 5974.5 1.75996 2.4221 0
M  V30 62266 H 5972.05 0.847636 1.16409 0
M  V30 62267 H 5974 0.106902 4.21264 0
M  V30 62268 H 5972.73 -0.622037 3.20622 0
M  V30 62269 H 5971.38 1.50613 3.34233 0
M  V30 62270 H 5971.03 -0.314818 5.02014 0
M  V30 62271 H 5970.73 1.29018 5.73261 0
M  V30 62272 H 5972.26 0.429331 6.09089 0
M  V30 62273 H 5973.67 2.50073 5.15884 0
M  V30 62274 H 5972.07 3.28051 5.02496 0
M  V30 62275 H 5973.14 3.23499 3.61215 0
M  V30 62276 N 5974.48 -1.26746 0.936658 0
M  V30 62277 C 5975.71 -1.98057 0.598427 0
M  V30 62278 C 5976.12 -1.69793 -0.825586 0
M  V30 62279 O 5975.48 -0.963569 -1.54989 0
M  V30 62280 C 5975.53 -3.51945 0.825643 0
M  V30 62281 O 5975.25 -3.79224 2.19364 0
M  V30 62282 C 5976.75 -4.40501 0.497341 0
M  V30 62283 H 5973.97 -0.631818 0.225937 0
M  V30 62284 H 5976.52 -1.61374 1.25613 0
M  V30 62285 H 5974.67 -3.86805 0.214615 0
M  V30 62286 H 5975.09 -4.73774 2.2503 0
M  V30 62287 H 5976.56 -5.47454 0.706972 0
M  V30 62288 H 5977.04 -4.35518 -0.567492 0
M  V30 62289 H 5977.64 -4.11177 1.0869 0
M  V30 62290 N 5975.96 -0.703167 -1.41044 0
M  V30 62291 C 5977.19 -0.246624 -2.05425 0
M  V30 62292 C 5977.6 1.10698 -1.52942 0
M  V30 62293 O 5976.96 1.69327 -0.680792 0
M  V30 62294 C 5977.01 -0.20408 -3.60923 0
M  V30 62295 O 5976.73 -1.50423 -4.11466 0
M  V30 62296 C 5978.23 0.27253 -4.42461 0
M  V30 62297 H 5975.45 -0.11318 -0.661386 0
M  V30 62298 H 5978 -0.957886 -1.80679 0
M  V30 62299 H 5976.15 0.458058 -3.84682 0
M  V30 62300 H 5976.56 -1.3964 -5.0557 0
M  V30 62301 H 5978.04 0.251164 -5.51428 0
M  V30 62302 H 5978.52 1.31267 -4.19125 0
M  V30 62303 H 5979.12 -0.358882 -4.23783 0
M  V30 62304 N 5977.44 1.51085 -0.448455 0
M  V30 62305 C 5978.68 2.02477 0.11444 0
M  V30 62306 C 5979.02 1.33131 1.41386 0
M  V30 62307 O 5978.29 0.449732 1.89229 0
M  V30 62308 C 5978.57 3.5866 0.321716 0
M  V30 62309 C 5978.43 4.38608 -0.99713 0
M  V30 62310 C 5979.75 4.26477 1.08652 0
M  V30 62311 H 5976.86 0.735907 0.0401172 0
M  V30 62312 H 5979.51 1.8062 -0.589627 0
M  V30 62313 H 5977.66 3.77415 0.921437 0
M  V30 62314 H 5979.33 4.31478 -1.63169 0
M  V30 62315 H 5977.57 4.03249 -1.59914 0
M  V30 62316 H 5978.24 5.46084 -0.806009 0
M  V30 62317 H 5980.72 4.1206 0.578414 0
M  V30 62318 H 5979.59 5.35615 1.20033 0
M  V30 62319 H 5979.86 3.88094 2.11745 0
M  V30 62320 N 5978.91 0.180209 1.56566 0
M  V30 62321 C 5979.86 -0.746589 2.18391 0
M  V30 62322 C 5980.83 -1.22054 1.12659 0
M  V30 62323 O 5982.02 -1.28711 1.40848 0
M  V30 62324 C 5979.16 -1.96678 2.8357 0
M  V30 62325 C 5978.27 -1.53558 4.03787 0
M  V30 62326 C 5977.4 -2.71012 4.56865 0
M  V30 62327 C 5976.44 -2.24425 5.69473 0
M  V30 62328 N 5975.58 -3.35004 6.17023 0
M  V30 62329 H 5980.42 -0.212602 2.97241 0
M  V30 62330 H 5977.96 -0.0932044 1.46804 0
M  V30 62331 H 5979.92 -2.68258 3.19521 0
M  V30 62332 H 5978.55 -2.47432 2.07309 0
M  V30 62333 H 5977.6 -0.716192 3.73597 0
M  V30 62334 H 5978.91 -1.15368 4.85275 0
M  V30 62335 H 5978.06 -3.50736 4.95045 0
M  V30 62336 H 5976.8 -3.12467 3.74454 0
M  V30 62337 H 5975.81 -1.43151 5.30837 0
M  V30 62338 H 5977.03 -1.84018 6.53693 0
M  V30 62339 H 5974.98 -3.76018 5.37537 0
M  V30 62340 H 5974.9 -3.00935 6.93523 0
M  V30 62341 H 5976.16 -4.14986 6.59853 0
M  V30 62342 N 5980.39 -1.57323 -0.0934766 0
M  V30 62343 C 5981.8 -1.75101 -0.647809 0
M  V30 62344 C 5982.15 -0.802621 -1.79032 0
M  V30 62345 O 5981.28 0.0185043 -2.16392 0
M  V30 62346 C 5981.87 -3.17516 -1.18192 0
M  V30 62347 C 5980.43 -3.36713 -1.6823 0
M  V30 62348 C 5979.58 -2.70895 -0.592554 0
M  V30 62349 H 5982.53 -1.58145 0.132602 0
M  V30 62350 H 5982.55 -3.20477 -2.05121 0
M  V30 62351 H 5982.06 -3.86517 -0.350161 0
M  V30 62352 H 5980.17 -2.72793 -2.53801 0
M  V30 62353 H 5980.28 -4.45039 -1.77418 0
M  V30 62354 H 5978.64 -2.32838 -1.03239 0
M  V30 62355 H 5979.43 -3.42538 0.228649 0
M  V30 62356 N 5981.87 0.364341 -1.53331 0
M  V30 62357 C 5983.1 1.1258 -1.73232 0
M  V30 62358 C 5983.51 1.83481 -0.461679 0
M  V30 62359 O 5982.85 1.74461 0.575233 0
M  V30 62360 C 5982.91 2.1993 -2.84378 0
M  V30 62361 C 5982.58 1.68785 -4.24689 0
M  V30 62362 C 5983.57 1.15127 -5.06993 0
M  V30 62363 C 5981.26 1.74261 -4.71103 0
M  V30 62364 C 5983.25 0.676224 -6.33803 0
M  V30 62365 C 5980.94 1.26368 -5.97892 0
M  V30 62366 C 5981.94 0.731393 -6.79073 0
M  V30 62367 O 5981.63 0.259543 -8.03481 0
M  V30 62368 H 5981.36 0.342493 -0.582816 0
M  V30 62369 H 5983.91 0.428761 -2.00875 0
M  V30 62370 H 5982.14 2.93131 -2.52212 0
M  V30 62371 H 5983.83 2.81479 -2.92446 0
M  V30 62372 H 5984.6 1.10234 -4.72306 0
M  V30 62373 H 5980.48 2.14633 -4.07987 0
M  V30 62374 H 5984.02 0.260082 -6.97115 0
M  V30 62375 H 5979.92 1.30955 -6.32077 0
M  V30 62376 H 5980.69 0.378757 -8.17623 0
M  V30 62377 N 5983.35 1.44711 0.624209 0
M  V30 62378 C 5984.59 1.49385 1.39512 0
M  V30 62379 C 5984.95 0.125788 1.91588 0
M  V30 62380 O 5986.15 0.0472031 2.68759 0
M  V30 62381 C 5984.42 2.53014 2.52426 0
M  V30 62382 S 5985.98 2.76787 3.40491 0
M  V30 62383 H 5982.8 0.528283 0.475856 0
M  V30 62384 H 5985.4 1.81682 0.721943 0
M  V30 62385 H 5984.11 3.51107 2.1249 0
M  V30 62386 H 5983.64 2.22313 3.24562 0
M  V30 62387 H 5985.65 2.08907 4.50081 0
M  V30 62388 N 5984.83 -0.865239 1.31725 0
M  V30 62389 C 5985.77 -1.99429 1.19711 0
M  V30 62390 C 5986.77 -1.69079 0.104315 0
M  V30 62391 O 5987.97 -1.78016 0.266529 0
M  V30 62392 H 5984.35 -0.654231 0.370791 0
M  V30 62393 H 5986.32 -2.06691 2.15224 0
M  V30 62394 C 5985.07 -3.35139 0.926145 0
M  V30 62395 H 5984.39 -3.59016 1.75919 0
M  V30 62396 H 5985.83 -4.14719 0.882285 0
M  V30 62397 C 5984.29 -3.3485 -0.371123 0
M  V30 62398 O 5984.82 -3.77017 -1.38641 0
M  V30 62399 N 5983.03 -2.8798 -0.38934 0
M  V30 62400 H 5982.57 -2.5386 0.437382 0
M  V30 62401 H 5982.53 -2.88169 -1.25721 0
M  V30 62402 N 5986.31 -1.14762 -1.08016 0
M  V30 62403 C 5987.22 -0.852011 -2.18582 0
M  V30 62404 C 5988.23 0.16908 -1.73177 0
M  V30 62405 O 5989.41 -0.00337194 -2.014 0
M  V30 62406 C 5986.47 -0.338098 -3.45048 0
M  V30 62407 C 5985.53 -1.42224 -4.05056 0
M  V30 62408 C 5984.77 -0.932758 -5.25486 0
M  V30 62409 O 5984.99 0.224256 -5.69959 0
M  V30 62410 O 5983.92 -1.7135 -5.76995 0
M  V30 62411 H 5987.75 -1.77614 -2.46347 0
M  V30 62412 H 5985.33 -0.9262 -1.17226 0
M  V30 62413 H 5987.22 -0.0576215 -4.21361 0
M  V30 62414 H 5985.89 0.55825 -3.1885 0
M  V30 62415 H 5984.8 -1.75623 -3.30314 0
M  V30 62416 H 5986.13 -2.29326 -4.35512 0
M  V30 62417 N 5987.78 1.26247 -0.943366 0
M  V30 62418 C 5989.03 1.92944 -0.587832 0
M  V30 62419 C 5989.35 1.74808 0.877586 0
M  V30 62420 O 5990.55 2.3598 1.34259 0
M  V30 62421 C 5989.01 3.45711 -1.00059 0
M  V30 62422 C 5988.62 3.72578 -2.48777 0
M  V30 62423 C 5990.36 4.184 -0.717052 0
M  V30 62424 C 5988.27 5.18795 -2.83911 0
M  V30 62425 H 5987.2 0.722358 -0.216136 0
M  V30 62426 H 5989.85 1.43291 -1.1463 0
M  V30 62427 H 5988.23 3.94262 -0.37063 0
M  V30 62428 H 5989.4 3.34724 -3.16696 0
M  V30 62429 H 5987.72 3.13126 -2.74483 0
M  V30 62430 H 5990.32 5.26087 -0.955854 0
M  V30 62431 H 5990.66 4.14858 0.34625 0
M  V30 62432 H 5991.19 3.75722 -1.30683 0
M  V30 62433 H 5987.93 5.2744 -3.89213 0
M  V30 62434 H 5987.45 5.57737 -2.20656 0
M  V30 62435 H 5989.13 5.86818 -2.72494 0
M  V30 62436 N 5989.26 0.710637 1.40669 0
M  V30 62437 C 5990.21 0.0314331 2.27978 0
M  V30 62438 C 5991.2 -0.737593 1.42998 0
M  V30 62439 O 5992.39 -0.610607 1.66134 0
M  V30 62440 C 5989.52 -0.893213 3.31476 0
M  V30 62441 C 5988.6 -0.119636 4.23931 0
M  V30 62442 N 5988.99 0.894516 4.97827 0
M  V30 62443 C 5987.29 -0.352921 4.44601 0
M  V30 62444 C 5987.99 1.3589 5.65605 0
M  V30 62445 N 5986.97 0.681976 5.39305 0
M  V30 62446 H 5990.77 0.808782 2.82553 0
M  V30 62447 H 5988.28 0.542788 1.53061 0
M  V30 62448 H 5990.28 -1.39507 3.92865 0
M  V30 62449 H 5988.94 -1.66999 2.78462 0
M  V30 62450 H 5989.95 1.27522 5.01955 0
M  V30 62451 H 5986.63 -1.10641 4.02573 0
M  V30 62452 H 5988.02 2.2013 6.34817 0
M  V30 62453 N 5990.74 -1.50845 0.456461 0
M  V30 62454 C 5991.7 -2.26756 -0.3338 0
M  V30 62455 C 5992.7 -1.3095 -0.933201 0
M  V30 62456 O 5993.89 -1.54502 -0.804662 0
M  V30 62457 C 5991.02 -3.07383 -1.47406 0
M  V30 62458 H 5992.22 -2.9806 0.331739 0
M  V30 62459 H 5989.77 -1.54881 0.210122 0
M  V30 62460 H 5990.51 -2.40542 -2.17509 0
M  V30 62461 H 5990.29 -3.77773 -1.05022 0
M  V30 62462 H 5991.78 -3.64833 -2.03191 0
M  V30 62463 N 5992.22 -0.188509 -1.56469 0
M  V30 62464 C 5993.15 0.76673 -2.15995 0
M  V30 62465 C 5994.16 1.18149 -1.12002 0
M  V30 62466 O 5995.35 1.11837 -1.39122 0
M  V30 62467 C 5992.45 2.04585 -2.70182 0
M  V30 62468 C 5991.62 1.79193 -3.9901 0
M  V30 62469 C 5990.68 2.91488 -4.38088 0
M  V30 62470 O 5989.71 2.6138 -5.05638 0
M  V30 62471 N 5990.91 4.19688 -4.01052 0
M  V30 62472 H 5993.68 0.257724 -2.9859 0
M  V30 62473 H 5991.24 -0.00631337 -1.61899 0
M  V30 62474 H 5993.23 2.78836 -2.93313 0
M  V30 62475 H 5991.8 2.46626 -1.92079 0
M  V30 62476 H 5991.02 0.887555 -3.84078 0
M  V30 62477 H 5992.31 1.59617 -4.83115 0
M  V30 62478 H 5991.71 4.47004 -3.46704 0
M  V30 62479 H 5990.26 4.90587 -4.29148 0
M  V30 62480 N 5993.7 1.5737 0.0851321 0
M  V30 62481 C 5994.66 2.01793 1.08684 0
M  V30 62482 C 5995.66 0.912918 1.32372 0
M  V30 62483 O 5996.85 1.17815 1.28317 0
M  V30 62484 C 5993.98 2.38716 2.43367 0
M  V30 62485 H 5995.17 2.91514 0.704256 0
M  V30 62486 H 5992.73 1.52766 0.330475 0
M  V30 62487 H 5993.46 1.5198 2.86483 0
M  V30 62488 H 5993.25 3.19339 2.27519 0
M  V30 62489 H 5994.74 2.73708 3.15395 0
M  V30 62490 N 5995.17 -0.356204 1.53522 0
M  V30 62491 C 5996.11 -1.45715 1.76917 0
M  V30 62492 C 5997.12 -1.49255 0.650143 0
M  V30 62493 O 5998.31 -1.52565 0.92661 0
M  V30 62494 C 5995.41 -2.84438 1.84251 0
M  V30 62495 C 5994.58 -3.04486 3.14018 0
M  V30 62496 C 5993.64 -4.23376 3.12472 0
M  V30 62497 O 5992.67 -4.181 3.8624 0
M  V30 62498 N 5993.87 -5.3127 2.3395 0
M  V30 62499 H 5996.63 -1.26022 2.71917 0
M  V30 62500 H 5994.19 -0.545998 1.52415 0
M  V30 62501 H 5996.19 -3.62126 1.80684 0
M  V30 62502 H 5994.76 -2.97334 0.964944 0
M  V30 62503 H 5993.98 -2.14376 3.30812 0
M  V30 62504 H 5995.26 -3.14755 3.99758 0
M  V30 62505 H 5994.66 -5.38422 1.73546 0
M  V30 62506 H 5993.22 -6.075 2.36192 0
M  V30 62507 N 5996.65 -1.4504 -0.616526 0
M  V30 62508 C 5997.58 -1.55864 -1.73863 0
M  V30 62509 C 5998.56 -0.410715 -1.65067 0
M  V30 62510 O 5999.75 -0.632717 -1.83604 0
M  V30 62511 C 5996.88 -1.51646 -3.12443 0
M  V30 62512 C 5995.83 -2.65065 -3.36042 0
M  V30 62513 C 5995.16 -2.459 -4.74802 0
M  V30 62514 C 5996.46 -4.07132 -3.27171 0
M  V30 62515 H 5998.15 -2.4979 -1.65062 0
M  V30 62516 H 5995.7 -1.20219 -0.792682 0
M  V30 62517 H 5997.65 -1.57817 -3.90732 0
M  V30 62518 H 5996.37 -0.542455 -3.22064 0
M  V30 62519 H 5995.03 -2.58308 -2.6014 0
M  V30 62520 H 5994.68 -1.46658 -4.81145 0
M  V30 62521 H 5994.38 -3.21952 -4.91549 0
M  V30 62522 H 5995.91 -2.53911 -5.55303 0
M  V30 62523 H 5997.32 -4.1518 -3.95346 0
M  V30 62524 H 5995.72 -4.83504 -3.55449 0
M  V30 62525 H 5996.79 -4.29671 -2.24747 0
M  V30 62526 N 5998.13 0.858241 -1.32182 0
M  V30 62527 C 5999.38 1.6144 -1.23729 0
M  V30 62528 C 5999.73 1.91359 0.199886 0
M  V30 62529 O 5999.02 1.54243 1.13665 0
M  V30 62530 C 5999.22 2.94384 -2.02664 0
M  V30 62531 C 5999.05 2.77447 -3.53911 0
M  V30 62532 C 5997.82 2.76018 -4.23252 0
M  V30 62533 C 6000.01 2.51462 -4.48633 0
M  V30 62534 N 5998 2.50254 -5.60577 0
M  V30 62535 C 5999.37 2.35072 -5.73708 0
M  V30 62536 C 6001.42 2.36902 -4.37929 0
M  V30 62537 C 6000.13 2.05599 -6.8929 0
M  V30 62538 C 6002.15 2.08819 -5.53307 0
M  V30 62539 C 6001.51 1.93226 -6.7738 0
M  V30 62540 H 5997.61 0.594606 -0.507906 0
M  V30 62541 H 6000.2 1.00915 -1.66506 0
M  V30 62542 H 5998.37 3.52893 -1.62238 0
M  V30 62543 H 6000.1 3.59355 -1.86135 0
M  V30 62544 H 5996.85 2.88826 -3.75335 0
M  V30 62545 H 5997.28 2.4031 -6.32914 0
M  V30 62546 H 6001.92 2.47679 -3.42659 0
M  V30 62547 H 5999.64 1.93559 -7.84577 0
M  V30 62548 H 6003.22 1.98336 -5.4695 0
M  V30 62549 H 6002.1 1.71805 -7.65149 0
M  V30 62550 N 5999.61 1.15334 1.07405 0
M  V30 62551 C 6000.54 0.872552 2.16584 0
M  V30 62552 C 6001.52 -0.176623 1.69181 0
M  V30 62553 O 6002.7 -0.0311143 1.94175 0
M  V30 62554 C 5999.83 0.360464 3.45424 0
M  V30 62555 C 5998.79 1.34625 4.06276 0
M  V30 62556 C 5998.11 0.693035 5.3019 0
M  V30 62557 C 5999.41 2.71206 4.46368 0
M  V30 62558 H 6001.11 1.78555 2.4033 0
M  V30 62559 H 5998.65 0.859935 1.15504 0
M  V30 62560 H 6000.61 0.151577 4.21127 0
M  V30 62561 H 5999.33 -0.587996 3.21263 0
M  V30 62562 H 5997.99 1.54149 3.32616 0
M  V30 62563 H 5997.64 -0.261555 5.0232 0
M  V30 62564 H 5997.34 1.35091 5.7186 0
M  V30 62565 H 5998.86 0.493909 6.08599 0
M  V30 62566 H 6000.28 2.55531 5.13203 0
M  V30 62567 H 5998.67 3.33362 4.98989 0
M  V30 62568 H 5999.74 3.27312 3.57764 0
M  V30 62569 N 6001.09 -1.25745 0.950048 0
M  V30 62570 C 6002.03 -2.26059 0.465389 0
M  V30 62571 C 6003 -1.59023 -0.479686 0
M  V30 62572 O 6004.19 -1.86689 -0.393945 0
M  V30 62573 C 6001.33 -3.44156 -0.255025 0
M  V30 62574 C 6000.44 -4.25843 0.726754 0
M  V30 62575 C 5999.58 -5.31198 -0.0157562 0
M  V30 62576 C 5998.62 -6.04568 0.957259 0
M  V30 62577 N 5997.75 -7.01669 0.245922 0
M  V30 62578 H 6002.59 -2.66887 1.32573 0
M  V30 62579 H 6000.13 -1.31214 0.664928 0
M  V30 62580 H 6002.09 -4.11467 -0.689236 0
M  V30 62581 H 6000.72 -3.04217 -1.07944 0
M  V30 62582 H 5999.77 -3.58237 1.27946 0
M  V30 62583 H 6001.08 -4.76664 1.46945 0
M  V30 62584 H 6000.24 -6.04563 -0.508824 0
M  V30 62585 H 5998.97 -4.81238 -0.791273 0
M  V30 62586 H 5997.98 -5.30023 1.46137 0
M  V30 62587 H 5999.2 -6.56617 1.73293 0
M  V30 62588 H 5997.15 -6.54007 -0.51094 0
M  V30 62589 H 5997.07 -7.50285 0.927791 0
M  V30 62590 H 5998.34 -7.79173 -0.22576 0
M  V30 62591 N 6002.56 -0.718087 -1.4029 0
M  V30 62592 C 6003.98 -0.391903 -1.54714 0
M  V30 62593 C 6004.18 1.09905 -1.68888 0
M  V30 62594 O 6003.24 1.88512 -1.67987 0
M  V30 62595 C 6004.55 -1.16014 -2.77419 0
M  V30 62596 C 6006.1 -1.1467 -2.91239 0
M  V30 62597 C 6006.57 -1.89715 -4.1686 0
M  V30 62598 N 6008.06 -1.86796 -4.23865 0
M  V30 62599 C 6008.8 -2.41684 -5.19977 0
M  V30 62600 N 6008.29 -3.05138 -6.21983 0
M  V30 62601 N 6010.09 -2.31812 -5.12074 0
M  V30 62602 H 6002.24 -1.68481 -1.29336 0
M  V30 62603 H 6004.5 -0.71227 -0.6256 0
M  V30 62604 H 6004.21 -2.21445 -2.73231 0
M  V30 62605 H 6004.08 -0.75341 -3.69599 0
M  V30 62606 H 6006.47 -0.100581 -2.94929 0
M  V30 62607 H 6006.55 -1.59267 -2.00169 0
M  V30 62608 H 6006.19 -2.94318 -4.13932 0
M  V30 62609 H 6006.12 -1.42535 -5.06943 0
M  V30 62610 H 6008.61 -1.40553 -3.50789 0
M  V30 62611 H 6008.93 -3.4453 -6.91751 0
M  V30 62612 H 6007.27 -3.09223 -6.2242 0
M  V30 62613 H 6010.46 -1.81894 -4.31314 0
M  V30 62614 H 6010.64 -2.74889 -5.86805 0
M  V30 62615 N 6004.04 1.50601 -0.464455 0
M  V30 62616 C 6005.32 1.94992 0.154078 0
M  V30 62617 C 6005.7 1.40452 1.57596 0
M  V30 62618 O 6005.05 0.602746 2.20407 0
M  V30 62619 C 6005.26 3.48844 0.104173 0
M  V30 62620 C 6006.61 4.23565 0.296357 0
M  V30 62621 O 6007.63 3.5574 0.181062 0
M  V30 62622 O 6006.49 5.43939 0.528477 0
M  V30 62623 H 6003.58 0.818926 0.115282 0
M  V30 62624 H 6006.13 1.61395 -0.524381 0
M  V30 62625 H 6004.9 3.81072 -0.888824 0
M  V30 62626 H 6004.52 3.8896 0.824378 0
M  V30 62627 N 6005.52 0.196805 1.56366 0
M  V30 62628 C 6006.93 -0.31549 1.84015 0
M  V30 62629 C 6007.28 -1.61263 1.11752 0
M  V30 62630 O 6006.41 -2.13057 0.378899 0
M  V30 62631 C 6007 -0.57919 3.33813 0
M  V30 62632 C 6005.56 -1.03585 3.61866 0
M  V30 62633 C 6004.71 -0.0853871 2.77169 0
M  V30 62634 H 6007.66 0.420553 1.53026 0
M  V30 62635 H 6007.68 -1.42829 3.52676 0
M  V30 62636 H 6007.19 0.365061 3.86379 0
M  V30 62637 H 6005.29 -1.99432 3.14734 0
M  V30 62638 H 6005.41 -0.927382 4.70039 0
M  V30 62639 H 6003.77 -0.587593 2.47829 0
M  V30 62640 H 6004.55 0.853338 3.32525 0
M  V30 62641 N 6007 -1.57413 -0.0767852 0
M  V30 62642 C 6007.95 -2.03344 -1.09178 0
M  V30 62643 C 6008.92 -0.913122 -1.38749 0
M  V30 62644 O 6010.1 -1.18043 -1.49901 0
M  V30 62645 C 6007.24 -2.47813 -2.40172 0
M  V30 62646 C 6006.35 -3.73442 -2.17174 0
M  V30 62647 C 6005.49 -4.06715 -3.41697 0
M  V30 62648 C 6004.53 -5.25399 -3.14041 0
M  V30 62649 N 6003.66 -5.54334 -4.3088 0
M  V30 62650 H 6008.5 -2.89827 -0.693121 0
M  V30 62651 H 6006.04 -1.43335 -0.330685 0
M  V30 62652 H 6008 -2.71646 -3.16645 0
M  V30 62653 H 6006.63 -1.64314 -2.7785 0
M  V30 62654 H 6005.68 -3.56979 -1.31417 0
M  V30 62655 H 6006.99 -4.60056 -1.92744 0
M  V30 62656 H 6006.15 -4.31422 -4.26568 0
M  V30 62657 H 6004.89 -3.18659 -3.69199 0
M  V30 62658 H 6003.89 -5.00494 -2.27566 0
M  V30 62659 H 6005.12 -6.15069 -2.87867 0
M  V30 62660 H 6003.06 -4.69238 -4.58423 0
M  V30 62661 H 6002.98 -6.35357 -4.09705 0
M  V30 62662 H 6004.25 -5.83589 -5.16763 0
M  V30 62663 N 6008.48 0.348057 -1.53709 0
M  V30 62664 C 6009.44 1.41012 -1.80688 0
M  V30 62665 C 6010.44 1.45817 -0.677791 0
M  V30 62666 O 6011.63 1.46271 -0.946061 0
M  V30 62667 C 6008.76 2.79981 -1.94483 0
M  V30 62668 H 6009.95 1.18355 -2.75558 0
M  V30 62669 H 6007.51 0.582193 -1.45052 0
M  V30 62670 H 6008.24 3.07928 -1.0174 0
M  V30 62671 H 6008.03 2.7789 -2.76622 0
M  V30 62672 H 6009.52 3.5686 -2.16888 0
M  V30 62673 N 6009.95 1.45365 0.608825 0
M  V30 62674 C 6011.18 1.5307 1.39943 0
M  V30 62675 C 6011.6 0.163756 1.87386 0
M  V30 62676 O 6010.96 -0.851376 1.60067 0
M  V30 62677 C 6011.01 2.51845 2.58082 0
M  V30 62678 O 6010.11 2.0354 3.58671 0
M  V30 62679 H 6009.46 0.516046 0.417843 0
M  V30 62680 H 6011.99 1.90708 0.741063 0
M  V30 62681 H 6012 2.70611 3.05342 0
M  V30 62682 H 6010.67 3.51124 2.229 0
M  V30 62683 H 6009.25 1.94646 3.18068 0
M  V30 62684 N 6011.43 -0.851219 1.32635 0
M  V30 62685 C 6012.66 -1.63563 1.26216 0
M  V30 62686 C 6013.07 -1.88421 -0.171512 0
M  V30 62687 O 6012.41 -1.45596 -1.12016 0
M  V30 62688 C 6012.48 -3.01646 1.95576 0
M  V30 62689 C 6012.14 -2.99814 3.44906 0
M  V30 62690 C 6013.14 -2.76416 4.4033 0
M  V30 62691 C 6010.82 -3.20341 3.86894 0
M  V30 62692 C 6012.82 -2.73552 5.75715 0
M  V30 62693 C 6010.5 -3.17104 5.22387 0
M  V30 62694 C 6011.5 -2.93739 6.16609 0
M  V30 62695 O 6011.19 -2.90382 7.49622 0
M  V30 62696 H 6010.92 -0.516063 0.43664 0
M  V30 62697 H 6013.47 -1.06934 1.75369 0
M  V30 62698 H 6011.7 -3.60078 1.40998 0
M  V30 62699 H 6013.39 -3.62396 1.82821 0
M  V30 62700 H 6014.16 -2.6032 4.09217 0
M  V30 62701 H 6010.04 -3.37552 3.13974 0
M  V30 62702 H 6013.58 -2.55234 6.49231 0
M  V30 62703 H 6009.48 -3.32745 5.53129 0
M  V30 62704 H 6010.25 -3.06311 7.59023 0
M  V30 62705 N 6012.91 -1.15902 -1.06792 0
M  V30 62706 C 6014.19 -0.847763 -1.76273 0
M  V30 62707 C 6014.57 0.655466 -2.00666 0
M  V30 62708 O 6013.92 1.60166 -1.6297 0
M  V30 62709 C 6014.13 -1.66486 -3.0673 0
M  V30 62710 C 6015.47 -1.87465 -3.80975 0
M  V30 62711 O 6016.5 -1.6331 -3.16557 0
M  V30 62712 O 6015.36 -2.27959 -4.96686 0
M  V30 62713 H 6012.45 -0.312335 -0.765752 0
M  V30 62714 H 6015 -1.26511 -1.13107 0
M  V30 62715 H 6013.77 -2.68518 -2.84629 0
M  V30 62716 H 6013.39 -1.24423 -3.7763 0
M  V30 62717 N 6014.39 1.2524 -0.956703 0
M  V30 62718 C 6015.35 2.24052 -0.483028 0
M  V30 62719 C 6016.35 1.55368 0.414416 0
M  V30 62720 O 6017.54 1.72912 0.211414 0
M  V30 62721 C 6014.67 3.39561 0.301856 0
M  V30 62722 H 6015.87 2.67471 -1.35643 0
M  V30 62723 H 6013.42 1.37662 -0.740186 0
M  V30 62724 H 6014.15 3.01566 1.19284 0
M  V30 62725 H 6013.94 3.90606 -0.342014 0
M  V30 62726 H 6015.43 4.12932 0.622662 0
M  V30 62727 N 6015.87 0.725517 1.39907 0
M  V30 62728 C 6017.11 0.27858 2.01483 0
M  V30 62729 C 6017.47 -1.11886 1.56522 0
M  V30 62730 O 6016.76 -1.75011 0.779851 0
M  V30 62731 C 6016.96 0.308386 3.56067 0
M  V30 62732 C 6016.78 1.70718 4.16035 0
M  V30 62733 C 6015.55 2.31719 4.49037 0
M  V30 62734 C 6017.75 2.65916 4.4022 0
M  V30 62735 N 6015.73 3.63852 4.94454 0
M  V30 62736 C 6017.11 3.82769 4.87738 0
M  V30 62737 C 6019.16 2.638 4.22273 0
M  V30 62738 C 6017.86 4.97827 5.19192 0
M  V30 62739 C 6019.89 3.77994 4.54835 0
M  V30 62740 C 6019.25 4.93581 5.02551 0
M  V30 62741 H 6015.35 0.14799 0.767869 0
M  V30 62742 H 6017.93 0.94945 1.69981 0
M  V30 62743 H 6016.11 -0.33209 3.86978 0
M  V30 62744 H 6017.84 -0.156202 4.04398 0
M  V30 62745 H 6014.59 1.83727 4.3651 0
M  V30 62746 H 6015.02 4.31663 5.21533 0
M  V30 62747 H 6019.66 1.75635 3.84593 0
M  V30 62748 H 6017.38 5.86628 5.55781 0
M  V30 62749 H 6020.96 3.77643 4.4258 0
M  V30 62750 H 6019.84 5.80478 5.27271 0
M  V30 62751 N 6017.35 -1.50352 0.472435 0
M  V30 62752 C 6018.29 -2.28556 -0.321038 0
M  V30 62753 C 6019.26 -1.33668 -0.986003 0
M  V30 62754 O 6020.45 -1.62607 -0.998182 0
M  V30 62755 C 6017.59 -3.15591 -1.3963 0
M  V30 62756 C 6016.7 -4.2551 -0.745979 0
M  V30 62757 C 6015.84 -4.998 -1.79925 0
M  V30 62758 C 6014.87 -6.01593 -1.12925 0
M  V30 62759 N 6014.01 -6.69156 -2.12543 0
M  V30 62760 H 6018.85 -2.95912 0.352155 0
M  V30 62761 H 6016.39 -1.45926 0.185512 0
M  V30 62762 H 6018.35 -3.64404 -2.03139 0
M  V30 62763 H 6016.98 -2.50278 -2.03864 0
M  V30 62764 H 6016.03 -3.804 0.00171091 0
M  V30 62765 H 6017.34 -4.98327 -0.21716 0
M  V30 62766 H 6016.49 -5.52339 -2.51012 0
M  V30 62767 H 6015.23 -4.26693 -2.36188 0
M  V30 62768 H 6014.24 -5.48314 -0.404015 0
M  V30 62769 H 6015.46 -6.76674 -0.573497 0
M  V30 62770 H 6013.41 -5.98839 -2.6782 0
M  V30 62771 H 6013.33 -7.37853 -1.6465 0
M  V30 62772 H 6014.59 -7.26311 -2.83006 0
M  V30 62773 N 6018.82 -0.205094 -1.5626 0
M  V30 62774 C 6019.77 0.711751 -2.19551 0
M  V30 62775 C 6020.74 1.20246 -1.14587 0
M  V30 62776 O 6021.93 1.26454 -1.42878 0
M  V30 62777 C 6019.07 1.92142 -2.86663 0
M  V30 62778 C 6018.18 1.47114 -4.06179 0
M  V30 62779 C 6017.31 2.63709 -4.61119 0
M  V30 62780 C 6016.35 2.15337 -5.72971 0
M  V30 62781 N 6015.49 3.25145 -6.22274 0
M  V30 62782 H 6020.33 0.165287 -2.97541 0
M  V30 62783 H 6017.87 0.0698373 -1.46934 0
M  V30 62784 H 6019.82 2.63141 -3.23748 0
M  V30 62785 H 6018.45 2.44103 -2.11219 0
M  V30 62786 H 6017.51 0.656665 -3.74689 0
M  V30 62787 H 6018.82 1.07633 -4.87049 0
M  V30 62788 H 6017.97 3.42816 -5.00562 0
M  V30 62789 H 6016.71 3.0647 -3.79377 0
M  V30 62790 H 6015.72 1.34687 -5.33047 0
M  V30 62791 H 6016.94 1.73595 -6.56538 0
M  V30 62792 H 6014.89 3.67419 -5.43451 0
M  V30 62793 H 6014.8 2.89864 -6.98223 0
M  V30 62794 H 6016.07 4.04436 -6.66372 0
M  V30 62795 N 6020.3 1.57451 0.0684361 0
M  V30 62796 C 6021.54 1.8925 0.772258 0
M  V30 62797 C 6021.91 0.799273 1.74573 0
M  V30 62798 O 6023.11 1.00043 2.49489 0
M  V30 62799 C 6021.38 3.26274 1.45876 0
M  V30 62800 S 6022.94 3.79828 2.19719 0
M  V30 62801 H 6019.75 0.663029 0.256736 0
M  V30 62802 H 6022.36 1.9548 0.0282245 0
M  V30 62803 H 6021.06 4.03737 0.736504 0
M  V30 62804 H 6020.59 3.2325 2.24216 0
M  V30 62805 H 6022.61 3.55384 3.4629 0
M  V30 62806 N 6021.78 -0.339901 1.53891 0
M  V30 62807 C 6022.71 -1.42309 1.85122 0
M  V30 62808 C 6023.69 -1.54727 0.706646 0
M  V30 62809 O 6024.88 -1.68875 0.958893 0
M  V30 62810 C 6022.01 -2.7931 2.06406 0
M  V30 62811 C 6020.96 -2.81695 3.22229 0
M  V30 62812 C 6020.29 -4.21616 3.28853 0
M  V30 62813 C 6021.59 -2.46905 4.60256 0
M  V30 62814 H 6023.28 -1.16421 2.75838 0
M  V30 62815 H 6020.83 -0.558615 1.32723 0
M  V30 62816 H 6022.78 -3.55137 2.26838 0
M  V30 62817 H 6021.5 -3.0664 1.12424 0
M  V30 62818 H 6020.16 -2.08322 3.01658 0
M  V30 62819 H 6019.81 -4.46062 2.3246 0
M  V30 62820 H 6019.51 -4.24122 4.06687 0
M  V30 62821 H 6021.03 -4.9928 3.515 0
M  V30 62822 H 6022.45 -3.12445 4.80678 0
M  V30 62823 H 6020.84 -2.60688 5.4052 0
M  V30 62824 H 6021.91 -1.42084 4.63616 0
M  V30 62825 N 6023.26 -1.45686 -0.601108 0
M  V30 62826 C 6024.67 -1.44427 -1.18312 0
M  V30 62827 C 6025.02 -0.175309 -1.95415 0
M  V30 62828 O 6024.14 0.722744 -2.03974 0
M  V30 62829 C 6024.74 -2.61659 -2.15221 0
M  V30 62830 C 6023.3 -2.635 -2.68784 0
M  V30 62831 C 6022.45 -2.36792 -1.44308 0
M  V30 62832 H 6025.4 -1.53832 -0.390054 0
M  V30 62833 H 6025.42 -2.36127 -2.98369 0
M  V30 62834 H 6024.93 -3.54001 -1.59075 0
M  V30 62835 H 6023.03 -1.75181 -3.2885 0
M  V30 62836 H 6023.14 -3.62917 -3.12775 0
M  V30 62837 H 6021.51 -1.86478 -1.73488 0
M  V30 62838 H 6022.29 -3.31287 -0.900211 0
M  V30 62839 N 6024.74 0.844173 -1.33084 0
M  V30 62840 C 6025.98 1.594 -1.2359 0
M  V30 62841 C 6026.3 1.94594 0.198139 0
M  V30 62842 O 6027.5 2.68309 0.415043 0
M  V30 62843 C 6025.96 2.87482 -2.16523 0
M  V30 62844 C 6025.57 2.59672 -3.65068 0
M  V30 62845 C 6027.31 3.65502 -2.1589 0
M  V30 62846 C 6025.22 3.83818 -4.49931 0
M  V30 62847 H 6024.15 0.598175 -0.459024 0
M  V30 62848 H 6026.8 0.931243 -1.58114 0
M  V30 62849 H 6025.18 3.5527 -1.74926 0
M  V30 62850 H 6026.36 2.00129 -4.15073 0
M  V30 62851 H 6024.67 1.94964 -3.67937 0
M  V30 62852 H 6027.27 4.57644 -2.76525 0
M  V30 62853 H 6027.61 4.00027 -1.15258 0
M  V30 62854 H 6028.14 3.04631 -2.55822 0
M  V30 62855 H 6024.88 3.54429 -5.51417 0
M  V30 62856 H 6024.4 4.4272 -4.04672 0
M  V30 62857 H 6026.08 4.51452 -4.63465 0
M  V30 62858 N 6026.21 1.16466 1.06176 0
M  V30 62859 C 6027.63 0.909823 1.31127 0
M  V30 62860 C 6027.83 -0.436617 1.96713 0
M  V30 62861 O 6026.89 -1.17587 2.23449 0
M  V30 62862 C 6028.2 2.05975 2.19077 0
M  V30 62863 C 6029.75 2.09565 2.3249 0
M  V30 62864 C 6030.22 3.23915 3.23795 0
M  V30 62865 N 6031.71 3.2364 3.31378 0
M  V30 62866 C 6032.45 4.0876 4.02122 0
M  V30 62867 N 6031.94 5.03971 4.75379 0
M  V30 62868 N 6033.74 3.96743 3.98185 0
M  V30 62869 H 6025.89 2.0315 0.619995 0
M  V30 62870 H 6028.15 0.886489 0.335918 0
M  V30 62871 H 6027.86 3.03233 1.78164 0
M  V30 62872 H 6027.73 2.0023 3.19668 0
M  V30 62873 H 6030.12 1.12899 2.7265 0
M  V30 62874 H 6030.2 2.19374 1.31563 0
M  V30 62875 H 6029.84 4.20841 2.84351 0
M  V30 62876 H 6029.77 3.11342 4.24704 0
M  V30 62877 H 6032.26 2.54697 2.79173 0
M  V30 62878 H 6032.58 5.65337 5.2689 0
M  V30 62879 H 6030.92 5.07949 4.74355 0
M  V30 62880 H 6034.11 3.21663 3.40074 0
M  V30 62881 H 6034.29 4.63302 4.53051 0
M  V30 62882 N 6027.69 -1.2473 0.963332 0
M  V30 62883 C 6028.94 -1.92303 0.621603 0
M  V30 62884 C 6029.26 -1.75726 -0.845301 0
M  V30 62885 O 6028.53 -1.12616 -1.60295 0
M  V30 62886 H 6027.11 -0.711702 0.226911 0
M  V30 62887 H 6029.77 -1.51715 1.22346 0
M  V30 62888 H 6028.87 -3.00062 0.858427 0
M  V30 62889 N 6029.17 -0.732927 -1.3952 0
M  V30 62890 C 6030.42 -0.276857 -1.99791 0
M  V30 62891 C 6030.73 1.14176 -1.58818 0
M  V30 62892 O 6031.94 1.69724 -2.1191 0
M  V30 62893 C 6030.39 -0.44405 -3.5715 0
M  V30 62894 C 6030 -1.87042 -4.07086 0
M  V30 62895 C 6031.75 -0.0496514 -4.24471 0
M  V30 62896 C 6029.65 -1.98727 -5.57011 0
M  V30 62897 H 6028.58 -0.0997599 -0.747371 0
M  V30 62898 H 6031.23 -0.90651 -1.59545 0
M  V30 62899 H 6029.62 0.254466 -3.95182 0
M  V30 62900 H 6030.79 -2.60072 -3.80394 0
M  V30 62901 H 6029.1 -2.21784 -3.52421 0
M  V30 62902 H 6031.7 -0.116003 -5.34574 0
M  V30 62903 H 6032.04 0.994825 -4.04239 0
M  V30 62904 H 6032.58 -0.699248 -3.91606 0
M  V30 62905 H 6029.32 -3.01356 -5.82121 0
M  V30 62906 H 6028.84 -1.30131 -5.85513 0
M  V30 62907 H 6030.52 -1.76747 -6.2239 0
M  V30 62908 N 6030.65 1.501 -0.480402 0
M  V30 62909 C 6031.93 1.95145 0.133387 0
M  V30 62910 C 6032.31 1.42116 1.56097 0
M  V30 62911 O 6031.65 0.626089 2.19755 0
M  V30 62912 C 6031.86 3.48935 0.0671678 0
M  V30 62913 C 6033.21 4.23855 0.251415 0
M  V30 62914 O 6034.24 3.55912 0.143321 0
M  V30 62915 O 6033.09 5.44469 0.470756 0
M  V30 62916 H 6030.19 0.820102 0.10659 0
M  V30 62917 H 6032.73 1.6083 -0.54147 0
M  V30 62918 H 6031.51 3.80108 -0.929192 0
M  V30 62919 H 6031.13 3.89812 0.783077 0
M  V30 62920 N 6032.13 0.213378 1.56149 0
M  V30 62921 C 6033.37 -0.419698 1.97694 0
M  V30 62922 C 6033.7 -1.60874 1.10203 0
M  V30 62923 O 6032.97 -1.95096 0.177254 0
M  V30 62924 H 6031.55 -0.15805 0.730089 0
M  V30 62925 H 6034.21 0.30437 1.92509 0
M  V30 62926 H 6033.3 -0.751539 3.02916 0
M  V30 62927 N 6033.6 -1.57485 -0.0600851 0
M  V30 62928 C 6034.55 -2.05543 -1.08879 0
M  V30 62929 C 6035.55 -0.963012 -1.39364 0
M  V30 62930 O 6036.75 -1.14807 -1.38634 0
M  V30 62931 H 6033.13 -0.655519 -0.368509 0
M  V30 62932 H 6035.1 -2.91068 -0.657411 0
M  V30 62933 C 6033.85 -2.52472 -2.39067 0
M  V30 62934 H 6033.17 -3.36131 -2.16463 0
M  V30 62935 H 6034.61 -2.8984 -3.09466 0
M  V30 62936 C 6033.07 -1.41258 -3.05856 0
M  V30 62937 O 6033.6 -0.761257 -3.94421 0
M  V30 62938 N 6031.81 -1.15479 -2.6667 0
M  V30 62939 H 6031.35 -1.68627 -1.94738 0
M  V30 62940 H 6031.31 -0.41275 -3.11679 0
M  V30 62941 N 6035.08 0.331735 -1.54069 0
M  V30 62942 C 6036.33 1.06852 -1.71543 0
M  V30 62943 C 6036.65 1.88806 -0.487572 0
M  V30 62944 O 6035.92 1.89452 0.498473 0
M  V30 62945 H 6034.5 0.397478 -0.632471 0
M  V30 62946 H 6037.16 0.370149 -1.91353 0
M  V30 62947 H 6036.26 1.7392 -2.59149 0
M  V30 62948 N 6036.56 1.46003 0.593373 0
M  V30 62949 C 6037.51 1.55758 1.70318 0
M  V30 62950 C 6038.48 0.402523 1.61149 0
M  V30 62951 O 6039.66 0.617867 1.80519 0
M  V30 62952 C 6036.8 1.54373 3.08647 0
M  V30 62953 C 6035.92 2.80534 3.28519 0
M  V30 62954 C 6035.05 2.70725 4.57036 0
M  V30 62955 C 6034.09 3.91874 4.70214 0
M  V30 62956 N 6033.23 3.80514 5.90045 0
M  V30 62957 H 6038.07 2.50561 1.61317 0
M  V30 62958 H 6035.6 1.24316 0.786381 0
M  V30 62959 H 6037.56 1.51556 3.88699 0
M  V30 62960 H 6036.19 0.631097 3.16571 0
M  V30 62961 H 6035.24 2.93377 2.42145 0
M  V30 62962 H 6036.56 3.70352 3.34127 0
M  V30 62963 H 6035.71 2.65954 5.45301 0
M  V30 62964 H 6034.45 1.78529 4.53849 0
M  V30 62965 H 6033.45 3.96988 3.80369 0
M  V30 62966 H 6034.68 4.85153 4.75188 0
M  V30 62967 H 6032.62 2.91097 5.87876 0
M  V30 62968 H 6032.54 4.63979 5.96875 0
M  V30 62969 H 6033.81 3.797 6.8077 0
M  V30 62970 N 6038.04 -0.837103 1.3353 0
M  V30 62971 C 6039 -1.92861 1.23844 0
M  V30 62972 C 6040 -1.60031 0.157061 0
M  V30 62973 O 6041.19 -1.69337 0.408714 0
M  V30 62974 C 6038.32 -3.28565 0.908732 0
M  V30 62975 H 6039.52 -2.02875 2.20866 0
M  V30 62976 H 6037.07 -1.0294 1.17614 0
M  V30 62977 H 6037.8 -3.24246 -0.0589188 0
M  V30 62978 H 6037.59 -3.53773 1.69077 0
M  V30 62979 H 6039.08 -4.08527 0.865753 0
M  V30 62980 N 6039.52 -1.17028 -1.05557 0
M  V30 62981 C 6040.93 -0.962912 -1.59953 0
M  V30 62982 C 6041.28 0.491321 -1.89949 0
M  V30 62983 O 6040.4 1.36594 -1.67842 0
M  V30 62984 C 6041 -1.74157 -2.90611 0
M  V30 62985 C 6039.56 -1.57897 -3.4168 0
M  V30 62986 C 6038.7 -1.74556 -2.15466 0
M  V30 62987 H 6041.66 -1.3179 -0.884143 0
M  V30 62988 H 6041.68 -1.22177 -3.60351 0
M  V30 62989 H 6041.19 -2.79993 -2.68748 0
M  V30 62990 H 6039.29 -0.545336 -3.68588 0
M  V30 62991 H 6039.4 -2.3676 -4.16511 0
M  V30 62992 H 6037.77 -1.17364 -2.26048 0
M  V30 62993 H 6038.55 -2.81796 -1.96077 0
M  V30 62994 N 6040.99 1.24218 -0.969933 0
M  V30 62995 C 6042.22 1.9694 -0.650331 0
M  V30 62996 C 6042.64 1.71439 0.773958 0
M  V30 62997 O 6042 0.979482 1.52564 0
M  V30 62998 C 6042.05 3.48299 -0.933804 0
M  V30 62999 O 6041.15 4.12395 -0.0203875 0
M  V30 63000 H 6040.5 0.616893 -0.24564 0
M  V30 63001 H 6043.03 1.57934 -1.30069 0
M  V30 63002 H 6043.04 3.98698 -0.866246 0
M  V30 63003 H 6041.71 3.66187 -1.97179 0
M  V30 63004 H 6040.29 3.72632 -0.141458 0
M  V30 63005 N 6042.47 0.740315 1.3913 0
M  V30 63006 C 6043.42 0.103825 2.30566 0
M  V30 63007 C 6044.39 -0.723973 1.49492 0
M  V30 63008 O 6045.57 -0.682841 1.78163 0
M  V30 63009 C 6042.71 -0.793469 3.35854 0
M  V30 63010 C 6041.83 0.0475189 4.31974 0
M  V30 63011 C 6040.96 -0.851542 5.2433 0
M  V30 63012 C 6040 -0.00612115 6.121 0
M  V30 63013 N 6039.14 -0.861407 6.96796 0
M  V30 63014 H 6043.98 0.889187 2.84425 0
M  V30 63015 H 6041.52 0.450142 1.40043 0
M  V30 63016 H 6043.47 -1.3282 3.95493 0
M  V30 63017 H 6042.1 -1.54475 2.83438 0
M  V30 63018 H 6041.16 0.699733 3.73909 0
M  V30 63019 H 6042.47 0.70098 4.9385 0
M  V30 63020 H 6041.62 -1.45393 5.89021 0
M  V30 63021 H 6040.36 -1.53877 4.62788 0
M  V30 63022 H 6039.37 0.609025 5.46416 0
M  V30 63023 H 6040.59 0.677969 6.75707 0
M  V30 63024 H 6038.54 -1.53383 6.37816 0
M  V30 63025 H 6038.45 -0.264546 7.55537 0
M  V30 63026 H 6039.72 -1.44918 7.6591 0
M  V30 63027 N 6043.95 -1.49843 0.488355 0
M  V30 63028 C 6045.18 -2.07313 -0.0600208 0
M  V30 63029 C 6045.6 -1.34784 -1.31205 0
M  V30 63030 O 6044.96 -0.400696 -1.76817 0
M  V30 63031 C 6045.01 -3.59269 -0.309532 0
M  V30 63032 O 6044.11 -3.88385 -1.38674 0
M  V30 63033 H 6043.45 -0.66368 0.0206181 0
M  V30 63034 H 6045.98 -1.92815 0.684352 0
M  V30 63035 H 6045.99 -4.04346 -0.544858 0
M  V30 63036 H 6044.67 -4.11472 0.605291 0
M  V30 63037 H 6043.24 -3.55132 -1.13736 0
M  V30 63038 N 6045.43 -0.221656 -1.56033 0
M  V30 63039 C 6046.34 0.699759 -2.23921 0
M  V30 63040 C 6047.36 1.21363 -1.24688 0
M  V30 63041 O 6048.53 1.25522 -1.575 0
M  V30 63042 C 6045.6 1.89096 -2.90592 0
M  V30 63043 C 6044.66 1.41906 -4.05168 0
M  V30 63044 C 6043.89 2.55348 -4.6865 0
M  V30 63045 O 6044.11 3.73485 -4.31121 0
M  V30 63046 O 6043.05 2.26544 -5.57639 0
M  V30 63047 H 6046.87 0.151445 -3.03322 0
M  V30 63048 H 6044.46 0.00879568 -1.49397 0
M  V30 63049 H 6046.34 2.58663 -3.32673 0
M  V30 63050 H 6045.02 2.42738 -2.1415 0
M  V30 63051 H 6043.92 0.691407 -3.67655 0
M  V30 63052 H 6045.26 0.929019 -4.83353 0
M  V30 63053 N 6046.91 1.57515 0.0517324 0
M  V30 63054 C 6047.84 2.08093 1.05922 0
M  V30 63055 C 6048.82 0.978578 1.39133 0
M  V30 63056 O 6050 1.2525 1.48412 0
M  V30 63057 C 6047.13 2.54156 2.3669 0
M  V30 63058 C 6046.09 3.6845 2.17781 0
M  V30 63059 C 6045.41 4.00637 3.5411 0
M  V30 63060 C 6046.71 4.97748 1.58253 0
M  V30 63061 H 6048.41 2.92518 0.638268 0
M  V30 63062 H 6045.95 1.4072 0.305576 0
M  V30 63063 H 6047.91 2.88156 3.07481 0
M  V30 63064 H 6046.63 1.66785 2.80803 0
M  V30 63065 H 6045.29 3.34764 1.49428 0
M  V30 63066 H 6044.94 3.10367 3.9583 0
M  V30 63067 H 6044.64 4.77609 3.42291 0
M  V30 63068 H 6046.16 4.37151 4.26299 0
M  V30 63069 H 6047.58 5.2985 2.18933 0
M  V30 63070 H 6045.97 5.79179 1.57074 0
M  V30 63071 H 6047.04 4.81817 0.545958 0
M  V30 63072 N 6048.39 -0.32356 1.54243 0
M  V30 63073 C 6049.8 -0.667899 1.44953 0
M  V30 63074 C 6050 -1.91646 0.622405 0
M  V30 63075 O 6049.06 -2.52209 0.121208 0
M  V30 63076 C 6050.37 -0.841904 2.88674 0
M  V30 63077 C 6051.92 -0.939245 2.98575 0
M  V30 63078 C 6052.39 -1.14542 4.43446 0
M  V30 63079 N 6053.88 -1.21216 4.47058 0
M  V30 63080 C 6054.62 -1.38956 5.56308 0
M  V30 63081 N 6054.12 -1.5374 6.75526 0
M  V30 63082 N 6055.91 -1.41665 5.43955 0
M  V30 63083 H 6048.06 0.497089 2.06501 0
M  V30 63084 H 6050.32 0.160595 0.934298 0
M  V30 63085 H 6050.03 0.00430932 3.517 0
M  V30 63086 H 6049.9 -1.73773 3.34788 0
M  V30 63087 H 6052.29 -1.77596 2.35677 0
M  V30 63088 H 6052.37 -0.0198875 2.55792 0
M  V30 63089 H 6052.01 -0.313554 5.06931 0
M  V30 63090 H 6051.94 -2.07865 4.83838 0
M  V30 63091 H 6054.44 -1.11235 3.61158 0
M  V30 63092 H 6054.75 -1.66969 7.54547 0
M  V30 63093 H 6053.09 -1.50838 6.78434 0
M  V30 63094 H 6056.28 -1.29711 4.4977 0
M  V30 63095 H 6056.46 -1.55148 6.29153 0
M  V30 63096 N 6049.86 -1.46316 -0.585622 0
M  V30 63097 C 6050.81 -1.53076 -1.68973 0
M  V30 63098 C 6051.8 -0.391956 -1.56053 0
M  V30 63099 O 6052.99 -0.640188 -1.65017 0
M  V30 63100 C 6050.12 -1.52124 -3.07755 0
M  V30 63101 C 6049.2 -2.71287 -3.25982 0
M  V30 63102 N 6049.6 -3.96231 -3.14379 0
M  V30 63103 C 6047.89 -2.67449 -3.56913 0
M  V30 63104 C 6048.59 -4.75882 -3.34532 0
M  V30 63105 N 6047.57 -4.07706 -3.59551 0
M  V30 63106 H 6051.37 -2.47479 -1.58528 0
M  V30 63107 H 6048.89 -1.41914 -0.789564 0
M  V30 63108 H 6050.88 -1.55054 -3.86993 0
M  V30 63109 H 6049.54 -0.587946 -3.19333 0
M  V30 63110 H 6050.55 -4.27524 -2.92308 0
M  V30 63111 H 6047.23 -1.8313 -3.75193 0
M  V30 63112 H 6048.62 -5.84843 -3.30769 0
M  V30 63113 N 6051.34 0.83001 -1.33972 0
M  V30 63114 C 6052.27 1.95552 -1.27599 0
M  V30 63115 C 6053.25 1.69394 -0.154805 0
M  V30 63116 O 6054.44 1.91092 -0.346021 0
M  V30 63117 C 6051.57 3.31877 -1.02347 0
M  V30 63118 C 6050.52 3.72457 -2.10855 0
M  V30 63119 C 6049.85 5.06686 -1.70802 0
M  V30 63120 C 6051.15 3.85302 -3.52618 0
M  V30 63121 H 6052.84 2.01143 -2.2177 0
M  V30 63122 H 6050.39 0.966353 -1.0676 0
M  V30 63123 H 6052.34 4.10194 -0.965351 0
M  V30 63124 H 6051.06 3.26567 -0.046161 0
M  V30 63125 H 6049.72 2.9641 -2.15724 0
M  V30 63126 H 6049.37 4.97856 -0.717509 0
M  V30 63127 H 6049.07 5.34808 -2.43422 0
M  V30 63128 H 6050.6 5.87468 -1.66473 0
M  V30 63129 H 6052.01 4.53908 -3.50201 0
M  V30 63130 H 6050.41 4.24871 -4.23798 0
M  V30 63131 H 6051.48 2.875 -3.90476 0
M  V30 63132 N 6052.82 1.17586 1.04935 0
M  V30 63133 C 6054.05 0.989025 1.81389 0
M  V30 63134 C 6054.46 -0.465905 1.83374 0
M  V30 63135 O 6053.8 -1.33533 1.26153 0
M  V30 63136 C 6053.86 1.45667 3.28666 0
M  V30 63137 C 6053.53 2.93424 3.50359 0
M  V30 63138 C 6054.52 3.91341 3.42269 0
M  V30 63139 C 6052.21 3.31658 3.77237 0
M  V30 63140 C 6054.2 5.2549 3.60747 0
M  V30 63141 C 6051.89 4.65973 3.95364 0
M  V30 63142 C 6052.89 5.62697 3.87118 0
M  V30 63143 O 6052.58 6.94582 4.04736 0
M  V30 63144 H 6052.31 0.349983 0.57835 0
M  V30 63145 H 6054.86 1.56354 1.33201 0
M  V30 63146 H 6053.09 0.825735 3.77781 0
M  V30 63147 H 6054.78 1.2351 3.86652 0
M  V30 63148 H 6055.55 3.63149 3.21478 0
M  V30 63149 H 6051.43 2.56938 3.82758 0
M  V30 63150 H 6054.97 6.00973 3.54227 0
M  V30 63151 H 6050.87 4.9387 4.15648 0
M  V30 63152 H 6051.63 7.01358 4.21947 0
M  V30 63153 N 6054.3 -1.23702 0.976507 0
M  V30 63154 C 6055.23 -2.27338 0.532889 0
M  V30 63155 C 6056.21 -1.64524 -0.431954 0
M  V30 63156 O 6057.39 -1.91441 -0.326165 0
M  V30 63157 C 6054.52 -3.46887 -0.169252 0
M  V30 63158 C 6053.48 -4.22028 0.712484 0
M  V30 63159 C 6052.8 -5.34562 -0.12165 0
M  V30 63160 C 6054.1 -4.82433 2.0014 0
M  V30 63161 H 6055.8 -2.64697 1.39913 0
M  V30 63162 H 6053.34 -1.27242 0.674201 0
M  V30 63163 H 6055.3 -4.18531 -0.49088 0
M  V30 63164 H 6054.02 -3.08578 -1.06991 0
M  V30 63165 H 6052.68 -3.52196 1.01751 0
M  V30 63166 H 6052.33 -4.92493 -1.02273 0
M  V30 63167 H 6052.03 -5.85756 0.465168 0
M  V30 63168 H 6053.55 -6.09029 -0.437748 0
M  V30 63169 H 6054.97 -5.46104 1.74479 0
M  V30 63170 H 6053.36 -5.43897 2.53567 0
M  V30 63171 H 6054.43 -4.03395 2.69073 0
M  V30 63172 N 6055.78 -0.747683 -1.38735 0
M  V30 63173 C 6057 -0.311853 -2.04536 0
M  V30 63174 C 6057.42 1.05777 -1.56387 0
M  V30 63175 O 6056.78 1.67075 -0.734318 0
M  V30 63176 C 6056.83 -0.318802 -3.60092 0
M  V30 63177 O 6056.55 -1.63437 -4.06473 0
M  V30 63178 C 6058.05 0.131626 -4.43105 0
M  V30 63179 H 6055.27 -0.134164 -0.65745 0
M  V30 63180 H 6057.81 -1.01488 -1.7754 0
M  V30 63181 H 6055.97 0.335443 -3.85945 0
M  V30 63182 H 6056.38 -1.55653 -5.00872 0
M  V30 63183 H 6057.86 0.0756037 -5.51948 0
M  V30 63184 H 6058.33 1.17866 -4.23089 0
M  V30 63185 H 6058.94 -0.493523 -4.22427 0
M  V30 63186 N 6057.25 1.49582 -0.496295 0
M  V30 63187 C 6058.16 2.32809 0.289322 0
M  V30 63188 C 6059.18 1.44328 0.971882 0
M  V30 63189 O 6060.36 1.77356 0.954303 0
M  V30 63190 C 6057.42 3.1965 1.34257 0
M  V30 63191 C 6056.48 4.23977 0.673951 0
M  V30 63192 C 6055.71 5.06667 1.67702 0
M  V30 63193 O 6055.94 4.90802 2.90637 0
M  V30 63194 O 6054.87 5.89095 1.23494 0
M  V30 63195 H 6058.7 3.01162 -0.39177 0
M  V30 63196 H 6056.28 1.47161 -0.257704 0
M  V30 63197 H 6058.16 3.7346 1.95207 0
M  V30 63198 H 6056.84 2.53996 2.00668 0
M  V30 63199 H 6055.75 3.74092 0.0248417 0
M  V30 63200 H 6057.08 4.92172 0.0523712 0
M  V30 63201 N 6058.73 0.229928 1.55914 0
M  V30 63202 C 6059.68 -0.676732 2.20656 0
M  V30 63203 C 6060.65 -1.18408 1.16485 0
M  V30 63204 O 6061.83 -1.24165 1.44871 0
M  V30 63205 C 6058.97 -1.87557 2.89683 0
M  V30 63206 C 6058.09 -1.40634 4.08468 0
M  V30 63207 C 6057.22 -2.5634 4.65256 0
M  V30 63208 C 6056.26 -2.06194 5.76325 0
M  V30 63209 N 6055.4 -3.15204 6.27368 0
M  V30 63210 H 6060.24 -0.11793 2.97767 0
M  V30 63211 H 6057.77 -0.0464525 1.47027 0
M  V30 63212 H 6059.73 -2.57957 3.27893 0
M  V30 63213 H 6058.36 -2.40712 2.15076 0
M  V30 63214 H 6057.41 -0.596972 3.75687 0
M  V30 63215 H 6058.73 -0.998705 4.887 0
M  V30 63216 H 6057.88 -3.34809 5.05952 0
M  V30 63217 H 6056.62 -3.00396 3.84205 0
M  V30 63218 H 6055.62 -1.2619 5.35123 0
M  V30 63219 H 6056.85 -1.63128 6.59216 0
M  V30 63220 H 6054.8 -3.58726 5.49228 0
M  V30 63221 H 6054.71 -2.78719 7.02746 0
M  V30 63222 H 6055.98 -3.93783 6.72722 0
M  V30 63223 N 6060.21 -1.5754 -0.0433783 0
M  V30 63224 C 6061.44 -1.92579 -0.748114 0
M  V30 63225 C 6061.85 -0.826817 -1.70177 0
M  V30 63226 O 6061.19 0.206649 -1.82534 0
M  V30 63227 C 6061.25 -3.23314 -1.57188 0
M  V30 63228 C 6060.92 -4.50215 -0.784546 0
M  V30 63229 C 6061.91 -5.1982 -0.0911222 0
M  V30 63230 C 6059.6 -4.9677 -0.743315 0
M  V30 63231 C 6061.59 -6.34249 0.632991 0
M  V30 63232 C 6059.28 -6.11098 -0.0154472 0
M  V30 63233 C 6060.28 -6.79691 0.671479 0
M  V30 63234 O 6059.97 -7.91835 1.38756 0
M  V30 63235 H 6059.7 -0.640498 -0.216191 0
M  V30 63236 H 6062.25 -2.05398 -0.00930002 0
M  V30 63237 H 6060.48 -3.06783 -2.35417 0
M  V30 63238 H 6062.17 -3.43787 -2.1579 0
M  V30 63239 H 6062.94 -4.84866 -0.114099 0
M  V30 63240 H 6058.82 -4.43234 -1.26748 0
M  V30 63241 H 6062.36 -6.87723 1.16971 0
M  V30 63242 H 6058.26 -6.45499 0.0095032 0
M  V30 63243 H 6059.03 -8.08114 1.29975 0
M  V30 63244 N 6061.69 0.315375 -1.54412 0
M  V30 63245 C 6062.93 1.0539 -1.73265 0
M  V30 63246 C 6063.27 1.87404 -0.509237 0
M  V30 63247 O 6062.54 1.88128 0.493769 0
M  V30 63248 C 6062.83 1.97184 -3.01314 0
M  V30 63249 C 6062.68 1.18445 -4.33925 0
M  V30 63250 C 6064 2.96582 -3.25157 0
M  V30 63251 H 6061.12 0.381741 -0.630431 0
M  V30 63252 H 6063.76 0.329817 -1.87116 0
M  V30 63253 H 6061.91 2.58926 -2.89637 0
M  V30 63254 H 6063.58 0.59101 -4.57498 0
M  V30 63255 H 6061.82 0.486873 -4.31059 0
M  V30 63256 H 6062.49 1.8589 -5.19758 0
M  V30 63257 H 6064.97 2.44965 -3.3635 0
M  V30 63258 H 6063.85 3.57988 -4.16096 0
M  V30 63259 H 6064.11 3.69479 -2.42771 0
M  V30 63260 N 6063.17 1.46624 0.577854 0
M  V30 63261 C 6064.41 1.53397 1.3357 0
M  V30 63262 C 6064.77 0.18515 1.91507 0
M  V30 63263 O 6064.06 -0.80676 1.73787 0
M  V30 63264 C 6064.25 2.57224 2.48135 0
M  V30 63265 C 6064.08 4.02069 2.01421 0
M  V30 63266 C 6062.85 4.69737 1.86213 0
M  V30 63267 C 6065.05 4.8972 1.57095 0
M  V30 63268 N 6063.03 5.99182 1.33621 0
M  V30 63269 C 6064.4 6.09027 1.16127 0
M  V30 63270 C 6066.46 4.76332 1.44957 0
M  V30 63271 C 6065.16 7.16426 0.642306 0
M  V30 63272 C 6067.19 5.83807 0.944631 0
M  V30 63273 C 6066.55 7.0229 0.544768 0
M  V30 63274 H 6062.65 0.616133 0.481564 0
M  V30 63275 H 6065.23 1.83266 0.657397 0
M  V30 63276 H 6063.4 2.29257 3.13522 0
M  V30 63277 H 6065.14 2.53963 3.15095 0
M  V30 63278 H 6061.89 4.2533 2.08306 0
M  V30 63279 H 6062.32 6.6809 1.09472 0
M  V30 63280 H 6066.96 3.85115 1.74489 0
M  V30 63281 H 6064.68 8.07407 0.33458 0
M  V30 63282 H 6068.26 5.7549 0.854558 0
M  V30 63283 H 6067.14 7.84037 0.160084 0
M  V30 63284 N 6064.64 -0.822893 1.34411 0
M  V30 63285 C 6066.06 -1.11602 1.14093 0
M  V30 63286 C 6066.26 -2.01418 -0.0575456 0
M  V30 63287 O 6065.32 -2.41625 -0.733061 0
M  V30 63288 C 6066.63 -1.7627 2.43617 0
M  V30 63289 C 6068.18 -1.88765 2.49674 0
M  V30 63290 C 6068.65 -2.56849 3.792 0
M  V30 63291 N 6070.14 -2.64349 3.8036 0
M  V30 63292 C 6070.88 -3.17758 4.77302 0
M  V30 63293 N 6070.37 -3.71731 5.84626 0
M  V30 63294 N 6072.17 -3.16159 4.64758 0
M  V30 63295 H 6064.32 -0.22548 2.112 0
M  V30 63296 H 6066.58 -0.162588 0.933953 0
M  V30 63297 H 6066.29 -1.17738 3.31407 0
M  V30 63298 H 6066.16 -2.76138 2.56959 0
M  V30 63299 H 6068.55 -2.46445 1.62323 0
M  V30 63300 H 6068.63 -0.877995 2.4026 0
M  V30 63301 H 6068.27 -1.99823 4.6694 0
M  V30 63302 H 6068.2 -3.58318 3.85896 0
M  V30 63303 H 6070.69 -2.26092 3.02805 0
M  V30 63304 H 6071.01 -4.10736 6.54611 0
M  V30 63305 H 6069.35 -3.69974 5.8834 0
M  V30 63306 H 6072.54 -2.73261 3.80061 0
M  V30 63307 H 6072.72 -3.57479 5.40475 0
M  V30 63308 N 6066.12 -1.18141 -1.0431 0
M  V30 63309 C 6067.37 -0.986722 -1.77863 0
M  V30 63310 C 6067.72 0.478812 -1.86347 0
M  V30 63311 O 6067.02 1.35089 -1.35873 0
M  V30 63312 C 6067.21 -1.57222 -3.20961 0
M  V30 63313 C 6067.04 -3.09317 -3.26425 0
M  V30 63314 C 6065.81 -3.78115 -3.35197 0
M  V30 63315 C 6068.01 -4.06828 -3.14636 0
M  V30 63316 N 6065.99 -5.17735 -3.29885 0
M  V30 63317 C 6067.36 -5.32954 -3.16796 0
M  V30 63318 C 6069.42 -3.98379 -2.98661 0
M  V30 63319 C 6068.12 -6.51612 -3.04622 0
M  V30 63320 C 6070.14 -5.1663 -2.87831 0
M  V30 63321 C 6069.51 -6.41648 -2.90633 0
M  V30 63322 H 6065.61 -0.415052 -0.662764 0
M  V30 63323 H 6068.19 -1.49876 -1.24279 0
M  V30 63324 H 6066.36 -1.0864 -3.72897 0
M  V30 63325 H 6068.09 -1.31329 -3.82799 0
M  V30 63326 H 6064.85 -3.28837 -3.40828 0
M  V30 63327 H 6065.27 -5.90748 -3.30675 0
M  V30 63328 H 6069.91 -3.02559 -2.95327 0
M  V30 63329 H 6067.63 -7.47633 -3.06709 0
M  V30 63330 H 6071.22 -5.11882 -2.76528 0
M  V30 63331 H 6070.1 -7.31611 -2.82337 0
M  V30 63332 N 6067.6 1.23182 -0.983053 0
M  V30 63333 C 6068.55 2.24746 -0.525161 0
M  V30 63334 C 6069.52 1.60239 0.437355 0
M  V30 63335 O 6070.7 1.87668 0.34431 0
M  V30 63336 C 6067.84 3.44712 0.163688 0
M  V30 63337 C 6066.96 4.23766 -0.839403 0
M  V30 63338 C 6066.09 5.31053 -0.125087 0
M  V30 63339 C 6065.13 6.01818 -1.11721 0
M  V30 63340 N 6064.27 7.0077 -0.431871 0
M  V30 63341 H 6069.11 2.63278 -1.39602 0
M  V30 63342 H 6066.64 1.29405 -0.699484 0
M  V30 63343 H 6068.6 4.1315 0.579901 0
M  V30 63344 H 6067.23 3.06972 0.998399 0
M  V30 63345 H 6066.28 3.54719 -1.37399 0
M  V30 63346 H 6067.6 4.726 -1.59531 0
M  V30 63347 H 6066.75 6.05699 0.348356 0
M  V30 63348 H 6065.49 4.83167 0.663403 0
M  V30 63349 H 6064.49 5.25962 -1.60138 0
M  V30 63350 H 6065.72 6.51792 -1.90641 0
M  V30 63351 H 6063.66 6.55132 0.337362 0
M  V30 63352 H 6063.58 7.47562 -1.12639 0
M  V30 63353 H 6064.85 7.79498 0.0190963 0
M  V30 63354 N 6069.08 0.75503 1.38337 0
M  V30 63355 C 6070.01 0.0884641 2.29029 0
M  V30 63356 C 6071.02 -0.682206 1.47817 0
M  V30 63357 O 6072.21 -0.523057 1.70664 0
M  V30 63358 C 6069.31 -0.898704 3.26767 0
M  V30 63359 C 6068.49 -0.185374 4.37007 0
M  V30 63360 C 6067.54 -1.0835 5.14924 0
M  V30 63361 O 6066.57 -0.553488 5.66503 0
M  V30 63362 N 6067.77 -2.41146 5.28043 0
M  V30 63363 H 6070.54 0.867351 2.86875 0
M  V30 63364 H 6068.1 0.605939 1.50133 0
M  V30 63365 H 6070.09 -1.50259 3.75771 0
M  V30 63366 H 6068.66 -1.57866 2.69809 0
M  V30 63367 H 6067.88 0.599243 3.89619 0
M  V30 63368 H 6069.17 0.308177 5.07866 0
M  V30 63369 H 6068.57 -2.8666 4.87691 0
M  V30 63370 H 6067.12 -2.96581 5.80416 0
M  V30 63371 N 6070.56 -1.49316 0.50422 0
M  V30 63372 C 6071.8 -2.02462 -0.0391553 0
M  V30 63373 C 6072.13 -1.38363 -1.36696 0
M  V30 63374 O 6071.39 -0.509646 -1.88947 0
M  V30 63375 C 6071.69 -3.56614 -0.236915 0
M  V30 63376 C 6071.35 -4.39367 1.01329 0
M  V30 63377 C 6070.01 -4.61699 1.35599 0
M  V30 63378 C 6072.37 -4.87483 1.84416 0
M  V30 63379 C 6069.69 -5.29394 2.52901 0
M  V30 63380 C 6072.05 -5.56469 3.00874 0
M  V30 63381 C 6070.71 -5.77047 3.3552 0
M  V30 63382 H 6069.98 -0.740861 -0.0143279 0
M  V30 63383 H 6072.63 -1.79582 0.66503 0
M  V30 63384 H 6070.93 -3.78191 -1.02365 0
M  V30 63385 H 6072.63 -3.95332 -0.671848 0
M  V30 63386 H 6069.22 -4.22227 0.736361 0
M  V30 63387 H 6073.4 -4.70055 1.59255 0
M  V30 63388 H 6068.66 -5.43528 2.79977 0
M  V30 63389 H 6072.83 -5.92727 3.65579 0
M  V30 63390 H 6070.46 -6.29276 4.26516 0
M  V30 63391 N 6072.03 -0.238193 -1.5579 0
M  V30 63392 C 6072.96 0.659372 -2.23997 0
M  V30 63393 C 6073.95 1.18813 -1.21727 0
M  V30 63394 O 6075.13 1.22907 -1.50358 0
M  V30 63395 C 6072.26 1.86032 -2.93273 0
M  V30 63396 C 6071.21 1.46471 -4.02157 0
M  V30 63397 C 6070.54 2.74579 -4.58814 0
M  V30 63398 C 6071.84 0.642266 -5.18336 0
M  V30 63399 H 6073.53 0.090647 -2.99263 0
M  V30 63400 H 6071.08 0.0421584 -1.43938 0
M  V30 63401 H 6073.03 2.49381 -3.39686 0
M  V30 63402 H 6071.76 2.45429 -2.15482 0
M  V30 63403 H 6070.42 0.854604 -3.565 0
M  V30 63404 H 6070.06 3.32155 -3.77733 0
M  V30 63405 H 6069.76 2.48836 -5.32311 0
M  V30 63406 H 6071.29 3.38841 -5.07956 0
M  V30 63407 H 6072.7 1.17985 -5.61028 0
M  V30 63408 H 6071.1 0.481248 -5.98167 0
M  V30 63409 H 6072.17 -0.347468 -4.83653 0
M  V30 63410 N 6073.51 1.57561 0.0350229 0
M  V30 63411 C 6074.74 1.93646 0.742685 0
M  V30 63412 C 6075.16 0.837715 1.68416 0
M  V30 63413 O 6074.52 -0.207006 1.80114 0
M  V30 63414 C 6074.57 3.28784 1.48099 0
M  V30 63415 O 6073.67 3.20613 2.59386 0
M  V30 63416 H 6073.01 0.63311 0.20017 0
M  V30 63417 H 6075.54 2.04599 -0.00772464 0
M  V30 63418 H 6075.55 3.63533 1.85223 0
M  V30 63419 H 6074.23 4.08319 0.790465 0
M  V30 63420 H 6072.81 2.97485 2.24849 0
M  V30 63421 N 6074.99 -0.307182 1.54577 0
M  V30 63422 C 6076.41 -0.652488 1.45653 0
M  V30 63423 C 6076.61 -1.90976 0.642697 0
M  V30 63424 O 6075.66 -2.52066 0.147951 0
M  V30 63425 C 6076.98 -0.811239 2.8955 0
M  V30 63426 C 6078.52 -0.907524 2.99555 0
M  V30 63427 C 6079 -1.09832 4.44636 0
M  V30 63428 N 6080.49 -1.16467 4.48319 0
M  V30 63429 C 6081.23 -1.33048 5.57751 0
M  V30 63430 N 6080.72 -1.46567 6.77119 0
M  V30 63431 N 6082.51 -1.35887 5.45427 0
M  V30 63432 H 6074.67 0.518963 2.05962 0
M  V30 63433 H 6076.93 0.170496 0.932542 0
M  V30 63434 H 6076.63 0.0416115 3.51675 0
M  V30 63435 H 6076.51 -1.70212 3.36612 0
M  V30 63436 H 6078.9 -1.75087 2.37547 0
M  V30 63437 H 6078.98 0.00724378 2.55799 0
M  V30 63438 H 6078.62 -0.25977 5.07235 0
M  V30 63439 H 6078.55 -2.02722 4.86016 0
M  V30 63440 H 6081.04 -1.07398 3.62318 0
M  V30 63441 H 6081.35 -1.58957 7.56275 0
M  V30 63442 H 6079.7 -1.43634 6.79996 0
M  V30 63443 H 6082.89 -1.24933 4.5112 0
M  V30 63444 H 6083.06 -1.48466 6.30763 0
M  V30 63445 N 6076.47 -1.46928 -0.57007 0
M  V30 63446 C 6077.89 -1.32162 -0.89472 0
M  V30 63447 C 6078.09 -0.302481 -1.99217 0
M  V30 63448 O 6077.14 0.290527 -2.50823 0
M  V30 63449 C 6078.45 -2.71141 -1.30012 0
M  V30 63450 C 6080 -2.79328 -1.41226 0
M  V30 63451 C 6080.48 -4.18918 -1.85127 0
M  V30 63452 N 6081.97 -4.21397 -1.92299 0
M  V30 63453 C 6082.7 -5.26308 -2.27569 0
M  V30 63454 N 6082.2 -6.41535 -2.61543 0
M  V30 63455 N 6083.99 -5.13679 -2.28233 0
M  V30 63456 H 6076.14 -2.11836 0.154677 0
M  V30 63457 H 6078.41 -0.947978 0.00652991 0
M  V30 63458 H 6078.11 -3.47089 -0.567653 0
M  V30 63459 H 6077.99 -3.02074 -2.25901 0
M  V30 63460 H 6080.37 -2.03661 -2.13556 0
M  V30 63461 H 6080.45 -2.52064 -0.435571 0
M  V30 63462 H 6080.1 -4.95085 -1.13371 0
M  V30 63463 H 6080.03 -4.43597 -2.83776 0
M  V30 63464 H 6082.52 -3.38263 -1.68483 0
M  V30 63465 H 6082.83 -7.17353 -2.87445 0
M  V30 63466 H 6081.18 -6.44876 -2.59152 0
M  V30 63467 H 6084.37 -4.22691 -2.01122 0
M  V30 63468 H 6084.54 -5.9555 -2.55391 0
M  V30 63469 N 6077.95 0.815754 -1.34845 0
M  V30 63470 C 6079.2 1.56926 -1.27352 0
M  V30 63471 C 6079.52 1.94388 0.154394 0
M  V30 63472 O 6078.79 1.62862 1.08871 0
M  V30 63473 H 6077.37 0.581907 -0.468395 0
M  V30 63474 H 6080.03 0.973583 -1.68841 0
M  V30 63475 H 6079.12 2.48884 -1.88317 0
M  V30 63476 N 6079.43 1.18692 1.03682 0
M  V30 63477 C 6080.37 0.917444 2.11782 0
M  V30 63478 C 6081.34 -0.14466 1.65469 0
M  V30 63479 O 6082.53 -0.00420308 1.908 0
M  V30 63480 C 6079.67 0.453516 3.42107 0
M  V30 63481 C 6078.78 1.58148 4.02011 0
M  V30 63482 C 6077.92 1.06989 5.20314 0
M  V30 63483 C 6076.95 2.17229 5.72257 0
M  V30 63484 N 6076.09 1.67435 6.81843 0
M  V30 63485 H 6080.93 1.84305 2.3417 0
M  V30 63486 H 6078.47 0.918991 1.14861 0
M  V30 63487 H 6080.43 0.16599 4.1687 0
M  V30 63488 H 6079.06 -0.435106 3.19854 0
M  V30 63489 H 6078.11 1.9844 3.24539 0
M  V30 63490 H 6079.42 2.41235 4.36586 0
M  V30 63491 H 6078.57 0.737118 6.02206 0
M  V30 63492 H 6077.31 0.208658 4.87253 0
M  V30 63493 H 6076.32 2.51345 4.88984 0
M  V30 63494 H 6077.54 3.03794 6.0736 0
M  V30 63495 H 6075.49 0.836069 6.5065 0
M  V30 63496 H 6075.41 2.44116 7.15502 0
M  V30 63497 H 6076.67 1.37097 7.67349 0
M  V30 63498 N 6080.9 -1.22659 0.989572 0
M  V30 63499 C 6082.32 -1.43443 0.699738 0
M  V30 63500 C 6082.52 -1.8778 -0.730809 0
M  V30 63501 O 6081.58 -2.02959 -1.50213 0
M  V30 63502 C 6082.89 -2.47863 1.70248 0
M  V30 63503 C 6084.44 -2.61666 1.71755 0
M  V30 63504 C 6084.91 -3.69305 2.70883 0
M  V30 63505 N 6086.4 -3.76759 2.69457 0
M  V30 63506 C 6087.14 -4.59629 3.42824 0
M  V30 63507 N 6086.63 -5.46518 4.25781 0
M  V30 63508 N 6088.43 -4.53909 3.31546 0
M  V30 63509 H 6080.58 -0.921844 1.91353 0
M  V30 63510 H 6082.84 -0.466876 0.825064 0
M  V30 63511 H 6082.55 -2.22223 2.72598 0
M  V30 63512 H 6082.42 -3.46409 1.49266 0
M  V30 63513 H 6084.81 -2.86652 0.70104 0
M  V30 63514 H 6084.89 -1.63406 1.96805 0
M  V30 63515 H 6084.53 -3.45067 3.72681 0
M  V30 63516 H 6084.46 -4.67127 2.43104 0
M  V30 63517 H 6086.95 -3.14672 2.0926 0
M  V30 63518 H 6087.27 -6.06766 4.78597 0
M  V30 63519 H 6085.61 -5.46111 4.29869 0
M  V30 63520 H 6088.8 -3.85052 2.66181 0
M  V30 63521 H 6088.98 -5.18263 3.88983 0
M  V30 63522 N 6082.38 -0.762356 -1.37934 0
M  V30 63523 C 6083.61 -0.33353 -2.04194 0
M  V30 63524 C 6084.02 1.04112 -1.575 0
M  V30 63525 O 6083.38 1.66287 -0.751997 0
M  V30 63526 C 6083.43 -0.356976 -3.59733 0
M  V30 63527 O 6083.15 -1.67739 -4.04716 0
M  V30 63528 C 6084.65 0.0846218 -4.43219 0
M  V30 63529 H 6081.87 -0.14113 -0.65599 0
M  V30 63530 H 6084.42 -1.03366 -1.76453 0
M  V30 63531 H 6082.57 0.294489 -3.86279 0
M  V30 63532 H 6082.99 -1.60957 -4.99192 0
M  V30 63533 H 6084.46 0.017058 -5.51997 0
M  V30 63534 H 6084.94 1.13372 -4.24315 0
M  V30 63535 H 6085.54 -0.5383 -4.2188 0
M  V30 63536 N 6083.86 1.49047 -0.512132 0
M  V30 63537 C 6085.08 2.07382 0.0270315 0
M  V30 63538 C 6085.51 1.36855 1.29044 0
M  V30 63539 O 6084.87 0.428775 1.76157 0
M  V30 63540 C 6084.92 3.59716 0.252336 0
M  V30 63541 O 6084.02 3.90543 1.32478 0
M  V30 63542 H 6083.36 0.663268 -0.031174 0
M  V30 63543 H 6085.89 1.91702 -0.71494 0
M  V30 63544 H 6085.9 4.05161 0.480461 0
M  V30 63545 H 6084.58 4.10457 -0.670676 0
M  V30 63546 H 6083.15 3.56896 1.08072 0
M  V30 63547 N 6085.34 0.246452 1.55661 0
M  V30 63548 C 6086.75 -0.256788 1.84926 0
M  V30 63549 C 6087.1 -1.57626 1.16826 0
M  V30 63550 O 6086.22 -2.11744 0.44649 0
M  V30 63551 C 6086.82 -0.472697 3.35486 0
M  V30 63552 C 6085.38 -0.920201 3.64978 0
M  V30 63553 C 6084.53 0.00283521 2.773 0
M  V30 63554 H 6087.48 0.469025 1.51611 0
M  V30 63555 H 6087.5 -1.31536 3.57041 0
M  V30 63556 H 6087.01 0.487799 3.85022 0
M  V30 63557 H 6085.11 -1.89318 3.2092 0
M  V30 63558 H 6085.22 -0.777373 4.72751 0
M  V30 63559 H 6083.59 -0.508451 2.49573 0
M  V30 63560 H 6084.37 0.958697 3.29642 0
M  V30 63561 N 6086.82 -1.57577 -0.0266666 0
M  V30 63562 C 6087.75 -2.09752 -1.02598 0
M  V30 63563 C 6088.73 -1.00059 -1.37558 0
M  V30 63564 O 6089.91 -1.27596 -1.464 0
M  V30 63565 C 6087.04 -2.57889 -2.32617 0
M  V30 63566 C 6086 -3.71868 -2.11892 0
M  V30 63567 C 6085.32 -4.0622 -3.47692 0
M  V30 63568 C 6086.62 -5.00203 -1.50314 0
M  V30 63569 H 6088.32 -2.93496 -0.59165 0
M  V30 63570 H 6085.86 -1.41189 -0.283149 0
M  V30 63571 H 6087.81 -2.93011 -3.02857 0
M  V30 63572 H 6086.54 -1.71231 -2.78114 0
M  V30 63573 H 6085.2 -3.37099 -1.44084 0
M  V30 63574 H 6084.85 -3.16625 -3.90842 0
M  V30 63575 H 6084.55 -4.82994 -3.3465 0
M  V30 63576 H 6086.07 -4.43878 -4.19291 0
M  V30 63577 H 6087.48 -5.33266 -2.10475 0
M  V30 63578 H 6085.88 -5.81604 -1.4784 0
M  V30 63579 H 6086.95 -4.82624 -0.469236 0
M  V30 63580 N 6088.29 0.29898 -1.54738 0
M  V30 63581 C 6089.57 1.05365 -1.64796 0
M  V30 63582 C 6089.95 2.05153 -0.497548 0
M  V30 63583 O 6089.3 2.22839 0.505495 0
M  V30 63584 C 6089.51 1.7337 -3.02892 0
M  V30 63585 C 6090.86 2.25493 -3.59775 0
M  V30 63586 O 6091.88 1.83399 -3.05357 0
M  V30 63587 O 6090.74 3.02626 -4.5506 0
M  V30 63588 H 6087.83 0.487132 -0.668305 0
M  V30 63589 H 6090.38 0.296907 -1.67082 0
M  V30 63590 H 6089.15 1.00923 -3.78061 0
M  V30 63591 H 6088.77 2.55796 -3.04392 0
M  V30 63592 N 6089.77 1.47229 0.56227 0
M  V30 63593 C 6090.7 1.6221 1.67959 0
M  V30 63594 C 6091.68 0.471695 1.63429 0
M  V30 63595 O 6092.87 0.700424 1.81129 0
M  V30 63596 C 6090 1.63138 3.06599 0
M  V30 63597 C 6088.95 2.77354 3.25973 0
M  V30 63598 C 6088.28 2.63353 4.65349 0
M  V30 63599 C 6089.58 4.18994 3.11835 0
M  V30 63600 H 6091.27 2.55744 1.55677 0
M  V30 63601 H 6088.82 1.23078 0.747517 0
M  V30 63602 H 6090.77 1.7221 3.84606 0
M  V30 63603 H 6089.5 0.661613 3.19828 0
M  V30 63604 H 6088.15 2.67785 2.50373 0
M  V30 63605 H 6087.8 1.64415 4.7537 0
M  V30 63606 H 6087.5 3.39974 4.79261 0
M  V30 63607 H 6089.03 2.74346 5.45497 0
M  V30 63608 H 6090.44 4.29567 3.79664 0
M  V30 63609 H 6088.84 4.96363 3.3726 0
M  V30 63610 H 6089.91 4.37716 2.08645 0
M  V30 63611 N 6091.25 -0.808591 1.35276 0
M  V30 63612 C 6092.2 -1.92032 1.28033 0
M  V30 63613 C 6093.17 -1.65397 0.152669 0
M  V30 63614 O 6094.35 -1.87818 0.336038 0
M  V30 63615 C 6091.49 -3.2854 1.05619 0
M  V30 63616 C 6090.61 -3.67374 2.27288 0
M  V30 63617 C 6089.74 -4.92903 1.98041 0
M  V30 63618 C 6088.78 -5.24359 3.15775 0
M  V30 63619 N 6087.92 -6.41067 2.86317 0
M  V30 63620 H 6092.76 -1.97559 2.23102 0
M  V30 63621 H 6090.29 -0.966358 1.10905 0
M  V30 63622 H 6092.25 -4.07231 0.906562 0
M  V30 63623 H 6090.88 -3.22487 0.142128 0
M  V30 63624 H 6089.93 -2.8396 2.53122 0
M  V30 63625 H 6091.25 -3.86582 3.15208 0
M  V30 63626 H 6090.4 -5.79415 1.79897 0
M  V30 63627 H 6089.14 -4.75727 1.07403 0
M  V30 63628 H 6088.14 -4.36338 3.34499 0
M  V30 63629 H 6089.37 -5.43466 4.07212 0
M  V30 63630 H 6087.31 -6.2532 1.98271 0
M  V30 63631 H 6087.23 -6.60515 3.67771 0
M  V30 63632 H 6088.5 -7.30612 2.7171 0
M  V30 63633 N 6092.73 -1.1924 -1.03051 0
M  V30 63634 C 6093.66 -0.952335 -2.13197 0
M  V30 63635 C 6094.64 0.113711 -1.69719 0
M  V30 63636 O 6095.82 -0.0409739 -1.94157 0
M  V30 63637 C 6092.95 -0.488417 -3.43848 0
M  V30 63638 C 6091.91 -1.49611 -4.00999 0
M  V30 63639 C 6091.23 -0.889334 -5.27252 0
M  V30 63640 C 6092.53 -2.87586 -4.35995 0
M  V30 63641 H 6094.23 -1.87351 -2.33538 0
M  V30 63642 H 6091.77 -0.902211 -1.12233 0
M  V30 63643 H 6093.73 -0.307771 -4.20275 0
M  V30 63644 H 6092.45 0.468356 -3.23224 0
M  V30 63645 H 6091.11 -1.66388 -3.26666 0
M  V30 63646 H 6090.76 0.0749422 -5.02944 0
M  V30 63647 H 6090.46 -1.56222 -5.66453 0
M  V30 63648 H 6091.98 -0.719446 -6.06347 0
M  V30 63649 H 6093.4 -2.74402 -5.03365 0
M  V30 63650 H 6091.79 -3.51652 -4.86272 0
M  V30 63651 H 6092.86 -3.40365 -3.45369 0
M  V30 63652 N 6094.21 1.22132 -0.996063 0
M  V30 63653 C 6095.45 1.90587 -0.67237 0
M  V30 63654 C 6095.78 1.77905 0.798414 0
M  V30 63655 O 6095.05 1.16826 1.57253 0
M  V30 63656 H 6093.63 0.705436 -0.245701 0
M  V30 63657 H 6096.29 1.48418 -1.26325 0
M  V30 63658 H 6095.38 2.97681 -0.937682 0
M  V30 63659 N 6095.68 0.76966 1.37528 0
M  V30 63660 C 6096.63 0.128098 2.2764 0
M  V30 63661 C 6097.62 -0.676279 1.45998 0
M  V30 63662 O 6098.81 -0.539595 1.68575 0
M  V30 63663 C 6095.94 -0.751819 3.34967 0
M  V30 63664 C 6095.03 0.0602755 4.24057 0
M  V30 63665 N 6095.42 1.10486 4.93585 0
M  V30 63666 C 6093.71 -0.164033 4.45698 0
M  V30 63667 C 6094.42 1.59757 5.59332 0
M  V30 63668 N 6093.39 0.9101 5.35927 0
M  V30 63669 H 6097.19 0.927895 2.78868 0
M  V30 63670 H 6094.71 0.607217 1.50621 0
M  V30 63671 H 6096.7 -1.22719 3.98429 0
M  V30 63672 H 6095.36 -1.55038 2.85295 0
M  V30 63673 H 6096.38 1.48697 4.96094 0
M  V30 63674 H 6093.05 -0.934671 4.06903 0
M  V30 63675 H 6094.44 2.46857 6.24909 0
M  V30 63676 N 6097.16 -1.48773 0.520029 0
M  V30 63677 C 6098.11 -2.31124 -0.261656 0
M  V30 63678 C 6099.1 -1.40598 -0.94491 0
M  V30 63679 O 6100.31 -1.57555 -0.870429 0
M  V30 63680 H 6096.69 -0.744879 -0.103246 0
M  V30 63681 H 6098.66 -2.94947 0.452618 0
M  V30 63682 C 6097.41 -3.22413 -1.30173 0
M  V30 63683 H 6096.73 -3.9201 -0.785386 0
M  V30 63684 H 6098.17 -3.82938 -1.82028 0
M  V30 63685 C 6096.63 -2.4333 -2.33007 0
M  V30 63686 O 6097.16 -2.15099 -3.39257 0
M  V30 63687 N 6095.36 -2.05005 -2.05964 0
M  V30 63688 H 6094.91 -2.28164 -1.19578 0
M  V30 63689 H 6094.87 -1.52402 -2.74993 0
M  V30 63690 N 6098.64 -0.254703 -1.55528 0
M  V30 63691 C 6099.59 0.657709 -2.23107 0
M  V30 63692 C 6100.58 1.17398 -1.22123 0
M  V30 63693 O 6101.79 1.12997 -1.40113 0
M  V30 63694 H 6098.16 0.230603 -0.71577 0
M  V30 63695 H 6100.13 0.064671 -2.9833 0
M  V30 63696 C 6098.88 1.84008 -2.95019 0
M  V30 63697 H 6098.21 1.45198 -3.72502 0
M  V30 63698 H 6099.65 2.45556 -3.45656 0
M  V30 63699 C 6098.11 2.71603 -1.99332 0
M  V30 63700 O 6098.64 3.71364 -1.53138 0
M  V30 63701 N 6096.84 2.38336 -1.66266 0
M  V30 63702 H 6096.39 1.57261 -2.04026 0
M  V30 63703 H 6096.35 2.97219 -1.0251 0
M  V30 63704 N 6100.12 1.57589 0.0183095 0
M  V30 63705 C 6101.36 1.90885 0.702454 0
M  V30 63706 C 6101.72 0.854464 1.72385 0
M  V30 63707 O 6101.01 -0.135581 1.9112 0
M  V30 63708 C 6101.21 3.28682 1.40368 0
M  V30 63709 C 6101.04 4.47426 0.451716 0
M  V30 63710 C 6099.81 5.05253 0.0688095 0
M  V30 63711 C 6102 5.13567 -0.274413 0
M  V30 63712 N 6099.99 6.07512 -0.883285 0
M  V30 63713 C 6101.36 6.10489 -1.0818 0
M  V30 63714 C 6103.41 4.96736 -0.340209 0
M  V30 63715 C 6102.11 6.92393 -1.94896 0
M  V30 63716 C 6104.14 5.79211 -1.19453 0
M  V30 63717 C 6103.5 6.75711 -1.98981 0
M  V30 63718 H 6099.6 0.747161 0.230811 0
M  V30 63719 H 6102.19 1.94663 -0.0377344 0
M  V30 63720 H 6100.36 3.25812 2.11427 0
M  V30 63721 H 6102.09 3.4946 2.04107 0
M  V30 63722 H 6098.84 4.71614 0.433296 0
M  V30 63723 H 6099.27 6.63319 -1.35416 0
M  V30 63724 H 6103.91 4.21998 0.260356 0
M  V30 63725 H 6101.63 7.66469 -2.56028 0
M  V30 63726 H 6105.21 5.68233 -1.24911 0
M  V30 63727 H 6104.09 7.3842 -2.64019 0
M  V30 63728 N 6101.6 -0.29077 1.54894 0
M  V30 63729 C 6102.53 -1.36348 1.89556 0
M  V30 63730 C 6103.51 -1.52401 0.755513 0
M  V30 63731 O 6104.69 -1.65739 1.01213 0
M  V30 63732 C 6101.82 -2.72602 2.15188 0
M  V30 63733 C 6100.78 -2.71301 3.31028 0
M  V30 63734 C 6100.1 -4.1094 3.421 0
M  V30 63735 C 6101.4 -2.32137 4.67878 0
M  V30 63736 H 6103.1 -1.07587 2.79402 0
M  V30 63737 H 6100.64 -0.516107 1.34433 0
M  V30 63738 H 6102.6 -3.47741 2.38022 0
M  V30 63739 H 6101.32 -3.02908 1.22123 0
M  V30 63740 H 6099.98 -1.98619 3.08133 0
M  V30 63741 H 6099.63 -4.38441 2.46534 0
M  V30 63742 H 6099.33 -4.10969 4.19974 0
M  V30 63743 H 6100.85 -4.87844 3.67206 0
M  V30 63744 H 6102.26 -2.96994 4.90375 0
M  V30 63745 H 6100.66 -2.4336 5.4854 0
M  V30 63746 H 6101.73 -1.27263 4.67902 0
M  V30 63747 N 6103.07 -1.47525 -0.554454 0
M  V30 63748 C 6104.49 -1.33104 -0.880652 0
M  V30 63749 C 6104.69 -0.323594 -1.98885 0
M  V30 63750 O 6103.75 0.263907 -2.51117 0
M  V30 63751 C 6105.06 -2.72505 -1.27128 0
M  V30 63752 C 6106.61 -2.8081 -1.38256 0
M  V30 63753 C 6107.08 -4.20858 -1.80673 0
M  V30 63754 N 6108.57 -4.23413 -1.87819 0
M  V30 63755 C 6109.31 -5.28692 -2.21974 0
M  V30 63756 N 6108.8 -6.44273 -2.54724 0
M  V30 63757 N 6110.6 -5.16071 -2.22772 0
M  V30 63758 H 6102.75 -2.1166 0.177137 0
M  V30 63759 H 6105.01 -0.947855 0.0165841 0
M  V30 63760 H 6104.72 -3.47671 -0.530808 0
M  V30 63761 H 6104.59 -3.04453 -2.22684 0
M  V30 63762 H 6106.98 -2.05914 -2.11384 0
M  V30 63763 H 6107.06 -2.52512 -0.408812 0
M  V30 63764 H 6106.7 -4.9626 -1.08114 0
M  V30 63765 H 6106.63 -4.46582 -2.79055 0
M  V30 63766 H 6109.12 -3.40031 -1.64886 0
M  V30 63767 H 6109.44 -7.20361 -2.7982 0
M  V30 63768 H 6107.78 -6.47588 -2.52298 0
M  V30 63769 H 6110.97 -4.248 -1.96627 0
M  V30 63770 H 6111.15 -5.98225 -2.4906 0
M  V30 63771 N 6104.55 0.801406 -1.35703 0
M  V30 63772 C 6105.49 1.92175 -1.24906 0
M  V30 63773 C 6106.5 1.61897 -0.171188 0
M  V30 63774 O 6107.69 1.73369 -0.424901 0
M  V30 63775 C 6104.79 3.26681 -0.901821 0
M  V30 63776 C 6103.96 3.84826 -2.07913 0
M  V30 63777 C 6103.02 4.97748 -1.70684 0
M  V30 63778 O 6102.05 5.149 -2.42624 0
M  V30 63779 N 6103.25 5.77033 -0.633497 0
M  V30 63780 H 6106.01 2.01962 -2.2143 0
M  V30 63781 H 6103.57 0.979086 -1.2894 0
M  V30 63782 H 6105.57 3.99701 -0.63416 0
M  V30 63783 H 6104.14 3.12589 -0.0260935 0
M  V30 63784 H 6103.36 3.03938 -2.51029 0
M  V30 63785 H 6104.64 4.20405 -2.86596 0
M  V30 63786 H 6104.04 5.65689 -0.0359066 0
M  V30 63787 H 6102.6 6.50409 -0.425631 0
M  V30 63788 N 6106.03 1.19785 1.02417 0
M  V30 63789 C 6107.28 1.00486 1.76154 0
M  V30 63790 C 6107.61 -0.462743 1.88606 0
M  V30 63791 O 6106.89 -1.34361 1.40632 0
M  V30 63792 C 6107.17 1.6801 3.18504 0
M  V30 63793 C 6107.02 3.22166 3.13893 0
M  V30 63794 C 6108.34 1.40696 4.17004 0
M  V30 63795 H 6105.46 0.366459 0.639435 0
M  V30 63796 H 6108.1 1.47692 1.19529 0
M  V30 63797 H 6106.25 1.27875 3.66852 0
M  V30 63798 H 6107.92 3.71546 2.73407 0
M  V30 63799 H 6106.17 3.53465 2.51485 0
M  V30 63800 H 6106.84 3.64562 4.14485 0
M  V30 63801 H 6109.31 1.75501 3.77278 0
M  V30 63802 H 6108.19 1.90485 5.14788 0
M  V30 63803 H 6108.45 0.333044 4.40844 0
M  V30 63804 N 6107.51 -1.21603 1.00253 0
M  V30 63805 C 6108.44 -2.26156 0.580991 0
M  V30 63806 C 6109.42 -1.65403 -0.396959 0
M  V30 63807 O 6110.61 -1.9209 -0.285484 0
M  V30 63808 C 6107.74 -3.47168 -0.0956344 0
M  V30 63809 C 6106.69 -4.20422 0.801842 0
M  V30 63810 C 6106.02 -5.34699 -0.00823444 0
M  V30 63811 C 6107.32 -4.78079 2.10328 0
M  V30 63812 H 6109.01 -2.6167 1.45496 0
M  V30 63813 H 6106.56 -1.25783 0.701039 0
M  V30 63814 H 6108.51 -4.19478 -0.401993 0
M  V30 63815 H 6107.23 -3.10778 -1.00422 0
M  V30 63816 H 6105.89 -3.49959 1.09199 0
M  V30 63817 H 6105.54 -4.94551 -0.918032 0
M  V30 63818 H 6105.24 -5.84637 0.58931 0
M  V30 63819 H 6106.76 -6.0982 -0.308466 0
M  V30 63820 H 6108.18 -5.42281 1.86023 0
M  V30 63821 H 6106.57 -5.38396 2.65047 0
M  V30 63822 H 6107.64 -3.97597 2.77569 0
M  V30 63823 N 6108.99 -0.776943 -1.37118 0
M  V30 63824 C 6110.23 -0.343625 -1.99563 0
M  V30 63825 C 6110.56 1.08129 -1.61674 0
M  V30 63826 O 6109.82 1.75935 -0.85706 0
M  V30 63827 C 6110.12 -0.440326 -3.54677 0
M  V30 63828 C 6109.78 -1.82424 -4.1235 0
M  V30 63829 C 6108.44 -2.20292 -4.27814 0
M  V30 63830 C 6110.8 -2.73098 -4.43922 0
M  V30 63831 C 6108.12 -3.48261 -4.72156 0
M  V30 63832 C 6110.48 -4.00482 -4.89691 0
M  V30 63833 C 6109.14 -4.38388 -5.03361 0
M  V30 63834 H 6108.41 -0.125741 -0.730253 0
M  V30 63835 H 6111.06 -0.991978 -1.63805 0
M  V30 63836 H 6109.36 0.291557 -3.90714 0
M  V30 63837 H 6111.06 -0.0862738 -4.00907 0
M  V30 63838 H 6107.65 -1.51994 -4.00744 0
M  V30 63839 H 6111.83 -2.451 -4.31555 0
M  V30 63840 H 6107.09 -3.77518 -4.80926 0
M  V30 63841 H 6111.26 -4.70867 -5.13086 0
M  V30 63842 H 6108.89 -5.37606 -5.37479 0
M  V30 63843 N 6110.47 1.48495 -0.527912 0
M  V30 63844 C 6111.69 2.069 0.0029532 0
M  V30 63845 C 6112.11 1.38473 1.28338 0
M  V30 63846 O 6111.47 0.471586 1.76302 0
M  V30 63847 C 6111.52 3.6075 0.232744 0
M  V30 63848 O 6111.24 4.26606 -0.996946 0
M  V30 63849 C 6112.74 4.35944 0.804222 0
M  V30 63850 H 6109.96 0.670209 -0.0325794 0
M  V30 63851 H 6112.5 1.90913 -0.732965 0
M  V30 63852 H 6110.66 3.76349 0.918705 0
M  V30 63853 H 6111.07 5.18722 -0.7764 0
M  V30 63854 H 6112.55 5.44373 0.914444 0
M  V30 63855 H 6113.02 4.00232 1.80862 0
M  V30 63856 H 6113.63 4.25018 0.154891 0
M  V30 63857 N 6111.94 0.262948 1.55391 0
M  V30 63858 C 6113.35 -0.237159 1.85188 0
M  V30 63859 C 6113.71 -1.56378 1.18491 0
M  V30 63860 O 6112.83 -2.11258 0.468923 0
M  V30 63861 C 6113.43 -0.437087 3.35969 0
M  V30 63862 C 6111.98 -0.881439 3.65934 0
M  V30 63863 C 6111.13 0.0322464 2.77281 0
M  V30 63864 H 6114.08 0.485079 1.51105 0
M  V30 63865 H 6114.1 -1.27742 3.58416 0
M  V30 63866 H 6113.62 0.528609 3.84483 0
M  V30 63867 H 6111.72 -1.85904 3.2291 0
M  V30 63868 H 6111.83 -0.727188 4.73549 0
M  V30 63869 H 6110.19 -0.481952 2.50099 0
M  V30 63870 H 6110.98 0.993606 3.28607 0
M  V30 63871 N 6113.42 -1.57597 -0.00995191 0
M  V30 63872 C 6114.38 -2.06748 -0.989328 0
M  V30 63873 C 6115.38 -0.975035 -1.27866 0
M  V30 63874 O 6116.57 -1.23803 -1.2255 0
M  V30 63875 C 6113.71 -2.50056 -2.317 0
M  V30 63876 H 6114.9 -2.94542 -0.564369 0
M  V30 63877 H 6112.45 -1.54169 -0.257212 0
M  V30 63878 H 6113.19 -1.65476 -2.78905 0
M  V30 63879 H 6112.97 -3.29831 -2.12024 0
M  V30 63880 H 6114.46 -2.88444 -3.01977 0
M  V30 63881 N 6114.9 0.282551 -1.55046 0
M  V30 63882 C 6116.13 1.03389 -1.79216 0
M  V30 63883 C 6116.54 1.80282 -0.560715 0
M  V30 63884 O 6115.9 1.76344 0.469987 0
M  V30 63885 C 6115.95 1.99999 -3.01135 0
M  V30 63886 O 6115.67 1.26223 -4.19523 0
M  V30 63887 C 6117.17 2.87023 -3.37835 0
M  V30 63888 H 6114.39 0.305834 -0.597249 0
M  V30 63889 H 6116.94 0.316229 -2.0204 0
M  V30 63890 H 6115.09 2.67241 -2.80465 0
M  V30 63891 H 6115.51 1.9126 -4.88385 0
M  V30 63892 H 6116.98 3.50627 -4.26339 0
M  V30 63893 H 6117.46 3.56294 -2.5681 0
M  V30 63894 H 6118.06 2.25286 -3.60731 0
M  V30 63895 N 6116.38 1.47817 0.546623 0
M  V30 63896 C 6117.31 1.57167 1.66826 0
M  V30 63897 C 6118.32 0.45709 1.56251 0
M  V30 63898 O 6119.51 0.727191 1.63016 0
M  V30 63899 C 6116.61 1.46981 3.05368 0
M  V30 63900 C 6115.78 2.73192 3.41592 0
M  V30 63901 C 6114.84 2.56693 4.59342 0
M  V30 63902 O 6113.87 3.30537 4.63394 0
M  V30 63903 N 6115.07 1.65213 5.56493 0
M  V30 63904 H 6117.84 2.5389 1.59248 0
M  V30 63905 H 6115.4 1.4433 0.733515 0
M  V30 63906 H 6117.39 1.33662 3.8199 0
M  V30 63907 H 6115.96 0.582986 3.07116 0
M  V30 63908 H 6115.18 3.01195 2.54313 0
M  V30 63909 H 6116.47 3.56957 3.62573 0
M  V30 63910 H 6115.87 1.04389 5.55985 0
M  V30 63911 H 6114.42 1.57842 6.324 0
M  V30 63912 N 6117.86 -0.794198 1.36126 0
M  V30 63913 C 6118.82 -1.88823 1.29917 0
M  V30 63914 C 6119.82 -1.5945 0.207895 0
M  V30 63915 O 6121.01 -1.67951 0.46238 0
M  V30 63916 C 6118.14 -3.25507 1.0128 0
M  V30 63917 H 6119.33 -1.95745 2.27209 0
M  V30 63918 H 6116.89 -0.991463 1.20829 0
M  V30 63919 H 6117.62 -3.2427 0.0442675 0
M  V30 63920 H 6117.41 -3.48215 1.80246 0
M  V30 63921 H 6118.9 -4.05566 0.995285 0
M  V30 63922 N 6119.33 -1.20327 -1.0178 0
M  V30 63923 C 6120.3 -0.952773 -2.08458 0
M  V30 63924 C 6121.3 0.0712 -1.60642 0
M  V30 63925 O 6122.49 -0.164733 -1.73419 0
M  V30 63926 C 6119.62 -0.434171 -3.38124 0
M  V30 63927 H 6120.81 -1.89903 -2.32114 0
M  V30 63928 H 6118.37 -1.01847 -1.18562 0
M  V30 63929 H 6119.1 0.517607 -3.20143 0
M  V30 63930 H 6118.89 -1.17261 -3.74155 0
M  V30 63931 H 6120.38 -0.278362 -4.16671 0
M  V30 63932 N 6120.81 1.21069 -1.00896 0
M  V30 63933 C 6122.23 1.42311 -0.72247 0
M  V30 63934 C 6122.43 1.88919 0.700842 0
M  V30 63935 O 6121.48 2.05323 1.46965 0
M  V30 63936 C 6122.8 2.45123 -1.74169 0
M  V30 63937 C 6124.35 2.58901 -1.75896 0
M  V30 63938 C 6124.82 3.64949 -2.76724 0
M  V30 63939 N 6126.31 3.72424 -2.75417 0
M  V30 63940 C 6127.05 4.54117 -3.50093 0
M  V30 63941 N 6126.54 5.39675 -4.34422 0
M  V30 63942 N 6128.34 4.48577 -3.38725 0
M  V30 63943 H 6120.49 0.891285 -1.92795 0
M  V30 63944 H 6122.75 0.453691 -0.832387 0
M  V30 63945 H 6122.46 2.17858 -2.76099 0
M  V30 63946 H 6122.33 3.43991 -1.54758 0
M  V30 63947 H 6124.72 2.85501 -0.746556 0
M  V30 63948 H 6124.8 1.60254 -1.99379 0
M  V30 63949 H 6124.44 3.39094 -3.78124 0
M  V30 63950 H 6124.37 4.632 -2.50505 0
M  V30 63951 H 6126.86 3.11304 -2.14239 0
M  V30 63952 H 6127.18 5.99075 -4.88189 0
M  V30 63953 H 6125.52 5.39203 -4.38503 0
M  V30 63954 H 6128.71 3.80769 -2.72273 0
M  V30 63955 H 6128.88 5.12009 -3.97179 0
M  V30 63956 N 6122.29 0.784204 1.36704 0
M  V30 63957 C 6123.22 0.137025 2.2879 0
M  V30 63958 C 6124.24 -0.650698 1.49231 0
M  V30 63959 O 6125.42 -0.486739 1.71736 0
M  V30 63960 C 6122.52 -0.82919 3.286 0
M  V30 63961 C 6121.7 -0.0926362 4.37302 0
M  V30 63962 C 6120.76 -0.974031 5.17106 0
M  V30 63963 O 6119.78 -0.4332 5.67549 0
M  V30 63964 N 6120.98 -2.29891 5.33039 0
M  V30 63965 H 6123.75 0.928006 2.8497 0
M  V30 63966 H 6121.31 0.637648 1.48814 0
M  V30 63967 H 6123.3 -1.42255 3.78874 0
M  V30 63968 H 6121.87 -1.52108 2.73097 0
M  V30 63969 H 6121.09 0.681752 3.8826 0
M  V30 63970 H 6122.38 0.415834 5.07098 0
M  V30 63971 H 6121.78 -2.76251 4.93662 0
M  V30 63972 H 6120.34 -2.84203 5.86576 0
M  V30 63973 N 6123.77 -1.48213 0.535779 0
M  V30 63974 C 6124.73 -2.28207 -0.213132 0
M  V30 63975 C 6125.73 -1.35713 -0.862475 0
M  V30 63976 O 6126.92 -1.5855 -0.721632 0
M  V30 63977 C 6124.05 -3.14764 -1.30905 0
M  V30 63978 H 6125.25 -2.95882 0.489267 0
M  V30 63979 H 6122.8 -1.5355 0.291926 0
M  V30 63980 H 6123.53 -2.51733 -2.04453 0
M  V30 63981 H 6123.32 -3.82809 -0.848499 0
M  V30 63982 H 6124.81 -3.75091 -1.83566 0
M  V30 63983 N 6125.25 -0.271185 -1.55249 0
M  V30 63984 C 6126.21 0.604869 -2.21075 0
M  V30 63985 C 6127.21 1.08434 -1.18738 0
M  V30 63986 O 6128.4 0.985142 -1.43668 0
M  V30 63987 C 6125.53 1.83406 -2.87359 0
M  V30 63988 H 6126.72 0.0301927 -2.99885 0
M  V30 63989 H 6124.28 -0.0217754 -1.56285 0
M  V30 63990 H 6125.01 2.44934 -2.1255 0
M  V30 63991 H 6124.8 1.49821 -3.62348 0
M  V30 63992 H 6126.29 2.45712 -3.37661 0
M  V30 63993 N 6126.72 1.576 0.00159402 0
M  V30 63994 C 6127.96 1.92355 0.691296 0
M  V30 63995 C 6128.33 0.872596 1.71026 0
M  V30 63996 O 6129.53 1.10534 2.45022 0
M  V30 63997 C 6127.8 3.32168 1.31907 0
M  V30 63998 S 6129.36 3.88805 2.03411 0
M  V30 63999 H 6126.18 0.673322 0.228383 0
M  V30 64000 H 6128.78 1.95423 -0.0547105 0
M  V30 64001 H 6127.48 4.06498 0.564603 0
M  V30 64002 H 6127.01 3.32469 2.10304 0
M  V30 64003 H 6129.03 3.69752 3.30905 0
M  V30 64004 N 6128.2 -0.274325 1.55194 0
M  V30 64005 C 6129.43 -1.02437 1.79762 0
M  V30 64006 C 6129.85 -1.79982 0.570268 0
M  V30 64007 O 6129.2 -1.76591 -0.460628 0
M  V30 64008 C 6129.25 -1.98399 3.02192 0
M  V30 64009 O 6128.97 -1.23997 4.20186 0
M  V30 64010 C 6130.48 -2.85227 3.39353 0
M  V30 64011 H 6127.7 -0.302663 0.598862 0
M  V30 64012 H 6130.24 -0.30551 2.02205 0
M  V30 64013 H 6128.39 -2.6575 2.81879 0
M  V30 64014 H 6128.81 -1.88667 4.89393 0
M  V30 64015 H 6130.28 -3.48361 4.28193 0
M  V30 64016 H 6130.76 -3.54927 2.58696 0
M  V30 64017 H 6131.37 -2.23369 3.6192 0
M  V30 64018 N 6129.68 -1.48105 -0.538776 0
M  V30 64019 C 6130.93 -1.5493 -1.2915 0
M  V30 64020 C 6131.24 -0.224245 -1.9431 0
M  V30 64021 O 6132.45 -0.170654 -2.70963 0
M  V30 64022 C 6130.9 -2.73193 -2.34294 0
M  V30 64023 C 6130.51 -4.12303 -1.75243 0
M  V30 64024 C 6132.26 -2.89324 -3.10632 0
M  V30 64025 C 6130.16 -5.2184 -2.78275 0
M  V30 64026 H 6129.09 -0.57674 -0.485682 0
M  V30 64027 H 6131.74 -1.7442 -0.570081 0
M  V30 64028 H 6130.13 -2.47118 -3.09433 0
M  V30 64029 H 6131.3 -4.48359 -1.06352 0
M  V30 64030 H 6129.62 -4.01214 -1.11428 0
M  V30 64031 H 6132.21 -3.68327 -3.87608 0
M  V30 64032 H 6132.56 -1.9845 -3.65955 0
M  V30 64033 H 6133.09 -3.15257 -2.42607 0
M  V30 64034 H 6129.83 -6.1465 -2.27783 0
M  V30 64035 H 6129.35 -4.90282 -3.4552 0
M  V30 64036 H 6131.03 -5.49579 -3.41426 0
M  V30 64037 N 6131.16 0.786968 -1.36545 0
M  V30 64038 C 6132.4 1.54723 -1.31105 0
M  V30 64039 C 6132.74 1.93895 0.108785 0
M  V30 64040 O 6132.01 1.629 1.06273 0
M  V30 64041 C 6132.3 2.82264 -2.23604 0
M  V30 64042 C 6132.15 2.49444 -3.74296 0
M  V30 64043 C 6133.47 3.84105 -2.14829 0
M  V30 64044 H 6130.59 0.56133 -0.477575 0
M  V30 64045 H 6133.23 0.903968 -1.67118 0
M  V30 64046 H 6131.38 3.37157 -1.93022 0
M  V30 64047 H 6133.05 2.00584 -4.15408 0
M  V30 64048 H 6131.29 1.82352 -3.93612 0
M  V30 64049 H 6131.96 3.40548 -4.34432 0
M  V30 64050 H 6134.44 3.38666 -2.41753 0
M  V30 64051 H 6133.32 4.71091 -2.81717 0
M  V30 64052 H 6133.58 4.27246 -1.13636 0
M  V30 64053 N 6132.64 1.20865 1.01141 0
M  V30 64054 C 6133.55 0.978001 2.13242 0
M  V30 64055 C 6134.56 -0.0678251 1.73868 0
M  V30 64056 O 6135.74 0.120788 2.01037 0
M  V30 64057 C 6132.8 0.538696 3.42489 0
M  V30 64058 C 6131.86 1.65598 3.96075 0
M  V30 64059 C 6131.1 1.23755 5.19154 0
M  V30 64060 O 6131.32 0.108428 5.70297 0
M  V30 64061 O 6130.25 2.04699 5.66023 0
M  V30 64062 H 6134.08 1.91674 2.35573 0
M  V30 64063 H 6131.67 0.99297 1.11626 0
M  V30 64064 H 6133.55 0.303189 4.20308 0
M  V30 64065 H 6132.22 -0.371402 3.21562 0
M  V30 64066 H 6131.13 1.94583 3.19513 0
M  V30 64067 H 6132.46 2.54327 4.21401 0
M  V30 64068 N 6134.12 -1.20532 1.01537 0
M  V30 64069 C 6135.08 -2.21493 0.589376 0
M  V30 64070 C 6136.08 -1.57168 -0.339815 0
M  V30 64071 O 6137.27 -1.73724 -0.128675 0
M  V30 64072 C 6134.4 -3.40614 -0.139503 0
M  V30 64073 H 6135.59 -2.60695 1.4825 0
M  V30 64074 H 6133.15 -1.33974 0.805024 0
M  V30 64075 H 6133.88 -3.06913 -1.0476 0
M  V30 64076 H 6133.67 -3.88529 0.527987 0
M  V30 64077 H 6135.16 -4.15432 -0.424937 0
M  V30 64078 N 6135.59 -0.791442 -1.36286 0
M  V30 64079 C 6136.52 -0.205501 -2.32594 0
M  V30 64080 C 6137.5 0.660641 -1.56747 0
M  V30 64081 O 6138.69 0.594046 -1.84891 0
M  V30 64082 C 6135.82 0.658898 -3.40992 0
M  V30 64083 C 6134.77 -0.107514 -4.27865 0
M  V30 64084 C 6134.1 0.877609 -5.27449 0
M  V30 64085 C 6135.4 -1.29787 -5.05918 0
M  V30 64086 H 6137.09 -1.01009 -2.81847 0
M  V30 64087 H 6134.64 -0.48717 -1.35509 0
M  V30 64088 H 6136.59 1.07876 -4.07358 0
M  V30 64089 H 6135.32 1.49621 -2.90312 0
M  V30 64090 H 6133.98 -0.508381 -3.63058 0
M  V30 64091 H 6133.62 1.71001 -4.73041 0
M  V30 64092 H 6133.32 0.369223 -5.86439 0
M  V30 64093 H 6134.85 1.296 -5.96688 0
M  V30 64094 H 6136.26 -0.953661 -5.65312 0
M  V30 64095 H 6134.66 -1.73969 -5.7433 0
M  V30 64096 H 6135.73 -2.0922 -4.37441 0
M  V30 64097 N 6137.07 1.47927 -0.543632 0
M  V30 64098 C 6138.03 2.28317 0.201027 0
M  V30 64099 C 6139.03 1.36168 0.855265 0
M  V30 64100 O 6140.22 1.5893 0.713214 0
M  V30 64101 C 6137.36 3.15454 1.29234 0
M  V30 64102 H 6138.55 2.95618 -0.504952 0
M  V30 64103 H 6136.1 1.53393 -0.300065 0
M  V30 64104 H 6136.84 2.52814 2.03115 0
M  V30 64105 H 6136.62 3.83254 0.828185 0
M  V30 64106 H 6138.11 3.76059 1.81574 0
M  V30 64107 N 6138.55 0.279414 1.55103 0
M  V30 64108 C 6139.78 -0.339357 2.04098 0
M  V30 64109 C 6140.19 -1.49147 1.15761 0
M  V30 64110 O 6139.55 -1.81624 0.178622 0
M  V30 64111 C 6139.6 -0.816268 3.52164 0
M  V30 64112 O 6139.32 0.289966 4.37139 0
M  V30 64113 C 6140.82 -1.50241 4.17064 0
M  V30 64114 H 6138.04 -0.076838 0.666586 0
M  V30 64115 H 6140.59 0.412761 2.00291 0
M  V30 64116 H 6138.74 -1.51847 3.56401 0
M  V30 64117 H 6139.16 -0.077437 5.24443 0
M  V30 64118 H 6140.63 -1.78749 5.22257 0
M  V30 64119 H 6141.11 -2.43537 3.65494 0
M  V30 64120 H 6141.71 -0.843959 4.16842 0
M  V30 64121 N 6140.03 -1.57599 0.00676391 0
M  V30 64122 C 6141.28 -1.90038 -0.675891 0
M  V30 64123 C 6141.59 -0.88251 -1.7456 0
M  V30 64124 O 6142.8 -1.09736 -2.48335 0
M  V30 64125 C 6141.25 -3.3737 -1.25337 0
M  V30 64126 C 6140.86 -4.47469 -0.218126 0
M  V30 64127 C 6142.6 -3.7891 -1.91382 0
M  V30 64128 C 6140.51 -5.85882 -0.805976 0
M  V30 64129 H 6139.44 -0.709134 -0.256212 0
M  V30 64130 H 6142.09 -1.83372 0.0684147 0
M  V30 64131 H 6140.47 -3.38895 -2.04856 0
M  V30 64132 H 6141.65 -4.5747 0.552969 0
M  V30 64133 H 6139.96 -4.14991 0.342277 0
M  V30 64134 H 6142.56 -4.79662 -2.3628 0
M  V30 64135 H 6142.9 -3.12782 -2.74723 0
M  V30 64136 H 6143.44 -3.79713 -1.18587 0
M  V30 64137 H 6140.17 -6.55499 -0.011197 0
M  V30 64138 H 6139.69 -5.79531 -1.54607 0
M  V30 64139 H 6141.37 -6.33753 -1.30256 0
M  V30 64140 N 6141.51 0.266091 -1.55337 0
M  V30 64141 C 6142.92 0.836624 -1.66906 0
M  V30 64142 C 6143.27 1.86779 -0.600663 0
M  V30 64143 O 6142.39 2.14873 0.256598 0
M  V30 64144 C 6142.99 1.52426 -3.02575 0
M  V30 64145 C 6141.55 2.04273 -3.16148 0
M  V30 64146 C 6140.69 0.887156 -2.62726 0
M  V30 64147 H 6143.64 0.0422915 -1.58644 0
M  V30 64148 H 6143.67 2.39153 -2.9595 0
M  V30 64149 H 6143.18 0.773515 -3.80313 0
M  V30 64150 H 6141.28 2.82287 -2.43196 0
M  V30 64151 H 6141.39 2.2533 -4.22804 0
M  V30 64152 H 6139.76 1.28243 -2.20059 0
M  V30 64153 H 6140.54 0.149809 -3.42973 0
M  V30 64154 N 6142.98 1.48388 0.530914 0
M  V30 64155 C 6144.21 1.60273 1.31633 0
M  V30 64156 C 6144.63 0.262855 1.86254 0
M  V30 64157 O 6143.99 -0.765331 1.64354 0
M  V30 64158 C 6144.04 2.65172 2.44369 0
M  V30 64159 O 6143.14 2.22267 3.47378 0
M  V30 64160 H 6142.48 0.537469 0.389901 0
M  V30 64161 H 6145.01 1.94368 0.638931 0
M  V30 64162 H 6145.02 2.86416 2.90569 0
M  V30 64163 H 6143.7 3.62446 2.03974 0
M  V30 64164 H 6142.28 2.11232 3.07304 0
M  V30 64165 N 6144.46 -0.779715 1.36961 0
M  V30 64166 C 6145.88 -1.07915 1.17586 0
M  V30 64167 C 6146.08 -2.01499 0.00656312 0
M  V30 64168 O 6145.13 -2.43835 -0.655819 0
M  V30 64169 C 6146.45 -1.6843 2.49102 0
M  V30 64170 C 6147.99 -1.80726 2.55553 0
M  V30 64171 C 6148.47 -2.44655 3.87179 0
M  V30 64172 N 6149.96 -2.52114 3.88578 0
M  V30 64173 C 6150.7 -3.02412 4.8717 0
M  V30 64174 N 6150.19 -3.52943 5.96157 0
M  V30 64175 N 6151.98 -3.01213 4.74581 0
M  V30 64176 H 6144.14 -0.158175 2.1181 0
M  V30 64177 H 6146.4 -0.132793 0.938653 0
M  V30 64178 H 6146.1 -1.07135 3.34985 0
M  V30 64179 H 6145.98 -2.67823 2.65614 0
M  V30 64180 H 6148.37 -2.41156 1.70081 0
M  V30 64181 H 6148.45 -0.801113 2.42932 0
M  V30 64182 H 6148.09 -1.84866 4.73061 0
M  V30 64183 H 6148.02 -3.4586 3.971 0
M  V30 64184 H 6150.51 -2.16344 3.09845 0
M  V30 64185 H 6150.82 -3.89702 6.67347 0
M  V30 64186 H 6149.17 -3.51069 5.99813 0
M  V30 64187 H 6152.36 -2.61031 3.88562 0
M  V30 64188 H 6152.53 -3.40103 5.51574 0
M  V30 64189 N 6145.94 -1.21399 -1.00498 0
M  V30 64190 C 6146.89 -0.973271 -2.09275 0
M  V30 64191 C 6147.86 0.100738 -1.65794 0
M  V30 64192 O 6149.04 -0.0463855 -1.90744 0
M  V30 64193 C 6146.18 -0.54406 -3.40784 0
M  V30 64194 C 6145.29 -1.68751 -3.97677 0
M  V30 64195 C 6144.43 -1.20747 -5.17295 0
M  V30 64196 C 6143.47 -2.32325 -5.66296 0
M  V30 64197 N 6142.61 -1.85454 -6.77164 0
M  V30 64198 H 6147.45 -1.90449 -2.29202 0
M  V30 64199 H 6144.98 -0.949121 -1.12384 0
M  V30 64200 H 6146.94 -0.276457 -4.16283 0
M  V30 64201 H 6145.57 0.35015 -3.20895 0
M  V30 64202 H 6144.62 -2.06975 -3.19164 0
M  V30 64203 H 6145.93 -2.52725 -4.30037 0
M  V30 64204 H 6145.09 -0.896523 -6.00039 0
M  V30 64205 H 6143.83 -0.337771 -4.86529 0
M  V30 64206 H 6142.83 -2.64222 -4.82148 0
M  V30 64207 H 6144.06 -3.1979 -5.99092 0
M  V30 64208 H 6142 -1.00828 -6.48205 0
M  V30 64209 H 6141.92 -2.63001 -7.08778 0
M  V30 64210 H 6143.19 -1.57393 -7.63445 0
M  V30 64211 N 6147.42 1.19992 -1.02175 0
M  V30 64212 C 6148.35 2.2239 -0.554538 0
M  V30 64213 C 6149.36 1.58637 0.365804 0
M  V30 64214 O 6150.55 1.77751 0.163331 0
M  V30 64215 C 6147.65 3.38236 0.212115 0
M  V30 64216 C 6146.82 4.31576 -0.711405 0
M  V30 64217 C 6145.88 5.26199 0.00857815 0
M  V30 64218 O 6144.91 5.65861 -0.615634 0
M  V30 64219 N 6146.11 5.66173 1.28172 0
M  V30 64220 H 6148.88 2.63102 -1.43518 0
M  V30 64221 H 6146.44 1.34586 -0.899901 0
M  V30 64222 H 6148.43 3.98545 0.703142 0
M  V30 64223 H 6147 2.96372 0.994101 0
M  V30 64224 H 6146.22 3.69156 -1.38265 0
M  V30 64225 H 6147.51 4.90856 -1.33932 0
M  V30 64226 H 6146.91 5.35972 1.80971 0
M  V30 64227 H 6145.46 6.28768 1.71738 0
M  V30 64228 N 6148.9 0.798659 1.35865 0
M  V30 64229 C 6149.83 0.161283 2.28632 0
M  V30 64230 C 6150.84 -0.634833 1.49912 0
M  V30 64231 O 6152.03 -0.468497 1.72242 0
M  V30 64232 C 6149.13 -0.794291 3.29461 0
M  V30 64233 C 6148.3 -0.0462493 4.37376 0
M  V30 64234 C 6147.36 -0.919131 5.1811 0
M  V30 64235 O 6146.39 -0.372979 5.67977 0
M  V30 64236 N 6147.59 -2.24224 5.35447 0
M  V30 64237 H 6150.36 0.958179 2.8397 0
M  V30 64238 H 6147.92 0.653396 1.4813 0
M  V30 64239 H 6149.91 -1.38228 3.80362 0
M  V30 64240 H 6148.48 -1.49202 2.74695 0
M  V30 64241 H 6147.7 0.722893 3.87515 0
M  V30 64242 H 6148.99 0.469595 5.06628 0
M  V30 64243 H 6148.38 -2.70999 4.96564 0
M  V30 64244 H 6146.94 -2.77966 5.89558 0
M  V30 64245 N 6150.37 -1.47637 0.551469 0
M  V30 64246 C 6151.62 -2.02784 0.0253137 0
M  V30 64247 C 6151.95 -1.42554 -1.31879 0
M  V30 64248 O 6151.23 -0.57902 -1.85681 0
M  V30 64249 C 6151.51 -3.60024 -0.0738785 0
M  V30 64250 C 6151.36 -4.30697 1.29691 0
M  V30 64251 C 6152.68 -4.32949 -0.79015 0
M  V30 64252 H 6149.8 -0.736923 0.0106732 0
M  V30 64253 H 6152.44 -1.76129 0.712651 0
M  V30 64254 H 6150.59 -3.82866 -0.659255 0
M  V30 64255 H 6152.27 -4.19213 1.92505 0
M  V30 64256 H 6150.51 -3.91275 1.87313 0
M  V30 64257 H 6151.18 -5.39234 1.18028 0
M  V30 64258 H 6153.66 -4.15066 -0.29318 0
M  V30 64259 H 6152.53 -5.42611 -0.828501 0
M  V30 64260 H 6152.79 -4.01758 -1.84507 0
M  V30 64261 N 6151.85 -0.287636 -1.54953 0
M  V30 64262 C 6152.78 0.587776 -2.25981 0
M  V30 64263 C 6153.76 1.1488 -1.25446 0
M  V30 64264 O 6154.95 1.18062 -1.54192 0
M  V30 64265 C 6152.08 1.76608 -2.99043 0
M  V30 64266 C 6151.03 1.33603 -4.06613 0
M  V30 64267 C 6150.36 2.59843 -4.67318 0
M  V30 64268 C 6151.66 0.477036 -5.20117 0
M  V30 64269 H 6153.35 -0.00460708 -2.994 0
M  V30 64270 H 6150.9 -0.00365583 -1.44 0
M  V30 64271 H 6152.85 2.38448 -3.47448 0
M  V30 64272 H 6151.58 2.38449 -2.23181 0
M  V30 64273 H 6150.23 0.740753 -3.59038 0
M  V30 64274 H 6149.88 3.19969 -3.88109 0
M  V30 64275 H 6149.58 2.31774 -5.39958 0
M  V30 64276 H 6151.11 3.2251 -5.18479 0
M  V30 64277 H 6152.52 1.00077 -5.64498 0
M  V30 64278 H 6150.92 0.290702 -5.99395 0
M  V30 64279 H 6151.99 -0.501163 -4.82303 0
M  V30 64280 N 6153.33 1.57593 -0.0151216 0
M  V30 64281 C 6154.61 1.82476 0.70441 0
M  V30 64282 C 6154.99 0.896085 1.91137 0
M  V30 64283 O 6154.34 -0.0516562 2.28442 0
M  V30 64284 C 6154.55 3.31348 1.09587 0
M  V30 64285 C 6155.89 3.97471 1.49339 0
M  V30 64286 O 6156.92 3.35761 1.18924 0
M  V30 64287 O 6155.78 5.06206 2.05954 0
M  V30 64288 H 6152.87 0.75192 0.344305 0
M  V30 64289 H 6155.42 1.69649 -0.0417337 0
M  V30 64290 H 6154.19 3.90586 0.236221 0
M  V30 64291 H 6153.81 3.4923 1.90063 0
M  V30 64292 N 6154.81 -0.257849 1.55476 0
M  V30 64293 C 6155.74 -1.32296 1.92406 0
M  V30 64294 C 6156.72 -1.50764 0.78767 0
M  V30 64295 O 6157.9 -1.63555 1.04706 0
M  V30 64296 C 6155.03 -2.67976 2.20921 0
M  V30 64297 C 6153.99 -2.64219 3.36708 0
M  V30 64298 C 6153.31 -4.03591 3.50739 0
M  V30 64299 C 6154.61 -2.2216 4.72697 0
M  V30 64300 H 6156.31 -1.01636 2.81621 0
M  V30 64301 H 6153.85 -0.487476 1.35498 0
M  V30 64302 H 6155.81 -3.42614 2.45344 0
M  V30 64303 H 6154.53 -3.0025 1.28521 0
M  V30 64304 H 6153.19 -1.92038 3.12277 0
M  V30 64305 H 6152.84 -4.33113 2.55778 0
M  V30 64306 H 6152.54 -4.01968 4.28597 0
M  V30 64307 H 6154.06 -4.79945 3.77472 0
M  V30 64308 H 6155.48 -2.86526 4.96564 0
M  V30 64309 H 6153.87 -2.3167 5.53578 0
M  V30 64310 H 6154.94 -1.17309 4.70496 0
M  V30 64311 N 6156.29 -1.48668 -0.523038 0
M  V30 64312 C 6157.22 -1.66606 -1.63599 0
M  V30 64313 C 6158.2 -0.51486 -1.62121 0
M  V30 64314 O 6159.38 -0.748201 -1.79208 0
M  V30 64315 C 6156.51 -1.7121 -3.02166 0
M  V30 64316 C 6155.47 -2.859 -3.18505 0
M  V30 64317 C 6154.79 -2.75598 -4.58203 0
M  V30 64318 C 6156.09 -4.27115 -3.00616 0
M  V30 64319 H 6157.79 -2.59782 -1.48842 0
M  V30 64320 H 6155.33 -1.25017 -0.714623 0
M  V30 64321 H 6157.29 -1.82347 -3.79905 0
M  V30 64322 H 6156.01 -0.746177 -3.17962 0
M  V30 64323 H 6154.67 -2.74329 -2.43186 0
M  V30 64324 H 6154.32 -1.7696 -4.70844 0
M  V30 64325 H 6154.02 -3.52561 -4.70079 0
M  V30 64326 H 6155.54 -2.88712 -5.38031 0
M  V30 64327 H 6156.95 -4.39482 -3.68141 0
M  V30 64328 H 6155.35 -5.0513 -3.23981 0
M  V30 64329 H 6156.42 -4.43094 -1.96967 0
M  V30 64330 N 6157.76 0.772441 -1.37372 0
M  V30 64331 C 6158.99 1.56153 -1.35735 0
M  V30 64332 C 6159.41 1.88713 0.0574611 0
M  V30 64333 O 6158.76 1.51399 1.01906 0
M  V30 64334 C 6158.82 2.87223 -2.19511 0
M  V30 64335 O 6158.54 2.5606 -3.55479 0
M  V30 64336 C 6160.04 3.81456 -2.25845 0
M  V30 64337 H 6157.26 0.483787 -0.464964 0
M  V30 64338 H 6159.8 0.957439 -1.80702 0
M  V30 64339 H 6157.96 3.44057 -1.78054 0
M  V30 64340 H 6158.37 3.39988 -3.99385 0
M  V30 64341 H 6159.84 4.70432 -2.88787 0
M  V30 64342 H 6160.32 4.20538 -1.26667 0
M  V30 64343 H 6160.93 3.30552 -2.67611 0
M  V30 64344 N 6159.24 1.21931 0.998532 0
M  V30 64345 C 6160.47 1.06741 1.77823 0
M  V30 64346 C 6160.89 -0.37809 1.84261 0
M  V30 64347 O 6160.25 -1.27296 1.29095 0
M  V30 64348 C 6160.3 1.67673 3.19246 0
M  V30 64349 O 6159.4 0.926589 4.01856 0
M  V30 64350 H 6158.74 0.375261 0.547792 0
M  V30 64351 H 6161.27 1.6161 1.25473 0
M  V30 64352 H 6161.28 1.72164 3.69897 0
M  V30 64353 H 6159.96 2.72865 3.13875 0
M  V30 64354 H 6158.54 0.957272 3.60404 0
M  V30 64355 N 6160.72 -1.19449 1.02809 0
M  V30 64356 C 6161.95 -1.92792 0.742613 0
M  V30 64357 C 6162.36 -1.7568 -0.702356 0
M  V30 64358 O 6161.7 -1.07552 -1.48923 0
M  V30 64359 C 6161.76 -3.4493 1.01308 0
M  V30 64360 C 6161.43 -3.85812 2.44945 0
M  V30 64361 C 6162.42 -3.90633 3.43077 0
M  V30 64362 C 6160.11 -4.17473 2.79324 0
M  V30 64363 C 6162.1 -4.26544 4.73644 0
M  V30 64364 C 6159.79 -4.53057 4.10101 0
M  V30 64365 C 6160.79 -4.57567 5.07072 0
M  V30 64366 O 6160.48 -4.92328 6.35507 0
M  V30 64367 H 6160.21 -0.619251 0.271116 0
M  V30 64368 H 6162.76 -1.52555 1.37536 0
M  V30 64369 H 6160.99 -3.85347 0.323186 0
M  V30 64370 H 6162.68 -3.9951 0.717387 0
M  V30 64371 H 6163.45 -3.66324 3.17855 0
M  V30 64372 H 6159.33 -4.13147 2.04525 0
M  V30 64373 H 6162.87 -4.29979 5.4933 0
M  V30 64374 H 6158.77 -4.76824 4.35097 0
M  V30 64375 H 6159.54 -5.10278 6.39967 0
M  V30 64376 N 6162.2 -0.805853 -1.35439 0
M  V30 64377 C 6163.13 -0.230159 -2.32363 0
M  V30 64378 C 6164.11 0.643979 -1.57439 0
M  V30 64379 O 6165.29 0.574402 -1.85511 0
M  V30 64380 C 6162.42 0.622694 -3.41672 0
M  V30 64381 C 6161.38 -0.152889 -4.27727 0
M  V30 64382 C 6160.7 0.821617 -5.2835 0
M  V30 64383 C 6162 -1.35146 -5.04513 0
M  V30 64384 H 6163.7 -1.03993 -2.8076 0
M  V30 64385 H 6161.24 -0.501515 -1.34985 0
M  V30 64386 H 6163.2 1.0355 -4.08479 0
M  V30 64387 H 6161.92 1.46534 -2.91882 0
M  V30 64388 H 6160.58 -0.546859 -3.62498 0
M  V30 64389 H 6160.23 1.65974 -4.74828 0
M  V30 64390 H 6159.93 0.307002 -5.86797 0
M  V30 64391 H 6161.45 1.23264 -5.98029 0
M  V30 64392 H 6162.87 -1.01357 -5.64269 0
M  V30 64393 H 6161.26 -1.80051 -5.72452 0
M  V30 64394 H 6162.33 -2.13848 -4.35198 0
M  V30 64395 N 6163.68 1.47342 -0.559291 0
M  V30 64396 C 6164.95 1.95577 0.029758 0
M  V30 64397 C 6165.33 1.5019 1.48344 0
M  V30 64398 O 6164.68 0.741696 2.16128 0
M  V30 64399 C 6164.89 3.48801 -0.11789 0
M  V30 64400 C 6166.24 4.24592 0.0263857 0
M  V30 64401 O 6167.26 3.56171 -0.0455415 0
M  V30 64402 O 6166.12 5.46199 0.181483 0
M  V30 64403 H 6163.22 0.824599 0.0629682 0
M  V30 64404 H 6165.76 1.57733 -0.625961 0
M  V30 64405 H 6164.54 3.74648 -1.12937 0
M  V30 64406 H 6164.16 3.93415 0.575345 0
M  V30 64407 N 6165.16 0.295849 1.54798 0
M  V30 64408 C 6166.07 -0.592126 2.27004 0
M  V30 64409 C 6167.08 -1.15276 1.30336 0
M  V30 64410 O 6168.26 -1.17864 1.63309 0
M  V30 64411 C 6165.32 -1.75016 2.99283 0
M  V30 64412 C 6164.38 -1.22413 4.11477 0
M  V30 64413 C 6163.62 -2.32697 4.80299 0
M  V30 64414 O 6163.84 -3.5249 4.48449 0
M  V30 64415 O 6162.77 -1.9968 5.67813 0
M  V30 64416 H 6166.6 -0.00655372 3.03699 0
M  V30 64417 H 6164.18 0.0624938 1.49269 0
M  V30 64418 H 6166.07 -2.42496 3.44636 0
M  V30 64419 H 6164.74 -2.32244 2.25487 0
M  V30 64420 H 6163.65 -0.515206 3.70535 0
M  V30 64421 H 6164.98 -0.697347 4.87235 0
M  V30 64422 N 6166.63 -1.57583 0.023479 0
M  V30 64423 C 6167.56 -2.1291 -0.958729 0
M  V30 64424 C 6168.54 -1.04385 -1.34305 0
M  V30 64425 O 6169.73 -1.32189 -1.42267 0
M  V30 64426 C 6166.86 -2.65159 -2.24295 0
M  V30 64427 C 6165.81 -3.78421 -1.99954 0
M  V30 64428 C 6165.14 -4.17076 -3.34592 0
M  V30 64429 C 6166.44 -5.04732 -1.34324 0
M  V30 64430 H 6168.13 -2.9523 -0.497977 0
M  V30 64431 H 6165.68 -1.42018 -0.238088 0
M  V30 64432 H 6167.63 -3.02498 -2.93382 0
M  V30 64433 H 6166.36 -1.79993 -2.72526 0
M  V30 64434 H 6165.02 -3.41512 -1.33286 0
M  V30 64435 H 6164.66 -3.28899 -3.80571 0
M  V30 64436 H 6164.36 -4.93396 -3.19114 0
M  V30 64437 H 6165.89 -4.56993 -4.04957 0
M  V30 64438 H 6167.3 -5.39693 -1.93403 0
M  V30 64439 H 6165.7 -5.86013 -1.29262 0
M  V30 64440 H 6166.77 -4.83873 -0.315455 0
M  V30 64441 N 6168.11 0.2496 -1.55611 0
M  V30 64442 C 6169.34 0.999867 -1.81707 0
M  V30 64443 C 6169.76 1.78268 -0.600176 0
M  V30 64444 O 6169.12 1.75608 0.450737 0
M  V30 64445 C 6169.17 1.9156 -3.05512 0
M  V30 64446 O 6168.27 3.00692 -2.82238 0
M  V30 64447 H 6167.61 0.284652 -0.599891 0
M  V30 64448 H 6170.14 0.271408 -2.02792 0
M  V30 64449 H 6170.15 2.33076 -3.34873 0
M  V30 64450 H 6168.83 1.34 -3.93722 0
M  V30 64451 H 6167.4 2.63323 -2.64037 0
M  V30 64452 N 6169.59 1.48943 0.515146 0
M  V30 64453 C 6170.84 1.56965 1.26669 0
M  V30 64454 C 6171.15 0.25513 1.93929 0
M  V30 64455 O 6172.36 0.213741 2.70657 0
M  V30 64456 C 6170.81 2.76885 2.29918 0
M  V30 64457 C 6170.42 4.15039 1.68661 0
M  V30 64458 C 6172.17 2.94229 3.05989 0
M  V30 64459 C 6170.07 5.26201 2.69938 0
M  V30 64460 H 6169 0.584394 0.476445 0
M  V30 64461 H 6171.65 1.75305 0.54226 0
M  V30 64462 H 6170.04 2.5201 3.05462 0
M  V30 64463 H 6171.21 4.49994 0.992057 0
M  V30 64464 H 6169.52 4.02936 1.05031 0
M  V30 64465 H 6172.12 3.74446 3.81699 0
M  V30 64466 H 6172.46 2.04247 3.62752 0
M  V30 64467 H 6173 3.19076 2.37561 0
M  V30 64468 H 6169.74 6.18196 2.17976 0
M  V30 64469 H 6169.26 4.95716 3.37676 0
M  V30 64470 H 6170.94 5.54941 3.3264 0
M  V30 64471 N 6171.07 -0.765145 1.3778 0
M  V30 64472 C 6172.03 -1.86025 1.33893 0
M  V30 64473 C 6173.03 -1.58974 0.24167 0
M  V30 64474 O 6174.22 -1.66933 0.497901 0
M  V30 64475 C 6171.35 -3.23286 1.08162 0
M  V30 64476 H 6172.55 -1.90882 2.3131 0
M  V30 64477 H 6170.1 -0.96561 1.22905 0
M  V30 64478 H 6170.83 -3.24103 0.11304 0
M  V30 64479 H 6170.62 -3.44314 1.87592 0
M  V30 64480 H 6172.11 -4.03364 1.08109 0
M  V30 64481 N 6172.55 -1.22459 -0.992051 0
M  V30 64482 C 6173.79 -1.04758 -1.7283 0
M  V30 64483 C 6174.11 0.418085 -1.90465 0
M  V30 64484 O 6173.38 1.30067 -1.46491 0
M  V30 64485 H 6171.96 -0.384649 -0.640355 0
M  V30 64486 H 6174.63 -1.53984 -1.19477 0
M  V30 64487 H 6173.72 -1.52611 -2.72243 0
M  V30 64488 N 6174.02 1.18902 -1.03441 0
M  V30 64489 C 6174.93 2.25977 -0.630219 0
M  V30 64490 C 6175.95 1.70634 0.340608 0
M  V30 64491 O 6177.13 2.00433 0.197104 0
M  V30 64492 C 6174.19 3.46699 0.00701607 0
M  V30 64493 C 6173.25 4.17201 -1.01202 0
M  V30 64494 C 6172.48 5.3216 -0.405096 0
M  V30 64495 O 6172.71 5.64897 0.790439 0
M  V30 64496 O 6171.64 5.91184 -1.13069 0
M  V30 64497 H 6175.47 2.62802 -1.52212 0
M  V30 64498 H 6173.05 1.25862 -0.804922 0
M  V30 64499 H 6174.93 4.19842 0.362057 0
M  V30 64500 H 6173.61 3.1171 0.872839 0
M  V30 64501 H 6172.52 3.46154 -1.41874 0
M  V30 64502 H 6173.85 4.56175 -1.84839 0
M  V30 64503 N 6175.5 0.813024 1.3501 0
M  V30 64504 C 6176.74 0.402138 2.00405 0
M  V30 64505 C 6177.11 -1.01331 1.63083 0
M  V30 64506 O 6178.31 -1.52655 2.21246 0
M  V30 64507 C 6176.58 0.587153 3.52544 0
M  V30 64508 S 6178.14 0.267645 4.37983 0
M  V30 64509 H 6174.95 0.152407 0.694473 0
M  V30 64510 H 6177.56 1.05668 1.64483 0
M  V30 64511 H 6176.26 1.61718 3.77194 0
M  V30 64512 H 6175.79 -0.0824795 3.93314 0
M  V30 64513 H 6177.81 -0.922336 4.87552 0
M  V30 64514 N 6176.98 -1.47043 0.567097 0
M  V30 64515 C 6177.94 -2.28608 -0.164678 0
M  V30 64516 C 6178.94 -1.37512 -0.833494 0
M  V30 64517 O 6180.13 -1.60045 -0.687839 0
M  V30 64518 C 6177.26 -3.1747 -1.24199 0
M  V30 64519 H 6178.46 -2.94778 0.551918 0
M  V30 64520 H 6176.01 -1.52896 0.32443 0
M  V30 64521 H 6176.75 -2.56013 -1.99067 0
M  V30 64522 H 6176.53 -3.84523 -0.767108 0
M  V30 64523 H 6178.02 -3.789 -1.75568 0
M  V30 64524 N 6178.46 -0.304054 -1.54639 0
M  V30 64525 C 6179.42 0.557839 -2.22308 0
M  V30 64526 C 6180.42 1.05891 -1.21012 0
M  V30 64527 O 6181.61 0.954446 -1.45726 0
M  V30 64528 C 6178.74 1.77269 -2.91185 0
M  V30 64529 H 6179.94 -0.0334241 -2.99881 0
M  V30 64530 H 6177.49 -0.0549208 -1.56203 0
M  V30 64531 H 6178.22 2.40371 -2.17698 0
M  V30 64532 H 6178.01 1.42102 -3.65444 0
M  V30 64533 H 6179.5 2.38495 -3.42797 0
M  V30 64534 N 6179.94 1.57568 -0.0318356 0
M  V30 64535 C 6180.85 2.13846 0.964736 0
M  V30 64536 C 6181.86 1.09139 1.35516 0
M  V30 64537 O 6183.04 1.4121 1.43603 0
M  V30 64538 C 6180.1 2.65662 2.22766 0
M  V30 64539 C 6179.16 3.85094 1.8974 0
M  V30 64540 C 6178.4 4.34429 3.10011 0
M  V30 64541 O 6178.62 3.82925 4.22758 0
M  V30 64542 O 6177.55 5.26243 2.92151 0
M  V30 64543 H 6181.38 2.99281 0.516196 0
M  V30 64544 H 6178.97 1.48201 0.18893 0
M  V30 64545 H 6180.85 2.99046 2.969 0
M  V30 64546 H 6179.52 1.83308 2.66795 0
M  V30 64547 H 6178.43 3.56632 1.12981 0
M  V30 64548 H 6179.76 4.68619 1.50524 0
M  V30 64549 N 6181.41 -0.241344 1.55741 0
M  V30 64550 C 6182.64 -0.984581 1.8163 0
M  V30 64551 C 6183.05 -1.79232 0.606022 0
M  V30 64552 O 6182.4 -1.78481 -0.434778 0
M  V30 64553 C 6182.46 -1.96636 3.00956 0
M  V30 64554 C 6182.12 -1.34503 4.36758 0
M  V30 64555 C 6183.12 -0.744744 5.14538 0
M  V30 64556 C 6180.8 -1.36273 4.83461 0
M  V30 64557 C 6182.8 -0.170433 6.37172 0
M  V30 64558 C 6180.48 -0.784571 6.06043 0
M  V30 64559 C 6181.48 -0.189454 6.82737 0
M  V30 64560 O 6181.17 0.379765 8.03002 0
M  V30 64561 H 6180.9 -0.295097 0.608189 0
M  V30 64562 H 6183.46 -0.26778 2.03647 0
M  V30 64563 H 6181.69 -2.72162 2.74708 0
M  V30 64564 H 6183.38 -2.57349 3.13889 0
M  V30 64565 H 6184.14 -0.723538 4.79573 0
M  V30 64566 H 6180.02 -1.81533 4.23753 0
M  V30 64567 H 6183.56 0.294704 6.96977 0
M  V30 64568 H 6179.46 -0.803123 6.40484 0
M  V30 64569 H 6180.23 0.272166 8.18047 0
M  V30 64570 N 6182.89 -1.49214 -0.50724 0
M  V30 64571 C 6183.82 -1.68332 -1.61823 0
M  V30 64572 C 6184.8 -0.532026 -1.61566 0
M  V30 64573 O 6185.99 -0.767166 -1.78405 0
M  V30 64574 C 6183.12 -1.74405 -3.00333 0
M  V30 64575 C 6182.07 -2.89262 -3.15455 0
M  V30 64576 C 6181.4 -2.80442 -4.55254 0
M  V30 64577 C 6182.7 -4.30279 -2.96069 0
M  V30 64578 H 6184.39 -2.61346 -1.46078 0
M  V30 64579 H 6181.94 -1.25767 -0.701323 0
M  V30 64580 H 6183.89 -1.86366 -3.77949 0
M  V30 64581 H 6182.62 -0.77986 -3.17153 0
M  V30 64582 H 6181.27 -2.76893 -2.40262 0
M  V30 64583 H 6180.92 -1.81944 -4.68941 0
M  V30 64584 H 6180.62 -3.57527 -4.66313 0
M  V30 64585 H 6182.15 -2.94403 -5.34939 0
M  V30 64586 H 6183.56 -4.43362 -3.63459 0
M  V30 64587 H 6181.96 -5.08538 -3.18605 0
M  V30 64588 H 6183.03 -4.45158 -1.92256 0
M  V30 64589 N 6184.37 0.757827 -1.38184 0
M  V30 64590 C 6185.33 1.85312 -1.34878 0
M  V30 64591 C 6186.33 1.58843 -0.250097 0
M  V30 64592 O 6187.52 1.66666 -0.506747 0
M  V30 64593 C 6184.66 3.22708 -1.09875 0
M  V30 64594 H 6185.85 1.89653 -2.32319 0
M  V30 64595 H 6183.4 0.959079 -1.23415 0
M  V30 64596 H 6184.14 3.24038 -0.130226 0
M  V30 64597 H 6183.92 3.43314 -1.89415 0
M  V30 64598 H 6185.41 4.02785 -1.10246 0
M  V30 64599 N 6185.85 1.22983 0.985543 0
M  V30 64600 C 6186.78 1.03081 2.09515 0
M  V30 64601 C 6187.76 -0.0506427 1.70025 0
M  V30 64602 O 6188.94 0.113006 1.93871 0
M  V30 64603 C 6186.07 0.615698 3.41799 0
M  V30 64604 C 6185.03 1.64391 3.9517 0
M  V30 64605 C 6184.35 1.08441 5.23588 0
M  V30 64606 C 6185.65 3.0357 4.25021 0
M  V30 64607 H 6187.35 1.9589 2.26423 0
M  V30 64608 H 6184.89 0.943244 1.08807 0
M  V30 64609 H 6186.85 0.463541 4.18843 0
M  V30 64610 H 6185.57 -0.348071 3.2474 0
M  V30 64611 H 6184.23 1.78397 3.20266 0
M  V30 64612 H 6183.88 0.111774 5.02876 0
M  V30 64613 H 6183.58 1.77138 5.60264 0
M  V30 64614 H 6185.1 0.943992 6.03259 0
M  V30 64615 H 6186.52 2.92895 4.92834 0
M  V30 64616 H 6184.91 3.69458 4.72886 0
M  V30 64617 H 6185.98 3.52948 3.32499 0
M  V30 64618 N 6187.33 -1.18352 1.04071 0
M  V30 64619 C 6188.56 -1.91994 0.76302 0
M  V30 64620 C 6188.96 -1.76415 -0.683683 0
M  V30 64621 O 6188.31 -1.09126 -1.47774 0
M  V30 64622 C 6188.37 -3.43836 1.04961 0
M  V30 64623 C 6188.03 -3.83193 2.49023 0
M  V30 64624 C 6189.03 -3.86972 3.47201 0
M  V30 64625 C 6186.72 -4.14487 2.83736 0
M  V30 64626 C 6188.71 -4.21496 4.78142 0
M  V30 64627 C 6186.4 -4.48682 4.14883 0
M  V30 64628 C 6187.39 -4.52163 5.11896 0
M  V30 64629 O 6187.08 -4.8556 6.40693 0
M  V30 64630 H 6186.81 -0.616341 0.277669 0
M  V30 64631 H 6189.37 -1.51087 1.39147 0
M  V30 64632 H 6187.6 -3.84983 0.364039 0
M  V30 64633 H 6189.29 -3.98727 0.75972 0
M  V30 64634 H 6190.05 -3.62932 3.21722 0
M  V30 64635 H 6185.93 -4.10955 2.08895 0
M  V30 64636 H 6189.48 -4.24128 5.5386 0
M  V30 64637 H 6185.37 -4.72182 4.4013 0
M  V30 64638 H 6186.14 -5.03462 6.45344 0
M  V30 64639 N 6188.8 -0.820173 -1.34577 0
M  V30 64640 C 6189.74 -0.197636 -2.28346 0
M  V30 64641 C 6190.75 0.610903 -1.50903 0
M  V30 64642 O 6191.94 0.441035 -1.72966 0
M  V30 64643 C 6189.04 0.741776 -3.30682 0
M  V30 64644 C 6188.21 -0.0233392 -4.37394 0
M  V30 64645 C 6187.27 0.836587 -5.19507 0
M  V30 64646 O 6186.3 0.282572 -5.68498 0
M  V30 64647 N 6187.5 2.15677 -5.38947 0
M  V30 64648 H 6190.26 -1.00323 -2.8241 0
M  V30 64649 H 6187.82 -0.676879 -1.47071 0
M  V30 64650 H 6189.82 1.3216 -3.82513 0
M  V30 64651 H 6188.39 1.44813 -2.77034 0
M  V30 64652 H 6187.61 -0.784452 -3.86316 0
M  V30 64653 H 6188.89 -0.550136 -5.05817 0
M  V30 64654 H 6188.29 2.63065 -5.00813 0
M  V30 64655 H 6186.85 2.68551 -5.93905 0
M  V30 64656 N 6190.28 1.46741 -0.574887 0
M  V30 64657 C 6191.23 2.30225 0.162827 0
M  V30 64658 C 6192.2 1.40143 0.89158 0
M  V30 64659 O 6193.38 1.69097 0.883794 0
M  V30 64660 C 6190.52 3.2446 1.17558 0
M  V30 64661 C 6189.64 4.29639 0.451082 0
M  V30 64662 C 6188.77 5.11008 1.45067 0
M  V30 64663 C 6187.81 6.07943 0.71214 0
M  V30 64664 N 6186.95 6.82208 1.65941 0
M  V30 64665 H 6191.79 2.92783 -0.555166 0
M  V30 64666 H 6189.33 1.44301 -0.285597 0
M  V30 64667 H 6191.28 3.77532 1.77554 0
M  V30 64668 H 6189.91 2.63728 1.86139 0
M  V30 64669 H 6188.97 3.79485 -0.263756 0
M  V30 64670 H 6190.28 4.98639 -0.126643 0
M  V30 64671 H 6189.43 5.68318 2.12366 0
M  V30 64672 H 6188.17 4.4195 2.06233 0
M  V30 64673 H 6187.18 5.49794 0.0253333 0
M  V30 64674 H 6188.4 6.79017 0.105988 0
M  V30 64675 H 6186.35 6.15866 2.25931 0
M  V30 64676 H 6186.26 7.47442 1.1343 0
M  V30 64677 H 6187.53 7.44082 2.32299 0
M  V30 64678 N 6191.76 0.312251 1.54476 0
M  V30 64679 C 6192.69 -0.55175 2.26888 0
M  V30 64680 C 6193.67 -1.1287 1.27258 0
M  V30 64681 O 6194.86 -1.15594 1.56051 0
M  V30 64682 C 6191.99 -1.71828 3.01815 0
M  V30 64683 C 6190.94 -1.27117 4.08687 0
M  V30 64684 C 6190.27 -2.52375 4.71392 0
M  V30 64685 C 6191.57 -0.39423 5.2081 0
M  V30 64686 H 6193.26 0.0522384 2.99354 0
M  V30 64687 H 6190.81 0.0265644 1.43975 0
M  V30 64688 H 6192.76 -2.32891 3.51198 0
M  V30 64689 H 6191.48 -2.34868 2.26946 0
M  V30 64690 H 6190.14 -0.68354 3.60171 0
M  V30 64691 H 6189.79 -3.13754 3.93151 0
M  V30 64692 H 6189.49 -2.23155 5.43577 0
M  V30 64693 H 6191.01 -3.1422 5.23544 0
M  V30 64694 H 6192.43 -0.910832 5.66018 0
M  V30 64695 H 6190.83 -0.195307 5.99782 0
M  V30 64696 H 6191.9 0.57783 4.81445 0
M  V30 64697 N 6193.24 -1.57549 0.0401914 0
M  V30 64698 C 6194.49 -1.91429 -0.635429 0
M  V30 64699 C 6194.8 -0.919338 -1.72649 0
M  V30 64700 O 6196.01 -1.14979 -2.45951 0
M  V30 64701 C 6194.46 -3.39953 -1.18152 0
M  V30 64702 C 6194.07 -4.47831 -0.123163 0
M  V30 64703 C 6195.82 -3.82885 -1.83302 0
M  V30 64704 C 6193.72 -5.8746 -0.68152 0
M  V30 64705 H 6192.65 -0.714409 -0.241113 0
M  V30 64706 H 6195.3 -1.83186 0.107295 0
M  V30 64707 H 6193.69 -3.43164 -1.97621 0
M  V30 64708 H 6194.86 -4.56194 0.649881 0
M  V30 64709 H 6193.17 -4.14171 0.430225 0
M  V30 64710 H 6195.77 -4.84566 -2.26053 0
M  V30 64711 H 6196.11 -3.18539 -2.68027 0
M  V30 64712 H 6196.65 -3.82143 -1.10506 0
M  V30 64713 H 6193.39 -6.55375 0.127847 0
M  V30 64714 H 6192.91 -5.8268 -1.4228 0
M  V30 64715 H 6194.59 -6.36373 -1.16784 0
M  V30 64716 N 6194.72 0.233081 -1.55867 0
M  V30 64717 C 6195.95 0.97635 -1.82414 0
M  V30 64718 C 6196.36 1.78406 -0.617787 0
M  V30 64719 O 6195.72 1.7775 0.413646 0
M  V30 64720 C 6195.77 1.90318 -3.07346 0
M  V30 64721 O 6195.49 1.12813 -4.23326 0
M  V30 64722 C 6196.99 2.7613 -3.46796 0
M  V30 64723 H 6194.21 0.286679 -0.606677 0
M  V30 64724 H 6196.75 0.251792 -2.02944 0
M  V30 64725 H 6194.91 2.58183 -2.88826 0
M  V30 64726 H 6195.32 1.75625 -4.94223 0
M  V30 64727 H 6196.8 3.36885 -4.37278 0
M  V30 64728 H 6197.27 3.47943 -2.68015 0
M  V30 64729 H 6197.88 2.13695 -3.67715 0
M  V30 64730 N 6196.2 1.49481 0.49932 0
M  V30 64731 C 6197.42 1.63029 1.28204 0
M  V30 64732 C 6197.85 0.302303 1.85655 0
M  V30 64733 O 6197.2 -0.730297 1.65941 0
M  V30 64734 C 6197.25 2.70295 2.3869 0
M  V30 64735 O 6196.36 2.29585 3.42585 0
M  V30 64736 H 6195.7 0.545619 0.378413 0
M  V30 64737 H 6198.23 1.95679 0.597559 0
M  V30 64738 H 6198.24 2.92515 2.84428 0
M  V30 64739 H 6196.91 3.66691 1.9624 0
M  V30 64740 H 6195.49 2.17703 3.02754 0
M  V30 64741 N 6197.67 -0.750488 1.38584 0
M  V30 64742 C 6198.64 -1.84594 1.35859 0
M  V30 64743 C 6199.64 -1.58708 0.258517 0
M  V30 64744 O 6200.83 -1.66395 0.515579 0
M  V30 64745 C 6197.96 -3.22121 1.11585 0
M  V30 64746 H 6199.15 -1.88418 2.33321 0
M  V30 64747 H 6196.7 -0.95252 1.23922 0
M  V30 64748 H 6197.44 -3.23965 0.147409 0
M  V30 64749 H 6197.22 -3.42304 1.91233 0
M  V30 64750 H 6198.71 -4.02194 1.12381 0
M  V30 64751 N 6199.15 -1.23504 -0.979007 0
M  V30 64752 C 6200.1 -0.984584 -2.05645 0
M  V30 64753 C 6201.09 0.0699268 -1.60748 0
M  V30 64754 O 6202.28 -0.142378 -1.76426 0
M  V30 64755 C 6199.41 -0.579201 -3.38379 0
M  V30 64756 C 6198.49 -1.66919 -3.8987 0
M  V30 64757 N 6198.88 -2.89975 -4.14425 0
M  V30 64758 C 6197.18 -1.54409 -4.18418 0
M  V30 64759 C 6197.88 -3.60555 -4.56481 0
M  V30 64760 N 6196.86 -2.88074 -4.60993 0
M  V30 64761 H 6200.66 -1.91914 -2.2259 0
M  V30 64762 H 6198.17 -1.13463 -1.16189 0
M  V30 64763 H 6200.17 -0.381042 -4.15155 0
M  V30 64764 H 6198.83 0.348295 -3.22827 0
M  V30 64765 H 6199.84 -3.26266 -4.02207 0
M  V30 64766 H 6196.52 -0.683804 -4.11862 0
M  V30 64767 H 6197.91 -4.66055 -4.83986 0
M  V30 64768 N 6200.63 1.17798 -1.04697 0
M  V30 64769 C 6201.88 1.88466 -0.764986 0
M  V30 64770 C 6202.23 1.79211 0.700082 0
M  V30 64771 O 6201.52 1.18587 1.50492 0
M  V30 64772 C 6201.72 3.37581 -1.17361 0
M  V30 64773 C 6201.55 3.61351 -2.67686 0
M  V30 64774 C 6200.32 3.78356 -3.34925 0
M  V30 64775 C 6202.51 3.61409 -3.65907 0
M  V30 64776 N 6200.5 3.89924 -4.74165 0
M  V30 64777 C 6201.87 3.78766 -4.90853 0
M  V30 64778 C 6203.92 3.44532 -3.59447 0
M  V30 64779 C 6202.63 3.80993 -6.10112 0
M  V30 64780 C 6204.65 3.48044 -4.78141 0
M  V30 64781 C 6204.01 3.65904 -6.01908 0
M  V30 64782 H 6200.11 0.707987 -0.332082 0
M  V30 64783 H 6202.7 1.41449 -1.33791 0
M  V30 64784 H 6200.87 3.83278 -0.628694 0
M  V30 64785 H 6202.6 3.95844 -0.841986 0
M  V30 64786 H 6199.35 3.78002 -2.85326 0
M  V30 64787 H 6199.78 3.99515 -5.4655 0
M  V30 64788 H 6204.42 3.29664 -2.64729 0
M  V30 64789 H 6202.14 3.94647 -7.05181 0
M  V30 64790 H 6205.72 3.36251 -4.74791 0
M  V30 64791 H 6204.6 3.6852 -6.92215 0
M  V30 64792 N 6202.11 0.827298 1.3414 0
M  V30 64793 C 6203.05 0.250246 2.29439 0
M  V30 64794 C 6204.02 -0.627436 1.53794 0
M  V30 64795 O 6205.21 -0.568154 1.82145 0
M  V30 64796 C 6202.35 -0.578272 3.40221 0
M  V30 64797 C 6201.46 0.322142 4.30797 0
M  V30 64798 C 6200.6 -0.516364 5.28684 0
M  V30 64799 C 6199.64 0.383164 6.109 0
M  V30 64800 N 6198.77 -0.416528 7.00863 0
M  V30 64801 H 6203.61 1.06827 2.78194 0
M  V30 64802 H 6201.15 0.538293 1.36897 0
M  V30 64803 H 6203.11 -1.07399 4.03139 0
M  V30 64804 H 6201.74 -1.36137 2.92689 0
M  V30 64805 H 6200.79 0.936108 3.68702 0
M  V30 64806 H 6202.1 1.01363 4.88392 0
M  V30 64807 H 6201.26 -1.07639 5.97075 0
M  V30 64808 H 6200 -1.24134 4.71638 0
M  V30 64809 H 6199 0.955293 5.41437 0
M  V30 64810 H 6200.23 1.10632 6.70028 0
M  V30 64811 H 6198.17 -1.1251 6.4628 0
M  V30 64812 H 6198.09 0.216483 7.5569 0
M  V30 64813 H 6199.36 -0.95916 7.73576 0
M  V30 64814 N 6203.59 -1.46434 0.582661 0
M  V30 64815 C 6204.83 -2.02685 0.0683216 0
M  V30 64816 C 6205.16 -1.45319 -1.28825 0
M  V30 64817 O 6204.44 -0.618275 -1.84412 0
M  V30 64818 C 6204.72 -3.601 0.00250456 0
M  V30 64819 C 6204.58 -4.2785 1.38797 0
M  V30 64820 C 6205.89 -4.34527 -0.698137 0
M  V30 64821 H 6203.01 -0.736531 0.026302 0
M  V30 64822 H 6205.66 -1.74577 0.74985 0
M  V30 64823 H 6203.81 -3.84178 -0.577895 0
M  V30 64824 H 6205.48 -4.15035 2.01354 0
M  V30 64825 H 6203.72 -3.87214 1.9557 0
M  V30 64826 H 6204.39 -5.36609 1.29439 0
M  V30 64827 H 6206.87 -4.15594 -0.205073 0
M  V30 64828 H 6205.74 -5.44247 -0.713219 0
M  V30 64829 H 6206 -4.05582 -1.75943 0
M  V30 64830 N 6205.06 -0.320439 -1.54308 0
M  V30 64831 C 6206.29 0.284712 -2.04629 0
M  V30 64832 C 6206.7 1.46574 -1.19636 0
M  V30 64833 O 6206.04 1.82389 -0.219087 0
M  V30 64834 C 6206.11 0.785406 -3.50816 0
M  V30 64835 C 6205.77 -0.272903 -4.56184 0
M  V30 64836 C 6206.77 -1.10793 -5.07958 0
M  V30 64837 C 6204.45 -0.420194 -5.00539 0
M  V30 64838 C 6206.45 -2.07601 -6.02645 0
M  V30 64839 C 6204.13 -1.39169 -5.95042 0
M  V30 64840 C 6205.13 -2.21807 -6.4598 0
M  V30 64841 O 6204.82 -3.17307 -7.38628 0
M  V30 64842 H 6204.55 0.0629444 -0.673063 0
M  V30 64843 H 6207.11 -0.463769 -2.00096 0
M  V30 64844 H 6205.34 1.58474 -3.52736 0
M  V30 64845 H 6207.02 1.30856 -3.84228 0
M  V30 64846 H 6207.79 -1.00511 -4.74471 0
M  V30 64847 H 6203.67 0.213128 -4.60507 0
M  V30 64848 H 6207.21 -2.72141 -6.42328 0
M  V30 64849 H 6203.11 -1.49516 -6.27945 0
M  V30 64850 H 6203.88 -3.1251 -7.56492 0
M  V30 64851 N 6206.54 1.57525 -0.048546 0
M  V30 64852 C 6207.47 2.14408 0.924735 0
M  V30 64853 C 6208.45 1.06508 1.32628 0
M  V30 64854 O 6209.64 1.34435 1.40146 0
M  V30 64855 C 6206.77 2.68694 2.20048 0
M  V30 64856 C 6205.72 3.81554 1.93909 0
M  V30 64857 C 6205.05 4.22346 3.27915 0
M  V30 64858 C 6206.35 5.06805 1.26278 0
M  V30 64859 H 6208.04 2.95985 0.450946 0
M  V30 64860 H 6205.59 1.42379 0.215464 0
M  V30 64861 H 6207.54 3.07127 2.88533 0
M  V30 64862 H 6206.26 1.84306 2.69628 0
M  V30 64863 H 6204.92 3.43589 1.27836 0
M  V30 64864 H 6204.57 3.34912 3.7529 0
M  V30 64865 H 6204.27 4.98411 3.11224 0
M  V30 64866 H 6205.8 4.63377 3.97635 0
M  V30 64867 H 6207.21 5.42701 1.84793 0
M  V30 64868 H 6205.61 5.87995 1.19922 0
M  V30 64869 H 6206.68 4.84313 0.238435 0
M  V30 64870 N 6208.02 -0.224812 1.55988 0
M  V30 64871 C 6208.98 -1.26208 1.91322 0
M  V30 64872 C 6209.98 -1.3997 0.791521 0
M  V30 64873 O 6211.17 -1.38291 1.0593 0
M  V30 64874 C 6208.31 -2.63641 2.16116 0
M  V30 64875 H 6209.5 -0.960834 2.84092 0
M  V30 64876 H 6207.05 -0.465086 1.4922 0
M  V30 64877 H 6207.79 -2.98869 1.25888 0
M  V30 64878 H 6207.57 -2.55029 2.9783 0
M  V30 64879 H 6209.06 -3.38497 2.4456 0
M  V30 64880 N 6209.5 -1.49744 -0.491385 0
M  V30 64881 C 6210.46 -1.66593 -1.57415 0
M  V30 64882 C 6211.46 -0.537334 -1.51556 0
M  V30 64883 O 6212.65 -0.803982 -1.54537 0
M  V30 64884 C 6209.78 -1.67227 -2.97065 0
M  V30 64885 H 6210.98 -2.63176 -1.43801 0
M  V30 64886 H 6208.53 -1.38919 -0.71632 0
M  V30 64887 H 6209.26 -0.72264 -3.16146 0
M  V30 64888 H 6209.05 -2.49198 -3.02725 0
M  V30 64889 H 6210.54 -1.82287 -3.75714 0
M  V30 64890 N 6210.98 0.743128 -1.3898 0
M  V30 64891 C 6212.39 1.0476 -1.20406 0
M  V30 64892 C 6212.59 2.01411 -0.0599847 0
M  V30 64893 O 6211.65 2.45488 0.59094 0
M  V30 64894 C 6212.96 1.61767 -2.5348 0
M  V30 64895 C 6214.51 1.73887 -2.60254 0
M  V30 64896 C 6214.98 2.34304 -3.9353 0
M  V30 64897 N 6216.48 2.41723 -3.95126 0
M  V30 64898 C 6217.21 2.89389 -4.95017 0
M  V30 64899 N 6216.71 3.37013 -6.05305 0
M  V30 64900 N 6218.5 2.88525 -4.824 0
M  V30 64901 H 6210.65 0.101961 -2.12155 0
M  V30 64902 H 6212.91 0.10786 -0.941844 0
M  V30 64903 H 6212.62 0.982156 -3.37708 0
M  V30 64904 H 6212.49 2.60686 -2.72621 0
M  V30 64905 H 6214.88 2.36562 -1.76415 0
M  V30 64906 H 6214.96 0.736423 -2.4497 0
M  V30 64907 H 6214.61 1.72259 -4.77796 0
M  V30 64908 H 6214.54 3.3521 -4.0613 0
M  V30 64909 H 6217.03 2.08053 -3.15472 0
M  V30 64910 H 6217.34 3.71871 -6.77445 0
M  V30 64911 H 6215.68 3.35043 -6.0891 0
M  V30 64912 H 6218.88 2.50637 -3.95346 0
M  V30 64913 H 6219.05 3.25359 -5.60397 0
M  V30 64914 N 6212.45 1.24021 0.972444 0
M  V30 64915 C 6213.7 1.07495 1.71141 0
M  V30 64916 C 6214.02 -0.38773 1.91106 0
M  V30 64917 O 6213.29 -1.2772 1.48541 0
M  V30 64918 H 6211.87 0.394788 0.634154 0
M  V30 64919 H 6214.54 1.55866 1.17013 0
M  V30 64920 H 6213.63 1.56922 2.69781 0
M  V30 64921 N 6213.93 -1.17241 1.0532 0
M  V30 64922 C 6215.18 -1.87811 0.765178 0
M  V30 64923 C 6215.51 -1.80909 -0.706083 0
M  V30 64924 O 6214.79 -1.21798 -1.51643 0
M  V30 64925 C 6215.07 -3.37786 1.24791 0
M  V30 64926 C 6214.92 -3.53431 2.7822 0
M  V30 64927 C 6216.24 -4.31854 0.847957 0
M  V30 64928 H 6213.36 -0.68197 0.279439 0
M  V30 64929 H 6216 -1.37865 1.30742 0
M  V30 64930 H 6214.15 -3.80453 0.786621 0
M  V30 64931 H 6215.82 -3.1977 3.32483 0
M  V30 64932 H 6214.07 -2.95666 3.17433 0
M  V30 64933 H 6214.74 -4.58714 3.07059 0
M  V30 64934 H 6217.21 -3.97035 1.2451 0
M  V30 64935 H 6216.09 -5.35322 1.21332 0
M  V30 64936 H 6216.35 -4.41404 -0.247949 0
M  V30 64937 N 6215.41 -0.8344 -1.33699 0
M  V30 64938 C 6216.34 -0.279395 -2.31822 0
M  V30 64939 C 6217.32 0.610439 -1.58769 0
M  V30 64940 O 6218.51 0.534923 -1.86687 0
M  V30 64941 C 6215.64 0.550081 -3.42916 0
M  V30 64942 C 6214.59 -0.243582 -4.27306 0
M  V30 64943 C 6213.92 0.709361 -5.29974 0
M  V30 64944 C 6215.22 -1.45817 -5.01532 0
M  V30 64945 H 6216.91 -1.09925 -2.78491 0
M  V30 64946 H 6214.46 -0.530034 -1.3389 0
M  V30 64947 H 6216.41 0.94862 -4.10584 0
M  V30 64948 H 6215.13 1.4031 -2.94925 0
M  V30 64949 H 6213.79 -0.623627 -3.61257 0
M  V30 64950 H 6213.44 1.55865 -4.78242 0
M  V30 64951 H 6213.14 0.182465 -5.87317 0
M  V30 64952 H 6214.66 1.10551 -6.00509 0
M  V30 64953 H 6216.08 -1.13303 -5.61992 0
M  V30 64954 H 6214.48 -1.92153 -5.68504 0
M  V30 64955 H 6215.55 -2.23031 -4.30564 0
M  V30 64956 N 6216.89 1.46123 -0.590418 0
M  V30 64957 C 6218.3 1.85961 -0.165941 0
M  V30 64958 C 6218.65 1.49301 1.27294 0
M  V30 64959 O 6217.78 0.91153 1.96265 0
M  V30 64960 C 6218.37 3.37519 -0.29438 0
M  V30 64961 C 6216.93 3.76325 0.0752796 0
M  V30 64962 C 6216.08 2.70124 -0.626777 0
M  V30 64963 H 6219.03 1.37168 -0.798168 0
M  V30 64964 H 6219.05 3.77484 0.478167 0
M  V30 64965 H 6218.56 3.6417 -1.34171 0
M  V30 64966 H 6216.66 3.55291 1.12245 0
M  V30 64967 H 6216.77 4.78119 -0.306409 0
M  V30 64968 H 6215.14 2.54614 -0.0662114 0
M  V30 64969 H 6215.92 2.99613 -1.67591 0
M  V30 64970 N 6218.37 0.328618 1.54136 0
M  V30 64971 C 6219.6 -0.273856 2.04777 0
M  V30 64972 C 6220 -1.45938 1.20411 0
M  V30 64973 O 6219.35 -1.8227 0.228757 0
M  V30 64974 C 6219.41 -0.76679 3.51227 0
M  V30 64975 C 6219.07 0.297092 4.56033 0
M  V30 64976 C 6220.07 1.13486 5.07363 0
M  V30 64977 C 6217.76 0.446733 5.00309 0
M  V30 64978 C 6219.75 2.10794 6.01535 0
M  V30 64979 C 6217.44 1.42323 5.94296 0
M  V30 64980 C 6218.43 2.2523 6.44795 0
M  V30 64981 O 6218.12 3.2122 7.36935 0
M  V30 64982 H 6217.85 -0.0593741 0.673387 0
M  V30 64983 H 6220.41 0.474374 1.99847 0
M  V30 64984 H 6218.64 -1.56601 3.53572 0
M  V30 64985 H 6220.33 -1.28817 3.84917 0
M  V30 64986 H 6221.09 1.03026 4.73931 0
M  V30 64987 H 6216.97 -0.188703 4.60614 0
M  V30 64988 H 6220.52 2.75544 6.40875 0
M  V30 64989 H 6216.41 1.52845 6.27143 0
M  V30 64990 H 6217.18 3.16517 7.54824 0
M  V30 64991 N 6219.84 -1.57497 0.0568993 0
M  V30 64992 C 6221.09 -1.93202 -0.616512 0
M  V30 64993 C 6221.42 -0.935996 -1.70155 0
M  V30 64994 O 6220.7 0.0371321 -1.94465 0
M  V30 64995 C 6220.98 -3.39259 -1.2073 0
M  V30 64996 C 6220.83 -4.49612 -0.129923 0
M  V30 64997 C 6222.15 -3.85825 -2.11724 0
M  V30 64998 H 6219.27 -0.702566 -0.222643 0
M  V30 64999 H 6221.91 -1.89622 0.119832 0
M  V30 65000 H 6220.06 -3.4244 -1.83485 0
M  V30 65001 H 6221.74 -4.58557 0.502333 0
M  V30 65002 H 6219.98 -4.30409 0.541319 0
M  V30 65003 H 6220.65 -5.48908 -0.583413 0
M  V30 65004 H 6223.13 -3.84555 -1.58923 0
M  V30 65005 H 6222 -4.88662 -2.50002 0
M  V30 65006 H 6222.26 -3.2291 -3.01963 0
M  V30 65007 N 6221.32 0.216536 -1.56105 0
M  V30 65008 C 6222.57 0.938329 -1.78997 0
M  V30 65009 C 6222.89 1.84669 -0.62628 0
M  V30 65010 O 6222.16 1.92628 0.356569 0
M  V30 65011 H 6220.74 0.349468 -0.660213 0
M  V30 65012 H 6223.4 0.227188 -1.93571 0
M  V30 65013 H 6222.5 1.54218 -2.71336 0
M  V30 65014 N 6222.8 1.50002 0.483437 0
M  V30 65015 C 6223.75 1.68472 1.60374 0
M  V30 65016 C 6224.74 0.550564 1.60203 0
M  V30 65017 O 6225.95 0.730714 1.64501 0
M  V30 65018 H 6222.32 0.531543 0.531945 0
M  V30 65019 H 6224.3 2.62473 1.41953 0
M  V30 65020 C 6223.04 1.78473 2.984 0
M  V30 65021 H 6222.37 2.65128 2.99245 0
M  V30 65022 H 6223.81 1.95426 3.76277 0
M  V30 65023 C 6222.27 0.533485 3.32649 0
M  V30 65024 O 6222.8 -0.332947 4.00318 0
M  V30 65025 N 6221 0.391178 2.87955 0
M  V30 65026 H 6220.55 1.09727 2.33062 0
M  V30 65027 H 6220.51 -0.444886 3.11236 0
M  V30 65028 N 6224.28 -0.735747 1.39372 0
M  V30 65029 C 6225.21 -1.86298 1.40767 0
M  V30 65030 C 6226.19 -1.67925 0.271129 0
M  V30 65031 O 6227.38 -1.88255 0.476839 0
M  V30 65032 C 6224.51 -3.24038 1.24966 0
M  V30 65033 C 6223.46 -3.57047 2.36012 0
M  V30 65034 C 6222.79 -4.93716 2.05301 0
M  V30 65035 C 6224.09 -3.60096 3.78323 0
M  V30 65036 H 6225.78 -1.85388 2.351 0
M  V30 65037 H 6223.33 -0.890512 1.13163 0
M  V30 65038 H 6225.28 -4.02569 1.24563 0
M  V30 65039 H 6224 -3.25474 0.271017 0
M  V30 65040 H 6222.66 -2.80845 2.35631 0
M  V30 65041 H 6222.31 -4.91731 1.05877 0
M  V30 65042 H 6222.01 -5.16769 2.79685 0
M  V30 65043 H 6223.53 -5.74605 2.06547 0
M  V30 65044 H 6224.95 -4.28705 3.80637 0
M  V30 65045 H 6223.34 -3.94667 4.5206 0
M  V30 65046 H 6224.41 -2.59918 4.09354 0
M  V30 65047 N 6225.76 -1.24535 -0.965853 0
M  V30 65048 C 6227.01 -1.08016 -1.70339 0
M  V30 65049 C 6227.32 0.380671 -1.9186 0
M  V30 65050 O 6228.53 0.666089 -2.63202 0
M  V30 65051 C 6226.98 -1.88463 -3.0661 0
M  V30 65052 C 6226.59 -3.38967 -2.92925 0
M  V30 65053 C 6228.33 -1.80478 -3.84224 0
M  V30 65054 C 6226.24 -4.11751 -4.24518 0
M  V30 65055 H 6225.17 -0.400599 -0.638777 0
M  V30 65056 H 6227.82 -1.48633 -1.07613 0
M  V30 65057 H 6226.2 -1.40661 -3.70176 0
M  V30 65058 H 6227.38 -3.94362 -2.3836 0
M  V30 65059 H 6225.69 -3.47923 -2.28776 0
M  V30 65060 H 6228.29 -2.32159 -4.81671 0
M  V30 65061 H 6228.63 -0.770405 -4.09109 0
M  V30 65062 H 6229.17 -2.2597 -3.27387 0
M  V30 65063 H 6225.9 -5.15556 -4.04824 0
M  V30 65064 H 6225.42 -3.61142 -4.78891 0
M  V30 65065 H 6227.1 -4.18851 -4.93126 0
M  V30 65066 N 6227.24 1.16681 -1.0594 0
M  V30 65067 C 6228.46 1.91032 -0.79462 0
M  V30 65068 C 6228.88 1.77236 0.650601 0
M  V30 65069 O 6228.24 1.11459 1.4451 0
M  V30 65070 C 6228.29 3.41855 -1.17548 0
M  V30 65071 O 6228.01 3.55234 -2.56398 0
M  V30 65072 C 6229.51 4.33264 -0.937926 0
M  V30 65073 H 6226.73 0.605886 -0.288346 0
M  V30 65074 H 6229.27 1.4792 -1.41209 0
M  V30 65075 H 6227.43 3.82684 -0.602621 0
M  V30 65076 H 6227.84 4.48735 -2.71547 0
M  V30 65077 H 6229.32 5.37566 -1.25408 0
M  V30 65078 H 6229.79 4.39018 0.126519 0
M  V30 65079 H 6230.4 3.98158 -1.495 0
M  V30 65080 N 6228.71 0.841479 1.33255 0
M  V30 65081 C 6229.66 0.274567 2.29161 0
M  V30 65082 C 6230.63 -0.611089 1.5445 0
M  V30 65083 O 6231.82 -0.548803 1.82737 0
M  V30 65084 C 6228.96 -0.542155 3.40815 0
M  V30 65085 C 6228.07 0.367816 4.30431 0
M  V30 65086 C 6227.2 -0.460261 5.29202 0
M  V30 65087 C 6226.24 0.447936 6.10459 0
M  V30 65088 N 6225.38 -0.342168 7.01266 0
M  V30 65089 H 6230.22 1.09772 2.77045 0
M  V30 65090 H 6227.76 0.552782 1.36318 0
M  V30 65091 H 6229.71 -1.03118 4.04256 0
M  V30 65092 H 6228.34 -1.33025 2.94116 0
M  V30 65093 H 6227.4 0.975161 3.67688 0
M  V30 65094 H 6228.71 1.06537 4.8729 0
M  V30 65095 H 6227.86 -1.013 5.98183 0
M  V30 65096 H 6226.6 -1.19125 4.72928 0
M  V30 65097 H 6225.61 1.01267 5.40393 0
M  V30 65098 H 6226.83 1.17732 6.68817 0
M  V30 65099 H 6224.78 -1.05649 6.47437 0
M  V30 65100 H 6224.69 0.296622 7.55418 0
M  V30 65101 H 6225.96 -0.877058 7.7455 0
M  V30 65102 N 6230.19 -1.45807 0.598159 0
M  V30 65103 C 6231.1 -2.34249 -0.128257 0
M  V30 65104 C 6232.12 -1.5068 -0.870149 0
M  V30 65105 O 6233.29 -1.83508 -0.82986 0
M  V30 65106 C 6230.36 -3.28139 -1.11919 0
M  V30 65107 C 6229.42 -4.27612 -0.380281 0
M  V30 65108 C 6228.65 -5.17016 -1.324 0
M  V30 65109 O 6228.88 -5.09657 -2.56136 0
M  V30 65110 O 6227.81 -5.96203 -0.826187 0
M  V30 65111 H 6231.64 -2.97748 0.598304 0
M  V30 65112 H 6229.22 -1.45036 0.358467 0
M  V30 65113 H 6231.1 -3.8602 -1.69016 0
M  V30 65114 H 6229.78 -2.67216 -1.82694 0
M  V30 65115 H 6228.68 -3.73374 0.232921 0
M  V30 65116 H 6230.02 -4.91364 0.2868 0
M  V30 65117 N 6231.67 -0.336787 -1.53959 0
M  V30 65118 C 6232.92 0.262755 -1.99981 0
M  V30 65119 C 6233.23 1.52197 -1.22863 0
M  V30 65120 O 6234.44 2.19834 -1.59328 0
M  V30 65121 C 6232.89 0.518752 -3.56142 0
M  V30 65122 C 6232.5 -0.724174 -4.42108 0
M  V30 65123 C 6234.25 1.07752 -4.10597 0
M  V30 65124 C 6232.15 -0.43935 -5.89766 0
M  V30 65125 H 6231.08 0.10196 -0.747074 0
M  V30 65126 H 6233.73 -0.451067 -1.7787 0
M  V30 65127 H 6232.12 1.2931 -3.74292 0
M  V30 65128 H 6233.29 -1.49911 -4.35733 0
M  V30 65129 H 6231.6 -1.2041 -3.98611 0
M  V30 65130 H 6234.2 1.30546 -5.18519 0
M  V30 65131 H 6234.54 2.03098 -3.63396 0
M  V30 65132 H 6235.08 0.36404 -3.96131 0
M  V30 65133 H 6231.82 -1.36234 -6.41187 0
M  V30 65134 H 6231.34 0.297628 -5.99061 0
M  V30 65135 H 6233.02 -0.0540781 -6.46977 0
M  V30 65136 N 6233.15 1.57465 -0.0652509 0
M  V30 65137 C 6234.11 2.11233 0.889559 0
M  V30 65138 C 6235.11 1.03493 1.23068 0
M  V30 65139 O 6236.3 1.29509 1.16504 0
M  V30 65140 C 6233.43 2.60826 2.19506 0
M  V30 65141 H 6234.63 2.96899 0.423197 0
M  V30 65142 H 6232.18 1.55221 0.183363 0
M  V30 65143 H 6232.91 1.78594 2.70693 0
M  V30 65144 H 6232.7 3.39571 1.96045 0
M  V30 65145 H 6234.19 3.02523 2.87871 0
M  V30 65146 N 6234.63 -0.208255 1.56218 0
M  V30 65147 C 6236.04 -0.558537 1.49508 0
M  V30 65148 C 6236.24 -1.86502 0.762849 0
M  V30 65149 O 6235.3 -2.50615 0.307956 0
M  V30 65150 C 6236.61 -0.625454 2.94123 0
M  V30 65151 C 6238.16 -0.715182 3.0472 0
M  V30 65152 C 6238.63 -0.813326 4.50721 0
M  V30 65153 N 6240.12 -0.8772 4.54818 0
M  V30 65154 C 6240.86 -0.973081 5.65083 0
M  V30 65155 N 6240.36 -1.03208 6.85069 0
M  V30 65156 N 6242.15 -1.00925 5.52965 0
M  V30 65157 H 6234.3 0.648897 2.02245 0
M  V30 65158 H 6236.56 0.229457 0.919812 0
M  V30 65159 H 6236.27 0.26518 3.50699 0
M  V30 65160 H 6236.14 -1.48461 3.46755 0
M  V30 65161 H 6238.53 -1.59625 2.48201 0
M  V30 65162 H 6238.61 0.169908 2.55235 0
M  V30 65163 H 6238.25 0.0633387 5.07861 0
M  V30 65164 H 6238.18 -1.71403 4.97924 0
M  V30 65165 H 6240.68 -0.841384 3.68414 0
M  V30 65166 H 6240.99 -1.10539 7.64854 0
M  V30 65167 H 6239.33 -1.00098 6.87754 0
M  V30 65168 H 6242.52 -0.959904 4.58152 0
M  V30 65169 H 6242.7 -1.08052 6.38928 0
M  V30 65170 N 6236.1 -1.50256 -0.475475 0
M  V30 65171 C 6237.03 -1.71726 -1.58216 0
M  V30 65172 C 6238.01 -0.566177 -1.60401 0
M  V30 65173 O 6239.2 -0.804836 -1.76737 0
M  V30 65174 C 6236.33 -1.80736 -2.96567 0
M  V30 65175 C 6235.28 -2.95888 -3.09248 0
M  V30 65176 C 6234.61 -2.90036 -4.49203 0
M  V30 65177 C 6235.91 -4.36462 -2.86876 0
M  V30 65178 H 6237.6 -2.64385 -1.40502 0
M  V30 65179 H 6235.15 -1.27227 -0.674488 0
M  V30 65180 H 6237.1 -1.94341 -3.73911 0
M  V30 65181 H 6235.83 -0.846957 -3.15427 0
M  V30 65182 H 6234.49 -2.81927 -2.34335 0
M  V30 65183 H 6234.13 -1.9185 -4.64976 0
M  V30 65184 H 6233.83 -3.67338 -4.58625 0
M  V30 65185 H 6235.36 -3.05683 -5.28574 0
M  V30 65186 H 6236.77 -4.50972 -3.53973 0
M  V30 65187 H 6235.17 -5.15182 -3.07746 0
M  V30 65188 H 6236.24 -4.49136 -1.8277 0
M  V30 65189 N 6237.58 0.728346 -1.3976 0
M  V30 65190 C 6238.51 1.85549 -1.41753 0
M  V30 65191 C 6239.49 1.67779 -0.280031 0
M  V30 65192 O 6240.68 1.87999 -0.486816 0
M  V30 65193 C 6237.81 3.23371 -1.26683 0
M  V30 65194 C 6236.76 3.5579 -2.37902 0
M  V30 65195 C 6236.09 4.9262 -2.07917 0
M  V30 65196 C 6237.39 3.58085 -3.80227 0
M  V30 65197 H 6239.08 1.84138 -2.36079 0
M  V30 65198 H 6236.63 0.884499 -1.13634 0
M  V30 65199 H 6238.58 4.01903 -1.26696 0
M  V30 65200 H 6237.31 3.25325 -0.288273 0
M  V30 65201 H 6235.96 2.79591 -2.37117 0
M  V30 65202 H 6235.61 4.91162 -1.08483 0
M  V30 65203 H 6235.31 5.15278 -2.82422 0
M  V30 65204 H 6236.84 5.73501 -2.09591 0
M  V30 65205 H 6238.25 4.2668 -3.82906 0
M  V30 65206 H 6236.65 3.92264 -4.54146 0
M  V30 65207 H 6237.72 2.57743 -4.10727 0
M  V30 65208 N 6239.06 1.25046 0.959235 0
M  V30 65209 C 6240.02 1.05115 2.03675 0
M  V30 65210 C 6241.02 0.00552563 1.60799 0
M  V30 65211 O 6242.21 0.247286 1.72436 0
M  V30 65212 C 6239.35 0.594999 3.35667 0
M  V30 65213 H 6240.54 2.00761 2.22789 0
M  V30 65214 H 6238.09 1.07388 1.13568 0
M  V30 65215 H 6238.83 -0.364274 3.22248 0
M  V30 65216 H 6238.61 1.34979 3.68135 0
M  V30 65217 H 6240.1 0.476844 4.14869 0
M  V30 65218 N 6240.54 -1.16117 1.06558 0
M  V30 65219 C 6241.47 -2.22759 0.700055 0
M  V30 65220 C 6242.45 -1.67275 -0.308724 0
M  V30 65221 O 6243.63 -1.93333 -0.18326 0
M  V30 65222 C 6240.76 -3.47187 0.0885264 0
M  V30 65223 C 6239.72 -4.1558 1.02357 0
M  V30 65224 C 6239.04 -5.33991 0.27521 0
M  V30 65225 C 6240.34 -4.66258 2.35374 0
M  V30 65226 H 6242.04 -2.5359 1.59162 0
M  V30 65227 H 6239.58 -1.2189 0.766728 0
M  V30 65228 H 6241.54 -4.21019 -0.179072 0
M  V30 65229 H 6240.26 -3.15664 -0.83807 0
M  V30 65230 H 6238.92 -3.43678 1.27596 0
M  V30 65231 H 6238.57 -4.98722 -0.65459 0
M  V30 65232 H 6238.27 -5.80692 0.898386 0
M  V30 65233 H 6239.79 -6.10598 0.0152202 0
M  V30 65234 H 6241.21 -5.31657 2.14507 0
M  V30 65235 H 6239.6 -5.2359 2.93213 0
M  V30 65236 H 6240.67 -3.82325 2.98254 0
M  V30 65237 N 6242.02 -0.848534 -1.32807 0
M  V30 65238 C 6242.93 -0.291437 -2.32783 0
M  V30 65239 C 6243.94 0.587563 -1.63779 0
M  V30 65240 O 6245.12 0.48939 -1.95364 0
M  V30 65241 C 6242.18 0.51622 -3.42835 0
M  V30 65242 C 6241.24 -0.388196 -4.27541 0
M  V30 65243 C 6240.48 0.38101 -5.32338 0
M  V30 65244 O 6240.7 1.61166 -5.47158 0
M  V30 65245 O 6239.63 -0.250011 -6.01381 0
M  V30 65246 H 6243.46 -1.11957 -2.82311 0
M  V30 65247 H 6241.05 -0.611306 -1.36321 0
M  V30 65248 H 6242.93 0.974851 -4.09969 0
M  V30 65249 H 6241.6 1.32125 -2.95507 0
M  V30 65250 H 6240.51 -0.894873 -3.63239 0
M  V30 65251 H 6241.84 -1.15825 -4.78378 0
M  V30 65252 N 6243.49 1.45488 -0.605884 0
M  V30 65253 C 6244.4 2.34314 0.115833 0
M  V30 65254 C 6245.42 1.51139 0.862146 0
M  V30 65255 O 6246.6 1.83946 0.820116 0
M  V30 65256 C 6243.66 3.28728 1.10177 0
M  V30 65257 C 6242.72 4.27808 0.357599 0
M  V30 65258 C 6241.96 5.17711 1.29657 0
M  V30 65259 O 6242.18 5.11008 2.5343 0
M  V30 65260 O 6241.11 5.96633 0.794558 0
M  V30 65261 H 6244.94 2.97427 -0.614086 0
M  V30 65262 H 6242.52 1.44844 -0.366154 0
M  V30 65263 H 6244.41 3.86911 1.66967 0
M  V30 65264 H 6243.08 2.68181 1.81274 0
M  V30 65265 H 6241.99 3.73245 -0.252719 0
M  V30 65266 H 6243.32 4.91205 -0.312854 0
M  V30 65267 N 6244.97 0.344947 1.53779 0
M  V30 65268 C 6245.94 -0.498702 2.23709 0
M  V30 65269 C 6246.94 -1.02645 1.23777 0
M  V30 65270 O 6248.13 -0.915474 1.48205 0
M  V30 65271 C 6245.26 -1.69487 2.95782 0
M  V30 65272 H 6246.45 0.112921 2.99687 0
M  V30 65273 H 6244 0.0963161 1.56003 0
M  V30 65274 H 6244.74 -2.34514 2.23994 0
M  V30 65275 H 6244.52 -1.32363 3.69083 0
M  V30 65276 H 6246.01 -2.29322 3.49 0
M  V30 65277 N 6246.45 -1.57428 0.0736007 0
M  V30 65278 C 6247.68 -1.97885 -0.604078 0
M  V30 65279 C 6248.09 -0.952026 -1.6304 0
M  V30 65280 O 6247.45 0.0611 -1.82398 0
M  V30 65281 C 6247.5 -3.38418 -1.27104 0
M  V30 65282 O 6247.22 -4.37167 -0.285797 0
M  V30 65283 C 6248.72 -3.9376 -2.03637 0
M  V30 65284 H 6245.94 -0.650753 -0.16359 0
M  V30 65285 H 6248.49 -2.03974 0.146538 0
M  V30 65286 H 6246.64 -3.3341 -1.97273 0
M  V30 65287 H 6247.06 -5.18898 -0.764516 0
M  V30 65288 H 6248.53 -4.94306 -2.45693 0
M  V30 65289 H 6249.01 -3.30401 -2.89365 0
M  V30 65290 H 6249.61 -4.02175 -1.38331 0
M  V30 65291 N 6247.93 0.199967 -1.56326 0
M  V30 65292 C 6248.86 1.25064 -1.97183 0
M  V30 65293 C 6249.84 1.47737 -0.843082 0
M  V30 65294 O 6251.02 1.59556 -1.10704 0
M  V30 65295 C 6248.15 2.59592 -2.30715 0
M  V30 65296 C 6247.11 2.5154 -3.46283 0
M  V30 65297 C 6246.43 3.90296 -3.65477 0
M  V30 65298 C 6247.73 2.04463 -4.80616 0
M  V30 65299 H 6249.43 0.911138 -2.85199 0
M  V30 65300 H 6246.97 0.436851 -1.37214 0
M  V30 65301 H 6248.93 3.33272 -2.57891 0
M  V30 65302 H 6247.65 2.95273 -1.39576 0
M  V30 65303 H 6246.31 1.80316 -3.19189 0
M  V30 65304 H 6245.96 4.23321 -2.71677 0
M  V30 65305 H 6245.66 3.85784 -4.4322 0
M  V30 65306 H 6247.18 4.65605 -3.95024 0
M  V30 65307 H 6248.6 2.67899 -5.06856 0
M  V30 65308 H 6246.99 2.10965 -5.61795 0
M  V30 65309 H 6248.06 0.997661 -4.74526 0
M  V30 65310 N 6249.41 1.50506 0.4675 0
M  V30 65311 C 6250.63 1.65712 1.24717 0
M  V30 65312 C 6251.06 0.341615 1.84972 0
M  V30 65313 O 6250.41 -0.694934 1.67453 0
M  V30 65314 C 6250.46 2.75297 2.32903 0
M  V30 65315 O 6249.57 2.368 3.37638 0
M  V30 65316 H 6248.91 0.553523 0.366754 0
M  V30 65317 H 6251.44 1.96903 0.555919 0
M  V30 65318 H 6251.45 2.98482 2.78159 0
M  V30 65319 H 6250.12 3.70771 1.88418 0
M  V30 65320 H 6248.7 2.24076 2.98068 0
M  V30 65321 N 6250.88 -0.720924 1.40144 0
M  V30 65322 C 6252.11 -1.51007 1.41437 0
M  V30 65323 C 6252.53 -1.88796 0.0126179 0
M  V30 65324 O 6251.88 -1.55076 -0.962163 0
M  V30 65325 C 6251.94 -2.78878 2.3002 0
M  V30 65326 O 6251.66 -2.4269 3.64737 0
M  V30 65327 C 6253.16 -3.72812 2.39847 0
M  V30 65328 H 6250.38 -0.466197 0.482599 0
M  V30 65329 H 6252.92 -0.889713 1.84131 0
M  V30 65330 H 6251.08 -3.37212 1.90701 0
M  V30 65331 H 6251.49 -3.24931 4.11728 0
M  V30 65332 H 6252.96 -4.5939 3.06048 0
M  V30 65333 H 6253.44 -4.15547 1.42188 0
M  V30 65334 H 6254.05 -3.20392 2.79695 0
M  V30 65335 N 6252.36 -1.25553 -0.95259 0
M  V30 65336 C 6253.64 -1.01192 -1.67391 0
M  V30 65337 C 6254.02 0.461219 -2.06 0
M  V30 65338 O 6253.37 1.43903 -1.77494 0
M  V30 65339 C 6253.58 -1.94964 -2.89465 0
M  V30 65340 C 6254.93 -2.22924 -3.61373 0
M  V30 65341 O 6255.95 -1.92738 -2.9955 0
M  V30 65342 O 6254.81 -2.74263 -4.72697 0
M  V30 65343 H 6251.9 -0.3839 -0.732496 0
M  V30 65344 H 6254.45 -1.36716 -1.00533 0
M  V30 65345 H 6253.22 -2.94425 -2.5774 0
M  V30 65346 H 6252.84 -1.5985 -3.64052 0
M  V30 65347 N 6253.84 1.15551 -1.07172 0
M  V30 65348 C 6254.77 2.22384 -0.711858 0
M  V30 65349 C 6255.75 1.67436 0.299849 0
M  V30 65350 O 6256.94 1.93428 0.173005 0
M  V30 65351 C 6254.07 3.47135 -0.106937 0
M  V30 65352 C 6253.02 4.15032 -1.0456 0
M  V30 65353 C 6252.35 5.33838 -0.303525 0
M  V30 65354 C 6253.65 4.65003 -2.37844 0
M  V30 65355 H 6255.34 2.52742 -1.60505 0
M  V30 65356 H 6252.89 1.21482 -0.773182 0
M  V30 65357 H 6254.84 4.21108 0.156742 0
M  V30 65358 H 6253.56 3.16104 0.821318 0
M  V30 65359 H 6252.22 3.42997 -1.29417 0
M  V30 65360 H 6251.87 4.99063 0.628132 0
M  V30 65361 H 6251.57 5.80207 -0.929168 0
M  V30 65362 H 6253.1 6.10581 -0.0476015 0
M  V30 65363 H 6254.51 5.30512 -2.17323 0
M  V30 65364 H 6252.91 5.22027 -2.95986 0
M  V30 65365 H 6253.98 3.80738 -3.00278 0
M  V30 65366 N 6255.32 0.855565 1.32355 0
M  V30 65367 C 6256.25 0.258109 2.27742 0
M  V30 65368 C 6257.26 -0.570679 1.5247 0
M  V30 65369 O 6258.45 -0.395021 1.74074 0
M  V30 65370 C 6255.55 -0.653841 3.32533 0
M  V30 65371 C 6254.73 0.139298 4.37178 0
M  V30 65372 C 6253.79 -0.698555 5.21543 0
M  V30 65373 O 6252.81 -0.131745 5.69048 0
M  V30 65374 N 6254.01 -2.01312 5.44476 0
M  V30 65375 H 6256.78 1.07776 2.79651 0
M  V30 65376 H 6254.34 0.715635 1.45225 0
M  V30 65377 H 6256.33 -1.21972 3.85882 0
M  V30 65378 H 6254.9 -1.37417 2.80776 0
M  V30 65379 H 6254.12 0.886601 3.841 0
M  V30 65380 H 6255.41 0.684051 5.04181 0
M  V30 65381 H 6254.81 -2.49695 5.07611 0
M  V30 65382 H 6253.36 -2.5271 6.00817 0
M  V30 65383 N 6256.8 -1.45165 0.613591 0
M  V30 65384 C 6257.73 -2.28772 -0.139934 0
M  V30 65385 C 6258.74 -1.40293 -0.825944 0
M  V30 65386 O 6259.93 -1.64611 -0.690327 0
M  V30 65387 C 6257.03 -3.16199 -1.21948 0
M  V30 65388 C 6256.2 -4.32992 -0.619419 0
M  V30 65389 C 6255.26 -5.01583 -1.59064 0
M  V30 65390 O 6254.29 -5.5818 -1.1146 0
M  V30 65391 N 6255.49 -5.01419 -2.92506 0
M  V30 65392 H 6258.26 -2.94083 0.577509 0
M  V30 65393 H 6255.82 -1.55419 0.453498 0
M  V30 65394 H 6257.81 -3.5895 -1.86915 0
M  V30 65395 H 6256.38 -2.52757 -1.83937 0
M  V30 65396 H 6255.6 -3.93648 0.208468 0
M  V30 65397 H 6256.89 -5.08411 -0.198846 0
M  V30 65398 H 6256.29 -4.56737 -3.33778 0
M  V30 65399 H 6254.84 -5.48014 -3.52879 0
M  V30 65400 N 6258.28 -0.353098 -1.53594 0
M  V30 65401 C 6259.52 0.240002 -2.0067 0
M  V30 65402 C 6259.84 1.50298 -1.24239 0
M  V30 65403 O 6259.11 1.92708 -0.352186 0
M  V30 65404 H 6257.69 0.0916755 -0.741353 0
M  V30 65405 H 6260.36 -0.476457 -1.88987 0
M  V30 65406 H 6259.45 0.47576 -3.08452 0
M  V30 65407 N 6259.75 1.57387 -0.0819485 0
M  V30 65408 C 6260.98 1.97915 0.592715 0
M  V30 65409 C 6261.39 0.959435 1.63069 0
M  V30 65410 O 6260.73 -0.0609449 1.83599 0
M  V30 65411 C 6260.8 3.34783 1.30999 0
M  V30 65412 C 6260.46 4.55026 0.424301 0
M  V30 65413 C 6261.46 5.189 -0.322242 0
M  V30 65414 C 6259.14 5.01105 0.346206 0
M  V30 65415 C 6261.14 6.27213 -1.135 0
M  V30 65416 C 6258.82 6.09288 -0.470212 0
M  V30 65417 C 6259.82 6.72206 -1.20947 0
M  V30 65418 O 6259.51 7.78304 -2.0124 0
M  V30 65419 H 6259.24 0.655652 0.16461 0
M  V30 65420 H 6261.8 2.04822 -0.153949 0
M  V30 65421 H 6260.03 3.2452 2.10294 0
M  V30 65422 H 6261.71 3.59848 1.87788 0
M  V30 65423 H 6262.48 4.84239 -0.271561 0
M  V30 65424 H 6258.36 4.51904 0.911251 0
M  V30 65425 H 6261.9 6.76253 -1.71251 0
M  V30 65426 H 6257.8 6.43382 -0.52242 0
M  V30 65427 H 6258.57 7.9523 -1.93781 0
M  V30 65428 N 6261.23 -0.191674 1.5643 0
M  V30 65429 C 6262.19 -1.22121 1.93956 0
M  V30 65430 C 6263.19 -1.38259 0.821033 0
M  V30 65431 O 6264.38 -1.36013 1.0884 0
M  V30 65432 C 6261.52 -2.58997 2.2166 0
M  V30 65433 H 6262.71 -0.900357 2.86066 0
M  V30 65434 H 6260.26 -0.433329 1.50173 0
M  V30 65435 H 6261 -2.96131 1.32199 0
M  V30 65436 H 6260.78 -2.48654 3.03172 0
M  V30 65437 H 6262.27 -3.33233 2.51685 0
M  V30 65438 N 6262.71 -1.50752 -0.459512 0
M  V30 65439 C 6263.64 -1.73395 -1.56386 0
M  V30 65440 C 6264.62 -0.583158 -1.59791 0
M  V30 65441 O 6265.81 -0.823536 -1.75874 0
M  V30 65442 C 6262.94 -1.83872 -2.94633 0
M  V30 65443 C 6261.89 -2.99151 -3.06092 0
M  V30 65444 C 6261.22 -2.94784 -4.46101 0
M  V30 65445 C 6262.52 -4.39481 -2.82231 0
M  V30 65446 H 6264.21 -2.65861 -1.3769 0
M  V30 65447 H 6261.76 -1.27935 -0.660956 0
M  V30 65448 H 6263.71 -1.98296 -3.71829 0
M  V30 65449 H 6262.43 -0.880365 -3.14511 0
M  V30 65450 H 6261.09 -2.84396 -2.31332 0
M  V30 65451 H 6260.74 -1.96771 -4.62915 0
M  V30 65452 H 6260.44 -3.72182 -4.54703 0
M  V30 65453 H 6261.96 -3.11272 -5.25302 0
M  V30 65454 H 6263.38 -4.54701 -3.4917 0
M  V30 65455 H 6261.77 -5.18417 -3.02265 0
M  V30 65456 H 6262.84 -4.51049 -1.77996 0
M  V30 65457 N 6264.19 0.713481 -1.40525 0
M  V30 65458 C 6265.13 1.82756 -1.40957 0
M  V30 65459 C 6266.1 1.63952 -0.266245 0
M  V30 65460 O 6267.29 1.85056 -0.464623 0
M  V30 65461 C 6264.43 3.20484 -1.28 0
M  V30 65462 C 6263.54 3.50844 -2.52056 0
M  V30 65463 C 6262.68 4.78089 -2.31525 0
M  V30 65464 C 6261.72 5.0136 -3.51147 0
M  V30 65465 N 6260.85 6.1982 -3.29798 0
M  V30 65466 H 6265.69 1.81721 -2.36181 0
M  V30 65467 H 6263.23 0.887662 -1.17299 0
M  V30 65468 H 6265.19 4.00019 -1.18494 0
M  V30 65469 H 6263.82 3.20742 -0.363945 0
M  V30 65470 H 6262.87 2.65848 -2.72082 0
M  V30 65471 H 6264.18 3.63949 -3.4109 0
M  V30 65472 H 6263.34 5.65646 -2.19384 0
M  V30 65473 H 6262.08 4.67198 -1.3992 0
M  V30 65474 H 6261.08 4.12258 -3.63763 0
M  V30 65475 H 6262.31 5.14123 -4.43683 0
M  V30 65476 H 6260.25 6.10176 -2.40877 0
M  V30 65477 H 6260.17 6.33611 -4.12399 0
M  V30 65478 H 6261.44 7.10159 -3.21394 0
M  V30 65479 N 6265.67 1.26056 0.945918 0
M  V30 65480 C 6266.89 1.14188 1.73136 0
M  V30 65481 C 6267.32 -0.299598 1.85699 0
M  V30 65482 O 6266.67 -1.21706 1.34377 0
M  V30 65483 C 6266.72 1.81063 3.11847 0
M  V30 65484 O 6265.83 1.0962 3.97564 0
M  V30 65485 H 6265.17 0.398157 0.531383 0
M  V30 65486 H 6267.7 1.66786 1.18505 0
M  V30 65487 H 6267.71 1.87697 3.62262 0
M  V30 65488 H 6266.38 2.85932 3.02019 0
M  V30 65489 H 6264.96 1.10927 3.56019 0
M  V30 65490 N 6267.14 -1.14981 1.07783 0
M  V30 65491 C 6268.07 -2.22004 0.723642 0
M  V30 65492 C 6269.06 -1.67593 -0.290965 0
M  V30 65493 O 6270.24 -1.93517 -0.162744 0
M  V30 65494 C 6267.37 -3.47074 0.125345 0
M  V30 65495 C 6266.32 -4.14471 1.06759 0
M  V30 65496 C 6265.65 -5.33669 0.331831 0
M  V30 65497 C 6266.95 -4.63735 2.40306 0
M  V30 65498 H 6268.64 -2.51887 1.61843 0
M  V30 65499 H 6266.19 -1.2107 0.779613 0
M  V30 65500 H 6268.14 -4.21186 -0.134407 0
M  V30 65501 H 6266.87 -3.16535 -0.804542 0
M  V30 65502 H 6265.53 -3.42306 1.31234 0
M  V30 65503 H 6265.17 -4.99389 -0.601657 0
M  V30 65504 H 6264.87 -5.79706 0.959925 0
M  V30 65505 H 6266.4 -6.10548 0.0799815 0
M  V30 65506 H 6267.81 -5.29352 2.20134 0
M  V30 65507 H 6266.21 -5.2045 2.9875 0
M  V30 65508 H 6267.28 -3.7914 3.02293 0
M  V30 65509 N 6268.62 -0.862572 -1.31899 0
M  V30 65510 C 6269.85 -0.484077 -2.01157 0
M  V30 65511 C 6270.27 0.921422 -1.64788 0
M  V30 65512 O 6269.62 1.6025 -0.873272 0
M  V30 65513 C 6269.67 -0.622834 -3.56094 0
M  V30 65514 O 6269.39 -1.97298 -3.91159 0
M  V30 65515 C 6270.9 -0.244381 -4.42626 0
M  V30 65516 H 6268.12 -0.189401 -0.643715 0
M  V30 65517 H 6270.66 -1.1617 -1.683 0
M  V30 65518 H 6268.81 0.00714547 -3.87399 0
M  V30 65519 H 6269.23 -1.97542 -4.85878 0
M  V30 65520 H 6270.7 -0.392447 -5.50603 0
M  V30 65521 H 6271.18 0.815854 -4.31556 0
M  V30 65522 H 6271.79 -0.849757 -4.16724 0
M  V30 65523 N 6270.1 1.44837 -0.62128 0
M  V30 65524 C 6271.35 2.01734 -0.121615 0
M  V30 65525 C 6271.67 1.49045 1.2574 0
M  V30 65526 O 6270.94 0.69012 1.83342 0
M  V30 65527 H 6269.52 0.74582 -0.0419681 0
M  V30 65528 H 6272.18 1.77464 -0.805764 0
M  V30 65529 H 6271.28 3.11993 -0.0817978 0
M  V30 65530 N 6271.58 0.361238 1.53404 0
M  V30 65531 C 6272.51 -0.479288 2.28528 0
M  V30 65532 C 6273.49 -1.08764 1.30784 0
M  V30 65533 O 6274.67 -1.1057 1.59649 0
M  V30 65534 C 6271.8 -1.62139 3.07129 0
M  V30 65535 C 6270.76 -1.1405 4.12525 0
M  V30 65536 C 6270.08 -2.37251 4.79183 0
M  V30 65537 C 6271.38 -0.228338 5.21801 0
M  V30 65538 H 6273.08 0.147449 2.99037 0
M  V30 65539 H 6270.62 0.0723557 1.43818 0
M  V30 65540 H 6272.58 -2.216 3.58429 0
M  V30 65541 H 6271.3 -2.27529 2.34303 0
M  V30 65542 H 6269.96 -0.568608 3.62164 0
M  V30 65543 H 6269.61 -3.01088 4.02933 0
M  V30 65544 H 6269.31 -2.05748 5.50401 0
M  V30 65545 H 6270.83 -2.97405 5.33275 0
M  V30 65546 H 6272.25 -0.730297 5.6863 0
M  V30 65547 H 6270.64 -0.00439163 6.001 0
M  V30 65548 H 6271.71 0.730705 4.79363 0
M  V30 65549 N 6273.06 -1.57341 0.090294 0
M  V30 65550 C 6273.99 -2.16785 -0.867564 0
M  V30 65551 C 6274.97 -1.09987 -1.29757 0
M  V30 65552 O 6276.15 -1.38104 -1.36532 0
M  V30 65553 C 6273.28 -2.74433 -2.12846 0
M  V30 65554 C 6272.24 -3.86561 -1.83724 0
M  V30 65555 C 6271.56 -4.30892 -3.16602 0
M  V30 65556 C 6272.86 -5.09975 -1.12796 0
M  V30 65557 H 6274.56 -2.97076 -0.372312 0
M  V30 65558 H 6272.1 -1.429 -0.177639 0
M  V30 65559 H 6274.06 -3.14669 -2.80288 0
M  V30 65560 H 6272.78 -1.9139 -2.64646 0
M  V30 65561 H 6271.44 -3.46858 -1.18682 0
M  V30 65562 H 6271.09 -3.44744 -3.66279 0
M  V30 65563 H 6270.79 -5.06487 -2.979 0
M  V30 65564 H 6272.31 -4.73757 -3.8521 0
M  V30 65565 H 6273.72 -5.4741 -1.70339 0
M  V30 65566 H 6272.12 -5.90968 -1.04291 0
M  V30 65567 H 6273.19 -4.84775 -0.109944 0
M  V30 65568 N 6274.53 0.183375 -1.5653 0
M  V30 65569 C 6275.76 0.921899 -1.85784 0
M  V30 65570 C 6276.18 1.75562 -0.675245 0
M  V30 65571 O 6275.54 1.77361 0.37585 0
M  V30 65572 C 6275.59 1.78429 -3.13361 0
M  V30 65573 O 6274.69 2.88451 -2.94737 0
M  V30 65574 H 6274.04 0.258952 -0.611424 0
M  V30 65575 H 6276.57 0.185153 -2.03761 0
M  V30 65576 H 6276.58 2.18663 -3.44457 0
M  V30 65577 H 6275.25 1.1718 -3.99051 0
M  V30 65578 H 6273.83 2.51888 -2.74967 0
M  V30 65579 N 6276.01 1.50994 0.451511 0
M  V30 65580 C 6277.24 1.67026 1.22952 0
M  V30 65581 C 6277.66 0.361214 1.84599 0
M  V30 65582 O 6277.02 -0.677134 1.6818 0
M  V30 65583 C 6277.07 2.77752 2.2997 0
M  V30 65584 O 6276.17 2.40368 3.35107 0
M  V30 65585 H 6275.51 0.557381 0.360863 0
M  V30 65586 H 6278.04 1.97481 0.535003 0
M  V30 65587 H 6278.05 3.01415 2.74978 0
M  V30 65588 H 6276.73 3.72749 1.84475 0
M  V30 65589 H 6275.31 2.27225 2.95675 0
M  V30 65590 N 6277.49 -0.706019 1.40901 0
M  V30 65591 C 6278.74 -1.46599 1.39696 0
M  V30 65592 C 6279.07 -1.945 0.0025087 0
M  V30 65593 O 6278.32 -1.69176 -0.983769 0
M  V30 65594 C 6278.62 -2.70037 2.34126 0
M  V30 65595 C 6278.29 -2.4085 3.81185 0
M  V30 65596 C 6276.95 -2.326 4.21249 0
M  V30 65597 C 6279.3 -2.16565 4.74077 0
M  V30 65598 C 6276.63 -1.98147 5.52227 0
M  V30 65599 C 6278.98 -1.83623 6.05364 0
M  V30 65600 C 6277.64 -1.73862 6.4446 0
M  V30 65601 H 6276.91 -0.536445 0.511183 0
M  V30 65602 H 6279.56 -0.80788 1.73625 0
M  V30 65603 H 6277.87 -3.40732 1.93415 0
M  V30 65604 H 6279.56 -3.28152 2.30472 0
M  V30 65605 H 6276.15 -2.48161 3.49448 0
M  V30 65606 H 6280.34 -2.21889 4.43936 0
M  V30 65607 H 6275.59 -1.89135 5.8141 0
M  V30 65608 H 6279.77 -1.63849 6.7685 0
M  V30 65609 H 6277.39 -1.46933 7.45865 0
M  V30 65610 N 6278.97 -1.26556 -0.93922 0
M  V30 65611 C 6280.21 -1.12382 -1.68814 0
M  V30 65612 C 6280.55 0.331717 -1.91346 0
M  V30 65613 O 6279.82 1.24354 -1.49554 0
M  V30 65614 C 6280.11 -1.89552 -3.06173 0
M  V30 65615 C 6279.96 -3.43024 -2.90954 0
M  V30 65616 C 6281.28 -1.69088 -4.06321 0
M  V30 65617 H 6278.4 -0.409638 -0.612671 0
M  V30 65618 H 6281.04 -1.55575 -1.09071 0
M  V30 65619 H 6279.19 -1.52843 -3.57171 0
M  V30 65620 H 6280.86 -3.89497 -2.47163 0
M  V30 65621 H 6279.1 -3.6995 -2.26538 0
M  V30 65622 H 6279.77 -3.92249 -3.88387 0
M  V30 65623 H 6282.25 -2.01074 -3.64292 0
M  V30 65624 H 6281.13 -2.25496 -5.00443 0
M  V30 65625 H 6281.39 -0.635941 -4.37502 0
M  V30 65626 N 6280.45 1.14407 -1.08391 0
M  V30 65627 C 6281.36 2.231 -0.725496 0
M  V30 65628 C 6282.37 1.71925 0.267929 0
M  V30 65629 O 6283.55 2.01089 0.111916 0
M  V30 65630 C 6280.61 3.46417 -0.140037 0
M  V30 65631 C 6279.67 4.12533 -1.18806 0
M  V30 65632 C 6278.91 5.29963 -0.630439 0
M  V30 65633 O 6279.13 5.67741 0.550136 0
M  V30 65634 O 6278.06 5.85857 -1.38041 0
M  V30 65635 H 6281.89 2.5611 -1.63222 0
M  V30 65636 H 6279.48 1.22335 -0.857581 0
M  V30 65637 H 6281.36 4.21 0.183662 0
M  V30 65638 H 6280.03 3.15132 0.739846 0
M  V30 65639 H 6278.94 3.39825 -1.56428 0
M  V30 65640 H 6280.27 4.47924 -2.04021 0
M  V30 65641 N 6281.93 0.869555 1.3144 0
M  V30 65642 C 6283.17 0.480995 1.97013 0
M  V30 65643 C 6283.5 -0.964168 1.68575 0
M  V30 65644 O 6282.78 -1.67889 0.982012 0
M  V30 65645 C 6283.06 0.738188 3.52453 0
M  V30 65646 C 6282.92 2.23285 3.90466 0
M  V30 65647 C 6284.23 0.204392 4.39625 0
M  V30 65648 H 6281.35 0.176231 0.71562 0
M  V30 65649 H 6284 1.09072 1.55574 0
M  V30 65650 H 6282.15 0.219226 3.87881 0
M  V30 65651 H 6283.82 2.81904 3.65141 0
M  V30 65652 H 6282.06 2.70558 3.39088 0
M  V30 65653 H 6282.73 2.36346 4.98843 0
M  V30 65654 H 6285.21 0.648372 4.11017 0
M  V30 65655 H 6284.08 0.4138 5.47338 0
M  V30 65656 H 6284.34 -0.893655 4.32974 0
M  V30 65657 N 6283.4 -1.44506 0.628953 0
M  V30 65658 C 6284.31 -2.34468 -0.0785408 0
M  V30 65659 C 6285.33 -1.52492 -0.837992 0
M  V30 65660 O 6286.51 -1.85227 -0.790748 0
M  V30 65661 C 6283.57 -3.30439 -1.04933 0
M  V30 65662 C 6282.63 -4.28323 -0.289493 0
M  V30 65663 C 6281.86 -5.19708 -1.21404 0
M  V30 65664 O 6282.09 -5.14976 -2.45268 0
M  V30 65665 O 6281.02 -5.97821 -0.699538 0
M  V30 65666 H 6284.85 -2.96412 0.661326 0
M  V30 65667 H 6282.43 -1.44243 0.389151 0
M  V30 65668 H 6284.31 -3.89518 -1.6079 0
M  V30 65669 H 6282.99 -2.71031 -1.76985 0
M  V30 65670 H 6281.9 -3.72796 0.312067 0
M  V30 65671 H 6283.23 -4.90645 0.390961 0
M  V30 65672 N 6284.88 -0.369369 -1.5321 0
M  V30 65673 C 6286.11 0.222378 -2.06204 0
M  V30 65674 C 6286.53 1.41369 -1.24082 0
M  V30 65675 O 6285.89 1.79414 -0.260831 0
M  V30 65676 C 6285.94 0.590261 -3.55736 0
M  V30 65677 O 6285.04 1.68698 -3.76317 0
M  V30 65678 H 6284.38 0.0314808 -0.663253 0
M  V30 65679 H 6286.91 -0.531069 -1.97587 0
M  V30 65680 H 6286.92 0.860205 -3.98829 0
M  V30 65681 H 6285.6 -0.280816 -4.14951 0
M  V30 65682 H 6284.17 1.4123 -3.45121 0
M  V30 65683 N 6286.36 1.57291 -0.0986369 0
M  V30 65684 C 6287.61 1.93656 0.563943 0
M  V30 65685 C 6287.92 0.982782 1.69118 0
M  V30 65686 O 6289.13 1.24028 2.41514 0
M  V30 65687 C 6287.58 3.44104 1.05454 0
M  V30 65688 C 6287.19 4.47979 -0.0431318 0
M  V30 65689 C 6288.94 3.89424 1.68965 0
M  V30 65690 C 6286.84 5.89585 0.463019 0
M  V30 65691 H 6285.77 0.722866 0.214432 0
M  V30 65692 H 6288.42 1.82662 -0.17521 0
M  V30 65693 H 6286.81 3.50263 1.84749 0
M  V30 65694 H 6287.98 4.53468 -0.818746 0
M  V30 65695 H 6286.29 4.12289 -0.583646 0
M  V30 65696 H 6288.89 4.92622 2.07913 0
M  V30 65697 H 6289.23 3.28267 2.5602 0
M  V30 65698 H 6289.77 3.85981 0.962466 0
M  V30 65699 H 6286.51 6.54449 -0.370997 0
M  V30 65700 H 6286.03 5.8756 1.20556 0
M  V30 65701 H 6287.71 6.40269 0.930847 0
M  V30 65702 N 6287.84 -0.175072 1.56625 0
M  V30 65703 C 6288.78 -1.2168 1.96119 0
M  V30 65704 C 6289.75 -1.44188 0.824569 0
M  V30 65705 O 6290.94 -1.5699 1.08438 0
M  V30 65706 C 6288.08 -2.55199 2.32309 0
M  V30 65707 C 6287.19 -2.40102 3.59131 0
M  V30 65708 C 6286.33 -3.66461 3.84551 0
M  V30 65709 C 6285.37 -3.46282 5.04733 0
M  V30 65710 N 6284.5 -4.64702 5.26305 0
M  V30 65711 H 6289.34 -0.873006 2.84926 0
M  V30 65712 H 6286.88 -0.419671 1.40986 0
M  V30 65713 H 6288.84 -3.33013 2.51313 0
M  V30 65714 H 6287.47 -2.87582 1.46618 0
M  V30 65715 H 6286.52 -1.53483 3.48062 0
M  V30 65716 H 6287.83 -2.21136 4.47102 0
M  V30 65717 H 6286.99 -4.52712 4.03902 0
M  V30 65718 H 6285.73 -3.88403 2.94948 0
M  V30 65719 H 6284.73 -2.58418 4.85284 0
M  V30 65720 H 6285.96 -3.25766 5.95863 0
M  V30 65721 H 6283.9 -4.86869 4.39652 0
M  V30 65722 H 6283.82 -4.48634 6.08493 0
M  V30 65723 H 6285.09 -5.52246 5.50132 0
M  V30 65724 N 6289.32 -1.51231 -0.443497 0
M  V30 65725 C 6290.73 -1.3927 -0.779492 0
M  V30 65726 C 6290.93 -0.47023 -1.95936 0
M  V30 65727 O 6289.99 0.0769078 -2.52383 0
M  V30 65728 C 6291.3 -2.81184 -1.06564 0
M  V30 65729 C 6292.85 -2.90292 -1.17045 0
M  V30 65730 C 6293.32 -4.331 -1.48957 0
M  V30 65731 N 6294.81 -4.36178 -1.55894 0
M  V30 65732 C 6295.55 -5.43701 -1.82146 0
M  V30 65733 N 6295.05 -6.61393 -2.06231 0
M  V30 65734 N 6296.84 -5.31174 -1.83877 0
M  V30 65735 H 6288.99 -2.09763 0.333653 0
M  V30 65736 H 6291.25 -0.944013 0.086848 0
M  V30 65737 H 6290.96 -3.50651 -0.271452 0
M  V30 65738 H 6290.83 -3.20133 -1.99487 0
M  V30 65739 H 6293.22 -2.21027 -1.95528 0
M  V30 65740 H 6293.3 -2.54849 -0.220378 0
M  V30 65741 H 6292.94 -5.02912 -0.710045 0
M  V30 65742 H 6292.87 -4.66051 -2.4516 0
M  V30 65743 H 6295.37 -3.51325 -1.39209 0
M  V30 65744 H 6295.68 -7.39133 -2.25615 0
M  V30 65745 H 6294.02 -6.64519 -2.03566 0
M  V30 65746 H 6297.21 -4.38215 -1.64575 0
M  V30 65747 H 6297.39 -6.15052 -2.03999 0
M  V30 65748 N 6290.79 0.698537 -1.41274 0
M  V30 65749 C 6291.74 1.80454 -1.39357 0
M  V30 65750 C 6292.73 1.58646 -0.268397 0
M  V30 65751 O 6293.92 1.69528 -0.508837 0
M  V30 65752 C 6291.05 3.18735 -1.27526 0
M  V30 65753 C 6290.13 3.46248 -2.44894 0
M  V30 65754 N 6290.53 3.44478 -3.70363 0
M  V30 65755 C 6288.82 3.76784 -2.38642 0
M  V30 65756 C 6289.52 3.70813 -4.48188 0
M  V30 65757 N 6288.5 3.9041 -3.7826 0
M  V30 65758 H 6292.3 1.77444 -2.34288 0
M  V30 65759 H 6289.82 0.8984 -1.35287 0
M  V30 65760 H 6291.81 3.97959 -1.24235 0
M  V30 65761 H 6290.47 3.22959 -0.335765 0
M  V30 65762 H 6291.48 3.24928 -4.03289 0
M  V30 65763 H 6288.16 3.88396 -1.53149 0
M  V30 65764 H 6289.55 3.75605 -5.57109 0
M  V30 65765 N 6292.27 1.27052 0.932495 0
M  V30 65766 C 6293.52 1.13109 1.67966 0
M  V30 65767 C 6293.85 -0.32398 1.91783 0
M  V30 65768 O 6293.1 -1.25376 1.50264 0
M  V30 65769 C 6293.4 1.85481 3.05502 0
M  V30 65770 C 6293.07 3.35353 3.01412 0
M  V30 65771 C 6291.73 3.76233 3.00004 0
M  V30 65772 C 6294.08 4.31003 2.93063 0
M  V30 65773 C 6291.41 5.11135 2.88024 0
M  V30 65774 C 6293.76 5.65956 2.82624 0
M  V30 65775 C 6292.42 6.06136 2.79563 0
M  V30 65776 H 6291.69 0.413893 0.614633 0
M  V30 65777 H 6294.34 1.57602 1.08784 0
M  V30 65778 H 6292.65 1.33482 3.68361 0
M  V30 65779 H 6294.34 1.72125 3.6218 0
M  V30 65780 H 6290.93 3.02839 3.03293 0
M  V30 65781 H 6295.12 4.00395 2.93253 0
M  V30 65782 H 6290.37 5.41418 2.84037 0
M  V30 65783 H 6294.55 6.39748 2.75129 0
M  V30 65784 H 6292.17 7.10623 2.70036 0
M  V30 65785 N 6293.75 -1.13831 1.08997 0
M  V30 65786 C 6294.7 -2.19105 0.725375 0
M  V30 65787 C 6295.67 -1.63526 -0.29131 0
M  V30 65788 O 6296.85 -1.90005 -0.173948 0
M  V30 65789 C 6293.99 -3.44785 0.147333 0
M  V30 65790 C 6293.1 -4.14488 1.21753 0
M  V30 65791 C 6292.24 -5.2777 0.602704 0
M  V30 65792 C 6291.28 -5.89315 1.65451 0
M  V30 65793 N 6290.42 -6.94036 1.06105 0
M  V30 65794 H 6295.26 -2.4964 1.62739 0
M  V30 65795 H 6292.79 -1.22582 0.813151 0
M  V30 65796 H 6294.75 -4.16693 -0.205572 0
M  V30 65797 H 6293.38 -3.14714 -0.717966 0
M  V30 65798 H 6292.43 -3.40908 1.68778 0
M  V30 65799 H 6293.74 -4.56318 2.01433 0
M  V30 65800 H 6292.9 -6.06376 0.19839 0
M  V30 65801 H 6291.64 -4.87177 -0.225696 0
M  V30 65802 H 6290.64 -5.09408 2.06842 0
M  V30 65803 H 6291.87 -6.31981 2.4855 0
M  V30 65804 H 6289.81 -6.55509 0.253846 0
M  V30 65805 H 6289.73 -7.34384 1.79487 0
M  V30 65806 H 6291 -7.76504 0.68279 0
M  V30 65807 N 6295.23 -0.876513 -1.30977 0
M  V30 65808 C 6296.45 -0.504595 -2.01168 0
M  V30 65809 C 6296.88 0.897237 -1.65322 0
M  V30 65810 O 6296.24 1.59317 -0.865311 0
M  V30 65811 C 6296.28 -0.676641 -3.54195 0
M  V30 65812 O 6295.39 0.281195 -4.1144 0
M  V30 65813 H 6294.73 -0.199877 -0.633202 0
M  V30 65814 H 6297.26 -1.18173 -1.67022 0
M  V30 65815 H 6297.27 -0.572415 -4.03965 0
M  V30 65816 H 6295.94 -1.69877 -3.79624 0
M  V30 65817 H 6294.52 0.131375 -3.72669 0
M  V30 65818 N 6296.71 1.4417 -0.636607 0
M  V30 65819 C 6298.12 1.56703 -0.302701 0
M  V30 65820 C 6298.32 1.6232 1.19392 0
M  V30 65821 O 6297.38 1.56921 1.97819 0
M  V30 65822 C 6298.69 2.83605 -0.999445 0
M  V30 65823 C 6300.24 2.97325 -0.978109 0
M  V30 65824 C 6300.71 4.27036 -1.65542 0
M  V30 65825 N 6302.21 4.33862 -1.62227 0
M  V30 65826 C 6302.94 5.32959 -2.11524 0
M  V30 65827 N 6302.44 6.38429 -2.69035 0
M  V30 65828 N 6304.23 5.24503 -2.0212 0
M  V30 65829 H 6296.38 1.38768 -1.60802 0
M  V30 65830 H 6298.64 0.665345 -0.675293 0
M  V30 65831 H 6298.35 2.85459 -2.05442 0
M  V30 65832 H 6298.22 3.73306 -0.540615 0
M  V30 65833 H 6300.61 2.95021 0.0684028 0
M  V30 65834 H 6300.69 2.08957 -1.47548 0
M  V30 65835 H 6300.34 4.301 -2.70142 0
M  V30 65836 H 6300.27 5.14271 -1.13284 0
M  V30 65837 H 6302.76 3.5826 -1.20244 0
M  V30 65838 H 6303.07 7.10338 -3.04369 0
M  V30 65839 H 6301.41 6.39099 -2.73088 0
M  V30 65840 H 6304.61 4.41019 -1.56908 0
M  V30 65841 H 6304.78 6.01578 -2.40849 0
M  V30 65842 N 6298.18 0.377489 1.53012 0
M  V30 65843 C 6299.11 -0.455022 2.29024 0
M  V30 65844 C 6300.1 -1.07371 1.3193 0
M  V30 65845 O 6301.28 -1.08871 1.60813 0
M  V30 65846 C 6298.41 -1.58872 3.08831 0
M  V30 65847 C 6297.36 -1.09669 4.13711 0
M  V30 65848 C 6296.69 -2.32155 4.81672 0
M  V30 65849 C 6297.99 -0.172982 5.22013 0
M  V30 65850 H 6299.68 0.179158 2.98863 0
M  V30 65851 H 6297.23 0.0876055 1.43733 0
M  V30 65852 H 6299.18 -2.17785 3.6076 0
M  V30 65853 H 6297.91 -2.25031 2.36703 0
M  V30 65854 H 6296.57 -0.530164 3.62746 0
M  V30 65855 H 6296.21 -2.96797 4.06104 0
M  V30 65856 H 6295.91 -1.99899 5.52552 0
M  V30 65857 H 6297.44 -2.91732 5.364 0
M  V30 65858 H 6298.85 -0.669945 5.69372 0
M  V30 65859 H 6297.25 0.0592572 6.00071 0
M  V30 65860 H 6298.32 0.781507 4.78561 0
M  V30 65861 N 6299.66 -1.57237 0.106977 0
M  V30 65862 C 6300.91 -1.95065 -0.554734 0
M  V30 65863 C 6301.24 -0.989656 -1.67091 0
M  V30 65864 O 6300.52 -0.0247541 -1.94484 0
M  V30 65865 C 6300.8 -3.42928 -1.09875 0
M  V30 65866 C 6300.65 -4.49798 0.0131838 0
M  V30 65867 C 6301.97 -3.92365 -1.99342 0
M  V30 65868 H 6299.09 -0.709294 -0.200179 0
M  V30 65869 H 6301.73 -1.89145 0.180098 0
M  V30 65870 H 6299.88 -3.48105 -1.72498 0
M  V30 65871 H 6301.55 -4.56727 0.647965 0
M  V30 65872 H 6299.8 -4.28469 0.677976 0
M  V30 65873 H 6300.47 -5.50486 -0.408487 0
M  V30 65874 H 6302.94 -3.89417 -1.46608 0
M  V30 65875 H 6301.82 -4.96368 -2.34329 0
M  V30 65876 H 6302.08 -3.32353 -2.91537 0
M  V30 65877 N 6301.14 0.166763 -1.56715 0
M  V30 65878 C 6302.39 0.880908 -1.81891 0
M  V30 65879 C 6302.71 1.82583 -0.684715 0
M  V30 65880 O 6301.98 1.93665 0.295105 0
M  V30 65881 H 6300.56 0.328287 -0.670997 0
M  V30 65882 H 6303.22 0.16549 -1.94196 0
M  V30 65883 H 6302.32 1.45507 -2.76105 0
M  V30 65884 N 6302.62 1.51464 0.43547 0
M  V30 65885 C 6303.85 1.68035 1.20713 0
M  V30 65886 C 6304.26 0.378492 1.84967 0
M  V30 65887 O 6303.62 -0.643174 1.70791 0
M  V30 65888 C 6303.67 2.79734 2.28979 0
M  V30 65889 O 6303.39 4.04876 1.67353 0
M  V30 65890 C 6304.89 3.0759 3.19223 0
M  V30 65891 H 6302.11 0.563843 0.363762 0
M  V30 65892 H 6304.66 1.97889 0.515755 0
M  V30 65893 H 6302.81 2.52473 2.9383 0
M  V30 65894 H 6303.22 4.66923 2.3892 0
M  V30 65895 H 6304.7 3.89323 3.9132 0
M  V30 65896 H 6305.18 2.20072 3.80085 0
M  V30 65897 H 6305.78 3.36516 2.60071 0
M  V30 65898 N 6304.1 -0.691035 1.41642 0
M  V30 65899 C 6305.34 -1.45324 1.41452 0
M  V30 65900 C 6305.68 -1.94184 0.025044 0
M  V30 65901 O 6304.95 -1.69834 -0.947983 0
M  V30 65902 C 6305.23 -2.6619 2.42517 0
M  V30 65903 C 6305.09 -2.23067 3.90591 0
M  V30 65904 C 6306.41 -3.68393 2.40779 0
M  V30 65905 H 6303.52 -0.527097 0.515109 0
M  V30 65906 H 6306.17 -0.786697 1.72948 0
M  V30 65907 H 6304.32 -3.23059 2.1579 0
M  V30 65908 H 6305.99 -1.71491 4.28239 0
M  V30 65909 H 6304.23 -1.54804 4.05238 0
M  V30 65910 H 6304.9 -3.09812 4.56859 0
M  V30 65911 H 6307.38 -3.21208 2.64509 0
M  V30 65912 H 6306.25 -4.50565 3.135 0
M  V30 65913 H 6306.52 -4.18403 1.42798 0
M  V30 65914 N 6305.57 -1.27545 -0.925744 0
M  V30 65915 C 6306.5 -1.12959 -2.04359 0
M  V30 65916 C 6307.49 -0.0305359 -1.70073 0
M  V30 65917 O 6308.67 -0.205375 -1.93111 0
M  V30 65918 C 6305.8 -0.778073 -3.38472 0
M  V30 65919 C 6304.75 -1.83058 -3.86877 0
M  V30 65920 C 6304.08 -1.33298 -5.17818 0
M  V30 65921 C 6305.38 -3.23502 -4.10053 0
M  V30 65922 H 6307.07 -2.0647 -2.16819 0
M  V30 65923 H 6304.62 -0.994083 -1.04182 0
M  V30 65924 H 6306.57 -0.662848 -4.16154 0
M  V30 65925 H 6305.3 0.192737 -3.26031 0
M  V30 65926 H 6303.96 -1.93474 -3.11389 0
M  V30 65927 H 6303.6 -0.351575 -5.0177 0
M  V30 65928 H 6303.3 -2.03667 -5.51175 0
M  V30 65929 H 6304.83 -1.23074 -5.98068 0
M  V30 65930 H 6306.24 -3.16075 -4.78298 0
M  V30 65931 H 6304.64 -3.91599 -4.5472 0
M  V30 65932 H 6305.71 -3.6841 -3.15281 0
M  V30 65933 N 6307.05 1.13251 -1.09599 0
M  V30 65934 C 6308 2.20791 -0.731702 0
M  V30 65935 C 6308.99 1.67263 0.268197 0
M  V30 65936 O 6310.2 1.79534 0.129472 0
M  V30 65937 H 6306.58 0.719513 -0.218643 0
M  V30 65938 H 6308.55 2.48778 -1.64779 0
M  V30 65939 C 6307.3 3.47283 -0.170336 0
M  V30 65940 H 6306.62 3.8881 -0.930941 0
M  V30 65941 H 6308.06 4.23974 0.0466009 0
M  V30 65942 C 6306.52 3.18613 1.09486 0
M  V30 65943 O 6307.05 3.37542 2.17781 0
M  V30 65944 N 6305.25 2.72481 1.01007 0
M  V30 65945 H 6304.8 2.57278 0.128723 0
M  V30 65946 H 6304.76 2.53675 1.85733 0
M  V30 65947 N 6308.53 0.883447 1.3051 0
M  V30 65948 C 6309.78 0.500131 1.95814 0
M  V30 65949 C 6310.1 -0.953536 1.70096 0
M  V30 65950 O 6309.37 -1.67024 1.02371 0
M  V30 65951 H 6307.95 0.181962 0.724499 0
M  V30 65952 H 6310.61 1.12619 1.59069 0
M  V30 65953 H 6309.71 0.669105 3.04843 0
M  V30 65954 N 6310.01 -1.43831 0.644244 0
M  V30 65955 C 6311.24 -2.0597 0.161235 0
M  V30 65956 C 6311.65 -1.48313 -1.17473 0
M  V30 65957 O 6310.99 -0.605541 -1.73433 0
M  V30 65958 C 6311.05 -3.59497 -0.0139426 0
M  V30 65959 C 6310.72 -4.39689 1.2459 0
M  V30 65960 C 6311.71 -4.72328 2.17261 0
M  V30 65961 C 6309.4 -4.79847 1.48498 0
M  V30 65962 C 6311.39 -5.44024 3.3214 0
M  V30 65963 C 6309.08 -5.5129 2.63671 0
M  V30 65964 C 6310.08 -5.83299 3.55318 0
M  V30 65965 O 6309.76 -6.53284 4.68481 0
M  V30 65966 H 6309.5 -0.670883 0.0830201 0
M  V30 65967 H 6312.05 -1.85474 0.882532 0
M  V30 65968 H 6310.28 -3.78534 -0.790519 0
M  V30 65969 H 6311.97 -4.03362 -0.453167 0
M  V30 65970 H 6312.74 -4.41829 2.00029 0
M  V30 65971 H 6308.61 -4.54345 0.780483 0
M  V30 65972 H 6312.16 -5.68926 4.03694 0
M  V30 65973 H 6308.06 -5.81204 2.80841 0
M  V30 65974 H 6308.82 -6.71761 4.67631 0
M  V30 65975 N 6311.49 -0.385598 -1.5281 0
M  V30 65976 C 6312.42 0.44287 -2.29262 0
M  V30 65977 C 6313.4 1.06669 -1.32498 0
M  V30 65978 O 6314.58 1.08017 -1.61388 0
M  V30 65979 C 6311.71 1.57232 -3.0967 0
M  V30 65980 C 6310.67 1.07473 -4.14287 0
M  V30 65981 C 6309.99 2.29597 -4.82897 0
M  V30 65982 C 6311.29 0.145296 -5.22098 0
M  V30 65983 H 6312.99 -0.195005 -2.98764 0
M  V30 65984 H 6310.53 -0.0952268 -1.43685 0
M  V30 65985 H 6312.49 2.15869 -3.61909 0
M  V30 65986 H 6311.21 2.23773 -2.37893 0
M  V30 65987 H 6309.87 0.510919 -3.63022 0
M  V30 65988 H 6309.52 2.94639 -4.07672 0
M  V30 65989 H 6309.22 1.96966 -5.53605 0
M  V30 65990 H 6310.74 2.88883 -5.37939 0
M  V30 65991 H 6312.16 0.63974 -5.69719 0
M  V30 65992 H 6310.55 -0.0910796 -6.00031 0
M  V30 65993 H 6311.62 -0.806875 -4.7814 0
M  V30 65994 N 6312.97 1.57178 -0.115314 0
M  V30 65995 C 6314.21 1.96953 0.546707 0
M  V30 65996 C 6314.57 0.997054 1.64082 0
M  V30 65997 O 6315.77 1.28405 2.36148 0
M  V30 65998 C 6314.04 3.41037 1.06904 0
M  V30 65999 S 6315.6 4.02822 1.7401 0
M  V30 66000 H 6312.42 0.688408 0.177809 0
M  V30 66001 H 6315.02 1.94479 -0.19952 0
M  V30 66002 H 6313.72 4.09566 0.261517 0
M  V30 66003 H 6313.26 3.47153 1.85063 0
M  V30 66004 H 6315.27 3.93279 3.02566 0
M  V30 66005 N 6314.44 -0.15845 1.56801 0
M  V30 66006 C 6315.37 -1.19792 2.0043 0
M  V30 66007 C 6316.35 -1.45449 0.881956 0
M  V30 66008 O 6317.54 -1.56565 1.14896 0
M  V30 66009 C 6314.67 -2.53384 2.37516 0
M  V30 66010 C 6313.62 -2.4227 3.5283 0
M  V30 66011 C 6312.95 -3.80469 3.75696 0
M  V30 66012 C 6314.25 -1.91649 4.85868 0
M  V30 66013 H 6315.94 -0.835202 2.87515 0
M  V30 66014 H 6313.49 -0.400317 1.38324 0
M  V30 66015 H 6315.44 -3.26317 2.66637 0
M  V30 66016 H 6314.17 -2.91469 1.47355 0
M  V30 66017 H 6312.83 -1.7179 3.23858 0
M  V30 66018 H 6312.47 -4.15969 2.82805 0
M  V30 66019 H 6312.17 -3.73898 4.53293 0
M  V30 66020 H 6313.7 -4.54968 4.0723 0
M  V30 66021 H 6315.11 -2.54366 5.13781 0
M  V30 66022 H 6313.51 -1.95996 5.67191 0
M  V30 66023 H 6314.58 -0.871498 4.77004 0
M  V30 66024 N 6315.92 -1.51693 -0.427432 0
M  V30 66025 C 6317.34 -1.40089 -0.764677 0
M  V30 66026 C 6317.54 -0.490986 -1.95427 0
M  V30 66027 O 6316.59 0.0501349 -2.5245 0
M  V30 66028 C 6317.91 -2.82299 -1.03576 0
M  V30 66029 C 6319.45 -2.91517 -1.13959 0
M  V30 66030 C 6319.93 -4.34656 -1.44355 0
M  V30 66031 N 6321.42 -4.37807 -1.51259 0
M  V30 66032 C 6322.16 -5.45602 -1.76369 0
M  V30 66033 N 6321.65 -6.63543 -1.99205 0
M  V30 66034 N 6323.44 -5.33094 -1.78233 0
M  V30 66035 H 6315.6 -2.09397 0.355882 0
M  V30 66036 H 6317.86 -0.943039 0.0968556 0
M  V30 66037 H 6317.56 -3.50919 -0.234245 0
M  V30 66038 H 6317.44 -3.2223 -1.9608 0
M  V30 66039 H 6319.83 -2.23088 -1.93172 0
M  V30 66040 H 6319.91 -2.55068 -0.193336 0
M  V30 66041 H 6319.55 -5.03637 -0.656664 0
M  V30 66042 H 6319.48 -4.68626 -2.40203 0
M  V30 66043 H 6321.97 -3.52782 -1.35474 0
M  V30 66044 H 6322.28 -7.41484 -2.17763 0
M  V30 66045 H 6320.63 -6.66641 -1.96507 0
M  V30 66046 H 6323.82 -4.39936 -1.59918 0
M  V30 66047 H 6323.99 -6.17181 -1.97464 0
M  V30 66048 N 6317.4 0.683514 -1.42007 0
M  V30 66049 C 6318.35 1.79725 -1.44802 0
M  V30 66050 C 6319.32 1.63351 -0.300962 0
M  V30 66051 O 6320.5 1.84029 -0.503772 0
M  V30 66052 C 6317.64 3.17697 -1.34769 0
M  V30 66053 C 6316.75 3.45419 -2.59441 0
M  V30 66054 C 6315.89 4.73071 -2.41614 0
M  V30 66055 C 6314.93 4.93799 -3.61703 0
M  V30 66056 N 6314.07 6.12685 -3.42872 0
M  V30 66057 H 6318.91 1.7667 -2.39983 0
M  V30 66058 H 6316.44 0.862582 -1.19155 0
M  V30 66059 H 6318.4 3.97415 -1.26952 0
M  V30 66060 H 6317.03 3.19898 -0.431897 0
M  V30 66061 H 6316.08 2.60017 -2.7766 0
M  V30 66062 H 6317.39 3.56632 -3.48733 0
M  V30 66063 H 6316.55 5.60865 -2.31333 0
M  V30 66064 H 6315.29 4.64125 -1.49798 0
M  V30 66065 H 6314.29 4.0445 -3.72425 0
M  V30 66066 H 6315.52 5.04596 -4.54488 0
M  V30 66067 H 6313.46 6.04929 -2.53765 0
M  V30 66068 H 6313.38 6.24721 -4.25746 0
M  V30 66069 H 6314.65 7.03182 -3.36386 0
M  V30 66070 N 6318.88 1.28034 0.918967 0
M  V30 66071 C 6319.81 1.14042 2.03757 0
M  V30 66072 C 6320.79 0.0395548 1.70054 0
M  V30 66073 O 6321.97 0.215614 1.92999 0
M  V30 66074 C 6319.1 0.796012 3.38055 0
M  V30 66075 C 6318.06 1.85107 3.85901 0
M  V30 66076 C 6317.38 1.36043 5.17104 0
M  V30 66077 C 6318.68 3.25672 4.08332 0
M  V30 66078 H 6320.38 2.07617 2.15721 0
M  V30 66079 H 6317.92 0.999594 1.03654 0
M  V30 66080 H 6319.88 0.684909 4.15797 0
M  V30 66081 H 6318.6 -0.175444 3.26128 0
M  V30 66082 H 6317.26 1.95123 3.10359 0
M  V30 66083 H 6316.91 0.37818 5.01576 0
M  V30 66084 H 6316.61 2.06587 5.50087 0
M  V30 66085 H 6318.13 1.26244 5.97407 0
M  V30 66086 H 6319.55 3.18607 4.76615 0
M  V30 66087 H 6317.94 3.94005 4.52637 0
M  V30 66088 H 6319.01 3.70077 3.13322 0
M  V30 66089 N 6320.36 -1.12669 1.10198 0
M  V30 66090 C 6321.6 -1.84396 0.844146 0
M  V30 66091 C 6321.93 -1.83741 -0.628718 0
M  V30 66092 O 6321.21 -1.2812 -1.4634 0
M  V30 66093 C 6321.49 -3.32189 1.39005 0
M  V30 66094 C 6321.35 -3.41313 2.9296 0
M  V30 66095 C 6322.66 -4.27869 1.03036 0
M  V30 66096 H 6319.78 -0.669504 0.308113 0
M  V30 66097 H 6322.43 -1.32195 1.36471 0
M  V30 66098 H 6320.58 -3.76774 0.947276 0
M  V30 66099 H 6322.25 -3.05381 3.45746 0
M  V30 66100 H 6320.49 -2.81937 3.29688 0
M  V30 66101 H 6321.16 -4.45278 3.26238 0
M  V30 66102 H 6323.64 -3.91396 1.41237 0
M  V30 66103 H 6322.51 -5.29694 1.43927 0
M  V30 66104 H 6322.77 -4.42059 -0.0605115 0
M  V30 66105 N 6321.83 -0.890356 -1.3004 0
M  V30 66106 C 6323.08 -0.512277 -1.96223 0
M  V30 66107 C 6323.41 0.937227 -1.70087 0
M  V30 66108 O 6322.69 1.66306 -1.0086 0
M  V30 66109 C 6322.97 -0.794166 -3.51234 0
M  V30 66110 C 6322.82 -2.29469 -3.86864 0
M  V30 66111 C 6324.14 -0.274306 -4.39244 0
M  V30 66112 H 6321.26 -0.187594 -0.712726 0
M  V30 66113 H 6323.9 -1.11533 -1.53819 0
M  V30 66114 H 6322.05 -0.280907 -3.87483 0
M  V30 66115 H 6323.73 -2.87677 -3.6061 0
M  V30 66116 H 6321.97 -2.75919 -3.34741 0
M  V30 66117 H 6322.64 -2.44252 -4.9502 0
M  V30 66118 H 6325.12 -0.713679 -4.09934 0
M  V30 66119 H 6323.99 -0.500825 -5.4661 0
M  V30 66120 H 6324.25 0.82466 -4.34341 0
M  V30 66121 N 6323.31 1.43487 -0.651863 0
M  V30 66122 C 6324.24 2.29063 0.0792303 0
M  V30 66123 C 6325.26 1.42433 0.788458 0
M  V30 66124 O 6326.45 1.66383 0.64644 0
M  V30 66125 C 6323.55 3.19321 1.13522 0
M  V30 66126 C 6322.72 4.34482 0.504401 0
M  V30 66127 C 6321.78 5.05624 1.45709 0
M  V30 66128 O 6320.8 5.60939 0.966212 0
M  V30 66129 N 6322.01 5.08998 2.79109 0
M  V30 66130 H 6324.77 2.92449 -0.655277 0
M  V30 66131 H 6322.33 1.54162 -0.494545 0
M  V30 66132 H 6324.32 3.63779 1.77332 0
M  V30 66133 H 6322.89 2.57545 1.77171 0
M  V30 66134 H 6322.11 3.92957 -0.312764 0
M  V30 66135 H 6323.4 5.0876 0.0639803 0
M  V30 66136 H 6322.8 4.65426 3.21551 0
M  V30 66137 H 6321.36 5.57178 3.38225 0
M  V30 66138 N 6324.79 0.393696 1.52603 0
M  V30 66139 C 6326.21 0.0438546 1.5954 0
M  V30 66140 C 6326.41 -1.44198 1.40745 0
M  V30 66141 O 6325.46 -2.20703 1.22664 0
M  V30 66142 C 6326.77 0.524968 2.96082 0
M  V30 66143 C 6328.32 0.481605 3.09273 0
M  V30 66144 C 6328.8 0.938979 4.48271 0
M  V30 66145 N 6330.29 0.895169 4.54468 0
M  V30 66146 C 6331.02 1.22043 5.60262 0
M  V30 66147 N 6330.52 1.61638 6.7368 0
M  V30 66148 N 6332.31 1.1414 5.50389 0
M  V30 66149 H 6324.46 1.36096 1.63069 0
M  V30 66150 H 6326.73 0.558112 0.7663 0
M  V30 66151 H 6326.43 1.56288 3.15066 0
M  V30 66152 H 6326.31 -0.07362 3.77128 0
M  V30 66153 H 6328.69 -0.547231 2.89982 0
M  V30 66154 H 6328.77 1.11605 2.30169 0
M  V30 66155 H 6328.42 1.96607 4.68304 0
M  V30 66156 H 6328.35 0.281498 5.25847 0
M  V30 66157 H 6330.84 0.603859 3.73044 0
M  V30 66158 H 6331.15 1.84808 7.50377 0
M  V30 66159 H 6329.5 1.65528 6.75 0
M  V30 66160 H 6332.69 0.831042 4.60664 0
M  V30 66161 H 6332.86 1.3982 6.32736 0
M  V30 66162 N 6326.27 -1.57114 0.123648 0
M  V30 66163 C 6327.5 -1.99707 -0.540817 0
M  V30 66164 C 6327.91 -1.00341 -1.59928 0
M  V30 66165 O 6327.27 0.00304061 -1.825 0
M  V30 66166 C 6327.32 -3.4229 -1.16273 0
M  V30 66167 O 6327.04 -4.37855 -0.146571 0
M  V30 66168 C 6328.54 -4.00039 -1.91007 0
M  V30 66169 H 6325.76 -0.655628 -0.142804 0
M  V30 66170 H 6328.31 -2.03405 0.211356 0
M  V30 66171 H 6326.46 -3.39517 -1.86566 0
M  V30 66172 H 6326.87 -5.21068 -0.599045 0
M  V30 66173 H 6328.35 -5.01873 -2.29843 0
M  V30 66174 H 6328.83 -3.3944 -2.78707 0
M  V30 66175 H 6329.43 -4.06372 -1.25466 0
M  V30 66176 N 6327.75 0.150132 -1.56883 0
M  V30 66177 C 6328.69 1.18545 -1.9803 0
M  V30 66178 C 6329.66 1.42858 -0.847404 0
M  V30 66179 O 6330.85 1.55245 -1.10922 0
M  V30 66180 C 6327.99 2.51471 -2.3634 0
M  V30 66181 C 6327.1 2.34358 -3.62905 0
M  V30 66182 C 6326.24 3.60297 -3.90332 0
M  V30 66183 C 6325.28 3.38208 -5.10178 0
M  V30 66184 N 6324.41 4.5627 -5.33631 0
M  V30 66185 H 6329.25 0.827566 -2.86278 0
M  V30 66186 H 6326.79 0.397188 -1.41636 0
M  V30 66187 H 6328.75 3.28972 -2.56579 0
M  V30 66188 H 6327.38 2.85213 -1.51174 0
M  V30 66189 H 6326.43 1.47927 -3.5046 0
M  V30 66190 H 6327.74 2.13995 -4.50564 0
M  V30 66191 H 6326.9 4.46229 -4.11053 0
M  V30 66192 H 6325.63 3.83662 -3.01089 0
M  V30 66193 H 6324.64 2.50665 -4.89333 0
M  V30 66194 H 6325.86 3.16245 -6.00971 0
M  V30 66195 H 6323.81 4.79813 -4.47342 0
M  V30 66196 H 6323.73 4.38897 -6.15553 0
M  V30 66197 H 6325 5.43424 -5.58848 0
M  V30 66198 N 6329.22 1.51918 0.419381 0
M  V30 66199 C 6330.15 1.7748 1.51733 0
M  V30 66200 C 6331.14 0.625319 1.58189 0
M  V30 66201 O 6332.32 0.869876 1.73628 0
M  V30 66202 C 6329.45 1.91619 2.89654 0
M  V30 66203 C 6328.4 3.07162 2.98053 0
M  V30 66204 C 6327.73 3.06508 4.38129 0
M  V30 66205 C 6329.03 4.46809 2.70479 0
M  V30 66206 H 6330.72 2.69418 1.30592 0
M  V30 66207 H 6328.27 1.29642 0.626804 0
M  V30 66208 H 6330.22 2.08084 3.66441 0
M  V30 66209 H 6328.95 0.963442 3.12066 0
M  V30 66210 H 6327.61 2.9043 2.2371 0
M  V30 66211 H 6327.25 2.08976 4.57535 0
M  V30 66212 H 6326.95 3.84107 4.44675 0
M  V30 66213 H 6328.48 3.2509 5.16864 0
M  V30 66214 H 6329.89 4.63799 3.36992 0
M  V30 66215 H 6328.29 5.26248 2.88414 0
M  V30 66216 H 6329.36 4.5561 1.65975 0
M  V30 66217 N 6330.7 -0.675973 1.42367 0
M  V30 66218 C 6331.95 -1.43178 1.42067 0
M  V30 66219 C 6332.26 -1.95559 0.0401008 0
M  V30 66220 O 6333.47 -2.71365 -0.0855005 0
M  V30 66221 C 6331.93 -2.59001 2.49893 0
M  V30 66222 C 6331.53 -2.13324 3.9395 0
M  V30 66223 C 6333.28 -3.36519 2.58757 0
M  V30 66224 C 6331.19 -3.26222 4.93288 0
M  V30 66225 H 6330.12 -0.53788 0.528395 0
M  V30 66226 H 6332.77 -0.731942 1.6827 0
M  V30 66227 H 6331.15 -3.31347 2.16853 0
M  V30 66228 H 6332.32 -1.48139 4.36339 0
M  V30 66229 H 6330.64 -1.48748 3.88926 0
M  V30 66230 H 6333.23 -4.20598 3.30153 0
M  V30 66231 H 6333.58 -3.83031 1.63074 0
M  V30 66232 H 6334.11 -2.71241 2.90986 0
M  V30 66233 H 6330.85 -2.84703 5.90444 0
M  V30 66234 H 6330.37 -3.90193 4.55532 0
M  V30 66235 H 6332.05 -3.91707 5.14951 0
M  V30 66236 N 6332.18 -1.2852 -0.912164 0
M  V30 66237 C 6333.46 -1.06466 -1.64087 0
M  V30 66238 C 6333.84 0.395448 -2.07363 0
M  V30 66239 O 6333.19 1.38183 -1.81982 0
M  V30 66240 C 6333.4 -2.04074 -2.83116 0
M  V30 66241 C 6334.74 -2.34308 -3.54097 0
M  V30 66242 O 6335.77 -2.02171 -2.93267 0
M  V30 66243 O 6334.63 -2.89162 -4.63732 0
M  V30 66244 H 6331.72 -0.407009 -0.719912 0
M  V30 66245 H 6334.27 -1.39845 -0.961329 0
M  V30 66246 H 6333.04 -3.02476 -2.48242 0
M  V30 66247 H 6332.66 -1.71351 -3.58782 0
M  V30 66248 N 6333.66 1.12083 -1.10794 0
M  V30 66249 C 6334.57 2.21511 -0.772656 0
M  V30 66250 C 6335.58 1.72454 0.231401 0
M  V30 66251 O 6336.76 2.01281 0.0692367 0
M  V30 66252 C 6333.83 3.46042 -0.213486 0
M  V30 66253 C 6332.89 4.0992 -1.27529 0
M  V30 66254 C 6332.12 5.28507 -0.74271 0
M  V30 66255 O 6332.34 5.6878 0.429586 0
M  V30 66256 O 6331.28 5.82797 -1.50437 0
M  V30 66257 H 6335.1 2.5259 -1.68617 0
M  V30 66258 H 6332.69 1.20489 -0.883337 0
M  V30 66259 H 6334.57 4.21294 0.0943202 0
M  V30 66260 H 6333.24 3.1663 0.672836 0
M  V30 66261 H 6332.15 3.36431 -1.63601 0
M  V30 66262 H 6333.48 4.43496 -2.13476 0
M  V30 66263 N 6335.14 0.89724 1.29566 0
M  V30 66264 C 6336.36 0.53724 1.99803 0
M  V30 66265 C 6336.78 -0.877408 1.67174 0
M  V30 66266 O 6336.14 -1.57879 0.915453 0
M  V30 66267 C 6336.19 0.717027 3.54318 0
M  V30 66268 O 6335.91 2.07599 3.8579 0
M  V30 66269 C 6337.41 0.361649 4.41822 0
M  V30 66270 H 6334.63 0.206401 0.638467 0
M  V30 66271 H 6337.17 1.20591 1.65161 0
M  V30 66272 H 6335.33 0.0955691 3.87282 0
M  V30 66273 H 6335.74 2.10355 4.8047 0
M  V30 66274 H 6337.22 0.538292 5.49369 0
M  V30 66275 H 6337.69 -0.701148 4.33567 0
M  V30 66276 H 6338.3 0.959945 4.14325 0
M  V30 66277 N 6336.61 -1.43139 0.659463 0
M  V30 66278 C 6337.55 -2.29102 -0.0670814 0
M  V30 66279 C 6338.56 -1.42849 -0.780893 0
M  V30 66280 O 6339.75 -1.66724 -0.637608 0
M  V30 66281 C 6336.85 -3.19919 -1.11827 0
M  V30 66282 C 6336.02 -4.34743 -0.481352 0
M  V30 66283 C 6335.08 -5.06389 -1.43026 0
M  V30 66284 O 6334.11 -5.61444 -0.93645 0
M  V30 66285 N 6335.31 -5.10471 -2.76405 0
M  V30 66286 H 6338.07 -2.92097 0.670777 0
M  V30 66287 H 6335.63 -1.53897 0.502714 0
M  V30 66288 H 6337.63 -3.64715 -1.75401 0
M  V30 66289 H 6336.2 -2.5848 -1.75803 0
M  V30 66290 H 6335.42 -3.92786 0.333599 0
M  V30 66291 H 6336.7 -5.08787 -0.0369986 0
M  V30 66292 H 6336.1 -4.67125 -3.19078 0
M  V30 66293 H 6334.66 -5.58963 -3.35266 0
M  V30 66294 N 6338.09 -0.401784 -1.52392 0
M  V30 66295 C 6339.37 0.234576 -1.94188 0
M  V30 66296 C 6339.75 1.63269 -1.33816 0
M  V30 66297 O 6339.1 2.22711 -0.511092 0
M  V30 66298 C 6339.31 0.248332 -3.48115 0
M  V30 66299 C 6340.66 0.471248 -4.21977 0
M  V30 66300 O 6341.68 0.328006 -3.54687 0
M  V30 66301 O 6340.54 0.752945 -5.41288 0
M  V30 66302 H 6337.63 0.149046 -0.813458 0
M  V30 66303 H 6340.18 -0.457196 -1.63425 0
M  V30 66304 H 6338.95 -0.73049 -3.84421 0
M  V30 66305 H 6338.57 0.984508 -3.85218 0
M  V30 66306 N 6339.57 1.57046 -0.131978 0
M  V30 66307 C 6340.5 2.11738 0.851014 0
M  V30 66308 C 6341.48 1.03706 1.25235 0
M  V30 66309 O 6342.67 1.31443 1.35111 0
M  V30 66310 C 6339.79 2.62476 2.14066 0
M  V30 66311 C 6338.84 3.82514 1.8864 0
M  V30 66312 S 6339.67 5.2427 1.09094 0
M  V30 66313 C 6340.83 5.78385 2.39209 0
M  V30 66314 H 6341.06 2.94785 0.385871 0
M  V30 66315 H 6338.59 1.54182 0.0820391 0
M  V30 66316 H 6340.55 2.92361 2.88158 0
M  V30 66317 H 6339.21 1.79587 2.57696 0
M  V30 66318 H 6338.41 4.16208 2.8423 0
M  V30 66319 H 6338.01 3.53313 1.22663 0
M  V30 66320 H 6340.3 5.88901 3.34965 0
M  V30 66321 H 6341.24 6.76231 2.10042 0
M  V30 66322 H 6341.65 5.06532 2.49171 0
M  V30 66323 N 6341.05 -0.14181 1.56961 0
M  V30 66324 C 6341.98 -1.1766 2.01689 0
M  V30 66325 C 6342.96 -1.44506 0.897333 0
M  V30 66326 O 6344.15 -1.55338 1.1655 0
M  V30 66327 C 6341.28 -2.5085 2.40191 0
M  V30 66328 C 6340.23 -2.38515 3.5538 0
M  V30 66329 C 6339.56 -3.76462 3.79711 0
M  V30 66330 C 6340.86 -1.86485 4.87874 0
M  V30 66331 H 6342.55 -0.80466 2.88384 0
M  V30 66332 H 6340.1 -0.385624 1.38741 0
M  V30 66333 H 6342.05 -3.23471 2.70083 0
M  V30 66334 H 6340.77 -2.89889 1.50438 0
M  V30 66335 H 6339.43 -1.68345 3.25661 0
M  V30 66336 H 6339.08 -4.12946 2.87201 0
M  V30 66337 H 6338.78 -3.69069 4.57233 0
M  V30 66338 H 6340.3 -4.50623 4.12033 0
M  V30 66339 H 6341.72 -2.48902 5.1645 0
M  V30 66340 H 6340.11 -1.89969 5.69238 0
M  V30 66341 H 6341.18 -0.820857 4.77902 0
M  V30 66342 N 6342.53 -1.52138 -0.411319 0
M  V30 66343 C 6343.46 -1.78282 -1.5079 0
M  V30 66344 C 6344.44 -0.633699 -1.57855 0
M  V30 66345 O 6345.62 -0.879072 -1.73165 0
M  V30 66346 C 6342.75 -1.93152 -2.88634 0
M  V30 66347 C 6341.71 -3.08738 -2.9642 0
M  V30 66348 C 6341.03 -3.08827 -4.36497 0
M  V30 66349 C 6342.33 -4.48237 -2.68106 0
M  V30 66350 H 6344.03 -2.70107 -1.29162 0
M  V30 66351 H 6341.57 -1.29973 -0.61992 0
M  V30 66352 H 6343.53 -2.10025 -3.65332 0
M  V30 66353 H 6342.25 -0.979978 -3.11551 0
M  V30 66354 H 6340.91 -2.91612 -2.22167 0
M  V30 66355 H 6340.56 -2.11399 -4.5642 0
M  V30 66356 H 6340.26 -3.86459 -4.42632 0
M  V30 66357 H 6341.78 -3.27827 -5.15133 0
M  V30 66358 H 6343.2 -4.6558 -3.34527 0
M  V30 66359 H 6341.59 -5.27771 -2.85619 0
M  V30 66360 H 6342.66 -4.56484 -1.63556 0
M  V30 66361 N 6344.01 0.668413 -1.42723 0
M  V30 66362 C 6344.92 1.81112 -1.49116 0
M  V30 66363 C 6345.93 1.69814 -0.37939 0
M  V30 66364 O 6347.11 1.91252 -0.631254 0
M  V30 66365 C 6344.17 3.17298 -1.39724 0
M  V30 66366 C 6343.23 3.40506 -2.61446 0
M  V30 66367 C 6342.47 4.70194 -2.52493 0
M  V30 66368 O 6342.69 5.48531 -1.5643 0
M  V30 66369 O 6341.62 4.94788 -3.42737 0
M  V30 66370 H 6345.45 1.78675 -2.45579 0
M  V30 66371 H 6343.03 0.824974 -1.24557 0
M  V30 66372 H 6344.92 3.98552 -1.36873 0
M  V30 66373 H 6343.59 3.20359 -0.463898 0
M  V30 66374 H 6342.5 2.59075 -2.69872 0
M  V30 66375 H 6343.83 3.42281 -3.53701 0
M  V30 66376 N 6345.48 1.29002 0.905335 0
M  V30 66377 C 6346.42 1.07973 2.0104 0
M  V30 66378 C 6347.39 -0.00672758 1.62599 0
M  V30 66379 O 6348.58 0.142864 1.87958 0
M  V30 66380 C 6345.71 0.642534 3.3255 0
M  V30 66381 C 6344.75 1.72687 3.89976 0
M  V30 66382 S 6345.58 3.3248 4.19782 0
M  V30 66383 C 6346.74 2.90616 5.54341 0
M  V30 66384 H 6346.97 2.01531 2.18569 0
M  V30 66385 H 6344.51 1.13085 1.05125 0
M  V30 66386 H 6346.46 0.396999 4.08576 0
M  V30 66387 H 6345.13 -0.273353 3.12908 0
M  V30 66388 H 6344.32 1.37278 4.84944 0
M  V30 66389 H 6343.92 1.92563 3.20617 0
M  V30 66390 H 6346.21 2.3731 6.34579 0
M  V30 66391 H 6347.16 3.84413 5.9467 0
M  V30 66392 H 6347.56 2.29078 5.1593 0
M  V30 66393 N 6346.96 -1.11493 1.11387 0
M  V30 66394 C 6347.89 -2.19589 0.793904 0
M  V30 66395 C 6348.87 -1.68434 -0.2375 0
M  V30 66396 O 6350.06 -1.93937 -0.101096 0
M  V30 66397 C 6347.19 -3.46499 0.235701 0
M  V30 66398 C 6346.14 -4.10865 1.19891 0
M  V30 66399 C 6345.47 -5.32344 0.501446 0
M  V30 66400 C 6346.77 -4.55855 2.54938 0
M  V30 66401 H 6348.46 -2.46611 1.69774 0
M  V30 66402 H 6346.01 -1.18529 0.817736 0
M  V30 66403 H 6347.96 -4.214 -0.000342129 0
M  V30 66404 H 6346.68 -3.18935 -0.703432 0
M  V30 66405 H 6345.34 -3.37957 1.42058 0
M  V30 66406 H 6344.99 -5.0105 -0.442476 0
M  V30 66407 H 6344.69 -5.76359 1.14387 0
M  V30 66408 H 6346.22 -6.09984 0.274182 0
M  V30 66409 H 6347.63 -5.22081 2.36863 0
M  V30 66410 H 6346.03 -5.10682 3.15157 0
M  V30 66411 H 6347.1 -3.69331 3.14202 0
M  V30 66412 N 6348.44 -0.904098 -1.29088 0
M  V30 66413 C 6349.35 -0.389906 -2.31337 0
M  V30 66414 C 6350.37 0.51757 -1.66124 0
M  V30 66415 O 6351.54 0.406089 -1.97263 0
M  V30 66416 C 6348.61 0.370347 -3.44716 0
M  V30 66417 C 6347.67 -0.569181 -4.2551 0
M  V30 66418 C 6346.9 0.154884 -5.33475 0
M  V30 66419 O 6347.12 1.37814 -5.53501 0
M  V30 66420 O 6346.06 -0.504853 -5.99779 0
M  V30 66421 H 6349.88 -1.2383 -2.77308 0
M  V30 66422 H 6347.47 -0.668575 -1.33606 0
M  V30 66423 H 6349.35 0.800092 -4.13735 0
M  V30 66424 H 6348.03 1.19473 -3.00845 0
M  V30 66425 H 6346.93 -1.04813 -3.59117 0
M  V30 66426 H 6348.27 -1.3601 -4.73035 0
M  V30 66427 N 6349.92 1.42788 -0.667045 0
M  V30 66428 C 6351.19 1.95259 -0.115398 0
M  V30 66429 C 6351.57 1.60781 1.36795 0
M  V30 66430 O 6350.92 0.899971 2.1003 0
M  V30 66431 C 6351.13 3.46965 -0.376297 0
M  V30 66432 C 6352.48 4.23618 -0.288639 0
M  V30 66433 O 6353.5 3.54852 -0.309615 0
M  V30 66434 O 6352.36 5.4604 -0.224174 0
M  V30 66435 H 6349.46 0.826998 0.00162798 0
M  V30 66436 H 6352 1.52656 -0.741239 0
M  V30 66437 H 6350.78 3.65238 -1.40417 0
M  V30 66438 H 6350.4 3.96599 0.281934 0
M  V30 66439 N 6351.4 0.40986 1.52177 0
M  V30 66440 C 6352.33 -0.459875 2.23518 0
M  V30 66441 C 6353.31 -1.04739 1.24373 0
M  V30 66442 O 6354.49 -1.09512 1.53426 0
M  V30 66443 C 6351.62 -1.6384 2.96436 0
M  V30 66444 C 6350.66 -1.1742 4.10018 0
M  V30 66445 S 6351.5 -0.138744 5.3532 0
M  V30 66446 C 6352.65 -1.32257 6.11767 0
M  V30 66447 H 6352.89 0.145879 2.96942 0
M  V30 66448 H 6350.42 0.194164 1.53174 0
M  V30 66449 H 6352.38 -2.31417 3.39052 0
M  V30 66450 H 6351.04 -2.21549 2.22654 0
M  V30 66451 H 6350.23 -2.05471 4.60215 0
M  V30 66452 H 6349.83 -0.577057 3.69521 0
M  V30 66453 H 6352.12 -2.24604 6.39187 0
M  V30 66454 H 6353.07 -0.861124 7.02844 0
M  V30 66455 H 6353.48 -1.5487 5.4284 0
M  V30 66456 N 6352.87 -1.56974 0.140305 0
M  V30 66457 C 6354.1 -2.00269 -0.519605 0
M  V30 66458 C 6354.52 -1.02032 -1.58855 0
M  V30 66459 O 6353.87 -0.0163161 -1.82493 0
M  V30 66460 C 6353.92 -3.43504 -1.12636 0
M  V30 66461 O 6353.65 -4.37986 -0.100123 0
M  V30 66462 C 6355.15 -4.02042 -1.86753 0
M  V30 66463 H 6352.37 -0.657106 -0.135842 0
M  V30 66464 H 6354.91 -2.03169 0.232918 0
M  V30 66465 H 6353.07 -3.41477 -1.82955 0
M  V30 66466 H 6353.48 -5.21674 -0.543745 0
M  V30 66467 H 6354.95 -5.04282 -2.24507 0
M  V30 66468 H 6355.43 -3.42377 -2.75091 0
M  V30 66469 H 6356.04 -4.0768 -1.21149 0
M  V30 66470 N 6354.35 0.133484 -1.57034 0
M  V30 66471 C 6355.58 0.858365 -1.88254 0
M  V30 66472 C 6355.99 1.74116 -0.729996 0
M  V30 66473 O 6355.35 1.80021 0.299766 0
M  V30 66474 C 6355.4 1.70386 -3.18827 0
M  V30 66475 O 6355.12 0.856624 -4.29644 0
M  V30 66476 C 6356.62 2.53516 -3.63655 0
M  V30 66477 H 6353.84 0.247516 -0.62368 0
M  V30 66478 H 6356.39 0.122217 -2.04134 0
M  V30 66479 H 6354.54 2.39292 -3.0466 0
M  V30 66480 H 6354.96 1.43839 -5.04391 0
M  V30 66481 H 6356.43 3.08394 -4.57818 0
M  V30 66482 H 6356.91 3.30194 -2.89601 0
M  V30 66483 H 6357.51 1.89877 -3.80561 0
M  V30 66484 N 6355.83 1.52354 0.403245 0
M  V30 66485 C 6357.08 1.66372 1.14738 0
M  V30 66486 C 6357.4 0.398966 1.90875 0
M  V30 66487 O 6356.67 -0.586306 1.8692 0
M  V30 66488 H 6355.25 0.613241 0.426549 0
M  V30 66489 H 6357.91 1.89418 0.459009 0
M  V30 66490 H 6357.01 2.50754 1.85819 0
M  V30 66491 N 6357.31 -0.660835 1.43076 0
M  V30 66492 C 6358.54 -1.44873 1.47714 0
M  V30 66493 C 6358.95 -1.88572 0.0926813 0
M  V30 66494 O 6358.31 -1.59018 -0.895524 0
M  V30 66495 C 6358.36 -2.68871 2.41641 0
M  V30 66496 O 6358.08 -2.27002 3.74702 0
M  V30 66497 C 6359.58 -3.62303 2.55443 0
M  V30 66498 H 6356.8 -0.445309 0.501937 0
M  V30 66499 H 6359.35 -0.810816 1.87739 0
M  V30 66500 H 6357.5 -3.2882 2.04832 0
M  V30 66501 H 6357.91 -3.07176 4.25139 0
M  V30 66502 H 6359.39 -4.45996 3.25257 0
M  V30 66503 H 6359.87 -4.09142 1.59685 0
M  V30 66504 H 6360.47 -3.08241 2.93032 0
M  V30 66505 N 6358.79 -1.2948 -0.898481 0
M  V30 66506 C 6359.7 -1.16602 -2.03571 0
M  V30 66507 C 6360.71 -0.0889896 -1.73772 0
M  V30 66508 O 6361.89 -0.301298 -1.99134 0
M  V30 66509 C 6358.95 -0.844863 -3.36248 0
M  V30 66510 C 6358.01 -2.00586 -3.79557 0
M  V30 66511 C 6357.25 -1.69993 -5.05903 0
M  V30 66512 O 6357.47 -0.621445 -5.67005 0
M  V30 66513 O 6356.4 -2.54828 -5.45294 0
M  V30 66514 H 6360.23 -2.12105 -2.17359 0
M  V30 66515 H 6357.82 -1.08944 -1.02233 0
M  V30 66516 H 6359.7 -0.680375 -4.15871 0
M  V30 66517 H 6358.37 0.0803802 -3.236 0
M  V30 66518 H 6357.28 -2.22559 -3.00696 0
M  V30 66519 H 6358.61 -2.91235 -3.96791 0
M  V30 66520 N 6360.26 1.10901 -1.11976 0
M  V30 66521 C 6361.49 1.87092 -0.895057 0
M  V30 66522 C 6361.91 1.79877 0.550081 0
M  V30 66523 O 6361.27 1.16522 1.38897 0
M  V30 66524 C 6361.32 3.33629 -1.36836 0
M  V30 66525 O 6360.42 4.088 -0.543696 0
M  V30 66526 H 6359.77 0.580723 -0.321958 0
M  V30 66527 H 6362.3 1.40147 -1.49064 0
M  V30 66528 H 6362.31 3.84477 -1.36533 0
M  V30 66529 H 6360.98 3.38196 -2.42066 0
M  V30 66530 H 6359.56 3.67822 -0.613314 0
M  V30 66531 N 6361.74 0.910931 1.28607 0
M  V30 66532 C 6362.65 0.402169 2.31127 0
M  V30 66533 C 6363.67 -0.508753 1.66396 0
M  V30 66534 O 6364.84 -0.395622 1.97476 0
M  V30 66535 C 6361.91 -0.352061 3.44908 0
M  V30 66536 C 6360.97 0.591739 4.25202 0
M  V30 66537 C 6360.2 -0.12659 5.3355 0
M  V30 66538 O 6360.43 -1.34877 5.54224 0
M  V30 66539 O 6359.36 0.536653 5.99503 0
M  V30 66540 H 6363.19 1.25299 2.76648 0
M  V30 66541 H 6360.77 0.675651 1.33249 0
M  V30 66542 H 6362.65 -0.778139 4.14153 0
M  V30 66543 H 6361.33 -1.17876 3.01475 0
M  V30 66544 H 6360.24 1.06716 3.58556 0
M  V30 66545 H 6361.57 1.38517 4.72307 0
M  V30 66546 N 6363.22 -1.42432 0.674608 0
M  V30 66547 C 6364.45 -2.0588 0.205186 0
M  V30 66548 C 6364.86 -1.50681 -1.13757 0
M  V30 66549 O 6364.22 -0.646539 -1.70664 0
M  V30 66550 C 6364.27 -3.61261 0.131321 0
M  V30 66551 O 6363.99 -4.14414 1.42102 0
M  V30 66552 C 6365.49 -4.41823 -0.36162 0
M  V30 66553 H 6362.71 -0.663532 0.0998316 0
M  V30 66554 H 6365.26 -1.82572 0.92129 0
M  V30 66555 H 6363.41 -3.83681 -0.535469 0
M  V30 66556 H 6363.83 -5.08281 1.29425 0
M  V30 66557 H 6365.3 -5.5081 -0.362212 0
M  V30 66558 H 6365.78 -4.16395 -1.39685 0
M  V30 66559 H 6366.38 -4.2442 0.273427 0
M  V30 66560 N 6364.7 -0.417924 -1.51958 0
M  V30 66561 C 6365.65 0.403225 -2.2725 0
M  V30 66562 C 6366.62 1.03355 -1.30027 0
M  V30 66563 O 6367.8 1.05615 -1.58903 0
M  V30 66564 C 6364.94 1.50917 -3.10352 0
M  V30 66565 C 6364.05 0.898894 -4.22545 0
M  V30 66566 C 6363.19 1.97826 -4.92989 0
M  V30 66567 C 6362.23 1.34539 -5.97131 0
M  V30 66568 N 6361.36 2.36529 -6.61059 0
M  V30 66569 H 6366.2 -0.245248 -2.96989 0
M  V30 66570 H 6363.74 -0.132784 -1.46499 0
M  V30 66571 H 6365.7 2.16144 -3.56844 0
M  V30 66572 H 6364.33 2.12754 -2.42766 0
M  V30 66573 H 6363.38 0.135428 -3.80159 0
M  V30 66574 H 6364.69 0.39667 -4.9722 0
M  V30 66575 H 6363.85 2.70761 -5.42931 0
M  V30 66576 H 6362.59 2.51417 -4.17901 0
M  V30 66577 H 6361.59 0.601424 -5.46501 0
M  V30 66578 H 6362.82 0.817071 -6.74167 0
M  V30 66579 H 6360.76 2.89235 -5.88795 0
M  V30 66580 H 6360.68 1.91143 -7.31437 0
M  V30 66581 H 6361.95 3.09006 -7.15637 0
M  V30 66582 N 6366.18 1.56898 -0.148628 0
M  V30 66583 C 6367.14 2.15652 0.776339 0
M  V30 66584 C 6368.14 1.09871 1.17409 0
M  V30 66585 O 6369.33 1.35502 1.09475 0
M  V30 66586 C 6366.46 2.72095 2.05371 0
M  V30 66587 H 6367.65 2.98725 0.265222 0
M  V30 66588 H 6365.21 1.55974 0.100826 0
M  V30 66589 H 6365.94 1.92692 2.60845 0
M  V30 66590 H 6365.73 3.49486 1.7777 0
M  V30 66591 H 6367.22 3.17357 2.7143 0
M  V30 66592 N 6367.65 -0.125154 1.57102 0
M  V30 66593 C 6368.9 -0.83402 1.84527 0
M  V30 66594 C 6369.23 -1.80167 0.732805 0
M  V30 66595 O 6368.48 -1.93739 -0.27638 0
M  V30 66596 C 6368.78 -1.62338 3.18404 0
M  V30 66597 C 6368.45 -0.800573 4.43736 0
M  V30 66598 C 6367.11 -0.573649 4.77768 0
M  V30 66599 C 6369.46 -0.226631 5.20707 0
M  V30 66600 C 6366.79 0.23757 5.86219 0
M  V30 66601 C 6369.14 0.571745 6.30011 0
M  V30 66602 C 6367.81 0.809043 6.62579 0
M  V30 66603 H 6367.08 -0.30519 0.675234 0
M  V30 66604 H 6369.72 -0.0966593 1.91256 0
M  V30 66605 H 6368.03 -2.43148 3.07224 0
M  V30 66606 H 6369.73 -2.17571 3.36844 0
M  V30 66607 H 6366.32 -0.987526 4.17068 0
M  V30 66608 H 6370.5 -0.389177 4.94772 0
M  V30 66609 H 6365.76 0.430703 6.09881 0
M  V30 66610 H 6369.93 1.02349 6.88838 0
M  V30 66611 H 6367.56 1.43947 7.46447 0
M  V30 66612 N 6369.13 -1.52566 -0.395159 0
M  V30 66613 C 6370.07 -1.71646 -1.50375 0
M  V30 66614 C 6371.04 -0.564201 -1.52498 0
M  V30 66615 O 6372.23 -0.793258 -1.70996 0
M  V30 66616 C 6369.35 -1.76848 -2.88864 0
M  V30 66617 C 6368.4 -2.98537 -3.04594 0
M  V30 66618 S 6369.23 -4.5863 -2.7644 0
M  V30 66619 C 6370.39 -4.66638 -4.17132 0
M  V30 66620 H 6370.62 -2.65407 -1.33964 0
M  V30 66621 H 6368.16 -1.4278 -0.587639 0
M  V30 66622 H 6370.11 -1.80531 -3.68672 0
M  V30 66623 H 6368.77 -0.841909 -3.02607 0
M  V30 66624 H 6367.97 -2.987 -4.05948 0
M  V30 66625 H 6367.57 -2.92815 -2.32671 0
M  V30 66626 H 6369.86 -4.44874 -5.10973 0
M  V30 66627 H 6370.8 -5.68623 -4.21988 0
M  V30 66628 H 6371.21 -3.95536 -4.02755 0
M  V30 66629 N 6370.61 0.653238 -1.43424 0
M  V30 66630 C 6371.57 1.74797 -1.48252 0
M  V30 66631 C 6372.57 1.5655 -0.367234 0
M  V30 66632 O 6373.76 1.62448 -0.62898 0
M  V30 66633 C 6370.9 3.13668 -1.3351 0
M  V30 66634 H 6372.09 1.71897 -2.45747 0
M  V30 66635 H 6369.64 0.86489 -1.3019 0
M  V30 66636 H 6370.38 3.2218 -0.370231 0
M  V30 66637 H 6370.16 3.28318 -2.14359 0
M  V30 66638 H 6371.65 3.93497 -1.3982 0
M  V30 66639 N 6372.09 1.29955 0.891602 0
M  V30 66640 C 6373.34 1.1857 1.64526 0
M  V30 66641 C 6373.67 -0.260472 1.92445 0
M  V30 66642 O 6372.94 -1.18717 1.54066 0
M  V30 66643 C 6373.23 2.00785 2.98927 0
M  V30 66644 C 6373.08 3.53586 2.78023 0
M  V30 66645 C 6374.4 1.84052 3.99766 0
M  V30 66646 H 6371.52 0.432094 0.597046 0
M  V30 66647 H 6374.16 1.59516 1.03221 0
M  V30 66648 H 6372.31 1.65994 3.51253 0
M  V30 66649 H 6373.98 3.98402 2.32536 0
M  V30 66650 H 6372.22 3.78103 2.12652 0
M  V30 66651 H 6372.9 4.06394 3.73561 0
M  V30 66652 H 6375.37 2.14456 3.56578 0
M  V30 66653 H 6374.25 2.43914 4.91729 0
M  V30 66654 H 6374.51 0.797878 4.34841 0
M  V30 66655 N 6373.57 -1.10306 1.12563 0
M  V30 66656 C 6374.81 -1.83916 0.891876 0
M  V30 66657 C 6375.17 -1.83284 -0.571936 0
M  V30 66658 O 6376.37 -2.5246 -0.922908 0
M  V30 66659 C 6374.64 -3.26553 1.45252 0
M  V30 66660 S 6376.2 -4.17274 1.35749 0
M  V30 66661 H 6373.02 -0.634058 0.321701 0
M  V30 66662 H 6375.62 -1.32726 1.43541 0
M  V30 66663 H 6374.33 -3.24584 2.51145 0
M  V30 66664 H 6373.86 -3.82813 0.906534 0
M  V30 66665 H 6375.87 -4.95102 0.329855 0
M  V30 66666 N 6375.05 -0.917739 -1.28122 0
M  V30 66667 C 6376.29 -0.548839 -1.94089 0
M  V30 66668 C 6376.61 0.912627 -1.73004 0
M  V30 66669 O 6377.81 1.38986 -2.33228 0
M  V30 66670 C 6376.27 -0.930733 -3.47657 0
M  V30 66671 C 6375.88 -2.4122 -3.77514 0
M  V30 66672 C 6377.62 -0.632609 -4.1976 0
M  V30 66673 C 6375.53 -2.73401 -5.2441 0
M  V30 66674 H 6374.46 -0.201538 -0.726566 0
M  V30 66675 H 6377.11 -1.1172 -1.45571 0
M  V30 66676 H 6375.49 -0.291121 -3.94928 0
M  V30 66677 H 6376.67 -3.09888 -3.41037 0
M  V30 66678 H 6374.98 -2.68119 -3.18592 0
M  V30 66679 H 6377.58 -0.849666 -5.27906 0
M  V30 66680 H 6377.92 0.429763 -4.14076 0
M  V30 66681 H 6378.45 -1.23087 -3.78278 0
M  V30 66682 H 6375.19 -3.78508 -5.35175 0
M  V30 66683 H 6374.71 -2.09374 -5.6207 0
M  V30 66684 H 6376.39 -2.60616 -5.92189 0
M  V30 66685 N 6376.52 1.42072 -0.682152 0
M  V30 66686 C 6377.43 2.34598 -0.00853473 0
M  V30 66687 C 6378.45 1.55497 0.780819 0
M  V30 66688 O 6379.63 1.88034 0.721458 0
M  V30 66689 C 6376.69 3.34106 0.925967 0
M  V30 66690 C 6375.75 4.29102 0.130324 0
M  V30 66691 C 6374.98 5.23856 1.02032 0
M  V30 66692 O 6375.21 5.23724 2.25986 0
M  V30 66693 O 6374.14 6.00006 0.477179 0
M  V30 66694 H 6377.97 2.93753 -0.770882 0
M  V30 66695 H 6375.55 1.42699 -0.442418 0
M  V30 66696 H 6377.43 3.95218 1.46222 0
M  V30 66697 H 6376.11 2.77413 1.66804 0
M  V30 66698 H 6375.02 3.71381 -0.450213 0
M  V30 66699 H 6376.35 4.88856 -0.572791 0
M  V30 66700 N 6378 0.425977 1.51734 0
M  V30 66701 C 6379.23 -0.143279 2.06403 0
M  V30 66702 C 6379.64 -1.37434 1.2945 0
M  V30 66703 O 6379 -1.79094 0.350921 0
M  V30 66704 C 6379.05 -0.476891 3.58341 0
M  V30 66705 O 6378.77 0.7053 4.32385 0
M  V30 66706 C 6380.27 -1.09805 4.29485 0
M  V30 66707 H 6377.49 -0.0129533 0.670875 0
M  V30 66708 H 6380.04 0.601787 1.95445 0
M  V30 66709 H 6378.19 -1.17185 3.69251 0
M  V30 66710 H 6378.61 0.422783 5.22793 0
M  V30 66711 H 6380.08 -1.28157 5.36917 0
M  V30 66712 H 6380.56 -2.07592 3.87043 0
M  V30 66713 H 6381.16 -0.442808 4.22989 0
M  V30 66714 N 6379.48 -1.56817 0.156946 0
M  V30 66715 C 6380.44 -2.1606 -0.764891 0
M  V30 66716 C 6381.44 -1.10492 -1.16825 0
M  V30 66717 O 6382.63 -1.36081 -1.08755 0
M  V30 66718 C 6379.76 -2.7318 -2.03925 0
M  V30 66719 H 6380.96 -2.98861 -0.249377 0
M  V30 66720 H 6378.51 -1.56026 -0.0925526 0
M  V30 66721 H 6379.25 -1.94073 -2.5982 0
M  V30 66722 H 6379.03 -3.50424 -1.75914 0
M  V30 66723 H 6380.52 -3.18792 -2.69743 0
M  V30 66724 N 6380.96 0.116821 -1.57166 0
M  V30 66725 C 6381.9 1.14318 -2.005 0
M  V30 66726 C 6382.87 1.41028 -0.877515 0
M  V30 66727 O 6384.06 1.52857 -1.1419 0
M  V30 66728 C 6381.2 2.46401 -2.41621 0
M  V30 66729 C 6380.31 2.26608 -3.67795 0
M  V30 66730 C 6379.45 3.51937 -3.97887 0
M  V30 66731 C 6378.49 3.27311 -5.17237 0
M  V30 66732 N 6377.62 4.44848 -5.43189 0
M  V30 66733 H 6382.46 0.766656 -2.87969 0
M  V30 66734 H 6380 0.367056 -1.42447 0
M  V30 66735 H 6381.96 3.23456 -2.635 0
M  V30 66736 H 6380.59 2.81942 -1.5719 0
M  V30 66737 H 6379.64 1.4046 -3.53518 0
M  V30 66738 H 6380.95 2.04389 -4.55002 0
M  V30 66739 H 6380.11 4.37409 -4.20426 0
M  V30 66740 H 6378.85 3.77189 -3.0916 0
M  V30 66741 H 6377.85 2.40229 -4.9454 0
M  V30 66742 H 6379.08 3.03427 -6.07544 0
M  V30 66743 H 6377.02 4.70217 -4.57419 0
M  V30 66744 H 6376.94 4.25742 -6.24724 0
M  V30 66745 H 6378.21 5.31447 -5.70249 0
M  V30 66746 N 6382.44 1.52773 0.387063 0
M  V30 66747 C 6383.85 1.42067 0.727266 0
M  V30 66748 C 6384.05 0.542627 1.94056 0
M  V30 66749 O 6383.11 0.0168155 2.52494 0
M  V30 66750 C 6384.42 2.84945 0.960551 0
M  V30 66751 C 6385.97 2.94436 1.0619 0
M  V30 66752 C 6386.44 4.3833 1.3278 0
M  V30 66753 N 6387.93 4.41664 1.39598 0
M  V30 66754 C 6388.67 5.50086 1.61841 0
M  V30 66755 N 6388.17 6.68591 1.81542 0
M  V30 66756 N 6389.96 5.37632 1.64036 0
M  V30 66757 H 6382.11 2.0838 -0.411275 0
M  V30 66758 H 6384.37 0.94014 -0.121825 0
M  V30 66759 H 6384.08 3.51417 0.141123 0
M  V30 66760 H 6383.95 3.27316 1.87468 0
M  V30 66761 H 6386.34 2.28132 1.8719 0
M  V30 66762 H 6386.42 2.55491 0.125641 0
M  V30 66763 H 6386.06 5.05201 0.522903 0
M  V30 66764 H 6385.99 4.74829 2.27694 0
M  V30 66765 H 6388.49 3.5625 1.26073 0
M  V30 66766 H 6388.8 7.46997 1.98027 0
M  V30 66767 H 6387.14 6.71617 1.78763 0
M  V30 66768 H 6390.33 4.44021 1.48198 0
M  V30 66769 H 6390.51 6.22199 1.81031 0
M  V30 66770 N 6383.91 -0.645623 1.43769 0
M  V30 66771 C 6385.14 -1.4309 1.49026 0
M  V30 66772 C 6385.55 -1.88885 0.109138 0
M  V30 66773 O 6384.89 -1.60566 -0.892424 0
M  V30 66774 C 6384.96 -2.69391 2.38051 0
M  V30 66775 C 6384.62 -2.45487 3.85467 0
M  V30 66776 C 6385.62 -2.08228 4.76379 0
M  V30 66777 C 6383.3 -2.59576 4.3003 0
M  V30 66778 C 6385.3 -1.85367 6.09851 0
M  V30 66779 C 6382.98 -2.36329 5.63553 0
M  V30 66780 C 6383.98 -1.99281 6.53281 0
M  V30 66781 O 6383.67 -1.76282 7.84334 0
M  V30 66782 H 6383.4 -0.445785 0.508185 0
M  V30 66783 H 6385.96 -0.798125 1.89259 0
M  V30 66784 H 6384.19 -3.35255 1.92719 0
M  V30 66785 H 6385.87 -3.31361 2.34425 0
M  V30 66786 H 6386.64 -1.96913 4.43227 0
M  V30 66787 H 6382.52 -2.87386 3.60458 0
M  V30 66788 H 6386.06 -1.56374 6.79848 0
M  V30 66789 H 6381.96 -2.4725 5.9627 0
M  V30 66790 H 6382.73 -1.90646 7.95988 0
M  V30 66791 N 6385.39 -1.30426 -0.884698 0
M  V30 66792 C 6386.34 -1.16738 -2.01184 0
M  V30 66793 C 6387.33 -0.0792034 -1.69215 0
M  V30 66794 O 6388.54 -0.240073 -1.78392 0
M  V30 66795 H 6384.92 -0.361038 -0.659663 0
M  V30 66796 H 6386.89 -2.12132 -2.09864 0
M  V30 66797 C 6385.64 -0.876291 -3.36476 0
M  V30 66798 H 6384.96 -1.7057 -3.61588 0
M  V30 66799 H 6386.4 -0.820623 -4.15983 0
M  V30 66800 C 6384.86 0.42079 -3.34262 0
M  V30 66801 O 6385.39 1.44222 -3.74917 0
M  V30 66802 N 6383.59 0.432048 -2.8737 0
M  V30 66803 H 6383.14 -0.399649 -2.54481 0
M  V30 66804 H 6383.1 1.29985 -2.86271 0
M  V30 66805 N 6386.87 1.09707 -1.13146 0
M  V30 66806 C 6387.8 2.18298 -0.828738 0
M  V30 66807 C 6388.78 1.6879 0.210673 0
M  V30 66808 O 6389.97 1.94073 0.0702295 0
M  V30 66809 C 6387.1 3.4608 -0.290796 0
M  V30 66810 C 6386.05 4.08906 -1.26413 0
M  V30 66811 C 6385.38 5.31478 -0.586074 0
M  V30 66812 C 6386.68 4.51742 -2.62158 0
M  V30 66813 H 6388.37 2.43879 -1.73676 0
M  V30 66814 H 6385.92 1.17213 -0.83649 0
M  V30 66815 H 6387.87 4.21347 -0.066699 0
M  V30 66816 H 6386.59 3.20014 0.652603 0
M  V30 66817 H 6385.25 3.35655 -1.47416 0
M  V30 66818 H 6384.9 5.01691 0.362707 0
M  V30 66819 H 6384.6 5.74466 -1.23542 0
M  V30 66820 H 6386.12 6.09471 -0.371191 0
M  V30 66821 H 6387.54 5.18247 -2.45139 0
M  V30 66822 H 6385.94 5.05604 -3.23241 0
M  V30 66823 H 6387.01 3.64286 -3.20038 0
M  V30 66824 N 6388.35 0.924521 1.27634 0
M  V30 66825 C 6389.63 0.481809 1.89573 0
M  V30 66826 C 6390.01 -1.03995 1.83707 0
M  V30 66827 O 6389.35 -1.89273 1.28016 0
M  V30 66828 C 6389.56 1.02431 3.3363 0
M  V30 66829 C 6390.91 1.08288 4.10559 0
M  V30 66830 O 6391.94 0.97371 3.42633 0
M  V30 66831 O 6390.79 1.25061 5.31998 0
M  V30 66832 H 6387.89 0.154468 0.812446 0
M  V30 66833 H 6390.43 1.016 1.35924 0
M  V30 66834 H 6389.21 2.06819 3.32177 0
M  V30 66835 H 6388.83 0.471574 3.94794 0
M  V30 66836 N 6389.83 -1.41708 0.689677 0
M  V30 66837 C 6391.1 -1.95051 0.146448 0
M  V30 66838 C 6391.48 -1.62936 -1.3422 0
M  V30 66839 O 6390.83 -0.933271 -2.08572 0
M  V30 66840 C 6391.04 -3.46323 0.431448 0
M  V30 66841 C 6392.39 -4.23105 0.355996 0
M  V30 66842 O 6393.41 -3.54314 0.36603 0
M  V30 66843 O 6392.27 -5.45614 0.311016 0
M  V30 66844 H 6389.37 -0.82692 0.0115291 0
M  V30 66845 H 6391.91 -1.51457 0.765432 0
M  V30 66846 H 6390.68 -3.62958 1.46209 0
M  V30 66847 H 6390.31 -3.96997 -0.218803 0
M  V30 66848 N 6391.3 -0.434018 -1.51506 0
M  V30 66849 C 6392.53 0.132139 -2.06177 0
M  V30 66850 C 6392.94 1.37296 -1.30178 0
M  V30 66851 O 6392.29 1.80261 -0.353775 0
M  V30 66852 C 6392.35 0.523016 -3.55675 0
M  V30 66853 C 6392.01 -0.610538 -4.52903 0
M  V30 66854 C 6393.01 -1.48167 -4.9834 0
M  V30 66855 C 6390.69 -0.790324 -4.96044 0
M  V30 66856 C 6392.69 -2.51732 -5.85585 0
M  V30 66857 C 6390.37 -1.82925 -5.8308 0
M  V30 66858 C 6391.37 -2.69113 -6.27748 0
M  V30 66859 O 6391.06 -3.71223 -7.13056 0
M  V30 66860 H 6390.79 0.0128449 -0.675878 0
M  V30 66861 H 6393.35 -0.610917 -1.96104 0
M  V30 66862 H 6391.58 1.31873 -3.6352 0
M  V30 66863 H 6393.27 1.01995 -3.92876 0
M  V30 66864 H 6394.03 -1.35429 -4.65708 0
M  V30 66865 H 6389.91 -0.129052 -4.60819 0
M  V30 66866 H 6393.45 -3.19038 -6.20371 0
M  V30 66867 H 6389.35 -1.95684 -6.15124 0
M  V30 66868 H 6390.12 -3.67764 -7.31226 0
M  V30 66869 N 6392.78 1.56731 -0.165261 0
M  V30 66870 C 6394.2 1.58453 0.190975 0
M  V30 66871 C 6394.4 1.18036 1.63309 0
M  V30 66872 O 6393.45 0.889139 2.36327 0
M  V30 66873 C 6394.77 3.00582 -0.0843471 0
M  V30 66874 C 6396.32 3.12992 -0.0220786 0
M  V30 66875 C 6396.79 4.57202 -0.27031 0
M  V30 66876 N 6398.28 4.62687 -0.217873 0
M  V30 66877 C 6399.02 5.72111 -0.384199 0
M  V30 66878 N 6398.51 6.90116 -0.60925 0
M  V30 66879 N 6400.31 5.61185 -0.320526 0
M  V30 66880 H 6392.46 1.81292 -1.10666 0
M  V30 66881 H 6394.72 0.83997 -0.439493 0
M  V30 66882 H 6394.43 3.34607 -1.08311 0
M  V30 66883 H 6394.3 3.71956 0.6268 0
M  V30 66884 H 6396.69 2.78798 0.96726 0
M  V30 66885 H 6396.77 2.44067 -0.765841 0
M  V30 66886 H 6396.41 4.92104 -1.25683 0
M  V30 66887 H 6396.34 5.24278 0.493993 0
M  V30 66888 H 6398.83 3.77868 -0.0493294 0
M  V30 66889 H 6399.15 7.69384 -0.725778 0
M  V30 66890 H 6397.49 6.91993 -0.645792 0
M  V30 66891 H 6400.68 4.67874 -0.14534 0
M  V30 66892 H 6400.85 6.46411 -0.453578 0
M  V30 66893 N 6394.26 -0.108484 1.57226 0
M  V30 66894 C 6395.49 -0.828307 1.89596 0
M  V30 66895 C 6395.9 -1.72933 0.757604 0
M  V30 66896 O 6395.26 -1.80475 -0.271089 0
M  V30 66897 C 6395.31 -1.65292 3.21498 0
M  V30 66898 O 6395.03 -0.788163 4.30952 0
M  V30 66899 C 6396.53 -2.47698 3.67642 0
M  V30 66900 H 6393.75 -0.237562 0.627539 0
M  V30 66901 H 6396.3 -0.0897257 2.04303 0
M  V30 66902 H 6394.45 -2.34415 3.08429 0
M  V30 66903 H 6394.87 -1.35796 5.06616 0
M  V30 66904 H 6396.34 -3.01072 4.62666 0
M  V30 66905 H 6396.82 -3.25545 2.94817 0
M  V30 66906 H 6397.42 -1.83799 3.83534 0
M  V30 66907 N 6395.74 -1.52976 -0.378955 0
M  V30 66908 C 6397.15 -1.60342 -0.95642 0
M  V30 66909 C 6397.5 -0.462489 -1.90671 0
M  V30 66910 O 6396.63 0.413019 -2.12422 0
M  V30 66911 C 6397.22 -2.90621 -1.74141 0
M  V30 66912 C 6395.78 -3.00366 -2.26842 0
M  V30 66913 C 6394.93 -2.55536 -1.07688 0
M  V30 66914 H 6397.88 -1.5791 -0.158173 0
M  V30 66915 H 6397.9 -2.77672 -2.60151 0
M  V30 66916 H 6397.41 -3.7364 -1.04952 0
M  V30 66917 H 6395.51 -2.21906 -2.99314 0
M  V30 66918 H 6395.62 -4.05197 -2.5564 0
M  V30 66919 H 6393.99 -2.10093 -1.4399 0
M  V30 66920 H 6394.77 -3.4096 -0.400177 0
M  V30 66921 N 6397.22 0.637989 -1.44109 0
M  V30 66922 C 6398.46 1.39974 -1.46748 0
M  V30 66923 C 6398.8 1.93957 -0.0970968 0
M  V30 66924 O 6398.07 1.73235 0.884297 0
M  V30 66925 C 6398.35 2.57006 -2.5223 0
M  V30 66926 C 6398.21 2.08417 -3.98601 0
M  V30 66927 C 6399.53 3.59203 -2.54286 0
M  V30 66928 H 6396.64 0.507616 -0.534317 0
M  V30 66929 H 6399.29 0.721966 -1.75749 0
M  V30 66930 H 6397.44 3.14827 -2.27631 0
M  V30 66931 H 6399.11 1.55479 -4.34309 0
M  V30 66932 H 6397.35 1.39657 -4.10705 0
M  V30 66933 H 6398.02 2.92643 -4.68043 0
M  V30 66934 H 6400.5 3.11169 -2.76248 0
M  V30 66935 H 6399.37 4.3862 -3.30006 0
M  V30 66936 H 6399.64 4.12815 -1.58228 0
M  V30 66937 N 6398.69 1.30893 0.877769 0
M  V30 66938 C 6399.94 1.20131 1.63018 0
M  V30 66939 C 6400.27 -0.242347 1.92984 0
M  V30 66940 O 6399.52 -1.1889 1.55447 0
M  V30 66941 C 6399.82 1.98272 2.9736 0
M  V30 66942 C 6399.49 3.47835 2.86918 0
M  V30 66943 C 6398.15 3.88618 2.83777 0
M  V30 66944 C 6400.5 4.43045 2.74519 0
M  V30 66945 C 6397.83 5.22891 2.66085 0
M  V30 66946 C 6400.18 5.77434 2.58366 0
M  V30 66947 C 6398.85 6.17448 2.53603 0
M  V30 66948 H 6398.12 0.43959 0.596525 0
M  V30 66949 H 6400.76 1.62074 1.02001 0
M  V30 66950 H 6399.07 1.48985 3.62368 0
M  V30 66951 H 6400.77 1.87331 3.54553 0
M  V30 66952 H 6397.36 3.1543 2.90175 0
M  V30 66953 H 6401.54 4.12473 2.76007 0
M  V30 66954 H 6396.8 5.52977 2.60818 0
M  V30 66955 H 6400.97 6.50841 2.47747 0
M  V30 66956 H 6398.6 7.21436 2.39654 0
M  V30 66957 N 6400.17 -1.09106 1.13726 0
M  V30 66958 C 6401.42 -1.80722 0.895682 0
M  V30 66959 C 6401.74 -1.86814 -0.57966 0
M  V30 66960 O 6402.94 -2.54772 -0.938279 0
M  V30 66961 C 6401.4 -3.24674 1.55289 0
M  V30 66962 C 6401.01 -3.26839 3.06399 0
M  V30 66963 C 6402.75 -4.01023 1.39214 0
M  V30 66964 C 6400.66 -4.65334 3.6499 0
M  V30 66965 H 6399.59 -0.677245 0.331444 0
M  V30 66966 H 6402.24 -1.22598 1.36536 0
M  V30 66967 H 6400.62 -3.8288 1.01089 0
M  V30 66968 H 6401.79 -2.7838 3.67208 0
M  V30 66969 H 6400.11 -2.63981 3.22029 0
M  V30 66970 H 6402.71 -5.0335 1.80397 0
M  V30 66971 H 6403.05 -4.14931 0.337382 0
M  V30 66972 H 6403.58 -3.49268 1.90412 0
M  V30 66973 H 6400.32 -4.56629 4.70287 0
M  V30 66974 H 6399.84 -5.14104 3.08961 0
M  V30 66975 H 6401.52 -5.34309 3.6486 0
M  V30 66976 N 6401.65 -0.931276 -1.27142 0
M  V30 66977 C 6402.9 -0.573595 -1.94206 0
M  V30 66978 C 6403.23 0.885736 -1.73162 0
M  V30 66979 O 6402.48 1.64762 -1.05603 0
M  V30 66980 C 6402.78 -0.850203 -3.4714 0
M  V30 66981 C 6402.45 -2.29184 -3.88311 0
M  V30 66982 C 6401.11 -2.68595 -3.99262 0
M  V30 66983 C 6403.46 -3.22917 -4.09114 0
M  V30 66984 C 6400.79 -4.00856 -4.28406 0
M  V30 66985 C 6403.14 -4.54763 -4.39743 0
M  V30 66986 C 6401.8 -4.94003 -4.48907 0
M  V30 66987 H 6401.07 -0.209893 -0.710652 0
M  V30 66988 H 6403.72 -1.17592 -1.51144 0
M  V30 66989 H 6402.03 -0.165244 -3.91451 0
M  V30 66990 H 6403.72 -0.552373 -3.97177 0
M  V30 66991 H 6400.31 -1.9761 -3.80327 0
M  V30 66992 H 6404.5 -2.9367 -4.0009 0
M  V30 66993 H 6399.75 -4.30935 -4.33711 0
M  V30 66994 H 6403.93 -5.27393 -4.54786 0
M  V30 66995 H 6401.55 -5.96518 -4.71244 0
M  V30 66996 N 6403.13 1.4134 -0.697182 0
M  V30 66997 C 6404.04 2.34576 -0.0334166 0
M  V30 66998 C 6405.06 1.56316 0.764282 0
M  V30 66999 O 6406.23 1.88789 0.701473 0
M  V30 67000 C 6403.3 3.35069 0.890479 0
M  V30 67001 C 6402.36 4.29216 0.0848047 0
M  V30 67002 C 6401.59 5.24909 0.964697 0
M  V30 67003 O 6401.81 5.26091 2.20418 0
M  V30 67004 O 6400.75 6.00478 0.413513 0
M  V30 67005 H 6404.57 2.92919 -0.801995 0
M  V30 67006 H 6402.16 1.42222 -0.457528 0
M  V30 67007 H 6404.04 3.96746 1.42022 0
M  V30 67008 H 6402.72 2.79167 1.63852 0
M  V30 67009 H 6401.62 3.70883 -0.489577 0
M  V30 67010 H 6402.96 4.88221 -0.624609 0
M  V30 67011 N 6404.61 0.442047 1.51274 0
M  V30 67012 C 6406.02 0.0945887 1.59319 0
M  V30 67013 C 6406.22 -1.39648 1.45261 0
M  V30 67014 O 6405.28 -2.16689 1.29624 0
M  V30 67015 C 6406.59 0.618899 2.94262 0
M  V30 67016 C 6408.14 0.579754 3.07584 0
M  V30 67017 C 6408.62 1.08112 4.45057 0
M  V30 67018 N 6410.11 1.0393 4.5139 0
M  V30 67019 C 6410.84 1.39805 5.56095 0
M  V30 67020 N 6410.34 1.82989 6.68197 0
M  V30 67021 N 6412.13 1.31592 5.4648 0
M  V30 67022 H 6404.28 1.41215 1.58657 0
M  V30 67023 H 6406.54 0.582209 0.748156 0
M  V30 67024 H 6406.25 1.66233 3.09935 0
M  V30 67025 H 6406.12 0.0463977 3.77171 0
M  V30 67026 H 6408.51 -0.454698 2.91576 0
M  V30 67027 H 6408.59 1.18871 2.26502 0
M  V30 67028 H 6408.24 2.11406 4.61812 0
M  V30 67029 H 6408.17 0.44865 5.24685 0
M  V30 67030 H 6410.66 0.722234 3.70934 0
M  V30 67031 H 6410.97 2.08587 7.44118 0
M  V30 67032 H 6409.32 1.86919 6.69392 0
M  V30 67033 H 6412.51 0.977178 4.57787 0
M  V30 67034 H 6412.68 1.59879 6.27967 0
M  V30 67035 N 6406.09 -1.56641 0.17357 0
M  V30 67036 C 6407.02 -2.21079 -0.751431 0
M  V30 67037 C 6408 -1.1671 -1.23744 0
M  V30 67038 O 6409.18 -1.45147 -1.2902 0
M  V30 67039 C 6406.31 -2.8533 -1.98 0
M  V30 67040 C 6405.27 -3.95756 -1.62975 0
M  V30 67041 C 6404.59 -4.47068 -2.93316 0
M  V30 67042 C 6405.89 -5.15237 -0.85605 0
M  V30 67043 H 6407.59 -2.98632 -0.214315 0
M  V30 67044 H 6405.13 -1.43641 -0.101641 0
M  V30 67045 H 6407.08 -3.29084 -2.63214 0
M  V30 67046 H 6405.81 -2.05149 -2.54129 0
M  V30 67047 H 6404.47 -3.52661 -1.00129 0
M  V30 67048 H 6404.12 -3.63675 -3.4749 0
M  V30 67049 H 6403.82 -5.21566 -2.70634 0
M  V30 67050 H 6405.34 -4.9351 -3.59556 0
M  V30 67051 H 6406.75 -5.55669 -1.41083 0
M  V30 67052 H 6405.15 -5.95666 -0.72818 0
M  V30 67053 H 6406.22 -4.84677 0.147179 0
M  V30 67054 N 6407.56 0.100145 -1.57281 0
M  V30 67055 C 6408.8 0.810231 -1.87656 0
M  V30 67056 C 6409.17 1.76148 -0.763938 0
M  V30 67057 O 6410.37 2.51454 -0.949956 0
M  V30 67058 C 6408.64 1.5242 -3.23269 0
M  V30 67059 S 6410.2 2.27327 -3.75324 0
M  V30 67060 H 6407.02 0.270042 -0.657722 0
M  V30 67061 H 6409.62 0.0676031 -1.95383 0
M  V30 67062 H 6408.32 0.817698 -4.02171 0
M  V30 67063 H 6407.85 2.30683 -3.18667 0
M  V30 67064 H 6409.87 3.53379 -3.48335 0
M  V30 67065 N 6409.04 1.53175 0.370837 0
M  V30 67066 C 6410.27 1.73308 1.13925 0
M  V30 67067 C 6410.69 0.458559 1.82425 0
M  V30 67068 O 6410.05 -0.587033 1.71533 0
M  V30 67069 C 6410.1 2.89552 2.14923 0
M  V30 67070 O 6409.2 2.57793 3.21895 0
M  V30 67071 H 6408.54 0.575726 0.33081 0
M  V30 67072 H 6411.07 2.0004 0.42957 0
M  V30 67073 H 6411.08 3.15568 2.58614 0
M  V30 67074 H 6409.76 3.82003 1.64457 0
M  V30 67075 H 6408.33 2.42578 2.83214 0
M  V30 67076 N 6410.52 -0.630338 1.44445 0
M  V30 67077 C 6411.77 -1.38586 1.4655 0
M  V30 67078 C 6412.08 -1.95332 0.102296 0
M  V30 67079 O 6413.29 -2.715 0.000875581 0
M  V30 67080 C 6411.74 -2.5092 2.58007 0
M  V30 67081 C 6411.35 -2.00683 4.00538 0
M  V30 67082 C 6413.1 -3.28116 2.69332 0
M  V30 67083 C 6411 -3.10364 5.03417 0
M  V30 67084 H 6409.93 -0.520797 0.54524 0
M  V30 67085 H 6412.58 -0.678038 1.70514 0
M  V30 67086 H 6410.97 -3.2428 2.27285 0
M  V30 67087 H 6412.14 -1.34182 4.40831 0
M  V30 67088 H 6410.45 -1.36299 3.93461 0
M  V30 67089 H 6413.05 -4.09882 3.43367 0
M  V30 67090 H 6413.39 -3.77649 1.75177 0
M  V30 67091 H 6413.93 -2.61846 2.99468 0
M  V30 67092 H 6410.67 -2.65774 5.99203 0
M  V30 67093 H 6410.19 -3.75503 4.67715 0
M  V30 67094 H 6411.87 -3.75126 5.27152 0
M  V30 67095 N 6412 -1.31357 -0.870815 0
M  V30 67096 C 6413.25 -1.20354 -1.61858 0
M  V30 67097 C 6413.56 0.237305 -1.94155 0
M  V30 67098 O 6414.77 0.469017 -2.67418 0
M  V30 67099 C 6413.22 -2.10687 -2.91786 0
M  V30 67100 C 6412.83 -3.59762 -2.66975 0
M  V30 67101 C 6414.57 -2.08482 -3.69778 0
M  V30 67102 C 6412.48 -4.42106 -3.92805 0
M  V30 67103 H 6411.41 -0.446879 -0.607302 0
M  V30 67104 H 6414.06 -1.56206 -0.96291 0
M  V30 67105 H 6412.44 -1.67732 -3.58723 0
M  V30 67106 H 6413.62 -4.10956 -2.08451 0
M  V30 67107 H 6411.93 -3.63935 -2.02338 0
M  V30 67108 H 6414.53 -2.67248 -4.63123 0
M  V30 67109 H 6414.87 -1.07175 -4.02268 0
M  V30 67110 H 6415.41 -2.49632 -3.09724 0
M  V30 67111 H 6412.14 -5.44164 -3.65466 0
M  V30 67112 H 6411.66 -3.9567 -4.50783 0
M  V30 67113 H 6413.34 -4.54276 -4.60698 0
M  V30 67114 N 6413.48 1.08501 -1.14303 0
M  V30 67115 C 6414.71 1.84344 -0.93278 0
M  V30 67116 C 6415.11 1.81854 0.522074 0
M  V30 67117 O 6414.46 1.21987 1.37349 0
M  V30 67118 C 6414.52 3.3299 -1.35492 0
M  V30 67119 C 6414.18 3.59216 -2.82512 0
M  V30 67120 C 6415.18 3.54141 -3.80631 0
M  V30 67121 C 6412.86 3.87258 -3.19901 0
M  V30 67122 C 6414.86 3.76736 -5.14149 0
M  V30 67123 C 6412.55 4.09506 -4.53594 0
M  V30 67124 C 6413.54 4.04239 -5.50527 0
M  V30 67125 O 6413.23 4.25904 -6.81807 0
M  V30 67126 H 6412.96 0.588838 -0.332033 0
M  V30 67127 H 6415.52 1.37946 -1.52184 0
M  V30 67128 H 6413.75 3.80142 -0.709174 0
M  V30 67129 H 6415.44 3.90267 -1.11562 0
M  V30 67130 H 6416.2 3.32493 -3.53092 0
M  V30 67131 H 6412.08 3.90478 -2.45047 0
M  V30 67132 H 6415.63 3.7254 -5.89796 0
M  V30 67133 H 6411.52 4.30638 -4.80855 0
M  V30 67134 H 6412.29 4.43315 -6.88051 0
M  V30 67135 N 6414.95 0.938006 1.26646 0
M  V30 67136 C 6416.37 0.627004 1.75857 0
M  V30 67137 C 6416.72 -0.857831 1.76453 0
M  V30 67138 O 6415.84 -1.67133 1.37461 0
M  V30 67139 C 6416.44 1.13142 3.1935 0
M  V30 67140 C 6415 0.870898 3.66186 0
M  V30 67141 C 6414.14 1.28418 2.45772 0
M  V30 67142 H 6417.09 1.11666 1.12767 0
M  V30 67143 H 6417.11 0.483792 3.77412 0
M  V30 67144 H 6416.63 2.21212 3.18883 0
M  V30 67145 H 6414.73 -0.195557 3.72086 0
M  V30 67146 H 6414.84 1.49568 4.55155 0
M  V30 67147 H 6413.2 0.702633 2.44817 0
M  V30 67148 H 6413.99 2.37374 2.48009 0
M  V30 67149 N 6416.43 -1.40969 0.704668 0
M  V30 67150 C 6417.34 -2.34555 0.0458562 0
M  V30 67151 C 6418.36 -1.56719 -0.755982 0
M  V30 67152 O 6419.53 -1.89158 -0.691452 0
M  V30 67153 C 6416.6 -3.35537 -0.872697 0
M  V30 67154 C 6415.66 -4.29255 -0.0620411 0
M  V30 67155 C 6414.89 -5.25413 -0.936846 0
M  V30 67156 O 6415.12 -5.27253 -2.17625 0
M  V30 67157 O 6414.05 -6.00689 -0.381663 0
M  V30 67158 H 6417.88 -2.9249 0.817518 0
M  V30 67159 H 6415.46 -1.41977 0.465064 0
M  V30 67160 H 6417.34 -3.97494 -1.39916 0
M  V30 67161 H 6416.02 -2.80032 -1.62369 0
M  V30 67162 H 6414.93 -3.70618 0.509239 0
M  V30 67163 H 6416.26 -4.87883 0.650492 0
M  V30 67164 N 6417.91 -0.450063 -1.51037 0
M  V30 67165 C 6418.82 0.360775 -2.31809 0
M  V30 67166 C 6419.84 1.0158 -1.41271 0
M  V30 67167 O 6421.01 1.00839 -1.74337 0
M  V30 67168 C 6418.08 1.44023 -3.1537 0
M  V30 67169 C 6417.14 0.804008 -4.21704 0
M  V30 67170 C 6416.37 1.83203 -5.01271 0
M  V30 67171 O 6416.59 3.05592 -4.81632 0
M  V30 67172 O 6415.53 1.4155 -5.85019 0
M  V30 67173 H 6419.35 -0.298976 -3.02225 0
M  V30 67174 H 6416.94 -0.212329 -1.47883 0
M  V30 67175 H 6418.82 2.06598 -3.67281 0
M  V30 67176 H 6417.5 2.08384 -2.47705 0
M  V30 67177 H 6416.4 0.139865 -3.73838 0
M  V30 67178 H 6417.74 0.203692 -4.91778 0
M  V30 67179 N 6419.39 1.56547 -0.181875 0
M  V30 67180 C 6420.34 2.19797 0.761069 0
M  V30 67181 C 6421.33 1.16514 1.22967 0
M  V30 67182 O 6422.54 1.34689 1.1941 0
M  V30 67183 H 6418.91 0.704233 0.263741 0
M  V30 67184 H 6420.88 2.97703 0.203766 0
M  V30 67185 C 6419.63 2.86115 1.9757 0
M  V30 67186 H 6418.95 3.65323 1.62416 0
M  V30 67187 H 6420.39 3.33825 2.61413 0
M  V30 67188 C 6418.85 1.86445 2.80606 0
M  V30 67189 O 6419.38 1.35648 3.78104 0
M  V30 67190 N 6417.59 1.54967 2.45832 0
M  V30 67191 H 6417.14 1.96468 1.66608 0
M  V30 67192 H 6417.09 0.885337 3.01677 0
M  V30 67193 N 6420.87 -0.0918024 1.57332 0
M  V30 67194 C 6421.78 -1.12943 2.05624 0
M  V30 67195 C 6422.79 -1.43656 0.981779 0
M  V30 67196 O 6423.97 -1.54232 1.29516 0
M  V30 67197 C 6421.03 -2.42909 2.47378 0
M  V30 67198 C 6420.09 -2.19348 3.69032 0
M  V30 67199 C 6419.33 -3.43118 4.08786 0
M  V30 67200 O 6419.55 -4.5148 3.486 0
M  V30 67201 O 6418.48 -3.32511 5.01717 0
M  V30 67202 H 6422.31 -0.749256 2.94312 0
M  V30 67203 H 6419.9 -0.304544 1.46263 0
M  V30 67204 H 6421.78 -3.19433 2.74847 0
M  V30 67205 H 6420.45 -2.80346 1.61826 0
M  V30 67206 H 6419.36 -1.40595 3.46675 0
M  V30 67207 H 6420.69 -1.86802 4.55374 0
M  V30 67208 N 6422.34 -1.53369 -0.362709 0
M  V30 67209 C 6423.59 -1.69942 -1.10668 0
M  V30 67210 C 6423.92 -0.451368 -1.88882 0
M  V30 67211 O 6423.2 0.551386 -1.86521 0
M  V30 67212 C 6423.48 -2.95108 -2.06357 0
M  V30 67213 C 6423.33 -4.30077 -1.31733 0
M  V30 67214 C 6424.65 -3.15883 -3.06441 0
M  V30 67215 H 6421.77 -0.618394 -0.400947 0
M  V30 67216 H 6424.41 -1.86013 -0.3872 0
M  V30 67217 H 6422.56 -2.81538 -2.6771 0
M  V30 67218 H 6424.24 -4.55465 -0.731414 0
M  V30 67219 H 6422.48 -4.29358 -0.619196 0
M  V30 67220 H 6423.15 -5.13796 -2.01785 0
M  V30 67221 H 6425.63 -3.28658 -2.55192 0
M  V30 67222 H 6424.5 -4.04891 -3.70614 0
M  V30 67223 H 6424.76 -2.31295 -3.76769 0
M  V30 67224 N 6423.82 0.622669 -1.44778 0
M  V30 67225 C 6425.05 1.40905 -1.51503 0
M  V30 67226 C 6425.47 1.8826 -0.142645 0
M  V30 67227 O 6424.82 1.61336 0.853048 0
M  V30 67228 C 6424.87 2.6237 -2.48685 0
M  V30 67229 O 6424.59 2.16987 -3.80589 0
M  V30 67230 C 6426.1 3.55403 -2.64959 0
M  V30 67231 H 6423.32 0.431844 -0.513567 0
M  V30 67232 H 6425.86 0.760755 -1.89823 0
M  V30 67233 H 6424.01 3.23274 -2.13478 0
M  V30 67234 H 6424.43 2.95796 -4.33134 0
M  V30 67235 H 6425.9 4.37215 -3.36967 0
M  V30 67236 H 6426.38 4.04765 -1.70476 0
M  V30 67237 H 6426.99 3.00363 -3.01101 0
M  V30 67238 N 6425.3 1.31817 0.863836 0
M  V30 67239 C 6426.21 1.21958 2.00408 0
M  V30 67240 C 6427.23 0.135031 1.73475 0
M  V30 67241 O 6428.4 0.353989 1.98265 0
M  V30 67242 C 6425.47 0.933716 3.3389 0
M  V30 67243 C 6424.53 2.10579 3.74106 0
M  V30 67244 C 6423.76 1.83346 5.01218 0
M  V30 67245 O 6423.98 0.771558 5.65158 0
M  V30 67246 O 6422.92 2.69196 5.38346 0
M  V30 67247 H 6426.74 2.17794 2.11659 0
M  V30 67248 H 6424.33 1.11616 0.993086 0
M  V30 67249 H 6426.21 0.790397 4.13921 0
M  V30 67250 H 6424.89 0.00544493 3.237 0
M  V30 67251 H 6423.79 2.30454 2.9469 0
M  V30 67252 H 6425.13 3.01652 3.8893 0
M  V30 67253 N 6426.78 -1.07893 1.14877 0
M  V30 67254 C 6428.03 -1.80383 0.920232 0
M  V30 67255 C 6428.35 -1.86475 -0.552936 0
M  V30 67256 O 6427.61 -1.34045 -1.42585 0
M  V30 67257 C 6427.91 -3.25644 1.47278 0
M  V30 67258 C 6427.57 -3.39661 2.96549 0
M  V30 67259 C 6426.24 -3.43194 3.373 0
M  V30 67260 C 6428.59 -3.4291 3.92508 0
M  V30 67261 C 6425.92 -3.47572 4.72663 0
M  V30 67262 C 6428.27 -3.48824 5.27735 0
M  V30 67263 C 6426.93 -3.50632 5.67991 0
M  V30 67264 H 6426.2 -0.660068 0.336737 0
M  V30 67265 H 6428.85 -1.26999 1.4333 0
M  V30 67266 H 6427.15 -3.81772 0.880769 0
M  V30 67267 H 6428.85 -3.80297 1.27183 0
M  V30 67268 H 6425.44 -3.37606 2.64046 0
M  V30 67269 H 6429.62 -3.39406 3.62101 0
M  V30 67270 H 6424.88 -3.47267 5.03205 0
M  V30 67271 H 6429.05 -3.50284 6.01892 0
M  V30 67272 H 6426.68 -3.53778 6.72863 0
M  V30 67273 N 6428.26 -0.944709 -1.26147 0
M  V30 67274 C 6429.5 -0.594161 -1.93587 0
M  V30 67275 C 6429.83 0.86732 -1.74091 0
M  V30 67276 O 6429.09 1.63632 -1.07345 0
M  V30 67277 C 6429.39 -0.886974 -3.46219 0
M  V30 67278 C 6429.05 -2.3329 -3.85858 0
M  V30 67279 C 6427.71 -2.72815 -3.96391 0
M  V30 67280 C 6430.07 -3.27238 -4.05666 0
M  V30 67281 C 6427.39 -4.05377 -4.2413 0
M  V30 67282 C 6429.75 -4.59401 -4.34894 0
M  V30 67283 C 6428.41 -4.98736 -4.43642 0
M  V30 67284 H 6427.68 -0.217419 -0.708386 0
M  V30 67285 H 6430.33 -1.19188 -1.49888 0
M  V30 67286 H 6428.63 -0.206754 -3.91254 0
M  V30 67287 H 6430.33 -0.594468 -3.96569 0
M  V30 67288 H 6426.92 -2.01633 -3.78209 0
M  V30 67289 H 6431.1 -2.97897 -3.96953 0
M  V30 67290 H 6426.36 -4.35511 -4.29116 0
M  V30 67291 H 6430.53 -5.32186 -4.49166 0
M  V30 67292 H 6428.16 -6.01482 -4.6489 0
M  V30 67293 N 6429.74 1.40593 -0.712134 0
M  V30 67294 C 6430.98 2.01247 -0.250528 0
M  V30 67295 C 6431.31 1.56328 1.15218 0
M  V30 67296 O 6430.59 0.781796 1.78096 0
M  V30 67297 C 6430.87 3.58615 -0.326705 0
M  V30 67298 C 6430.73 4.13616 -1.76755 0
M  V30 67299 C 6432.04 4.39048 0.304082 0
M  V30 67300 H 6429.16 0.731171 -0.0925076 0
M  V30 67301 H 6431.81 1.67117 -0.903983 0
M  V30 67302 H 6429.96 3.87821 0.22966 0
M  V30 67303 H 6431.63 3.95221 -2.37903 0
M  V30 67304 H 6429.87 3.68034 -2.29638 0
M  V30 67305 H 6430.54 5.22776 -1.77226 0
M  V30 67306 H 6433.02 4.15753 -0.169934 0
M  V30 67307 H 6431.89 5.48458 0.220318 0
M  V30 67308 H 6432.15 4.19775 1.38713 0
M  V30 67309 N 6431.21 0.458066 1.50796 0
M  V30 67310 C 6432.44 -0.0994652 2.06661 0
M  V30 67311 C 6432.86 -1.34657 1.32336 0
M  V30 67312 O 6432.21 -1.7831 0.388831 0
M  V30 67313 C 6432.26 -0.400774 3.59272 0
M  V30 67314 O 6431.99 0.796857 4.30792 0
M  V30 67315 C 6433.49 -1.00671 4.31718 0
M  V30 67316 H 6430.71 0.00127986 0.670999 0
M  V30 67317 H 6433.25 0.643109 1.94125 0
M  V30 67318 H 6431.41 -1.09327 3.71654 0
M  V30 67319 H 6431.82 0.53358 5.21779 0
M  V30 67320 H 6433.29 -1.16739 5.39515 0
M  V30 67321 H 6433.77 -1.99335 3.91359 0
M  V30 67322 H 6434.38 -0.352986 4.23833 0
M  V30 67323 N 6432.69 -1.56448 0.190174 0
M  V30 67324 C 6433.62 -2.21863 -0.727941 0
M  V30 67325 C 6434.6 -1.18016 -1.225 0
M  V30 67326 O 6435.79 -1.46507 -1.27473 0
M  V30 67327 C 6432.92 -2.87414 -1.94963 0
M  V30 67328 C 6431.87 -3.97463 -1.58768 0
M  V30 67329 C 6431.2 -4.50154 -2.88558 0
M  V30 67330 C 6432.5 -5.16116 -0.801354 0
M  V30 67331 H 6434.19 -2.98842 -0.182629 0
M  V30 67332 H 6431.74 -1.43741 -0.0864003 0
M  V30 67333 H 6433.69 -3.31857 -2.59709 0
M  V30 67334 H 6432.41 -2.07833 -2.51939 0
M  V30 67335 H 6431.07 -3.53703 -0.963825 0
M  V30 67336 H 6430.72 -3.67341 -3.43613 0
M  V30 67337 H 6430.42 -5.24407 -2.65087 0
M  V30 67338 H 6431.95 -4.97296 -3.54301 0
M  V30 67339 H 6433.36 -5.57135 -1.35181 0
M  V30 67340 H 6431.76 -5.96404 -0.66496 0
M  V30 67341 H 6432.83 -4.84493 0.198578 0
M  V30 67342 N 6434.17 0.0834573 -1.57379 0
M  V30 67343 C 6435.08 1.11851 -2.0622 0
M  V30 67344 C 6436.1 1.43134 -0.989383 0
M  V30 67345 O 6437.27 1.53543 -1.30332 0
M  V30 67346 C 6434.34 2.41594 -2.48663 0
M  V30 67347 C 6433.4 2.17388 -3.7019 0
M  V30 67348 C 6432.63 3.40945 -4.106 0
M  V30 67349 O 6432.85 4.49625 -3.5099 0
M  V30 67350 O 6431.79 3.29846 -5.03473 0
M  V30 67351 H 6435.61 0.733638 -2.94706 0
M  V30 67352 H 6433.2 0.296783 -1.46423 0
M  V30 67353 H 6435.08 3.17971 -2.76537 0
M  V30 67354 H 6433.76 2.79484 -1.6331 0
M  V30 67355 H 6432.66 1.38754 -3.47416 0
M  V30 67356 H 6434 1.84385 -4.56359 0
M  V30 67357 N 6435.65 1.5356 0.35457 0
M  V30 67358 C 6436.59 1.80774 1.43491 0
M  V30 67359 C 6437.56 0.652744 1.52737 0
M  V30 67360 O 6438.75 0.896056 1.6845 0
M  V30 67361 C 6435.89 2.01321 2.80292 0
M  V30 67362 C 6435 3.29038 2.79925 0
M  V30 67363 C 6434.14 3.39713 4.08373 0
M  V30 67364 C 6433.18 4.6142 4.02192 0
M  V30 67365 N 6432.31 4.69188 5.22309 0
M  V30 67366 H 6437.15 2.72954 1.19584 0
M  V30 67367 H 6434.69 1.35204 0.579498 0
M  V30 67368 H 6436.65 2.11223 3.59779 0
M  V30 67369 H 6435.28 1.12466 3.02574 0
M  V30 67370 H 6434.33 3.28034 1.92608 0
M  V30 67371 H 6435.64 4.1861 2.71233 0
M  V30 67372 H 6434.8 3.48986 4.9628 0
M  V30 67373 H 6433.54 2.48176 4.19833 0
M  V30 67374 H 6432.54 4.52236 3.12671 0
M  V30 67375 H 6433.77 5.54309 3.92325 0
M  V30 67376 H 6431.71 3.80557 5.34334 0
M  V30 67377 H 6431.63 5.52681 5.1583 0
M  V30 67378 H 6432.9 4.82758 6.12017 0
M  V30 67379 N 6437.13 -0.614982 1.45106 0
M  V30 67380 C 6438.4 -1.37404 1.3921 0
M  V30 67381 C 6438.78 -2.11018 0.0589505 0
M  V30 67382 O 6438.13 -2.07405 -0.958924 0
M  V30 67383 C 6438.34 -2.32703 2.60097 0
M  V30 67384 C 6439.69 -2.95539 3.04864 0
M  V30 67385 O 6440.71 -2.43026 2.60417 0
M  V30 67386 O 6439.57 -3.9084 3.81976 0
M  V30 67387 H 6436.67 -0.615747 0.552073 0
M  V30 67388 H 6439.21 -0.638688 1.57222 0
M  V30 67389 H 6437.98 -1.77517 3.48717 0
M  V30 67390 H 6437.61 -3.1363 2.44381 0
M  V30 67391 N 6438.6 -1.32273 -0.856834 0
M  V30 67392 C 6440.01 -1.20416 -1.42677 0
M  V30 67393 C 6440.37 0.184185 -1.95334 0
M  V30 67394 O 6439.49 1.08278 -1.87363 0
M  V30 67395 C 6440.09 -2.17998 -2.5935 0
M  V30 67396 C 6438.64 -2.10035 -3.1235 0
M  V30 67397 C 6437.79 -2.06487 -1.8509 0
M  V30 67398 H 6440.74 -1.44133 -0.664185 0
M  V30 67399 H 6440.76 -1.77724 -3.36444 0
M  V30 67400 H 6440.28 -3.19034 -2.20995 0
M  V30 67401 H 6438.38 -1.12239 -3.55293 0
M  V30 67402 H 6438.49 -2.99757 -3.73742 0
M  V30 67403 H 6436.85 -1.51694 -2.046 0
M  V30 67404 H 6437.64 -3.09301 -1.48956 0
M  V30 67405 N 6440.08 1.07283 -1.15448 0
M  V30 67406 C 6441.01 2.14423 -0.809647 0
M  V30 67407 C 6442.03 1.61817 0.178652 0
M  V30 67408 O 6443.22 1.78444 -0.0446947 0
M  V30 67409 C 6440.32 3.38405 -0.183058 0
M  V30 67410 C 6439.49 4.20361 -1.20895 0
M  V30 67411 C 6438.55 5.22722 -0.604015 0
M  V30 67412 O 6437.57 5.54848 -1.27015 0
M  V30 67413 N 6438.78 5.77244 0.613938 0
M  V30 67414 H 6441.54 2.44607 -1.73169 0
M  V30 67415 H 6439.1 1.23196 -1.05045 0
M  V30 67416 H 6441.09 4.0402 0.234426 0
M  V30 67417 H 6439.66 3.05929 0.642343 0
M  V30 67418 H 6438.88 3.50552 -1.80297 0
M  V30 67419 H 6440.17 4.71928 -1.90161 0
M  V30 67420 H 6439.57 5.53395 1.17349 0
M  V30 67421 H 6438.13 6.44485 0.973769 0
M  V30 67422 N 6441.56 0.951386 1.25644 0
M  V30 67423 C 6442.49 0.426331 2.252 0
M  V30 67424 C 6443.5 -0.456009 1.56283 0
M  V30 67425 O 6444.69 -0.264809 1.76525 0
M  V30 67426 C 6441.79 -0.405375 3.36467 0
M  V30 67427 C 6440.97 0.463203 4.3494 0
M  V30 67428 C 6440.03 -0.309763 5.25287 0
M  V30 67429 O 6439.05 0.290723 5.68457 0
M  V30 67430 N 6440.25 -1.6037 5.57908 0
M  V30 67431 H 6443.02 1.28223 2.70886 0
M  V30 67432 H 6440.58 0.821387 1.39516 0
M  V30 67433 H 6442.57 -0.930118 3.93867 0
M  V30 67434 H 6441.14 -1.16212 2.90196 0
M  V30 67435 H 6440.36 1.16908 3.76466 0
M  V30 67436 H 6441.65 1.05616 4.97718 0
M  V30 67437 H 6441.05 -2.11353 5.24734 0
M  V30 67438 H 6439.6 -2.07447 6.17907 0
M  V30 67439 N 6443.04 -1.40213 0.71958 0
M  V30 67440 C 6443.95 -2.34493 0.0707314 0
M  V30 67441 C 6444.96 -1.57512 -0.739317 0
M  V30 67442 O 6446.14 -1.89881 -0.67135 0
M  V30 67443 C 6443.2 -3.36443 -0.83706 0
M  V30 67444 C 6442.27 -4.29297 -0.0165094 0
M  V30 67445 C 6441.5 -5.26377 -0.881066 0
M  V30 67446 O 6441.72 -5.29531 -2.12021 0
M  V30 67447 O 6440.66 -6.0106 -0.31793 0
M  V30 67448 H 6444.48 -2.91606 0.848495 0
M  V30 67449 H 6442.07 -1.41476 0.480096 0
M  V30 67450 H 6443.95 -3.98955 -1.35693 0
M  V30 67451 H 6442.62 -2.81738 -1.5939 0
M  V30 67452 H 6441.53 -3.70057 0.54852 0
M  V30 67453 H 6442.86 -4.87165 0.702202 0
M  V30 67454 N 6444.52 -0.466057 -1.50551 0
M  V30 67455 C 6445.79 0.152003 -1.95008 0
M  V30 67456 C 6446.17 1.57446 -1.4062 0
M  V30 67457 O 6445.52 2.20343 -0.605091 0
M  V30 67458 C 6445.73 0.100461 -3.48855 0
M  V30 67459 C 6447.08 0.291849 -4.23596 0
M  V30 67460 O 6448.1 0.177276 -3.55759 0
M  V30 67461 O 6446.96 0.522689 -5.43995 0
M  V30 67462 H 6444.06 0.114411 -0.819048 0
M  V30 67463 H 6446.6 -0.526098 -1.61339 0
M  V30 67464 H 6445.37 -0.892879 -3.80977 0
M  V30 67465 H 6445 0.820238 -3.89047 0
M  V30 67466 N 6445.99 1.56345 -0.198468 0
M  V30 67467 C 6447.24 1.97675 0.439411 0
M  V30 67468 C 6447.57 1.08545 1.61394 0
M  V30 67469 O 6446.82 0.125286 1.95299 0
M  V30 67470 C 6447.12 3.44855 0.938592 0
M  V30 67471 C 6446.79 4.50732 -0.122932 0
M  V30 67472 C 6445.45 4.79411 -0.414602 0
M  V30 67473 C 6447.8 5.14353 -0.842029 0
M  V30 67474 C 6445.13 5.68999 -1.43029 0
M  V30 67475 C 6447.48 6.0504 -1.84689 0
M  V30 67476 C 6446.15 6.32072 -2.14572 0
M  V30 67477 H 6445.42 0.723344 0.160792 0
M  V30 67478 H 6448.06 1.89196 -0.296143 0
M  V30 67479 H 6446.37 3.50422 1.75248 0
M  V30 67480 H 6448.07 3.74191 1.4416 0
M  V30 67481 H 6444.66 4.28447 0.114564 0
M  V30 67482 H 6448.84 4.92286 -0.629922 0
M  V30 67483 H 6444.1 5.88216 -1.66769 0
M  V30 67484 H 6448.27 6.53396 -2.4093 0
M  V30 67485 H 6445.9 7.01291 -2.9342 0
M  V30 67486 N 6447.47 -0.07511 1.57421 0
M  V30 67487 C 6448.4 -1.08999 2.06498 0
M  V30 67488 C 6449.38 -1.4057 0.957815 0
M  V30 67489 O 6450.57 -1.50255 1.23033 0
M  V30 67490 C 6447.7 -2.40437 2.50614 0
M  V30 67491 C 6446.65 -2.23227 3.65176 0
M  V30 67492 C 6445.98 -3.60019 3.95336 0
M  V30 67493 C 6447.28 -1.65625 4.95344 0
M  V30 67494 H 6448.97 -0.681622 2.91538 0
M  V30 67495 H 6446.52 -0.326432 1.40251 0
M  V30 67496 H 6448.47 -3.11724 2.83559 0
M  V30 67497 H 6447.2 -2.83248 1.62598 0
M  V30 67498 H 6445.85 -1.54382 3.32508 0
M  V30 67499 H 6445.5 -4.00394 3.04457 0
M  V30 67500 H 6445.2 -3.49344 4.72475 0
M  V30 67501 H 6446.73 -4.32742 4.30775 0
M  V30 67502 H 6448.14 -2.26774 5.26542 0
M  V30 67503 H 6446.54 -1.65655 5.76783 0
M  V30 67504 H 6447.61 -0.617424 4.80953 0
M  V30 67505 N 6448.95 -1.53746 -0.346422 0
M  V30 67506 C 6449.88 -1.77841 -1.44586 0
M  V30 67507 C 6450.9 -0.659633 -1.48838 0
M  V30 67508 O 6452.08 -0.936306 -1.51972 0
M  V30 67509 C 6449.18 -1.86059 -2.83259 0
M  V30 67510 C 6448.36 -3.1595 -3.0248 0
M  V30 67511 C 6447.42 -3.15162 -4.21378 0
M  V30 67512 O 6446.44 -3.88894 -4.15632 0
M  V30 67513 N 6447.64 -2.37328 -5.29769 0
M  V30 67514 H 6450.41 -2.72714 -1.24288 0
M  V30 67515 H 6447.97 -1.5276 -0.536282 0
M  V30 67516 H 6449.96 -1.82986 -3.60969 0
M  V30 67517 H 6448.53 -0.983857 -2.96714 0
M  V30 67518 H 6447.75 -3.32171 -2.12265 0
M  V30 67519 H 6449.04 -4.01754 -3.12203 0
M  V30 67520 H 6448.44 -1.76971 -5.37306 0
M  V30 67521 H 6447 -2.40056 -6.05984 0
M  V30 67522 N 6450.43 0.607278 -1.4543 0
M  V30 67523 C 6451.68 1.36358 -1.49168 0
M  V30 67524 C 6452 1.94533 -0.134895 0
M  V30 67525 O 6451.27 1.77177 0.835776 0
M  V30 67526 H 6449.85 0.506205 -0.549331 0
M  V30 67527 H 6452.51 0.713074 -1.81387 0
M  V30 67528 H 6451.61 2.18284 -2.23066 0
M  V30 67529 N 6451.91 1.32725 0.849807 0
M  V30 67530 C 6453.32 1.11822 1.13878 0
M  V30 67531 C 6453.52 -0.0981146 2.01261 0
M  V30 67532 O 6452.58 -0.781594 2.40099 0
M  V30 67533 C 6453.89 2.40016 1.81142 0
M  V30 67534 C 6455.44 2.4582 1.93757 0
M  V30 67535 C 6455.91 3.73948 2.64437 0
M  V30 67536 N 6457.41 3.74957 2.71958 0
M  V30 67537 C 6458.14 4.70803 3.2731 0
M  V30 67538 N 6457.64 5.77018 3.83434 0
M  V30 67539 N 6459.43 4.58294 3.25459 0
M  V30 67540 H 6451.58 2.10703 0.267986 0
M  V30 67541 H 6453.84 0.930488 0.181372 0
M  V30 67542 H 6453.55 3.28968 1.24391 0
M  V30 67543 H 6453.42 2.51343 2.81259 0
M  V30 67544 H 6455.81 1.57325 2.49666 0
M  V30 67545 H 6455.89 2.38442 0.926223 0
M  V30 67546 H 6455.54 4.6282 2.0919 0
M  V30 67547 H 6455.47 3.78598 3.6602 0
M  V30 67548 H 6457.96 2.98188 2.32147 0
M  V30 67549 H 6458.27 6.46203 4.23841 0
M  V30 67550 H 6456.61 5.80767 3.81753 0
M  V30 67551 H 6459.81 3.74478 2.80862 0
M  V30 67552 H 6459.98 5.33163 3.68295 0
M  V30 67553 N 6453.38 -1.06669 1.16015 0
M  V30 67554 C 6454.32 -2.13463 0.806762 0
M  V30 67555 C 6455.3 -1.61106 -0.219899 0
M  V30 67556 O 6456.48 -1.88208 -0.104856 0
M  V30 67557 C 6453.61 -3.38104 0.200883 0
M  V30 67558 C 6452.65 -4.09254 1.20055 0
M  V30 67559 S 6453.49 -4.59758 2.74559 0
M  V30 67560 C 6454.64 -5.87664 2.1541 0
M  V30 67561 H 6454.87 -2.4311 1.71128 0
M  V30 67562 H 6452.41 -1.19046 0.983224 0
M  V30 67563 H 6454.37 -4.10254 -0.14223 0
M  V30 67564 H 6453.03 -3.06621 -0.681336 0
M  V30 67565 H 6452.22 -4.98759 0.724975 0
M  V30 67566 H 6451.82 -3.43101 1.48855 0
M  V30 67567 H 6454.11 -6.60219 1.52043 0
M  V30 67568 H 6455.06 -6.39946 3.03109 0
M  V30 67569 H 6455.46 -5.41515 1.59442 0
M  V30 67570 N 6454.86 -0.958036 -1.25138 0
M  V30 67571 C 6456.27 -0.654902 -1.74837 0
M  V30 67572 C 6456.62 0.829651 -1.77795 0
M  V30 67573 O 6455.75 1.64925 -1.40102 0
M  V30 67574 C 6456.34 -1.18209 -3.17509 0
M  V30 67575 C 6454.9 -0.929045 -3.64754 0
M  V30 67576 C 6454.05 -1.32312 -2.43698 0
M  V30 67577 H 6457 -1.13446 -1.10976 0
M  V30 67578 H 6457.02 -0.543774 -3.76594 0
M  V30 67579 H 6456.53 -2.26258 -3.15324 0
M  V30 67580 H 6454.64 0.136336 -3.7235 0
M  V30 67581 H 6454.75 -1.5679 -4.52718 0
M  V30 67582 H 6453.11 -0.741492 -2.43668 0
M  V30 67583 H 6453.9 -2.4129 -2.44201 0
M  V30 67584 N 6456.34 1.3983 -0.727006 0
M  V30 67585 C 6457.59 2.00276 -0.270921 0
M  V30 67586 C 6457.91 1.57962 1.14338 0
M  V30 67587 O 6457.18 0.824217 1.77717 0
M  V30 67588 H 6455.76 0.740652 -0.0971756 0
M  V30 67589 H 6458.42 1.70998 -0.935183 0
M  V30 67590 H 6457.52 3.10527 -0.313001 0
M  V30 67591 N 6457.82 0.474035 1.50302 0
M  V30 67592 C 6458.77 -0.332605 2.3021 0
M  V30 67593 C 6459.76 -0.987698 1.37626 0
M  V30 67594 O 6460.97 -0.918466 1.54804 0
M  V30 67595 H 6457.34 -0.126103 0.741352 0
M  V30 67596 H 6459.31 0.361706 2.962 0
M  V30 67597 C 6458.06 -1.40026 3.18258 0
M  V30 67598 H 6457.38 -0.90556 3.89409 0
M  V30 67599 H 6458.82 -1.93718 3.7716 0
M  V30 67600 C 6457.28 -2.40379 2.3605 0
M  V30 67601 O 6457.81 -3.45711 2.04565 0
M  V30 67602 N 6456.02 -2.12171 1.98575 0
M  V30 67603 H 6455.57 -1.26537 2.24379 0
M  V30 67604 H 6455.52 -2.79549 1.43874 0
M  V30 67605 N 6459.3 -1.56238 0.206757 0
M  V30 67606 C 6460.71 -1.84212 -0.303767 0
M  V30 67607 C 6461.06 -1.12777 -1.60548 0
M  V30 67608 O 6460.18 -0.392457 -2.12811 0
M  V30 67609 C 6460.78 -3.34175 -0.557923 0
M  V30 67610 C 6459.34 -3.62518 -1.01279 0
M  V30 67611 C 6458.49 -2.77217 -0.0677369 0
M  V30 67612 H 6461.44 -1.52755 0.430289 0
M  V30 67613 H 6461.46 -3.53578 -1.4058 0
M  V30 67614 H 6460.97 -3.86139 0.389656 0
M  V30 67615 H 6459.07 -3.15998 -1.97424 0
M  V30 67616 H 6459.18 -4.7062 -0.897434 0
M  V30 67617 H 6457.55 -2.48199 -0.571801 0
M  V30 67618 H 6458.33 -3.31975 0.874494 0
M  V30 67619 N 6460.78 0.0667605 -1.57459 0
M  V30 67620 C 6462.01 0.77662 -1.91448 0
M  V30 67621 C 6462.41 1.71386 -0.801463 0
M  V30 67622 O 6461.76 1.82207 0.233724 0
M  V30 67623 C 6461.82 1.6197 -3.20945 0
M  V30 67624 C 6461.48 0.851295 -4.49001 0
M  V30 67625 C 6462.48 0.16828 -5.19628 0
M  V30 67626 C 6460.16 0.816979 -4.95611 0
M  V30 67627 C 6462.16 -0.538766 -6.35119 0
M  V30 67628 C 6459.85 0.106164 -6.11008 0
M  V30 67629 C 6460.84 -0.570504 -6.80613 0
M  V30 67630 O 6460.53 -1.26986 -7.93807 0
M  V30 67631 H 6460.26 0.225675 -0.637218 0
M  V30 67632 H 6462.82 0.0397905 -2.05361 0
M  V30 67633 H 6461.05 2.39945 -3.03254 0
M  V30 67634 H 6462.74 2.2087 -3.40546 0
M  V30 67635 H 6463.5 0.186065 -4.84643 0
M  V30 67636 H 6459.38 1.33313 -4.41303 0
M  V30 67637 H 6462.93 -1.06749 -6.89384 0
M  V30 67638 H 6458.82 0.0863228 -6.45442 0
M  V30 67639 H 6459.59 -1.17965 -8.09955 0
M  V30 67640 N 6462.25 1.53927 0.338263 0
M  V30 67641 C 6463.48 1.75686 1.10224 0
M  V30 67642 C 6463.9 0.49715 1.81411 0
M  V30 67643 O 6463.26 -0.550517 1.7274 0
M  V30 67644 C 6463.31 2.94046 2.08733 0
M  V30 67645 O 6462.41 2.64563 3.16354 0
M  V30 67646 H 6461.75 0.582614 0.318523 0
M  V30 67647 H 6464.28 2.00906 0.387042 0
M  V30 67648 H 6464.29 3.20982 2.51862 0
M  V30 67649 H 6462.97 3.85406 1.56317 0
M  V30 67650 H 6461.55 2.48531 2.78005 0
M  V30 67651 N 6463.73 -0.599557 1.4575 0
M  V30 67652 C 6464.96 -1.38966 1.53958 0
M  V30 67653 C 6465.38 -1.87278 0.175684 0
M  V30 67654 O 6464.74 -1.60605 -0.841166 0
M  V30 67655 C 6464.79 -2.56473 2.53483 0
M  V30 67656 O 6463.89 -3.57368 2.0582 0
M  V30 67657 H 6463.23 -0.414548 0.518696 0
M  V30 67658 H 6465.76 -0.728905 1.91176 0
M  V30 67659 H 6465.77 -3.03613 2.72549 0
M  V30 67660 H 6464.45 -2.2066 3.52537 0
M  V30 67661 H 6463.02 -3.16823 1.96667 0
M  V30 67662 N 6465.21 -1.33174 -0.842756 0
M  V30 67663 C 6466.16 -1.23079 -1.97368 0
M  V30 67664 C 6467.15 -0.132998 -1.68877 0
M  V30 67665 O 6468.36 -0.296705 -1.77538 0
M  V30 67666 H 6464.73 -0.381841 -0.647843 0
M  V30 67667 H 6466.7 -2.18701 -2.03009 0
M  V30 67668 C 6465.45 -0.982895 -3.33518 0
M  V30 67669 H 6464.78 -1.81987 -3.55979 0
M  V30 67670 H 6466.22 -0.952549 -4.13162 0
M  V30 67671 C 6464.67 0.314234 -3.35431 0
M  V30 67672 O 6465.2 1.32221 -3.79316 0
M  V30 67673 N 6463.41 0.340405 -2.88599 0
M  V30 67674 H 6462.96 -0.480407 -2.53081 0
M  V30 67675 H 6462.92 1.20812 -2.90262 0
M  V30 67676 N 6466.69 1.06052 -1.16579 0
M  V30 67677 C 6467.6 2.17104 -0.888988 0
M  V30 67678 C 6468.61 1.73439 0.139662 0
M  V30 67679 O 6469.79 2.01365 -0.0375553 0
M  V30 67680 C 6466.85 3.44424 -0.396615 0
M  V30 67681 C 6465.92 4.02584 -1.49079 0
M  V30 67682 C 6465.15 5.23827 -1.02182 0
M  V30 67683 O 6465.37 5.70258 0.127484 0
M  V30 67684 O 6464.31 5.74003 -1.81119 0
M  V30 67685 H 6468.13 2.43297 -1.8177 0
M  V30 67686 H 6465.72 1.15637 -0.945963 0
M  V30 67687 H 6467.6 4.21202 -0.129131 0
M  V30 67688 H 6466.27 3.19751 0.504051 0
M  V30 67689 H 6465.18 3.27285 -1.81205 0
M  V30 67690 H 6466.51 4.31557 -2.36685 0
M  V30 67691 N 6468.17 0.964658 1.24628 0
M  V30 67692 C 6469.58 0.664164 1.74487 0
M  V30 67693 C 6469.93 -0.82021 1.78233 0
M  V30 67694 O 6469.05 -1.6418 1.40975 0
M  V30 67695 C 6469.65 1.19891 3.16878 0
M  V30 67696 C 6468.21 0.948376 3.64257 0
M  V30 67697 C 6467.35 1.33602 2.42993 0
M  V30 67698 H 6470.3 1.14033 1.10373 0
M  V30 67699 H 6470.33 0.563738 3.76301 0
M  V30 67700 H 6469.84 2.27927 3.14119 0
M  V30 67701 H 6467.94 -0.116588 3.72418 0
M  V30 67702 H 6468.05 1.59188 4.5188 0
M  V30 67703 H 6466.42 0.754404 2.43271 0
M  V30 67704 H 6467.2 2.42581 2.42918 0
M  V30 67705 N 6469.64 -1.39442 0.734411 0
M  V30 67706 C 6470.89 -2.00129 0.281538 0
M  V30 67707 C 6471.21 -1.58566 -1.13498 0
M  V30 67708 O 6470.48 -0.833631 -1.77278 0
M  V30 67709 H 6469.06 -0.740127 0.101102 0
M  V30 67710 H 6471.72 -1.705 0.944238 0
M  V30 67711 H 6470.82 -3.10356 0.329465 0
M  V30 67712 N 6471.12 -0.481999 -1.50048 0
M  V30 67713 C 6472.37 0.0709491 -2.01575 0
M  V30 67714 C 6472.68 1.39794 -1.3681 0
M  V30 67715 O 6473.89 2.03647 -1.79556 0
M  V30 67716 C 6472.35 0.176938 -3.59465 0
M  V30 67717 C 6471.95 -1.14227 -4.33193 0
M  V30 67718 C 6473.7 0.681262 -4.18998 0
M  V30 67719 C 6471.6 -0.999479 -5.82893 0
M  V30 67720 H 6470.53 0.0302897 -0.753391 0
M  V30 67721 H 6473.19 -0.618548 -1.72761 0
M  V30 67722 H 6471.57 0.930462 -3.84913 0
M  V30 67723 H 6472.74 -1.9076 -4.19461 0
M  V30 67724 H 6471.06 -1.57855 -3.85319 0
M  V30 67725 H 6473.65 0.805299 -5.28601 0
M  V30 67726 H 6474 1.67537 -3.811 0
M  V30 67727 H 6474.53 -0.0151848 -3.97797 0
M  V30 67728 H 6471.27 -1.96728 -6.25283 0
M  V30 67729 H 6470.79 -0.274715 -5.99171 0
M  V30 67730 H 6472.47 -0.670491 -6.43516 0
M  V30 67731 N 6472.6 1.56126 -0.21504 0
M  V30 67732 C 6473.85 1.97739 0.417593 0
M  V30 67733 C 6474.17 1.10374 1.60756 0
M  V30 67734 O 6473.44 0.17933 1.95077 0
M  V30 67735 H 6472.02 0.730256 0.157273 0
M  V30 67736 H 6474.68 1.92476 -0.306419 0
M  V30 67737 H 6473.78 3.02996 0.748315 0
M  V30 67738 N 6474.08 -0.0584092 1.57492 0
M  V30 67739 C 6475.49 -0.608643 1.765 0
M  V30 67740 C 6475.84 -1.772 0.842302 0
M  V30 67741 O 6474.97 -2.1638 0.0297025 0
M  V30 67742 C 6475.56 -1.11089 3.2007 0
M  V30 67743 C 6474.12 -1.60688 3.40377 0
M  V30 67744 C 6473.27 -0.532064 2.72148 0
M  V30 67745 H 6476.22 0.167796 1.5781 0
M  V30 67746 H 6476.24 -1.97931 3.24967 0
M  V30 67747 H 6475.75 -0.263976 3.87201 0
M  V30 67748 H 6473.85 -2.47661 2.78379 0
M  V30 67749 H 6473.96 -1.6746 4.48881 0
M  V30 67750 H 6472.33 -0.980271 2.3508 0
M  V30 67751 H 6473.11 0.304894 3.41943 0
M  V30 67752 N 6475.56 -1.54104 -0.330095 0
M  V30 67753 C 6476.49 -1.86025 -1.41128 0
M  V30 67754 C 6477.47 -0.716484 -1.54274 0
M  V30 67755 O 6478.65 -0.969627 -1.68261 0
M  V30 67756 C 6475.78 -2.0818 -2.7799 0
M  V30 67757 C 6474.74 -3.24016 -2.79638 0
M  V30 67758 C 6474.06 -3.31531 -4.19513 0
M  V30 67759 C 6475.36 -4.61819 -2.43969 0
M  V30 67760 H 6477.06 -2.76573 -1.14662 0
M  V30 67761 H 6474.6 -1.33076 -0.550152 0
M  V30 67762 H 6476.56 -2.29095 -3.53685 0
M  V30 67763 H 6475.28 -1.14375 -3.05918 0
M  V30 67764 H 6473.94 -3.02979 -2.06397 0
M  V30 67765 H 6473.59 -2.35296 -4.44573 0
M  V30 67766 H 6473.29 -4.09379 -4.21524 0
M  V30 67767 H 6474.81 -3.54672 -4.97031 0
M  V30 67768 H 6476.22 -4.82658 -3.09378 0
M  V30 67769 H 6474.62 -5.42169 -2.57241 0
M  V30 67770 H 6475.69 -4.64512 -1.39129 0
M  V30 67771 N 6477.03 0.591819 -1.46066 0
M  V30 67772 C 6477.97 1.71586 -1.50444 0
M  V30 67773 C 6478.95 1.5858 -0.359345 0
M  V30 67774 O 6480.13 1.79922 -0.562166 0
M  V30 67775 C 6477.26 3.09561 -1.3744 0
M  V30 67776 C 6476.3 3.41114 -2.56015 0
M  V30 67777 S 6477.14 3.34196 -4.18417 0
M  V30 67778 C 6478.29 4.74724 -4.07906 0
M  V30 67779 H 6478.52 1.67612 -2.45547 0
M  V30 67780 H 6476.06 0.769804 -1.33841 0
M  V30 67781 H 6478.02 3.89163 -1.30624 0
M  V30 67782 H 6476.68 3.11034 -0.437804 0
M  V30 67783 H 6475.87 4.41614 -2.42885 0
M  V30 67784 H 6475.47 2.69061 -2.59774 0
M  V30 67785 H 6477.76 5.649 -3.74024 0
M  V30 67786 H 6478.71 4.92912 -5.08373 0
M  V30 67787 H 6479.11 4.51147 -3.39304 0
M  V30 67788 N 6478.51 1.33619 0.835682 0
M  V30 67789 C 6479.93 1.13023 1.12685 0
M  V30 67790 C 6480.13 -0.0767627 2.01354 0
M  V30 67791 O 6479.18 -0.756084 2.40914 0
M  V30 67792 C 6480.5 2.41924 1.78587 0
M  V30 67793 C 6482.05 2.47861 1.91138 0
M  V30 67794 C 6482.52 3.76732 2.60456 0
M  V30 67795 N 6484.01 3.77821 2.67966 0
M  V30 67796 C 6484.75 4.74248 3.22298 0
M  V30 67797 N 6484.24 5.81053 3.77293 0
M  V30 67798 N 6486.04 4.6172 3.2058 0
M  V30 67799 H 6478.19 2.10975 0.245623 0
M  V30 67800 H 6480.45 0.932359 0.171493 0
M  V30 67801 H 6480.16 3.30269 1.20895 0
M  V30 67802 H 6480.03 2.54312 2.78577 0
M  V30 67803 H 6482.42 1.59964 2.47983 0
M  V30 67804 H 6482.5 2.39411 0.900881 0
M  V30 67805 H 6482.14 4.65012 2.04269 0
M  V30 67806 H 6482.07 3.82459 3.61984 0
M  V30 67807 H 6484.56 3.00634 2.28971 0
M  V30 67808 H 6484.88 6.50662 4.16963 0
M  V30 67809 H 6483.22 5.84783 3.75571 0
M  V30 67810 H 6486.41 3.77436 2.76875 0
M  V30 67811 H 6486.58 5.37039 3.6262 0
M  V30 67812 N 6479.99 -1.05432 1.1714 0
M  V30 67813 C 6481.27 -1.75272 0.868277 0
M  V30 67814 C 6481.65 -2.01417 -0.632003 0
M  V30 67815 O 6481 -1.64828 -1.58253 0
M  V30 67816 C 6481.21 -3.04766 1.70054 0
M  V30 67817 C 6482.55 -3.78761 1.91898 0
M  V30 67818 O 6483.58 -3.1463 1.66993 0
M  V30 67819 O 6482.44 -4.93992 2.3374 0
M  V30 67820 H 6479.53 -0.762055 0.32125 0
M  V30 67821 H 6482.08 -1.11622 1.27822 0
M  V30 67822 H 6480.85 -2.81476 2.71822 0
M  V30 67823 H 6480.47 -3.76153 1.28821 0
M  V30 67824 N 6481.47 -0.971254 -1.24115 0
M  V30 67825 C 6482.72 -0.630665 -1.91587 0
M  V30 67826 C 6483.03 0.838429 -1.76719 0
M  V30 67827 O 6484.24 1.28969 -2.38913 0
M  V30 67828 C 6482.69 -1.07735 -3.43397 0
M  V30 67829 C 6482.3 -2.57015 -3.66943 0
M  V30 67830 C 6484.04 -0.810074 -4.16699 0
M  V30 67831 C 6481.95 -2.95397 -5.12342 0
M  V30 67832 H 6480.88 -0.232173 -0.717364 0
M  V30 67833 H 6483.53 -1.17793 -1.40702 0
M  V30 67834 H 6481.91 -0.458361 -3.93338 0
M  V30 67835 H 6483.09 -3.24074 -3.27586 0
M  V30 67836 H 6481.4 -2.8139 -3.06934 0
M  V30 67837 H 6484 -1.0728 -5.23827 0
M  V30 67838 H 6484.34 0.253753 -4.15526 0
M  V30 67839 H 6484.88 -1.3902 -3.72717 0
M  V30 67840 H 6481.62 -4.00866 -5.1864 0
M  V30 67841 H 6481.14 -2.33025 -5.52684 0
M  V30 67842 H 6482.81 -2.85498 -5.80603 0
M  V30 67843 N 6482.95 1.39051 -0.741796 0
M  V30 67844 C 6483.89 2.30555 -0.106278 0
M  V30 67845 C 6484.86 1.49569 0.722382 0
M  V30 67846 O 6486.05 1.78235 0.680945 0
M  V30 67847 C 6483.19 3.35938 0.789895 0
M  V30 67848 C 6482.3 4.31969 -0.0521158 0
M  V30 67849 C 6481.44 5.24421 0.845962 0
M  V30 67850 C 6480.48 6.121 -0.000392628 0
M  V30 67851 N 6479.61 6.96887 0.853992 0
M  V30 67852 H 6484.45 2.8433 -0.892213 0
M  V30 67853 H 6481.99 1.39995 -0.451632 0
M  V30 67854 H 6483.95 3.95634 1.32399 0
M  V30 67855 H 6482.58 2.83602 1.54173 0
M  V30 67856 H 6481.63 3.73834 -0.703711 0
M  V30 67857 H 6482.94 4.93775 -0.706235 0
M  V30 67858 H 6482.1 5.89176 1.44766 0
M  V30 67859 H 6480.83 4.62952 1.53384 0
M  V30 67860 H 6479.84 5.46351 -0.61484 0
M  V30 67861 H 6481.06 6.75635 -0.685159 0
M  V30 67862 H 6479.01 6.37979 1.52704 0
M  V30 67863 H 6478.93 7.55565 0.256506 0
M  V30 67864 H 6480.2 7.66064 1.44103 0
M  V30 67865 N 6484.42 0.489949 1.49791 0
M  V30 67866 C 6485.37 -0.308169 2.3055 0
M  V30 67867 C 6486.37 -0.973045 1.38666 0
M  V30 67868 O 6487.57 -0.901996 1.55769 0
M  V30 67869 H 6483.95 -0.118233 0.742647 0
M  V30 67870 H 6485.92 0.393102 2.95799 0
M  V30 67871 C 6484.67 -1.36642 3.19725 0
M  V30 67872 H 6483.99 -0.864207 3.90348 0
M  V30 67873 H 6485.43 -1.89707 3.79193 0
M  V30 67874 C 6483.89 -2.37862 2.38586 0
M  V30 67875 O 6484.42 -3.43522 2.0822 0
M  V30 67876 N 6482.63 -2.10053 2.00814 0
M  V30 67877 H 6482.17 -1.2415 2.25709 0
M  V30 67878 H 6482.13 -2.78007 1.46831 0
M  V30 67879 N 6485.9 -1.5601 0.223316 0
M  V30 67880 C 6486.85 -2.20367 -0.68608 0
M  V30 67881 C 6487.82 -1.15982 -1.18901 0
M  V30 67882 O 6489 -1.44344 -1.24778 0
M  V30 67883 C 6486.14 -2.88886 -1.88783 0
M  V30 67884 C 6485.26 -4.07868 -1.42364 0
M  V30 67885 C 6484.39 -4.64165 -2.5831 0
M  V30 67886 C 6483.43 -5.75446 -2.08636 0
M  V30 67887 N 6482.57 -6.26026 -3.17861 0
M  V30 67888 H 6487.41 -2.97714 -0.130551 0
M  V30 67889 H 6484.95 -1.47006 -0.0526847 0
M  V30 67890 H 6486.9 -3.26797 -2.59344 0
M  V30 67891 H 6485.53 -2.14054 -2.41621 0
M  V30 67892 H 6484.59 -3.7543 -0.612892 0
M  V30 67893 H 6485.9 -4.88272 -1.01941 0
M  V30 67894 H 6485.05 -5.04529 -3.36951 0
M  V30 67895 H 6483.79 -3.82928 -3.02022 0
M  V30 67896 H 6482.8 -5.34583 -1.28457 0
M  V30 67897 H 6484.02 -6.58519 -1.65921 0
M  V30 67898 H 6481.97 -5.47702 -3.61051 0
M  V30 67899 H 6481.88 -7.01558 -2.81695 0
M  V30 67900 H 6483.15 -6.71047 -3.96632 0
M  V30 67901 N 6487.38 0.0500562 -1.5752 0
M  V30 67902 C 6488.63 0.743962 -1.87478 0
M  V30 67903 C 6488.94 1.77628 -0.819006 0
M  V30 67904 O 6490.15 2.52129 -1.00712 0
M  V30 67905 C 6488.6 1.37418 -3.32632 0
M  V30 67906 C 6488.21 0.379301 -4.46391 0
M  V30 67907 C 6489.96 2.04918 -3.71765 0
M  V30 67908 C 6487.86 1.01667 -5.82596 0
M  V30 67909 H 6486.79 0.28161 -0.699437 0
M  V30 67910 H 6489.44 -0.00226278 -1.835 0
M  V30 67911 H 6487.83 2.1694 -3.3129 0
M  V30 67912 H 6489 -0.387687 -4.59166 0
M  V30 67913 H 6487.32 -0.192446 -4.15955 0
M  V30 67914 H 6489.91 2.53419 -4.70832 0
M  V30 67915 H 6490.26 2.85821 -3.02675 0
M  V30 67916 H 6490.79 1.32199 -3.75191 0
M  V30 67917 H 6487.53 0.247503 -6.55033 0
M  V30 67918 H 6487.05 1.75399 -5.73581 0
M  V30 67919 H 6488.73 1.53019 -6.28645 0
M  V30 67920 N 6488.86 1.54277 0.321918 0
M  V30 67921 C 6490.1 1.74287 1.06787 0
M  V30 67922 C 6490.46 0.50673 1.85192 0
M  V30 67923 O 6491.66 0.584203 2.62375 0
M  V30 67924 C 6489.94 2.9842 1.96673 0
M  V30 67925 S 6491.49 3.3934 2.78198 0
M  V30 67926 H 6488.31 0.61284 0.360483 0
M  V30 67927 H 6490.91 1.92456 0.343674 0
M  V30 67928 H 6489.62 3.86534 1.37911 0
M  V30 67929 H 6489.15 2.82779 2.73495 0
M  V30 67930 H 6491.16 2.94768 3.99157 0
M  V30 67931 N 6490.34 -0.584065 1.46378 0
M  V30 67932 C 6491.27 -1.70772 1.52871 0
M  V30 67933 C 6492.28 -1.57364 0.417177 0
M  V30 67934 O 6493.47 -1.64814 0.685469 0
M  V30 67935 C 6490.57 -3.0901 1.39162 0
M  V30 67936 C 6489.74 -3.48434 2.6441 0
M  V30 67937 C 6488.8 -4.65726 2.44919 0
M  V30 67938 O 6487.83 -4.71656 3.18637 0
M  V30 67939 N 6489.03 -5.60518 1.50997 0
M  V30 67940 H 6491.8 -1.65658 2.49755 0
M  V30 67941 H 6489.36 -0.770008 1.42417 0
M  V30 67942 H 6491.35 -3.85268 1.23897 0
M  V30 67943 H 6489.92 -3.085 0.504638 0
M  V30 67944 H 6489.14 -2.61896 2.94626 0
M  V30 67945 H 6490.43 -3.7154 3.47614 0
M  V30 67946 H 6489.83 -5.58462 0.902057 0
M  V30 67947 H 6488.38 -6.36212 1.41696 0
M  V30 67948 N 6491.82 -1.34061 -0.828584 0
M  V30 67949 C 6493.09 -1.16686 -1.56984 0
M  V30 67950 C 6493.47 0.262773 -2.09458 0
M  V30 67951 O 6492.82 1.2633 -1.90402 0
M  V30 67952 C 6493.03 -2.21666 -2.69565 0
M  V30 67953 C 6494.38 -2.56353 -3.3848 0
M  V30 67954 O 6495.4 -2.20412 -2.79816 0
M  V30 67955 O 6494.26 -3.18069 -4.44404 0
M  V30 67956 H 6491.36 -0.451969 -0.69257 0
M  V30 67957 H 6493.9 -1.45675 -0.870447 0
M  V30 67958 H 6492.67 -3.17651 -2.28503 0
M  V30 67959 H 6492.3 -1.93821 -3.47159 0
M  V30 67960 N 6493.29 1.0481 -1.17698 0
M  V30 67961 C 6494.53 1.79451 -0.978609 0
M  V30 67962 C 6494.9 1.85804 0.483838 0
M  V30 67963 O 6496.1 2.56575 0.801405 0
M  V30 67964 C 6494.37 3.1925 -1.60667 0
M  V30 67965 S 6495.93 4.10322 -1.55504 0
M  V30 67966 H 6492.75 0.617987 -0.351587 0
M  V30 67967 H 6495.35 1.25726 -1.4971 0
M  V30 67968 H 6494.05 3.12231 -2.66345 0
M  V30 67969 H 6493.58 3.78052 -1.08815 0
M  V30 67970 H 6495.6 4.92965 -0.565699 0
M  V30 67971 N 6494.77 0.977823 1.23598 0
M  V30 67972 C 6496.05 0.561779 1.87359 0
M  V30 67973 C 6496.43 -0.9611 1.87952 0
M  V30 67974 O 6495.78 -1.83673 1.35928 0
M  V30 67975 C 6495.99 1.16489 3.28985 0
M  V30 67976 C 6497.33 1.25604 4.05597 0
M  V30 67977 O 6498.36 1.11816 3.38195 0
M  V30 67978 O 6497.22 1.47512 5.26215 0
M  V30 67979 H 6494.31 0.188788 0.805163 0
M  V30 67980 H 6496.86 1.07274 1.31493 0
M  V30 67981 H 6495.63 2.20722 3.23106 0
M  V30 67982 H 6495.25 0.638595 3.92438 0
M  V30 67983 N 6496.25 -1.38656 0.749159 0
M  V30 67984 C 6497.18 -2.33116 0.133879 0
M  V30 67985 C 6498.16 -1.54641 -0.708529 0
M  V30 67986 O 6499.35 -1.82977 -0.65062 0
M  V30 67987 C 6496.48 -3.38805 -0.763444 0
M  V30 67988 C 6495.43 -4.27993 -0.0241073 0
M  V30 67989 C 6494.76 -5.24501 -1.03939 0
M  V30 67990 C 6496.06 -5.09669 1.14169 0
M  V30 67991 H 6497.75 -2.84819 0.922942 0
M  V30 67992 H 6495.3 -1.36943 0.44527 0
M  V30 67993 H 6497.25 -4.03848 -1.20352 0
M  V30 67994 H 6495.97 -2.85574 -1.58478 0
M  V30 67995 H 6494.63 -3.6445 0.396498 0
M  V30 67996 H 6494.28 -4.67559 -1.85467 0
M  V30 67997 H 6493.98 -5.85026 -0.549382 0
M  V30 67998 H 6495.5 -5.9242 -1.47887 0
M  V30 67999 H 6496.92 -5.67978 0.779374 0
M  V30 68000 H 6495.31 -5.79408 1.56226 0
M  V30 68001 H 6496.38 -4.43668 1.9567 0
M  V30 68002 N 6497.73 -0.497886 -1.49529 0
M  V30 68003 C 6498.97 0.0478082 -2.02744 0
M  V30 68004 C 6499.31 1.36932 -1.37707 0
M  V30 68005 O 6498.58 1.87648 -0.511703 0
M  V30 68006 C 6498.86 0.203622 -3.59524 0
M  V30 68007 C 6498.72 -1.1408 -4.35093 0
M  V30 68008 C 6500.04 0.945718 -4.29819 0
M  V30 68009 H 6497.16 0.0159005 -0.736828 0
M  V30 68010 H 6499.8 -0.648692 -1.78583 0
M  V30 68011 H 6497.95 0.796853 -3.8024 0
M  V30 68012 H 6499.62 -1.77267 -4.25881 0
M  V30 68013 H 6497.86 -1.73085 -3.97774 0
M  V30 68014 H 6498.53 -0.985114 -5.43139 0
M  V30 68015 H 6501.01 0.442625 -4.13739 0
M  V30 68016 H 6499.89 1.02358 -5.39272 0
M  V30 68017 H 6500.15 1.9887 -3.94846 0
M  V30 68018 N 6499.21 1.55889 -0.231587 0
M  V30 68019 C 6500.17 2.19464 0.660935 0
M  V30 68020 C 6501.17 1.1594 1.1142 0
M  V30 68021 O 6502.36 1.41115 1.02139 0
M  V30 68022 C 6499.49 2.82598 1.90659 0
M  V30 68023 H 6500.68 2.99711 0.106502 0
M  V30 68024 H 6498.24 1.5629 0.0180053 0
M  V30 68025 H 6498.97 2.06248 2.50264 0
M  V30 68026 H 6498.76 3.58418 1.58994 0
M  V30 68027 H 6500.25 3.31299 2.54226 0
M  V30 68028 N 6500.68 -0.0417018 1.57545 0
M  V30 68029 C 6501.61 -1.04595 2.08763 0
M  V30 68030 C 6502.59 -1.38507 0.987417 0
M  V30 68031 O 6503.78 -1.47611 1.26193 0
M  V30 68032 C 6500.91 -2.35067 2.55657 0
M  V30 68033 C 6499.86 -2.15431 3.69829 0
M  V30 68034 C 6499.19 -3.51552 4.02883 0
M  V30 68035 C 6500.49 -1.5508 4.98746 0
M  V30 68036 H 6502.18 -0.619629 2.92918 0
M  V30 68037 H 6499.73 -0.296609 1.40912 0
M  V30 68038 H 6501.68 -3.0564 2.90108 0
M  V30 68039 H 6500.41 -2.79735 1.6857 0
M  V30 68040 H 6499.07 -1.47294 3.35708 0
M  V30 68041 H 6498.71 -3.93846 3.12881 0
M  V30 68042 H 6498.41 -3.39243 4.79779 0
M  V30 68043 H 6499.94 -4.23507 4.39857 0
M  V30 68044 H 6501.35 -2.15554 5.31234 0
M  V30 68045 H 6499.75 -1.53383 5.80167 0
M  V30 68046 H 6500.82 -0.515267 4.82155 0
M  V30 68047 N 6502.16 -1.54446 -0.313732 0
M  V30 68048 C 6503.09 -1.87511 -1.39147 0
M  V30 68049 C 6504.07 -0.732806 -1.53506 0
M  V30 68050 O 6505.26 -0.987419 -1.67223 0
M  V30 68051 C 6502.39 -2.11117 -2.75766 0
M  V30 68052 C 6501.34 -3.26964 -2.76186 0
M  V30 68053 C 6500.67 -3.35962 -4.15973 0
M  V30 68054 C 6501.97 -4.6438 -2.39057 0
M  V30 68055 H 6503.66 -2.77774 -1.11723 0
M  V30 68056 H 6501.21 -1.33652 -0.536007 0
M  V30 68057 H 6503.16 -2.32833 -3.51236 0
M  V30 68058 H 6501.88 -1.17613 -3.04688 0
M  V30 68059 H 6500.54 -3.05151 -2.03171 0
M  V30 68060 H 6500.19 -2.39998 -4.42052 0
M  V30 68061 H 6499.89 -4.13827 -4.17158 0
M  V30 68062 H 6501.42 -3.59924 -4.93242 0
M  V30 68063 H 6502.83 -4.85912 -3.04241 0
M  V30 68064 H 6501.23 -5.44867 -2.51477 0
M  V30 68065 H 6502.3 -4.65961 -1.34195 0
M  V30 68066 N 6503.64 0.576294 -1.46685 0
M  V30 68067 C 6504.55 1.71263 -1.60332 0
M  V30 68068 C 6505.57 1.67057 -0.486617 0
M  V30 68069 O 6506.74 1.8685 -0.751605 0
M  V30 68070 C 6503.81 3.0777 -1.59621 0
M  V30 68071 C 6502.87 3.2319 -2.82572 0
M  V30 68072 C 6502.1 4.53185 -2.81885 0
M  V30 68073 O 6502.32 5.37472 -1.90998 0
M  V30 68074 O 6501.26 4.71989 -3.7351 0
M  V30 68075 H 6505.08 1.62696 -2.56444 0
M  V30 68076 H 6502.67 0.74409 -1.29552 0
M  V30 68077 H 6504.55 3.89041 -1.61942 0
M  V30 68078 H 6503.23 3.1676 -0.666695 0
M  V30 68079 H 6502.13 2.41388 -2.85802 0
M  V30 68080 H 6503.47 3.19094 -3.74753 0
M  V30 68081 N 6505.12 1.34498 0.821463 0
M  V30 68082 C 6506.4 1.17517 1.56362 0
M  V30 68083 C 6506.78 -0.251661 2.09595 0
M  V30 68084 O 6506.12 -1.25319 1.91069 0
M  V30 68085 C 6506.33 2.23093 2.68385 0
M  V30 68086 C 6507.68 2.58144 3.37115 0
M  V30 68087 O 6508.71 2.21893 2.78643 0
M  V30 68088 O 6507.56 3.20421 4.42711 0
M  V30 68089 H 6504.66 0.455635 0.690163 0
M  V30 68090 H 6507.2 1.46135 0.862709 0
M  V30 68091 H 6505.98 3.18858 2.26816 0
M  V30 68092 H 6505.6 1.95659 3.46126 0
M  V30 68093 N 6506.6 -1.04184 1.18252 0
M  V30 68094 C 6507.87 -1.74341 0.886819 0
M  V30 68095 C 6508.25 -2.02076 -0.610604 0
M  V30 68096 O 6507.6 -1.66497 -1.56496 0
M  V30 68097 C 6507.81 -3.02946 1.73277 0
M  V30 68098 C 6509.16 -3.76705 1.95905 0
M  V30 68099 O 6510.18 -3.12841 1.7032 0
M  V30 68100 O 6509.04 -4.91485 2.38967 0
M  V30 68101 H 6506.14 -0.758605 0.329315 0
M  V30 68102 H 6508.68 -1.1026 1.28999 0
M  V30 68103 H 6507.45 -2.78577 2.74792 0
M  V30 68104 H 6507.08 -3.74765 1.32804 0
M  V30 68105 N 6508.07 -0.984364 -1.23077 0
M  V30 68106 C 6509.3 -0.673271 -1.96168 0
M  V30 68107 C 6509.72 0.753897 -1.72331 0
M  V30 68108 O 6509.08 1.51411 -0.99722 0
M  V30 68109 C 6509.13 -0.974388 -3.47186 0
M  V30 68110 O 6508.23 -0.0685144 -4.12343 0
M  V30 68111 H 6507.58 -0.252822 -0.613984 0
M  V30 68112 H 6510.11 -1.31903 -1.56406 0
M  V30 68113 H 6510.12 -0.912717 -3.9766 0
M  V30 68114 H 6508.79 -2.01439 -3.63861 0
M  V30 68115 H 6507.37 -0.184936 -3.72441 0
M  V30 68116 N 6509.55 1.38256 -0.756502 0
M  V30 68117 C 6510.8 1.99656 -0.313341 0
M  V30 68118 C 6511.12 1.60351 1.10961 0
M  V30 68119 O 6510.39 0.861728 1.75929 0
M  V30 68120 H 6508.97 0.738424 -0.112864 0
M  V30 68121 H 6511.63 1.68976 -0.971244 0
M  V30 68122 H 6510.73 3.09793 -0.378798 0
M  V30 68123 N 6511.03 0.505809 1.49263 0
M  V30 68124 C 6511.96 -0.316795 2.2599 0
M  V30 68125 C 6512.94 -0.966172 1.30782 0
M  V30 68126 O 6514.13 -0.995327 1.6008 0
M  V30 68127 C 6511.25 -1.44656 3.06255 0
M  V30 68128 C 6510.3 -0.911064 4.16656 0
M  V30 68129 S 6511.13 0.20198 5.35119 0
M  V30 68130 C 6512.29 -0.930834 6.1894 0
M  V30 68131 H 6512.52 0.334428 2.95413 0
M  V30 68132 H 6510.05 0.291184 1.51629 0
M  V30 68133 H 6512.01 -2.09386 3.53083 0
M  V30 68134 H 6510.67 -2.06941 2.36293 0
M  V30 68135 H 6509.87 -1.75787 4.7235 0
M  V30 68136 H 6509.47 -0.340887 3.72443 0
M  V30 68137 H 6511.76 -1.83499 6.52177 0
M  V30 68138 H 6512.7 -0.412398 7.06898 0
M  V30 68139 H 6513.11 -1.20034 5.51591 0
M  V30 68140 N 6512.51 -1.55764 0.239851 0
M  V30 68141 C 6513.42 -2.24722 -0.673579 0
M  V30 68142 C 6514.43 -1.26095 -1.199 0
M  V30 68143 O 6515.61 -1.58954 -1.23675 0
M  V30 68144 C 6512.68 -2.92779 -1.85692 0
M  V30 68145 C 6511.74 -4.06797 -1.37167 0
M  V30 68146 C 6510.97 -4.71598 -2.49861 0
M  V30 68147 O 6511.19 -4.3545 -3.68428 0
M  V30 68148 O 6510.13 -5.60245 -2.20021 0
M  V30 68149 H 6513.95 -3.03478 -0.116036 0
M  V30 68150 H 6511.54 -1.49398 0.00864025 0
M  V30 68151 H 6513.42 -3.35669 -2.54763 0
M  V30 68152 H 6512.09 -2.16968 -2.40222 0
M  V30 68153 H 6511 -3.68437 -0.648453 0
M  V30 68154 H 6512.33 -4.84404 -0.872546 0
M  V30 68155 N 6513.99 0.0333462 -1.57565 0
M  V30 68156 C 6514.92 1.03486 -2.09315 0
M  V30 68157 C 6515.9 1.37981 -0.994748 0
M  V30 68158 O 6517.08 1.4694 -1.26974 0
M  V30 68159 C 6514.21 2.33708 -2.56901 0
M  V30 68160 C 6513.17 2.13467 -3.70966 0
M  V30 68161 C 6512.49 3.49411 -4.04742 0
M  V30 68162 C 6513.79 1.52433 -4.99561 0
M  V30 68163 H 6515.49 0.604086 -2.93242 0
M  V30 68164 H 6513.03 0.289132 -1.41067 0
M  V30 68165 H 6514.99 3.04097 -2.91724 0
M  V30 68166 H 6513.71 2.78837 -1.70051 0
M  V30 68167 H 6512.37 1.45511 -3.36485 0
M  V30 68168 H 6512.02 3.92181 -3.14965 0
M  V30 68169 H 6511.72 3.36694 -4.81571 0
M  V30 68170 H 6513.24 4.21169 -4.42096 0
M  V30 68171 H 6514.65 2.12734 -5.32369 0
M  V30 68172 H 6513.05 1.50304 -5.80972 0
M  V30 68173 H 6514.12 0.48969 -4.82421 0
M  V30 68174 N 6515.46 1.5461 0.305537 0
M  V30 68175 C 6516.39 1.88247 1.3815 0
M  V30 68176 C 6517.38 0.740937 1.53115 0
M  V30 68177 O 6518.56 0.996273 1.66697 0
M  V30 68178 C 6515.69 2.12577 2.74643 0
M  V30 68179 C 6514.64 3.28424 2.74448 0
M  V30 68180 C 6513.97 3.38163 4.14186 0
M  V30 68181 C 6515.27 4.65642 2.36591 0
M  V30 68182 H 6516.96 2.78363 1.10248 0
M  V30 68183 H 6514.51 1.33935 0.528911 0
M  V30 68184 H 6516.46 2.34693 3.49996 0
M  V30 68185 H 6515.19 1.19227 3.0406 0
M  V30 68186 H 6513.85 3.06224 2.0155 0
M  V30 68187 H 6513.49 2.42339 4.40773 0
M  V30 68188 H 6513.19 4.16033 4.14958 0
M  V30 68189 H 6514.72 3.62534 4.91326 0
M  V30 68190 H 6516.13 4.87518 3.0166 0
M  V30 68191 H 6514.53 5.46193 2.48583 0
M  V30 68192 H 6515.6 4.66666 1.31722 0
M  V30 68193 N 6516.94 -0.568506 1.46989 0
M  V30 68194 C 6518.19 -1.32813 1.53259 0
M  V30 68195 C 6518.52 -1.93273 0.189526 0
M  V30 68196 O 6517.8 -1.77257 -0.800637 0
M  V30 68197 C 6518.08 -2.44679 2.64205 0
M  V30 68198 C 6517.93 -1.89162 4.0809 0
M  V30 68199 C 6519.25 -3.46662 2.71134 0
M  V30 68200 H 6516.37 -0.481545 0.557928 0
M  V30 68201 H 6519.01 -0.637292 1.78993 0
M  V30 68202 H 6517.16 -3.03608 2.42393 0
M  V30 68203 H 6518.83 -1.34581 4.41232 0
M  V30 68204 H 6517.08 -1.19903 4.169 0
M  V30 68205 H 6517.75 -2.69978 4.81472 0
M  V30 68206 H 6520.22 -2.97635 2.9078 0
M  V30 68207 H 6519.1 -4.22375 3.50558 0
M  V30 68208 H 6519.36 -4.04796 1.77744 0
M  V30 68209 N 6518.42 -1.34932 -0.814318 0
M  V30 68210 C 6519.37 -1.27238 -1.94713 0
M  V30 68211 C 6520.36 -0.168789 -1.68557 0
M  V30 68212 O 6521.57 -0.334297 -1.76868 0
M  V30 68213 H 6517.94 -0.395497 -0.639598 0
M  V30 68214 H 6519.92 -2.22958 -1.98324 0
M  V30 68215 C 6518.66 -1.05342 -3.31358 0
M  V30 68216 H 6517.99 -1.89497 -3.52038 0
M  V30 68217 H 6519.43 -1.03997 -4.11048 0
M  V30 68218 C 6517.89 0.243014 -3.36022 0
M  V30 68219 O 6518.42 1.24146 -3.82035 0
M  V30 68220 N 6516.62 0.279112 -2.89257 0
M  V30 68221 H 6516.17 -0.533982 -2.52005 0
M  V30 68222 H 6516.13 1.14628 -2.92759 0
M  V30 68223 N 6519.9 1.03555 -1.18803 0
M  V30 68224 C 6520.85 2.13796 -0.916191 0
M  V30 68225 C 6521.84 1.68935 0.125476 0
M  V30 68226 O 6523.05 1.79985 -0.0231497 0
M  V30 68227 H 6519.42 0.698394 -0.278835 0
M  V30 68228 H 6521.39 2.33918 -1.8527 0
M  V30 68229 C 6520.14 3.44589 -0.464047 0
M  V30 68230 H 6519.47 3.79522 -1.25711 0
M  V30 68231 H 6520.91 4.22844 -0.312887 0
M  V30 68232 C 6519.36 3.26746 0.820893 0
M  V30 68233 O 6519.89 3.54784 1.8839 0
M  V30 68234 N 6518.1 2.80061 0.77551 0
M  V30 68235 H 6517.65 2.57443 -0.0897845 0
M  V30 68236 H 6517.61 2.68503 1.63565 0
M  V30 68237 N 6521.38 0.990877 1.22554 0
M  V30 68238 C 6522.32 0.539461 2.24407 0
M  V30 68239 C 6523.29 -0.427143 1.60514 0
M  V30 68240 O 6524.48 -0.332353 1.87883 0
M  V30 68241 C 6521.62 -0.141735 3.44809 0
M  V30 68242 C 6520.73 0.866369 4.23223 0
M  V30 68243 C 6519.87 0.158899 5.30962 0
M  V30 68244 C 6518.91 1.15551 6.01094 0
M  V30 68245 N 6518.04 0.476483 7.00481 0
M  V30 68246 H 6522.88 1.41276 2.62384 0
M  V30 68247 H 6520.42 0.707709 1.28957 0
M  V30 68248 H 6522.38 -0.553582 4.13511 0
M  V30 68249 H 6521.01 -0.978832 3.07602 0
M  V30 68250 H 6520.06 1.39655 3.53837 0
M  V30 68251 H 6521.37 1.62537 4.71575 0
M  V30 68252 H 6520.53 -0.309782 6.05909 0
M  V30 68253 H 6519.27 -0.632624 4.8358 0
M  V30 68254 H 6518.27 1.63484 5.24931 0
M  V30 68255 H 6519.5 1.94787 6.50565 0
M  V30 68256 H 6517.44 -0.29564 6.55333 0
M  V30 68257 H 6517.36 1.17397 7.46829 0
M  V30 68258 H 6518.63 0.0305378 7.79494 0
M  V30 68259 N 6522.86 -1.37853 0.763824 0
M  V30 68260 C 6524.1 -1.99125 0.321293 0
M  V30 68261 C 6524.42 -1.61322 -1.1061 0
M  V30 68262 O 6525.62 -2.15639 -1.64961 0
M  V30 68263 C 6524.08 -3.56072 0.523496 0
M  V30 68264 C 6523.69 -4.02819 1.96063 0
M  V30 68265 C 6525.43 -4.24255 0.144192 0
M  V30 68266 C 6523.34 -5.52446 2.11085 0
M  V30 68267 H 6522.27 -0.744964 0.116383 0
M  V30 68268 H 6524.92 -1.57486 0.941824 0
M  V30 68269 H 6523.3 -3.9565 -0.166374 0
M  V30 68270 H 6524.48 -3.74506 2.68481 0
M  V30 68271 H 6522.79 -3.47393 2.2958 0
M  V30 68272 H 6525.39 -5.34183 0.235053 0
M  V30 68273 H 6525.73 -4.06354 -0.904533 0
M  V30 68274 H 6526.26 -3.89951 0.786306 0
M  V30 68275 H 6523 -5.75264 3.14248 0
M  V30 68276 H 6522.52 -5.82469 1.43141 0
M  V30 68277 H 6524.2 -6.18299 1.90567 0
M  V30 68278 N 6524.33 -0.513718 -1.48992 0
M  V30 68279 C 6525.58 0.028176 -2.0168 0
M  V30 68280 C 6525.9 1.3686 -1.39745 0
M  V30 68281 O 6527.1 1.99792 -1.83835 0
M  V30 68282 C 6525.56 0.10065 -3.59759 0
M  V30 68283 C 6525.17 -1.2339 -4.30673 0
M  V30 68284 C 6526.91 0.592233 -4.20348 0
M  V30 68285 C 6524.82 -1.12289 -5.80642 0
M  V30 68286 H 6523.75 0.0143023 -0.753864 0
M  V30 68287 H 6526.4 -0.655054 -1.7141 0
M  V30 68288 H 6524.78 0.848607 -3.86801 0
M  V30 68289 H 6525.95 -1.99614 -4.1532 0
M  V30 68290 H 6524.27 -1.65992 -3.81884 0
M  V30 68291 H 6526.87 0.692993 -5.3019 0
M  V30 68292 H 6527.21 1.59415 -3.84568 0
M  V30 68293 H 6527.74 -0.09956 -3.97675 0
M  V30 68294 H 6524.48 -2.09947 -6.20969 0
M  V30 68295 H 6524 -0.401747 -5.98453 0
M  V30 68296 H 6525.68 -0.80684 -6.41949 0
M  V30 68297 N 6525.81 1.55635 -0.248108 0
M  V30 68298 C 6527.04 2.03826 0.383367 0
M  V30 68299 C 6527.46 1.12616 1.50662 0
M  V30 68300 O 6526.82 0.119359 1.80907 0
M  V30 68301 C 6526.87 3.50013 0.867357 0
M  V30 68302 O 6525.97 3.61932 1.97684 0
M  V30 68303 H 6525.31 0.658743 0.0833858 0
M  V30 68304 H 6527.84 2.01143 -0.374518 0
M  V30 68305 H 6527.85 3.90857 1.17026 0
M  V30 68306 H 6526.53 4.15875 0.0453879 0
M  V30 68307 H 6525.1 3.32985 1.67854 0
M  V30 68308 N 6527.29 -0.0249897 1.5758 0
M  V30 68309 C 6528.22 -1.02375 2.09861 0
M  V30 68310 C 6529.2 -1.37452 1.00205 0
M  V30 68311 O 6530.39 -1.46264 1.27751 0
M  V30 68312 C 6527.52 -2.32342 2.58136 0
M  V30 68313 C 6526.47 -2.11496 3.72093 0
M  V30 68314 C 6525.8 -3.47259 4.0659 0
M  V30 68315 C 6527.1 -1.49782 5.00363 0
M  V30 68316 H 6528.79 -0.588527 2.93559 0
M  V30 68317 H 6526.34 -0.281647 1.41219 0
M  V30 68318 H 6528.29 -3.02545 2.93333 0
M  V30 68319 H 6527.01 -2.77932 1.71527 0
M  V30 68320 H 6525.67 -1.43725 3.37252 0
M  V30 68321 H 6525.32 -3.90505 3.17041 0
M  V30 68322 H 6525.02 -3.34136 4.8335 0
M  V30 68323 H 6526.54 -4.18818 4.44324 0
M  V30 68324 H 6527.96 -2.09908 5.3349 0
M  V30 68325 H 6526.35 -1.47221 5.81761 0
M  V30 68326 H 6527.42 -0.464099 4.82674 0
M  V30 68327 N 6528.77 -1.5477 -0.297333 0
M  V30 68328 C 6530.04 -1.64908 -1.0519 0
M  V30 68329 C 6530.42 -0.49973 -2.051 0
M  V30 68330 O 6529.77 0.503123 -2.22892 0
M  V30 68331 C 6529.98 -3.03077 -1.73048 0
M  V30 68332 C 6531.33 -3.60015 -2.2511 0
M  V30 68333 O 6532.35 -3.05552 -1.83074 0
M  V30 68334 O 6531.21 -4.55382 -3.02142 0
M  V30 68335 H 6528.31 -0.668823 -0.486421 0
M  V30 68336 H 6530.85 -1.67114 -0.295129 0
M  V30 68337 H 6529.63 -3.78168 -1.0052 0
M  V30 68338 H 6529.25 -3.04664 -2.55472 0
M  V30 68339 N 6530.25 0.560703 -1.47288 0
M  V30 68340 C 6531.18 1.67786 -1.62389 0
M  V30 68341 C 6532.16 1.63379 -0.473434 0
M  V30 68342 O 6533.34 1.81054 -0.702351 0
M  V30 68343 C 6530.47 3.06426 -1.63464 0
M  V30 68344 C 6529.43 3.25678 -2.77701 0
M  V30 68345 C 6528.75 4.65068 -2.63848 0
M  V30 68346 C 6530.05 3.11389 -4.19326 0
M  V30 68347 H 6531.75 1.55405 -2.55909 0
M  V30 68348 H 6529.29 0.746207 -1.23157 0
M  V30 68349 H 6531.24 3.84422 -1.72619 0
M  V30 68350 H 6529.97 3.19758 -0.665016 0
M  V30 68351 H 6528.63 2.50088 -2.68051 0
M  V30 68352 H 6528.28 4.75195 -1.6492 0
M  V30 68353 H 6527.98 4.78899 -3.40484 0
M  V30 68354 H 6529.5 5.45204 -2.74926 0
M  V30 68355 H 6530.91 3.79207 -4.29971 0
M  V30 68356 H 6529.31 3.36731 -4.96721 0
M  V30 68357 H 6530.38 2.08179 -4.37938 0
M  V30 68358 N 6531.72 1.35362 0.807151 0
M  V30 68359 C 6533.13 1.25629 1.3811 0
M  V30 68360 C 6533.49 -0.111561 1.95883 0
M  V30 68361 O 6532.61 -1.01249 1.91252 0
M  V30 68362 C 6533.21 2.27473 2.5108 0
M  V30 68363 C 6531.76 2.21483 3.04339 0
M  V30 68364 C 6530.91 2.13214 1.77299 0
M  V30 68365 H 6533.86 1.46499 0.610234 0
M  V30 68366 H 6533.88 1.90088 3.29616 0
M  V30 68367 H 6533.4 3.27016 2.09002 0
M  V30 68368 H 6531.5 1.25349 3.50882 0
M  V30 68369 H 6531.61 3.13421 3.62359 0
M  V30 68370 H 6529.97 1.59183 1.98829 0
M  V30 68371 H 6530.76 3.14616 1.37374 0
M  V30 68372 N 6533.2 -1.02924 1.1935 0
M  V30 68373 C 6534.45 -1.76579 0.997386 0
M  V30 68374 C 6534.78 -1.88408 -0.470734 0
M  V30 68375 O 6534.06 -1.40061 -1.34956 0
M  V30 68376 C 6534.34 -3.19213 1.66659 0
M  V30 68377 C 6534.19 -3.15256 3.20833 0
M  V30 68378 C 6535.51 -4.17597 1.38927 0
M  V30 68379 H 6532.63 -0.640983 0.363745 0
M  V30 68380 H 6535.27 -1.20154 1.47184 0
M  V30 68381 H 6533.42 -3.67391 1.26319 0
M  V30 68382 H 6535.09 -2.7498 3.70383 0
M  V30 68383 H 6533.34 -2.52981 3.52396 0
M  V30 68384 H 6534.01 -4.16027 3.62802 0
M  V30 68385 H 6536.48 -3.78018 1.739 0
M  V30 68386 H 6535.36 -5.15591 1.88301 0
M  V30 68387 H 6535.62 -4.40981 0.314353 0
M  V30 68388 N 6534.68 -0.997362 -1.22026 0
M  V30 68389 C 6535.64 -0.55643 -2.22343 0
M  V30 68390 C 6536.64 0.36311 -1.56647 0
M  V30 68391 O 6537.83 0.15445 -1.73514 0
M  V30 68392 C 6534.97 0.190052 -3.4037 0
M  V30 68393 H 6536.16 -1.44364 -2.62867 0
M  V30 68394 H 6533.71 -0.785047 -1.35154 0
M  V30 68395 H 6534.45 1.09304 -3.05324 0
M  V30 68396 H 6534.23 -0.470251 -3.8927 0
M  V30 68397 H 6535.72 0.486562 -4.14756 0
M  V30 68398 N 6536.16 1.37446 -0.771123 0
M  V30 68399 C 6537.07 2.34069 -0.157713 0
M  V30 68400 C 6538.08 1.60148 0.680348 0
M  V30 68401 O 6539.26 1.92242 0.600414 0
M  V30 68402 C 6536.33 3.39318 0.711614 0
M  V30 68403 C 6535.39 4.29062 -0.142833 0
M  V30 68404 C 6534.62 5.29285 0.685098 0
M  V30 68405 O 6534.84 5.37035 1.92222 0
M  V30 68406 O 6533.78 6.01826 0.0946315 0
M  V30 68407 H 6537.6 2.88256 -0.956138 0
M  V30 68408 H 6535.19 1.39597 -0.532273 0
M  V30 68409 H 6537.07 4.03717 1.20792 0
M  V30 68410 H 6535.74 2.8746 1.48824 0
M  V30 68411 H 6534.65 3.67766 -0.685486 0
M  V30 68412 H 6535.98 4.84223 -0.882526 0
M  V30 68413 N 6537.64 0.521612 1.48718 0
M  V30 68414 C 6538.88 -0.0155474 2.02794 0
M  V30 68415 C 6539.22 -1.34724 1.39868 0
M  V30 68416 O 6538.49 -1.8681 0.541492 0
M  V30 68417 C 6538.77 -0.1464 3.59802 0
M  V30 68418 C 6538.63 1.20987 4.33223 0
M  V30 68419 C 6539.95 -0.877218 4.31269 0
M  V30 68420 H 6537.06 -0.00417616 0.736988 0
M  V30 68421 H 6539.71 0.677021 1.77529 0
M  V30 68422 H 6537.86 -0.736259 3.8146 0
M  V30 68423 H 6539.53 1.8402 4.23006 0
M  V30 68424 H 6537.77 1.79392 3.9497 0
M  V30 68425 H 6538.44 1.0714 5.41503 0
M  V30 68426 H 6540.92 -0.376746 4.14391 0
M  V30 68427 H 6539.79 -0.937656 5.40832 0
M  V30 68428 H 6540.06 -1.92564 3.97959 0
M  V30 68429 N 6539.11 -1.55501 0.256358 0
M  V30 68430 C 6540.34 -2.03277 -0.369083 0
M  V30 68431 C 6540.75 -1.13472 -1.51396 0
M  V30 68432 O 6540.1 -0.143482 -1.83139 0
M  V30 68433 C 6540.16 -3.47268 -0.929797 0
M  V30 68434 C 6539.82 -4.56923 0.084037 0
M  V30 68435 C 6540.82 -5.12104 0.896944 0
M  V30 68436 C 6538.5 -5.01849 0.212861 0
M  V30 68437 C 6540.5 -6.10714 1.82504 0
M  V30 68438 C 6538.18 -6.00288 1.14445 0
M  V30 68439 C 6539.18 -6.546 1.94906 0
M  V30 68440 O 6538.87 -7.51117 2.86493 0
M  V30 68441 H 6538.6 -0.669885 -0.0907219 0
M  V30 68442 H 6541.16 -2.01842 0.380632 0
M  V30 68443 H 6539.39 -3.45881 -1.72925 0
M  V30 68444 H 6541.08 -3.78489 -1.46632 0
M  V30 68445 H 6541.84 -4.78221 0.808055 0
M  V30 68446 H 6537.72 -4.59232 -0.403366 0
M  V30 68447 H 6541.26 -6.53031 2.45348 0
M  V30 68448 H 6537.16 -6.33591 1.23423 0
M  V30 68449 H 6537.93 -7.68767 2.80962 0
M  V30 68450 N 6540.59 0.0166325 -1.57591 0
M  V30 68451 C 6541.54 1.01335 -2.07364 0
M  V30 68452 C 6542.51 1.35162 -0.965427 0
M  V30 68453 O 6543.69 1.45285 -1.2368 0
M  V30 68454 C 6540.83 2.30536 -2.56802 0
M  V30 68455 C 6539.95 2.02759 -3.81461 0
M  V30 68456 C 6539.08 3.2592 -4.19463 0
M  V30 68457 C 6538.12 2.93754 -5.37006 0
M  V30 68458 N 6537.26 4.09403 -5.7038 0
M  V30 68459 H 6542.1 0.581966 -2.92262 0
M  V30 68460 H 6539.64 0.275722 -1.44493 0
M  V30 68461 H 6541.59 3.06044 -2.83537 0
M  V30 68462 H 6540.22 2.71374 -1.74802 0
M  V30 68463 H 6539.28 1.17693 -3.61735 0
M  V30 68464 H 6540.59 1.75039 -4.67079 0
M  V30 68465 H 6539.74 4.09786 -4.47393 0
M  V30 68466 H 6538.48 3.56764 -3.32522 0
M  V30 68467 H 6537.49 2.08292 -5.08817 0
M  V30 68468 H 6538.71 2.64175 -6.2561 0
M  V30 68469 H 6536.66 4.40175 -4.86397 0
M  V30 68470 H 6536.57 3.8515 -6.50535 0
M  V30 68471 H 6537.84 4.94106 -6.02893 0
M  V30 68472 N 6542.07 1.54925 0.289121 0
M  V30 68473 C 6543.02 1.86697 1.35694 0
M  V30 68474 C 6543.99 0.716937 1.49831 0
M  V30 68475 O 6545.17 0.966695 1.64498 0
M  V30 68476 C 6542.31 2.13028 2.71501 0
M  V30 68477 C 6541.43 3.40614 2.65718 0
M  V30 68478 C 6540.56 3.56727 3.93597 0
M  V30 68479 C 6539.6 4.78063 3.82259 0
M  V30 68480 N 6538.74 4.90919 5.01939 0
M  V30 68481 H 6543.58 2.7778 1.079 0
M  V30 68482 H 6541.11 1.37541 0.521632 0
M  V30 68483 H 6543.07 2.26292 3.50496 0
M  V30 68484 H 6541.7 1.25198 2.97532 0
M  V30 68485 H 6540.75 3.35908 1.78522 0
M  V30 68486 H 6542.07 4.29737 2.53234 0
M  V30 68487 H 6541.22 3.69721 4.81032 0
M  V30 68488 H 6539.96 2.6576 4.08929 0
M  V30 68489 H 6538.96 4.6509 2.93209 0
M  V30 68490 H 6540.19 5.7045 3.68462 0
M  V30 68491 H 6538.13 4.02877 5.17712 0
M  V30 68492 H 6538.05 5.74061 4.91924 0
M  V30 68493 H 6539.32 5.08281 5.90991 0
M  V30 68494 N 6543.55 -0.552884 1.47584 0
M  V30 68495 C 6544.79 -1.3118 1.5466 0
M  V30 68496 C 6545.13 -1.93061 0.210014 0
M  V30 68497 O 6544.4 -1.78096 -0.781792 0
M  V30 68498 C 6544.69 -2.41863 2.66785 0
M  V30 68499 C 6544.54 -1.84823 4.10074 0
M  V30 68500 C 6545.86 -3.43766 2.74796 0
M  V30 68501 H 6542.98 -0.4756 0.563004 0
M  V30 68502 H 6545.62 -0.618272 1.79659 0
M  V30 68503 H 6543.77 -3.0102 2.45599 0
M  V30 68504 H 6545.44 -1.29893 4.42635 0
M  V30 68505 H 6543.68 -1.15474 4.18148 0
M  V30 68506 H 6544.35 -2.64857 4.84309 0
M  V30 68507 H 6546.83 -2.94534 2.9392 0
M  V30 68508 H 6545.71 -4.18633 3.55018 0
M  V30 68509 H 6545.97 -4.02888 1.82027 0
M  V30 68510 N 6545.03 -1.35788 -0.799961 0
M  V30 68511 C 6546.27 -1.30631 -1.55908 0
M  V30 68512 C 6546.63 0.116501 -1.92047 0
M  V30 68513 O 6545.92 1.06852 -1.59039 0
M  V30 68514 C 6546.11 -2.15271 -2.85295 0
M  V30 68515 C 6545.94 -3.65639 -2.61798 0
M  V30 68516 C 6544.71 -4.34852 -2.57355 0
M  V30 68517 C 6546.91 -4.59141 -2.31719 0
M  V30 68518 N 6544.89 -5.70927 -2.25646 0
M  V30 68519 C 6546.26 -5.83386 -2.09906 0
M  V30 68520 C 6548.32 -4.47815 -2.17638 0
M  V30 68521 C 6547.02 -6.97577 -1.75437 0
M  V30 68522 C 6549.05 -5.61862 -1.84566 0
M  V30 68523 C 6548.41 -6.8514 -1.63593 0
M  V30 68524 H 6544.51 -0.533277 -0.571961 0
M  V30 68525 H 6547.09 -1.70736 -0.935807 0
M  V30 68526 H 6545.26 -1.77427 -3.45506 0
M  V30 68527 H 6547 -2.01583 -3.50922 0
M  V30 68528 H 6543.75 -3.87537 -2.72235 0
M  V30 68529 H 6544.18 -6.42763 -2.12566 0
M  V30 68530 H 6548.82 -3.53103 -2.32547 0
M  V30 68531 H 6546.54 -7.9225 -1.59265 0
M  V30 68532 H 6550.12 -5.55056 -1.74369 0
M  V30 68533 H 6549 -7.71895 -1.38377 0
M  V30 68534 N 6546.5 1.0229 -1.19894 0
M  V30 68535 C 6547.74 1.77335 -1.01645 0
M  V30 68536 C 6548.11 1.86788 0.444317 0
M  V30 68537 O 6549.31 2.58218 0.746801 0
M  V30 68538 C 6547.58 3.15771 -1.67403 0
M  V30 68539 S 6549.14 4.06931 -1.64172 0
M  V30 68540 H 6545.96 0.61039 -0.364616 0
M  V30 68541 H 6548.56 1.22522 -1.52343 0
M  V30 68542 H 6547.26 3.06512 -2.72908 0
M  V30 68543 H 6546.79 3.75658 -1.16809 0
M  V30 68544 H 6548.81 4.91654 -0.670137 0
M  V30 68545 N 6547.98 1.00382 1.21496 0
M  V30 68546 C 6549.21 0.704641 1.94531 0
M  V30 68547 C 6549.63 -0.732571 1.74008 0
M  V30 68548 O 6548.98 -1.49552 1.04596 0
M  V30 68549 C 6549.03 1.01473 3.46966 0
M  V30 68550 O 6548.76 2.39548 3.66808 0
M  V30 68551 C 6550.26 0.734795 4.37168 0
M  V30 68552 H 6547.48 0.259769 0.618677 0
M  V30 68553 H 6550.02 1.34155 1.54346 0
M  V30 68554 H 6548.18 0.423449 3.85079 0
M  V30 68555 H 6548.59 2.50318 4.60913 0
M  V30 68556 H 6550.06 1.00195 5.42831 0
M  V30 68557 H 6550.54 -0.331175 4.3795 0
M  V30 68558 H 6551.15 1.30763 4.04699 0
M  V30 68559 N 6549.46 -1.37035 0.778402 0
M  V30 68560 C 6550.69 -2.03791 0.357337 0
M  V30 68561 C 6551.1 -1.58704 -1.02267 0
M  V30 68562 O 6550.46 -0.771352 -1.65398 0
M  V30 68563 C 6550.51 -3.59292 0.398934 0
M  V30 68564 O 6550.23 -4.02731 1.72451 0
M  V30 68565 C 6551.73 -4.43288 -0.0328904 0
M  V30 68566 H 6548.95 -0.654299 0.148776 0
M  V30 68567 H 6551.5 -1.75235 1.05418 0
M  V30 68568 H 6549.65 -3.86596 -0.249389 0
M  V30 68569 H 6550.07 -4.9728 1.66772 0
M  V30 68570 H 6551.54 -5.5198 0.0473637 0
M  V30 68571 H 6552.02 -4.25609 -1.08413 0
M  V30 68572 H 6552.62 -4.21223 0.587498 0
M  V30 68573 N 6550.94 -0.529492 -1.48439 0
M  V30 68574 C 6551.89 0.246935 -2.31286 0
M  V30 68575 C 6552.88 0.935939 -1.41197 0
M  V30 68576 O 6554.09 0.860379 -1.58106 0
M  V30 68577 H 6550.46 0.0985013 -0.745521 0
M  V30 68578 H 6552.43 -0.471389 -2.94653 0
M  V30 68579 C 6551.18 1.28117 -3.23236 0
M  V30 68580 H 6550.51 0.760409 -3.92502 0
M  V30 68581 H 6551.95 1.79586 -3.8409 0
M  V30 68582 C 6550.4 2.31453 -2.44808 0
M  V30 68583 O 6550.93 3.37881 -2.17255 0
M  V30 68584 N 6549.14 2.04654 -2.06313 0
M  V30 68585 H 6548.69 1.18123 -2.28921 0
M  V30 68586 H 6548.65 2.74017 -1.5415 0
M  V30 68587 N 6552.42 1.55363 -0.264601 0
M  V30 68588 C 6553.33 2.25765 0.637742 0
M  V30 68589 C 6554.34 1.27987 1.17878 0
M  V30 68590 O 6555.52 1.60902 1.21131 0
M  V30 68591 C 6552.58 2.95696 1.81011 0
M  V30 68592 C 6551.65 4.08927 1.30678 0
M  V30 68593 C 6550.88 4.75514 2.42327 0
M  V30 68594 O 6551.1 4.41257 3.61454 0
M  V30 68595 O 6550.04 5.63674 2.1108 0
M  V30 68596 H 6553.86 3.03624 0.0677403 0
M  V30 68597 H 6551.45 1.49365 -0.032407 0
M  V30 68598 H 6553.33 3.3968 2.4939 0
M  V30 68599 H 6552 2.20762 2.3674 0
M  V30 68600 H 6550.91 3.69422 0.589755 0
M  V30 68601 H 6552.24 4.85731 0.795371 0
M  V30 68602 N 6553.9 -0.00827481 1.57598 0
M  V30 68603 C 6555.14 -0.693472 1.8983 0
M  V30 68604 C 6555.46 -1.7477 0.864905 0
M  V30 68605 O 6554.73 -1.95651 -0.0987979 0
M  V30 68606 H 6553.31 -0.259125 0.700616 0
M  V30 68607 H 6555.98 0.0306944 1.94876 0
M  V30 68608 H 6555.07 -1.16995 2.89342 0
M  V30 68609 N 6555.37 -1.55076 -0.280901 0
M  V30 68610 C 6556.28 -1.905 -1.3692 0
M  V30 68611 C 6557.3 -0.801338 -1.54449 0
M  V30 68612 O 6558.48 -1.09968 -1.68728 0
M  V30 68613 C 6555.54 -2.16273 -2.70974 0
M  V30 68614 C 6554.6 -3.39881 -2.62258 0
M  V30 68615 C 6553.83 -3.64416 -3.89919 0
M  V30 68616 O 6554.06 -2.91599 -4.90231 0
M  V30 68617 O 6552.99 -4.57948 -3.90599 0
M  V30 68618 H 6556.82 -2.83126 -1.09878 0
M  V30 68619 H 6554.4 -1.41522 -0.478738 0
M  V30 68620 H 6556.28 -2.34311 -3.50252 0
M  V30 68621 H 6554.96 -1.2683 -2.97818 0
M  V30 68622 H 6553.87 -3.27186 -1.81383 0
M  V30 68623 H 6555.2 -4.29518 -2.40364 0
M  V30 68624 N 6556.85 0.54505 -1.47875 0
M  V30 68625 C 6558.26 1.12711 -1.48839 0
M  V30 68626 C 6558.61 1.94603 -0.249786 0
M  V30 68627 O 6557.74 2.06585 0.644345 0
M  V30 68628 C 6558.33 2.05074 -2.69685 0
M  V30 68629 C 6556.89 2.58528 -2.73569 0
M  V30 68630 C 6556.04 1.35163 -2.42129 0
M  V30 68631 H 6558.99 0.33104 -1.55209 0
M  V30 68632 H 6559.01 2.89137 -2.47346 0
M  V30 68633 H 6558.52 1.45444 -3.59816 0
M  V30 68634 H 6556.62 3.21922 -1.87608 0
M  V30 68635 H 6556.74 2.98691 -3.74594 0
M  V30 68636 H 6555.1 1.66242 -1.92966 0
M  V30 68637 H 6555.88 0.773077 -3.34482 0
M  V30 68638 N 6558.33 1.3621 0.792749 0
M  V30 68639 C 6559.26 1.24623 1.91166 0
M  V30 68640 C 6560.24 0.1311 1.62071 0
M  V30 68641 O 6561.42 0.301645 1.86071 0
M  V30 68642 C 6558.55 0.922059 3.25908 0
M  V30 68643 C 6557.6 2.05117 3.73938 0
M  V30 68644 S 6558.43 3.66861 3.90094 0
M  V30 68645 C 6559.59 3.36551 5.27716 0
M  V30 68646 H 6559.82 2.1933 2.00703 0
M  V30 68647 H 6557.35 1.21587 0.951623 0
M  V30 68648 H 6559.31 0.741841 4.03741 0
M  V30 68649 H 6557.97 -0.0071779 3.14099 0
M  V30 68650 H 6557.16 1.77883 4.71565 0
M  V30 68651 H 6556.77 2.19043 3.03144 0
M  V30 68652 H 6559.06 2.90237 6.12184 0
M  V30 68653 H 6560 4.33429 5.59951 0
M  V30 68654 H 6560.41 2.7198 4.94659 0
M  V30 68655 N 6559.81 -1.01652 1.20435 0
M  V30 68656 C 6561.22 -1.27558 0.959221 0
M  V30 68657 C 6561.42 -1.98236 -0.361198 0
M  V30 68658 O 6560.48 -2.27775 -1.08971 0
M  V30 68659 C 6561.79 -2.11054 2.14189 0
M  V30 68660 C 6563.34 -2.2432 2.18288 0
M  V30 68661 C 6563.82 -3.11192 3.36041 0
M  V30 68662 N 6565.31 -3.18781 3.36055 0
M  V30 68663 C 6566.04 -3.86224 4.23815 0
M  V30 68664 N 6565.54 -4.55792 5.21752 0
M  V30 68665 N 6567.33 -3.82748 4.11656 0
M  V30 68666 H 6559.48 -0.541985 2.05369 0
M  V30 68667 H 6561.74 -0.301829 0.898668 0
M  V30 68668 H 6561.45 -1.66457 3.09814 0
M  V30 68669 H 6561.32 -3.11791 2.12289 0
M  V30 68670 H 6563.71 -2.68141 1.23225 0
M  V30 68671 H 6563.79 -1.23091 2.24237 0
M  V30 68672 H 6563.44 -2.68077 4.3139 0
M  V30 68673 H 6563.37 -4.12508 3.27329 0
M  V30 68674 H 6565.86 -2.69246 2.6517 0
M  V30 68675 H 6566.17 -5.04923 5.85041 0
M  V30 68676 H 6564.52 -4.54617 5.25689 0
M  V30 68677 H 6567.71 -3.27546 3.34412 0
M  V30 68678 H 6567.88 -4.35033 4.80261 0
M  V30 68679 N 6561.29 -1.01025 -1.20962 0
M  V30 68680 C 6562.53 -0.691298 -1.89483 0
M  V30 68681 C 6562.85 0.781783 -1.79297 0
M  V30 68682 O 6564.05 1.21303 -2.42895 0
M  V30 68683 C 6562.51 -1.18605 -3.39795 0
M  V30 68684 C 6562.12 -2.68558 -3.58581 0
M  V30 68685 C 6563.86 -0.942234 -4.13911 0
M  V30 68686 C 6561.77 -3.11548 -5.02685 0
M  V30 68687 H 6560.7 -0.254878 -0.709615 0
M  V30 68688 H 6563.35 -1.2221 -1.36883 0
M  V30 68689 H 6561.73 -0.583267 -3.91681 0
M  V30 68690 H 6562.91 -3.34332 -3.1711 0
M  V30 68691 H 6561.22 -2.91013 -2.97826 0
M  V30 68692 H 6563.82 -1.23891 -5.20149 0
M  V30 68693 H 6564.16 0.121428 -4.16123 0
M  V30 68694 H 6564.69 -1.50807 -3.68106 0
M  V30 68695 H 6561.43 -4.17163 -5.05624 0
M  V30 68696 H 6560.95 -2.5049 -5.44991 0
M  V30 68697 H 6562.63 -3.03825 -5.71226 0
M  V30 68698 N 6562.76 1.36621 -0.785658 0
M  V30 68699 C 6564.01 1.99636 -0.356853 0
M  V30 68700 C 6564.34 1.62215 1.0677 0
M  V30 68701 O 6563.62 0.875102 1.73702 0
M  V30 68702 C 6563.9 3.56379 -0.516339 0
M  V30 68703 C 6563.75 4.03665 -1.98431 0
M  V30 68704 C 6565.07 4.40043 0.0709245 0
M  V30 68705 H 6562.19 0.72524 -0.131135 0
M  V30 68706 H 6564.83 1.6209 -0.991297 0
M  V30 68707 H 6562.98 3.88493 0.0237615 0
M  V30 68708 H 6564.66 3.82055 -2.58518 0
M  V30 68709 H 6562.9 3.55344 -2.48824 0
M  V30 68710 H 6563.57 5.12647 -2.04689 0
M  V30 68711 H 6566.05 4.14268 -0.390077 0
M  V30 68712 H 6564.92 5.48854 -0.070717 0
M  V30 68713 H 6565.18 4.26538 1.16266 0
M  V30 68714 N 6564.24 0.537356 1.48156 0
M  V30 68715 C 6565.47 0.0102062 2.06597 0
M  V30 68716 C 6565.88 -1.28002 1.39327 0
M  V30 68717 O 6565.22 -1.77396 0.477113 0
M  V30 68718 C 6565.29 -0.276756 3.58433 0
M  V30 68719 C 6564.95 0.921083 4.47622 0
M  V30 68720 C 6565.95 1.82145 4.86949 0
M  V30 68721 C 6563.63 1.13016 4.89421 0
M  V30 68722 C 6565.63 2.91474 5.66853 0
M  V30 68723 C 6563.31 2.22657 5.69093 0
M  V30 68724 C 6564.31 3.11718 6.07718 0
M  V30 68725 O 6564 4.19462 6.85789 0
M  V30 68726 H 6563.73 0.0337455 0.675157 0
M  V30 68727 H 6566.28 0.744558 1.9143 0
M  V30 68728 H 6564.51 -1.06517 3.7174 0
M  V30 68729 H 6566.2 -0.746878 3.98969 0
M  V30 68730 H 6566.97 1.67189 4.55272 0
M  V30 68731 H 6562.85 0.446194 4.58836 0
M  V30 68732 H 6566.39 3.61016 5.9692 0
M  V30 68733 H 6562.29 2.37594 6.00183 0
M  V30 68734 H 6563.06 4.17263 7.04155 0
M  V30 68735 N 6565.72 -1.5522 0.272837 0
M  V30 68736 C 6567.14 -1.59392 -0.0813664 0
M  V30 68737 C 6567.34 -1.29006 -1.5479 0
M  V30 68738 O 6566.39 -1.04983 -2.29641 0
M  V30 68739 C 6567.71 -2.99287 0.291211 0
M  V30 68740 C 6569.25 -3.12097 0.23764 0
M  V30 68741 C 6569.73 -4.54253 0.584624 0
M  V30 68742 N 6571.22 -4.60087 0.536091 0
M  V30 68743 C 6571.95 -5.68106 0.777402 0
M  V30 68744 N 6571.45 -6.84279 1.08321 0
M  V30 68745 N 6573.24 -5.57644 0.706353 0
M  V30 68746 H 6565.39 -1.73238 1.22892 0
M  V30 68747 H 6567.66 -0.807699 0.496313 0
M  V30 68748 H 6567.36 -3.2635 1.31105 0
M  V30 68749 H 6567.24 -3.7539 -0.369078 0
M  V30 68750 H 6569.62 -2.84799 -0.772904 0
M  V30 68751 H 6569.71 -2.38211 0.932154 0
M  V30 68752 H 6569.35 -4.82277 1.59284 0
M  V30 68753 H 6569.28 -5.26435 -0.131655 0
M  V30 68754 H 6571.77 -3.7663 0.309517 0
M  V30 68755 H 6572.08 -7.62557 1.25407 0
M  V30 68756 H 6570.43 -6.85901 1.12096 0
M  V30 68757 H 6573.62 -4.65762 0.467303 0
M  V30 68758 H 6573.79 -6.4175 0.897799 0
M  V30 68759 N 6567.2 -8.31064e-05 -1.576 0
M  V30 68760 C 6568.13 1.02523 -2.03873 0
M  V30 68761 C 6569.11 1.33475 -0.928614 0
M  V30 68762 O 6570.29 1.45638 -1.19674 0
M  V30 68763 C 6567.42 2.35281 -2.4364 0
M  V30 68764 C 6566.47 2.19991 -3.65385 0
M  V30 68765 S 6567.3 1.52587 -5.13301 0
M  V30 68766 C 6568.46 2.86775 -5.56337 0
M  V30 68767 H 6568.69 0.631224 -2.90522 0
M  V30 68768 H 6566.22 0.210786 -1.52954 0
M  V30 68769 H 6568.18 3.11615 -2.67219 0
M  V30 68770 H 6566.84 2.71822 -1.5739 0
M  V30 68771 H 6566.03 3.18065 -3.90961 0
M  V30 68772 H 6565.64 1.51801 -3.41808 0
M  V30 68773 H 6567.93 3.83075 -5.58802 0
M  V30 68774 H 6568.87 2.65899 -6.5628 0
M  V30 68775 H 6569.28 2.90688 -4.83901 0
M  V30 68776 N 6568.68 1.55223 0.272673 0
M  V30 68777 C 6570.09 1.4707 0.619881 0
M  V30 68778 C 6570.29 0.685078 1.89497 0
M  V30 68779 O 6569.35 0.204063 2.51674 0
M  V30 68780 C 6570.66 2.91286 0.746539 0
M  V30 68781 C 6572.21 3.01502 0.840572 0
M  V30 68782 C 6572.68 4.46972 0.999004 0
M  V30 68783 N 6574.18 4.50802 1.06452 0
M  V30 68784 C 6574.91 5.60576 1.20591 0
M  V30 68785 N 6574.41 6.80216 1.31448 0
M  V30 68786 N 6576.2 5.48319 1.23704 0
M  V30 68787 H 6568.35 2.04755 -0.564714 0
M  V30 68788 H 6570.61 0.928513 -0.191226 0
M  V30 68789 H 6570.32 3.51495 -0.119938 0
M  V30 68790 H 6570.19 3.4032 1.62672 0
M  V30 68791 H 6572.58 2.41388 1.69752 0
M  V30 68792 H 6572.66 2.55719 -0.0642222 0
M  V30 68793 H 6572.31 5.07688 0.146717 0
M  V30 68794 H 6572.24 4.90411 1.91845 0
M  V30 68795 H 6574.73 3.6462 0.993004 0
M  V30 68796 H 6575.04 7.59629 1.42071 0
M  V30 68797 H 6573.38 6.83027 1.28451 0
M  V30 68798 H 6576.58 4.53791 1.14853 0
M  V30 68799 H 6576.75 6.33913 1.34379 0
M  V30 68800 N 6570.15 -0.5372 1.48162 0
M  V30 68801 C 6571.4 -1.29085 1.55504 0
M  V30 68802 C 6571.72 -1.93668 0.227556 0
M  V30 68803 O 6570.99 -1.80963 -0.750291 0
M  V30 68804 H 6569.57 -0.47942 0.572858 0
M  V30 68805 H 6572.24 -0.62572 1.84583 0
M  V30 68806 H 6571.33 -2.07393 2.33227 0
M  V30 68807 N 6571.63 -1.36629 -0.785514 0
M  V30 68808 C 6572.56 -1.33959 -1.91252 0
M  V30 68809 C 6573.54 -0.210414 -1.68794 0
M  V30 68810 O 6574.73 -0.408661 -1.89852 0
M  V30 68811 C 6571.86 -1.13203 -3.28333 0
M  V30 68812 C 6570.81 -2.22987 -3.65323 0
M  V30 68813 C 6570.14 -1.87369 -5.00796 0
M  V30 68814 C 6571.44 -3.65095 -3.73501 0
M  V30 68815 H 6573.13 -2.28263 -1.93743 0
M  V30 68816 H 6570.68 -1.09879 -0.93073 0
M  V30 68817 H 6572.63 -1.09969 -4.06798 0
M  V30 68818 H 6571.36 -0.153504 -3.26239 0
M  V30 68819 H 6570.01 -2.25353 -2.89157 0
M  V30 68820 H 6569.66 -0.880806 -4.95228 0
M  V30 68821 H 6569.36 -2.60873 -5.26516 0
M  V30 68822 H 6570.89 -1.85698 -5.81678 0
M  V30 68823 H 6572.3 -3.64935 -4.42149 0
M  V30 68824 H 6570.7 -4.37538 -4.10707 0
M  V30 68825 H 6571.77 -3.99718 -2.74506 0
M  V30 68826 N 6573.11 1.01012 -1.20972 0
M  V30 68827 C 6574.04 2.1155 -0.988384 0
M  V30 68828 C 6575.02 1.69888 0.0848882 0
M  V30 68829 O 6576.21 1.94059 -0.0739226 0
M  V30 68830 C 6573.34 3.4297 -0.546709 0
M  V30 68831 C 6572.29 3.98402 -1.56396 0
M  V30 68832 C 6571.62 5.25667 -0.978697 0
M  V30 68833 C 6572.92 4.31051 -2.94945 0
M  V30 68834 H 6574.61 2.30324 -1.91288 0
M  V30 68835 H 6572.16 1.10685 -0.921131 0
M  V30 68836 H 6574.11 4.19692 -0.37906 0
M  V30 68837 H 6572.83 3.23973 0.413427 0
M  V30 68838 H 6571.49 3.23795 -1.71908 0
M  V30 68839 H 6571.14 5.02999 -0.0104341 0
M  V30 68840 H 6570.84 5.63719 -1.65814 0
M  V30 68841 H 6572.36 6.05038 -0.822258 0
M  V30 68842 H 6573.78 4.98635 -2.82906 0
M  V30 68843 H 6572.18 4.80234 -3.59855 0
M  V30 68844 H 6573.25 3.39542 -3.46178 0
M  V30 68845 N 6574.59 1.01665 1.20424 0
M  V30 68846 C 6575.84 0.704622 1.89419 0
M  V30 68847 C 6576.16 -0.768102 1.79235 0
M  V30 68848 O 6575.43 -1.55247 1.19478 0
M  V30 68849 H 6574.01 0.257639 0.701164 0
M  V30 68850 H 6576.67 1.28826 1.46253 0
M  V30 68851 H 6575.77 0.988072 2.96047 0
M  V30 68852 N 6576.07 -1.36202 0.792892 0
M  V30 68853 C 6577.34 -1.93427 0.290729 0
M  V30 68854 C 6577.72 -1.72444 -1.21764 0
M  V30 68855 O 6577.07 -1.08541 -2.01075 0
M  V30 68856 C 6577.28 -3.42168 0.687154 0
M  V30 68857 C 6578.63 -4.19299 0.668864 0
M  V30 68858 O 6579.65 -3.50623 0.627843 0
M  V30 68859 O 6578.51 -5.41804 0.714882 0
M  V30 68860 H 6575.61 -0.823786 0.0728362 0
M  V30 68861 H 6578.15 -1.45362 0.87567 0
M  V30 68862 H 6576.92 -3.51113 1.7273 0
M  V30 68863 H 6576.55 -3.97527 0.0762829 0
M  V30 68864 N 6577.55 -0.545206 -1.47869 0
M  V30 68865 C 6578.51 0.198597 -2.28338 0
M  V30 68866 C 6579.51 0.853816 -1.36259 0
M  V30 68867 O 6580.7 0.711522 -1.59006 0
M  V30 68868 C 6577.83 1.28899 -3.15591 0
M  V30 68869 H 6579.02 -0.508097 -2.95565 0
M  V30 68870 H 6576.58 -0.301697 -1.53361 0
M  V30 68871 H 6577.31 2.02846 -2.5303 0
M  V30 68872 H 6577.1 0.824107 -3.83342 0
M  V30 68873 H 6578.59 1.81174 -3.76252 0
M  V30 68874 N 6579.02 1.55073 -0.281065 0
M  V30 68875 C 6580.25 2.04134 0.337185 0
M  V30 68876 C 6580.67 1.1592 1.49024 0
M  V30 68877 O 6580.02 0.180554 1.81605 0
M  V30 68878 C 6580.07 3.5225 0.81252 0
M  V30 68879 O 6579.8 4.37108 -0.294617 0
M  V30 68880 C 6581.3 4.17224 1.49798 0
M  V30 68881 H 6578.52 0.666667 0.0761286 0
M  V30 68882 H 6581.06 2.00247 -0.414893 0
M  V30 68883 H 6579.22 3.56562 1.51467 0
M  V30 68884 H 6579.63 5.24451 0.071856 0
M  V30 68885 H 6581.1 5.22447 1.78193 0
M  V30 68886 H 6581.58 3.65753 2.43148 0
M  V30 68887 H 6582.19 4.16932 0.839523 0
M  V30 68888 N 6580.5 0.00844102 1.57598 0
M  V30 68889 C 6581.41 -0.996375 2.1239 0
M  V30 68890 C 6582.43 -1.37122 1.07115 0
M  V30 68891 O 6583.6 -1.45683 1.39063 0
M  V30 68892 C 6580.67 -2.26685 2.62326 0
M  V30 68893 C 6579.73 -1.95435 3.82235 0
M  V30 68894 C 6578.96 -3.16426 4.29779 0
M  V30 68895 O 6579.19 -4.28396 3.76607 0
M  V30 68896 O 6578.12 -2.9993 5.21848 0
M  V30 68897 H 6581.95 -0.560568 2.98482 0
M  V30 68898 H 6579.53 -0.210909 1.47904 0
M  V30 68899 H 6581.41 -3.01307 2.94605 0
M  V30 68900 H 6580.09 -2.69487 1.79327 0
M  V30 68901 H 6578.99 -1.18263 3.54915 0
M  V30 68902 H 6580.33 -1.57464 4.66332 0
M  V30 68903 N 6581.98 -1.55366 -0.264437 0
M  V30 68904 C 6582.89 -1.91941 -1.34892 0
M  V30 68905 C 6583.91 -0.817674 -1.53591 0
M  V30 68906 O 6585.08 -1.11751 -1.67552 0
M  V30 68907 C 6582.15 -2.19135 -2.68665 0
M  V30 68908 C 6581.21 -3.42643 -2.58639 0
M  V30 68909 C 6580.44 -3.68531 -3.86032 0
M  V30 68910 O 6580.66 -2.96782 -4.8711 0
M  V30 68911 O 6579.6 -4.62065 -3.8572 0
M  V30 68912 H 6583.42 -2.84276 -1.06868 0
M  V30 68913 H 6581.01 -1.42022 -0.463701 0
M  V30 68914 H 6582.89 -2.38013 -3.47747 0
M  V30 68915 H 6581.57 -1.29982 -2.96456 0
M  V30 68916 H 6580.47 -3.29092 -1.77903 0
M  V30 68917 H 6581.81 -4.32043 -2.35795 0
M  V30 68918 N 6583.46 0.529335 -1.48445 0
M  V30 68919 C 6584.7 1.28513 -1.56495 0
M  V30 68920 C 6585.03 1.93024 -0.239144 0
M  V30 68921 O 6584.29 1.79889 0.770618 0
M  V30 68922 C 6584.59 2.39544 -2.65243 0
M  V30 68923 C 6584.25 1.92681 -4.07658 0
M  V30 68924 C 6582.91 1.79618 -4.4642 0
M  V30 68925 C 6585.27 1.57274 -4.96905 0
M  V30 68926 C 6582.59 1.29484 -5.72233 0
M  V30 68927 C 6584.95 1.08603 -6.23208 0
M  V30 68928 C 6583.61 0.941571 -6.60826 0
M  V30 68929 H 6582.88 0.470262 -0.572656 0
M  V30 68930 H 6585.53 0.590624 -1.82164 0
M  V30 68931 H 6583.83 3.14667 -2.33436 0
M  V30 68932 H 6585.53 2.97672 -2.68687 0
M  V30 68933 H 6582.12 2.03799 -3.77046 0
M  V30 68934 H 6586.3 1.66226 -4.67635 0
M  V30 68935 H 6581.56 1.16988 -6.00103 0
M  V30 68936 H 6585.73 0.802772 -6.91758 0
M  V30 68937 H 6583.36 0.5509 -7.58201 0
M  V30 68938 N 6584.94 1.37043 0.778257 0
M  V30 68939 C 6586.18 1.31218 1.53182 0
M  V30 68940 C 6586.5 -0.102992 1.95329 0
M  V30 68941 O 6587.7 -0.283684 2.70014 0
M  V30 68942 C 6586.16 2.30287 2.76579 0
M  V30 68943 C 6585.77 3.77299 2.41557 0
M  V30 68944 C 6587.51 2.3346 3.54537 0
M  V30 68945 C 6585.42 4.68115 3.61416 0
M  V30 68946 H 6584.35 0.487653 0.575075 0
M  V30 68947 H 6587 1.62468 0.853016 0
M  V30 68948 H 6585.38 1.92046 3.46316 0
M  V30 68949 H 6586.56 4.2434 1.79646 0
M  V30 68950 H 6584.87 3.77009 1.76786 0
M  V30 68951 H 6587.47 2.98517 4.43612 0
M  V30 68952 H 6587.81 1.34632 3.93929 0
M  V30 68953 H 6588.34 2.70375 2.91791 0
M  V30 68954 H 6585.08 5.68048 3.27112 0
M  V30 68955 H 6584.6 4.25783 4.22455 0
M  V30 68956 H 6586.28 4.84933 4.2831 0
M  V30 68957 N 6586.41 -1.00369 1.21506 0
M  V30 68958 C 6587.32 -2.12615 0.991559 0
M  V30 68959 C 6588.34 -1.73907 -0.0567528 0
M  V30 68960 O 6589.52 -2.00956 0.133586 0
M  V30 68961 C 6586.58 -3.42139 0.560493 0
M  V30 68962 C 6585.64 -3.95013 1.68117 0
M  V30 68963 C 6584.87 -5.18355 1.27058 0
M  V30 68964 O 6585.1 -5.70216 0.144738 0
M  V30 68965 O 6584.03 -5.64708 2.08299 0
M  V30 68966 H 6587.86 -2.34348 1.93171 0
M  V30 68967 H 6585.44 -1.10992 1.00006 0
M  V30 68968 H 6587.32 -4.20106 0.329945 0
M  V30 68969 H 6586 -3.21792 -0.35092 0
M  V30 68970 H 6584.91 -3.18267 1.96613 0
M  V30 68971 H 6586.24 -4.19773 2.57005 0
M  V30 68972 N 6587.89 -1.02302 -1.19883 0
M  V30 68973 C 6589.12 -0.735339 -1.93927 0
M  V30 68974 C 6589.54 0.69869 -1.74642 0
M  V30 68975 O 6588.9 1.48161 -1.04489 0
M  V30 68976 C 6588.95 -1.08435 -3.4391 0
M  V30 68977 O 6588.05 -0.199664 -4.11916 0
M  V30 68978 H 6587.39 -0.272228 -0.60563 0
M  V30 68979 H 6589.92 -1.36812 -1.5213 0
M  V30 68980 H 6589.93 -1.03877 -3.94555 0
M  V30 68981 H 6588.61 -2.12913 -3.57269 0
M  V30 68982 H 6587.18 -0.303332 -3.71664 0
M  V30 68983 N 6589.37 1.3578 -0.800104 0
M  V30 68984 C 6590.3 2.32458 -0.220307 0
M  V30 68985 C 6591.28 1.57164 0.650647 0
M  V30 68986 O 6592.47 1.85266 0.582261 0
M  V30 68987 C 6589.6 3.41405 0.637173 0
M  V30 68988 C 6588.55 4.27788 -0.134756 0
M  V30 68989 C 6587.88 5.27997 0.844007 0
M  V30 68990 C 6589.18 5.05081 -1.33006 0
M  V30 68991 H 6590.87 2.81198 -1.02801 0
M  V30 68992 H 6588.42 1.35196 -0.495788 0
M  V30 68993 H 6590.37 4.08037 1.0528 0
M  V30 68994 H 6589.09 2.91259 1.4777 0
M  V30 68995 H 6587.75 3.62727 -0.531488 0
M  V30 68996 H 6587.4 4.7412 1.67986 0
M  V30 68997 H 6587.1 5.86662 0.331874 0
M  V30 68998 H 6588.62 5.97501 1.25798 0
M  V30 68999 H 6590.04 5.64694 -0.989638 0
M  V30 69000 H 6588.43 5.7321 -1.77623 0
M  V30 69001 H 6589.5 4.361 -2.12001 0
M  V30 69002 N 6590.85 0.55304 1.47578 0
M  V30 69003 C 6592.12 -0.0380484 1.95563 0
M  V30 69004 C 6592.5 -1.4898 1.4956 0
M  V30 69005 O 6591.85 -2.1644 0.732528 0
M  V30 69006 C 6592.06 0.103103 3.48848 0
M  V30 69007 C 6593.41 -0.0443843 4.24577 0
M  V30 69008 O 6594.43 0.0304427 3.56187 0
M  V30 69009 O 6593.29 -0.204635 5.46117 0
M  V30 69010 H 6590.39 -0.0664632 0.824325 0
M  V30 69011 H 6592.93 0.619269 1.57997 0
M  V30 69012 H 6591.71 1.11348 3.75123 0
M  V30 69013 H 6591.33 -0.592017 3.93168 0
M  V30 69014 N 6592.33 -1.54922 0.289285 0
M  V30 69015 C 6593.55 -2.04771 -0.329191 0
M  V30 69016 C 6593.98 -1.16571 -1.47624 0
M  V30 69017 O 6593.33 -0.167282 -1.80527 0
M  V30 69018 C 6593.38 -3.5219 -0.774252 0
M  V30 69019 O 6592.49 -3.67046 -1.88018 0
M  V30 69020 H 6591.83 -0.660723 -0.065891 0
M  V30 69021 H 6594.36 -2.00079 0.427715 0
M  V30 69022 H 6594.37 -3.93822 -1.06622 0
M  V30 69023 H 6593.04 -4.15849 0.06489 0
M  V30 69024 H 6591.62 -3.37319 -1.58967 0
M  V30 69025 N 6593.8 -0.0167987 -1.57591 0
M  V30 69026 C 6595.03 0.675025 -1.95579 0
M  V30 69027 C 6595.45 1.66366 -0.89263 0
M  V30 69028 O 6594.8 1.82059 0.126816 0
M  V30 69029 C 6594.86 1.39222 -3.33616 0
M  V30 69030 O 6594.58 0.443214 -4.35852 0
M  V30 69031 C 6596.08 2.177 -3.86163 0
M  V30 69032 H 6593.3 0.186944 -0.644432 0
M  V30 69033 H 6595.84 -0.0729078 -2.0437 0
M  V30 69034 H 6594 2.09165 -3.26081 0
M  V30 69035 H 6594.41 0.951086 -5.15805 0
M  V30 69036 H 6595.88 2.63354 -4.85128 0
M  V30 69037 H 6596.36 3.01088 -3.19754 0
M  V30 69038 H 6596.97 1.5274 -3.96926 0
M  V30 69039 N 6595.28 1.55504 0.256194 0
M  V30 69040 C 6596.51 1.80945 1.00332 0
M  V30 69041 C 6596.93 0.591234 1.79304 0
M  V30 69042 O 6596.28 -0.439988 1.77117 0
M  V30 69043 C 6596.33 3.04487 1.94859 0
M  V30 69044 O 6596.05 4.21605 1.19085 0
M  V30 69045 C 6597.56 3.42658 2.81247 0
M  V30 69046 H 6594.78 0.602354 0.295653 0
M  V30 69047 H 6597.32 2.02548 0.281891 0
M  V30 69048 H 6595.47 2.84961 2.62442 0
M  V30 69049 H 6595.89 4.91561 1.82943 0
M  V30 69050 H 6597.36 4.32229 3.4334 0
M  V30 69051 H 6597.84 2.62821 3.51883 0
M  V30 69052 H 6598.45 3.64502 2.1913 0
M  V30 69053 N 6596.76 -0.521455 1.48723 0
M  V30 69054 C 6598.04 -1.28272 1.47667 0
M  V30 69055 C 6598.42 -2.10216 0.193031 0
M  V30 69056 O 6597.77 -2.13084 -0.825081 0
M  V30 69057 C 6597.98 -2.15691 2.74369 0
M  V30 69058 C 6599.32 -2.75552 3.23042 0
M  V30 69059 O 6600.35 -2.25972 2.75345 0
M  V30 69060 O 6599.21 -3.65757 4.06059 0
M  V30 69061 H 6596.3 -0.57939 0.590115 0
M  V30 69062 H 6598.85 -0.537407 1.60966 0
M  V30 69063 H 6597.62 -1.5498 3.593 0
M  V30 69064 H 6597.24 -2.97453 2.63832 0
M  V30 69065 N 6598.24 -1.37454 -0.770978 0
M  V30 69066 C 6599.15 -1.35474 -1.9153 0
M  V30 69067 C 6600.16 -0.254214 -1.72133 0
M  V30 69068 O 6601.34 -0.489729 -1.95355 0
M  V30 69069 C 6598.41 -1.16151 -3.26665 0
M  V30 69070 C 6597.47 -2.3585 -3.58711 0
M  V30 69071 C 6596.7 -2.17439 -4.87397 0
M  V30 69072 O 6596.92 -1.15905 -5.585 0
M  V30 69073 O 6595.86 -3.05642 -5.18523 0
M  V30 69074 H 6599.68 -2.31857 -1.96153 0
M  V30 69075 H 6597.27 -1.18192 -0.913837 0
M  V30 69076 H 6599.15 -1.07366 -4.07493 0
M  V30 69077 H 6597.82 -0.228422 -3.22893 0
M  V30 69078 H 6596.73 -2.50207 -2.78114 0
M  V30 69079 H 6598.06 -3.27728 -3.67226 0
M  V30 69080 N 6599.72 0.997234 -1.22037 0
M  V30 69081 C 6600.63 2.12086 -1.00282 0
M  V30 69082 C 6601.64 1.73935 0.0475293 0
M  V30 69083 O 6602.82 2.00883 -0.144242 0
M  V30 69084 C 6599.88 3.41837 -0.578629 0
M  V30 69085 C 6598.94 3.94116 -1.70209 0
M  V30 69086 C 6598.18 5.17674 -1.29805 0
M  V30 69087 O 6598.4 5.70132 -0.174976 0
M  V30 69088 O 6597.33 5.63596 -2.11291 0
M  V30 69089 H 6601.16 2.3332 -1.94411 0
M  V30 69090 H 6598.75 1.1046 -1.00593 0
M  V30 69091 H 6600.63 4.19925 -0.35222 0
M  V30 69092 H 6599.3 3.21974 0.333849 0
M  V30 69093 H 6598.21 3.1722 -1.98298 0
M  V30 69094 H 6599.54 4.18404 -2.59228 0
M  V30 69095 N 6601.19 1.02936 1.19339 0
M  V30 69096 C 6602.1 0.620634 2.26242 0
M  V30 69097 C 6603.12 -0.347838 1.70488 0
M  V30 69098 O 6604.3 -0.205598 2.00348 0
M  V30 69099 C 6601.36 -0.0217129 3.46693 0
M  V30 69100 C 6600.42 0.994322 4.17626 0
M  V30 69101 C 6599.66 0.382533 5.32327 0
M  V30 69102 O 6599.88 -0.814378 5.64556 0
M  V30 69103 O 6598.81 1.10562 5.91658 0
M  V30 69104 H 6602.64 1.51097 2.63445 0
M  V30 69105 H 6600.22 0.79958 1.26203 0
M  V30 69106 H 6602.11 -0.379851 4.19685 0
M  V30 69107 H 6600.78 -0.886045 3.11337 0
M  V30 69108 H 6599.69 1.40406 3.46752 0
M  V30 69109 H 6601.02 1.82904 4.56954 0
M  V30 69110 N 6602.67 -1.35353 0.807294 0
M  V30 69111 C 6603.95 -1.93108 0.311228 0
M  V30 69112 C 6604.33 -1.73725 -1.19928 0
M  V30 69113 O 6603.68 -1.10668 -1.99912 0
M  V30 69114 C 6603.89 -3.4142 0.723407 0
M  V30 69115 C 6605.24 -4.18566 0.713299 0
M  V30 69116 O 6606.26 -3.49937 0.664996 0
M  V30 69117 O 6605.12 -5.41015 0.772308 0
M  V30 69118 H 6602.21 -0.822967 0.0815694 0
M  V30 69119 H 6604.76 -1.44425 0.891038 0
M  V30 69120 H 6603.53 -3.49261 1.76444 0
M  V30 69121 H 6603.15 -3.97424 0.118442 0
M  V30 69122 N 6604.15 -0.560859 -1.47283 0
M  V30 69123 C 6605.06 0.187831 -2.33847 0
M  V30 69124 C 6606.08 0.908215 -1.48417 0
M  V30 69125 O 6607.25 0.876293 -1.81337 0
M  V30 69126 C 6604.32 1.20233 -3.25184 0
M  V30 69127 C 6603.38 0.488983 -4.26506 0
M  V30 69128 C 6602.61 1.45515 -5.13479 0
M  V30 69129 O 6602.83 2.69024 -5.02974 0
M  V30 69130 O 6601.77 0.97765 -5.93907 0
M  V30 69131 H 6605.59 -0.522335 -2.99174 0
M  V30 69132 H 6603.18 -0.321441 -1.45901 0
M  V30 69133 H 6605.06 1.78785 -3.81594 0
M  V30 69134 H 6603.74 1.89435 -2.6248 0
M  V30 69135 H 6602.64 -0.137824 -3.73846 0
M  V30 69136 H 6603.98 -0.161658 -4.91934 0
M  V30 69137 N 6605.63 1.54767 -0.297496 0
M  V30 69138 C 6606.54 2.27067 0.58971 0
M  V30 69139 C 6607.55 1.30459 1.15137 0
M  V30 69140 O 6608.73 1.63435 1.17691 0
M  V30 69141 C 6605.8 2.99469 1.74698 0
M  V30 69142 C 6604.86 4.11607 1.21975 0
M  V30 69143 C 6604.09 4.80547 2.32186 0
M  V30 69144 O 6604.31 4.48824 3.52013 0
M  V30 69145 O 6603.25 5.68025 1.99076 0
M  V30 69146 H 6607.07 3.037 0.00332184 0
M  V30 69147 H 6604.66 1.49263 -0.0640822 0
M  V30 69148 H 6606.54 3.44893 2.42129 0
M  V30 69149 H 6605.21 2.25734 2.32004 0
M  V30 69150 H 6604.12 3.7059 0.511263 0
M  V30 69151 H 6605.45 4.87309 0.692162 0
M  V30 69152 N 6607.11 0.0251559 1.5758 0
M  V30 69153 C 6608.02 -0.973792 2.13435 0
M  V30 69154 C 6609.03 -1.35978 1.08563 0
M  V30 69155 O 6610.21 -1.442 1.406 0
M  V30 69156 C 6607.27 -2.2389 2.64715 0
M  V30 69157 C 6606.34 -1.9137 3.84286 0
M  V30 69158 C 6605.57 -3.1185 4.33111 0
M  V30 69159 O 6605.79 -4.24378 3.81129 0
M  V30 69160 O 6604.73 -2.94379 5.25 0
M  V30 69161 H 6608.55 -0.528878 2.99059 0
M  V30 69162 H 6606.14 -0.19521 1.48119 0
M  V30 69163 H 6608.02 -2.98165 2.97784 0
M  V30 69164 H 6606.69 -2.6757 1.82176 0
M  V30 69165 H 6605.6 -1.14492 3.56149 0
M  V30 69166 H 6606.93 -1.52509 4.67976 0
M  V30 69167 N 6608.59 -1.55637 -0.247944 0
M  V30 69168 C 6609.83 -1.77683 -0.977576 0
M  V30 69169 C 6610.16 -0.590232 -1.85013 0
M  V30 69170 O 6609.44 0.411511 -1.90097 0
M  V30 69171 C 6609.72 -3.09602 -1.83898 0
M  V30 69172 C 6609.58 -4.38664 -0.994678 0
M  V30 69173 C 6610.89 -3.37744 -2.82165 0
M  V30 69174 H 6608.01 -0.646431 -0.353971 0
M  V30 69175 H 6610.66 -1.88373 -0.248153 0
M  V30 69176 H 6608.81 -3.0062 -2.46089 0
M  V30 69177 H 6610.48 -4.59635 -0.391546 0
M  V30 69178 H 6608.72 -4.32768 -0.299003 0
M  V30 69179 H 6609.39 -5.27349 -1.63117 0
M  V30 69180 H 6611.87 -3.46682 -2.3011 0
M  V30 69181 H 6610.74 -4.31267 -3.39559 0
M  V30 69182 H 6611 -2.58605 -3.58575 0
M  V30 69183 N 6610.06 0.513561 -1.48998 0
M  V30 69184 C 6611.29 1.29092 -1.61304 0
M  V30 69185 C 6611.7 1.87135 -0.278754 0
M  V30 69186 O 6611.04 1.67949 0.744236 0
M  V30 69187 C 6611.11 2.46865 -2.61339 0
M  V30 69188 C 6610.77 2.09786 -4.06004 0
M  V30 69189 C 6611.77 1.64493 -4.93192 0
M  V30 69190 C 6609.45 2.19805 -4.51654 0
M  V30 69191 C 6611.45 1.29707 -6.24063 0
M  V30 69192 C 6609.13 1.84631 -5.82542 0
M  V30 69193 C 6610.13 1.39655 -6.6857 0
M  V30 69194 O 6609.82 1.0495 -7.9702 0
M  V30 69195 H 6609.55 0.398221 -0.546257 0
M  V30 69196 H 6612.11 0.624487 -1.95677 0
M  V30 69197 H 6610.34 3.16543 -2.22121 0
M  V30 69198 H 6612.02 3.08909 -2.63306 0
M  V30 69199 H 6612.79 1.56208 -4.59156 0
M  V30 69200 H 6608.67 2.53766 -3.84869 0
M  V30 69201 H 6612.21 0.945294 -6.91166 0
M  V30 69202 H 6608.11 1.92561 -6.16109 0
M  V30 69203 H 6608.88 1.18206 -8.09919 0
M  V30 69204 N 6611.54 1.37861 0.763678 0
M  V30 69205 C 6612.49 1.34277 1.87719 0
M  V30 69206 C 6613.46 0.206966 1.64806 0
M  V30 69207 O 6614.64 0.397607 1.86611 0
M  V30 69208 C 6611.78 1.16363 3.2489 0
M  V30 69209 C 6610.9 2.39244 3.59703 0
M  V30 69210 C 6610.03 2.14139 4.86125 0
M  V30 69211 C 6609.07 3.32844 5.13694 0
M  V30 69212 N 6608.21 3.07239 6.31307 0
M  V30 69213 H 6613.05 2.29476 1.90117 0
M  V30 69214 H 6610.58 1.14022 0.929372 0
M  V30 69215 H 6612.54 1.03996 4.04031 0
M  V30 69216 H 6611.17 0.248078 3.21845 0
M  V30 69217 H 6610.22 2.62321 2.75484 0
M  V30 69218 H 6611.54 3.27747 3.76009 0
M  V30 69219 H 6610.69 1.9885 5.73187 0
M  V30 69220 H 6609.43 1.22986 4.71938 0
M  V30 69221 H 6608.43 3.48664 4.25104 0
M  V30 69222 H 6609.66 4.2486 5.29784 0
M  V30 69223 H 6607.61 2.18723 6.18463 0
M  V30 69224 H 6607.52 3.89288 6.48067 0
M  V30 69225 H 6608.79 2.95584 7.21284 0
M  V30 69226 N 6613.02 -0.990748 1.22564 0
M  V30 69227 C 6613.95 -2.07901 0.940883 0
M  V30 69228 C 6614.93 -1.62179 -0.116997 0
M  V30 69229 O 6616.11 -1.88494 0.01505 0
M  V30 69230 C 6613.24 -3.36142 0.415498 0
M  V30 69231 C 6612.29 -4.00791 1.45839 0
M  V30 69232 S 6613.12 -4.41366 3.03242 0
M  V30 69233 C 6614.28 -5.72775 2.52348 0
M  V30 69234 H 6614.51 -2.31735 1.86242 0
M  V30 69235 H 6612.04 -1.12553 1.05694 0
M  V30 69236 H 6614 -4.10328 0.118963 0
M  V30 69237 H 6612.66 -3.10334 -0.484957 0
M  V30 69238 H 6611.85 -4.93138 1.0407 0
M  V30 69239 H 6611.46 -3.3294 1.70374 0
M  V30 69240 H 6613.75 -6.49213 1.93722 0
M  V30 69241 H 6614.69 -6.19374 3.43194 0
M  V30 69242 H 6615.1 -5.30279 1.93557 0
M  V30 69243 N 6614.5 -1.03568 -1.18792 0
M  V30 69244 C 6615.46 -0.626885 -2.2046 0
M  V30 69245 C 6616.46 0.31309 -1.57722 0
M  V30 69246 O 6617.65 0.0991698 -1.73917 0
M  V30 69247 C 6614.78 0.0816701 -3.40802 0
M  V30 69248 H 6615.98 -1.52654 -2.58141 0
M  V30 69249 H 6613.53 -0.827648 -1.32588 0
M  V30 69250 H 6614.26 0.995355 -3.08647 0
M  V30 69251 H 6614.05 -0.593857 -3.87577 0
M  V30 69252 H 6615.54 0.354364 -4.16094 0
M  V30 69253 N 6615.98 1.34923 -0.814461 0
M  V30 69254 C 6617.22 1.98148 -0.39774 0
M  V30 69255 C 6617.54 1.64913 1.04061 0
M  V30 69256 O 6616.81 0.93557 1.72116 0
M  V30 69257 H 6615.39 0.732973 -0.144082 0
M  V30 69258 H 6618.06 1.64704 -1.04204 0
M  V30 69259 H 6617.15 3.07907 -0.509851 0
M  V30 69260 N 6617.45 0.568661 1.46983 0
M  V30 69261 C 6618.7 0.0489778 2.02741 0
M  V30 69262 C 6619.03 -1.30206 1.44083 0
M  V30 69263 O 6618.31 -1.84993 0.60065 0
M  V30 69264 C 6618.59 -0.0318571 3.60086 0
M  V30 69265 C 6618.44 1.34708 4.29155 0
M  V30 69266 C 6619.76 -0.739569 4.33841 0
M  V30 69267 H 6616.88 0.0192727 0.736748 0
M  V30 69268 H 6619.52 0.733157 1.75285 0
M  V30 69269 H 6617.67 -0.614528 3.83609 0
M  V30 69270 H 6619.35 1.97384 4.16938 0
M  V30 69271 H 6617.59 1.91866 3.89063 0
M  V30 69272 H 6618.26 1.24313 5.3782 0
M  V30 69273 H 6620.74 -0.24472 4.1538 0
M  V30 69274 H 6619.61 -0.76512 5.43541 0
M  V30 69275 H 6619.87 -1.79805 4.03884 0
M  V30 69276 N 6618.93 -1.54607 0.3057 0
M  V30 69277 C 6619.86 -2.19884 -0.61042 0
M  V30 69278 C 6620.84 -1.16982 -1.12933 0
M  V30 69279 O 6622.03 -1.45645 -1.19666 0
M  V30 69280 C 6619.15 -2.84641 -1.83568 0
M  V30 69281 C 6618.2 -4.0111 -1.44959 0
M  V30 69282 S 6619.03 -5.33146 -0.501512 0
M  V30 69283 C 6620.19 -6.01388 -1.73446 0
M  V30 69284 H 6620.42 -2.97248 -0.0558609 0
M  V30 69285 H 6617.95 -1.54138 0.0898247 0
M  V30 69286 H 6619.91 -3.22575 -2.53881 0
M  V30 69287 H 6618.57 -2.07114 -2.36141 0
M  V30 69288 H 6617.77 -4.45219 -2.36212 0
M  V30 69289 H 6617.37 -3.64756 -0.826361 0
M  V30 69290 H 6619.66 -6.22481 -2.6744 0
M  V30 69291 H 6620.6 -6.95385 -1.33585 0
M  V30 69292 H 6621.01 -5.31086 -1.91332 0
M  V30 69293 N 6620.41 -0.0335124 -1.57564 0
M  V30 69294 C 6621.37 0.931937 -2.09398 0
M  V30 69295 C 6622.37 1.25128 -1.00993 0
M  V30 69296 O 6623.56 1.1909 -1.27135 0
M  V30 69297 C 6620.69 2.24716 -2.5635 0
M  V30 69298 H 6621.89 0.482929 -2.95986 0
M  V30 69299 H 6619.44 0.214599 -1.5482 0
M  V30 69300 H 6620.18 2.74236 -1.73104 0
M  V30 69301 H 6619.96 2.02847 -3.35552 0
M  V30 69302 H 6621.45 2.93907 -2.96662 0
M  V30 69303 N 6621.89 1.55767 0.239687 0
M  V30 69304 C 6622.82 1.87379 1.31991 0
M  V30 69305 C 6623.83 0.760598 1.4394 0
M  V30 69306 O 6625.02 1.03877 1.45161 0
M  V30 69307 C 6622.12 2.0513 2.69769 0
M  V30 69308 C 6621.3 3.36037 2.79996 0
M  V30 69309 C 6620.35 3.43441 3.98666 0
M  V30 69310 O 6619.38 4.16602 3.87855 0
M  V30 69311 N 6620.58 2.73259 5.12162 0
M  V30 69312 H 6623.35 2.80628 1.05206 0
M  V30 69313 H 6620.91 1.56091 0.429775 0
M  V30 69314 H 6622.9 2.07417 3.47506 0
M  V30 69315 H 6621.47 1.18592 2.89231 0
M  V30 69316 H 6620.69 3.46004 1.88878 0
M  V30 69317 H 6621.98 4.22307 2.83785 0
M  V30 69318 H 6621.38 2.13564 5.23839 0
M  V30 69319 H 6619.93 2.8123 5.88007 0
M  V30 69320 N 6623.37 -0.505652 1.49268 0
M  V30 69321 C 6624.61 -1.27029 1.60134 0
M  V30 69322 C 6624.97 -1.89952 0.279657 0
M  V30 69323 O 6626.17 -2.67506 0.26347 0
M  V30 69324 C 6624.44 -2.31232 2.72519 0
M  V30 69325 S 6626 -3.17097 3.03307 0
M  V30 69326 H 6622.82 -0.43177 0.564886 0
M  V30 69327 H 6625.42 -0.573298 1.86905 0
M  V30 69328 H 6624.13 -1.83527 3.67078 0
M  V30 69329 H 6623.66 -3.05606 2.47726 0
M  V30 69330 H 6625.67 -4.31797 2.44471 0
M  V30 69331 N 6624.84 -1.38264 -0.756356 0
M  V30 69332 C 6626.09 -1.34055 -1.51241 0
M  V30 69333 C 6626.41 0.0697345 -1.94875 0
M  V30 69334 O 6625.68 1.01687 -1.67441 0
M  V30 69335 H 6624.26 -0.493251 -0.560992 0
M  V30 69336 H 6626.93 -1.72914 -0.899256 0
M  V30 69337 H 6626.02 -1.98959 -2.40461 0
M  V30 69338 N 6626.32 0.984234 -1.23088 0
M  V30 69339 C 6627.57 1.72159 -1.05857 0
M  V30 69340 C 6627.89 1.90728 0.405949 0
M  V30 69341 O 6627.16 1.47316 1.29131 0
M  V30 69342 H 6625.74 0.637893 -0.388718 0
M  V30 69343 H 6628.4 1.18495 -1.54742 0
M  V30 69344 H 6627.5 2.71266 -1.54341 0
M  V30 69345 N 6627.8 1.04196 1.18241 0
M  V30 69346 C 6628.73 0.655032 2.24124 0
M  V30 69347 C 6629.71 -0.342364 1.66619 0
M  V30 69348 O 6630.9 -0.222175 1.92925 0
M  V30 69349 C 6628.03 0.0185588 3.47295 0
M  V30 69350 C 6626.98 0.939635 4.17558 0
M  V30 69351 C 6626.31 0.167568 5.34437 0
M  V30 69352 C 6627.61 2.25932 4.70905 0
M  V30 69353 H 6629.3 1.54021 2.56745 0
M  V30 69354 H 6626.85 0.742015 1.2341 0
M  V30 69355 H 6628.8 -0.263861 4.20573 0
M  V30 69356 H 6627.52 -0.901498 3.13912 0
M  V30 69357 H 6626.18 1.20646 3.46179 0
M  V30 69358 H 6625.83 -0.754937 4.97302 0
M  V30 69359 H 6625.53 0.781208 5.82384 0
M  V30 69360 H 6627.05 -0.107803 6.10505 0
M  V30 69361 H 6628.47 2.03752 5.35871 0
M  V30 69362 H 6626.87 2.82605 5.29391 0
M  V30 69363 H 6627.94 2.90491 3.88256 0
M  V30 69364 N 6629.28 -1.34489 0.821604 0
M  V30 69365 C 6630.19 -2.33323 0.244478 0
M  V30 69366 C 6631.2 -1.62562 -0.620441 0
M  V30 69367 O 6632.38 -1.94338 -0.528651 0
M  V30 69368 C 6629.45 -3.41726 -0.585188 0
M  V30 69369 C 6628.51 -4.28237 0.301978 0
M  V30 69370 C 6627.74 -5.31463 -0.488185 0
M  V30 69371 O 6627.96 -5.438 -1.72157 0
M  V30 69372 O 6626.9 -6.01762 0.128797 0
M  V30 69373 H 6630.72 -2.84509 1.06246 0
M  V30 69374 H 6628.31 -1.37525 0.583717 0
M  V30 69375 H 6630.19 -4.07922 -1.05725 0
M  V30 69376 H 6628.86 -2.92785 -1.38052 0
M  V30 69377 H 6627.77 -3.64969 0.821508 0
M  V30 69378 H 6629.1 -4.80614 1.06163 0
M  V30 69379 N 6630.76 -0.576448 -1.46679 0
M  V30 69380 C 6632 -0.0622433 -2.04305 0
M  V30 69381 C 6632.36 1.27113 -1.43897 0
M  V30 69382 O 6633.56 1.87419 -1.92685 0
M  V30 69383 C 6631.83 0.00909075 -3.57399 0
M  V30 69384 S 6633.39 0.466629 -4.36312 0
M  V30 69385 H 6630.21 -0.034439 -0.710165 0
M  V30 69386 H 6632.81 -0.767532 -1.79803 0
M  V30 69387 H 6631.52 -0.965389 -3.98884 0
M  V30 69388 H 6631.05 0.737344 -3.86428 0
M  V30 69389 H 6633.06 1.72262 -4.65339 0
M  V30 69390 N 6632.23 1.54442 -0.313895 0
M  V30 69391 C 6633.17 2.20205 0.59875 0
M  V30 69392 C 6634.15 1.17579 1.12311 0
M  V30 69393 O 6635.33 1.46277 1.18892 0
M  V30 69394 C 6632.46 2.8561 1.82056 0
M  V30 69395 C 6631.5 4.01873 1.4283 0
M  V30 69396 S 6632.34 5.33405 0.473231 0
M  V30 69397 C 6633.49 6.02299 1.70255 0
M  V30 69398 H 6633.72 2.97273 0.0400964 0
M  V30 69399 H 6631.26 1.54089 -0.0979978 0
M  V30 69400 H 6633.22 3.23917 2.52166 0
M  V30 69401 H 6631.88 2.08363 2.35039 0
M  V30 69402 H 6631.07 4.46465 2.33848 0
M  V30 69403 H 6630.67 3.6519 0.807005 0
M  V30 69404 H 6632.96 6.2389 2.64135 0
M  V30 69405 H 6633.91 6.96084 1.29896 0
M  V30 69406 H 6634.31 5.32093 1.88513 0
M  V30 69407 N 6633.71 0.0418679 1.57544 0
M  V30 69408 C 6634.64 -0.933816 2.14014 0
M  V30 69409 C 6635.62 -1.33078 1.05945 0
M  V30 69410 O 6636.81 -1.40714 1.3384 0
M  V30 69411 C 6633.94 -2.21185 2.67758 0
M  V30 69412 C 6632.89 -1.95524 3.80729 0
M  V30 69413 C 6632.22 -3.29702 4.20952 0
M  V30 69414 C 6633.52 -1.28425 5.06265 0
M  V30 69415 H 6635.21 -0.463489 2.95791 0
M  V30 69416 H 6632.76 -0.221498 1.42286 0
M  V30 69417 H 6634.71 -2.89832 3.05901 0
M  V30 69418 H 6633.44 -2.70406 1.83161 0
M  V30 69419 H 6632.09 -1.29292 3.43044 0
M  V30 69420 H 6631.74 -3.76707 3.33318 0
M  V30 69421 H 6631.44 -3.13334 4.97087 0
M  V30 69422 H 6632.97 -3.99596 4.61687 0
M  V30 69423 H 6634.38 -1.87092 5.41913 0
M  V30 69424 H 6632.78 -1.22414 5.87482 0
M  V30 69425 H 6633.85 -0.258963 4.84208 0
M  V30 69426 N 6635.19 -1.55892 -0.231423 0
M  V30 69427 C 6636.14 -1.92448 -1.30639 0
M  V30 69428 C 6637.13 -0.805332 -1.49033 0
M  V30 69429 O 6638.34 -0.990086 -1.50324 0
M  V30 69430 H 6634.71 -0.611435 -0.437779 0
M  V30 69431 H 6636.68 -2.82166 -0.970824 0
M  V30 69432 C 6635.43 -2.24903 -2.65168 0
M  V30 69433 H 6634.76 -3.10528 -2.51819 0
M  V30 69434 H 6636.2 -2.54373 -3.3922 0
M  V30 69435 C 6634.66 -1.07071 -3.19433 0
M  V30 69436 O 6635.19 -0.32671 -4.00369 0
M  V30 69437 N 6633.39 -0.857176 -2.7767 0
M  V30 69438 H 6632.94 -1.46391 -2.11961 0
M  V30 69439 H 6632.9 -0.070488 -3.14321 0
M  V30 69440 N 6636.67 0.497729 -1.49534 0
M  V30 69441 C 6638.09 0.829194 -1.36369 0
M  V30 69442 C 6638.29 1.97504 -0.399288 0
M  V30 69443 O 6637.34 2.51942 0.167844 0
M  V30 69444 C 6638.65 1.16632 -2.7716 0
M  V30 69445 C 6640.2 1.27434 -2.85884 0
M  V30 69446 C 6640.68 1.64474 -4.27449 0
M  V30 69447 N 6642.17 1.71517 -4.30274 0
M  V30 69448 C 6642.9 2.01628 -5.36781 0
M  V30 69449 N 6642.4 2.29941 -6.53528 0
M  V30 69450 N 6644.19 2.02907 -5.242 0
M  V30 69451 H 6636.34 -0.257815 -2.10829 0
M  V30 69452 H 6638.61 -0.052759 -0.946531 0
M  V30 69453 H 6638.31 0.397688 -3.49444 0
M  V30 69454 H 6638.19 2.10898 -3.12733 0
M  V30 69455 H 6640.57 2.03369 -2.13834 0
M  V30 69456 H 6640.65 0.31211 -2.53889 0
M  V30 69457 H 6640.3 0.890888 -5.00026 0
M  V30 69458 H 6640.23 2.61803 -4.5691 0
M  V30 69459 H 6642.72 1.51784 -3.46078 0
M  V30 69460 H 6643.03 2.52115 -7.30519 0
M  V30 69461 H 6641.38 2.2739 -6.56749 0
M  V30 69462 H 6644.57 1.80266 -4.31997 0
M  V30 69463 H 6644.74 2.26039 -6.07297 0
M  V30 69464 N 6638.15 1.38663 0.749013 0
M  V30 69465 C 6639.08 1.38983 1.87633 0
M  V30 69466 C 6640.06 0.255093 1.68176 0
M  V30 69467 O 6641.24 0.458853 1.88701 0
M  V30 69468 C 6638.37 1.21868 3.25216 0
M  V30 69469 C 6637.33 2.32594 3.59283 0
M  V30 69470 C 6636.65 2.00581 4.95653 0
M  V30 69471 C 6637.95 3.74869 3.6369 0
M  V30 69472 H 6639.65 2.3332 1.87622 0
M  V30 69473 H 6637.19 1.12308 0.90127 0
M  V30 69474 H 6639.15 1.20716 4.0374 0
M  V30 69475 H 6637.87 0.239947 3.25717 0
M  V30 69476 H 6636.53 2.3294 2.8308 0
M  V30 69477 H 6636.18 1.0118 4.92719 0
M  V30 69478 H 6635.88 2.74741 5.19414 0
M  V30 69479 H 6637.4 2.01055 5.7655 0
M  V30 69480 H 6638.82 3.76529 4.32318 0
M  V30 69481 H 6637.21 4.48273 3.98963 0
M  V30 69482 H 6638.28 4.06855 2.63812 0
M  V30 69483 N 6639.63 -0.977692 1.23608 0
M  V30 69484 C 6640.59 -2.05213 1.02079 0
M  V30 69485 C 6641.59 -1.6079 -0.0183457 0
M  V30 69486 O 6642.78 -1.72784 0.22166 0
M  V30 69487 C 6639.91 -3.36514 0.545104 0
M  V30 69488 H 6641.1 -2.25745 1.97432 0
M  V30 69489 H 6638.66 -1.15149 1.0569 0
M  V30 69490 H 6639.39 -3.21671 -0.412071 0
M  V30 69491 H 6639.18 -3.70098 1.29499 0
M  V30 69492 H 6640.67 -4.15531 0.415204 0
M  V30 69493 N 6641.1 -1.04822 -1.17686 0
M  V30 69494 C 6642.35 -0.754596 -1.87484 0
M  V30 69495 C 6642.67 0.720311 -1.81208 0
M  V30 69496 O 6641.94 1.52025 -1.23552 0
M  V30 69497 H 6640.52 -0.276139 -0.694087 0
M  V30 69498 H 6643.18 -1.32658 -1.42786 0
M  V30 69499 H 6642.28 -1.06622 -2.93323 0
M  V30 69500 N 6642.58 1.34052 -0.828725 0
M  V30 69501 C 6643.83 1.97365 -0.415932 0
M  V30 69502 C 6644.14 1.66416 1.02787 0
M  V30 69503 O 6645.35 2.23264 1.54485 0
M  V30 69504 C 6643.81 3.53169 -0.692787 0
M  V30 69505 C 6643.41 3.93006 -2.15059 0
M  V30 69506 C 6645.16 4.23084 -0.346445 0
M  V30 69507 C 6643.06 5.41746 -2.37203 0
M  V30 69508 H 6641.99 0.738563 -0.151794 0
M  V30 69509 H 6644.65 1.52813 -1.01589 0
M  V30 69510 H 6643.03 3.95994 -0.0225852 0
M  V30 69511 H 6644.2 3.6127 -2.86043 0
M  V30 69512 H 6642.52 3.36044 -2.45893 0
M  V30 69513 H 6645.11 5.32453 -0.489651 0
M  V30 69514 H 6645.46 4.10207 0.709626 0
M  V30 69515 H 6645.99 3.85756 -0.971461 0
M  V30 69516 H 6642.73 5.59615 -3.41337 0
M  V30 69517 H 6642.25 5.74977 -1.70769 0
M  V30 69518 H 6643.93 6.08502 -2.1985 0
M  V30 69519 N 6644.06 0.584219 1.46372 0
M  V30 69520 C 6645.48 0.246012 1.57693 0
M  V30 69521 C 6645.68 -1.25167 1.5791 0
M  V30 69522 O 6644.73 -2.03347 1.49687 0
M  V30 69523 C 6646.04 0.896554 2.87023 0
M  V30 69524 C 6647.59 0.870285 3.00658 0
M  V30 69525 C 6648.07 1.5004 4.32726 0
M  V30 69526 N 6649.56 1.46481 4.39429 0
M  V30 69527 C 6650.29 1.92172 5.40238 0
M  V30 69528 N 6649.79 2.45844 6.47713 0
M  V30 69529 N 6651.58 1.8308 5.31449 0
M  V30 69530 H 6643.73 1.55695 1.44475 0
M  V30 69531 H 6646 0.650868 0.689257 0
M  V30 69532 H 6645.7 1.95017 2.92679 0
M  V30 69533 H 6645.58 0.405683 3.75012 0
M  V30 69534 H 6647.96 -0.174716 2.94582 0
M  V30 69535 H 6648.04 1.39919 2.14141 0
M  V30 69536 H 6647.69 2.5446 4.39559 0
M  V30 69537 H 6647.62 0.946705 5.1802 0
M  V30 69538 H 6650.11 1.0725 3.62362 0
M  V30 69539 H 6650.42 2.78563 7.20849 0
M  V30 69540 H 6648.77 2.4987 6.48529 0
M  V30 69541 H 6651.96 1.40906 4.46389 0
M  V30 69542 H 6652.13 2.19005 6.0987 0
M  V30 69543 N 6645.54 -1.54274 0.322081 0
M  V30 69544 C 6646.81 -1.92708 -0.33513 0
M  V30 69545 C 6647.19 -1.25154 -1.69999 0
M  V30 69546 O 6646.54 -0.394714 -2.25065 0
M  V30 69547 C 6646.75 -3.46355 -0.428826 0
M  V30 69548 C 6648.1 -4.18959 -0.689808 0
M  V30 69549 O 6649.12 -3.52504 -0.511806 0
M  V30 69550 O 6647.98 -5.36646 -1.0331 0
M  V30 69551 H 6645.08 -0.804618 -0.1911 0
M  V30 69552 H 6647.62 -1.6558 0.371687 0
M  V30 69553 H 6646.4 -3.87697 0.529816 0
M  V30 69554 H 6646.02 -3.79584 -1.18328 0
M  V30 69555 N 6647.02 -0.0502223 -1.5752 0
M  V30 69556 C 6648.26 0.623772 -1.92653 0
M  V30 69557 C 6648.59 1.70907 -0.928501 0
M  V30 69558 O 6647.85 1.9561 0.0593493 0
M  V30 69559 C 6648.14 1.25946 -3.34473 0
M  V30 69560 C 6647.81 0.302451 -4.49884 0
M  V30 69561 C 6646.47 0.0391099 -4.81184 0
M  V30 69562 C 6648.82 -0.353479 -5.2 0
M  V30 69563 C 6646.15 -0.887614 -5.79947 0
M  V30 69564 C 6648.5 -1.26839 -6.19754 0
M  V30 69565 C 6647.17 -1.54041 -6.49483 0
M  V30 69566 H 6646.44 0.228254 -0.704969 0
M  V30 69567 H 6649.09 -0.116499 -1.91145 0
M  V30 69568 H 6647.39 2.07497 -3.32344 0
M  V30 69569 H 6649.09 1.78787 -3.58937 0
M  V30 69570 H 6645.68 0.517885 -4.2546 0
M  V30 69571 H 6649.86 -0.163116 -4.96032 0
M  V30 69572 H 6645.12 -1.10585 -6.01316 0
M  V30 69573 H 6649.29 -1.78272 -6.73195 0
M  V30 69574 H 6646.92 -2.26014 -7.25825 0
M  V30 69575 N 6648.49 1.56012 0.223152 0
M  V30 69576 C 6649.44 1.92284 1.27654 0
M  V30 69577 C 6650.41 0.77984 1.46655 0
M  V30 69578 O 6651.6 1.03559 1.6025 0
M  V30 69579 C 6648.74 2.24352 2.62222 0
M  V30 69580 C 6647.85 3.51578 2.51032 0
M  V30 69581 C 6646.98 3.731 3.78113 0
M  V30 69582 C 6646.02 4.93846 3.61639 0
M  V30 69583 N 6645.16 5.11766 4.80666 0
M  V30 69584 H 6650 2.82106 0.960209 0
M  V30 69585 H 6647.54 1.39629 0.462827 0
M  V30 69586 H 6649.49 2.40954 3.40583 0
M  V30 69587 H 6648.12 1.37705 2.91954 0
M  V30 69588 H 6647.18 3.43177 1.64114 0
M  V30 69589 H 6648.49 4.40091 2.3478 0
M  V30 69590 H 6647.64 3.8979 4.64918 0
M  V30 69591 H 6646.38 2.82865 3.9729 0
M  V30 69592 H 6645.39 4.77107 2.73219 0
M  V30 69593 H 6646.61 5.85564 3.43935 0
M  V30 69594 H 6644.56 4.24473 5.00159 0
M  V30 69595 H 6644.47 5.94409 4.67134 0
M  V30 69596 H 6645.74 5.3289 5.68901 0
M  V30 69597 N 6649.97 -0.489791 1.49796 0
M  V30 69598 C 6650.9 -1.60705 1.63422 0
M  V30 69599 C 6651.92 -1.54392 0.516411 0
M  V30 69600 O 6653.11 -1.60121 0.788897 0
M  V30 69601 C 6650.21 -2.99534 1.58532 0
M  V30 69602 C 6649.38 -3.30913 2.86034 0
M  V30 69603 C 6648.44 -4.49208 2.74042 0
M  V30 69604 O 6647.46 -4.50437 3.47988 0
M  V30 69605 N 6648.67 -5.4978 1.86338 0
M  V30 69606 H 6651.43 -1.49439 2.59785 0
M  V30 69607 H 6648.99 -0.677878 1.47025 0
M  V30 69608 H 6650.98 -3.76609 1.48148 0
M  V30 69609 H 6649.55 -3.04666 0.699811 0
M  V30 69610 H 6648.77 -2.42628 3.10685 0
M  V30 69611 H 6650.06 -3.4868 3.70539 0
M  V30 69612 H 6649.46 -5.51594 1.25539 0
M  V30 69613 H 6648.02 -6.25913 1.8187 0
M  V30 69614 N 6651.45 -1.39059 -0.741649 0
M  V30 69615 C 6652.7 -1.35651 -1.4981 0
M  V30 69616 C 6653.02 0.0490614 -1.94938 0
M  V30 69617 O 6652.29 0.999052 -1.6851 0
M  V30 69618 H 6650.87 -0.499174 -0.555729 0
M  V30 69619 H 6653.53 -1.73858 -0.880865 0
M  V30 69620 H 6652.63 -2.01499 -2.38337 0
M  V30 69621 N 6652.93 0.971123 -1.24125 0
M  V30 69622 C 6654.34 1.2391 -1.0059 0
M  V30 69623 C 6654.54 1.9944 0.287375 0
M  V30 69624 O 6653.6 2.31663 1.00442 0
M  V30 69625 C 6654.91 2.02959 -2.21874 0
M  V30 69626 C 6656.46 2.16064 -2.26463 0
M  V30 69627 C 6656.94 2.98506 -3.47359 0
M  V30 69628 N 6658.43 3.06089 -3.47655 0
M  V30 69629 C 6659.16 3.70228 -4.37857 0
M  V30 69630 N 6658.66 4.36114 -5.38309 0
M  V30 69631 N 6660.45 3.67206 -4.25577 0
M  V30 69632 H 6652.6 0.46539 -2.07239 0
M  V30 69633 H 6654.87 0.268267 -0.909251 0
M  V30 69634 H 6654.57 1.54844 -3.15779 0
M  V30 69635 H 6654.45 3.03697 -2.23714 0
M  V30 69636 H 6656.83 2.63383 -1.33092 0
M  V30 69637 H 6656.91 1.14684 -2.28651 0
M  V30 69638 H 6656.56 2.51881 -4.41042 0
M  V30 69639 H 6656.49 4.00075 -3.42414 0
M  V30 69640 H 6658.98 2.59219 -2.7498 0
M  V30 69641 H 6659.29 4.82862 -6.03377 0
M  V30 69642 H 6657.64 4.34793 -5.42199 0
M  V30 69643 H 6660.83 3.14908 -3.46338 0
M  V30 69644 H 6661 4.16909 -4.96076 0
M  V30 69645 N 6654.41 1.05445 1.17129 0
M  V30 69646 C 6655.36 0.62779 2.19187 0
M  V30 69647 C 6656.34 -0.337064 1.5733 0
M  V30 69648 O 6657.53 -0.153883 1.7633 0
M  V30 69649 C 6654.66 0.00669538 3.43299 0
M  V30 69650 C 6653.75 0.995529 4.1225 0
M  V30 69651 N 6654.14 2.16789 4.56986 0
M  V30 69652 C 6652.44 0.824567 4.38311 0
M  V30 69653 C 6653.14 2.79367 5.10225 0
M  V30 69654 N 6652.11 2.07148 5.02584 0
M  V30 69655 H 6655.92 1.52099 2.51482 0
M  V30 69656 H 6653.43 0.924939 1.33487 0
M  V30 69657 H 6655.43 -0.316746 4.15695 0
M  V30 69658 H 6654.09 -0.881868 3.12495 0
M  V30 69659 H 6655.1 2.54611 4.50992 0
M  V30 69660 H 6651.77 -0.0127325 4.17498 0
M  V30 69661 H 6653.16 3.78801 5.54941 0
M  V30 69662 N 6655.88 -1.3361 0.835823 0
M  V30 69663 C 6656.81 -2.31793 0.281861 0
M  V30 69664 C 6657.8 -1.58834 -0.608749 0
M  V30 69665 O 6658.98 -1.86744 -0.532936 0
M  V30 69666 C 6656.11 -3.42974 -0.546431 0
M  V30 69667 C 6655.06 -4.2728 0.248129 0
M  V30 69668 C 6654.39 -5.30049 -0.703721 0
M  V30 69669 C 6655.69 -5.01377 1.46351 0
M  V30 69670 H 6657.38 -2.78373 1.10221 0
M  V30 69671 H 6654.93 -1.33834 0.531459 0
M  V30 69672 H 6656.88 -4.10685 -0.94425 0
M  V30 69673 H 6655.61 -2.95074 -1.39996 0
M  V30 69674 H 6654.27 -3.6119 0.627471 0
M  V30 69675 H 6653.91 -4.78407 -1.55356 0
M  V30 69676 H 6653.61 -5.87336 -0.176215 0
M  V30 69677 H 6655.14 -6.00626 -1.09912 0
M  V30 69678 H 6656.55 -5.61871 1.13901 0
M  V30 69679 H 6654.95 -5.683 1.92758 0
M  V30 69680 H 6656.02 -4.30326 2.23489 0
M  V30 69681 N 6657.36 -0.591973 -1.4606 0
M  V30 69682 C 6658.29 0.12355 -2.33173 0
M  V30 69683 C 6659.27 0.874453 -1.45902 0
M  V30 69684 O 6660.46 0.848089 -1.74703 0
M  V30 69685 C 6657.59 1.13176 -3.28342 0
M  V30 69686 C 6656.54 0.4951 -4.25127 0
M  V30 69687 C 6655.87 1.61045 -5.09871 0
M  V30 69688 C 6657.17 -0.573699 -5.1914 0
M  V30 69689 H 6658.86 -0.603801 -2.93248 0
M  V30 69690 H 6656.41 -0.291815 -1.41012 0
M  V30 69691 H 6658.36 1.64076 -3.88145 0
M  V30 69692 H 6657.09 1.88951 -2.66393 0
M  V30 69693 H 6655.74 0.0071012 -3.66599 0
M  V30 69694 H 6655.39 2.35809 -4.44301 0
M  V30 69695 H 6655.09 1.19004 -5.75423 0
M  V30 69696 H 6656.62 2.12203 -5.7254 0
M  V30 69697 H 6658.03 -0.149402 -5.73105 0
M  V30 69698 H 6656.43 -0.914948 -5.93084 0
M  V30 69699 H 6657.5 -1.45641 -4.62511 0
M  V30 69700 N 6658.84 1.54101 -0.330258 0
M  V30 69701 C 6660.07 2.05103 0.272071 0
M  V30 69702 C 6660.48 1.20602 1.4526 0
M  V30 69703 O 6659.84 0.238239 1.80938 0
M  V30 69704 C 6659.89 3.54657 0.700043 0
M  V30 69705 O 6659.61 4.3595 -0.433531 0
M  V30 69706 C 6661.11 4.21778 1.36448 0
M  V30 69707 H 6658.33 0.668752 0.0548806 0
M  V30 69708 H 6660.88 1.98826 -0.47839 0
M  V30 69709 H 6659.03 3.612 1.40047 0
M  V30 69710 H 6659.45 5.24414 -0.0950304 0
M  V30 69711 H 6660.92 5.27852 1.61481 0
M  V30 69712 H 6661.4 3.73304 2.31389 0
M  V30 69713 H 6662 4.19392 0.706454 0
M  V30 69714 N 6660.32 0.0585753 1.57491 0
M  V30 69715 C 6661.56 -0.614456 1.93267 0
M  V30 69716 C 6661.9 -1.70055 0.937806 0
M  V30 69717 O 6661.17 -1.94468 -0.0350627 0
M  V30 69718 C 6661.46 -1.20369 3.39387 0
M  V30 69719 C 6661.31 -0.125138 4.49626 0
M  V30 69720 C 6662.63 -2.11314 3.8605 0
M  V30 69721 H 6659.75 -0.221896 0.702803 0
M  V30 69722 H 6662.39 0.12185 1.89609 0
M  V30 69723 H 6660.54 -1.83121 3.42635 0
M  V30 69724 H 6662.21 0.507212 4.58503 0
M  V30 69725 H 6660.45 0.545899 4.30351 0
M  V30 69726 H 6661.12 -0.577572 5.4897 0
M  V30 69727 H 6663.6 -1.58514 3.84724 0
M  V30 69728 H 6662.48 -2.49482 4.88927 0
M  V30 69729 H 6662.74 -3.01619 3.23231 0
M  V30 69730 N 6661.8 -1.56128 -0.214875 0
M  V30 69731 C 6662.73 -1.95981 -1.2694 0
M  V30 69732 C 6663.71 -0.828947 -1.48534 0
M  V30 69733 O 6664.89 -1.09177 -1.60605 0
M  V30 69734 C 6662.02 -2.28227 -2.61782 0
M  V30 69735 C 6660.98 -3.43867 -2.54833 0
M  V30 69736 C 6660.3 -3.61736 -3.93766 0
M  V30 69737 C 6661.6 -4.78643 -2.0904 0
M  V30 69738 H 6663.3 -2.84317 -0.93831 0
M  V30 69739 H 6660.84 -1.36791 -0.449924 0
M  V30 69740 H 6662.8 -2.54699 -3.35717 0
M  V30 69741 H 6661.52 -1.36752 -2.96591 0
M  V30 69742 H 6660.18 -3.17454 -1.83354 0
M  V30 69743 H 6659.83 -2.67625 -4.25894 0
M  V30 69744 H 6659.53 -4.39519 -3.89996 0
M  V30 69745 H 6661.05 -3.90563 -4.69353 0
M  V30 69746 H 6662.46 -5.04277 -2.72723 0
M  V30 69747 H 6660.86 -5.59757 -2.16316 0
M  V30 69748 H 6661.93 -4.73552 -1.0429 0
M  V30 69749 N 6663.27 0.481841 -1.50054 0
M  V30 69750 C 6664.2 1.58942 -1.71054 0
M  V30 69751 C 6665.19 1.60639 -0.559372 0
M  V30 69752 O 6666.37 1.77077 -0.797337 0
M  V30 69753 C 6663.5 2.9733 -1.79477 0
M  V30 69754 C 6662.45 3.105 -2.94574 0
M  V30 69755 C 6661.78 4.50428 -2.88129 0
M  V30 69756 C 6663.08 2.88724 -4.35242 0
M  V30 69757 H 6664.77 1.41621 -2.63787 0
M  V30 69758 H 6662.32 0.679875 -1.2694 0
M  V30 69759 H 6664.27 3.74732 -1.92754 0
M  V30 69760 H 6663 3.15783 -0.833578 0
M  V30 69761 H 6661.66 2.35528 -2.80931 0
M  V30 69762 H 6661.3 4.65785 -1.89878 0
M  V30 69763 H 6661 4.60178 -3.65391 0
M  V30 69764 H 6662.53 5.29865 -3.0344 0
M  V30 69765 H 6663.94 3.55882 -4.49468 0
M  V30 69766 H 6662.34 3.09928 -5.13872 0
M  V30 69767 H 6663.41 1.84673 -4.48357 0
M  V30 69768 N 6664.75 1.3945 0.734264 0
M  V30 69769 C 6665.7 1.38229 1.84828 0
M  V30 69770 C 6666.67 0.241877 1.64329 0
M  V30 69771 O 6667.85 0.4371 1.85726 0
M  V30 69772 C 6664.99 1.23229 3.22349 0
M  V30 69773 C 6664.11 2.4682 3.54547 0
M  V30 69774 C 6663.24 2.24403 4.81474 0
M  V30 69775 C 6662.28 3.43666 5.06518 0
M  V30 69776 N 6661.42 3.20561 6.24648 0
M  V30 69777 H 6666.26 2.33458 1.85207 0
M  V30 69778 H 6663.8 1.15968 0.904978 0
M  V30 69779 H 6665.75 1.12543 4.01734 0
M  V30 69780 H 6664.38 0.316291 3.21247 0
M  V30 69781 H 6663.44 2.68106 2.69858 0
M  V30 69782 H 6664.75 3.35649 3.68973 0
M  V30 69783 H 6663.9 2.10963 5.6884 0
M  V30 69784 H 6662.64 1.32969 4.69223 0
M  V30 69785 H 6661.65 3.57602 4.17613 0
M  V30 69786 H 6662.87 4.36001 5.20653 0
M  V30 69787 H 6660.82 2.31792 6.13684 0
M  V30 69788 H 6660.73 4.02947 6.39664 0
M  V30 69789 H 6662 3.10817 7.14852 0
M  V30 69790 N 6666.23 -0.964527 1.24638 0
M  V30 69791 C 6667.16 -2.07736 1.06622 0
M  V30 69792 C 6668.14 -1.70086 -0.0217769 0
M  V30 69793 O 6669.33 -1.93651 0.145895 0
M  V30 69794 C 6666.46 -3.40705 0.673623 0
M  V30 69795 C 6665.41 -3.92323 1.71075 0
M  V30 69796 C 6664.74 -5.21672 1.17312 0
M  V30 69797 C 6666.04 -4.19807 3.1074 0
M  V30 69798 H 6667.73 -2.23066 1.99705 0
M  V30 69799 H 6665.28 -1.0719 0.961576 0
M  V30 69800 H 6667.23 -4.17996 0.534565 0
M  V30 69801 H 6665.95 -3.25284 -0.292902 0
M  V30 69802 H 6664.61 -3.17192 1.83807 0
M  V30 69803 H 6664.26 -5.02614 0.197112 0
M  V30 69804 H 6663.96 -5.57177 1.86622 0
M  V30 69805 H 6665.49 -6.0157 1.04625 0
M  V30 69806 H 6666.9 -4.87792 3.01218 0
M  V30 69807 H 6665.3 -4.66547 3.77431 0
M  V30 69808 H 6666.37 -3.2646 3.58541 0
M  V30 69809 N 6667.71 -1.06064 -1.16568 0
M  V30 69810 C 6668.96 -0.775971 -1.87043 0
M  V30 69811 C 6669.28 0.697438 -1.81566 0
M  V30 69812 O 6668.54 1.52656 -1.22453 0
M  V30 69813 C 6668.84 -1.21293 -3.36189 0
M  V30 69814 C 6668.5 -2.69005 -3.61866 0
M  V30 69815 C 6667.17 -3.09354 -3.68583 0
M  V30 69816 C 6669.52 -3.64414 -3.72628 0
M  V30 69817 C 6666.85 -4.43957 -3.83561 0
M  V30 69818 C 6669.2 -4.98761 -3.89127 0
M  V30 69819 C 6667.86 -5.38751 -3.94086 0
M  V30 69820 H 6667.13 -0.283948 -0.684437 0
M  V30 69821 H 6669.78 -1.32932 -1.37846 0
M  V30 69822 H 6668.08 -0.578732 -3.87502 0
M  V30 69823 H 6669.78 -0.969747 -3.89098 0
M  V30 69824 H 6666.37 -2.36763 -3.57269 0
M  V30 69825 H 6670.56 -3.34375 -3.66752 0
M  V30 69826 H 6665.81 -4.74429 -3.85652 0
M  V30 69827 H 6669.99 -5.72575 -3.96397 0
M  V30 69828 H 6667.61 -6.43054 -4.05444 0
M  V30 69829 N 6669.19 1.33165 -0.842897 0
M  V30 69830 C 6670.41 2.02387 -0.453235 0
M  V30 69831 C 6670.84 1.62985 0.939019 0
M  V30 69832 O 6670.2 0.824486 1.61468 0
M  V30 69833 C 6670.24 3.55802 -0.586281 0
M  V30 69834 O 6669.35 4.10591 0.385813 0
M  V30 69835 H 6668.69 0.638084 -0.183698 0
M  V30 69836 H 6671.22 1.69975 -1.13884 0
M  V30 69837 H 6671.23 4.05291 -0.469422 0
M  V30 69838 H 6669.9 3.83825 -1.60161 0
M  V30 69839 H 6668.48 3.72213 0.226174 0
M  V30 69840 N 6670.67 0.599711 1.45744 0
M  V30 69841 C 6671.9 0.097822 2.06368 0
M  V30 69842 C 6672.3 -1.21978 1.44631 0
M  V30 69843 O 6671.65 -1.75213 0.551923 0
M  V30 69844 C 6671.71 -0.124484 3.59284 0
M  V30 69845 C 6671.37 1.11011 4.43312 0
M  V30 69846 C 6672.37 2.02634 4.78785 0
M  V30 69847 C 6670.05 1.33672 4.84187 0
M  V30 69848 C 6672.05 3.15253 5.5398 0
M  V30 69849 C 6669.74 2.46594 5.59137 0
M  V30 69850 C 6670.73 3.37213 5.9395 0
M  V30 69851 O 6670.42 4.48171 6.67382 0
M  V30 69852 H 6670.15 0.0623508 0.673118 0
M  V30 69853 H 6672.71 0.82508 1.881 0
M  V30 69854 H 6670.94 -0.906547 3.75924 0
M  V30 69855 H 6672.63 -0.576989 4.01778 0
M  V30 69856 H 6673.39 1.86348 4.47772 0
M  V30 69857 H 6669.27 0.640401 4.5653 0
M  V30 69858 H 6672.82 3.86009 5.81071 0
M  V30 69859 H 6668.71 2.62836 5.89566 0
M  V30 69860 H 6669.48 4.46753 6.85824 0
M  V30 69861 N 6672.14 -1.53923 0.338426 0
M  V30 69862 C 6673.38 -2.02739 -0.260062 0
M  V30 69863 C 6673.75 -1.22099 -1.48175 0
M  V30 69864 O 6674.95 -1.60789 -2.15408 0
M  V30 69865 C 6673.22 -3.52802 -0.571441 0
M  V30 69866 S 6674.78 -4.23531 -1.14747 0
M  V30 69867 H 6671.6 -0.706736 -0.0777537 0
M  V30 69868 H 6674.2 -1.89642 0.474999 0
M  V30 69869 H 6672.9 -4.09106 0.325608 0
M  V30 69870 H 6672.43 -3.70009 -1.3363 0
M  V30 69871 H 6674.45 -4.3243 -2.43349 0
M  V30 69872 N 6673.62 -0.0669266 -1.57458 0
M  V30 69873 C 6674.87 0.604198 -1.93591 0
M  V30 69874 C 6675.2 1.69556 -0.946812 0
M  V30 69875 O 6674.48 1.94484 0.0247491 0
M  V30 69876 C 6674.76 1.18567 -3.4002 0
M  V30 69877 C 6674.61 0.101291 -4.49686 0
M  V30 69878 C 6675.93 2.09263 -3.87165 0
M  V30 69879 H 6673.05 0.218165 -0.703969 0
M  V30 69880 H 6675.69 -0.131904 -1.89542 0
M  V30 69881 H 6673.84 1.81301 -3.43602 0
M  V30 69882 H 6675.51 -0.531521 -4.58228 0
M  V30 69883 H 6673.76 -0.568714 -4.30056 0
M  V30 69884 H 6674.43 0.54845 -5.49269 0
M  V30 69885 H 6676.9 1.56471 -3.85559 0
M  V30 69886 H 6675.78 2.46885 -4.90244 0
M  V30 69887 H 6676.04 2.99901 -3.24826 0
M  V30 69888 N 6675.1 1.5624 0.206592 0
M  V30 69889 C 6676.05 1.93627 1.25607 0
M  V30 69890 C 6677.02 0.795351 1.4582 0
M  V30 69891 O 6678.2 1.05253 1.59143 0
M  V30 69892 C 6675.34 2.2712 2.59827 0
M  V30 69893 C 6674.45 3.5422 2.47289 0
M  V30 69894 C 6673.59 3.7709 3.74135 0
M  V30 69895 C 6672.63 4.97654 3.56381 0
M  V30 69896 N 6671.77 5.16835 4.75211 0
M  V30 69897 H 6676.61 2.83109 0.930234 0
M  V30 69898 H 6674.14 1.40112 0.447991 0
M  V30 69899 H 6676.1 2.44553 3.38008 0
M  V30 69900 H 6674.73 1.40794 2.90477 0
M  V30 69901 H 6673.78 3.44899 1.60465 0
M  V30 69902 H 6675.09 4.42556 2.30099 0
M  V30 69903 H 6674.25 3.94699 4.60757 0
M  V30 69904 H 6672.99 2.87062 3.94267 0
M  V30 69905 H 6671.99 4.79979 2.68143 0
M  V30 69906 H 6673.22 5.89179 3.37705 0
M  V30 69907 H 6671.16 4.29754 4.95629 0
M  V30 69908 H 6671.08 5.9933 4.60803 0
M  V30 69909 H 6672.35 5.38894 5.63217 0
M  V30 69910 N 6676.58 -0.473876 1.50307 0
M  V30 69911 C 6677.82 -1.22798 1.61396 0
M  V30 69912 C 6678.16 -1.91676 0.312056 0
M  V30 69913 O 6677.43 -1.8199 -0.686288 0
M  V30 69914 C 6677.71 -2.27381 2.79231 0
M  V30 69915 C 6677.57 -1.62826 4.19294 0
M  V30 69916 C 6678.89 -3.28717 2.92632 0
M  V30 69917 H 6676.01 -0.445088 0.587423 0
M  V30 69918 H 6678.65 -0.522169 1.82684 0
M  V30 69919 H 6676.8 -2.87578 2.61211 0
M  V30 69920 H 6678.47 -1.06247 4.48898 0
M  V30 69921 H 6676.71 -0.931469 4.23682 0
M  V30 69922 H 6677.38 -2.38812 4.97667 0
M  V30 69923 H 6679.86 -2.7854 3.09119 0
M  V30 69924 H 6678.74 -3.99226 3.76709 0
M  V30 69925 H 6679 -3.92672 2.03128 0
M  V30 69926 N 6678.06 -1.39838 -0.726858 0
M  V30 69927 C 6679 -1.39207 -1.84093 0
M  V30 69928 C 6679.97 -0.250588 -1.64199 0
M  V30 69929 O 6681.16 -0.446944 -1.85491 0
M  V30 69930 C 6678.3 -1.24936 -3.21691 0
M  V30 69931 C 6677.41 -2.48697 -3.53233 0
M  V30 69932 C 6676.55 -2.26953 -4.80277 0
M  V30 69933 C 6675.58 -3.46347 -5.04688 0
M  V30 69934 N 6674.72 -3.23869 -6.22939 0
M  V30 69935 H 6679.56 -2.34436 -1.83966 0
M  V30 69936 H 6677.1 -1.16446 -0.898815 0
M  V30 69937 H 6679.06 -1.14672 -4.01131 0
M  V30 69938 H 6677.69 -0.333323 -3.21074 0
M  V30 69939 H 6676.74 -2.69533 -2.68433 0
M  V30 69940 H 6678.05 -3.37601 -3.67188 0
M  V30 69941 H 6677.2 -2.13977 -5.67714 0
M  V30 69942 H 6675.94 -1.35455 -4.68512 0
M  V30 69943 H 6674.95 -3.59812 -4.15711 0
M  V30 69944 H 6676.17 -4.38756 -5.18333 0
M  V30 69945 H 6674.12 -2.35043 -6.12446 0
M  V30 69946 H 6674.04 -4.06334 -6.37518 0
M  V30 69947 H 6675.3 -3.14603 -7.13194 0
M  V30 69948 N 6679.53 0.957904 -1.25148 0
M  V30 69949 C 6680.78 1.70463 -1.09864 0
M  V30 69950 C 6681.11 1.90832 0.360086 0
M  V30 69951 O 6680.39 1.47691 1.2656 0
M  V30 69952 C 6680.67 3.08953 -1.84986 0
M  V30 69953 C 6680.52 2.96015 -3.38667 0
M  V30 69954 C 6681.84 4.08787 -1.63038 0
M  V30 69955 H 6678.96 0.618685 -0.400497 0
M  V30 69956 H 6681.6 1.11368 -1.53939 0
M  V30 69957 H 6679.75 3.59401 -1.47524 0
M  V30 69958 H 6681.43 2.52918 -3.85785 0
M  V30 69959 H 6679.67 2.32005 -3.66546 0
M  V30 69960 H 6680.34 3.94167 -3.86441 0
M  V30 69961 H 6682.82 3.67236 -1.95644 0
M  V30 69962 H 6681.69 5.03735 -2.18042 0
M  V30 69963 H 6681.95 4.38398 -0.570923 0
M  V30 69964 N 6681.01 1.06681 1.16004 0
M  V30 69965 C 6681.96 0.675275 2.22582 0
M  V30 69966 C 6682.95 -0.310678 1.66527 0
M  V30 69967 O 6684.16 -0.17512 1.79146 0
M  V30 69968 H 6680.54 0.200261 0.724845 0
M  V30 69969 H 6682.51 1.58394 2.52891 0
M  V30 69970 C 6681.26 0.0818995 3.47604 0
M  V30 69971 H 6680.58 0.83169 3.91054 0
M  V30 69972 H 6682.02 -0.154485 4.23718 0
M  V30 69973 C 6680.48 -1.17559 3.15724 0
M  V30 69974 O 6681.01 -2.263 3.3189 0
M  V30 69975 N 6679.21 -1.07909 2.69822 0
M  V30 69976 H 6678.76 -0.194157 2.56867 0
M  V30 69977 H 6678.72 -1.92128 2.48866 0
M  V30 69978 N 6682.49 -1.32716 0.849947 0
M  V30 69979 C 6683.91 -1.50217 0.539181 0
M  V30 69980 C 6684.11 -1.78693 -0.931176 0
M  V30 69981 O 6683.16 -1.85372 -1.71445 0
M  V30 69982 C 6684.48 -2.64947 1.4221 0
M  V30 69983 C 6686.02 -2.78832 1.42203 0
M  V30 69984 C 6686.5 -3.96636 2.29006 0
M  V30 69985 N 6687.99 -4.0389 2.26776 0
M  V30 69986 C 6688.72 -4.94265 2.90671 0
M  V30 69987 N 6688.22 -5.89681 3.6366 0
M  V30 69988 N 6690.01 -4.8735 2.80083 0
M  V30 69989 H 6682.16 -1.12497 1.80162 0
M  V30 69990 H 6684.43 -0.554044 0.769246 0
M  V30 69991 H 6684.13 -2.50618 2.46746 0
M  V30 69992 H 6684.01 -3.60618 1.1061 0
M  V30 69993 H 6686.39 -2.92586 0.384344 0
M  V30 69994 H 6686.48 -1.83888 1.77817 0
M  V30 69995 H 6686.12 -3.83641 3.3284 0
M  V30 69996 H 6686.05 -4.90847 1.90728 0
M  V30 69997 H 6688.54 -3.35611 1.73706 0
M  V30 69998 H 6688.85 -6.55327 4.09592 0
M  V30 69999 H 6687.2 -5.89722 3.67768 0
M  V30 70000 H 6690.39 -4.11777 2.22615 0
M  V30 70001 H 6690.56 -5.57582 3.30161 0
M  V30 70002 N 6683.97 -0.607431 -1.45424 0
M  V30 70003 C 6684.9 0.149631 -2.28711 0
M  V30 70004 C 6685.91 0.831884 -1.39941 0
M  V30 70005 O 6687.1 0.697299 -1.64317 0
M  V30 70006 C 6684.2 1.23287 -3.15679 0
M  V30 70007 C 6683.38 0.637768 -4.32725 0
M  V30 70008 C 6682.43 1.61188 -5.00904 0
M  V30 70009 O 6681.46 1.13825 -5.57703 0
M  V30 70010 N 6682.66 2.94629 -5.00174 0
M  V30 70011 H 6685.43 -0.565037 -2.94325 0
M  V30 70012 H 6682.99 -0.446906 -1.5561 0
M  V30 70013 H 6684.98 1.88435 -3.58154 0
M  V30 70014 H 6683.55 1.85007 -2.51975 0
M  V30 70015 H 6682.77 -0.191779 -3.93733 0
M  V30 70016 H 6684.06 0.220397 -5.08322 0
M  V30 70017 H 6683.46 3.35711 -4.55318 0
M  V30 70018 H 6682.01 3.55199 -5.46513 0
M  V30 70019 N 6685.45 1.53742 -0.346584 0
M  V30 70020 C 6686.38 2.2267 0.543198 0
M  V30 70021 C 6687.39 1.23432 1.06152 0
M  V30 70022 O 6688.58 1.49769 0.971156 0
M  V30 70023 C 6685.68 2.89579 1.76061 0
M  V30 70024 C 6684.85 4.15158 1.37705 0
M  V30 70025 C 6683.91 4.65449 2.45446 0
M  V30 70026 O 6682.94 5.29588 2.08628 0
M  V30 70027 N 6684.14 4.41636 3.76747 0
M  V30 70028 H 6686.91 2.99663 -0.0471283 0
M  V30 70029 H 6684.47 1.60996 -0.170851 0
M  V30 70030 H 6686.46 3.20138 2.47576 0
M  V30 70031 H 6685.03 2.16154 2.25824 0
M  V30 70032 H 6684.25 3.91111 0.49254 0
M  V30 70033 H 6685.54 4.96837 1.09681 0
M  V30 70034 H 6684.93 3.90347 4.09446 0
M  V30 70035 H 6683.49 4.76793 4.44423 0
M  V30 70036 N 6686.92 0.075276 1.5742 0
M  V30 70037 C 6687.85 -0.88821 2.15947 0
M  V30 70038 C 6688.84 -1.30801 1.08744 0
M  V30 70039 O 6690.02 -1.37844 1.36795 0
M  V30 70040 C 6687.15 -2.15455 2.7239 0
M  V30 70041 C 6686.1 -1.87404 3.8479 0
M  V30 70042 C 6685.43 -3.20699 4.27851 0
M  V30 70043 C 6686.73 -1.17657 5.08875 0
M  V30 70044 H 6688.42 -0.400643 2.96707 0
M  V30 70045 H 6685.97 -0.191267 1.42724 0
M  V30 70046 H 6687.92 -2.83278 3.1198 0
M  V30 70047 H 6686.65 -2.6646 1.88855 0
M  V30 70048 H 6685.31 -1.21986 3.45709 0
M  V30 70049 H 6684.95 -3.69552 3.41234 0
M  V30 70050 H 6684.65 -3.0272 5.03621 0
M  V30 70051 H 6686.18 -3.89713 4.7006 0
M  V30 70052 H 6687.59 -1.75555 5.45759 0
M  V30 70053 H 6685.99 -1.09925 5.89946 0
M  V30 70054 H 6687.06 -0.156197 4.84648 0
M  V30 70055 N 6688.4 -1.56347 -0.198304 0
M  V30 70056 C 6689.65 -1.80703 -0.920553 0
M  V30 70057 C 6689.98 -0.648794 -1.83042 0
M  V30 70058 O 6689.26 0.350825 -1.9131 0
M  V30 70059 C 6689.54 -3.15296 -1.73955 0
M  V30 70060 C 6689.39 -4.41607 -0.854617 0
M  V30 70061 C 6690.71 -3.4655 -2.71277 0
M  V30 70062 H 6687.83 -0.657365 -0.333226 0
M  V30 70063 H 6690.47 -1.89067 -0.188098 0
M  V30 70064 H 6688.62 -3.08297 -2.364 0
M  V30 70065 H 6690.29 -4.60648 -0.245119 0
M  V30 70066 H 6688.54 -4.33501 -0.16117 0
M  V30 70067 H 6689.21 -5.32271 -1.46257 0
M  V30 70068 H 6691.68 -3.53827 -2.18965 0
M  V30 70069 H 6690.56 -4.41851 -3.25667 0
M  V30 70070 H 6690.82 -2.69882 -3.50166 0
M  V30 70071 N 6689.88 0.465898 -1.50556 0
M  V30 70072 C 6690.83 1.56324 -1.69798 0
M  V30 70073 C 6691.8 1.571 -0.539321 0
M  V30 70074 O 6692.98 1.74551 -0.770493 0
M  V30 70075 C 6690.12 2.94262 -1.80288 0
M  V30 70076 C 6689.24 3.03234 -3.0769 0
M  V30 70077 C 6688.37 4.32119 -3.08945 0
M  V30 70078 C 6687.41 4.34853 -4.30778 0
M  V30 70079 N 6686.55 5.55217 -4.29743 0
M  V30 70080 H 6691.39 1.39221 -2.63479 0
M  V30 70081 H 6688.92 0.676804 -1.30605 0
M  V30 70082 H 6690.88 3.7426 -1.84352 0
M  V30 70083 H 6689.51 3.09988 -0.900421 0
M  V30 70084 H 6688.56 2.16077 -3.13073 0
M  V30 70085 H 6689.88 3.01114 -3.97658 0
M  V30 70086 H 6689.03 5.20468 -3.11766 0
M  V30 70087 H 6687.77 4.36855 -2.16815 0
M  V30 70088 H 6686.77 3.449 -4.28164 0
M  V30 70089 H 6688 4.31804 -5.2414 0
M  V30 70090 H 6685.94 5.60728 -3.4047 0
M  V30 70091 H 6685.86 5.54859 -5.13486 0
M  V30 70092 H 6687.13 6.45677 -4.36717 0
M  V30 70093 N 6691.36 1.40221 0.719432 0
M  V30 70094 C 6692.29 1.42932 1.84642 0
M  V30 70095 C 6693.27 0.290708 1.67597 0
M  V30 70096 O 6694.45 0.498776 1.87686 0
M  V30 70097 C 6691.58 1.28739 3.22558 0
M  V30 70098 C 6690.54 2.40163 3.54268 0
M  V30 70099 C 6689.86 2.11049 4.91286 0
M  V30 70100 C 6691.16 3.825 3.55656 0
M  V30 70101 H 6692.86 2.37247 1.82631 0
M  V30 70102 H 6690.4 1.14195 0.877245 0
M  V30 70103 H 6692.36 1.29253 4.01088 0
M  V30 70104 H 6691.08 0.308982 3.25135 0
M  V30 70105 H 6689.74 2.38892 2.78076 0
M  V30 70106 H 6689.39 1.11608 4.90462 0
M  V30 70107 H 6689.09 2.85697 5.1347 0
M  V30 70108 H 6690.61 2.13239 5.72155 0
M  V30 70109 H 6692.03 3.85615 4.24234 0
M  V30 70110 H 6690.42 4.56635 3.89364 0
M  V30 70111 H 6691.49 4.1236 2.55123 0
M  V30 70112 N 6692.84 -0.951253 1.25654 0
M  V30 70113 C 6693.75 -2.08218 1.08084 0
M  V30 70114 C 6694.76 -1.73992 0.0170583 0
M  V30 70115 O 6695.94 -2.00209 0.218699 0
M  V30 70116 C 6693 -3.39454 0.705101 0
M  V30 70117 C 6692.06 -3.87527 1.8472 0
M  V30 70118 C 6691.3 -5.125 1.48929 0
M  V30 70119 O 6691.52 -5.69089 0.386456 0
M  V30 70120 O 6690.45 -5.55365 2.32063 0
M  V30 70121 H 6694.28 -2.25944 2.02936 0
M  V30 70122 H 6691.87 -1.0665 1.04623 0
M  V30 70123 H 6693.75 -4.18329 0.50783 0
M  V30 70124 H 6692.42 -3.22991 -0.214121 0
M  V30 70125 H 6691.33 -3.09642 2.09935 0
M  V30 70126 H 6692.66 -4.08494 2.74578 0
M  V30 70127 N 6694.31 -1.07295 -1.15437 0
M  V30 70128 C 6695.25 -0.636914 -2.19132 0
M  V30 70129 C 6696.23 0.345536 -1.58886 0
M  V30 70130 O 6697.41 0.252096 -1.86807 0
M  V30 70131 C 6694.54 0.0648229 -3.38638 0
M  V30 70132 C 6693.58 -0.87598 -4.17407 0
M  V30 70133 S 6694.42 -2.37667 -4.79869 0
M  V30 70134 C 6695.57 -1.68672 -6.02744 0
M  V30 70135 H 6695.8 -1.5154 -2.55779 0
M  V30 70136 H 6693.34 -0.88686 -1.26389 0
M  V30 70137 H 6695.3 0.463449 -4.07875 0
M  V30 70138 H 6693.96 0.919643 -3.00335 0
M  V30 70139 H 6693.15 -0.331695 -5.02907 0
M  V30 70140 H 6692.75 -1.21496 -3.53715 0
M  V30 70141 H 6695.04 -0.998106 -6.70108 0
M  V30 70142 H 6695.99 -2.52002 -6.61741 0
M  V30 70143 H 6696.39 -1.16494 -5.52349 0
M  V30 70144 N 6695.79 1.32264 -0.856973 0
M  V30 70145 C 6696.74 2.30759 -0.292108 0
M  V30 70146 C 6697.74 1.5895 0.585773 0
M  V30 70147 O 6698.94 1.73665 0.473319 0
M  V30 70148 H 6695.32 0.748174 -0.0757604 0
M  V30 70149 H 6697.29 2.75889 -1.13701 0
M  V30 70150 C 6696.04 3.44047 0.502688 0
M  V30 70151 H 6695.36 3.99465 -0.163538 0
M  V30 70152 H 6696.8 4.15115 0.863472 0
M  V30 70153 C 6695.26 2.91514 1.68883 0
M  V30 70154 O 6695.79 2.89199 2.78795 0
M  V30 70155 N 6693.99 2.47883 1.51666 0
M  V30 70156 H 6693.54 2.49965 0.622535 0
M  V30 70157 H 6693.5 2.13088 2.31173 0
M  V30 70158 N 6697.27 0.615135 1.45099 0
M  V30 70159 C 6698.5 0.119878 2.06552 0
M  V30 70160 C 6698.91 -1.19891 1.45848 0
M  V30 70161 O 6698.27 -1.73191 0.575416 0
M  V30 70162 C 6698.32 -0.0181734 3.61495 0
M  V30 70163 O 6698.04 1.24844 4.19935 0
M  V30 70164 C 6699.54 -0.544005 4.39949 0
M  V30 70165 H 6696.76 0.072309 0.667093 0
M  V30 70166 H 6699.31 0.845008 1.86225 0
M  V30 70167 H 6697.46 -0.693664 3.81139 0
M  V30 70168 H 6697.88 1.08297 5.13198 0
M  V30 70169 H 6699.35 -0.589663 5.48841 0
M  V30 70170 H 6699.83 -1.56783 4.10263 0
M  V30 70171 H 6700.43 0.0976945 4.25188 0
M  V30 70172 N 6698.75 -1.53556 0.354732 0
M  V30 70173 C 6699.68 -2.28323 -0.488971 0
M  V30 70174 C 6700.66 -1.30322 -1.09317 0
M  V30 70175 O 6701.85 -1.59179 -1.11246 0
M  V30 70176 C 6698.98 -3.06439 -1.63439 0
M  V30 70177 C 6697.93 -4.12037 -1.15798 0
M  V30 70178 C 6697.26 -4.78173 -2.3928 0
M  V30 70179 C 6698.56 -5.21699 -0.250456 0
M  V30 70180 H 6700.25 -2.99097 0.134772 0
M  V30 70181 H 6697.8 -1.43847 0.0662585 0
M  V30 70182 H 6699.75 -3.57487 -2.23117 0
M  V30 70183 H 6698.47 -2.33337 -2.2852 0
M  V30 70184 H 6697.13 -3.61919 -0.583955 0
M  V30 70185 H 6696.78 -4.01653 -3.02793 0
M  V30 70186 H 6696.48 -5.49524 -2.0808 0
M  V30 70187 H 6698 -5.3201 -2.99663 0
M  V30 70188 H 6699.42 -5.68315 -0.754395 0
M  V30 70189 H 6697.81 -6.00093 -0.0298303 0
M  V30 70190 H 6698.88 -4.79668 0.710378 0
M  V30 70191 N 6700.23 -0.0836233 -1.57378 0
M  V30 70192 C 6701.18 0.897027 -2.14607 0
M  V30 70193 C 6702.17 1.30013 -1.08596 0
M  V30 70194 O 6703.38 1.27599 -1.26959 0
M  V30 70195 H 6699.75 0.307264 -0.686362 0
M  V30 70196 H 6701.72 0.389534 -2.95847 0
M  V30 70197 C 6700.47 2.15075 -2.732 0
M  V30 70198 H 6699.79 1.84944 -3.54452 0
M  V30 70199 H 6701.23 2.81777 -3.16825 0
M  V30 70200 C 6699.69 2.91716 -1.68533 0
M  V30 70201 O 6700.22 3.85846 -1.11738 0
M  V30 70202 N 6698.43 2.55042 -1.39291 0
M  V30 70203 H 6697.98 1.78567 -1.85665 0
M  V30 70204 H 6697.93 3.06623 -0.694953 0
M  V30 70205 N 6701.71 1.5645 0.190009 0
M  V30 70206 C 6702.95 1.81189 0.910957 0
M  V30 70207 C 6703.28 0.658492 1.82695 0
M  V30 70208 O 6702.56 -0.340674 1.91493 0
M  V30 70209 C 6702.84 3.16214 1.7228 0
M  V30 70210 C 6702.7 4.42054 0.831186 0
M  V30 70211 C 6704.01 3.47983 2.69436 0
M  V30 70212 H 6701.13 0.659123 0.329735 0
M  V30 70213 H 6703.78 1.89164 0.178069 0
M  V30 70214 H 6701.93 3.09547 2.34762 0
M  V30 70215 H 6703.6 4.60772 0.220686 0
M  V30 70216 H 6701.84 4.3358 0.138178 0
M  V30 70217 H 6702.51 5.33039 1.43433 0
M  V30 70218 H 6704.99 3.54984 2.17085 0
M  V30 70219 H 6703.86 4.43572 3.23319 0
M  V30 70220 H 6704.12 2.71735 3.4873 0
M  V30 70221 N 6703.18 -0.457907 1.50801 0
M  V30 70222 C 6704.12 -1.57344 1.65281 0
M  V30 70223 C 6705.09 -1.547 0.50066 0
M  V30 70224 O 6706.28 -1.7413 0.721873 0
M  V30 70225 C 6703.41 -2.9593 1.64752 0
M  V30 70226 C 6702.45 -3.16678 2.85687 0
M  V30 70227 S 6703.28 -2.95168 4.46807 0
M  V30 70228 C 6704.44 -4.36071 4.48991 0
M  V30 70229 H 6704.67 -1.44824 2.59641 0
M  V30 70230 H 6702.21 -0.646176 1.40228 0
M  V30 70231 H 6704.16 -3.75821 1.65132 0
M  V30 70232 H 6702.83 -3.05829 0.71606 0
M  V30 70233 H 6702.02 -4.17953 2.81659 0
M  V30 70234 H 6701.62 -2.4458 2.82943 0
M  V30 70235 H 6703.91 -5.28931 4.23365 0
M  V30 70236 H 6704.86 -4.45139 5.50687 0
M  V30 70237 H 6705.26 -4.18766 3.78544 0
M  V30 70238 N 6704.66 -1.40601 -0.711986 0
M  V30 70239 C 6705.59 -1.43909 -1.83882 0
M  V30 70240 C 6706.57 -0.299592 -1.67441 0
M  V30 70241 O 6707.76 -0.508723 -1.87418 0
M  V30 70242 C 6704.89 -1.30448 -3.2187 0
M  V30 70243 C 6703.84 -2.42038 -3.5299 0
M  V30 70244 C 6703.17 -2.13652 -4.9016 0
M  V30 70245 C 6704.47 -3.8438 -3.53623 0
M  V30 70246 H 6706.16 -2.38212 -1.8137 0
M  V30 70247 H 6703.71 -1.14658 -0.871177 0
M  V30 70248 H 6705.66 -1.31378 -4.00397 0
M  V30 70249 H 6704.38 -0.326221 -3.24967 0
M  V30 70250 H 6703.04 -2.40363 -2.76805 0
M  V30 70251 H 6702.69 -1.14208 -4.89863 0
M  V30 70252 H 6702.39 -2.88416 -5.11947 0
M  V30 70253 H 6703.92 -2.1627 -5.71016 0
M  V30 70254 H 6705.33 -3.87859 -4.22183 0
M  V30 70255 H 6703.73 -4.58693 -3.86937 0
M  V30 70256 H 6704.8 -4.13707 -2.52932 0
M  V30 70257 N 6706.14 0.944576 -1.26157 0
M  V30 70258 C 6707.39 1.68704 -1.1128 0
M  V30 70259 C 6707.71 1.91923 0.345065 0
M  V30 70260 O 6706.98 1.5135 1.24379 0
M  V30 70261 H 6705.56 0.625203 -0.408816 0
M  V30 70262 H 6708.22 1.13512 -1.58433 0
M  V30 70263 H 6707.32 2.66218 -1.62893 0
M  V30 70264 N 6707.62 1.07905 1.14866 0
M  V30 70265 C 6708.85 0.82693 1.89656 0
M  V30 70266 C 6709.26 -0.620425 1.78315 0
M  V30 70267 O 6708.62 -1.42598 1.13895 0
M  V30 70268 C 6708.67 1.23334 3.3981 0
M  V30 70269 O 6708.39 2.62391 3.50831 0
M  V30 70270 C 6709.89 1.01133 4.3161 0
M  V30 70271 H 6707.11 0.298588 0.600904 0
M  V30 70272 H 6709.65 1.43699 1.45502 0
M  V30 70273 H 6707.81 0.667487 3.81606 0
M  V30 70274 H 6708.22 2.79124 4.44061 0
M  V30 70275 H 6709.7 1.34514 5.3536 0
M  V30 70276 H 6710.17 -0.0519853 4.39169 0
M  V30 70277 H 6710.78 1.56236 3.95563 0
M  V30 70278 N 6709.1 -1.31808 0.863975 0
M  V30 70279 C 6710.03 -2.31143 0.330965 0
M  V30 70280 C 6711.01 -1.6009 -0.574921 0
M  V30 70281 O 6712.19 -1.87833 -0.493205 0
M  V30 70282 C 6709.32 -3.44056 -0.473558 0
M  V30 70283 C 6708.28 -4.26658 0.338706 0
M  V30 70284 C 6707.6 -5.31422 -0.591131 0
M  V30 70285 C 6708.9 -4.9816 1.56953 0
M  V30 70286 H 6710.6 -2.75973 1.16101 0
M  V30 70287 H 6708.14 -1.32676 0.559727 0
M  V30 70288 H 6710.09 -4.12595 -0.856926 0
M  V30 70289 H 6708.82 -2.97977 -1.33705 0
M  V30 70290 H 6707.48 -3.59778 0.703944 0
M  V30 70291 H 6707.13 -4.81595 -1.45174 0
M  V30 70292 H 6706.83 -5.87577 -0.0515924 0
M  V30 70293 H 6708.35 -6.02822 -0.971473 0
M  V30 70294 H 6709.76 -5.59329 1.25793 0
M  V30 70295 H 6708.16 -5.64083 2.04769 0
M  V30 70296 H 6709.23 -4.25489 2.32567 0
M  V30 70297 N 6710.57 -0.622821 -1.44771 0
M  V30 70298 C 6711.52 0.0993457 -2.32388 0
M  V30 70299 C 6712.52 0.844248 -1.46863 0
M  V30 70300 O 6713.72 0.758088 -1.63258 0
M  V30 70301 H 6710.1 0.0508895 -0.750276 0
M  V30 70302 H 6712.07 -0.657823 -2.91059 0
M  V30 70303 C 6710.82 1.07301 -3.30729 0
M  V30 70304 H 6710.14 0.509253 -3.96543 0
M  V30 70305 H 6711.58 1.54796 -3.94733 0
M  V30 70306 C 6710.04 2.15415 -2.59032 0
M  V30 70307 O 6710.57 3.2338 -2.38303 0
M  V30 70308 N 6708.78 1.91119 -2.1891 0
M  V30 70309 H 6708.32 1.03325 -2.3597 0
M  V30 70310 H 6708.28 2.63659 -1.71264 0
M  V30 70311 N 6712.05 1.53366 -0.362871 0
M  V30 70312 C 6712.98 2.28579 0.476856 0
M  V30 70313 C 6713.96 1.309 1.08625 0
M  V30 70314 O 6715.15 1.59767 1.10401 0
M  V30 70315 C 6712.28 3.07301 1.61812 0
M  V30 70316 C 6711.23 4.12646 1.13611 0
M  V30 70317 C 6710.56 4.79435 2.3674 0
M  V30 70318 C 6711.86 5.21825 0.222786 0
M  V30 70319 H 6713.55 2.99021 -0.150631 0
M  V30 70320 H 6711.1 1.4381 -0.0738861 0
M  V30 70321 H 6713.05 3.58665 2.21218 0
M  V30 70322 H 6711.78 2.34545 2.2728 0
M  V30 70323 H 6710.43 3.62224 0.564754 0
M  V30 70324 H 6710.08 4.03254 3.00659 0
M  V30 70325 H 6709.78 5.5062 2.05163 0
M  V30 70326 H 6711.31 5.33592 2.96837 0
M  V30 70327 H 6712.72 5.68707 0.724245 0
M  V30 70328 H 6711.12 6.001 -0.00199445 0
M  V30 70329 H 6712.19 4.79285 -0.735806 0
M  V30 70330 N 6713.53 0.0919683 1.57331 0
M  V30 70331 C 6714.49 -0.853578 2.12713 0
M  V30 70332 C 6715.49 -1.21294 1.05567 0
M  V30 70333 O 6716.68 -1.14289 1.31467 0
M  V30 70334 C 6713.82 -2.15047 2.64514 0
M  V30 70335 H 6715.01 -0.372743 2.97575 0
M  V30 70336 H 6712.56 -0.15699 1.5551 0
M  V30 70337 H 6713.3 -2.67622 1.83163 0
M  V30 70338 H 6713.08 -1.90254 3.4285 0
M  V30 70339 H 6714.57 -2.82694 3.07366 0
M  V30 70340 N 6715.01 -1.56549 -0.18171 0
M  V30 70341 C 6715.94 -1.98629 -1.22754 0
M  V30 70342 C 6716.92 -0.860266 -1.46743 0
M  V30 70343 O 6718.1 -1.12559 -1.58253 0
M  V30 70344 C 6715.23 -2.33729 -2.56882 0
M  V30 70345 C 6714.19 -3.49195 -2.47482 0
M  V30 70346 C 6713.51 -3.70007 -3.86004 0
M  V30 70347 C 6714.81 -4.8297 -1.9884 0
M  V30 70348 H 6716.51 -2.86243 -0.877791 0
M  V30 70349 H 6714.05 -1.37714 -0.420807 0
M  V30 70350 H 6716.01 -2.61763 -3.30239 0
M  V30 70351 H 6714.73 -1.43012 -2.93624 0
M  V30 70352 H 6713.39 -3.21272 -1.76579 0
M  V30 70353 H 6713.04 -2.76598 -4.20122 0
M  V30 70354 H 6712.74 -4.47692 -3.80585 0
M  V30 70355 H 6714.26 -4.00431 -4.60963 0
M  V30 70356 H 6715.68 -5.09948 -2.61965 0
M  V30 70357 H 6714.07 -5.64219 -2.04394 0
M  V30 70358 H 6715.14 -4.75658 -0.942214 0
M  V30 70359 N 6716.49 0.449904 -1.51042 0
M  V30 70360 C 6717.73 1.20215 -1.63329 0
M  V30 70361 C 6718.07 1.91156 -0.342511 0
M  V30 70362 O 6717.34 1.83059 0.657248 0
M  V30 70363 C 6717.62 2.2291 -2.82813 0
M  V30 70364 C 6717.48 1.56135 -4.21832 0
M  V30 70365 C 6718.8 3.2402 -2.97824 0
M  V30 70366 H 6715.91 0.435686 -0.594429 0
M  V30 70367 H 6718.56 0.493039 -1.83491 0
M  V30 70368 H 6716.71 2.83386 -2.65753 0
M  V30 70369 H 6718.38 0.990925 -4.50531 0
M  V30 70370 H 6716.62 0.863948 -4.2511 0
M  V30 70371 H 6717.29 2.30864 -5.01404 0
M  V30 70372 H 6719.77 2.73587 -3.13512 0
M  V30 70373 H 6718.64 3.93182 -3.83013 0
M  V30 70374 H 6718.91 3.89391 -2.09349 0
M  V30 70375 N 6717.96 1.40976 0.704519 0
M  V30 70376 C 6718.93 1.41854 1.80028 0
M  V30 70377 C 6719.93 0.310557 1.57773 0
M  V30 70378 O 6721.12 0.570007 1.6461 0
M  V30 70379 C 6718.25 1.22115 3.18278 0
M  V30 70380 H 6719.44 2.3939 1.80645 0
M  V30 70381 H 6717 1.26987 0.911262 0
M  V30 70382 H 6717.73 0.253842 3.23305 0
M  V30 70383 H 6717.52 2.02384 3.35832 0
M  V30 70384 H 6719.01 1.25543 3.98282 0
M  V30 70385 N 6719.44 -0.937872 1.26656 0
M  V30 70386 C 6720.35 -2.0706 1.10287 0
M  V30 70387 C 6721.37 -1.73964 0.0355115 0
M  V30 70388 O 6722.54 -1.99966 0.239921 0
M  V30 70389 C 6719.61 -3.38687 0.741065 0
M  V30 70390 C 6718.67 -3.85546 1.88819 0
M  V30 70391 C 6717.9 -5.10891 1.54356 0
M  V30 70392 O 6718.13 -5.68647 0.446794 0
M  V30 70393 O 6717.06 -5.52873 2.3794 0
M  V30 70394 H 6720.89 -2.23779 2.05321 0
M  V30 70395 H 6718.47 -1.05535 1.05749 0
M  V30 70396 H 6720.35 -4.17767 0.552171 0
M  V30 70397 H 6719.03 -3.232 -0.179851 0
M  V30 70398 H 6717.94 -3.07398 2.13208 0
M  V30 70399 H 6719.27 -4.05559 2.78895 0
M  V30 70400 N 6720.92 -1.08513 -1.14292 0
M  V30 70401 C 6721.85 -0.673974 -2.19067 0
M  V30 70402 C 6722.87 0.279493 -1.60383 0
M  V30 70403 O 6724.05 0.0669813 -1.78374 0
M  V30 70404 C 6721.15 0.0289192 -3.38888 0
M  V30 70405 C 6720.33 -0.943719 -4.27098 0
M  V30 70406 C 6719.39 -0.275953 -5.25476 0
M  V30 70407 O 6718.41 -0.920697 -5.61704 0
M  V30 70408 N 6719.61 0.973711 -5.72275 0
M  V30 70409 H 6722.38 -1.57534 -2.54957 0
M  V30 70410 H 6719.94 -0.971355 -1.29523 0
M  V30 70411 H 6721.93 0.486618 -4.01764 0
M  V30 70412 H 6720.5 0.832397 -3.01314 0
M  V30 70413 H 6719.72 -1.58023 -3.6114 0
M  V30 70414 H 6721.01 -1.60277 -4.82896 0
M  V30 70415 H 6720.41 1.51726 -5.44973 0
M  V30 70416 H 6718.97 1.37489 -6.37134 0
M  V30 70417 N 6722.4 1.31347 -0.870953 0
M  V30 70418 C 6723.31 2.32255 -0.330906 0
M  V30 70419 C 6724.32 1.64753 0.55968 0
M  V30 70420 O 6725.5 1.96166 0.45616 0
M  V30 70421 C 6722.57 3.43662 0.457956 0
M  V30 70422 C 6721.63 4.26821 -0.460707 0
M  V30 70423 C 6720.86 5.32908 0.2906 0
M  V30 70424 O 6721.08 5.49814 1.51856 0
M  V30 70425 O 6720.02 6.0087 -0.352049 0
M  V30 70426 H 6723.84 2.8037 -1.16733 0
M  V30 70427 H 6721.43 1.35264 -0.634356 0
M  V30 70428 H 6723.31 4.11565 0.905126 0
M  V30 70429 H 6721.98 2.97707 1.27091 0
M  V30 70430 H 6720.89 3.61668 -0.956397 0
M  V30 70431 H 6722.22 4.76343 -1.23928 0
M  V30 70432 N 6723.88 0.63049 1.44439 0
M  V30 70433 C 6725.1 0.140053 2.06927 0
M  V30 70434 C 6725.53 -1.17605 1.46802 0
M  V30 70435 O 6724.88 -1.72132 0.569235 0
M  V30 70436 C 6724.93 0.0381482 3.6058 0
M  V30 70437 O 6724.04 -1.00599 3.99942 0
M  V30 70438 H 6723.38 0.084483 0.658604 0
M  V30 70439 H 6725.91 0.866989 1.85323 0
M  V30 70440 H 6725.92 -0.152641 4.07714 0
M  V30 70441 H 6724.59 0.999022 4.03723 0
M  V30 70442 H 6723.17 -0.789818 3.6444 0
M  V30 70443 N 6725.36 -1.53171 0.370999 0
M  V30 70444 C 6726.3 -2.25903 -0.472916 0
M  V30 70445 C 6727.27 -1.26787 -1.07305 0
M  V30 70446 O 6728.46 -1.5558 -1.10452 0
M  V30 70447 C 6725.6 -3.05564 -1.60389 0
M  V30 70448 C 6724.71 -4.19581 -1.0284 0
M  V30 70449 C 6723.85 -4.86673 -2.12893 0
M  V30 70450 C 6722.88 -5.92712 -1.52838 0
M  V30 70451 N 6722.02 -6.53473 -2.56745 0
M  V30 70452 H 6726.86 -2.97603 0.153806 0
M  V30 70453 H 6724.4 -1.46839 0.087672 0
M  V30 70454 H 6726.36 -3.50028 -2.27015 0
M  V30 70455 H 6724.99 -2.36109 -2.20119 0
M  V30 70456 H 6724.04 -3.79563 -0.252265 0
M  V30 70457 H 6725.35 -4.95765 -0.549381 0
M  V30 70458 H 6724.5 -5.34348 -2.87328 0
M  V30 70459 H 6723.24 -4.09972 -2.64149 0
M  V30 70460 H 6722.25 -5.44393 -0.769192 0
M  V30 70461 H 6723.47 -6.71335 -1.02399 0
M  V30 70462 H 6721.42 -5.79622 -3.07204 0
M  V30 70463 H 6721.34 -7.25214 -2.13545 0
M  V30 70464 H 6722.6 -7.05796 -3.30866 0
M  V30 70465 N 6726.83 -0.100311 -1.5728 0
M  V30 70466 C 6728.11 0.604714 -1.86018 0
M  V30 70467 C 6728.49 1.86013 -0.998123 0
M  V30 70468 O 6727.84 2.28387 -0.0719388 0
M  V30 70469 C 6728.05 0.915101 -3.36789 0
M  V30 70470 C 6729.4 1.27629 -4.04964 0
M  V30 70471 O 6730.42 1.00595 -3.417 0
M  V30 70472 O 6729.28 1.78282 -5.16602 0
M  V30 70473 H 6726.37 0.303144 -0.769436 0
M  V30 70474 H 6728.92 -0.133402 -1.69175 0
M  V30 70475 H 6727.69 0.0246832 -3.91292 0
M  V30 70476 H 6727.31 1.70902 -3.58996 0
M  V30 70477 N 6728.31 1.56643 0.173405 0
M  V30 70478 C 6729.54 1.86367 0.910051 0
M  V30 70479 C 6729.96 0.686411 1.75129 0
M  V30 70480 O 6729.32 -0.364549 1.77597 0
M  V30 70481 C 6729.37 3.14491 1.76431 0
M  V30 70482 O 6728.47 2.96568 2.86568 0
M  V30 70483 H 6727.81 0.613061 0.255054 0
M  V30 70484 H 6730.34 2.03874 0.172175 0
M  V30 70485 H 6730.35 3.45842 2.16465 0
M  V30 70486 H 6729.03 3.99789 1.14637 0
M  V30 70487 H 6727.6 2.76566 2.50132 0
M  V30 70488 N 6729.79 -0.441887 1.51278 0
M  V30 70489 C 6731.04 -1.18935 1.63398 0
M  V30 70490 C 6731.36 -1.91829 0.35026 0
M  V30 70491 O 6730.63 -1.85368 -0.633686 0
M  V30 70492 H 6729.21 -0.442018 0.602187 0
M  V30 70493 H 6731.87 -0.507066 1.88188 0
M  V30 70494 H 6730.97 -1.92141 2.45944 0
M  V30 70495 N 6731.27 -1.41348 -0.697033 0
M  V30 70496 C 6732.52 -1.40349 -1.45419 0
M  V30 70497 C 6732.84 -0.0129816 -1.94996 0
M  V30 70498 O 6732.11 0.944936 -1.71604 0
M  V30 70499 H 6730.69 -0.516601 -0.539567 0
M  V30 70500 H 6733.35 -1.76573 -0.825108 0
M  V30 70501 H 6732.44 -2.08979 -2.31806 0
M  V30 70502 N 6732.75 0.931142 -1.27151 0
M  V30 70503 C 6733.71 2.01283 -1.09625 0
M  V30 70504 C 6734.71 1.60747 -0.0413429 0
M  V30 70505 O 6735.9 1.71842 -0.285635 0
M  V30 70506 C 6733.03 3.34259 -0.669623 0
M  V30 70507 H 6734.22 2.18262 -2.05674 0
M  V30 70508 H 6731.78 1.11147 -1.09891 0
M  V30 70509 H 6732.51 3.22979 0.292401 0
M  V30 70510 H 6732.3 3.65036 -1.43146 0
M  V30 70511 H 6733.79 4.13703 -0.569139 0
M  V30 70512 N 6734.22 1.09118 1.13715 0
M  V30 70513 C 6735.19 0.731356 2.17218 0
M  V30 70514 C 6736.19 -0.237482 1.59037 0
M  V30 70515 O 6737.38 -0.0160786 1.74193 0
M  V30 70516 C 6734.51 0.081024 3.40804 0
M  V30 70517 H 6735.7 1.64796 2.50564 0
M  V30 70518 H 6733.25 0.889965 1.28489 0
M  V30 70519 H 6733.99 -0.846962 3.13045 0
M  V30 70520 H 6733.77 0.778098 3.84302 0
M  V30 70521 H 6735.26 -0.155437 4.17311 0
M  V30 70522 N 6735.7 -1.30884 0.877907 0
M  V30 70523 C 6736.95 -1.96703 0.49353 0
M  V30 70524 C 6737.28 -1.69185 -0.953415 0
M  V30 70525 O 6736.56 -0.992682 -1.6726 0
M  V30 70526 C 6736.84 -3.51975 0.760615 0
M  V30 70527 C 6736.69 -3.89036 2.25767 0
M  V30 70528 C 6738.01 -4.39486 0.23238 0
M  V30 70529 H 6735.13 -0.714483 0.180784 0
M  V30 70530 H 6737.77 -1.54877 1.1006 0
M  V30 70531 H 6735.92 -3.87734 0.243919 0
M  V30 70532 H 6737.59 -3.63339 2.84223 0
M  V30 70533 H 6735.84 -3.37358 2.72712 0
M  V30 70534 H 6736.51 -4.97328 2.39517 0
M  V30 70535 H 6738.98 -4.10596 0.67453 0
M  V30 70536 H 6737.86 -5.47063 0.448643 0
M  V30 70537 H 6738.12 -4.33534 -0.866068 0
M  V30 70538 N 6737.18 -0.638141 -1.44102 0
M  V30 70539 C 6738.14 0.0529804 -2.29139 0
M  V30 70540 C 6739.14 0.765432 -1.41414 0
M  V30 70541 O 6740.33 0.60896 -1.63209 0
M  V30 70542 C 6737.46 1.08567 -3.2315 0
M  V30 70543 H 6738.66 -0.695037 -2.91735 0
M  V30 70544 H 6736.21 -0.398618 -1.51131 0
M  V30 70545 H 6736.95 1.86343 -2.65418 0
M  V30 70546 H 6736.73 0.578647 -3.87807 0
M  V30 70547 H 6738.22 1.56879 -3.87013 0
M  V30 70548 N 6738.66 1.52972 -0.379117 0
M  V30 70549 C 6739.57 2.29874 0.468518 0
M  V30 70550 C 6740.58 1.36378 1.0806 0
M  V30 70551 O 6741.76 1.69443 1.08862 0
M  V30 70552 C 6738.82 3.08308 1.58578 0
M  V30 70553 C 6737.89 4.17494 0.99985 0
M  V30 70554 C 6737.12 4.92179 2.06387 0
M  V30 70555 O 6737.34 4.66853 3.27727 0
M  V30 70556 O 6736.28 5.77779 1.68686 0
M  V30 70557 H 6740.1 3.0329 -0.157667 0
M  V30 70558 H 6737.69 1.48713 -0.143113 0
M  V30 70559 H 6739.57 3.57243 2.23507 0
M  V30 70560 H 6738.24 2.37715 2.19712 0
M  V30 70561 H 6737.15 3.72779 0.314102 0
M  V30 70562 H 6738.48 4.90293 0.432877 0
M  V30 70563 N 6740.14 0.10865 1.57225 0
M  V30 70564 C 6741.07 -0.87564 2.11814 0
M  V30 70565 C 6742.08 -1.23695 1.05846 0
M  V30 70566 O 6743.27 -1.18771 1.33251 0
M  V30 70567 C 6740.37 -2.18067 2.59422 0
M  V30 70568 C 6739.54 -1.99263 3.89375 0
M  V30 70569 C 6738.6 -3.13402 4.22689 0
M  V30 70570 O 6737.63 -2.86769 4.91683 0
M  V30 70571 N 6738.83 -4.3955 3.79178 0
M  V30 70572 H 6741.6 -0.40932 2.96892 0
M  V30 70573 H 6739.16 -0.0760727 1.61721 0
M  V30 70574 H 6741.15 -2.93399 2.78745 0
M  V30 70575 H 6739.72 -2.5608 1.79281 0
M  V30 70576 H 6738.94 -1.08183 3.79065 0
M  V30 70577 H 6740.23 -1.83992 4.74367 0
M  V30 70578 H 6739.62 -4.64066 3.23511 0
M  V30 70579 H 6738.18 -5.11788 4.03629 0
M  V30 70580 N 6741.61 -1.56733 -0.165095 0
M  V30 70581 C 6742.86 -1.82615 -0.882016 0
M  V30 70582 C 6743.19 -0.687474 -1.81624 0
M  V30 70583 O 6742.47 0.310166 -1.92011 0
M  V30 70584 C 6742.75 -3.18915 -1.67228 0
M  V30 70585 C 6742.6 -4.4332 -0.760754 0
M  V30 70586 C 6743.92 -3.52226 -2.63865 0
M  V30 70587 H 6741.04 -0.664286 -0.319207 0
M  V30 70588 H 6743.68 -1.89423 -0.147952 0
M  V30 70589 H 6741.83 -3.13242 -2.29807 0
M  V30 70590 H 6743.51 -4.61065 -0.147353 0
M  V30 70591 H 6741.75 -4.33745 -0.0691815 0
M  V30 70592 H 6742.42 -5.35254 -1.34934 0
M  V30 70593 H 6744.9 -3.58392 -2.1141 0
M  V30 70594 H 6743.77 -4.4866 -3.16221 0
M  V30 70595 H 6744.03 -2.77249 -3.44362 0
M  V30 70596 N 6743.09 0.433858 -1.5151 0
M  V30 70597 C 6744.02 1.5342 -1.76024 0
M  V30 70598 C 6745 1.58779 -0.610195 0
M  V30 70599 O 6746.19 1.7445 -0.853269 0
M  V30 70600 C 6743.32 2.9147 -1.88846 0
M  V30 70601 C 6742.27 3.00971 -3.04303 0
M  V30 70602 C 6741.6 4.41034 -3.02313 0
M  V30 70603 C 6742.9 2.74731 -4.44208 0
M  V30 70604 H 6744.59 1.33157 -2.68159 0
M  V30 70605 H 6742.14 0.639146 -1.29038 0
M  V30 70606 H 6744.09 3.6841 -2.04578 0
M  V30 70607 H 6742.82 3.12971 -0.93362 0
M  V30 70608 H 6741.47 2.26471 -2.88282 0
M  V30 70609 H 6741.12 4.59508 -2.046 0
M  V30 70610 H 6740.82 4.4832 -3.79846 0
M  V30 70611 H 6742.35 5.19943 -3.20143 0
M  V30 70612 H 6743.76 3.41402 -4.60562 0
M  V30 70613 H 6742.16 2.93422 -5.23472 0
M  V30 70614 H 6743.23 1.70315 -4.54005 0
M  V30 70615 N 6744.57 1.41715 0.689527 0
M  V30 70616 C 6745.8 1.44967 1.48322 0
M  V30 70617 C 6746.22 0.0582274 1.8801 0
M  V30 70618 O 6745.58 -0.939953 1.55031 0
M  V30 70619 C 6745.63 2.36949 2.71823 0
M  V30 70620 O 6744.73 1.8307 3.69539 0
M  V30 70621 H 6744.07 0.491757 0.446173 0
M  V30 70622 H 6746.6 1.86243 0.847029 0
M  V30 70623 H 6746.61 2.5303 3.20062 0
M  V30 70624 H 6745.29 3.38048 2.42274 0
M  V30 70625 H 6743.86 1.7647 3.28501 0
M  V30 70626 N 6746.05 -0.924386 1.27643 0
M  V30 70627 C 6747.3 -1.66696 1.13558 0
M  V30 70628 C 6747.61 -1.93008 -0.317386 0
M  V30 70629 O 6748.82 -2.6525 -0.579194 0
M  V30 70630 C 6747.27 -3.00248 1.98441 0
M  V30 70631 C 6746.88 -2.81622 3.48415 0
M  V30 70632 C 6748.62 -3.78082 1.93013 0
M  V30 70633 C 6746.53 -4.10751 4.25485 0
M  V30 70634 H 6745.46 -0.625261 0.421384 0
M  V30 70635 H 6748.11 -1.02668 1.52091 0
M  V30 70636 H 6746.49 -3.65351 1.52756 0
M  V30 70637 H 6747.67 -2.25265 4.01985 0
M  V30 70638 H 6745.98 -2.17214 3.55257 0
M  V30 70639 H 6748.58 -4.73777 2.47869 0
M  V30 70640 H 6748.92 -4.06355 0.904495 0
M  V30 70641 H 6749.46 -3.19781 2.36611 0
M  V30 70642 H 6746.2 -3.87655 5.28587 0
M  V30 70643 H 6745.72 -4.66759 3.76691 0
M  V30 70644 H 6747.39 -4.79088 4.34837 0
M  V30 70645 N 6747.53 -1.09719 -1.13135 0
M  V30 70646 C 6748.46 -0.683251 -2.17731 0
M  V30 70647 C 6749.44 0.311757 -1.59583 0
M  V30 70648 O 6750.62 0.212415 -1.87299 0
M  V30 70649 C 6747.75 -0.00702184 -3.38699 0
M  V30 70650 C 6746.79 -0.964321 -4.15455 0
M  V30 70651 S 6747.63 -2.47792 -4.7472 0
M  V30 70652 C 6748.78 -1.81419 -5.99031 0
M  V30 70653 H 6749.02 -1.56931 -2.52507 0
M  V30 70654 H 6746.55 -0.913469 -1.24479 0
M  V30 70655 H 6748.51 0.376828 -4.08767 0
M  V30 70656 H 6747.17 0.85573 -3.02219 0
M  V30 70657 H 6746.36 -0.438294 -5.02091 0
M  V30 70658 H 6745.96 -1.28972 -3.51059 0
M  V30 70659 H 6748.26 -1.14002 -6.6784 0
M  V30 70660 H 6749.2 -2.65981 -6.56247 0
M  V30 70661 H 6749.61 -1.28184 -5.49754 0
M  V30 70662 N 6749 1.30416 -0.884835 0
M  V30 70663 C 6749.91 2.31891 -0.355521 0
M  V30 70664 C 6750.93 1.65337 0.542174 0
M  V30 70665 O 6752.11 1.96639 0.435328 0
M  V30 70666 C 6749.17 3.44129 0.42148 0
M  V30 70667 C 6748.23 4.26308 -0.505951 0
M  V30 70668 C 6747.47 5.33186 0.234062 0
M  V30 70669 O 6747.69 5.51394 1.46016 0
M  V30 70670 O 6746.62 6.00462 -0.415759 0
M  V30 70671 H 6750.45 2.79116 -1.197 0
M  V30 70672 H 6748.03 1.34583 -0.648667 0
M  V30 70673 H 6749.92 4.12501 0.861423 0
M  V30 70674 H 6748.59 2.99039 1.23926 0
M  V30 70675 H 6747.5 3.60633 -0.994703 0
M  V30 70676 H 6748.83 4.75002 -1.28973 0
M  V30 70677 N 6750.48 0.645774 1.43762 0
M  V30 70678 C 6751.73 0.153518 2.01115 0
M  V30 70679 C 6752.04 -1.23723 1.51499 0
M  V30 70680 O 6753.25 -1.82429 2.01076 0
M  V30 70681 C 6751.71 0.223663 3.59204 0
M  V30 70682 C 6751.31 1.61664 4.17814 0
M  V30 70683 C 6753.06 -0.211374 4.23973 0
M  V30 70684 C 6750.97 1.64111 5.68174 0
M  V30 70685 H 6749.9 0.0536288 0.75209 0
M  V30 70686 H 6752.55 0.80672 1.64816 0
M  V30 70687 H 6750.93 -0.496911 3.9287 0
M  V30 70688 H 6752.1 2.36196 3.95661 0
M  V30 70689 H 6750.42 1.99701 3.65388 0
M  V30 70690 H 6753.01 -0.21283 5.34276 0
M  V30 70691 H 6753.36 -1.24144 3.97359 0
M  V30 70692 H 6753.89 0.457197 3.95164 0
M  V30 70693 H 6750.63 2.65002 5.99545 0
M  V30 70694 H 6750.15 0.938923 5.92405 0
M  V30 70695 H 6751.83 1.38153 6.32078 0
M  V30 70696 N 6751.96 -1.52769 0.387224 0
M  V30 70697 C 6753.21 -2.00737 -0.196864 0
M  V30 70698 C 6753.52 -1.27801 -1.48075 0
M  V30 70699 O 6754.73 -1.66469 -2.14476 0
M  V30 70700 C 6753.18 -3.57655 -0.40138 0
M  V30 70701 C 6752.79 -4.39488 0.869138 0
M  V30 70702 C 6754.54 -4.13917 -0.941946 0
M  V30 70703 C 6752.44 -5.88002 0.633015 0
M  V30 70704 H 6751.37 -0.750023 -0.0773431 0
M  V30 70705 H 6754.02 -1.76291 0.509303 0
M  V30 70706 H 6752.41 -3.78342 -1.16934 0
M  V30 70707 H 6753.58 -4.30569 1.64156 0
M  V30 70708 H 6751.9 -3.94436 1.3345 0
M  V30 70709 H 6754.49 -5.22531 -1.13428 0
M  V30 70710 H 6754.84 -3.69877 -1.9104 0
M  V30 70711 H 6755.37 -3.97113 -0.233604 0
M  V30 70712 H 6752.11 -6.36361 1.57241 0
M  V30 70713 H 6751.63 -5.99716 -0.100509 0
M  V30 70714 H 6753.31 -6.4645 0.266761 0
M  V30 70715 N 6753.44 -0.116987 -1.57165 0
M  V30 70716 C 6754.37 0.830644 -2.18226 0
M  V30 70717 C 6755.35 1.27872 -1.12173 0
M  V30 70718 O 6756.53 1.34168 -1.40401 0
M  V30 70719 C 6753.66 2.08158 -2.78007 0
M  V30 70720 C 6752.62 1.77137 -3.89624 0
M  V30 70721 C 6751.94 3.09242 -4.36203 0
M  V30 70722 C 6753.24 1.04124 -5.11816 0
M  V30 70723 H 6754.94 0.321835 -2.97665 0
M  V30 70724 H 6752.48 0.153359 -1.43181 0
M  V30 70725 H 6754.44 2.74907 -3.19381 0
M  V30 70726 H 6753.16 2.6136 -1.95854 0
M  V30 70727 H 6751.82 1.12777 -3.48822 0
M  V30 70728 H 6751.47 3.60375 -3.50912 0
M  V30 70729 H 6751.17 2.89261 -5.1147 0
M  V30 70730 H 6752.69 3.77113 -4.80227 0
M  V30 70731 H 6754.11 1.61023 -5.50222 0
M  V30 70732 H 6752.5 0.942449 -5.92653 0
M  V30 70733 H 6753.57 0.0276465 -4.84892 0
M  V30 70734 N 6754.92 1.56818 0.156781 0
M  V30 70735 C 6756.19 1.73708 0.899152 0
M  V30 70736 C 6756.57 0.682359 1.99768 0
M  V30 70737 O 6755.92 -0.300403 2.26517 0
M  V30 70738 C 6756.13 3.17426 1.45058 0
M  V30 70739 C 6757.48 3.7882 1.91782 0
M  V30 70740 O 6758.5 3.20794 1.54821 0
M  V30 70741 O 6757.36 4.80735 2.59915 0
M  V30 70742 H 6754.46 0.7099 0.424229 0
M  V30 70743 H 6757 1.69092 0.143471 0
M  V30 70744 H 6755.78 3.85683 0.660642 0
M  V30 70745 H 6755.4 3.26428 2.27004 0
M  V30 70746 N 6756.4 -0.425817 1.51738 0
M  V30 70747 C 6757.31 -1.54266 1.76746 0
M  V30 70748 C 6758.32 -1.61315 0.652195 0
M  V30 70749 O 6759.5 -1.78342 0.935748 0
M  V30 70750 C 6756.56 -2.90152 1.8977 0
M  V30 70751 C 6755.62 -2.93126 3.13649 0
M  V30 70752 C 6754.86 -4.22531 3.26042 0
M  V30 70753 O 6755.08 -5.15533 2.44094 0
M  V30 70754 O 6754.01 -4.32023 4.19093 0
M  V30 70755 H 6757.84 -1.36074 2.7151 0
M  V30 70756 H 6755.42 -0.609997 1.3638 0
M  V30 70757 H 6757.31 -3.70777 2.00255 0
M  V30 70758 H 6755.98 -3.08447 0.981947 0
M  V30 70759 H 6754.89 -2.11415 3.08634 0
M  V30 70760 H 6756.22 -2.79778 4.04951 0
M  V30 70761 N 6757.87 -1.42079 -0.682002 0
M  V30 70762 C 6759.1 -1.45752 -1.47551 0
M  V30 70763 C 6759.52 -0.0681972 -1.87976 0
M  V30 70764 O 6758.88 0.931718 -1.55527 0
M  V30 70765 C 6758.93 -2.38387 -2.70562 0
M  V30 70766 O 6758.03 -1.85027 -3.68563 0
M  V30 70767 H 6757.37 -0.494117 -0.443559 0
M  V30 70768 H 6759.9 -1.8669 -0.83714 0
M  V30 70769 H 6759.91 -2.54724 -3.18716 0
M  V30 70770 H 6758.59 -3.39328 -2.40477 0
M  V30 70771 H 6757.17 -1.78209 -3.2756 0
M  V30 70772 N 6759.35 0.917604 -1.28132 0
M  V30 70773 C 6760.3 2.0409 -1.1158 0
M  V30 70774 C 6761.29 1.69362 -0.0361135 0
M  V30 70775 O 6762.5 1.78945 -0.194595 0
M  V30 70776 H 6758.87 0.668638 -0.344133 0
M  V30 70777 H 6760.85 2.15194 -2.06722 0
M  V30 70778 C 6759.59 3.38598 -0.790376 0
M  V30 70779 H 6758.92 3.65812 -1.61312 0
M  V30 70780 H 6760.36 4.17937 -0.714492 0
M  V30 70781 C 6758.82 3.33083 0.505722 0
M  V30 70782 O 6759.35 3.71125 1.53717 0
M  V30 70783 N 6757.55 2.86178 0.505042 0
M  V30 70784 H 6757.1 2.55416 -0.334755 0
M  V30 70785 H 6757.06 2.8287 1.37229 0
M  V30 70786 N 6760.83 1.10318 1.12551 0
M  V30 70787 C 6761.79 0.754354 2.1643 0
M  V30 70788 C 6762.79 -0.220601 1.5928 0
M  V30 70789 O 6763.98 0.00239777 1.742 0
M  V30 70790 C 6761.11 0.117166 3.40699 0
M  V30 70791 H 6762.31 1.67444 2.48802 0
M  V30 70792 H 6759.86 0.903543 1.27537 0
M  V30 70793 H 6760.6 -0.813712 3.13926 0
M  V30 70794 H 6760.38 0.818815 3.83455 0
M  V30 70795 H 6761.87 -0.111167 4.17452 0
M  V30 70796 N 6762.31 -1.29945 0.891739 0
M  V30 70797 C 6763.22 -2.31699 0.367813 0
M  V30 70798 C 6764.23 -1.65623 -0.533398 0
M  V30 70799 O 6765.41 -1.96867 -0.424894 0
M  V30 70800 C 6762.47 -3.44347 -0.403224 0
M  V30 70801 C 6761.54 -4.26034 0.528552 0
M  V30 70802 C 6760.77 -5.33303 -0.205782 0
M  V30 70803 O 6760.99 -5.52161 -1.4309 0
M  V30 70804 O 6759.93 -6.00233 0.447597 0
M  V30 70805 H 6763.75 -2.78477 1.21178 0
M  V30 70806 H 6761.34 -1.34237 0.655795 0
M  V30 70807 H 6763.22 -4.12953 -0.839535 0
M  V30 70808 H 6761.89 -2.99692 -1.22338 0
M  V30 70809 H 6760.8 -3.60101 1.01381 0
M  V30 70810 H 6762.13 -4.74311 1.3149 0
M  V30 70811 N 6763.79 -0.653389 -1.43418 0
M  V30 70812 C 6765.2 -0.246634 -1.85064 0
M  V30 70813 C 6765.55 1.20682 -1.54694 0
M  V30 70814 O 6764.67 1.92117 -0.995998 0
M  V30 70815 C 6765.27 -0.440844 -3.3592 0
M  V30 70816 C 6763.83 -0.0884048 -3.76296 0
M  V30 70817 C 6762.97 -0.743625 -2.67143 0
M  V30 70818 H 6765.92 -0.857049 -1.33568 0
M  V30 70819 H 6765.95 0.313598 -3.79206 0
M  V30 70820 H 6765.46 -1.49877 -3.57992 0
M  V30 70821 H 6763.56 0.96692 -3.59835 0
M  V30 70822 H 6763.67 -0.513989 -4.76335 0
M  V30 70823 H 6762.04 -0.176846 -2.54085 0
M  V30 70824 H 6762.82 -1.80459 -2.92044 0
M  V30 70825 N 6765.26 1.52561 -0.39532 0
M  V30 70826 C 6766.19 2.29539 0.428263 0
M  V30 70827 C 6767.17 1.33174 1.05824 0
M  V30 70828 O 6768.36 1.62072 1.06987 0
M  V30 70829 C 6765.49 3.10665 1.55257 0
M  V30 70830 C 6764.44 4.14963 1.04833 0
M  V30 70831 C 6763.77 4.84349 2.26518 0
M  V30 70832 C 6765.07 5.2218 0.112049 0
M  V30 70833 H 6766.76 2.98634 -0.214024 0
M  V30 70834 H 6764.31 1.43621 -0.104374 0
M  V30 70835 H 6766.26 3.63277 2.1356 0
M  V30 70836 H 6764.99 2.39313 2.22254 0
M  V30 70837 H 6763.65 3.6334 0.487794 0
M  V30 70838 H 6763.29 4.0954 2.92037 0
M  V30 70839 H 6762.99 5.54848 1.93437 0
M  V30 70840 H 6764.52 5.39768 2.85452 0
M  V30 70841 H 6765.93 5.70115 0.603451 0
M  V30 70842 H 6764.33 5.99961 -0.129284 0
M  V30 70843 H 6765.4 4.77616 -0.837304 0
M  V30 70844 N 6766.74 0.12532 1.57101 0
M  V30 70845 C 6767.97 -0.541995 2.00193 0
M  V30 70846 C 6768.39 -1.59028 1.00457 0
M  V30 70847 O 6767.75 -1.81286 -0.0228467 0
M  V30 70848 C 6767.8 -1.13911 3.42135 0
M  V30 70849 O 6766.9 -2.25452 3.45319 0
M  V30 70850 H 6766.24 -0.134777 0.650178 0
M  V30 70851 H 6768.77 0.21566 2.0346 0
M  V30 70852 H 6768.78 -1.4731 3.80478 0
M  V30 70853 H 6767.46 -0.371312 4.14239 0
M  V30 70854 H 6766.03 -1.93445 3.188 0
M  V30 70855 N 6768.22 -1.56899 -0.148462 0
M  V30 70856 C 6769.13 -2.01418 -1.20283 0
M  V30 70857 C 6770.15 -0.929351 -1.47102 0
M  V30 70858 O 6771.32 -1.23872 -1.58801 0
M  V30 70859 C 6768.39 -2.3846 -2.5167 0
M  V30 70860 C 6767.45 -3.60885 -2.3251 0
M  V30 70861 C 6766.68 -3.96151 -3.57632 0
M  V30 70862 O 6766.9 -3.32097 -4.63754 0
M  V30 70863 O 6765.84 -4.89404 -3.50382 0
M  V30 70864 H 6769.66 -2.9142 -0.854872 0
M  V30 70865 H 6767.25 -1.4507 -0.357075 0
M  V30 70866 H 6769.13 -2.63152 -3.29134 0
M  V30 70867 H 6767.81 -1.51614 -2.85998 0
M  V30 70868 H 6766.71 -3.41382 -1.53001 0
M  V30 70869 H 6768.05 -4.48344 -2.03098 0
M  V30 70870 N 6769.7 0.417764 -1.51962 0
M  V30 70871 C 6770.98 1.17795 -1.56153 0
M  V30 70872 C 6771.36 2.08386 -0.337385 0
M  V30 70873 O 6770.7 2.18261 0.676332 0
M  V30 70874 C 6770.91 1.96278 -2.88576 0
M  V30 70875 C 6772.26 2.52644 -3.41257 0
M  V30 70876 O 6773.29 2.06467 -2.90258 0
M  V30 70877 O 6772.14 3.36916 -4.30291 0
M  V30 70878 H 6769.24 0.537362 -0.628626 0
M  V30 70879 H 6771.78 0.425245 -1.64286 0
M  V30 70880 H 6770.56 1.29861 -3.69123 0
M  V30 70881 H 6770.18 2.78572 -2.83696 0
M  V30 70882 N 6771.18 1.42439 0.674458 0
M  V30 70883 C 6772.12 1.45944 1.78799 0
M  V30 70884 C 6773.09 0.311357 1.63156 0
M  V30 70885 O 6774.28 0.51548 1.83705 0
M  V30 70886 C 6771.42 1.3679 3.16832 0
M  V30 70887 C 6770.53 2.61636 3.4376 0
M  V30 70888 C 6769.67 2.44622 4.71523 0
M  V30 70889 C 6768.71 3.64839 4.91486 0
M  V30 70890 N 6767.84 3.46766 6.1049 0
M  V30 70891 H 6772.68 2.41103 1.75138 0
M  V30 70892 H 6770.22 1.19702 0.854977 0
M  V30 70893 H 6772.18 1.2948 3.96599 0
M  V30 70894 H 6770.81 0.452258 3.19616 0
M  V30 70895 H 6769.86 2.7931 2.58244 0
M  V30 70896 H 6771.17 3.50997 3.54405 0
M  V30 70897 H 6770.33 2.349 5.59381 0
M  V30 70898 H 6769.06 1.52751 4.63161 0
M  V30 70899 H 6768.07 3.74993 4.0207 0
M  V30 70900 H 6769.29 4.57692 5.01692 0
M  V30 70901 H 6767.24 2.57612 6.03301 0
M  V30 70902 H 6767.16 4.29715 6.21998 0
M  V30 70903 H 6768.43 3.40856 7.01026 0
M  V30 70904 N 6772.65 -0.910796 1.28617 0
M  V30 70905 C 6773.9 -1.65694 1.15714 0
M  V30 70906 C 6774.22 -1.9277 -0.294058 0
M  V30 70907 O 6773.49 -1.54594 -1.20323 0
M  V30 70908 H 6772.07 -0.614144 0.425248 0
M  V30 70909 H 6774.74 -1.09271 1.61387 0
M  V30 70910 H 6773.83 -2.61806 1.69894 0
M  V30 70911 N 6774.13 -1.10913 -1.11965 0
M  V30 70912 C 6775.08 -0.757419 -2.19923 0
M  V30 70913 C 6776.07 0.248659 -1.67565 0
M  V30 70914 O 6777.28 0.108511 -1.79673 0
M  V30 70915 H 6773.66 -0.227025 -0.716913 0
M  V30 70916 H 6775.63 -1.67671 -2.46838 0
M  V30 70917 C 6774.38 -0.210854 -3.4706 0
M  V30 70918 H 6773.7 -0.976254 -3.87697 0
M  V30 70919 H 6775.14 -0.00288198 -4.24 0
M  V30 70920 C 6773.6 1.0576 -3.19869 0
M  V30 70921 O 6774.13 2.13827 -3.4006 0
M  V30 70922 N 6772.33 0.978205 -2.73641 0
M  V30 70923 H 6771.88 0.0986889 -2.57411 0
M  V30 70924 H 6771.84 1.82759 -2.55825 0
M  V30 70925 N 6775.61 1.29471 -0.898618 0
M  V30 70926 C 6776.54 2.30184 -0.392132 0
M  V30 70927 C 6777.52 1.61558 0.532274 0
M  V30 70928 O 6778.71 1.89074 0.443231 0
M  V30 70929 C 6775.84 3.45191 0.382171 0
M  V30 70930 C 6774.79 4.2561 -0.451707 0
M  V30 70931 C 6774.12 5.32803 0.450026 0
M  V30 70932 C 6775.42 4.93823 -1.70105 0
M  V30 70933 H 6777.11 2.72798 -1.23377 0
M  V30 70934 H 6774.66 1.31146 -0.594707 0
M  V30 70935 H 6776.61 4.14722 0.747232 0
M  V30 70936 H 6775.33 3.01417 1.25758 0
M  V30 70937 H 6773.99 3.57785 -0.799085 0
M  V30 70938 H 6773.64 4.85275 1.32354 0
M  V30 70939 H 6773.34 5.87508 -0.104212 0
M  V30 70940 H 6774.86 6.05186 0.811303 0
M  V30 70941 H 6776.28 5.55797 -1.40579 0
M  V30 70942 H 6774.68 5.58456 -2.19653 0
M  V30 70943 H 6775.75 4.19173 -2.43766 0
M  V30 70944 N 6777.09 0.660986 1.43069 0
M  V30 70945 C 6778.02 -0.0121598 2.33497 0
M  V30 70946 C 6779 -0.803846 1.49908 0
M  V30 70947 O 6780.18 -0.76377 1.7855 0
M  V30 70948 C 6777.31 -0.973819 3.33368 0
M  V30 70949 C 6776.27 -0.291702 4.27005 0
M  V30 70950 C 6775.59 -1.36535 5.16974 0
M  V30 70951 C 6776.89 0.820734 5.15811 0
M  V30 70952 H 6778.59 0.743026 2.90034 0
M  V30 70953 H 6776.13 0.358762 1.39459 0
M  V30 70954 H 6778.09 -1.45371 3.95532 0
M  V30 70955 H 6776.81 -1.76026 2.75104 0
M  V30 70956 H 6775.47 0.167816 3.66216 0
M  V30 70957 H 6775.12 -2.14342 4.55046 0
M  V30 70958 H 6774.82 -0.914148 5.80446 0
M  V30 70959 H 6776.34 -1.84644 5.82013 0
M  V30 70960 H 6777.76 0.422668 5.7174 0
M  V30 70961 H 6776.15 1.19687 5.88043 0
M  V30 70962 H 6777.22 1.67542 4.55036 0
M  V30 70963 N 6778.57 -1.5235 0.403405 0
M  V30 70964 C 6779.5 -2.29763 -0.416084 0
M  V30 70965 C 6780.48 -1.33734 -1.05116 0
M  V30 70966 O 6781.66 -1.62638 -1.06126 0
M  V30 70967 C 6778.79 -3.11484 -1.53608 0
M  V30 70968 C 6777.75 -4.15513 -1.02631 0
M  V30 70969 C 6777.07 -4.85543 -2.23946 0
M  V30 70970 C 6778.37 -5.22232 -0.0843546 0
M  V30 70971 H 6780.07 -2.98516 0.229859 0
M  V30 70972 H 6777.61 -1.43564 0.111989 0
M  V30 70973 H 6779.57 -3.64404 -2.11631 0
M  V30 70974 H 6778.29 -2.40489 -2.20981 0
M  V30 70975 H 6776.95 -3.63594 -0.468518 0
M  V30 70976 H 6776.6 -4.11083 -2.89861 0
M  V30 70977 H 6776.3 -5.55866 -1.90492 0
M  V30 70978 H 6777.82 -5.41274 -2.82586 0
M  V30 70979 H 6779.23 -5.70427 -0.573208 0
M  V30 70980 H 6777.63 -5.99884 0.1611 0
M  V30 70981 H 6778.7 -4.77165 0.862621 0
M  V30 70982 N 6780.04 -0.13365 -1.57032 0
M  V30 70983 C 6781.27 0.52809 -2.00047 0
M  V30 70984 C 6781.69 1.59286 -1.01358 0
M  V30 70985 O 6781.04 1.82498 -0.00857993 0
M  V30 70986 C 6781.1 1.14091 -3.43024 0
M  V30 70987 O 6780.82 0.118689 -4.37939 0
M  V30 70988 C 6782.32 1.88456 -4.01247 0
M  V30 70989 H 6779.54 0.138626 -0.656524 0
M  V30 70990 H 6782.08 -0.224304 -2.03266 0
M  V30 70991 H 6780.24 1.844 -3.40698 0
M  V30 70992 H 6780.65 0.565855 -5.21439 0
M  V30 70993 H 6782.12 2.26643 -5.03326 0
M  V30 70994 H 6782.6 2.7654 -3.41207 0
M  V30 70995 H 6783.21 1.22876 -4.07163 0
M  V30 70996 N 6781.52 1.56976 0.14014 0
M  V30 70997 C 6782.77 1.8336 0.849908 0
M  V30 70998 C 6783.09 0.715606 1.81395 0
M  V30 70999 O 6782.36 -0.262192 1.94137 0
M  V30 71000 H 6780.94 0.676472 0.316851 0
M  V30 71001 H 6783.6 1.94449 0.132505 0
M  V30 71002 H 6782.7 2.78535 1.408 0
M  V30 71003 N 6783 -0.409699 1.52182 0
M  V30 71004 C 6784.28 -1.16965 1.56775 0
M  V30 71005 C 6784.66 -2.08205 0.348432 0
M  V30 71006 O 6784.01 -2.18617 -0.664747 0
M  V30 71007 C 6784.22 -1.94744 2.89613 0
M  V30 71008 C 6785.56 -2.5083 3.42592 0
M  V30 71009 O 6786.59 -2.04925 2.91349 0
M  V30 71010 O 6785.45 -3.34629 4.32072 0
M  V30 71011 H 6782.54 -0.534021 0.631467 0
M  V30 71012 H 6785.09 -0.416526 1.64509 0
M  V30 71013 H 6783.86 -1.27901 3.69807 0
M  V30 71014 H 6783.48 -2.77064 2.85169 0
M  V30 71015 N 6784.48 -1.42795 -0.666894 0
M  V30 71016 C 6785.43 -1.4689 -1.78023 0
M  V30 71017 C 6786.4 -0.320005 -1.62988 0
M  V30 71018 O 6787.58 -0.525215 -1.83429 0
M  V30 71019 C 6784.72 -1.38468 -3.16102 0
M  V30 71020 C 6783.83 -2.63455 -3.42368 0
M  V30 71021 C 6782.97 -2.47119 -4.70219 0
M  V30 71022 C 6782.01 -3.67441 -4.89544 0
M  V30 71023 N 6781.15 -3.49999 -6.08642 0
M  V30 71024 H 6785.99 -2.42028 -1.73857 0
M  V30 71025 H 6783.52 -1.20154 -0.848617 0
M  V30 71026 H 6785.48 -1.31582 -3.95907 0
M  V30 71027 H 6784.11 -0.469201 -3.19372 0
M  V30 71028 H 6783.16 -2.80676 -2.56759 0
M  V30 71029 H 6784.47 -3.52871 -3.52538 0
M  V30 71030 H 6783.63 -2.37863 -5.58127 0
M  V30 71031 H 6782.37 -1.55205 -4.62345 0
M  V30 71032 H 6781.37 -3.7712 -4.00076 0
M  V30 71033 H 6782.6 -4.60346 -4.99258 0
M  V30 71034 H 6780.54 -2.60808 -6.01926 0
M  V30 71035 H 6780.46 -4.33007 -6.1971 0
M  V30 71036 H 6781.73 -3.44569 -6.99208 0
M  V30 71037 N 6785.96 0.903962 -1.29098 0
M  V30 71038 C 6787.23 1.63405 -1.07509 0
M  V30 71039 C 6787.61 2.07611 0.382237 0
M  V30 71040 O 6786.96 1.82859 1.37022 0
M  V30 71041 C 6787.17 2.81811 -2.05873 0
M  V30 71042 C 6788.52 3.52598 -2.36558 0
M  V30 71043 O 6789.54 2.91974 -2.04034 0
M  V30 71044 O 6788.4 4.61881 -2.92109 0
M  V30 71045 H 6785.5 0.717305 -0.411585 0
M  V30 71046 H 6788.04 0.952405 -1.40454 0
M  V30 71047 H 6786.82 2.46311 -3.0405 0
M  V30 71048 H 6786.44 3.57684 -1.73632 0
M  V30 71049 N 6787.44 1.11505 1.11375 0
M  V30 71050 C 6788.37 0.731819 2.17203 0
M  V30 71051 C 6789.38 -0.236872 1.61068 0
M  V30 71052 O 6790.57 -0.019665 1.78489 0
M  V30 71053 C 6787.67 0.060941 3.38845 0
M  V30 71054 C 6786.84 1.05663 4.24446 0
M  V30 71055 C 6785.9 0.415176 5.2456 0
M  V30 71056 O 6784.93 1.0693 5.59066 0
M  V30 71057 N 6786.13 -0.82164 5.74656 0
M  V30 71058 H 6788.89 1.64239 2.50691 0
M  V30 71059 H 6786.46 1.00535 1.26902 0
M  V30 71060 H 6788.45 -0.379927 4.02913 0
M  V30 71061 H 6787.02 -0.752216 3.03415 0
M  V30 71062 H 6786.24 1.67543 3.56824 0
M  V30 71063 H 6787.53 1.73024 4.78477 0
M  V30 71064 H 6786.92 -1.37223 5.48804 0
M  V30 71065 H 6785.48 -1.20548 6.40556 0
M  V30 71066 N 6788.91 -1.28992 0.905472 0
M  V30 71067 C 6789.84 -2.29973 0.404333 0
M  V30 71068 C 6790.82 -1.61838 -0.523699 0
M  V30 71069 O 6792.01 -1.89307 -0.433198 0
M  V30 71070 C 6789.14 -3.45389 -0.36386 0
M  V30 71071 C 6788.09 -4.25364 0.474272 0
M  V30 71072 C 6787.42 -5.33034 -0.421764 0
M  V30 71073 C 6788.72 -4.92914 1.72722 0
M  V30 71074 H 6790.41 -2.72139 1.24822 0
M  V30 71075 H 6787.96 -1.30829 0.601654 0
M  V30 71076 H 6789.91 -4.15113 -0.725228 0
M  V30 71077 H 6788.64 -3.0208 -1.24158 0
M  V30 71078 H 6787.3 -3.57356 0.818048 0
M  V30 71079 H 6786.94 -4.8597 -1.29778 0
M  V30 71080 H 6786.64 -5.87444 0.135367 0
M  V30 71081 H 6788.17 -6.05608 -0.779197 0
M  V30 71082 H 6789.58 -5.55044 1.43524 0
M  V30 71083 H 6787.98 -5.57283 2.22611 0
M  V30 71084 H 6789.05 -4.17874 2.45986 0
M  V30 71085 N 6790.39 -0.668564 -1.42716 0
M  V30 71086 C 6791.64 -0.188525 -2.01922 0
M  V30 71087 C 6791.97 1.19971 -1.52711 0
M  V30 71088 O 6791.25 1.80416 -0.726661 0
M  V30 71089 C 6791.53 -0.216274 -3.5945 0
M  V30 71090 C 6791.38 -1.63952 -4.18855 0
M  V30 71091 C 6792.7 0.438948 -4.37906 0
M  V30 71092 H 6789.82 -0.0699799 -0.73367 0
M  V30 71093 H 6792.46 -0.852166 -1.69818 0
M  V30 71094 H 6790.61 0.348808 -3.86931 0
M  V30 71095 H 6792.28 -2.25637 -4.0235 0
M  V30 71096 H 6790.53 -2.18212 -3.74921 0
M  V30 71097 H 6791.2 -1.61067 -5.27979 0
M  V30 71098 H 6793.67 -0.0420072 -4.16079 0
M  V30 71099 H 6792.55 0.388868 -5.47521 0
M  V30 71100 H 6792.81 1.51555 -4.15311 0
M  V30 71101 N 6791.87 1.52134 -0.411479 0
M  V30 71102 C 6792.8 2.23567 0.457496 0
M  V30 71103 C 6793.78 1.24484 1.04606 0
M  V30 71104 O 6794.96 1.53542 1.09348 0
M  V30 71105 C 6792.09 2.9661 1.63524 0
M  V30 71106 C 6791.14 4.10143 1.16983 0
M  V30 71107 S 6791.97 5.35335 0.133048 0
M  V30 71108 C 6793.13 6.11907 1.31606 0
M  V30 71109 H 6793.36 2.96926 -0.149039 0
M  V30 71110 H 6790.89 1.53154 -0.195794 0
M  V30 71111 H 6792.85 3.39298 2.31056 0
M  V30 71112 H 6791.51 2.22889 2.21312 0
M  V30 71113 H 6790.7 4.60433 2.04981 0
M  V30 71114 H 6790.31 3.69583 0.573125 0
M  V30 71115 H 6792.6 6.39425 2.23923 0
M  V30 71116 H 6793.54 7.02936 0.853644 0
M  V30 71117 H 6793.95 5.43005 1.54292 0
M  V30 71118 N 6793.35 0.141976 1.56959 0
M  V30 71119 C 6794.28 -0.795821 2.1952 0
M  V30 71120 C 6795.26 -1.26071 1.14194 0
M  V30 71121 O 6796.44 -1.31918 1.42518 0
M  V30 71122 C 6793.57 -2.03709 2.81283 0
M  V30 71123 C 6792.53 -1.70916 3.92393 0
M  V30 71124 C 6791.85 -3.02264 4.41068 0
M  V30 71125 C 6793.15 -0.959683 5.13408 0
M  V30 71126 H 6794.85 -0.274439 2.9814 0
M  V30 71127 H 6792.39 -0.130561 1.43407 0
M  V30 71128 H 6794.35 -2.69791 3.23714 0
M  V30 71129 H 6793.07 -2.58211 1.99987 0
M  V30 71130 H 6791.73 -1.07214 3.50572 0
M  V30 71131 H 6791.38 -3.54746 3.56601 0
M  V30 71132 H 6791.08 -2.81087 5.16008 0
M  V30 71133 H 6792.6 -3.69426 4.86166 0
M  V30 71134 H 6794.02 -1.52249 5.52714 0
M  V30 71135 H 6792.41 -0.848044 5.94078 0
M  V30 71136 H 6793.48 0.0494991 4.84875 0
M  V30 71137 N 6794.83 -1.57048 -0.131813 0
M  V30 71138 C 6795.76 -2.02434 -1.16373 0
M  V30 71139 C 6796.74 -0.906516 -1.43932 0
M  V30 71140 O 6797.92 -1.17537 -1.54592 0
M  V30 71141 C 6795.05 -2.41783 -2.49316 0
M  V30 71142 C 6794.01 -3.56891 -2.36247 0
M  V30 71143 C 6793.33 -3.821 -3.74037 0
M  V30 71144 C 6794.63 -4.89051 -1.83375 0
M  V30 71145 H 6796.33 -2.88891 -0.786281 0
M  V30 71146 H 6793.87 -1.38983 -0.376782 0
M  V30 71147 H 6795.82 -2.72137 -3.21744 0
M  V30 71148 H 6794.55 -1.52281 -2.88926 0
M  V30 71149 H 6793.21 -3.26727 -1.66268 0
M  V30 71150 H 6792.86 -2.89824 -4.11109 0
M  V30 71151 H 6792.56 -4.59574 -3.6615 0
M  V30 71152 H 6794.08 -4.14894 -4.47991 0
M  V30 71153 H 6795.49 -5.18024 -2.45609 0
M  V30 71154 H 6793.89 -5.70436 -1.8634 0
M  V30 71155 H 6794.96 -4.78415 -0.79041 0
M  V30 71156 N 6796.3 0.401623 -1.52397 0
M  V30 71157 C 6797.58 1.16132 -1.57393 0
M  V30 71158 C 6797.96 2.08017 -0.359468 0
M  V30 71159 O 6797.31 2.18966 0.653144 0
M  V30 71160 C 6797.52 1.93206 -2.90642 0
M  V30 71161 C 6798.87 2.4901 -3.43917 0
M  V30 71162 O 6799.89 2.03377 -2.92431 0
M  V30 71163 O 6798.75 3.32333 -4.3384 0
M  V30 71164 H 6795.84 0.530665 -0.63429 0
M  V30 71165 H 6798.39 0.407796 -1.64727 0
M  V30 71166 H 6797.16 1.25939 -3.7048 0
M  V30 71167 H 6796.78 2.75547 -2.86635 0
M  V30 71168 N 6797.78 1.43146 0.659312 0
M  V30 71169 C 6798.71 1.43794 1.78483 0
M  V30 71170 C 6799.73 0.334871 1.59319 0
M  V30 71171 O 6800.92 0.598931 1.68152 0
M  V30 71172 C 6798.02 1.22922 3.15822 0
M  V30 71173 C 6797.19 2.45953 3.61698 0
M  V30 71174 C 6796.25 2.20397 4.7782 0
M  V30 71175 O 6795.27 2.93707 4.87571 0
M  V30 71176 N 6796.48 1.21677 5.67605 0
M  V30 71177 H 6799.24 2.40813 1.78408 0
M  V30 71178 H 6796.8 1.38225 0.842947 0
M  V30 71179 H 6798.79 1.03717 3.91184 0
M  V30 71180 H 6797.36 0.343706 3.10705 0
M  V30 71181 H 6796.58 2.80624 2.76847 0
M  V30 71182 H 6797.87 3.27846 3.89095 0
M  V30 71183 H 6797.27 0.610745 5.62393 0
M  V30 71184 H 6795.83 1.08457 6.42713 0
M  V30 71185 N 6799.26 -0.897103 1.29576 0
M  V30 71186 C 6800.51 -1.64249 1.17068 0
M  V30 71187 C 6800.82 -1.93638 -0.276374 0
M  V30 71188 O 6802.03 -2.66419 -0.5228 0
M  V30 71189 C 6800.48 -2.95971 2.04766 0
M  V30 71190 C 6800.09 -2.74169 3.5431 0
M  V30 71191 C 6801.84 -3.73903 2.00989 0
M  V30 71192 C 6799.74 -4.01633 4.34102 0
M  V30 71193 H 6798.67 -0.616182 0.434552 0
M  V30 71194 H 6801.32 -0.994186 1.54234 0
M  V30 71195 H 6799.71 -3.62029 1.60471 0
M  V30 71196 H 6800.88 -2.16688 4.06673 0
M  V30 71197 H 6799.2 -2.09629 3.59784 0
M  V30 71198 H 6801.79 -4.68413 2.57863 0
M  V30 71199 H 6802.14 -4.04345 0.990486 0
M  V30 71200 H 6802.67 -3.1469 2.43341 0
M  V30 71201 H 6799.41 -3.76356 5.3669 0
M  V30 71202 H 6798.93 -4.58663 3.86507 0
M  V30 71203 H 6800.61 -4.69757 4.44901 0
M  V30 71204 N 6800.74 -1.12094 -1.10782 0
M  V30 71205 C 6801.69 -0.780702 -2.19107 0
M  V30 71206 C 6802.68 0.230872 -1.67819 0
M  V30 71207 O 6803.89 0.0894479 -1.79778 0
M  V30 71208 H 6800.26 -0.234616 -0.714464 0
M  V30 71209 H 6802.23 -1.70279 -2.45046 0
M  V30 71210 C 6800.98 -0.247652 -3.46817 0
M  V30 71211 H 6800.3 -1.01732 -3.8664 0
M  V30 71212 H 6801.74 -0.0478527 -4.23973 0
M  V30 71213 C 6800.2 1.02361 -3.20973 0
M  V30 71214 O 6800.73 2.10208 -3.42309 0
M  V30 71215 N 6798.94 0.949126 -2.74663 0
M  V30 71216 H 6798.49 0.0713815 -2.57501 0
M  V30 71217 H 6798.44 1.80036 -2.57749 0
M  V30 71218 N 6802.22 1.2851 -0.9123 0
M  V30 71219 C 6803.44 1.997 -0.559879 0
M  V30 71220 C 6803.87 1.67733 0.851305 0
M  V30 71221 O 6803.22 0.908917 1.56871 0
M  V30 71222 C 6803.27 3.52194 -0.77406 0
M  V30 71223 O 6802.38 4.12059 0.167625 0
M  V30 71224 H 6801.72 0.627449 -0.217263 0
M  V30 71225 H 6804.25 1.63699 -1.22734 0
M  V30 71226 H 6804.26 4.02232 -0.683598 0
M  V30 71227 H 6802.93 3.74795 -1.80281 0
M  V30 71228 H 6801.51 3.72889 0.0285543 0
M  V30 71229 N 6803.69 0.676123 1.4236 0
M  V30 71230 C 6804.92 0.207377 2.05858 0
M  V30 71231 C 6805.34 -1.13597 1.50802 0
M  V30 71232 O 6804.69 -1.70595 0.648355 0
M  V30 71233 C 6804.75 0.135166 3.61247 0
M  V30 71234 O 6804.47 1.42543 4.14262 0
M  V30 71235 C 6805.97 -0.356918 4.41861 0
M  V30 71236 H 6803.19 0.100538 0.663425 0
M  V30 71237 H 6805.73 0.923232 1.82474 0
M  V30 71238 H 6803.89 -0.531386 3.83738 0
M  V30 71239 H 6804.3 1.29966 5.08143 0
M  V30 71240 H 6805.77 -0.35635 5.50849 0
M  V30 71241 H 6806.25 -1.39242 4.16543 0
M  V30 71242 H 6806.86 0.277943 4.24391 0
M  V30 71243 N 6805.17 -1.51913 0.419541 0
M  V30 71244 C 6806.42 -2.01922 -0.152833 0
M  V30 71245 C 6806.75 -1.30465 -1.44253 0
M  V30 71246 O 6806 -0.402694 -1.91512 0
M  V30 71247 C 6806.3 -3.5472 -0.43688 0
M  V30 71248 C 6805.97 -4.44365 0.764866 0
M  V30 71249 C 6804.63 -4.68588 1.09448 0
M  V30 71250 C 6806.98 -4.97074 1.56739 0
M  V30 71251 C 6804.31 -5.42766 2.22761 0
M  V30 71252 C 6806.66 -5.72493 2.69137 0
M  V30 71253 C 6805.33 -5.94984 3.02572 0
M  V30 71254 H 6804.6 -0.738887 -0.0559254 0
M  V30 71255 H 6807.24 -1.83034 0.563094 0
M  V30 71256 H 6805.55 -3.71843 -1.2345 0
M  V30 71257 H 6807.24 -3.90933 -0.892877 0
M  V30 71258 H 6803.83 -4.25697 0.498 0
M  V30 71259 H 6808.02 -4.78259 1.32597 0
M  V30 71260 H 6803.27 -5.58398 2.49001 0
M  V30 71261 H 6807.45 -6.12328 3.31703 0
M  V30 71262 H 6805.08 -6.52243 3.90491 0
M  V30 71263 N 6806.65 -0.150297 -1.56882 0
M  V30 71264 C 6807.9 0.50073 -1.96521 0
M  V30 71265 C 6808.23 1.64298 -1.03536 0
M  V30 71266 O 6807.5 1.94342 -0.0783776 0
M  V30 71267 C 6807.79 1.00377 -3.45827 0
M  V30 71268 C 6807.64 -0.13722 -4.49591 0
M  V30 71269 C 6808.96 1.88446 -3.97714 0
M  V30 71270 H 6806.08 0.180543 -0.714544 0
M  V30 71271 H 6808.72 -0.23219 -1.88576 0
M  V30 71272 H 6806.87 1.62833 -3.52729 0
M  V30 71273 H 6808.54 -0.77367 -4.54766 0
M  V30 71274 H 6806.79 -0.795877 -4.26437 0
M  V30 71275 H 6807.46 0.256524 -5.51404 0
M  V30 71276 H 6809.93 1.35813 -3.93311 0
M  V30 71277 H 6808.81 2.20551 -5.02641 0
M  V30 71278 H 6809.07 2.82261 -3.40267 0
M  V30 71279 N 6808.13 1.57116 0.123482 0
M  V30 71280 C 6809.54 1.52309 0.47688 0
M  V30 71281 C 6809.74 0.862576 1.82104 0
M  V30 71282 O 6808.8 0.443015 2.48583 0
M  V30 71283 C 6810.11 2.97075 0.465505 0
M  V30 71284 C 6811.66 3.08141 0.549372 0
M  V30 71285 C 6812.14 4.54459 0.56843 0
M  V30 71286 N 6813.63 4.58896 0.629995 0
M  V30 71287 C 6814.36 5.69518 0.666114 0
M  V30 71288 N 6813.86 6.89648 0.660151 0
M  V30 71289 N 6815.65 5.57613 0.708783 0
M  V30 71290 H 6807.8 1.98441 -0.757303 0
M  V30 71291 H 6810.07 0.906059 -0.278856 0
M  V30 71292 H 6809.77 3.48752 -0.454416 0
M  V30 71293 H 6809.65 3.54275 1.29494 0
M  V30 71294 H 6812.03 2.56469 1.45971 0
M  V30 71295 H 6812.11 2.53943 -0.307666 0
M  V30 71296 H 6811.76 5.06775 -0.337849 0
M  V30 71297 H 6811.69 5.06464 1.44229 0
M  V30 71298 H 6814.18 3.72425 0.640949 0
M  V30 71299 H 6814.49 7.69712 0.69021 0
M  V30 71300 H 6812.84 6.9216 0.627647 0
M  V30 71301 H 6816.03 4.62672 0.710775 0
M  V30 71302 H 6816.2 6.43836 0.733465 0
M  V30 71303 N 6809.61 -0.393535 1.52608 0
M  V30 71304 C 6810.83 -1.16486 1.71598 0
M  V30 71305 C 6811.26 -1.83086 0.431427 0
M  V30 71306 O 6810.61 -1.70643 -0.612433 0
M  V30 71307 C 6810.66 -2.19198 2.86329 0
M  V30 71308 O 6809.77 -3.25686 2.52986 0
M  V30 71309 H 6809.11 -0.33932 0.570752 0
M  V30 71310 H 6811.64 -0.459219 1.9938 0
M  V30 71311 H 6811.65 -2.6327 3.11694 0
M  V30 71312 H 6810.32 -1.7011 3.7952 0
M  V30 71313 H 6808.9 -2.86784 2.38347 0
M  V30 71314 N 6811.08 -1.43494 -0.651711 0
M  V30 71315 C 6812.03 -1.49039 -1.78578 0
M  V30 71316 C 6813.03 -0.363854 -1.65446 0
M  V30 71317 O 6814.23 -0.537912 -1.71775 0
M  V30 71318 H 6810.61 -0.467262 -0.589211 0
M  V30 71319 H 6812.58 -2.44528 -1.71022 0
M  V30 71320 C 6811.33 -1.43198 -3.16843 0
M  V30 71321 H 6810.65 -2.29189 -3.27586 0
M  V30 71322 H 6812.09 -1.51139 -3.96148 0
M  V30 71323 C 6810.55 -0.149793 -3.36567 0
M  V30 71324 O 6811.08 0.788301 -3.93889 0
M  V30 71325 N 6809.29 -0.0595016 -2.90539 0
M  V30 71326 H 6808.83 -0.823703 -2.44076 0
M  V30 71327 H 6808.79 0.797693 -3.04112 0
M  V30 71328 N 6812.56 0.890219 -1.30049 0
M  V30 71329 C 6813.97 1.45696 -1.16746 0
M  V30 71330 C 6814.32 1.94802 0.233837 0
M  V30 71331 O 6813.45 1.84547 1.13011 0
M  V30 71332 C 6814.04 2.64814 -2.11327 0
M  V30 71333 C 6812.6 3.17594 -2.02018 0
M  V30 71334 C 6811.75 1.90285 -2.0171 0
M  V30 71335 H 6814.7 0.700651 -1.42396 0
M  V30 71336 H 6814.72 3.40858 -1.69104 0
M  V30 71337 H 6814.23 2.29043 -3.13306 0
M  V30 71338 H 6812.34 3.58034 -1.03161 0
M  V30 71339 H 6812.45 3.81249 -2.90148 0
M  V30 71340 H 6810.81 2.08394 -1.46438 0
M  V30 71341 H 6811.6 1.56779 -3.0541 0
M  V30 71342 N 6814.04 1.1268 1.10186 0
M  V30 71343 C 6815.27 0.906951 1.86518 0
M  V30 71344 C 6815.69 -0.538616 1.80224 0
M  V30 71345 O 6815.05 -1.38152 1.17404 0
M  V30 71346 C 6815.1 1.38958 3.32751 0
M  V30 71347 O 6814.2 0.569715 4.08446 0
M  V30 71348 H 6813.54 0.325649 0.578661 0
M  V30 71349 H 6816.07 1.49953 1.39195 0
M  V30 71350 H 6816.08 1.38978 3.836 0
M  V30 71351 H 6814.76 2.44215 3.36648 0
M  V30 71352 H 6813.33 0.636722 3.67424 0
M  V30 71353 N 6815.52 -1.28025 0.919102 0
M  V30 71354 C 6816.77 -1.95033 0.555859 0
M  V30 71355 C 6817.1 -1.72133 -0.899107 0
M  V30 71356 O 6816.37 -1.04539 -1.64018 0
M  V30 71357 C 6816.66 -3.49377 0.872208 0
M  V30 71358 C 6816.51 -3.81657 2.3803 0
M  V30 71359 C 6817.83 -4.38524 0.372082 0
M  V30 71360 H 6814.95 -0.70837 0.203423 0
M  V30 71361 H 6817.59 -1.51297 1.14932 0
M  V30 71362 H 6815.74 -3.86761 0.36715 0
M  V30 71363 H 6817.41 -3.54112 2.95639 0
M  V30 71364 H 6815.65 -3.28512 2.83307 0
M  V30 71365 H 6816.33 -4.89456 2.55218 0
M  V30 71366 H 6818.8 -4.08242 0.804817 0
M  V30 71367 H 6817.68 -5.45359 0.62246 0
M  V30 71368 H 6817.94 -4.3607 -0.727704 0
M  V30 71369 N 6817 -0.683663 -1.41999 0
M  V30 71370 C 6817.93 -0.0249891 -2.33487 0
M  V30 71371 C 6818.91 0.779895 -1.51168 0
M  V30 71372 O 6820.09 0.735267 -1.79743 0
M  V30 71373 C 6817.22 0.920659 -3.34875 0
M  V30 71374 C 6816.18 0.223733 -4.27415 0
M  V30 71375 C 6815.5 1.28293 -5.19081 0
M  V30 71376 C 6816.8 -0.902691 -5.1444 0
M  V30 71377 H 6818.5 -0.789074 -2.88815 0
M  V30 71378 H 6816.04 -0.380903 -1.38871 0
M  V30 71379 H 6818 1.3906 -3.97794 0
M  V30 71380 H 6816.72 1.71627 -2.7787 0
M  V30 71381 H 6815.38 -0.226057 -3.65902 0
M  V30 71382 H 6815.03 2.07076 -4.58398 0
M  V30 71383 H 6814.73 0.821688 -5.81826 0
M  V30 71384 H 6816.25 1.75362 -5.84877 0
M  V30 71385 H 6817.67 -0.513573 -5.70995 0
M  V30 71386 H 6816.06 -1.29028 -5.86065 0
M  V30 71387 H 6817.13 -1.7476 -4.52313 0
M  V30 71388 N 6818.48 1.51689 -0.427592 0
M  V30 71389 C 6819.41 2.25236 0.424402 0
M  V30 71390 C 6820.42 1.28886 0.994603 0
M  V30 71391 O 6821.61 1.54707 0.890401 0
M  V30 71392 C 6818.71 2.98504 1.60464 0
M  V30 71393 C 6817.88 4.21874 1.15505 0
M  V30 71394 C 6816.94 4.77805 2.20429 0
M  V30 71395 O 6815.97 5.39902 1.80262 0
M  V30 71396 N 6817.17 4.60985 3.52807 0
M  V30 71397 H 6819.93 2.98992 -0.205907 0
M  V30 71398 H 6817.5 1.59864 -0.255952 0
M  V30 71399 H 6819.49 3.32811 2.30258 0
M  V30 71400 H 6818.06 2.2782 2.14048 0
M  V30 71401 H 6817.28 3.93172 0.284528 0
M  V30 71402 H 6818.57 5.01953 0.831909 0
M  V30 71403 H 6817.96 4.11502 3.88179 0
M  V30 71404 H 6816.52 4.99681 4.18524 0
M  V30 71405 N 6819.95 0.158615 1.568 0
M  V30 71406 C 6821.2 -0.488609 1.96105 0
M  V30 71407 C 6821.52 -1.64631 1.04507 0
M  V30 71408 O 6820.79 -1.95597 0.108886 0
M  V30 71409 H 6819.37 -0.183497 0.724112 0
M  V30 71410 H 6822.03 0.23683 1.93456 0
M  V30 71411 H 6821.13 -0.857061 3.00101 0
M  V30 71412 N 6821.43 -1.57179 -0.115148 0
M  V30 71413 C 6822.36 -2.03657 -1.14219 0
M  V30 71414 C 6823.34 -0.921731 -1.42962 0
M  V30 71415 O 6824.53 -1.1917 -1.53337 0
M  V30 71416 C 6821.66 -2.44414 -2.46737 0
M  V30 71417 C 6820.61 -3.59377 -2.32448 0
M  V30 71418 C 6819.94 -3.86046 -3.69963 0
M  V30 71419 C 6821.24 -4.90969 -1.78177 0
M  V30 71420 H 6822.93 -2.89709 -0.755596 0
M  V30 71421 H 6820.48 -1.39375 -0.362019 0
M  V30 71422 H 6822.43 -2.75534 -3.1884 0
M  V30 71423 H 6821.15 -1.55337 -2.87294 0
M  V30 71424 H 6819.81 -3.28472 -1.62794 0
M  V30 71425 H 6819.46 -2.94168 -4.08012 0
M  V30 71426 H 6819.16 -4.63431 -3.61255 0
M  V30 71427 H 6820.69 -4.19622 -4.43565 0
M  V30 71428 H 6822.1 -5.206 -2.40101 0
M  V30 71429 H 6820.5 -5.7238 -1.8028 0
M  V30 71430 H 6821.57 -4.79226 -0.739623 0
M  V30 71431 N 6822.91 0.385437 -1.52814 0
M  V30 71432 C 6823.84 1.47742 -1.80816 0
M  V30 71433 C 6824.82 1.56757 -0.660401 0
M  V30 71434 O 6826.01 1.71648 -0.908337 0
M  V30 71435 C 6823.14 2.85314 -1.98023 0
M  V30 71436 C 6822.09 2.91137 -3.13725 0
M  V30 71437 C 6821.42 4.31193 -3.16191 0
M  V30 71438 C 6822.72 2.60459 -4.52723 0
M  V30 71439 H 6824.41 1.24559 -2.7226 0
M  V30 71440 H 6821.96 0.59777 -1.31007 0
M  V30 71441 H 6823.91 3.61715 -2.16195 0
M  V30 71442 H 6822.63 3.09843 -1.03272 0
M  V30 71443 H 6821.29 2.17185 -2.95341 0
M  V30 71444 H 6820.94 4.52766 -2.19115 0
M  V30 71445 H 6820.64 4.36009 -3.93917 0
M  V30 71446 H 6822.16 5.09494 -3.36523 0
M  V30 71447 H 6823.58 3.26577 -4.7119 0
M  V30 71448 H 6821.97 2.7662 -5.32542 0
M  V30 71449 H 6823.04 1.55785 -4.59194 0
M  V30 71450 N 6824.39 1.43837 0.644092 0
M  V30 71451 C 6825.8 1.27439 0.960808 0
M  V30 71452 C 6826 0.200724 2.00498 0
M  V30 71453 O 6825.06 -0.417775 2.4902 0
M  V30 71454 C 6826.37 2.64175 1.43639 0
M  V30 71455 C 6827.92 2.7178 1.55256 0
M  V30 71456 C 6828.4 4.08955 2.06203 0
M  V30 71457 N 6829.89 4.11066 2.13492 0
M  V30 71458 C 6830.62 5.14047 2.54054 0
M  V30 71459 N 6830.12 6.27396 2.93847 0
M  V30 71460 N 6831.91 5.01401 2.54074 0
M  V30 71461 H 6824.06 2.12349 -0.0466898 0
M  V30 71462 H 6826.32 0.947082 0.0417139 0
M  V30 71463 H 6826.03 3.43751 0.743525 0
M  V30 71464 H 6825.9 2.90188 2.40978 0
M  V30 71465 H 6828.29 1.92531 2.23642 0
M  V30 71466 H 6828.37 2.49522 0.563263 0
M  V30 71467 H 6828.02 4.88675 1.38415 0
M  V30 71468 H 6827.95 4.28583 3.0598 0
M  V30 71469 H 6830.44 3.29252 1.85476 0
M  V30 71470 H 6830.75 7.01798 3.23573 0
M  V30 71471 H 6829.1 6.30854 2.91629 0
M  V30 71472 H 6832.29 4.1191 2.22369 0
M  V30 71473 H 6832.46 5.81783 2.85363 0
M  V30 71474 N 6825.87 -0.883309 1.3052 0
M  V30 71475 C 6827.11 -1.62999 1.18804 0
M  V30 71476 C 6827.43 -1.9392 -0.255821 0
M  V30 71477 O 6828.63 -2.66958 -0.494513 0
M  V30 71478 C 6827.09 -2.93783 2.07893 0
M  V30 71479 C 6826.7 -2.70395 3.57198 0
M  V30 71480 C 6828.44 -3.7175 2.04944 0
M  V30 71481 C 6826.35 -3.97006 4.38338 0
M  V30 71482 H 6825.28 -0.611538 0.441063 0
M  V30 71483 H 6827.93 -0.977772 1.5528 0
M  V30 71484 H 6826.31 -3.60307 1.64302 0
M  V30 71485 H 6827.49 -2.12363 4.08948 0
M  V30 71486 H 6825.8 -2.05801 3.61987 0
M  V30 71487 H 6828.4 -4.65652 2.62817 0
M  V30 71488 H 6828.74 -4.03272 1.03332 0
M  V30 71489 H 6829.27 -3.12091 2.46665 0
M  V30 71490 H 6826.01 -3.70642 5.40652 0
M  V30 71491 H 6825.53 -4.54538 3.9135 0
M  V30 71492 H 6827.21 -4.65012 4.49859 0
M  V30 71493 N 6827.34 -1.13263 -1.09587 0
M  V30 71494 C 6828.59 -0.888013 -1.811 0
M  V30 71495 C 6828.91 0.587573 -1.86566 0
M  V30 71496 O 6830.11 0.94907 -2.54372 0
M  V30 71497 C 6828.57 -1.53912 -3.25329 0
M  V30 71498 C 6828.18 -3.05011 -3.28135 0
M  V30 71499 C 6829.92 -1.37513 -4.0161 0
M  V30 71500 C 6827.83 -3.63014 -4.66877 0
M  V30 71501 H 6826.76 -0.32857 -0.678644 0
M  V30 71502 H 6829.41 -1.36015 -1.23176 0
M  V30 71503 H 6827.79 -0.994648 -3.83305 0
M  V30 71504 H 6828.96 -3.66024 -2.79934 0
M  V30 71505 H 6827.28 -3.20907 -2.65344 0
M  V30 71506 H 6829.88 -1.78262 -5.0411 0
M  V30 71507 H 6830.22 -0.319789 -4.1507 0
M  V30 71508 H 6830.75 -1.8893 -3.50072 0
M  V30 71509 H 6827.49 -4.68347 -4.58619 0
M  V30 71510 H 6827.01 -3.06779 -5.15409 0
M  V30 71511 H 6828.69 -3.62592 -5.35851 0
M  V30 71512 N 6828.82 1.27535 -0.925878 0
M  V30 71513 C 6830.23 1.76447 -0.610195 0
M  V30 71514 C 6830.58 1.75626 0.87463 0
M  V30 71515 O 6829.71 1.3586 1.68437 0
M  V30 71516 C 6830.3 3.20415 -1.1009 0
M  V30 71517 C 6828.86 3.67001 -0.835916 0
M  V30 71518 C 6828.01 2.46987 -1.26067 0
M  V30 71519 H 6830.96 1.13828 -1.10585 0
M  V30 71520 H 6830.98 3.77856 -0.447756 0
M  V30 71521 H 6830.49 3.2098 -2.18159 0
M  V30 71522 H 6828.6 3.71883 0.231053 0
M  V30 71523 H 6828.71 4.56562 -1.45218 0
M  V30 71524 H 6827.07 2.45476 -0.67924 0
M  V30 71525 H 6827.86 2.50263 -2.34997 0
M  V30 71526 N 6830.3 0.691184 1.41635 0
M  V30 71527 C 6831.53 0.228867 2.05328 0
M  V30 71528 C 6831.94 -1.12533 1.52095 0
M  V30 71529 O 6831.28 -1.71348 0.662235 0
M  V30 71530 C 6831.34 0.10426 3.59349 0
M  V30 71531 C 6831.01 1.38979 4.35355 0
M  V30 71532 C 6832 2.32673 4.64929 0
M  V30 71533 C 6829.69 1.64194 4.74706 0
M  V30 71534 C 6831.68 3.49846 5.3281 0
M  V30 71535 C 6829.37 2.81654 5.42323 0
M  V30 71536 C 6830.37 3.74303 5.71302 0
M  V30 71537 O 6830.06 4.89707 6.37529 0
M  V30 71538 H 6829.79 0.105032 0.667791 0
M  V30 71539 H 6832.34 0.943034 1.82472 0
M  V30 71540 H 6830.57 -0.665638 3.80928 0
M  V30 71541 H 6832.26 -0.320306 4.04634 0
M  V30 71542 H 6833.03 2.14448 4.35014 0
M  V30 71543 H 6828.91 0.92944 4.51533 0
M  V30 71544 H 6832.45 4.22181 5.55346 0
M  V30 71545 H 6828.35 2.99798 5.71657 0
M  V30 71546 H 6829.12 4.89464 6.56024 0
M  V30 71547 N 6831.78 -1.5146 0.43563 0
M  V30 71548 C 6832.71 -2.30594 -0.367254 0
M  V30 71549 C 6833.69 -1.35933 -1.02255 0
M  V30 71550 O 6834.87 -1.64852 -1.02652 0
M  V30 71551 C 6832 -3.14672 -1.46966 0
M  V30 71552 C 6830.96 -4.17596 -0.937941 0
M  V30 71553 C 6830.28 -4.90184 -2.13596 0
M  V30 71554 C 6831.58 -5.22293 0.0264375 0
M  V30 71555 H 6833.28 -2.97962 0.293127 0
M  V30 71556 H 6830.82 -1.43294 0.142416 0
M  V30 71557 H 6832.78 -3.68811 -2.03854 0
M  V30 71558 H 6831.5 -2.45122 -2.15831 0
M  V30 71559 H 6830.16 -3.64506 -0.391289 0
M  V30 71560 H 6829.81 -4.17139 -2.81076 0
M  V30 71561 H 6829.51 -5.59781 -1.78658 0
M  V30 71562 H 6831.03 -5.47146 -2.71041 0
M  V30 71563 H 6832.45 -5.71515 -0.452083 0
M  V30 71564 H 6830.84 -5.99407 0.288308 0
M  V30 71565 H 6831.91 -4.75228 0.963641 0
M  V30 71566 N 6833.26 -0.166928 -1.56713 0
M  V30 71567 C 6834.48 0.488727 -2.01559 0
M  V30 71568 C 6834.91 1.56309 -1.04638 0
M  V30 71569 O 6834.26 1.81282 -0.025226 0
M  V30 71570 C 6834.31 1.048 -3.45035 0
M  V30 71571 O 6833.42 2.16217 -3.51175 0
M  V30 71572 H 6832.76 0.117492 -0.653523 0
M  V30 71573 H 6835.29 -0.269528 -2.02817 0
M  V30 71574 H 6835.3 1.37171 -3.8425 0
M  V30 71575 H 6833.97 0.261354 -4.15078 0
M  V30 71576 H 6832.55 1.84925 -3.23817 0
M  V30 71577 N 6834.73 1.57238 0.106811 0
M  V30 71578 C 6835.98 1.85488 0.812428 0
M  V30 71579 C 6836.31 0.753782 1.793 0
M  V30 71580 O 6835.56 -0.253751 1.94048 0
M  V30 71581 C 6835.86 3.20277 1.58611 0
M  V30 71582 C 6835.53 4.4464 0.748732 0
M  V30 71583 C 6834.19 4.78405 0.517852 0
M  V30 71584 C 6836.54 5.20936 0.165847 0
M  V30 71585 C 6833.87 5.85902 -0.305968 0
M  V30 71586 C 6836.22 6.29301 -0.645231 0
M  V30 71587 C 6834.89 6.6159 -0.886314 0
M  V30 71588 H 6834.16 0.678749 0.297289 0
M  V30 71589 H 6836.8 1.91356 0.0743323 0
M  V30 71590 H 6835.11 3.10041 2.39546 0
M  V30 71591 H 6836.81 3.3936 2.13626 0
M  V30 71592 H 6833.4 4.18192 0.938785 0
M  V30 71593 H 6837.58 4.95192 0.331409 0
M  V30 71594 H 6832.84 6.09337 -0.501849 0
M  V30 71595 H 6837.01 6.87596 -1.10382 0
M  V30 71596 H 6834.64 7.44716 -1.52648 0
M  V30 71597 N 6836.21 -0.377327 1.53016 0
M  V30 71598 C 6837.46 -1.11897 1.68296 0
M  V30 71599 C 6837.78 -1.9017 0.431306 0
M  V30 71600 O 6837.05 -1.87889 -0.554495 0
M  V30 71601 H 6835.63 -0.416079 0.620393 0
M  V30 71602 H 6838.29 -0.426793 1.9017 0
M  V30 71603 H 6837.39 -1.81536 2.53872 0
M  V30 71604 N 6837.69 -1.44177 -0.636455 0
M  V30 71605 C 6838.6 -1.53113 -1.77746 0
M  V30 71606 C 6839.62 -0.417123 -1.68926 0
M  V30 71607 O 6840.79 -0.6737 -1.89798 0
M  V30 71608 C 6837.86 -1.46758 -3.14107 0
M  V30 71609 C 6836.92 -2.68966 -3.34598 0
M  V30 71610 C 6836.15 -2.62905 -4.64453 0
M  V30 71611 O 6836.37 -1.6861 -5.4491 0
M  V30 71612 O 6835.31 -3.53673 -4.87031 0
M  V30 71613 H 6839.13 -2.49498 -1.73161 0
M  V30 71614 H 6836.72 -1.26364 -0.797023 0
M  V30 71615 H 6838.6 -1.45717 -3.95404 0
M  V30 71616 H 6837.28 -0.535144 -3.19246 0
M  V30 71617 H 6836.18 -2.75576 -2.53 0
M  V30 71618 H 6837.52 -3.61238 -3.34317 0
M  V30 71619 N 6839.17 0.876375 -1.30986 0
M  V30 71620 C 6840.41 1.63131 -1.20482 0
M  V30 71621 C 6840.75 1.92736 0.237995 0
M  V30 71622 O 6840.02 1.55441 1.16911 0
M  V30 71623 C 6840.31 2.96563 -2.0426 0
M  V30 71624 C 6840.16 2.73877 -3.56807 0
M  V30 71625 C 6841.48 3.97591 -1.88705 0
M  V30 71626 H 6838.6 0.591962 -0.439033 0
M  V30 71627 H 6841.24 1.01353 -1.6071 0
M  V30 71628 H 6839.39 3.49291 -1.70082 0
M  V30 71629 H 6841.06 2.27871 -4.01089 0
M  V30 71630 H 6839.3 2.08225 -3.80559 0
M  V30 71631 H 6839.97 3.68793 -4.10726 0
M  V30 71632 H 6842.45 3.54051 -2.18603 0
M  V30 71633 H 6841.33 4.88849 -2.49636 0
M  V30 71634 H 6841.59 4.3388 -0.848572 0
M  V30 71635 N 6840.65 1.13843 1.08985 0
M  V30 71636 C 6841.56 0.833448 2.19296 0
M  V30 71637 C 6842.57 -0.183756 1.73027 0
M  V30 71638 O 6843.75 -0.013703 2.01395 0
M  V30 71639 C 6840.81 0.308833 3.45322 0
M  V30 71640 C 6839.87 1.38785 4.06248 0
M  V30 71641 C 6839.11 0.888174 5.26258 0
M  V30 71642 O 6839.33 -0.27257 5.69748 0
M  V30 71643 O 6838.26 1.66452 5.78427 0
M  V30 71644 H 6842.09 1.75519 2.47844 0
M  V30 71645 H 6839.68 0.916228 1.18007 0
M  V30 71646 H 6841.56 0.0218961 4.21394 0
M  V30 71647 H 6840.23 -0.585263 3.18365 0
M  V30 71648 H 6839.14 1.72817 3.31791 0
M  V30 71649 H 6840.47 2.25625 4.3744 0
M  V30 71650 N 6842.12 -1.27042 0.932629 0
M  V30 71651 C 6843.07 -2.26679 0.434192 0
M  V30 71652 C 6844.04 -1.58347 -0.501555 0
M  V30 71653 O 6845.23 -1.86128 -0.419636 0
M  V30 71654 C 6842.37 -3.43772 -0.302429 0
M  V30 71655 C 6841.48 -4.26804 0.667999 0
M  V30 71656 C 6840.61 -5.31126 -0.0889592 0
M  V30 71657 C 6839.65 -6.0583 0.873852 0
M  V30 71658 N 6838.79 -7.01941 0.149202 0
M  V30 71659 H 6843.63 -2.68688 1.28882 0
M  V30 71660 H 6841.17 -1.32118 0.646783 0
M  V30 71661 H 6843.13 -4.10478 -0.745875 0
M  V30 71662 H 6841.76 -3.02701 -1.12126 0
M  V30 71663 H 6840.81 -3.59967 1.22997 0
M  V30 71664 H 6842.12 -4.78644 1.40362 0
M  V30 71665 H 6841.27 -6.03804 -0.592091 0
M  V30 71666 H 6840.01 -4.80102 -0.857517 0
M  V30 71667 H 6839.02 -5.31986 1.38819 0
M  V30 71668 H 6840.24 -6.58943 1.64227 0
M  V30 71669 H 6838.19 -6.53241 -0.60102 0
M  V30 71670 H 6838.11 -7.51493 0.824306 0
M  V30 71671 H 6839.37 -7.78788 -0.333116 0
M  V30 71672 N 6843.6 -0.698686 -1.41266 0
M  V30 71673 C 6844.54 0.0152694 -2.28195 0
M  V30 71674 C 6845.51 0.784808 -1.42406 0
M  V30 71675 O 6846.7 0.774977 -1.71832 0
M  V30 71676 C 6843.83 1.02901 -3.2269 0
M  V30 71677 C 6842.87 0.352277 -4.25043 0
M  V30 71678 S 6843.7 -0.907601 -5.27753 0
M  V30 71679 C 6844.86 0.104466 -6.25813 0
M  V30 71680 H 6845.09 -0.72201 -2.884 0
M  V30 71681 H 6842.63 -0.489073 -1.46449 0
M  V30 71682 H 6844.58 1.60873 -3.77664 0
M  V30 71683 H 6843.25 1.73888 -2.61575 0
M  V30 71684 H 6842.44 1.11803 -4.91443 0
M  V30 71685 H 6842.04 -0.154451 -3.73681 0
M  V30 71686 H 6844.33 0.95675 -6.7071 0
M  V30 71687 H 6845.28 -0.525696 -7.06146 0
M  V30 71688 H 6845.68 0.460635 -5.62617 0
M  V30 71689 N 6845.08 1.51226 -0.443656 0
M  V30 71690 C 6846.01 2.25674 0.400489 0
M  V30 71691 C 6847.03 1.29933 0.980877 0
M  V30 71692 O 6848.22 1.55642 0.873942 0
M  V30 71693 C 6845.32 3.00189 1.57288 0
M  V30 71694 C 6844.49 4.23075 1.11024 0
M  V30 71695 C 6843.55 4.80116 2.15349 0
M  V30 71696 O 6842.57 5.41784 1.74525 0
M  V30 71697 N 6843.78 4.64702 3.47898 0
M  V30 71698 H 6846.54 2.98757 -0.237607 0
M  V30 71699 H 6844.1 1.59584 -0.272893 0
M  V30 71700 H 6846.09 3.35234 2.26716 0
M  V30 71701 H 6844.66 2.30078 2.1162 0
M  V30 71702 H 6843.88 3.93451 0.242811 0
M  V30 71703 H 6845.17 5.02807 0.778623 0
M  V30 71704 H 6844.57 4.15596 3.83793 0
M  V30 71705 H 6843.13 5.04091 4.13201 0
M  V30 71706 N 6846.56 0.175237 1.56623 0
M  V30 71707 C 6847.81 -0.468818 1.96176 0
M  V30 71708 C 6848.12 -1.64123 1.0641 0
M  V30 71709 O 6849.33 -2.35178 1.3566 0
M  V30 71710 C 6847.78 -0.88545 3.48838 0
M  V30 71711 C 6847.39 0.261579 4.47236 0
M  V30 71712 C 6849.14 -1.4977 3.97202 0
M  V30 71713 C 6847.04 -0.174903 5.91141 0
M  V30 71714 H 6845.97 -0.178919 0.732464 0
M  V30 71715 H 6848.62 0.264093 1.8159 0
M  V30 71716 H 6847.01 -1.67445 3.58857 0
M  V30 71717 H 6848.18 1.03895 4.48935 0
M  V30 71718 H 6846.49 0.784042 4.08952 0
M  V30 71719 H 6849.09 -1.83638 5.02176 0
M  V30 71720 H 6849.43 -2.39704 3.40364 0
M  V30 71721 H 6849.97 -0.773061 3.90216 0
M  V30 71722 H 6846.71 0.689758 6.51861 0
M  V30 71723 H 6846.23 -0.917548 5.9274 0
M  V30 71724 H 6847.91 -0.617453 6.44047 0
M  V30 71725 N 6848.04 -1.57292 -0.098471 0
M  V30 71726 C 6848.97 -2.04857 -1.12053 0
M  V30 71727 C 6849.95 -0.936842 -1.41976 0
M  V30 71728 O 6851.13 -1.20789 -1.52064 0
M  V30 71729 C 6848.26 -2.47017 -2.44131 0
M  V30 71730 C 6847.22 -3.61822 -2.28624 0
M  V30 71731 C 6846.54 -3.89948 -3.65848 0
M  V30 71732 C 6847.84 -4.92831 -1.7296 0
M  V30 71733 H 6849.54 -2.90494 -0.724826 0
M  V30 71734 H 6847.08 -1.39751 -0.347216 0
M  V30 71735 H 6849.04 -2.789 -3.159 0
M  V30 71736 H 6847.76 -1.58376 -2.8563 0
M  V30 71737 H 6846.42 -3.3018 -1.59301 0
M  V30 71738 H 6846.07 -2.98479 -4.04869 0
M  V30 71739 H 6845.77 -4.67237 -3.56319 0
M  V30 71740 H 6847.29 -4.24303 -4.39089 0
M  V30 71741 H 6848.71 -5.23117 -2.34566 0
M  V30 71742 H 6847.1 -5.7426 -1.74199 0
M  V30 71743 H 6848.17 -4.79984 -0.688753 0
M  V30 71744 N 6849.52 0.369207 -1.53214 0
M  V30 71745 C 6850.76 1.11388 -1.69472 0
M  V30 71746 C 6851.09 1.89071 -0.443357 0
M  V30 71747 O 6850.37 1.86285 0.559288 0
M  V30 71748 C 6850.65 2.07606 -2.94231 0
M  V30 71749 C 6850.51 1.33555 -4.29515 0
M  V30 71750 C 6851.82 3.07777 -3.14581 0
M  V30 71751 H 6848.94 0.403564 -0.616689 0
M  V30 71752 H 6851.59 0.395081 -1.85847 0
M  V30 71753 H 6849.74 2.68901 -2.80401 0
M  V30 71754 H 6851.41 0.750715 -4.5515 0
M  V30 71755 H 6849.65 0.637391 -4.29092 0
M  V30 71756 H 6850.32 2.03961 -5.12936 0
M  V30 71757 H 6852.8 2.56583 -3.27573 0
M  V30 71758 H 6851.67 3.72327 -4.03316 0
M  V30 71759 H 6851.93 3.77747 -2.29695 0
M  V30 71760 N 6850.99 1.44512 0.6288 0
M  V30 71761 C 6851.9 1.54053 1.76931 0
M  V30 71762 C 6852.92 0.426076 1.68703 0
M  V30 71763 O 6854.1 0.683756 1.89438 0
M  V30 71764 C 6851.16 1.48421 3.13324 0
M  V30 71765 C 6850.22 2.70737 3.33167 0
M  V30 71766 C 6849.45 2.65364 4.63053 0
M  V30 71767 O 6849.68 1.71498 5.44008 0
M  V30 71768 O 6848.61 3.56251 4.85148 0
M  V30 71769 H 6852.44 2.50412 1.71835 0
M  V30 71770 H 6850.02 1.26785 0.790311 0
M  V30 71771 H 6851.9 1.47812 3.94626 0
M  V30 71772 H 6850.58 0.552067 3.18958 0
M  V30 71773 H 6849.49 2.76914 2.51535 0
M  V30 71774 H 6850.82 3.63006 3.32397 0
M  V30 71775 N 6852.47 -0.869416 1.31449 0
M  V30 71776 C 6853.89 -1.15525 1.10119 0
M  V30 71777 C 6854.09 -2.01093 -0.127981 0
M  V30 71778 O 6853.14 -2.38912 -0.81715 0
M  V30 71779 C 6854.46 -1.84686 2.37301 0
M  V30 71780 C 6856 -1.97384 2.42916 0
M  V30 71781 C 6856.48 -2.69959 3.69981 0
M  V30 71782 N 6857.97 -2.77494 3.70879 0
M  V30 71783 C 6858.71 -3.34263 4.65893 0
M  V30 71784 N 6858.2 -3.91958 5.71263 0
M  V30 71785 N 6859.99 -3.32226 4.53412 0
M  V30 71786 H 6852.15 -0.299236 2.10282 0
M  V30 71787 H 6854.41 -0.195165 0.927693 0
M  V30 71788 H 6854.11 -1.29261 3.27085 0
M  V30 71789 H 6853.99 -2.84959 2.4714 0
M  V30 71790 H 6856.38 -2.51974 1.53601 0
M  V30 71791 H 6856.46 -0.961518 2.37041 0
M  V30 71792 H 6856.1 -2.16037 4.59663 0
M  V30 71793 H 6856.03 -3.716 3.73123 0
M  V30 71794 H 6858.52 -2.36548 2.94709 0
M  V30 71795 H 6858.83 -4.33387 6.3984 0
M  V30 71796 H 6857.18 -3.90332 5.75035 0
M  V30 71797 H 6860.37 -2.86391 3.70267 0
M  V30 71798 H 6860.54 -3.7617 5.27637 0
M  V30 71799 N 6853.95 -1.14419 -1.08379 0
M  V30 71800 C 6855.2 -0.912577 -1.80771 0
M  V30 71801 C 6855.52 0.560836 -1.86239 0
M  V30 71802 O 6854.78 1.43152 -1.33439 0
M  V30 71803 C 6855.08 -1.45897 -3.26265 0
M  V30 71804 C 6854.74 -2.95107 -3.40915 0
M  V30 71805 C 6853.41 -3.35843 -3.4462 0
M  V30 71806 C 6855.76 -3.91051 -3.4457 0
M  V30 71807 C 6853.09 -4.71186 -3.49573 0
M  V30 71808 C 6855.44 -5.26252 -3.51058 0
M  V30 71809 C 6854.1 -5.66499 -3.53037 0
M  V30 71810 H 6853.37 -0.333936 -0.661489 0
M  V30 71811 H 6856.02 -1.42791 -1.27605 0
M  V30 71812 H 6854.32 -0.864577 -3.82142 0
M  V30 71813 H 6856.02 -1.2557 -3.80832 0
M  V30 71814 H 6852.61 -2.62612 -3.38722 0
M  V30 71815 H 6856.8 -3.60659 -3.40938 0
M  V30 71816 H 6852.05 -5.01729 -3.49397 0
M  V30 71817 H 6856.23 -6.00402 -3.52832 0
M  V30 71818 H 6853.85 -6.71358 -3.56627 0
M  V30 71819 N 6855.43 1.26546 -0.939353 0
M  V30 71820 C 6856.37 2.26446 -0.446207 0
M  V30 71821 C 6857.34 1.5861 0.49315 0
M  V30 71822 O 6858.53 1.86348 0.409759 0
M  V30 71823 C 6855.67 3.43928 0.284193 0
M  V30 71824 C 6854.78 4.26444 -0.690624 0
M  V30 71825 C 6853.92 5.31165 0.0607911 0
M  V30 71826 C 6852.96 6.05358 -0.905968 0
M  V30 71827 N 6852.09 7.01852 -0.186425 0
M  V30 71828 H 6856.93 2.68001 -1.30305 0
M  V30 71829 H 6854.47 1.31773 -0.65378 0
M  V30 71830 H 6856.43 4.10868 0.724096 0
M  V30 71831 H 6855.06 3.03291 1.10519 0
M  V30 71832 H 6854.11 3.59309 -1.24904 0
M  V30 71833 H 6855.42 4.77893 -1.42899 0
M  V30 71834 H 6854.58 6.04109 0.560061 0
M  V30 71835 H 6853.32 4.8055 0.832044 0
M  V30 71836 H 6852.32 5.31243 -1.41638 0
M  V30 71837 H 6853.55 6.58063 -1.6772 0
M  V30 71838 H 6851.49 6.53551 0.566369 0
M  V30 71839 H 6851.41 7.51045 -0.864148 0
M  V30 71840 H 6852.68 7.78954 0.291811 0
M  V30 71841 N 6856.91 0.706168 1.40894 0
M  V30 71842 C 6858.32 0.315149 1.84021 0
M  V30 71843 C 6858.67 -1.14858 1.59066 0
M  V30 71844 O 6857.79 -1.88288 1.06661 0
M  V30 71845 C 6858.39 0.565214 3.34052 0
M  V30 71846 C 6856.95 0.228004 3.75709 0
M  V30 71847 C 6856.09 0.842261 2.64199 0
M  V30 71848 H 6859.04 0.906032 1.30295 0
M  V30 71849 H 6859.07 -0.172642 3.80108 0
M  V30 71850 H 6858.58 1.63061 3.52183 0
M  V30 71851 H 6856.68 -0.832704 3.63176 0
M  V30 71852 H 6856.79 0.690424 4.74099 0
M  V30 71853 H 6855.16 0.271027 2.53254 0
M  V30 71854 H 6855.94 1.91173 2.85145 0
M  V30 71855 N 6858.38 -1.50989 0.45167 0
M  V30 71856 C 6859.61 -2.06317 -0.108068 0
M  V30 71857 C 6860.02 -1.31772 -1.35767 0
M  V30 71858 O 6859.37 -0.374788 -1.79836 0
M  V30 71859 C 6859.43 -3.56261 -0.481471 0
M  V30 71860 C 6859.09 -4.5216 0.663352 0
M  V30 71861 C 6860.09 -4.96577 1.53973 0
M  V30 71862 C 6857.77 -4.95087 0.848161 0
M  V30 71863 C 6859.77 -5.82607 2.58549 0
M  V30 71864 C 6857.45 -5.80905 1.89717 0
M  V30 71865 C 6858.45 -6.24564 2.76421 0
M  V30 71866 O 6858.14 -7.08675 3.79519 0
M  V30 71867 H 6857.87 -0.675982 -0.00495618 0
M  V30 71868 H 6860.43 -1.95378 0.633762 0
M  V30 71869 H 6858.66 -3.65034 -1.27621 0
M  V30 71870 H 6860.35 -3.9404 -0.974025 0
M  V30 71871 H 6861.11 -4.64096 1.40855 0
M  V30 71872 H 6856.99 -4.60637 0.182823 0
M  V30 71873 H 6860.53 -6.16606 3.26256 0
M  V30 71874 H 6856.43 -6.12799 2.02849 0
M  V30 71875 H 6857.2 -7.26885 3.76272 0
M  V30 71876 N 6859.86 -0.183541 -1.56528 0
M  V30 71877 C 6861.1 0.460562 -1.99144 0
M  V30 71878 C 6861.47 1.59592 -1.06745 0
M  V30 71879 O 6862.67 2.30342 -1.3855 0
M  V30 71880 C 6860.94 0.919757 -3.45362 0
M  V30 71881 S 6862.5 1.56332 -4.10007 0
M  V30 71882 H 6859.32 0.147711 -0.695487 0
M  V30 71883 H 6861.92 -0.283884 -1.93428 0
M  V30 71884 H 6860.62 0.0832044 -4.10316 0
M  V30 71885 H 6860.15 1.69795 -3.54871 0
M  V30 71886 H 6862.17 2.85182 -4.06062 0
M  V30 71887 N 6861.34 1.57342 0.090128 0
M  V30 71888 C 6862.29 2.03428 1.12782 0
M  V30 71889 C 6863.28 0.936241 1.41177 0
M  V30 71890 O 6864.49 1.12141 1.40799 0
M  V30 71891 H 6860.86 0.648367 0.380952 0
M  V30 71892 H 6862.83 2.89761 0.712837 0
M  V30 71893 C 6861.58 2.47864 2.43842 0
M  V30 71894 H 6860.91 3.31939 2.22838 0
M  V30 71895 H 6862.35 2.83881 3.1494 0
M  V30 71896 C 6860.81 1.35396 3.08496 0
M  V30 71897 O 6861.34 0.685849 3.95802 0
M  V30 71898 N 6859.54 1.10369 2.68825 0
M  V30 71899 H 6859.09 1.6488 1.9792 0
M  V30 71900 H 6859.05 0.353196 3.1241 0
M  V30 71901 N 6862.82 -0.361077 1.53408 0
M  V30 71902 C 6864.07 -1.10324 1.69808 0
M  V30 71903 C 6864.39 -1.89171 0.452187 0
M  V30 71904 O 6863.65 -1.87339 -0.565918 0
M  V30 71905 C 6863.95 -2.08581 2.90222 0
M  V30 71906 C 6863.61 -1.4618 4.26547 0
M  V30 71907 C 6862.28 -1.2889 4.63617 0
M  V30 71908 C 6864.63 -1.01074 5.11306 0
M  V30 71909 C 6861.96 -0.650849 5.83079 0
M  V30 71910 C 6864.31 -0.386674 6.31417 0
M  V30 71911 C 6862.97 -0.201306 6.67196 0
M  V30 71912 H 6862.24 -0.403704 0.621373 0
M  V30 71913 H 6864.89 -0.38451 1.876 0
M  V30 71914 H 6863.19 -2.86774 2.66961 0
M  V30 71915 H 6864.89 -2.65966 3.00105 0
M  V30 71916 H 6861.48 -1.60632 3.9736 0
M  V30 71917 H 6865.66 -1.13224 4.83212 0
M  V30 71918 H 6860.92 -0.495684 6.09387 0
M  V30 71919 H 6865.09 -0.0289891 6.96394 0
M  V30 71920 H 6862.72 0.295167 7.59627 0
M  V30 71921 N 6864.3 -1.44844 -0.621128 0
M  V30 71922 C 6865.57 -1.38627 -1.37993 0
M  V30 71923 C 6865.95 -0.0500048 -2.11041 0
M  V30 71924 O 6865.3 0.967707 -2.06997 0
M  V30 71925 C 6865.51 -2.59108 -2.33803 0
M  V30 71926 C 6866.86 -3.03609 -2.96828 0
M  V30 71927 O 6867.88 -2.59384 -2.44127 0
M  V30 71928 O 6866.74 -3.80316 -3.92456 0
M  V30 71929 H 6863.84 -0.549458 -0.618081 0
M  V30 71930 H 6866.38 -1.5695 -0.645347 0
M  V30 71931 H 6865.15 -3.47961 -1.78994 0
M  V30 71932 H 6864.78 -2.43049 -3.14663 0
M  V30 71933 N 6865.77 0.862433 -1.31908 0
M  V30 71934 C 6866.72 1.97034 -1.20192 0
M  V30 71935 C 6867.69 1.65878 -0.0859122 0
M  V30 71936 O 6868.88 1.89019 -0.260099 0
M  V30 71937 C 6866.02 3.32529 -0.922972 0
M  V30 71938 C 6865.13 3.76233 -2.12304 0
M  V30 71939 C 6864.26 5.00481 -1.78023 0
M  V30 71940 C 6863.3 5.36655 -2.94394 0
M  V30 71941 N 6862.44 6.52081 -2.60258 0
M  V30 71942 H 6867.28 2.06387 -2.14962 0
M  V30 71943 H 6864.82 1.01025 -1.06922 0
M  V30 71944 H 6866.78 4.10553 -0.741765 0
M  V30 71945 H 6865.41 3.22798 -0.0120929 0
M  V30 71946 H 6864.46 2.93927 -2.41477 0
M  V30 71947 H 6865.77 3.98967 -2.99378 0
M  V30 71948 H 6864.92 5.86192 -1.56408 0
M  V30 71949 H 6863.66 4.79667 -0.881505 0
M  V30 71950 H 6862.67 4.49459 -3.16649 0
M  V30 71951 H 6863.89 5.5943 -3.84986 0
M  V30 71952 H 6861.84 6.328 -1.72918 0
M  V30 71953 H 6861.76 6.74796 -3.40862 0
M  V30 71954 H 6863.02 7.40965 -2.42055 0
M  V30 71955 N 6867.25 1.14992 1.07771 0
M  V30 71956 C 6868.48 0.944499 1.83747 0
M  V30 71957 C 6868.89 -0.510484 1.82183 0
M  V30 71958 O 6868.23 -1.3657 1.22859 0
M  V30 71959 C 6868.3 1.37609 3.3212 0
M  V30 71960 C 6867.96 2.84793 3.5741 0
M  V30 71961 C 6868.96 3.82879 3.5171 0
M  V30 71962 C 6866.64 3.22361 3.85213 0
M  V30 71963 C 6868.64 5.16537 3.73454 0
M  V30 71964 C 6866.32 4.56193 4.0661 0
M  V30 71965 C 6867.32 5.5309 4.00725 0
M  V30 71966 O 6867.01 6.84505 4.21554 0
M  V30 71967 H 6866.74 0.335775 0.586712 0
M  V30 71968 H 6869.29 1.5306 1.36974 0
M  V30 71969 H 6867.52 0.733365 3.79682 0
M  V30 71970 H 6869.21 1.14045 3.89549 0
M  V30 71971 H 6869.98 3.55202 3.30238 0
M  V30 71972 H 6865.86 2.47528 3.8891 0
M  V30 71973 H 6869.4 5.92156 3.68777 0
M  V30 71974 H 6865.3 4.83587 4.27568 0
M  V30 71975 H 6866.07 6.9086 4.38925 0
M  V30 71976 N 6868.73 -1.26046 0.946051 0
M  V30 71977 C 6870.01 -1.88728 0.513916 0
M  V30 71978 C 6870.39 -1.85445 -1.00862 0
M  V30 71979 O 6869.74 -1.3121 -1.87073 0
M  V30 71980 C 6869.95 -3.31843 1.08079 0
M  V30 71981 C 6871.29 -4.08662 1.15241 0
M  V30 71982 O 6872.32 -3.40931 1.03173 0
M  V30 71983 O 6871.18 -5.29799 1.34072 0
M  V30 71984 H 6868.27 -0.809707 0.168236 0
M  V30 71985 H 6870.82 -1.3418 1.03893 0
M  V30 71986 H 6869.59 -3.28619 2.12428 0
M  V30 71987 H 6869.21 -3.93936 0.538515 0
M  V30 71988 N 6870.21 -0.71363 -1.40517 0
M  V30 71989 C 6871.12 -0.0607904 -2.34521 0
M  V30 71990 C 6872.13 0.745987 -1.57197 0
M  V30 71991 O 6873.31 0.679393 -1.89595 0
M  V30 71992 C 6870.38 0.851314 -3.36086 0
M  V30 71993 C 6869.44 0.0347075 -4.29286 0
M  V30 71994 C 6868.67 0.903372 -5.25999 0
M  V30 71995 O 6868.89 2.14264 -5.28628 0
M  V30 71996 O 6867.83 0.343407 -6.0092 0
M  V30 71997 H 6871.65 -0.836125 -2.91963 0
M  V30 71998 H 6869.24 -0.474095 -1.41678 0
M  V30 71999 H 6871.12 1.37383 -3.98377 0
M  V30 72000 H 6869.79 1.60583 -2.8106 0
M  V30 72001 H 6868.7 -0.532828 -3.70286 0
M  V30 72002 H 6870.03 -0.681544 -4.87459 0
M  V30 72003 N 6871.69 1.50747 -0.459671 0
M  V30 72004 C 6872.96 1.94942 0.160268 0
M  V30 72005 C 6873.34 1.39951 1.58041 0
M  V30 72006 O 6872.69 0.595745 2.20597 0
M  V30 72007 C 6872.9 3.4881 0.115248 0
M  V30 72008 C 6874.25 4.23468 0.309803 0
M  V30 72009 O 6875.27 3.5568 0.192356 0
M  V30 72010 O 6874.13 5.43768 0.545744 0
M  V30 72011 H 6871.23 0.818555 0.117882 0
M  V30 72012 H 6873.77 1.61561 -0.519254 0
M  V30 72013 H 6872.54 3.81352 -0.876721 0
M  V30 72014 H 6872.17 3.88696 0.836723 0
M  V30 72015 N 6873.17 0.191839 1.56428 0
M  V30 72016 C 6874.12 -0.74307 2.15552 0
M  V30 72017 C 6875.1 -1.17858 1.09537 0
M  V30 72018 O 6876.29 -1.13752 1.35608 0
M  V30 72019 C 6873.42 -1.96376 2.81587 0
M  V30 72020 C 6872.51 -1.5493 3.94788 0
M  V30 72021 N 6872.9 -0.845613 4.98681 0
M  V30 72022 C 6871.2 -1.83884 4.06328 0
M  V30 72023 C 6871.9 -0.638419 5.78186 0
M  V30 72024 N 6870.87 -1.18615 5.30501 0
M  V30 72025 H 6874.67 -0.196684 2.93241 0
M  V30 72026 H 6872.19 -0.00807466 1.62398 0
M  V30 72027 H 6874.19 -2.64398 3.22335 0
M  V30 72028 H 6872.85 -2.5149 2.05385 0
M  V30 72029 H 6873.86 -0.501432 5.15467 0
M  V30 72030 H 6870.53 -2.4053 3.4125 0
M  V30 72031 H 6871.92 -0.0804387 6.71852 0
M  V30 72032 N 6874.64 -1.57388 -0.0817825 0
M  V30 72033 C 6875.87 -1.91356 -0.799845 0
M  V30 72034 C 6876.29 -0.787348 -1.70829 0
M  V30 72035 O 6875.65 0.260385 -1.7942 0
M  V30 72036 C 6875.7 -3.24243 -1.57795 0
M  V30 72037 O 6874.8 -3.12771 -2.6879 0
M  V30 72038 H 6874.14 -0.626888 -0.218877 0
M  V30 72039 H 6876.67 -2.04531 -0.0530177 0
M  V30 72040 H 6876.68 -3.57874 -1.95933 0
M  V30 72041 H 6875.36 -4.05792 -0.911334 0
M  V30 72042 H 6873.94 -2.90679 -2.33582 0
M  V30 72043 N 6876.12 0.352936 -1.53597 0
M  V30 72044 C 6877.37 1.09206 -1.70054 0
M  V30 72045 C 6877.69 1.8946 -0.461506 0
M  V30 72046 O 6876.96 1.88747 0.524534 0
M  V30 72047 H 6875.54 0.406156 -0.626934 0
M  V30 72048 H 6878.2 0.396484 -1.90825 0
M  V30 72049 H 6877.3 1.77475 -2.56728 0
M  V30 72050 N 6877.6 1.45171 0.613438 0
M  V30 72051 C 6878.88 1.39357 1.37256 0
M  V30 72052 C 6879.26 0.0611961 2.11011 0
M  V30 72053 O 6878.6 -0.956716 2.07507 0
M  V30 72054 C 6878.81 2.60344 2.32426 0
M  V30 72055 C 6880.16 3.05178 2.95214 0
M  V30 72056 O 6881.19 2.60675 2.42748 0
M  V30 72057 O 6880.05 3.82392 3.90434 0
M  V30 72058 H 6877.14 0.552728 0.615159 0
M  V30 72059 H 6879.69 1.5729 0.637014 0
M  V30 72060 H 6878.46 3.48906 1.77146 0
M  V30 72061 H 6878.08 2.44714 3.1337 0
M  V30 72062 N 6879.08 -0.855426 1.32364 0
M  V30 72063 C 6880.35 -1.59303 1.13499 0
M  V30 72064 C 6880.73 -2.08886 -0.30492 0
M  V30 72065 O 6880.08 -1.87818 -1.30141 0
M  V30 72066 C 6880.29 -2.73976 2.1619 0
M  V30 72067 C 6881.64 -3.43576 2.49481 0
M  V30 72068 O 6882.66 -2.842 2.1473 0
M  V30 72069 O 6881.52 -4.50722 3.0905 0
M  V30 72070 H 6878.62 -0.701535 0.437923 0
M  V30 72071 H 6881.16 -0.89962 1.43892 0
M  V30 72072 H 6879.94 -2.34857 3.12982 0
M  V30 72073 H 6879.56 -3.50993 1.86787 0
M  V30 72074 N 6880.56 -1.15562 -1.0716 0
M  V30 72075 C 6881.5 -0.854168 -2.14412 0
M  V30 72076 C 6882.47 0.193719 -1.64966 0
M  V30 72077 O 6883.66 0.0608437 -1.90703 0
M  V30 72078 C 6880.8 -0.351755 -3.43303 0
M  V30 72079 C 6879.91 -1.46144 -4.06529 0
M  V30 72080 C 6879.05 -0.914953 -5.23261 0
M  V30 72081 C 6878.08 -2.00144 -5.78454 0
M  V30 72082 N 6877.22 -1.47119 -6.86513 0
M  V30 72083 H 6882.06 -1.77272 -2.39539 0
M  V30 72084 H 6879.6 -0.884487 -1.17538 0
M  V30 72085 H 6881.56 -0.0421609 -4.17179 0
M  V30 72086 H 6880.19 0.529869 -3.18421 0
M  V30 72087 H 6879.24 -1.88718 -3.30287 0
M  V30 72088 H 6880.55 -2.28167 -4.43555 0
M  V30 72089 H 6879.7 -0.558016 -6.04128 0
M  V30 72090 H 6878.44 -0.0639154 -4.87658 0
M  V30 72091 H 6877.45 -2.36718 -4.9623 0
M  V30 72092 H 6878.67 -2.85629 -6.16111 0
M  V30 72093 H 6876.62 -0.642543 -6.52846 0
M  V30 72094 H 6876.54 -2.22767 -7.22434 0
M  V30 72095 H 6877.8 -1.14256 -7.71081 0
M  V30 72096 N 6882.03 1.25543 -0.952722 0
M  V30 72097 C 6883.28 1.93491 -0.607374 0
M  V30 72098 C 6883.61 1.74456 0.853153 0
M  V30 72099 O 6882.89 1.08851 1.61188 0
M  V30 72100 C 6883.17 3.46942 -0.964533 0
M  V30 72101 C 6883.02 3.75212 -2.48065 0
M  V30 72102 C 6884.34 4.37384 -0.488218 0
M  V30 72103 H 6881.46 0.702728 -0.222133 0
M  V30 72104 H 6884.1 1.48196 -1.18903 0
M  V30 72105 H 6882.25 3.85652 -0.469564 0
M  V30 72106 H 6883.93 3.46149 -3.04923 0
M  V30 72107 H 6882.17 3.20885 -2.91917 0
M  V30 72108 H 6882.84 4.82518 -2.68106 0
M  V30 72109 H 6885.32 4.05965 -0.912772 0
M  V30 72110 H 6884.19 5.43517 -0.766834 0
M  V30 72111 H 6884.45 4.37846 0.611832 0
M  V30 72112 N 6883.51 0.721072 1.40137 0
M  V30 72113 C 6884.76 0.262948 2.00786 0
M  V30 72114 C 6885.09 -1.14554 1.57186 0
M  V30 72115 O 6884.34 -1.79245 0.785486 0
M  V30 72116 C 6884.64 0.29708 3.56163 0
M  V30 72117 C 6884.31 1.65663 4.19364 0
M  V30 72118 C 6882.97 2.02878 4.36342 0
M  V30 72119 C 6885.32 2.54992 4.54564 0
M  V30 72120 C 6882.65 3.28957 4.85803 0
M  V30 72121 C 6885 3.80429 5.05427 0
M  V30 72122 C 6883.66 4.17754 5.20613 0
M  V30 72123 H 6882.93 0.0962194 0.734726 0
M  V30 72124 H 6885.58 0.925181 1.67668 0
M  V30 72125 H 6883.89 -0.448727 3.89222 0
M  V30 72126 H 6885.58 -0.0753093 4.00929 0
M  V30 72127 H 6882.17 1.35725 4.06542 0
M  V30 72128 H 6886.36 2.27515 4.41079 0
M  V30 72129 H 6881.61 3.57837 4.95745 0
M  V30 72130 H 6885.79 4.49814 5.31639 0
M  V30 72131 H 6883.41 5.15516 5.58701 0
M  V30 72132 N 6884.99 -1.50502 0.467659 0
M  V30 72133 C 6885.92 -2.31321 -0.31826 0
M  V30 72134 C 6886.9 -1.38072 -0.993491 0
M  V30 72135 O 6888.09 -1.66992 -0.991323 0
M  V30 72136 C 6885.22 -3.17718 -1.40258 0
M  V30 72137 C 6884.17 -4.19492 -0.849152 0
M  V30 72138 C 6883.5 -4.94605 -2.03151 0
M  V30 72139 C 6884.8 -5.2212 0.137218 0
M  V30 72140 H 6886.49 -2.97273 0.356263 0
M  V30 72141 H 6884.04 -1.4296 0.172778 0
M  V30 72142 H 6885.99 -3.73052 -1.95985 0
M  V30 72143 H 6884.71 -2.49645 -2.10583 0
M  V30 72144 H 6883.37 -3.65254 -0.313884 0
M  V30 72145 H 6883.02 -4.23007 -2.72165 0
M  V30 72146 H 6882.72 -5.63445 -1.66744 0
M  V30 72147 H 6884.24 -5.52772 -2.59374 0
M  V30 72148 H 6885.66 -5.72345 -0.330755 0
M  V30 72149 H 6884.05 -5.98661 0.415386 0
M  V30 72150 H 6885.12 -4.73077 1.06423 0
M  V30 72151 N 6886.47 -0.200132 -1.56324 0
M  V30 72152 C 6887.74 0.48519 -1.89487 0
M  V30 72153 C 6888.12 1.79288 -1.1144 0
M  V30 72154 O 6887.47 2.27467 -0.217039 0
M  V30 72155 C 6887.68 0.699063 -3.41927 0
M  V30 72156 C 6889.03 1.01617 -4.12261 0
M  V30 72157 O 6890.05 0.786608 -3.47406 0
M  V30 72158 O 6888.91 1.45067 -5.26894 0
M  V30 72159 H 6886.01 0.253597 -0.787158 0
M  V30 72160 H 6888.55 -0.240721 -1.67984 0
M  V30 72161 H 6887.33 -0.224214 -3.90657 0
M  V30 72162 H 6886.95 1.47725 -3.69138 0
M  V30 72163 N 6887.95 1.57429 0.0734347 0
M  V30 72164 C 6889.19 1.89004 0.778263 0
M  V30 72165 C 6889.55 0.793726 1.74826 0
M  V30 72166 O 6890.75 0.992499 2.49806 0
M  V30 72167 C 6889.02 3.25809 1.46912 0
M  V30 72168 S 6890.58 3.79128 2.20923 0
M  V30 72169 H 6887.4 0.662211 0.258839 0
M  V30 72170 H 6890 1.9547 0.0344307 0
M  V30 72171 H 6888.71 4.03501 0.749319 0
M  V30 72172 H 6888.24 3.22537 2.25241 0
M  V30 72173 H 6890.25 3.54283 3.47416 0
M  V30 72174 N 6889.42 -0.344785 1.53782 0
M  V30 72175 C 6890.67 -1.08517 1.70969 0
M  V30 72176 C 6891 -1.8868 0.472225 0
M  V30 72177 O 6890.25 -1.87929 -0.546017 0
M  V30 72178 C 6890.55 -2.05491 2.92418 0
M  V30 72179 C 6890.22 -1.41648 4.28073 0
M  V30 72180 C 6888.88 -1.23966 4.64958 0
M  V30 72181 C 6891.23 -0.956456 5.12349 0
M  V30 72182 C 6888.56 -0.588969 5.83736 0
M  V30 72183 C 6890.91 -0.319682 6.31792 0
M  V30 72184 C 6889.58 -0.130529 6.67372 0
M  V30 72185 H 6888.85 -0.397091 0.625619 0
M  V30 72186 H 6891.49 -0.364591 1.87997 0
M  V30 72187 H 6889.8 -2.83926 2.69988 0
M  V30 72188 H 6891.5 -2.62768 3.02909 0
M  V30 72189 H 6888.09 -1.56408 3.99042 0
M  V30 72190 H 6892.27 -1.08092 4.84386 0
M  V30 72191 H 6887.53 -0.431023 6.09879 0
M  V30 72192 H 6891.7 0.0448744 6.96386 0
M  V30 72193 H 6889.33 0.375719 7.59271 0
M  V30 72194 N 6890.9 -1.45495 -0.60573 0
M  V30 72195 C 6892.14 -1.5115 -1.37598 0
M  V30 72196 C 6892.51 -0.150176 -1.91412 0
M  V30 72197 O 6893.71 -0.0814245 -2.68677 0
M  V30 72198 C 6891.98 -2.56208 -2.49183 0
M  V30 72199 S 6893.54 -2.81101 -3.36939 0
M  V30 72200 H 6890.36 -0.534299 -0.46909 0
M  V30 72201 H 6892.96 -1.82586 -0.698749 0
M  V30 72202 H 6891.66 -3.53784 -2.08002 0
M  V30 72203 H 6891.19 -2.26428 -3.21705 0
M  V30 72204 H 6893.21 -2.14621 -4.47384 0
M  V30 72205 N 6892.38 0.848394 -1.32816 0
M  V30 72206 C 6893.33 1.95748 -1.22276 0
M  V30 72207 C 6894.3 1.65777 -0.103501 0
M  V30 72208 O 6895.48 1.88732 -0.280133 0
M  V30 72209 C 6892.62 3.31531 -0.958189 0
M  V30 72210 C 6891.74 3.7396 -2.16282 0
M  V30 72211 C 6890.87 4.98565 -1.83321 0
M  V30 72212 C 6889.91 5.33502 -3.00069 0
M  V30 72213 N 6889.05 6.49284 -2.67159 0
M  V30 72214 H 6893.89 2.04095 -2.17139 0
M  V30 72215 H 6891.42 0.998856 -1.07987 0
M  V30 72216 H 6893.38 4.09743 -0.785268 0
M  V30 72217 H 6892.01 3.22767 -0.0463292 0
M  V30 72218 H 6891.06 2.91349 -2.44581 0
M  V30 72219 H 6892.38 3.95769 -3.03593 0
M  V30 72220 H 6891.53 5.845 -1.62617 0
M  V30 72221 H 6890.27 4.78705 -0.93233 0
M  V30 72222 H 6889.27 4.46076 -3.21398 0
M  V30 72223 H 6890.5 5.55315 -3.90898 0
M  V30 72224 H 6888.44 6.3093 -1.7962 0
M  V30 72225 H 6888.36 6.71142 -3.48 0
M  V30 72226 H 6889.63 7.38356 -2.499 0
M  V30 72227 N 6893.86 1.16129 1.06545 0
M  V30 72228 C 6895.11 0.935716 1.78682 0
M  V30 72229 C 6895.42 -0.537902 1.88058 0
M  V30 72230 O 6896.63 -0.881294 2.56798 0
M  V30 72231 C 6895.08 1.62483 3.21134 0
M  V30 72232 C 6894.69 3.13604 3.19932 0
M  V30 72233 C 6896.43 1.48113 3.97823 0
M  V30 72234 C 6894.34 3.75265 4.57089 0
M  V30 72235 H 6893.27 0.346448 0.669694 0
M  V30 72236 H 6895.92 1.39233 1.19526 0
M  V30 72237 H 6894.3 1.09593 3.80533 0
M  V30 72238 H 6895.48 3.73317 2.70131 0
M  V30 72239 H 6893.79 3.2783 2.56743 0
M  V30 72240 H 6896.39 1.91564 4.99207 0
M  V30 72241 H 6896.73 0.429725 4.14076 0
M  V30 72242 H 6897.27 1.98145 3.4494 0
M  V30 72243 H 6894.01 4.80342 4.4604 0
M  V30 72244 H 6893.53 3.20336 5.07094 0
M  V30 72245 H 6895.2 3.76671 5.26049 0
M  V30 72246 N 6895.34 -1.25036 0.959367 0
M  V30 72247 C 6896.3 -2.23949 0.487795 0
M  V30 72248 C 6897.3 -1.55456 -0.411108 0
M  V30 72249 O 6898.49 -1.72957 -0.207734 0
M  V30 72250 C 6895.62 -3.39624 -0.294628 0
M  V30 72251 H 6896.81 -2.67182 1.36212 0
M  V30 72252 H 6894.37 -1.37505 0.743115 0
M  V30 72253 H 6895.1 -3.01819 -1.18642 0
M  V30 72254 H 6894.89 -3.90532 0.350326 0
M  V30 72255 H 6896.38 -4.13063 -0.613872 0
M  V30 72256 N 6896.81 -0.728493 -1.39752 0
M  V30 72257 C 6897.78 -0.0928505 -2.29012 0
M  V30 72258 C 6898.78 0.673948 -1.45995 0
M  V30 72259 O 6899.97 0.503932 -1.66752 0
M  V30 72260 C 6897.1 0.877963 -3.294 0
M  V30 72261 H 6898.29 -0.879162 -2.86724 0
M  V30 72262 H 6895.85 -0.493925 -1.48291 0
M  V30 72263 H 6896.58 1.69087 -2.76731 0
M  V30 72264 H 6896.37 0.330845 -3.90702 0
M  V30 72265 H 6897.86 1.31949 -3.96206 0
M  V30 72266 N 6898.29 1.50251 -0.475634 0
M  V30 72267 C 6899.54 2.01951 0.0776315 0
M  V30 72268 C 6899.86 1.35939 1.39806 0
M  V30 72269 O 6899.13 0.506222 1.89246 0
M  V30 72270 H 6897.71 0.746328 0.0316797 0
M  V30 72271 H 6900.37 1.84536 -0.627092 0
M  V30 72272 H 6899.47 3.11282 0.225831 0
M  V30 72273 N 6899.77 0.20842 1.56216 0
M  V30 72274 C 6901.02 -0.4271 1.97126 0
M  V30 72275 C 6901.33 -1.61829 1.09867 0
M  V30 72276 O 6902.54 -2.32247 1.40618 0
M  V30 72277 C 6900.99 -0.811257 3.50637 0
M  V30 72278 C 6900.6 0.356385 4.4658 0
M  V30 72279 C 6902.35 -1.41311 4.00289 0
M  V30 72280 C 6900.25 -0.0494734 5.91379 0
M  V30 72281 H 6899.18 -0.163342 0.736095 0
M  V30 72282 H 6901.83 0.302551 1.80989 0
M  V30 72283 H 6900.22 -1.59796 3.62328 0
M  V30 72284 H 6901.39 1.13394 4.4663 0
M  V30 72285 H 6899.71 0.870611 4.07197 0
M  V30 72286 H 6902.3 -1.72945 5.05959 0
M  V30 72287 H 6902.65 -2.32431 3.45372 0
M  V30 72288 H 6903.18 -0.690117 3.91768 0
M  V30 72289 H 6899.92 0.827872 6.50251 0
M  V30 72290 H 6899.44 -0.791612 5.94553 0
M  V30 72291 H 6901.12 -0.480702 6.45212 0
M  V30 72292 N 6901.25 -1.57466 -0.0650849 0
M  V30 72293 C 6902.2 -2.0415 -1.07664 0
M  V30 72294 C 6903.17 -0.923408 -1.38067 0
M  V30 72295 O 6904.35 -1.19154 -1.4902 0
M  V30 72296 C 6901.49 -2.49591 -2.38324 0
M  V30 72297 C 6900.6 -3.75046 -2.14393 0
M  V30 72298 C 6899.74 -4.09243 -3.38665 0
M  V30 72299 C 6898.78 -5.27719 -3.10128 0
M  V30 72300 N 6897.91 -5.57521 -4.26749 0
M  V30 72301 H 6902.75 -2.90334 -0.671563 0
M  V30 72302 H 6900.29 -1.43577 -0.320024 0
M  V30 72303 H 6902.25 -2.73992 -3.14618 0
M  V30 72304 H 6900.88 -1.66375 -2.76621 0
M  V30 72305 H 6899.93 -3.57945 -1.28761 0
M  V30 72306 H 6901.24 -4.61476 -1.89319 0
M  V30 72307 H 6900.4 -4.3458 -4.2335 0
M  V30 72308 H 6899.14 -3.21394 -3.66821 0
M  V30 72309 H 6898.14 -5.02171 -2.2384 0
M  V30 72310 H 6899.37 -6.17191 -2.83288 0
M  V30 72311 H 6897.31 -4.72632 -4.54923 0
M  V30 72312 H 6897.23 -6.38384 -4.04972 0
M  V30 72313 H 6898.5 -5.87413 -5.12412 0
M  V30 72314 N 6902.73 0.336625 -1.53963 0
M  V30 72315 C 6903.68 1.43391 -1.83144 0
M  V30 72316 C 6904.67 1.54152 -0.702394 0
M  V30 72317 O 6905.88 1.56693 -0.885847 0
M  V30 72318 H 6902.25 0.478243 -0.580334 0
M  V30 72319 H 6904.22 1.15997 -2.74931 0
M  V30 72320 C 6902.97 2.79811 -2.064 0
M  V30 72321 H 6902.29 2.72301 -2.92733 0
M  V30 72322 H 6903.73 3.55692 -2.30779 0
M  V30 72323 C 6902.19 3.2596 -0.851586 0
M  V30 72324 O 6902.72 4.01663 -0.0544022 0
M  V30 72325 N 6900.93 2.82845 -0.666869 0
M  V30 72326 H 6900.48 2.21402 -1.31677 0
M  V30 72327 H 6900.43 3.14075 0.142866 0
M  V30 72328 N 6904.21 1.45814 0.598006 0
M  V30 72329 C 6905.15 1.55564 1.72924 0
M  V30 72330 C 6906.15 0.425008 1.63982 0
M  V30 72331 O 6907.35 0.601294 1.6966 0
M  V30 72332 H 6903.73 0.488809 0.571463 0
M  V30 72333 H 6905.7 2.50707 1.61828 0
M  V30 72334 C 6904.45 1.54859 3.1131 0
M  V30 72335 H 6903.77 2.41189 3.18854 0
M  V30 72336 H 6905.21 1.65738 3.90265 0
M  V30 72337 C 6903.67 0.274605 3.35779 0
M  V30 72338 O 6904.2 -0.641568 3.96544 0
M  V30 72339 N 6902.41 0.167292 2.90118 0
M  V30 72340 H 6901.95 0.913723 2.4085 0
M  V30 72341 H 6901.91 -0.684274 3.06863 0
M  V30 72342 N 6905.68 -0.841338 1.33264 0
M  V30 72343 C 6906.91 -1.63378 1.27759 0
M  V30 72344 C 6907.33 -1.87508 -0.149089 0
M  V30 72345 O 6906.69 -1.43742 -1.1049 0
M  V30 72346 C 6906.74 -2.96254 2.05587 0
M  V30 72347 O 6905.84 -3.87446 1.41278 0
M  V30 72348 H 6905.18 -0.497595 0.439654 0
M  V30 72349 H 6907.71 -1.0469 1.75787 0
M  V30 72350 H 6907.72 -3.45971 2.16259 0
M  V30 72351 H 6906.4 -2.78014 3.09324 0
M  V30 72352 H 6904.98 -3.4593 1.39236 0
M  V30 72353 N 6907.16 -1.16692 -1.05928 0
M  V30 72354 C 6908.11 -0.872931 -2.15598 0
M  V30 72355 C 6909.1 0.159487 -1.68648 0
M  V30 72356 O 6910.31 0.0131176 -1.79995 0
M  V30 72357 H 6906.68 -0.264708 -0.703871 0
M  V30 72358 H 6908.66 -1.80519 -2.37603 0
M  V30 72359 C 6907.4 -0.394526 -3.45454 0
M  V30 72360 H 6906.73 -1.18039 -3.81977 0
M  V30 72361 H 6908.17 -0.227631 -4.23389 0
M  V30 72362 C 6906.63 0.886558 -3.25026 0
M  V30 72363 O 6907.16 1.955 -3.50917 0
M  V30 72364 N 6905.36 0.831778 -2.78442 0
M  V30 72365 H 6904.91 -0.0378978 -2.57572 0
M  V30 72366 H 6904.87 1.68942 -2.65153 0
M  V30 72367 N 6908.64 1.24525 -0.965984 0
M  V30 72368 C 6909.89 1.9217 -0.625695 0
M  V30 72369 C 6910.21 1.75906 0.841559 0
M  V30 72370 O 6909.48 1.12957 1.60055 0
M  V30 72371 H 6908.06 0.711218 -0.228426 0
M  V30 72372 H 6910.72 1.51455 -1.22668 0
M  V30 72373 H 6909.82 2.99879 -0.864811 0
M  V30 72374 N 6910.12 0.735894 1.39364 0
M  V30 72375 C 6911.07 0.0725489 2.27885 0
M  V30 72376 C 6912.05 -0.71168 1.44305 0
M  V30 72377 O 6913.24 -0.580542 1.67209 0
M  V30 72378 C 6910.37 -0.833279 3.33034 0
M  V30 72379 C 6909.46 -0.0431512 4.24078 0
M  V30 72380 N 6909.85 0.984165 4.96133 0
M  V30 72381 C 6908.15 -0.27267 4.45166 0
M  V30 72382 C 6908.85 1.4607 5.63062 0
M  V30 72383 N 6907.82 0.77914 5.37987 0
M  V30 72384 H 6911.63 0.859615 2.81048 0
M  V30 72385 H 6909.14 0.570307 1.52057 0
M  V30 72386 H 6911.14 -1.32399 3.95318 0
M  V30 72387 H 6909.8 -1.61949 2.81429 0
M  V30 72388 H 6910.81 1.36555 4.99573 0
M  V30 72389 H 6907.49 -1.03362 4.04503 0
M  V30 72390 H 6908.88 2.31545 6.30743 0
M  V30 72391 N 6911.6 -1.49997 0.483595 0
M  V30 72392 C 6912.53 -2.26656 -0.340515 0
M  V30 72393 C 6913.54 -1.32488 -0.946082 0
M  V30 72394 O 6914.73 -1.57905 -0.832369 0
M  V30 72395 C 6911.83 -3.04254 -1.49274 0
M  V30 72396 C 6911 -4.2587 -0.997679 0
M  V30 72397 C 6910.06 -4.85657 -2.02544 0
M  V30 72398 O 6909.09 -5.4622 -1.601 0
M  V30 72399 N 6910.29 -4.73762 -3.35455 0
M  V30 72400 H 6913.05 -2.98022 0.316734 0
M  V30 72401 H 6910.62 -1.58804 0.315108 0
M  V30 72402 H 6912.61 -3.41128 -2.17748 0
M  V30 72403 H 6911.18 -2.35607 -2.05446 0
M  V30 72404 H 6910.4 -3.93957 -0.138409 0
M  V30 72405 H 6911.69 -5.04695 -0.645039 0
M  V30 72406 H 6911.08 -4.25625 -3.72639 0
M  V30 72407 H 6909.64 -5.1487 -3.99691 0
M  V30 72408 N 6913.07 -0.216701 -1.56103 0
M  V30 72409 C 6914 0.690179 -2.23067 0
M  V30 72410 C 6914.98 1.20479 -1.20079 0
M  V30 72411 O 6916.17 1.24968 -1.4865 0
M  V30 72412 C 6913.3 1.90056 -2.90682 0
M  V30 72413 C 6912.25 1.51999 -4.001 0
M  V30 72414 C 6911.58 2.80875 -4.54987 0
M  V30 72415 C 6912.88 0.713637 -5.17402 0
M  V30 72416 H 6914.57 0.13188 -2.99109 0
M  V30 72417 H 6912.12 0.0619906 -1.43867 0
M  V30 72418 H 6914.07 2.54039 -3.36217 0
M  V30 72419 H 6912.8 2.48375 -2.12079 0
M  V30 72420 H 6911.46 0.903652 -3.55288 0
M  V30 72421 H 6911.1 3.37329 -3.7312 0
M  V30 72422 H 6910.8 2.56148 -5.28831 0
M  V30 72423 H 6912.33 3.45809 -5.03238 0
M  V30 72424 H 6913.74 1.25705 -5.59349 0
M  V30 72425 H 6912.14 0.563636 -5.97447 0
M  V30 72426 H 6913.21 -0.280783 -4.84086 0
M  V30 72427 N 6914.55 1.57498 0.0567332 0
M  V30 72428 C 6915.5 2.04718 1.0658 0
M  V30 72429 C 6916.47 0.930717 1.37575 0
M  V30 72430 O 6917.65 1.19943 1.48386 0
M  V30 72431 C 6914.79 2.50852 2.36997 0
M  V30 72432 C 6913.91 3.76178 2.12401 0
M  V30 72433 C 6913.04 4.11033 3.3649 0
M  V30 72434 C 6912.08 5.29356 3.07325 0
M  V30 72435 N 6911.22 5.59777 4.23786 0
M  V30 72436 H 6916.06 2.90686 0.656157 0
M  V30 72437 H 6913.59 1.43744 0.312405 0
M  V30 72438 H 6915.55 2.75656 3.1316 0
M  V30 72439 H 6914.18 1.67839 2.75735 0
M  V30 72440 H 6913.23 3.58623 1.26861 0
M  V30 72441 H 6914.55 4.62473 1.86869 0
M  V30 72442 H 6913.7 4.36819 4.21039 0
M  V30 72443 H 6912.44 3.23335 3.65111 0
M  V30 72444 H 6911.44 5.03351 2.21174 0
M  V30 72445 H 6912.67 6.18685 2.80011 0
M  V30 72446 H 6910.62 4.75038 4.52411 0
M  V30 72447 H 6910.53 6.40522 4.01581 0
M  V30 72448 H 6911.8 5.90123 5.09289 0
M  V30 72449 N 6916.03 -0.328455 1.54139 0
M  V30 72450 C 6917.31 -1.08491 1.62755 0
M  V30 72451 C 6917.69 -2.06065 0.458306 0
M  V30 72452 O 6917.03 -2.21833 -0.547929 0
M  V30 72453 C 6917.24 -1.79119 2.99529 0
M  V30 72454 C 6918.59 -2.32318 3.55406 0
M  V30 72455 O 6919.62 -1.89193 3.01802 0
M  V30 72456 O 6918.48 -3.11255 4.49202 0
M  V30 72457 H 6915.57 -0.499797 0.658887 0
M  V30 72458 H 6918.12 -0.328738 1.66485 0
M  V30 72459 H 6916.89 -1.08119 3.76066 0
M  V30 72460 H 6916.51 -2.61558 2.99455 0
M  V30 72461 N 6917.51 -1.46129 -0.590264 0
M  V30 72462 C 6918.44 -1.58975 -1.71024 0
M  V30 72463 C 6919.42 -0.440421 -1.64299 0
M  V30 72464 O 6920.6 -0.665731 -1.82433 0
M  V30 72465 C 6917.73 -1.57257 -3.09657 0
M  V30 72466 C 6916.69 -2.71083 -3.31207 0
M  V30 72467 C 6916.01 -2.54424 -4.7029 0
M  V30 72468 C 6917.31 -4.12967 -3.19774 0
M  V30 72469 H 6919.01 -2.52727 -1.60529 0
M  V30 72470 H 6916.55 -1.21629 -0.770869 0
M  V30 72471 H 6918.51 -1.64839 -3.87822 0
M  V30 72472 H 6917.23 -0.600458 -3.21033 0
M  V30 72473 H 6915.89 -2.62958 -2.55438 0
M  V30 72474 H 6915.54 -1.55313 -4.78421 0
M  V30 72475 H 6915.24 -3.30766 -4.85662 0
M  V30 72476 H 6916.76 -2.63886 -5.50633 0
M  V30 72477 H 6918.18 -4.22244 -3.87793 0
M  V30 72478 H 6916.57 -4.89836 -3.46671 0
M  V30 72479 H 6917.64 -4.33654 -2.1696 0
M  V30 72480 N 6918.99 0.834259 -1.33708 0
M  V30 72481 C 6920.24 1.58477 -1.24772 0
M  V30 72482 C 6920.55 1.94736 0.183673 0
M  V30 72483 O 6921.75 2.6861 0.395092 0
M  V30 72484 C 6920.21 2.85865 -2.18654 0
M  V30 72485 C 6919.82 2.56952 -3.66987 0
M  V30 72486 C 6921.56 3.63888 -2.186 0
M  V30 72487 C 6919.47 3.80464 -4.5277 0
M  V30 72488 H 6918.4 0.594747 -0.463456 0
M  V30 72489 H 6921.05 0.919467 -1.58802 0
M  V30 72490 H 6919.43 3.53961 -1.77561 0
M  V30 72491 H 6920.61 1.97038 -4.16548 0
M  V30 72492 H 6918.92 1.92225 -3.69376 0
M  V30 72493 H 6921.52 4.55577 -2.79918 0
M  V30 72494 H 6921.86 3.99159 -1.18228 0
M  V30 72495 H 6922.39 3.02722 -2.58078 0
M  V30 72496 H 6919.13 3.50321 -5.54036 0
M  V30 72497 H 6918.65 4.397 -4.0795 0
M  V30 72498 H 6920.33 4.47995 -4.66807 0
M  V30 72499 N 6920.46 1.17252 1.05308 0
M  V30 72500 C 6921.39 0.911476 2.14975 0
M  V30 72501 C 6922.38 -0.146079 1.69472 0
M  V30 72502 O 6923.56 0.00391441 1.942 0
M  V30 72503 C 6920.69 0.42271 3.44718 0
M  V30 72504 C 6919.64 1.41932 4.03781 0
M  V30 72505 C 6918.97 0.788553 5.28853 0
M  V30 72506 C 6920.27 2.79213 4.41404 0
M  V30 72507 H 6921.96 1.82861 2.3707 0
M  V30 72508 H 6919.51 0.880629 1.13934 0
M  V30 72509 H 6921.46 0.227511 4.20785 0
M  V30 72510 H 6920.19 -0.529953 3.22272 0
M  V30 72511 H 6918.85 1.60123 3.29782 0
M  V30 72512 H 6918.49 -0.170908 5.0271 0
M  V30 72513 H 6918.19 1.45383 5.69331 0
M  V30 72514 H 6919.72 0.603602 6.07609 0
M  V30 72515 H 6921.13 2.64746 5.0851 0
M  V30 72516 H 6919.53 3.42308 4.92895 0
M  V30 72517 H 6920.6 3.33712 3.51802 0
M  V30 72518 N 6921.94 -1.24011 0.972574 0
M  V30 72519 C 6922.87 -2.24444 0.464493 0
M  V30 72520 C 6923.89 -1.57035 -0.429417 0
M  V30 72521 O 6925.08 -1.76949 -0.234809 0
M  V30 72522 C 6922.18 -3.37106 -0.348207 0
M  V30 72523 C 6921.35 -4.34092 0.536959 0
M  V30 72524 C 6920.41 -5.25738 -0.220561 0
M  V30 72525 O 6919.43 -5.67882 0.387167 0
M  V30 72526 N 6920.64 -5.6055 -1.50877 0
M  V30 72527 H 6923.4 -2.6867 1.32802 0
M  V30 72528 H 6920.96 -1.38102 0.844949 0
M  V30 72529 H 6922.95 -3.95389 -0.863132 0
M  V30 72530 H 6921.52 -2.92127 -1.11269 0
M  V30 72531 H 6920.74 -3.74427 1.2328 0
M  V30 72532 H 6922.03 -4.95853 1.14048 0
M  V30 72533 H 6921.43 -5.28246 -2.02417 0
M  V30 72534 H 6919.99 -6.21339 -1.96929 0
M  V30 72535 N 6923.42 -0.743275 -1.38972 0
M  V30 72536 C 6924.37 -0.108732 -2.30544 0
M  V30 72537 C 6925.34 0.72079 -1.49646 0
M  V30 72538 O 6926.52 0.679048 -1.78308 0
M  V30 72539 C 6923.66 0.786319 -3.36022 0
M  V30 72540 C 6922.78 -0.0567127 -4.31963 0
M  V30 72541 C 6921.91 0.840381 -5.2451 0
M  V30 72542 C 6920.95 -0.00690641 -6.121 0
M  V30 72543 N 6920.09 0.846575 -6.96977 0
M  V30 72544 H 6924.93 -0.895238 -2.84235 0
M  V30 72545 H 6922.46 -0.453121 -1.39947 0
M  V30 72546 H 6924.42 1.31978 -3.95775 0
M  V30 72547 H 6923.05 1.53872 -2.83766 0
M  V30 72548 H 6922.1 -0.707689 -3.73759 0
M  V30 72549 H 6923.42 -0.711489 -4.937 0
M  V30 72550 H 6922.57 1.44139 -5.89329 0
M  V30 72551 H 6921.31 1.52892 -4.63115 0
M  V30 72552 H 6920.31 -0.620654 -5.46286 0
M  V30 72553 H 6921.54 -0.692348 -6.75562 0
M  V30 72554 H 6919.48 1.52025 -6.38141 0
M  V30 72555 H 6919.4 0.248465 -7.55592 0
M  V30 72556 H 6920.67 1.43288 -7.66217 0
M  V30 72557 N 6924.9 1.49738 -0.491543 0
M  V30 72558 C 6926.15 2.02022 0.0562076 0
M  V30 72559 C 6926.47 1.37414 1.38356 0
M  V30 72560 O 6925.74 0.526266 1.88699 0
M  V30 72561 H 6924.32 0.746622 0.0237621 0
M  V30 72562 H 6926.98 1.83861 -0.64663 0
M  V30 72563 H 6926.08 3.11504 0.192803 0
M  V30 72564 N 6926.38 0.224977 1.55986 0
M  V30 72565 C 6927.63 -0.406169 1.97568 0
M  V30 72566 C 6927.94 -1.60654 1.11577 0
M  V30 72567 O 6929.14 -2.30743 1.43074 0
M  V30 72568 C 6927.6 -0.774021 3.51478 0
M  V30 72569 C 6927.21 0.403731 4.46177 0
M  V30 72570 C 6928.95 -1.37058 4.01765 0
M  V30 72571 C 6926.86 0.0132531 5.91399 0
M  V30 72572 H 6925.79 -0.155526 0.737786 0
M  V30 72573 H 6928.44 0.321731 1.80658 0
M  V30 72574 H 6926.82 -1.55944 3.64002 0
M  V30 72575 H 6928 1.18125 4.45402 0
M  V30 72576 H 6926.31 0.91375 4.06251 0
M  V30 72577 H 6928.91 -1.67569 5.07765 0
M  V30 72578 H 6929.25 -2.28755 3.47818 0
M  V30 72579 H 6929.78 -0.648526 3.92478 0
M  V30 72580 H 6926.52 0.896793 6.49336 0
M  V30 72581 H 6926.04 -0.728508 5.95359 0
M  V30 72582 H 6927.72 -0.412242 6.45685 0
M  V30 72583 N 6927.85 -1.57526 -0.0483799 0
M  V30 72584 C 6929.08 -1.9262 -0.75532 0
M  V30 72585 C 6929.5 -0.823074 -1.69915 0
M  V30 72586 O 6928.85 0.201989 -1.81379 0
M  V30 72587 C 6928.91 -3.27574 -1.52898 0
M  V30 72588 O 6928.63 -4.33647 -0.623061 0
M  V30 72589 C 6930.13 -3.7683 -2.33482 0
M  V30 72590 H 6927.35 -0.636151 -0.213431 0
M  V30 72591 H 6929.89 -2.04497 -0.011662 0
M  V30 72592 H 6928.05 -3.17153 -2.22469 0
M  V30 72593 H 6928.46 -5.11431 -1.16356 0
M  V30 72594 H 6929.93 -4.73823 -2.83189 0
M  V30 72595 H 6930.41 -3.07031 -3.14052 0
M  V30 72596 H 6931.02 -3.90271 -1.69022 0
M  V30 72597 N 6929.33 0.320276 -1.54311 0
M  V30 72598 C 6930.26 1.41547 -1.8027 0
M  V30 72599 C 6931.28 1.47697 -0.684801 0
M  V30 72600 O 6932.47 1.50361 -0.961965 0
M  V30 72601 C 6929.57 2.8006 -1.9084 0
M  V30 72602 C 6928.74 2.97074 -3.21039 0
M  V30 72603 C 6927.8 4.15968 -3.22269 0
M  V30 72604 O 6926.82 4.08971 -3.95893 0
M  V30 72605 N 6928.03 5.25665 -2.46286 0
M  V30 72606 H 6930.79 1.19641 -2.74784 0
M  V30 72607 H 6928.35 0.510277 -1.53648 0
M  V30 72608 H 6930.34 3.57811 -1.89086 0
M  V30 72609 H 6928.91 2.95001 -1.03408 0
M  V30 72610 H 6928.13 2.06596 -3.35725 0
M  V30 72611 H 6929.42 3.05339 -4.06996 0
M  V30 72612 H 6928.82 5.34225 -1.86065 0
M  V30 72613 H 6927.38 6.01822 -2.50306 0
M  V30 72614 N 6930.81 1.4644 0.582507 0
M  V30 72615 C 6931.76 1.57389 1.71264 0
M  V30 72616 C 6932.75 0.442377 1.63522 0
M  V30 72617 O 6933.96 0.619255 1.69013 0
M  V30 72618 H 6930.33 0.494842 0.566246 0
M  V30 72619 H 6932.3 2.5241 1.5916 0
M  V30 72620 C 6931.05 1.58152 3.0965 0
M  V30 72621 H 6930.38 2.44557 3.16278 0
M  V30 72622 H 6931.82 1.69868 3.88485 0
M  V30 72623 C 6930.28 0.310203 3.35469 0
M  V30 72624 O 6930.81 -0.599474 3.97202 0
M  V30 72625 N 6929.01 0.198054 2.89924 0
M  V30 72626 H 6928.56 0.939217 2.39868 0
M  V30 72627 H 6928.52 -0.651688 3.07572 0
M  V30 72628 N 6932.29 -0.827157 1.34149 0
M  V30 72629 C 6933.25 -1.91935 1.25274 0
M  V30 72630 C 6934.25 -1.5991 0.16895 0
M  V30 72631 O 6935.44 -1.69029 0.421287 0
M  V30 72632 C 6932.57 -3.2788 0.933125 0
M  V30 72633 H 6933.77 -2.01228 2.22368 0
M  V30 72634 H 6931.32 -1.02063 1.18376 0
M  V30 72635 H 6932.06 -3.24281 -0.0348207 0
M  V30 72636 H 6931.84 -3.52507 1.71701 0
M  V30 72637 H 6933.33 -4.07873 0.896089 0
M  V30 72638 N 6933.77 -1.17809 -1.04684 0
M  V30 72639 C 6934.7 -0.922864 -2.14489 0
M  V30 72640 C 6935.68 0.13709 -1.69547 0
M  V30 72641 O 6936.86 -0.0142132 -1.94195 0
M  V30 72642 C 6933.99 -0.440985 -3.44489 0
M  V30 72643 C 6932.95 -1.44071 -4.03023 0
M  V30 72644 C 6932.27 -0.816588 -5.28428 0
M  V30 72645 C 6933.57 -2.8155 -4.39917 0
M  V30 72646 H 6935.27 -1.84115 -2.36097 0
M  V30 72647 H 6932.81 -0.886659 -1.13465 0
M  V30 72648 H 6934.77 -0.249823 -4.20659 0
M  V30 72649 H 6933.49 0.512855 -3.22548 0
M  V30 72650 H 6932.15 -1.6187 -3.28928 0
M  V30 72651 H 6931.8 0.144246 -5.02793 0
M  V30 72652 H 6931.5 -1.48401 -5.68552 0
M  V30 72653 H 6933.02 -0.635817 -6.07281 0
M  V30 72654 H 6934.44 -2.67439 -5.07099 0
M  V30 72655 H 6932.83 -3.44917 -4.91072 0
M  V30 72656 H 6933.9 -3.35573 -3.50027 0
M  V30 72657 N 6935.25 1.23494 -0.979137 0
M  V30 72658 C 6936.52 1.87299 -0.563773 0
M  V30 72659 C 6936.9 1.88054 0.9591 0
M  V30 72660 O 6936.25 1.36124 1.83528 0
M  V30 72661 C 6936.46 3.28861 -1.16839 0
M  V30 72662 C 6937.81 4.05463 -1.26036 0
M  V30 72663 O 6938.83 3.38076 -1.12175 0
M  V30 72664 O 6937.69 5.26058 -1.48072 0
M  V30 72665 H 6934.79 0.804962 -0.189645 0
M  V30 72666 H 6937.33 1.31379 -1.07414 0
M  V30 72667 H 6936.1 3.22871 -2.21066 0
M  V30 72668 H 6935.73 3.9237 -0.642771 0
M  V30 72669 N 6936.72 0.750634 1.38576 0
M  V30 72670 C 6937.95 0.315747 2.04173 0
M  V30 72671 C 6938.36 -1.05981 1.56731 0
M  V30 72672 O 6937.7 -1.68385 0.734314 0
M  V30 72673 C 6937.77 0.256578 3.58583 0
M  V30 72674 C 6937.43 1.57319 4.29069 0
M  V30 72675 C 6938.43 2.52183 4.54643 0
M  V30 72676 C 6936.11 1.8418 4.67315 0
M  V30 72677 C 6938.11 3.7213 5.17492 0
M  V30 72678 C 6935.79 3.04402 5.29889 0
M  V30 72679 C 6936.79 3.98198 5.54912 0
M  V30 72680 O 6936.48 5.16306 6.16185 0
M  V30 72681 H 6936.21 0.133261 0.662735 0
M  V30 72682 H 6938.77 1.01958 1.78308 0
M  V30 72683 H 6937 -0.503475 3.83408 0
M  V30 72684 H 6938.68 -0.148398 4.05629 0
M  V30 72685 H 6939.45 2.32705 4.25527 0
M  V30 72686 H 6935.33 1.12011 4.47185 0
M  V30 72687 H 6938.87 4.45355 5.3694 0
M  V30 72688 H 6934.77 3.23774 5.58427 0
M  V30 72689 H 6935.54 5.16848 6.34673 0
M  V30 72690 N 6938.2 -1.49476 0.499477 0
M  V30 72691 C 6939.13 -2.25854 -0.326372 0
M  V30 72692 C 6940.11 -1.30371 -0.971708 0
M  V30 72693 O 6941.3 -1.59656 -1.0021 0
M  V30 72694 C 6938.42 -3.0564 -1.45953 0
M  V30 72695 C 6937.47 -4.16266 -0.928718 0
M  V30 72696 S 6938.3 -5.352 0.179294 0
M  V30 72697 C 6939.46 -6.1854 -0.957063 0
M  V30 72698 H 6939.69 -2.95552 0.321902 0
M  V30 72699 H 6937.22 -1.51751 0.284754 0
M  V30 72700 H 6939.18 -3.52192 -2.10881 0
M  V30 72701 H 6937.84 -2.35413 -2.07941 0
M  V30 72702 H 6937.04 -4.71601 -1.77788 0
M  V30 72703 H 6936.64 -3.72295 -0.356672 0
M  V30 72704 H 6938.93 -6.51393 -1.86262 0
M  V30 72705 H 6939.87 -7.06717 -0.44236 0
M  V30 72706 H 6940.28 -5.51077 -1.22371 0
M  V30 72707 N 6939.68 -0.233246 -1.55864 0
M  V30 72708 C 6940.63 0.672034 -2.20799 0
M  V30 72709 C 6941.6 1.1816 -1.16737 0
M  V30 72710 O 6942.78 1.23856 -1.45135 0
M  V30 72711 C 6939.92 1.8694 -2.90082 0
M  V30 72712 C 6939.03 1.39764 -4.08766 0
M  V30 72713 C 6938.17 2.55349 -4.65801 0
M  V30 72714 C 6937.21 2.04967 -5.76762 0
M  V30 72715 N 6936.35 3.13868 -6.28038 0
M  V30 72716 H 6941.19 0.111592 -2.97791 0
M  V30 72717 H 6938.72 0.0433232 -1.47036 0
M  V30 72718 H 6940.68 2.57258 -3.28442 0
M  V30 72719 H 6939.31 2.40254 -2.15588 0
M  V30 72720 H 6938.36 0.588975 -3.75813 0
M  V30 72721 H 6939.67 0.988302 -4.88911 0
M  V30 72722 H 6938.83 3.33731 -5.06664 0
M  V30 72723 H 6937.57 2.99578 -3.84844 0
M  V30 72724 H 6936.57 1.25051 -5.3539 0
M  V30 72725 H 6937.8 1.61724 -6.59562 0
M  V30 72726 H 6935.74 3.57557 -5.4999 0
M  V30 72727 H 6935.66 2.77223 -7.03337 0
M  V30 72728 H 6936.93 3.92351 -6.73559 0
M  V30 72729 N 6941.16 1.57549 0.0400252 0
M  V30 72730 C 6942.1 2.05837 1.04403 0
M  V30 72731 C 6943.07 0.945256 1.3658 0
M  V30 72732 O 6944.26 1.2151 1.47106 0
M  V30 72733 C 6941.4 2.53351 2.34323 0
M  V30 72734 C 6940.51 3.78409 2.08399 0
M  V30 72735 C 6939.65 4.14579 3.32111 0
M  V30 72736 C 6938.69 5.32586 3.01693 0
M  V30 72737 N 6937.82 5.6424 4.17825 0
M  V30 72738 H 6942.66 2.91366 0.625289 0
M  V30 72739 H 6940.2 1.44068 0.297142 0
M  V30 72740 H 6942.16 2.78962 3.10219 0
M  V30 72741 H 6940.79 1.70754 2.73939 0
M  V30 72742 H 6939.84 3.59948 1.2305 0
M  V30 72743 H 6941.15 4.64429 1.81954 0
M  V30 72744 H 6940.31 4.4126 4.16383 0
M  V30 72745 H 6939.05 3.27189 3.61661 0
M  V30 72746 H 6938.05 5.05669 2.15822 0
M  V30 72747 H 6939.28 6.2162 2.73433 0
M  V30 72748 H 6937.22 4.79809 4.47347 0
M  V30 72749 H 6937.14 6.44746 3.94764 0
M  V30 72750 H 6938.41 5.95491 5.03002 0
M  V30 72751 N 6942.64 -0.312088 1.54479 0
M  V30 72752 C 6943.59 -1.38589 1.81045 0
M  V30 72753 C 6944.57 -1.46423 0.667018 0
M  V30 72754 O 6945.76 -1.50762 0.927348 0
M  V30 72755 C 6942.89 -2.75267 2.05142 0
M  V30 72756 C 6941.98 -2.71699 3.25638 0
M  V30 72757 N 6942.37 -2.37749 4.4644 0
M  V30 72758 C 6940.67 -3.02815 3.27443 0
M  V30 72759 C 6941.37 -2.43204 5.28419 0
M  V30 72760 N 6940.34 -2.8011 4.65875 0
M  V30 72761 H 6944.14 -1.11287 2.72016 0
M  V30 72762 H 6941.66 -0.520624 1.53829 0
M  V30 72763 H 6943.66 -3.52676 2.22317 0
M  V30 72764 H 6942.32 -3.03489 1.15432 0
M  V30 72765 H 6943.33 -2.10395 4.73238 0
M  V30 72766 H 6940 -3.36005 2.47804 0
M  V30 72767 H 6941.39 -2.19848 6.34914 0
M  V30 72768 N 6944.11 -1.46747 -0.574732 0
M  V30 72769 C 6945.36 -1.51734 -1.3289 0
M  V30 72770 C 6945.68 -0.176795 -1.94799 0
M  V30 72771 O 6946.88 -0.104528 -2.71299 0
M  V30 72772 C 6945.34 -2.67398 -2.40887 0
M  V30 72773 C 6944.95 -4.07907 -1.85245 0
M  V30 72774 C 6946.69 -2.81663 -3.17595 0
M  V30 72775 C 6944.6 -5.14899 -2.90918 0
M  V30 72776 H 6943.53 -0.564725 -0.499601 0
M  V30 72777 H 6946.18 -1.72978 -0.612445 0
M  V30 72778 H 6944.56 -2.39499 -3.15367 0
M  V30 72779 H 6945.73 -4.45632 -1.17254 0
M  V30 72780 H 6944.05 -3.98378 -1.21178 0
M  V30 72781 H 6946.65 -3.58765 -3.96474 0
M  V30 72782 H 6946.99 -1.89467 -3.70686 0
M  V30 72783 H 6947.52 -3.09247 -2.50223 0
M  V30 72784 H 6944.26 -6.08913 -2.42704 0
M  V30 72785 H 6943.78 -4.8171 -3.57373 0
M  V30 72786 H 6945.46 -5.4109 -3.54727 0
M  V30 72787 N 6945.59 0.820031 -1.34585 0
M  V30 72788 C 6947 1.39302 -1.24305 0
M  V30 72789 C 6947.35 1.95767 0.130248 0
M  V30 72790 O 6946.48 1.90278 1.0307 0
M  V30 72791 C 6947.07 2.53239 -2.25067 0
M  V30 72792 C 6945.63 3.06439 -2.18569 0
M  V30 72793 C 6944.78 1.79326 -2.11513 0
M  V30 72794 H 6947.73 0.624185 -1.4591 0
M  V30 72795 H 6947.75 3.31415 -1.86934 0
M  V30 72796 H 6947.26 2.12113 -3.25007 0
M  V30 72797 H 6945.36 3.52063 -1.21995 0
M  V30 72798 H 6945.48 3.65333 -3.09949 0
M  V30 72799 H 6943.84 2.00339 -1.57278 0
M  V30 72800 H 6944.62 1.4037 -3.13291 0
M  V30 72801 N 6947.07 1.18362 1.04058 0
M  V30 72802 C 6948.3 1.00455 1.81449 0
M  V30 72803 C 6948.72 -0.442326 1.82825 0
M  V30 72804 O 6948.08 -1.31735 1.24562 0
M  V30 72805 C 6948.13 1.56401 3.24917 0
M  V30 72806 O 6947.23 0.785423 4.04852 0
M  V30 72807 H 6946.57 0.355865 0.560586 0
M  V30 72808 H 6949.1 1.57121 1.3105 0
M  V30 72809 H 6949.11 1.59116 3.75694 0
M  V30 72810 H 6947.79 2.61716 3.2323 0
M  V30 72811 H 6946.36 0.83059 3.63532 0
M  V30 72812 N 6948.55 -1.22973 0.985673 0
M  V30 72813 C 6949.51 -2.22864 0.535188 0
M  V30 72814 C 6950.51 -1.56293 -0.378041 0
M  V30 72815 O 6951.7 -1.73359 -0.171 0
M  V30 72816 C 6948.83 -3.40173 -0.222523 0
M  V30 72817 H 6950.03 -2.64233 1.41849 0
M  V30 72818 H 6947.58 -1.35897 0.772114 0
M  V30 72819 H 6948.31 -3.04268 -1.12213 0
M  V30 72820 H 6948.1 -3.89701 0.433085 0
M  V30 72821 H 6949.59 -4.14273 -0.526117 0
M  V30 72822 N 6950.03 -0.757973 -1.38176 0
M  V30 72823 C 6950.97 -0.133178 -2.30415 0
M  V30 72824 C 6951.94 0.704877 -1.50402 0
M  V30 72825 O 6953.13 0.660098 -1.79018 0
M  V30 72826 C 6950.27 0.750635 -3.36837 0
M  V30 72827 C 6949.38 -0.102525 -4.31878 0
M  V30 72828 C 6948.52 0.784702 -5.25372 0
M  V30 72829 C 6947.56 -0.0718274 -6.12058 0
M  V30 72830 N 6946.69 0.772604 -6.97836 0
M  V30 72831 H 6951.53 -0.925335 -2.83269 0
M  V30 72832 H 6949.07 -0.467939 -1.39459 0
M  V30 72833 H 6951.03 1.27773 -3.97152 0
M  V30 72834 H 6949.66 1.50853 -2.85382 0
M  V30 72835 H 6948.71 -0.747291 -3.72988 0
M  V30 72836 H 6950.02 -0.763812 -4.92917 0
M  V30 72837 H 6949.18 1.3788 -5.90825 0
M  V30 72838 H 6947.91 1.47971 -4.6471 0
M  V30 72839 H 6946.92 -0.67856 -5.45597 0
M  V30 72840 H 6948.14 -0.763962 -6.74789 0
M  V30 72841 H 6946.09 1.45248 -6.39718 0
M  V30 72842 H 6946.01 0.168311 -7.55813 0
M  V30 72843 H 6947.28 1.35153 -7.67694 0
M  V30 72844 N 6951.5 1.49209 -0.507397 0
M  V30 72845 C 6952.45 2.30893 0.281242 0
M  V30 72846 C 6953.45 1.39792 0.956796 0
M  V30 72847 O 6954.65 1.56811 0.883755 0
M  V30 72848 H 6951.03 0.743977 0.109558 0
M  V30 72849 H 6953 2.9532 -0.427596 0
M  V30 72850 C 6951.75 3.21298 1.32902 0
M  V30 72851 H 6951.07 3.9133 0.818593 0
M  V30 72852 H 6952.51 3.81381 1.85268 0
M  V30 72853 C 6950.97 2.41345 2.35062 0
M  V30 72854 O 6951.5 2.12215 3.41069 0
M  V30 72855 N 6949.71 2.03252 2.07695 0
M  V30 72856 H 6949.25 2.27142 1.21508 0
M  V30 72857 H 6949.21 1.50065 2.76275 0
M  V30 72858 N 6952.98 0.241508 1.55739 0
M  V30 72859 C 6953.91 -0.654603 2.24137 0
M  V30 72860 C 6954.89 -1.18553 1.2198 0
M  V30 72861 O 6956.08 -1.22587 1.50619 0
M  V30 72862 C 6953.21 -1.85408 2.93669 0
M  V30 72863 C 6952.16 -1.45615 4.02468 0
M  V30 72864 C 6951.49 -2.73601 4.59398 0
M  V30 72865 C 6952.79 -0.631233 5.18472 0
M  V30 72866 H 6954.48 -0.0842774 2.99281 0
M  V30 72867 H 6952.03 -0.0390948 1.43947 0
M  V30 72868 H 6953.98 -2.48658 3.40216 0
M  V30 72869 H 6952.71 -2.4497 2.16003 0
M  V30 72870 H 6951.36 -0.847014 3.56681 0
M  V30 72871 H 6951.01 -3.3135 3.78439 0
M  V30 72872 H 6950.71 -2.47702 5.32839 0
M  V30 72873 H 6952.24 -3.37759 5.08676 0
M  V30 72874 H 6953.65 -1.16791 5.61278 0
M  V30 72875 H 6952.05 -0.468516 5.98268 0
M  V30 72876 H 6953.12 0.357761 4.83578 0
M  V30 72877 N 6954.46 -1.57568 -0.0316694 0
M  V30 72878 C 6955.74 -1.80304 -0.758271 0
M  V30 72879 C 6956.12 -0.838947 -1.93713 0
M  V30 72880 O 6955.47 0.119451 -2.28188 0
M  V30 72881 C 6955.68 -3.27949 -1.19375 0
M  V30 72882 C 6957.02 -3.92862 -1.61073 0
M  V30 72883 O 6958.05 -3.32083 -1.28839 0
M  V30 72884 O 6956.91 -4.99869 -2.20891 0
M  V30 72885 H 6954 -0.741367 -0.366475 0
M  V30 72886 H 6956.55 -1.69698 -0.00864816 0
M  V30 72887 H 6955.32 -3.89713 -0.35207 0
M  V30 72888 H 6954.94 -3.43434 -2.00347 0
M  V30 72889 N 6955.94 0.303891 -1.54642 0
M  V30 72890 C 6956.9 1.35779 -1.84653 0
M  V30 72891 C 6957.9 1.43816 -0.719276 0
M  V30 72892 O 6959.09 1.43502 -0.987567 0
M  V30 72893 C 6956.22 2.74296 -2.02422 0
M  V30 72894 H 6957.42 1.10414 -2.78835 0
M  V30 72895 H 6954.97 0.54041 -1.4666 0
M  V30 72896 H 6955.7 3.04887 -1.10518 0
M  V30 72897 H 6955.49 2.69853 -2.84467 0
M  V30 72898 H 6956.98 3.50502 -2.2702 0
M  V30 72899 N 6957.42 1.47049 0.566942 0
M  V30 72900 C 6958.69 1.43653 1.32753 0
M  V30 72901 C 6959.07 0.128297 2.1071 0
M  V30 72902 O 6958.42 -0.890215 2.10446 0
M  V30 72903 C 6958.63 2.67607 2.24026 0
M  V30 72904 C 6959.98 3.14416 2.85356 0
M  V30 72905 O 6961 2.68266 2.34332 0
M  V30 72906 O 6959.86 3.9462 3.78071 0
M  V30 72907 H 6956.96 0.572019 0.597263 0
M  V30 72908 H 6959.5 1.59237 0.586651 0
M  V30 72909 H 6958.27 3.54365 1.65956 0
M  V30 72910 H 6957.9 2.5456 3.05426 0
M  V30 72911 N 6958.89 -0.812882 1.35018 0
M  V30 72912 C 6960.14 -1.56472 1.27277 0
M  V30 72913 C 6960.46 -1.95003 -0.152669 0
M  V30 72914 O 6961.66 -2.69204 -0.352309 0
M  V30 72915 C 6960.12 -2.8235 2.23174 0
M  V30 72916 C 6959.73 -2.51081 3.71029 0
M  V30 72917 C 6961.47 -3.60364 2.24361 0
M  V30 72918 C 6959.38 -3.73213 4.58766 0
M  V30 72919 H 6958.31 -0.587299 0.47286 0
M  V30 72920 H 6960.96 -0.894087 1.60245 0
M  V30 72921 H 6959.34 -3.51091 1.8317 0
M  V30 72922 H 6960.51 -1.90387 4.1963 0
M  V30 72923 H 6958.83 -1.86324 3.72387 0
M  V30 72924 H 6961.43 -4.51066 2.8713 0
M  V30 72925 H 6961.77 -3.97228 1.24563 0
M  V30 72926 H 6962.3 -2.98578 2.62862 0
M  V30 72927 H 6959.04 -3.41462 5.59539 0
M  V30 72928 H 6958.56 -4.33155 4.14894 0
M  V30 72929 H 6960.24 -4.40512 4.73876 0
M  V30 72930 N 6960.37 -1.18913 -1.03429 0
M  V30 72931 C 6961.62 -0.999913 -1.77125 0
M  V30 72932 C 6961.97 0.464951 -1.86698 0
M  V30 72933 O 6961.27 1.34076 -1.36873 0
M  V30 72934 C 6961.46 -1.59603 -3.19784 0
M  V30 72935 C 6961.29 -3.11734 -3.24117 0
M  V30 72936 C 6960.06 -3.80596 -3.32377 0
M  V30 72937 C 6962.26 -4.09155 -3.11604 0
M  V30 72938 N 6960.24 -5.20172 -3.26028 0
M  V30 72939 C 6961.61 -5.35294 -3.12826 0
M  V30 72940 C 6963.67 -4.00588 -2.95692 0
M  V30 72941 C 6962.37 -6.53858 -2.99771 0
M  V30 72942 C 6964.39 -5.18755 -2.83984 0
M  V30 72943 C 6963.76 -6.4379 -2.85856 0
M  V30 72944 H 6959.86 -0.419966 -0.659661 0
M  V30 72945 H 6962.44 -1.50795 -1.23162 0
M  V30 72946 H 6960.61 -1.11408 -3.72079 0
M  V30 72947 H 6962.34 -1.3417 -3.81812 0
M  V30 72948 H 6959.1 -3.3136 -3.38375 0
M  V30 72949 H 6959.52 -5.93189 -3.26275 0
M  V30 72950 H 6964.16 -3.04745 -2.9307 0
M  V30 72951 H 6961.88 -7.49892 -3.01144 0
M  V30 72952 H 6965.47 -5.13923 -2.72717 0
M  V30 72953 H 6964.35 -7.33689 -2.76893 0
M  V30 72954 N 6961.85 1.22448 -0.99218 0
M  V30 72955 C 6962.8 2.24349 -0.541849 0
M  V30 72956 C 6963.77 1.60559 0.425435 0
M  V30 72957 O 6964.95 1.87918 0.330354 0
M  V30 72958 C 6962.09 3.44824 0.138066 0
M  V30 72959 C 6961.21 4.23131 -0.870872 0
M  V30 72960 C 6960.34 5.30945 -0.164549 0
M  V30 72961 C 6959.38 6.00971 -1.16191 0
M  V30 72962 N 6958.52 7.0043 -0.483937 0
M  V30 72963 H 6963.36 2.62233 -1.41555 0
M  V30 72964 H 6960.89 1.28882 -0.709081 0
M  V30 72965 H 6962.85 4.1357 0.549181 0
M  V30 72966 H 6961.48 3.07706 0.975558 0
M  V30 72967 H 6960.53 3.53688 -1.40031 0
M  V30 72968 H 6961.85 4.71402 -1.63039 0
M  V30 72969 H 6961 6.05941 0.303334 0
M  V30 72970 H 6959.74 4.83647 0.627478 0
M  V30 72971 H 6958.74 5.24757 -1.64042 0
M  V30 72972 H 6959.97 6.50357 -1.95479 0
M  V30 72973 H 6957.92 6.55365 0.288666 0
M  V30 72974 H 6957.83 7.46704 -1.18191 0
M  V30 72975 H 6959.1 7.7949 -0.0388329 0
M  V30 72976 N 6963.33 0.76529 1.37772 0
M  V30 72977 C 6964.28 0.145396 2.30342 0
M  V30 72978 C 6965.25 -0.696891 1.50773 0
M  V30 72979 O 6966.43 -0.650595 1.79365 0
M  V30 72980 C 6963.57 -0.732762 3.37231 0
M  V30 72981 C 6962.68 0.125427 4.31818 0
M  V30 72982 C 6961.82 -0.756829 5.25781 0
M  V30 72983 C 6960.86 0.104285 6.12011 0
M  V30 72984 N 6960 -0.735585 6.98236 0
M  V30 72985 H 6964.84 0.940344 2.82775 0
M  V30 72986 H 6962.37 0.475328 1.39209 0
M  V30 72987 H 6964.33 -1.25665 3.97824 0
M  V30 72988 H 6962.96 -1.49338 2.86178 0
M  V30 72989 H 6962.01 0.767061 3.72586 0
M  V30 72990 H 6963.32 0.789942 4.92505 0
M  V30 72991 H 6962.48 -1.34745 5.91548 0
M  V30 72992 H 6961.22 -1.45505 4.65489 0
M  V30 72993 H 6960.22 0.707484 5.45229 0
M  V30 72994 H 6961.45 0.799737 6.74375 0
M  V30 72995 H 6959.39 -1.41854 6.40479 0
M  V30 72996 H 6959.31 -0.128226 7.55891 0
M  V30 72997 H 6960.58 -1.3108 7.684 0
M  V30 72998 N 6964.81 -1.48938 0.515303 0
M  V30 72999 C 6966.05 -2.02486 -0.0241082 0
M  V30 73000 C 6966.38 -1.39375 -1.35664 0
M  V30 73001 O 6965.64 -0.523673 -1.88563 0
M  V30 73002 C 6965.94 -3.5678 -0.210407 0
M  V30 73003 C 6965.6 -4.38602 1.04592 0
M  V30 73004 C 6964.26 -4.60679 1.39026 0
M  V30 73005 C 6966.62 -4.86099 1.88034 0
M  V30 73006 C 6963.94 -5.275 2.56828 0
M  V30 73007 C 6966.3 -5.54218 3.05001 0
M  V30 73008 C 6964.96 -5.74537 3.39799 0
M  V30 73009 H 6964.23 -0.740947 -0.00882181 0
M  V30 73010 H 6966.88 -1.79083 0.678357 0
M  V30 73011 H 6965.18 -3.78941 -0.99552 0
M  V30 73012 H 6966.88 -3.9582 -0.642451 0
M  V30 73013 H 6963.47 -4.21668 0.767719 0
M  V30 73014 H 6967.65 -4.68858 1.62744 0
M  V30 73015 H 6962.91 -5.41432 2.84009 0
M  V30 73016 H 6967.08 -5.89994 3.69974 0
M  V30 73017 H 6964.71 -6.26089 4.31181 0
M  V30 73018 N 6966.29 -0.249764 -1.55608 0
M  V30 73019 C 6967.22 0.642708 -2.24481 0
M  V30 73020 C 6968.2 1.17905 -1.22607 0
M  V30 73021 O 6969.38 1.21787 -1.51267 0
M  V30 73022 C 6966.51 1.83848 -2.94648 0
M  V30 73023 C 6965.47 1.43478 -4.03234 0
M  V30 73024 C 6964.79 2.71161 -4.60842 0
M  V30 73025 C 6966.09 0.603728 -5.18799 0
M  V30 73026 H 6967.79 0.0684046 -2.99322 0
M  V30 73027 H 6965.33 0.0314604 -1.43966 0
M  V30 73028 H 6967.28 2.4685 -3.4153 0
M  V30 73029 H 6966.01 2.43821 -2.173 0
M  V30 73030 H 6964.67 0.828087 -3.57125 0
M  V30 73031 H 6964.32 3.29338 -3.80191 0
M  V30 73032 H 6964.02 2.44873 -5.34145 0
M  V30 73033 H 6965.54 3.35057 -5.1046 0
M  V30 73034 H 6966.95 1.13812 -5.61889 0
M  V30 73035 H 6965.35 0.436782 -5.98508 0
M  V30 73036 H 6966.42 -0.383401 -4.83382 0
M  V30 73037 N 6967.76 1.57583 0.0233128 0
M  V30 73038 C 6968.99 1.94193 0.728273 0
M  V30 73039 C 6969.41 0.850207 1.67789 0
M  V30 73040 O 6968.77 -0.193615 1.80263 0
M  V30 73041 C 6968.82 3.29876 1.45652 0
M  V30 73042 O 6967.92 3.22532 2.56996 0
M  V30 73043 H 6967.26 0.63458 0.19546 0
M  V30 73044 H 6969.79 2.04587 -0.0229292 0
M  V30 73045 H 6969.8 3.649 1.82516 0
M  V30 73046 H 6968.48 4.08895 0.760098 0
M  V30 73047 H 6967.06 2.99148 2.22632 0
M  V30 73048 N 6969.24 -0.295686 1.54801 0
M  V30 73049 C 6970.66 -0.641645 1.46134 0
M  V30 73050 C 6970.86 -1.90493 0.656872 0
M  V30 73051 O 6969.91 -2.51949 0.16668 0
M  V30 73052 C 6971.23 -0.789699 2.90145 0
M  V30 73053 C 6972.77 -0.885238 3.00221 0
M  V30 73054 C 6973.25 -1.06525 4.4544 0
M  V30 73055 N 6974.74 -1.13132 4.49172 0
M  V30 73056 C 6975.48 -1.289 5.58724 0
M  V30 73057 N 6974.97 -1.41531 6.78189 0
M  V30 73058 N 6976.76 -1.3183 5.46422 0
M  V30 73059 H 6968.92 0.534255 2.05571 0
M  V30 73060 H 6971.18 0.177421 0.93125 0
M  V30 73061 H 6970.88 0.0677453 3.51635 0
M  V30 73062 H 6970.76 -1.67706 3.37868 0
M  V30 73063 H 6973.15 -1.73316 2.38842 0
M  V30 73064 H 6973.23 0.0262534 2.55787 0
M  V30 73065 H 6972.87 -0.222067 5.07414 0
M  V30 73066 H 6972.8 -1.99104 4.87509 0
M  V30 73067 H 6975.29 -1.04702 3.63106 0
M  V30 73068 H 6975.6 -1.53332 7.57436 0
M  V30 73069 H 6973.95 -1.38577 6.81044 0
M  V30 73070 H 6977.14 -1.21577 4.52036 0
M  V30 73071 H 6977.31 -1.43775 6.31849 0
M  V30 73072 N 6970.72 -1.47348 -0.559135 0
M  V30 73073 C 6972.13 -1.47757 -1.14126 0
M  V30 73074 C 6972.48 -0.231205 -1.94833 0
M  V30 73075 O 6971.61 0.664028 -2.0596 0
M  V30 73076 C 6972.2 -2.67716 -2.07638 0
M  V30 73077 C 6970.76 -2.7109 -2.61127 0
M  V30 73078 C 6969.91 -2.40828 -1.37467 0
M  V30 73079 H 6972.86 -1.54886 -0.345835 0
M  V30 73080 H 6972.88 -2.44576 -2.91484 0
M  V30 73081 H 6972.39 -3.58412 -1.48871 0
M  V30 73082 H 6970.49 -1.84528 -3.23698 0
M  V30 73083 H 6970.61 -3.71726 -3.02252 0
M  V30 73084 H 6968.97 -1.91371 -1.68075 0
M  V30 73085 H 6969.75 -3.33729 -0.804959 0
M  V30 73086 N 6972.2 0.80571 -1.35448 0
M  V30 73087 C 6973.16 1.89918 -1.28311 0
M  V30 73088 C 6974.16 1.59621 -0.194369 0
M  V30 73089 O 6975.35 1.68337 -0.448125 0
M  V30 73090 C 6972.48 3.26354 -0.985169 0
M  V30 73091 H 6973.68 1.97665 -2.25541 0
M  V30 73092 H 6971.23 1.00167 -1.19984 0
M  V30 73093 H 6971.96 3.24296 -0.016774 0
M  V30 73094 H 6971.75 3.49731 -1.77287 0
M  V30 73095 H 6973.24 4.06395 -0.960865 0
M  V30 73096 N 6973.68 1.1946 1.02797 0
M  V30 73097 C 6974.61 0.95687 2.12994 0
M  V30 73098 C 6975.59 -0.110099 1.69743 0
M  V30 73099 O 6976.77 0.0451061 1.94148 0
M  V30 73100 C 6973.9 0.495734 3.43744 0
M  V30 73101 C 6972.86 1.50464 4.0068 0
M  V30 73102 C 6972.18 0.900553 5.27062 0
M  V30 73103 C 6973.48 2.88513 4.35382 0
M  V30 73104 H 6975.18 1.87848 2.33138 0
M  V30 73105 H 6972.72 0.904598 1.1204 0
M  V30 73106 H 6974.67 0.316715 4.20208 0
M  V30 73107 H 6973.4 -0.461475 3.23323 0
M  V30 73108 H 6972.06 1.67083 3.26311 0
M  V30 73109 H 6971.71 -0.0642377 5.02959 0
M  V30 73110 H 6971.41 1.57427 5.66119 0
M  V30 73111 H 6972.93 0.732349 6.06192 0
M  V30 73112 H 6974.34 2.75473 5.0278 0
M  V30 73113 H 6972.74 3.52686 4.85523 0
M  V30 73114 H 6973.81 3.41099 3.44644 0
M  V30 73115 N 6975.15 -1.2192 0.99866 0
M  V30 73116 C 6976.56 -1.72589 0.71203 0
M  V30 73117 C 6976.92 -1.80427 -0.770747 0
M  V30 73118 O 6976.04 -1.45449 -1.6023 0
M  V30 73119 C 6976.64 -3.13451 1.28584 0
M  V30 73120 C 6975.19 -3.61503 1.04847 0
M  V30 73121 C 6974.34 -2.39216 1.40253 0
M  V30 73122 H 6977.29 -1.07186 1.17033 0
M  V30 73123 H 6977.31 -3.74603 0.667296 0
M  V30 73124 H 6976.83 -3.07714 2.36502 0
M  V30 73125 H 6974.93 -3.72597 -0.0138418 0
M  V30 73126 H 6975.04 -4.47319 1.71589 0
M  V30 73127 H 6973.4 -2.41098 0.821204 0
M  V30 73128 H 6974.19 -2.36136 2.49188 0
M  V30 73129 N 6976.63 -0.772586 -1.37364 0
M  V30 73130 C 6977.88 -0.337287 -1.99671 0
M  V30 73131 C 6978.21 1.08642 -1.6133 0
M  V30 73132 O 6977.46 1.76206 -0.85147 0
M  V30 73133 C 6977.76 -0.429063 -3.54815 0
M  V30 73134 C 6977.43 -1.81114 -4.12927 0
M  V30 73135 C 6976.09 -2.18933 -4.28511 0
M  V30 73136 C 6978.44 -2.71687 -4.44787 0
M  V30 73137 C 6975.77 -3.4676 -4.73259 0
M  V30 73138 C 6978.12 -3.98925 -4.9096 0
M  V30 73139 C 6976.79 -4.36788 -5.0475 0
M  V30 73140 H 6976.06 -0.123422 -0.730649 0
M  V30 73141 H 6978.7 -0.986773 -1.64119 0
M  V30 73142 H 6977.01 0.303961 -3.90619 0
M  V30 73143 H 6978.7 -0.0735448 -4.00933 0
M  V30 73144 H 6975.29 -1.50721 -4.01225 0
M  V30 73145 H 6979.48 -2.43728 -4.32331 0
M  V30 73146 H 6974.73 -3.7599 -4.82122 0
M  V30 73147 H 6978.91 -4.69235 -5.14579 0
M  V30 73148 H 6976.54 -5.35897 -5.39183 0
M  V30 73149 N 6978.11 1.48662 -0.523194 0
M  V30 73150 C 6979.36 2.01694 0.0153337 0
M  V30 73151 C 6979.67 1.40614 1.35968 0
M  V30 73152 O 6980.88 1.85103 1.98618 0
M  V30 73153 C 6979.33 3.59816 0.0777406 0
M  V30 73154 C 6978.94 4.29878 -1.2613 0
M  V30 73155 C 6980.69 4.20717 0.565456 0
M  V30 73156 C 6978.59 5.79915 -1.15984 0
M  V30 73157 H 6977.52 0.75394 0.00950187 0
M  V30 73158 H 6980.17 1.70989 -0.665955 0
M  V30 73159 H 6978.56 3.87333 0.823961 0
M  V30 73160 H 6979.73 4.14041 -2.02255 0
M  V30 73161 H 6978.05 3.80819 -1.68421 0
M  V30 73162 H 6980.64 5.30621 0.65922 0
M  V30 73163 H 6980.99 3.85575 1.56963 0
M  V30 73164 H 6981.52 3.97604 -0.12488 0
M  V30 73165 H 6978.26 6.1962 -2.13896 0
M  V30 73166 H 6977.78 5.98185 -0.439844 0
M  V30 73167 H 6979.46 6.41423 -0.847699 0
M  V30 73168 N 6979.59 0.258013 1.55474 0
M  V30 73169 C 6980.52 -0.630794 2.24818 0
M  V30 73170 C 6981.5 -1.17253 1.23231 0
M  V30 73171 O 6982.68 -1.20983 1.51911 0
M  V30 73172 C 6979.81 -1.82282 2.95619 0
M  V30 73173 C 6978.77 -1.41338 4.0399 0
M  V30 73174 C 6978.09 -2.68714 4.62274 0
M  V30 73175 C 6979.39 -0.576206 5.19112 0
M  V30 73176 H 6981.09 -0.0525299 2.99354 0
M  V30 73177 H 6978.63 -0.0238251 1.4398 0
M  V30 73178 H 6980.59 -2.45035 3.42835 0
M  V30 73179 H 6979.31 -2.42665 2.1859 0
M  V30 73180 H 6977.97 -0.809136 3.57559 0
M  V30 73181 H 6977.62 -3.27317 3.81932 0
M  V30 73182 H 6977.32 -2.42037 5.35436 0
M  V30 73183 H 6978.84 -3.32345 5.12229 0
M  V30 73184 H 6980.26 -1.10831 5.62485 0
M  V30 73185 H 6978.65 -0.405035 5.98732 0
M  V30 73186 H 6979.72 0.409031 4.83172 0
M  V30 73187 N 6981.07 -1.57593 -0.0149554 0
M  V30 73188 C 6982.48 -1.55232 -0.370825 0
M  V30 73189 C 6982.68 -0.985974 -1.75729 0
M  V30 73190 O 6981.74 -0.613206 -2.44941 0
M  V30 73191 C 6983.05 -2.99576 -0.25975 0
M  V30 73192 C 6984.6 -3.11194 -0.335795 0
M  V30 73193 C 6985.07 -4.57295 -0.254012 0
M  V30 73194 N 6986.57 -4.62145 -0.312375 0
M  V30 73195 C 6987.3 -5.72754 -0.272203 0
M  V30 73196 N 6986.8 -6.92557 -0.183499 0
M  V30 73197 N 6988.59 -5.61171 -0.322971 0
M  V30 73198 H 6980.74 -1.92752 0.892205 0
M  V30 73199 H 6983 -0.884697 0.34061 0
M  V30 73200 H 6982.71 -3.44793 0.693585 0
M  V30 73201 H 6982.58 -3.62354 -1.04781 0
M  V30 73202 H 6984.97 -2.65916 -1.27957 0
M  V30 73203 H 6985.05 -2.5122 0.481871 0
M  V30 73204 H 6984.7 -5.03244 0.686153 0
M  V30 73205 H 6984.63 -5.15196 -1.08997 0
M  V30 73206 H 6987.12 -3.75955 -0.382871 0
M  V30 73207 H 6987.43 -7.72638 -0.158333 0
M  V30 73208 H 6985.77 -6.9484 -0.149341 0
M  V30 73209 H 6988.97 -4.66469 -0.390361 0
M  V30 73210 H 6989.14 -6.47359 -0.288198 0
M  V30 73211 N 6982.54 0.287472 -1.54956 0
M  V30 73212 C 6983.47 1.35944 -1.89846 0
M  V30 73213 C 6984.46 1.5224 -0.758755 0
M  V30 73214 O 6985.64 1.65523 -1.01566 0
M  V30 73215 C 6982.77 2.72143 -2.15767 0
M  V30 73216 C 6981.72 2.70596 -3.31605 0
M  V30 73217 C 6981.05 4.10211 -3.42974 0
M  V30 73218 C 6982.35 2.31141 -4.68371 0
M  V30 73219 H 6984.04 1.06992 -2.7963 0
M  V30 73220 H 6981.59 0.513245 -1.34543 0
M  V30 73221 H 6983.54 3.47233 -2.38762 0
M  V30 73222 H 6982.27 3.02648 -1.22767 0
M  V30 73223 H 6980.93 1.97963 -3.08555 0
M  V30 73224 H 6980.57 4.37915 -2.47466 0
M  V30 73225 H 6980.27 4.10074 -4.20848 0
M  V30 73226 H 6981.8 4.87062 -3.68244 0
M  V30 73227 H 6983.21 2.9595 -4.91006 0
M  V30 73228 H 6981.61 2.42192 -5.49056 0
M  V30 73229 H 6982.68 1.26266 -4.68172 0
M  V30 73230 N 6984.02 1.47642 0.551313 0
M  V30 73231 C 6984.95 1.63454 1.66749 0
M  V30 73232 C 6985.93 0.483828 1.63074 0
M  V30 73233 O 6987.12 0.713865 1.80603 0
M  V30 73234 C 6984.25 1.65412 3.05379 0
M  V30 73235 C 6983.2 2.79769 3.23903 0
M  V30 73236 C 6982.53 2.66804 4.63379 0
M  V30 73237 C 6983.83 4.213 3.08713 0
M  V30 73238 H 6985.52 2.56894 1.53772 0
M  V30 73239 H 6983.07 1.2363 0.73835 0
M  V30 73240 H 6985.02 1.75064 3.83315 0
M  V30 73241 H 6983.75 0.685363 3.19328 0
M  V30 73242 H 6982.4 2.69638 2.48377 0
M  V30 73243 H 6982.05 1.67943 4.74135 0
M  V30 73244 H 6981.75 3.43526 4.76721 0
M  V30 73245 H 6983.28 2.78392 5.43443 0
M  V30 73246 H 6984.69 4.32377 3.76461 0
M  V30 73247 H 6983.09 4.98855 3.33562 0
M  V30 73248 H 6984.16 4.39254 2.05387 0
M  V30 73249 N 6985.5 -0.798516 1.35873 0
M  V30 73250 C 6986.92 -1.09525 1.16088 0
M  V30 73251 C 6987.12 -2.01489 -0.0212061 0
M  V30 73252 O 6986.17 -2.42908 -0.68936 0
M  V30 73253 C 6987.49 -1.71847 2.46757 0
M  V30 73254 C 6989.03 -1.8423 2.53038 0
M  V30 73255 C 6989.51 -2.49968 3.83771 0
M  V30 73256 N 6991 -2.57445 3.85067 0
M  V30 73257 C 6991.73 -3.09097 4.82956 0
M  V30 73258 N 6991.23 -3.61125 5.91236 0
M  V30 73259 N 6993.02 -3.07725 4.70385 0
M  V30 73260 H 6985.17 -0.187349 2.11572 0
M  V30 73261 H 6987.44 -0.145716 0.936734 0
M  V30 73262 H 6987.14 -1.11741 3.33477 0
M  V30 73263 H 6987.02 -2.71458 2.61898 0
M  V30 73264 H 6989.4 -2.43477 1.66742 0
M  V30 73265 H 6989.49 -0.834516 2.41805 0
M  V30 73266 H 6989.13 -1.91368 4.70469 0
M  V30 73267 H 6989.06 -3.51299 3.92296 0
M  V30 73268 H 6991.55 -2.20593 3.06834 0
M  V30 73269 H 6991.86 -3.98861 6.61913 0
M  V30 73270 H 6990.21 -3.59302 5.94918 0
M  V30 73271 H 6993.4 -2.66361 3.84928 0
M  V30 73272 H 6993.57 -3.47672 5.46835 0
M  V30 73273 N 6986.98 -1.20003 -1.02162 0
M  V30 73274 C 6988.23 -1.00513 -1.75333 0
M  V30 73275 C 6988.55 0.464407 -1.89389 0
M  V30 73276 O 6987.82 1.336 -1.43275 0
M  V30 73277 H 6986.4 -0.368919 -0.649544 0
M  V30 73278 H 6989.06 -1.51025 -1.23197 0
M  V30 73279 H 6988.16 -1.45926 -2.75884 0
M  V30 73280 N 6988.46 1.21389 -1.00511 0
M  V30 73281 C 6989.39 2.26032 -0.585803 0
M  V30 73282 C 6990.37 1.65487 0.393438 0
M  V30 73283 O 6991.55 1.9215 0.281395 0
M  V30 73284 C 6988.68 3.47188 0.0882452 0
M  V30 73285 C 6987.64 4.2025 -0.810789 0
M  V30 73286 C 6986.96 5.347 -0.00314578 0
M  V30 73287 C 6988.26 4.7763 -2.11345 0
M  V30 73288 H 6989.96 2.6136 -1.46053 0
M  V30 73289 H 6987.5 1.25634 -0.703714 0
M  V30 73290 H 6989.46 4.19563 0.393065 0
M  V30 73291 H 6988.18 3.10991 0.997602 0
M  V30 73292 H 6986.84 3.49726 -1.09944 0
M  V30 73293 H 6986.49 4.94746 0.907504 0
M  V30 73294 H 6986.19 5.84511 -0.601752 0
M  V30 73295 H 6987.71 6.09885 0.295486 0
M  V30 73296 H 6989.12 5.41883 -1.87177 0
M  V30 73297 H 6987.52 5.37831 -2.66192 0
M  V30 73298 H 6988.59 3.97006 -2.78414 0
M  V30 73299 N 6989.93 0.77986 1.36952 0
M  V30 73300 C 6990.9 0.177783 2.28509 0
M  V30 73301 C 6991.9 -0.619299 1.48396 0
M  V30 73302 O 6993.09 -0.441696 1.68507 0
M  V30 73303 C 6990.22 -0.755103 3.32432 0
M  V30 73304 H 6991.41 0.984972 2.83264 0
M  V30 73305 H 6988.97 0.548622 1.46355 0
M  V30 73306 H 6989.7 -1.58699 2.82816 0
M  V30 73307 H 6989.49 -0.185611 3.9166 0
M  V30 73308 H 6990.98 -1.17153 4.0083 0
M  V30 73309 N 6991.41 -1.48383 0.531071 0
M  V30 73310 C 6992.66 -2.01699 -0.00463712 0
M  V30 73311 C 6992.98 -1.41333 -1.3522 0
M  V30 73312 O 6994.18 -1.86154 -1.97633 0
M  V30 73313 C 6992.64 -3.59852 -0.0586576 0
M  V30 73314 C 6992.25 -4.29203 1.28407 0
M  V30 73315 C 6993.99 -4.21011 -0.543136 0
M  V30 73316 C 6991.9 -5.79292 1.19058 0
M  V30 73317 H 6990.83 -0.75398 -0.00550341 0
M  V30 73318 H 6993.48 -1.70634 0.675014 0
M  V30 73319 H 6991.86 -3.87765 -0.803408 0
M  V30 73320 H 6993.03 -4.12962 2.04448 0
M  V30 73321 H 6991.35 -3.79921 1.70438 0
M  V30 73322 H 6993.95 -5.30963 -0.631071 0
M  V30 73323 H 6994.29 -3.86402 -1.54916 0
M  V30 73324 H 6994.82 -3.97532 0.145964 0
M  V30 73325 H 6991.56 -6.18477 2.17179 0
M  V30 73326 H 6991.08 -5.97943 0.471561 0
M  V30 73327 H 6992.76 -6.40964 0.881703 0
M  V30 73328 N 6992.89 -0.266254 -1.55335 0
M  V30 73329 C 6993.82 0.658131 -2.19548 0
M  V30 73330 C 6994.84 1.12421 -1.17751 0
M  V30 73331 O 6996.03 1.04764 -1.44522 0
M  V30 73332 C 6993.13 1.90866 -2.80042 0
M  V30 73333 C 6992.3 1.59085 -4.07444 0
M  V30 73334 C 6991.36 2.69293 -4.52071 0
M  V30 73335 O 6990.38 2.35855 -5.18036 0
M  V30 73336 N 6991.59 3.99179 -4.21469 0
M  V30 73337 H 6994.35 0.108596 -2.99503 0
M  V30 73338 H 6991.91 -0.0869912 -1.61666 0
M  V30 73339 H 6993.9 2.63872 -3.06845 0
M  V30 73340 H 6992.47 2.36747 -2.04131 0
M  V30 73341 H 6991.69 0.695038 -3.88024 0
M  V30 73342 H 6992.98 1.35342 -4.90469 0
M  V30 73343 H 6992.38 4.2917 -3.68551 0
M  V30 73344 H 6990.94 4.6859 -4.53064 0
M  V30 73345 N 6994.37 1.57599 0.00659769 0
M  V30 73346 C 6995.32 2.04483 1.00849 0
M  V30 73347 C 6996.3 0.9383 1.30709 0
M  V30 73348 O 6997.5 1.2021 1.29917 0
M  V30 73349 C 6994.62 2.54628 2.3026 0
M  V30 73350 C 6993.71 3.72145 2.03394 0
M  V30 73351 N 6994.1 4.8407 1.46662 0
M  V30 73352 C 6992.4 3.79949 2.33569 0
M  V30 73353 C 6993.1 5.65551 1.36116 0
M  V30 73354 N 6992.08 5.1135 1.8445 0
M  V30 73355 H 6995.88 2.88433 0.56425 0
M  V30 73356 H 6993.39 1.61005 0.212436 0
M  V30 73357 H 6995.39 2.86488 3.0287 0
M  V30 73358 H 6994.05 1.72094 2.75343 0
M  V30 73359 H 6995.06 5.05055 1.14631 0
M  V30 73360 H 6991.74 3.08258 2.81573 0
M  V30 73361 H 6993.13 6.65495 0.925522 0
M  V30 73362 N 6995.85 -0.279251 1.55106 0
M  V30 73363 C 6997.26 -0.850745 1.6619 0
M  V30 73364 C 6997.61 -1.87282 0.584806 0
M  V30 73365 O 6996.73 -2.14648 -0.274806 0
M  V30 73366 C 6997.33 -1.54985 3.01272 0
M  V30 73367 C 6995.89 -2.06946 3.14404 0
M  V30 73368 C 6995.04 -0.909398 2.61964 0
M  V30 73369 H 6997.99 -0.0557399 1.58602 0
M  V30 73370 H 6998.01 -2.41653 2.93912 0
M  V30 73371 H 6997.52 -0.80573 3.79644 0
M  V30 73372 H 6995.62 -2.84339 2.40794 0
M  V30 73373 H 6995.73 -2.28906 4.20879 0
M  V30 73374 H 6994.1 -1.30104 2.18964 0
M  V30 73375 H 6994.88 -0.178881 3.42834 0
M  V30 73376 N 6997.33 -1.47933 -0.543476 0
M  V30 73377 C 6998.57 -1.54955 -1.29744 0
M  V30 73378 C 6998.89 -0.219344 -1.93762 0
M  V30 73379 O 6998.16 0.757955 -1.80643 0
M  V30 73380 H 6996.74 -0.57082 -0.481844 0
M  V30 73381 H 6999.41 -1.84316 -0.633539 0
M  V30 73382 H 6998.5 -2.32345 -2.0838 0
M  V30 73383 N 6998.8 0.791299 -1.36295 0
M  V30 73384 C 7000.03 1.58008 -1.3357 0
M  V30 73385 C 7000.45 1.88615 0.0834622 0
M  V30 73386 O 6999.8 1.4998 1.03982 0
M  V30 73387 C 6999.85 2.90221 -2.15532 0
M  V30 73388 O 6999.58 2.60934 -3.51916 0
M  V30 73389 C 7001.08 3.84533 -2.20567 0
M  V30 73390 H 6998.3 0.490149 -0.458252 0
M  V30 73391 H 7000.84 0.982251 -1.79366 0
M  V30 73392 H 6999 3.46478 -1.73296 0
M  V30 73393 H 6999.41 3.4546 -3.94662 0
M  V30 73394 H 7000.88 4.74367 -2.82277 0
M  V30 73395 H 7001.36 4.22243 -1.2086 0
M  V30 73396 H 7001.97 3.34208 -2.6303 0
M  V30 73397 N 7000.28 1.20543 1.01524 0
M  V30 73398 C 7001.21 0.913266 2.10219 0
M  V30 73399 C 7002.23 -0.0995141 1.62496 0
M  V30 73400 O 7003.42 0.131676 1.78014 0
M  V30 73401 C 7000.52 0.347895 3.3711 0
M  V30 73402 C 6999.69 1.41254 4.13964 0
M  V30 73403 C 6998.75 0.85825 5.19154 0
M  V30 73404 O 6997.77 1.53926 5.47992 0
M  V30 73405 N 6998.98 -0.331661 5.79552 0
M  V30 73406 H 7001.74 1.84894 2.35869 0
M  V30 73407 H 6999.3 1.10929 1.17925 0
M  V30 73408 H 7001.29 -0.0370892 4.04683 0
M  V30 73409 H 6999.86 -0.492364 3.08698 0
M  V30 73410 H 6999.08 1.97181 3.41341 0
M  V30 73411 H 7000.37 2.12952 4.62092 0
M  V30 73412 H 6999.77 -0.902183 5.5846 0
M  V30 73413 H 6998.33 -0.658268 6.48467 0
M  V30 73414 N 7001.76 -1.20854 1.01154 0
M  V30 73415 C 7003.01 -1.90373 0.698999 0
M  V30 73416 C 7003.34 -1.78328 -0.768946 0
M  V30 73417 O 7002.61 -1.16418 -1.55811 0
M  V30 73418 C 7002.9 -3.41945 1.12896 0
M  V30 73419 C 7002.75 -3.62949 2.65684 0
M  V30 73420 C 7004.07 -4.34556 0.696343 0
M  V30 73421 H 7001.19 -0.691329 0.255408 0
M  V30 73422 H 7003.83 -1.42354 1.25838 0
M  V30 73423 H 7001.98 -3.82972 0.653029 0
M  V30 73424 H 7003.65 -3.31207 3.21091 0
M  V30 73425 H 7001.89 -3.06592 3.06894 0
M  V30 73426 H 7002.57 -4.69177 2.90822 0
M  V30 73427 H 7005.04 -4.01148 1.10542 0
M  V30 73428 H 7003.92 -5.39239 1.02528 0
M  V30 73429 H 7004.18 -4.40266 -0.402233 0
M  V30 73430 N 7003.24 -0.787112 -1.36537 0
M  V30 73431 C 7004.17 -0.198115 -2.32658 0
M  V30 73432 C 7005.15 0.665614 -1.56536 0
M  V30 73433 O 7006.33 0.599913 -1.84702 0
M  V30 73434 C 7003.46 0.669721 -3.40781 0
M  V30 73435 C 7002.42 -0.0939296 -4.27897 0
M  V30 73436 C 7001.74 0.894351 -5.27167 0
M  V30 73437 C 7003.04 -1.2818 -5.06327 0
M  V30 73438 H 7004.74 -1.00114 -2.82166 0
M  V30 73439 H 7002.28 -0.482865 -1.35663 0
M  V30 73440 H 7004.24 1.09169 -4.07014 0
M  V30 73441 H 7002.96 1.50542 -2.89835 0
M  V30 73442 H 7001.62 -0.496851 -3.63217 0
M  V30 73443 H 7001.27 1.72502 -4.72495 0
M  V30 73444 H 7000.97 0.38784 -5.86319 0
M  V30 73445 H 7002.49 1.31494 -5.96273 0
M  V30 73446 H 7003.91 -0.935708 -5.65612 0
M  V30 73447 H 7002.3 -1.72145 -5.74879 0
M  V30 73448 H 7003.37 -2.0783 -4.38103 0
M  V30 73449 N 7004.72 1.48099 -0.538933 0
M  V30 73450 C 7005.96 2.01699 -0.00605956 0
M  V30 73451 C 7006.28 1.42048 1.34469 0
M  V30 73452 O 7007.48 1.872 1.96643 0
M  V30 73453 C 7005.94 3.59878 0.0395729 0
M  V30 73454 C 7005.55 4.28516 -1.30682 0
M  V30 73455 C 7007.29 4.21293 0.520802 0
M  V30 73456 C 7005.2 5.78652 -1.22129 0
M  V30 73457 H 7004.13 0.753998 0.0015048 0
M  V30 73458 H 7006.78 1.70273 -0.684053 0
M  V30 73459 H 7005.16 3.88185 0.782833 0
M  V30 73460 H 7006.34 4.11872 -2.06635 0
M  V30 73461 H 7004.65 3.79012 -1.7245 0
M  V30 73462 H 7007.25 5.3129 0.602903 0
M  V30 73463 H 7007.59 3.87218 1.52865 0
M  V30 73464 H 7008.12 3.97449 -0.167044 0
M  V30 73465 H 7004.86 6.17316 -2.20456 0
M  V30 73466 H 7004.38 5.97685 -0.503265 0
M  V30 73467 H 7006.06 6.40488 -0.915683 0
M  V30 73468 N 7006.19 0.274488 1.55191 0
M  V30 73469 C 7007.44 -0.341797 1.99189 0
M  V30 73470 C 7007.76 -1.56425 1.16431 0
M  V30 73471 O 7007.03 -1.94251 0.253675 0
M  V30 73472 H 7005.61 -0.129279 0.735728 0
M  V30 73473 H 7008.28 0.379679 1.91166 0
M  V30 73474 H 7007.37 -0.632092 3.05632 0
M  V30 73475 N 7007.67 -1.576 0.00176024 0
M  V30 73476 C 7008.9 -1.94926 -0.693657 0
M  V30 73477 C 7009.32 -0.876714 -1.6721 0
M  V30 73478 O 7008.67 0.144183 -1.8193 0
M  V30 73479 C 7008.72 -3.32272 -1.42399 0
M  V30 73480 O 7008.44 -4.3541 -0.484784 0
M  V30 73481 C 7009.95 -3.84068 -2.21375 0
M  V30 73482 H 7007.17 -0.642619 -0.193084 0
M  V30 73483 H 7009.71 -2.0443 0.053403 0
M  V30 73484 H 7007.86 -3.2407 -2.12267 0
M  V30 73485 H 7008.28 -5.14874 -1.00026 0
M  V30 73486 H 7009.75 -4.82593 -2.67971 0
M  V30 73487 H 7010.23 -3.16867 -3.04125 0
M  V30 73488 H 7010.84 -3.95451 -1.56521 0
M  V30 73489 N 7009.15 0.271021 -1.55252 0
M  V30 73490 C 7010.43 1.02375 -1.66669 0
M  V30 73491 C 7010.81 2.04222 -0.53447 0
M  V30 73492 O 7010.16 2.23714 0.465219 0
M  V30 73493 C 7010.37 1.67879 -3.0597 0
M  V30 73494 C 7011.71 2.18967 -3.63784 0
M  V30 73495 O 7012.74 1.77862 -3.08616 0
M  V30 73496 O 7011.6 2.94369 -4.60445 0
M  V30 73497 H 7008.69 0.474999 -0.676982 0
M  V30 73498 H 7011.24 0.266721 -1.67591 0
M  V30 73499 H 7010.01 0.940871 -3.7982 0
M  V30 73500 H 7009.63 2.50264 -3.08956 0
M  V30 73501 N 7010.63 1.48219 0.535623 0
M  V30 73502 C 7011.85 1.59855 1.32141 0
M  V30 73503 C 7012.28 0.25694 1.86337 0
M  V30 73504 O 7011.64 -0.770545 1.64111 0
M  V30 73505 C 7011.68 2.64394 2.4521 0
M  V30 73506 O 7010.79 2.21163 3.48082 0
M  V30 73507 H 7010.13 0.536229 0.391605 0
M  V30 73508 H 7012.66 1.94164 0.645099 0
M  V30 73509 H 7012.67 2.85492 2.91476 0
M  V30 73510 H 7011.34 3.61797 2.05124 0
M  V30 73511 H 7009.92 2.10255 3.07973 0
M  V30 73512 N 7012.11 -0.78406 1.36712 0
M  V30 73513 C 7013.36 -1.53737 1.30567 0
M  V30 73514 C 7013.67 -1.95283 -0.111271 0
M  V30 73515 O 7014.87 -2.69891 -0.295127 0
M  V30 73516 C 7013.33 -2.77553 2.29113 0
M  V30 73517 C 7012.94 -2.43154 3.76271 0
M  V30 73518 C 7014.68 -3.55524 2.31955 0
M  V30 73519 C 7012.59 -3.63398 4.66579 0
M  V30 73520 H 7011.52 -0.577137 0.485211 0
M  V30 73521 H 7014.17 -0.859895 1.62105 0
M  V30 73522 H 7012.55 -3.47127 1.90576 0
M  V30 73523 H 7013.73 -1.81443 4.23574 0
M  V30 73524 H 7012.04 -1.78383 3.76256 0
M  V30 73525 H 7014.64 -4.44874 2.96634 0
M  V30 73526 H 7014.98 -3.94496 1.32961 0
M  V30 73527 H 7015.51 -2.92935 2.69136 0
M  V30 73528 H 7012.25 -3.29517 5.66656 0
M  V30 73529 H 7011.77 -4.24257 4.23989 0
M  V30 73530 H 7013.45 -4.30361 4.83113 0
M  V30 73531 N 7013.58 -1.2108 -1.00883 0
M  V30 73532 C 7015 -1.02494 -1.56051 0
M  V30 73533 C 7015.35 0.416405 -1.9173 0
M  V30 73534 O 7014.47 1.29902 -1.73073 0
M  V30 73535 C 7015.07 -1.85426 -2.83553 0
M  V30 73536 C 7013.63 -1.71184 -3.35221 0
M  V30 73537 C 7012.77 -1.82876 -2.0845 0
M  V30 73538 H 7015.72 -1.35158 -0.831746 0
M  V30 73539 H 7015.74 -1.36224 -3.55279 0
M  V30 73540 H 7015.26 -2.90323 -2.57554 0
M  V30 73541 H 7013.36 -0.689554 -3.66164 0
M  V30 73542 H 7013.47 -2.52922 -4.069 0
M  V30 73543 H 7011.83 -1.26144 -2.21269 0
M  V30 73544 H 7012.62 -2.89273 -1.84868 0
M  V30 73545 N 7015.06 1.20316 -1.01793 0
M  V30 73546 C 7016.01 2.25184 -0.582659 0
M  V30 73547 C 7017 1.651 0.379272 0
M  V30 73548 O 7018.21 1.78269 0.249048 0
M  V30 73549 H 7014.59 0.732505 -0.170117 0
M  V30 73550 H 7016.56 2.59224 -1.47801 0
M  V30 73551 C 7015.31 3.47645 0.0619052 0
M  V30 73552 H 7014.63 3.94158 -0.669277 0
M  V30 73553 H 7016.07 4.22717 0.329561 0
M  V30 73554 C 7014.53 3.10593 1.30514 0
M  V30 73555 O 7015.06 3.22249 2.39831 0
M  V30 73556 N 7013.26 2.65129 1.18974 0
M  V30 73557 H 7012.81 2.55845 0.300206 0
M  V30 73558 H 7012.77 2.40708 2.02255 0
M  V30 73559 N 7016.54 0.794341 1.36118 0
M  V30 73560 C 7017.47 0.210451 2.3255 0
M  V30 73561 C 7018.45 -0.657303 1.56887 0
M  V30 73562 O 7019.64 -0.590109 1.85017 0
M  V30 73563 C 7016.77 -0.651639 3.41132 0
M  V30 73564 C 7015.72 0.116621 4.27841 0
M  V30 73565 C 7015.05 -0.866381 5.27634 0
M  V30 73566 C 7016.35 1.30864 5.0564 0
M  V30 73567 H 7018.04 1.01609 2.81631 0
M  V30 73568 H 7015.59 0.490053 1.35405 0
M  V30 73569 H 7017.54 -1.07009 4.07587 0
M  V30 73570 H 7016.26 -1.49003 2.9063 0
M  V30 73571 H 7014.92 0.516107 3.62949 0
M  V30 73572 H 7014.57 -1.69994 4.73404 0
M  V30 73573 H 7014.27 -0.35674 5.86516 0
M  V30 73574 H 7015.79 -1.2833 5.96962 0
M  V30 73575 H 7017.21 0.965691 5.65108 0
M  V30 73576 H 7015.61 1.75191 5.73958 0
M  V30 73577 H 7016.68 2.10151 4.36995 0
M  V30 73578 N 7018.02 -1.47811 0.546779 0
M  V30 73579 C 7018.97 -2.26868 -0.226923 0
M  V30 73580 C 7019.95 -1.33726 -0.894774 0
M  V30 73581 O 7021.14 -1.58151 -0.794804 0
M  V30 73582 C 7018.27 -3.1923 -1.26282 0
M  V30 73583 C 7017.36 -4.1985 -0.598909 0
M  V30 73584 N 7017.75 -5.04755 0.325043 0
M  V30 73585 C 7016.05 -4.37746 -0.8541 0
M  V30 73586 C 7016.75 -5.77355 0.70969 0
M  V30 73587 N 7015.73 -5.43559 0.066902 0
M  V30 73588 H 7019.53 -2.89893 0.483629 0
M  V30 73589 H 7017.04 -1.58223 0.365977 0
M  V30 73590 H 7019.04 -3.74541 -1.83097 0
M  V30 73591 H 7017.7 -2.57761 -1.97457 0
M  V30 73592 H 7018.71 -5.13166 0.698621 0
M  V30 73593 H 7015.39 -3.87455 -1.55515 0
M  V30 73594 H 7016.78 -6.5566 1.4683 0
M  V30 73595 N 7019.5 -0.282715 -1.55043 0
M  V30 73596 C 7020.44 0.601448 -2.22826 0
M  V30 73597 C 7021.41 1.14386 -1.20437 0
M  V30 73598 O 7022.6 1.19176 -1.49002 0
M  V30 73599 C 7019.74 1.77617 -2.95882 0
M  V30 73600 C 7018.85 1.26689 -4.13006 0
M  V30 73601 C 7017.99 2.40401 -4.73689 0
M  V30 73602 C 7017.03 1.86514 -5.82991 0
M  V30 73603 N 7016.16 2.93729 -6.37705 0
M  V30 73604 H 7021 0.0167957 -2.97995 0
M  V30 73605 H 7018.54 -0.00347721 -1.471 0
M  V30 73606 H 7020.5 2.46679 -3.3646 0
M  V30 73607 H 7019.13 2.33273 -2.23122 0
M  V30 73608 H 7018.18 0.469115 -3.77496 0
M  V30 73609 H 7019.49 0.832258 -4.91808 0
M  V30 73610 H 7018.65 3.17443 -5.17025 0
M  V30 73611 H 7017.38 2.87182 -3.9418 0
M  V30 73612 H 7016.39 1.07954 -5.39097 0
M  V30 73613 H 7017.61 1.40659 -6.64373 0
M  V30 73614 H 7015.56 3.39878 -5.61087 0
M  V30 73615 H 7015.48 2.54706 -7.11801 0
M  V30 73616 H 7016.75 3.70723 -6.857 0
M  V30 73617 N 7020.98 1.57597 -0.0101181 0
M  V30 73618 C 7021.91 2.12089 0.976745 0
M  V30 73619 C 7022.89 1.03242 1.35185 0
M  V30 73620 O 7024.07 1.30978 1.43382 0
M  V30 73621 C 7021.2 2.63248 2.26535 0
M  V30 73622 C 7020.16 3.76712 2.03155 0
M  V30 73623 C 7019.48 4.14224 3.38116 0
M  V30 73624 C 7020.78 5.03575 1.38599 0
M  V30 73625 H 7022.48 2.94797 0.522989 0
M  V30 73626 H 7020.02 1.41811 0.25012 0
M  V30 73627 H 7021.97 3 2.95936 0
M  V30 73628 H 7020.7 1.77676 2.74042 0
M  V30 73629 H 7019.36 3.4037 1.36177 0
M  V30 73630 H 7019.01 3.25661 3.83346 0
M  V30 73631 H 7018.71 4.90673 3.23286 0
M  V30 73632 H 7020.23 4.53543 4.08817 0
M  V30 73633 H 7021.64 5.38033 1.97972 0
M  V30 73634 H 7020.04 5.84896 1.34225 0
M  V30 73635 H 7021.11 4.83588 0.356467 0
M  V30 73636 N 7022.45 -0.262784 1.55394 0
M  V30 73637 C 7023.36 -1.34688 1.92084 0
M  V30 73638 C 7024.38 -1.53504 0.819308 0
M  V30 73639 O 7025.56 -1.67433 1.11929 0
M  V30 73640 C 7022.62 -2.68431 2.19421 0
M  V30 73641 C 7021.68 -2.58274 3.42918 0
M  V30 73642 C 7020.91 -3.8564 3.68941 0
M  V30 73643 O 7021.14 -4.86794 2.973 0
M  V30 73644 O 7020.07 -3.85228 4.62475 0
M  V30 73645 H 7023.9 -1.06566 2.8439 0
M  V30 73646 H 7021.48 -0.462189 1.42071 0
M  V30 73647 H 7023.36 -3.47493 2.38383 0
M  V30 73648 H 7022.04 -2.96318 1.30297 0
M  V30 73649 H 7020.95 -1.77552 3.29281 0
M  V30 73650 H 7022.28 -2.35335 4.32294 0
M  V30 73651 N 7023.93 -1.48501 -0.527755 0
M  V30 73652 C 7024.86 -1.59279 -1.64811 0
M  V30 73653 C 7025.88 -0.476951 -1.55657 0
M  V30 73654 O 7027.07 -0.747891 -1.62077 0
M  V30 73655 C 7024.17 -1.50858 -3.03472 0
M  V30 73656 C 7023.34 -2.77519 -3.38085 0
M  V30 73657 C 7022.4 -2.62521 -4.56036 0
M  V30 73658 O 7021.42 -3.36412 -4.59147 0
M  V30 73659 N 7022.63 -1.72286 -5.54344 0
M  V30 73660 H 7025.39 -2.55898 -1.56002 0
M  V30 73661 H 7022.95 -1.45252 -0.715075 0
M  V30 73662 H 7024.94 -1.38516 -3.80257 0
M  V30 73663 H 7023.51 -0.622049 -3.06348 0
M  V30 73664 H 7022.73 -3.04409 -2.50457 0
M  V30 73665 H 7024.02 -3.61546 -3.57998 0
M  V30 73666 H 7023.42 -1.11461 -5.54611 0
M  V30 73667 H 7021.98 -1.65882 -6.30338 0
M  V30 73668 N 7025.41 0.776798 -1.37126 0
M  V30 73669 C 7026.66 1.53745 -1.32251 0
M  V30 73670 C 7026.99 1.93971 0.0943722 0
M  V30 73671 O 7026.26 1.63685 1.05059 0
M  V30 73672 C 7026.55 2.80595 -2.25696 0
M  V30 73673 C 7026.4 2.46656 -3.7614 0
M  V30 73674 C 7027.72 3.82498 -2.17678 0
M  V30 73675 H 7024.84 0.557765 -0.481733 0
M  V30 73676 H 7027.48 0.891524 -1.67785 0
M  V30 73677 H 7025.63 3.35713 -1.95523 0
M  V30 73678 H 7027.3 1.97492 -4.16887 0
M  V30 73679 H 7025.54 1.79422 -3.94956 0
M  V30 73680 H 7026.22 3.3731 -4.36951 0
M  V30 73681 H 7028.69 3.3686 -2.44263 0
M  V30 73682 H 7027.57 4.68985 -2.8521 0
M  V30 73683 H 7027.83 4.2639 -1.16808 0
M  V30 73684 N 7026.89 1.21613 1.0024 0
M  V30 73685 C 7028.11 1.06176 1.78161 0
M  V30 73686 C 7028.54 -0.383938 1.8414 0
M  V30 73687 O 7027.9 -1.27705 1.2869 0
M  V30 73688 C 7027.94 1.66659 3.19777 0
M  V30 73689 O 7027.05 0.913825 4.02148 0
M  V30 73690 H 7026.39 0.373519 0.54898 0
M  V30 73691 H 7028.92 1.61211 1.25985 0
M  V30 73692 H 7028.93 1.70988 3.70442 0
M  V30 73693 H 7027.6 2.71867 3.1474 0
M  V30 73694 H 7026.18 0.945825 3.60706 0
M  V30 73695 N 7028.37 -1.19774 1.0243 0
M  V30 73696 C 7029.59 -1.93848 0.737402 0
M  V30 73697 C 7030.02 -1.74717 -0.696831 0
M  V30 73698 O 7029.37 -1.04646 -1.4805 0
M  V30 73699 C 7029.42 -3.43795 1.08801 0
M  V30 73700 O 7028.53 -4.11895 0.204047 0
M  V30 73701 H 7027.87 -0.60534 0.272872 0
M  V30 73702 H 7030.4 -1.51984 1.36974 0
M  V30 73703 H 7030.41 -3.94444 1.04297 0
M  V30 73704 H 7029.08 -3.57042 2.13293 0
M  V30 73705 H 7027.66 -3.71632 0.307287 0
M  V30 73706 N 7029.84 -0.801549 -1.35694 0
M  V30 73707 C 7031.12 -0.303039 -1.93238 0
M  V30 73708 C 7031.5 1.20663 -1.73215 0
M  V30 73709 O 7030.85 2.00379 -1.0982 0
M  V30 73710 C 7031.06 -0.708927 -3.41724 0
M  V30 73711 C 7032.41 -0.695549 -4.18864 0
M  V30 73712 O 7033.43 -0.650156 -3.50216 0
M  V30 73713 O 7032.29 -0.749367 -5.41338 0
M  V30 73714 H 7029.38 -0.0780801 -0.823306 0
M  V30 73715 H 7031.93 -0.884908 -1.44801 0
M  V30 73716 H 7030.7 -1.74962 -3.50006 0
M  V30 73717 H 7030.32 -0.101593 -3.9747 0
M  V30 73718 N 7031.32 1.47519 -0.55461 0
M  V30 73719 C 7032.23 2.33765 0.197742 0
M  V30 73720 C 7033.25 1.4803 0.914498 0
M  V30 73721 O 7034.42 1.80964 0.883972 0
M  V30 73722 C 7031.49 3.24672 1.21611 0
M  V30 73723 C 7030.55 4.26295 0.507058 0
M  V30 73724 C 7029.78 5.12858 1.47691 0
M  V30 73725 O 7030.01 5.01829 2.71153 0
M  V30 73726 O 7028.94 5.93487 1.00282 0
M  V30 73727 H 7032.77 2.99393 -0.509648 0
M  V30 73728 H 7030.35 1.46036 -0.315253 0
M  V30 73729 H 7032.23 3.80832 1.80401 0
M  V30 73730 H 7030.91 2.61675 1.90546 0
M  V30 73731 H 7029.81 3.73901 -0.121975 0
M  V30 73732 H 7031.15 4.91999 -0.140803 0
M  V30 73733 N 7032.8 0.290933 1.54891 0
M  V30 73734 C 7034.05 -0.320651 1.9954 0
M  V30 73735 C 7034.37 -1.55182 1.18083 0
M  V30 73736 O 7033.64 -1.93971 0.274264 0
M  V30 73737 H 7032.22 -0.121468 0.737058 0
M  V30 73738 H 7034.88 0.399933 1.90753 0
M  V30 73739 H 7033.98 -0.59964 3.06285 0
M  V30 73740 N 7034.28 -1.57589 0.0184757 0
M  V30 73741 C 7035.53 -1.90535 -0.661749 0
M  V30 73742 C 7035.84 -0.895458 -1.73899 0
M  V30 73743 O 7037.05 -1.11579 -2.47512 0
M  V30 73744 C 7035.5 -3.38292 -1.22826 0
M  V30 73745 C 7035.11 -4.47618 -0.184866 0
M  V30 73746 C 7036.85 -3.80322 -1.88561 0
M  V30 73747 C 7034.76 -5.86465 -0.762414 0
M  V30 73748 H 7033.69 -0.711019 -0.250935 0
M  V30 73749 H 7036.34 -1.83317 0.0820402 0
M  V30 73750 H 7034.72 -3.40408 -2.02332 0
M  V30 73751 H 7035.9 -4.57047 0.586951 0
M  V30 73752 H 7034.21 -4.14725 0.373107 0
M  V30 73753 H 7036.81 -4.81405 -2.32709 0
M  V30 73754 H 7037.15 -3.14815 -2.72391 0
M  V30 73755 H 7037.69 -3.80584 -1.15762 0
M  V30 73756 H 7034.42 -6.55489 0.0375169 0
M  V30 73757 H 7033.94 -5.80664 -1.50296 0
M  V30 73758 H 7035.62 -6.34703 -1.25542 0
M  V30 73759 N 7035.76 0.254539 -1.55531 0
M  V30 73760 C 7037 0.981699 -1.76655 0
M  V30 73761 C 7037.33 1.86142 -0.581062 0
M  V30 73762 O 7036.6 1.91701 0.403436 0
M  V30 73763 H 7035.18 0.365464 -0.651495 0
M  V30 73764 H 7037.84 0.274324 -1.9296 0
M  V30 73765 H 7036.93 1.60788 -2.67495 0
M  V30 73766 N 7037.23 1.48779 0.519872 0
M  V30 73767 C 7038.46 1.60989 1.29963 0
M  V30 73768 C 7038.88 0.273983 1.86801 0
M  V30 73769 O 7038.23 -0.738105 1.66908 0
M  V30 73770 C 7038.29 2.66428 2.44332 0
M  V30 73771 O 7038.01 3.94835 1.89834 0
M  V30 73772 C 7039.51 2.8917 3.35999 0
M  V30 73773 H 7036.73 0.542517 0.394863 0
M  V30 73774 H 7039.27 1.94679 0.626111 0
M  V30 73775 H 7037.43 2.35568 3.07549 0
M  V30 73776 H 7037.84 4.52764 2.64774 0
M  V30 73777 H 7039.31 3.66725 4.12574 0
M  V30 73778 H 7039.79 1.98372 3.91848 0
M  V30 73779 H 7040.4 3.21374 2.78565 0
M  V30 73780 N 7038.71 -0.769515 1.37536 0
M  V30 73781 C 7039.64 -1.89675 1.36182 0
M  V30 73782 C 7040.62 -1.68537 0.230099 0
M  V30 73783 O 7041.81 -1.89362 0.43079 0
M  V30 73784 C 7038.94 -3.26989 1.17027 0
M  V30 73785 C 7037.89 -3.62696 2.27235 0
M  V30 73786 C 7037.22 -4.98576 1.93201 0
M  V30 73787 C 7038.52 -3.69215 3.69429 0
M  V30 73788 H 7040.21 -1.91065 2.30509 0
M  V30 73789 H 7037.76 -0.917843 1.10958 0
M  V30 73790 H 7039.71 -4.05487 1.14709 0
M  V30 73791 H 7038.44 -3.26038 0.191567 0
M  V30 73792 H 7037.09 -2.86507 2.28712 0
M  V30 73793 H 7036.74 -4.94166 0.938541 0
M  V30 73794 H 7036.44 -5.23435 2.67 0
M  V30 73795 H 7037.97 -5.79471 1.92473 0
M  V30 73796 H 7039.38 -4.3786 3.7007 0
M  V30 73797 H 7037.78 -4.05573 4.42301 0
M  V30 73798 H 7038.85 -2.69823 4.02894 0
M  V30 73799 N 7040.19 -1.22143 -0.995934 0
M  V30 73800 C 7041.15 -0.990218 -2.06706 0
M  V30 73801 C 7042.15 0.0422131 -1.60745 0
M  V30 73802 O 7043.34 -0.195986 -1.73094 0
M  V30 73803 C 7040.48 -0.495088 -3.37286 0
M  V30 73804 H 7041.67 -1.94059 -2.28651 0
M  V30 73805 H 7039.22 -1.03969 -1.16705 0
M  V30 73806 H 7039.96 0.459778 -3.21024 0
M  V30 73807 H 7039.74 -1.23991 -3.71979 0
M  V30 73808 H 7041.23 -0.353472 -4.16101 0
M  V30 73809 N 7041.67 1.1923 -1.03063 0
M  V30 73810 C 7042.58 2.26175 -0.623041 0
M  V30 73811 C 7043.59 1.70525 0.346023 0
M  V30 73812 O 7044.77 2.0037 0.203466 0
M  V30 73813 C 7041.84 3.46695 0.0180235 0
M  V30 73814 C 7040.9 4.1752 -0.998766 0
M  V30 73815 C 7040.13 5.32286 -0.388198 0
M  V30 73816 O 7040.35 5.64643 0.80837 0
M  V30 73817 O 7039.29 5.9154 -1.11192 0
M  V30 73818 H 7043.11 2.63284 -1.51377 0
M  V30 73819 H 7040.7 1.26117 -0.800922 0
M  V30 73820 H 7042.58 4.19725 0.375385 0
M  V30 73821 H 7041.25 3.11431 0.882731 0
M  V30 73822 H 7040.16 3.46603 -1.40774 0
M  V30 73823 H 7041.49 4.56759 -1.8339 0
M  V30 73824 N 7043.15 0.808734 1.35267 0
M  V30 73825 C 7044.09 0.208728 2.31662 0
M  V30 73826 C 7045.09 -0.642695 1.56735 0
M  V30 73827 O 7046.29 -0.535619 1.71846 0
M  V30 73828 H 7042.67 0.0487388 0.750419 0
M  V30 73829 H 7044.64 1.03681 2.79808 0
M  V30 73830 C 7043.39 -0.626393 3.42011 0
M  V30 73831 H 7042.71 0.0194211 3.99795 0
M  V30 73832 H 7044.15 -1.01256 4.11732 0
M  V30 73833 C 7042.61 -1.79283 2.85236 0
M  V30 73834 O 7043.14 -2.8904 2.7896 0
M  V30 73835 N 7041.35 -1.60504 2.42254 0
M  V30 73836 H 7040.89 -0.712244 2.47558 0
M  V30 73837 H 7040.85 -2.38705 2.04615 0
M  V30 73838 N 7044.62 -1.47223 0.562426 0
M  V30 73839 C 7045.55 -2.32877 -0.170504 0
M  V30 73840 C 7046.54 -1.4411 -0.903672 0
M  V30 73841 O 7047.72 -1.72959 -0.883115 0
M  V30 73842 C 7044.85 -3.25995 -1.19769 0
M  V30 73843 C 7043.8 -4.24043 -0.580652 0
M  V30 73844 C 7043.13 -5.06523 -1.71285 0
M  V30 73845 C 7044.43 -5.2019 0.468989 0
M  V30 73846 H 7046.12 -2.94405 0.544596 0
M  V30 73847 H 7043.67 -1.41572 0.263346 0
M  V30 73848 H 7045.62 -3.84761 -1.71863 0
M  V30 73849 H 7044.35 -2.62532 -1.9428 0
M  V30 73850 H 7043.01 -3.66511 -0.0809605 0
M  V30 73851 H 7042.65 -4.3946 -2.44712 0
M  V30 73852 H 7042.35 -5.72909 -1.30574 0
M  V30 73853 H 7043.88 -5.68149 -2.23695 0
M  V30 73854 H 7045.29 -5.7329 0.0339051 0
M  V30 73855 H 7043.69 -5.94807 0.795271 0
M  V30 73856 H 7044.76 -4.65352 1.36293 0
M  V30 73857 N 7046.1 -0.299143 -1.54735 0
M  V30 73858 C 7047.03 0.570965 -2.26412 0
M  V30 73859 C 7048.01 1.13944 -1.26296 0
M  V30 73860 O 7049.2 1.16912 -1.55065 0
M  V30 73861 C 7046.33 1.74381 -3.00348 0
M  V30 73862 C 7045.28 1.30577 -4.07595 0
M  V30 73863 C 7044.61 2.56363 -4.69236 0
M  V30 73864 C 7045.91 0.43837 -5.20457 0
M  V30 73865 H 7047.6 -0.026857 -2.99388 0
M  V30 73866 H 7045.15 -0.0143571 -1.43993 0
M  V30 73867 H 7047.1 2.3586 -3.49211 0
M  V30 73868 H 7045.83 2.36784 -2.24947 0
M  V30 73869 H 7044.48 0.714051 -3.59579 0
M  V30 73870 H 7044.13 3.17076 -3.90476 0
M  V30 73871 H 7043.83 2.27755 -5.41665 0
M  V30 73872 H 7045.36 3.18648 -5.20861 0
M  V30 73873 H 7046.77 0.958787 -5.65226 0
M  V30 73874 H 7045.17 0.24615 -5.99595 0
M  V30 73875 H 7046.24 -0.536992 -4.81917 0
M  V30 73876 N 7047.58 1.57577 -0.0268328 0
M  V30 73877 C 7048.49 2.13538 0.97152 0
M  V30 73878 C 7049.51 1.08708 1.35862 0
M  V30 73879 O 7050.68 1.40753 1.4405 0
M  V30 73880 C 7047.75 2.64953 2.23608 0
M  V30 73881 C 7046.81 3.8449 1.90961 0
M  V30 73882 C 7046.04 4.33443 3.11389 0
M  V30 73883 O 7046.26 3.81581 4.23972 0
M  V30 73884 O 7045.2 5.25313 2.9382 0
M  V30 73885 H 7049.02 2.99116 0.525696 0
M  V30 73886 H 7046.61 1.4814 0.193634 0
M  V30 73887 H 7048.49 2.98101 2.97848 0
M  V30 73888 H 7047.17 1.8246 2.67376 0
M  V30 73889 H 7046.07 3.56271 1.14113 0
M  V30 73890 H 7047.41 4.68138 1.52011 0
M  V30 73891 N 7049.06 -0.246288 1.55664 0
M  V30 73892 C 7050.02 -1.28832 1.89565 0
M  V30 73893 C 7051.02 -1.41047 0.772157 0
M  V30 73894 O 7052.21 -1.39738 1.04015 0
M  V30 73895 C 7049.34 -2.66594 2.12463 0
M  V30 73896 H 7050.54 -0.999893 2.8274 0
M  V30 73897 H 7048.09 -0.485606 1.48565 0
M  V30 73898 H 7048.82 -3.00575 1.21758 0
M  V30 73899 H 7048.61 -2.59109 2.94287 0
M  V30 73900 H 7050.1 -3.41835 2.39872 0
M  V30 73901 N 7050.54 -1.49052 -0.511975 0
M  V30 73902 C 7051.47 -1.67817 -1.62356 0
M  V30 73903 C 7052.45 -0.526894 -1.61734 0
M  V30 73904 O 7053.63 -0.761498 -1.78647 0
M  V30 73905 C 7050.76 -1.73451 -3.00886 0
M  V30 73906 C 7049.72 -2.88259 -3.16372 0
M  V30 73907 C 7049.04 -2.78996 -4.56142 0
M  V30 73908 C 7050.34 -4.29337 -2.97434 0
M  V30 73909 H 7052.04 -2.60881 -1.46907 0
M  V30 73910 H 7049.58 -1.25544 -0.705312 0
M  V30 73911 H 7051.54 -1.85165 -3.78539 0
M  V30 73912 H 7050.26 -0.769786 -3.17399 0
M  V30 73913 H 7048.92 -2.76128 -2.4114 0
M  V30 73914 H 7048.57 -1.80455 -4.69516 0
M  V30 73915 H 7048.27 -3.56045 -4.67446 0
M  V30 73916 H 7049.79 -2.92703 -5.35871 0
M  V30 73917 H 7051.21 -4.42206 -3.64865 0
M  V30 73918 H 7049.6 -5.07524 -3.20218 0
M  V30 73919 H 7050.67 -4.44545 -1.93668 0
M  V30 73920 N 7052.02 0.762211 -1.37942 0
M  V30 73921 C 7053.43 1.06409 -1.18951 0
M  V30 73922 C 7053.63 2.01474 -0.0322225 0
M  V30 73923 O 7052.69 2.4465 0.624715 0
M  V30 73924 C 7054 1.65244 -2.51227 0
M  V30 73925 C 7055.55 1.77457 -2.57833 0
M  V30 73926 C 7056.02 2.39705 -3.90264 0
M  V30 73927 N 7057.51 2.47145 -3.91757 0
M  V30 73928 C 7058.25 2.96184 -4.90981 0
M  V30 73929 N 7057.75 3.45323 -6.00603 0
M  V30 73930 N 7059.54 2.95145 -4.78378 0
M  V30 73931 H 7051.69 0.131189 -2.11994 0
M  V30 73932 H 7053.95 0.120829 -0.940268 0
M  V30 73933 H 7053.66 1.0286 -3.36322 0
M  V30 73934 H 7053.53 2.64419 -2.69003 0
M  V30 73935 H 7055.92 2.38971 -1.73139 0
M  V30 73936 H 7056 0.770112 -2.43932 0
M  V30 73937 H 7055.64 1.78827 -4.75377 0
M  V30 73938 H 7055.57 3.40775 -4.01472 0
M  V30 73939 H 7058.07 2.12381 -3.12575 0
M  V30 73940 H 7058.38 3.81172 -6.72256 0
M  V30 73941 H 7056.72 3.43403 -6.04235 0
M  V30 73942 H 7059.91 2.56062 -3.91855 0
M  V30 73943 H 7060.09 3.33051 -5.5586 0
M  V30 73944 N 7053.49 1.22669 0.989443 0
M  V30 73945 C 7054.4 1.0163 2.11444 0
M  V30 73946 C 7055.42 -0.0364532 1.73962 0
M  V30 73947 O 7056.6 0.15703 2.00787 0
M  V30 73948 C 7053.66 0.600384 3.41462 0
M  V30 73949 C 7052.72 1.72715 3.93024 0
M  V30 73950 C 7051.95 1.33098 5.16837 0
M  V30 73951 O 7052.18 0.211275 5.70009 0
M  V30 73952 O 7051.11 2.14875 5.62239 0
M  V30 73953 H 7054.94 1.95892 2.32077 0
M  V30 73954 H 7052.52 1.01294 1.09817 0
M  V30 73955 H 7054.4 0.378951 4.19693 0
M  V30 73956 H 7053.08 -0.313341 3.2218 0
M  V30 73957 H 7051.99 2.00314 3.15951 0
M  V30 73958 H 7053.32 2.61887 4.16745 0
M  V30 73959 N 7054.97 -1.18681 1.03694 0
M  V30 73960 C 7055.92 -2.20094 0.595183 0
M  V30 73961 C 7056.91 -1.56812 -0.360382 0
M  V30 73962 O 7058.1 -1.76082 -0.180043 0
M  V30 73963 C 7055.23 -3.43271 -0.0442685 0
M  V30 73964 C 7054.31 -4.13682 0.934221 0
M  V30 73965 N 7054.7 -4.60154 2.09981 0
M  V30 73966 C 7053 -4.39487 0.759409 0
M  V30 73967 C 7053.7 -5.14316 2.71762 0
M  V30 73968 N 7052.68 -5.05604 1.99664 0
M  V30 73969 H 7056.48 -2.53712 1.48349 0
M  V30 73970 H 7053.99 -1.34845 0.90502 0
M  V30 73971 H 7055.99 -4.15179 -0.378421 0
M  V30 73972 H 7054.65 -3.11152 -0.928161 0
M  V30 73973 H 7055.66 -4.54722 2.47887 0
M  V30 73974 H 7052.34 -4.17433 -0.074709 0
M  V30 73975 H 7053.73 -5.60503 3.70521 0
M  V30 73976 N 7056.45 -0.815896 -1.34837 0
M  V30 73977 C 7057.86 -0.460385 -1.80935 0
M  V30 73978 C 7058.21 1.01854 -1.67691 0
M  V30 73979 O 7057.34 1.79217 -1.21286 0
M  V30 73980 C 7057.93 -0.828882 -3.28504 0
M  V30 73981 C 7056.49 -0.52584 -3.72709 0
M  V30 73982 C 7055.64 -1.04954 -2.56671 0
M  V30 73983 H 7058.59 -1.00671 -1.22683 0
M  V30 73984 H 7058.61 -0.129957 -3.80278 0
M  V30 73985 H 7058.12 -1.90531 -3.38112 0
M  V30 73986 H 7056.22 0.541472 -3.68645 0
M  V30 73987 H 7056.34 -1.06498 -4.67113 0
M  V30 73988 H 7054.7 -0.471418 -2.50299 0
M  V30 73989 H 7055.48 -2.13228 -2.69052 0
M  V30 73990 N 7057.93 1.46922 -0.570225 0
M  V30 73991 C 7059.2 1.95594 0.0152228 0
M  V30 73992 C 7059.58 1.51289 1.47224 0
M  V30 73993 O 7058.93 0.757738 2.1557 0
M  V30 73994 C 7059.14 3.48704 -0.143808 0
M  V30 73995 C 7060.49 4.246 -0.00516874 0
M  V30 73996 O 7061.51 3.56127 -0.0720092 0
M  V30 73997 O 7060.37 5.46318 0.140887 0
M  V30 73998 H 7057.47 0.825044 0.0568384 0
M  V30 73999 H 7060.01 1.57264 -0.637666 0
M  V30 74000 H 7058.79 3.73798 -1.15718 0
M  V30 74001 H 7058.41 3.93832 0.546092 0
M  V30 74002 N 7059.41 0.307345 1.54574 0
M  V30 74003 C 7060.65 -0.300506 2.00561 0
M  V30 74004 C 7060.98 -1.5305 1.19538 0
M  V30 74005 O 7060.26 -1.92568 0.273472 0
M  V30 74006 C 7060.54 -0.650801 3.5417 0
M  V30 74007 C 7060.4 0.588774 4.4593 0
M  V30 74008 C 7061.71 -1.47484 4.14652 0
M  V30 74009 H 7058.83 -0.10775 0.729081 0
M  V30 74010 H 7061.48 0.420704 1.85284 0
M  V30 74011 H 7059.63 -1.26525 3.6732 0
M  V30 74012 H 7061.3 1.2272 4.44677 0
M  V30 74013 H 7059.54 1.2208 4.16268 0
M  V30 74014 H 7060.21 0.299443 5.51187 0
M  V30 74015 H 7062.69 -0.955607 4.04978 0
M  V30 74016 H 7061.56 -1.68871 5.22277 0
M  V30 74017 H 7061.82 -2.46601 3.66934 0
M  V30 74018 N 7060.88 -1.57561 0.0351891 0
M  V30 74019 C 7061.83 -2.11747 -0.962596 0
M  V30 74020 C 7062.83 -1.04547 -1.33291 0
M  V30 74021 O 7064.03 -1.22975 -1.31443 0
M  V30 74022 H 7060.41 -0.676589 -0.328224 0
M  V30 74023 H 7062.38 -2.94509 -0.480325 0
M  V30 74024 C 7061.13 -2.66457 -2.23374 0
M  V30 74025 H 7060.45 -3.48597 -1.95756 0
M  V30 74026 H 7061.89 -3.0801 -2.91386 0
M  V30 74027 C 7060.35 -1.59482 -2.96761 0
M  V30 74028 O 7060.88 -0.998205 -3.891 0
M  V30 74029 N 7059.08 -1.31382 -2.59205 0
M  V30 74030 H 7058.63 -1.80086 -1.84192 0
M  V30 74031 H 7058.59 -0.600336 -3.08615 0
M  V30 74032 N 7062.36 0.238029 -1.55792 0
M  V30 74033 C 7063.31 1.29483 -1.91057 0
M  V30 74034 C 7064.28 1.47393 -0.765811 0
M  V30 74035 O 7065.46 1.61231 -1.02026 0
M  V30 74036 C 7062.6 2.64351 -2.21839 0
M  V30 74037 C 7061.72 2.54376 -3.49166 0
M  V30 74038 C 7060.85 3.81656 -3.69475 0
M  V30 74039 C 7059.89 3.66335 -4.90372 0
M  V30 74040 N 7059.03 4.85528 -5.07156 0
M  V30 74041 H 7063.87 0.987085 -2.81177 0
M  V30 74042 H 7061.4 0.47613 -1.39181 0
M  V30 74043 H 7063.36 3.42867 -2.37693 0
M  V30 74044 H 7061.99 2.93255 -1.34913 0
M  V30 74045 H 7061.04 1.67381 -3.41596 0
M  V30 74046 H 7062.36 2.38968 -4.37831 0
M  V30 74047 H 7061.51 4.68616 -3.85336 0
M  V30 74048 H 7060.25 3.99971 -2.79061 0
M  V30 74049 H 7059.25 2.77759 -4.74479 0
M  V30 74050 H 7060.48 3.49507 -5.82256 0
M  V30 74051 H 7058.43 5.04186 -4.19681 0
M  V30 74052 H 7058.34 4.72784 -5.89924 0
M  V30 74053 H 7059.61 5.73961 -5.27437 0
M  V30 74054 N 7063.84 1.49322 0.504063 0
M  V30 74055 C 7064.79 1.65765 1.60595 0
M  V30 74056 C 7065.76 0.499166 1.58422 0
M  V30 74057 O 7066.94 0.725821 1.76455 0
M  V30 74058 C 7064.08 1.72741 2.98755 0
M  V30 74059 C 7063.19 2.99873 3.10967 0
M  V30 74060 C 7062.33 2.97847 4.39841 0
M  V30 74061 C 7061.37 4.19572 4.45675 0
M  V30 74062 N 7060.51 4.15474 5.65973 0
M  V30 74063 H 7065.35 2.59851 1.45882 0
M  V30 74064 H 7062.88 1.28841 0.709823 0
M  V30 74065 H 7064.84 1.74767 3.7883 0
M  V30 74066 H 7063.47 0.82124 3.12179 0
M  V30 74067 H 7062.52 3.07473 2.23975 0
M  V30 74068 H 7063.83 3.89866 3.11137 0
M  V30 74069 H 7062.99 2.98419 5.28234 0
M  V30 74070 H 7061.73 2.05628 4.42231 0
M  V30 74071 H 7060.73 4.19248 3.55685 0
M  V30 74072 H 7061.96 5.12981 4.45003 0
M  V30 74073 H 7059.9 3.26089 5.69211 0
M  V30 74074 H 7059.82 4.99199 5.67747 0
M  V30 74075 H 7061.09 4.20144 6.56582 0
M  V30 74076 N 7065.32 -0.754884 1.38345 0
M  V30 74077 C 7066.57 -1.50933 1.33799 0
M  V30 74078 C 7066.88 -1.95475 -0.0698236 0
M  V30 74079 O 7068.09 -2.70456 -0.237813 0
M  V30 74080 C 7066.54 -2.7263 2.34948 0
M  V30 74081 C 7066.15 -2.35118 3.81344 0
M  V30 74082 C 7067.89 -3.50524 2.39444 0
M  V30 74083 C 7065.8 -3.53419 4.74182 0
M  V30 74084 H 7064.73 -0.566715 0.497343 0
M  V30 74085 H 7067.38 -0.825317 1.63893 0
M  V30 74086 H 7065.76 -3.43006 1.97896 0
M  V30 74087 H 7066.94 -1.72417 4.27328 0
M  V30 74088 H 7065.25 -1.70362 3.79955 0
M  V30 74089 H 7067.85 -4.38482 3.06003 0
M  V30 74090 H 7068.19 -3.91587 1.41299 0
M  V30 74091 H 7068.73 -2.8716 2.75289 0
M  V30 74092 H 7065.47 -3.17423 5.73518 0
M  V30 74093 H 7064.99 -4.15168 4.32892 0
M  V30 74094 H 7066.66 -4.20017 4.92133 0
M  V30 74095 N 7066.8 -1.23192 -0.982923 0
M  V30 74096 C 7068.07 -0.970797 -1.69808 0
M  V30 74097 C 7068.45 0.511316 -2.04814 0
M  V30 74098 O 7067.8 1.48189 -1.73932 0
M  V30 74099 C 7068.01 -1.87847 -2.94133 0
M  V30 74100 C 7069.36 -2.14045 -3.66701 0
M  V30 74101 O 7070.38 -1.85376 -3.04161 0
M  V30 74102 O 7069.24 -2.62654 -4.79244 0
M  V30 74103 H 7066.34 -0.365923 -0.74164 0
M  V30 74104 H 7068.88 -1.34223 -1.03837 0
M  V30 74105 H 7067.65 -2.88052 -2.64843 0
M  V30 74106 H 7067.28 -1.50924 -3.67842 0
M  V30 74107 N 7068.27 1.1813 -1.04322 0
M  V30 74108 C 7069.24 2.20057 -0.64091 0
M  V30 74109 C 7070.24 1.57919 0.303041 0
M  V30 74110 O 7071.43 1.73977 0.0880938 0
M  V30 74111 C 7068.56 3.40847 0.0599683 0
M  V30 74112 H 7069.75 2.57164 -1.54294 0
M  V30 74113 H 7067.31 1.32059 -0.836073 0
M  V30 74114 H 7068.04 3.09275 0.975682 0
M  V30 74115 H 7067.83 3.87191 -0.618523 0
M  V30 74116 H 7069.32 4.16311 0.327863 0
M  V30 74117 N 7069.75 0.823035 1.34402 0
M  V30 74118 C 7070.72 0.250391 2.27828 0
M  V30 74119 C 7071.72 -0.571774 1.50291 0
M  V30 74120 O 7072.91 -0.387863 1.69827 0
M  V30 74121 C 7070.04 -0.64896 3.34666 0
M  V30 74122 H 7071.23 1.07459 2.79987 0
M  V30 74123 H 7068.78 0.594906 1.44536 0
M  V30 74124 H 7069.52 -1.49621 2.87722 0
M  V30 74125 H 7069.3 -0.0609132 3.92053 0
M  V30 74126 H 7070.79 -1.04342 4.04355 0
M  V30 74127 N 7071.23 -1.46618 0.578009 0
M  V30 74128 C 7072.65 -1.57795 0.239325 0
M  V30 74129 C 7072.85 -1.57378 -1.25835 0
M  V30 74130 O 7071.9 -1.48824 -2.0398 0
M  V30 74131 C 7073.22 -2.87401 0.884378 0
M  V30 74132 C 7074.76 -3.01024 0.857532 0
M  V30 74133 C 7075.24 -4.33358 1.48204 0
M  V30 74134 N 7076.73 -4.40046 1.44617 0
M  V30 74135 C 7077.46 -5.41048 1.89881 0
M  V30 74136 N 7076.96 -6.4875 2.43096 0
M  V30 74137 N 7078.75 -5.3222 1.80826 0
M  V30 74138 H 7070.9 -1.45133 1.55081 0
M  V30 74139 H 7073.17 -0.69201 0.64794 0
M  V30 74140 H 7072.87 -2.93504 1.93775 0
M  V30 74141 H 7072.75 -3.75181 0.389783 0
M  V30 74142 H 7075.13 -2.94506 -0.187202 0
M  V30 74143 H 7075.22 -2.14732 1.3901 0
M  V30 74144 H 7074.86 -4.40634 2.52595 0
M  V30 74145 H 7074.79 -5.18417 0.924738 0
M  V30 74146 H 7077.28 -3.62813 1.05713 0
M  V30 74147 H 7077.59 -7.22023 2.75504 0
M  V30 74148 H 7075.94 -6.49582 2.47119 0
M  V30 74149 H 7079.13 -4.46982 1.39013 0
M  V30 74150 H 7079.3 -6.10792 2.16418 0
M  V30 74151 N 7072.71 -0.315538 -1.54409 0
M  V30 74152 C 7074.12 0.0373798 -1.59556 0
M  V30 74153 C 7074.32 1.51173 -1.33225 0
M  V30 74154 O 7073.38 2.26658 -1.11276 0
M  V30 74155 C 7074.69 -0.373635 -2.9837 0
M  V30 74156 C 7076.24 -0.323616 -3.11323 0
M  V30 74157 C 7076.72 -0.709671 -4.52468 0
M  V30 74158 N 7078.21 -0.662766 -4.58434 0
M  V30 74159 C 7078.94 -0.933773 -5.65746 0
M  V30 74160 N 7078.44 -1.2715 -6.81032 0
M  V30 74161 N 7080.23 -0.859866 -5.55484 0
M  V30 74162 H 7072.38 -1.27623 -1.69783 0
M  V30 74163 H 7074.65 -0.518398 -0.793705 0
M  V30 74164 H 7074.35 -1.40054 -3.22611 0
M  V30 74165 H 7074.23 0.265416 -3.76265 0
M  V30 74166 H 7076.61 0.694072 -2.86822 0
M  V30 74167 H 7076.69 -0.997491 -2.3555 0
M  V30 74168 H 7076.34 -1.72524 -4.77701 0
M  V30 74169 H 7076.27 -0.01357 -5.26598 0
M  V30 74170 H 7078.76 -0.413263 -3.75634 0
M  V30 74171 H 7079.07 -1.46388 -7.58809 0
M  V30 74172 H 7077.42 -1.30968 -6.82548 0
M  V30 74173 H 7080.61 -0.595569 -4.64296 0
M  V30 74174 H 7080.78 -1.07443 -6.3903 0
M  V30 74175 N 7074.19 1.5754 -0.0435444 0
M  V30 74176 C 7075.1 2.14557 0.948817 0
M  V30 74177 C 7076.11 1.10143 1.34702 0
M  V30 74178 O 7077.29 1.42273 1.42549 0
M  V30 74179 C 7074.35 2.6731 2.20785 0
M  V30 74180 C 7073.41 3.86493 1.86872 0
M  V30 74181 C 7072.65 4.36721 3.06774 0
M  V30 74182 O 7072.87 3.86056 4.19901 0
M  V30 74183 O 7071.8 5.284 2.88232 0
M  V30 74184 H 7075.63 2.99656 0.493941 0
M  V30 74185 H 7073.22 1.48337 0.177911 0
M  V30 74186 H 7075.1 3.01244 2.9467 0
M  V30 74187 H 7073.77 1.85286 2.65426 0
M  V30 74188 H 7072.68 3.57461 1.10328 0
M  V30 74189 H 7074.01 4.69724 1.47037 0
M  V30 74190 N 7075.66 -0.229763 1.55916 0
M  V30 74191 C 7076.89 -0.972466 1.82622 0
M  V30 74192 C 7077.31 -1.78274 0.621582 0
M  V30 74193 O 7076.66 -1.77838 -0.409862 0
M  V30 74194 C 7076.72 -1.89663 3.0775 0
M  V30 74195 O 7076.44 -1.11912 4.23565 0
M  V30 74196 C 7077.94 -2.75391 3.47383 0
M  V30 74197 H 7075.16 -0.285387 0.607285 0
M  V30 74198 H 7077.7 -0.247472 2.02997 0
M  V30 74199 H 7075.86 -2.57568 2.89374 0
M  V30 74200 H 7076.27 -1.74573 4.94595 0
M  V30 74201 H 7077.74 -3.35954 4.37994 0
M  V30 74202 H 7078.22 -3.47372 2.68755 0
M  V30 74203 H 7078.83 -2.12912 3.68169 0
M  V30 74204 N 7077.14 -1.49587 -0.496137 0
M  V30 74205 C 7078.56 -1.36457 -0.827742 0
M  V30 74206 C 7078.76 -0.401389 -1.97462 0
M  V30 74207 O 7077.81 0.165163 -2.51959 0
M  V30 74208 C 7079.13 -2.77284 -1.16337 0
M  V30 74209 C 7080.68 -2.86019 -1.2713 0
M  V30 74210 C 7081.15 -4.27623 -1.64019 0
M  V30 74211 N 7082.64 -4.30457 -1.71059 0
M  V30 74212 C 7083.38 -5.36995 -2.01057 0
M  V30 74213 N 7082.87 -6.53772 -2.29246 0
M  V30 74214 N 7084.67 -5.24415 -2.02349 0
M  V30 74215 H 7076.82 -2.10802 0.260058 0
M  V30 74216 H 7079.08 -0.946474 0.0537662 0
M  V30 74217 H 7078.79 -3.49486 -0.393969 0
M  V30 74218 H 7078.66 -3.12957 -2.10565 0
M  V30 74219 H 7081.05 -2.14051 -2.03141 0
M  V30 74220 H 7081.13 -2.53922 -0.309409 0
M  V30 74221 H 7080.77 -5.0012 -0.885566 0
M  V30 74222 H 7080.7 -4.57189 -2.61316 0
M  V30 74223 H 7083.19 -3.4624 -1.51415 0
M  V30 74224 H 7083.51 -7.30787 -2.51337 0
M  V30 74225 H 7081.85 -6.5699 -2.26691 0
M  V30 74226 H 7085.04 -4.32189 -1.79806 0
M  V30 74227 H 7085.21 -6.07538 -2.25393 0
M  V30 74228 N 7078.62 0.747537 -1.38743 0
M  V30 74229 C 7079.58 1.84305 -1.36251 0
M  V30 74230 C 7080.58 1.58653 -0.261895 0
M  V30 74231 O 7081.77 1.66285 -0.519119 0
M  V30 74232 C 7078.91 3.21882 -1.1227 0
M  V30 74233 H 7080.1 1.87921 -2.33722 0
M  V30 74234 H 7077.65 0.94988 -1.24125 0
M  V30 74235 H 7078.39 3.23933 -0.154304 0
M  V30 74236 H 7078.17 3.41897 -1.91961 0
M  V30 74237 H 7079.66 4.01954 -1.13237 0
M  V30 74238 N 7080.1 1.23712 0.976376 0
M  V30 74239 C 7081.01 1.03867 2.10354 0
M  V30 74240 C 7082.03 -0.0180002 1.73991 0
M  V30 74241 O 7083.2 0.178317 2.00609 0
M  V30 74242 C 7080.27 0.636566 3.40806 0
M  V30 74243 C 7079.33 1.76874 3.9117 0
M  V30 74244 C 7078.56 1.38573 5.15396 0
M  V30 74245 O 7078.78 0.271721 5.69752 0
M  V30 74246 O 7077.72 2.20826 5.59928 0
M  V30 74247 H 7081.54 1.98343 2.29987 0
M  V30 74248 H 7079.13 1.02453 1.08737 0
M  V30 74249 H 7081.01 0.423444 4.19267 0
M  V30 74250 H 7079.69 -0.279152 3.22494 0
M  V30 74251 H 7078.59 2.03654 3.13809 0
M  V30 74252 H 7079.93 2.66292 4.13944 0
M  V30 74253 N 7081.58 -1.17575 1.04947 0
M  V30 74254 C 7082.52 -2.21509 0.648272 0
M  V30 74255 C 7083.49 -1.62406 -0.348345 0
M  V30 74256 O 7084.68 -1.8928 -0.240319 0
M  V30 74257 C 7081.82 -3.4509 0.0266111 0
M  V30 74258 C 7080.93 -4.18494 1.07176 0
M  V30 74259 C 7080.07 -5.29555 0.417682 0
M  V30 74260 C 7079.11 -5.94743 1.44731 0
M  V30 74261 N 7078.24 -6.97324 0.81757 0
M  V30 74262 H 7083.08 -2.55181 1.53905 0
M  V30 74263 H 7080.62 -1.25352 0.769765 0
M  V30 74264 H 7082.58 -4.15719 -0.351237 0
M  V30 74265 H 7081.21 -3.1201 -0.827637 0
M  V30 74266 H 7080.26 -3.46604 1.56747 0
M  V30 74267 H 7081.57 -4.63086 1.85345 0
M  V30 74268 H 7080.73 -6.06698 -0.0138861 0
M  V30 74269 H 7079.47 -4.8609 -0.396009 0
M  V30 74270 H 7078.47 -5.16333 1.88892 0
M  V30 74271 H 7079.7 -6.4029 2.26286 0
M  V30 74272 H 7077.64 -6.55995 0.0243454 0
M  V30 74273 H 7077.56 -7.40215 1.53683 0
M  V30 74274 H 7078.83 -7.78417 0.410694 0
M  V30 74275 N 7083.06 -0.830151 -1.33964 0
M  V30 74276 C 7084 -0.255129 -2.29386 0
M  V30 74277 C 7084.97 0.624162 -1.53927 0
M  V30 74278 O 7086.16 0.564276 -1.82265 0
M  V30 74279 C 7083.3 0.57103 -3.40343 0
M  V30 74280 C 7082.41 -0.33131 -4.30728 0
M  V30 74281 C 7081.55 0.505111 -5.28793 0
M  V30 74282 C 7080.58 -0.396165 -6.10817 0
M  V30 74283 N 7079.72 0.40161 -7.0095 0
M  V30 74284 H 7084.56 -1.07419 -2.77966 0
M  V30 74285 H 7082.1 -0.541205 -1.36782 0
M  V30 74286 H 7084.06 1.06541 -4.03367 0
M  V30 74287 H 7082.69 1.35514 -2.92978 0
M  V30 74288 H 7081.74 -0.943953 -3.68502 0
M  V30 74289 H 7083.05 -1.02402 -4.88175 0
M  V30 74290 H 7082.2 1.06368 -5.97303 0
M  V30 74291 H 7080.94 1.2313 -4.71901 0
M  V30 74292 H 7079.95 -0.966814 -5.41233 0
M  V30 74293 H 7081.17 -1.12058 -6.69791 0
M  V30 74294 H 7079.12 1.11134 -6.46518 0
M  V30 74295 H 7079.04 -0.232566 -7.55642 0
M  V30 74296 H 7080.3 0.942694 -7.73779 0
M  V30 74297 N 7084.53 1.46309 -0.585776 0
M  V30 74298 C 7085.95 1.57666 -0.24769 0
M  V30 74299 C 7086.15 1.58043 1.24999 0
M  V30 74300 O 7085.21 1.49903 2.03188 0
M  V30 74301 C 7086.52 2.86928 -0.899608 0
M  V30 74302 C 7088.07 3.00565 -0.873484 0
M  V30 74303 C 7088.54 4.32566 -1.505 0
M  V30 74304 N 7090.03 4.39273 -1.46948 0
M  V30 74305 C 7090.77 5.40033 -1.92747 0
M  V30 74306 N 7090.26 6.47451 -2.46533 0
M  V30 74307 N 7092.06 5.31254 -1.83646 0
M  V30 74308 H 7084.21 1.44309 -1.55848 0
M  V30 74309 H 7086.47 0.688564 -0.651601 0
M  V30 74310 H 7086.18 2.92472 -1.95328 0
M  V30 74311 H 7086.05 3.74969 -0.409674 0
M  V30 74312 H 7088.44 2.94601 0.171581 0
M  V30 74313 H 7088.52 2.13992 -1.40147 0
M  V30 74314 H 7088.16 4.39288 -2.54928 0
M  V30 74315 H 7088.09 5.17919 -0.952217 0
M  V30 74316 H 7090.58 3.62247 -1.07635 0
M  V30 74317 H 7090.9 7.20552 -2.79329 0
M  V30 74318 H 7089.24 6.48263 -2.5056 0
M  V30 74319 H 7092.43 4.46239 -1.41381 0
M  V30 74320 H 7092.61 6.09636 -2.19654 0
M  V30 74321 N 7086.01 0.323722 1.54239 0
M  V30 74322 C 7086.94 -0.584717 2.20582 0
M  V30 74323 C 7087.92 -1.1156 1.18292 0
M  V30 74324 O 7089.11 -1.17958 1.47031 0
M  V30 74325 C 7086.23 -1.80234 2.86764 0
M  V30 74326 C 7085.28 -1.40268 4.02774 0
M  V30 74327 S 7086.11 -0.439258 5.33695 0
M  V30 74328 C 7087.27 -1.66416 6.03371 0
M  V30 74329 H 7087.5 -0.021167 2.97292 0
M  V30 74330 H 7085.03 0.107807 1.54023 0
M  V30 74331 H 7086.99 -2.50099 3.25516 0
M  V30 74332 H 7085.65 -2.33708 2.09856 0
M  V30 74333 H 7084.85 -2.31 4.47945 0
M  V30 74334 H 7084.45 -0.783736 3.65696 0
M  V30 74335 H 7086.74 -2.60157 6.25559 0
M  V30 74336 H 7087.68 -1.25461 6.96897 0
M  V30 74337 H 7088.09 -1.85121 5.33283 0
M  V30 74338 N 7087.49 -1.57515 0.0518986 0
M  V30 74339 C 7088.45 -2.10471 -0.907436 0
M  V30 74340 C 7089.45 -1.02446 -1.23941 0
M  V30 74341 O 7090.64 -1.28516 -1.17598 0
M  V30 74342 C 7087.77 -2.58955 -2.21709 0
M  V30 74343 H 7088.97 -2.9653 -0.448353 0
M  V30 74344 H 7086.52 -1.5506 -0.196516 0
M  V30 74345 H 7087.26 -1.76293 -2.72197 0
M  V30 74346 H 7087.04 -3.37897 -1.98917 0
M  V30 74347 H 7088.53 -3.00072 -2.90425 0
M  V30 74348 N 7088.97 0.221492 -1.56036 0
M  V30 74349 C 7089.9 1.30168 -1.87434 0
M  V30 74350 C 7090.88 1.45205 -0.731735 0
M  V30 74351 O 7092.06 1.61016 -0.980101 0
M  V30 74352 C 7089.19 2.67198 -2.08141 0
M  V30 74353 C 7088.24 2.69176 -3.30827 0
M  V30 74354 S 7089.07 2.23238 -4.8675 0
M  V30 74355 C 7090.22 3.62144 -5.10493 0
M  V30 74356 H 7090.46 1.03341 -2.78762 0
M  V30 74357 H 7087.99 0.423735 -1.48472 0
M  V30 74358 H 7089.95 3.46089 -2.20754 0
M  V30 74359 H 7088.61 2.9125 -1.17611 0
M  V30 74360 H 7087.8 3.69872 -3.4236 0
M  V30 74361 H 7087.4 1.98349 -3.1707 0
M  V30 74362 H 7089.7 4.57833 -4.99395 0
M  V30 74363 H 7090.64 3.55526 -6.12378 0
M  V30 74364 H 7091.05 3.55834 -4.38226 0
M  V30 74365 N 7090.45 1.49848 0.488197 0
M  V30 74366 C 7091.41 1.66928 1.5706 0
M  V30 74367 C 7092.41 0.540559 1.51442 0
M  V30 74368 O 7093.6 0.80727 1.54366 0
M  V30 74369 C 7090.73 1.67859 2.96709 0
M  V30 74370 H 7091.92 2.63481 1.4324 0
M  V30 74371 H 7089.48 1.39071 0.713361 0
M  V30 74372 H 7090.21 0.729367 3.15992 0
M  V30 74373 H 7090 2.49842 3.02194 0
M  V30 74374 H 7091.49 1.83086 3.75325 0
M  V30 74375 N 7091.92 -0.740169 1.39138 0
M  V30 74376 C 7092.86 -1.86269 1.3183 0
M  V30 74377 C 7093.83 -1.61452 0.192879 0
M  V30 74378 O 7095.02 -1.84784 0.372463 0
M  V30 74379 C 7092.15 -3.2215 1.04581 0
M  V30 74380 C 7091.19 -3.65834 2.19243 0
M  V30 74381 S 7092.02 -3.75804 3.81486 0
M  V30 74382 C 7093.18 -5.14483 3.56452 0
M  V30 74383 H 7093.41 -1.92183 2.26832 0
M  V30 74384 H 7090.95 -0.90451 1.25132 0
M  V30 74385 H 7092.9 -4.00615 0.895439 0
M  V30 74386 H 7091.57 -3.13898 0.112743 0
M  V30 74387 H 7090.76 -4.6443 1.95757 0
M  V30 74388 H 7090.36 -2.9456 2.30457 0
M  V30 74389 H 7092.65 -6.00657 3.13397 0
M  V30 74390 H 7093.6 -5.42995 4.5449 0
M  V30 74391 H 7094 -4.83915 2.90666 0
M  V30 74392 N 7093.4 -1.24228 -0.969802 0
M  V30 74393 C 7094.82 -1.00722 -1.23803 0
M  V30 74394 C 7095.02 0.285253 -1.99471 0
M  V30 74395 O 7094.07 1.00195 -2.3177 0
M  V30 74396 C 7095.39 -2.2209 -2.02722 0
M  V30 74397 C 7096.93 -2.26693 -2.15822 0
M  V30 74398 C 7097.41 -3.47676 -2.98136 0
M  V30 74399 N 7098.9 -3.4798 -3.05719 0
M  V30 74400 C 7099.64 -4.38251 -3.69762 0
M  V30 74401 N 7099.13 -5.38773 -4.35541 0
M  V30 74402 N 7100.92 -4.25968 -3.66753 0
M  V30 74403 H 7093.08 -2.07288 -0.463184 0
M  V30 74404 H 7095.34 -0.909536 -0.2673 0
M  V30 74405 H 7095.04 -3.15943 -1.54508 0
M  V30 74406 H 7094.92 -2.24037 -3.03459 0
M  V30 74407 H 7097.31 -1.33373 -2.63241 0
M  V30 74408 H 7097.39 -2.28773 -1.14441 0
M  V30 74409 H 7097.03 -4.4131 -2.51412 0
M  V30 74410 H 7096.96 -3.42839 -3.99711 0
M  V30 74411 H 7099.45 -2.75256 -2.58926 0
M  V30 74412 H 7099.76 -6.03891 -4.82219 0
M  V30 74413 H 7098.11 -5.42662 -4.34216 0
M  V30 74414 H 7101.3 -3.46673 -3.1454 0
M  V30 74415 H 7101.47 -4.96519 -4.16381 0
M  V30 74416 N 7094.88 1.17017 -1.05569 0
M  V30 74417 C 7095.81 2.20711 -0.618005 0
M  V30 74418 C 7096.83 1.5962 0.320219 0
M  V30 74419 O 7098.01 1.78146 0.112355 0
M  V30 74420 C 7095.11 3.38704 0.115155 0
M  V30 74421 C 7094.29 4.29361 -0.83472 0
M  V30 74422 C 7093.35 5.26008 -0.142133 0
M  V30 74423 O 7092.37 5.63866 -0.777449 0
M  V30 74424 N 7093.57 5.69612 1.11904 0
M  V30 74425 H 7096.34 2.58884 -1.50995 0
M  V30 74426 H 7093.9 1.31953 -0.938078 0
M  V30 74427 H 7095.89 4.00395 0.588707 0
M  V30 74428 H 7094.46 2.99098 0.908809 0
M  V30 74429 H 7093.68 3.65045 -1.48781 0
M  V30 74430 H 7094.97 4.86819 -1.47935 0
M  V30 74431 H 7094.37 5.40935 1.65546 0
M  V30 74432 H 7092.93 6.33429 1.53659 0
M  V30 74433 N 7096.36 0.837244 1.33521 0
M  V30 74434 C 7097.31 0.26729 2.29247 0
M  V30 74435 C 7098.28 -0.61599 1.54256 0
M  V30 74436 O 7099.46 -0.554602 1.82562 0
M  V30 74437 C 7096.6 -0.552973 3.40641 0
M  V30 74438 C 7095.71 0.354148 4.30546 0
M  V30 74439 C 7094.85 -0.47706 5.29053 0
M  V30 74440 C 7093.89 0.428552 6.10598 0
M  V30 74441 N 7093.02 -0.364431 7.01154 0
M  V30 74442 H 7097.86 1.08892 2.77393 0
M  V30 74443 H 7095.4 0.548452 1.36493 0
M  V30 74444 H 7097.36 -1.04401 4.03926 0
M  V30 74445 H 7095.99 -1.33958 2.93692 0
M  V30 74446 H 7095.04 0.963483 3.67996 0
M  V30 74447 H 7096.35 1.0499 4.87625 0
M  V30 74448 H 7095.51 -1.03199 5.97859 0
M  V30 74449 H 7094.25 -1.20625 4.72547 0
M  V30 74450 H 7093.25 0.995504 5.40712 0
M  V30 74451 H 7094.48 1.15608 6.69187 0
M  V30 74452 H 7092.42 -1.07704 6.47098 0
M  V30 74453 H 7092.34 0.272636 7.55508 0
M  V30 74454 H 7093.61 -0.901645 7.74268 0
M  V30 74455 N 7097.84 -1.45997 0.593527 0
M  V30 74456 C 7098.8 -2.28867 -0.123417 0
M  V30 74457 C 7099.8 -1.38993 -0.808555 0
M  V30 74458 O 7100.99 -1.6126 -0.65886 0
M  V30 74459 C 7098.12 -3.19659 -1.18453 0
M  V30 74460 H 7099.31 -2.93734 0.604998 0
M  V30 74461 H 7096.87 -1.52286 0.351955 0
M  V30 74462 H 7097.6 -2.59562 -1.94417 0
M  V30 74463 H 7097.39 -3.85844 -0.697626 0
M  V30 74464 H 7098.88 -3.82005 -1.68706 0
M  V30 74465 N 7099.31 -0.331898 -1.54066 0
M  V30 74466 C 7100.24 0.522812 -2.27572 0
M  V30 74467 C 7101.23 1.1124 -1.28685 0
M  V30 74468 O 7102.41 1.13597 -1.5751 0
M  V30 74469 C 7099.54 1.67971 -3.03979 0
M  V30 74470 C 7098.49 1.21902 -4.10273 0
M  V30 74471 C 7097.82 2.46352 -4.74568 0
M  V30 74472 C 7099.12 0.327875 -5.2127 0
M  V30 74473 H 7100.81 -0.0903555 -2.99264 0
M  V30 74474 H 7098.36 -0.0448969 -1.4393 0
M  V30 74475 H 7100.31 2.28399 -3.54135 0
M  V30 74476 H 7099.04 2.31959 -2.29918 0
M  V30 74477 H 7097.7 0.637618 -3.61012 0
M  V30 74478 H 7097.34 3.08722 -3.97114 0
M  V30 74479 H 7097.04 2.16215 -5.46374 0
M  V30 74480 H 7098.57 3.07528 -5.27503 0
M  V30 74481 H 7099.98 0.838679 -5.67132 0
M  V30 74482 H 7098.38 0.118911 -5.99982 0
M  V30 74483 H 7099.45 -0.639093 -4.8067 0
M  V30 74484 N 7100.79 1.57485 -0.0602512 0
M  V30 74485 C 7102.04 1.92665 0.610285 0
M  V30 74486 C 7102.36 0.940071 1.70844 0
M  V30 74487 O 7101.63 -0.0136422 1.95895 0
M  V30 74488 H 7100.21 0.71122 0.22842 0
M  V30 74489 H 7102.87 1.94558 -0.115391 0
M  V30 74490 H 7101.97 2.94155 1.04305 0
M  V30 74491 N 7102.27 -0.213214 1.56151 0
M  V30 74492 C 7103.5 -0.953042 1.83643 0
M  V30 74493 C 7103.91 -1.77605 0.640456 0
M  V30 74494 O 7103.27 -1.78263 -0.390977 0
M  V30 74495 C 7103.32 -1.86388 3.09745 0
M  V30 74496 O 7103.04 -1.07413 4.24728 0
M  V30 74497 C 7104.54 -2.71691 3.50284 0
M  V30 74498 H 7101.76 -0.27893 0.610278 0
M  V30 74499 H 7104.31 -0.225927 2.03248 0
M  V30 74500 H 7102.46 -2.54484 2.9209 0
M  V30 74501 H 7102.88 -1.69317 4.96419 0
M  V30 74502 H 7104.35 -3.3129 4.41533 0
M  V30 74503 H 7104.83 -3.44502 2.72424 0
M  V30 74504 H 7105.43 -2.08995 3.70407 0
M  V30 74505 N 7103.75 -1.50105 -0.480243 0
M  V30 74506 C 7104.68 -1.71223 -1.5876 0
M  V30 74507 C 7105.66 -0.561081 -1.6058 0
M  V30 74508 O 7106.84 -0.799221 -1.76992 0
M  V30 74509 C 7103.97 -1.79794 -2.97139 0
M  V30 74510 C 7102.93 -2.94905 -3.10186 0
M  V30 74511 C 7102.25 -2.88608 -4.50122 0
M  V30 74512 C 7103.55 -4.35549 -2.8826 0
M  V30 74513 H 7105.25 -2.63938 -1.4134 0
M  V30 74514 H 7102.79 -1.27012 -0.678524 0
M  V30 74515 H 7104.75 -1.93153 -3.74526 0
M  V30 74516 H 7103.47 -0.836938 -3.15694 0
M  V30 74517 H 7102.13 -2.81181 -2.35229 0
M  V30 74518 H 7101.78 -1.90373 -4.65582 0
M  V30 74519 H 7101.48 -3.6588 -4.59788 0
M  V30 74520 H 7103 -3.04004 -5.29542 0
M  V30 74521 H 7104.42 -4.49846 -3.55403 0
M  V30 74522 H 7102.81 -5.14202 -3.09381 0
M  V30 74523 H 7103.88 -4.48553 -1.84195 0
M  V30 74524 N 7105.23 0.732779 -1.39528 0
M  V30 74525 C 7106.47 1.48944 -1.36602 0
M  V30 74526 C 7106.8 1.94966 0.0366479 0
M  V30 74527 O 7106.07 1.69143 0.988302 0
M  V30 74528 H 7104.65 0.552539 -0.502702 0
M  V30 74529 H 7107.31 0.869777 -1.74416 0
M  V30 74530 H 7106.4 2.3705 -2.03012 0
M  V30 74531 N 7106.7 1.24741 0.9632 0
M  V30 74532 C 7107.64 0.98696 2.05753 0
M  V30 74533 C 7108.62 -0.0808416 1.62399 0
M  V30 74534 O 7109.8 0.0570341 1.88414 0
M  V30 74535 C 7106.93 0.490272 3.35133 0
M  V30 74536 C 7105.97 1.5473 3.97443 0
M  V30 74537 S 7106.81 3.12999 4.34502 0
M  V30 74538 C 7107.96 2.65044 5.67012 0
M  V30 74539 H 7108.19 1.91358 2.27529 0
M  V30 74540 H 7105.73 1.08175 1.1017 0
M  V30 74541 H 7107.69 0.210336 4.09961 0
M  V30 74542 H 7106.35 -0.415709 3.11337 0
M  V30 74543 H 7105.54 1.15029 4.90698 0
M  V30 74544 H 7105.14 1.77748 3.29062 0
M  V30 74545 H 7107.43 2.08136 6.44737 0
M  V30 74546 H 7108.38 3.56905 6.11575 0
M  V30 74547 H 7108.78 2.05322 5.25836 0
M  V30 74548 N 7108.18 -1.16455 1.06188 0
M  V30 74549 C 7109.41 -1.90863 0.798684 0
M  V30 74550 C 7109.83 -1.77374 -0.646828 0
M  V30 74551 O 7109.18 -1.11766 -1.44273 0
M  V30 74552 C 7109.23 -3.41604 1.18276 0
M  V30 74553 O 7108.95 -3.54688 2.57154 0
M  V30 74554 C 7110.46 -4.33064 0.947145 0
M  V30 74555 H 7107.68 -0.605271 0.289635 0
M  V30 74556 H 7110.22 -1.47619 1.41523 0
M  V30 74557 H 7108.37 -3.82555 0.610764 0
M  V30 74558 H 7108.79 -4.48156 2.72501 0
M  V30 74559 H 7110.26 -5.37298 1.26552 0
M  V30 74560 H 7110.74 -4.39044 -0.117175 0
M  V30 74561 H 7111.35 -3.97839 1.50347 0
M  V30 74562 N 7109.66 -0.844313 -1.33076 0
M  V30 74563 C 7110.89 -0.456309 -2.01805 0
M  V30 74564 C 7111.3 0.944044 -1.63503 0
M  V30 74565 O 7110.66 1.61439 -0.851105 0
M  V30 74566 C 7110.71 -0.573701 -3.56919 0
M  V30 74567 O 7110.43 -1.91888 -3.93841 0
M  V30 74568 C 7111.93 -0.183359 -4.42921 0
M  V30 74569 H 7109.15 -0.180512 -0.646264 0
M  V30 74570 H 7111.7 -1.13839 -1.69885 0
M  V30 74571 H 7109.85 0.0605324 -3.87353 0
M  V30 74572 H 7110.27 -1.90828 -4.88554 0
M  V30 74573 H 7111.74 -0.316531 -5.51092 0
M  V30 74574 H 7112.22 0.87525 -4.30391 0
M  V30 74575 H 7112.82 -0.792247 -4.17856 0
M  V30 74576 N 7111.14 1.4568 -0.601261 0
M  V30 74577 C 7112.09 2.32215 0.133833 0
M  V30 74578 C 7113.08 1.45594 0.865957 0
M  V30 74579 O 7114.29 1.62114 0.78224 0
M  V30 74580 H 7110.66 0.749438 0.0620218 0
M  V30 74581 H 7112.63 2.92003 -0.614543 0
M  V30 74582 C 7111.38 3.291 1.12199 0
M  V30 74583 H 7110.71 3.95744 0.568064 0
M  V30 74584 H 7112.15 3.92392 1.60639 0
M  V30 74585 C 7110.6 2.55806 2.19237 0
M  V30 74586 O 7111.13 2.33476 3.26882 0
M  V30 74587 N 7109.34 2.16049 1.94348 0
M  V30 74588 H 7108.89 2.3441 1.06817 0
M  V30 74589 H 7108.85 1.67332 2.66172 0
M  V30 74590 N 7112.62 0.340063 1.53887 0
M  V30 74591 C 7113.53 -0.526868 2.28607 0
M  V30 74592 C 7114.54 -1.11496 1.33584 0
M  V30 74593 O 7115.72 -1.13139 1.66618 0
M  V30 74594 C 7112.78 -1.66373 3.04173 0
M  V30 74595 C 7111.85 -1.10578 4.14815 0
M  V30 74596 C 7111.08 -2.18846 4.86767 0
M  V30 74597 O 7111.3 -3.39502 4.58361 0
M  V30 74598 O 7110.24 -1.83336 5.73299 0
M  V30 74599 H 7114.06 0.0804308 3.03593 0
M  V30 74600 H 7111.65 0.10522 1.49029 0
M  V30 74601 H 7113.53 -2.32526 3.51439 0
M  V30 74602 H 7112.2 -2.2569 2.32046 0
M  V30 74603 H 7111.11 -0.408871 3.71859 0
M  V30 74604 H 7112.44 -0.557513 4.89032 0
M  V30 74605 N 7114.1 -1.57451 0.0686022 0
M  V30 74606 C 7115.04 -2.1254 -0.899749 0
M  V30 74607 C 7116.01 -1.0371 -1.29744 0
M  V30 74608 O 7117.2 -1.31355 -1.38386 0
M  V30 74609 C 7114.34 -2.68891 -2.16313 0
M  V30 74610 C 7113.45 -3.91867 -1.81837 0
M  V30 74611 C 7112.59 -4.36472 -3.02763 0
M  V30 74612 C 7111.62 -5.52104 -2.64288 0
M  V30 74613 N 7110.76 -5.91683 -3.77963 0
M  V30 74614 H 7115.6 -2.94981 -0.423087 0
M  V30 74615 H 7113.14 -1.45772 -0.197191 0
M  V30 74616 H 7115.1 -2.9967 -2.90265 0
M  V30 74617 H 7113.73 -1.8922 -2.61526 0
M  V30 74618 H 7112.78 -3.6757 -0.979614 0
M  V30 74619 H 7114.09 -4.7586 -1.49528 0
M  V30 74620 H 7113.24 -4.68896 -3.84996 0
M  V30 74621 H 7111.98 -3.51326 -3.38263 0
M  V30 74622 H 7110.99 -5.19335 -1.80475 0
M  V30 74623 H 7112.21 -6.38979 -2.29961 0
M  V30 74624 H 7110.16 -5.09486 -4.13231 0
M  V30 74625 H 7110.08 -6.70409 -3.49411 0
M  V30 74626 H 7111.34 -6.28727 -4.60784 0
M  V30 74627 N 7115.57 0.204929 -1.56262 0
M  V30 74628 C 7116.82 0.925001 -1.79689 0
M  V30 74629 C 7117.14 1.84199 -0.639987 0
M  V30 74630 O 7116.41 1.92887 0.342244 0
M  V30 74631 H 7114.99 0.344552 -0.662792 0
M  V30 74632 H 7117.65 0.212797 -1.93735 0
M  V30 74633 H 7116.75 1.52197 -2.72475 0
M  V30 74634 N 7117.05 1.50357 0.472276 0
M  V30 74635 C 7117.98 1.65286 1.58786 0
M  V30 74636 C 7119 0.534394 1.53779 0
M  V30 74637 O 7120.19 0.80753 1.59189 0
M  V30 74638 C 7117.29 1.62017 2.97664 0
M  V30 74639 C 7116.46 2.89876 3.27553 0
M  V30 74640 C 7115.52 2.79266 4.45979 0
M  V30 74641 O 7114.54 3.53221 4.46345 0
M  V30 74642 N 7115.75 1.92742 5.47568 0
M  V30 74643 H 7118.51 2.61511 1.46397 0
M  V30 74644 H 7116.07 1.47806 0.660673 0
M  V30 74645 H 7118.06 1.52533 3.74854 0
M  V30 74646 H 7116.63 0.735319 3.03829 0
M  V30 74647 H 7115.85 3.13495 2.38986 0
M  V30 74648 H 7117.14 3.74583 3.44332 0
M  V30 74649 H 7116.54 1.31968 5.50092 0
M  V30 74650 H 7115.1 1.89162 6.23747 0
M  V30 74651 N 7118.53 -0.72537 1.39915 0
M  V30 74652 C 7119.78 -1.4873 1.37866 0
M  V30 74653 C 7120.11 -1.94187 -0.0223163 0
M  V30 74654 O 7119.38 -1.67472 -0.989116 0
M  V30 74655 C 7119.67 -2.72025 2.35954 0
M  V30 74656 C 7119.52 -2.32526 3.85035 0
M  V30 74657 C 7120.84 -3.74155 2.31724 0
M  V30 74658 H 7117.96 -0.539502 0.502103 0
M  V30 74659 H 7120.6 -0.828637 1.70978 0
M  V30 74660 H 7118.75 -3.28225 2.07848 0
M  V30 74661 H 7120.42 -1.81883 4.2393 0
M  V30 74662 H 7118.66 -1.6464 4.01343 0
M  V30 74663 H 7119.34 -3.20861 4.49169 0
M  V30 74664 H 7121.81 -3.27562 2.56597 0
M  V30 74665 H 7120.69 -4.58076 3.02419 0
M  V30 74666 H 7120.95 -4.21761 1.32552 0
M  V30 74667 N 7120.01 -1.2525 -0.956571 0
M  V30 74668 C 7121.25 -1.10045 -1.70346 0
M  V30 74669 C 7121.59 0.358055 -1.90871 0
M  V30 74670 O 7120.86 1.26403 -1.47826 0
M  V30 74671 C 7121.14 -1.85315 -3.08756 0
M  V30 74672 C 7121 -3.38982 -2.95654 0
M  V30 74673 C 7122.32 -1.63473 -4.08613 0
M  V30 74674 H 7119.44 -0.401155 -0.618258 0
M  V30 74675 H 7122.08 -1.54057 -1.11204 0
M  V30 74676 H 7120.23 -1.47906 -3.59244 0
M  V30 74677 H 7121.9 -3.86054 -2.52507 0
M  V30 74678 H 7120.14 -3.66793 -2.31615 0
M  V30 74679 H 7120.81 -3.8686 -3.93756 0
M  V30 74680 H 7123.29 -1.96035 -3.67028 0
M  V30 74681 H 7122.17 -2.18577 -5.03503 0
M  V30 74682 H 7122.43 -0.575588 -4.38337 0
M  V30 74683 N 7121.49 1.1589 -1.06804 0
M  V30 74684 C 7122.71 1.90437 -0.808795 0
M  V30 74685 C 7123.13 1.77715 0.637412 0
M  V30 74686 O 7122.49 1.1253 1.43678 0
M  V30 74687 C 7122.54 3.40972 -1.20086 0
M  V30 74688 O 7122.26 3.53319 -2.59031 0
M  V30 74689 C 7123.76 4.32555 -0.970098 0
M  V30 74690 H 7120.98 0.603726 -0.292841 0
M  V30 74691 H 7123.52 1.46867 -1.42304 0
M  V30 74692 H 7121.68 3.82226 -0.631043 0
M  V30 74693 H 7122.09 4.46704 -2.74874 0
M  V30 74694 H 7123.57 5.36619 -1.29399 0
M  V30 74695 H 7124.04 4.391 0.0938894 0
M  V30 74696 H 7124.65 3.97036 -1.52454 0
M  V30 74697 N 7122.96 0.851359 1.32626 0
M  V30 74698 C 7123.91 0.29159 2.28951 0
M  V30 74699 C 7124.88 -0.599594 1.549 0
M  V30 74700 O 7126.07 -0.535208 1.8314 0
M  V30 74701 C 7123.21 -0.516812 3.41208 0
M  V30 74702 C 7122.32 0.399793 4.30146 0
M  V30 74703 C 7121.45 -0.42092 5.2953 0
M  V30 74704 C 7120.49 0.49329 6.10109 0
M  V30 74705 N 7119.63 -0.290044 7.01501 0
M  V30 74706 H 7124.47 1.11828 2.76222 0
M  V30 74707 H 7122.01 0.562898 1.35904 0
M  V30 74708 H 7123.96 -1.00111 4.05011 0
M  V30 74709 H 7122.59 -1.30835 2.95096 0
M  V30 74710 H 7121.65 1.00246 3.66954 0
M  V30 74711 H 7122.96 1.10156 4.86484 0
M  V30 74712 H 7122.11 -0.968516 5.9892 0
M  V30 74713 H 7120.85 -1.15607 4.738 0
M  V30 74714 H 7119.86 1.0528 5.39626 0
M  V30 74715 H 7121.08 1.22699 6.67923 0
M  V30 74716 H 7119.03 -1.00834 6.48204 0
M  V30 74717 H 7118.94 0.352753 7.55177 0
M  V30 74718 H 7120.21 -0.819473 7.75181 0
M  V30 74719 N 7124.44 -1.45359 0.608979 0
M  V30 74720 C 7125.67 -2.06601 0.111121 0
M  V30 74721 C 7126.09 -1.45339 -1.20508 0
M  V30 74722 O 7125.44 -0.568069 -1.73434 0
M  V30 74723 C 7125.49 -3.61484 -0.0334973 0
M  V30 74724 O 7125.21 -4.20461 1.23063 0
M  V30 74725 C 7126.72 -4.39715 -0.56265 0
M  V30 74726 H 7123.94 -0.667393 0.0694805 0
M  V30 74727 H 7126.48 -1.86582 0.837106 0
M  V30 74728 H 7124.63 -3.80842 -0.709815 0
M  V30 74729 H 7125.05 -5.13652 1.06121 0
M  V30 74730 H 7126.52 -5.48587 -0.612924 0
M  V30 74731 H 7127 -4.09595 -1.58521 0
M  V30 74732 H 7127.61 -4.25225 0.0796696 0
M  V30 74733 N 7125.92 -0.34822 -1.53705 0
M  V30 74734 C 7126.88 0.49394 -2.23814 0
M  V30 74735 C 7127.88 1.02381 -1.23995 0
M  V30 74736 O 7129.07 0.912317 -1.48399 0
M  V30 74737 C 7126.21 1.68857 -2.96142 0
M  V30 74738 H 7127.4 -0.119299 -2.99663 0
M  V30 74739 H 7124.95 -0.0996361 -1.55982 0
M  V30 74740 H 7125.69 2.34037 -2.24493 0
M  V30 74741 H 7125.47 1.31577 -3.69364 0
M  V30 74742 H 7126.96 2.28579 -3.49487 0
M  V30 74743 N 7127.4 1.57412 -0.0769512 0
M  V30 74744 C 7128.33 2.16041 0.885912 0
M  V30 74745 C 7129.31 1.08883 1.30685 0
M  V30 74746 O 7130.49 1.36941 1.37698 0
M  V30 74747 C 7127.62 2.72619 2.15165 0
M  V30 74748 C 7126.58 3.8499 1.86995 0
M  V30 74749 C 7125.9 4.28192 3.20243 0
M  V30 74750 C 7127.2 5.09 1.17116 0
M  V30 74751 H 7128.9 2.9675 0.397485 0
M  V30 74752 H 7126.44 1.42744 0.189748 0
M  V30 74753 H 7128.4 3.12281 2.82946 0
M  V30 74754 H 7127.12 1.89139 2.66259 0
M  V30 74755 H 7125.78 3.45839 1.21618 0
M  V30 74756 H 7125.43 3.41627 3.69189 0
M  V30 74757 H 7125.13 5.03943 3.02184 0
M  V30 74758 H 7126.65 4.70474 3.89213 0
M  V30 74759 H 7128.07 5.45946 1.74974 0
M  V30 74760 H 7126.46 5.90063 1.09297 0
M  V30 74761 H 7127.53 4.84665 0.15104 0
M  V30 74762 N 7128.88 -0.19664 1.56368 0
M  V30 74763 C 7129.81 -1.24644 1.97449 0
M  V30 74764 C 7130.79 -1.47557 0.846225 0
M  V30 74765 O 7131.97 -1.5932 1.11044 0
M  V30 74766 C 7129.1 -2.591 2.31267 0
M  V30 74767 C 7128.06 -2.50802 3.46817 0
M  V30 74768 C 7127.38 -3.89517 3.66307 0
M  V30 74769 C 7128.68 -2.0344 4.8105 0
M  V30 74770 H 7130.38 -0.905065 2.85393 0
M  V30 74771 H 7127.92 -0.433929 1.37306 0
M  V30 74772 H 7129.88 -3.32722 2.586 0
M  V30 74773 H 7128.6 -2.94975 1.40204 0
M  V30 74774 H 7127.26 -1.79636 3.19572 0
M  V30 74775 H 7126.91 -4.22742 2.72577 0
M  V30 74776 H 7126.61 -3.8484 4.4404 0
M  V30 74777 H 7128.13 -4.64763 3.96014 0
M  V30 74778 H 7129.54 -2.66819 5.07425 0
M  V30 74779 H 7127.94 -2.09769 5.62243 0
M  V30 74780 H 7129.01 -0.987559 4.74737 0
M  V30 74781 N 7130.35 -1.50606 -0.464296 0
M  V30 74782 C 7131.3 -1.69964 -1.56143 0
M  V30 74783 C 7132.27 -0.540993 -1.57043 0
M  V30 74784 O 7133.46 -0.77235 -1.74469 0
M  V30 74785 C 7130.6 -1.80602 -2.9407 0
M  V30 74786 C 7129.71 -3.08012 -3.02907 0
M  V30 74787 C 7128.84 -3.09404 -4.3179 0
M  V30 74788 C 7127.88 -4.3124 -4.34394 0
M  V30 74789 N 7127.02 -4.30334 -5.54759 0
M  V30 74790 H 7131.86 -2.63627 -1.38941 0
M  V30 74791 H 7129.4 -1.30677 -0.675413 0
M  V30 74792 H 7131.36 -1.8475 -3.74063 0
M  V30 74793 H 7129.99 -0.90372 -3.09892 0
M  V30 74794 H 7129.04 -3.13303 -2.15744 0
M  V30 74795 H 7130.35 -3.97978 -3.00691 0
M  V30 74796 H 7129.5 -3.12319 -5.20136 0
M  V30 74797 H 7128.24 -2.1728 -4.36624 0
M  V30 74798 H 7127.25 -4.28531 -3.44444 0
M  V30 74799 H 7128.47 -5.24599 -4.31246 0
M  V30 74800 H 7126.42 -3.41066 -5.60366 0
M  V30 74801 H 7126.34 -5.14076 -5.54312 0
M  V30 74802 H 7127.6 -4.37404 -6.45212 0
M  V30 74803 N 7131.83 0.717939 -1.40298 0
M  V30 74804 C 7132.76 1.84276 -1.3629 0
M  V30 74805 C 7133.78 1.60567 -0.268706 0
M  V30 74806 O 7134.97 1.70485 -0.528887 0
M  V30 74807 C 7132.07 3.20634 -1.09758 0
M  V30 74808 C 7131.24 3.71559 -2.30787 0
M  V30 74809 C 7130.3 4.86525 -2.0045 0
M  V30 74810 O 7129.32 4.99298 -2.73294 0
M  V30 74811 N 7130.53 5.7215 -0.981026 0
M  V30 74812 H 7133.29 1.88213 -2.3323 0
M  V30 74813 H 7130.85 0.899382 -1.34621 0
M  V30 74814 H 7132.84 3.95138 -0.87453 0
M  V30 74815 H 7131.41 3.1186 -0.214935 0
M  V30 74816 H 7130.63 2.88214 -2.68936 0
M  V30 74817 H 7131.92 4.02318 -3.11476 0
M  V30 74818 H 7131.32 5.64438 -0.377672 0
M  V30 74819 H 7129.88 6.46648 -0.817879 0
M  V30 74820 N 7133.31 1.25755 0.949916 0
M  V30 74821 C 7134.24 1.00873 2.04695 0
M  V30 74822 C 7135.22 -0.0636125 1.62476 0
M  V30 74823 O 7136.41 0.0770146 1.88343 0
M  V30 74824 C 7133.53 0.52579 3.34594 0
M  V30 74825 C 7132.58 1.58937 3.95779 0
M  V30 74826 S 7133.41 3.1759 4.31158 0
M  V30 74827 C 7134.57 2.71043 5.64169 0
M  V30 74828 H 7134.8 1.9376 2.25487 0
M  V30 74829 H 7132.33 1.09338 1.09017 0
M  V30 74830 H 7134.29 0.253806 4.09715 0
M  V30 74831 H 7132.95 -0.382664 3.1176 0
M  V30 74832 H 7132.15 1.20227 4.8945 0
M  V30 74833 H 7131.75 1.81228 3.27158 0
M  V30 74834 H 7134.04 2.14962 6.42493 0
M  V30 74835 H 7134.98 3.63372 6.07755 0
M  V30 74836 H 7135.39 2.10887 5.23629 0
M  V30 74837 N 7134.79 -1.15322 1.07418 0
M  V30 74838 C 7135.7 -2.23707 0.706556 0
M  V30 74839 C 7136.71 -1.71691 -0.282496 0
M  V30 74840 O 7137.89 -2.00987 -0.12896 0
M  V30 74841 C 7134.96 -3.46523 0.110663 0
M  V30 74842 C 7134.02 -4.13526 1.15304 0
M  V30 74843 C 7133.25 -5.30479 0.585485 0
M  V30 74844 O 7133.47 -5.67254 -0.59825 0
M  V30 74845 O 7132.41 -5.87006 1.3307 0
M  V30 74846 H 7136.23 -2.57485 1.61044 0
M  V30 74847 H 7133.82 -1.23058 0.847178 0
M  V30 74848 H 7135.7 -4.20829 -0.219348 0
M  V30 74849 H 7134.37 -3.14493 -0.766537 0
M  V30 74850 H 7133.28 -3.41139 1.53541 0
M  V30 74851 H 7134.61 -4.49638 2.00216 0
M  V30 74852 N 7136.27 -0.85838 -1.32173 0
M  V30 74853 C 7137.18 -0.308728 -2.3256 0
M  V30 74854 C 7138.19 0.575376 -1.64212 0
M  V30 74855 O 7139.37 0.474858 -1.95722 0
M  V30 74856 C 7136.43 0.490728 -3.43209 0
M  V30 74857 C 7135.49 -0.419958 -4.27241 0
M  V30 74858 C 7134.73 0.341438 -5.32607 0
M  V30 74859 O 7134.95 1.57096 -5.4834 0
M  V30 74860 O 7133.88 -0.294696 -6.01178 0
M  V30 74861 H 7137.71 -1.14052 -2.81471 0
M  V30 74862 H 7135.3 -0.62142 -1.35863 0
M  V30 74863 H 7137.18 0.944357 -4.10682 0
M  V30 74864 H 7135.85 1.29926 -2.96481 0
M  V30 74865 H 7134.76 -0.921843 -3.62564 0
M  V30 74866 H 7136.09 -1.19377 -4.77504 0
M  V30 74867 N 7137.74 1.45034 -0.616679 0
M  V30 74868 C 7138.67 2.33349 0.0839557 0
M  V30 74869 C 7139.66 1.47365 0.849563 0
M  V30 74870 O 7140.84 1.76117 0.818314 0
M  V30 74871 C 7137.97 3.30216 1.07587 0
M  V30 74872 C 7136.92 4.25906 0.422871 0
M  V30 74873 C 7136.25 5.12531 1.52367 0
M  V30 74874 C 7137.55 5.18091 -0.661731 0
M  V30 74875 H 7139.24 2.92181 -0.653487 0
M  V30 74876 H 7136.79 1.40497 -0.315708 0
M  V30 74877 H 7138.74 3.90874 1.57465 0
M  V30 74878 H 7137.47 2.69561 1.84402 0
M  V30 74879 H 7136.13 3.66559 -0.0551233 0
M  V30 74880 H 7135.77 4.48239 2.28234 0
M  V30 74881 H 7135.47 5.7736 1.09221 0
M  V30 74882 H 7137 5.7606 2.02454 0
M  V30 74883 H 7138.41 5.72769 -0.246655 0
M  V30 74884 H 7136.81 5.91446 -1.01548 0
M  V30 74885 H 7137.88 4.59973 -1.53471 0
M  V30 74886 N 7139.22 0.356366 1.53518 0
M  V30 74887 C 7140.47 -0.237267 2.003 0
M  V30 74888 C 7140.79 -1.5062 1.24792 0
M  V30 74889 O 7141.99 -2.17787 1.62115 0
M  V30 74890 C 7140.45 -0.473357 3.56774 0
M  V30 74891 C 7140.06 0.780416 4.4115 0
M  V30 74892 C 7141.8 -1.02515 4.11936 0
M  V30 74893 C 7139.71 0.514419 5.89158 0
M  V30 74894 H 7138.64 -0.0924385 0.748312 0
M  V30 74895 H 7141.29 0.473681 1.77281 0
M  V30 74896 H 7139.67 -1.24533 3.75909 0
M  V30 74897 H 7140.84 1.55448 4.33789 0
M  V30 74898 H 7139.16 1.25476 3.97045 0
M  V30 74899 H 7141.76 -1.23933 5.20139 0
M  V30 74900 H 7142.1 -1.98454 3.65953 0
M  V30 74901 H 7142.63 -0.313565 3.96562 0
M  V30 74902 H 7139.37 1.44388 6.394 0
M  V30 74903 H 7138.89 -0.221316 5.99392 0
M  V30 74904 H 7140.57 0.136463 6.46856 0
M  V30 74905 N 7140.7 -1.57369 0.085298 0
M  V30 74906 C 7141.61 -2.16997 -0.891597 0
M  V30 74907 C 7142.63 -1.13676 -1.31734 0
M  V30 74908 O 7143.8 -1.46003 -1.38727 0
M  V30 74909 C 7140.87 -2.7307 -2.13621 0
M  V30 74910 C 7139.93 -3.91312 -1.7656 0
M  V30 74911 C 7139.16 -4.44701 -2.95087 0
M  V30 74912 O 7139.39 -3.97053 -4.09518 0
M  V30 74913 O 7138.32 -5.35856 -2.74121 0
M  V30 74914 H 7142.15 -3.00861 -0.414319 0
M  V30 74915 H 7139.73 -1.48756 -0.138519 0
M  V30 74916 H 7141.61 -3.0895 -2.86579 0
M  V30 74917 H 7140.29 -1.92258 -2.6042 0
M  V30 74918 H 7139.19 -3.60261 -1.00812 0
M  V30 74919 H 7140.53 -4.73458 -1.34532 0
M  V30 74920 N 7142.18 0.188344 -1.56471 0
M  V30 74921 C 7143.09 1.2537 -1.98292 0
M  V30 74922 C 7144.11 1.4942 -0.891613 0
M  V30 74923 O 7145.28 1.61902 -1.1979 0
M  V30 74924 C 7142.35 2.57657 -2.31978 0
M  V30 74925 C 7141.41 2.41619 -3.5485 0
M  V30 74926 C 7140.64 3.67598 -3.86921 0
M  V30 74927 O 7140.86 4.72055 -3.20187 0
M  V30 74928 O 7139.8 3.62724 -4.80328 0
M  V30 74929 H 7143.62 0.928759 -2.8915 0
M  V30 74930 H 7141.21 0.393879 -1.44114 0
M  V30 74931 H 7143.09 3.35724 -2.54691 0
M  V30 74932 H 7141.77 2.89764 -1.44286 0
M  V30 74933 H 7140.67 1.6164 -3.37377 0
M  V30 74934 H 7142.01 2.14442 -4.4303 0
M  V30 74935 N 7143.66 1.5085 0.456302 0
M  V30 74936 C 7145.07 1.55268 1.03677 0
M  V30 74937 C 7145.42 0.364872 1.92777 0
M  V30 74938 O 7144.54 -0.520569 2.10045 0
M  V30 74939 C 7145.14 2.81384 1.88703 0
M  V30 74940 C 7143.7 2.88434 2.41832 0
M  V30 74941 C 7142.85 2.49726 1.2055 0
M  V30 74942 H 7145.8 1.569 0.238316 0
M  V30 74943 H 7145.82 2.64075 2.73943 0
M  V30 74944 H 7145.33 3.67816 1.23827 0
M  V30 74945 H 7143.43 2.06389 3.10217 0
M  V30 74946 H 7143.54 3.91665 2.75927 0
M  V30 74947 H 7141.91 2.02494 1.54493 0
M  V30 74948 H 7142.69 3.38482 0.573147 0
M  V30 74949 N 7145.14 -0.710489 1.40676 0
M  V30 74950 C 7146.38 -1.46752 1.38955 0
M  V30 74951 C 7146.7 -1.94999 -0.00562596 0
M  V30 74952 O 7145.97 -1.70694 -0.961268 0
M  V30 74953 H 7144.55 -0.544472 0.511429 0
M  V30 74954 H 7147.22 -0.841919 1.75778 0
M  V30 74955 H 7146.31 -2.3379 2.06758 0
M  V30 74956 N 7146.61 -1.26257 -0.943233 0
M  V30 74957 C 7147.54 -1.10132 -2.05896 0
M  V30 74958 C 7148.52 -0.00709522 -1.70099 0
M  V30 74959 O 7149.71 -0.178743 -1.93376 0
M  V30 74960 C 7146.84 -0.731354 -3.39512 0
M  V30 74961 C 7145.79 -1.77709 -3.89363 0
M  V30 74962 C 7145.12 -1.2615 -5.19606 0
M  V30 74963 C 7146.42 -3.1782 -4.14472 0
M  V30 74964 H 7148.11 -2.03462 -2.19644 0
M  V30 74965 H 7145.66 -0.979631 -1.05543 0
M  V30 74966 H 7147.61 -0.605435 -4.17028 0
M  V30 74967 H 7146.34 0.237649 -3.25734 0
M  V30 74968 H 7145 -1.89165 -3.14026 0
M  V30 74969 H 7144.64 -0.282393 -5.02207 0
M  V30 74970 H 7144.34 -1.96052 -5.53929 0
M  V30 74971 H 7145.87 -1.1482 -5.99707 0
M  V30 74972 H 7147.28 -3.09454 -4.82609 0
M  V30 74973 H 7145.68 -3.85295 -4.60074 0
M  V30 74974 H 7146.75 -3.64031 -3.20328 0
M  V30 74975 N 7148.09 1.14751 -1.08028 0
M  V30 74976 C 7149.32 1.89568 -0.828947 0
M  V30 74977 C 7149.73 1.78381 0.618527 0
M  V30 74978 O 7149.09 1.14047 1.42476 0
M  V30 74979 C 7149.14 3.39679 -1.23695 0
M  V30 74980 O 7148.86 3.50552 -2.62764 0
M  V30 74981 C 7150.36 4.31502 -1.01592 0
M  V30 74982 H 7147.58 0.600586 -0.299228 0
M  V30 74983 H 7150.13 1.45349 -1.43854 0
M  V30 74984 H 7148.28 3.81535 -0.671548 0
M  V30 74985 H 7148.7 4.43764 -2.79596 0
M  V30 74986 H 7150.17 5.35216 -1.35084 0
M  V30 74987 H 7150.65 4.39175 0.0473117 0
M  V30 74988 H 7151.25 3.95397 -1.56657 0
M  V30 74989 N 7149.57 0.865377 1.31716 0
M  V30 74990 C 7150.81 0.48047 1.98673 0
M  V30 74991 C 7151.17 -0.948533 1.66934 0
M  V30 74992 O 7152.37 -1.43855 2.27066 0
M  V30 74993 C 7150.65 0.725043 3.49968 0
M  V30 74994 S 7152.2 0.439308 4.36595 0
M  V30 74995 H 7149.02 0.179542 0.687958 0
M  V30 74996 H 7151.62 1.12041 1.60209 0
M  V30 74997 H 7150.33 1.76395 3.70558 0
M  V30 74998 H 7149.86 0.0719247 3.93334 0
M  V30 74999 H 7151.87 -0.730305 4.90796 0
M  V30 75000 N 7151.05 -1.44705 0.624362 0
M  V30 75001 C 7152.29 -2.0399 0.129381 0
M  V30 75002 C 7152.65 -1.47999 -1.22313 0
M  V30 75003 O 7153.85 -1.98743 -1.80982 0
M  V30 75004 C 7152.12 -3.57236 0.108419 0
M  V30 75005 S 7153.68 -4.3761 -0.322927 0
M  V30 75006 H 7150.5 -0.708649 0.0577691 0
M  V30 75007 H 7153.1 -1.77183 0.826233 0
M  V30 75008 H 7151.81 -3.95494 1.09601 0
M  V30 75009 H 7151.34 -3.88644 -0.609896 0
M  V30 75010 H 7153.35 -4.70751 -1.56869 0
M  V30 75011 N 7152.53 -0.364502 -1.53327 0
M  V30 75012 C 7153.77 0.226642 -2.00423 0
M  V30 75013 C 7154.09 1.49956 -1.25589 0
M  V30 75014 O 7155.29 2.16924 -1.63267 0
M  V30 75015 C 7153.75 0.45443 -3.5702 0
M  V30 75016 C 7153.36 -0.8038 -4.4073 0
M  V30 75017 C 7155.1 1.00329 -4.12473 0
M  V30 75018 C 7153.01 -0.545656 -5.88877 0
M  V30 75019 H 7151.94 0.0884688 -0.748792 0
M  V30 75020 H 7154.59 -0.483076 -1.77027 0
M  V30 75021 H 7152.97 1.22538 -3.76564 0
M  V30 75022 H 7154.15 -1.57746 -4.32958 0
M  V30 75023 H 7152.46 -1.2758 -3.96374 0
M  V30 75024 H 7155.06 1.21172 -5.20789 0
M  V30 75025 H 7155.4 1.9651 -3.67001 0
M  V30 75026 H 7155.93 0.29253 -3.96723 0
M  V30 75027 H 7152.67 -1.47777 -6.38625 0
M  V30 75028 H 7152.19 0.189526 -5.995 0
M  V30 75029 H 7153.87 -0.170766 -6.46775 0
M  V30 75030 N 7154 1.57322 -0.0936425 0
M  V30 75031 C 7155.24 1.96181 0.573797 0
M  V30 75032 C 7155.61 0.974348 1.6544 0
M  V30 75033 O 7156.81 1.25138 2.37895 0
M  V30 75034 C 7155.08 3.39531 1.11594 0
M  V30 75035 S 7156.64 4.00386 1.79545 0
M  V30 75036 H 7153.46 0.685892 0.187279 0
M  V30 75037 H 7156.06 1.94736 -0.1727 0
M  V30 75038 H 7154.76 4.09167 0.317935 0
M  V30 75039 H 7154.29 3.4457 1.89829 0
M  V30 75040 H 7156.31 3.89072 3.07957 0
M  V30 75041 N 7155.48 -0.180044 1.56568 0
M  V30 75042 C 7156.9 -0.531479 1.50491 0
M  V30 75043 C 7157.1 -1.85095 0.796365 0
M  V30 75044 O 7156.15 -2.50019 0.35311 0
M  V30 75045 C 7157.47 -0.5723 2.95204 0
M  V30 75046 C 7159.02 -0.660102 3.0596 0
M  V30 75047 C 7159.49 -0.731897 4.52114 0
M  V30 75048 N 7160.98 -0.795021 4.56326 0
M  V30 75049 C 7161.72 -0.870998 5.66746 0
M  V30 75050 N 7161.21 -0.908346 6.86819 0
M  V30 75051 N 7163.01 -0.909347 5.54696 0
M  V30 75052 H 7155.16 0.685271 2.01042 0
M  V30 75053 H 7157.42 0.24601 0.915523 0
M  V30 75054 H 7157.13 0.328393 3.50163 0
M  V30 75055 H 7157 -1.42182 3.49377 0
M  V30 75056 H 7159.39 -1.55122 2.5104 0
M  V30 75057 H 7159.47 0.215917 2.54887 0
M  V30 75058 H 7159.11 0.154932 5.07664 0
M  V30 75059 H 7159.04 -1.62394 5.00935 0
M  V30 75060 H 7161.53 -0.774795 3.69872 0
M  V30 75061 H 7161.85 -0.96725 7.66723 0
M  V30 75062 H 7160.19 -0.876769 6.89447 0
M  V30 75063 H 7163.38 -0.87711 4.59809 0
M  V30 75064 H 7163.55 -0.965097 6.40773 0
M  V30 75065 N 7156.96 -1.5109 -0.448296 0
M  V30 75066 C 7157.87 -1.74437 -1.56873 0
M  V30 75067 C 7158.89 -0.628175 -1.62265 0
M  V30 75068 O 7160.06 -0.90917 -1.79711 0
M  V30 75069 C 7157.13 -1.85442 -2.92937 0
M  V30 75070 C 7156.19 -3.09263 -2.9775 0
M  V30 75071 C 7155.42 -3.19733 -4.27325 0
M  V30 75072 O 7155.64 -2.36414 -5.191 0
M  V30 75073 O 7154.58 -4.12634 -4.38197 0
M  V30 75074 H 7158.4 -2.6946 -1.4009 0
M  V30 75075 H 7155.99 -1.35459 -0.630176 0
M  V30 75076 H 7157.87 -1.94729 -3.73709 0
M  V30 75077 H 7156.55 -0.93605 -3.09871 0
M  V30 75078 H 7155.45 -3.05461 -2.15973 0
M  V30 75079 H 7156.79 -4.00753 -2.85759 0
M  V30 75080 N 7158.44 0.703019 -1.41051 0
M  V30 75081 C 7159.69 1.46013 -1.39731 0
M  V30 75082 C 7160.01 1.94999 -0.0047154 0
M  V30 75083 O 7159.28 1.71201 0.952202 0
M  V30 75084 H 7157.86 0.541752 -0.514309 0
M  V30 75085 H 7160.52 0.832585 -1.76222 0
M  V30 75086 H 7159.62 2.3269 -2.07995 0
M  V30 75087 N 7159.92 1.26756 0.936524 0
M  V30 75088 C 7161.15 1.15197 1.71503 0
M  V30 75089 C 7161.55 -0.294938 1.86887 0
M  V30 75090 O 7160.9 -1.2134 1.37922 0
M  V30 75091 C 7160.96 1.75335 3.13844 0
M  V30 75092 C 7160.62 3.24462 3.21828 0
M  V30 75093 C 7161.62 4.21217 3.04749 0
M  V30 75094 C 7159.31 3.65011 3.45069 0
M  V30 75095 C 7161.3 5.56498 3.10787 0
M  V30 75096 C 7158.99 5.00424 3.50741 0
M  V30 75097 C 7159.98 5.95977 3.33617 0
M  V30 75098 O 7159.67 7.28924 3.39006 0
M  V30 75099 H 7159.4 0.40179 0.543637 0
M  V30 75100 H 7161.96 1.67964 1.18226 0
M  V30 75101 H 7160.19 1.17036 3.68564 0
M  V30 75102 H 7161.88 1.58616 3.73625 0
M  V30 75103 H 7162.64 3.91229 2.86644 0
M  V30 75104 H 7158.52 2.91117 3.57452 0
M  V30 75105 H 7162.07 6.31059 2.97338 0
M  V30 75106 H 7157.96 5.30071 3.68368 0
M  V30 75107 H 7158.73 7.37257 3.55519 0
M  V30 75108 N 7161.39 -1.14177 1.08635 0
M  V30 75109 C 7162.34 -2.19334 0.718415 0
M  V30 75110 C 7163.31 -1.63432 -0.296501 0
M  V30 75111 O 7164.5 -1.89949 -0.179979 0
M  V30 75112 C 7161.64 -3.4483 0.136385 0
M  V30 75113 C 7160.75 -4.14872 1.20436 0
M  V30 75114 C 7159.88 -5.27958 0.585945 0
M  V30 75115 C 7158.92 -5.89837 1.63579 0
M  V30 75116 N 7158.06 -6.9437 1.039 0
M  V30 75117 H 7162.9 -2.50155 1.61945 0
M  V30 75118 H 7160.44 -1.22839 0.809255 0
M  V30 75119 H 7162.4 -4.16626 -0.218801 0
M  V30 75120 H 7161.03 -3.14485 -0.727955 0
M  V30 75121 H 7160.08 -3.41442 1.67694 0
M  V30 75122 H 7161.39 -4.56955 1.99983 0
M  V30 75123 H 7160.54 -6.06435 0.179137 0
M  V30 75124 H 7159.28 -4.87103 -0.241163 0
M  V30 75125 H 7158.29 -5.10062 2.05224 0
M  V30 75126 H 7159.51 -6.32767 2.46542 0
M  V30 75127 H 7157.46 -6.55586 0.233033 0
M  V30 75128 H 7157.38 -7.34951 1.77155 0
M  V30 75129 H 7158.64 -7.76717 0.658133 0
M  V30 75130 N 7162.87 -0.872351 -1.31255 0
M  V30 75131 C 7164.12 -0.484469 -1.96619 0
M  V30 75132 C 7164.45 0.963752 -1.68944 0
M  V30 75133 O 7163.7 1.69404 -0.97983 0
M  V30 75134 C 7164 -0.691074 -3.50655 0
M  V30 75135 C 7163.67 -2.11245 -3.98355 0
M  V30 75136 C 7162.33 -2.50116 -4.11091 0
M  V30 75137 C 7164.68 -3.03932 -4.23409 0
M  V30 75138 C 7162.01 -3.8091 -4.46234 0
M  V30 75139 C 7164.36 -4.34244 -4.60016 0
M  V30 75140 C 7163.03 -4.73026 -4.70959 0
M  V30 75141 H 7162.3 -0.17728 -0.719481 0
M  V30 75142 H 7164.94 -1.10579 -1.56347 0
M  V30 75143 H 7163.25 0.0133716 -3.91798 0
M  V30 75144 H 7164.94 -0.370744 -3.99282 0
M  V30 75145 H 7161.53 -1.80067 -3.88939 0
M  V30 75146 H 7165.72 -2.75126 -4.13061 0
M  V30 75147 H 7160.97 -4.10716 -4.52904 0
M  V30 75148 H 7165.15 -5.06113 -4.78354 0
M  V30 75149 H 7162.78 -5.74416 -4.97946 0
M  V30 75150 N 7164.35 1.44372 -0.632027 0
M  V30 75151 C 7165.28 2.28932 0.11079 0
M  V30 75152 C 7166.3 1.41333 0.808012 0
M  V30 75153 O 7167.48 1.65477 0.669308 0
M  V30 75154 C 7164.58 3.17726 1.17912 0
M  V30 75155 C 7163.76 4.33746 0.564229 0
M  V30 75156 C 7162.82 5.03568 1.52663 0
M  V30 75157 O 7161.84 5.59555 1.04342 0
M  V30 75158 N 7163.04 5.05103 2.86097 0
M  V30 75159 H 7165.81 2.93324 -0.614912 0
M  V30 75160 H 7163.37 1.54829 -0.473253 0
M  V30 75161 H 7165.36 3.61301 1.82329 0
M  V30 75162 H 7163.93 2.55078 1.80703 0
M  V30 75163 H 7163.15 3.93351 -0.258581 0
M  V30 75164 H 7164.44 5.08623 0.134087 0
M  V30 75165 H 7163.84 4.60951 3.27934 0
M  V30 75166 H 7162.4 5.52464 3.45872 0
M  V30 75167 N 7165.83 0.372629 1.53131 0
M  V30 75168 C 7167.24 -0.105057 1.86404 0
M  V30 75169 C 7167.59 -1.47569 1.29297 0
M  V30 75170 O 7166.72 -2.07395 0.617756 0
M  V30 75171 C 7167.31 -0.197409 3.38224 0
M  V30 75172 C 7165.87 -0.61936 3.71269 0
M  V30 75173 C 7165.02 0.229065 2.76352 0
M  V30 75174 H 7167.97 0.591155 1.47279 0
M  V30 75175 H 7167.99 -1.01968 3.66583 0
M  V30 75176 H 7167.5 0.8003 3.79759 0
M  V30 75177 H 7165.6 -1.62504 3.35296 0
M  V30 75178 H 7165.71 -0.38908 4.77518 0
M  V30 75179 H 7164.08 -0.303137 2.5289 0
M  V30 75180 H 7164.86 1.22444 3.20721 0
M  V30 75181 N 7167.31 -1.5727 0.101984 0
M  V30 75182 C 7168.53 -1.98942 -0.568287 0
M  V30 75183 C 7168.95 -0.981279 -1.61296 0
M  V30 75184 O 7168.31 0.0281907 -1.82478 0
M  V30 75185 C 7168.36 -3.40656 -1.20979 0
M  V30 75186 O 7168.08 -4.37611 -0.206898 0
M  V30 75187 C 7169.58 -3.97369 -1.96502 0
M  V30 75188 H 7166.8 -0.653598 -0.151825 0
M  V30 75189 H 7169.34 -2.03677 0.183305 0
M  V30 75190 H 7167.5 -3.36914 -1.91227 0
M  V30 75191 H 7167.91 -5.20193 -0.670797 0
M  V30 75192 H 7169.39 -4.98658 -2.36737 0
M  V30 75193 H 7169.86 -3.35566 -2.83358 0
M  V30 75194 H 7170.47 -4.04604 -1.31055 0
M  V30 75195 N 7168.79 0.171738 -1.56661 0
M  V30 75196 C 7169.73 1.21263 -1.96377 0
M  V30 75197 C 7170.7 1.44012 -0.827636 0
M  V30 75198 O 7171.89 1.56759 -1.08772 0
M  V30 75199 C 7169.03 2.54704 -2.32852 0
M  V30 75200 C 7168.14 2.39337 -3.59641 0
M  V30 75201 C 7167.28 3.65642 -3.8533 0
M  V30 75202 C 7166.31 3.45207 -5.05469 0
M  V30 75203 N 7165.45 4.6358 -5.27293 0
M  V30 75204 H 7170.29 0.86694 -2.85111 0
M  V30 75205 H 7167.83 0.41667 -1.41075 0
M  V30 75206 H 7169.79 3.32477 -2.52021 0
M  V30 75207 H 7168.42 2.87269 -1.47229 0
M  V30 75208 H 7167.47 1.52742 -3.48388 0
M  V30 75209 H 7168.78 2.20183 -4.47572 0
M  V30 75210 H 7167.93 4.51851 -4.04865 0
M  V30 75211 H 7166.67 3.87775 -2.95774 0
M  V30 75212 H 7165.68 2.57385 -4.85832 0
M  V30 75213 H 7166.9 3.24497 -5.96555 0
M  V30 75214 H 7164.85 4.85933 -4.40687 0
M  V30 75215 H 7164.77 4.47338 -6.09446 0
M  V30 75216 H 7166.03 5.51074 -5.51306 0
M  V30 75217 N 7170.26 1.51325 0.440277 0
M  V30 75218 C 7171.51 1.64091 1.19172 0
M  V30 75219 C 7171.84 0.354676 1.90934 0
M  V30 75220 O 7171.12 -0.645578 1.83474 0
M  V30 75221 C 7171.4 2.84226 2.21105 0
M  V30 75222 C 7171.25 4.22817 1.53446 0
M  V30 75223 C 7172.57 2.99881 3.22117 0
M  V30 75224 H 7169.69 0.597192 0.431893 0
M  V30 75225 H 7172.33 1.83802 0.481346 0
M  V30 75226 H 7170.48 2.67552 2.81688 0
M  V30 75227 H 7172.16 4.51153 0.962218 0
M  V30 75228 H 7170.4 4.25651 0.836862 0
M  V30 75229 H 7171.07 5.02864 2.27667 0
M  V30 75230 H 7173.55 3.15247 2.71585 0
M  V30 75231 H 7172.42 3.85509 3.90735 0
M  V30 75232 H 7172.68 2.11824 3.8805 0
M  V30 75233 N 7171.74 -0.695528 1.41422 0
M  V30 75234 C 7172.67 -1.8219 1.46045 0
M  V30 75235 C 7173.65 -1.6708 0.319113 0
M  V30 75236 O 7174.84 -1.86812 0.530561 0
M  V30 75237 C 7171.97 -3.20326 1.34195 0
M  V30 75238 C 7170.92 -3.50141 2.46141 0
M  V30 75239 C 7170.25 -4.87633 2.19357 0
M  V30 75240 C 7171.55 -3.49113 3.88481 0
M  V30 75241 H 7173.24 -1.78578 2.40313 0
M  V30 75242 H 7170.79 -0.857736 1.15667 0
M  V30 75243 H 7172.74 -3.98837 1.36042 0
M  V30 75244 H 7171.46 -3.24564 0.364124 0
M  V30 75245 H 7170.12 -2.73981 2.43577 0
M  V30 75246 H 7169.77 -4.88497 1.19917 0
M  V30 75247 H 7169.47 -5.08546 2.94371 0
M  V30 75248 H 7171 -5.68453 2.22919 0
M  V30 75249 H 7172.41 -4.17628 3.9276 0
M  V30 75250 H 7170.81 -3.81558 4.63178 0
M  V30 75251 H 7171.88 -2.48087 4.1663 0
M  V30 75252 N 7173.22 -1.2725 -0.929789 0
M  V30 75253 C 7174.47 -1.13242 -1.67394 0
M  V30 75254 C 7174.79 0.322643 -1.92312 0
M  V30 75255 O 7174.06 1.22604 -1.52791 0
M  V30 75256 H 7172.64 -0.416084 -0.620389 0
M  V30 75257 H 7175.3 -1.59747 -1.11655 0
M  V30 75258 H 7174.4 -1.65989 -2.64299 0
M  V30 75259 N 7174.7 1.13599 -1.09239 0
M  V30 75260 C 7175.95 1.84184 -0.822147 0
M  V30 75261 C 7176.26 1.84327 0.65445 0
M  V30 75262 O 7177.47 2.50785 1.04016 0
M  V30 75263 C 7175.92 3.30667 -1.42083 0
M  V30 75264 C 7175.53 3.38917 -2.92983 0
M  V30 75265 C 7177.27 4.06306 -1.22945 0
M  V30 75266 C 7175.18 4.79661 -3.45947 0
M  V30 75267 H 7174.11 0.690048 -0.303891 0
M  V30 75268 H 7176.76 1.27999 -1.31486 0
M  V30 75269 H 7175.14 3.86642 -0.855817 0
M  V30 75270 H 7176.32 2.92947 -3.55694 0
M  V30 75271 H 7174.63 2.76741 -3.11133 0
M  V30 75272 H 7177.23 5.10209 -1.59972 0
M  V30 75273 H 7177.57 4.15953 -0.169945 0
M  V30 75274 H 7178.11 3.56655 -1.76187 0
M  V30 75275 H 7174.84 4.75205 -4.51509 0
M  V30 75276 H 7174.36 5.26134 -2.87998 0
M  V30 75277 H 7176.04 5.48574 -3.43038 0
M  V30 75278 N 7176.18 0.879299 1.3079 0
M  V30 75279 C 7177.41 0.508915 2.00234 0
M  V30 75280 C 7177.81 -0.905594 1.66119 0
M  V30 75281 O 7177.16 -1.60619 0.891465 0
M  V30 75282 C 7177.22 0.59719 3.54505 0
M  V30 75283 C 7176.88 1.97499 4.1212 0
M  V30 75284 C 7177.88 2.94368 4.28536 0
M  V30 75285 C 7175.56 2.27883 4.47632 0
M  V30 75286 C 7177.56 4.1976 4.79667 0
M  V30 75287 C 7175.25 3.53522 4.98463 0
M  V30 75288 C 7176.24 4.49275 5.14432 0
M  V30 75289 O 7175.93 5.72686 5.64168 0
M  V30 75290 H 7175.66 0.195822 0.647016 0
M  V30 75291 H 7178.22 1.18489 1.67778 0
M  V30 75292 H 7176.45 -0.135741 3.86462 0
M  V30 75293 H 7178.14 0.238898 4.05196 0
M  V30 75294 H 7178.9 2.72204 4.0141 0
M  V30 75295 H 7174.78 1.54124 4.34473 0
M  V30 75296 H 7178.33 4.94506 4.92047 0
M  V30 75297 H 7174.22 3.75526 5.25024 0
M  V30 75298 H 7174.99 5.74988 5.82521 0
M  V30 75299 N 7177.65 -1.44034 0.639674 0
M  V30 75300 C 7178.88 -2.06319 0.15492 0
M  V30 75301 C 7179.3 -1.47862 -1.17398 0
M  V30 75302 O 7178.65 -0.604729 -1.7219 0
M  V30 75303 C 7178.7 -3.61474 0.0431864 0
M  V30 75304 O 7178.43 -4.17756 1.31954 0
M  V30 75305 C 7179.93 -4.40809 -0.469253 0
M  V30 75306 H 7177.15 -0.665769 0.0836213 0
M  V30 75307 H 7179.69 -1.84764 0.876495 0
M  V30 75308 H 7177.85 -3.82262 -0.628873 0
M  V30 75309 H 7178.26 -5.11286 1.16992 0
M  V30 75310 H 7179.73 -5.49763 -0.496422 0
M  V30 75311 H 7180.21 -4.12865 -1.49797 0
M  V30 75312 H 7180.82 -4.24961 0.169848 0
M  V30 75313 N 7179.13 -0.380744 -1.52932 0
M  V30 75314 C 7180.38 0.204171 -2.01468 0
M  V30 75315 C 7180.71 1.47527 -1.26752 0
M  V30 75316 O 7179.96 1.92475 -0.353825 0
M  V30 75317 C 7180.26 0.527012 -3.53493 0
M  V30 75318 C 7179.93 -0.65153 -4.46168 0
M  V30 75319 C 7178.59 -0.974868 -4.71222 0
M  V30 75320 C 7180.94 -1.44038 -5.00902 0
M  V30 75321 C 7178.27 -2.08876 -5.48259 0
M  V30 75322 C 7180.62 -2.54481 -5.79157 0
M  V30 75323 C 7179.28 -2.87332 -6.02492 0
M  V30 75324 H 7178.55 0.0747116 -0.737224 0
M  V30 75325 H 7181.2 -0.516331 -1.84408 0
M  V30 75326 H 7179.51 1.32873 -3.68581 0
M  V30 75327 H 7181.2 0.992078 -3.88534 0
M  V30 75328 H 7177.79 -0.389501 -4.26826 0
M  V30 75329 H 7181.98 -1.20382 -4.81479 0
M  V30 75330 H 7177.23 -2.34709 -5.64554 0
M  V30 75331 H 7181.41 -3.16013 -6.20571 0
M  V30 75332 H 7179.03 -3.73765 -6.61969 0
M  V30 75333 N 7180.61 1.57213 -0.110323 0
M  V30 75334 C 7181.84 1.99241 0.557729 0
M  V30 75335 C 7182.25 0.989819 1.60773 0
M  V30 75336 O 7181.61 -0.018513 1.82491 0
M  V30 75337 C 7181.66 3.41292 1.19171 0
M  V30 75338 O 7181.38 4.37715 0.183688 0
M  V30 75339 C 7182.88 3.98405 1.94392 0
M  V30 75340 H 7180.1 0.654394 0.148357 0
M  V30 75341 H 7182.65 2.03577 -0.194104 0
M  V30 75342 H 7180.8 3.37923 1.89438 0
M  V30 75343 H 7181.22 5.20541 0.6432 0
M  V30 75344 H 7182.69 4.99906 2.3409 0
M  V30 75345 H 7183.17 3.37064 2.81574 0
M  V30 75346 H 7183.77 4.05294 1.28907 0
M  V30 75347 N 7182.09 -0.163427 1.5675 0
M  V30 75348 C 7183.03 -1.2022 1.97017 0
M  V30 75349 C 7184 -1.43571 0.835261 0
M  V30 75350 O 7185.19 -1.5618 1.09602 0
M  V30 75351 C 7182.33 -2.53465 2.34199 0
M  V30 75352 C 7181.44 -2.37427 3.60905 0
M  V30 75353 C 7180.58 -3.63593 3.87264 0
M  V30 75354 C 7179.62 -3.42522 5.07292 0
M  V30 75355 N 7178.75 -4.60778 5.29744 0
M  V30 75356 H 7183.59 -0.851807 2.85567 0
M  V30 75357 H 7181.13 -0.409182 1.41294 0
M  V30 75358 H 7183.09 -3.31136 2.53781 0
M  V30 75359 H 7181.72 -2.86484 1.48751 0
M  V30 75360 H 7180.77 -1.50893 3.49193 0
M  V30 75361 H 7182.08 -2.17807 4.48733 0
M  V30 75362 H 7181.24 -4.49697 4.07256 0
M  V30 75363 H 7179.98 -3.86201 2.97826 0
M  V30 75364 H 7178.98 -2.54805 4.87191 0
M  V30 75365 H 7180.21 -3.21329 5.98268 0
M  V30 75366 H 7178.15 -4.83589 4.43258 0
M  V30 75367 H 7178.07 -4.441 6.1181 0
M  V30 75368 H 7179.34 -5.48142 5.54221 0
M  V30 75369 N 7183.57 -1.51557 -0.432246 0
M  V30 75370 C 7184.98 -1.39845 -0.769121 0
M  V30 75371 C 7185.18 -0.484778 -1.95582 0
M  V30 75372 O 7184.24 0.0581497 -2.52433 0
M  V30 75373 C 7185.55 -2.81968 -1.04472 0
M  V30 75374 C 7187.1 -2.91154 -1.14884 0
M  V30 75375 C 7187.57 -4.34195 -1.45735 0
M  V30 75376 N 7189.07 -4.37325 -1.52648 0
M  V30 75377 C 7189.8 -5.45039 -1.781 0
M  V30 75378 N 7189.3 -6.62907 -2.01311 0
M  V30 75379 N 7191.09 -5.32526 -1.79924 0
M  V30 75380 H 7183.24 -2.09509 0.349232 0
M  V30 75381 H 7185.5 -0.943342 0.0938611 0
M  V30 75382 H 7185.21 -3.50843 -0.245385 0
M  V30 75383 H 7185.08 -3.21606 -1.97102 0
M  V30 75384 H 7187.47 -2.22474 -1.9388 0
M  V30 75385 H 7187.55 -2.55006 -0.201433 0
M  V30 75386 H 7187.2 -5.03426 -0.672651 0
M  V30 75387 H 7187.13 -4.67861 -2.4169 0
M  V30 75388 H 7189.62 -3.5235 -1.36594 0
M  V30 75389 H 7189.93 -7.40789 -2.20116 0
M  V30 75390 H 7188.27 -6.66014 -1.98622 0
M  V30 75391 H 7191.47 -4.39426 -1.61314 0
M  V30 75392 H 7191.64 -6.16551 -1.99422 0
M  V30 75393 N 7185.04 0.688019 -1.41789 0
M  V30 75394 C 7186.29 1.45023 -1.41761 0
M  V30 75395 C 7186.62 1.94178 -0.0291769 0
M  V30 75396 O 7185.9 1.70035 0.944366 0
M  V30 75397 C 7186.18 2.65674 -2.43083 0
M  V30 75398 C 7186.03 2.22235 -3.91065 0
M  V30 75399 C 7187.35 3.6788 -2.41562 0
M  V30 75400 H 7184.47 0.526 -0.51623 0
M  V30 75401 H 7187.11 0.783014 -1.73115 0
M  V30 75402 H 7185.26 3.22599 -2.16477 0
M  V30 75403 H 7186.94 1.70579 -4.28603 0
M  V30 75404 H 7185.18 1.53941 -4.05567 0
M  V30 75405 H 7185.85 3.08839 -4.57518 0
M  V30 75406 H 7188.33 3.20644 -2.65192 0
M  V30 75407 H 7187.2 4.49897 -3.14458 0
M  V30 75408 H 7187.46 4.18098 -1.43688 0
M  V30 75409 N 7186.52 1.27742 0.923027 0
M  V30 75410 C 7187.49 1.10905 2.00581 0
M  V30 75411 C 7188.49 0.0515774 1.60717 0
M  V30 75412 O 7189.68 0.296571 1.71657 0
M  V30 75413 C 7186.81 0.690893 3.33826 0
M  V30 75414 H 7188 2.07059 2.16948 0
M  V30 75415 H 7185.55 1.10596 1.10445 0
M  V30 75416 H 7186.29 -0.27183 3.23159 0
M  V30 75417 H 7186.07 1.45467 3.64118 0
M  V30 75418 H 7187.56 0.59547 4.13333 0
M  V30 75419 N 7188 -1.13018 1.0984 0
M  V30 75420 C 7188.93 -2.20662 0.763567 0
M  V30 75421 C 7189.91 -1.68091 -0.260689 0
M  V30 75422 O 7191.1 -1.93779 -0.127813 0
M  V30 75423 C 7188.23 -3.46791 0.187927 0
M  V30 75424 C 7187.18 -4.12478 1.14218 0
M  V30 75425 C 7186.51 -5.32984 0.428036 0
M  V30 75426 C 7187.81 -4.59325 2.48632 0
M  V30 75427 H 7189.5 -2.48927 1.6636 0
M  V30 75428 H 7187.05 -1.19644 0.801324 0
M  V30 75429 H 7189 -4.2136 -0.0584154 0
M  V30 75430 H 7187.72 -3.17935 -0.747318 0
M  V30 75431 H 7186.38 -3.39883 1.37387 0
M  V30 75432 H 7186.03 -5.00393 -0.511484 0
M  V30 75433 H 7185.73 -5.7788 1.06433 0
M  V30 75434 H 7187.25 -6.10304 0.190094 0
M  V30 75435 H 7188.67 -5.25296 2.29646 0
M  V30 75436 H 7187.07 -5.14977 3.08089 0
M  V30 75437 H 7188.14 -3.73626 3.09082 0
M  V30 75438 N 7189.48 -0.886223 -1.30322 0
M  V30 75439 C 7190.39 -0.357988 -2.31853 0
M  V30 75440 C 7191.4 0.540414 -1.65395 0
M  V30 75441 O 7192.58 0.433235 -1.96685 0
M  V30 75442 C 7189.65 0.417818 -3.44173 0
M  V30 75443 C 7188.71 -0.510488 -4.26254 0
M  V30 75444 C 7187.94 0.228388 -5.33211 0
M  V30 75445 O 7188.16 1.45429 -5.51549 0
M  V30 75446 O 7187.1 -0.422149 -6.00418 0
M  V30 75447 H 7190.92 -1.19997 -2.78988 0
M  V30 75448 H 7188.51 -0.650099 -1.34514 0
M  V30 75449 H 7190.39 0.857033 -4.12593 0
M  V30 75450 H 7189.06 1.23608 -2.9917 0
M  V30 75451 H 7187.97 -0.998541 -3.60527 0
M  V30 75452 H 7189.3 -1.29479 -4.74864 0
M  V30 75453 N 7190.96 1.43693 -0.647304 0
M  V30 75454 C 7191.87 2.34549 0.048676 0
M  V30 75455 C 7192.88 1.53546 0.818505 0
M  V30 75456 O 7194.06 1.86219 0.767096 0
M  V30 75457 C 7191.12 3.31748 1.00717 0
M  V30 75458 C 7190.18 4.28657 0.234924 0
M  V30 75459 C 7189.42 5.21212 1.14776 0
M  V30 75460 O 7189.64 5.18057 2.3869 0
M  V30 75461 O 7188.57 5.98663 0.623352 0
M  V30 75462 H 7192.4 2.95546 -0.699019 0
M  V30 75463 H 7189.99 1.43736 -0.407488 0
M  V30 75464 H 7191.87 3.91534 1.55817 0
M  V30 75465 H 7190.54 2.73263 1.73519 0
M  V30 75466 H 7189.45 3.72368 -0.359516 0
M  V30 75467 H 7190.78 4.90107 -0.453411 0
M  V30 75468 N 7192.43 0.388849 1.52728 0
M  V30 75469 C 7193.37 -0.490634 2.22863 0
M  V30 75470 C 7194.35 -1.06443 1.22917 0
M  V30 75471 O 7195.53 -1.11616 1.51902 0
M  V30 75472 C 7192.66 -1.67909 2.9415 0
M  V30 75473 C 7191.7 -1.23059 4.08361 0
M  V30 75474 S 7192.54 -0.212504 5.35078 0
M  V30 75475 C 7193.69 -1.40675 6.09886 0
M  V30 75476 H 7193.92 0.104944 2.97115 0
M  V30 75477 H 7191.46 0.173037 1.53427 0
M  V30 75478 H 7193.42 -2.36068 3.35831 0
M  V30 75479 H 7192.08 -2.24597 2.19579 0
M  V30 75480 H 7191.27 -2.11794 4.5734 0
M  V30 75481 H 7190.87 -0.627926 3.68691 0
M  V30 75482 H 7193.16 -2.33391 6.36031 0
M  V30 75483 H 7194.11 -0.957901 7.01591 0
M  V30 75484 H 7194.51 -1.62336 5.40654 0
M  V30 75485 N 7193.91 -1.57153 0.118659 0
M  V30 75486 C 7194.82 -2.18839 -0.845369 0
M  V30 75487 C 7195.84 -1.16444 -1.29293 0
M  V30 75488 O 7197.01 -1.48912 -1.35599 0
M  V30 75489 C 7194.08 -2.7754 -2.0778 0
M  V30 75490 C 7193.14 -3.94969 -1.6822 0
M  V30 75491 C 7192.37 -4.50861 -2.85588 0
M  V30 75492 O 7192.6 -4.05651 -4.01003 0
M  V30 75493 O 7191.53 -5.4155 -2.62693 0
M  V30 75494 H 7195.36 -3.01672 -0.350408 0
M  V30 75495 H 7192.94 -1.49017 -0.106935 0
M  V30 75496 H 7194.82 -3.1496 -2.79961 0
M  V30 75497 H 7193.5 -1.97739 -2.56283 0
M  V30 75498 H 7192.41 -3.62318 -0.931472 0
M  V30 75499 H 7193.74 -4.76205 -1.24459 0
M  V30 75500 N 7195.39 0.155112 -1.56835 0
M  V30 75501 C 7196.34 1.21097 -1.98591 0
M  V30 75502 C 7197.33 1.44927 -0.877063 0
M  V30 75503 O 7198.54 1.45316 -1.06223 0
M  V30 75504 H 7194.91 0.407436 -0.63206 0
M  V30 75505 H 7196.88 0.832044 -2.86565 0
M  V30 75506 C 7195.63 2.53883 -2.37569 0
M  V30 75507 H 7194.96 2.36373 -3.2244 0
M  V30 75508 H 7196.4 3.2641 -2.70616 0
M  V30 75509 C 7194.86 3.1383 -1.22524 0
M  V30 75510 O 7195.39 3.98299 -0.521598 0
M  V30 75511 N 7193.59 2.73159 -0.991588 0
M  V30 75512 H 7193.14 2.04569 -1.56555 0
M  V30 75513 H 7193.1 3.13603 -0.223712 0
M  V30 75514 N 7196.87 1.51784 0.424202 0
M  V30 75515 C 7197.82 1.74045 1.51582 0
M  V30 75516 C 7198.79 0.58244 1.55553 0
M  V30 75517 O 7199.97 0.818336 1.7236 0
M  V30 75518 C 7197.11 1.88335 2.89178 0
M  V30 75519 C 7196.22 3.15935 2.94634 0
M  V30 75520 C 7195.36 3.20744 4.23435 0
M  V30 75521 C 7194.4 4.42606 4.22808 0
M  V30 75522 N 7193.53 4.44891 5.43154 0
M  V30 75523 H 7198.37 2.67219 1.31902 0
M  V30 75524 H 7195.91 1.32422 0.640529 0
M  V30 75525 H 7197.87 1.94602 3.69034 0
M  V30 75526 H 7196.5 0.985564 3.07387 0
M  V30 75527 H 7195.55 3.18913 2.07361 0
M  V30 75528 H 7196.86 4.0581 2.90033 0
M  V30 75529 H 7196.02 3.26 5.11673 0
M  V30 75530 H 7194.76 2.2878 4.3071 0
M  V30 75531 H 7193.76 4.37512 3.32961 0
M  V30 75532 H 7194.99 5.35848 4.17185 0
M  V30 75533 H 7192.93 3.55804 5.51126 0
M  V30 75534 H 7192.85 5.28592 5.40487 0
M  V30 75535 H 7194.12 4.54357 6.33388 0
M  V30 75536 N 7198.35 -0.68049 1.42152 0
M  V30 75537 C 7199.76 -1.26092 1.37687 0
M  V30 75538 C 7200.11 -1.96084 0.0673382 0
M  V30 75539 O 7199.23 -1.9968 -0.834067 0
M  V30 75540 C 7199.83 -2.29315 2.49399 0
M  V30 75541 C 7198.39 -2.82898 2.48285 0
M  V30 75542 C 7197.54 -1.5714 2.28478 0
M  V30 75543 H 7200.49 -0.474246 1.51448 0
M  V30 75544 H 7200.51 -3.1093 2.19324 0
M  V30 75545 H 7200.02 -1.78344 3.44695 0
M  V30 75546 H 7198.12 -3.38005 1.5679 0
M  V30 75547 H 7198.23 -3.32302 3.45127 0
M  V30 75548 H 7196.6 -1.83502 1.76633 0
M  V30 75549 H 7197.38 -1.08143 3.25822 0
M  V30 75550 N 7199.83 -1.2823 -0.91624 0
M  V30 75551 C 7201.24 -1.05882 -1.1942 0
M  V30 75552 C 7201.44 0.200394 -2.00501 0
M  V30 75553 O 7200.5 0.902749 -2.35811 0
M  V30 75554 C 7201.81 -2.30489 -1.9312 0
M  V30 75555 C 7203.36 -2.35643 -2.06013 0
M  V30 75556 C 7203.83 -3.60008 -2.83122 0
M  V30 75557 N 7205.32 -3.60634 -2.90685 0
M  V30 75558 C 7206.06 -4.53539 -3.50841 0
M  V30 75559 N 7205.56 -5.56761 -4.12298 0
M  V30 75560 N 7207.35 -4.4114 -3.48356 0
M  V30 75561 H 7199.5 -2.09066 -0.37485 0
M  V30 75562 H 7201.76 -0.920054 -0.228483 0
M  V30 75563 H 7201.47 -3.22212 -1.40968 0
M  V30 75564 H 7201.34 -2.36707 -2.93683 0
M  V30 75565 H 7203.73 -1.44417 -2.57347 0
M  V30 75566 H 7203.81 -2.33421 -1.04635 0
M  V30 75567 H 7203.45 -4.51576 -2.32468 0
M  V30 75568 H 7203.38 -3.59484 -3.8481 0
M  V30 75569 H 7205.88 -2.8599 -2.47019 0
M  V30 75570 H 7206.19 -6.238 -4.56172 0
M  V30 75571 H 7204.53 -5.6059 -4.10809 0
M  V30 75572 H 7207.72 -3.59702 -2.99553 0
M  V30 75573 H 7207.9 -5.13732 -3.94947 0
M  V30 75574 N 7201.3 1.12434 -1.10437 0
M  V30 75575 C 7202.25 2.18163 -0.753218 0
M  V30 75576 C 7203.22 1.63883 0.270462 0
M  V30 75577 O 7204.41 1.90212 0.149737 0
M  V30 75578 C 7201.55 3.4457 -0.191228 0
M  V30 75579 C 7200.66 4.12904 -1.27021 0
M  V30 75580 C 7199.79 5.26959 -0.669864 0
M  V30 75581 C 7198.83 5.8716 -1.72943 0
M  V30 75582 N 7197.97 6.92629 -1.14934 0
M  V30 75583 H 7202.81 2.47547 -1.65905 0
M  V30 75584 H 7200.35 1.21536 -0.828695 0
M  V30 75585 H 7202.3 4.16921 0.152492 0
M  V30 75586 H 7200.93 3.15603 0.677831 0
M  V30 75587 H 7199.99 3.38731 -1.73105 0
M  V30 75588 H 7201.3 4.53716 -2.07228 0
M  V30 75589 H 7200.45 6.06074 -0.275593 0
M  V30 75590 H 7199.19 4.87425 0.163638 0
M  V30 75591 H 7198.2 5.06733 -2.13312 0
M  V30 75592 H 7199.42 6.28764 -2.56578 0
M  V30 75593 H 7197.37 6.55132 -0.337302 0
M  V30 75594 H 7197.28 7.32039 -1.88825 0
M  V30 75595 H 7198.55 7.75571 -0.781619 0
M  V30 75596 N 7202.78 0.893122 1.2985 0
M  V30 75597 C 7203.71 0.32323 2.26909 0
M  V30 75598 C 7204.73 -0.526777 1.54042 0
M  V30 75599 O 7205.92 -0.345003 1.75134 0
M  V30 75600 C 7203.02 -0.558333 3.34269 0
M  V30 75601 C 7202.19 0.264452 4.366 0
M  V30 75602 C 7201.25 -0.548895 5.23329 0
M  V30 75603 O 7200.27 0.0312884 5.69191 0
M  V30 75604 N 7201.48 -1.85635 5.50018 0
M  V30 75605 H 7204.24 1.15741 2.76449 0
M  V30 75606 H 7201.8 0.756935 1.43116 0
M  V30 75607 H 7203.79 -1.1087 3.89217 0
M  V30 75608 H 7202.36 -1.29319 2.84597 0
M  V30 75609 H 7201.58 0.996247 3.81403 0
M  V30 75610 H 7202.87 0.828171 5.02015 0
M  V30 75611 H 7202.27 -2.35054 5.14554 0
M  V30 75612 H 7200.83 -2.35399 6.07808 0
M  V30 75613 N 7204.26 -1.43348 0.654915 0
M  V30 75614 C 7205.19 -2.29079 -0.0743549 0
M  V30 75615 C 7206.2 -1.42601 -0.785424 0
M  V30 75616 O 7207.39 -1.6652 -0.642898 0
M  V30 75617 C 7204.49 -3.19562 -1.12842 0
M  V30 75618 C 7203.67 -4.34588 -0.495152 0
M  V30 75619 C 7202.73 -5.05933 -1.44633 0
M  V30 75620 O 7201.75 -5.61144 -0.954271 0
M  V30 75621 N 7202.95 -5.09591 -2.78025 0
M  V30 75622 H 7205.72 -2.92309 0.6615 0
M  V30 75623 H 7203.28 -1.54056 0.497825 0
M  V30 75624 H 7205.27 -3.64156 -1.76558 0
M  V30 75625 H 7203.84 -2.57921 -1.76622 0
M  V30 75626 H 7203.06 -3.9289 0.321127 0
M  V30 75627 H 7204.35 -5.08772 -0.053152 0
M  V30 75628 H 7203.75 -4.66109 -3.2056 0
M  V30 75629 H 7202.3 -5.57896 -3.37039 0
M  V30 75630 N 7205.74 -0.396943 -1.52519 0
M  V30 75631 C 7206.99 0.18243 -2.01275 0
M  V30 75632 C 7207.31 1.46678 -1.28493 0
M  V30 75633 O 7206.58 1.9162 -0.407235 0
M  V30 75634 H 7205.16 0.070405 -0.743675 0
M  V30 75635 H 7207.82 -0.530388 -1.87544 0
M  V30 75636 H 7206.91 0.387222 -3.09689 0
M  V30 75637 N 7207.22 1.57088 -0.126992 0
M  V30 75638 C 7208.45 1.99532 0.535787 0
M  V30 75639 C 7208.85 1.00575 1.60254 0
M  V30 75640 O 7208.2 -0.00833582 1.83698 0
M  V30 75641 C 7208.26 3.38398 1.21356 0
M  V30 75642 C 7207.92 4.56055 0.293804 0
M  V30 75643 C 7208.92 5.17765 -0.470727 0
M  V30 75644 C 7206.6 5.01891 0.202543 0
M  V30 75645 C 7208.6 6.23705 -1.31417 0
M  V30 75646 C 7206.29 6.07692 -0.644523 0
M  V30 75647 C 7207.28 6.68466 -1.4015 0
M  V30 75648 O 7206.97 7.72221 -2.23449 0
M  V30 75649 H 7206.7 0.660098 0.145764 0
M  V30 75650 H 7209.26 2.04297 -0.212549 0
M  V30 75651 H 7207.49 3.3041 2.00913 0
M  V30 75652 H 7209.18 3.65078 1.77405 0
M  V30 75653 H 7209.94 4.83263 -0.410139 0
M  V30 75654 H 7205.82 4.54328 0.781448 0
M  V30 75655 H 7209.37 6.71071 -1.90549 0
M  V30 75656 H 7205.26 6.41622 -0.706475 0
M  V30 75657 H 7206.03 7.89354 -2.16478 0
M  V30 75658 N 7208.69 -0.146793 1.56915 0
M  V30 75659 C 7209.92 -0.878287 1.87885 0
M  V30 75660 C 7210.34 -1.73938 0.716037 0
M  V30 75661 O 7209.7 -1.7819 -0.334353 0
M  V30 75662 C 7209.75 -1.71067 3.1744 0
M  V30 75663 O 7208.85 -2.81493 3.01389 0
M  V30 75664 H 7208.19 -0.244612 0.617301 0
M  V30 75665 H 7210.72 -0.137546 2.04137 0
M  V30 75666 H 7210.73 -2.10564 3.49466 0
M  V30 75667 H 7209.41 -1.07835 4.01677 0
M  V30 75668 H 7207.99 -2.45401 2.80771 0
M  V30 75669 N 7210.17 -1.52007 -0.416147 0
M  V30 75670 C 7211.4 -1.69559 -1.18564 0
M  V30 75671 C 7211.81 -0.402016 -1.8447 0
M  V30 75672 O 7211.17 0.621372 -1.71596 0
M  V30 75673 C 7211.22 -2.82627 -2.25398 0
M  V30 75674 O 7210.94 -4.06974 -1.62183 0
M  V30 75675 C 7212.44 -3.1163 -3.1528 0
M  V30 75676 H 7209.66 -0.568429 -0.356552 0
M  V30 75677 H 7212.21 -1.9853 -0.490513 0
M  V30 75678 H 7210.36 -2.56195 -2.90591 0
M  V30 75679 H 7210.78 -4.69928 -2.32955 0
M  V30 75680 H 7212.25 -3.94275 -3.86331 0
M  V30 75681 H 7212.73 -2.24894 -3.77252 0
M  V30 75682 H 7213.33 -3.39801 -2.55765 0
M  V30 75683 N 7211.65 0.672941 -1.42511 0
M  V30 75684 C 7212.9 1.43511 -1.43291 0
M  V30 75685 C 7213.23 1.94136 -0.0497704 0
M  V30 75686 O 7212.5 1.71027 0.926278 0
M  V30 75687 C 7212.79 2.6308 -2.45888 0
M  V30 75688 C 7212.64 2.18075 -3.934 0
M  V30 75689 C 7213.96 3.65297 -2.45451 0
M  V30 75690 H 7211.08 0.520495 -0.52178 0
M  V30 75691 H 7213.72 0.764609 -1.73936 0
M  V30 75692 H 7211.87 3.20285 -2.19886 0
M  V30 75693 H 7213.54 1.66024 -4.30388 0
M  V30 75694 H 7211.78 1.49631 -4.07177 0
M  V30 75695 H 7212.46 3.03969 -4.60768 0
M  V30 75696 H 7214.93 3.17813 -2.68578 0
M  V30 75697 H 7213.81 4.46536 -3.19212 0
M  V30 75698 H 7214.07 4.16551 -1.48114 0
M  V30 75699 N 7213.13 1.28714 0.909427 0
M  V30 75700 C 7214.35 1.19099 1.69794 0
M  V30 75701 C 7214.78 -0.246289 1.86481 0
M  V30 75702 O 7214.14 -1.17808 1.37808 0
M  V30 75703 C 7214.18 1.8992 3.06533 0
M  V30 75704 O 7213.29 1.20961 3.94262 0
M  V30 75705 H 7212.63 0.413212 0.519761 0
M  V30 75706 H 7215.16 1.70112 1.1368 0
M  V30 75707 H 7215.17 1.97996 3.56738 0
M  V30 75708 H 7213.84 2.94465 2.93706 0
M  V30 75709 H 7212.42 1.21078 3.52696 0
M  V30 75710 N 7214.61 -1.11847 1.11032 0
M  V30 75711 C 7215.56 -2.15864 0.73395 0
M  V30 75712 C 7216.54 -1.58787 -0.259926 0
M  V30 75713 O 7217.73 -1.7687 -0.0676968 0
M  V30 75714 C 7214.86 -3.42858 0.174129 0
M  V30 75715 C 7213.95 -4.06904 1.19542 0
M  V30 75716 N 7214.34 -4.45868 2.3882 0
M  V30 75717 C 7212.64 -4.33768 1.03737 0
M  V30 75718 C 7213.34 -4.95991 3.0392 0
M  V30 75719 N 7212.31 -4.91882 2.31415 0
M  V30 75720 H 7216.12 -2.43764 1.64184 0
M  V30 75721 H 7213.63 -1.28816 0.988945 0
M  V30 75722 H 7215.63 -4.16745 -0.113617 0
M  V30 75723 H 7214.29 -3.16424 -0.728402 0
M  V30 75724 H 7215.3 -4.38037 2.76304 0
M  V30 75725 H 7211.97 -4.17063 0.190914 0
M  V30 75726 H 7213.36 -5.35805 4.05417 0
M  V30 75727 N 7216.08 -0.899995 -1.29375 0
M  V30 75728 C 7217.33 -0.526066 -1.95547 0
M  V30 75729 C 7217.66 0.927699 -1.7095 0
M  V30 75730 O 7216.91 1.67288 -1.01554 0
M  V30 75731 C 7217.21 -0.765298 -3.4911 0
M  V30 75732 C 7216.88 -2.19647 -3.93784 0
M  V30 75733 C 7215.54 -2.58779 -4.05693 0
M  V30 75734 C 7217.89 -3.12845 -4.16866 0
M  V30 75735 C 7215.22 -3.9029 -4.38053 0
M  V30 75736 C 7217.57 -4.43904 -4.50701 0
M  V30 75737 C 7216.24 -4.82909 -4.6082 0
M  V30 75738 H 7215.51 -0.192501 -0.715559 0
M  V30 75739 H 7218.15 -1.13871 -1.53966 0
M  V30 75740 H 7216.46 -0.0697375 -3.91738 0
M  V30 75741 H 7218.16 -0.455355 -3.98406 0
M  V30 75742 H 7214.75 -1.88277 -3.85032 0
M  V30 75743 H 7218.93 -2.83826 -4.07132 0
M  V30 75744 H 7214.19 -4.20231 -4.4409 0
M  V30 75745 H 7218.36 -5.16145 -4.67511 0
M  V30 75746 H 7215.99 -5.84849 -4.8565 0
M  V30 75747 N 7217.56 1.42999 -0.662508 0
M  V30 75748 C 7218.51 2.32573 0.0352224 0
M  V30 75749 C 7219.5 1.49136 0.803427 0
M  V30 75750 O 7220.71 1.65286 0.712778 0
M  V30 75751 H 7217.09 0.751394 0.0301798 0
M  V30 75752 H 7219.06 2.89134 -0.737839 0
M  V30 75753 C 7217.81 3.33562 0.981399 0
M  V30 75754 H 7217.13 3.97797 0.399705 0
M  V30 75755 H 7218.57 3.98852 1.43852 0
M  V30 75756 C 7217.03 2.64874 2.0819 0
M  V30 75757 O 7217.56 2.4713 3.16685 0
M  V30 75758 N 7215.76 2.24098 1.8501 0
M  V30 75759 H 7215.31 2.38729 0.967783 0
M  V30 75760 H 7215.27 1.7847 2.58835 0
M  V30 75761 N 7219.04 0.405026 1.52307 0
M  V30 75762 C 7220.29 -0.173423 2.00953 0
M  V30 75763 C 7220.6 -1.46574 1.2952 0
M  V30 75764 O 7221.81 -2.12519 1.68961 0
M  V30 75765 C 7220.26 -0.359613 3.58099 0
M  V30 75766 C 7219.87 0.920369 4.38444 0
M  V30 75767 C 7221.62 -0.893576 4.14989 0
M  V30 75768 C 7219.52 0.701594 5.87224 0
M  V30 75769 H 7218.45 -0.0685848 0.750874 0
M  V30 75770 H 7221.1 0.529842 1.75684 0
M  V30 75771 H 7219.49 -1.12511 3.7968 0
M  V30 75772 H 7220.66 1.6917 4.28624 0
M  V30 75773 H 7218.98 1.38044 3.92852 0
M  V30 75774 H 7221.57 -1.07322 5.23819 0
M  V30 75775 H 7221.92 -1.86711 3.72082 0
M  V30 75776 H 7222.45 -0.187243 3.97359 0
M  V30 75777 H 7219.19 1.64657 6.34483 0
M  V30 75778 H 7218.71 -0.0305125 5.99792 0
M  V30 75779 H 7220.39 0.342186 6.46094 0
M  V30 75780 N 7220.52 -1.57018 0.135321 0
M  V30 75781 C 7221.76 -1.96034 -0.51946 0
M  V30 75782 C 7222.1 -1.01963 -1.65279 0
M  V30 75783 O 7221.37 -0.0598295 -1.94408 0
M  V30 75784 C 7221.66 -3.44854 -1.03672 0
M  V30 75785 C 7221.51 -4.49701 0.0943125 0
M  V30 75786 C 7222.83 -3.95897 -1.92233 0
M  V30 75787 H 7219.95 -0.712789 -0.187353 0
M  V30 75788 H 7222.59 -1.88789 0.214185 0
M  V30 75789 H 7220.74 -3.51159 -1.66191 0
M  V30 75790 H 7222.41 -4.55483 0.73024 0
M  V30 75791 H 7220.65 -4.27177 0.755149 0
M  V30 75792 H 7221.32 -5.51134 -0.309128 0
M  V30 75793 H 7223.8 -3.91998 -1.3956 0
M  V30 75794 H 7222.68 -5.00514 -2.25338 0
M  V30 75795 H 7222.94 -3.37558 -2.85495 0
M  V30 75796 N 7222 0.138469 -1.56991 0
M  V30 75797 C 7222.95 1.17609 -1.95326 0
M  V30 75798 C 7223.93 1.38103 -0.825618 0
M  V30 75799 O 7225.12 1.39522 -1.08916 0
M  V30 75800 C 7222.25 2.50762 -2.34464 0
M  V30 75801 C 7221.34 2.33825 -3.53817 0
M  V30 75802 N 7221.73 1.8666 -4.70098 0
M  V30 75803 C 7220.03 2.64548 -3.59069 0
M  V30 75804 C 7220.73 1.82969 -5.52175 0
M  V30 75805 N 7219.7 2.26598 -4.9412 0
M  V30 75806 H 7223.51 0.80366 -2.82699 0
M  V30 75807 H 7221.02 0.346436 -1.58662 0
M  V30 75808 H 7223.02 3.25783 -2.60136 0
M  V30 75809 H 7221.68 2.8878 -1.48446 0
M  V30 75810 H 7222.69 1.56497 -4.93689 0
M  V30 75811 H 7219.36 3.06383 -2.83612 0
M  V30 75812 H 7220.75 1.47923 -6.55415 0
M  V30 75813 N 7223.47 1.52225 0.40808 0
M  V30 75814 C 7224.7 1.69939 1.17492 0
M  V30 75815 C 7225.11 0.408972 1.84727 0
M  V30 75816 O 7224.46 -0.624934 1.72743 0
M  V30 75817 C 7224.52 2.77967 2.2798 0
M  V30 75818 C 7224.18 4.19684 1.80872 0
M  V30 75819 C 7225.18 5.0349 1.29591 0
M  V30 75820 C 7222.86 4.65923 1.87674 0
M  V30 75821 C 7224.86 6.31608 0.857362 0
M  V30 75822 C 7222.54 5.94029 1.4343 0
M  V30 75823 C 7223.54 6.76701 0.925465 0
M  V30 75824 O 7223.23 8.02409 0.489418 0
M  V30 75825 H 7222.96 0.572774 0.359035 0
M  V30 75826 H 7225.52 1.99566 0.486082 0
M  V30 75827 H 7223.75 2.43719 3.0023 0
M  V30 75828 H 7225.44 2.84269 2.89734 0
M  V30 75829 H 7226.2 4.68958 1.23708 0
M  V30 75830 H 7222.08 4.01677 2.26223 0
M  V30 75831 H 7225.62 6.96085 0.459512 0
M  V30 75832 H 7221.52 6.2807 1.48993 0
M  V30 75833 H 7222.29 8.16204 0.612632 0
M  V30 75834 N 7224.95 -0.665374 1.42865 0
M  V30 75835 C 7226.23 -1.4219 1.34318 0
M  V30 75836 C 7226.61 -2.11095 -0.0149152 0
M  V30 75837 O 7225.96 -2.03923 -1.0309 0
M  V30 75838 C 7226.17 -2.41661 2.51796 0
M  V30 75839 C 7227.52 -3.06024 2.94337 0
M  V30 75840 O 7228.54 -2.51988 2.51755 0
M  V30 75841 O 7227.4 -4.03965 3.68068 0
M  V30 75842 H 7224.49 -0.634685 0.530192 0
M  V30 75843 H 7227.04 -0.693305 1.54891 0
M  V30 75844 H 7225.81 -1.89609 3.42292 0
M  V30 75845 H 7225.43 -3.21988 2.33258 0
M  V30 75846 N 7226.43 -1.29194 -0.902588 0
M  V30 75847 C 7227.67 -1.18262 -1.66713 0
M  V30 75848 C 7228.03 0.262235 -1.90201 0
M  V30 75849 O 7229.24 0.494473 -2.64213 0
M  V30 75850 C 7227.51 -1.97055 -2.98168 0
M  V30 75851 S 7229.07 -2.02625 -3.89215 0
M  V30 75852 H 7225.88 -0.421744 -0.57241 0
M  V30 75853 H 7228.49 -1.63442 -1.0727 0
M  V30 75854 H 7227.19 -3.01177 -2.78784 0
M  V30 75855 H 7226.72 -1.52469 -3.62652 0
M  V30 75856 H 7228.74 -1.14084 -4.82907 0
M  V30 75857 N 7227.91 1.11256 -1.11624 0
M  V30 75858 C 7228.86 2.15472 -0.745387 0
M  V30 75859 C 7229.84 1.58922 0.251502 0
M  V30 75860 O 7231.04 1.76904 0.058316 0
M  V30 75861 C 7228.16 3.42761 -0.192309 0
M  V30 75862 C 7227.25 4.06264 -1.21698 0
M  V30 75863 N 7227.64 4.44595 -2.41182 0
M  V30 75864 C 7225.94 4.33212 -1.06036 0
M  V30 75865 C 7226.64 4.94373 -3.06546 0
M  V30 75866 N 7225.62 4.90648 -2.3402 0
M  V30 75867 H 7229.42 2.4289 -1.65474 0
M  V30 75868 H 7226.93 1.2829 -0.995762 0
M  V30 75869 H 7228.93 4.168 0.0915141 0
M  V30 75870 H 7227.59 3.16806 0.711611 0
M  V30 75871 H 7228.6 4.36565 -2.78623 0
M  V30 75872 H 7225.28 4.16956 -0.213029 0
M  V30 75873 H 7226.67 5.33647 -4.08253 0
M  V30 75874 N 7229.39 0.906844 1.28896 0
M  V30 75875 C 7230.32 0.40678 2.29929 0
M  V30 75876 C 7231.3 -0.521976 1.61893 0
M  V30 75877 O 7232.48 -0.431183 1.89353 0
M  V30 75878 C 7229.61 -0.360184 3.45427 0
M  V30 75879 C 7228.57 0.478799 4.25313 0
M  V30 75880 C 7227.89 -0.416092 5.33079 0
M  V30 75881 C 7229.19 1.73246 4.9273 0
M  V30 75882 H 7230.89 1.25111 2.72006 0
M  V30 75883 H 7228.43 0.603046 1.30765 0
M  V30 75884 H 7230.39 -0.72081 4.15189 0
M  V30 75885 H 7229.11 -1.23836 3.02212 0
M  V30 75886 H 7227.77 0.821851 3.57269 0
M  V30 75887 H 7227.42 -1.29261 4.86108 0
M  V30 75888 H 7227.12 0.141618 5.87429 0
M  V30 75889 H 7228.64 -0.772752 6.0569 0
M  V30 75890 H 7230.06 1.44115 5.54891 0
M  V30 75891 H 7228.45 2.23204 5.57046 0
M  V30 75892 H 7229.52 2.4643 4.17612 0
M  V30 75893 N 7230.87 -1.42645 0.670082 0
M  V30 75894 C 7231.83 -2.292 -0.00192573 0
M  V30 75895 C 7232.83 -1.43083 -0.733741 0
M  V30 75896 O 7234.02 -1.64525 -0.572453 0
M  V30 75897 C 7231.15 -3.25488 -1.01342 0
M  V30 75898 H 7232.34 -2.90114 0.759849 0
M  V30 75899 H 7229.9 -1.50206 0.432184 0
M  V30 75900 H 7230.63 -2.69503 -1.80385 0
M  V30 75901 H 7230.42 -3.88999 -0.492118 0
M  V30 75902 H 7231.91 -3.90411 -1.48219 0
M  V30 75903 N 7232.34 -0.413098 -1.5209 0
M  V30 75904 C 7233.31 0.398568 -2.25708 0
M  V30 75905 C 7234.31 0.9703 -1.28226 0
M  V30 75906 O 7235.5 0.848555 -1.52135 0
M  V30 75907 C 7232.63 1.56144 -3.03038 0
M  V30 75908 H 7233.82 -0.246288 -2.98887 0
M  V30 75909 H 7231.37 -0.165704 -1.55419 0
M  V30 75910 H 7232.11 2.24305 -2.34217 0
M  V30 75911 H 7231.89 1.15793 -3.74612 0
M  V30 75912 H 7233.38 2.1355 -3.58868 0
M  V30 75913 N 7233.82 1.56944 -0.143646 0
M  V30 75914 C 7235.07 1.96307 0.509056 0
M  V30 75915 C 7235.4 1.02838 1.64736 0
M  V30 75916 O 7234.68 0.0701386 1.94373 0
M  V30 75917 C 7234.96 3.45399 1.01842 0
M  V30 75918 C 7234.81 4.49645 -0.11816 0
M  V30 75919 C 7236.13 3.96911 1.9013 0
M  V30 75920 H 7233.25 0.713772 0.18357 0
M  V30 75921 H 7235.89 1.88673 -0.224194 0
M  V30 75922 H 7234.04 3.52036 1.64326 0
M  V30 75923 H 7235.71 4.5509 -0.754385 0
M  V30 75924 H 7233.96 4.2677 -0.777793 0
M  V30 75925 H 7234.63 5.5129 0.279896 0
M  V30 75926 H 7237.1 3.92732 1.3748 0
M  V30 75927 H 7235.98 5.01702 2.2268 0
M  V30 75928 H 7236.24 3.39067 2.83701 0
M  V30 75929 N 7235.3 -0.130141 1.57062 0
M  V30 75930 C 7236.72 -0.483333 1.52105 0
M  V30 75931 C 7236.92 -1.82468 0.854848 0
M  V30 75932 O 7235.97 -2.48769 0.432473 0
M  V30 75933 C 7237.28 -0.478094 2.96875 0
M  V30 75934 C 7238.83 -0.562429 3.07905 0
M  V30 75935 C 7239.31 -0.587689 4.54214 0
M  V30 75936 N 7240.8 -0.649442 4.58625 0
M  V30 75937 C 7241.53 -0.690251 5.6923 0
M  V30 75938 N 7241.03 -0.689379 6.89362 0
M  V30 75939 N 7242.82 -0.732414 5.57308 0
M  V30 75940 H 7234.97 0.748884 1.9876 0
M  V30 75941 H 7237.24 0.275012 0.907233 0
M  V30 75942 H 7236.94 0.439628 3.48941 0
M  V30 75943 H 7236.82 -1.30995 3.53723 0
M  V30 75944 H 7239.2 -1.47057 2.55848 0
M  V30 75945 H 7239.28 0.296898 2.54071 0
M  V30 75946 H 7238.93 0.316363 5.06914 0
M  V30 75947 H 7238.86 -1.46374 5.05848 0
M  V30 75948 H 7241.35 -0.656731 3.7215 0
M  V30 75949 H 7241.66 -0.722833 7.69412 0
M  V30 75950 H 7240.01 -0.656983 6.91888 0
M  V30 75951 H 7243.2 -0.730381 4.62367 0
M  V30 75952 H 7243.37 -0.760751 6.43519 0
M  V30 75953 N 7236.78 -1.52439 -0.400001 0
M  V30 75954 C 7237.71 -1.79398 -1.49461 0
M  V30 75955 C 7238.69 -0.645412 -1.5738 0
M  V30 75956 O 7239.87 -0.891917 -1.72506 0
M  V30 75957 C 7237 -1.95292 -2.87191 0
M  V30 75958 C 7235.96 -3.10932 -2.94118 0
M  V30 75959 C 7235.28 -3.12062 -4.3419 0
M  V30 75960 C 7236.58 -4.50217 -2.64767 0
M  V30 75961 H 7238.28 -2.71059 -1.27151 0
M  V30 75962 H 7235.82 -1.3043 -0.610244 0
M  V30 75963 H 7237.78 -2.12734 -3.63761 0
M  V30 75964 H 7236.5 -1.0031 -3.10814 0
M  V30 75965 H 7235.16 -2.93255 -2.19993 0
M  V30 75966 H 7234.81 -2.14785 -4.54837 0
M  V30 75967 H 7234.51 -3.89738 -4.39748 0
M  V30 75968 H 7236.03 -3.31646 -5.12682 0
M  V30 75969 H 7237.45 -4.68053 -3.31058 0
M  V30 75970 H 7235.84 -5.29879 -2.81689 0
M  V30 75971 H 7236.91 -4.57687 -1.60159 0
M  V30 75972 N 7238.26 0.657788 -1.43216 0
M  V30 75973 C 7239.22 1.75267 -1.47696 0
M  V30 75974 C 7240.22 1.56666 -0.362262 0
M  V30 75975 O 7241.41 1.62647 -0.623819 0
M  V30 75976 C 7238.54 3.14091 -1.32513 0
M  V30 75977 H 7239.73 1.72677 -2.452 0
M  V30 75978 H 7237.29 0.869019 -1.29914 0
M  V30 75979 H 7238.02 3.22296 -0.360001 0
M  V30 75980 H 7237.81 3.28997 -2.13316 0
M  V30 75981 H 7239.3 3.93939 -1.3857 0
M  V30 75982 N 7239.73 1.29671 0.895724 0
M  V30 75983 C 7241.15 1.07769 1.1772 0
M  V30 75984 C 7241.35 -0.168471 2.00794 0
M  V30 75985 O 7240.41 -0.865119 2.37217 0
M  V30 75986 C 7241.72 2.33532 1.89429 0
M  V30 75987 C 7243.27 2.3889 2.02239 0
M  V30 75988 C 7243.74 3.64467 2.77358 0
M  V30 75989 N 7245.23 3.65213 2.8491 0
M  V30 75990 C 7245.97 4.59063 3.43582 0
M  V30 75991 N 7245.46 5.6325 4.03388 0
M  V30 75992 N 7247.26 4.46626 3.41294 0
M  V30 75993 H 7239.41 2.09636 0.341541 0
M  V30 75994 H 7241.67 0.923573 0.213816 0
M  V30 75995 H 7241.38 3.24414 1.35825 0
M  V30 75996 H 7241.25 2.41349 2.8988 0
M  V30 75997 H 7243.64 1.48493 2.55017 0
M  V30 75998 H 7243.72 2.35056 1.00908 0
M  V30 75999 H 7243.36 4.55217 2.25255 0
M  V30 76000 H 7243.29 3.65561 3.79042 0
M  V30 76001 H 7245.78 2.89884 2.42437 0
M  V30 76002 H 7246.1 6.30979 4.46191 0
M  V30 76003 H 7244.44 5.67055 4.01838 0
M  V30 76004 H 7247.63 3.64422 2.93793 0
M  V30 76005 H 7247.81 5.19951 3.86724 0
M  V30 76006 N 7241.21 -1.10663 1.12212 0
M  V30 76007 C 7242.46 -1.82213 0.874241 0
M  V30 76008 C 7242.78 -1.85487 -0.601638 0
M  V30 76009 O 7242.05 -1.33124 -1.43718 0
M  V30 76010 H 7240.63 -0.67478 0.320439 0
M  V30 76011 H 7243.29 -1.3391 1.41613 0
M  V30 76012 H 7242.39 -2.85815 1.25364 0
M  V30 76013 N 7242.69 -0.913667 -1.28413 0
M  V30 76014 C 7244.11 -0.611806 -1.47408 0
M  V30 76015 C 7244.31 0.842912 -1.83023 0
M  V30 76016 O 7243.36 1.622 -1.93514 0
M  V30 76017 C 7244.68 -1.54963 -2.57695 0
M  V30 76018 C 7246.22 -1.55634 -2.71564 0
M  V30 76019 C 7246.7 -2.48079 -3.84995 0
M  V30 76020 N 7248.19 -2.46205 -3.92348 0
M  V30 76021 C 7248.92 -3.14432 -4.795 0
M  V30 76022 N 7248.42 -3.91988 -5.71242 0
M  V30 76023 N 7250.21 -3.0352 -4.73109 0
M  V30 76024 H 7242.36 -1.85434 -1.03576 0
M  V30 76025 H 7244.63 -0.795353 -0.515865 0
M  V30 76026 H 7244.33 -2.58676 -2.38285 0
M  V30 76027 H 7244.21 -1.28067 -3.54794 0
M  V30 76028 H 7246.59 -0.526594 -2.90364 0
M  V30 76029 H 7246.68 -1.86574 -1.74997 0
M  V30 76030 H 7246.32 -3.51155 -3.6695 0
M  V30 76031 H 7246.25 -2.14441 -4.8096 0
M  V30 76032 H 7248.74 -1.89868 -3.26739 0
M  V30 76033 H 7249.05 -4.41068 -6.3457 0
M  V30 76034 H 7247.4 -3.96093 -5.71082 0
M  V30 76035 H 7250.59 -2.42434 -4.00429 0
M  V30 76036 H 7250.76 -3.56964 -5.40815 0
M  V30 76037 N 7244.17 1.42288 -0.677638 0
M  V30 76038 C 7245.08 2.346 -0.00108636 0
M  V30 76039 C 7246.09 1.55248 0.785752 0
M  V30 76040 O 7247.27 1.87804 0.727424 0
M  V30 76041 C 7244.34 3.3381 0.93657 0
M  V30 76042 C 7243.4 4.29059 0.143947 0
M  V30 76043 C 7242.63 5.2353 1.03694 0
M  V30 76044 O 7242.85 5.23004 2.27648 0
M  V30 76045 O 7241.79 5.99851 0.496226 0
M  V30 76046 H 7245.61 2.93997 -0.761552 0
M  V30 76047 H 7243.2 1.42839 -0.437885 0
M  V30 76048 H 7245.08 3.94751 1.47477 0
M  V30 76049 H 7243.75 2.76882 1.67684 0
M  V30 76050 H 7242.66 3.71522 -0.43842 0
M  V30 76051 H 7243.99 4.89035 -0.557268 0
M  V30 76052 N 7245.65 0.421158 1.51868 0
M  V30 76053 C 7246.56 -0.404947 2.31079 0
M  V30 76054 C 7247.57 -1.04258 1.39306 0
M  V30 76055 O 7248.75 -1.04148 1.72381 0
M  V30 76056 C 7245.81 -1.50016 3.12564 0
M  V30 76057 C 7244.87 -0.884337 4.20093 0
M  V30 76058 C 7244.11 -1.92736 4.97683 0
M  V30 76059 O 7244.33 -3.14727 4.75713 0
M  V30 76060 O 7243.26 -1.52689 5.82211 0
M  V30 76061 H 7247.09 0.241246 3.0274 0
M  V30 76062 H 7244.68 0.184069 1.48262 0
M  V30 76063 H 7246.56 -2.1357 3.63271 0
M  V30 76064 H 7245.23 -2.13073 2.43684 0
M  V30 76065 H 7244.14 -0.211182 3.73503 0
M  V30 76066 H 7245.47 -0.297504 4.913 0
M  V30 76067 N 7247.12 -1.56866 0.151967 0
M  V30 76068 C 7248.37 -1.97354 -0.492223 0
M  V30 76069 C 7248.73 -1.03561 -1.62151 0
M  V30 76070 O 7248.02 -0.0715882 -1.91466 0
M  V30 76071 C 7248.21 -3.41917 -1.04055 0
M  V30 76072 C 7248.04 -4.49687 0.0340677 0
M  V30 76073 C 7246.81 -5.03042 0.477179 0
M  V30 76074 C 7249.01 -5.07601 0.827373 0
M  V30 76075 N 7246.99 -5.94422 1.53413 0
M  V30 76076 C 7248.36 -5.95238 1.7347 0
M  V30 76077 C 7250.42 -4.90158 0.874609 0
M  V30 76078 C 7249.12 -6.67299 2.68523 0
M  V30 76079 C 7251.15 -5.62925 1.81299 0
M  V30 76080 C 7250.51 -6.50274 2.70783 0
M  V30 76081 H 7246.61 -0.767716 -0.148781 0
M  V30 76082 H 7249.19 -1.93118 0.247717 0
M  V30 76083 H 7247.36 -3.46737 -1.75009 0
M  V30 76084 H 7249.09 -3.69457 -1.65177 0
M  V30 76085 H 7245.85 -4.73535 0.078499 0
M  V30 76086 H 7246.27 -6.44817 2.06251 0
M  V30 76087 H 7250.92 -4.22341 0.196851 0
M  V30 76088 H 7248.63 -7.34341 3.37296 0
M  V30 76089 H 7252.22 -5.51422 1.8554 0
M  V30 76090 H 7251.1 -7.05592 3.42212 0
M  V30 76091 N 7248.6 0.12181 -1.57129 0
M  V30 76092 C 7249.51 1.16846 -2.03431 0
M  V30 76093 C 7250.53 1.45504 -0.954185 0
M  V30 76094 O 7251.7 1.56676 -1.26549 0
M  V30 76095 C 7248.77 2.47586 -2.42698 0
M  V30 76096 C 7247.83 2.26351 -3.64779 0
M  V30 76097 C 7247.06 3.50856 -4.02164 0
M  V30 76098 O 7247.29 4.5805 -3.39921 0
M  V30 76099 O 7246.22 3.42025 -4.9528 0
M  V30 76100 H 7250.05 0.805285 -2.92829 0
M  V30 76101 H 7247.63 0.3324 -1.45655 0
M  V30 76102 H 7249.51 3.2462 -2.68701 0
M  V30 76103 H 7248.19 2.83383 -1.56447 0
M  V30 76104 H 7247.1 1.47185 -3.43929 0
M  V30 76105 H 7248.43 1.95459 -4.51726 0
M  V30 76106 N 7250.08 1.52649 0.391911 0
M  V30 76107 C 7251.31 1.71722 1.16303 0
M  V30 76108 C 7251.73 0.433375 1.8304 0
M  V30 76109 O 7251.09 -0.610617 1.70708 0
M  V30 76110 C 7251.14 2.86563 2.18893 0
M  V30 76111 O 7250.24 2.53333 3.25417 0
M  V30 76112 H 7249.58 0.571113 0.338712 0
M  V30 76113 H 7252.11 1.99429 0.457097 0
M  V30 76114 H 7252.12 3.11974 2.62938 0
M  V30 76115 H 7250.8 3.79701 1.69706 0
M  V30 76116 H 7249.37 2.38652 2.8653 0
M  V30 76117 N 7251.56 -0.650184 1.43563 0
M  V30 76118 C 7252.52 -1.74481 1.48624 0
M  V30 76119 C 7253.52 -1.56472 0.370565 0
M  V30 76120 O 7254.71 -1.62314 0.632436 0
M  V30 76121 C 7251.84 -3.13384 1.34177 0
M  V30 76122 H 7253.04 -1.71374 2.46112 0
M  V30 76123 H 7250.59 -0.862117 1.30373 0
M  V30 76124 H 7251.32 -3.221 0.377088 0
M  V30 76125 H 7251.11 -3.27861 2.15058 0
M  V30 76126 H 7252.6 -3.93199 1.40657 0
M  V30 76127 N 7253.04 -1.30144 -0.888834 0
M  V30 76128 C 7254 -1.16184 -1.9757 0
M  V30 76129 C 7255 -0.0941706 -1.60524 0
M  V30 76130 O 7256.19 -0.341979 -1.7081 0
M  V30 76131 C 7253.32 -0.779158 -3.31876 0
M  V30 76132 H 7254.51 -2.12739 -2.11382 0
M  V30 76133 H 7252.07 -1.13486 -1.07474 0
M  V30 76134 H 7252.8 0.186055 -3.23766 0
M  V30 76135 H 7252.59 -1.5507 -3.60133 0
M  V30 76136 H 7254.08 -0.704848 -4.11609 0
M  V30 76137 N 7254.51 1.10066 -1.12797 0
M  V30 76138 C 7255.44 2.1856 -0.821803 0
M  V30 76139 C 7256.43 1.68723 0.216031 0
M  V30 76140 O 7257.61 1.9405 0.0763908 0
M  V30 76141 C 7254.74 3.46171 -0.279807 0
M  V30 76142 C 7253.69 4.09305 -1.25114 0
M  V30 76143 C 7253.02 5.31662 -0.569197 0
M  V30 76144 C 7254.32 4.52572 -2.60722 0
M  V30 76145 H 7256.01 2.44429 -1.72901 0
M  V30 76146 H 7253.56 1.17478 -0.832764 0
M  V30 76147 H 7255.51 4.21366 -0.0533212 0
M  V30 76148 H 7254.24 3.19805 0.66276 0
M  V30 76149 H 7252.9 3.36121 -1.4635 0
M  V30 76150 H 7252.54 5.01573 0.378633 0
M  V30 76151 H 7252.24 5.74855 -1.21717 0
M  V30 76152 H 7253.77 6.09585 -0.351838 0
M  V30 76153 H 7255.18 5.19022 -2.43493 0
M  V30 76154 H 7253.58 5.06627 -3.21634 0
M  V30 76155 H 7254.65 3.653 -3.18879 0
M  V30 76156 N 7255.99 0.920464 1.27927 0
M  V30 76157 C 7256.92 0.371288 2.26173 0
M  V30 76158 C 7257.94 -0.493984 1.55125 0
M  V30 76159 O 7259.13 -0.307777 1.75827 0
M  V30 76160 C 7256.23 -0.487304 3.35378 0
M  V30 76161 C 7255.4 0.357002 4.35941 0
M  V30 76162 C 7254.46 -0.437765 5.24376 0
M  V30 76163 O 7253.48 0.152015 5.68997 0
M  V30 76164 N 7254.69 -1.73927 5.53832 0
M  V30 76165 H 7257.45 1.21579 2.73932 0
M  V30 76166 H 7255.01 0.787121 1.41478 0
M  V30 76167 H 7257 -1.02589 3.91481 0
M  V30 76168 H 7255.57 -1.23254 2.87276 0
M  V30 76169 H 7254.79 1.07692 3.79204 0
M  V30 76170 H 7256.08 0.93447 5.00145 0
M  V30 76171 H 7255.48 -2.24086 5.19424 0
M  V30 76172 H 7254.04 -2.22453 6.12664 0
M  V30 76173 N 7257.47 -1.41926 0.685174 0
M  V30 76174 C 7258.42 -2.326 0.0017825 0
M  V30 76175 C 7259.41 -1.50395 -0.779599 0
M  V30 76176 O 7260.62 -1.66399 -0.686392 0
M  V30 76177 H 7256.99 -0.751779 -0.0182219 0
M  V30 76178 H 7258.97 -2.87924 0.783744 0
M  V30 76179 C 7257.71 -3.35081 -0.928208 0
M  V30 76180 H 7257.04 -3.98382 -0.336368 0
M  V30 76181 H 7258.48 -4.0109 -1.37488 0
M  V30 76182 C 7256.94 -2.68153 -2.0395 0
M  V30 76183 O 7257.47 -2.52137 -3.12714 0
M  V30 76184 N 7255.67 -2.27013 -1.81421 0
M  V30 76185 H 7255.22 -2.40239 -0.929681 0
M  V30 76186 H 7255.18 -1.82566 -2.55963 0
M  V30 76187 N 7258.95 -0.429206 -1.51643 0
M  V30 76188 C 7259.91 0.374606 -2.26118 0
M  V30 76189 C 7260.91 0.956646 -1.29248 0
M  V30 76190 O 7262.1 0.832372 -1.53027 0
M  V30 76191 C 7259.23 1.52921 -3.04677 0
M  V30 76192 H 7260.43 -0.277976 -2.98609 0
M  V30 76193 H 7257.98 -0.182179 -1.55235 0
M  V30 76194 H 7258.72 2.21808 -2.36583 0
M  V30 76195 H 7258.5 1.11813 -3.7582 0
M  V30 76196 H 7259.99 2.09732 -3.61113 0
M  V30 76197 N 7260.43 1.56783 -0.160284 0
M  V30 76198 C 7261.38 2.18727 0.791286 0
M  V30 76199 C 7262.37 1.14808 1.24561 0
M  V30 76200 O 7263.58 1.33031 1.21255 0
M  V30 76201 H 7259.95 0.700532 0.273421 0
M  V30 76202 H 7261.92 2.97394 0.244774 0
M  V30 76203 C 7260.67 2.83365 2.01494 0
M  V30 76204 H 7259.99 3.6305 1.67435 0
M  V30 76205 H 7261.43 3.30191 2.65988 0
M  V30 76206 C 7259.89 1.8256 2.83149 0
M  V30 76207 O 7260.42 1.30425 3.79937 0
M  V30 76208 N 7258.63 1.51565 2.47945 0
M  V30 76209 H 7258.18 1.94153 1.69299 0
M  V30 76210 H 7258.13 0.843679 3.02869 0
M  V30 76211 N 7261.91 -0.113476 1.57191 0
M  V30 76212 C 7263.13 -0.834322 1.89332 0
M  V30 76213 C 7263.55 -1.73173 0.75211 0
M  V30 76214 O 7262.91 -1.80388 -0.276817 0
M  V30 76215 C 7262.96 -1.66312 3.20971 0
M  V30 76216 O 7262.68 -0.801842 4.307 0
M  V30 76217 C 7264.18 -2.48864 3.66853 0
M  V30 76218 H 7261.4 -0.239554 0.626782 0
M  V30 76219 H 7263.94 -0.0962117 2.04274 0
M  V30 76220 H 7262.1 -2.35393 3.07683 0
M  V30 76221 H 7262.51 -1.37404 5.06182 0
M  V30 76222 H 7263.99 -3.02539 4.61708 0
M  V30 76223 H 7264.46 -3.26479 2.93782 0
M  V30 76224 H 7265.07 -1.85016 3.82948 0
M  V30 76225 N 7263.38 -1.52855 -0.38381 0
M  V30 76226 C 7264.33 -1.78002 -1.46914 0
M  V30 76227 C 7265.3 -0.623477 -1.53954 0
M  V30 76228 O 7266.49 -0.863746 -1.7013 0
M  V30 76229 C 7263.63 -1.95936 -2.84083 0
M  V30 76230 C 7262.74 -3.23636 -2.86154 0
M  V30 76231 C 7261.87 -3.31858 -4.14782 0
M  V30 76232 C 7260.91 -4.5366 -4.10924 0
M  V30 76233 N 7260.05 -4.59135 -5.31168 0
M  V30 76234 H 7264.89 -2.70622 -1.24771 0
M  V30 76235 H 7262.43 -1.34074 -0.605195 0
M  V30 76236 H 7264.38 -2.04318 -3.63744 0
M  V30 76237 H 7263.01 -1.06672 -3.04665 0
M  V30 76238 H 7262.07 -3.24299 -1.98833 0
M  V30 76239 H 7263.38 -4.13358 -2.79172 0
M  V30 76240 H 7262.53 -3.39451 -5.02849 0
M  V30 76241 H 7261.27 -2.40119 -4.24493 0
M  V30 76242 H 7260.28 -4.46186 -3.21244 0
M  V30 76243 H 7261.5 -5.46721 -4.02831 0
M  V30 76244 H 7259.45 -3.70291 -5.41499 0
M  V30 76245 H 7259.36 -5.42736 -5.26283 0
M  V30 76246 H 7260.63 -4.7099 -6.21119 0
M  V30 76247 N 7264.86 0.642561 -1.43906 0
M  V30 76248 C 7266.1 1.414 -1.47599 0
M  V30 76249 C 7266.47 1.91732 -0.101414 0
M  V30 76250 O 7267.67 2.68797 -0.0130214 0
M  V30 76251 C 7265.94 2.55623 -2.49783 0
M  V30 76252 S 7267.5 3.43983 -2.72435 0
M  V30 76253 H 7264.31 0.482535 -0.522188 0
M  V30 76254 H 7266.92 0.744989 -1.80749 0
M  V30 76255 H 7265.62 2.16938 -3.48376 0
M  V30 76256 H 7265.15 3.27363 -2.18167 0
M  V30 76257 H 7267.17 4.52701 -2.03166 0
M  V30 76258 N 7266.34 1.30614 0.88192 0
M  V30 76259 C 7267.29 1.17165 2.00935 0
M  V30 76260 C 7268.28 0.0828047 1.69197 0
M  V30 76261 O 7269.49 0.243869 1.7834 0
M  V30 76262 H 7265.86 0.362441 0.658894 0
M  V30 76263 H 7267.83 2.12578 2.09412 0
M  V30 76264 C 7266.58 0.88345 3.36289 0
M  V30 76265 H 7265.91 1.71339 3.61224 0
M  V30 76266 H 7267.35 0.829475 4.15807 0
M  V30 76267 C 7265.8 -0.413675 3.34351 0
M  V30 76268 O 7266.33 -1.43424 3.75223 0
M  V30 76269 N 7264.54 -0.425931 2.87462 0
M  V30 76270 H 7264.09 0.405064 2.54395 0
M  V30 76271 H 7264.05 -1.29376 2.86547 0
M  V30 76272 N 7267.82 -1.09466 1.1338 0
M  V30 76273 C 7269.07 -1.81275 0.893517 0
M  V30 76274 C 7269.39 -1.86114 -0.581931 0
M  V30 76275 O 7268.66 -1.3464 -1.42298 0
M  V30 76276 H 7267.24 -0.671343 0.327578 0
M  V30 76277 H 7269.9 -1.324 1.43025 0
M  V30 76278 H 7268.99 -2.84469 1.28389 0
M  V30 76279 N 7269.3 -0.927235 -1.27437 0
M  V30 76280 C 7270.23 -0.443309 -2.29253 0
M  V30 76281 C 7271.21 0.496154 -1.62703 0
M  V30 76282 O 7272.39 0.401004 -1.90015 0
M  V30 76283 C 7269.52 0.305184 -3.45957 0
M  V30 76284 C 7268.48 -0.546402 -4.24498 0
M  V30 76285 C 7267.8 0.331231 -5.33673 0
M  V30 76286 C 7269.1 -1.81063 -4.89912 0
M  V30 76287 H 7270.8 -1.29423 -2.69982 0
M  V30 76288 H 7268.34 -0.623773 -1.29789 0
M  V30 76289 H 7270.29 0.654666 -4.16284 0
M  V30 76290 H 7269.02 1.19013 -3.04144 0
M  V30 76291 H 7267.68 -0.878585 -3.55916 0
M  V30 76292 H 7267.33 1.21511 -4.88102 0
M  V30 76293 H 7267.03 -0.235055 -5.8713 0
M  V30 76294 H 7268.55 0.676294 -6.06843 0
M  V30 76295 H 7269.96 -1.52924 -5.52528 0
M  V30 76296 H 7268.36 -2.32038 -5.53424 0
M  V30 76297 H 7269.43 -2.53043 -4.13639 0
M  V30 76298 N 7270.77 1.41561 -0.692691 0
M  V30 76299 C 7271.7 2.33466 -0.0398556 0
M  V30 76300 C 7272.68 1.51661 0.770254 0
M  V30 76301 O 7273.87 1.80207 0.723808 0
M  V30 76302 C 7271 3.35454 0.899318 0
M  V30 76303 C 7269.95 4.27549 0.196513 0
M  V30 76304 C 7269.28 5.19887 1.24985 0
M  V30 76305 C 7270.58 5.13855 -0.935429 0
M  V30 76306 H 7272.27 2.88307 -0.807448 0
M  V30 76307 H 7269.82 1.38626 -0.389738 0
M  V30 76308 H 7271.77 3.98672 1.36524 0
M  V30 76309 H 7270.5 2.78957 1.69854 0
M  V30 76310 H 7269.16 3.65751 -0.249351 0
M  V30 76311 H 7268.8 4.59707 2.04153 0
M  V30 76312 H 7268.5 5.82338 0.784624 0
M  V30 76313 H 7270.03 5.85981 1.71634 0
M  V30 76314 H 7271.44 5.70656 -0.54992 0
M  V30 76315 H 7269.84 5.85231 -1.32757 0
M  V30 76316 H 7270.91 4.51191 -1.77637 0
M  V30 76317 N 7272.25 0.437242 1.51413 0
M  V30 76318 C 7273.66 -0.0259021 1.86682 0
M  V30 76319 C 7274.01 -1.41953 1.3544 0
M  V30 76320 O 7273.14 -2.04588 0.705163 0
M  V30 76321 C 7273.73 -0.0537791 3.38757 0
M  V30 76322 C 7272.29 -0.461335 3.73562 0
M  V30 76323 C 7271.44 0.34607 2.75132 0
M  V30 76324 H 7274.39 0.653089 1.44639 0
M  V30 76325 H 7274.41 -0.863283 3.70577 0
M  V30 76326 H 7273.92 0.960648 3.76023 0
M  V30 76327 H 7272.03 -1.48137 3.41886 0
M  V30 76328 H 7272.14 -0.186199 4.78738 0
M  V30 76329 H 7270.5 -0.195605 2.53948 0
M  V30 76330 H 7271.29 1.35937 3.1524 0
M  V30 76331 N 7273.73 -1.56696 0.168596 0
M  V30 76332 C 7274.98 -1.97092 -0.477761 0
M  V30 76333 C 7275.31 -1.05446 -1.63079 0
M  V30 76334 O 7274.58 -0.101053 -1.94237 0
M  V30 76335 C 7274.87 -3.46975 -0.963338 0
M  V30 76336 C 7274.72 -4.494 0.18968 0
M  V30 76337 C 7276.04 -3.99886 -1.83792 0
M  V30 76338 H 7273.16 -0.716603 -0.172191 0
M  V30 76339 H 7275.8 -1.88292 0.254182 0
M  V30 76340 H 7273.95 -3.54605 -1.58705 0
M  V30 76341 H 7275.62 -4.53832 0.826691 0
M  V30 76342 H 7273.87 -4.25479 0.84559 0
M  V30 76343 H 7274.54 -5.51665 -0.192155 0
M  V30 76344 H 7277.01 -3.9487 -1.31214 0
M  V30 76345 H 7275.89 -5.05181 -2.1467 0
M  V30 76346 H 7276.15 -3.43537 -2.7827 0
M  V30 76347 N 7275.21 0.105138 -1.57249 0
M  V30 76348 C 7276.45 0.806593 -1.86723 0
M  V30 76349 C 7276.81 1.76833 -0.758154 0
M  V30 76350 O 7276.1 1.90082 0.240711 0
M  V30 76351 C 7276.3 1.5827 -3.20445 0
M  V30 76352 C 7276.13 0.69763 -4.44256 0
M  V30 76353 C 7274.9 0.347178 -5.04106 0
M  V30 76354 C 7277.09 0.00905894 -5.14299 0
M  V30 76355 N 7275.08 -0.547109 -6.11457 0
M  V30 76356 C 7276.45 -0.743684 -6.15524 0
M  V30 76357 C 7278.5 -0.065913 -4.97856 0
M  V30 76358 C 7277.2 -1.56438 -7.02082 0
M  V30 76359 C 7279.23 -0.873476 -5.84914 0
M  V30 76360 C 7278.59 -1.61437 -6.85651 0
M  V30 76361 H 7274.69 0.271641 -0.733304 0
M  V30 76362 H 7277.28 0.0696126 -1.94576 0
M  V30 76363 H 7275.45 2.29063 -3.13664 0
M  V30 76364 H 7277.18 2.23057 -3.3768 0
M  V30 76365 H 7273.93 0.69257 -4.68509 0
M  V30 76366 H 7274.36 -0.98651 -6.69774 0
M  V30 76367 H 7279 0.492546 -4.19921 0
M  V30 76368 H 7276.72 -2.13394 -7.79416 0
M  V30 76369 H 7280.3 -0.934027 -5.74254 0
M  V30 76370 H 7279.18 -2.2292 -7.51849 0
M  V30 76371 N 7276.69 1.53056 0.375699 0
M  V30 76372 C 7277.93 1.68414 1.11718 0
M  V30 76373 C 7278.26 0.43333 1.90124 0
M  V30 76374 O 7277.53 -0.552496 1.87948 0
M  V30 76375 H 7276.11 0.620835 0.415419 0
M  V30 76376 H 7278.77 1.90215 0.424769 0
M  V30 76377 H 7277.86 2.54065 1.81266 0
M  V30 76378 N 7278.16 -0.634921 1.44245 0
M  V30 76379 C 7279.58 -1.21648 1.41629 0
M  V30 76380 C 7279.93 -1.95771 0.129687 0
M  V30 76381 O 7279.05 -2.02233 -0.770118 0
M  V30 76382 C 7279.65 -2.21265 2.56569 0
M  V30 76383 C 7278.21 -2.74856 2.5716 0
M  V30 76384 C 7277.35 -1.49791 2.33362 0
M  V30 76385 H 7280.3 -0.425824 1.5288 0
M  V30 76386 H 7280.32 -3.03795 2.29105 0
M  V30 76387 H 7279.84 -1.67288 3.50195 0
M  V30 76388 H 7277.94 -3.32846 1.67464 0
M  V30 76389 H 7278.05 -3.21153 3.55524 0
M  V30 76390 H 7276.41 -1.77789 1.82382 0
M  V30 76391 H 7277.2 -0.977228 3.29097 0
M  V30 76392 N 7279.64 -1.3108 -0.874981 0
M  V30 76393 C 7280.59 -1.14908 -1.96927 0
M  V30 76394 C 7281.58 -0.0614551 -1.60783 0
M  V30 76395 O 7282.77 -0.285844 -1.74677 0
M  V30 76396 C 7279.9 -0.853342 -3.32525 0
M  V30 76397 C 7278.98 -1.98171 -3.74952 0
M  V30 76398 N 7279.37 -3.22819 -3.89386 0
M  V30 76399 C 7277.67 -1.88032 -4.04426 0
M  V30 76400 C 7278.37 -3.96596 -4.25543 0
M  V30 76401 N 7277.35 -3.24724 -4.35953 0
M  V30 76402 H 7281.15 -2.09435 -2.0619 0
M  V30 76403 H 7278.67 -1.22564 -1.06545 0
M  V30 76404 H 7280.66 -0.718482 -4.10662 0
M  V30 76405 H 7279.32 0.0837507 -3.24592 0
M  V30 76406 H 7280.33 -3.57993 -3.74248 0
M  V30 76407 H 7277.01 -1.01755 -4.0491 0
M  V30 76408 H 7278.4 -5.03988 -4.44349 0
M  V30 76409 N 7281.12 1.08863 -1.13958 0
M  V30 76410 C 7282.37 1.81425 -0.906246 0
M  V30 76411 C 7282.7 1.85769 0.565991 0
M  V30 76412 O 7281.97 1.33013 1.41908 0
M  V30 76413 C 7282.26 3.27279 -1.502 0
M  V30 76414 C 7282.11 3.31173 -3.04376 0
M  V30 76415 C 7283.43 4.24125 -1.17499 0
M  V30 76416 H 7280.55 0.65866 -0.330659 0
M  V30 76417 H 7283.19 1.27487 -1.4088 0
M  V30 76418 H 7281.34 3.73342 -1.07461 0
M  V30 76419 H 7283.01 2.9347 -3.55912 0
M  V30 76420 H 7281.26 2.70584 -3.39067 0
M  V30 76421 H 7281.93 4.33948 -3.41164 0
M  V30 76422 H 7284.4 3.86377 -1.54441 0
M  V30 76423 H 7283.28 5.24504 -1.61823 0
M  V30 76424 H 7283.54 4.42009 -0.0895643 0
M  V30 76425 N 7282.6 0.93398 1.26943 0
M  V30 76426 C 7284.01 0.621417 1.76055 0
M  V30 76427 C 7284.36 -0.863429 1.7618 0
M  V30 76428 O 7283.49 -1.67569 1.36929 0
M  V30 76429 C 7284.08 1.12128 3.19707 0
M  V30 76430 C 7282.64 0.859267 3.66461 0
M  V30 76431 C 7281.79 1.27637 2.46179 0
M  V30 76432 H 7284.74 1.11307 1.13121 0
M  V30 76433 H 7284.76 0.471807 3.77564 0
M  V30 76434 H 7284.27 2.20199 3.19584 0
M  V30 76435 H 7282.37 -0.207369 3.72022 0
M  V30 76436 H 7282.48 1.48122 4.55628 0
M  V30 76437 H 7280.85 0.694857 2.45038 0
M  V30 76438 H 7281.63 2.36585 2.48761 0
M  V30 76439 N 7284.08 -1.41192 0.700189 0
M  V30 76440 C 7284.99 -2.34569 0.038409 0
M  V30 76441 C 7286 -1.56478 -0.760954 0
M  V30 76442 O 7287.18 -1.88938 -0.697454 0
M  V30 76443 C 7284.24 -3.35258 -0.883346 0
M  V30 76444 C 7283.3 -4.29233 -0.0756693 0
M  V30 76445 C 7282.54 -5.25113 -0.953523 0
M  V30 76446 O 7282.76 -5.26559 -2.19298 0
M  V30 76447 O 7281.69 -6.00565 -0.400732 0
M  V30 76448 H 7285.52 -2.92748 0.808228 0
M  V30 76449 H 7283.11 -1.42124 0.460554 0
M  V30 76450 H 7284.99 -3.97048 -1.41178 0
M  V30 76451 H 7283.66 -2.79515 -1.63258 0
M  V30 76452 H 7282.57 -3.70778 0.49747 0
M  V30 76453 H 7283.9 -4.88087 0.634998 0
M  V30 76454 N 7285.55 -0.445265 -1.51179 0
M  V30 76455 C 7286.78 0.119336 -2.07056 0
M  V30 76456 C 7287.2 1.35009 -1.30973 0
M  V30 76457 O 7286.56 1.77891 -0.349921 0
M  V30 76458 C 7286.61 0.412239 -3.58236 0
M  V30 76459 O 7285.71 1.49734 -3.84257 0
M  V30 76460 H 7285.06 -0.00161299 -0.663998 0
M  V30 76461 H 7287.59 -0.628881 -1.94695 0
M  V30 76462 H 7287.6 0.660371 -4.0262 0
M  V30 76463 H 7286.27 -0.487266 -4.13036 0
M  V30 76464 H 7284.85 1.23855 -3.51731 0
M  V30 76465 N 7287.03 1.56604 -0.176904 0
M  V30 76466 C 7288 2.17017 0.737315 0
M  V30 76467 C 7289 1.11971 1.15408 0
M  V30 76468 O 7290.19 1.37455 1.07013 0
M  V30 76469 C 7287.32 2.75755 2.0043 0
M  V30 76470 H 7288.51 2.99155 0.211298 0
M  V30 76471 H 7286.06 1.56131 0.0726759 0
M  V30 76472 H 7286.8 1.97366 2.57327 0
M  V30 76473 H 7286.58 3.52635 1.71437 0
M  V30 76474 H 7288.07 3.22201 2.65662 0
M  V30 76475 N 7288.51 -0.0967971 1.57302 0
M  V30 76476 C 7289.76 -0.800601 1.86002 0
M  V30 76477 C 7290.09 -1.78816 0.765183 0
M  V30 76478 O 7289.34 -1.94206 -0.24139 0
M  V30 76479 C 7289.64 -1.56569 3.2128 0
M  V30 76480 C 7289.31 -0.720405 4.45108 0
M  V30 76481 C 7287.97 -0.487379 4.78725 0
M  V30 76482 C 7290.32 -0.132674 5.21031 0
M  V30 76483 C 7287.65 0.343269 5.85695 0
M  V30 76484 C 7290 0.685288 6.28877 0
M  V30 76485 C 7288.66 0.928422 6.61012 0
M  V30 76486 H 7287.93 -0.292961 0.680628 0
M  V30 76487 H 7290.58 -0.0621464 1.91399 0
M  V30 76488 H 7288.89 -2.37567 3.1156 0
M  V30 76489 H 7290.58 -2.1146 3.40713 0
M  V30 76490 H 7287.17 -0.912138 4.18782 0
M  V30 76491 H 7291.36 -0.299871 4.95393 0
M  V30 76492 H 7286.61 0.540638 6.09005 0
M  V30 76493 H 7290.79 1.14758 6.8688 0
M  V30 76494 H 7288.41 1.57387 7.43729 0
M  V30 76495 N 7289.99 -1.53254 -0.367576 0
M  V30 76496 C 7290.95 -1.7888 -1.43298 0
M  V30 76497 C 7291.95 -0.659193 -1.46667 0
M  V30 76498 O 7293.14 -0.927384 -1.47463 0
M  V30 76499 C 7290.27 -1.90906 -2.82431 0
M  V30 76500 H 7291.47 -2.7403 -1.2185 0
M  V30 76501 H 7289.02 -1.443 -0.600592 0
M  V30 76502 H 7289.76 -0.978163 -3.09196 0
M  V30 76503 H 7289.54 -2.73066 -2.81385 0
M  V30 76504 H 7291.03 -2.12333 -3.5959 0
M  V30 76505 N 7291.47 0.627262 -1.44579 0
M  V30 76506 C 7292.7 1.41386 -1.51055 0
M  V30 76507 C 7293.11 1.88305 -0.136668 0
M  V30 76508 O 7292.47 1.61064 0.858166 0
M  V30 76509 C 7292.52 2.63158 -2.47851 0
M  V30 76510 O 7292.24 2.18195 -3.79898 0
M  V30 76511 C 7293.74 3.56243 -2.63829 0
M  V30 76512 H 7290.96 0.433473 -0.512194 0
M  V30 76513 H 7293.5 0.766778 -1.89581 0
M  V30 76514 H 7291.66 3.2395 -2.12451 0
M  V30 76515 H 7292.07 2.97169 -4.32193 0
M  V30 76516 H 7293.55 4.38283 -3.35577 0
M  V30 76517 H 7294.02 4.05304 -1.6919 0
M  V30 76518 H 7294.63 3.01318 -3.00146 0
M  V30 76519 N 7292.95 1.31542 0.868017 0
M  V30 76520 C 7294.19 1.22641 1.63519 0
M  V30 76521 C 7294.55 -0.211715 1.90829 0
M  V30 76522 O 7295.75 -0.424247 2.65431 0
M  V30 76523 C 7294.02 2.04891 2.92838 0
M  V30 76524 S 7295.58 2.12873 3.83706 0
M  V30 76525 H 7292.4 0.436772 0.561027 0
M  V30 76526 H 7295 1.66229 1.02899 0
M  V30 76527 H 7293.7 3.08463 2.70701 0
M  V30 76528 H 7293.24 1.6203 3.58483 0
M  V30 76529 H 7295.25 1.26847 4.79713 0
M  V30 76530 N 7294.42 -1.08258 1.14534 0
M  V30 76531 C 7295.35 -2.17225 0.856471 0
M  V30 76532 C 7296.33 -1.69045 -0.189161 0
M  V30 76533 O 7297.52 -1.94147 -0.0455095 0
M  V30 76534 C 7294.65 -3.45682 0.334844 0
M  V30 76535 C 7293.6 -4.07263 1.3161 0
M  V30 76536 C 7292.93 -5.30689 0.653707 0
M  V30 76537 C 7294.23 -4.48367 2.67889 0
M  V30 76538 H 7295.92 -2.41647 1.76768 0
M  V30 76539 H 7293.47 -1.16138 0.851348 0
M  V30 76540 H 7295.42 -4.21228 0.12035 0
M  V30 76541 H 7294.15 -3.20819 -0.611798 0
M  V30 76542 H 7292.81 -3.3375 1.51679 0
M  V30 76543 H 7292.45 -5.02112 -0.29879 0
M  V30 76544 H 7292.15 -5.72846 1.30847 0
M  V30 76545 H 7293.68 -6.08949 0.448774 0
M  V30 76546 H 7295.09 -5.15083 2.51719 0
M  V30 76547 H 7293.49 -5.01446 3.29654 0
M  V30 76548 H 7294.56 -3.6018 3.24651 0
M  V30 76549 N 7295.9 -0.940699 -1.26446 0
M  V30 76550 C 7296.86 -0.454496 -2.24649 0
M  V30 76551 C 7297.86 0.43414 -1.54828 0
M  V30 76552 O 7299.05 0.233386 -1.7263 0
M  V30 76553 C 7296.19 0.345013 -3.3915 0
M  V30 76554 H 7297.38 -1.32231 -2.69175 0
M  V30 76555 H 7294.93 -0.72262 -1.38593 0
M  V30 76556 H 7295.67 1.23109 -3.00024 0
M  V30 76557 H 7295.45 -0.292313 -3.91009 0
M  V30 76558 H 7296.94 0.675124 -4.12107 0
M  V30 76559 N 7297.38 1.40818 -0.707667 0
M  V30 76560 C 7298.8 1.55 -0.380421 0
M  V30 76561 C 7299 1.68068 1.11155 0
M  V30 76562 O 7298.05 1.66584 1.89752 0
M  V30 76563 C 7299.36 2.78271 -1.13954 0
M  V30 76564 C 7300.91 2.92081 -1.12507 0
M  V30 76565 C 7301.39 4.18255 -1.86619 0
M  V30 76566 N 7302.88 4.25238 -1.83648 0
M  V30 76567 C 7303.61 5.21755 -2.37822 0
M  V30 76568 N 7303.11 6.24228 -3.00518 0
M  V30 76569 N 7304.9 5.13779 -2.28009 0
M  V30 76570 H 7297.05 1.30581 -1.67518 0
M  V30 76571 H 7299.32 0.630863 -0.707612 0
M  V30 76572 H 7299.02 2.74865 -2.19413 0
M  V30 76573 H 7298.9 3.70148 -0.725988 0
M  V30 76574 H 7301.28 2.94995 -0.078712 0
M  V30 76575 H 7301.36 2.01344 -1.57779 0
M  V30 76576 H 7301.01 4.16102 -2.91241 0
M  V30 76577 H 7300.94 5.07986 -1.38773 0
M  V30 76578 H 7303.43 3.51822 -1.37949 0
M  V30 76579 H 7303.74 6.94286 -3.39392 0
M  V30 76580 H 7302.09 6.24695 -3.046 0
M  V30 76581 H 7305.28 4.32651 -1.78692 0
M  V30 76582 H 7305.45 5.88827 -2.7053 0
M  V30 76583 N 7298.86 0.453276 1.50941 0
M  V30 76584 C 7299.81 -0.368349 2.25005 0
M  V30 76585 C 7300.79 -0.976647 1.27869 0
M  V30 76586 O 7301.98 -0.892147 1.52872 0
M  V30 76587 C 7299.11 -1.45997 3.10708 0
M  V30 76588 C 7298.2 -0.860287 4.15283 0
M  V30 76589 N 7298.59 0.00876283 5.05799 0
M  V30 76590 C 7296.89 -1.12617 4.31548 0
M  V30 76591 C 7297.59 0.347257 5.80663 0
M  V30 76592 N 7296.56 -0.273139 5.42913 0
M  V30 76593 H 7300.37 0.3014 2.9235 0
M  V30 76594 H 7297.88 0.266317 1.60201 0
M  V30 76595 H 7299.88 -2.0616 3.62358 0
M  V30 76596 H 7298.54 -2.1319 2.44909 0
M  V30 76597 H 7299.55 0.376349 5.16531 0
M  V30 76598 H 7296.23 -1.7944 3.76971 0
M  V30 76599 H 7297.62 1.05542 6.63559 0
M  V30 76600 N 7300.34 -1.56508 0.185206 0
M  V30 76601 C 7301.28 -2.19958 -0.756389 0
M  V30 76602 C 7302.28 -1.16775 -1.22719 0
M  V30 76603 O 7303.48 -1.34943 -1.19123 0
M  V30 76604 H 7299.86 -0.704793 -0.262242 0
M  V30 76605 H 7301.83 -2.97746 -0.19743 0
M  V30 76606 C 7300.58 -2.86534 -1.9696 0
M  V30 76607 H 7299.9 -3.65668 -1.61638 0
M  V30 76608 H 7301.34 -3.34381 -2.60702 0
M  V30 76609 C 7299.8 -1.87042 -2.80209 0
M  V30 76610 O 7300.33 -1.36453 -3.77814 0
M  V30 76611 N 7298.54 -1.5549 -2.45502 0
M  V30 76612 H 7298.08 -1.96822 -1.66189 0
M  V30 76613 H 7298.04 -0.891756 -3.01488 0
M  V30 76614 N 7301.81 0.0884536 -1.57352 0
M  V30 76615 C 7303.04 0.804096 -1.90636 0
M  V30 76616 C 7303.46 1.71954 -0.779565 0
M  V30 76617 O 7302.81 1.80806 0.248084 0
M  V30 76618 C 7302.87 1.61185 -3.23576 0
M  V30 76619 O 7302.59 0.73322 -4.31921 0
M  V30 76620 C 7304.09 2.42996 -3.70766 0
M  V30 76621 H 7301.31 0.229552 -0.630513 0
M  V30 76622 H 7303.85 0.0637014 -2.04401 0
M  V30 76623 H 7302.01 2.30469 -3.11389 0
M  V30 76624 H 7302.42 1.29334 -5.08304 0
M  V30 76625 H 7303.89 2.95155 -4.66463 0
M  V30 76626 H 7304.37 3.21764 -2.98939 0
M  V30 76627 H 7304.98 1.789 -3.85843 0
M  V30 76628 N 7303.29 1.53446 0.359444 0
M  V30 76629 C 7304.52 1.7359 1.12026 0
M  V30 76630 C 7304.93 0.467534 1.83332 0
M  V30 76631 O 7304.27 -0.569661 1.74644 0
M  V30 76632 C 7304.34 2.85079 2.19021 0
M  V30 76633 C 7304 4.25225 1.67428 0
M  V30 76634 C 7305 5.07358 1.13508 0
M  V30 76635 C 7302.68 4.71657 1.72756 0
M  V30 76636 C 7304.68 6.34015 0.655987 0
M  V30 76637 C 7302.36 5.98292 1.24459 0
M  V30 76638 C 7303.36 6.79303 0.70971 0
M  V30 76639 O 7303.05 8.0356 0.23389 0
M  V30 76640 H 7302.78 0.583906 0.340631 0
M  V30 76641 H 7305.33 2.01011 0.422346 0
M  V30 76642 H 7303.56 2.53147 2.92324 0
M  V30 76643 H 7305.25 2.93343 2.80543 0
M  V30 76644 H 7306.02 4.72656 1.08726 0
M  V30 76645 H 7301.9 4.08671 2.13329 0
M  V30 76646 H 7305.44 6.97194 0.237825 0
M  V30 76647 H 7301.34 6.32492 1.28936 0
M  V30 76648 H 7302.11 8.1774 0.352652 0
M  V30 76649 N 7304.77 -0.619586 1.4491 0
M  V30 76650 C 7305.7 -1.74192 1.55497 0
M  V30 76651 C 7306.68 -1.65153 0.40723 0
M  V30 76652 O 7307.87 -1.83737 0.62884 0
M  V30 76653 C 7305 -3.12762 1.50987 0
M  V30 76654 C 7303.95 -3.36601 2.64355 0
M  V30 76655 C 7303.28 -4.7532 2.44897 0
M  V30 76656 C 7304.58 -3.28029 4.06441 0
M  V30 76657 H 7306.27 -1.65589 2.49441 0
M  V30 76658 H 7303.82 -0.795218 1.20051 0
M  V30 76659 H 7305.77 -3.91064 1.56992 0
M  V30 76660 H 7304.49 -3.22177 0.535656 0
M  V30 76661 H 7303.15 -2.60684 2.57758 0
M  V30 76662 H 7302.8 -4.81453 1.45642 0
M  V30 76663 H 7302.5 -4.92227 3.20914 0
M  V30 76664 H 7304.02 -5.55838 2.52738 0
M  V30 76665 H 7305.44 -3.96221 4.14345 0
M  V30 76666 H 7303.84 -3.56469 4.82752 0
M  V30 76667 H 7304.91 -2.25653 4.29195 0
M  V30 76668 N 7306.25 -1.32 -0.861029 0
M  V30 76669 C 7307.18 -1.16226 -1.97545 0
M  V30 76670 C 7308.19 -0.0989384 -1.62499 0
M  V30 76671 O 7309.38 -0.347292 -1.75089 0
M  V30 76672 C 7306.48 -0.755481 -3.30372 0
M  V30 76673 C 7305.66 -1.90573 -3.93701 0
M  V30 76674 C 7304.71 -1.48354 -5.04854 0
M  V30 76675 O 7303.74 -2.19459 -5.25192 0
M  V30 76676 N 7304.94 -0.375961 -5.79281 0
M  V30 76677 H 7307.71 -2.12219 -2.1162 0
M  V30 76678 H 7305.27 -1.24453 -1.03552 0
M  V30 76679 H 7307.26 -0.455576 -4.02128 0
M  V30 76680 H 7305.83 0.113104 -3.12395 0
M  V30 76681 H 7305.05 -2.37248 -3.14813 0
M  V30 76682 H 7306.34 -2.67594 -4.32748 0
M  V30 76683 H 7305.74 0.215986 -5.65288 0
M  V30 76684 H 7304.29 -0.135633 -6.51659 0
M  V30 76685 N 7307.73 1.07649 -1.15107 0
M  V30 76686 C 7308.64 2.18309 -0.858984 0
M  V30 76687 C 7309.65 1.7323 0.16355 0
M  V30 76688 O 7310.83 2.01398 -0.00980161 0
M  V30 76689 C 7307.89 3.44938 -0.349112 0
M  V30 76690 C 7306.95 4.046 -1.43517 0
M  V30 76691 C 7306.19 5.25185 -0.94953 0
M  V30 76692 O 7306.41 5.70028 0.206059 0
M  V30 76693 O 7305.34 5.76445 -1.73191 0
M  V30 76694 H 7309.17 2.45779 -1.78399 0
M  V30 76695 H 7306.76 1.1693 -0.929937 0
M  V30 76696 H 7308.64 4.2134 -0.0710731 0
M  V30 76697 H 7307.31 3.19026 0.548068 0
M  V30 76698 H 7306.22 3.29751 -1.76677 0
M  V30 76699 H 7307.55 4.34777 -2.30715 0
M  V30 76700 N 7309.2 0.947392 1.25945 0
M  V30 76701 C 7310.44 0.605846 1.95215 0
M  V30 76702 C 7310.81 -0.840449 1.72628 0
M  V30 76703 O 7312.01 -1.29124 2.35755 0
M  V30 76704 C 7310.28 0.946142 3.44649 0
M  V30 76705 S 7311.84 0.716077 4.32918 0
M  V30 76706 H 7308.66 0.22293 0.675147 0
M  V30 76707 H 7311.26 1.22003 1.5276 0
M  V30 76708 H 7309.96 1.99604 3.5859 0
M  V30 76709 H 7309.49 0.321925 3.92081 0
M  V30 76710 H 7311.51 -0.416698 4.94447 0
M  V30 76711 N 7310.68 -1.40441 0.715125 0
M  V30 76712 C 7311.91 -2.05208 0.264067 0
M  V30 76713 C 7312.33 -1.53877 -1.09395 0
M  V30 76714 O 7311.68 -0.695153 -1.68742 0
M  V30 76715 C 7311.73 -3.60737 0.234735 0
M  V30 76716 O 7311.45 -4.10174 1.53913 0
M  V30 76717 C 7312.96 -4.42677 -0.23493 0
M  V30 76718 H 7310.18 -0.660401 0.118795 0
M  V30 76719 H 7312.72 -1.79858 0.973202 0
M  V30 76720 H 7310.87 -3.85058 -0.42536 0
M  V30 76721 H 7311.29 -5.04365 1.4393 0
M  V30 76722 H 7312.76 -5.51622 -0.204307 0
M  V30 76723 H 7313.24 -4.20225 -1.27702 0
M  V30 76724 H 7313.85 -4.23463 0.394872 0
M  V30 76725 N 7312.16 -0.461275 -1.50698 0
M  V30 76726 C 7313.41 0.0968986 -2.01868 0
M  V30 76727 C 7313.73 1.41097 -1.34598 0
M  V30 76728 O 7313 1.89721 -0.488141 0
M  V30 76729 H 7311.58 0.0387998 -0.745992 0
M  V30 76730 H 7314.24 -0.609455 -1.85126 0
M  V30 76731 H 7313.34 0.255524 -3.11052 0
M  V30 76732 N 7313.64 1.56408 -0.193504 0
M  V30 76733 C 7314.57 2.16239 0.75983 0
M  V30 76734 C 7315.58 1.12379 1.17791 0
M  V30 76735 O 7316.77 1.39478 1.11392 0
M  V30 76736 C 7313.87 2.70834 2.03721 0
M  V30 76737 C 7313.05 3.9958 1.77918 0
M  V30 76738 C 7312.1 4.39016 2.90088 0
M  V30 76739 O 7311.13 5.06469 2.59764 0
M  V30 76740 N 7312.33 4.0239 4.18405 0
M  V30 76741 H 7315.1 2.98671 0.248191 0
M  V30 76742 H 7312.66 1.61896 -0.011482 0
M  V30 76743 H 7314.65 2.94202 2.77898 0
M  V30 76744 H 7313.22 1.92865 2.46012 0
M  V30 76745 H 7312.44 3.8436 0.875288 0
M  V30 76746 H 7313.73 4.83622 1.58074 0
M  V30 76747 H 7313.13 3.4813 4.45895 0
M  V30 76748 H 7311.68 4.30712 4.89214 0
M  V30 76749 N 7315.12 -0.0801076 1.57396 0
M  V30 76750 C 7316.53 -0.434697 1.53566 0
M  V30 76751 C 7316.73 -1.79656 0.912467 0
M  V30 76752 O 7315.79 -2.47267 0.511398 0
M  V30 76753 C 7317.1 -0.383403 2.98246 0
M  V30 76754 C 7318.65 -0.464187 3.09539 0
M  V30 76755 C 7319.12 -0.442887 4.55854 0
M  V30 76756 N 7320.62 -0.503206 4.60459 0
M  V30 76757 C 7321.35 -0.508805 5.71138 0
M  V30 76758 N 7320.85 -0.469715 6.91206 0
M  V30 76759 N 7322.64 -0.55474 5.59356 0
M  V30 76760 H 7314.79 0.811739 1.96277 0
M  V30 76761 H 7317.05 0.303736 0.898025 0
M  V30 76762 H 7316.76 0.550419 3.47366 0
M  V30 76763 H 7316.63 -1.19675 3.57712 0
M  V30 76764 H 7319.02 -1.38843 2.60397 0
M  V30 76765 H 7319.1 0.377579 2.52998 0
M  V30 76766 H 7318.75 0.477474 5.05651 0
M  V30 76767 H 7318.68 -1.30207 5.10249 0
M  V30 76768 H 7321.17 -0.538002 3.74051 0
M  V30 76769 H 7321.48 -0.477685 7.71322 0
M  V30 76770 H 7319.82 -0.436531 6.93628 0
M  V30 76771 H 7323.02 -0.582913 4.64456 0
M  V30 76772 H 7323.19 -0.555635 6.45613 0
M  V30 76773 N 7316.6 -1.53635 -0.351301 0
M  V30 76774 C 7317.51 -1.8406 -1.45462 0
M  V30 76775 C 7318.52 -0.730098 -1.57942 0
M  V30 76776 O 7319.7 -1.02162 -1.73565 0
M  V30 76777 C 7316.76 -2.03696 -2.80551 0
M  V30 76778 C 7315.82 -3.27572 -2.77479 0
M  V30 76779 C 7315.06 -3.46262 -4.06126 0
M  V30 76780 O 7315.28 -2.68949 -5.03014 0
M  V30 76781 O 7314.21 -4.39666 -4.11068 0
M  V30 76782 H 7318.04 -2.77823 -1.2267 0
M  V30 76783 H 7315.62 -1.39192 -0.542753 0
M  V30 76784 H 7317.51 -2.18101 -3.60569 0
M  V30 76785 H 7316.18 -1.13122 -3.0329 0
M  V30 76786 H 7315.09 -3.18578 -1.9611 0
M  V30 76787 H 7316.42 -4.18115 -2.59694 0
M  V30 76788 N 7318.07 0.611892 -1.45236 0
M  V30 76789 C 7319.48 1.19379 -1.43546 0
M  V30 76790 C 7319.84 1.9554 -0.160816 0
M  V30 76791 O 7318.96 2.03432 0.737847 0
M  V30 76792 C 7319.56 2.17155 -2.60056 0
M  V30 76793 C 7318.11 2.7073 -2.615 0
M  V30 76794 C 7317.26 1.4606 -2.35716 0
M  V30 76795 H 7320.21 0.401448 -1.53539 0
M  V30 76796 H 7320.23 3.00111 -2.33909 0
M  V30 76797 H 7319.75 1.61695 -3.52812 0
M  V30 76798 H 7317.85 3.3014 -1.72739 0
M  V30 76799 H 7317.96 3.15457 -3.60588 0
M  V30 76800 H 7316.32 1.74865 -1.85187 0
M  V30 76801 H 7317.11 0.924748 -3.30611 0
M  V30 76802 N 7319.55 1.32455 0.854016 0
M  V30 76803 C 7320.78 1.26054 1.64067 0
M  V30 76804 C 7321.19 -0.171357 1.88021 0
M  V30 76805 O 7320.55 -1.10865 1.44966 0
M  V30 76806 C 7320.6 2.01759 2.99959 0
M  V30 76807 O 7320.32 3.39361 2.77066 0
M  V30 76808 C 7321.82 2.02389 3.94403 0
M  V30 76809 H 7319.04 0.434889 0.510992 0
M  V30 76810 H 7321.59 1.74588 1.06485 0
M  V30 76811 H 7319.74 1.56945 3.54185 0
M  V30 76812 H 7320.16 3.78117 3.63494 0
M  V30 76813 H 7321.63 2.59841 4.87018 0
M  V30 76814 H 7322.11 1.01031 4.27422 0
M  V30 76815 H 7322.71 2.47154 3.46114 0
M  V30 76816 N 7321.03 -1.07037 1.15676 0
M  V30 76817 C 7322.26 -1.83141 0.956179 0
M  V30 76818 C 7322.67 -1.82505 -0.498873 0
M  V30 76819 O 7322.01 -1.23726 -1.35785 0
M  V30 76820 C 7322.07 -3.31238 1.39721 0
M  V30 76821 C 7321.74 -3.55589 2.87063 0
M  V30 76822 C 7322.73 -3.49265 3.8511 0
M  V30 76823 C 7320.42 -3.83153 3.24807 0
M  V30 76824 C 7322.41 -3.70158 5.18904 0
M  V30 76825 C 7320.1 -4.03697 4.58773 0
M  V30 76826 C 7321.1 -3.97195 5.5563 0
M  V30 76827 O 7320.79 -4.17187 6.87176 0
M  V30 76828 H 7320.52 -0.584562 0.339504 0
M  V30 76829 H 7323.07 -1.35997 1.53929 0
M  V30 76830 H 7321.3 -3.79208 0.757526 0
M  V30 76831 H 7322.99 -3.88815 1.16523 0
M  V30 76832 H 7323.76 -3.27969 3.57297 0
M  V30 76833 H 7319.64 -3.87326 2.49999 0
M  V30 76834 H 7323.18 -3.64999 5.94493 0
M  V30 76835 H 7319.08 -4.2448 4.863 0
M  V30 76836 H 7319.84 -4.34517 6.93641 0
M  V30 76837 N 7322.51 -0.954058 -1.25441 0
M  V30 76838 C 7323.44 -0.431123 -2.25109 0
M  V30 76839 C 7324.45 0.452681 -1.5638 0
M  V30 76840 O 7325.64 0.261051 -1.76581 0
M  V30 76841 C 7322.74 0.398213 -3.36552 0
M  V30 76842 C 7321.91 -0.472458 -4.34841 0
M  V30 76843 C 7320.97 0.298582 -5.25352 0
M  V30 76844 O 7320 -0.302821 -5.68394 0
M  V30 76845 N 7321.2 1.59182 -5.58248 0
M  V30 76846 H 7323.97 -1.28799 -2.70612 0
M  V30 76847 H 7321.53 -0.824355 -1.39341 0
M  V30 76848 H 7323.52 0.921733 -3.94064 0
M  V30 76849 H 7322.09 1.15594 -2.90443 0
M  V30 76850 H 7321.31 -1.17708 -3.76216 0
M  V30 76851 H 7322.6 -1.06675 -4.97492 0
M  V30 76852 H 7322 2.10236 -5.25183 0
M  V30 76853 H 7320.55 2.06132 -6.18347 0
M  V30 76854 N 7323.99 1.4006 -0.722563 0
M  V30 76855 C 7324.92 2.33329 -0.0893682 0
M  V30 76856 C 7325.9 1.53261 0.737911 0
M  V30 76857 O 7327.08 1.81702 0.68542 0
M  V30 76858 C 7324.21 3.37286 0.827961 0
M  V30 76859 C 7323.17 4.27869 0.105779 0
M  V30 76860 C 7322.49 5.22422 1.13929 0
M  V30 76861 C 7323.79 5.11755 -1.04421 0
M  V30 76862 H 7325.49 2.86529 -0.86842 0
M  V30 76863 H 7323.03 1.37768 -0.419055 0
M  V30 76864 H 7324.98 4.01478 1.28037 0
M  V30 76865 H 7323.71 2.82497 1.63899 0
M  V30 76866 H 7322.37 3.6514 -0.326876 0
M  V30 76867 H 7322.02 4.63934 1.94356 0
M  V30 76868 H 7321.72 5.83871 0.660925 0
M  V30 76869 H 7323.24 5.8949 1.59166 0
M  V30 76870 H 7324.65 5.69362 -0.670841 0
M  V30 76871 H 7323.05 5.82284 -1.4514 0
M  V30 76872 H 7324.12 4.47321 -1.87167 0
M  V30 76873 N 7325.46 0.46926 1.50452 0
M  V30 76874 C 7326.41 -0.339912 2.30103 0
M  V30 76875 C 7327.41 -0.992063 1.37312 0
M  V30 76876 O 7328.61 -0.923377 1.54511 0
M  V30 76877 H 7324.99 -0.128456 0.740947 0
M  V30 76878 H 7326.96 0.3523 2.96313 0
M  V30 76879 C 7325.71 -1.41035 3.17812 0
M  V30 76880 H 7325.03 -0.917919 3.8912 0
M  V30 76881 H 7326.47 -1.94914 3.76543 0
M  V30 76882 C 7324.93 -2.41128 2.35285 0
M  V30 76883 O 7325.46 -3.46359 2.03466 0
M  V30 76884 N 7323.66 -2.128 1.979 0
M  V30 76885 H 7323.21 -1.27249 2.23976 0
M  V30 76886 H 7323.17 -2.80004 1.42986 0
M  V30 76887 N 7326.94 -1.56303 0.201796 0
M  V30 76888 C 7328.19 -1.96943 -0.435453 0
M  V30 76889 C 7328.5 -1.0918 -1.62293 0
M  V30 76890 O 7329.71 -1.39633 -2.32841 0
M  V30 76891 C 7328.17 -3.5029 -0.826113 0
M  V30 76892 C 7327.77 -4.46727 0.337451 0
M  V30 76893 C 7329.52 -3.99686 -1.43007 0
M  V30 76894 C 7327.42 -5.91353 -0.074542 0
M  V30 76895 H 7326.35 -0.735396 -0.166461 0
M  V30 76896 H 7329.01 -1.81115 0.294876 0
M  V30 76897 H 7327.39 -3.61647 -1.6133 0
M  V30 76898 H 7328.56 -4.47107 1.115 0
M  V30 76899 H 7326.88 -4.07562 0.853341 0
M  V30 76900 H 7329.47 -5.05221 -1.75088 0
M  V30 76901 H 7329.82 -3.44383 -2.33893 0
M  V30 76902 H 7330.35 -3.91472 -0.706718 0
M  V30 76903 H 7327.09 -6.50596 0.8003 0
M  V30 76904 H 7326.61 -5.94212 -0.816809 0
M  V30 76905 H 7328.29 -6.45002 -0.508049 0
M  V30 76906 N 7328.42 0.0717594 -1.57437 0
M  V30 76907 C 7329.37 1.09219 -2.00138 0
M  V30 76908 C 7330.35 1.34477 -0.883449 0
M  V30 76909 O 7331.55 1.34777 -1.14735 0
M  V30 76910 C 7328.67 2.40592 -2.44889 0
M  V30 76911 C 7327.76 2.18608 -3.63416 0
M  V30 76912 N 7328.15 1.66553 -4.77591 0
M  V30 76913 C 7326.45 2.49081 -3.69966 0
M  V30 76914 C 7327.15 1.59385 -5.59438 0
M  V30 76915 N 7326.13 2.05437 -5.03286 0
M  V30 76916 H 7329.93 0.683035 -2.85853 0
M  V30 76917 H 7327.44 0.27883 -1.59988 0
M  V30 76918 H 7329.44 3.14457 -2.7372 0
M  V30 76919 H 7328.1 2.82224 -1.60561 0
M  V30 76920 H 7329.11 1.35417 -4.99883 0
M  V30 76921 H 7325.79 2.94078 -2.96351 0
M  V30 76922 H 7327.18 1.19991 -6.61099 0
M  V30 76923 N 7329.9 1.53819 0.343149 0
M  V30 76924 C 7331.17 1.61712 1.10039 0
M  V30 76925 C 7331.55 0.438622 2.06493 0
M  V30 76926 O 7330.9 -0.569071 2.213 0
M  V30 76927 C 7331.11 2.97806 1.81969 0
M  V30 76928 C 7332.46 3.53173 2.35699 0
M  V30 76929 O 7333.48 2.99983 1.92065 0
M  V30 76930 O 7332.34 4.46211 3.15527 0
M  V30 76931 H 7329.44 0.654087 0.506062 0
M  V30 76932 H 7331.98 1.66164 0.344609 0
M  V30 76933 H 7330.76 3.75018 1.11703 0
M  V30 76934 H 7330.38 2.96945 2.64403 0
M  V30 76935 N 7331.38 -0.604181 1.45559 0
M  V30 76936 C 7332.63 -1.3592 1.49026 0
M  V30 76937 C 7332.94 -1.95116 0.137512 0
M  V30 76938 O 7334.14 -2.71454 0.0498463 0
M  V30 76939 C 7332.6 -2.46225 2.6249 0
M  V30 76940 C 7332.21 -1.93425 4.04092 0
M  V30 76941 C 7333.95 -3.23205 2.75207 0
M  V30 76942 C 7331.86 -3.01233 5.08933 0
M  V30 76943 H 7330.79 -0.510878 0.554545 0
M  V30 76944 H 7333.44 -0.647171 1.71709 0
M  V30 76945 H 7331.82 -3.20128 2.33097 0
M  V30 76946 H 7333 -1.26209 4.43179 0
M  V30 76947 H 7331.31 -1.2918 3.95855 0
M  V30 76948 H 7333.91 -4.03622 3.50704 0
M  V30 76949 H 7334.25 -3.74428 1.81961 0
M  V30 76950 H 7334.78 -2.56402 3.04143 0
M  V30 76951 H 7331.52 -2.54923 6.03899 0
M  V30 76952 H 7331.04 -3.67006 4.74412 0
M  V30 76953 H 7332.72 -3.65556 5.33833 0
M  V30 76954 N 7332.85 -1.32906 -0.84698 0
M  V30 76955 C 7333.8 -1.22484 -1.95618 0
M  V30 76956 C 7334.77 -0.105265 -1.65766 0
M  V30 76957 O 7335.96 -0.282141 -1.88702 0
M  V30 76958 C 7333.1 -0.961717 -3.31429 0
M  V30 76959 C 7332.21 -2.1668 -3.7373 0
M  V30 76960 C 7331.34 -1.83851 -4.98369 0
M  V30 76961 C 7330.38 -3.00637 -5.33183 0
M  V30 76962 N 7329.52 -2.6785 -6.49 0
M  V30 76963 H 7334.36 -2.17356 -2.03864 0
M  V30 76964 H 7331.9 -1.08094 -0.997707 0
M  V30 76965 H 7333.86 -0.789628 -4.09659 0
M  V30 76966 H 7332.49 -0.049764 -3.22762 0
M  V30 76967 H 7331.54 -2.44891 -2.91089 0
M  V30 76968 H 7332.85 -3.04014 -3.95446 0
M  V30 76969 H 7332 -1.63239 -5.84327 0
M  V30 76970 H 7330.74 -0.937424 -4.78606 0
M  V30 76971 H 7329.75 -3.21872 -4.45733 0
M  V30 76972 H 7330.97 -3.91489 -5.54899 0
M  V30 76973 H 7328.92 -1.80291 -6.30739 0
M  V30 76974 H 7328.84 -3.48714 -6.70772 0
M  V30 76975 H 7330.1 -2.50686 -7.3809 0
M  V30 76976 N 7334.33 1.06422 -1.16242 0
M  V30 76977 C 7335.26 2.15835 -0.890921 0
M  V30 76978 C 7336.24 1.69324 0.162244 0
M  V30 76979 O 7337.43 1.94194 0.0146167 0
M  V30 76980 C 7334.56 3.45106 -0.389797 0
M  V30 76981 C 7333.51 4.05117 -1.38072 0
M  V30 76982 C 7332.84 5.29582 -0.738053 0
M  V30 76983 C 7334.14 4.44048 -2.74989 0
M  V30 76984 H 7335.83 2.38805 -1.8059 0
M  V30 76985 H 7333.38 1.14769 -0.869717 0
M  V30 76986 H 7335.33 4.20983 -0.187349 0
M  V30 76987 H 7334.06 3.21751 0.560681 0
M  V30 76988 H 7332.71 3.31295 -1.56969 0
M  V30 76989 H 7332.36 5.02524 0.21887 0
M  V30 76990 H 7332.06 5.70692 -1.39944 0
M  V30 76991 H 7333.59 6.08158 -0.545595 0
M  V30 76992 H 7335 5.11013 -2.59882 0
M  V30 76993 H 7333.4 4.96138 -3.37589 0
M  V30 76994 H 7334.47 3.5497 -3.3034 0
M  V30 76995 N 7335.81 0.960697 1.24933 0
M  V30 76996 C 7336.74 0.503935 2.27997 0
M  V30 76997 C 7337.72 -0.452842 1.63961 0
M  V30 76998 O 7338.91 -0.350484 1.91011 0
M  V30 76999 C 7336.04 -0.213352 3.46644 0
M  V30 77000 C 7334.99 0.658758 4.229 0
M  V30 77001 C 7334.32 -0.18962 5.34364 0
M  V30 77002 C 7335.62 1.93989 4.84939 0
M  V30 77003 H 7337.31 1.36535 2.66455 0
M  V30 77004 H 7334.86 0.657965 1.28089 0
M  V30 77005 H 7336.81 -0.544065 4.17873 0
M  V30 77006 H 7335.53 -1.10907 3.07192 0
M  V30 77007 H 7334.19 0.972641 3.53462 0
M  V30 77008 H 7333.84 -1.08527 4.91153 0
M  V30 77009 H 7333.54 0.39064 5.863 0
M  V30 77010 H 7335.06 -0.515163 6.08423 0
M  V30 77011 H 7336.48 1.6752 5.48279 0
M  V30 77012 H 7334.88 2.4663 5.47078 0
M  V30 77013 H 7335.95 2.63921 4.06785 0
M  V30 77014 N 7337.29 -1.39675 0.72998 0
M  V30 77015 C 7338.54 -2.00614 0.275727 0
M  V30 77016 C 7338.86 -1.57913 -1.13551 0
M  V30 77017 O 7338.12 -0.796883 -1.78741 0
M  V30 77018 C 7338.42 -3.55967 0.319752 0
M  V30 77019 C 7338.08 -4.18301 1.6833 0
M  V30 77020 C 7336.75 -4.35041 2.05652 0
M  V30 77021 C 7339.1 -4.52931 2.57881 0
M  V30 77022 C 7336.43 -4.83698 3.32043 0
M  V30 77023 C 7338.78 -5.02995 3.83639 0
M  V30 77024 C 7337.44 -5.17943 4.2106 0
M  V30 77025 H 7336.71 -0.734099 0.100896 0
M  V30 77026 H 7339.36 -1.67076 0.935839 0
M  V30 77027 H 7337.66 -3.895 -0.423935 0
M  V30 77028 H 7339.36 -4.00969 -0.0497791 0
M  V30 77029 H 7335.95 -4.0567 1.38311 0
M  V30 77030 H 7340.13 -4.39621 2.30319 0
M  V30 77031 H 7335.39 -4.93456 3.60986 0
M  V30 77032 H 7339.56 -5.28765 4.5319 0
M  V30 77033 H 7337.19 -5.55407 5.19063 0
M  V30 77034 N 7338.77 -0.477232 -1.50201 0
M  V30 77035 C 7339.7 0.303524 -2.31519 0
M  V30 77036 C 7340.68 0.984679 -1.38701 0
M  V30 77037 O 7341.86 0.980669 -1.6762 0
M  V30 77038 C 7338.99 1.38232 -3.18605 0
M  V30 77039 C 7337.95 0.822424 -4.20024 0
M  V30 77040 C 7337.27 1.99997 -4.95888 0
M  V30 77041 C 7338.57 -0.17046 -5.22022 0
M  V30 77042 H 7340.27 -0.375184 -2.9704 0
M  V30 77043 H 7337.81 -0.181878 -1.42847 0
M  V30 77044 H 7339.77 1.93605 -3.74293 0
M  V30 77045 H 7338.49 2.08989 -2.50981 0
M  V30 77046 H 7337.15 0.29062 -3.65446 0
M  V30 77047 H 7336.8 2.69466 -4.24732 0
M  V30 77048 H 7336.5 1.63153 -5.64495 0
M  V30 77049 H 7338.02 2.55849 -5.54413 0
M  V30 77050 H 7339.43 0.294304 -5.72544 0
M  V30 77051 H 7337.83 -0.453497 -5.98384 0
M  V30 77052 H 7338.9 -1.09433 -4.7239 0
M  V30 77053 N 7340.24 1.56194 -0.210082 0
M  V30 77054 C 7341.66 1.58935 0.145515 0
M  V30 77055 C 7341.86 1.22665 1.59861 0
M  V30 77056 O 7340.92 0.95646 2.33684 0
M  V30 77057 C 7342.23 3.00217 -0.170401 0
M  V30 77058 C 7343.78 3.12801 -0.111713 0
M  V30 77059 C 7344.25 4.5624 -0.401145 0
M  V30 77060 N 7345.74 4.61874 -0.350301 0
M  V30 77061 C 7346.48 5.70776 -0.547899 0
M  V30 77062 N 7345.97 6.88088 -0.806654 0
M  V30 77063 N 7347.77 5.60037 -0.481122 0
M  V30 77064 H 7339.92 1.78048 -1.15813 0
M  V30 77065 H 7342.18 0.827038 -0.46337 0
M  V30 77066 H 7341.89 3.31367 -1.1785 0
M  V30 77067 H 7341.76 3.73598 0.520011 0
M  V30 77068 H 7344.15 2.81454 0.887014 0
M  V30 77069 H 7344.23 2.41773 -0.83543 0
M  V30 77070 H 7343.87 4.88302 -1.39726 0
M  V30 77071 H 7343.8 5.25478 0.343633 0
M  V30 77072 H 7346.29 3.77572 -0.157533 0
M  V30 77073 H 7346.61 7.6699 -0.945837 0
M  V30 77074 H 7344.95 6.8986 -0.843719 0
M  V30 77075 H 7348.14 4.67266 -0.279283 0
M  V30 77076 H 7348.32 6.44846 -0.638529 0
M  V30 77077 N 7341.72 -0.0634091 1.57472 0
M  V30 77078 C 7342.97 -0.760967 1.87658 0
M  V30 77079 C 7343.3 -1.77153 0.802941 0
M  V30 77080 O 7342.55 -1.94674 -0.200142 0
M  V30 77081 C 7342.85 -1.49719 3.24529 0
M  V30 77082 C 7342.52 -0.625829 4.46536 0
M  V30 77083 C 7341.18 -0.385725 4.79652 0
M  V30 77084 C 7343.53 -0.0221253 5.21195 0
M  V30 77085 C 7340.86 0.467426 5.84835 0
M  V30 77086 C 7343.21 0.818528 6.27282 0
M  V30 77087 C 7341.88 1.06842 6.58894 0
M  V30 77088 H 7341.15 -0.278458 0.686689 0
M  V30 77089 H 7343.79 -0.0215339 1.91488 0
M  V30 77090 H 7342.1 -2.30904 3.16529 0
M  V30 77091 H 7343.79 -2.04186 3.45122 0
M  V30 77092 H 7340.38 -0.823103 4.20622 0
M  V30 77093 H 7344.57 -0.194723 4.95918 0
M  V30 77094 H 7339.82 0.669695 6.07721 0
M  V30 77095 H 7344 1.29301 6.84291 0
M  V30 77096 H 7341.63 1.73127 7.40224 0
M  V30 77097 N 7343.2 -1.53999 -0.334986 0
M  V30 77098 C 7344.16 -1.8188 -1.39472 0
M  V30 77099 C 7345.16 -0.690155 -1.45236 0
M  V30 77100 O 7346.35 -0.958454 -1.45462 0
M  V30 77101 C 7343.49 -1.96854 -2.78319 0
M  V30 77102 H 7344.68 -2.76553 -1.1601 0
M  V30 77103 H 7342.23 -1.45542 -0.569849 0
M  V30 77104 H 7342.97 -1.04353 -3.07052 0
M  V30 77105 H 7342.75 -2.78973 -2.7553 0
M  V30 77106 H 7344.24 -2.19912 -3.55005 0
M  V30 77107 N 7344.68 0.596454 -1.45877 0
M  V30 77108 C 7345.61 1.72063 -1.49898 0
M  V30 77109 C 7346.59 1.58693 -0.354308 0
M  V30 77110 O 7347.77 1.801 -0.55645 0
M  V30 77111 C 7344.9 3.09996 -1.36456 0
M  V30 77112 C 7343.95 3.41925 -2.54931 0
M  V30 77113 S 7344.78 3.35523 -4.17354 0
M  V30 77114 C 7345.94 4.76017 -4.06397 0
M  V30 77115 H 7346.17 1.68391 -2.45014 0
M  V30 77116 H 7343.7 0.77405 -1.33596 0
M  V30 77117 H 7345.66 3.89575 -1.29388 0
M  V30 77118 H 7344.32 3.11171 -0.427926 0
M  V30 77119 H 7343.51 4.42383 -2.41482 0
M  V30 77120 H 7343.12 2.69884 -2.58918 0
M  V30 77121 H 7345.41 5.66085 -3.72229 0
M  V30 77122 H 7346.35 4.94523 -5.06806 0
M  V30 77123 H 7346.76 4.52221 -3.3787 0
M  V30 77124 N 7346.16 1.33353 0.83992 0
M  V30 77125 C 7347.07 1.25553 1.98176 0
M  V30 77126 C 7348.08 0.166299 1.73203 0
M  V30 77127 O 7349.26 0.389693 1.97594 0
M  V30 77128 C 7346.32 0.993789 3.32152 0
M  V30 77129 C 7345.39 2.17292 3.70247 0
M  V30 77130 C 7344.62 1.92357 4.9783 0
M  V30 77131 O 7344.84 0.873371 5.63674 0
M  V30 77132 O 7343.78 2.78863 5.33403 0
M  V30 77133 H 7347.6 2.21576 2.07696 0
M  V30 77134 H 7345.19 1.13389 0.972792 0
M  V30 77135 H 7347.07 0.864928 4.12428 0
M  V30 77136 H 7345.74 0.0638303 3.23637 0
M  V30 77137 H 7344.65 2.35732 2.90485 0
M  V30 77138 H 7345.98 3.08619 3.83426 0
M  V30 77139 N 7347.64 -1.05804 1.16805 0
M  V30 77140 C 7348.57 -2.13375 0.836887 0
M  V30 77141 C 7349.58 -1.62031 -0.158031 0
M  V30 77142 O 7350.77 -1.78373 0.0674151 0
M  V30 77143 C 7347.87 -3.38145 0.226138 0
M  V30 77144 C 7347.04 -4.18787 1.26239 0
M  V30 77145 C 7346.1 -5.2191 0.670532 0
M  V30 77146 O 7345.13 -5.53185 1.34071 0
M  V30 77147 N 7346.33 -5.77979 -0.540379 0
M  V30 77148 H 7349.09 -2.42382 1.7627 0
M  V30 77149 H 7346.66 -1.21848 1.06605 0
M  V30 77150 H 7348.65 -4.04286 -0.182957 0
M  V30 77151 H 7347.22 -3.06722 -0.603332 0
M  V30 77152 H 7346.44 -3.48227 1.84747 0
M  V30 77153 H 7347.73 -4.69468 1.96155 0
M  V30 77154 H 7347.12 -5.54844 -1.10293 0
M  V30 77155 H 7345.68 -6.45673 -0.891618 0
M  V30 77156 N 7349.11 -0.967309 -1.24422 0
M  V30 77157 C 7350.34 -0.646173 -1.97077 0
M  V30 77158 C 7350.76 0.777575 -1.71276 0
M  V30 77159 O 7350.12 1.52771 -0.97626 0
M  V30 77160 C 7350.17 -0.92645 -3.48496 0
M  V30 77161 O 7349.27 -0.0116828 -4.12398 0
M  V30 77162 H 7348.61 -0.244337 -0.61741 0
M  V30 77163 H 7351.14 -1.29735 -1.58209 0
M  V30 77164 H 7351.15 -0.857829 -3.9888 0
M  V30 77165 H 7349.83 -1.96406 -3.66603 0
M  V30 77166 H 7348.41 -0.133592 -3.72661 0
M  V30 77167 N 7350.59 1.39286 -0.737377 0
M  V30 77168 C 7351.84 2.00465 -0.286363 0
M  V30 77169 C 7352.17 1.58513 1.12712 0
M  V30 77170 O 7351.42 0.806351 1.78316 0
M  V30 77171 C 7351.72 3.55792 -0.338625 0
M  V30 77172 C 7351.39 4.17402 -1.70546 0
M  V30 77173 C 7350.05 4.33944 -2.07957 0
M  V30 77174 C 7352.4 4.51557 -2.6028 0
M  V30 77175 C 7349.73 4.81931 -3.34604 0
M  V30 77176 C 7352.08 5.00953 -3.86301 0
M  V30 77177 C 7350.74 5.15702 -4.23801 0
M  V30 77178 H 7350.01 0.733553 -0.104787 0
M  V30 77179 H 7352.66 1.66577 -0.944686 0
M  V30 77180 H 7350.97 3.89719 0.403273 0
M  V30 77181 H 7352.66 4.0099 0.028514 0
M  V30 77182 H 7349.25 4.04931 -1.40461 0
M  V30 77183 H 7353.44 4.38394 -2.32647 0
M  V30 77184 H 7348.69 4.91535 -3.63598 0
M  V30 77185 H 7352.87 5.26354 -4.55988 0
M  V30 77186 H 7350.49 5.52647 -5.22001 0
M  V30 77187 N 7352.07 0.485191 1.49946 0
M  V30 77188 C 7353.29 -0.0643966 2.073 0
M  V30 77189 C 7353.72 -1.31489 1.34507 0
M  V30 77190 O 7353.08 -1.76901 0.396963 0
M  V30 77191 C 7353.13 -0.317114 3.59203 0
M  V30 77192 O 7352.23 -1.39493 3.88092 0
M  V30 77193 H 7351.57 0.0192172 0.663722 0
M  V30 77194 H 7354.1 0.68028 1.92959 0
M  V30 77195 H 7354.11 -0.553391 4.0423 0
M  V30 77196 H 7352.79 0.596604 4.11599 0
M  V30 77197 H 7351.36 -1.14486 3.54891 0
M  V30 77198 N 7353.55 -1.5608 0.218362 0
M  V30 77199 C 7354.51 -2.18895 -0.679518 0
M  V30 77200 C 7355.51 -1.14992 -1.12399 0
M  V30 77201 O 7356.7 -1.40244 -1.03331 0
M  V30 77202 C 7353.83 -2.80972 -1.93048 0
M  V30 77203 H 7355.03 -2.9961 -0.131908 0
M  V30 77204 H 7352.58 -1.56269 -0.031255 0
M  V30 77205 H 7353.31 -2.04119 -2.52004 0
M  V30 77206 H 7353.1 -3.57057 -1.62027 0
M  V30 77207 H 7354.59 -3.29132 -2.57026 0
M  V30 77208 N 7355.03 0.0550571 -1.57504 0
M  V30 77209 C 7356.3 0.784954 -1.79159 0
M  V30 77210 C 7356.68 1.94937 -0.810098 0
M  V30 77211 O 7356.03 2.27985 0.153312 0
M  V30 77212 C 7356.24 1.2423 -3.26141 0
M  V30 77213 C 7357.59 1.66887 -3.90428 0
M  V30 77214 O 7358.61 1.33755 -3.30133 0
M  V30 77215 O 7357.47 2.28288 -4.96535 0
M  V30 77216 H 7354.57 0.37744 -0.735845 0
M  V30 77217 H 7357.11 0.033839 -1.69666 0
M  V30 77218 H 7355.88 0.409884 -3.89147 0
M  V30 77219 H 7355.51 2.05423 -3.40422 0
M  V30 77220 N 7356.5 1.54174 0.326815 0
M  V30 77221 C 7357.73 1.76183 1.08476 0
M  V30 77222 C 7358.15 0.508883 1.81813 0
M  V30 77223 O 7357.5 -0.52027 1.74927 0
M  V30 77224 C 7357.55 2.95287 2.08537 0
M  V30 77225 O 7357.28 4.15738 1.3818 0
M  V30 77226 C 7358.78 3.29481 2.96575 0
M  V30 77227 H 7356 0.58825 0.322804 0
M  V30 77228 H 7358.54 2.01052 0.37393 0
M  V30 77229 H 7356.7 2.72701 2.7516 0
M  V30 77230 H 7357.11 4.82711 2.0516 0
M  V30 77231 H 7358.58 4.16128 3.62686 0
M  V30 77232 H 7359.06 2.46507 3.63498 0
M  V30 77233 H 7359.67 3.54134 2.35519 0
M  V30 77234 N 7357.98 -0.588709 1.46192 0
M  V30 77235 C 7359.23 -1.34447 1.50892 0
M  V30 77236 C 7359.55 -1.94345 0.159657 0
M  V30 77237 O 7358.82 -1.78227 -0.813145 0
M  V30 77238 H 7357.4 -0.499169 0.555733 0
M  V30 77239 H 7360.06 -0.689918 1.8228 0
M  V30 77240 H 7359.16 -2.15426 2.25828 0
M  V30 77241 N 7359.46 -1.33797 -0.832836 0
M  V30 77242 C 7360.71 -1.25347 -1.58533 0
M  V30 77243 C 7361.03 0.179101 -1.94176 0
M  V30 77244 O 7360.3 1.10933 -1.61464 0
M  V30 77245 H 7358.88 -0.460957 -0.587816 0
M  V30 77246 H 7361.54 -1.6759 -0.994976 0
M  V30 77247 H 7360.64 -1.85137 -2.51259 0
M  V30 77248 N 7360.94 1.05183 -1.17364 0
M  V30 77249 C 7362.19 1.77834 -0.960181 0
M  V30 77250 C 7362.51 1.88146 0.512455 0
M  V30 77251 O 7361.78 1.39829 1.37203 0
M  V30 77252 H 7360.36 0.658723 -0.352269 0
M  V30 77253 H 7363.02 1.27 -1.47841 0
M  V30 77254 H 7362.12 2.79508 -1.38858 0
M  V30 77255 N 7362.42 0.973894 1.23908 0
M  V30 77256 C 7363.66 0.637918 1.91768 0
M  V30 77257 C 7363.99 -0.830342 1.76438 0
M  V30 77258 O 7363.26 -1.59333 1.13973 0
M  V30 77259 H 7361.84 0.23295 0.709749 0
M  V30 77260 H 7364.5 1.2363 1.50671 0
M  V30 77261 H 7363.59 0.883888 2.99322 0
M  V30 77262 N 7363.89 -1.38893 0.744753 0
M  V30 77263 C 7365.31 -1.53937 0.421383 0
M  V30 77264 C 7365.51 -1.70956 -1.06659 0
M  V30 77265 O 7364.57 -1.71557 -1.85269 0
M  V30 77266 C 7365.88 -2.75152 1.21292 0
M  V30 77267 C 7367.43 -2.88995 1.20212 0
M  V30 77268 C 7367.9 -4.1316 1.97643 0
M  V30 77269 N 7369.39 -4.2022 1.94858 0
M  V30 77270 C 7370.13 -5.15266 2.51572 0
M  V30 77271 N 7369.62 -6.16041 3.16963 0
M  V30 77272 N 7371.42 -5.07553 2.41551 0
M  V30 77273 H 7363.57 -1.26094 1.70921 0
M  V30 77274 H 7365.83 -0.61188 0.72409 0
M  V30 77275 H 7365.54 -2.68951 2.26623 0
M  V30 77276 H 7365.41 -3.68093 0.823871 0
M  V30 77277 H 7367.8 -2.94683 0.156897 0
M  V30 77278 H 7367.88 -1.9709 1.63061 0
M  V30 77279 H 7367.52 -4.08234 3.02171 0
M  V30 77280 H 7367.45 -5.04128 1.52193 0
M  V30 77281 H 7369.94 -3.48041 1.47228 0
M  V30 77282 H 7370.26 -6.85044 3.5768 0
M  V30 77283 H 7368.6 -6.164 3.21055 0
M  V30 77284 H 7371.79 -4.27761 1.901 0
M  V30 77285 H 7371.97 -5.81447 2.86047 0
M  V30 77286 N 7365.37 -0.493136 -1.49686 0
M  V30 77287 C 7366.28 0.294235 -2.32748 0
M  V30 77288 C 7367.3 0.974927 -1.44122 0
M  V30 77289 O 7368.47 0.958045 -1.77154 0
M  V30 77290 C 7365.54 1.34932 -3.19365 0
M  V30 77291 C 7364.6 0.682899 -4.23834 0
M  V30 77292 C 7363.83 1.68771 -5.06312 0
M  V30 77293 O 7364.06 2.91672 -4.90187 0
M  V30 77294 O 7362.99 1.24737 -5.88833 0
M  V30 77295 H 7366.82 -0.385413 -3.01245 0
M  V30 77296 H 7364.4 -0.254597 -1.47215 0
M  V30 77297 H 7366.28 1.95994 -3.73047 0
M  V30 77298 H 7364.96 2.01204 -2.53572 0
M  V30 77299 H 7363.87 0.0327378 -3.74086 0
M  V30 77300 H 7365.2 0.0627597 -4.9216 0
M  V30 77301 N 7366.85 1.55962 -0.226636 0
M  V30 77302 C 7368.08 2.03278 0.41142 0
M  V30 77303 C 7368.5 1.10529 1.522 0
M  V30 77304 O 7367.86 0.0944172 1.81054 0
M  V30 77305 C 7367.91 3.48785 0.91551 0
M  V30 77306 O 7367.01 3.59174 2.02653 0
M  V30 77307 H 7366.35 0.657532 0.092456 0
M  V30 77308 H 7368.88 2.0164 -0.346762 0
M  V30 77309 H 7368.89 3.89207 1.22401 0
M  V30 77310 H 7367.57 4.15773 0.102696 0
M  V30 77311 H 7366.14 3.30641 1.72427 0
M  V30 77312 N 7368.33 -0.0467035 1.57531 0
M  V30 77313 C 7369.28 -1.07129 2.06461 0
M  V30 77314 C 7370.27 -1.38541 0.974817 0
M  V30 77315 O 7371.48 -1.37653 1.15981 0
M  V30 77316 H 7367.85 -0.362927 0.658626 0
M  V30 77317 H 7369.82 -0.632659 2.91616 0
M  V30 77318 C 7368.57 -2.36914 2.54494 0
M  V30 77319 H 7367.89 -2.13599 3.37958 0
M  V30 77320 H 7369.33 -3.06992 2.92458 0
M  V30 77321 C 7367.79 -3.04644 1.43852 0
M  V30 77322 O 7368.32 -3.9376 0.794739 0
M  V30 77323 N 7366.53 -2.65679 1.17741 0
M  V30 77324 H 7366.08 -1.93298 1.70275 0
M  V30 77325 H 7366.03 -3.11317 0.439215 0
M  V30 77326 N 7369.81 -1.54345 -0.318634 0
M  V30 77327 C 7371.06 -1.71998 -1.05354 0
M  V30 77328 C 7371.37 -0.503254 -1.89015 0
M  V30 77329 O 7372.57 -0.561226 -2.65636 0
M  V30 77330 C 7371.03 -3.0424 -1.92265 0
M  V30 77331 C 7370.64 -4.33334 -1.13692 0
M  V30 77332 C 7372.38 -3.31256 -2.65462 0
M  V30 77333 C 7370.29 -5.56636 -1.99777 0
M  V30 77334 H 7369.22 -0.640991 -0.397047 0
M  V30 77335 H 7371.87 -1.80837 -0.311503 0
M  V30 77336 H 7370.25 -2.89321 -2.70387 0
M  V30 77337 H 7371.43 -4.59034 -0.403063 0
M  V30 77338 H 7369.74 -4.13121 -0.521551 0
M  V30 77339 H 7372.34 -4.20572 -3.30186 0
M  V30 77340 H 7372.68 -2.49351 -3.33361 0
M  V30 77341 H 7373.21 -3.47065 -1.94399 0
M  V30 77342 H 7369.95 -6.41156 -1.36378 0
M  V30 77343 H 7369.47 -5.35147 -2.70883 0
M  V30 77344 H 7371.15 -5.93227 -2.58246 0
M  V30 77345 N 7371.28 0.580948 -1.46502 0
M  V30 77346 C 7372.23 1.68483 -1.53615 0
M  V30 77347 C 7373.22 1.55927 -0.396936 0
M  V30 77348 O 7374.41 1.64812 -0.645453 0
M  V30 77349 C 7371.54 3.07268 -1.53105 0
M  V30 77350 C 7370.63 3.25114 -2.72326 0
M  V30 77351 N 7371.02 3.13113 -3.97233 0
M  V30 77352 C 7369.31 3.56058 -2.68587 0
M  V30 77353 C 7370.02 3.33011 -4.76947 0
M  V30 77354 N 7368.99 3.58248 -4.08851 0
M  V30 77355 H 7372.79 1.57737 -2.47984 0
M  V30 77356 H 7370.31 0.785029 -1.42166 0
M  V30 77357 H 7372.3 3.86496 -1.56289 0
M  V30 77358 H 7370.96 3.19143 -0.598138 0
M  V30 77359 H 7371.98 2.90942 -4.28455 0
M  V30 77360 H 7368.65 3.74606 -1.84327 0
M  V30 77361 H 7370.04 3.28901 -5.85896 0
M  V30 77362 N 7372.76 1.34237 0.825729 0
M  V30 77363 C 7373.69 1.28223 1.95144 0
M  V30 77364 C 7374.67 0.160212 1.69344 0
M  V30 77365 O 7375.86 0.35212 1.90981 0
M  V30 77366 C 7372.99 1.03406 3.31549 0
M  V30 77367 C 7371.94 2.12043 3.71782 0
M  V30 77368 C 7371.27 1.72419 5.06138 0
M  V30 77369 C 7372.57 3.53846 3.84175 0
M  V30 77370 H 7374.26 2.22411 2.00434 0
M  V30 77371 H 7371.81 1.07068 0.962939 0
M  V30 77372 H 7373.76 0.978441 4.09884 0
M  V30 77373 H 7372.49 0.0565864 3.26551 0
M  V30 77374 H 7371.14 2.16669 2.9572 0
M  V30 77375 H 7370.79 0.7334 4.97625 0
M  V30 77376 H 7370.49 2.45128 5.34028 0
M  V30 77377 H 7372.02 1.68348 5.86934 0
M  V30 77378 H 7373.43 3.51648 4.52788 0
M  V30 77379 H 7371.83 4.25152 4.23516 0
M  V30 77380 H 7372.9 3.91392 2.86252 0
M  V30 77381 N 7374.24 -1.04559 1.1792 0
M  V30 77382 C 7375.49 -1.77068 0.965909 0
M  V30 77383 C 7375.8 -1.88944 -0.505905 0
M  V30 77384 O 7377.01 -2.58257 -0.837581 0
M  V30 77385 C 7375.46 -3.1833 1.6791 0
M  V30 77386 C 7375.07 -3.14563 3.18989 0
M  V30 77387 C 7376.82 -3.95251 1.54844 0
M  V30 77388 C 7374.72 -4.50653 3.82969 0
M  V30 77389 H 7373.65 -0.663717 0.357764 0
M  V30 77390 H 7376.3 -1.17146 1.41241 0
M  V30 77391 H 7374.69 -3.78618 1.16036 0
M  V30 77392 H 7375.86 -2.63756 3.77849 0
M  V30 77393 H 7374.18 -2.51141 3.3214 0
M  V30 77394 H 7376.77 -4.95883 2.0001 0
M  V30 77395 H 7377.12 -4.13287 0.499945 0
M  V30 77396 H 7377.65 -3.41527 2.03971 0
M  V30 77397 H 7374.39 -4.37823 4.87844 0
M  V30 77398 H 7373.91 -5.01584 3.28897 0
M  V30 77399 H 7375.59 -5.1958 3.85546 0
M  V30 77400 N 7375.72 -0.980451 -1.23389 0
M  V30 77401 C 7377.13 -0.686331 -1.73627 0
M  V30 77402 C 7377.48 0.797446 -1.79263 0
M  V30 77403 O 7376.61 1.62371 -1.43054 0
M  V30 77404 C 7377.2 -1.23916 -3.15325 0
M  V30 77405 C 7375.76 -0.994685 -3.63019 0
M  V30 77406 C 7374.91 -1.36686 -2.41272 0
M  V30 77407 H 7377.86 -1.15429 -1.08912 0
M  V30 77408 H 7377.88 -0.611612 -3.75552 0
M  V30 77409 H 7377.39 -2.31908 -3.11191 0
M  V30 77410 H 7375.49 0.0691527 -3.72536 0
M  V30 77411 H 7375.61 -1.6493 -4.49817 0
M  V30 77412 H 7373.97 -0.785322 -2.42291 0
M  V30 77413 H 7374.75 -2.45655 -2.39809 0
M  V30 77414 N 7377.2 1.38496 -0.752109 0
M  V30 77415 C 7378.43 2.04139 -0.31792 0
M  V30 77416 C 7378.84 1.56844 1.05814 0
M  V30 77417 O 7378.18 0.736105 1.68307 0
M  V30 77418 C 7378.24 3.58556 -0.260394 0
M  V30 77419 C 7377.9 4.28901 -1.57775 0
M  V30 77420 C 7378.9 4.54374 -2.52666 0
M  V30 77421 C 7376.59 4.67118 -1.84678 0
M  V30 77422 C 7378.58 5.17096 -3.7268 0
M  V30 77423 C 7376.27 5.29565 -3.04966 0
M  V30 77424 C 7377.27 5.54488 -3.98788 0
M  V30 77425 O 7376.95 6.15635 -5.16961 0
M  V30 77426 H 7376.69 0.662593 -0.133966 0
M  V30 77427 H 7379.24 1.78199 -1.02148 0
M  V30 77428 H 7377.47 3.83462 0.499394 0
M  V30 77429 H 7379.16 4.05644 0.144081 0
M  V30 77430 H 7379.92 4.25279 -2.33158 0
M  V30 77431 H 7375.8 4.47066 -1.12487 0
M  V30 77432 H 7379.35 5.36466 -4.45926 0
M  V30 77433 H 7375.24 5.58082 -3.24368 0
M  V30 77434 H 7376.01 6.34123 -5.17523 0
M  V30 77435 N 7378.68 0.501068 1.49422 0
M  V30 77436 C 7379.92 -0.0452737 2.01649 0
M  V30 77437 C 7380.24 -1.3804 1.3858 0
M  V30 77438 O 7381.44 -2.01344 1.82135 0
M  V30 77439 C 7379.9 -0.131147 3.59661 0
M  V30 77440 C 7379.51 1.19734 4.31703 0
M  V30 77441 C 7381.25 -0.62785 4.19831 0
M  V30 77442 C 7379.16 1.07363 5.81573 0
M  V30 77443 H 7378.09 -0.0206931 0.753716 0
M  V30 77444 H 7380.74 0.640498 1.71959 0
M  V30 77445 H 7379.12 -0.88137 3.86067 0
M  V30 77446 H 7380.3 1.96086 4.16997 0
M  V30 77447 H 7378.61 1.62749 3.83278 0
M  V30 77448 H 7381.21 -0.737918 5.29584 0
M  V30 77449 H 7381.55 -1.6267 3.83203 0
M  V30 77450 H 7382.08 0.0658412 3.97746 0
M  V30 77451 H 7378.82 2.04675 6.22727 0
M  V30 77452 H 7378.34 0.350995 5.98772 0
M  V30 77453 H 7380.02 0.752386 6.4261 0
M  V30 77454 N 7380.15 -1.5584 0.234904 0
M  V30 77455 C 7381.4 -1.97823 -0.39358 0
M  V30 77456 C 7381.72 -1.12598 -1.59941 0
M  V30 77457 O 7382.92 -1.4454 -2.29827 0
M  V30 77458 C 7381.38 -3.51964 -0.751626 0
M  V30 77459 C 7380.99 -4.45911 0.432133 0
M  V30 77460 C 7382.73 -4.0263 -1.34497 0
M  V30 77461 C 7380.64 -5.91378 0.0509095 0
M  V30 77462 H 7379.57 -0.738761 -0.150825 0
M  V30 77463 H 7382.22 -1.80449 0.333227 0
M  V30 77464 H 7380.6 -3.64988 -1.53623 0
M  V30 77465 H 7381.77 -4.44641 1.20958 0
M  V30 77466 H 7380.09 -4.05661 0.939599 0
M  V30 77467 H 7382.69 -5.08821 -1.64332 0
M  V30 77468 H 7383.03 -3.49267 -2.26535 0
M  V30 77469 H 7383.56 -3.92883 -0.623522 0
M  V30 77470 H 7380.3 -6.48752 0.938121 0
M  V30 77471 H 7379.82 -5.95811 -0.690584 0
M  V30 77472 H 7381.5 -6.45935 -0.37112 0
M  V30 77473 N 7381.63 0.0383486 -1.57553 0
M  V30 77474 C 7382.58 1.04949 -2.0241 0
M  V30 77475 C 7383.57 1.32573 -0.911775 0
M  V30 77476 O 7384.76 1.32313 -1.17568 0
M  V30 77477 C 7381.89 2.35343 -2.49937 0
M  V30 77478 C 7380.97 2.1085 -3.67971 0
M  V30 77479 N 7381.36 1.56385 -4.81017 0
M  V30 77480 C 7379.66 2.41177 -3.75166 0
M  V30 77481 C 7380.36 1.47483 -5.62693 0
M  V30 77482 N 7379.34 1.94715 -5.0753 0
M  V30 77483 H 7383.14 0.622247 -2.87237 0
M  V30 77484 H 7380.65 0.244831 -1.60544 0
M  V30 77485 H 7382.65 3.0858 -2.80328 0
M  V30 77486 H 7381.31 2.78755 -1.66511 0
M  V30 77487 H 7382.32 1.24783 -5.02643 0
M  V30 77488 H 7379 2.87726 -3.02523 0
M  V30 77489 H 7380.39 1.05942 -6.63495 0
M  V30 77490 N 7383.11 1.54512 0.310444 0
M  V30 77491 C 7384.34 1.77324 1.06602 0
M  V30 77492 C 7384.75 0.528138 1.81263 0
M  V30 77493 O 7384.11 -0.501687 1.75469 0
M  V30 77494 C 7384.16 2.97483 2.05393 0
M  V30 77495 O 7383.88 4.1718 1.33763 0
M  V30 77496 C 7385.38 3.32608 2.93064 0
M  V30 77497 H 7382.6 0.591641 0.316547 0
M  V30 77498 H 7385.15 2.01438 0.352585 0
M  V30 77499 H 7383.3 2.75604 2.72252 0
M  V30 77500 H 7383.72 4.84859 2.00029 0
M  V30 77501 H 7385.19 4.19952 3.58252 0
M  V30 77502 H 7385.67 2.50348 3.60863 0
M  V30 77503 H 7386.27 3.56612 2.31749 0
M  V30 77504 N 7384.59 -0.57317 1.46808 0
M  V30 77505 C 7385.83 -1.33299 1.52837 0
M  V30 77506 C 7386.17 -1.93332 0.183388 0
M  V30 77507 O 7385.44 -1.77002 -0.806261 0
M  V30 77508 C 7385.72 -2.45517 2.63427 0
M  V30 77509 C 7385.58 -1.90457 4.07488 0
M  V30 77510 C 7386.9 -3.47521 2.70032 0
M  V30 77511 H 7384.02 -0.483314 0.556396 0
M  V30 77512 H 7386.66 -0.642972 1.7879 0
M  V30 77513 H 7384.81 -3.04376 2.41428 0
M  V30 77514 H 7386.48 -1.35981 4.40803 0
M  V30 77515 H 7384.72 -1.21226 4.16517 0
M  V30 77516 H 7385.39 -2.71506 4.80613 0
M  V30 77517 H 7387.87 -2.98556 2.89833 0
M  V30 77518 H 7386.75 -4.23486 3.49215 0
M  V30 77519 H 7387.01 -4.05358 1.76458 0
M  V30 77520 N 7386.07 -1.34673 -0.818598 0
M  V30 77521 C 7387 -1.29256 -1.94461 0
M  V30 77522 C 7387.98 -0.16919 -1.69256 0
M  V30 77523 O 7389.16 -0.362243 -1.90792 0
M  V30 77524 C 7386.29 -1.05163 -3.30996 0
M  V30 77525 C 7385.25 -2.14012 -3.70652 0
M  V30 77526 C 7384.57 -1.75101 -5.05217 0
M  V30 77527 C 7385.87 -3.55879 -3.82293 0
M  V30 77528 H 7387.57 -2.23471 -1.99251 0
M  V30 77529 H 7385.11 -1.07577 -0.957248 0
M  V30 77530 H 7387.06 -1.00016 -4.09359 0
M  V30 77531 H 7385.79 -0.0739034 -3.26516 0
M  V30 77532 H 7384.45 -2.18234 -2.94566 0
M  V30 77533 H 7384.1 -0.75978 -4.97229 0
M  V30 77534 H 7383.8 -2.47956 -5.32721 0
M  V30 77535 H 7385.32 -1.71458 -5.86033 0
M  V30 77536 H 7386.73 -3.54044 -4.50916 0
M  V30 77537 H 7385.13 -4.27392 -4.21255 0
M  V30 77538 H 7386.2 -3.92905 -2.84172 0
M  V30 77539 N 7387.54 1.03932 -1.18473 0
M  V30 77540 C 7388.77 1.80542 -1.0044 0
M  V30 77541 C 7389.18 1.83763 0.45031 0
M  V30 77542 O 7388.52 1.27283 1.32457 0
M  V30 77543 C 7388.59 3.27417 -1.48454 0
M  V30 77544 C 7388.25 3.47853 -2.9639 0
M  V30 77545 C 7389.25 3.38932 -3.94235 0
M  V30 77546 C 7386.93 3.74406 -3.34851 0
M  V30 77547 C 7388.93 3.5627 -5.28536 0
M  V30 77548 C 7386.61 3.91391 -4.69315 0
M  V30 77549 C 7387.61 3.82324 -5.65966 0
M  V30 77550 O 7387.3 3.98821 -6.97995 0
M  V30 77551 H 7387.03 0.575355 -0.354883 0
M  V30 77552 H 7389.59 1.31868 -1.5748 0
M  V30 77553 H 7387.82 3.77066 -0.8578 0
M  V30 77554 H 7389.5 3.85589 -1.26791 0
M  V30 77555 H 7390.27 3.18381 -3.65867 0
M  V30 77556 H 7386.15 3.80561 -2.60181 0
M  V30 77557 H 7389.69 3.49109 -6.03961 0
M  V30 77558 H 7385.59 4.11437 -4.97383 0
M  V30 77559 H 7386.36 4.15973 -7.04917 0
M  V30 77560 N 7389.02 0.986981 1.22868 0
M  V30 77561 C 7390.27 0.660502 1.91743 0
M  V30 77562 C 7390.6 -0.804719 1.76743 0
M  V30 77563 O 7389.88 -1.58125 1.13255 0
M  V30 77564 C 7390.16 1.05984 3.4415 0
M  V30 77565 C 7390.01 2.58318 3.68228 0
M  V30 77566 C 7391.33 0.608649 4.35871 0
M  V30 77567 H 7388.45 0.241428 0.696334 0
M  V30 77568 H 7391.09 1.22944 1.44861 0
M  V30 77569 H 7389.24 0.575737 3.8421 0
M  V30 77570 H 7390.91 3.14353 3.37609 0
M  V30 77571 H 7389.16 3.00655 3.12712 0
M  V30 77572 H 7389.83 2.8131 4.74941 0
M  V30 77573 H 7392.3 1.02438 4.03294 0
M  V30 77574 H 7391.18 0.916428 5.41196 0
M  V30 77575 H 7391.44 -0.490854 4.39367 0
M  V30 77576 N 7390.5 -1.38095 0.759443 0
M  V30 77577 C 7391.43 -2.3301 0.1512 0
M  V30 77578 C 7392.41 -1.55163 -0.697017 0
M  V30 77579 O 7393.6 -1.83455 -0.637004 0
M  V30 77580 C 7390.73 -3.39363 -0.738244 0
M  V30 77581 C 7389.68 -4.27999 0.00769979 0
M  V30 77582 C 7389.01 -5.25258 -1.00038 0
M  V30 77583 C 7390.31 -5.08807 1.17953 0
M  V30 77584 H 7392 -2.84126 0.944083 0
M  V30 77585 H 7389.55 -1.36608 0.455434 0
M  V30 77586 H 7391.5 -4.04731 -1.17347 0
M  V30 77587 H 7390.22 -2.86743 -1.56351 0
M  V30 77588 H 7388.88 -3.64145 0.423571 0
M  V30 77589 H 7388.53 -4.68924 -1.81987 0
M  V30 77590 H 7388.23 -5.85418 -0.50589 0
M  V30 77591 H 7389.75 -5.93503 -1.43481 0
M  V30 77592 H 7391.17 -5.67383 0.821562 0
M  V30 77593 H 7389.57 -5.78231 1.60528 0
M  V30 77594 H 7390.64 -4.42202 1.98962 0
M  V30 77595 N 7391.98 -0.508985 -1.49155 0
M  V30 77596 C 7392.93 0.278785 -2.30923 0
M  V30 77597 C 7393.92 0.955308 -1.39894 0
M  V30 77598 O 7395.13 0.882086 -1.56905 0
M  V30 77599 H 7391.5 0.108766 -0.744093 0
M  V30 77600 H 7393.47 -0.430738 -2.95275 0
M  V30 77601 C 7392.22 1.3256 -3.21439 0
M  V30 77602 H 7391.54 0.814428 -3.91417 0
M  V30 77603 H 7392.98 1.84862 -3.81578 0
M  V30 77604 C 7391.44 2.34805 -2.41595 0
M  V30 77605 O 7391.97 3.40843 -2.12578 0
M  V30 77606 N 7390.18 2.07478 -2.03473 0
M  V30 77607 H 7389.73 1.21266 -2.27271 0
M  V30 77608 H 7389.68 2.76115 -1.50359 0
M  V30 77609 N 7393.46 1.55713 -0.243165 0
M  V30 77610 C 7394.68 2.03251 0.386864 0
M  V30 77611 C 7395.1 1.12251 1.51806 0
M  V30 77612 O 7394.46 0.136215 1.81991 0
M  V30 77613 C 7394.51 3.50164 0.898177 0
M  V30 77614 O 7394.23 4.37697 -0.187938 0
M  V30 77615 C 7395.73 4.13447 1.59927 0
M  V30 77616 H 7392.95 0.664613 0.0923631 0
M  V30 77617 H 7395.49 2.01199 -0.365938 0
M  V30 77618 H 7393.65 3.52762 1.60117 0
M  V30 77619 H 7394.06 5.2412 0.199725 0
M  V30 77620 H 7395.54 5.17947 1.9088 0
M  V30 77621 H 7396.01 3.59715 2.51995 0
M  V30 77622 H 7396.62 4.14761 0.940944 0
M  V30 77623 N 7394.93 -0.0299926 1.57571 0
M  V30 77624 C 7396.16 -0.732789 1.93489 0
M  V30 77625 C 7396.58 -1.68942 0.842847 0
M  V30 77626 O 7395.93 -1.81602 -0.180808 0
M  V30 77627 C 7395.99 -1.49065 3.29336 0
M  V30 77628 O 7395.71 -0.57241 4.34344 0
M  V30 77629 C 7397.21 -2.29068 3.79529 0
M  V30 77630 H 7394.43 -0.205992 0.638599 0
M  V30 77631 H 7396.97 0.0122045 2.04496 0
M  V30 77632 H 7395.13 -2.18753 3.19728 0
M  V30 77633 H 7395.54 -1.10379 5.12754 0
M  V30 77634 H 7397.01 -2.7764 4.77096 0
M  V30 77635 H 7397.49 -3.10448 3.10675 0
M  V30 77636 H 7398.1 -1.64456 3.92217 0
M  V30 77637 N 7396.41 -1.54675 -0.302246 0
M  V30 77638 C 7397.83 -1.4586 -0.647834 0
M  V30 77639 C 7398.03 -0.648791 -1.90769 0
M  V30 77640 O 7397.08 -0.155998 -2.52018 0
M  V30 77641 C 7398.4 -2.89808 -0.801991 0
M  V30 77642 C 7399.95 -2.99843 -0.897956 0
M  V30 77643 C 7400.42 -4.44984 -1.08412 0
M  V30 77644 N 7401.91 -4.48688 -1.15035 0
M  V30 77645 C 7402.65 -5.58173 -1.31267 0
M  V30 77646 N 7402.14 -6.77583 -1.44405 0
M  V30 77647 N 7403.94 -5.45858 -1.34145 0
M  V30 77648 H 7396.09 -2.05796 0.525536 0
M  V30 77649 H 7398.35 -0.931993 0.173472 0
M  V30 77650 H 7398.06 -3.5166 0.0528386 0
M  V30 77651 H 7397.93 -3.37154 -1.69137 0
M  V30 77652 H 7400.32 -2.38105 -1.74327 0
M  V30 77653 H 7400.4 -2.55795 0.0154101 0
M  V30 77654 H 7400.04 -5.07316 -0.243575 0
M  V30 77655 H 7399.97 -4.86661 -2.01169 0
M  V30 77656 H 7402.46 -3.62659 -1.06241 0
M  V30 77657 H 7402.78 -7.56779 -1.56542 0
M  V30 77658 H 7401.12 -6.80451 -1.41463 0
M  V30 77659 H 7404.31 -4.51517 -1.23492 0
M  V30 77660 H 7404.48 -6.31234 -1.46452 0
M  V30 77661 N 7397.89 0.565377 -1.4711 0
M  V30 77662 C 7398.85 1.65519 -1.58544 0
M  V30 77663 C 7399.85 1.54045 -0.461162 0
M  V30 77664 O 7401.04 1.58351 -0.725994 0
M  V30 77665 C 7398.18 3.05028 -1.5222 0
M  V30 77666 H 7399.37 1.56733 -2.55685 0
M  V30 77667 H 7396.92 0.784639 -1.35178 0
M  V30 77668 H 7397.66 3.19354 -0.56424 0
M  V30 77669 H 7397.44 3.14765 -2.33807 0
M  V30 77670 H 7398.93 3.84329 -1.63343 0
M  V30 77671 N 7399.37 1.35105 0.811445 0
M  V30 77672 C 7400.6 1.3121 1.59974 0
M  V30 77673 C 7401.01 -0.111453 1.88471 0
M  V30 77674 O 7400.37 -1.06197 1.4842 0
M  V30 77675 C 7400.42 2.112 2.93389 0
M  V30 77676 O 7400.14 3.48004 2.6613 0
M  V30 77677 C 7401.64 2.14834 3.87765 0
M  V30 77678 H 7398.86 0.450925 0.496898 0
M  V30 77679 H 7401.41 1.77888 1.00877 0
M  V30 77680 H 7399.56 1.68133 3.49013 0
M  V30 77681 H 7399.97 3.8949 3.5128 0
M  V30 77682 H 7401.45 2.75203 4.78505 0
M  V30 77683 H 7401.93 1.14578 4.23991 0
M  V30 77684 H 7402.53 2.5804 3.38076 0
M  V30 77685 N 7400.85 -1.03302 1.19023 0
M  V30 77686 C 7402.07 -1.80805 1.01608 0
M  V30 77687 C 7402.5 -1.83103 -0.430676 0
M  V30 77688 O 7401.85 -1.25398 -1.30939 0
M  V30 77689 C 7401.9 -3.23915 1.58467 0
M  V30 77690 O 7401.01 -4.04343 0.811185 0
M  V30 77691 H 7400.35 -0.558308 0.359427 0
M  V30 77692 H 7402.88 -1.30047 1.57952 0
M  V30 77693 H 7402.89 -3.74673 1.61505 0
M  V30 77694 H 7401.56 -3.21557 2.63769 0
M  V30 77695 H 7400.14 -3.62996 0.853721 0
M  V30 77696 N 7402.32 -0.993483 -1.22342 0
M  V30 77697 C 7403.74 -0.704314 -1.43219 0
M  V30 77698 C 7403.94 0.72481 -1.88013 0
M  V30 77699 O 7403 1.49565 -2.03437 0
M  V30 77700 C 7404.31 -1.71038 -2.47319 0
M  V30 77701 C 7405.86 -1.72589 -2.61117 0
M  V30 77702 C 7406.33 -2.72061 -3.68438 0
M  V30 77703 N 7407.82 -2.70659 -3.75897 0
M  V30 77704 C 7408.56 -3.4429 -4.58532 0
M  V30 77705 N 7408.05 -4.27524 -5.45156 0
M  V30 77706 N 7409.85 -3.32993 -4.52849 0
M  V30 77707 H 7402 -1.91646 -0.915731 0
M  V30 77708 H 7404.26 -0.82655 -0.46424 0
M  V30 77709 H 7403.97 -2.73306 -2.21352 0
M  V30 77710 H 7403.84 -1.50371 -3.45931 0
M  V30 77711 H 7406.23 -0.710188 -2.86427 0
M  V30 77712 H 7406.31 -1.97325 -1.62777 0
M  V30 77713 H 7405.95 -3.73781 -3.43875 0
M  V30 77714 H 7405.88 -2.44595 -4.66349 0
M  V30 77715 H 7408.37 -2.10263 -3.14003 0
M  V30 77716 H 7408.69 -4.80531 -6.05235 0
M  V30 77717 H 7407.03 -4.3161 -5.44736 0
M  V30 77718 H 7410.22 -2.67409 -3.842 0
M  V30 77719 H 7410.4 -3.90635 -5.17019 0
M  V30 77720 N 7403.8 1.3769 -0.766756 0
M  V30 77721 C 7404.71 2.34118 -0.150281 0
M  V30 77722 C 7405.73 1.59931 0.685429 0
M  V30 77723 O 7406.9 1.9205 0.606515 0
M  V30 77724 C 7403.97 3.39091 0.722384 0
M  V30 77725 C 7403.03 4.29106 -0.12921 0
M  V30 77726 C 7402.26 5.29064 0.701899 0
M  V30 77727 O 7402.49 5.36422 1.93926 0
M  V30 77728 O 7401.42 6.01793 0.113739 0
M  V30 77729 H 7405.25 2.88558 -0.946981 0
M  V30 77730 H 7402.83 1.39765 -0.527839 0
M  V30 77731 H 7404.71 4.03331 1.22073 0
M  V30 77732 H 7403.39 2.86986 1.49736 0
M  V30 77733 H 7402.3 3.67982 -0.673806 0
M  V30 77734 H 7403.63 4.84501 -0.867148 0
M  V30 77735 N 7405.28 0.516888 1.48883 0
M  V30 77736 C 7406.19 -0.25717 2.33186 0
M  V30 77737 C 7407.21 -0.951875 1.45655 0
M  V30 77738 O 7408.38 -0.92974 1.78656 0
M  V30 77739 C 7405.45 -1.29834 3.21472 0
M  V30 77740 C 7404.51 -0.615384 4.24866 0
M  V30 77741 C 7403.74 -1.60695 5.08933 0
M  V30 77742 O 7403.97 -2.83837 4.94765 0
M  V30 77743 O 7402.9 -1.15353 5.90743 0
M  V30 77744 H 7406.73 0.433289 3.00593 0
M  V30 77745 H 7404.31 0.277985 1.46791 0
M  V30 77746 H 7406.19 -1.90035 3.76118 0
M  V30 77747 H 7404.87 -1.97144 2.56741 0
M  V30 77748 H 7403.77 0.0267801 3.7409 0
M  V30 77749 H 7405.11 0.0155467 4.92198 0
M  V30 77750 N 7406.76 -1.55582 0.25142 0
M  V30 77751 C 7407.71 -2.21569 -0.64622 0
M  V30 77752 C 7408.68 -1.18108 -1.16789 0
M  V30 77753 O 7409.86 -1.46571 -1.22154 0
M  V30 77754 C 7407 -2.92244 -1.83542 0
M  V30 77755 C 7406.11 -4.1037 -1.34984 0
M  V30 77756 C 7405.25 -4.68749 -2.49896 0
M  V30 77757 C 7404.29 -5.79115 -1.98222 0
M  V30 77758 N 7403.43 -6.31658 -3.06517 0
M  V30 77759 H 7408.27 -2.97901 -0.076831 0
M  V30 77760 H 7405.8 -1.47077 -0.0261604 0
M  V30 77761 H 7407.76 -3.31422 -2.53408 0
M  V30 77762 H 7406.39 -2.18377 -2.37721 0
M  V30 77763 H 7405.44 -3.76475 -0.545076 0
M  V30 77764 H 7406.75 -4.90031 -0.931177 0
M  V30 77765 H 7405.91 -5.10524 -3.27796 0
M  V30 77766 H 7404.65 -3.88313 -2.95066 0
M  V30 77767 H 7403.65 -5.36813 -1.18794 0
M  V30 77768 H 7404.88 -6.61404 -1.54016 0
M  V30 77769 H 7402.82 -5.54126 -3.51114 0
M  V30 77770 H 7402.74 -7.06525 -2.68995 0
M  V30 77771 H 7404.01 -6.78092 -3.84463 0
M  V30 77772 N 7408.24 0.0216358 -1.57585 0
M  V30 77773 C 7409.19 1.03831 -2.08139 0
M  V30 77774 C 7410.18 1.36973 -0.996735 0
M  V30 77775 O 7411.39 1.35791 -1.18156 0
M  V30 77776 H 7407.76 0.352403 -0.664316 0
M  V30 77777 H 7409.73 0.586185 -2.92586 0
M  V30 77778 C 7408.48 2.32835 -2.58231 0
M  V30 77779 H 7407.8 2.08196 -3.41313 0
M  V30 77780 H 7409.24 3.023 -2.97305 0
M  V30 77781 C 7407.7 3.02317 -1.4868 0
M  V30 77782 O 7408.23 3.92446 -0.857282 0
M  V30 77783 N 7406.44 2.63773 -1.21952 0
M  V30 77784 H 7405.99 1.90565 -1.73329 0
M  V30 77785 H 7405.94 3.10579 -0.488687 0
M  V30 77786 N 7409.72 1.54833 0.294039 0
M  V30 77787 C 7410.65 1.89268 1.36748 0
M  V30 77788 C 7411.63 0.752295 1.5256 0
M  V30 77789 O 7412.81 1.00863 1.65952 0
M  V30 77790 C 7409.94 2.14612 2.73055 0
M  V30 77791 C 7408.9 3.30455 2.71999 0
M  V30 77792 C 7408.22 3.41232 4.11661 0
M  V30 77793 C 7409.52 4.67387 2.33124 0
M  V30 77794 H 7411.22 2.79174 1.08176 0
M  V30 77795 H 7408.76 1.34324 0.518943 0
M  V30 77796 H 7410.71 2.37287 3.48242 0
M  V30 77797 H 7409.44 1.21483 3.03166 0
M  V30 77798 H 7408.1 3.07713 1.99269 0
M  V30 77799 H 7407.75 2.45608 4.3896 0
M  V30 77800 H 7407.45 4.19106 4.11855 0
M  V30 77801 H 7408.97 3.66176 4.88618 0
M  V30 77802 H 7410.38 4.89747 2.98029 0
M  V30 77803 H 7408.78 5.48025 2.44518 0
M  V30 77804 H 7409.85 4.67632 1.2825 0
M  V30 77805 N 7411.19 -0.557567 1.47407 0
M  V30 77806 C 7412.13 -1.67987 1.55926 0
M  V30 77807 C 7413.14 -1.56586 0.445493 0
M  V30 77808 O 7414.33 -1.63551 0.715085 0
M  V30 77809 C 7411.43 -3.0645 1.44713 0
M  V30 77810 C 7410.6 -3.43608 2.70651 0
M  V30 77811 C 7409.66 -4.61233 2.5328 0
M  V30 77812 O 7408.69 -4.65832 3.27093 0
M  V30 77813 N 7409.89 -5.57703 1.61083 0
M  V30 77814 H 7412.65 -1.61126 2.52703 0
M  V30 77815 H 7410.21 -0.744195 1.43782 0
M  V30 77816 H 7412.21 -3.82971 1.30826 0
M  V30 77817 H 7410.78 -3.07539 0.560201 0
M  V30 77818 H 7410 -2.56539 2.99302 0
M  V30 77819 H 7411.28 -3.65209 3.54259 0
M  V30 77820 H 7410.68 -5.56744 1.00264 0
M  V30 77821 H 7409.24 -6.33552 1.53149 0
M  V30 77822 N 7412.67 -1.35533 -0.804268 0
M  V30 77823 C 7413.92 -1.28681 -1.55838 0
M  V30 77824 C 7414.24 0.137874 -1.94512 0
M  V30 77825 O 7413.51 1.07483 -1.63781 0
M  V30 77826 H 7412.09 -0.473322 -0.577906 0
M  V30 77827 H 7414.75 -1.69662 -0.959204 0
M  V30 77828 H 7413.85 -1.90425 -2.47275 0
M  V30 77829 N 7414.15 1.0267 -1.19569 0
M  V30 77830 C 7415.4 1.76105 -0.999661 0
M  V30 77831 C 7415.72 1.88753 0.469332 0
M  V30 77832 O 7414.98 1.40262 1.36473 0
M  V30 77833 C 7415.28 3.18761 -1.61636 0
M  V30 77834 C 7414.94 3.26115 -3.11383 0
M  V30 77835 C 7413.61 3.2783 -3.52252 0
M  V30 77836 C 7415.96 3.25087 -4.07391 0
M  V30 77837 C 7413.29 3.26175 -4.87675 0
M  V30 77838 C 7415.64 3.24973 -5.42748 0
M  V30 77839 C 7414.3 3.24986 -5.83044 0
M  V30 77840 H 7413.57 0.644415 -0.365802 0
M  V30 77841 H 7416.22 1.20489 -1.48845 0
M  V30 77842 H 7414.52 3.7747 -1.04993 0
M  V30 77843 H 7416.22 3.74254 -1.43995 0
M  V30 77844 H 7412.81 3.2551 -2.78821 0
M  V30 77845 H 7417 3.22941 -3.76859 0
M  V30 77846 H 7412.25 3.2451 -5.18173 0
M  V30 77847 H 7416.43 3.23128 -6.16896 0
M  V30 77848 H 7414.05 3.23458 -6.87953 0
M  V30 77849 N 7415.63 0.999957 1.21814 0
M  V30 77850 C 7416.56 0.576216 2.26279 0
M  V30 77851 C 7417.54 -0.40045 1.65319 0
M  V30 77852 O 7418.72 -0.289538 1.92029 0
M  V30 77853 C 7415.85 -0.102962 3.47147 0
M  V30 77854 C 7414.81 0.792967 4.2059 0
M  V30 77855 C 7414.13 -0.0195206 5.34696 0
M  V30 77856 C 7415.43 2.09318 4.78522 0
M  V30 77857 H 7417.13 1.44943 2.61977 0
M  V30 77858 H 7414.67 0.698382 1.25931 0
M  V30 77859 H 7416.63 -0.410847 4.19392 0
M  V30 77860 H 7415.35 -1.01078 3.10565 0
M  V30 77861 H 7414.01 1.0846 3.50189 0
M  V30 77862 H 7413.66 -0.928468 4.94357 0
M  V30 77863 H 7413.36 0.576969 5.8476 0
M  V30 77864 H 7414.88 -0.321337 6.09754 0
M  V30 77865 H 7416.3 1.84878 5.42672 0
M  V30 77866 H 7414.69 2.6391 5.38954 0
M  V30 77867 H 7415.76 2.76729 3.98182 0
M  V30 77868 N 7417.11 -1.37282 0.774047 0
M  V30 77869 C 7418.02 -2.34035 0.162695 0
M  V30 77870 C 7419.03 -1.60292 -0.676938 0
M  V30 77871 O 7420.21 -1.92369 -0.596321 0
M  V30 77872 C 7417.27 -3.39469 -0.704391 0
M  V30 77873 C 7416.33 -4.29031 0.151964 0
M  V30 77874 C 7415.57 -5.29429 -0.673831 0
M  V30 77875 O 7415.79 -5.37443 -1.91078 0
M  V30 77876 O 7414.72 -6.01844 -0.0818224 0
M  V30 77877 H 7418.55 -2.88052 0.962271 0
M  V30 77878 H 7416.13 -1.39483 0.535243 0
M  V30 77879 H 7418.02 -4.03973 -1.19933 0
M  V30 77880 H 7416.69 -2.87776 -1.48212 0
M  V30 77881 H 7415.6 -3.67619 0.693312 0
M  V30 77882 H 7416.93 -4.84034 0.89283 0
M  V30 77883 N 7418.58 -0.524776 -1.48606 0
M  V30 77884 C 7419.52 0.27788 -2.27509 0
M  V30 77885 C 7420.53 0.909186 -1.35047 0
M  V30 77886 O 7421.72 0.788507 -1.6014 0
M  V30 77887 C 7418.82 1.40827 -3.08255 0
M  V30 77888 C 7417.99 0.879857 -4.28459 0
M  V30 77889 C 7417.05 1.89074 -4.91058 0
M  V30 77890 O 7416.08 1.44976 -5.50428 0
M  V30 77891 N 7417.28 3.22262 -4.82833 0
M  V30 77892 H 7420.04 -0.398799 -2.97035 0
M  V30 77893 H 7417.6 -0.358781 -1.57875 0
M  V30 77894 H 7419.6 2.08258 -3.47003 0
M  V30 77895 H 7418.17 1.9887 -2.41183 0
M  V30 77896 H 7417.39 0.029715 -3.94189 0
M  V30 77897 H 7418.67 0.505614 -5.06282 0
M  V30 77898 H 7418.07 3.6076 -4.35739 0
M  V30 77899 H 7416.63 3.8534 -5.25696 0
M  V30 77900 N 7420.06 1.55446 -0.259667 0
M  V30 77901 C 7421.47 1.85137 0.241068 0
M  V30 77902 C 7421.82 1.18161 1.56628 0
M  V30 77903 O 7420.95 0.464463 2.11357 0
M  V30 77904 C 7421.54 3.35876 0.444178 0
M  V30 77905 C 7420.1 3.65747 0.889161 0
M  V30 77906 C 7419.25 2.77287 -0.0263936 0
M  V30 77907 H 7422.2 1.51207 -0.481888 0
M  V30 77908 H 7422.22 3.58146 1.28498 0
M  V30 77909 H 7421.73 3.84594 -0.520492 0
M  V30 77910 H 7419.84 3.22516 1.86585 0
M  V30 77911 H 7419.95 4.73395 0.737182 0
M  V30 77912 H 7418.31 2.49996 0.487229 0
M  V30 77913 H 7419.1 3.28816 -0.986667 0
M  V30 77914 N 7421.54 -0.0132784 1.57594 0
M  V30 77915 C 7422.49 -1.00894 2.07579 0
M  V30 77916 C 7423.46 -1.34956 0.968302 0
M  V30 77917 O 7424.64 -1.45022 1.23989 0
M  V30 77918 C 7421.78 -2.29989 2.57292 0
M  V30 77919 C 7420.9 -2.01947 3.81892 0
M  V30 77920 C 7420.03 -3.25027 4.20156 0
M  V30 77921 C 7419.07 -2.9261 5.3763 0
M  V30 77922 N 7418.21 -4.08188 5.7125 0
M  V30 77923 H 7423.05 -0.575745 2.92385 0
M  V30 77924 H 7420.58 -0.272646 1.44551 0
M  V30 77925 H 7422.54 -3.05439 2.84188 0
M  V30 77926 H 7421.17 -2.71002 1.75379 0
M  V30 77927 H 7420.22 -1.16923 3.61985 0
M  V30 77928 H 7421.54 -1.74045 4.6745 0
M  V30 77929 H 7420.69 -4.08833 4.48264 0
M  V30 77930 H 7419.43 -3.56056 3.3328 0
M  V30 77931 H 7418.43 -2.07209 5.09259 0
M  V30 77932 H 7419.66 -2.62843 6.26171 0
M  V30 77933 H 7417.6 -4.39138 4.87333 0
M  V30 77934 H 7417.52 -3.83764 6.51353 0
M  V30 77935 H 7418.79 -4.92822 6.03943 0
M  V30 77936 N 7423.02 -1.54986 -0.285823 0
M  V30 77937 C 7423.93 -1.90064 -1.37524 0
M  V30 77938 C 7424.94 -0.79643 -1.54703 0
M  V30 77939 O 7426.12 -1.09431 -1.69076 0
M  V30 77940 C 7423.19 -2.15412 -2.71659 0
M  V30 77941 C 7422.25 -3.39046 -2.63336 0
M  V30 77942 C 7421.48 -3.63176 -3.91074 0
M  V30 77943 O 7421.7 -2.90041 -4.91154 0
M  V30 77944 O 7420.64 -4.56705 -3.92051 0
M  V30 77945 H 7424.46 -2.82776 -1.10776 0
M  V30 77946 H 7422.05 -1.41369 -0.483229 0
M  V30 77947 H 7423.93 -2.33198 -3.50994 0
M  V30 77948 H 7422.6 -1.25884 -2.9822 0
M  V30 77949 H 7421.51 -3.26609 -1.82421 0
M  V30 77950 H 7422.84 -4.28753 -2.41727 0
M  V30 77951 N 7424.5 0.549742 -1.47701 0
M  V30 77952 C 7425.44 1.65616 -1.60748 0
M  V30 77953 C 7426.41 1.59882 -0.450214 0
M  V30 77954 O 7427.6 1.78604 -0.671217 0
M  V30 77955 C 7424.74 3.03925 -1.63473 0
M  V30 77956 C 7423.85 3.20041 -2.90169 0
M  V30 77957 C 7422.99 4.48792 -2.84181 0
M  V30 77958 C 7422.03 4.58366 -4.05669 0
M  V30 77959 N 7421.16 5.78482 -3.97873 0
M  V30 77960 H 7426 1.53803 -2.55242 0
M  V30 77961 H 7423.54 0.749106 -1.26597 0
M  V30 77962 H 7425.5 3.84025 -1.63035 0
M  V30 77963 H 7424.13 3.14556 -0.724855 0
M  V30 77964 H 7423.18 2.33324 -3.0044 0
M  V30 77965 H 7424.49 3.22978 -3.80114 0
M  V30 77966 H 7423.65 5.37161 -2.82034 0
M  V30 77967 H 7422.38 4.48345 -1.91931 0
M  V30 77968 H 7421.39 3.68408 -4.08112 0
M  V30 77969 H 7422.61 4.60567 -4.99054 0
M  V30 77970 H 7420.56 5.7897 -3.08432 0
M  V30 77971 H 7420.48 5.82829 -4.81504 0
M  V30 77972 H 7421.75 6.69191 -3.99755 0
M  V30 77973 N 7425.97 1.35958 0.797069 0
M  V30 77974 C 7427.22 1.30962 1.55629 0
M  V30 77975 C 7427.58 -0.112413 1.92071 0
M  V30 77976 O 7426.87 -1.06513 1.59266 0
M  V30 77977 C 7427.06 2.15878 2.84836 0
M  V30 77978 C 7426.89 3.66195 2.61019 0
M  V30 77979 C 7425.66 4.35399 2.56429 0
M  V30 77980 C 7427.86 4.59633 2.30742 0
M  V30 77981 N 7425.84 5.71406 2.2443 0
M  V30 77982 C 7427.21 5.83831 2.08664 0
M  V30 77983 C 7429.27 4.48277 2.16684 0
M  V30 77984 C 7427.97 6.97949 1.73952 0
M  V30 77985 C 7430 5.62254 1.8337 0
M  V30 77986 C 7429.36 6.85486 1.62135 0
M  V30 77987 H 7425.46 0.534493 0.570825 0
M  V30 77988 H 7428.04 1.70935 0.932171 0
M  V30 77989 H 7426.21 1.78162 3.45127 0
M  V30 77990 H 7427.94 2.02329 3.50492 0
M  V30 77991 H 7424.7 3.88116 2.7141 0
M  V30 77992 H 7425.12 6.43214 2.11198 0
M  V30 77993 H 7429.77 3.53597 2.31795 0
M  V30 77994 H 7427.48 7.92587 1.57579 0
M  V30 77995 H 7431.07 5.55425 1.73187 0
M  V30 77996 H 7429.95 7.72188 1.36734 0
M  V30 77997 N 7427.45 -1.02034 1.20112 0
M  V30 77998 C 7428.7 -1.75833 1.01048 0
M  V30 77999 C 7429.03 -1.88753 -0.45672 0
M  V30 78000 O 7428.31 -1.4106 -1.33911 0
M  V30 78001 C 7428.59 -3.17966 1.69026 0
M  V30 78002 C 7428.44 -3.12863 3.23167 0
M  V30 78003 C 7429.76 -4.16553 1.42027 0
M  V30 78004 H 7426.88 -0.638262 0.368498 0
M  V30 78005 H 7429.52 -1.19057 1.48073 0
M  V30 78006 H 7427.67 -3.66442 1.29045 0
M  V30 78007 H 7429.34 -2.7222 3.72417 0
M  V30 78008 H 7427.59 -2.50356 3.54266 0
M  V30 78009 H 7428.26 -4.13319 3.65884 0
M  V30 78010 H 7430.73 -3.76716 1.76705 0
M  V30 78011 H 7429.61 -5.14177 1.92128 0
M  V30 78012 H 7429.87 -4.40735 0.347116 0
M  V30 78013 N 7428.93 -1.0064 -1.21282 0
M  V30 78014 C 7429.84 -0.577346 -2.27385 0
M  V30 78015 C 7430.86 0.38031 -1.69793 0
M  V30 78016 O 7432.03 0.243795 -1.99919 0
M  V30 78017 C 7429.1 0.0878704 -3.46589 0
M  V30 78018 C 7428.16 -0.914443 -4.19448 0
M  V30 78019 C 7427.39 -0.280877 -5.3296 0
M  V30 78020 O 7427.61 0.921968 -5.629 0
M  V30 78021 O 7426.55 -0.992509 -5.93661 0
M  V30 78022 H 7430.37 -1.46042 -2.66281 0
M  V30 78023 H 7427.96 -0.77535 -1.27705 0
M  V30 78024 H 7429.84 0.459873 -4.18883 0
M  V30 78025 H 7428.52 0.945297 -3.0959 0
M  V30 78026 H 7427.42 -1.33763 -3.49368 0
M  V30 78027 H 7428.76 -1.7415 -4.60361 0
M  V30 78028 N 7430.41 1.36869 -0.781317 0
M  V30 78029 C 7431.63 2.04243 -0.360506 0
M  V30 78030 C 7432.06 1.58535 1.01234 0
M  V30 78031 O 7431.42 0.750023 1.65059 0
M  V30 78032 C 7431.46 3.58105 -0.423479 0
M  V30 78033 O 7430.57 4.08406 0.572581 0
M  V30 78034 H 7429.91 0.645795 -0.15442 0
M  V30 78035 H 7432.44 1.7499 -1.06017 0
M  V30 78036 H 7432.45 4.07009 -0.284182 0
M  V30 78037 H 7431.12 3.90727 -1.42497 0
M  V30 78038 H 7429.7 3.70796 0.395614 0
M  V30 78039 N 7431.89 0.53265 1.48326 0
M  V30 78040 C 7432.85 -0.217948 2.28161 0
M  V30 78041 C 7433.85 -0.865337 1.35531 0
M  V30 78042 O 7435.04 -0.724977 1.58397 0
M  V30 78043 C 7432.17 -1.3157 3.14487 0
M  V30 78044 H 7433.36 0.483021 2.95985 0
M  V30 78045 H 7430.92 0.288684 1.53611 0
M  V30 78046 H 7431.65 -2.04984 2.51301 0
M  V30 78047 H 7431.44 -0.856577 3.82629 0
M  V30 78048 H 7432.93 -1.84357 3.74703 0
M  V30 78049 N 7433.36 -1.55306 0.267907 0
M  V30 78050 C 7434.61 -1.99436 -0.350931 0
M  V30 78051 C 7434.94 -1.15626 -1.564 0
M  V30 78052 O 7434.19 -0.212147 -1.94547 0
M  V30 78053 C 7434.49 -3.48694 -0.784063 0
M  V30 78054 C 7434.16 -4.49738 0.323565 0
M  V30 78055 C 7432.82 -4.77088 0.627719 0
M  V30 78056 C 7435.17 -5.10092 1.07029 0
M  V30 78057 C 7432.5 -5.62064 1.6823 0
M  V30 78058 C 7434.85 -5.96213 2.11454 0
M  V30 78059 C 7433.52 -6.21888 2.42511 0
M  V30 78060 H 7432.79 -0.729788 -0.128415 0
M  V30 78061 H 7435.43 -1.8769 0.380117 0
M  V30 78062 H 7433.74 -3.57879 -1.59467 0
M  V30 78063 H 7435.44 -3.80241 -1.2735 0
M  V30 78064 H 7432.03 -4.28532 0.0763788 0
M  V30 78065 H 7436.21 -4.88992 0.84856 0
M  V30 78066 H 7431.47 -5.80204 1.92803 0
M  V30 78067 H 7435.64 -6.42016 2.69793 0
M  V30 78068 H 7433.27 -6.87526 3.24364 0
M  V30 78069 N 7434.84 0.00492057 -1.57599 0
M  V30 78070 C 7435.75 1.01435 -2.11538 0
M  V30 78071 C 7436.77 1.38025 -1.05949 0
M  V30 78072 O 7437.95 1.46857 -1.37823 0
M  V30 78073 C 7435.01 2.28901 -2.60394 0
M  V30 78074 C 7434.07 1.98669 -3.80564 0
M  V30 78075 C 7433.3 3.20058 -4.27081 0
M  V30 78076 O 7433.53 4.31574 -3.72961 0
M  V30 78077 O 7432.46 3.04344 -5.19286 0
M  V30 78078 H 7436.29 0.585853 -2.97996 0
M  V30 78079 H 7433.87 0.223441 -1.4772 0
M  V30 78080 H 7435.75 3.03794 -2.9204 0
M  V30 78081 H 7434.43 2.70998 -1.77036 0
M  V30 78082 H 7433.34 1.21268 -3.539 0
M  V30 78083 H 7434.67 1.61412 -4.64981 0
M  V30 78084 N 7436.32 1.55136 0.2776 0
M  V30 78085 C 7437.57 1.75785 1.01131 0
M  V30 78086 C 7437.9 0.554818 1.86106 0
M  V30 78087 O 7437.18 -0.447713 1.89277 0
M  V30 78088 C 7437.46 3.06037 1.89772 0
M  V30 78089 C 7437.31 4.36686 1.07821 0
M  V30 78090 C 7438.63 3.32298 2.88559 0
M  V30 78091 H 7435.75 0.639559 0.366243 0
M  V30 78092 H 7438.39 1.87865 0.284056 0
M  V30 78093 H 7436.54 2.9587 2.51781 0
M  V30 78094 H 7438.21 4.58804 0.47919 0
M  V30 78095 H 7436.46 4.32119 0.381536 0
M  V30 78096 H 7437.13 5.2414 1.73151 0
M  V30 78097 H 7439.6 3.42228 2.36684 0
M  V30 78098 H 7438.48 4.24708 3.47727 0
M  V30 78099 H 7438.74 2.51715 3.63444 0
M  V30 78100 N 7437.8 -0.541901 1.47991 0
M  V30 78101 C 7439.08 -1.30295 1.45885 0
M  V30 78102 C 7439.46 -2.10462 0.164042 0
M  V30 78103 O 7438.8 -2.11926 -0.854367 0
M  V30 78104 C 7439.01 -2.19451 2.71371 0
M  V30 78105 C 7440.36 -2.79978 3.19214 0
M  V30 78106 O 7441.39 -2.29745 2.72205 0
M  V30 78107 O 7440.25 -3.71318 4.0098 0
M  V30 78108 H 7437.34 -0.587468 0.582074 0
M  V30 78109 H 7439.89 -0.559539 1.6021 0
M  V30 78110 H 7438.66 -1.59917 3.5713 0
M  V30 78111 H 7438.28 -3.01061 2.59707 0
M  V30 78112 N 7439.28 -1.36379 -0.789848 0
M  V30 78113 C 7440.53 -1.30327 -1.54465 0
M  V30 78114 C 7440.85 0.117235 -1.94647 0
M  V30 78115 O 7440.12 1.0574 -1.64912 0
M  V30 78116 H 7438.7 -0.479425 -0.572853 0
M  V30 78117 H 7441.36 -1.7067 -0.941155 0
M  V30 78118 H 7440.45 -1.93036 -2.45241 0
M  V30 78119 N 7440.76 1.01396 -1.20651 0
M  V30 78120 C 7442.17 1.56484 -1.01831 0
M  V30 78121 C 7442.52 1.91552 0.424529 0
M  V30 78122 O 7441.64 1.72521 1.30635 0
M  V30 78123 C 7442.24 2.84337 -1.84223 0
M  V30 78124 C 7440.8 3.35944 -1.69761 0
M  V30 78125 C 7439.94 2.09224 -1.81991 0
M  V30 78126 H 7442.89 0.837468 -1.34804 0
M  V30 78127 H 7442.92 3.55853 -1.34717 0
M  V30 78128 H 7442.43 2.58782 -2.89229 0
M  V30 78129 H 7440.53 3.66453 -0.674026 0
M  V30 78130 H 7440.64 4.07968 -2.51195 0
M  V30 78131 H 7439.01 2.21801 -1.25205 0
M  V30 78132 H 7439.79 1.86092 -2.88487 0
M  V30 78133 N 7442.23 1.01282 1.20746 0
M  V30 78134 C 7443.46 0.718036 1.93721 0
M  V30 78135 C 7443.87 -0.72464 1.74773 0
M  V30 78136 O 7443.21 -1.50279 1.0565 0
M  V30 78137 C 7443.28 0.969136 3.46191 0
M  V30 78138 C 7442.94 2.40019 3.88896 0
M  V30 78139 C 7443.94 3.38082 3.94964 0
M  V30 78140 C 7441.62 2.73992 4.20991 0
M  V30 78141 C 7443.62 4.68182 4.32533 0
M  V30 78142 C 7441.3 4.04306 4.58235 0
M  V30 78143 C 7442.3 5.01212 4.63978 0
M  V30 78144 O 7441.99 6.29194 5.0037 0
M  V30 78145 H 7441.72 0.263219 0.622649 0
M  V30 78146 H 7444.28 1.35585 1.54291 0
M  V30 78147 H 7442.51 0.274156 3.85727 0
M  V30 78148 H 7444.19 0.666523 4.0039 0
M  V30 78149 H 7444.96 3.1317 3.70337 0
M  V30 78150 H 7440.84 1.99255 4.15715 0
M  V30 78151 H 7444.38 5.43818 4.3693 0
M  V30 78152 H 7440.28 4.28998 4.82318 0
M  V30 78153 H 7441.05 6.33426 5.18375 0
M  V30 78154 N 7443.71 -1.36453 0.788564 0
M  V30 78155 C 7444.94 -2.03225 0.371932 0
M  V30 78156 C 7445.35 -1.59594 -1.01618 0
M  V30 78157 O 7444.69 -0.78047 -1.66296 0
M  V30 78158 C 7444.75 -3.57739 0.355367 0
M  V30 78159 C 7444.42 -4.24567 1.69091 0
M  V30 78160 C 7445.42 -4.47515 2.64624 0
M  V30 78161 C 7443.1 -4.62058 1.96997 0
M  V30 78162 C 7445.09 -5.07033 3.86259 0
M  V30 78163 C 7442.78 -5.21293 3.18899 0
M  V30 78164 C 7443.78 -5.4372 4.13349 0
M  V30 78165 O 7443.47 -6.01712 5.33102 0
M  V30 78166 H 7443.2 -0.658808 0.151487 0
M  V30 78167 H 7445.75 -1.75429 1.06836 0
M  V30 78168 H 7443.98 -3.84651 -0.397551 0
M  V30 78169 H 7445.67 -4.05884 -0.0364814 0
M  V30 78170 H 7446.44 -4.18948 2.44351 0
M  V30 78171 H 7442.32 -4.43926 1.24301 0
M  V30 78172 H 7445.86 -5.24454 4.59993 0
M  V30 78173 H 7441.76 -5.49286 3.39051 0
M  V30 78174 H 7442.53 -6.20179 5.34154 0
M  V30 78175 N 7445.19 -0.540508 -1.48041 0
M  V30 78176 C 7446.44 -0.0102635 -2.02497 0
M  V30 78177 C 7446.76 1.33279 -1.41658 0
M  V30 78178 O 7446.02 1.87647 -0.555603 0
M  V30 78179 C 7446.32 0.14982 -3.57086 0
M  V30 78180 C 7445.98 -1.12021 -4.36763 0
M  V30 78181 C 7444.65 -1.46826 -4.58253 0
M  V30 78182 C 7447 -1.96257 -4.82838 0
M  V30 78183 C 7444.33 -2.65744 -5.23065 0
M  V30 78184 C 7446.68 -3.14364 -5.48961 0
M  V30 78185 C 7445.34 -3.49502 -5.68687 0
M  V30 78186 H 7444.61 -0.00375568 -0.74099 0
M  V30 78187 H 7447.26 -0.708656 -1.77905 0
M  V30 78188 H 7445.56 0.931059 -3.80577 0
M  V30 78189 H 7447.26 0.575175 -3.96854 0
M  V30 78190 H 7443.85 -0.839179 -4.20304 0
M  V30 78191 H 7448.04 -1.70678 -4.66029 0
M  V30 78192 H 7443.29 -2.93157 -5.36534 0
M  V30 78193 H 7447.47 -3.79935 -5.83629 0
M  V30 78194 H 7445.09 -4.41745 -6.1868 0
M  V30 78195 N 7446.67 1.55162 -0.27614 0
M  V30 78196 C 7447.9 2.04026 0.343665 0
M  V30 78197 C 7448.31 1.15446 1.49391 0
M  V30 78198 O 7447.67 0.174788 1.81661 0
M  V30 78199 C 7447.72 3.51991 0.8237 0
M  V30 78200 O 7447.44 4.372 -0.280738 0
M  V30 78201 C 7448.94 4.16746 1.51121 0
M  V30 78202 H 7446.16 0.666422 0.0782449 0
M  V30 78203 H 7448.7 2.00378 -0.408533 0
M  V30 78204 H 7446.86 3.56079 1.52598 0
M  V30 78205 H 7447.27 5.24425 0.0885065 0
M  V30 78206 H 7448.75 5.21879 1.79851 0
M  V30 78207 H 7449.22 3.6498 2.44308 0
M  V30 78208 H 7449.83 4.16663 0.852756 0
M  V30 78209 N 7448.15 0.00343736 1.576 0
M  V30 78210 C 7449.39 -0.681699 1.90999 0
M  V30 78211 C 7449.72 -1.73232 0.877734 0
M  V30 78212 O 7449 -1.94227 -0.103081 0
M  V30 78213 C 7449.28 -1.32169 3.34968 0
M  V30 78214 C 7449.14 -0.282374 4.48913 0
M  V30 78215 C 7450.45 -2.24691 3.7842 0
M  V30 78216 H 7447.57 -0.246349 0.694609 0
M  V30 78217 H 7450.22 0.0554362 1.89919 0
M  V30 78218 H 7448.37 -1.94996 3.36019 0
M  V30 78219 H 7450.04 0.346484 4.59997 0
M  V30 78220 H 7448.28 0.394996 4.31998 0
M  V30 78221 H 7448.95 -0.769288 5.46613 0
M  V30 78222 H 7451.43 -1.71877 3.78943 0
M  V30 78223 H 7450.3 -2.66435 4.79899 0
M  V30 78224 H 7450.56 -3.12743 3.1248 0
M  V30 78225 N 7449.62 -1.55281 -0.269369 0
M  V30 78226 C 7450.55 -1.9142 -1.33719 0
M  V30 78227 C 7451.54 -0.776471 -1.51344 0
M  V30 78228 O 7452.72 -1.03491 -1.64327 0
M  V30 78229 C 7449.85 -2.18929 -2.69606 0
M  V30 78230 C 7448.8 -3.3474 -2.66708 0
M  V30 78231 C 7448.13 -3.47738 -4.06181 0
M  V30 78232 C 7449.43 -4.71037 -2.25659 0
M  V30 78233 H 7451.12 -2.8086 -1.03721 0
M  V30 78234 H 7448.67 -1.35133 -0.497508 0
M  V30 78235 H 7450.62 -2.42798 -3.44423 0
M  V30 78236 H 7449.35 -1.26291 -3.01194 0
M  V30 78237 H 7448.01 -3.10844 -1.94348 0
M  V30 78238 H 7447.65 -2.5256 -4.34997 0
M  V30 78239 H 7447.35 -4.25605 -4.05135 0
M  V30 78240 H 7448.88 -3.73903 -4.82731 0
M  V30 78241 H 7450.29 -4.94426 -2.90199 0
M  V30 78242 H 7448.69 -5.51846 -2.35768 0
M  V30 78243 H 7449.76 -4.69613 -1.20794 0
M  V30 78244 N 7451.1 0.534045 -1.48276 0
M  V30 78245 C 7452.07 1.62119 -1.62019 0
M  V30 78246 C 7453.07 1.53032 -0.493734 0
M  V30 78247 O 7454.26 1.56775 -0.759419 0
M  V30 78248 C 7451.39 3.0173 -1.58656 0
M  V30 78249 H 7452.58 1.51275 -2.58952 0
M  V30 78250 H 7450.13 0.755789 -1.36812 0
M  V30 78251 H 7450.87 3.18085 -0.631853 0
M  V30 78252 H 7450.65 3.09734 -2.40431 0
M  V30 78253 H 7452.14 3.80778 -1.71458 0
M  V30 78254 N 7452.58 1.36796 0.782604 0
M  V30 78255 C 7453.51 1.34366 1.90966 0
M  V30 78256 C 7454.49 0.214006 1.68748 0
M  V30 78257 O 7455.68 0.412701 1.89764 0
M  V30 78258 C 7452.81 1.13902 3.28091 0
M  V30 78259 C 7451.76 2.23764 3.64848 0
M  V30 78260 C 7451.09 1.88434 5.00396 0
M  V30 78261 C 7452.39 3.65889 3.72723 0
M  V30 78262 H 7454.08 2.28675 1.93256 0
M  V30 78263 H 7451.63 1.10077 0.928389 0
M  V30 78264 H 7453.58 1.10835 4.06563 0
M  V30 78265 H 7452.3 0.160447 3.26206 0
M  V30 78266 H 7450.96 2.25968 2.88677 0
M  V30 78267 H 7450.61 0.891344 4.95039 0
M  V30 78268 H 7450.31 2.61993 5.25959 0
M  V30 78269 H 7451.83 1.86935 5.81281 0
M  V30 78270 H 7453.25 3.65875 4.41371 0
M  V30 78271 H 7451.65 4.38411 4.09775 0
M  V30 78272 H 7452.72 4.00301 2.73655 0
M  V30 78273 N 7454.06 -1.00754 1.21187 0
M  V30 78274 C 7455.01 -2.07885 0.936357 0
M  V30 78275 C 7455.99 -1.60541 -0.107397 0
M  V30 78276 O 7457.18 -1.7671 0.101194 0
M  V30 78277 C 7454.31 -3.39637 0.500128 0
M  V30 78278 C 7453.4 -3.93657 1.57781 0
M  V30 78279 N 7453.79 -4.21075 2.80231 0
M  V30 78280 C 7452.09 -4.21906 1.44609 0
M  V30 78281 C 7452.79 -4.64765 3.49811 0
M  V30 78282 N 7451.77 -4.67586 2.77244 0
M  V30 78283 H 7455.57 -2.27005 1.86671 0
M  V30 78284 H 7453.08 -1.18804 1.10722 0
M  V30 78285 H 7455.08 -4.15931 0.284117 0
M  V30 78286 H 7453.74 -3.21926 -0.423489 0
M  V30 78287 H 7454.75 -4.09707 3.16797 0
M  V30 78288 H 7451.43 -4.13345 0.587564 0
M  V30 78289 H 7452.82 -4.94723 4.54641 0
M  V30 78290 N 7455.54 -1.01921 -1.20208 0
M  V30 78291 C 7456.79 -0.70536 -1.88964 0
M  V30 78292 C 7457.1 0.768437 -1.79873 0
M  V30 78293 O 7458.3 1.19495 -2.43789 0
M  V30 78294 C 7456.76 -1.21127 -3.38904 0
M  V30 78295 C 7456.37 -2.71216 -3.56575 0
M  V30 78296 C 7458.11 -0.972968 -4.13199 0
M  V30 78297 C 7456.02 -3.15275 -5.00356 0
M  V30 78298 H 7454.95 -0.260144 -0.707701 0
M  V30 78299 H 7457.6 -1.23224 -1.35971 0
M  V30 78300 H 7455.98 -0.612359 -3.91237 0
M  V30 78301 H 7457.16 -3.36679 -3.14617 0
M  V30 78302 H 7455.47 -2.93218 -2.95655 0
M  V30 78303 H 7458.07 -1.27753 -5.19214 0
M  V30 78304 H 7458.41 0.0905005 -4.16202 0
M  V30 78305 H 7458.94 -1.53539 -3.66975 0
M  V30 78306 H 7455.68 -4.20909 -5.0251 0
M  V30 78307 H 7455.2 -2.54533 -5.43114 0
M  V30 78308 H 7456.88 -3.08062 -5.68952 0
M  V30 78309 N 7457.01 1.36033 -0.795789 0
M  V30 78310 C 7457.94 2.32527 -0.212925 0
M  V30 78311 C 7458.93 1.56957 0.655633 0
M  V30 78312 O 7460.11 1.8508 0.58814 0
M  V30 78313 C 7457.24 3.41201 0.648009 0
M  V30 78314 C 7456.19 4.27828 -0.121174 0
M  V30 78315 C 7455.52 5.27726 0.860766 0
M  V30 78316 C 7456.82 5.05501 -1.31402 0
M  V30 78317 H 7458.51 2.81523 -1.01908 0
M  V30 78318 H 7456.06 1.35353 -0.491493 0
M  V30 78319 H 7458.01 4.077 1.06575 0
M  V30 78320 H 7456.74 2.90788 1.48694 0
M  V30 78321 H 7455.4 3.62894 -0.519969 0
M  V30 78322 H 7455.04 4.73584 1.6949 0
M  V30 78323 H 7454.74 5.86554 0.350499 0
M  V30 78324 H 7456.27 5.97098 1.27694 0
M  V30 78325 H 7457.68 5.65005 -0.971704 0
M  V30 78326 H 7456.08 5.73771 -1.75802 0
M  V30 78327 H 7457.15 4.36771 -2.10616 0
M  V30 78328 N 7458.49 0.548352 1.47753 0
M  V30 78329 C 7459.9 0.112645 1.8636 0
M  V30 78330 C 7460.25 -1.31515 1.45596 0
M  V30 78331 O 7459.38 -1.98794 0.854979 0
M  V30 78332 C 7459.97 0.197651 3.38223 0
M  V30 78333 C 7458.53 -0.182965 3.75955 0
M  V30 78334 C 7457.68 0.549202 2.71807 0
M  V30 78335 H 7460.63 0.75858 1.39396 0
M  V30 78336 H 7460.65 -0.586019 3.7596 0
M  V30 78337 H 7460.16 1.23693 3.67861 0
M  V30 78338 H 7458.27 -1.22369 3.51933 0
M  V30 78339 H 7458.38 0.16943 4.788 0
M  V30 78340 H 7456.74 -0.00669431 2.54699 0
M  V30 78341 H 7457.53 1.58946 3.04288 0
M  V30 78342 N 7459.97 -1.55013 0.284365 0
M  V30 78343 C 7461.38 -1.85497 -0.211583 0
M  V30 78344 C 7461.73 -1.20638 -1.54729 0
M  V30 78345 O 7460.86 -0.498029 -2.10591 0
M  V30 78346 C 7461.45 -3.3654 -0.390687 0
M  V30 78347 C 7460.01 -3.67115 -0.830861 0
M  V30 78348 C 7459.16 -2.7721 0.0705043 0
M  V30 78349 H 7462.11 -1.50421 0.505883 0
M  V30 78350 H 7462.13 -3.60145 -1.22784 0
M  V30 78351 H 7461.64 -3.83717 0.581612 0
M  V30 78352 H 7459.74 -3.25444 -1.8143 0
M  V30 78353 H 7459.86 -4.74507 -0.661776 0
M  V30 78354 H 7458.22 -2.5074 -0.447396 0
M  V30 78355 H 7459 -3.27204 1.03885 0
M  V30 78356 N 7461.45 -0.0117952 -1.57596 0
M  V30 78357 C 7462.36 0.991852 -2.12602 0
M  V30 78358 C 7463.37 1.36893 -1.07407 0
M  V30 78359 O 7464.55 1.45387 -1.39372 0
M  V30 78360 C 7461.62 2.26126 -2.62807 0
M  V30 78361 C 7460.68 1.94621 -3.8265 0
M  V30 78362 C 7459.91 3.1551 -4.30452 0
M  V30 78363 O 7460.13 4.27594 -3.77518 0
M  V30 78364 O 7459.07 2.98819 -5.22485 0
M  V30 78365 H 7462.89 0.554214 -2.986 0
M  V30 78366 H 7460.48 0.207761 -1.47948 0
M  V30 78367 H 7462.36 3.00679 -2.95246 0
M  V30 78368 H 7461.03 2.69105 -1.79901 0
M  V30 78369 H 7459.94 1.17507 -3.55166 0
M  V30 78370 H 7461.27 1.56471 -4.66666 0
M  V30 78371 N 7462.93 1.55422 0.26113 0
M  V30 78372 C 7463.86 1.85542 1.34561 0
M  V30 78373 C 7464.87 0.740689 1.44975 0
M  V30 78374 O 7466.06 1.01867 1.46579 0
M  V30 78375 C 7463.16 2.01392 2.7257 0
M  V30 78376 C 7462.33 3.32146 2.84601 0
M  V30 78377 C 7461.39 3.37914 4.03361 0
M  V30 78378 O 7460.42 4.11218 3.93559 0
M  V30 78379 N 7461.62 2.66175 5.15879 0
M  V30 78380 H 7464.39 2.79151 1.09063 0
M  V30 78381 H 7461.95 1.55484 0.451245 0
M  V30 78382 H 7463.94 2.02609 3.50331 0
M  V30 78383 H 7462.51 1.14595 2.90838 0
M  V30 78384 H 7461.73 3.43368 1.93628 0
M  V30 78385 H 7463.02 4.18356 2.89578 0
M  V30 78386 H 7462.41 2.06325 5.26732 0
M  V30 78387 H 7460.97 2.731 5.91827 0
M  V30 78388 N 7464.41 -0.526174 1.48557 0
M  V30 78389 C 7465.65 -1.28118 1.57979 0
M  V30 78390 C 7466.01 -1.90742 0.252074 0
M  V30 78391 O 7465.3 -1.76505 -0.745431 0
M  V30 78392 C 7465.49 -2.38979 2.65752 0
M  V30 78393 C 7465.32 -1.87223 4.08874 0
M  V30 78394 C 7464.09 -1.69655 4.75968 0
M  V30 78395 C 7466.29 -1.39856 4.94919 0
M  V30 78396 N 7464.27 -1.12565 6.03492 0
M  V30 78397 C 7465.64 -0.947373 6.12719 0
M  V30 78398 C 7467.7 -1.28194 4.81114 0
M  V30 78399 C 7466.4 -0.391128 7.18236 0
M  V30 78400 C 7468.43 -0.739691 5.86756 0
M  V30 78401 C 7467.79 -0.298597 7.03767 0
M  V30 78402 H 7463.89 -0.459702 0.632612 0
M  V30 78403 H 7466.47 -0.592842 1.85455 0
M  V30 78404 H 7464.64 -3.05304 2.40091 0
M  V30 78405 H 7466.38 -3.06012 2.64837 0
M  V30 78406 H 7463.13 -1.9329 4.32361 0
M  V30 78407 H 7463.55 -0.860187 6.71513 0
M  V30 78408 H 7468.2 -1.60901 3.90987 0
M  V30 78409 H 7465.91 -0.0517424 8.08083 0
M  V30 78410 H 7469.5 -0.652584 5.78129 0
M  V30 78411 H 7468.38 0.114466 7.84116 0
M  V30 78412 N 7465.88 -1.37209 -0.775339 0
M  V30 78413 C 7467.3 -1.1793 -1.07539 0
M  V30 78414 C 7467.5 -0.0129959 -2.01496 0
M  V30 78415 O 7466.56 0.648031 -2.44043 0
M  V30 78416 C 7467.87 -2.49638 -1.67634 0
M  V30 78417 C 7469.42 -2.56128 -1.79909 0
M  V30 78418 C 7469.89 -3.87958 -2.43418 0
M  V30 78419 N 7471.38 -3.89381 -2.50872 0
M  V30 78420 C 7472.12 -4.88133 -3.00855 0
M  V30 78421 N 7471.61 -5.97281 -3.51038 0
M  V30 78422 N 7473.41 -4.7554 -2.99697 0
M  V30 78423 H 7465.56 -2.1186 -0.151412 0
M  V30 78424 H 7467.82 -0.939072 -0.129796 0
M  V30 78425 H 7467.53 -3.35325 -1.06065 0
M  V30 78426 H 7467.4 -2.66468 -2.66974 0
M  V30 78427 H 7469.79 -1.7085 -2.40612 0
M  V30 78428 H 7469.87 -2.43186 -0.793354 0
M  V30 78429 H 7469.51 -4.73649 -1.83355 0
M  V30 78430 H 7469.44 -3.98202 -3.4459 0
M  V30 78431 H 7471.93 -3.10534 -2.15354 0
M  V30 78432 H 7472.25 -6.68588 -3.87569 0
M  V30 78433 H 7470.59 -6.0093 -3.49153 0
M  V30 78434 H 7473.78 -3.89393 -2.59789 0
M  V30 78435 H 7473.96 -5.52657 -3.3834 0
M  V30 78436 N 7467.36 1.0011 -1.2172 0
M  V30 78437 C 7468.32 2.07124 -0.981447 0
M  V30 78438 C 7469.32 1.60725 0.0490268 0
M  V30 78439 O 7470.51 1.73176 -0.188647 0
M  V30 78440 C 7467.65 3.37493 -0.480786 0
M  V30 78441 H 7468.84 2.29472 -1.93088 0
M  V30 78442 H 7466.39 1.17145 -1.03473 0
M  V30 78443 H 7467.13 3.20826 0.473383 0
M  V30 78444 H 7466.91 3.72502 -1.22413 0
M  V30 78445 H 7468.4 4.16247 -0.33583 0
M  V30 78446 N 7468.84 1.02557 1.19665 0
M  V30 78447 C 7470.07 0.739615 1.93229 0
M  V30 78448 C 7470.48 -0.701065 1.75301 0
M  V30 78449 O 7469.84 -1.47641 1.07277 0
M  V30 78450 C 7469.89 1.07715 3.45079 0
M  V30 78451 O 7469.61 2.46125 3.62428 0
M  V30 78452 C 7471.11 0.813528 4.35771 0
M  V30 78453 H 7468.33 0.270886 0.613891 0
M  V30 78454 H 7470.88 1.36917 1.51901 0
M  V30 78455 H 7469.03 0.492837 3.84252 0
M  V30 78456 H 7469.45 2.58591 4.56323 0
M  V30 78457 H 7470.92 1.0997 5.40935 0
M  V30 78458 H 7471.4 -0.252128 4.38476 0
M  V30 78459 H 7472 1.38042 4.02274 0
M  V30 78460 N 7470.32 -1.35609 0.802992 0
M  V30 78461 C 7471.73 -1.52011 0.486294 0
M  V30 78462 C 7471.93 -1.75326 -0.993126 0
M  V30 78463 O 7470.99 -1.7926 -1.77826 0
M  V30 78464 C 7472.3 -2.6976 1.32853 0
M  V30 78465 C 7473.85 -2.83636 1.32361 0
M  V30 78466 C 7474.33 -4.04406 2.14988 0
M  V30 78467 N 7475.82 -4.11577 2.12506 0
M  V30 78468 C 7476.55 -5.04133 2.732 0
M  V30 78469 N 7476.05 -6.02043 3.42806 0
M  V30 78470 N 7477.84 -4.96851 2.6286 0
M  V30 78471 H 7469.99 -1.18731 1.76115 0
M  V30 78472 H 7472.25 -0.580619 0.74939 0
M  V30 78473 H 7471.96 -2.59098 2.37826 0
M  V30 78474 H 7471.83 -3.64267 0.97925 0
M  V30 78475 H 7474.22 -2.93752 0.281741 0
M  V30 78476 H 7474.3 -1.89997 1.71274 0
M  V30 78477 H 7473.95 -3.95051 3.19213 0
M  V30 78478 H 7473.88 -4.97219 1.73437 0
M  V30 78479 H 7476.37 -3.41483 1.61857 0
M  V30 78480 H 7476.68 -6.69257 3.86413 0
M  V30 78481 H 7475.03 -6.02228 3.4691 0
M  V30 78482 H 7478.22 -4.19314 2.08072 0
M  V30 78483 H 7478.39 -5.68792 3.10451 0
M  V30 78484 N 7471.8 -0.55618 -1.4746 0
M  V30 78485 C 7473.04 -0.0317875 -2.02775 0
M  V30 78486 C 7473.37 1.31423 -1.42974 0
M  V30 78487 O 7472.65 1.85496 -0.584944 0
M  V30 78488 C 7472.93 0.0623844 -3.60046 0
M  V30 78489 C 7472.79 -1.31065 -4.30281 0
M  V30 78490 C 7474.1 0.776324 -4.33199 0
M  V30 78491 H 7471.22 -0.0130258 -0.736885 0
M  V30 78492 H 7473.87 -0.71827 -1.759 0
M  V30 78493 H 7472.02 0.647029 -3.83074 0
M  V30 78494 H 7473.69 -1.93842 -4.18596 0
M  V30 78495 H 7471.93 -1.88561 -3.90675 0
M  V30 78496 H 7472.6 -1.19749 -5.38855 0
M  V30 78497 H 7475.08 0.279928 -4.15157 0
M  V30 78498 H 7473.95 0.811174 -5.42873 0
M  V30 78499 H 7474.21 1.83223 -4.02345 0
M  V30 78500 N 7473.27 1.5486 -0.292581 0
M  V30 78501 C 7474.18 2.26879 0.596917 0
M  V30 78502 C 7475.2 1.30092 1.15551 0
M  V30 78503 O 7476.38 1.6306 1.18209 0
M  V30 78504 C 7473.44 2.98913 1.75648 0
M  V30 78505 C 7472.5 4.11218 1.23281 0
M  V30 78506 C 7471.73 4.79807 2.33711 0
M  V30 78507 O 7471.96 4.47704 3.53436 0
M  V30 78508 O 7470.89 5.6739 2.00878 0
M  V30 78509 H 7474.72 3.03697 0.0129641 0
M  V30 78510 H 7472.3 1.49282 -0.0593429 0
M  V30 78511 H 7474.18 3.44123 2.43223 0
M  V30 78512 H 7472.86 2.24997 2.32719 0
M  V30 78513 H 7471.77 3.70426 0.523026 0
M  V30 78514 H 7473.1 4.87087 0.70763 0
M  V30 78515 N 7474.75 0.0201527 1.57587 0
M  V30 78516 C 7476 -0.659721 1.90606 0
M  V30 78517 C 7476.31 -1.73804 0.897308 0
M  V30 78518 O 7477.52 -2.47394 1.11842 0
M  V30 78519 C 7475.98 -1.22466 3.38423 0
M  V30 78520 C 7475.58 -0.180103 4.47638 0
M  V30 78521 C 7477.33 -1.88156 3.80523 0
M  V30 78522 C 7475.23 -0.756172 5.86546 0
M  V30 78523 H 7474.16 -0.250178 0.711285 0
M  V30 78524 H 7476.82 0.0839909 1.83308 0
M  V30 78525 H 7475.2 -2.01969 3.40623 0
M  V30 78526 H 7476.37 0.591814 4.56984 0
M  V30 78527 H 7474.69 0.37752 4.14685 0
M  V30 78528 H 7477.28 -2.32197 4.81652 0
M  V30 78529 H 7477.63 -2.72056 3.15105 0
M  V30 78530 H 7478.16 -1.15357 3.80707 0
M  V30 78531 H 7474.9 0.0444924 6.55485 0
M  V30 78532 H 7474.42 -1.49678 5.80824 0
M  V30 78533 H 7476.1 -1.24867 6.34836 0
M  V30 78534 N 7476.23 -1.55558 -0.252884 0
M  V30 78535 C 7477.16 -1.92827 -1.31681 0
M  V30 78536 C 7478.14 -0.792479 -1.50512 0
M  V30 78537 O 7479.33 -1.05228 -1.6322 0
M  V30 78538 C 7476.46 -2.21776 -2.67269 0
M  V30 78539 C 7475.41 -3.3755 -2.63142 0
M  V30 78540 C 7474.74 -3.52026 -4.0247 0
M  V30 78541 C 7476.04 -4.73403 -2.2065 0
M  V30 78542 H 7477.73 -2.81944 -1.00736 0
M  V30 78543 H 7475.28 -1.35653 -0.483147 0
M  V30 78544 H 7477.23 -2.46437 -3.41829 0
M  V30 78545 H 7475.95 -1.29479 -2.99838 0
M  V30 78546 H 7474.61 -3.12888 -1.91041 0
M  V30 78547 H 7474.26 -2.57159 -4.32294 0
M  V30 78548 H 7473.96 -4.29878 -4.00598 0
M  V30 78549 H 7475.48 -3.79002 -4.78738 0
M  V30 78550 H 7476.9 -4.97476 -2.84939 0
M  V30 78551 H 7475.29 -5.54315 -2.29902 0
M  V30 78552 H 7476.36 -4.70868 -1.15806 0
M  V30 78553 N 7477.71 0.518289 -1.48834 0
M  V30 78554 C 7479.12 0.847908 -1.35213 0
M  V30 78555 C 7479.32 1.98036 -0.372032 0
M  V30 78556 O 7478.38 2.51686 0.202548 0
M  V30 78557 C 7479.69 1.20441 -2.75526 0
M  V30 78558 C 7481.24 1.31362 -2.841 0
M  V30 78559 C 7481.72 1.70349 -4.25141 0
M  V30 78560 N 7483.21 1.7743 -4.2787 0
M  V30 78561 C 7483.94 2.09006 -5.33951 0
M  V30 78562 N 7483.44 2.38926 -6.50297 0
M  V30 78563 N 7485.23 2.10111 -5.21354 0
M  V30 78564 H 7477.38 -0.228736 -2.11165 0
M  V30 78565 H 7479.64 -0.0397098 -0.947168 0
M  V30 78566 H 7479.35 0.445807 -3.48863 0
M  V30 78567 H 7479.22 2.15188 -3.09797 0
M  V30 78568 H 7481.61 2.06296 -2.11011 0
M  V30 78569 H 7481.69 0.347069 -2.53435 0
M  V30 78570 H 7481.34 0.959712 -4.9875 0
M  V30 78571 H 7481.27 2.68074 -4.53259 0
M  V30 78572 H 7483.76 1.56539 -3.43954 0
M  V30 78573 H 7484.07 2.62158 -7.26975 0
M  V30 78574 H 7482.42 2.3642 -6.53552 0
M  V30 78575 H 7485.61 1.86202 -4.29472 0
M  V30 78576 H 7485.78 2.34387 -6.04125 0
M  V30 78577 N 7479.19 1.37618 0.768051 0
M  V30 78578 C 7480.6 1.18499 1.06912 0
M  V30 78579 C 7480.8 0.0236816 2.01486 0
M  V30 78580 O 7479.86 -0.63508 2.44383 0
M  V30 78581 C 7481.17 2.50524 1.66308 0
M  V30 78582 C 7482.72 2.57079 1.78548 0
M  V30 78583 C 7483.19 3.89244 2.41357 0
M  V30 78584 N 7484.69 3.90706 2.48803 0
M  V30 78585 C 7485.42 4.89722 2.98262 0
M  V30 78586 N 7484.92 5.99134 3.47866 0
M  V30 78587 N 7486.71 4.77123 2.9717 0
M  V30 78588 H 7478.86 2.11937 0.140174 0
M  V30 78589 H 7481.12 0.939748 0.124814 0
M  V30 78590 H 7480.83 3.35883 1.04285 0
M  V30 78591 H 7480.7 2.6788 2.65557 0
M  V30 78592 H 7483.09 1.72124 2.39703 0
M  V30 78593 H 7483.17 2.43604 0.780446 0
M  V30 78594 H 7482.82 4.74615 1.80841 0
M  V30 78595 H 7482.75 4.00024 3.42474 0
M  V30 78596 H 7485.24 3.11672 2.13704 0
M  V30 78597 H 7485.55 6.70634 3.84018 0
M  V30 78598 H 7483.89 6.02774 3.45961 0
M  V30 78599 H 7487.09 3.90766 2.5772 0
M  V30 78600 H 7487.26 5.54444 3.35405 0
M  V30 78601 N 7480.66 -0.994634 1.22249 0
M  V30 78602 C 7481.59 -2.10274 1.01524 0
M  V30 78603 C 7482.58 -1.69982 -0.0632469 0
M  V30 78604 O 7483.76 -1.93949 0.0986291 0
M  V30 78605 C 7480.89 -3.42246 0.59034 0
M  V30 78606 C 7479.84 -3.96378 1.61457 0
M  V30 78607 C 7479.17 -5.24378 1.04556 0
M  V30 78608 C 7480.47 -4.2726 3.0041 0
M  V30 78609 H 7482.16 -2.27869 1.94206 0
M  V30 78610 H 7479.71 -1.09503 0.935151 0
M  V30 78611 H 7481.66 -4.19175 0.432475 0
M  V30 78612 H 7480.39 -3.24473 -0.372137 0
M  V30 78613 H 7479.05 -3.21579 1.76018 0
M  V30 78614 H 7478.69 -5.02945 0.0744878 0
M  V30 78615 H 7478.39 -5.61562 1.72979 0
M  V30 78616 H 7479.92 -6.03942 0.89924 0
M  V30 78617 H 7481.33 -4.94992 2.89233 0
M  V30 78618 H 7479.73 -4.75612 3.65941 0
M  V30 78619 H 7480.8 -3.35106 3.50474 0
M  V30 78620 N 7482.14 -1.0319 -1.1912 0
M  V30 78621 C 7483.07 -0.636007 -2.24671 0
M  V30 78622 C 7484.05 0.356477 -1.66323 0
M  V30 78623 O 7485.24 0.238523 -1.9273 0
M  V30 78624 C 7482.37 0.0108859 -3.47298 0
M  V30 78625 C 7481.32 -0.9042 -4.1834 0
M  V30 78626 C 7480.65 -0.122252 -5.3456 0
M  V30 78627 C 7481.95 -2.21932 -4.72804 0
M  V30 78628 H 7483.64 -1.51838 -2.58042 0
M  V30 78629 H 7481.19 -0.731525 -1.24035 0
M  V30 78630 H 7483.14 0.299508 -4.20334 0
M  V30 78631 H 7481.87 0.92808 -3.13136 0
M  V30 78632 H 7480.52 -1.17707 -3.4719 0
M  V30 78633 H 7480.17 0.797072 -4.96645 0
M  V30 78634 H 7479.87 -0.731805 -5.83025 0
M  V30 78635 H 7481.4 0.159559 -6.10391 0
M  V30 78636 H 7482.81 -1.99201 -5.3758 0
M  V30 78637 H 7481.21 -2.78106 -5.31768 0
M  V30 78638 H 7482.28 -2.87189 -3.90705 0
M  V30 78639 N 7483.62 1.35181 -0.810173 0
M  V30 78640 C 7484.87 1.9896 -0.392803 0
M  V30 78641 C 7485.2 1.64115 1.03826 0
M  V30 78642 O 7484.47 0.90629 1.72095 0
M  V30 78643 C 7484.76 3.5539 -0.580536 0
M  V30 78644 C 7484.61 4.0002 -2.0568 0
M  V30 78645 C 7485.93 4.40099 -0.00845825 0
M  V30 78646 H 7483.05 0.722756 -0.144195 0
M  V30 78647 H 7485.69 1.60276 -1.02037 0
M  V30 78648 H 7483.84 3.88472 -0.0463155 0
M  V30 78649 H 7485.51 3.7733 -2.65367 0
M  V30 78650 H 7483.76 3.50798 -2.55193 0
M  V30 78651 H 7484.43 5.08871 -2.13902 0
M  V30 78652 H 7486.9 4.13497 -0.464735 0
M  V30 78653 H 7485.78 5.48638 -0.169703 0
M  V30 78654 H 7486.04 4.28566 1.08554 0
M  V30 78655 N 7485.1 0.563992 1.47163 0
M  V30 78656 C 7486.33 0.0475378 2.06845 0
M  V30 78657 C 7486.74 -1.2492 1.41564 0
M  V30 78658 O 7486.1 -1.75098 0.514469 0
M  V30 78659 C 7486.15 -0.14464 3.61211 0
M  V30 78660 O 7485.87 1.10075 4.24046 0
M  V30 78661 C 7487.37 -0.697599 4.37777 0
M  V30 78662 H 7484.59 0.0489249 0.669214 0
M  V30 78663 H 7487.14 0.779335 1.89068 0
M  V30 78664 H 7485.29 -0.82659 3.78479 0
M  V30 78665 H 7485.7 0.902753 5.16673 0
M  V30 78666 H 7487.18 -0.781327 5.46442 0
M  V30 78667 H 7487.66 -1.71041 4.04526 0
M  V30 78668 H 7488.26 -0.0511274 4.25269 0
M  V30 78669 N 7486.58 -1.54703 0.30079 0
M  V30 78670 C 7487.8 -2.0501 -0.313965 0
M  V30 78671 C 7488.23 -1.17665 -1.46753 0
M  V30 78672 O 7487.58 -0.180693 -1.80397 0
M  V30 78673 C 7487.63 -3.52756 -0.748057 0
M  V30 78674 O 7486.74 -3.68433 -1.85285 0
M  V30 78675 H 7486.08 -0.661194 -0.060979 0
M  V30 78676 H 7488.61 -1.99756 0.442573 0
M  V30 78677 H 7488.62 -3.94604 -1.03692 0
M  V30 78678 H 7487.29 -4.1579 0.0957922 0
M  V30 78679 H 7485.87 -3.38491 -1.56456 0
M  V30 78680 N 7488.05 -0.0285097 -1.57574 0
M  V30 78681 C 7488.99 0.982282 -2.07084 0
M  V30 78682 C 7490 1.28921 -0.994146 0
M  V30 78683 O 7491.19 1.25397 -1.27035 0
M  V30 78684 C 7488.29 2.30985 -2.4799 0
M  V30 78685 C 7487.46 2.18818 -3.78732 0
M  V30 78686 C 7486.52 3.34503 -4.06195 0
M  V30 78687 O 7485.55 3.11416 -4.76455 0
M  V30 78688 N 7486.75 4.58275 -3.56321 0
M  V30 78689 H 7489.51 0.559855 -2.94424 0
M  V30 78690 H 7487.07 0.158262 -1.61125 0
M  V30 78691 H 7489.07 3.07202 -2.63455 0
M  V30 78692 H 7487.64 2.64871 -1.66019 0
M  V30 78693 H 7486.86 1.27331 -3.73069 0
M  V30 78694 H 7488.14 2.07891 -4.64391 0
M  V30 78695 H 7487.54 4.79926 -2.99479 0
M  V30 78696 H 7486.1 5.31662 -3.77066 0
M  V30 78697 N 7489.53 1.5569 0.244631 0
M  V30 78698 C 7490.5 1.89702 1.2863 0
M  V30 78699 C 7491.5 0.773657 1.40965 0
M  V30 78700 O 7492.69 1.04163 1.39627 0
M  V30 78701 C 7489.82 2.12746 2.66368 0
M  V30 78702 H 7491.01 2.82847 0.996884 0
M  V30 78703 H 7488.56 1.48617 0.484024 0
M  V30 78704 H 7489.3 1.22077 3.00446 0
M  V30 78705 H 7489.08 2.94562 2.58796 0
M  V30 78706 H 7490.57 2.40236 3.41579 0
M  V30 78707 N 7491.01 -0.510388 1.49107 0
M  V30 78708 C 7492.43 -0.840725 1.35661 0
M  V30 78709 C 7492.63 -1.97836 0.382529 0
M  V30 78710 O 7491.68 -2.5179 -0.189198 0
M  V30 78711 C 7493 -1.18978 2.76161 0
M  V30 78712 C 7494.54 -1.29853 2.84793 0
M  V30 78713 C 7495.02 -1.68092 4.26039 0
M  V30 78714 N 7496.51 -1.75159 4.28805 0
M  V30 78715 C 7497.24 -2.06172 5.35052 0
M  V30 78716 N 7496.74 -2.35474 6.51555 0
M  V30 78717 N 7498.53 -2.07344 5.22461 0
M  V30 78718 H 7490.68 0.239931 2.1104 0
M  V30 78719 H 7492.95 0.0447323 0.946944 0
M  V30 78720 H 7492.65 -0.4273 3.49095 0
M  V30 78721 H 7492.53 -2.13542 3.10933 0
M  V30 78722 H 7494.91 -2.05174 2.12103 0
M  V30 78723 H 7495 -0.333624 2.53615 0
M  V30 78724 H 7494.64 -0.933248 4.99252 0
M  V30 78725 H 7494.57 -2.65667 4.54674 0
M  V30 78726 H 7497.06 -1.54712 3.44779 0
M  V30 78727 H 7497.37 -2.58299 7.28355 0
M  V30 78728 H 7495.72 -2.3295 6.54797 0
M  V30 78729 H 7498.91 -1.83922 4.30453 0
M  V30 78730 H 7499.08 -2.3118 6.05359 0
M  V30 78731 N 7492.49 -1.38023 -0.760742 0
M  V30 78732 C 7493.45 -1.34486 -1.85597 0
M  V30 78733 C 7494.45 -0.246744 -1.58896 0
M  V30 78734 O 7495.64 -0.503228 -1.66773 0
M  V30 78735 C 7492.77 -1.09194 -3.22939 0
M  V30 78736 H 7493.97 -2.31918 -1.90142 0
M  V30 78737 H 7491.52 -1.23213 -0.961681 0
M  V30 78738 H 7492.25 -0.123386 -3.24065 0
M  V30 78739 H 7492.04 -1.8869 -3.43713 0
M  V30 78740 H 7493.53 -1.09396 -4.03016 0
M  V30 78741 N 7493.97 0.988137 -1.22775 0
M  V30 78742 C 7495.21 1.73092 -1.05674 0
M  V30 78743 C 7495.55 1.89898 0.406515 0
M  V30 78744 O 7494.82 1.44561 1.30124 0
M  V30 78745 C 7495.1 3.13372 -1.77397 0
M  V30 78746 C 7494.96 3.04185 -3.31348 0
M  V30 78747 C 7496.28 4.12641 -1.53021 0
M  V30 78748 H 7493.4 0.628267 -0.385291 0
M  V30 78749 H 7496.04 1.15089 -1.51177 0
M  V30 78750 H 7494.19 3.62891 -1.38716 0
M  V30 78751 H 7495.86 2.6225 -3.79503 0
M  V30 78752 H 7494.1 2.40875 -3.60779 0
M  V30 78753 H 7494.77 4.03473 -3.76714 0
M  V30 78754 H 7497.25 3.71898 -1.86631 0
M  V30 78755 H 7496.13 5.08902 -2.05693 0
M  V30 78756 H 7496.39 4.3966 -0.463847 0
M  V30 78757 N 7495.45 1.03821 1.18571 0
M  V30 78758 C 7496.41 0.631576 2.20326 0
M  V30 78759 C 7497.41 -0.309733 1.57789 0
M  V30 78760 O 7498.6 -0.095468 1.73938 0
M  V30 78761 C 7495.73 -0.0744165 3.40819 0
M  V30 78762 H 7496.92 1.53203 2.57816 0
M  V30 78763 H 7494.48 0.830468 1.32412 0
M  V30 78764 H 7495.21 -0.988784 3.08858 0
M  V30 78765 H 7495 0.602104 3.87449 0
M  V30 78766 H 7496.49 -0.345508 4.16168 0
M  V30 78767 N 7496.92 -1.3475 0.81733 0
M  V30 78768 C 7498.33 -1.80886 0.46231 0
M  V30 78769 C 7498.69 -1.67799 -1.01676 0
M  V30 78770 O 7497.81 -1.21477 -1.79087 0
M  V30 78771 C 7498.41 -3.28416 0.832377 0
M  V30 78772 C 7496.96 -3.72653 0.529806 0
M  V30 78773 C 7496.11 -2.56559 1.05227 0
M  V30 78774 H 7499.06 -1.22576 1.00801 0
M  V30 78775 H 7499.08 -3.80264 0.134004 0
M  V30 78776 H 7498.6 -3.37909 1.90891 0
M  V30 78777 H 7496.7 -3.68702 -0.537549 0
M  V30 78778 H 7496.81 -4.67 1.06995 0
M  V30 78779 H 7495.17 -2.50249 0.474081 0
M  V30 78780 H 7495.96 -2.68825 2.13514 0
M  V30 78781 N 7498.4 -0.571788 -1.46862 0
M  V30 78782 C 7499.65 -0.0531088 -2.0203 0
M  V30 78783 C 7499.97 1.30724 -1.44694 0
M  V30 78784 O 7499.24 1.85577 -0.627526 0
M  V30 78785 H 7497.82 -0.0166429 -0.746815 0
M  V30 78786 H 7500.48 -0.745098 -1.80095 0
M  V30 78787 H 7499.58 0.0240892 -3.12091 0
M  V30 78788 N 7499.88 1.54541 -0.30899 0
M  V30 78789 C 7501.13 1.99901 0.297342 0
M  V30 78790 C 7501.45 1.19886 1.53793 0
M  V30 78791 O 7500.72 0.296882 1.93637 0
M  V30 78792 H 7499.3 0.738425 0.112858 0
M  V30 78793 H 7501.96 1.90273 -0.422167 0
M  V30 78794 H 7501.06 3.06964 0.563854 0
M  V30 78795 N 7501.36 0.0368658 1.57557 0
M  V30 78796 C 7502.32 -0.927478 2.09596 0
M  V30 78797 C 7503.32 -1.24913 1.01259 0
M  V30 78798 O 7504.51 -1.18819 1.27388 0
M  V30 78799 C 7501.64 -2.2417 2.56828 0
M  V30 78800 H 7502.84 -0.476628 2.96088 0
M  V30 78801 H 7500.39 -0.211303 1.54865 0
M  V30 78802 H 7501.12 -2.73867 1.73688 0
M  V30 78803 H 7500.91 -2.02133 3.35983 0
M  V30 78804 H 7502.4 -2.93275 2.97287 0
M  V30 78805 N 7502.84 -1.55817 -0.236371 0
M  V30 78806 C 7504.06 -1.82208 -0.980199 0
M  V30 78807 C 7504.48 -0.61402 -1.78536 0
M  V30 78808 O 7503.84 0.417397 -1.77663 0
M  V30 78809 C 7503.89 -3.06943 -1.90966 0
M  V30 78810 O 7503.61 -4.23087 -1.13706 0
M  V30 78811 C 7505.11 -3.46212 -2.76861 0
M  V30 78812 H 7502.33 -0.60607 -0.287958 0
M  V30 78813 H 7504.87 -2.0289 -0.256075 0
M  V30 78814 H 7503.03 -2.8828 -2.58792 0
M  V30 78815 H 7503.44 -4.93851 -1.76668 0
M  V30 78816 H 7504.92 -4.36566 -3.37808 0
M  V30 78817 H 7505.39 -2.6728 -3.48508 0
M  V30 78818 H 7506 -3.67263 -2.14471 0
M  V30 78819 N 7504.31 0.502474 -1.49375 0
M  V30 78820 C 7505.73 0.833519 -1.36105 0
M  V30 78821 C 7505.93 1.9763 -0.393015 0
M  V30 78822 O 7504.99 2.51887 0.175842 0
M  V30 78823 C 7506.3 1.17512 -2.76788 0
M  V30 78824 C 7507.85 1.28341 -2.85478 0
M  V30 78825 C 7508.32 1.6583 -4.26924 0
M  V30 78826 N 7509.81 1.72882 -4.29728 0
M  V30 78827 C 7510.55 2.03331 -5.36138 0
M  V30 78828 N 7510.04 2.32015 -6.52795 0
M  V30 78829 N 7511.84 2.0457 -5.23553 0
M  V30 78830 H 7503.99 -0.25112 -2.1091 0
M  V30 78831 H 7506.25 -0.0497536 -0.946693 0
M  V30 78832 H 7505.96 0.408781 -3.49316 0
M  V30 78833 H 7505.83 2.1189 -3.12062 0
M  V30 78834 H 7508.22 2.04047 -2.13188 0
M  V30 78835 H 7508.3 0.32017 -2.53788 0
M  V30 78836 H 7507.94 0.906759 -4.9974 0
M  V30 78837 H 7507.87 2.63252 -4.56077 0
M  V30 78838 H 7510.36 1.52882 -3.45595 0
M  V30 78839 H 7510.68 2.54433 -7.29715 0
M  V30 78840 H 7509.02 2.29474 -6.56023 0
M  V30 78841 H 7512.21 1.81637 -4.31423 0
M  V30 78842 H 7512.39 2.27966 -6.06577 0
M  V30 78843 N 7505.79 1.38425 0.753412 0
M  V30 78844 C 7506.72 1.38387 1.88073 0
M  V30 78845 C 7507.7 0.249752 1.68256 0
M  V30 78846 O 7508.89 0.45286 1.88846 0
M  V30 78847 C 7506.02 1.20835 3.25601 0
M  V30 78848 C 7504.97 2.31452 3.60019 0
M  V30 78849 C 7504.3 1.99006 4.96287 0
M  V30 78850 C 7505.6 3.73713 3.64878 0
M  V30 78851 H 7507.29 2.32723 1.88362 0
M  V30 78852 H 7504.84 1.12021 0.904831 0
M  V30 78853 H 7506.79 1.19434 4.04121 0
M  V30 78854 H 7505.51 0.229604 3.25792 0
M  V30 78855 H 7504.17 2.3204 2.83819 0
M  V30 78856 H 7503.82 0.996149 4.93037 0
M  V30 78857 H 7503.52 2.73091 5.20284 0
M  V30 78858 H 7505.05 1.99223 5.77185 0
M  V30 78859 H 7506.46 3.75155 4.33511 0
M  V30 78860 H 7504.86 4.47004 4.00384 0
M  V30 78861 H 7505.93 4.06016 2.65102 0
M  V30 78862 N 7507.27 -0.981612 1.23297 0
M  V30 78863 C 7508.5 -1.75799 1.09098 0
M  V30 78864 C 7508.91 -1.85382 -0.357649 0
M  V30 78865 O 7508.27 -1.33211 -1.24744 0
M  V30 78866 C 7508.32 -3.18551 1.70901 0
M  V30 78867 O 7508.04 -3.09468 3.10099 0
M  V30 78868 C 7509.54 -4.12589 1.62128 0
M  V30 78869 H 7506.76 -0.55174 0.381869 0
M  V30 78870 H 7509.31 -1.23334 1.63123 0
M  V30 78871 H 7507.46 -3.68047 1.20912 0
M  V30 78872 H 7507.88 -3.99324 3.4006 0
M  V30 78873 H 7509.35 -5.10463 2.10076 0
M  V30 78874 H 7509.83 -4.35355 0.579872 0
M  V30 78875 H 7510.43 -3.68996 2.11477 0
M  V30 78876 N 7508.75 -1.04448 -1.18019 0
M  V30 78877 C 7510.03 -0.664222 -1.83977 0
M  V30 78878 C 7510.41 0.856015 -1.92965 0
M  V30 78879 O 7509.75 1.75899 -1.45848 0
M  V30 78880 C 7509.96 -1.3445 -3.22062 0
M  V30 78881 C 7511.31 -1.47775 -3.98055 0
M  V30 78882 O 7512.34 -1.30291 -3.31516 0
M  V30 78883 O 7511.19 -1.76299 -5.17282 0
M  V30 78884 H 7508.29 -0.232892 -0.79353 0
M  V30 78885 H 7510.83 -1.1436 -1.25379 0
M  V30 78886 H 7509.61 -2.382 -3.10445 0
M  V30 78887 H 7509.23 -0.853987 -3.88321 0
M  V30 78888 N 7510.23 1.34314 -0.824465 0
M  V30 78889 C 7511.17 2.29492 -0.245403 0
M  V30 78890 C 7512.14 1.53661 0.630681 0
M  V30 78891 O 7513.33 1.82024 0.571998 0
M  V30 78892 C 7510.47 3.40098 0.585452 0
M  V30 78893 C 7509.58 4.30864 -0.313048 0
M  V30 78894 C 7508.72 5.28574 0.527522 0
M  V30 78895 C 7507.76 6.10979 -0.370268 0
M  V30 78896 N 7506.89 7.00774 0.43132 0
M  V30 78897 H 7511.73 2.78419 -1.0624 0
M  V30 78898 H 7509.27 1.3701 -0.535402 0
M  V30 78899 H 7511.23 4.02912 1.0825 0
M  V30 78900 H 7509.86 2.92401 1.36754 0
M  V30 78901 H 7508.91 3.68899 -0.928324 0
M  V30 78902 H 7510.22 4.88605 -1.00332 0
M  V30 78903 H 7509.38 5.96847 1.08899 0
M  V30 78904 H 7508.11 4.71375 1.25129 0
M  V30 78905 H 7507.12 5.41638 -0.943862 0
M  V30 78906 H 7508.34 6.7026 -1.09218 0
M  V30 78907 H 7506.29 6.46041 1.13874 0
M  V30 78908 H 7506.21 7.55734 -0.200531 0
M  V30 78909 H 7507.48 7.73372 0.975487 0
M  V30 78910 N 7511.7 0.579569 1.46556 0
M  V30 78911 C 7512.67 -0.14525 2.28739 0
M  V30 78912 C 7513.67 -0.821781 1.38215 0
M  V30 78913 O 7514.86 -0.674217 1.60624 0
M  V30 78914 C 7511.99 -1.21498 3.18514 0
M  V30 78915 H 7513.18 0.576941 2.94298 0
M  V30 78916 H 7510.74 0.337408 1.52615 0
M  V30 78917 H 7511.47 -1.96885 2.57695 0
M  V30 78918 H 7511.26 -0.734413 3.85161 0
M  V30 78919 H 7512.75 -1.72343 3.80378 0
M  V30 78920 N 7513.18 -1.54375 0.317181 0
M  V30 78921 C 7514.43 -2.00748 -0.28773 0
M  V30 78922 C 7514.76 -1.2051 -1.52286 0
M  V30 78923 O 7514.04 -0.285728 -1.9239 0
M  V30 78924 C 7514.32 -3.54578 -0.628236 0
M  V30 78925 C 7514.17 -4.45546 0.617157 0
M  V30 78926 C 7515.49 -4.15583 -1.4484 0
M  V30 78927 H 7512.61 -0.729752 -0.103105 0
M  V30 78928 H 7515.25 -1.85012 0.432493 0
M  V30 78929 H 7513.4 -3.68118 -1.24184 0
M  V30 78930 H 7515.07 -4.43886 1.25549 0
M  V30 78931 H 7513.32 -4.15482 1.24728 0
M  V30 78932 H 7513.99 -5.50985 0.334534 0
M  V30 78933 H 7516.46 -4.05578 -0.929801 0
M  V30 78934 H 7515.34 -5.23342 -1.65542 0
M  V30 78935 H 7515.6 -3.68496 -2.4426 0
M  V30 78936 N 7514.66 -0.0452209 -1.57535 0
M  V30 78937 C 7515.61 0.931201 -2.11181 0
M  V30 78938 C 7516.58 1.31269 -1.01772 0
M  V30 78939 O 7517.76 1.4032 -1.29286 0
M  V30 78940 C 7514.9 2.20281 -2.6565 0
M  V30 78941 C 7514.02 1.87634 -3.89124 0
M  V30 78942 C 7513.15 3.09209 -4.3193 0
M  V30 78943 C 7512.19 2.72455 -5.48119 0
M  V30 78944 N 7511.33 3.86705 -5.86006 0
M  V30 78945 H 7516.17 0.466831 -2.94321 0
M  V30 78946 H 7513.7 0.218809 -1.45464 0
M  V30 78947 H 7515.66 2.94682 -2.95328 0
M  V30 78948 H 7514.29 2.64306 -1.85317 0
M  V30 78949 H 7513.34 1.03407 -3.66075 0
M  V30 78950 H 7514.66 1.56576 -4.73588 0
M  V30 78951 H 7513.81 3.91914 -4.63129 0
M  V30 78952 H 7512.55 3.43441 -3.46265 0
M  V30 78953 H 7511.55 1.88165 -5.16598 0
M  V30 78954 H 7512.78 2.39422 -6.35495 0
M  V30 78955 H 7510.72 4.20749 -5.03296 0
M  V30 78956 H 7510.64 3.59325 -6.65148 0
M  V30 78957 H 7511.91 4.70067 -6.21818 0
M  V30 78958 N 7516.14 1.55941 0.228104 0
M  V30 78959 C 7517.42 1.69429 0.977403 0
M  V30 78960 C 7517.8 0.590585 2.0267 0
M  V30 78961 O 7517.14 -0.403348 2.24912 0
M  V30 78962 C 7517.35 3.10483 1.59377 0
M  V30 78963 C 7518.7 3.69684 2.08852 0
M  V30 78964 O 7519.73 3.13403 1.69283 0
M  V30 78965 O 7518.58 4.68387 2.81559 0
M  V30 78966 H 7515.68 0.689824 0.456149 0
M  V30 78967 H 7518.22 1.68263 0.220404 0
M  V30 78968 H 7517 3.8227 0.83577 0
M  V30 78969 H 7516.62 3.1574 2.41648 0
M  V30 78970 N 7517.62 -0.494545 1.4964 0
M  V30 78971 C 7518.85 -1.27027 1.62935 0
M  V30 78972 C 7519.25 -1.86765 0.302563 0
M  V30 78973 O 7518.6 -1.68883 -0.722789 0
M  V30 78974 C 7518.66 -2.43517 2.64461 0
M  V30 78975 C 7518.32 -2.04598 4.08642 0
M  V30 78976 C 7519.32 -1.58199 4.95247 0
M  V30 78977 C 7517.01 -2.14036 4.54416 0
M  V30 78978 C 7519 -1.21749 6.25664 0
M  V30 78979 C 7516.69 -1.77197 5.84846 0
M  V30 78980 C 7517.68 -1.31129 6.70294 0
M  V30 78981 O 7517.37 -0.947918 7.98292 0
M  V30 78982 H 7517.1 -0.391232 0.551283 0
M  V30 78983 H 7519.66 -0.599518 1.96456 0
M  V30 78984 H 7517.89 -3.13688 2.26134 0
M  V30 78985 H 7519.58 -3.05531 2.67219 0
M  V30 78986 H 7520.34 -1.50349 4.61108 0
M  V30 78987 H 7516.22 -2.48844 3.88069 0
M  V30 78988 H 7519.77 -0.857201 6.92313 0
M  V30 78989 H 7515.66 -1.847 6.18511 0
M  V30 78990 H 7516.43 -1.07883 8.11359 0
M  V30 78991 N 7519.09 -1.38823 -0.74606 0
M  V30 78992 C 7520.32 -1.38874 -1.54042 0
M  V30 78993 C 7520.74 0.0175632 -1.88092 0
M  V30 78994 O 7520.1 1.00165 -1.51118 0
M  V30 78995 C 7520.15 -2.25806 -2.81148 0
M  V30 78996 O 7519.25 -1.68033 -3.76615 0
M  V30 78997 H 7518.6 -0.473383 -0.465623 0
M  V30 78998 H 7521.13 -1.8268 -0.921373 0
M  V30 78999 H 7521.14 -2.3993 -3.29996 0
M  V30 79000 H 7519.81 -3.28013 -2.55696 0
M  V30 79001 H 7518.39 -1.63092 -3.35344 0
M  V30 79002 N 7520.57 0.975059 -1.23816 0
M  V30 79003 C 7521.54 2.04995 -1.02516 0
M  V30 79004 C 7522.54 1.60793 0.0149236 0
M  V30 79005 O 7523.73 1.72736 -0.225337 0
M  V30 79006 C 7520.86 3.36397 -0.552265 0
M  V30 79007 H 7522.05 2.25324 -1.97912 0
M  V30 79008 H 7519.6 1.14924 -1.05935 0
M  V30 79009 H 7520.34 3.21758 0.405224 0
M  V30 79010 H 7520.12 3.69821 -1.30287 0
M  V30 79011 H 7521.61 4.15441 -0.424047 0
M  V30 79012 N 7522.05 1.05072 1.17463 0
M  V30 79013 C 7523.28 0.779303 1.91339 0
M  V30 79014 C 7523.69 -0.668671 1.7699 0
M  V30 79015 O 7523.03 -1.46842 1.10377 0
M  V30 79016 C 7523.09 1.07878 3.42932 0
M  V30 79017 C 7522.76 2.5227 3.81063 0
M  V30 79018 C 7523.75 3.50476 3.84009 0
M  V30 79019 C 7521.44 2.87247 4.12061 0
M  V30 79020 C 7523.43 4.81705 4.17419 0
M  V30 79021 C 7521.12 4.1868 4.45141 0
M  V30 79022 C 7522.12 5.15719 4.47798 0
M  V30 79023 O 7521.81 6.44795 4.80099 0
M  V30 79024 H 7521.54 0.282895 0.61396 0
M  V30 79025 H 7524.09 1.40425 1.499 0
M  V30 79026 H 7522.32 0.396733 3.84659 0
M  V30 79027 H 7524.01 0.793567 3.98067 0
M  V30 79028 H 7524.78 3.24794 3.60186 0
M  V30 79029 H 7520.66 2.12379 4.09165 0
M  V30 79030 H 7524.2 5.57443 4.19408 0
M  V30 79031 H 7520.1 4.44125 4.68426 0
M  V30 79032 H 7520.87 6.49598 4.97961 0
M  V30 79033 N 7523.53 -1.33875 0.831576 0
M  V30 79034 C 7524.95 -1.50945 0.518428 0
M  V30 79035 C 7525.15 -1.77393 -0.955714 0
M  V30 79036 O 7524.2 -1.82992 -1.73983 0
M  V30 79037 C 7525.51 -2.66881 1.38545 0
M  V30 79038 C 7527.06 -2.80765 1.38347 0
M  V30 79039 C 7527.54 -3.99755 2.23518 0
M  V30 79040 N 7529.03 -4.06977 2.21188 0
M  V30 79041 C 7529.76 -4.98224 2.83831 0
M  V30 79042 N 7529.26 -5.94636 3.55499 0
M  V30 79043 N 7531.05 -4.91164 2.7334 0
M  V30 79044 H 7523.2 -1.14969 1.78594 0
M  V30 79045 H 7525.47 -0.564592 0.761538 0
M  V30 79046 H 7525.17 -2.53995 2.43269 0
M  V30 79047 H 7525.05 -3.62108 1.0563 0
M  V30 79048 H 7527.43 -2.93088 0.343987 0
M  V30 79049 H 7527.51 -1.86321 1.75265 0
M  V30 79050 H 7527.16 -3.88191 3.27521 0
M  V30 79051 H 7527.09 -4.93429 1.83945 0
M  V30 79052 H 7529.58 -3.37973 1.69064 0
M  V30 79053 H 7529.89 -6.6091 4.00522 0
M  V30 79054 H 7528.24 -5.94734 3.59606 0
M  V30 79055 H 7531.43 -4.14806 2.16919 0
M  V30 79056 H 7531.6 -5.62079 3.22446 0
M  V30 79057 N 7525.01 -0.587333 -1.46247 0
M  V30 79058 C 7526.23 -0.078561 -2.07251 0
M  V30 79059 C 7526.66 1.21911 -1.43245 0
M  V30 79060 O 7526.02 1.73746 -0.517883 0
M  V30 79061 C 7526.06 0.0689136 -3.60534 0
M  V30 79062 O 7525.17 1.12427 -3.96779 0
M  V30 79063 H 7524.51 -0.0648939 -0.660821 0
M  V30 79064 H 7527.04 -0.81159 -1.87815 0
M  V30 79065 H 7527.05 0.273611 -4.07082 0
M  V30 79066 H 7525.72 -0.878729 -4.06511 0
M  V30 79067 H 7524.3 0.897661 -3.61934 0
M  V30 79068 N 7526.49 1.54205 -0.325364 0
M  V30 79069 C 7527.71 2.05483 0.28131 0
M  V30 79070 C 7528.14 1.19985 1.44863 0
M  V30 79071 O 7527.49 0.20937 1.80087 0
M  V30 79072 C 7527.54 3.53901 0.691842 0
M  V30 79073 O 7526.65 3.71334 1.794 0
M  V30 79074 H 7525.99 0.66208 0.0504523 0
M  V30 79075 H 7528.52 1.99027 -0.474296 0
M  V30 79076 H 7528.53 3.96203 0.97401 0
M  V30 79077 H 7527.2 4.15585 -0.161929 0
M  V30 79078 H 7525.78 3.40937 1.51051 0
M  V30 79079 N 7527.96 0.0535747 1.57509 0
M  V30 79080 C 7528.89 -0.917886 2.14702 0
M  V30 79081 C 7529.87 -1.32287 1.06931 0
M  V30 79082 O 7531.06 -1.39716 1.34882 0
M  V30 79083 C 7528.19 -2.19189 2.69395 0
M  V30 79084 C 7527.14 -1.92689 3.82171 0
M  V30 79085 C 7526.47 -3.26565 4.23391 0
M  V30 79086 C 7527.77 -1.24659 5.07206 0
M  V30 79087 H 7529.46 -0.441494 2.96127 0
M  V30 79088 H 7527.01 -0.210917 1.42447 0
M  V30 79089 H 7528.96 -2.87551 3.08046 0
M  V30 79090 H 7527.69 -2.69038 1.85165 0
M  V30 79091 H 7526.35 -1.26739 3.43995 0
M  V30 79092 H 7525.99 -3.74219 3.36108 0
M  V30 79093 H 7525.69 -3.09632 4.99402 0
M  V30 79094 H 7527.22 -3.96154 4.64644 0
M  V30 79095 H 7528.63 -1.83059 5.43288 0
M  V30 79096 H 7527.03 -1.18045 5.88375 0
M  V30 79097 H 7528.1 -0.222972 4.84387 0
M  V30 79098 N 7529.44 -1.56059 -0.219831 0
M  V30 79099 C 7530.37 -1.95577 -1.27562 0
M  V30 79100 C 7531.35 -0.824226 -1.48797 0
M  V30 79101 O 7532.54 -1.08666 -1.60951 0
M  V30 79102 C 7529.67 -2.27395 -2.62505 0
M  V30 79103 C 7528.62 -3.43056 -2.55923 0
M  V30 79104 C 7527.95 -3.60484 -3.94912 0
M  V30 79105 C 7529.25 -4.77977 -2.10559 0
M  V30 79106 H 7530.94 -2.84018 -0.947333 0
M  V30 79107 H 7528.49 -1.36647 -0.454265 0
M  V30 79108 H 7530.44 -2.53632 -3.36524 0
M  V30 79109 H 7529.16 -1.3581 -2.97024 0
M  V30 79110 H 7527.82 -3.1687 -1.84361 0
M  V30 79111 H 7527.47 -2.66271 -4.26742 0
M  V30 79112 H 7527.17 -4.38278 -3.9139 0
M  V30 79113 H 7528.7 -3.89071 -4.70591 0
M  V30 79114 H 7530.11 -5.03408 -2.74323 0
M  V30 79115 H 7528.51 -5.59067 -2.18092 0
M  V30 79116 H 7529.58 -4.73219 -1.05793 0
M  V30 79117 N 7530.92 0.486602 -1.499 0
M  V30 79118 C 7532.17 1.23978 -1.60112 0
M  V30 79119 C 7532.49 1.9226 -0.294329 0
M  V30 79120 O 7531.75 1.82022 0.71878 0
M  V30 79121 C 7532.05 2.31849 -2.71995 0
M  V30 79122 C 7531.71 1.80926 -4.13009 0
M  V30 79123 C 7530.38 1.66758 -4.51381 0
M  V30 79124 C 7532.73 1.42978 -5.01205 0
M  V30 79125 C 7530.06 1.13042 -5.75707 0
M  V30 79126 C 7532.41 0.90709 -6.26063 0
M  V30 79127 C 7531.07 0.751919 -6.63251 0
M  V30 79128 H 7530.34 0.453668 -0.58589 0
M  V30 79129 H 7532.99 0.538208 -1.83781 0
M  V30 79130 H 7531.29 3.07852 -2.42352 0
M  V30 79131 H 7532.99 2.89854 -2.77102 0
M  V30 79132 H 7529.58 1.92916 -3.82729 0
M  V30 79133 H 7533.77 1.52764 -4.72204 0
M  V30 79134 H 7529.02 0.997524 -6.03208 0
M  V30 79135 H 7533.2 0.604318 -6.93773 0
M  V30 79136 H 7530.82 0.333519 -7.59468 0
M  V30 79137 N 7532.4 1.39216 0.738688 0
M  V30 79138 C 7533.64 1.37445 1.49935 0
M  V30 79139 C 7534 -0.0308481 1.92375 0
M  V30 79140 O 7533.29 -0.99662 1.6364 0
M  V30 79141 C 7533.49 2.27765 2.75423 0
M  V30 79142 C 7533.31 3.76937 2.45253 0
M  V30 79143 C 7532.08 4.45883 2.37732 0
M  V30 79144 C 7534.28 4.69006 2.11039 0
M  V30 79145 N 7532.26 5.8041 1.99993 0
M  V30 79146 C 7533.64 5.92156 1.83714 0
M  V30 79147 C 7535.69 4.57064 1.97476 0
M  V30 79148 C 7534.39 7.04699 1.44193 0
M  V30 79149 C 7536.42 5.69525 1.59358 0
M  V30 79150 C 7535.78 6.91746 1.32915 0
M  V30 79151 H 7531.88 0.558223 0.547642 0
M  V30 79152 H 7534.46 1.74735 0.858833 0
M  V30 79153 H 7532.64 1.9264 3.3726 0
M  V30 79154 H 7534.37 2.17013 3.41596 0
M  V30 79155 H 7531.12 3.99278 2.54704 0
M  V30 79156 H 7531.55 6.51593 1.83727 0
M  V30 79157 H 7536.19 3.6311 2.16589 0
M  V30 79158 H 7533.91 7.98557 1.23821 0
M  V30 79159 H 7537.49 5.62271 1.49474 0
M  V30 79160 H 7536.37 7.77292 1.0386 0
M  V30 79161 N 7533.88 -0.968479 1.24331 0
M  V30 79162 C 7534.84 -2.04449 1.03602 0
M  V30 79163 C 7535.84 -1.60799 -0.0063961 0
M  V30 79164 O 7537.03 -1.72614 0.234495 0
M  V30 79165 C 7534.16 -3.36099 0.570097 0
M  V30 79166 H 7535.35 -2.24272 1.99104 0
M  V30 79167 H 7532.91 -1.14361 1.06543 0
M  V30 79168 H 7533.64 -3.21969 -0.388155 0
M  V30 79169 H 7533.43 -3.69125 1.32246 0
M  V30 79170 H 7534.92 -4.15211 0.446073 0
M  V30 79171 N 7535.35 -1.05694 -1.16904 0
M  V30 79172 C 7536.28 -0.68352 -2.23272 0
M  V30 79173 C 7537.26 0.321118 -1.67041 0
M  V30 79174 O 7538.45 0.197589 -1.93192 0
M  V30 79175 C 7535.58 -0.0627837 -3.47243 0
M  V30 79176 C 7534.53 -0.992733 -4.16328 0
M  V30 79177 C 7533.86 -0.235612 -5.34181 0
M  V30 79178 C 7535.16 -2.31911 -4.6799 0
M  V30 79179 H 7536.85 -1.57278 -2.54763 0
M  V30 79180 H 7534.4 -0.75767 -1.22456 0
M  V30 79181 H 7536.35 0.210281 -4.20875 0
M  V30 79182 H 7535.08 0.86145 -3.15034 0
M  V30 79183 H 7533.74 -1.25044 -3.44615 0
M  V30 79184 H 7533.38 0.691547 -4.98223 0
M  V30 79185 H 7533.08 -0.855309 -5.81342 0
M  V30 79186 H 7534.61 0.0300497 -6.10593 0
M  V30 79187 H 7536.02 -2.10559 -5.33233 0
M  V30 79188 H 7534.42 -2.89323 -5.25749 0
M  V30 79189 H 7535.49 -2.95412 -3.84526 0
M  V30 79190 N 7536.83 1.33432 -0.838664 0
M  V30 79191 C 7538.08 1.98082 -0.434917 0
M  V30 79192 C 7538.41 1.6628 1.00322 0
M  V30 79193 O 7537.69 0.94259 1.70134 0
M  V30 79194 C 7537.97 3.54078 -0.655789 0
M  V30 79195 C 7537.82 3.95567 -2.14118 0
M  V30 79196 C 7539.14 4.39982 -0.101808 0
M  V30 79197 H 7536.26 0.719535 -0.159494 0
M  V30 79198 H 7538.9 1.58076 -1.05414 0
M  V30 79199 H 7537.05 3.88287 -0.128706 0
M  V30 79200 H 7538.72 3.71616 -2.73311 0
M  V30 79201 H 7536.97 3.45306 -2.62576 0
M  V30 79202 H 7537.64 5.0422 -2.24648 0
M  V30 79203 H 7540.11 4.12418 -0.55234 0
M  V30 79204 H 7538.99 5.48154 -0.286039 0
M  V30 79205 H 7539.25 4.30772 0.994389 0
M  V30 79206 N 7538.31 0.59508 1.45933 0
M  V30 79207 C 7539.59 0.0179779 1.95592 0
M  V30 79208 C 7539.97 -1.44635 1.53766 0
M  V30 79209 O 7539.32 -2.14253 0.794217 0
M  V30 79210 C 7539.53 0.202973 3.48409 0
M  V30 79211 C 7540.87 0.077236 4.2453 0
M  V30 79212 O 7541.9 0.132445 3.55954 0
M  V30 79213 O 7540.76 -0.048139 5.46479 0
M  V30 79214 H 7537.85 -0.0428266 0.82589 0
M  V30 79215 H 7540.4 0.664266 1.56159 0
M  V30 79216 H 7539.17 1.22046 3.7178 0
M  V30 79217 H 7538.79 -0.479168 3.94702 0
M  V30 79218 N 7539.79 -1.5403 0.333537 0
M  V30 79219 C 7540.72 -2.27627 -0.52039 0
M  V30 79220 C 7541.7 -1.28803 -1.11103 0
M  V30 79221 O 7542.88 -1.57631 -1.13429 0
M  V30 79222 C 7540.01 -3.04157 -1.67647 0
M  V30 79223 C 7538.97 -4.10402 -1.21465 0
M  V30 79224 C 7538.29 -4.7483 -2.45847 0
M  V30 79225 C 7539.59 -5.21304 -0.322328 0
M  V30 79226 H 7541.29 -2.99254 0.0935401 0
M  V30 79227 H 7538.83 -1.43925 0.0464285 0
M  V30 79228 H 7540.79 -3.54378 -2.28022 0
M  V30 79229 H 7539.51 -2.30165 -2.31714 0
M  V30 79230 H 7538.17 -3.6108 -0.633776 0
M  V30 79231 H 7537.82 -3.97442 -3.08299 0
M  V30 79232 H 7537.52 -5.46604 -2.15633 0
M  V30 79233 H 7539.04 -5.2783 -3.06966 0
M  V30 79234 H 7540.46 -5.67221 -0.832643 0
M  V30 79235 H 7538.85 -5.99994 -0.112526 0
M  V30 79236 H 7539.92 -4.80602 0.644207 0
M  V30 79237 N 7541.27 -0.0619271 -1.57478 0
M  V30 79238 C 7542.52 0.608954 -1.92288 0
M  V30 79239 C 7542.83 1.71364 -0.943074 0
M  V30 79240 O 7544.03 2.44341 -1.18362 0
M  V30 79241 C 7542.49 1.1345 -3.41551 0
M  V30 79242 C 7542.1 0.0613564 -4.47958 0
M  V30 79243 C 7543.84 1.78001 -3.85377 0
M  V30 79244 C 7541.75 0.600394 -5.88344 0
M  V30 79245 H 7540.68 0.231232 -0.717668 0
M  V30 79246 H 7543.33 -0.132562 -1.83021 0
M  V30 79247 H 7541.71 1.92867 -3.45859 0
M  V30 79248 H 7542.89 -0.712767 -4.55254 0
M  V30 79249 H 7541.2 -0.487334 -4.13538 0
M  V30 79250 H 7543.8 2.19345 -4.87639 0
M  V30 79251 H 7544.14 2.63606 -3.22207 0
M  V30 79252 H 7544.67 1.05222 -3.83632 0
M  V30 79253 H 7541.41 -0.218267 -6.55137 0
M  V30 79254 H 7540.93 1.34226 -5.84588 0
M  V30 79255 H 7542.61 1.07992 -6.37924 0
M  V30 79256 N 7542.74 1.56174 0.211552 0
M  V30 79257 C 7543.97 1.83478 0.949708 0
M  V30 79258 C 7544.38 0.640147 1.78041 0
M  V30 79259 O 7543.73 -0.400607 1.79279 0
M  V30 79260 C 7543.79 3.04657 1.90852 0
M  V30 79261 C 7543.45 4.39248 1.26136 0
M  V30 79262 C 7544.45 5.15867 0.646325 0
M  V30 79263 C 7542.13 4.85976 1.27014 0
M  V30 79264 C 7544.13 6.37381 0.0486951 0
M  V30 79265 C 7541.81 6.07431 0.668667 0
M  V30 79266 C 7542.81 6.82975 0.0590086 0
M  V30 79267 O 7542.5 8.02131 -0.533079 0
M  V30 79268 H 7542.23 0.613715 0.283426 0
M  V30 79269 H 7544.79 2.04121 0.228832 0
M  V30 79270 H 7543.02 2.79857 2.66865 0
M  V30 79271 H 7544.71 3.18747 2.51307 0
M  V30 79272 H 7545.47 4.80867 0.631802 0
M  V30 79273 H 7541.35 4.27143 1.73406 0
M  V30 79274 H 7544.89 6.96287 -0.427781 0
M  V30 79275 H 7540.79 6.41902 0.680637 0
M  V30 79276 H 7541.56 8.17378 -0.428373 0
M  V30 79277 N 7544.22 -0.478646 1.50156 0
M  V30 79278 C 7545.17 -1.59835 1.68984 0
M  V30 79279 C 7546.16 -1.60027 0.555676 0
M  V30 79280 O 7547.37 -1.64267 0.735962 0
M  V30 79281 H 7543.75 -0.530245 0.533239 0
M  V30 79282 H 7545.72 -1.41114 2.62924 0
M  V30 79283 C 7544.47 -2.97829 1.79425 0
M  V30 79284 H 7543.79 -2.98397 2.66082 0
M  V30 79285 H 7545.23 -3.75652 1.96626 0
M  V30 79286 C 7543.69 -3.32477 0.544102 0
M  V30 79287 O 7544.22 -4.00422 -0.320165 0
M  V30 79288 N 7542.42 -2.87829 0.400369 0
M  V30 79289 H 7541.97 -2.3271 1.1047 0
M  V30 79290 H 7541.93 -3.11377 -0.434947 0
M  V30 79291 N 7545.7 -1.39606 -0.731294 0
M  V30 79292 C 7546.63 -1.33013 -1.85426 0
M  V30 79293 C 7547.61 -0.203155 -1.61326 0
M  V30 79294 O 7548.8 -0.384221 -1.84543 0
M  V30 79295 C 7545.92 -1.0663 -3.21477 0
M  V30 79296 C 7544.97 -2.21568 -3.64431 0
M  V30 79297 S 7545.8 -3.83871 -3.73367 0
M  V30 79298 C 7546.96 -3.59721 -5.12203 0
M  V30 79299 H 7547.19 -2.28051 -1.90735 0
M  V30 79300 H 7544.72 -1.25705 -0.896524 0
M  V30 79301 H 7546.68 -0.92093 -4.00036 0
M  V30 79302 H 7545.34 -0.132728 -3.13819 0
M  V30 79303 H 7544.54 -1.9871 -4.63174 0
M  V30 79304 H 7544.14 -2.32328 -2.93087 0
M  V30 79305 H 7546.43 -3.17215 -5.98649 0
M  V30 79306 H 7547.37 -4.57939 -5.40091 0
M  V30 79307 H 7547.78 -2.93742 -4.82054 0
M  V30 79308 N 7547.18 0.961872 -1.24843 0
M  V30 79309 C 7548.43 1.70559 -1.0916 0
M  V30 79310 C 7548.75 1.90975 0.368619 0
M  V30 79311 O 7548.01 1.47299 1.28846 0
M  V30 79312 C 7548.31 3.09745 -1.78306 0
M  V30 79313 C 7547.97 3.09151 -3.28232 0
M  V30 79314 C 7546.64 3.08697 -3.69134 0
M  V30 79315 C 7548.99 3.03035 -4.24051 0
M  V30 79316 C 7546.32 2.99866 -5.04279 0
M  V30 79317 C 7548.67 2.95746 -5.59211 0
M  V30 79318 C 7547.33 2.93623 -5.99451 0
M  V30 79319 H 7546.6 0.624118 -0.399447 0
M  V30 79320 H 7549.25 1.12429 -1.55022 0
M  V30 79321 H 7547.55 3.71374 -1.24855 0
M  V30 79322 H 7549.25 3.66095 -1.63631 0
M  V30 79323 H 7545.84 3.10273 -2.95683 0
M  V30 79324 H 7550.02 3.02511 -3.93447 0
M  V30 79325 H 7545.28 2.96587 -5.34646 0
M  V30 79326 H 7549.45 2.89974 -6.33157 0
M  V30 79327 H 7547.08 2.86536 -7.04132 0
M  V30 79328 N 7548.66 1.06312 1.16342 0
M  V30 79329 C 7549.6 0.674079 2.20737 0
M  V30 79330 C 7550.57 -0.329368 1.62802 0
M  V30 79331 O 7551.76 -0.218213 1.89548 0
M  V30 79332 C 7548.9 0.0668828 3.45035 0
M  V30 79333 C 7548.01 1.12053 4.17215 0
M  V30 79334 C 7547.15 0.479455 5.29032 0
M  V30 79335 C 7546.19 1.51662 5.93013 0
M  V30 79336 N 7545.32 0.898895 6.96322 0
M  V30 79337 H 7550.16 1.56873 2.53367 0
M  V30 79338 H 7547.7 0.784341 1.24445 0
M  V30 79339 H 7549.66 -0.302696 4.161 0
M  V30 79340 H 7548.29 -0.791168 3.12954 0
M  V30 79341 H 7547.34 1.60781 3.44752 0
M  V30 79342 H 7548.65 1.90736 4.60892 0
M  V30 79343 H 7547.81 0.0569192 6.06673 0
M  V30 79344 H 7546.54 -0.339253 4.86519 0
M  V30 79345 H 7545.55 1.94905 5.14093 0
M  V30 79346 H 7546.77 2.33743 6.37606 0
M  V30 79347 H 7544.72 0.100901 6.55922 0
M  V30 79348 H 7544.64 1.62311 7.38371 0
M  V30 79349 H 7545.91 0.50151 7.77885 0
M  V30 79350 N 7550.13 -1.32986 0.845729 0
M  V30 79351 C 7551.08 -2.29072 0.281882 0
M  V30 79352 C 7552.05 -1.54645 -0.606155 0
M  V30 79353 O 7553.24 -1.82911 -0.542967 0
M  V30 79354 C 7550.38 -3.40986 -0.531271 0
M  V30 79355 C 7549.49 -4.30312 0.381555 0
M  V30 79356 C 7548.62 -5.29347 -0.443364 0
M  V30 79357 C 7547.66 -6.10313 0.467423 0
M  V30 79358 N 7546.8 -7.01371 -0.319778 0
M  V30 79359 H 7551.64 -2.76694 1.10656 0
M  V30 79360 H 7549.18 -1.36141 0.557132 0
M  V30 79361 H 7551.14 -4.04583 -1.01826 0
M  V30 79362 H 7549.77 -2.94539 -1.32085 0
M  V30 79363 H 7548.82 -3.67375 0.986895 0
M  V30 79364 H 7550.13 -4.86947 1.08093 0
M  V30 79365 H 7549.28 -5.98504 -0.993896 0
M  V30 79366 H 7548.02 -4.73306 -1.17614 0
M  V30 79367 H 7547.03 -5.40067 1.02991 0
M  V30 79368 H 7548.25 -6.68438 1.19867 0
M  V30 79369 H 7546.2 -6.47771 -1.03581 0
M  V30 79370 H 7546.12 -7.55319 0.320737 0
M  V30 79371 H 7547.38 -7.74826 -0.852326 0
M  V30 79372 N 7551.61 -0.602811 -1.45616 0
M  V30 79373 C 7552.86 -0.0962828 -2.02571 0
M  V30 79374 C 7553.19 1.26808 -1.47083 0
M  V30 79375 O 7552.47 1.83541 -0.643662 0
M  V30 79376 C 7552.75 -0.0521931 -3.60062 0
M  V30 79377 C 7552.6 -1.44688 -4.25894 0
M  V30 79378 C 7553.92 0.638112 -4.35449 0
M  V30 79379 H 7551.04 -0.0364626 -0.736097 0
M  V30 79380 H 7553.68 -0.773868 -1.73526 0
M  V30 79381 H 7551.83 0.524829 -3.84939 0
M  V30 79382 H 7553.5 -2.07061 -4.12218 0
M  V30 79383 H 7551.75 -2.00895 -3.84479 0
M  V30 79384 H 7552.42 -1.36831 -5.34772 0
M  V30 79385 H 7554.89 0.147707 -4.15838 0
M  V30 79386 H 7553.77 0.638053 -5.45179 0
M  V30 79387 H 7554.03 1.7033 -4.07971 0
M  V30 79388 N 7553.09 1.53851 -0.341701 0
M  V30 79389 C 7554.5 1.86155 0.142592 0
M  V30 79390 C 7554.85 1.26298 1.50145 0
M  V30 79391 O 7553.98 0.575845 2.08598 0
M  V30 79392 C 7554.57 3.37758 0.265513 0
M  V30 79393 C 7553.13 3.69946 0.694036 0
M  V30 79394 C 7552.28 2.76758 -0.173341 0
M  V30 79395 H 7555.23 1.4844 -0.561362 0
M  V30 79396 H 7555.25 3.64454 1.09333 0
M  V30 79397 H 7554.76 3.81294 -0.723625 0
M  V30 79398 H 7552.86 3.31953 1.69227 0
M  V30 79399 H 7552.98 4.76637 0.485209 0
M  V30 79400 H 7551.34 2.52228 0.354027 0
M  V30 79401 H 7552.12 3.23123 -1.15958 0
M  V30 79402 N 7554.57 0.0702777 1.57443 0
M  V30 79403 C 7555.8 -0.608254 1.97757 0
M  V30 79404 C 7556.21 -1.6324 0.948582 0
M  V30 79405 O 7555.57 -1.82384 -0.0649498 0
M  V30 79406 C 7555.62 -1.27818 3.38149 0
M  V30 79407 O 7555.34 -0.295024 4.37105 0
M  V30 79408 C 7556.84 -2.04468 3.93329 0
M  V30 79409 H 7554.06 -0.164963 0.650406 0
M  V30 79410 H 7556.61 0.142232 2.04005 0
M  V30 79411 H 7554.76 -1.97976 3.32993 0
M  V30 79412 H 7555.18 -0.775467 5.18736 0
M  V30 79413 H 7556.65 -2.46736 4.93787 0
M  V30 79414 H 7557.13 -2.90061 3.29789 0
M  V30 79415 H 7557.73 -1.3918 4.01882 0
M  V30 79416 N 7556.05 -1.56284 -0.203266 0
M  V30 79417 C 7557.27 -1.84597 -0.94545 0
M  V30 79418 C 7557.7 -0.652865 -1.76407 0
M  V30 79419 O 7557.06 0.398375 -1.76869 0
M  V30 79420 C 7557.1 -3.11067 -1.824 0
M  V30 79421 O 7556.21 -2.91045 -2.92176 0
M  V30 79422 H 7555.55 -0.608082 -0.266707 0
M  V30 79423 H 7558.08 -2.03509 -0.21105 0
M  V30 79424 H 7558.09 -3.41648 -2.23026 0
M  V30 79425 H 7556.76 -3.97528 -1.22246 0
M  V30 79426 H 7555.34 -2.71742 -2.55364 0
M  V30 79427 N 7557.53 0.470676 -1.50407 0
M  V30 79428 C 7558.47 1.58937 -1.69829 0
M  V30 79429 C 7559.47 1.5973 -0.564154 0
M  V30 79430 O 7560.67 1.63874 -0.744663 0
M  V30 79431 H 7557.05 0.52741 -0.536043 0
M  V30 79432 H 7559.02 1.39718 -2.63669 0
M  V30 79433 C 7557.77 2.96873 -1.81002 0
M  V30 79434 H 7557.09 2.96981 -2.6766 0
M  V30 79435 H 7558.53 3.74604 -1.98616 0
M  V30 79436 C 7556.99 3.32184 -0.561726 0
M  V30 79437 O 7557.52 4.00586 0.298925 0
M  V30 79438 N 7555.73 2.87612 -0.415628 0
M  V30 79439 H 7555.27 2.32121 -1.11703 0
M  V30 79440 H 7555.23 3.11603 0.418428 0
M  V30 79441 N 7559 1.39992 0.72388 0
M  V30 79442 C 7560.23 1.41118 1.51306 0
M  V30 79443 C 7560.65 0.00863289 1.88798 0
M  V30 79444 O 7560 -0.965434 1.54873 0
M  V30 79445 C 7560.05 2.29431 2.79363 0
M  V30 79446 O 7559.78 3.64224 2.43459 0
M  V30 79447 C 7561.28 2.39059 3.73317 0
M  V30 79448 H 7558.5 0.481614 0.467215 0
M  V30 79449 H 7561.04 1.83943 0.893597 0
M  V30 79450 H 7559.2 1.89989 3.37614 0
M  V30 79451 H 7559.61 4.11042 3.25799 0
M  V30 79452 H 7561.08 3.05077 4.60034 0
M  V30 79453 H 7561.56 1.41311 4.15846 0
M  V30 79454 H 7562.17 2.79018 3.20981 0
M  V30 79455 N 7560.48 -0.955238 1.25351 0
M  V30 79456 C 7561.39 -2.08561 1.07423 0
M  V30 79457 C 7562.41 -1.73996 0.0115341 0
M  V30 79458 O 7563.58 -2.00277 0.212341 0
M  V30 79459 C 7560.65 -3.39676 0.69432 0
M  V30 79460 C 7559.71 -3.88112 1.83488 0
M  V30 79461 C 7558.94 -5.1297 1.47301 0
M  V30 79462 O 7559.17 -5.69209 0.368386 0
M  V30 79463 O 7558.1 -5.56099 2.30298 0
M  V30 79464 H 7561.93 -2.26587 2.02218 0
M  V30 79465 H 7559.51 -1.06982 1.04284 0
M  V30 79466 H 7561.39 -4.18488 0.494546 0
M  V30 79467 H 7560.07 -3.22921 -0.224374 0
M  V30 79468 H 7558.97 -3.10307 2.08951 0
M  V30 79469 H 7560.31 -4.09364 2.7328 0
M  V30 79470 N 7561.96 -1.06928 -1.15777 0
M  V30 79471 C 7563.21 -0.78829 -1.86092 0
M  V30 79472 C 7563.53 0.687509 -1.82478 0
M  V30 79473 O 7562.8 1.49772 -1.26274 0
M  V30 79474 H 7561.38 -0.288613 -0.688993 0
M  V30 79475 H 7564.04 -1.35212 -1.4037 0
M  V30 79476 H 7563.14 -1.11895 -2.91352 0
M  V30 79477 N 7563.44 1.32535 -0.85277 0
M  V30 79478 C 7564.69 1.96927 -0.454328 0
M  V30 79479 C 7565.01 1.67826 0.992946 0
M  V30 79480 O 7564.28 0.984482 1.69366 0
M  V30 79481 H 7562.86 0.728546 -0.165015 0
M  V30 79482 H 7565.52 1.61652 -1.08878 0
M  V30 79483 H 7564.61 3.06321 -0.597829 0
M  V30 79484 N 7564.92 0.610525 1.45294 0
M  V30 79485 C 7566.16 0.115465 2.03072 0
M  V30 79486 C 7566.52 -1.24124 1.47007 0
M  V30 79487 O 7565.81 -1.80721 0.636421 0
M  V30 79488 C 7566 0.0207213 3.57394 0
M  V30 79489 C 7565.83 1.3667 4.28429 0
M  V30 79490 C 7564.6 1.94816 4.66235 0
M  V30 79491 C 7566.8 2.29611 4.60199 0
M  V30 79492 N 7564.78 3.22863 5.22142 0
M  V30 79493 C 7566.15 3.42259 5.16971 0
M  V30 79494 C 7568.21 2.28947 4.4214 0
M  V30 79495 C 7566.91 4.54412 5.57586 0
M  V30 79496 C 7568.94 3.40149 4.8379 0
M  V30 79497 C 7568.3 4.51519 5.40657 0
M  V30 79498 H 7564.4 0.0856895 0.777291 0
M  V30 79499 H 7566.98 0.809519 1.77073 0
M  V30 79500 H 7565.15 -0.642561 3.83048 0
M  V30 79501 H 7566.89 -0.48127 4.01828 0
M  V30 79502 H 7563.64 1.47988 4.49885 0
M  V30 79503 H 7564.06 3.88274 5.54592 0
M  V30 79504 H 7568.71 1.44102 3.97485 0
M  V30 79505 H 7566.42 5.39979 6.01206 0
M  V30 79506 H 7570.01 3.40786 4.71547 0
M  V30 79507 H 7568.89 5.36144 5.72293 0
M  V30 79508 N 7566.39 -1.53668 0.349855 0
M  V30 79509 C 7567.62 -2.05905 -0.248583 0
M  V30 79510 C 7568.04 -1.22274 -1.42936 0
M  V30 79511 O 7567.4 -0.237993 -1.79731 0
M  V30 79512 C 7567.45 -3.54957 -0.635452 0
M  V30 79513 O 7566.55 -3.74142 -1.7347 0
M  V30 79514 H 7565.89 -0.662799 -0.0399128 0
M  V30 79515 H 7568.42 -1.98247 0.505899 0
M  V30 79516 H 7568.43 -3.97703 -0.910854 0
M  V30 79517 H 7567.11 -4.15274 0.228024 0
M  V30 79518 H 7565.69 -3.43297 -1.45608 0
M  V30 79519 N 7567.87 -0.0786263 -1.57404 0
M  V30 79520 C 7569.11 0.592491 -1.95624 0
M  V30 79521 C 7569.48 1.66362 -0.958516 0
M  V30 79522 O 7570.68 2.39078 -1.22862 0
M  V30 79523 C 7568.95 1.14828 -3.38451 0
M  V30 79524 S 7570.51 1.83357 -3.98655 0
M  V30 79525 H 7567.33 0.193815 -0.684074 0
M  V30 79526 H 7569.93 -0.15411 -1.94892 0
M  V30 79527 H 7568.63 0.356964 -4.08845 0
M  V30 79528 H 7568.16 1.93109 -3.42743 0
M  V30 79529 H 7570.18 3.11656 -3.86115 0
M  V30 79530 N 7569.35 1.56389 0.194975 0
M  V30 79531 C 7570.58 1.85096 0.935647 0
M  V30 79532 C 7571 0.662211 1.76058 0
M  V30 79533 O 7570.36 -0.388989 1.77078 0
M  V30 79534 C 7570.41 3.1203 1.80748 0
M  V30 79535 O 7569.51 2.9259 2.90628 0
M  V30 79536 H 7568.85 0.609488 0.263478 0
M  V30 79537 H 7571.38 2.03618 0.200255 0
M  V30 79538 H 7571.39 3.42826 2.21211 0
M  V30 79539 H 7570.07 3.98171 1.20136 0
M  V30 79540 H 7568.64 2.73092 2.53919 0
M  V30 79541 N 7570.83 -0.462693 1.50655 0
M  V30 79542 C 7571.76 -1.56751 1.73064 0
M  V30 79543 C 7572.74 -1.59914 0.579784 0
M  V30 79544 O 7573.92 -1.76047 0.819822 0
M  V30 79545 C 7571.05 -2.9502 1.83249 0
M  V30 79546 C 7570.01 -3.06723 2.98504 0
M  V30 79547 C 7569.33 -4.46723 2.93842 0
M  V30 79548 C 7570.63 -2.83158 4.38884 0
M  V30 79549 H 7572.33 -1.38251 2.65569 0
M  V30 79550 H 7569.87 -0.663655 1.27795 0
M  V30 79551 H 7571.83 -3.72247 1.97511 0
M  V30 79552 H 7570.55 -3.14696 0.873724 0
M  V30 79553 H 7569.21 -2.31931 2.83907 0
M  V30 79554 H 7568.86 -4.63329 1.95794 0
M  V30 79555 H 7568.56 -4.55487 3.71221 0
M  V30 79556 H 7570.08 -5.25958 3.10163 0
M  V30 79557 H 7571.5 -3.50129 4.53963 0
M  V30 79558 H 7569.89 -3.03359 5.17778 0
M  V30 79559 H 7570.96 -1.78948 4.50672 0
M  V30 79560 N 7572.31 -1.40374 -0.716446 0
M  V30 79561 C 7573.27 -1.40323 -1.81224 0
M  V30 79562 C 7574.27 -0.29717 -1.5803 0
M  V30 79563 O 7575.46 -0.556031 -1.65088 0
M  V30 79564 C 7572.59 -1.19412 -3.19302 0
M  V30 79565 H 7573.78 -2.3785 -1.82668 0
M  V30 79566 H 7571.34 -1.2621 -0.921995 0
M  V30 79567 H 7572.07 -0.226423 -3.23509 0
M  V30 79568 H 7571.86 -1.99529 -3.37536 0
M  V30 79569 H 7573.35 -1.22162 -3.99332 0
M  V30 79570 N 7573.78 0.948577 -1.25856 0
M  V30 79571 C 7574.69 2.07988 -1.08527 0
M  V30 79572 C 7575.71 1.73988 -0.0207614 0
M  V30 79573 O 7576.89 2.00162 -0.222959 0
M  V30 79574 C 7573.95 3.39303 -0.712324 0
M  V30 79575 C 7573.01 3.87133 -1.85544 0
M  V30 79576 C 7572.25 5.12182 -1.50019 0
M  V30 79577 O 7572.47 5.69006 -0.398568 0
M  V30 79578 O 7571.4 5.5487 -2.33244 0
M  V30 79579 H 7575.23 2.25511 -2.03417 0
M  V30 79580 H 7572.81 1.06428 -1.0485 0
M  V30 79581 H 7574.7 4.1822 -0.516732 0
M  V30 79582 H 7573.37 3.23036 0.207246 0
M  V30 79583 H 7572.28 3.09194 -2.10594 0
M  V30 79584 H 7573.61 4.07909 -2.75447 0
M  V30 79585 N 7575.26 1.0754 1.15208 0
M  V30 79586 C 7576.49 0.819714 1.89642 0
M  V30 79587 C 7576.9 -0.630978 1.78368 0
M  V30 79588 O 7576.24 -1.44468 1.13467 0
M  V30 79589 C 7576.31 1.15128 3.40567 0
M  V30 79590 C 7575.97 2.60296 3.75626 0
M  V30 79591 C 7576.97 3.58543 3.76488 0
M  V30 79592 C 7574.65 2.95923 4.05876 0
M  V30 79593 C 7576.65 4.90451 4.07108 0
M  V30 79594 C 7574.33 4.28028 4.3616 0
M  V30 79595 C 7575.33 5.25102 4.36758 0
M  V30 79596 O 7575.02 6.54833 4.66314 0
M  V30 79597 H 7574.75 0.295854 0.607821 0
M  V30 79598 H 7577.3 1.43573 1.46887 0
M  V30 79599 H 7575.53 0.478236 3.83731 0
M  V30 79600 H 7577.22 0.877824 3.96294 0
M  V30 79601 H 7577.99 3.32361 3.53216 0
M  V30 79602 H 7573.87 2.2101 4.04568 0
M  V30 79603 H 7577.41 5.66214 4.07489 0
M  V30 79604 H 7573.31 4.53962 4.589 0
M  V30 79605 H 7574.08 6.60014 4.8407 0
M  V30 79606 N 7576.74 -1.32081 0.859786 0
M  V30 79607 C 7577.99 -1.9634 0.461882 0
M  V30 79608 C 7578.3 -1.68769 -0.988748 0
M  V30 79609 O 7579.51 -2.26808 -1.49232 0
M  V30 79610 C 7577.96 -3.51456 0.775025 0
M  V30 79611 C 7577.57 -3.87879 2.24173 0
M  V30 79612 C 7579.32 -4.2216 0.445095 0
M  V30 79613 C 7577.22 -5.36062 2.49782 0
M  V30 79614 H 7576.15 -0.734819 0.16899 0
M  V30 79615 H 7578.8 -1.50401 1.05128 0
M  V30 79616 H 7577.19 -3.95833 0.115001 0
M  V30 79617 H 7578.36 -3.54495 2.94397 0
M  V30 79618 H 7576.68 -3.30214 2.53669 0
M  V30 79619 H 7579.27 -5.31165 0.613788 0
M  V30 79620 H 7579.62 -4.11752 -0.613693 0
M  V30 79621 H 7580.15 -3.83383 1.06123 0
M  V30 79622 H 7576.89 -5.51496 3.54305 0
M  V30 79623 H 7576.41 -5.70834 1.84142 0
M  V30 79624 H 7578.09 -6.03205 2.33992 0
M  V30 79625 N 7578.22 -0.618222 -1.44968 0
M  V30 79626 C 7579.63 -0.282749 -1.57075 0
M  V30 79627 C 7579.83 1.21447 -1.60788 0
M  V30 79628 O 7578.89 1.99798 -1.54392 0
M  V30 79629 C 7580.2 -0.963299 -2.84853 0
M  V30 79630 C 7581.75 -0.940219 -2.98545 0
M  V30 79631 C 7582.23 -1.60098 -4.29107 0
M  V30 79632 N 7583.72 -1.56697 -4.3589 0
M  V30 79633 C 7584.45 -2.04729 -5.35606 0
M  V30 79634 N 7583.95 -2.60894 -6.41799 0
M  V30 79635 N 7585.74 -1.95434 -5.27031 0
M  V30 79636 H 7577.89 -1.59024 -1.40802 0
M  V30 79637 H 7580.16 -0.666777 -0.673879 0
M  V30 79638 H 7579.86 -2.01795 -2.88048 0
M  V30 79639 H 7579.74 -0.493098 -3.73963 0
M  V30 79640 H 7582.12 0.105915 -2.9491 0
M  V30 79641 H 7582.2 -1.44879 -2.10817 0
M  V30 79642 H 7581.85 -2.6465 -4.33501 0
M  V30 79643 H 7581.78 -1.06735 -5.1567 0
M  V30 79644 H 7584.27 -1.15678 -3.5976 0
M  V30 79645 H 7584.58 -2.95311 -7.14151 0
M  V30 79646 H 7582.93 -2.64939 -6.4252 0
M  V30 79647 H 7586.12 -1.51286 -4.42979 0
M  V30 79648 H 7586.29 -2.33179 -6.04592 0
M  V30 79649 N 7579.7 1.5348 -0.358 0
M  V30 79650 C 7580.65 2.22261 0.508333 0
M  V30 79651 C 7581.63 1.21511 1.0547 0
M  V30 79652 O 7582.82 1.46993 0.985998 0
M  V30 79653 C 7579.95 3.0097 1.65142 0
M  V30 79654 C 7579.04 4.0909 1.1183 0
M  V30 79655 N 7579.43 5.04864 0.307552 0
M  V30 79656 C 7577.73 4.23661 1.39383 0
M  V30 79657 C 7578.43 5.81698 0.0165352 0
M  V30 79658 N 7577.4 5.40143 0.612111 0
M  V30 79659 H 7581.21 2.93663 -0.117991 0
M  V30 79660 H 7578.72 1.61553 -0.165615 0
M  V30 79661 H 7580.72 3.48757 2.28416 0
M  V30 79662 H 7579.38 2.31098 2.28088 0
M  V30 79663 H 7580.39 5.17873 -0.0526044 0
M  V30 79664 H 7577.06 3.65013 2.02663 0
M  V30 79665 H 7578.45 6.6886 -0.638398 0
M  V30 79666 N 7581.17 0.0869727 1.5736 0
M  V30 79667 C 7582.12 -0.892457 2.14797 0
M  V30 79668 C 7583.12 -1.29781 1.08872 0
M  V30 79669 O 7584.32 -1.27329 1.2723 0
M  V30 79670 H 7580.7 -0.305802 0.687015 0
M  V30 79671 H 7582.67 -0.383237 2.95929 0
M  V30 79672 C 7581.42 -2.14493 2.73657 0
M  V30 79673 H 7580.74 -1.84189 3.54844 0
M  V30 79674 H 7582.18 -2.81102 3.17424 0
M  V30 79675 C 7580.64 -2.91357 1.69153 0
M  V30 79676 O 7581.17 -3.85608 1.12559 0
M  V30 79677 N 7579.38 -2.54745 1.39833 0
M  V30 79678 H 7578.92 -1.78172 1.86044 0
M  V30 79679 H 7578.88 -3.06475 0.701477 0
M  V30 79680 N 7582.65 -1.5649 -0.186679 0
M  V30 79681 C 7583.93 -1.71961 -0.932138 0
M  V30 79682 C 7584.31 -0.644112 -2.01033 0
M  V30 79683 O 7583.66 0.343575 -2.25902 0
M  V30 79684 C 7583.87 -3.146 -1.51089 0
M  V30 79685 C 7585.22 -3.75091 -1.98977 0
M  V30 79686 O 7586.24 -3.17781 -1.60915 0
M  V30 79687 O 7585.1 -4.75688 -2.69042 0
M  V30 79688 H 7582.19 -0.701675 -0.437699 0
M  V30 79689 H 7584.74 -1.68788 -0.175714 0
M  V30 79690 H 7583.51 -3.84352 -0.734124 0
M  V30 79691 H 7583.13 -3.22036 -2.33192 0
M  V30 79692 N 7584.13 0.454697 -1.50898 0
M  V30 79693 C 7585.06 1.56992 -1.65616 0
M  V30 79694 C 7586.04 1.54593 -0.503951 0
M  V30 79695 O 7587.23 1.73976 -0.725577 0
M  V30 79696 C 7584.35 2.95578 -1.65382 0
M  V30 79697 C 7583.4 3.1607 -2.8636 0
M  V30 79698 S 7584.23 2.94216 -4.47434 0
M  V30 79699 C 7585.39 4.35115 -4.49918 0
M  V30 79700 H 7585.62 1.44271 -2.59948 0
M  V30 79701 H 7583.15 0.64319 -1.40365 0
M  V30 79702 H 7585.11 3.75469 -1.65931 0
M  V30 79703 H 7583.77 3.05676 -0.722568 0
M  V30 79704 H 7582.97 4.17352 -2.82548 0
M  V30 79705 H 7582.57 2.43977 -2.83463 0
M  V30 79706 H 7584.86 5.28029 -4.2449 0
M  V30 79707 H 7585.8 4.43966 -5.51634 0
M  V30 79708 H 7586.21 4.17959 -3.79435 0
M  V30 79709 N 7585.61 1.40752 0.708992 0
M  V30 79710 C 7587.02 1.35119 1.2884 0
M  V30 79711 C 7587.37 0.0278184 1.9618 0
M  V30 79712 O 7586.5 -0.874128 1.97959 0
M  V30 79713 C 7587.09 2.44729 2.34293 0
M  V30 79714 C 7585.65 2.42535 2.87843 0
M  V30 79715 C 7584.8 2.25266 1.61711 0
M  V30 79716 H 7587.75 1.50462 0.504663 0
M  V30 79717 H 7587.77 2.13015 3.15285 0
M  V30 79718 H 7587.28 3.41032 1.85253 0
M  V30 79719 H 7585.38 1.49949 3.41096 0
M  V30 79720 H 7585.5 3.38362 3.39188 0
M  V30 79721 H 7583.86 1.729 1.87023 0
M  V30 79722 H 7584.64 3.23577 1.14686 0
M  V30 79723 N 7587.09 -0.941889 1.26357 0
M  V30 79724 C 7588.34 -1.68245 1.1125 0
M  V30 79725 C 7588.65 -1.92552 -0.343954 0
M  V30 79726 O 7589.86 -2.64427 -0.615693 0
M  V30 79727 C 7588.31 -3.02954 1.94285 0
M  V30 79728 C 7587.92 -2.86397 3.44501 0
M  V30 79729 C 7589.66 -3.80706 1.87784 0
M  V30 79730 C 7587.57 -4.16575 4.19785 0
M  V30 79731 H 7586.5 -0.631009 0.412728 0
M  V30 79732 H 7589.15 -1.04754 1.50661 0
M  V30 79733 H 7587.53 -3.67422 1.47706 0
M  V30 79734 H 7588.71 -2.30784 3.98843 0
M  V30 79735 H 7587.02 -2.22089 3.52229 0
M  V30 79736 H 7589.62 -4.77148 2.41317 0
M  V30 79737 H 7589.96 -4.07563 0.848409 0
M  V30 79738 H 7590.5 -3.23011 2.32182 0
M  V30 79739 H 7587.23 -3.94903 5.23194 0
M  V30 79740 H 7586.75 -4.71906 3.70223 0
M  V30 79741 H 7588.43 -4.85035 4.28193 0
M  V30 79742 N 7588.57 -1.0815 -1.14636 0
M  V30 79743 C 7589.8 -0.829759 -1.89205 0
M  V30 79744 C 7590.2 0.62151 -1.78701 0
M  V30 79745 O 7589.55 1.43864 -1.14232 0
M  V30 79746 C 7589.61 -1.16933 -3.39951 0
M  V30 79747 C 7589.27 -2.62284 -3.74241 0
M  V30 79748 C 7590.27 -3.60534 -3.74581 0
M  V30 79749 C 7587.95 -2.98071 -4.04301 0
M  V30 79750 C 7589.95 -4.92603 -4.04501 0
M  V30 79751 C 7587.64 -4.30335 -4.33884 0
M  V30 79752 C 7588.63 -5.27411 -4.33967 0
M  V30 79753 O 7588.32 -6.57297 -4.62835 0
M  V30 79754 H 7588.05 -0.299074 -0.606243 0
M  V30 79755 H 7590.61 -1.4435 -1.46124 0
M  V30 79756 H 7588.84 -0.498579 -3.83472 0
M  V30 79757 H 7590.53 -0.898828 -3.95823 0
M  V30 79758 H 7591.29 -3.34229 -3.51448 0
M  V30 79759 H 7587.17 -2.23153 -4.0339 0
M  V30 79760 H 7590.72 -5.68367 -4.04481 0
M  V30 79761 H 7586.61 -4.56389 -4.56486 0
M  V30 79762 H 7587.38 -6.62572 -4.80563 0
M  V30 79763 N 7590.04 1.31623 -0.866779 0
M  V30 79764 C 7590.95 2.32358 -0.32353 0
M  V30 79765 C 7591.97 1.64575 0.564908 0
M  V30 79766 O 7593.15 1.9602 0.462386 0
M  V30 79767 C 7590.21 3.43515 0.468864 0
M  V30 79768 C 7589.27 4.26965 -0.447154 0
M  V30 79769 C 7588.5 5.32813 0.307518 0
M  V30 79770 O 7588.73 5.4933 1.53601 0
M  V30 79771 O 7587.66 6.00978 -0.33297 0
M  V30 79772 H 7591.49 2.80739 -1.15842 0
M  V30 79773 H 7589.07 1.35464 -0.630059 0
M  V30 79774 H 7590.95 4.11275 0.918188 0
M  V30 79775 H 7589.63 2.97302 1.28035 0
M  V30 79776 H 7588.54 3.6197 -0.94491 0
M  V30 79777 H 7589.87 4.76734 -1.22415 0
M  V30 79778 N 7591.52 0.625901 1.44638 0
M  V30 79779 C 7592.48 -0.0724051 2.29086 0
M  V30 79780 C 7593.48 -0.777393 1.4076 0
M  V30 79781 O 7594.67 -0.622775 1.62687 0
M  V30 79782 C 7591.81 -1.11303 3.22218 0
M  V30 79783 H 7593 0.670278 2.92314 0
M  V30 79784 H 7590.55 0.38579 1.51464 0
M  V30 79785 H 7591.29 -1.88587 2.63829 0
M  V30 79786 H 7591.07 -0.611505 3.87302 0
M  V30 79787 H 7592.56 -1.60154 3.85669 0
M  V30 79788 N 7593 -1.53288 0.366134 0
M  V30 79789 C 7593.96 -2.24376 -0.467786 0
M  V30 79790 C 7594.96 -1.25181 -1.00927 0
M  V30 79791 O 7596.15 -1.49454 -0.894936 0
M  V30 79792 C 7593.28 -2.98093 -1.65389 0
M  V30 79793 H 7594.48 -2.99503 0.154263 0
M  V30 79794 H 7592.03 -1.55855 0.117833 0
M  V30 79795 H 7592.77 -2.27209 -2.31401 0
M  V30 79796 H 7592.55 -3.70875 -1.27257 0
M  V30 79797 H 7594.04 -3.52131 -2.24485 0
M  V30 79798 N 7594.48 -0.0953166 -1.57311 0
M  V30 79799 C 7595.75 0.610617 -1.85825 0
M  V30 79800 C 7596.13 1.86329 -0.992212 0
M  V30 79801 O 7595.48 2.28408 -0.0646873 0
M  V30 79802 C 7595.69 0.925789 -3.36497 0
M  V30 79803 C 7597.04 1.28914 -4.04557 0
M  V30 79804 O 7598.06 1.0168 -3.41379 0
M  V30 79805 O 7596.92 1.79922 -5.16033 0
M  V30 79806 H 7594.02 0.305586 -0.76847 0
M  V30 79807 H 7596.56 -0.128031 -1.69216 0
M  V30 79808 H 7595.34 0.0371064 -3.91282 0
M  V30 79809 H 7594.96 1.72041 -3.58452 0
M  V30 79810 N 7595.96 1.56587 0.178377 0
M  V30 79811 C 7596.9 1.95861 1.22094 0
M  V30 79812 C 7597.87 0.821524 1.44361 0
M  V30 79813 O 7599.06 1.08107 1.57218 0
M  V30 79814 C 7596.2 2.3177 2.55689 0
M  V30 79815 C 7595.31 3.58623 2.4086 0
M  V30 79816 C 7594.45 3.83777 3.67272 0
M  V30 79817 C 7593.48 5.04001 3.47347 0
M  V30 79818 N 7592.62 5.25323 4.65812 0
M  V30 79819 H 7597.46 2.84741 0.879018 0
M  V30 79820 H 7595 1.40898 0.422646 0
M  V30 79821 H 7596.96 2.5061 3.33542 0
M  V30 79822 H 7595.59 1.4601 2.8789 0
M  V30 79823 H 7594.64 3.47737 1.54218 0
M  V30 79824 H 7595.95 4.46635 2.22079 0
M  V30 79825 H 7595.1 4.02946 4.53563 0
M  V30 79826 H 7593.84 2.94127 3.89025 0
M  V30 79827 H 7592.85 4.84737 2.59442 0
M  V30 79828 H 7594.07 5.95174 3.27023 0
M  V30 79829 H 7592.02 4.38624 4.87796 0
M  V30 79830 H 7591.94 6.07544 4.49918 0
M  V30 79831 H 7593.2 5.48965 5.53406 0
M  V30 79832 N 7597.43 -0.446688 1.51137 0
M  V30 79833 C 7598.4 -1.52397 1.71195 0
M  V30 79834 C 7599.4 -1.49893 0.582116 0
M  V30 79835 O 7600.59 -1.52081 0.849532 0
M  V30 79836 C 7597.72 -2.91967 1.75978 0
M  V30 79837 H 7598.91 -1.3592 2.67331 0
M  V30 79838 H 7596.47 -0.674738 1.40986 0
M  V30 79839 H 7597.2 -3.1386 0.81623 0
M  V30 79840 H 7596.99 -2.9519 2.5808 0
M  V30 79841 H 7598.48 -3.70134 1.93367 0
M  V30 79842 N 7598.91 -1.41126 -0.701517 0
M  V30 79843 C 7599.84 -1.45271 -1.82807 0
M  V30 79844 C 7600.82 -0.312027 -1.67214 0
M  V30 79845 O 7602.01 -0.522637 -1.87035 0
M  V30 79846 C 7599.14 -1.32836 -3.20892 0
M  V30 79847 C 7598.09 -2.44655 -3.51181 0
M  V30 79848 C 7597.42 -2.17288 -4.88559 0
M  V30 79849 C 7598.72 -3.86998 -3.50756 0
M  V30 79850 H 7600.41 -2.39554 -1.79595 0
M  V30 79851 H 7597.96 -1.15302 -0.862632 0
M  V30 79852 H 7599.91 -1.3435 -3.9941 0
M  V30 79853 H 7598.64 -0.350362 -3.24715 0
M  V30 79854 H 7597.29 -2.42414 -2.75011 0
M  V30 79855 H 7596.94 -1.17845 -4.89001 0
M  V30 79856 H 7596.64 -2.92213 -5.0979 0
M  V30 79857 H 7598.17 -2.20508 -5.69393 0
M  V30 79858 H 7599.58 -3.90986 -4.19289 0
M  V30 79859 H 7597.98 -4.61556 -3.83518 0
M  V30 79860 H 7599.05 -4.15575 -2.49851 0
M  V30 79861 N 7600.39 0.935175 -1.26855 0
M  V30 79862 C 7601.34 2.03475 -1.08934 0
M  V30 79863 C 7602.31 1.66098 0.00741027 0
M  V30 79864 O 7603.49 1.90182 -0.153502 0
M  V30 79865 C 7600.63 3.37188 -0.734706 0
M  V30 79866 C 7599.75 3.87566 -1.90832 0
M  V30 79867 C 7598.88 5.09692 -1.49625 0
M  V30 79868 C 7597.92 5.52346 -2.63781 0
M  V30 79869 N 7597.06 6.65672 -2.23214 0
M  V30 79870 H 7601.9 2.18137 -2.03028 0
M  V30 79871 H 7599.43 1.06872 -1.01078 0
M  V30 79872 H 7601.39 4.14072 -0.509953 0
M  V30 79873 H 7600.02 3.22356 0.169268 0
M  V30 79874 H 7599.07 3.07028 -2.24583 0
M  V30 79875 H 7600.39 4.15155 -2.76492 0
M  V30 79876 H 7599.54 5.94053 -1.2323 0
M  V30 79877 H 7598.28 4.83862 -0.610645 0
M  V30 79878 H 7597.28 4.66538 -2.90899 0
M  V30 79879 H 7598.51 5.80175 -3.52951 0
M  V30 79880 H 7596.45 6.41515 -1.37095 0
M  V30 79881 H 7596.37 6.92879 -3.02415 0
M  V30 79882 H 7597.64 7.53393 -2.00047 0
M  V30 79883 N 7601.87 1.08756 1.14061 0
M  V30 79884 C 7603.1 0.841001 1.89036 0
M  V30 79885 C 7603.51 -0.607156 1.78771 0
M  V30 79886 O 7602.87 -1.41747 1.14952 0
M  V30 79887 C 7602.92 1.25856 3.38884 0
M  V30 79888 O 7602.64 2.64991 3.48872 0
M  V30 79889 C 7604.14 1.04338 4.30846 0
M  V30 79890 H 7601.36 0.303046 0.598669 0
M  V30 79891 H 7603.91 1.44776 1.4443 0
M  V30 79892 H 7602.06 0.695828 3.811 0
M  V30 79893 H 7602.47 2.82416 4.41974 0
M  V30 79894 H 7603.95 1.38489 5.34345 0
M  V30 79895 H 7604.43 -0.0193468 4.39196 0
M  V30 79896 H 7605.03 1.59171 3.94391 0
M  V30 79897 N 7603.35 -1.31162 0.873747 0
M  V30 79898 C 7604.59 -1.96568 0.486561 0
M  V30 79899 C 7604.92 -1.69046 -0.961953 0
M  V30 79900 O 7604.18 -0.981632 -1.693 0
M  V30 79901 C 7604.48 -3.50581 0.694805 0
M  V30 79902 C 7604.14 -3.9813 2.11668 0
M  V30 79903 C 7602.8 -4.10824 2.50553 0
M  V30 79904 C 7605.16 -4.23085 3.04382 0
M  V30 79905 C 7602.48 -4.45828 3.81385 0
M  V30 79906 C 7604.84 -4.59554 4.34734 0
M  V30 79907 C 7603.5 -4.70456 4.73527 0
M  V30 79908 H 7602.77 -0.719292 0.178045 0
M  V30 79909 H 7605.42 -1.56229 1.10746 0
M  V30 79910 H 7603.72 -3.91799 -0.00920218 0
M  V30 79911 H 7605.42 -3.99243 0.374993 0
M  V30 79912 H 7602.01 -3.88747 1.80481 0
M  V30 79913 H 7606.19 -4.12768 2.75566 0
M  V30 79914 H 7601.45 -4.52467 4.11198 0
M  V30 79915 H 7605.62 -4.77815 5.06622 0
M  V30 79916 H 7603.25 -4.97335 5.74945 0
M  V30 79917 N 7604.82 -0.633563 -1.44304 0
M  V30 79918 C 7605.76 0.108354 -2.28944 0
M  V30 79919 C 7606.77 0.806507 -1.41419 0
M  V30 79920 O 7607.96 0.667547 -1.65548 0
M  V30 79921 C 7605.06 1.17573 -3.17852 0
M  V30 79922 C 7604.23 0.559613 -4.33805 0
M  V30 79923 C 7603.29 1.52127 -5.0373 0
M  V30 79924 O 7602.32 1.03747 -5.59665 0
M  V30 79925 N 7603.52 2.85559 -5.05407 0
M  V30 79926 H 7606.28 -0.618033 -2.93258 0
M  V30 79927 H 7603.84 -0.4749 -1.54778 0
M  V30 79928 H 7605.84 1.81944 -3.61495 0
M  V30 79929 H 7604.41 1.80432 -2.55271 0
M  V30 79930 H 7603.63 -0.262767 -3.93323 0
M  V30 79931 H 7604.91 0.128674 -5.08637 0
M  V30 79932 H 7604.31 3.27444 -4.61299 0
M  V30 79933 H 7602.87 3.45284 -5.52831 0
M  V30 79934 N 7606.3 1.53092 -0.374258 0
M  V30 79935 C 7607.21 2.29724 0.475814 0
M  V30 79936 C 7608.23 1.36035 1.08492 0
M  V30 79937 O 7609.4 1.69097 1.09399 0
M  V30 79938 C 7606.47 3.07803 1.59556 0
M  V30 79939 C 7605.53 4.17175 1.0131 0
M  V30 79940 C 7604.76 4.91521 2.07949 0
M  V30 79941 O 7604.99 4.6581 3.29207 0
M  V30 79942 O 7603.92 5.77241 1.7052 0
M  V30 79943 H 7607.75 3.03339 -0.148037 0
M  V30 79944 H 7605.33 1.48758 -0.138391 0
M  V30 79945 H 7607.21 3.56532 2.2464 0
M  V30 79946 H 7605.89 2.37016 2.20465 0
M  V30 79947 H 7604.8 3.72677 0.325936 0
M  V30 79948 H 7606.13 4.90153 0.448441 0
M  V30 79949 N 7607.78 0.103658 1.57259 0
M  V30 79950 C 7608.69 -0.866212 2.18023 0
M  V30 79951 C 7609.71 -1.30398 1.15205 0
M  V30 79952 O 7610.88 -1.37014 1.47612 0
M  V30 79953 C 7607.95 -2.10419 2.75544 0
M  V30 79954 C 7607.01 -1.71981 3.93346 0
M  V30 79955 C 7606.24 -2.89877 4.48115 0
M  V30 79956 O 7606.46 -4.04856 4.01806 0
M  V30 79957 O 7605.4 -2.67848 5.39018 0
M  V30 79958 H 7609.22 -0.379179 3.01324 0
M  V30 79959 H 7606.81 -0.121149 1.48908 0
M  V30 79960 H 7608.69 -2.82954 3.12274 0
M  V30 79961 H 7607.37 -2.58158 1.95284 0
M  V30 79962 H 7606.27 -0.966003 3.61413 0
M  V30 79963 H 7607.61 -1.28997 4.74995 0
M  V30 79964 N 7609.26 -1.5668 -0.170071 0
M  V30 79965 C 7610.51 -1.82065 -0.886496 0
M  V30 79966 C 7610.83 -0.680936 -1.82191 0
M  V30 79967 O 7610.09 0.331721 -1.92868 0
M  V30 79968 C 7610.39 -3.13627 -1.71385 0
M  V30 79969 C 7610.05 -4.41263 -0.927256 0
M  V30 79970 C 7608.72 -4.75931 -0.710166 0
M  V30 79971 C 7611.07 -5.19845 -0.375581 0
M  V30 79972 C 7608.4 -5.86659 0.0696784 0
M  V30 79973 C 7610.75 -6.31389 0.391182 0
M  V30 79974 C 7609.41 -6.64623 0.61906 0
M  V30 79975 H 7608.68 -0.666221 -0.324392 0
M  V30 79976 H 7611.33 -1.90901 -0.151363 0
M  V30 79977 H 7609.63 -3.00138 -2.51842 0
M  V30 79978 H 7611.33 -3.30478 -2.27124 0
M  V30 79979 H 7607.92 -4.14071 -1.1065 0
M  V30 79980 H 7612.1 -4.93455 -0.530637 0
M  V30 79981 H 7607.36 -6.10864 0.255959 0
M  V30 79982 H 7611.53 -6.91485 0.825908 0
M  V30 79983 H 7609.16 -7.50262 1.22522 0
M  V30 79984 N 7610.74 0.438666 -1.51372 0
M  V30 79985 C 7611.67 1.55227 -1.67272 0
M  V30 79986 C 7612.65 1.5405 -0.52032 0
M  V30 79987 O 7613.83 1.73197 -0.743989 0
M  V30 79988 C 7610.96 2.93808 -1.68508 0
M  V30 79989 C 7610 3.13014 -2.89697 0
M  V30 79990 S 7610.84 2.89454 -4.50529 0
M  V30 79991 C 7611.99 4.30318 -4.54507 0
M  V30 79992 H 7612.23 1.41506 -2.61464 0
M  V30 79993 H 7609.76 0.628267 -1.4104 0
M  V30 79994 H 7611.72 3.73688 -1.69904 0
M  V30 79995 H 7610.38 3.04892 -0.754948 0
M  V30 79996 H 7609.57 4.14332 -2.86958 0
M  V30 79997 H 7609.17 2.40957 -2.86035 0
M  V30 79998 H 7611.47 5.23497 -4.30066 0
M  V30 79999 H 7612.41 4.3809 -5.56311 0
M  V30 80000 H 7612.82 4.13911 -3.83846 0
M  V30 80001 N 7612.22 1.41496 0.694023 0
M  V30 80002 C 7613.63 1.36478 1.274 0
M  V30 80003 C 7613.98 0.0486244 1.9614 0
M  V30 80004 O 7613.1 -0.853083 1.98875 0
M  V30 80005 C 7613.7 2.472 2.31685 0
M  V30 80006 C 7612.26 2.45574 2.85255 0
M  V30 80007 C 7611.4 2.26969 1.59313 0
M  V30 80008 H 7614.35 1.50989 0.488676 0
M  V30 80009 H 7614.38 2.16347 3.13008 0
M  V30 80010 H 7613.89 3.42978 1.81625 0
M  V30 80011 H 7611.99 1.53558 3.39486 0
M  V30 80012 H 7612.1 3.4194 3.3558 0
M  V30 80013 H 7610.47 1.74874 1.85179 0
M  V30 80014 H 7611.25 3.24775 1.11247 0
M  V30 80015 N 7613.69 -0.928434 1.27349 0
M  V30 80016 C 7614.94 -1.67853 1.13813 0
M  V30 80017 C 7615.27 -1.91621 -0.315449 0
M  V30 80018 O 7614.55 -1.50605 -1.23079 0
M  V30 80019 C 7614.83 -3.04552 1.92146 0
M  V30 80020 C 7614.68 -2.8803 3.45484 0
M  V30 80021 C 7616 -4.0487 1.72534 0
M  V30 80022 H 7613.12 -0.609169 0.414828 0
M  V30 80023 H 7615.76 -1.07745 1.56496 0
M  V30 80024 H 7613.91 -3.5586 1.55872 0
M  V30 80025 H 7615.59 -2.43845 3.91583 0
M  V30 80026 H 7613.83 -2.23387 3.71861 0
M  V30 80027 H 7614.5 -3.8504 3.95535 0
M  V30 80028 H 7616.98 -3.6257 2.04162 0
M  V30 80029 H 7615.85 -4.98509 2.29739 0
M  V30 80030 H 7616.11 -4.36946 0.673086 0
M  V30 80031 N 7615.17 -1.09359 -1.13482 0
M  V30 80032 C 7616.08 -0.744424 -2.22476 0
M  V30 80033 C 7617.1 0.253314 -1.72146 0
M  V30 80034 O 7618.27 0.0948279 -2.01177 0
M  V30 80035 C 7615.34 -0.169463 -3.46286 0
M  V30 80036 C 7614.4 -1.22306 -4.11509 0
M  V30 80037 C 7613.63 -0.67544 -5.29409 0
M  V30 80038 O 7613.86 0.501883 -5.68188 0
M  V30 80039 O 7612.79 -1.43014 -5.84663 0
M  V30 80040 H 7616.62 -1.65391 -2.54714 0
M  V30 80041 H 7614.2 -0.867943 -1.21602 0
M  V30 80042 H 7616.08 0.147888 -4.2114 0
M  V30 80043 H 7614.76 0.713047 -3.15749 0
M  V30 80044 H 7613.66 -1.5931 -3.38484 0
M  V30 80045 H 7615 -2.07819 -4.46175 0
M  V30 80046 N 7616.65 1.30697 -0.88069 0
M  V30 80047 C 7617.88 2.0047 -0.511788 0
M  V30 80048 C 7618.29 1.66044 0.898596 0
M  V30 80049 O 7617.65 0.895302 1.5903 0
M  V30 80050 C 7617.7 3.55201 -0.671911 0
M  V30 80051 O 7617.42 3.88399 -2.02676 0
M  V30 80052 C 7618.92 4.42247 -0.305433 0
M  V30 80053 H 7616.14 0.64104 -0.198265 0
M  V30 80054 H 7618.69 1.66681 -1.18481 0
M  V30 80055 H 7616.84 3.87372 -0.0463109 0
M  V30 80056 H 7617.26 4.83106 -2.04228 0
M  V30 80057 H 7618.73 5.50009 -0.468385 0
M  V30 80058 H 7619.21 4.32641 0.756228 0
M  V30 80059 H 7619.81 4.15512 -0.907178 0
M  V30 80060 N 7618.13 0.641207 1.43966 0
M  V30 80061 C 7619.37 0.149735 2.01946 0
M  V30 80062 C 7619.7 -1.23204 1.50503 0
M  V30 80063 O 7618.96 -1.83374 0.683549 0
M  V30 80064 C 7619.26 0.0965252 3.5727 0
M  V30 80065 C 7618.92 1.41843 4.28009 0
M  V30 80066 C 7617.58 1.78045 4.4705 0
M  V30 80067 C 7619.94 2.29053 4.68171 0
M  V30 80068 C 7617.26 3.01146 5.03516 0
M  V30 80069 C 7619.62 3.51434 5.26001 0
M  V30 80070 C 7618.28 3.87847 5.4326 0
M  V30 80071 H 7617.55 0.054792 0.738971 0
M  V30 80072 H 7620.2 0.829527 1.72601 0
M  V30 80073 H 7618.5 -0.666676 3.86086 0
M  V30 80074 H 7620.2 -0.300425 3.99873 0
M  V30 80075 H 7616.79 1.12672 4.13525 0
M  V30 80076 H 7620.97 2.02376 4.53164 0
M  V30 80077 H 7616.23 3.29422 5.15064 0
M  V30 80078 H 7620.4 4.19237 5.5607 0
M  V30 80079 H 7618.03 4.83315 5.8678 0
M  V30 80080 N 7619.61 -1.52891 0.382372 0
M  V30 80081 C 7620.83 -2.06386 -0.204852 0
M  V30 80082 C 7621.26 -1.25279 -1.4031 0
M  V30 80083 O 7620.61 -0.276064 -1.79186 0
M  V30 80084 C 7620.66 -3.56225 -0.560018 0
M  V30 80085 O 7619.77 -3.77737 -1.65495 0
M  V30 80086 H 7619.11 -0.663497 -0.0258448 0
M  V30 80087 H 7621.64 -1.97129 0.547837 0
M  V30 80088 H 7621.65 -3.99545 -0.82629 0
M  V30 80089 H 7620.32 -4.14697 0.316059 0
M  V30 80090 H 7618.9 -3.46308 -1.38293 0
M  V30 80091 N 7621.08 -0.111996 -1.57202 0
M  V30 80092 C 7621.99 0.854638 -2.18479 0
M  V30 80093 C 7623.01 1.29786 -1.15895 0
M  V30 80094 O 7624.19 1.36229 -1.48336 0
M  V30 80095 C 7621.25 2.08955 -2.76656 0
M  V30 80096 C 7620.31 1.69892 -3.94253 0
M  V30 80097 C 7619.54 2.87497 -4.49646 0
M  V30 80098 O 7619.77 4.02719 -4.03947 0
M  V30 80099 O 7618.7 2.64986 -5.40431 0
M  V30 80100 H 7622.53 0.363193 -3.0152 0
M  V30 80101 H 7620.11 0.113251 -1.4897 0
M  V30 80102 H 7621.99 2.81294 -3.1377 0
M  V30 80103 H 7620.67 2.57119 -1.9665 0
M  V30 80104 H 7619.58 0.946822 -3.6192 0
M  V30 80105 H 7620.91 1.26476 -4.75673 0
M  V30 80106 N 7622.56 1.56768 0.161759 0
M  V30 80107 C 7623.81 1.82532 0.876828 0
M  V30 80108 C 7624.14 0.690588 1.81827 0
M  V30 80109 O 7623.39 -0.321488 1.93041 0
M  V30 80110 C 7623.69 3.14531 1.6972 0
M  V30 80111 C 7623.36 4.41748 0.903842 0
M  V30 80112 C 7622.02 4.76301 0.684916 0
M  V30 80113 C 7624.37 5.20037 0.348007 0
M  V30 80114 C 7621.7 5.86613 -0.100789 0
M  V30 80115 C 7624.05 6.31173 -0.42466 0
M  V30 80116 C 7622.71 6.64285 -0.654298 0
M  V30 80117 H 7621.98 0.667932 0.320854 0
M  V30 80118 H 7624.63 1.90978 0.141237 0
M  V30 80119 H 7622.94 3.0147 2.50246 0
M  V30 80120 H 7624.63 3.31678 2.25368 0
M  V30 80121 H 7621.22 4.14652 1.08452 0
M  V30 80122 H 7625.41 4.9373 0.504461 0
M  V30 80123 H 7620.66 6.1072 -0.288351 0
M  V30 80124 H 7624.84 6.91037 -0.862568 0
M  V30 80125 H 7622.46 7.49601 -1.26499 0
M  V30 80126 N 7624.04 -0.430633 1.51602 0
M  V30 80127 C 7624.97 -1.53045 1.7635 0
M  V30 80128 C 7625.95 -1.58648 0.613573 0
M  V30 80129 O 7627.14 -1.74268 0.85698 0
M  V30 80130 C 7624.27 -2.91067 1.89466 0
M  V30 80131 C 7623.22 -3.00322 3.04943 0
M  V30 80132 C 7622.55 -4.40389 3.03251 0
M  V30 80133 C 7623.85 -2.73784 4.44791 0
M  V30 80134 H 7625.54 -1.32586 2.68442 0
M  V30 80135 H 7623.09 -0.636398 1.29174 0
M  V30 80136 H 7625.04 -3.67973 2.05362 0
M  V30 80137 H 7623.76 -3.12772 0.940279 0
M  V30 80138 H 7622.42 -2.25857 2.88763 0
M  V30 80139 H 7622.07 -4.59072 2.05578 0
M  V30 80140 H 7621.77 -4.47511 3.80799 0
M  V30 80141 H 7623.29 -5.1926 3.21249 0
M  V30 80142 H 7624.71 -3.40421 4.61288 0
M  V30 80143 H 7623.1 -2.92307 5.24096 0
M  V30 80144 H 7624.17 -1.69348 4.54367 0
M  V30 80145 N 7625.52 -1.41862 -0.686509 0
M  V30 80146 C 7626.79 -1.32192 -1.44169 0
M  V30 80147 C 7627.17 0.0462507 -2.11049 0
M  V30 80148 O 7626.52 1.06106 -2.0237 0
M  V30 80149 C 7626.73 -2.48181 -2.45372 0
M  V30 80150 C 7628.08 -2.89762 -3.1036 0
M  V30 80151 O 7629.1 -2.47986 -2.55698 0
M  V30 80152 O 7627.96 -3.62031 -4.09385 0
M  V30 80153 H 7625.06 -0.520712 -0.642486 0
M  V30 80154 H 7627.6 -1.53845 -0.716222 0
M  V30 80155 H 7626.38 -3.3944 -1.94669 0
M  V30 80156 H 7626 -2.28452 -3.25416 0
M  V30 80157 N 7627 0.921667 -1.2784 0
M  V30 80158 C 7628.24 1.67247 -1.14701 0
M  V30 80159 C 7628.58 1.91785 0.305283 0
M  V30 80160 O 7627.85 1.51256 1.22278 0
M  V30 80161 C 7628.13 3.03528 -1.93759 0
M  V30 80162 C 7627.99 2.86193 -3.47006 0
M  V30 80163 C 7629.31 4.0395 -1.74679 0
M  V30 80164 H 7626.42 0.60696 -0.418053 0
M  V30 80165 H 7629.07 1.06913 -1.57065 0
M  V30 80166 H 7627.22 3.55028 -1.57757 0
M  V30 80167 H 7628.89 2.41765 -3.92871 0
M  V30 80168 H 7627.13 2.21412 -3.7304 0
M  V30 80169 H 7627.8 3.82937 -3.97571 0
M  V30 80170 H 7630.28 3.61482 -2.06082 0
M  V30 80171 H 7629.15 4.97284 -2.32379 0
M  V30 80172 H 7629.42 4.36583 -0.696249 0
M  V30 80173 N 7628.47 1.0996 1.12901 0
M  V30 80174 C 7629.44 0.747478 2.16669 0
M  V30 80175 C 7630.44 -0.225657 1.59209 0
M  V30 80176 O 7631.63 -0.00313296 1.742 0
M  V30 80177 C 7628.76 0.106349 3.40734 0
M  V30 80178 H 7629.95 1.66654 2.49332 0
M  V30 80179 H 7627.51 0.899489 1.27824 0
M  V30 80180 H 7628.24 -0.823674 3.13666 0
M  V30 80181 H 7628.03 0.806636 3.83713 0
M  V30 80182 H 7629.52 -0.12442 4.17415 0
M  V30 80183 N 7629.95 -1.30228 0.887609 0
M  V30 80184 C 7631.2 -1.95653 0.50638 0
M  V30 80185 C 7631.52 -1.704 -0.948101 0
M  V30 80186 O 7630.79 -1.02904 -1.66696 0
M  V30 80187 H 7629.37 -0.723915 0.184274 0
M  V30 80188 H 7632.03 -1.58709 1.13126 0
M  V30 80189 H 7631.13 -3.04628 0.678834 0
M  V30 80190 N 7631.43 -0.648833 -1.43624 0
M  V30 80191 C 7632.36 0.0319554 -2.33478 0
M  V30 80192 C 7633.34 0.816526 -1.49221 0
M  V30 80193 O 7634.53 0.77888 -1.77896 0
M  V30 80194 C 7631.66 1.00205 -3.3253 0
M  V30 80195 C 7630.61 0.327894 -4.26742 0
M  V30 80196 C 7629.94 1.40913 -5.15798 0
M  V30 80197 C 7631.24 -0.776973 -5.16489 0
M  V30 80198 H 7632.93 -0.71841 -2.90653 0
M  V30 80199 H 7630.48 -0.346926 -1.39758 0
M  V30 80200 H 7632.43 1.48719 -3.94285 0
M  V30 80201 H 7631.15 1.78352 -2.73602 0
M  V30 80202 H 7629.81 -0.136762 -3.66345 0
M  V30 80203 H 7629.46 2.18192 -4.53212 0
M  V30 80204 H 7629.16 0.963326 -5.7965 0
M  V30 80205 H 7630.68 1.89572 -5.80426 0
M  V30 80206 H 7632.1 -0.37418 -5.72078 0
M  V30 80207 H 7630.5 -1.14698 -5.89037 0
M  V30 80208 H 7631.57 -1.63679 -4.5644 0
M  V30 80209 N 7632.91 1.52686 -0.390474 0
M  V30 80210 C 7633.84 2.29402 0.435549 0
M  V30 80211 C 7634.82 1.32838 1.06246 0
M  V30 80212 O 7636 1.61732 1.07501 0
M  V30 80213 C 7633.13 3.1017 1.56243 0
M  V30 80214 C 7632.09 4.14628 1.0615 0
M  V30 80215 C 7631.41 4.83627 2.28054 0
M  V30 80216 C 7632.71 5.22142 0.128627 0
M  V30 80217 H 7634.41 2.987 -0.204542 0
M  V30 80218 H 7631.95 1.43654 -0.0998134 0
M  V30 80219 H 7633.91 3.62597 2.14713 0
M  V30 80220 H 7632.63 2.38607 2.23012 0
M  V30 80221 H 7631.29 3.63184 0.499327 0
M  V30 80222 H 7630.94 4.08611 2.93336 0
M  V30 80223 H 7630.64 5.54231 1.95198 0
M  V30 80224 H 7632.16 5.38859 2.87165 0
M  V30 80225 H 7633.58 5.69921 0.621549 0
M  V30 80226 H 7631.97 5.99999 -0.110235 0
M  V30 80227 H 7633.04 4.7788 -0.822136 0
M  V30 80228 N 7634.39 0.120331 1.5714 0
M  V30 80229 C 7635.61 -0.548348 2.0002 0
M  V30 80230 C 7636.04 -1.59346 0.999517 0
M  V30 80231 O 7635.39 -1.81277 -0.0286022 0
M  V30 80232 C 7635.44 -1.14997 3.41772 0
M  V30 80233 O 7634.55 -2.26547 3.44601 0
M  V30 80234 H 7633.89 -0.136841 0.649747 0
M  V30 80235 H 7636.42 0.209199 2.03528 0
M  V30 80236 H 7636.43 -1.48517 3.80009 0
M  V30 80237 H 7635.1 -0.384462 4.14119 0
M  V30 80238 H 7633.68 -1.94456 3.18184 0
M  V30 80239 N 7635.86 -1.56851 -0.153443 0
M  V30 80240 C 7636.77 -2.01035 -1.20921 0
M  V30 80241 C 7637.79 -0.924676 -1.47397 0
M  V30 80242 O 7638.97 -1.23367 -1.59193 0
M  V30 80243 C 7636.03 -2.3766 -2.52425 0
M  V30 80244 C 7635.09 -3.60145 -2.33654 0
M  V30 80245 C 7634.33 -3.95013 -3.58888 0
M  V30 80246 O 7634.55 -3.30623 -4.64806 0
M  V30 80247 O 7633.48 -4.88289 -3.51934 0
M  V30 80248 H 7637.31 -2.91147 -0.86412 0
M  V30 80249 H 7634.89 -1.44956 -0.361679 0
M  V30 80250 H 7636.78 -2.62106 -3.29967 0
M  V30 80251 H 7635.45 -1.50705 -2.86478 0
M  V30 80252 H 7634.36 -3.40894 -1.54085 0
M  V30 80253 H 7635.69 -4.47697 -2.0452 0
M  V30 80254 N 7637.34 0.422587 -1.51829 0
M  V30 80255 C 7638.59 1.16778 -1.64456 0
M  V30 80256 C 7638.9 1.91993 -0.373894 0
M  V30 80257 O 7640.11 2.68831 -0.379762 0
M  V30 80258 C 7638.57 2.12458 -2.90499 0
M  V30 80259 C 7638.17 1.42821 -4.24625 0
M  V30 80260 C 7639.92 2.87318 -3.12488 0
M  V30 80261 C 7637.83 2.37071 -5.41804 0
M  V30 80262 H 7636.76 0.439609 -0.612585 0
M  V30 80263 H 7639.41 0.43344 -1.78307 0
M  V30 80264 H 7637.79 2.89388 -2.70316 0
M  V30 80265 H 7638.96 0.71348 -4.55243 0
M  V30 80266 H 7637.28 0.800554 -4.08632 0
M  V30 80267 H 7639.87 3.57952 -3.97208 0
M  V30 80268 H 7640.22 3.49506 -2.26166 0
M  V30 80269 H 7640.75 2.17491 -3.3308 0
M  V30 80270 H 7637.49 1.79551 -6.3043 0
M  V30 80271 H 7637.01 3.06556 -5.15542 0
M  V30 80272 H 7638.69 2.97887 -5.74345 0
M  V30 80273 N 7638.82 1.42224 0.678977 0
M  V30 80274 C 7640.05 1.4586 1.4674 0
M  V30 80275 C 7640.46 0.0686932 1.88675 0
M  V30 80276 O 7639.82 -0.915674 1.57866 0
M  V30 80277 C 7639.87 2.38202 2.71923 0
M  V30 80278 O 7639.59 3.71785 2.31748 0
M  V30 80279 C 7641.09 2.50815 3.65522 0
M  V30 80280 H 7638.31 0.496234 0.451656 0
M  V30 80281 H 7640.86 1.86693 0.834625 0
M  V30 80282 H 7639.01 2.00634 3.31398 0
M  V30 80283 H 7639.43 4.21199 3.12557 0
M  V30 80284 H 7640.9 3.19559 4.50096 0
M  V30 80285 H 7641.38 1.54469 4.1114 0
M  V30 80286 H 7641.98 2.89088 3.11942 0
M  V30 80287 N 7640.3 -0.914875 1.28327 0
M  V30 80288 C 7641.58 -1.64311 1.06119 0
M  V30 80289 C 7641.96 -2.07279 -0.399824 0
M  V30 80290 O 7641.3 -1.8169 -1.38567 0
M  V30 80291 C 7641.51 -2.83546 2.03476 0
M  V30 80292 C 7642.86 -3.54591 2.3356 0
M  V30 80293 O 7643.89 -2.93693 2.01551 0
M  V30 80294 O 7642.74 -4.64341 2.88183 0
M  V30 80295 H 7639.84 -0.720769 0.405489 0
M  V30 80296 H 7642.38 -0.964279 1.39642 0
M  V30 80297 H 7641.16 -2.4888 3.01951 0
M  V30 80298 H 7640.78 -3.59143 1.70593 0
M  V30 80299 N 7641.78 -1.10557 -1.12316 0
M  V30 80300 C 7643.19 -0.866287 -1.65385 0
M  V30 80301 C 7643.54 0.603185 -1.86698 0
M  V30 80302 O 7642.66 1.46314 -1.5944 0
M  V30 80303 C 7643.26 -1.56602 -3.00435 0
M  V30 80304 C 7641.82 -1.37341 -3.50449 0
M  V30 80305 C 7640.97 -1.6146 -2.25446 0
M  V30 80306 H 7643.92 -1.2631 -0.960799 0
M  V30 80307 H 7643.94 -1.00576 -3.66967 0
M  V30 80308 H 7643.45 -2.6355 -2.84891 0
M  V30 80309 H 7641.55 -0.325627 -3.71174 0
M  V30 80310 H 7641.66 -2.11624 -4.29828 0
M  V30 80311 H 7640.03 -1.03741 -2.32615 0
M  V30 80312 H 7640.81 -2.69662 -2.12455 0
M  V30 80313 N 7643.26 1.29755 -0.894503 0
M  V30 80314 C 7644.17 2.3162 -0.372744 0
M  V30 80315 C 7645.18 1.65736 0.529872 0
M  V30 80316 O 7646.36 1.96957 0.420703 0
M  V30 80317 C 7643.42 3.44432 0.395894 0
M  V30 80318 C 7642.48 4.2592 -0.537619 0
M  V30 80319 C 7641.72 5.33346 0.194431 0
M  V30 80320 O 7641.94 5.52464 1.41914 0
M  V30 80321 O 7640.87 6.00137 -0.460371 0
M  V30 80322 H 7644.7 2.78219 -1.21771 0
M  V30 80323 H 7642.28 1.34098 -0.658651 0
M  V30 80324 H 7644.17 4.1313 0.830744 0
M  V30 80325 H 7642.84 2.99951 1.217 0
M  V30 80326 H 7641.75 3.59884 -1.02148 0
M  V30 80327 H 7643.08 4.7403 -1.325 0
M  V30 80328 N 7644.73 0.65644 1.43278 0
M  V30 80329 C 7645.96 0.177354 2.0664 0
M  V30 80330 C 7646.38 -1.14938 1.48899 0
M  V30 80331 O 7645.74 -1.71077 0.60019 0
M  V30 80332 C 7645.79 0.10318 3.60452 0
M  V30 80333 O 7644.89 -0.933683 4.01692 0
M  V30 80334 H 7644.23 0.0963486 0.656973 0
M  V30 80335 H 7646.76 0.900274 1.83729 0
M  V30 80336 H 7646.77 -0.0790759 4.07923 0
M  V30 80337 H 7645.45 1.07168 4.01855 0
M  V30 80338 H 7644.03 -0.723955 3.65805 0
M  V30 80339 N 7646.21 -1.52477 0.398566 0
M  V30 80340 C 7647.46 -2.01693 -0.180645 0
M  V30 80341 C 7647.79 -1.28465 -1.46038 0
M  V30 80342 O 7647.04 -0.376263 -1.92049 0
M  V30 80343 C 7647.34 -3.54084 -0.485722 0
M  V30 80344 C 7647.01 -4.45377 0.703555 0
M  V30 80345 C 7645.67 -4.70052 1.0298 0
M  V30 80346 C 7648.02 -4.99187 1.49874 0
M  V30 80347 C 7645.35 -5.45784 2.1526 0
M  V30 80348 C 7647.7 -5.76147 2.61222 0
M  V30 80349 C 7646.36 -5.99097 2.94344 0
M  V30 80350 H 7645.63 -0.738046 -0.0661028 0
M  V30 80351 H 7648.28 -1.83793 0.537817 0
M  V30 80352 H 7646.59 -3.70107 -1.28562 0
M  V30 80353 H 7648.28 -3.89666 -0.946667 0
M  V30 80354 H 7644.87 -4.26343 0.439287 0
M  V30 80355 H 7649.06 -4.80041 1.25993 0
M  V30 80356 H 7644.31 -5.61777 2.41282 0
M  V30 80357 H 7648.49 -6.16841 3.23233 0
M  V30 80358 H 7646.11 -6.57562 3.81465 0
M  V30 80359 N 7647.69 -0.128663 -1.57074 0
M  V30 80360 C 7648.62 0.814403 -2.18837 0
M  V30 80361 C 7649.6 1.27034 -1.13121 0
M  V30 80362 O 7650.79 1.33121 -1.41394 0
M  V30 80363 C 7647.92 2.06086 -2.79546 0
M  V30 80364 C 7646.87 1.74236 -3.90929 0
M  V30 80365 C 7646.2 3.05992 -4.38489 0
M  V30 80366 C 7647.5 1.00318 -5.12576 0
M  V30 80367 H 7649.19 0.299705 -2.97896 0
M  V30 80368 H 7646.74 0.142714 -1.43291 0
M  V30 80369 H 7648.69 2.72526 -3.21415 0
M  V30 80370 H 7647.41 2.59897 -1.97791 0
M  V30 80371 H 7646.07 1.10182 -3.49651 0
M  V30 80372 H 7645.72 3.57757 -3.5358 0
M  V30 80373 H 7645.42 2.85452 -5.13606 0
M  V30 80374 H 7646.94 3.73534 -4.83016 0
M  V30 80375 H 7648.36 1.5693 -5.51404 0
M  V30 80376 H 7646.75 0.89838 -5.93337 0
M  V30 80377 H 7647.82 -0.0083892 -4.84899 0
M  V30 80378 N 7649.17 1.5693 0.145123 0
M  V30 80379 C 7650.11 1.98407 1.17912 0
M  V30 80380 C 7651.08 0.85196 1.42586 0
M  V30 80381 O 7652.27 1.11417 1.5489 0
M  V30 80382 C 7649.41 2.37141 2.50715 0
M  V30 80383 C 7648.52 3.63651 2.33199 0
M  V30 80384 C 7647.66 3.91481 3.59049 0
M  V30 80385 C 7646.7 5.11255 3.36578 0
M  V30 80386 N 7645.83 5.35085 4.54564 0
M  V30 80387 H 7650.67 2.86541 0.818422 0
M  V30 80388 H 7648.21 1.41762 0.392665 0
M  V30 80389 H 7650.17 2.57628 3.28152 0
M  V30 80390 H 7648.8 1.52084 2.84728 0
M  V30 80391 H 7647.85 3.5093 1.46807 0
M  V30 80392 H 7649.16 4.51245 2.12555 0
M  V30 80393 H 7648.32 4.12476 4.44914 0
M  V30 80394 H 7647.06 3.02313 3.82699 0
M  V30 80395 H 7646.06 4.90131 2.49102 0
M  V30 80396 H 7647.29 6.01977 3.14325 0
M  V30 80397 H 7645.23 4.48872 4.78383 0
M  V30 80398 H 7645.15 6.16951 4.3693 0
M  V30 80399 H 7646.42 5.6058 5.41637 0
M  V30 80400 N 7650.65 -0.414529 1.52051 0
M  V30 80401 C 7651.92 -1.17463 1.56403 0
M  V30 80402 C 7652.3 -2.08314 0.341819 0
M  V30 80403 O 7651.65 -2.18405 -0.671685 0
M  V30 80404 C 7651.86 -1.95663 2.88993 0
M  V30 80405 C 7653.21 -2.51917 3.41794 0
M  V30 80406 O 7654.23 -2.05849 2.90697 0
M  V30 80407 O 7653.09 -3.35999 4.31007 0
M  V30 80408 H 7650.19 -0.536023 0.629768 0
M  V30 80409 H 7652.73 -0.421747 1.64376 0
M  V30 80410 H 7651.5 -1.29075 3.69399 0
M  V30 80411 H 7651.13 -2.77968 2.84288 0
M  V30 80412 N 7652.12 -1.42582 -0.671425 0
M  V30 80413 C 7653.05 -1.49116 -1.79685 0
M  V30 80414 C 7654.03 -0.347426 -1.66514 0
M  V30 80415 O 7655.22 -0.562192 -1.85884 0
M  V30 80416 C 7652.35 -1.39613 -3.18002 0
M  V30 80417 C 7651.3 -2.52049 -3.45913 0
M  V30 80418 C 7650.63 -2.27602 -4.8384 0
M  V30 80419 C 7651.93 -3.94351 -3.42469 0
M  V30 80420 H 7653.62 -2.43309 -1.74473 0
M  V30 80421 H 7651.17 -1.17106 -0.83798 0
M  V30 80422 H 7653.12 -1.42792 -3.9647 0
M  V30 80423 H 7651.85 -0.41916 -3.23899 0
M  V30 80424 H 7650.51 -2.48193 -2.69807 0
M  V30 80425 H 7650.15 -1.28191 -4.86391 0
M  V30 80426 H 7649.85 -3.0296 -5.03477 0
M  V30 80427 H 7651.38 -2.32536 -5.64588 0
M  V30 80428 H 7652.79 -3.99792 -4.10901 0
M  V30 80429 H 7651.19 -4.69587 -3.73641 0
M  V30 80430 H 7652.26 -4.20781 -2.4098 0
M  V30 80431 N 7653.6 0.908056 -1.2881 0
M  V30 80432 C 7654.53 2.0278 -1.15768 0
M  V30 80433 C 7655.51 1.70014 -0.0540006 0
M  V30 80434 O 7656.7 1.92809 -0.232002 0
M  V30 80435 C 7653.83 3.37366 -0.824704 0
M  V30 80436 C 7652.78 3.84314 -1.88379 0
M  V30 80437 C 7652.11 5.1593 -1.40431 0
M  V30 80438 C 7653.41 4.0555 -3.2913 0
M  V30 80439 H 7655.1 2.1395 -2.09442 0
M  V30 80440 H 7652.65 1.02801 -1.00836 0
M  V30 80441 H 7654.6 4.152 -0.720209 0
M  V30 80442 H 7653.32 3.26266 0.14773 0
M  V30 80443 H 7651.98 3.0869 -1.97752 0
M  V30 80444 H 7651.63 5.01237 -0.420779 0
M  V30 80445 H 7651.33 5.48312 -2.11253 0
M  V30 80446 H 7652.86 5.96313 -1.31315 0
M  V30 80447 H 7654.27 4.73891 -3.22645 0
M  V30 80448 H 7652.67 4.49273 -3.97836 0
M  V30 80449 H 7653.74 3.10167 -3.72726 0
M  V30 80450 N 7655.08 1.11151 1.11728 0
M  V30 80451 C 7656.03 0.762098 2.19761 0
M  V30 80452 C 7657.02 -0.245092 1.67618 0
M  V30 80453 O 7658.23 -0.104686 1.79695 0
M  V30 80454 H 7654.6 0.22855 0.716428 0
M  V30 80455 H 7656.57 1.68196 2.46481 0
M  V30 80456 C 7655.32 0.21824 3.47014 0
M  V30 80457 H 7654.65 0.984503 3.87489 0
M  V30 80458 H 7656.09 0.0119061 4.23998 0
M  V30 80459 C 7654.54 -1.05079 3.20094 0
M  V30 80460 O 7655.07 -2.13102 3.40515 0
M  V30 80461 N 7653.28 -0.972378 2.73849 0
M  V30 80462 H 7652.83 -0.0932101 2.57431 0
M  V30 80463 H 7652.79 -1.82215 2.56213 0
M  V30 80464 N 7656.56 -1.29279 0.901372 0
M  V30 80465 C 7657.78 -2.00168 0.542928 0
M  V30 80466 C 7658.21 -1.67005 -0.865495 0
M  V30 80467 O 7657.57 -0.895585 -1.57636 0
M  V30 80468 C 7657.61 -3.52838 0.744173 0
M  V30 80469 O 7656.72 -4.11902 -0.202554 0
M  V30 80470 H 7656.06 -0.629269 0.211936 0
M  V30 80471 H 7658.59 -1.64734 1.21342 0
M  V30 80472 H 7658.6 -4.02798 0.649472 0
M  V30 80473 H 7657.27 -3.7631 1.77097 0
M  V30 80474 H 7655.85 -3.72851 -0.0601671 0
M  V30 80475 N 7658.04 -0.664029 -1.42928 0
M  V30 80476 C 7659.28 -0.182114 -2.01981 0
M  V30 80477 C 7659.62 1.20455 -1.52329 0
M  V30 80478 O 7658.89 1.80646 -0.720929 0
M  V30 80479 C 7659.17 -0.204861 -3.59517 0
M  V30 80480 C 7659.03 -1.62621 -4.19374 0
M  V30 80481 C 7660.35 0.452849 -4.37764 0
M  V30 80482 H 7657.46 -0.0676502 -0.733889 0
M  V30 80483 H 7660.11 -0.84677 -1.70088 0
M  V30 80484 H 7658.26 0.361091 -3.86818 0
M  V30 80485 H 7659.93 -2.24359 -4.03064 0
M  V30 80486 H 7658.17 -2.17021 -3.75612 0
M  V30 80487 H 7658.84 -1.5939 -5.28487 0
M  V30 80488 H 7661.32 -0.0287968 -4.1609 0
M  V30 80489 H 7660.19 0.406249 -5.47395 0
M  V30 80490 H 7660.46 1.52873 -4.14828 0
M  V30 80491 N 7659.51 1.52263 -0.406647 0
M  V30 80492 C 7660.93 1.86592 0.0635086 0
M  V30 80493 C 7661.28 1.32552 1.44653 0
M  V30 80494 O 7660.4 0.6638 2.05968 0
M  V30 80495 C 7661 3.3858 0.122019 0
M  V30 80496 C 7659.56 3.72557 0.536505 0
M  V30 80497 C 7658.7 2.75773 -0.290567 0
M  V30 80498 H 7661.65 1.45925 -0.623815 0
M  V30 80499 H 7661.67 3.68763 0.93777 0
M  V30 80500 H 7661.19 3.77882 -0.884694 0
M  V30 80501 H 7659.29 3.38832 1.54995 0
M  V30 80502 H 7659.4 4.78266 0.282615 0
M  V30 80503 H 7657.76 2.53502 0.24673 0
M  V30 80504 H 7658.55 3.17914 -1.29558 0
M  V30 80505 O 7661.03 0.277643 1.59096 0
M  V30 80506 H 7661.72 -0.291811 1.91489 0
M  V30 END ATOM
M  V30 BEGIN BOND
M  V30 END BOND
M  V30 END CTAB
M  END
$$$$
