drugbank_target|Q08881 Tyrosine-protein kinase ITK/TSK (DB02010; DB06589; DB12010; DB15035)
 OpenBabel12092119523D

  0  0  0     0  0            999 V3000
M  V30 BEGIN CTAB
M  V30 COUNTS 10037 10166 0 0 0
M  V30 BEGIN ATOM
M  V30 1 H -0.908 1.98254 -0.117106 0
M  V30 2 N 0 1.576 0 0
M  V30 3 C 0.933 2.03868 1.02534 0
M  V30 4 C 1.911 0.928543 1.3348 0
M  V30 5 O 3.095 1.19667 1.45644 0
M  V30 6 C 0.222 2.43627 2.35294 0
M  V30 7 C -0.732 3.65373 2.2001 0
M  V30 8 S 0.101 5.13292 1.52614 0
M  V30 9 C 1.257 5.56322 2.86805 0
M  V30 10 H 1.49 2.90518 0.631377 0
M  V30 11 H -0.977 1.52953 0.210867 0
M  V30 12 H 0.981 2.67203 3.11629 0
M  V30 13 H -0.358 1.57376 2.7183 0
M  V30 14 H -1.165 3.90944 3.18086 0
M  V30 15 H -1.563 3.418 1.51819 0
M  V30 16 H 0.729 5.58782 3.83104 0
M  V30 17 H 1.672 6.56266 2.65933 0
M  V30 18 H 2.08 4.83886 2.90714 0
M  V30 19 N 1.4781 -0.272755 1.55222 0
M  V30 20 C 2.4261 -1.35705 1.88909 0
M  V30 21 C 3.4201 -1.5112 0.765456 0
M  V30 22 O 4.6261 -1.52901 0.949802 0
M  V30 23 H 1.0011 -0.453868 0.59959 0
M  V30 24 H 2.9721 -1.04544 2.79487 0
M  V30 25 C 1.7211 -2.71049 2.17779 0
M  V30 26 H 1.0441 -2.59979 3.03728 0
M  V30 27 H 2.4841 -3.45858 2.45272 0
M  V30 28 C 0.9431 -3.22165 0.985473 0
M  V30 29 O 1.4731 -4.01096 0.220233 0
M  V30 30 N -0.3209 -2.7985 0.783108 0
M  V30 31 H -0.7739 -2.15775 1.40708 0
M  V30 32 H -0.8159 -3.14397 -0.0130392 0
M  V30 33 N 2.9562 -1.48159 -0.537278 0
M  V30 34 C 3.9042 -1.62573 -1.66352 0
M  V30 35 C 4.8982 -0.492366 -1.62087 0
M  V30 36 O 6.1042 -0.670847 -1.67032 0
M  V30 37 H 2.4792 -0.511992 -0.550789 0
M  V30 38 H 4.4502 -2.57176 -1.51337 0
M  V30 39 C 3.1992 -1.67583 -3.04649 0
M  V30 40 H 2.5222 -2.54151 -3.08622 0
M  V30 41 H 3.9622 -1.81713 -3.83088 0
M  V30 42 C 2.4212 -0.413039 -3.34358 0
M  V30 43 O 2.9512 0.477259 -3.98855 0
M  V30 44 N 1.1572 -0.286961 -2.8918 0
M  V30 45 H 0.7042 -1.01241 -2.36871 0
M  V30 46 H 0.6622 0.556963 -3.09427 0
M  V30 47 N 4.4343 0.785586 -1.36625 0
M  V30 48 C 5.6813 1.54362 -1.31067 0
M  V30 49 C 6.0093 1.94195 0.10893 0
M  V30 50 O 5.2643 1.63262 1.07908 0
M  V30 51 C 5.5633 2.83007 -2.1827 0
M  V30 52 C 5.2293 2.62294 -3.6676 0
M  V30 53 C 3.8913 2.56353 -4.0723 0
M  V30 54 C 6.2433 2.43371 -4.6089 0
M  V30 55 C 3.5713 2.29461 -5.39967 0
M  V30 56 C 5.9233 2.18005 -5.93849 0
M  V30 57 C 4.5873 2.105 -6.3344 0
M  V30 58 H 3.8573 0.564851 -0.479609 0
M  V30 59 H 6.5043 0.906028 -1.68711 0
M  V30 60 H 4.8093 3.51253 -1.73576 0
M  V30 61 H 6.5063 3.40817 -2.11292 0
M  V30 62 H 3.0963 2.67774 -3.34656 0
M  V30 63 H 7.2803 2.46959 -4.30494 0
M  V30 64 H 2.5363 2.22135 -5.69619 0
M  V30 65 H 6.7103 2.02359 -6.66351 0
M  V30 66 H 4.3373 1.89425 -7.36222 0
M  V30 67 N 5.9124 1.20967 1.01018 0
M  V30 68 C 7.1614 1.01796 1.74128 0
M  V30 69 C 7.4744 -0.449691 1.90361 0
M  V30 70 O 8.6804 -0.76068 2.60626 0
M  V30 71 C 7.1364 1.7727 3.13215 0
M  V30 72 C 6.7444 3.28171 3.04972 0
M  V30 73 C 8.4884 1.66489 3.90489 0
M  V30 74 C 6.3954 3.96156 4.39107 0
M  V30 75 H 5.3254 0.377276 0.652824 0
M  V30 76 H 7.9764 1.44651 1.12909 0
M  V30 77 H 6.3584 1.27205 3.75013 0
M  V30 78 H 7.5324 3.85499 2.52443 0
M  V30 79 H 5.8474 3.39437 2.41188 0
M  V30 80 H 8.4444 2.14617 4.89738 0
M  V30 81 H 8.7874 0.6222 4.11624 0
M  V30 82 H 9.3204 2.14003 3.35332 0
M  V30 83 H 6.0594 5.00604 4.23174 0
M  V30 84 H 5.5794 3.43617 4.91617 0
M  V30 85 H 7.2584 4.00774 5.07926 0
M  V30 86 N 7.3905 -1.2043 1.01659 0
M  V30 87 C 8.3205 -2.25466 0.607226 0
M  V30 88 C 9.3015 -1.65853 -0.377716 0
M  V30 89 O 10.4865 -1.92409 -0.263149 0
M  V30 90 C 7.6165 -3.47256 -0.0552949 0
M  V30 91 C 6.5705 -4.19462 0.850632 0
M  V30 92 C 5.8965 -5.34673 0.0538859 0
M  V30 93 C 7.1965 -4.75603 2.15868 0
M  V30 94 H 8.8905 -2.59962 1.48526 0
M  V30 95 H 6.4365 -1.2496 0.715605 0
M  V30 96 H 8.3895 -4.19917 -0.353233 0
M  V30 97 H 7.1135 -3.11924 -0.968045 0
M  V30 98 H 5.7725 -3.48667 1.13257 0
M  V30 99 H 5.4205 -4.95585 -0.860514 0
M  V30 100 H 5.1205 -5.83913 0.657192 0
M  V30 101 H 6.6445 -6.10138 -0.237598 0
M  V30 102 H 8.0585 -5.40083 1.92311 0
M  V30 103 H 6.4555 -5.3528 2.71284 0
M  V30 104 H 7.5255 -3.94346 2.82169 0
M  V30 105 N 8.8686 -0.792821 -1.36206 0
M  V30 106 C 9.7986 -0.207853 -2.32573 0
M  V30 107 C 10.7796 0.659055 -1.56813 0
M  V30 108 O 11.9646 0.592176 -1.84951 0
M  V30 109 C 9.0946 0.655449 -3.41059 0
M  V30 110 C 8.0486 -0.111842 -4.27854 0
M  V30 111 C 7.3746 0.872274 -5.27537 0
M  V30 112 C 8.6746 -1.30299 -5.05786 0
M  V30 113 H 10.3686 -1.01294 -2.81744 0
M  V30 114 H 7.9146 -0.48854 -1.3546 0
M  V30 115 H 9.8676 1.07464 -4.07467 0
M  V30 116 H 8.5916 1.49328 -2.90463 0
M  V30 117 H 7.2506 -0.512053 -3.63006 0
M  V30 118 H 6.8986 1.70523 -4.73214 0
M  V30 119 H 6.5986 0.363291 -5.86476 0
M  V30 120 H 8.1226 1.28996 -5.96818 0
M  V30 121 H 9.5366 -0.959379 -5.65216 0
M  V30 122 H 7.9336 -1.7455 -5.74154 0
M  V30 123 H 9.0036 -2.09663 -4.37229 0
M  V30 124 N 10.3467 1.47872 -0.545128 0
M  V30 125 C 11.2567 2.33633 0.212746 0
M  V30 126 C 12.2727 1.4744 0.923983 0
M  V30 127 O 13.4487 1.80393 0.895572 0
M  V30 128 C 10.5137 3.23884 1.23693 0
M  V30 129 C 9.5747 4.25961 0.534417 0
M  V30 130 C 8.8077 5.11899 1.5098 0
M  V30 131 O 9.0307 5.00077 2.7437 0
M  V30 132 O 7.9647 5.92831 1.0409 0
M  V30 133 H 11.7907 2.99714 -0.490416 0
M  V30 134 H 9.3757 1.46235 -0.305871 0
M  V30 135 H 11.2577 3.79666 1.82843 0
M  V30 136 H 9.9327 2.60446 1.92222 0
M  V30 137 H 8.8397 3.73972 -0.0979679 0
M  V30 138 H 10.1727 4.92079 -0.109213 0
M  V30 139 N 11.8248 0.280983 1.55075 0
M  V30 140 C 12.7348 -0.61388 2.26426 0
M  V30 141 C 13.7508 -1.16521 1.29224 0
M  V30 142 O 14.9268 -1.19426 1.62171 0
M  V30 143 C 11.9918 -1.7788 2.9759 0
M  V30 144 C 11.0528 -1.26355 4.10284 0
M  V30 145 C 10.2858 -2.37295 4.78045 0
M  V30 146 O 10.5088 -3.56777 4.45047 0
M  V30 147 O 9.4428 -2.05119 5.65871 0
M  V30 148 H 13.2688 -0.0356932 3.03679 0
M  V30 149 H 10.8538 0.0481686 1.49322 0
M  V30 150 H 12.7358 -2.45791 3.42293 0
M  V30 151 H 11.4108 -2.34397 2.23249 0
M  V30 152 H 10.3178 -0.550735 3.70024 0
M  V30 153 H 11.6508 -0.744065 4.86543 0
M  V30 154 N 13.3029 -1.57598 0.00835791 0
M  V30 155 C 14.2349 -2.05811 -1.00868 0
M  V30 156 C 15.2479 -0.977579 -1.30182 0
M  V30 157 O 16.4369 -1.25421 -1.27011 0
M  V30 158 C 13.5369 -2.45016 -2.34137 0
M  V30 159 C 12.7099 -3.75903 -2.23643 0
M  V30 160 C 11.7689 -4.01884 -3.3967 0
M  V30 161 O 10.7949 -4.72433 -3.17483 0
M  V30 162 N 11.9969 -3.50432 -4.62793 0
M  V30 163 H 14.7619 -2.93684 -0.597458 0
M  V30 164 H 12.3229 -1.60909 -0.178852 0
M  V30 165 H 14.3149 -2.59506 -3.10546 0
M  V30 166 H 12.8849 -1.62618 -2.66972 0
M  V30 167 H 12.1049 -3.7141 -1.32091 0
M  V30 168 H 13.3929 -4.61695 -2.13812 0
M  V30 169 H 12.7909 -2.93317 -4.83716 0
M  V30 170 H 11.3479 -3.70236 -5.3644 0
M  V30 171 N 14.781 0.264519 -1.55364 0
M  V30 172 C 15.711 1.33121 -1.91836 0
M  V30 173 C 16.692 1.51101 -0.781192 0
M  V30 174 O 17.877 1.64003 -1.04003 0
M  V30 175 C 15.007 2.68921 -2.19769 0
M  V30 176 C 13.961 2.65661 -3.35571 0
M  V30 177 C 13.287 4.05093 -3.49004 0
M  V30 178 C 14.587 2.24187 -4.71739 0
M  V30 179 H 16.281 1.02844 -2.81182 0
M  V30 180 H 13.827 0.493286 -1.35287 0
M  V30 181 H 15.78 3.43663 -2.43872 0
M  V30 182 H 14.504 3.00799 -1.27231 0
M  V30 183 H 13.163 1.93377 -3.1145 0
M  V30 184 H 12.811 4.34206 -2.53917 0
M  V30 185 H 12.511 4.03804 -4.26868 0
M  V30 186 H 14.035 4.81561 -3.75408 0
M  V30 187 H 15.449 2.88654 -4.9533 0
M  V30 188 H 13.846 2.34044 -5.52579 0
M  V30 189 H 14.916 1.19327 -4.69988 0
M  V30 190 N 16.2591 1.48442 0.529413 0
M  V30 191 C 17.5081 1.55742 1.28169 0
M  V30 192 C 17.8211 0.236511 1.94165 0
M  V30 193 O 19.0271 0.187761 2.7085 0
M  V30 194 C 17.4831 2.74667 2.32564 0
M  V30 195 C 17.0911 4.13402 1.72636 0
M  V30 196 C 18.8351 2.9128 3.08798 0
M  V30 197 C 16.7421 5.23587 2.74975 0
M  V30 198 H 15.6721 0.579796 0.48203 0
M  V30 199 H 18.3231 1.74776 0.559056 0
M  V30 200 H 16.7051 2.49067 3.07866 0
M  V30 201 H 17.8791 4.49022 1.03519 0
M  V30 202 H 16.1941 4.0191 1.08892 0
M  V30 203 H 18.7911 3.70767 3.85274 0
M  V30 204 H 19.1341 2.00757 3.64695 0
M  V30 205 H 19.6671 3.16782 2.40611 0
M  V30 206 H 16.4061 6.16076 2.23897 0
M  V30 207 H 15.9261 4.92454 3.42417 0
M  V30 208 H 17.6051 5.51724 3.37949 0
M  V30 209 N 17.7372 -0.778329 1.37039 0
M  V30 210 C 18.6842 -1.89139 1.32269 0
M  V30 211 C 19.6542 -1.65017 0.189387 0
M  V30 212 O 20.8392 -1.87024 0.377693 0
M  V30 213 C 17.9792 -3.26112 1.12894 0
M  V30 214 C 17.0922 -3.62233 2.35396 0
M  V30 215 C 16.2272 -4.8838 2.08946 0
M  V30 216 C 15.2662 -5.17212 3.2735 0
M  V30 217 N 14.4032 -6.34546 3.00492 0
M  V30 218 H 19.2432 -1.92552 2.27437 0
M  V30 219 H 16.7802 -0.941473 1.13025 0
M  V30 220 H 18.7382 -4.05116 0.996835 0
M  V30 221 H 17.3682 -3.22091 0.213758 0
M  V30 222 H 16.4202 -2.78265 2.5937 0
M  V30 223 H 17.7322 -3.79481 3.23721 0
M  V30 224 H 16.8862 -5.75274 1.92729 0
M  V30 225 H 15.6252 -4.73222 1.17949 0
M  V30 226 H 14.6302 -4.28796 3.44113 0
M  V30 227 H 15.8552 -5.34283 4.19188 0
M  V30 228 H 13.8012 -6.20759 2.12118 0
M  V30 229 H 13.7182 -6.52179 3.82358 0
M  V30 230 H 14.9862 -7.24394 2.87879 0
M  V30 231 N 19.2153 -1.21501 -1.00376 0
M  V30 232 C 20.1623 -0.975387 -2.09177 0
M  V30 233 C 21.1323 0.0990615 -1.65804 0
M  V30 234 O 22.3173 -0.0483147 -1.90739 0
M  V30 235 C 19.4573 -0.547507 -3.40729 0
M  V30 236 C 18.5703 -1.69153 -3.97506 0
M  V30 237 C 17.7053 -1.2127 -5.17172 0
M  V30 238 C 16.7443 -2.32897 -5.66061 0
M  V30 239 N 15.8813 -1.86138 -6.76976 0
M  V30 240 H 20.7213 -1.9068 -2.29009 0
M  V30 241 H 18.2583 -0.950257 -1.12288 0
M  V30 242 H 20.2163 -0.280667 -4.16255 0
M  V30 243 H 18.8463 0.346904 -3.20931 0
M  V30 244 H 17.8983 -2.07298 -3.18954 0
M  V30 245 H 19.2103 -2.5316 -4.29781 0
M  V30 246 H 18.3643 -0.902591 -5.99948 0
M  V30 247 H 17.1033 -0.342692 -4.86495 0
M  V30 248 H 16.1083 -2.64709 -4.81881 0
M  V30 249 H 17.3333 -3.20396 -5.98768 0
M  V30 250 H 15.2793 -1.01484 -6.48103 0
M  V30 251 H 15.1963 -2.63717 -7.08512 0
M  V30 252 H 16.4643 -1.58165 -7.63285 0
M  V30 253 N 20.6934 1.19889 -1.02296 0
M  V30 254 C 21.9184 1.9393 -0.735237 0
M  V30 255 C 22.3434 1.74639 0.698782 0
M  V30 256 O 21.7014 1.04481 1.48167 0
M  V30 257 C 21.7494 3.43916 -1.08417 0
M  V30 258 O 20.8534 4.11917 -0.199446 0
M  V30 259 H 20.1944 0.605645 -0.272196 0
M  V30 260 H 22.7244 1.52137 -1.36804 0
M  V30 261 H 22.7344 3.9456 -1.03856 0
M  V30 262 H 21.4094 3.5728 -2.12894 0
M  V30 263 H 19.9864 3.71666 -0.303136 0
M  V30 264 N 22.1715 0.800033 1.35784 0
M  V30 265 C 23.1035 0.163596 2.28615 0
M  V30 266 C 24.1165 -0.633317 1.49976 0
M  V30 267 O 25.3055 -0.466754 1.72289 0
M  V30 268 C 22.4055 -0.790958 3.29541 0
M  V30 269 C 21.5785 -0.0418255 4.3738 0
M  V30 270 C 20.6375 -0.91389 5.18203 0
M  V30 271 O 19.6635 -0.367234 5.68014 0
M  V30 272 N 20.8655 -2.23682 5.35674 0
M  V30 273 H 23.6305 0.96105 2.83873 0
M  V30 274 H 21.1915 0.654894 1.48063 0
M  V30 275 H 23.1835 -1.37844 3.80501 0
M  V30 276 H 21.7535 -1.48925 2.74846 0
M  V30 277 H 20.9735 0.726813 3.87442 0
M  V30 278 H 22.2615 0.474719 5.06581 0
M  V30 279 H 21.6595 -2.70497 4.96838 0
M  V30 280 H 20.2165 -2.77369 5.89839 0
M  V30 281 N 23.6496 -1.47581 0.552962 0
M  V30 282 C 24.5816 -2.27997 -0.234533 0
M  V30 283 C 25.5946 -1.36753 -0.883321 0
M  V30 284 O 26.7836 -1.61612 -0.757889 0
M  V30 285 C 23.8836 -3.10879 -1.34935 0
M  V30 286 C 23.0566 -4.30056 -0.798158 0
M  V30 287 C 22.1156 -4.94567 -1.79694 0
M  V30 288 O 21.1416 -5.53087 -1.34474 0
M  V30 289 N 22.3436 -4.88878 -3.13015 0
M  V30 290 H 25.1086 -2.96222 0.455255 0
M  V30 291 H 22.6696 -1.57163 0.388761 0
M  V30 292 H 24.6616 -3.50903 -2.01616 0
M  V30 293 H 23.2316 -2.44924 -1.94244 0
M  V30 294 H 22.4516 -3.94174 0.0453079 0
M  V30 295 H 23.7396 -5.07152 -0.409173 0
M  V30 296 H 23.1376 -4.42526 -3.52402 0
M  V30 297 H 21.6946 -5.32934 -3.75266 0
M  V30 298 N 25.1277 -0.289203 -1.54924 0
M  V30 299 C 26.0747 0.592115 -2.23075 0
M  V30 300 C 27.0447 1.13881 -1.20915 0
M  V30 301 O 28.2297 1.18551 -1.495 0
M  V30 302 C 25.3697 1.76376 -2.96623 0
M  V30 303 C 24.4827 1.24959 -4.13533 0
M  V30 304 C 23.6177 2.38416 -4.74691 0
M  V30 305 C 22.6567 1.84072 -5.83767 0
M  V30 306 N 21.7937 2.91057 -6.38929 0
M  V30 307 H 26.6337 0.00432038 -2.98 0
M  V30 308 H 24.1707 -0.00963529 -1.47097 0
M  V30 309 H 26.1287 2.45268 -3.3749 0
M  V30 310 H 24.7587 2.32337 -2.24097 0
M  V30 311 H 23.8107 0.453307 -3.77689 0
M  V30 312 H 25.1227 0.811662 -4.92152 0
M  V30 313 H 24.2767 3.15276 -5.18349 0
M  V30 314 H 23.0157 2.8553 -3.95378 0
M  V30 315 H 22.0207 1.05697 -5.39545 0
M  V30 316 H 23.2457 1.37877 -6.64956 0
M  V30 317 H 21.1917 3.37526 -5.62505 0
M  V30 318 H 21.1087 2.51724 -7.12861 0
M  V30 319 H 22.3767 3.6785 -6.87246 0
M  V30 320 N 26.6058 1.57591 -0.0167156 0
M  V30 321 C 28.0218 1.55946 0.339557 0
M  V30 322 C 28.2218 1.02109 1.73713 0
M  V30 323 O 27.2778 0.662303 2.43659 0
M  V30 324 C 28.5908 3.00037 0.199499 0
M  V30 325 C 30.1388 3.11805 0.273193 0
M  V30 326 C 30.6138 4.57713 0.162068 0
M  V30 327 N 32.1048 4.6268 0.219444 0
M  V30 328 C 32.8398 5.73185 0.157054 0
M  V30 329 N 32.3358 6.92786 0.0442936 0
M  V30 330 N 34.1288 5.61707 0.21014 0
M  V30 331 H 26.2798 1.90921 -0.930758 0
M  V30 332 H 28.5428 0.877674 -0.358319 0
M  V30 333 H 28.2488 3.4333 -0.76273 0
M  V30 334 H 28.1228 3.64387 0.974786 0
M  V30 335 H 30.5098 2.68433 1.22587 0
M  V30 336 H 30.5908 2.50201 -0.532256 0
M  V30 337 H 30.2348 5.01763 -0.78714 0
M  V30 338 H 30.1648 5.17283 0.986222 0
M  V30 339 H 32.6558 3.76649 0.307246 0
M  V30 340 H 32.9688 7.728 0.00304069 0
M  V30 341 H 31.3138 6.94999 0.00968457 0
M  V30 342 H 34.5048 4.6716 0.296546 0
M  V30 343 H 34.6778 6.47807 0.158054 0
M  V30 344 N 28.0839 -0.256276 1.55502 0
M  V30 345 C 29.4999 -0.604325 1.47716 0
M  V30 346 C 29.6999 -1.88763 0.705039 0
M  V30 347 O 28.7559 -2.51445 0.230613 0
M  V30 348 C 30.0689 -0.715756 2.92057 0
M  V30 349 C 31.6169 -0.808706 3.02372 0
M  V30 350 C 32.0919 -0.951777 4.48001 0
M  V30 351 N 33.5829 -1.01688 4.519 0
M  V30 352 C 34.3179 -1.14668 5.61817 0
M  V30 353 N 33.8139 -1.24261 6.81565 0
M  V30 354 N 35.6069 -1.1791 5.49594 0
M  V30 355 H 27.7579 0.586291 2.04148 0
M  V30 356 H 30.0209 0.201015 0.926443 0
M  V30 357 H 29.7269 0.157027 3.51349 0
M  V30 358 H 29.6009 -1.59071 3.42018 0
M  V30 359 H 31.9879 -1.67195 2.43166 0
M  V30 360 H 32.0689 0.0912063 2.55637 0
M  V30 361 H 31.7129 -0.0931291 5.07815 0
M  V30 362 H 31.6429 -1.86659 4.92408 0
M  V30 363 H 34.1339 -0.954468 3.65648 0
M  V30 364 H 34.4469 -1.34046 7.61086 0
M  V30 365 H 32.7919 -1.21236 6.84344 0
M  V30 366 H 35.9829 -1.10057 4.54978 0
M  V30 367 H 36.1559 -1.27681 6.35296 0
M  V30 368 N 29.562 -1.4872 -0.521534 0
M  V30 369 C 30.79 -1.60843 -1.30142 0
M  V30 370 C 31.205 -0.271897 -1.86832 0
M  V30 371 O 30.562 0.739969 -1.66825 0
M  V30 372 C 30.613 -2.66155 -2.4463 0
M  V30 373 O 30.334 -3.94623 -1.90275 0
M  V30 374 C 31.835 -2.88795 -3.36322 0
M  V30 375 H 29.055 -0.542075 -0.395468 0
M  V30 376 H 31.599 -1.94609 -0.628285 0
M  V30 377 H 29.754 -2.35224 -3.07812 0
M  V30 378 H 30.168 -4.52468 -2.65279 0
M  V30 379 H 31.642 -3.66264 -4.12983 0
M  V30 380 H 32.119 -1.97934 -3.9207 0
M  V30 381 H 32.725 -3.21063 -2.78924 0
M  V30 382 N 31.0401 0.771051 -1.3745 0
M  V30 383 C 32.2651 1.56529 -1.36065 0
M  V30 384 C 32.6901 1.88029 0.0515859 0
M  V30 385 O 32.0481 1.49282 1.02882 0
M  V30 386 C 32.0961 2.85187 -2.20683 0
M  V30 387 O 31.2001 3.79593 -1.61193 0
M  V30 388 H 30.5411 0.47411 -0.464883 0
M  V30 389 H 33.0711 0.954269 -1.80983 0
M  V30 390 H 33.0811 3.34283 -2.33921 0
M  V30 391 H 31.7561 2.61588 -3.23334 0
M  V30 392 H 30.3331 3.38239 -1.56999 0
M  V30 393 N 32.5182 1.22032 0.997298 0
M  V30 394 C 33.9292 1.0397 1.55071 0
M  V30 395 C 34.2802 -0.398192 1.92117 0
M  V30 396 O 33.4052 -1.28254 1.74298 0
M  V30 397 C 34.0002 1.88109 2.81781 0
M  V30 398 C 32.5592 1.74357 3.33581 0
M  V30 399 C 31.7062 1.84846 2.06706 0
M  V30 400 H 34.6572 1.35941 0.818883 0
M  V30 401 H 34.6782 1.39589 3.53971 0
M  V30 402 H 34.1902 2.92754 2.54787 0
M  V30 403 H 32.2912 0.72427 3.65493 0
M  V30 404 H 32.4042 2.56772 4.04481 0
M  V30 405 H 30.7682 1.28238 2.20062 0
M  V30 406 H 31.5512 2.91014 1.82114 0
M  V30 407 N 33.9963 -1.19345 1.0293 0
M  V30 408 C 35.2213 -1.93538 0.745511 0
M  V30 409 C 35.6463 -1.75007 -0.689511 0
M  V30 410 O 35.0043 -1.05265 -1.47611 0
M  V30 411 C 35.0523 -3.43336 1.10239 0
M  V30 412 O 34.1563 -4.11806 0.221289 0
M  V30 413 H 33.4973 -0.604193 0.275404 0
M  V30 414 H 36.0273 -1.5141 1.37609 0
M  V30 415 H 36.0373 -3.94004 1.05947 0
M  V30 416 H 34.7123 -3.56146 2.14786 0
M  V30 417 H 33.2893 -3.715 0.322842 0
M  V30 418 N 35.4744 -0.807222 -1.35358 0
M  V30 419 C 36.4224 -0.20614 -2.31685 0
M  V30 420 C 37.4164 0.644445 -1.56663 0
M  V30 421 O 38.6224 0.537538 -1.71786 0
M  V30 422 H 34.9974 -0.0479006 -0.750473 0
M  V30 423 H 36.9684 -1.03369 -2.79924 0
M  V30 424 C 35.7174 0.630212 -3.41941 0
M  V30 425 H 35.0404 -0.0149558 -3.99797 0
M  V30 426 H 36.4804 1.01716 -4.11619 0
M  V30 427 C 34.9394 1.79601 -2.85035 0
M  V30 428 O 35.4694 2.89351 -2.78637 0
M  V30 429 N 33.6754 1.60774 -2.42074 0
M  V30 430 H 33.2224 0.715009 -2.47478 0
M  V30 431 H 33.1804 2.38933 -2.04349 0
M  V30 432 N 36.9525 1.47285 -0.560781 0
M  V30 433 C 38.1995 2.02464 -0.038062 0
M  V30 434 C 38.5275 1.43474 1.31322 0
M  V30 435 O 37.7825 0.581311 1.86867 0
M  V30 436 C 38.0815 3.57258 0.100784 0
M  V30 437 C 37.7475 4.35184 -1.18007 0
M  V30 438 C 36.4095 4.56194 -1.53103 0
M  V30 439 C 38.7615 4.80098 -2.02867 0
M  V30 440 C 36.0895 5.19367 -2.729 0
M  V30 441 C 38.4415 5.44593 -3.21871 0
M  V30 442 C 37.1055 5.63835 -3.57276 0
M  V30 443 H 36.3755 0.740869 -0.0139279 0
M  V30 444 H 39.0225 1.76916 -0.733012 0
M  V30 445 H 37.3275 3.81819 0.878724 0
M  V30 446 H 39.0245 3.97606 0.520639 0
M  V30 447 H 35.6145 4.19113 -0.8968 0
M  V30 448 H 39.7985 4.63642 -1.7706 0
M  V30 449 H 35.0545 5.32459 -3.00496 0
M  V30 450 H 39.2285 5.78358 -3.87911 0
M  V30 451 H 36.8555 6.12557 -4.50197 0
M  V30 452 N 38.4306 0.297415 1.54768 0
M  V30 453 C 39.3776 -0.580276 2.23386 0
M  V30 454 C 40.3476 -1.13238 1.21517 0
M  V30 455 O 41.5326 -1.17757 1.50126 0
M  V30 456 C 38.6726 -1.74801 2.97555 0
M  V30 457 C 37.7856 -1.22764 4.1419 0
M  V30 458 C 36.9206 -2.35895 4.75949 0
M  V30 459 C 35.9596 -1.80974 5.84735 0
M  V30 460 N 35.0966 -2.87664 6.40464 0
M  V30 461 H 39.9366 0.0114833 2.97998 0
M  V30 462 H 37.4736 0.0174361 1.4709 0
M  V30 463 H 39.4316 -2.43475 3.38786 0
M  V30 464 H 38.0616 -2.31145 2.25326 0
M  V30 465 H 37.1136 -0.433271 3.77924 0
M  V30 466 H 38.4256 -0.785551 4.92575 0
M  V30 467 H 37.5796 -3.12523 5.20014 0
M  V30 468 H 36.3186 -2.83429 3.96887 0
M  V30 469 H 35.3236 -1.02834 5.40097 0
M  V30 470 H 36.5486 -1.34348 6.65678 0
M  V30 471 H 34.4946 -3.34538 5.64287 0
M  V30 472 H 34.4116 -2.4794 7.14186 0
M  V30 473 H 35.6796 -3.642 6.89187 0
M  V30 474 N 39.9087 -1.5758 0.0250728 0
M  V30 475 C 41.1547 -1.91917 -0.655413 0
M  V30 476 C 41.4877 -0.901433 -1.72011 0
M  V30 477 O 40.7627 0.0764069 -1.9435 0
M  V30 478 C 41.0457 -3.36751 -1.27558 0
M  V30 479 C 40.8987 -4.49258 -0.220719 0
M  V30 480 C 42.2177 -3.81469 -2.19475 0
M  V30 481 H 39.3367 -0.697925 -0.23679 0
M  V30 482 H 41.9787 -1.89825 0.0815036 0
M  V30 483 H 40.1287 -3.38664 -1.90365 0
M  V30 484 H 41.8007 -4.59478 0.409601 0
M  V30 485 H 40.0437 -4.31415 0.454264 0
M  V30 486 H 40.7147 -5.47618 -0.694175 0
M  V30 487 H 43.1907 -3.81266 -1.66659 0
M  V30 488 H 42.0667 -4.83512 -2.59822 0
M  V30 489 H 42.3277 -3.16744 -3.08424 0
M  V30 490 N 41.3868 0.248026 -1.55636 0
M  V30 491 C 42.8028 0.596483 -1.48035 0
M  V30 492 C 43.0028 1.88386 -0.715039 0
M  V30 493 O 42.0588 2.51319 -0.243944 0
M  V30 494 C 43.3718 0.700258 -2.92433 0
M  V30 495 C 44.9198 0.792659 -3.02797 0
M  V30 496 C 45.3948 0.928005 -4.485 0
M  V30 497 N 46.8858 0.992903 -4.52433 0
M  V30 498 C 47.6208 1.11687 -5.62418 0
M  V30 499 N 47.1168 1.20645 -6.82214 0
M  V30 500 N 48.9098 1.14994 -5.50212 0
M  V30 501 H 41.0608 -0.597109 -2.03834 0
M  V30 502 H 43.3238 -0.205925 -0.925364 0
M  V30 503 H 43.0298 -0.175658 -3.51261 0
M  V30 504 H 42.9038 1.57255 -3.42857 0
M  V30 505 H 45.2908 1.65903 -2.4405 0
M  V30 506 H 45.3718 -0.104762 -2.55585 0
M  V30 507 H 45.0158 0.0661971 -5.07857 0
M  V30 508 H 44.9458 1.84045 -4.93391 0
M  V30 509 H 47.4368 0.935064 -3.66149 0
M  V30 510 H 47.7498 1.30008 -7.61786 0
M  V30 511 H 46.0948 1.17605 -6.84977 0
M  V30 512 H 49.2858 1.07643 -4.55555 0
M  V30 513 H 49.4588 1.24311 -6.35965 0
M  V30 514 N 42.8649 1.48995 0.513639 0
M  V30 515 C 44.1119 1.57843 1.26854 0
M  V30 516 C 44.4399 0.259501 1.92761 0
M  V30 517 O 43.6949 -0.75159 1.80692 0
M  V30 518 C 43.9939 2.67756 2.36731 0
M  V30 519 C 43.6599 4.09669 1.88368 0
M  V30 520 C 42.3219 4.48291 1.74896 0
M  V30 521 C 44.6739 4.98537 1.52021 0
M  V30 522 C 42.0019 5.73568 1.23438 0
M  V30 523 C 44.3539 6.24319 1.0202 0
M  V30 524 C 43.0179 6.61783 0.871778 0
M  V30 525 H 42.2879 0.577587 0.464192 0
M  V30 526 H 44.9349 1.82778 0.571366 0
M  V30 527 H 43.2399 2.36743 3.12185 0
M  V30 528 H 44.9369 2.71813 2.9482 0
M  V30 529 H 41.5269 3.79176 1.99808 0
M  V30 530 H 45.7109 4.69363 1.61281 0
M  V30 531 H 40.9669 6.01304 1.10648 0
M  V30 532 H 45.1409 6.92566 0.729722 0
M  V30 533 H 42.7679 7.5874 0.470852 0
M  V30 534 N 44.343 -0.763751 1.37857 0
M  V30 535 C 45.59 -1.52257 1.33506 0
M  V30 536 C 45.918 -1.94343 -0.078022 0
M  V30 537 O 45.173 -1.64958 -1.05297 0
M  V30 538 C 45.472 -2.79499 2.22745 0
M  V30 539 C 45.138 -2.56426 3.70886 0
M  V30 540 C 43.8 -2.49842 4.11257 0
M  V30 541 C 46.152 -2.36008 4.64704 0
M  V30 542 C 43.48 -2.20841 5.43549 0
M  V30 543 C 45.832 -2.0853 5.97242 0
M  V30 544 C 44.496 -2.00396 6.36709 0
M  V30 545 H 43.766 -0.557149 0.488534 0
M  V30 546 H 46.413 -0.879073 1.70131 0
M  V30 547 H 44.718 -3.48447 1.79142 0
M  V30 548 H 46.415 -3.37413 2.16688 0
M  V30 549 H 43.005 -2.62416 3.38874 0
M  V30 550 H 47.189 -2.40079 4.34368 0
M  V30 551 H 42.445 -2.13045 5.73081 0
M  V30 552 H 46.619 -1.91732 6.69486 0
M  V30 553 H 44.246 -1.77688 7.39142 0
M  V30 554 N 45.8211 -1.22559 -0.990812 0
M  V30 555 C 47.0671 -1.05297 -1.73322 0
M  V30 556 C 47.4001 0.410655 -1.89808 0
M  V30 557 O 46.6751 1.30439 -1.44277 0
M  V30 558 C 46.9581 -1.76713 -3.13759 0
M  V30 559 C 46.8111 -3.30684 -3.04907 0
M  V30 560 C 48.1301 -1.52121 -4.12974 0
M  V30 561 H 45.2491 -0.38392 -0.629106 0
M  V30 562 H 47.8911 -1.50926 -1.15418 0
M  V30 563 H 46.0411 -1.37924 -3.63193 0
M  V30 564 H 47.7131 -3.7893 -2.63077 0
M  V30 565 H 45.9561 -3.60253 -2.41661 0
M  V30 566 H 46.6271 -3.75833 -4.04294 0
M  V30 567 H 49.1031 -1.85819 -3.72304 0
M  V30 568 H 47.9791 -2.04582 -5.0935 0
M  V30 569 H 48.2401 -0.454257 -4.3976 0
M  V30 570 N 47.2992 1.18797 -1.03562 0
M  V30 571 C 48.2292 2.24472 -0.643019 0
M  V30 572 C 49.2102 1.66433 0.351283 0
M  V30 573 O 50.3952 1.92803 0.232505 0
M  V30 574 C 47.5252 3.473 4.24935e-05 0
M  V30 575 C 46.4792 4.18055 -0.917257 0
M  V30 576 C 45.8052 5.34519 -0.138941 0
M  V30 577 C 47.1052 4.72109 -2.23407 0
M  V30 578 H 48.7992 2.57566 -1.52643 0
M  V30 579 H 46.3452 1.23806 -0.735394 0
M  V30 580 H 48.2982 4.20426 0.286383 0
M  V30 581 H 47.0222 3.13424 0.918299 0
M  V30 582 H 45.6812 3.46821 -1.1879 0
M  V30 583 H 45.3292 4.96891 0.781562 0
M  V30 584 H 45.0292 5.82794 -0.750005 0
M  V30 585 H 46.5532 6.10438 0.1405 0
M  V30 586 H 47.9672 5.36955 -2.00879 0
M  V30 587 H 46.3642 5.30897 -2.79765 0
M  V30 588 H 47.4342 3.89807 -2.88407 0
M  V30 589 N 48.7773 0.814389 1.34928 0
M  V30 590 C 50.0053 0.411136 2.02774 0
M  V30 591 C 50.4203 -0.980316 1.61354 0
M  V30 592 O 49.7773 -1.63299 0.814847 0
M  V30 593 C 49.8283 0.493865 3.58111 0
M  V30 594 O 49.5493 1.83047 3.98027 0
M  V30 595 C 51.0503 0.0844174 4.4322 0
M  V30 596 H 48.2703 0.166037 0.650133 0
M  V30 597 H 50.8143 1.10018 1.72384 0
M  V30 598 H 48.9693 -0.147006 3.87121 0
M  V30 599 H 49.3833 1.79872 4.92693 0
M  V30 600 H 50.8573 0.193404 5.51661 0
M  V30 601 H 51.3343 -0.97113 4.28329 0
M  V30 602 H 51.9403 0.69875 4.19521 0
M  V30 603 N 50.2554 -1.46986 0.568584 0
M  V30 604 C 51.2024 -2.30153 -0.172707 0
M  V30 605 C 52.1724 -1.39759 -0.897586 0
M  V30 606 O 53.3574 -1.68716 -0.891044 0
M  V30 607 C 50.4974 -3.23952 -1.1895 0
M  V30 608 C 49.6104 -4.29441 -0.469517 0
M  V30 609 C 48.7454 -5.1038 -1.47259 0
M  V30 610 C 47.7844 -6.07632 -0.738225 0
M  V30 611 N 46.9214 -6.8149 -1.68868 0
M  V30 612 H 51.7614 -2.93019 0.542596 0
M  V30 613 H 49.2984 -1.44422 0.279401 0
M  V30 614 H 51.2564 -3.76767 -1.79173 0
M  V30 615 H 49.8864 -2.62926 -1.87269 0
M  V30 616 H 48.9384 -3.79594 0.247467 0
M  V30 617 H 50.2504 -4.98689 0.105241 0
M  V30 618 H 49.4044 -5.67402 -2.14803 0
M  V30 619 H 48.1434 -4.4106 -2.08128 0
M  V30 620 H 47.1484 -5.49778 -0.0489293 0
M  V30 621 H 48.3734 -6.78966 -0.135129 0
M  V30 622 H 46.3194 -6.14891 -2.28573 0
M  V30 623 H 46.2364 -7.46948 -1.16636 0
M  V30 624 H 47.5044 -7.43078 -2.3549 0
M  V30 625 N 51.7335 -0.305618 -1.54608 0
M  V30 626 C 52.6965 0.555591 -2.22364 0
M  V30 627 C 53.6965 1.05768 -1.21119 0
M  V30 628 O 54.8865 0.952972 -1.45822 0
M  V30 629 C 52.0185 1.76974 -2.91364 0
M  V30 630 H 53.2115 -0.0364572 -2.99878 0
M  V30 631 H 50.7645 -0.0565007 -1.56198 0
M  V30 632 H 51.4995 2.40151 -2.17941 0
M  V30 633 H 51.2845 1.41732 -3.65588 0
M  V30 634 H 52.7745 2.38148 -3.43038 0
M  V30 635 N 53.2116 1.57565 -0.0334293 0
M  V30 636 C 54.4366 1.96689 0.657895 0
M  V30 637 C 54.8616 0.910057 1.64619 0
M  V30 638 O 54.2196 -0.128598 1.80843 0
M  V30 639 C 54.2676 3.34905 1.33683 0
M  V30 640 O 53.3716 3.31574 2.45219 0
M  V30 641 H 52.7126 0.641205 0.172489 0
M  V30 642 H 55.2426 2.04372 -0.0965621 0
M  V30 643 H 55.2526 3.71234 1.69262 0
M  V30 644 H 53.9276 4.11366 0.612411 0
M  V30 645 H 52.5046 3.06968 2.11719 0
M  V30 646 N 54.6897 -0.239769 1.55765 0
M  V30 647 C 55.6197 -1.30052 1.9393 0
M  V30 648 C 56.6007 -1.49839 0.805132 0
M  V30 649 O 57.7857 -1.62328 1.06599 0
M  V30 650 C 54.9157 -2.65391 2.2402 0
M  V30 651 C 53.8697 -2.60289 3.39755 0
M  V30 652 C 53.1957 -3.99489 3.55405 0
M  V30 653 C 54.4957 -2.16654 4.75246 0
M  V30 654 H 56.1897 -0.983573 2.82783 0
M  V30 655 H 53.7357 -0.471701 1.36055 0
M  V30 656 H 55.6887 -3.3974 2.49308 0
M  V30 657 H 54.4127 -2.98736 1.32 0
M  V30 658 H 53.0717 -1.88398 3.14487 0
M  V30 659 H 52.7197 -4.30112 2.60793 0
M  V30 660 H 52.4197 -3.96962 4.33238 0
M  V30 661 H 53.9437 -4.75528 3.83022 0
M  V30 662 H 55.3577 -2.80737 4.99859 0
M  V30 663 H 53.7547 -2.25223 5.56232 0
M  V30 664 H 54.8247 -1.11835 4.71827 0
M  V30 665 N 56.1678 -1.49265 -0.50573 0
M  V30 666 C 57.1308 -1.65075 -1.59006 0
M  V30 667 C 58.1308 -0.522768 -1.52065 0
M  V30 668 O 59.3208 -0.789117 -1.55302 0
M  V30 669 C 56.4528 -1.64369 -2.98656 0
M  V30 670 H 57.6458 -2.61784 -1.46319 0
M  V30 671 H 55.1988 -1.38226 -0.729616 0
M  V30 672 H 55.9338 -0.692272 -3.16825 0
M  V30 673 H 55.7188 -2.46282 -3.05103 0
M  V30 674 H 57.2088 -1.78674 -3.77446 0
M  V30 675 N 57.6459 0.756429 -1.3826 0
M  V30 676 C 58.8759 1.54341 -1.3734 0
M  V30 677 C 59.2839 1.89159 0.0393917 0
M  V30 678 O 58.6269 1.5307 1.01565 0
M  V30 679 C 58.6889 2.87238 -2.16182 0
M  V30 680 C 58.3529 2.74973 -3.65019 0
M  V30 681 C 59.3499 2.44962 -4.58574 0
M  V30 682 C 57.0349 2.92515 -4.08338 0
M  V30 683 C 59.0289 2.32642 -5.93428 0
M  V30 684 C 56.7159 2.79815 -5.43274 0
M  V30 685 C 57.7139 2.49921 -6.35632 0
M  V30 686 O 57.4019 2.37275 -7.68086 0
M  V30 687 H 57.1339 0.484281 -0.471643 0
M  V30 688 H 59.6879 0.944152 -1.82414 0
M  V30 689 H 57.9179 3.49342 -1.65822 0
M  V30 690 H 59.6069 3.48731 -2.07705 0
M  V30 691 H 60.3729 2.31081 -4.26412 0
M  V30 692 H 56.2519 3.14781 -3.368 0
M  V30 693 H 59.7959 2.0923 -6.65484 0
M  V30 694 H 55.6929 2.93269 -5.75034 0
M  V30 695 H 56.4609 2.52509 -7.78577 0
M  V30 696 N 59.124 1.23083 0.984299 0
M  V30 697 C 60.371 1.06057 1.72505 0
M  V30 698 C 60.699 -0.403105 1.90277 0
M  V30 699 O 59.954 -1.3149 1.44944 0
M  V30 700 C 60.253 1.72673 3.1292 0
M  V30 701 C 59.919 3.22586 3.15038 0
M  V30 702 C 58.581 3.63489 3.15324 0
M  V30 703 C 60.933 4.185 3.10657 0
M  V30 704 C 58.261 4.98772 3.08939 0
M  V30 705 C 60.613 5.53769 3.05814 0
M  V30 706 C 59.277 5.94041 3.04419 0
M  V30 707 H 58.547 0.388091 0.631242 0
M  V30 708 H 61.194 1.52963 1.15215 0
M  V30 709 H 59.499 1.18116 3.73572 0
M  V30 710 H 61.196 1.56982 3.68996 0
M  V30 711 H 57.786 2.90022 3.15571 0
M  V30 712 H 61.97 3.87911 3.09579 0
M  V30 713 H 57.226 5.29193 3.0621 0
M  V30 714 H 61.4 6.27808 3.0138 0
M  V30 715 H 59.027 6.98833 2.99227 0
M  V30 716 N 60.6021 -1.18246 1.0419 0
M  V30 717 C 61.5121 -2.25574 0.644476 0
M  V30 718 C 62.5281 -1.70845 -0.329826 0
M  V30 719 O 63.7041 -2.00554 -0.184443 0
M  V30 720 C 60.7691 -3.46697 0.014877 0
M  V30 721 C 59.8301 -4.16554 1.03834 0
M  V30 722 C 59.0631 -5.31894 0.438692 0
M  V30 723 O 59.2861 -5.65385 -0.754752 0
M  V30 724 O 58.2201 -5.90459 1.168 0
M  V30 725 H 62.0461 -2.61836 1.53869 0
M  V30 726 H 59.6311 -1.25352 0.812854 0
M  V30 727 H 61.5131 -4.20062 -0.335538 0
M  V30 728 H 60.1881 -3.12255 -0.853138 0
M  V30 729 H 59.0951 -3.45251 1.44057 0
M  V30 730 H 60.4281 -4.54998 1.87716 0
M  V30 731 N 62.0802 -0.821533 -1.34494 0
M  V30 732 C 63.3572 -0.33159 -1.92769 0
M  V30 733 C 63.7372 1.18088 -1.74981 0
M  V30 734 O 63.0852 1.98733 -1.12772 0
M  V30 735 C 63.2952 -0.759398 -3.40638 0
M  V30 736 C 64.6432 -0.757433 -4.1779 0
M  V30 737 O 65.6672 -0.70189 -3.49216 0
M  V30 738 O 64.5262 -0.829361 -5.4017 0
M  V30 739 H 61.6202 -0.0902502 -0.822061 0
M  V30 740 H 64.1662 -0.906231 -1.43477 0
M  V30 741 H 62.9382 -1.8012 -3.47379 0
M  V30 742 H 62.5612 -0.160378 -3.97276 0
M  V30 743 N 63.5583 1.46682 -0.576371 0
M  V30 744 C 64.9743 1.57822 -0.237562 0
M  V30 745 C 65.1743 1.57237 1.26011 0
M  V30 746 O 64.2303 1.48596 2.04146 0
M  V30 747 C 65.5433 2.87499 -0.881168 0
M  V30 748 C 67.0913 3.01119 -0.85417 0
M  V30 749 C 67.5663 4.33524 -1.4772 0
M  V30 750 N 69.0573 4.40207 -1.44125 0
M  V30 751 C 69.7923 5.4126 -1.89276 0
M  V30 752 N 69.2883 6.49021 -2.42371 0
M  V30 753 N 71.0813 5.32422 -1.80231 0
M  V30 754 H 63.2323 1.45306 -1.54919 0
M  V30 755 H 65.4953 0.692733 -0.647167 0
M  V30 756 H 65.2013 2.9372 -1.93447 0
M  V30 757 H 65.0753 3.75224 -0.385592 0
M  V30 758 H 67.4623 2.94485 0.190491 0
M  V30 759 H 67.5433 2.14887 -1.3877 0
M  V30 760 H 67.1873 4.40916 -2.52103 0
M  V30 761 H 67.1173 5.1852 -0.918947 0
M  V30 762 H 69.6083 3.62931 -1.05307 0
M  V30 763 H 69.9213 7.2233 -2.74698 0
M  V30 764 H 68.2663 6.49858 -2.46393 0
M  V30 765 H 71.4573 4.47137 -1.38514 0
M  V30 766 H 71.6303 6.11034 -2.15735 0
M  V30 767 N 65.0364 0.313813 1.54444 0
M  V30 768 C 65.9864 -0.571898 2.20711 0
M  V30 769 C 66.9704 -1.08913 1.18435 0
M  V30 770 O 68.1624 -1.02777 1.44104 0
M  V30 771 C 65.2914 -1.7371 2.96108 0
M  V30 772 C 64.3774 -1.23522 4.05713 0
M  V30 773 N 64.7684 -0.452288 5.03774 0
M  V30 774 C 63.0664 -1.51482 4.19487 0
M  V30 775 C 63.7674 -0.183438 5.81411 0
M  V30 776 N 62.7434 -0.766845 5.38164 0
M  V30 777 H 66.5454 0.0336802 2.93881 0
M  V30 778 H 64.0594 0.119192 1.61962 0
M  V30 779 H 66.0564 -2.38329 3.4206 0
M  V30 780 H 64.7164 -2.34625 2.24458 0
M  V30 781 H 65.7274 -0.0960131 5.17811 0
M  V30 782 H 62.4044 -2.13053 3.59047 0
M  V30 783 H 63.7944 0.446216 6.70417 0
M  V30 784 N 66.5145 -1.57545 0.0417849 0
M  V30 785 C 67.7625 -1.91937 -0.632829 0
M  V30 786 C 68.0835 -0.919978 -1.71934 0
M  V30 787 O 67.3535 0.0366064 -1.95866 0
M  V30 788 H 65.9335 -0.708493 -0.236742 0
M  V30 789 H 68.5955 -1.9468 0.0925745 0
M  V30 790 H 67.6915 -2.92912 -1.07746 0
M  V30 791 N 67.9926 0.231505 -1.5589 0
M  V30 792 C 68.9396 1.28682 -1.91598 0
M  V30 793 C 69.9096 1.47071 -0.771974 0
M  V30 794 O 71.0946 1.60802 -1.027 0
M  V30 795 C 68.2346 2.6342 -2.22944 0
M  V30 796 C 67.3476 2.52912 -3.50228 0
M  V30 797 C 66.4826 3.80106 -3.7107 0
M  V30 798 C 65.5216 3.64279 -4.91902 0
M  V30 799 N 64.6586 4.834 -5.09184 0
M  V30 800 H 69.4986 0.975305 -2.81588 0
M  V30 801 H 67.0356 0.470299 -1.39379 0
M  V30 802 H 68.9936 3.41869 -2.39126 0
M  V30 803 H 67.6236 2.92687 -1.36139 0
M  V30 804 H 66.6756 1.6595 -3.42294 0
M  V30 805 H 67.9876 2.37133 -4.38827 0
M  V30 806 H 67.1416 4.66999 -3.87295 0
M  V30 807 H 65.8806 3.98799 -2.80733 0
M  V30 808 H 64.8856 2.7577 -4.75637 0
M  V30 809 H 66.1106 3.47067 -5.83714 0
M  V30 810 H 64.0566 5.02425 -4.21788 0
M  V30 811 H 63.9736 4.70311 -5.91898 0
M  V30 812 H 65.2416 5.71747 -5.29835 0
M  V30 813 N 69.4707 1.49531 0.497807 0
M  V30 814 C 70.4177 1.66436 1.59899 0
M  V30 815 C 71.3877 0.505793 1.58212 0
M  V30 816 O 72.5727 0.733202 1.7615 0
M  V30 817 C 69.7127 1.7399 2.98029 0
M  V30 818 C 68.8257 3.01172 3.09708 0
M  V30 819 C 67.9607 2.99686 4.38591 0
M  V30 820 C 66.9997 4.21434 4.43914 0
M  V30 821 N 66.1367 4.1784 5.64229 0
M  V30 822 H 70.9767 2.60459 1.44793 0
M  V30 823 H 68.5137 1.29137 0.704423 0
M  V30 824 H 70.4717 1.76352 3.78095 0
M  V30 825 H 69.1017 0.834301 3.11832 0
M  V30 826 H 68.1537 3.08408 2.22685 0
M  V30 827 H 69.4657 3.91165 3.09502 0
M  V30 828 H 68.6197 3.00628 5.2698 0
M  V30 829 H 67.3587 2.07477 4.41367 0
M  V30 830 H 66.3637 4.20733 3.53926 0
M  V30 831 H 67.5887 5.14839 4.42851 0
M  V30 832 H 65.5347 3.28469 5.67841 0
M  V30 833 H 65.4517 5.01571 5.65652 0
M  V30 834 H 66.7197 4.22889 6.54817 0
M  V30 835 N 70.9488 -0.749086 1.3866 0
M  V30 836 C 72.3648 -1.05276 1.19955 0
M  V30 837 C 72.5648 -2.01435 0.05134 0
M  V30 838 O 71.6208 -2.45232 -0.60147 0
M  V30 839 C 72.9338 -1.62853 2.52783 0
M  V30 840 C 74.4818 -1.75002 2.59506 0
M  V30 841 C 74.9568 -2.35991 3.92521 0
M  V30 842 N 76.4478 -2.43416 3.94085 0
M  V30 843 C 77.1828 -2.91511 4.9377 0
M  V30 844 N 76.6788 -3.39608 6.03853 0
M  V30 845 N 78.4718 -2.90592 4.81157 0
M  V30 846 H 70.6228 -0.111066 2.12109 0
M  V30 847 H 72.8858 -0.111901 0.941373 0
M  V30 848 H 72.5918 -0.99664 3.37283 0
M  V30 849 H 72.4658 -2.61854 2.715 0
M  V30 850 H 74.8528 -2.37317 1.75398 0
M  V30 851 H 74.9338 -0.74693 2.44652 0
M  V30 852 H 74.5778 -1.74308 4.77053 0
M  V30 853 H 74.5078 -3.3695 4.04688 0
M  V30 854 H 76.9988 -2.09405 3.14576 0
M  V30 855 H 77.3118 -3.74775 6.75843 0
M  V30 856 H 75.6568 -3.37653 6.07466 0
M  V30 857 H 78.8478 -2.52332 3.94267 0
M  V30 858 H 79.0208 -3.27762 5.58996 0
M  V30 859 N 72.4269 -1.23603 -0.977757 0
M  V30 860 C 73.6549 -1.09646 -1.75458 0
M  V30 861 C 74.0699 0.351859 -1.85492 0
M  V30 862 O 73.4269 1.24327 -1.336 0
M  V30 863 C 73.4779 -1.71895 -3.18016 0
M  V30 864 O 73.1989 -3.11063 -3.08498 0
M  V30 865 C 74.6999 -1.63415 -4.12081 0
M  V30 866 H 71.9199 -0.38359 -0.550545 0
M  V30 867 H 74.4639 -1.63507 -1.22824 0
M  V30 868 H 72.6189 -1.22061 -3.67668 0
M  V30 869 H 73.0329 -3.41305 -3.9826 0
M  V30 870 H 74.5069 -2.11669 -5.09804 0
M  V30 871 H 74.9839 -0.593462 -4.35172 0
M  V30 872 H 75.5899 -2.12628 -3.68334 0
M  V30 873 N 73.905 1.17692 -1.04816 0
M  V30 874 C 74.835 2.23777 -0.666791 0
M  V30 875 C 75.816 1.66796 0.33361 0
M  V30 876 O 77.001 1.93039 0.212042 0
M  V30 877 C 74.131 3.47281 -0.0367933 0
M  V30 878 C 73.085 4.17059 -0.961546 0
M  V30 879 C 72.411 5.34342 -0.195626 0
M  V30 880 C 73.711 4.69713 -2.28402 0
M  V30 881 H 75.405 2.55933 -1.55367 0
M  V30 882 H 72.951 1.23019 -0.748484 0
M  V30 883 H 74.904 4.20706 0.241775 0
M  V30 884 H 73.628 3.14381 0.885004 0
M  V30 885 H 72.287 3.45541 -1.22462 0
M  V30 886 H 71.935 4.97692 0.728816 0
M  V30 887 H 71.635 5.81966 -0.811775 0
M  V30 888 H 73.159 6.10553 0.0757473 0
M  V30 889 H 74.573 5.34794 -2.06563 0
M  V30 890 H 72.97 5.279 -2.8538 0
M  V30 891 H 74.04 3.86726 -2.92525 0
M  V30 892 N 75.3831 0.828654 1.34056 0
M  V30 893 C 76.3301 0.252567 2.29414 0
M  V30 894 C 77.3001 -0.62588 1.53857 0
M  V30 895 O 78.4851 -0.566312 1.82202 0
M  V30 896 C 75.6251 -0.574831 3.40279 0
M  V30 897 C 74.7381 0.326499 4.30764 0
M  V30 898 C 73.8731 -0.511016 5.28736 0
M  V30 899 C 72.9121 0.389342 6.1086 0
M  V30 900 N 72.0491 -0.409439 7.00905 0
M  V30 901 H 76.8891 1.07108 2.78086 0
M  V30 902 H 74.4261 0.539677 1.36843 0
M  V30 903 H 76.3841 -1.06992 4.03248 0
M  V30 904 H 75.0141 -1.35841 2.92826 0
M  V30 905 H 74.0661 0.939837 3.68607 0
M  V30 906 H 75.3781 1.01857 4.88289 0
M  V30 907 H 74.5321 -1.07035 5.97184 0
M  V30 908 H 73.2711 -1.23657 4.71763 0
M  V30 909 H 72.2761 0.960769 5.4134 0
M  V30 910 H 73.5011 1.1131 6.69916 0
M  V30 911 H 71.4471 -1.11856 6.46393 0
M  V30 912 H 71.3641 0.224126 7.55668 0
M  V30 913 H 72.6321 -0.951336 7.73673 0
M  V30 914 N 76.8612 -1.46375 0.584142 0
M  V30 915 C 78.1092 -2.01978 0.0701287 0
M  V30 916 C 78.4302 -1.4579 -1.295 0
M  V30 917 O 77.7002 -0.64314 -1.85042 0
M  V30 918 H 76.2802 -0.746648 0.0229345 0
M  V30 919 H 78.9422 -1.79461 0.760245 0
M  V30 920 H 78.0382 -3.121 0.0022064 0
M  V30 921 N 78.3393 -0.321999 -1.54275 0
M  V30 922 C 79.5643 0.285791 -2.05422 0
M  V30 923 C 79.9893 1.45124 -1.19669 0
M  V30 924 O 79.3473 1.80132 -0.205441 0
M  V30 925 C 79.3953 0.69956 -3.53749 0
M  V30 926 O 78.4993 1.8021 -3.70942 0
M  V30 927 H 77.8403 0.0518962 -0.661969 0
M  V30 928 H 80.3703 -0.469954 -1.9913 0
M  V30 929 H 80.3803 0.982649 -3.9599 0
M  V30 930 H 79.0553 -0.152864 -4.15619 0
M  V30 931 H 77.6323 1.51794 -3.40607 0
M  V30 932 N 79.8174 1.5752 -0.0501392 0
M  V30 933 C 81.0664 1.91827 0.623328 0
M  V30 934 C 81.3794 0.930222 1.72065 0
M  V30 935 O 82.5854 1.1653 2.4522 0
M  V30 936 C 81.0414 3.40692 1.16003 0
M  V30 937 C 80.6494 4.479 0.0948811 0
M  V30 938 C 82.3934 3.84034 1.80881 0
M  V30 939 C 80.3004 5.87879 0.644411 0
M  V30 940 H 79.2304 0.715918 0.236596 0
M  V30 941 H 81.8814 1.83115 -0.118861 0
M  V30 942 H 80.2634 3.44405 1.9545 0
M  V30 943 H 81.4374 4.55775 -0.678675 0
M  V30 944 H 79.7524 4.13892 -0.45637 0
M  V30 945 H 82.3494 4.85984 2.22988 0
M  V30 946 H 82.6924 3.20225 2.6601 0
M  V30 947 H 83.2254 3.82833 1.0809 0
M  V30 948 H 79.9644 6.55282 -0.169229 0
M  V30 949 H 79.4844 5.83567 1.38598 0
M  V30 950 H 81.1634 6.37098 1.12763 0
M  V30 951 N 81.2955 -0.223234 1.56011 0
M  V30 952 C 82.2055 -1.29766 1.95443 0
M  V30 953 C 83.2215 -1.51373 0.858028 0
M  V30 954 O 84.3975 -1.64536 1.16146 0
M  V30 955 C 81.4625 -2.62772 2.26167 0
M  V30 956 C 80.5235 -2.49482 3.49367 0
M  V30 957 C 79.7565 -3.76145 3.78616 0
M  V30 958 O 79.9795 -4.79087 3.09568 0
M  V30 959 O 78.9135 -3.73358 4.72109 0
M  V30 960 H 82.7395 -0.99309 2.87004 0
M  V30 961 H 80.3245 -0.425958 1.43199 0
M  V30 962 H 82.2065 -3.41327 2.47131 0
M  V30 963 H 80.8815 -2.92913 1.37781 0
M  V30 964 H 79.7885 -1.69133 3.33684 0
M  V30 965 H 81.1215 -2.2428 4.38131 0
M  V30 966 N 82.7736 -1.49793 -0.48987 0
M  V30 967 C 83.7036 -1.70201 -1.59856 0
M  V30 968 C 84.6846 -0.55076 -1.60937 0
M  V30 969 O 85.8696 -0.787841 -1.77501 0
M  V30 970 C 82.9996 -1.77882 -2.98287 0
M  V30 971 C 81.9536 -2.92907 -3.12073 0
M  V30 972 C 81.2796 -2.85712 -4.51965 0
M  V30 973 C 82.5796 -4.3369 -2.91051 0
M  V30 974 H 84.2736 -2.63025 -1.43032 0
M  V30 975 H 81.8196 -1.26574 -0.686664 0
M  V30 976 H 83.7726 -1.90744 -3.75759 0
M  V30 977 H 82.4966 -0.816653 -3.16225 0
M  V30 978 H 81.1556 -2.79665 -2.37029 0
M  V30 979 H 80.8036 -1.8738 -4.66795 0
M  V30 980 H 80.5036 -3.62921 -4.62128 0
M  V30 981 H 82.0276 -3.00598 -5.31482 0
M  V30 982 H 83.4416 -4.47555 -3.58284 0
M  V30 983 H 81.8386 -5.12205 -3.12675 0
M  V30 984 H 82.9086 -4.47362 -1.87071 0
M  V30 985 N 84.2517 0.741722 -1.39055 0
M  V30 986 C 85.4767 1.53607 -1.39354 0
M  V30 987 C 85.9017 1.88096 0.0116905 0
M  V30 988 O 85.2597 1.5143 0.996924 0
M  V30 989 C 85.3077 2.80441 -2.26682 0
M  V30 990 O 84.4117 3.76088 -1.69208 0
M  V30 991 H 83.7527 0.464142 -0.474835 0
M  V30 992 H 86.2827 0.915665 -1.82967 0
M  V30 993 H 86.2927 3.29246 -2.40959 0
M  V30 994 H 84.9677 2.5467 -3.2881 0
M  V30 995 H 83.5447 3.34833 -1.64138 0
M  V30 996 N 85.7298 1.2412 0.971189 0
M  V30 997 C 87.1458 1.00584 1.23916 0
M  V30 998 C 87.3458 -0.287481 1.99439 0
M  V30 999 O 86.4018 -1.00454 2.31658 0
M  V30 1000 C 87.7148 2.21864 2.0297 0
M  V30 1001 C 89.2628 2.26452 2.16076 0
M  V30 1002 C 89.7378 3.47343 2.98524 0
M  V30 1003 N 91.2288 3.47639 3.06107 0
M  V30 1004 C 91.9638 4.37837 3.70251 0
M  V30 1005 N 91.4598 5.38286 4.36142 0
M  V30 1006 N 93.2528 4.25558 3.67228 0
M  V30 1007 H 85.4038 2.07236 0.465499 0
M  V30 1008 H 87.6668 0.909236 0.268315 0
M  V30 1009 H 87.3728 3.15771 1.54861 0
M  V30 1010 H 87.2468 2.23698 3.03709 0
M  V30 1011 H 89.6338 1.33078 2.6339 0
M  V30 1012 H 89.7148 2.28645 1.14696 0
M  V30 1013 H 89.3588 4.41029 2.51905 0
M  V30 1014 H 89.2888 3.42393 4.00093 0
M  V30 1015 H 91.7798 2.74966 2.59233 0
M  V30 1016 H 92.0928 6.03352 4.82894 0
M  V30 1017 H 90.4378 5.42176 4.34822 0
M  V30 1018 H 93.6288 3.46322 3.14927 0
M  V30 1019 H 93.8018 4.96054 4.16935 0
M  V30 1020 N 87.2079 -1.17134 1.05439 0
M  V30 1021 C 88.4569 -1.86791 0.761049 0
M  V30 1022 C 88.7699 -1.82072 -0.714795 0
M  V30 1023 O 89.9759 -2.47223 -1.12218 0
M  V30 1024 C 88.4319 -3.35166 1.31117 0
M  V30 1025 C 88.0399 -3.48381 2.81664 0
M  V30 1026 C 89.7839 -4.10134 1.09499 0
M  V30 1027 C 87.6909 -4.90793 3.29964 0
M  V30 1028 H 86.6209 -0.699681 0.281002 0
M  V30 1029 H 89.2719 -1.3226 1.27199 0
M  V30 1030 H 87.6539 -3.8925 0.72803 0
M  V30 1031 H 88.8279 -3.04502 3.45855 0
M  V30 1032 H 87.1429 -2.86836 3.01851 0
M  V30 1033 H 89.7399 -5.152 1.43084 0
M  V30 1034 H 90.0829 -4.16287 0.0328772 0
M  V30 1035 H 90.6159 -3.62264 1.64346 0
M  V30 1036 H 87.3549 -4.89816 4.35616 0
M  V30 1037 H 86.8749 -5.35333 2.70516 0
M  V30 1038 H 88.5539 -5.59573 3.24787 0
M  V30 1039 N 88.686 -0.835752 -1.33615 0
M  V30 1040 C 89.633 -0.26473 -2.29277 0
M  V30 1041 C 90.603 0.617712 -1.54187 0
M  V30 1042 O 91.788 0.556641 -1.825 0
M  V30 1043 C 88.928 0.556777 -3.40579 0
M  V30 1044 C 88.041 -0.349339 -4.30585 0
M  V30 1045 C 87.176 0.482969 -5.29 0
M  V30 1046 C 86.215 -0.421732 -6.10645 0
M  V30 1047 N 85.352 0.372262 -7.01112 0
M  V30 1048 H 90.192 -1.08582 -2.77514 0
M  V30 1049 H 87.729 -0.546927 -1.36554 0
M  V30 1050 H 89.687 1.04852 -4.03809 0
M  V30 1051 H 88.317 1.34286 -2.93542 0
M  V30 1052 H 87.369 -0.959372 -3.68104 0
M  V30 1053 H 88.681 -1.04445 -4.87742 0
M  V30 1054 H 87.835 1.03866 -5.97743 0
M  V30 1055 H 86.574 1.21153 -4.72412 0
M  V30 1056 H 85.579 -0.989464 -5.40823 0
M  V30 1057 H 86.804 -1.14861 -6.69316 0
M  V30 1058 H 84.75 1.08426 -6.46977 0
M  V30 1059 H 84.667 -0.264198 -7.55538 0
M  V30 1060 H 85.935 0.910293 -7.74167 0
M  V30 1061 N 90.1641 1.46063 -0.591896 0
M  V30 1062 C 91.4041 2.04228 -0.0838014 0
M  V30 1063 C 91.7681 1.45231 1.25587 0
M  V30 1064 O 92.9691 1.94653 1.85375 0
M  V30 1065 C 91.2401 3.57389 -0.0286282 0
M  V30 1066 S 92.7991 4.3678 0.420557 0
M  V30 1067 H 89.6171 0.709762 -0.0419319 0
M  V30 1068 H 92.2191 1.78983 -0.786465 0
M  V30 1069 H 90.9231 3.97843 -1.00743 0
M  V30 1070 H 90.4541 3.87185 0.69652 0
M  V30 1071 H 92.4691 4.67131 1.67341 0
M  V30 1072 N 91.6422 0.330177 1.54103 0
M  V30 1073 C 92.8882 -0.270806 2.00984 0
M  V30 1074 C 93.2212 -1.51265 1.21789 0
M  V30 1075 O 92.4962 -1.92142 0.301927 0
M  V30 1076 C 92.7792 -0.598339 3.55094 0
M  V30 1077 C 92.6322 0.654674 4.4501 0
M  V30 1078 C 93.9512 -1.41334 4.16789 0
M  V30 1079 H 91.0702 -0.0969531 0.730595 0
M  V30 1080 H 93.7122 0.448066 1.84641 0
M  V30 1081 H 91.8622 -1.21078 3.69151 0
M  V30 1082 H 93.5342 1.29285 4.42813 0
M  V30 1083 H 91.7772 1.28224 4.14416 0
M  V30 1084 H 92.4482 0.380944 5.50684 0
M  V30 1085 H 94.9242 -0.895597 4.06347 0
M  V30 1086 H 93.8002 -1.61127 5.24718 0
M  V30 1087 H 94.0612 -2.41146 3.70541 0
M  V30 1088 N 93.1203 -1.57491 0.0584922 0
M  V30 1089 C 94.0303 -2.15448 -0.928414 0
M  V30 1090 C 95.0463 -1.11416 -1.3365 0
M  V30 1091 O 96.2223 -1.4362 -1.41193 0
M  V30 1092 C 93.2873 -2.69393 -2.18239 0
M  V30 1093 C 92.3483 -3.88249 -1.83196 0
M  V30 1094 C 91.5813 -4.39613 -3.02616 0
M  V30 1095 O 91.8043 -3.90023 -4.16219 0
M  V30 1096 O 90.7383 -5.31111 -2.83204 0
M  V30 1097 H 94.5643 -3.00112 -0.465483 0
M  V30 1098 H 92.1493 -1.48499 -0.163826 0
M  V30 1099 H 94.0313 -3.04026 -2.91798 0
M  V30 1100 H 92.7063 -1.87796 -2.63656 0
M  V30 1101 H 91.6133 -3.58492 -1.06931 0
M  V30 1102 H 92.9463 -4.71098 -1.42573 0
M  V30 1103 N 94.5984 0.214957 -1.56127 0
M  V30 1104 C 95.8474 0.936451 -1.78643 0
M  V30 1105 C 96.1604 1.85237 -0.628229 0
M  V30 1106 O 97.3664 2.613 -0.737186 0
M  V30 1107 C 95.8224 1.7154 -3.16389 0
M  V30 1108 C 95.4304 0.845299 -4.39953 0
M  V30 1109 C 97.1744 2.42772 -3.48227 0
M  V30 1110 C 95.0814 1.62198 -5.68723 0
M  V30 1111 H 94.0114 0.353401 -0.666051 0
M  V30 1112 H 96.6624 0.190169 -1.82512 0
M  V30 1113 H 95.0444 2.50484 -3.06715 0
M  V30 1114 H 96.2184 0.0959353 -4.607 0
M  V30 1115 H 94.5334 0.244789 -4.1568 0
M  V30 1116 H 97.1304 3.01394 -4.41663 0
M  V30 1117 H 97.4734 3.15984 -2.71035 0
M  V30 1118 H 98.0064 1.70813 -3.5926 0
M  V30 1119 H 94.7454 0.933011 -6.48826 0
M  V30 1120 H 94.2654 2.34579 -5.52026 0
M  V30 1121 H 95.9444 2.18095 -6.09133 0
M  V30 1122 N 96.0765 1.50051 0.48192 0
M  V30 1123 C 97.3225 1.60736 1.2366 0
M  V30 1124 C 97.6555 0.301786 1.91841 0
M  V30 1125 O 96.9305 -0.696025 1.8162 0
M  V30 1126 C 97.2135 2.78009 2.28874 0
M  V30 1127 C 97.0665 4.18416 1.65069 0
M  V30 1128 C 98.3855 2.90867 3.30279 0
M  V30 1129 H 95.5045 0.585031 0.448228 0
M  V30 1130 H 98.1465 1.82402 0.531946 0
M  V30 1131 H 96.2965 2.59667 2.88973 0
M  V30 1132 H 97.9685 4.48322 1.0865 0
M  V30 1133 H 96.2115 4.23177 0.954148 0
M  V30 1134 H 96.8825 4.96381 2.41474 0
M  V30 1135 H 99.3585 3.07623 2.80191 0
M  V30 1136 H 98.2345 3.74566 4.01238 0
M  V30 1137 H 98.4955 2.01021 3.93755 0
M  V30 1138 N 97.5546 -0.734337 1.39446 0
M  V30 1139 C 98.5016 -1.84835 1.38219 0
M  V30 1140 C 99.4716 -1.64331 0.24179 0
M  V30 1141 O 100.657 -1.85728 0.437002 0
M  V30 1142 C 97.7966 -3.22355 1.23212 0
M  V30 1143 C 96.9096 -3.5456 2.46801 0
M  V30 1144 C 96.0446 -4.81485 2.24377 0
M  V30 1145 C 95.0836 -5.06536 3.43639 0
M  V30 1146 N 94.2206 -6.24665 3.20528 0
M  V30 1147 H 99.0606 -1.85219 2.33448 0
M  V30 1148 H 96.5976 -0.905039 1.15963 0
M  V30 1149 H 98.5556 -4.0174 1.12522 0
M  V30 1150 H 97.1856 -3.21248 0.316121 0
M  V30 1151 H 96.2376 -2.69872 2.68092 0
M  V30 1152 H 97.5496 -3.6899 3.3563 0
M  V30 1153 H 96.7036 -5.68852 2.10933 0
M  V30 1154 H 95.4426 -4.6923 1.32944 0
M  V30 1155 H 94.4476 -4.17632 3.5758 0
M  V30 1156 H 95.6726 -5.20676 4.35974 0
M  V30 1157 H 93.6186 -6.13696 2.3176 0
M  V30 1158 H 93.5356 -6.39685 4.02913 0
M  V30 1159 H 94.8036 -7.14868 3.10779 0
M  V30 1160 N 99.0327 -1.24633 -0.964593 0
M  V30 1161 C 100.258 -1.11596 -1.74818 0
M  V30 1162 C 100.683 0.32723 -1.85232 0
M  V30 1163 O 100.041 1.23695 -1.32549 0
M  V30 1164 C 100.089 -1.76397 -3.1451 0
M  V30 1165 O 99.1927 -1.03685 -3.99153 0
M  V30 1166 H 98.5337 -0.390196 -0.537255 0
M  V30 1167 H 101.064 -1.65002 -1.20977 0
M  V30 1168 H 101.074 -1.8228 -3.65018 0
M  V30 1169 H 99.7487 -2.81401 -3.06246 0
M  V30 1170 H 98.3257 -1.05611 -3.57632 0
M  V30 1171 N 100.511 1.16574 -1.06058 0
M  V30 1172 C 101.788 1.83048 -0.689416 0
M  V30 1173 C 102.168 1.94122 0.829443 0
M  V30 1174 O 101.516 1.48249 1.7388 0
M  V30 1175 C 101.726 3.20186 -1.38859 0
M  V30 1176 C 103.074 3.95989 -1.53226 0
M  V30 1177 O 104.098 3.29696 -1.3483 0
M  V30 1178 O 102.957 5.14813 -1.83384 0
M  V30 1179 H 100.051 0.790258 -0.243764 0
M  V30 1180 H 102.597 1.23797 -1.16071 0
M  V30 1181 H 101.369 3.07146 -2.4244 0
M  V30 1182 H 100.992 3.87112 -0.907216 0
M  V30 1183 N 101.989 0.842826 1.3317 0
M  V30 1184 C 103.238 0.436738 1.96915 0
M  V30 1185 C 103.551 -1.01025 1.67491 0
M  V30 1186 O 104.757 -1.5212 2.24881 0
M  V30 1187 C 103.213 0.730021 3.52418 0
M  V30 1188 C 102.821 2.19195 3.90714 0
M  V30 1189 C 104.565 0.391076 4.22695 0
M  V30 1190 C 102.472 2.42907 5.39212 0
M  V30 1191 H 101.402 0.15958 0.736919 0
M  V30 1192 H 104.053 1.03196 1.51733 0
M  V30 1193 H 102.435 0.0643755 3.95948 0
M  V30 1194 H 103.609 2.8984 3.58231 0
M  V30 1195 H 101.924 2.49425 3.33431 0
M  V30 1196 H 104.521 0.545817 5.31907 0
M  V30 1197 H 104.864 -0.666294 4.10933 0
M  V30 1198 H 105.397 1.01212 3.84709 0
M  V30 1199 H 102.136 3.47224 5.55982 0
M  V30 1200 H 101.656 1.76827 5.73142 0
M  V30 1201 H 103.335 2.2626 6.06148 0
M  V30 1202 N 103.467 -1.45747 0.599634 0
M  V30 1203 C 104.692 -2.07178 0.0960198 0
M  V30 1204 C 105.117 -1.44268 -1.207 0
M  V30 1205 O 104.475 -0.532503 -1.73303 0
M  V30 1206 C 104.523 -3.60579 -0.0385348 0
M  V30 1207 O 103.627 -3.97713 -1.0908 0
M  V30 1208 H 102.968 -0.660251 0.0704593 0
M  V30 1209 H 105.498 -1.87124 0.827385 0
M  V30 1210 H 105.508 -4.07298 -0.239304 0
M  V30 1211 H 104.183 -4.05756 0.912947 0
M  V30 1212 H 102.76 -3.62678 -0.867135 0
M  V30 1213 N 104.945 -0.338344 -1.53925 0
M  V30 1214 C 106.194 0.260732 -2.00008 0
M  V30 1215 C 106.507 1.52073 -1.23017 0
M  V30 1216 O 107.713 2.19672 -1.5955 0
M  V30 1217 C 106.169 0.51515 -3.56194 0
M  V30 1218 C 105.777 -0.728645 -4.42035 0
M  V30 1219 C 107.521 1.07337 -4.10706 0
M  V30 1220 C 105.428 -0.445315 -5.89721 0
M  V30 1221 H 104.358 0.101205 -0.747177 0
M  V30 1222 H 107.009 -0.452866 -1.77824 0
M  V30 1223 H 105.391 1.28932 -3.74423 0
M  V30 1224 H 106.565 -1.50352 -4.35581 0
M  V30 1225 H 104.88 -1.20813 -3.98489 0
M  V30 1226 H 107.477 1.30022 -5.18651 0
M  V30 1227 H 107.82 2.0273 -3.63602 0
M  V30 1228 H 108.353 0.360034 -3.96167 0
M  V30 1229 H 105.092 -1.36883 -6.41049 0
M  V30 1230 H 104.612 0.291569 -5.99091 0
M  V30 1231 H 106.291 -0.0606218 -6.46972 0
M  V30 1232 N 106.423 1.57458 -0.0668435 0
M  V30 1233 C 107.834 1.80776 0.466558 0
M  V30 1234 C 108.185 0.980361 1.69951 0
M  V30 1235 O 107.31 0.201441 2.1546 0
M  V30 1236 C 107.905 3.27881 0.85321 0
M  V30 1237 C 106.464 3.52062 1.3315 0
M  V30 1238 C 105.611 2.75513 0.314264 0
M  V30 1239 H 108.562 1.5598 -0.292588 0
M  V30 1240 H 108.583 3.39659 1.715 0
M  V30 1241 H 108.095 3.88075 -0.0443439 0
M  V30 1242 H 106.196 2.97167 2.24772 0
M  V30 1243 H 106.309 4.60762 1.31285 0
M  V30 1244 H 104.673 2.42123 0.790492 0
M  V30 1245 H 105.456 3.38442 -0.575477 0
M  V30 1246 N 107.901 -0.206675 1.56239 0
M  V30 1247 C 109.141 -0.93574 1.81723 0
M  V30 1248 C 109.505 -1.80927 0.642609 0
M  V30 1249 O 110.706 -2.57323 0.777081 0
M  V30 1250 C 108.977 -1.74012 3.12177 0
M  V30 1251 S 110.536 -2.52279 3.59028 0
M  V30 1252 H 107.354 -0.314065 0.637875 0
M  V30 1253 H 109.956 -0.200071 1.94474 0
M  V30 1254 H 108.66 -1.0888 3.95693 0
M  V30 1255 H 108.191 -2.51782 3.02274 0
M  V30 1256 H 110.206 -3.76209 3.23545 0
M  V30 1257 N 109.379 -1.50304 -0.473955 0
M  V30 1258 C 110.329 -1.65347 -1.56985 0
M  V30 1259 C 111.313 -0.508176 -1.52664 0
M  V30 1260 O 112.505 -0.762446 -1.59737 0
M  V30 1261 C 109.634 -1.74832 -2.95447 0
M  V30 1262 C 108.72 -2.95028 -3.04662 0
M  V30 1263 N 109.111 -4.18747 -2.83698 0
M  V30 1264 C 107.409 -2.93527 -3.35795 0
M  V30 1265 C 108.11 -4.99687 -2.97805 0
M  V30 1266 N 107.086 -4.33585 -3.2788 0
M  V30 1267 H 110.888 -2.58698 -1.39472 0
M  V30 1268 H 108.402 -1.47449 -0.680629 0
M  V30 1269 H 110.399 -1.83712 -3.7424 0
M  V30 1270 H 109.059 -0.826376 -3.14008 0
M  V30 1271 H 110.07 -4.48291 -2.59337 0
M  V30 1272 H 106.747 -2.10821 -3.60362 0
M  V30 1273 H 108.137 -6.08057 -2.85861 0
M  V30 1274 N 110.857 0.726932 -1.39834 0
M  V30 1275 C 112.087 1.51393 -1.40583 0
M  V30 1276 C 112.495 1.892 -0.000740625 0
M  V30 1277 O 111.838 1.55189 0.982951 0
M  V30 1278 C 111.9 2.82588 -2.22226 0
M  V30 1279 C 111.564 2.67169 -3.70769 0
M  V30 1280 C 112.561 2.3518 -4.63666 0
M  V30 1281 C 110.246 2.83788 -4.14451 0
M  V30 1282 C 112.24 2.20002 -5.98229 0
M  V30 1283 C 109.927 2.68229 -5.49087 0
M  V30 1284 C 110.925 2.36382 -6.4079 0
M  V30 1285 O 110.613 2.2093 -7.72946 0
M  V30 1286 H 110.345 0.474168 -0.48181 0
M  V30 1287 H 112.899 0.905247 -1.84376 0
M  V30 1288 H 111.129 3.45746 -1.73195 0
M  V30 1289 H 112.818 3.44247 -2.15055 0
M  V30 1290 H 113.584 2.21984 -4.31217 0
M  V30 1291 H 109.463 3.07566 -3.43401 0
M  V30 1292 H 113.007 1.95067 -6.69772 0
M  V30 1293 H 108.904 2.81006 -5.81125 0
M  V30 1294 H 109.672 2.35937 -7.83757 0
M  V30 1295 N 112.336 1.25143 0.95797 0
M  V30 1296 C 113.283 1.05235 2.05412 0
M  V30 1297 C 114.253 -0.0374561 1.66058 0
M  V30 1298 O 115.438 0.119073 1.90428 0
M  V30 1299 C 112.578 0.673589 3.38462 0
M  V30 1300 C 111.691 1.8379 3.90954 0
M  V30 1301 C 110.826 1.40381 5.12315 0
M  V30 1302 C 109.865 2.53746 5.57027 0
M  V30 1303 N 109.002 2.11136 6.69601 0
M  V30 1304 H 113.842 1.99048 2.21774 0
M  V30 1305 H 111.379 0.991277 1.08683 0
M  V30 1306 H 113.337 0.434964 4.14926 0
M  V30 1307 H 111.967 -0.227554 3.21997 0
M  V30 1308 H 111.019 2.18992 3.11041 0
M  V30 1309 H 112.331 2.68937 4.20089 0
M  V30 1310 H 111.485 1.12464 5.96185 0
M  V30 1311 H 110.224 0.523015 4.84887 0
M  V30 1312 H 109.229 2.82412 4.71724 0
M  V30 1313 H 110.454 3.42398 5.86464 0
M  V30 1314 H 108.4 1.25468 6.4389 0
M  V30 1315 H 108.317 2.89832 6.98236 0
M  V30 1316 H 109.585 1.86385 7.56889 0
M  V30 1317 N 113.814 -1.1601 1.06675 0
M  V30 1318 C 115.044 -1.90251 0.805497 0
M  V30 1319 C 115.452 -1.77891 -0.64431 0
M  V30 1320 O 114.795 -1.12383 -1.45313 0
M  V30 1321 C 114.857 -3.41419 1.12576 0
M  V30 1322 C 114.521 -3.77564 2.57477 0
M  V30 1323 C 115.518 -3.79161 3.55715 0
M  V30 1324 C 113.203 -4.08079 2.92877 0
M  V30 1325 C 115.197 -4.10767 4.8739 0
M  V30 1326 C 112.884 -4.39351 4.24751 0
M  V30 1327 C 113.882 -4.40675 5.21818 0
M  V30 1328 O 113.57 -4.71202 6.51325 0
M  V30 1329 H 113.302 -0.610018 0.291297 0
M  V30 1330 H 115.856 -1.47958 1.4247 0
M  V30 1331 H 114.086 -3.84079 0.449503 0
M  V30 1332 H 115.775 -3.9694 0.84814 0
M  V30 1333 H 116.541 -3.55693 3.29708 0
M  V30 1334 H 112.42 -4.06211 2.17976 0
M  V30 1335 H 115.964 -4.11715 5.63148 0
M  V30 1336 H 111.861 -4.62285 4.50514 0
M  V30 1337 H 112.629 -4.88996 6.56373 0
M  V30 1338 N 115.292 -0.849877 -1.32721 0
M  V30 1339 C 116.703 -0.506188 -1.79707 0
M  V30 1340 C 117.054 0.975627 -1.70223 0
M  V30 1341 O 116.179 1.76078 -1.25799 0
M  V30 1342 C 116.774 -0.912044 -3.26293 0
M  V30 1343 C 115.333 -0.620326 -3.71253 0
M  V30 1344 C 114.48 -1.11439 -2.53922 0
M  V30 1345 H 117.431 -1.03754 -1.20087 0
M  V30 1346 H 117.452 -0.226493 -3.79825 0
M  V30 1347 H 116.964 -1.99057 -3.33164 0
M  V30 1348 H 115.065 0.447674 -3.69901 0
M  V30 1349 H 115.178 -1.18327 -4.64258 0
M  V30 1350 H 113.542 -0.534834 -2.49021 0
M  V30 1351 H 114.325 -2.19992 -2.6355 0
M  V30 1352 N 116.77 1.45427 -0.607355 0
M  V30 1353 C 118.017 2.02241 -0.102455 0
M  V30 1354 C 118.345 1.4758 1.26691 0
M  V30 1355 O 117.6 0.640468 1.84923 0
M  V30 1356 C 117.899 3.57398 -0.0129263 0
M  V30 1357 C 117.565 4.3121 -1.31792 0
M  V30 1358 C 116.227 4.51092 -1.67539 0
M  V30 1359 C 118.579 4.73401 -2.18039 0
M  V30 1360 C 115.907 5.10422 -2.89285 0
M  V30 1361 C 118.259 5.34078 -3.39034 0
M  V30 1362 C 116.923 5.52184 -3.75033 0
M  V30 1363 H 116.193 0.740051 -0.037491 0
M  V30 1364 H 118.84 1.74494 -0.788926 0
M  V30 1365 H 117.145 3.84421 0.756806 0
M  V30 1366 H 118.842 3.99061 0.393881 0
M  V30 1367 H 115.432 4.16047 -1.02968 0
M  V30 1368 H 119.616 4.57774 -1.91721 0
M  V30 1369 H 114.872 5.22629 -3.17283 0
M  V30 1370 H 119.046 5.65724 -4.06115 0
M  V30 1371 H 116.673 5.97925 -4.69457 0
M  V30 1372 N 118.248 0.346503 1.53744 0
M  V30 1373 C 119.18 -0.543316 2.22667 0
M  V30 1374 C 120.193 -1.06159 1.23427 0
M  V30 1375 O 121.382 -0.971235 1.49764 0
M  V30 1376 C 118.482 -1.76076 2.89569 0
M  V30 1377 C 117.655 -1.37727 4.15151 0
M  V30 1378 C 116.714 -2.45471 4.65436 0
M  V30 1379 O 115.74 -2.08655 5.29577 0
M  V30 1380 N 116.942 -3.7677 4.41616 0
M  V30 1381 H 119.707 0.0469703 2.99663 0
M  V30 1382 H 117.268 0.170766 1.60997 0
M  V30 1383 H 119.26 -2.47593 3.20125 0
M  V30 1384 H 117.83 -2.25835 2.16142 0
M  V30 1385 H 117.05 -0.492746 3.91108 0
M  V30 1386 H 118.338 -1.09708 4.96832 0
M  V30 1387 H 117.736 -4.09467 3.90325 0
M  V30 1388 H 116.293 -4.44448 4.7677 0
M  V30 1389 N 119.726 -1.57421 0.075193 0
M  V30 1390 C 120.972 -1.93905 -0.594025 0
M  V30 1391 C 121.305 -0.955701 -1.69056 0
M  V30 1392 O 120.58 0.0145373 -1.94495 0
M  V30 1393 C 120.863 -3.40638 -1.1678 0
M  V30 1394 C 120.716 -4.49733 -0.0776792 0
M  V30 1395 C 122.035 -3.88259 -2.07228 0
M  V30 1396 H 119.154 -0.705105 -0.214466 0
M  V30 1397 H 121.796 -1.8947 0.141854 0
M  V30 1398 H 119.946 -3.44549 -1.79494 0
M  V30 1399 H 121.618 -4.57942 0.555573 0
M  V30 1400 H 119.861 -4.29751 0.591286 0
M  V30 1401 H 120.532 -5.49549 -0.519603 0
M  V30 1402 H 123.008 -3.86376 -1.54445 0
M  V30 1403 H 121.884 -4.91533 -2.44308 0
M  V30 1404 H 122.145 -3.26396 -2.98191 0
M  V30 1405 N 121.204 0.198386 -1.56346 0
M  V30 1406 C 122.45 0.920648 -1.80698 0
M  V30 1407 C 122.783 1.83045 -0.648697 0
M  V30 1408 O 122.058 1.91308 0.350925 0
M  V30 1409 C 122.341 1.73971 -3.15287 0
M  V30 1410 C 122.194 0.85485 -4.41602 0
M  V30 1411 C 123.513 2.71296 -3.46535 0
M  V30 1412 H 120.632 0.333261 -0.657348 0
M  V30 1413 H 123.274 0.188198 -1.89066 0
M  V30 1414 H 121.424 2.36416 -3.08285 0
M  V30 1415 H 123.096 0.245362 -4.60647 0
M  V30 1416 H 121.339 0.161398 -4.335 0
M  V30 1417 H 122.01 1.46286 -5.32264 0
M  V30 1418 H 124.486 2.18983 -3.53816 0
M  V30 1419 H 123.362 3.2569 -4.41834 0
M  V30 1420 H 123.623 3.5018 -2.69864 0
M  V30 1421 N 122.682 1.50554 0.465978 0
M  V30 1422 C 123.632 1.66177 1.56106 0
M  V30 1423 C 124.616 0.516265 1.52393 0
M  V30 1424 O 125.808 0.770906 1.5933 0
M  V30 1425 C 122.937 1.76396 2.94515 0
M  V30 1426 C 122.023 2.9664 3.03093 0
M  V30 1427 N 122.414 4.20245 2.81474 0
M  V30 1428 C 120.712 2.95304 3.34233 0
M  V30 1429 C 121.413 5.01259 2.95151 0
M  V30 1430 N 120.389 4.35318 3.25576 0
M  V30 1431 H 124.191 2.59434 1.38099 0
M  V30 1432 H 121.705 1.47808 0.6728 0
M  V30 1433 H 123.702 1.85694 3.73261 0
M  V30 1434 H 122.362 0.843017 3.13565 0
M  V30 1435 H 123.373 4.4966 2.56956 0
M  V30 1436 H 120.05 2.12729 3.59239 0
M  V30 1437 H 121.44 6.09564 2.82632 0
M  V30 1438 N 124.16 -0.719506 1.40217 0
M  V30 1439 C 125.437 -1.47221 1.28784 0
M  V30 1440 C 125.817 -2.10883 -0.0956067 0
M  V30 1441 O 125.165 -1.99833 -1.10811 0
M  V30 1442 C 125.375 -2.5111 2.42373 0
M  V30 1443 C 126.723 -3.17053 2.82423 0
M  V30 1444 O 127.747 -2.61429 2.41937 0
M  V30 1445 O 126.606 -4.17742 3.52355 0
M  V30 1446 H 123.7 -0.654491 0.50554 0
M  V30 1447 H 126.246 -0.752014 1.52128 0
M  V30 1448 H 125.018 -2.02556 3.34793 0
M  V30 1449 H 124.641 -3.3067 2.20778 0
M  V30 1450 N 125.638 -1.25649 -0.95132 0
M  V30 1451 C 126.586 -1.06118 -2.06982 0
M  V30 1452 C 127.58 0.00889169 -1.69398 0
M  V30 1453 O 128.786 -0.146988 -1.79399 0
M  V30 1454 H 125.161 -0.326248 -0.677544 0
M  V30 1455 H 127.132 -2.00932 -2.2061 0
M  V30 1456 C 125.881 -0.700145 -3.40578 0
M  V30 1457 H 125.204 -1.51537 -3.69968 0
M  V30 1458 H 126.644 -0.603211 -4.19687 0
M  V30 1459 C 125.103 0.59403 -3.31622 0
M  V30 1460 O 125.633 1.63522 -3.66911 0
M  V30 1461 N 123.839 0.58089 -2.84735 0
M  V30 1462 H 123.386 -0.266783 -2.56215 0
M  V30 1463 H 123.344 1.44695 -2.79125 0
M  V30 1464 N 127.117 1.15442 -1.07289 0
M  V30 1465 C 128.347 1.89821 -0.815576 0
M  V30 1466 C 128.755 1.7823 0.634867 0
M  V30 1467 O 128.098 1.13152 1.44715 0
M  V30 1468 C 128.16 3.40817 -1.14385 0
M  V30 1469 C 127.824 3.76193 -2.59476 0
M  V30 1470 C 128.821 3.77269 -3.57721 0
M  V30 1471 C 126.506 4.0652 -2.95037 0
M  V30 1472 C 128.5 4.08176 -4.89562 0
M  V30 1473 C 126.187 4.37092 -4.27076 0
M  V30 1474 C 127.185 4.37902 -5.24148 0
M  V30 1475 O 126.873 4.67741 -6.53815 0
M  V30 1476 H 126.605 0.608465 -0.294528 0
M  V30 1477 H 129.159 1.472 -1.43252 0
M  V30 1478 H 127.389 3.83835 -0.469865 0
M  V30 1479 H 129.078 3.96485 -0.869179 0
M  V30 1480 H 129.844 3.5394 -3.3159 0
M  V30 1481 H 125.723 4.05049 -2.20128 0
M  V30 1482 H 129.267 4.08723 -5.65324 0
M  V30 1483 H 125.164 4.59889 -4.5296 0
M  V30 1484 H 125.932 4.85509 -6.58957 0
M  V30 1485 N 128.595 0.856903 1.32268 0
M  V30 1486 C 129.525 0.31858 2.31316 0
M  V30 1487 C 130.506 -0.583487 1.59779 0
M  V30 1488 O 131.691 -0.503259 1.87566 0
M  V30 1489 C 128.821 -0.491979 3.43798 0
M  V30 1490 C 127.775 0.315849 4.26833 0
M  V30 1491 C 127.101 -0.619586 5.31098 0
M  V30 1492 C 128.401 1.54282 4.98993 0
M  V30 1493 H 130.095 1.14621 2.76591 0
M  V30 1494 H 127.641 0.552613 1.32974 0
M  V30 1495 H 129.594 -0.879012 4.1213 0
M  V30 1496 H 128.318 -1.35299 2.97257 0
M  V30 1497 H 126.977 0.684664 3.6015 0
M  V30 1498 H 126.625 -1.47751 4.8081 0
M  V30 1499 H 126.325 -0.0830621 5.87541 0
M  V30 1500 H 127.849 -1.00375 6.02293 0
M  V30 1501 H 129.263 1.22796 5.59995 0
M  V30 1502 H 127.66 2.01745 5.65172 0
M  V30 1503 H 128.73 2.30285 4.26728 0
M  V30 1504 N 130.073 -1.45103 0.615059 0
M  V30 1505 C 131.003 -2.33339 -0.0865619 0
M  V30 1506 C 131.984 -1.4727 -0.851209 0
M  V30 1507 O 133.169 -1.76026 -0.820281 0
M  V30 1508 C 130.299 -3.30095 -1.07956 0
M  V30 1509 C 129.253 -4.25858 -0.427628 0
M  V30 1510 C 128.579 -5.12361 -1.5294 0
M  V30 1511 C 129.879 -5.18165 0.655944 0
M  V30 1512 H 131.573 -2.92254 0.650224 0
M  V30 1513 H 129.119 -1.40532 0.314138 0
M  V30 1514 H 131.072 -3.90698 -1.57901 0
M  V30 1515 H 129.796 -2.69355 -1.84703 0
M  V30 1516 H 128.455 -3.66564 0.0510292 0
M  V30 1517 H 128.103 -4.47984 -2.28734 0
M  V30 1518 H 127.803 -5.77238 -1.09865 0
M  V30 1519 H 129.327 -5.75833 -2.03098 0
M  V30 1520 H 130.741 -5.72796 0.240257 0
M  V30 1521 H 129.138 -5.91559 1.00888 0
M  V30 1522 H 130.208 -4.60144 1.52957 0
M  V30 1523 N 131.551 -0.354651 -1.53558 0
M  V30 1524 C 132.781 0.239167 -2.05211 0
M  V30 1525 C 133.189 1.43879 -1.22863 0
M  V30 1526 O 132.532 1.81857 -0.259565 0
M  V30 1527 C 132.594 0.707251 -3.52474 0
M  V30 1528 C 132.258 -0.374212 -4.55465 0
M  V30 1529 C 133.255 -1.22054 -5.0537 0
M  V30 1530 C 130.94 -0.531323 -4.99482 0
M  V30 1531 C 132.934 -2.20942 -5.97882 0
M  V30 1532 C 130.621 -1.52358 -5.91802 0
M  V30 1533 C 131.619 -2.36108 -6.40892 0
M  V30 1534 O 131.307 -3.33643 -7.31394 0
M  V30 1535 H 131.039 0.0479716 -0.674296 0
M  V30 1536 H 133.593 -0.508121 -1.99016 0
M  V30 1537 H 131.823 1.50596 -3.56171 0
M  V30 1538 H 133.512 1.22285 -3.87042 0
M  V30 1539 H 134.278 -1.1103 -4.7212 0
M  V30 1540 H 130.157 0.110738 -4.60867 0
M  V30 1541 H 133.701 -2.86348 -6.36121 0
M  V30 1542 H 129.598 -1.63434 -6.24467 0
M  V30 1543 H 130.366 -3.29244 -7.4936 0
M  V30 1544 N 133.029 1.57378 -0.0835403 0
M  V30 1545 C 134.275 1.94217 0.583733 0
M  V30 1546 C 134.608 0.964653 1.68547 0
M  V30 1547 O 133.883 -0.00422258 1.945 0
M  V30 1548 C 134.166 3.41253 1.14972 0
M  V30 1549 C 134.019 4.49768 0.0538277 0
M  V30 1550 C 135.338 3.89352 2.05166 0
M  V30 1551 H 132.457 0.706233 0.210724 0
M  V30 1552 H 135.099 1.89392 -0.1519 0
M  V30 1553 H 133.249 3.45496 1.77665 0
M  V30 1554 H 134.921 4.57641 -0.579851 0
M  V30 1555 H 133.164 4.29432 -0.614068 0
M  V30 1556 H 133.835 5.49817 0.490452 0
M  V30 1557 H 136.311 3.87189 1.52393 0
M  V30 1558 H 135.187 4.92822 2.41698 0
M  V30 1559 H 135.448 3.27973 2.96456 0
M  V30 1560 N 134.507 -0.190092 1.56449 0
M  V30 1561 C 135.754 -0.909705 1.80916 0
M  V30 1562 C 136.082 -1.83047 0.657583 0
M  V30 1563 O 135.337 -1.92428 -0.356356 0
M  V30 1564 C 135.636 -1.75382 3.1141 0
M  V30 1565 C 135.302 -0.983606 4.40041 0
M  V30 1566 C 133.964 -0.770967 4.74984 0
M  V30 1567 C 136.316 -0.442024 5.19322 0
M  V30 1568 C 133.644 -0.0053448 5.867 0
M  V30 1569 C 135.996 0.310412 6.31838 0
M  V30 1570 C 134.66 0.534023 6.6536 0
M  V30 1571 H 133.93 -0.332885 0.662019 0
M  V30 1572 H 136.577 -0.175762 1.90692 0
M  V30 1573 H 134.882 -2.55659 2.96893 0
M  V30 1574 H 136.579 -2.31331 3.27547 0
M  V30 1575 H 133.169 -1.15936 4.12622 0
M  V30 1576 H 137.353 -0.593693 4.92736 0
M  V30 1577 H 132.609 0.177825 6.11141 0
M  V30 1578 H 136.783 0.737419 6.92485 0
M  V30 1579 H 134.41 1.12918 7.51767 0
M  V30 1580 N 135.985 -1.50799 -0.457987 0
M  V30 1581 C 136.948 -1.7005 -1.53674 0
M  V30 1582 C 137.948 -0.570881 -1.50325 0
M  V30 1583 O 139.138 -0.838126 -1.52712 0
M  V30 1584 C 136.27 -1.73788 -2.93276 0
M  V30 1585 H 137.463 -2.66306 -1.37917 0
M  V30 1586 H 135.016 -1.40477 -0.685271 0
M  V30 1587 H 135.751 -0.792717 -3.14462 0
M  V30 1588 H 135.536 -2.55864 -2.97113 0
M  V30 1589 H 137.026 -1.90591 -3.71571 0
M  V30 1590 N 137.463 0.71206 -1.40597 0
M  V30 1591 C 138.874 1.29135 -1.34837 0
M  V30 1592 C 139.225 1.96186 -0.0235395 0
M  V30 1593 O 138.35 1.97768 0.878444 0
M  V30 1594 C 138.945 2.34827 -2.44217 0
M  V30 1595 C 137.504 2.88371 -2.41907 0
M  V30 1596 C 136.651 1.62202 -2.24913 0
M  V30 1597 H 139.602 0.507944 -1.50352 0
M  V30 1598 H 139.623 3.15749 -2.12327 0
M  V30 1599 H 139.135 1.85996 -3.40627 0
M  V30 1600 H 137.236 3.41422 -1.49204 0
M  V30 1601 H 137.349 3.39925 -3.37621 0
M  V30 1602 H 135.713 1.874 -1.72492 0
M  V30 1603 H 136.496 1.15391 -3.23326 0
M  V30 1604 N 138.941 1.26152 0.944643 0
M  V30 1605 C 140.218 1.02247 1.66748 0
M  V30 1606 C 140.598 -0.448202 2.06287 0
M  V30 1607 O 139.946 -1.42779 1.78399 0
M  V30 1608 C 140.156 1.96788 2.88228 0
M  V30 1609 C 141.504 2.25201 3.59958 0
M  V30 1610 O 142.528 1.94626 2.98327 0
M  V30 1611 O 141.387 2.77242 4.70956 0
M  V30 1612 H 138.481 0.388517 0.730057 0
M  V30 1613 H 141.027 1.37348 0.99668 0
M  V30 1614 H 139.799 2.96047 2.55875 0
M  V30 1615 H 139.422 1.62145 3.63035 0
M  V30 1616 N 140.419 -1.14872 1.07899 0
M  V30 1617 C 141.835 -1.37776 0.805606 0
M  V30 1618 C 142.035 -1.92743 -0.587555 0
M  V30 1619 O 141.091 -2.13678 -1.34528 0
M  V30 1620 C 142.404 -2.34361 1.88402 0
M  V30 1621 C 143.952 -2.48012 1.90942 0
M  V30 1622 C 144.427 -3.47893 2.97883 0
M  V30 1623 N 145.918 -3.55433 2.97021 0
M  V30 1624 C 146.653 -4.32553 3.76412 0
M  V30 1625 N 146.149 -5.12959 4.65666 0
M  V30 1626 N 147.942 -4.27697 3.64735 0
M  V30 1627 H 140.093 -0.775365 1.97742 0
M  V30 1628 H 142.356 -0.403521 0.857831 0
M  V30 1629 H 142.062 -2.01098 2.88535 0
M  V30 1630 H 141.936 -3.34206 1.74889 0
M  V30 1631 H 144.323 -2.8057 0.914579 0
M  V30 1632 H 144.404 -1.48147 2.08534 0
M  V30 1633 H 144.048 -3.16069 3.97571 0
M  V30 1634 H 143.978 -4.47527 2.77538 0
M  V30 1635 H 146.469 -2.98048 2.32326 0
M  V30 1636 H 146.782 -5.69065 5.22862 0
M  V30 1637 H 145.127 -5.12245 4.69712 0
M  V30 1638 H 148.318 -3.63949 2.94378 0
M  V30 1639 H 148.491 -4.8755 4.26848 0
M  V30 1640 N 141.898 -0.863906 -1.31812 0
M  V30 1641 C 142.808 -0.318461 -2.32428 0
M  V30 1642 C 143.824 0.568496 -1.64451 0
M  V30 1643 O 145 0.46666 -1.95919 0
M  V30 1644 C 142.065 0.476355 -3.43412 0
M  V30 1645 C 141.126 -0.43784 -4.27061 0
M  V30 1646 C 140.359 0.319138 -5.32745 0
M  V30 1647 O 140.582 1.54799 -5.48993 0
M  V30 1648 O 139.516 -0.319861 -6.01049 0
M  V30 1649 H 143.342 -1.15229 -2.80991 0
M  V30 1650 H 140.927 -0.627103 -1.35602 0
M  V30 1651 H 142.809 0.927156 -4.11074 0
M  V30 1652 H 141.484 1.28683 -2.97022 0
M  V30 1653 H 140.391 -0.937013 -3.62175 0
M  V30 1654 H 141.724 -1.21375 -4.77 0
M  V30 1655 N 143.376 1.44774 -0.622745 0
M  V30 1656 C 144.601 2.06999 -0.128968 0
M  V30 1657 C 145.026 1.4617 1.1839 0
M  V30 1658 O 144.384 0.560007 1.72434 0
M  V30 1659 C 144.432 3.60595 -0.0188351 0
M  V30 1660 O 143.536 3.99398 1.02739 0
M  V30 1661 H 142.877 0.659047 -0.0809544 0
M  V30 1662 H 145.407 1.85784 -0.85705 0
M  V30 1663 H 145.417 4.07627 0.174476 0
M  V30 1664 H 144.092 4.04252 -0.977384 0
M  V30 1665 H 142.669 3.64011 0.809326 0
M  V30 1666 N 144.854 0.36279 1.53368 0
M  V30 1667 C 146.27 0.0116182 1.59596 0
M  V30 1668 C 146.47 -1.47012 1.37803 0
M  V30 1669 O 145.526 -2.23136 1.18181 0
M  V30 1670 C 146.839 0.465052 2.97082 0
M  V30 1671 C 148.387 0.419033 3.10182 0
M  V30 1672 C 148.862 0.848235 4.50077 0
M  V30 1673 N 150.353 0.803183 4.56183 0
M  V30 1674 C 151.088 1.107 5.62613 0
M  V30 1675 N 150.584 1.47996 6.76808 0
M  V30 1676 N 152.377 1.02998 5.52583 0
M  V30 1677 H 144.528 1.32775 1.65785 0
M  V30 1678 H 146.791 0.542518 0.777417 0
M  V30 1679 H 146.497 1.49892 3.18159 0
M  V30 1680 H 146.371 -0.149786 3.76902 0
M  V30 1681 H 148.758 -0.605696 2.88817 0
M  V30 1682 H 148.839 1.06933 2.32377 0
M  V30 1683 H 148.483 1.87107 4.7218 0
M  V30 1684 H 148.413 0.175218 5.26308 0
M  V30 1685 H 150.904 0.52838 3.74188 0
M  V30 1686 H 151.217 1.69613 7.53957 0
M  V30 1687 H 149.562 1.51859 6.78206 0
M  V30 1688 H 152.753 0.737817 4.62249 0
M  V30 1689 H 152.926 1.2701 6.35431 0
M  V30 1690 N 146.332 -1.57332 0.0918853 0
M  V30 1691 C 147.264 -2.10869 -0.898168 0
M  V30 1692 C 148.277 -1.04521 -1.24817 0
M  V30 1693 O 149.466 -1.31977 -1.20184 0
M  V30 1694 C 146.566 -2.57083 -2.2082 0
M  V30 1695 C 145.739 -3.87229 -2.03402 0
M  V30 1696 C 144.798 -4.19324 -3.17889 0
M  V30 1697 O 143.824 -4.88598 -2.91994 0
M  V30 1698 N 145.026 -3.74471 -4.43567 0
M  V30 1699 H 147.791 -2.96439 -0.440943 0
M  V30 1700 H 145.352 -1.61631 -0.0933064 0
M  V30 1701 H 147.344 -2.75602 -2.96354 0
M  V30 1702 H 145.914 -1.76541 -2.57977 0
M  V30 1703 H 145.134 -3.7789 -1.12218 0
M  V30 1704 H 146.422 -4.72379 -1.89038 0
M  V30 1705 H 145.82 -3.18546 -4.67488 0
M  V30 1706 H 144.377 -3.98151 -5.16061 0
M  V30 1707 N 147.81 0.181792 -1.56548 0
M  V30 1708 C 149.226 0.53316 -1.50431 0
M  V30 1709 C 149.426 1.85184 -0.794297 0
M  V30 1710 O 148.482 2.50058 -0.350318 0
M  V30 1711 C 149.795 0.575597 -2.9514 0
M  V30 1712 C 151.343 0.663519 -3.05886 0
M  V30 1713 C 151.818 0.736946 -4.52032 0
M  V30 1714 N 153.309 0.800118 -4.56237 0
M  V30 1715 C 154.044 0.877327 -5.66649 0
M  V30 1716 N 153.54 0.916016 -6.86718 0
M  V30 1717 N 155.333 0.915542 -5.54594 0
M  V30 1718 H 147.484 -0.683025 -2.01118 0
M  V30 1719 H 149.747 -0.244988 -0.915797 0
M  V30 1720 H 149.453 -0.324482 -3.502 0
M  V30 1721 H 149.327 1.42572 -3.49218 0
M  V30 1722 H 151.714 1.55403 -2.50867 0
M  V30 1723 H 151.795 -0.21307 -2.54911 0
M  V30 1724 H 151.439 -0.149262 -5.07681 0
M  V30 1725 H 151.369 1.62953 -5.00753 0
M  V30 1726 H 153.86 0.778926 -3.69785 0
M  V30 1727 H 154.173 0.975813 -7.66614 0
M  V30 1728 H 152.518 0.884469 -6.89349 0
M  V30 1729 H 155.709 0.882245 -4.59711 0
M  V30 1730 H 155.882 0.972253 -6.40665 0
M  V30 1731 N 149.288 1.51039 0.449983 0
M  V30 1732 C 150.534 1.64287 1.19923 0
M  V30 1733 C 150.889 0.348701 1.89214 0
M  V30 1734 O 150.182 -0.654751 1.80065 0
M  V30 1735 C 150.376 2.77556 2.25161 0
M  V30 1736 C 150.205 4.17862 1.66198 0
M  V30 1737 C 148.975 4.83976 1.45243 0
M  V30 1738 C 151.173 5.01388 1.14519 0
M  V30 1739 N 149.155 6.08433 0.817437 0
M  V30 1740 C 150.526 6.16743 0.634705 0
M  V30 1741 C 152.581 4.87008 1.03574 0
M  V30 1742 C 151.284 7.19295 0.0255452 0
M  V30 1743 C 153.31 5.89757 0.440489 0
M  V30 1744 C 152.672 7.04375 -0.0595112 0
M  V30 1745 H 148.771 0.655161 0.426952 0
M  V30 1746 H 151.355 1.88228 0.49781 0
M  V30 1747 H 149.526 2.553 2.92706 0
M  V30 1748 H 151.258 2.80049 2.92155 0
M  V30 1749 H 148.013 4.41627 1.71063 0
M  V30 1750 H 148.437 6.75017 0.517747 0
M  V30 1751 H 153.079 3.9866 1.4082 0
M  V30 1752 H 150.797 8.07302 -0.359071 0
M  V30 1753 H 154.383 5.80698 0.35788 0
M  V30 1754 H 153.263 7.82521 -0.512882 0
M  V30 1755 N 150.766 -0.704594 1.40972 0
M  V30 1756 C 152.012 -1.46675 1.40051 0
M  V30 1757 C 152.345 -1.94199 0.00641102 0
M  V30 1758 O 151.62 -1.68916 -0.964235 0
M  V30 1759 C 151.903 -2.68505 2.39952 0
M  V30 1760 C 151.756 -2.26805 3.88432 0
M  V30 1761 C 153.075 -3.70686 2.37233 0
M  V30 1762 H 150.194 -0.532015 0.510028 0
M  V30 1763 H 152.836 -0.803255 1.72185 0
M  V30 1764 H 150.986 -3.25114 2.1268 0
M  V30 1765 H 152.658 -1.75592 4.26574 0
M  V30 1766 H 150.901 -1.58685 4.03734 0
M  V30 1767 H 151.572 -3.14181 4.53866 0
M  V30 1768 H 154.048 -3.23731 2.61415 0
M  V30 1769 H 152.924 -4.53553 3.09162 0
M  V30 1770 H 153.185 -4.19754 1.38777 0
M  V30 1771 N 152.244 -1.26651 -0.937939 0
M  V30 1772 C 153.174 -1.10993 -2.05433 0
M  V30 1773 C 154.155 -0.0142161 -1.70094 0
M  V30 1774 O 155.34 -0.186837 -1.93299 0
M  V30 1775 C 152.47 -0.745561 -3.39203 0
M  V30 1776 C 151.424 -1.79337 -3.88616 0
M  V30 1777 C 150.75 -1.28324 -5.19073 0
M  V30 1778 C 152.05 -3.19553 -4.13138 0
M  V30 1779 H 153.744 -2.0438 -2.1879 0
M  V30 1780 H 151.29 -0.984041 -1.05131 0
M  V30 1781 H 153.243 -0.622888 -4.16771 0
M  V30 1782 H 151.967 0.22401 -3.25831 0
M  V30 1783 H 150.626 -1.90477 -3.13231 0
M  V30 1784 H 150.274 -0.303414 -5.02084 0
M  V30 1785 H 149.974 -1.98369 -5.53103 0
M  V30 1786 H 151.498 -1.1733 -5.99221 0
M  V30 1787 H 152.912 -3.11471 -4.81309 0
M  V30 1788 H 151.309 -3.87218 -4.58457 0
M  V30 1789 H 152.379 -3.65368 -3.18801 0
M  V30 1790 N 153.722 1.14298 -1.08507 0
M  V30 1791 C 154.685 2.17607 -0.719711 0
M  V30 1792 C 155.685 1.58907 0.245997 0
M  V30 1793 O 156.875 1.74181 0.0254081 0
M  V30 1794 C 154.007 3.40842 -0.0627695 0
M  V30 1795 H 155.2 2.51443 -1.63452 0
M  V30 1796 H 152.753 1.28963 -0.88307 0
M  V30 1797 H 153.488 3.12587 0.863716 0
M  V30 1798 H 153.273 3.84713 -0.757504 0
M  V30 1799 H 154.763 4.17221 0.177786 0
M  V30 1800 N 155.201 0.870884 1.31352 0
M  V30 1801 C 156.131 0.343096 2.30966 0
M  V30 1802 C 157.112 -0.566507 1.60389 0
M  V30 1803 O 158.297 -0.483336 1.88089 0
M  V30 1804 C 155.427 -0.455487 3.443 0
M  V30 1805 C 154.381 0.361103 4.26474 0
M  V30 1806 C 153.707 -0.563221 5.31725 0
M  V30 1807 C 155.007 1.59566 4.97329 0
M  V30 1808 H 156.701 1.17548 2.75359 0
M  V30 1809 H 154.247 0.566686 1.32381 0
M  V30 1810 H 156.2 -0.83525 4.13039 0
M  V30 1811 H 154.924 -1.32139 2.98675 0
M  V30 1812 H 153.583 0.722825 3.59403 0
M  V30 1813 H 153.231 -1.42643 4.82351 0
M  V30 1814 H 152.931 -0.0207409 5.87596 0
M  V30 1815 H 154.455 -0.939808 6.03324 0
M  V30 1816 H 155.869 1.28728 5.58661 0
M  V30 1817 H 154.266 2.07728 5.63 0
M  V30 1818 H 155.336 2.34798 4.24262 0
M  V30 1819 N 156.679 -1.44442 0.630414 0
M  V30 1820 C 157.626 -2.30678 -0.0749355 0
M  V30 1821 C 158.596 -1.4344 -0.837502 0
M  V30 1822 O 159.781 -1.72343 -0.818684 0
M  V30 1823 C 156.921 -3.28706 -1.05103 0
M  V30 1824 C 156.034 -4.31046 -0.286954 0
M  V30 1825 C 155.169 -5.16167 -1.2548 0
M  V30 1826 C 154.208 -6.10216 -0.479843 0
M  V30 1827 N 153.345 -6.88039 -1.39811 0
M  V30 1828 H 158.185 -2.90454 0.666386 0
M  V30 1829 H 155.722 -1.43107 0.340404 0
M  V30 1830 H 157.68 -3.84027 -1.63031 0
M  V30 1831 H 156.31 -2.70632 -1.75949 0
M  V30 1832 H 155.362 -3.78203 0.408243 0
M  V30 1833 H 156.674 -4.97794 0.316657 0
M  V30 1834 H 155.828 -5.76002 -1.90544 0
M  V30 1835 H 154.567 -4.49491 -1.89233 0
M  V30 1836 H 153.572 -5.49491 0.184295 0
M  V30 1837 H 154.797 -6.78928 0.152965 0
M  V30 1838 H 152.743 -6.24032 -2.02287 0
M  V30 1839 H 152.66 -7.51223 -0.848508 0
M  V30 1840 H 153.928 -7.52397 -2.03762 0
M  V30 1841 N 158.157 -0.370918 -1.53173 0
M  V30 1842 C 159.067 0.480823 -2.2962 0
M  V30 1843 C 160.083 1.08789 -1.35798 0
M  V30 1844 O 161.259 1.09768 -1.68858 0
M  V30 1845 C 158.324 1.60227 -3.07454 0
M  V30 1846 C 157.385 1.0222 -4.16953 0
M  V30 1847 C 156.618 2.0902 -4.91066 0
M  V30 1848 O 156.841 3.30222 -4.65091 0
M  V30 1849 O 155.775 1.71778 -5.76867 0
M  V30 1850 H 159.601 -0.141421 -3.03371 0
M  V30 1851 H 157.186 -0.135146 -1.48787 0
M  V30 1852 H 159.068 2.25417 -3.56041 0
M  V30 1853 H 157.743 2.20982 -2.36535 0
M  V30 1854 H 156.65 0.334064 -3.72605 0
M  V30 1855 H 157.983 0.459131 -4.90054 0
M  V30 1856 N 159.635 1.57281 -0.100228 0
M  V30 1857 C 160.545 2.17833 0.870965 0
M  V30 1858 C 161.561 1.14921 1.30649 0
M  V30 1859 O 162.737 1.47313 1.37335 0
M  V30 1860 C 159.802 2.75085 2.1102 0
M  V30 1861 C 158.863 3.9297 1.72838 0
M  V30 1862 C 158.096 4.47482 2.90854 0
M  V30 1863 O 158.319 4.00922 4.05731 0
M  V30 1864 O 157.253 5.38433 2.69023 0
M  V30 1865 H 161.079 3.0124 0.38575 0
M  V30 1866 H 158.664 1.48881 0.124397 0
M  V30 1867 H 160.546 3.11656 2.83634 0
M  V30 1868 H 159.221 1.94721 2.58584 0
M  V30 1869 H 158.128 3.61201 0.973883 0
M  V30 1870 H 159.461 4.74713 1.30033 0
M  V30 1871 N 161.113 -0.173488 1.56642 0
M  V30 1872 C 162.341 -0.906095 1.86004 0
M  V30 1873 C 162.756 -1.75921 0.685355 0
M  V30 1874 O 162.113 -1.79198 -0.345578 0
M  V30 1875 C 162.164 -1.78462 3.14378 0
M  V30 1876 O 161.885 -0.965914 4.27319 0
M  V30 1877 C 163.386 -2.62707 3.57071 0
M  V30 1878 H 160.606 -0.263341 0.617165 0
M  V30 1879 H 163.15 -0.174236 2.03756 0
M  V30 1880 H 161.305 -2.46984 2.98459 0
M  V30 1881 H 161.719 -1.56655 5.00559 0
M  V30 1882 H 163.193 -3.19969 4.49804 0
M  V30 1883 H 163.67 -3.37472 2.81086 0
M  V30 1884 H 164.276 -1.99521 3.75595 0
M  V30 1885 N 162.591 -1.51276 -0.441967 0
M  V30 1886 C 164.007 -1.39349 -0.778083 0
M  V30 1887 C 164.207 -0.472212 -1.95889 0
M  V30 1888 O 163.263 0.0743551 -2.5239 0
M  V30 1889 C 164.576 -2.81292 -1.0628 0
M  V30 1890 C 166.124 -2.9041 -1.16751 0
M  V30 1891 C 166.599 -4.33251 -1.48519 0
M  V30 1892 N 168.09 -4.36336 -1.55453 0
M  V30 1893 C 168.825 -5.43885 -1.81596 0
M  V30 1894 N 168.321 -6.61601 -2.05562 0
M  V30 1895 N 170.114 -5.3136 -1.8334 0
M  V30 1896 H 162.265 -2.09729 0.335774 0
M  V30 1897 H 164.528 -0.943925 0.0878028 0
M  V30 1898 H 164.234 -3.50678 -0.267905 0
M  V30 1899 H 164.108 -3.20334 -1.99163 0
M  V30 1900 H 166.495 -2.21225 -1.95304 0
M  V30 1901 H 166.576 -2.54871 -0.217801 0
M  V30 1902 H 166.22 -5.02984 -0.704958 0
M  V30 1903 H 166.15 -4.66299 -2.44689 0
M  V30 1904 H 168.641 -3.51466 -1.38853 0
M  V30 1905 H 168.954 -7.39361 -2.24867 0
M  V30 1906 H 167.299 -6.64725 -2.02894 0
M  V30 1907 H 170.49 -4.38382 -1.64132 0
M  V30 1908 H 170.663 -6.15258 -2.03377 0
M  V30 1909 N 164.069 0.697108 -1.41344 0
M  V30 1910 C 165.017 1.83237 -1.43272 0
M  V30 1911 C 166.011 1.66522 -0.310947 0
M  V30 1912 O 167.217 1.73402 -0.482899 0
M  V30 1913 H 163.592 0.603802 -0.448249 0
M  V30 1914 H 165.563 1.78727 -2.38954 0
M  V30 1915 C 164.312 3.21245 -1.33029 0
M  V30 1916 H 163.635 3.34723 -2.18633 0
M  V30 1917 H 165.075 4.00763 -1.38439 0
M  V30 1918 C 163.534 3.36873 -0.0424635 0
M  V30 1919 O 164.064 3.91177 0.913421 0
M  V30 1920 N 162.27 2.90581 0.0331145 0
M  V30 1921 H 161.817 2.46577 -0.745506 0
M  V30 1922 H 161.775 3.01416 0.894199 0
M  V30 1923 N 165.547 1.27147 0.931209 0
M  V30 1924 C 166.495 1.09398 2.05268 0
M  V30 1925 C 167.489 0.0180591 1.6939 0
M  V30 1926 O 168.695 0.17551 1.79142 0
M  V30 1927 H 165.07 0.336986 0.672268 0
M  V30 1928 H 167.041 2.04416 2.17386 0
M  V30 1929 C 165.79 0.75424 3.39421 0
M  V30 1930 H 165.113 1.57404 3.67511 0
M  V30 1931 H 166.553 0.669903 4.18674 0
M  V30 1932 C 165.012 -0.541197 3.32525 0
M  V30 1933 O 165.542 -1.57664 3.69466 0
M  V30 1934 N 163.748 -0.535517 2.85623 0
M  V30 1935 H 163.295 0.307511 2.55758 0
M  V30 1936 H 163.253 -1.40236 2.81392 0
M  V30 1937 N 167.025 -1.13721 1.09112 0
M  V30 1938 C 167.973 -2.21103 0.722219 0
M  V30 1939 C 168.967 -1.67147 -0.275374 0
M  V30 1940 O 170.173 -1.79477 -0.137176 0
M  V30 1941 H 166.548 -0.720445 0.215553 0
M  V30 1942 H 168.519 -2.49483 1.63709 0
M  V30 1943 C 167.268 -3.47352 0.15543 0
M  V30 1944 H 166.591 -3.89206 0.914246 0
M  V30 1945 H 168.031 -4.2395 -0.0647967 0
M  V30 1946 C 166.49 -3.1814 -1.10852 0
M  V30 1947 O 167.02 -3.36604 -2.19227 0
M  V30 1948 N 165.226 -2.72045 -1.02176 0
M  V30 1949 H 164.773 -2.57221 -0.139764 0
M  V30 1950 H 164.731 -2.52875 -1.8682 0
M  V30 1951 N 168.503 -0.877838 -1.30888 0
M  V30 1952 C 169.728 -0.506629 -2.01117 0
M  V30 1953 C 170.153 0.895564 -1.65412 0
M  V30 1954 O 169.511 1.5923 -0.866922 0
M  V30 1955 C 169.559 -0.680223 -3.54126 0
M  V30 1956 O 168.663 0.277033 -4.11468 0
M  V30 1957 H 168.004 -0.200518 -0.633 0
M  V30 1958 H 170.534 -1.18342 -1.66902 0
M  V30 1959 H 170.544 -0.5765 -4.03907 0
M  V30 1960 H 169.219 -1.70261 -3.79452 0
M  V30 1961 H 167.796 0.127606 -3.72682 0
M  V30 1962 N 169.982 1.44106 -0.638065 0
M  V30 1963 C 170.912 2.33448 0.0494287 0
M  V30 1964 C 171.893 1.48606 0.827672 0
M  V30 1965 O 173.078 1.77308 0.792173 0
M  V30 1966 C 170.208 3.31771 1.02691 0
M  V30 1967 C 169.162 4.26485 0.359823 0
M  V30 1968 C 168.488 5.14729 1.44769 0
M  V30 1969 C 169.788 5.17056 -0.738296 0
M  V30 1970 H 171.482 2.91183 -0.696636 0
M  V30 1971 H 169.028 1.40014 -0.336456 0
M  V30 1972 H 170.981 3.93161 1.51666 0
M  V30 1973 H 169.705 2.7226 1.80395 0
M  V30 1974 H 168.364 3.66437 -0.10934 0
M  V30 1975 H 168.012 4.51566 2.21578 0
M  V30 1976 H 167.712 5.78913 1.00668 0
M  V30 1977 H 169.236 5.78991 1.93911 0
M  V30 1978 H 170.65 5.72342 -0.331354 0
M  V30 1979 H 169.047 5.89879 -1.10286 0
M  V30 1980 H 170.117 4.57652 -1.60258 0
M  V30 1981 N 171.46 0.379036 1.52974 0
M  V30 1982 C 172.706 -0.206727 2.01744 0
M  V30 1983 C 173.039 -1.47314 1.26539 0
M  V30 1984 O 172.314 -1.91084 0.362903 0
M  V30 1985 C 172.597 -0.485066 3.56818 0
M  V30 1986 C 172.45 0.795919 4.42702 0
M  V30 1987 C 173.769 -1.28003 4.21074 0
M  V30 1988 H 170.888 -0.0736607 0.73331 0
M  V30 1989 H 173.53 0.506581 1.83122 0
M  V30 1990 H 171.68 -1.09272 3.72816 0
M  V30 1991 H 173.352 1.43307 4.38476 0
M  V30 1992 H 171.595 1.41344 4.10127 0
M  V30 1993 H 172.266 0.555947 5.49193 0
M  V30 1994 H 174.742 -0.765867 4.08991 0
M  V30 1995 H 173.618 -1.44352 5.29579 0
M  V30 1996 H 173.879 -2.29236 3.78026 0
M  V30 1997 N 172.938 -1.57226 0.108567 0
M  V30 1998 C 174.349 -1.8195 -0.418464 0
M  V30 1999 C 174.7 -1.02508 -1.67292 0
M  V30 2000 O 173.825 -0.258496 -2.14851 0
M  V30 2001 C 174.42 -3.30028 -0.765979 0
M  V30 2002 C 172.979 -3.55469 -1.23769 0
M  V30 2003 C 172.126 -2.7625 -0.241106 0
M  V30 2004 H 175.077 -1.55149 0.33384 0
M  V30 2005 H 175.098 -3.44086 -1.62434 0
M  V30 2006 H 174.61 -3.87821 0.147219 0
M  V30 2007 H 172.711 -3.03022 -2.16814 0
M  V30 2008 H 172.824 -4.6408 -1.19022 0
M  V30 2009 H 171.188 -2.44133 -0.72602 0
M  V30 2010 H 171.971 -3.36797 0.665007 0
M  V30 2011 N 174.416 0.165178 -1.56732 0
M  V30 2012 C 175.363 1.2044 -1.96883 0
M  V30 2013 C 176.333 1.43664 -0.833657 0
M  V30 2014 O 177.518 1.56302 -1.09427 0
M  V30 2015 C 174.658 2.53727 -2.33916 0
M  V30 2016 C 173.771 2.3783 -3.6064 0
M  V30 2017 C 172.906 3.64026 -3.86857 0
M  V30 2018 C 171.945 3.43088 -5.06909 0
M  V30 2019 N 171.082 4.61369 -5.29229 0
M  V30 2020 H 175.922 0.854996 -2.85471 0
M  V30 2021 H 173.459 0.41076 -1.41249 0
M  V30 2022 H 175.417 3.31419 -2.53411 0
M  V30 2023 H 174.047 2.8665 -1.48431 0
M  V30 2024 H 173.099 1.51282 -3.49024 0
M  V30 2025 H 174.411 2.18308 -4.4849 0
M  V30 2026 H 173.565 4.50152 -4.06753 0
M  V30 2027 H 172.304 3.86533 -2.97394 0
M  V30 2028 H 171.309 2.55349 -4.86906 0
M  V30 2029 H 172.534 3.21997 -5.97909 0
M  V30 2030 H 170.48 4.84084 -4.42718 0
M  V30 2031 H 170.397 4.44783 -6.11313 0
M  V30 2032 H 171.665 5.48761 -5.53608 0
M  V30 2033 N 175.894 1.51508 0.433938 0
M  V30 2034 C 177.124 1.67914 1.20369 0
M  V30 2035 C 177.532 0.377461 1.85397 0
M  V30 2036 O 176.875 -0.654255 1.71654 0
M  V30 2037 C 176.937 2.74045 2.32679 0
M  V30 2038 C 176.601 4.16543 1.87991 0
M  V30 2039 C 177.598 5.01211 1.38145 0
M  V30 2040 C 175.283 4.6266 1.95579 0
M  V30 2041 C 177.277 6.30056 0.964774 0
M  V30 2042 C 174.964 5.91501 1.53523 0
M  V30 2043 C 175.962 6.75027 1.04055 0
M  V30 2044 O 175.65 8.01459 0.625964 0
M  V30 2045 H 175.382 0.566578 0.368735 0
M  V30 2046 H 177.936 1.98709 0.51999 0
M  V30 2047 H 176.166 2.38572 3.04336 0
M  V30 2048 H 177.855 2.79295 2.94532 0
M  V30 2049 H 178.621 4.66783 1.31675 0
M  V30 2050 H 174.5 3.97767 2.33029 0
M  V30 2051 H 178.044 6.95202 0.57796 0
M  V30 2052 H 173.941 6.25442 1.59665 0
M  V30 2053 H 174.709 8.15043 0.751509 0
M  V30 2054 N 177.372 -0.689602 1.41712 0
M  V30 2055 C 178.322 -1.79571 1.40493 0
M  V30 2056 C 179.306 -1.58473 0.278409 0
M  V30 2057 O 180.498 -1.69204 0.519532 0
M  V30 2058 C 177.627 -3.17923 1.29536 0
M  V30 2059 C 176.713 -3.44695 2.47075 0
M  V30 2060 N 177.104 -3.42132 3.72531 0
M  V30 2061 C 175.402 -3.75269 2.41017 0
M  V30 2062 C 176.103 -3.67976 4.50521 0
M  V30 2063 N 175.079 -3.88014 3.80718 0
M  V30 2064 H 178.881 -1.75961 2.35404 0
M  V30 2065 H 176.395 -0.889839 1.35851 0
M  V30 2066 H 178.392 -3.97167 1.26745 0
M  V30 2067 H 177.052 -3.22741 0.356153 0
M  V30 2068 H 178.063 -3.22375 4.05333 0
M  V30 2069 H 174.74 -3.87421 1.55599 0
M  V30 2070 H 176.13 -3.7208 5.59469 0
M  V30 2071 N 178.85 -1.27639 -0.924453 0
M  V30 2072 C 180.261 -1.12834 -1.48746 0
M  V30 2073 C 180.612 0.285505 -1.94112 0
M  V30 2074 O 179.737 1.17874 -1.81479 0
M  V30 2075 C 180.332 -2.04217 -2.70334 0
M  V30 2076 C 178.891 -1.93509 -3.22848 0
M  V30 2077 C 178.038 -1.96583 -1.95577 0
M  V30 2078 H 180.989 -1.40484 -0.738233 0
M  V30 2079 H 181.01 -1.59989 -3.4523 0
M  V30 2080 H 180.522 -3.07111 -2.37285 0
M  V30 2081 H 178.623 -0.936131 -3.60649 0
M  V30 2082 H 178.736 -2.79917 -3.88823 0
M  V30 2083 H 177.1 -1.4085 -2.12211 0
M  V30 2084 H 177.883 -3.01137 -1.64837 0
M  V30 2085 N 180.328 1.1314 -1.09713 0
M  V30 2086 C 181.276 2.20717 -0.733934 0
M  V30 2087 C 182.27 1.6729 0.266506 0
M  V30 2088 O 183.476 1.79547 0.127656 0
M  V30 2089 H 179.851 0.719292 -0.21937 0
M  V30 2090 H 181.822 2.48611 -1.6503 0
M  V30 2091 C 180.571 3.47265 -0.173849 0
M  V30 2092 H 179.894 3.88716 -0.934873 0
M  V30 2093 H 181.334 4.23979 0.0423126 0
M  V30 2094 C 179.793 3.18724 1.09164 0
M  V30 2095 O 180.323 3.37762 2.17439 0
M  V30 2096 N 178.529 2.72583 1.00732 0
M  V30 2097 H 178.076 2.57291 0.126121 0
M  V30 2098 H 178.034 2.53862 1.85476 0
M  V30 2099 N 181.806 0.884767 1.30421 0
M  V30 2100 C 183.053 0.503105 1.96151 0
M  V30 2101 C 183.381 -0.947676 1.69851 0
M  V30 2102 O 182.636 -1.68467 0.995861 0
M  V30 2103 C 182.935 0.724318 3.49983 0
M  V30 2104 C 182.601 2.15015 3.96332 0
M  V30 2105 C 181.263 2.54005 4.08699 0
M  V30 2106 C 183.615 3.07936 4.20505 0
M  V30 2107 C 180.943 3.85128 4.42599 0
M  V30 2108 C 183.295 4.3859 4.55874 0
M  V30 2109 C 181.959 4.77474 4.66449 0
M  V30 2110 H 181.229 0.184099 0.717766 0
M  V30 2111 H 183.876 1.12058 1.55291 0
M  V30 2112 H 182.181 0.0238086 3.91793 0
M  V30 2113 H 183.878 0.408617 3.98913 0
M  V30 2114 H 180.468 1.8375 3.87213 0
M  V30 2115 H 184.652 2.79033 4.10431 0
M  V30 2116 H 179.908 4.14996 4.48986 0
M  V30 2117 H 184.082 5.10629 4.7353 0
M  V30 2118 H 181.709 5.79115 4.92473 0
M  V30 2119 N 183.284 -1.43765 0.645699 0
M  V30 2120 C 184.53 -2.02731 0.164844 0
M  V30 2121 C 184.885 -1.49983 -1.2051 0
M  V30 2122 O 184.178 -0.680208 -1.79119 0
M  V30 2123 C 184.372 -3.57238 0.107679 0
M  V30 2124 C 184.201 -4.24977 1.47054 0
M  V30 2125 C 182.971 -4.61356 2.06103 0
M  V30 2126 C 185.169 -4.54476 2.40741 0
M  V30 2127 N 183.151 -5.14132 3.35473 0
M  V30 2128 C 184.522 -5.08489 3.54737 0
M  V30 2129 C 186.577 -4.36438 2.39637 0
M  V30 2130 C 185.28 -5.46364 4.67845 0
M  V30 2131 C 187.306 -4.7537 3.5182 0
M  V30 2132 C 186.668 -5.2951 4.64541 0
M  V30 2133 H 182.767 -0.774976 0.104578 0
M  V30 2134 H 185.351 -1.75051 0.852367 0
M  V30 2135 H 183.522 -3.84498 -0.549165 0
M  V30 2136 H 185.254 -4.0288 -0.383351 0
M  V30 2137 H 182.009 -4.46151 1.58892 0
M  V30 2138 H 182.433 -5.4498 4.01654 0
M  V30 2139 H 187.075 -3.93861 1.53731 0
M  V30 2140 H 184.793 -5.87888 5.54448 0
M  V30 2141 H 188.379 -4.63115 3.52159 0
M  V30 2142 H 187.259 -5.59077 5.49911 0
M  V30 2143 N 184.763 -0.387143 -1.52771 0
M  V30 2144 C 185.696 0.493123 -2.22808 0
M  V30 2145 C 186.674 1.0658 -1.22798 0
M  V30 2146 O 187.858 1.11785 -1.51777 0
M  V30 2147 C 184.985 1.68238 -2.93962 0
M  V30 2148 C 184.031 1.23515 -4.08223 0
M  V30 2149 S 184.864 0.21848 -5.35054 0
M  V30 2150 C 186.02 1.41357 -6.09729 0
M  V30 2151 H 186.253 -0.101625 -2.97126 0
M  V30 2152 H 183.786 -0.171323 -1.53447 0
M  V30 2153 H 185.744 2.36443 -3.35567 0
M  V30 2154 H 184.405 2.24842 -2.19328 0
M  V30 2155 H 183.598 2.12304 -4.57103 0
M  V30 2156 H 183.2 0.632044 -3.68621 0
M  V30 2157 H 185.492 2.34101 -6.3577 0
M  V30 2158 H 186.435 0.965736 -7.01484 0
M  V30 2159 H 186.843 1.6294 -5.40473 0
M  V30 2160 N 186.241 1.57166 -0.116904 0
M  V30 2161 C 187.518 1.86645 0.585049 0
M  V30 2162 C 187.898 1.0177 1.84949 0
M  V30 2163 O 187.246 0.0960379 2.28298 0
M  V30 2164 C 187.456 3.37736 0.879507 0
M  V30 2165 C 188.804 4.06289 1.23348 0
M  V30 2166 O 189.828 3.42743 0.969836 0
M  V30 2167 O 188.687 5.18455 1.7282 0
M  V30 2168 H 185.781 0.772593 0.295007 0
M  V30 2169 H 188.327 1.69025 -0.151249 0
M  V30 2170 H 187.099 3.91296 -0.0166136 0
M  V30 2171 H 186.722 3.6078 1.67103 0
M  V30 2172 N 187.719 -0.156864 1.56817 0
M  V30 2173 C 188.967 -0.869404 1.82444 0
M  V30 2174 C 189.288 -1.82147 0.69623 0
M  V30 2175 O 188.558 -1.93847 -0.28287 0
M  V30 2176 H 187.138 -0.324043 0.673056 0
M  V30 2177 H 189.8 -0.153224 1.94297 0
M  V30 2178 H 188.896 -1.43761 2.77019 0
M  V30 2179 N 189.197 -1.51736 -0.425897 0
M  V30 2180 C 190.144 -1.73875 -1.51776 0
M  V30 2181 C 191.114 -0.580702 -1.55618 0
M  V30 2182 O 192.299 -0.81641 -1.72451 0
M  V30 2183 C 189.439 -1.88012 -2.89388 0
M  V30 2184 C 188.552 -3.15606 -2.94986 0
M  V30 2185 C 187.687 -3.20271 -4.23793 0
M  V30 2186 C 186.726 -4.42134 -4.23302 0
M  V30 2187 N 185.863 -4.44284 -5.43651 0
M  V30 2188 H 190.703 -2.67071 -1.32201 0
M  V30 2189 H 188.24 -1.32351 -0.642008 0
M  V30 2190 H 190.198 -1.9419 -3.69251 0
M  V30 2191 H 188.828 -0.98213 -3.07496 0
M  V30 2192 H 187.88 -3.18681 -2.07717 0
M  V30 2193 H 189.192 -4.05486 -2.90486 0
M  V30 2194 H 188.346 -3.25428 -5.12036 0
M  V30 2195 H 187.085 -2.28299 -4.30965 0
M  V30 2196 H 186.09 -4.3714 -3.3345 0
M  V30 2197 H 187.315 -5.35382 -4.17783 0
M  V30 2198 H 185.261 -3.55188 -5.51523 0
M  V30 2199 H 185.178 -5.27988 -5.41078 0
M  V30 2200 H 186.446 -4.53649 -6.33895 0
M  V30 2201 N 190.675 0.682077 -1.42076 0
M  V30 2202 C 191.921 1.44283 -1.43366 0
M  V30 2203 C 192.276 1.92344 -0.0465775 0
M  V30 2204 O 191.569 1.67517 0.929973 0
M  V30 2205 C 191.763 2.66036 -2.38662 0
M  V30 2206 C 191.592 2.29889 -3.86499 0
M  V30 2207 C 190.362 2.19599 -4.55087 0
M  V30 2208 C 192.56 1.91999 -4.77117 0
M  V30 2209 N 190.542 1.76478 -5.87987 0
M  V30 2210 C 191.913 1.59741 -5.99068 0
M  V30 2211 C 193.968 1.78927 -4.64639 0
M  V30 2212 C 192.671 1.15723 -7.0993 0
M  V30 2213 C 194.697 1.36314 -5.75476 0
M  V30 2214 C 194.059 1.04975 -6.96534 0
M  V30 2215 H 190.158 0.524739 -0.579805 0
M  V30 2216 H 192.742 0.787834 -1.78048 0
M  V30 2217 H 190.913 3.29237 -2.06053 0
M  V30 2218 H 192.645 3.32588 -2.30581 0
M  V30 2219 H 189.4 2.38433 -4.09202 0
M  V30 2220 H 189.824 1.57362 -6.58458 0
M  V30 2221 H 194.466 2.01805 -3.7153 0
M  V30 2222 H 192.184 0.91591 -8.02893 0
M  V30 2223 H 195.77 1.26731 -5.6783 0
M  V30 2224 H 194.65 0.725017 -7.80841 0
M  V30 2225 N 192.153 1.28127 0.917671 0
M  V30 2226 C 193.569 1.05749 1.19538 0
M  V30 2227 C 193.769 -0.202633 2.00479 0
M  V30 2228 O 192.825 -0.905382 2.3571 0
M  V30 2229 C 194.138 2.30273 1.93378 0
M  V30 2230 C 195.686 2.35412 2.06277 0
M  V30 2231 C 196.161 3.59692 2.83524 0
M  V30 2232 N 197.652 3.60309 2.91087 0
M  V30 2233 C 198.387 4.53147 3.51348 0
M  V30 2234 N 197.883 5.563 4.12919 0
M  V30 2235 N 199.676 4.40751 3.48849 0
M  V30 2236 H 191.827 2.09024 0.377184 0
M  V30 2237 H 194.09 0.919798 0.22951 0
M  V30 2238 H 193.796 3.22055 1.41328 0
M  V30 2239 H 193.67 2.36378 2.93947 0
M  V30 2240 H 196.057 1.4413 2.57508 0
M  V30 2241 H 196.138 2.33304 1.04895 0
M  V30 2242 H 195.782 4.51316 2.32973 0
M  V30 2243 H 195.712 3.59054 3.85211 0
M  V30 2244 H 198.203 2.85714 2.47338 0
M  V30 2245 H 198.516 6.2329 4.56869 0
M  V30 2246 H 196.861 5.60131 4.11435 0
M  V30 2247 H 200.052 3.59367 2.99955 0
M  V30 2248 H 200.225 5.13291 3.9552 0
M  V30 2249 N 193.631 -1.12557 1.10312 0
M  V30 2250 C 194.871 -1.8568 0.854543 0
M  V30 2251 C 195.235 -1.82091 -0.608843 0
M  V30 2252 O 196.436 -2.50544 -0.973717 0
M  V30 2253 C 194.707 -3.2942 1.38626 0
M  V30 2254 S 196.266 -4.19931 1.27293 0
M  V30 2255 H 193.084 -0.640427 0.308827 0
M  V30 2256 H 195.686 -1.35599 1.40831 0
M  V30 2257 H 194.39 -3.2959 2.44537 0
M  V30 2258 H 193.921 -3.84566 0.82902 0
M  V30 2259 H 195.936 -4.95668 0.229776 0
M  V30 2260 N 195.109 -0.891671 -1.2995 0
M  V30 2261 C 196.349 -0.520296 -1.97667 0
M  V30 2262 C 196.713 0.914797 -1.68806 0
M  V30 2263 O 197.914 1.39263 -2.29911 0
M  V30 2264 C 196.185 -0.795222 -3.48441 0
M  V30 2265 S 197.744 -0.526953 -4.35624 0
M  V30 2266 H 194.562 -0.19333 -0.684211 0
M  V30 2267 H 197.164 -1.15238 -1.57926 0
M  V30 2268 H 195.868 -1.83805 -3.66938 0
M  V30 2269 H 195.399 -0.15095 -3.9311 0
M  V30 2270 H 197.414 0.631533 -4.92165 0
M  V30 2271 N 196.587 1.43421 -0.653314 0
M  V30 2272 C 197.812 2.06678 -0.172846 0
M  V30 2273 C 198.237 1.48648 1.15262 0
M  V30 2274 O 197.595 0.596457 1.71208 0
M  V30 2275 C 197.643 3.60474 -0.0953184 0
M  V30 2276 O 196.747 4.01487 0.942442 0
M  V30 2277 H 196.088 0.657181 -0.0949155 0
M  V30 2278 H 198.618 1.83925 -0.896265 0
M  V30 2279 H 198.628 4.07905 0.0879728 0
M  V30 2280 H 197.303 4.02088 -1.06291 0
M  V30 2281 H 195.88 3.65646 0.731932 0
M  V30 2282 N 198.065 0.39524 1.52563 0
M  V30 2283 C 198.997 -0.472201 2.24283 0
M  V30 2284 C 200.01 -1.02178 1.26742 0
M  V30 2285 O 201.199 -0.923097 1.52778 0
M  V30 2286 C 198.299 -1.66775 2.95024 0
M  V30 2287 C 197.472 -1.2445 4.19322 0
M  V30 2288 C 196.531 -2.30539 4.7301 0
M  V30 2289 O 195.557 -1.91702 5.35947 0
M  V30 2290 N 196.759 -3.6253 4.53379 0
M  V30 2291 H 199.524 0.142282 2.99362 0
M  V30 2292 H 197.085 0.2219 1.60372 0
M  V30 2293 H 199.077 -2.37283 3.27839 0
M  V30 2294 H 197.647 -2.18845 2.23217 0
M  V30 2295 H 196.867 -0.368069 3.92478 0
M  V30 2296 H 198.155 -0.938457 5.0007 0
M  V30 2297 H 197.553 -3.96841 4.03154 0
M  V30 2298 H 196.11 -4.29055 4.90668 0
M  V30 2299 N 199.544 -1.57102 0.125237 0
M  V30 2300 C 200.474 -2.18659 -0.819174 0
M  V30 2301 C 201.455 -1.12843 -1.27281 0
M  V30 2302 O 202.64 -1.41104 -1.33429 0
M  V30 2303 C 199.77 -2.79096 -2.06695 0
M  V30 2304 C 198.724 -3.90548 -1.75088 0
M  V30 2305 C 198.05 -4.37821 -3.06948 0
M  V30 2306 C 199.35 -5.12356 -1.01435 0
M  V30 2307 H 201.044 -2.9783 -0.306202 0
M  V30 2308 H 198.59 -1.4326 -0.145839 0
M  V30 2309 H 200.543 -3.2082 -2.73226 0
M  V30 2310 H 199.267 -1.97223 -2.60328 0
M  V30 2311 H 197.926 -3.49409 -1.10944 0
M  V30 2312 H 197.574 -3.52799 -3.58527 0
M  V30 2313 H 197.274 -5.12982 -2.86571 0
M  V30 2314 H 198.798 -4.822 -3.74587 0
M  V30 2315 H 200.212 -5.5106 -1.58132 0
M  V30 2316 H 198.609 -5.9314 -0.911319 0
M  V30 2317 H 199.679 -4.849 -0.00218681 0
M  V30 2318 N 201.022 0.148545 -1.56898 0
M  V30 2319 C 201.932 1.20293 -2.01412 0
M  V30 2320 C 202.948 1.47107 -0.929273 0
M  V30 2321 O 204.124 1.58807 -1.23863 0
M  V30 2322 C 201.189 2.51682 -2.38447 0
M  V30 2323 C 200.25 2.32529 -3.60872 0
M  V30 2324 C 199.483 3.57653 -3.96132 0
M  V30 2325 O 199.706 4.63771 -3.32073 0
M  V30 2326 O 198.64 3.50408 -4.89385 0
M  V30 2327 H 202.466 0.855025 -2.91416 0
M  V30 2328 H 200.051 0.357151 -1.45068 0
M  V30 2329 H 201.933 3.29147 -2.63135 0
M  V30 2330 H 200.608 2.86006 -1.51599 0
M  V30 2331 H 199.515 1.53019 -3.41373 0
M  V30 2332 H 200.848 2.03121 -4.48333 0
M  V30 2333 N 202.5 1.5196 0.417844 0
M  V30 2334 C 203.447 1.74678 1.50852 0
M  V30 2335 C 204.417 0.588947 1.55308 0
M  V30 2336 O 205.602 0.825544 1.72016 0
M  V30 2337 C 202.742 1.89544 2.88387 0
M  V30 2338 C 201.855 3.17166 2.93309 0
M  V30 2339 C 200.99 3.22513 4.22088 0
M  V30 2340 C 200.029 4.44372 4.20951 0
M  V30 2341 N 199.166 4.47161 5.41287 0
M  V30 2342 H 204.006 2.67768 1.30783 0
M  V30 2343 H 201.543 1.32689 0.63498 0
M  V30 2344 H 203.501 1.96146 3.68216 0
M  V30 2345 H 202.131 0.998424 3.06971 0
M  V30 2346 H 201.183 3.19778 2.06024 0
M  V30 2347 H 202.495 4.07021 2.88332 0
M  V30 2348 H 201.649 3.28139 5.10303 0
M  V30 2349 H 200.388 2.30581 4.29748 0
M  V30 2350 H 199.393 4.38902 3.31127 0
M  V30 2351 H 200.618 5.3759 4.14938 0
M  V30 2352 H 198.564 3.58108 5.49632 0
M  V30 2353 H 198.481 5.3085 5.3827 0
M  V30 2354 H 199.749 4.57005 6.3148 0
M  V30 2355 N 203.978 -0.674533 1.42435 0
M  V30 2356 C 204.908 -1.80009 1.48724 0
M  V30 2357 C 205.889 -1.6659 0.343793 0
M  V30 2358 O 207.074 -1.86007 0.558137 0
M  V30 2359 C 204.204 -3.18306 1.38919 0
M  V30 2360 C 203.158 -3.46461 2.51294 0
M  V30 2361 C 202.484 -4.84335 2.26547 0
M  V30 2362 C 203.784 -3.43328 3.93603 0
M  V30 2363 H 205.478 -1.75004 2.42928 0
M  V30 2364 H 203.024 -0.840533 1.16923 0
M  V30 2365 H 204.977 -3.9678 1.41927 0
M  V30 2366 H 203.701 -3.2399 0.412094 0
M  V30 2367 H 202.36 -2.70348 2.47604 0
M  V30 2368 H 202.008 -4.86669 1.2713 0
M  V30 2369 H 201.708 -5.04136 3.01861 0
M  V30 2370 H 203.232 -5.65094 2.31304 0
M  V30 2371 H 204.646 -4.11772 3.98894 0
M  V30 2372 H 203.043 -3.74664 4.68771 0
M  V30 2373 H 204.113 -2.41897 4.20255 0
M  V30 2374 N 205.456 -1.28612 -0.910864 0
M  V30 2375 C 206.419 -1.12803 -1.9952 0
M  V30 2376 C 207.419 -0.0668264 -1.60661 0
M  V30 2377 O 208.609 -0.312847 -1.71368 0
M  V30 2378 C 205.741 -0.72254 -3.33155 0
M  V30 2379 H 206.934 -2.09109 -2.14973 0
M  V30 2380 H 204.487 -1.11639 -1.09391 0
M  V30 2381 H 205.222 0.241152 -3.23402 0
M  V30 2382 H 205.007 -1.48916 -3.62721 0
M  V30 2383 H 206.497 -0.634666 -4.12749 0
M  V30 2384 N 206.934 1.1197 -1.10907 0
M  V30 2385 C 208.162 1.87402 -0.876824 0
M  V30 2386 C 208.577 1.79894 0.573025 0
M  V30 2387 O 207.934 1.17629 1.39534 0
M  V30 2388 C 207.985 3.36428 -1.32282 0
M  V30 2389 O 207.706 3.43765 -2.71582 0
M  V30 2390 C 209.207 4.28783 -1.12518 0
M  V30 2391 H 206.427 0.592793 -0.314384 0
M  V30 2392 H 208.971 1.41649 -1.47499 0
M  V30 2393 H 207.126 3.79706 -0.768229 0
M  V30 2394 H 207.54 4.3652 -2.90776 0
M  V30 2395 H 209.014 5.31613 -1.48633 0
M  V30 2396 H 209.491 4.39153 -0.0642394 0
M  V30 2397 H 210.097 3.91291 -1.66648 0
M  V30 2398 N 208.412 0.89855 1.29475 0
M  V30 2399 C 209.66 0.522847 1.9522 0
M  V30 2400 C 209.981 -0.93371 1.71192 0
M  V30 2401 O 209.251 -1.65823 1.04305 0
M  V30 2402 H 207.831 0.190366 0.722336 0
M  V30 2403 H 210.493 1.14459 1.5775 0
M  V30 2404 H 209.589 0.704476 3.04045 0
M  V30 2405 N 209.89 -1.43072 0.660911 0
M  V30 2406 C 211.13 -2.03596 0.181146 0
M  V30 2407 C 211.494 -1.51057 -1.18515 0
M  V30 2408 O 212.695 -2.03275 -1.75877 0
M  V30 2409 C 210.966 -3.56845 0.19911 0
M  V30 2410 S 212.525 -4.38289 -0.211684 0
M  V30 2411 H 209.343 -0.706954 0.0757479 0
M  V30 2412 H 211.945 -1.75027 0.870965 0
M  V30 2413 H 210.649 -3.92583 1.1961 0
M  V30 2414 H 210.18 -3.90067 -0.510996 0
M  V30 2415 H 212.195 -4.74583 -1.44863 0
M  V30 2416 N 211.368 -0.403325 -1.52352 0
M  V30 2417 C 212.331 0.413051 -2.25447 0
M  V30 2418 C 213.331 0.978513 -1.276 0
M  V30 2419 O 214.521 0.858305 -1.51587 0
M  V30 2420 C 211.653 1.58087 -3.02029 0
M  V30 2421 H 212.846 -0.227094 -2.99039 0
M  V30 2422 H 210.399 -0.155722 -1.55522 0
M  V30 2423 H 211.134 2.25804 -2.32772 0
M  V30 2424 H 210.919 1.18195 -3.73861 0
M  V30 2425 H 212.409 2.1585 -3.57489 0
M  V30 2426 N 212.846 1.57033 -0.133567 0
M  V30 2427 C 213.778 2.13176 0.841944 0
M  V30 2428 C 214.791 1.07794 1.22001 0
M  V30 2429 O 215.98 1.35117 1.16643 0
M  V30 2430 C 213.08 2.62847 2.13926 0
M  V30 2431 C 212.253 3.92486 1.93064 0
M  V30 2432 C 211.312 4.27605 3.0666 0
M  V30 2433 O 210.338 4.96168 2.78937 0
M  V30 2434 N 211.54 3.861 4.33483 0
M  V30 2435 H 214.305 2.97503 0.362192 0
M  V30 2436 H 211.866 1.61821 0.05042 0
M  V30 2437 H 213.858 2.83363 2.88942 0
M  V30 2438 H 212.428 1.83319 2.53205 0
M  V30 2439 H 211.648 3.80732 1.02159 0
M  V30 2440 H 212.936 4.77225 1.76447 0
M  V30 2441 H 212.334 3.30828 4.58878 0
M  V30 2442 H 210.891 4.11694 5.05323 0
M  V30 2443 N 214.325 -0.140222 1.56975 0
M  V30 2444 C 215.555 -0.865181 1.87612 0
M  V30 2445 C 215.963 -1.74942 0.72055 0
M  V30 2446 O 215.306 -1.80917 -0.318561 0
M  V30 2447 C 215.368 -1.76782 3.13031 0
M  V30 2448 C 215.032 -1.06005 4.44536 0
M  V30 2449 C 216.029 -0.410768 5.18275 0
M  V30 2450 C 213.714 -1.04754 4.91255 0
M  V30 2451 C 215.708 0.241572 6.36942 0
M  V30 2452 C 213.395 -0.391394 6.09845 0
M  V30 2453 C 214.393 0.252029 6.82535 0
M  V30 2454 O 214.081 0.897757 7.98871 0
M  V30 2455 H 213.813 -0.255188 0.625983 0
M  V30 2456 H 216.367 -0.135653 2.04952 0
M  V30 2457 H 214.597 -2.53846 2.91718 0
M  V30 2458 H 216.286 -2.36533 3.29859 0
M  V30 2459 H 217.052 -0.412195 4.83245 0
M  V30 2460 H 212.931 -1.53777 4.34596 0
M  V30 2461 H 216.475 0.744375 6.93617 0
M  V30 2462 H 212.372 -0.387656 6.44335 0
M  V30 2463 H 213.14 0.800102 8.1458 0
M  V30 2464 N 215.803 -1.52179 -0.40978 0
M  V30 2465 C 217.08 -1.56769 -1.16974 0
M  V30 2466 C 217.46 -0.348322 -2.08206 0
M  V30 2467 O 216.808 0.664862 -2.18613 0
M  V30 2468 C 217.018 -2.89603 -1.9476 0
M  V30 2469 C 218.366 -3.42579 -2.50849 0
M  V30 2470 O 219.39 -2.91338 -2.04941 0
M  V30 2471 O 218.249 -4.32054 -3.34652 0
M  V30 2472 H 215.343 -0.631439 -0.534054 0
M  V30 2473 H 217.889 -1.64507 -0.416613 0
M  V30 2474 H 216.661 -3.698 -1.27921 0
M  V30 2475 H 216.284 -2.85155 -2.77079 0
M  V30 2476 N 217.281 0.66697 -1.42791 0
M  V30 2477 C 218.692 1.2478 -1.38877 0
M  V30 2478 C 219.043 1.96012 -0.0859426 0
M  V30 2479 O 218.168 2.00463 0.815081 0
M  V30 2480 C 218.763 2.26938 -2.51564 0
M  V30 2481 C 217.322 2.80529 -2.50959 0
M  V30 2482 C 216.469 1.54965 -2.29959 0
M  V30 2483 H 219.42 0.459853 -1.51892 0
M  V30 2484 H 219.441 3.08834 -2.22265 0
M  V30 2485 H 218.953 1.75065 -3.46372 0
M  V30 2486 H 217.054 3.36502 -1.59991 0
M  V30 2487 H 217.167 3.29012 -3.48265 0
M  V30 2488 H 215.531 1.81817 -1.78366 0
M  V30 2489 H 216.314 1.05047 -3.26833 0
M  V30 2490 N 218.759 1.29093 0.90403 0
M  V30 2491 C 219.987 1.19689 1.68766 0
M  V30 2492 C 220.402 -0.243113 1.87228 0
M  V30 2493 O 219.759 -1.16326 1.40621 0
M  V30 2494 C 219.81 1.90144 3.07453 0
M  V30 2495 O 219.531 3.2852 2.89838 0
M  V30 2496 C 221.032 1.87162 4.01852 0
M  V30 2497 H 218.252 0.415035 0.527244 0
M  V30 2498 H 220.796 1.7039 1.13082 0
M  V30 2499 H 218.951 1.43289 3.59926 0
M  V30 2500 H 219.365 3.63944 3.77684 0
M  V30 2501 H 220.839 2.41032 4.96596 0
M  V30 2502 H 221.316 0.84617 4.30972 0
M  V30 2503 H 221.922 2.33741 3.5531 0
M  V30 2504 N 220.237 -1.11381 1.11499 0
M  V30 2505 C 221.184 -2.17439 0.773887 0
M  V30 2506 C 222.154 -1.64132 -0.254899 0
M  V30 2507 O 223.339 -1.90345 -0.13168 0
M  V30 2508 C 220.479 -3.44373 0.223917 0
M  V30 2509 C 219.592 -4.1168 1.30934 0
M  V30 2510 C 218.727 -5.263 0.71984 0
M  V30 2511 C 217.766 -5.85493 1.78507 0
M  V30 2512 N 216.903 -6.91507 1.21502 0
M  V30 2513 H 221.743 -2.45962 1.68246 0
M  V30 2514 H 219.28 -1.20744 0.840191 0
M  V30 2515 H 221.238 -4.17047 -0.112921 0
M  V30 2516 H 219.868 -3.16232 -0.647851 0
M  V30 2517 H 218.92 -3.37073 1.76312 0
M  V30 2518 H 220.232 -4.51729 2.11524 0
M  V30 2519 H 219.386 -6.05785 0.333094 0
M  V30 2520 H 218.125 -4.87559 -0.117377 0
M  V30 2521 H 217.13 -5.04686 2.18111 0
M  V30 2522 H 218.355 -6.26301 2.62533 0
M  V30 2523 H 216.301 -6.54783 0.399455 0
M  V30 2524 H 216.218 -7.30214 1.95763 0
M  V30 2525 H 217.486 -7.74795 0.855181 0
M  V30 2526 N 221.715 -0.905404 -1.28997 0
M  V30 2527 C 222.663 -0.377431 -2.29517 0
M  V30 2528 C 223.657 0.526461 -1.61012 0
M  V30 2529 O 224.863 0.40863 -1.753 0
M  V30 2530 H 221.238 -0.103437 -0.744852 0
M  V30 2531 H 223.209 -1.23848 -2.71485 0
M  V30 2532 C 221.958 0.374833 -3.45674 0
M  V30 2533 H 221.281 -0.311474 -3.98585 0
M  V30 2534 H 222.721 0.70903 -4.1803 0
M  V30 2535 C 221.18 1.57963 -2.97572 0
M  V30 2536 O 221.71 2.67886 -2.99333 0
M  V30 2537 N 219.916 1.42375 -2.53333 0
M  V30 2538 H 219.463 0.529466 -2.521 0
M  V30 2539 H 219.421 2.23117 -2.21509 0
M  V30 2540 N 223.193 1.4272 -0.668489 0
M  V30 2541 C 224.156 2.292 0.00448567 0
M  V30 2542 C 225.156 1.43001 0.735339 0
M  V30 2543 O 226.346 1.64461 0.57429 0
M  V30 2544 C 223.478 3.25375 1.01705 0
M  V30 2545 H 224.671 2.90199 -0.756608 0
M  V30 2546 H 222.224 1.50254 -0.430506 0
M  V30 2547 H 222.959 2.69301 1.80686 0
M  V30 2548 H 222.744 3.88944 0.496463 0
M  V30 2549 H 224.234 3.90245 1.48655 0
M  V30 2550 N 224.671 0.411399 1.52136 0
M  V30 2551 C 225.896 -0.165538 2.06738 0
M  V30 2552 C 226.321 -1.379 1.27926 0
M  V30 2553 O 225.679 -1.78628 0.310114 0
M  V30 2554 C 225.727 -0.492124 3.57226 0
M  V30 2555 O 224.831 -1.58276 3.80818 0
M  V30 2556 H 224.172 -0.0132132 0.663869 0
M  V30 2557 H 226.702 0.585253 1.96051 0
M  V30 2558 H 226.712 -0.750104 4.01045 0
M  V30 2559 H 225.387 0.394922 4.14021 0
M  V30 2560 H 223.964 -1.31677 3.48877 0
M  V30 2561 N 226.149 -1.5696 0.141893 0
M  V30 2562 C 227.096 -2.16501 -0.799737 0
M  V30 2563 C 228.066 -1.09643 -1.24771 0
M  V30 2564 O 229.251 -1.3766 -1.32115 0
M  V30 2565 C 226.391 -2.78679 -2.03549 0
M  V30 2566 C 225.504 -3.99914 -1.6338 0
M  V30 2567 C 224.639 -4.50106 -2.82096 0
M  V30 2568 C 223.678 -5.63819 -2.38275 0
M  V30 2569 N 222.815 -6.08651 -3.49983 0
M  V30 2570 H 227.655 -2.96632 -0.285179 0
M  V30 2571 H 225.192 -1.46533 -0.129053 0
M  V30 2572 H 227.15 -3.1287 -2.75986 0
M  V30 2573 H 225.78 -2.012 -2.52425 0
M  V30 2574 H 224.832 -3.71735 -0.807279 0
M  V30 2575 H 226.144 -4.82311 -1.27192 0
M  V30 2576 H 225.298 -4.86325 -3.62729 0
M  V30 2577 H 224.037 -3.66706 -3.21525 0
M  V30 2578 H 223.042 -5.2718 -1.56081 0
M  V30 2579 H 224.267 -6.49 -1.99938 0
M  V30 2580 H 222.213 -5.28188 -3.89042 0
M  V30 2581 H 222.13 -6.85961 -3.17794 0
M  V30 2582 H 223.398 -6.49515 -4.30988 0
M  V30 2583 N 227.627 0.131896 -1.57047 0
M  V30 2584 C 228.574 1.16236 -1.99393 0
M  V30 2585 C 229.544 1.41863 -0.863943 0
M  V30 2586 O 230.729 1.53946 -1.12718 0
M  V30 2587 C 227.869 2.48708 -2.39245 0
M  V30 2588 C 226.982 2.30127 -3.65603 0
M  V30 2589 C 226.117 3.55738 -3.94492 0
M  V30 2590 C 225.156 3.32259 -5.14073 0
M  V30 2591 N 224.293 4.50039 -5.38896 0
M  V30 2592 H 229.133 0.794251 -2.87221 0
M  V30 2593 H 226.67 0.380707 -1.42088 0
M  V30 2594 H 228.628 3.25969 -2.60384 0
M  V30 2595 H 227.258 2.83437 -1.54478 0
M  V30 2596 H 226.31 1.43845 -3.52154 0
M  V30 2597 H 227.622 2.08746 -4.5302 0
M  V30 2598 H 226.776 4.41423 -4.1621 0
M  V30 2599 H 225.515 3.80138 -3.05526 0
M  V30 2600 H 224.52 2.44963 -4.92212 0
M  V30 2601 H 225.745 3.09242 -6.04604 0
M  V30 2602 H 223.691 4.74584 -4.52886 0
M  V30 2603 H 223.608 4.31716 -6.2061 0
M  V30 2604 H 224.876 5.36895 -5.65123 0
M  V30 2605 N 229.106 1.52395 0.401703 0
M  V30 2606 C 230.517 1.58899 0.980202 0
M  V30 2607 C 230.868 0.434032 1.91339 0
M  V30 2608 O 229.993 -0.444619 2.11783 0
M  V30 2609 C 230.588 2.87994 1.78451 0
M  V30 2610 C 229.147 2.96953 2.31292 0
M  V30 2611 C 228.294 2.53903 1.11483 0
M  V30 2612 H 231.245 1.57657 0.18168 0
M  V30 2613 H 231.266 2.73765 2.64259 0
M  V30 2614 H 230.778 3.72035 1.10506 0
M  V30 2615 H 228.879 2.17422 3.02586 0
M  V30 2616 H 228.992 4.01344 2.61649 0
M  V30 2617 H 227.356 2.07925 1.47104 0
M  V30 2618 H 228.139 3.40326 0.450928 0
M  V30 2619 N 230.584 -0.659388 1.43143 0
M  V30 2620 C 231.514 -1.78422 1.50625 0
M  V30 2621 C 232.495 -1.66216 0.361443 0
M  V30 2622 O 233.68 -1.85404 0.577834 0
M  V30 2623 C 230.81 -3.16815 1.42287 0
M  V30 2624 C 229.764 -3.43777 2.54954 0
M  V30 2625 C 229.09 -4.81905 2.31671 0
M  V30 2626 C 230.39 -3.39134 3.97222 0
M  V30 2627 H 232.084 -1.72417 2.44771 0
M  V30 2628 H 229.63 -0.828084 1.17808 0
M  V30 2629 H 231.583 -3.95253 1.46127 0
M  V30 2630 H 230.307 -3.23534 0.446435 0
M  V30 2631 H 228.966 -2.67707 2.50457 0
M  V30 2632 H 228.614 -4.85294 1.32284 0
M  V30 2633 H 228.314 -5.00906 3.07192 0
M  V30 2634 H 229.838 -5.62609 2.37284 0
M  V30 2635 H 231.252 -4.07518 4.03239 0
M  V30 2636 H 229.649 -3.69671 4.72719 0
M  V30 2637 H 230.719 -2.37426 4.22797 0
M  V30 2638 N 232.062 -1.29571 -0.897171 0
M  V30 2639 C 233.473 -1.15964 -1.46319 0
M  V30 2640 C 233.824 0.244267 -1.94674 0
M  V30 2641 O 232.949 1.13998 -1.83939 0
M  V30 2642 C 233.544 -2.09906 -2.65942 0
M  V30 2643 C 232.103 -2.00314 -3.18671 0
M  V30 2644 C 231.25 -2.00687 -1.91363 0
M  V30 2645 H 234.201 -1.42019 -0.708268 0
M  V30 2646 H 234.222 -1.67276 -3.41759 0
M  V30 2647 H 233.734 -3.12075 -2.30718 0
M  V30 2648 H 231.835 -1.01242 -3.58582 0
M  V30 2649 H 231.948 -2.88102 -3.82798 0
M  V30 2650 H 230.312 -1.45319 -2.09175 0
M  V30 2651 H 231.095 -3.04566 -1.58413 0
M  V30 2652 N 233.54 1.10788 -1.12088 0
M  V30 2653 C 234.951 1.64181 -0.88891 0
M  V30 2654 C 235.302 1.87508 0.577498 0
M  V30 2655 O 234.427 1.61434 1.44112 0
M  V30 2656 C 235.022 2.98257 -1.60712 0
M  V30 2657 C 233.581 3.4853 -1.42139 0
M  V30 2658 C 232.728 2.23208 -1.6454 0
M  V30 2659 H 235.679 0.943368 -1.27618 0
M  V30 2660 H 235.7 3.65552 -1.05604 0
M  V30 2661 H 235.212 2.81246 -2.67436 0
M  V30 2662 H 233.313 3.70692 -0.376552 0
M  V30 2663 H 233.426 4.26882 -2.17505 0
M  V30 2664 H 231.79 2.31169 -1.06925 0
M  V30 2665 H 232.573 2.08733 -2.72554 0
M  V30 2666 N 235.018 0.912232 1.28515 0
M  V30 2667 C 236.246 0.560416 1.99166 0
M  V30 2668 C 236.661 -0.857927 1.68182 0
M  V30 2669 O 236.018 -1.56805 0.933733 0
M  V30 2670 C 236.069 0.758142 3.53461 0
M  V30 2671 O 235.79 2.12067 3.83352 0
M  V30 2672 C 237.291 0.412954 4.41372 0
M  V30 2673 H 234.511 0.213805 0.636026 0
M  V30 2674 H 237.055 1.22502 1.63749 0
M  V30 2675 H 235.21 0.140556 3.87145 0
M  V30 2676 H 235.624 2.15923 4.77993 0
M  V30 2677 H 237.098 0.60208 5.48707 0
M  V30 2678 H 237.575 -0.65073 4.34353 0
M  V30 2679 H 238.181 1.00802 4.13182 0
M  V30 2680 N 236.496 -1.42363 0.676048 0
M  V30 2681 C 237.907 -1.84649 0.275948 0
M  V30 2682 C 238.258 -1.56588 -1.18214 0
M  V30 2683 O 237.383 -1.02634 -1.90513 0
M  V30 2684 C 237.978 -3.35178 0.494053 0
M  V30 2685 C 236.537 -3.76109 0.148061 0
M  V30 2686 C 235.684 -2.65931 0.785891 0
M  V30 2687 H 238.635 -1.32192 0.878121 0
M  V30 2688 H 238.656 -3.79655 -0.25343 0
M  V30 2689 H 238.168 -3.55571 1.55535 0
M  V30 2690 H 236.269 -3.61323 -0.909742 0
M  V30 2691 H 236.382 -4.7546 0.589454 0
M  V30 2692 H 234.746 -2.53773 0.217113 0
M  V30 2693 H 235.529 -2.89146 1.85067 0
M  V30 2694 N 237.974 -0.419461 -1.51915 0
M  V30 2695 C 238.884 0.407528 -2.31033 0
M  V30 2696 C 239.9 1.04413 -1.3919 0
M  V30 2697 O 241.076 1.0434 -1.72265 0
M  V30 2698 C 238.141 1.50365 -3.12396 0
M  V30 2699 C 237.202 0.889029 -4.19994 0
M  V30 2700 C 236.435 1.93291 -4.97468 0
M  V30 2701 O 236.658 3.15259 -4.75361 0
M  V30 2702 O 235.592 1.53339 -5.8204 0
M  V30 2703 H 239.418 -0.237865 -3.02767 0
M  V30 2704 H 237.003 -0.182413 -1.48282 0
M  V30 2705 H 238.885 2.13975 -3.63032 0
M  V30 2706 H 237.56 2.13345 -2.43445 0
M  V30 2707 H 236.467 0.215353 -3.7348 0
M  V30 2708 H 237.8 0.302991 -4.91267 0
M  V30 2709 N 239.452 1.56882 -0.150215 0
M  V30 2710 C 240.729 1.87844 0.545327 0
M  V30 2711 C 241.109 1.0567 1.82749 0
M  V30 2712 O 240.457 0.144442 2.28043 0
M  V30 2713 C 240.667 3.39526 0.80767 0
M  V30 2714 C 242.015 4.08814 1.14703 0
M  V30 2715 O 243.039 3.44723 0.896917 0
M  V30 2716 O 241.898 5.22004 1.61784 0
M  V30 2717 H 238.992 0.778677 0.278553 0
M  V30 2718 H 241.538 1.68666 -0.187068 0
M  V30 2719 H 240.31 3.91173 -0.0996096 0
M  V30 2720 H 239.933 3.64243 1.59413 0
M  V30 2721 N 240.93 -0.123565 1.57115 0
M  V30 2722 C 241.878 -1.17082 2.00984 0
M  V30 2723 C 242.872 -1.43136 0.906009 0
M  V30 2724 O 244.078 -1.43152 1.09121 0
M  V30 2725 H 240.453 -0.394653 0.64012 0
M  V30 2726 H 242.424 -0.774292 2.88179 0
M  V30 2727 C 241.173 -2.49057 2.42623 0
M  V30 2728 H 240.496 -2.29846 3.27125 0
M  V30 2729 H 241.936 -3.20906 2.7712 0
M  V30 2730 C 240.395 -3.11305 1.28805 0
M  V30 2731 O 240.925 -3.97171 0.60153 0
M  V30 2732 N 239.131 -2.71111 1.04628 0
M  V30 2733 H 238.678 -2.01382 1.60634 0
M  V30 2734 H 238.636 -3.1309 0.286685 0
M  V30 2735 N 242.408 -1.52605 -0.393616 0
M  V30 2736 C 243.824 -1.41753 -0.733357 0
M  V30 2737 C 244.024 -0.534293 -1.94287 0
M  V30 2738 O 243.08 -0.0059787 -2.52499 0
M  V30 2739 C 244.393 -2.84531 -0.972772 0
M  V30 2740 C 245.941 -2.93978 -1.07453 0
M  V30 2741 C 246.416 -4.37756 -1.3466 0
M  V30 2742 N 247.907 -4.4106 -1.41492 0
M  V30 2743 C 248.642 -5.49387 -1.642 0
M  V30 2744 N 248.138 -6.67806 -1.8441 0
M  V30 2745 N 249.931 -5.36923 -1.66342 0
M  V30 2746 H 242.082 -2.08555 0.402328 0
M  V30 2747 H 244.345 -0.940654 0.117789 0
M  V30 2748 H 244.051 -3.51353 -0.156204 0
M  V30 2749 H 243.925 -3.26508 -1.88871 0
M  V30 2750 H 246.312 -2.27326 -1.88167 0
M  V30 2751 H 246.393 -2.55435 -0.136605 0
M  V30 2752 H 246.037 -5.04972 -0.544581 0
M  V30 2753 H 245.967 -4.73848 -2.2973 0
M  V30 2754 H 248.458 -3.55705 -1.27601 0
M  V30 2755 H 248.771 -7.46141 -2.01231 0
M  V30 2756 H 247.116 -6.70843 -1.81644 0
M  V30 2757 H 250.307 -4.43381 -1.50102 0
M  V30 2758 H 250.48 -6.21416 -1.837 0
M  V30 2759 N 243.887 0.651787 -1.4349 0
M  V30 2760 C 245.303 0.96762 -1.26922 0
M  V30 2761 C 245.503 2.00602 -0.189982 0
M  V30 2762 O 244.559 2.48793 0.431107 0
M  V30 2763 C 245.872 1.45052 -2.63401 0
M  V30 2764 C 247.42 1.5671 -2.70945 0
M  V30 2765 C 247.895 2.0839 -4.07845 0
M  V30 2766 N 249.386 2.1569 -4.09917 0
M  V30 2767 C 250.121 2.56804 -5.12679 0
M  V30 2768 N 249.617 2.97203 -6.25813 0
M  V30 2769 N 251.41 2.56756 -5.00033 0
M  V30 2770 H 243.561 -0.0353158 -2.12371 0
M  V30 2771 H 245.824 0.0467858 -0.946845 0
M  V30 2772 H 245.53 0.761926 -3.43348 0
M  V30 2773 H 245.404 2.42529 -2.88894 0
M  V30 2774 H 247.791 2.2467 -1.9133 0
M  V30 2775 H 247.872 0.57662 -2.49216 0
M  V30 2776 H 247.516 1.41031 -4.87927 0
M  V30 2777 H 247.446 3.08271 -4.26938 0
M  V30 2778 H 249.937 1.87237 -3.28254 0
M  V30 2779 H 250.25 3.27328 -7.00055 0
M  V30 2780 H 248.595 2.95004 -6.29283 0
M  V30 2781 H 251.786 2.24572 -4.10713 0
M  V30 2782 H 251.959 2.88475 -5.80247 0
M  V30 2783 N 245.365 1.30045 0.890287 0
M  V30 2784 C 246.776 1.16738 1.45702 0
M  V30 2785 C 247.127 -0.233939 1.948 0
M  V30 2786 O 246.252 -1.13021 1.84541 0
M  V30 2787 C 246.847 2.11313 2.64825 0
M  V30 2788 C 245.406 2.02001 3.17604 0
M  V30 2789 C 244.553 2.01699 1.90296 0
M  V30 2790 H 247.504 1.42392 0.700726 0
M  V30 2791 H 247.525 1.69086 3.40867 0
M  V30 2792 H 247.037 3.13294 2.2906 0
M  V30 2793 H 245.138 1.03142 3.5804 0
M  V30 2794 H 245.251 2.90128 3.81264 0
M  V30 2795 H 243.615 1.46427 2.08402 0
M  V30 2796 H 244.398 3.05402 1.56795 0
M  V30 2797 N 246.843 -1.10192 1.12674 0
M  V30 2798 C 247.773 -2.18652 0.819362 0
M  V30 2799 C 248.754 -1.68698 -0.217915 0
M  V30 2800 O 249.939 -1.94041 -0.0785581 0
M  V30 2801 C 247.069 -3.46202 0.27594 0
M  V30 2802 C 246.023 -4.09444 1.24656 0
M  V30 2803 C 245.349 -5.31725 0.563258 0
M  V30 2804 C 246.649 -4.52863 2.60217 0
M  V30 2805 H 248.343 -2.44622 1.72628 0
M  V30 2806 H 245.889 -1.17571 0.831451 0
M  V30 2807 H 247.842 -4.21372 0.0486149 0
M  V30 2808 H 246.566 -3.1973 -0.666331 0
M  V30 2809 H 245.225 -3.36284 1.45974 0
M  V30 2810 H 244.873 -5.0153 -0.384235 0
M  V30 2811 H 244.573 -5.74991 1.21075 0
M  V30 2812 H 246.097 -6.09624 0.34503 0
M  V30 2813 H 247.511 -5.19294 2.42913 0
M  V30 2814 H 245.908 -5.06986 3.21068 0
M  V30 2815 H 246.978 -3.65656 3.18471 0
M  V30 2816 N 248.321 -0.919034 -1.28029 0
M  V30 2817 C 249.567 -0.565221 -1.95389 0
M  V30 2818 C 249.922 0.882325 -1.70976 0
M  V30 2819 O 249.215 1.61988 -1.02325 0
M  V30 2820 C 249.409 -0.816855 -3.4794 0
M  V30 2821 C 249.238 -2.28731 -3.87185 0
M  V30 2822 C 248.008 -2.93841 -4.11079 0
M  V30 2823 C 250.206 -3.26415 -3.97439 0
M  V30 2824 N 248.188 -4.31129 -4.37037 0
M  V30 2825 C 249.559 -4.48884 -4.27672 0
M  V30 2826 C 251.614 -3.21742 -3.79982 0
M  V30 2827 C 250.317 -5.67268 -4.42266 0
M  V30 2828 C 252.343 -4.39431 -3.95796 0
M  V30 2829 C 251.705 -5.60675 -4.26407 0
M  V30 2830 H 247.804 -0.256797 -0.738633 0
M  V30 2831 H 250.388 -1.18386 -1.54573 0
M  V30 2832 H 248.559 -0.227445 -3.87733 0
M  V30 2833 H 250.291 -0.426542 -4.02446 0
M  V30 2834 H 247.046 -2.44547 -4.05578 0
M  V30 2835 H 247.47 -5.02127 -4.5409 0
M  V30 2836 H 252.112 -2.29079 -3.55363 0
M  V30 2837 H 249.83 -6.60406 -4.65714 0
M  V30 2838 H 253.416 -4.37323 -3.83719 0
M  V30 2839 H 252.296 -6.50223 -4.38383 0
M  V30 2840 N 249.799 1.42003 -0.683588 0
M  V30 2841 C 250.709 2.34597 -0.0109075 0
M  V30 2842 C 251.725 1.55576 0.779245 0
M  V30 2843 O 252.901 1.88107 0.719555 0
M  V30 2844 C 249.966 3.34199 0.922588 0
M  V30 2845 C 249.027 4.29115 0.125984 0
M  V30 2846 C 248.26 5.23959 1.01502 0
M  V30 2847 O 248.483 5.23952 2.25456 0
M  V30 2848 O 247.417 6.00053 0.47111 0
M  V30 2849 H 251.243 2.93675 -0.773853 0
M  V30 2850 H 248.828 1.42654 -0.443861 0
M  V30 2851 H 250.71 3.95365 1.45823 0
M  V30 2852 H 249.385 2.77582 1.66523 0
M  V30 2853 H 248.292 3.71335 -0.453969 0
M  V30 2854 H 249.625 4.88798 -0.577736 0
M  V30 2855 N 251.277 0.427512 1.51691 0
M  V30 2856 C 252.688 -0.0378867 1.86662 0
M  V30 2857 C 253.039 -1.42819 1.34525 0
M  V30 2858 O 252.164 -2.05037 0.692014 0
M  V30 2859 C 252.759 -0.0755266 3.38716 0
M  V30 2860 C 251.318 -0.485309 3.73258 0
M  V30 2861 C 250.465 0.328399 2.75349 0
M  V30 2862 H 253.416 0.64379 1.45055 0
M  V30 2863 H 253.437 -0.887056 3.70016 0
M  V30 2864 H 252.949 0.936487 3.76632 0
M  V30 2865 H 251.05 -1.50329 3.40928 0
M  V30 2866 H 251.163 -0.21693 4.78609 0
M  V30 2867 H 249.527 -0.211905 2.53817 0
M  V30 2868 H 250.31 1.3391 3.16106 0
M  V30 2869 N 252.755 -1.56801 0.158532 0
M  V30 2870 C 253.665 -2.20916 -0.789518 0
M  V30 2871 C 254.681 -1.1969 -1.26294 0
M  V30 2872 O 255.857 -1.52308 -1.31773 0
M  V30 2873 C 252.922 -2.82727 -2.00665 0
M  V30 2874 C 251.983 -3.99114 -1.58134 0
M  V30 2875 C 251.216 -4.57968 -2.74045 0
M  V30 2876 O 251.439 -4.15704 -3.90572 0
M  V30 2877 O 250.373 -5.48047 -2.48855 0
M  V30 2878 H 254.199 -3.02464 -0.273681 0
M  V30 2879 H 251.784 -1.4924 -0.0690548 0
M  V30 2880 H 253.666 -3.21968 -2.71872 0
M  V30 2881 H 252.341 -2.04184 -2.51179 0
M  V30 2882 H 251.248 -3.64567 -0.839155 0
M  V30 2883 H 252.581 -4.79212 -1.12325 0
M  V30 2884 N 254.233 0.115231 -1.57178 0
M  V30 2885 C 255.143 1.15994 -2.03918 0
M  V30 2886 C 256.159 1.45103 -0.960268 0
M  V30 2887 O 257.335 1.56144 -1.27204 0
M  V30 2888 C 254.4 2.46568 -2.43732 0
M  V30 2889 C 253.461 2.24822 -3.65723 0
M  V30 2890 C 252.694 3.4917 -4.03629 0
M  V30 2891 O 252.917 4.56623 -3.41835 0
M  V30 2892 O 251.851 3.39949 -4.96708 0
M  V30 2893 H 255.677 0.793019 -2.93164 0
M  V30 2894 H 253.262 0.3263 -1.45793 0
M  V30 2895 H 255.144 3.23492 -2.70057 0
M  V30 2896 H 253.819 2.82726 -1.57631 0
M  V30 2897 H 252.726 1.45744 -3.44542 0
M  V30 2898 H 254.059 1.93566 -4.52541 0
M  V30 2899 N 255.711 1.52812 0.385517 0
M  V30 2900 C 256.939 1.71907 1.15133 0
M  V30 2901 C 257.354 0.439004 1.83625 0
M  V30 2902 O 256.711 -0.586765 1.7281 0
M  V30 2903 C 256.762 2.87099 2.19673 0
M  V30 2904 O 256.483 4.10151 1.53973 0
M  V30 2905 C 257.984 3.17902 3.08955 0
M  V30 2906 H 255.204 0.575479 0.345057 0
M  V30 2907 H 257.748 1.99476 0.45052 0
M  V30 2908 H 255.903 2.61982 2.85384 0
M  V30 2909 H 256.317 4.74514 2.23465 0
M  V30 2910 H 257.791 4.01959 3.7833 0
M  V30 2911 H 258.268 2.3243 3.72657 0
M  V30 2912 H 258.874 3.44871 2.48885 0
M  V30 2913 N 257.189 -0.644168 1.43834 0
M  V30 2914 C 258.435 -1.40603 1.46146 0
M  V30 2915 C 258.768 -1.93997 0.0887717 0
M  V30 2916 O 258.043 -1.72854 -0.891724 0
M  V30 2917 C 258.326 -2.58086 2.51124 0
M  V30 2918 C 258.179 -2.10126 3.97702 0
M  V30 2919 C 259.498 -3.60291 2.52742 0
M  V30 2920 H 256.617 -0.509905 0.532134 0
M  V30 2921 H 259.259 -0.729502 1.75437 0
M  V30 2922 H 257.409 -3.15801 2.26278 0
M  V30 2923 H 259.081 -1.57342 4.33637 0
M  V30 2924 H 257.324 -1.41419 4.10101 0
M  V30 2925 H 257.995 -2.94649 4.66783 0
M  V30 2926 H 260.471 -3.12352 2.7491 0
M  V30 2927 H 259.347 -4.40032 3.28121 0
M  V30 2928 H 259.608 -4.1349 1.56455 0
M  V30 2929 N 258.668 -1.30515 -0.883378 0
M  V30 2930 C 259.914 -1.19607 -1.63774 0
M  V30 2931 C 260.247 0.248314 -1.92606 0
M  V30 2932 O 259.522 1.17742 -1.54813 0
M  V30 2933 C 259.805 -2.02669 -2.97653 0
M  V30 2934 C 259.658 -3.55335 -2.75784 0
M  V30 2935 C 260.977 -1.86573 -3.98596 0
M  V30 2936 H 258.096 -0.435856 -0.594305 0
M  V30 2937 H 260.738 -1.60165 -1.02212 0
M  V30 2938 H 258.888 -1.68208 -3.50197 0
M  V30 2939 H 260.56 -3.99863 -2.30016 0
M  V30 2940 H 258.803 -3.79438 -2.1026 0
M  V30 2941 H 259.474 -4.08745 -3.70988 0
M  V30 2942 H 261.95 -2.16703 -3.55217 0
M  V30 2943 H 260.826 -2.47014 -4.90179 0
M  V30 2944 H 261.087 -0.825321 -4.34328 0
M  V30 2945 N 260.146 1.09593 -1.13257 0
M  V30 2946 C 261.395 1.81105 -0.887917 0
M  V30 2947 C 261.708 1.86563 0.587672 0
M  V30 2948 O 262.914 2.54367 0.949204 0
M  V30 2949 C 261.37 3.25338 -1.53895 0
M  V30 2950 C 260.978 3.28151 -3.04994 0
M  V30 2951 C 262.722 4.01617 -1.37492 0
M  V30 2952 C 260.629 4.66897 -3.6299 0
M  V30 2953 H 259.559 0.678661 -0.328534 0
M  V30 2954 H 262.21 1.23183 -1.36008 0
M  V30 2955 H 260.592 3.8331 -0.994446 0
M  V30 2956 H 261.766 2.79953 -3.66009 0
M  V30 2957 H 260.081 2.65361 -3.20893 0
M  V30 2958 H 262.678 5.04119 -1.78235 0
M  V30 2959 H 263.021 4.15072 -0.31957 0
M  V30 2960 H 263.554 3.50082 -1.88912 0
M  V30 2961 H 260.293 4.58643 -4.68323 0
M  V30 2962 H 259.813 5.15426 -3.06752 0
M  V30 2963 H 261.492 5.3587 -3.62563 0
M  V30 2964 N 261.624 0.925811 1.2754 0
M  V30 2965 C 262.587 0.428129 2.25166 0
M  V30 2966 C 263.587 -0.452261 1.54309 0
M  V30 2967 O 264.777 -0.253608 1.72344 0
M  V30 2968 C 261.909 -0.384749 3.38722 0
M  V30 2969 H 263.102 1.29066 2.70706 0
M  V30 2970 H 260.655 0.706323 1.3943 0
M  V30 2971 H 261.39 -1.26618 2.98561 0
M  V30 2972 H 261.175 0.246454 3.91325 0
M  V30 2973 H 262.665 -0.723389 4.11287 0
M  V30 2974 N 263.102 -1.41638 0.69111 0
M  V30 2975 C 264.032 -2.3347 0.037248 0
M  V30 2976 C 265.013 -1.51575 -0.771947 0
M  V30 2977 O 266.198 -1.80126 -0.72582 0
M  V30 2978 C 263.328 -3.35354 -0.903064 0
M  V30 2979 C 262.282 -4.27526 -0.201288 0
M  V30 2980 C 261.608 -5.19747 -1.25565 0
M  V30 2981 C 262.908 -5.13959 0.929689 0
M  V30 2982 H 264.602 -2.88397 0.804227 0
M  V30 2983 H 262.148 -1.38669 0.388189 0
M  V30 2984 H 264.101 -3.98519 -1.36969 0
M  V30 2985 H 262.825 -2.78767 -1.70166 0
M  V30 2986 H 261.484 -3.65779 0.245265 0
M  V30 2987 H 261.132 -4.59479 -2.04666 0
M  V30 2988 H 260.832 -5.8225 -0.791128 0
M  V30 2989 H 262.356 -5.85789 -1.72288 0
M  V30 2990 H 263.77 -5.70718 0.543546 0
M  V30 2991 H 262.167 -5.85379 1.32103 0
M  V30 2992 H 263.237 -4.51389 1.77133 0
M  V30 2993 N 264.58 -0.43555 -1.51462 0
M  V30 2994 C 265.81 0.130053 -2.0619 0
M  V30 2995 C 266.218 1.37164 -1.30317 0
M  V30 2996 O 265.561 1.80225 -0.355598 0
M  V30 2997 C 265.623 0.519418 -3.55728 0
M  V30 2998 C 265.287 -0.615119 -4.52841 0
M  V30 2999 C 266.284 -1.48671 -4.9819 0
M  V30 3000 C 263.969 -0.795341 -4.95963 0
M  V30 3001 C 265.963 -2.52324 -5.8533 0
M  V30 3002 C 263.65 -1.83514 -5.82894 0
M  V30 3003 C 264.648 -2.69748 -6.27475 0
M  V30 3004 O 264.336 -3.71944 -7.1268 0
M  V30 3005 H 264.068 0.0121612 -0.675891 0
M  V30 3006 H 266.622 -0.6129 -1.96043 0
M  V30 3007 H 264.852 1.31505 -3.63653 0
M  V30 3008 H 266.541 1.01597 -3.92979 0
M  V30 3009 H 267.307 -1.359 -4.65571 0
M  V30 3010 H 263.186 -0.133713 -4.60806 0
M  V30 3011 H 266.73 -3.19665 -6.20048 0
M  V30 3012 H 262.627 -1.96306 -6.14926 0
M  V30 3013 H 263.395 -3.68503 -7.30854 0
M  V30 3014 N 266.058 1.56714 -0.166846 0
M  V30 3015 C 267.335 1.88412 0.525373 0
M  V30 3016 C 267.715 1.07602 1.81618 0
M  V30 3017 O 267.063 0.168621 2.27877 0
M  V30 3018 C 267.273 3.40363 0.771613 0
M  V30 3019 C 268.621 4.10007 1.1036 0
M  V30 3020 O 269.645 3.45655 0.860304 0
M  V30 3021 O 268.504 5.2369 1.56239 0
M  V30 3022 H 265.598 0.781587 0.270278 0
M  V30 3023 H 268.144 1.68458 -0.204946 0
M  V30 3024 H 266.916 3.91046 -0.141093 0
M  V30 3025 H 266.539 3.65914 1.55541 0
M  V30 3026 N 267.536 -0.106894 1.57237 0
M  V30 3027 C 268.766 -0.825191 1.89405 0
M  V30 3028 C 269.174 -1.73374 0.757496 0
M  V30 3029 O 268.517 -1.81552 -0.280115 0
M  V30 3030 C 268.579 -1.70102 3.1671 0
M  V30 3031 C 268.243 -0.965523 4.46684 0
M  V30 3032 C 269.24 -0.300741 5.19029 0
M  V30 3033 C 266.925 -0.943105 4.93367 0
M  V30 3034 C 268.919 0.376622 6.36286 0
M  V30 3035 C 266.606 -0.261949 6.10538 0
M  V30 3036 C 267.604 0.396748 6.81847 0
M  V30 3037 O 267.292 1.06701 7.96787 0
M  V30 3038 H 267.024 -0.241852 0.631255 0
M  V30 3039 H 269.578 -0.0921491 2.05193 0
M  V30 3040 H 267.808 -2.47601 2.97036 0
M  V30 3041 H 269.497 -2.29483 3.34802 0
M  V30 3042 H 270.263 -0.309599 4.84011 0
M  V30 3043 H 266.142 -1.44524 4.3776 0
M  V30 3044 H 269.686 0.891334 6.91882 0
M  V30 3045 H 265.583 -0.250896 6.45012 0
M  V30 3046 H 266.351 0.972707 8.127 0
M  V30 3047 N 269.014 -1.53014 -0.377408 0
M  V30 3048 C 269.946 -1.74884 -1.48149 0
M  V30 3049 C 270.959 -0.629433 -1.5014 0
M  V30 3050 O 272.148 -0.905416 -1.53833 0
M  V30 3051 C 269.248 -1.80299 -2.86959 0
M  V30 3052 C 268.421 -3.09776 -3.08801 0
M  V30 3053 C 267.48 -3.06586 -4.27658 0
M  V30 3054 O 266.506 -3.80419 -4.23403 0
M  V30 3055 N 267.708 -2.26578 -5.34455 0
M  V30 3056 H 270.473 -2.70147 -1.29771 0
M  V30 3057 H 268.034 -1.51646 -0.56703 0
M  V30 3058 H 270.026 -1.75657 -3.64591 0
M  V30 3059 H 268.596 -0.92372 -2.98641 0
M  V30 3060 H 267.816 -3.27815 -2.18931 0
M  V30 3061 H 269.104 -3.95366 -3.20255 0
M  V30 3062 H 268.502 -1.66081 -5.40771 0
M  V30 3063 H 267.059 -2.27766 -6.10709 0
M  V30 3064 N 270.492 0.636531 -1.44174 0
M  V30 3065 C 271.72 1.42353 -1.50144 0
M  V30 3066 C 272.135 1.88389 -0.124575 0
M  V30 3067 O 271.492 1.6051 0.868489 0
M  V30 3068 C 271.543 2.64744 -2.46156 0
M  V30 3069 O 271.264 2.20629 -3.7849 0
M  V30 3070 C 272.765 3.57929 -2.61537 0
M  V30 3071 H 269.985 0.436752 -0.5094 0
M  V30 3072 H 272.529 0.778933 -1.89084 0
M  V30 3073 H 270.684 3.25307 -2.10366 0
M  V30 3074 H 271.098 2.99938 -4.30276 0
M  V30 3075 H 272.572 4.40428 -3.32757 0
M  V30 3076 H 273.049 4.06382 -1.66585 0
M  V30 3077 H 273.655 3.03238 -2.98206 0
M  V30 3078 N 271.97 1.30982 0.876444 0
M  V30 3079 C 272.918 1.18006 2.00443 0
M  V30 3080 C 273.912 0.0898871 1.69161 0
M  V30 3081 O 275.118 0.251333 1.78237 0
M  V30 3082 H 271.493 0.365196 0.65737 0
M  V30 3083 H 273.464 2.13453 2.0852 0
M  V30 3084 C 272.213 0.897521 3.35916 0
M  V30 3085 H 271.536 1.7285 3.60504 0
M  V30 3086 H 272.976 0.846874 4.15456 0
M  V30 3087 C 271.435 -0.399674 3.34521 0
M  V30 3088 O 271.965 -1.41852 3.7582 0
M  V30 3089 N 270.171 -0.413893 2.87637 0
M  V30 3090 H 269.718 0.41571 2.54224 0
M  V30 3091 H 269.676 -1.28175 2.87086 0
M  V30 3092 N 273.449 -1.08991 1.13837 0
M  V30 3093 C 274.726 -1.77863 0.813876 0
M  V30 3094 C 275.106 -1.99375 -0.693746 0
M  V30 3095 O 274.454 -1.59875 -1.63255 0
M  V30 3096 C 274.664 -3.0986 1.60586 0
M  V30 3097 C 276.012 -3.84493 1.8014 0
M  V30 3098 O 277.036 -3.19624 1.57222 0
M  V30 3099 O 275.895 -5.00957 2.18413 0
M  V30 3100 H 272.989 -0.771589 0.297624 0
M  V30 3101 H 275.535 -1.15507 1.24323 0
M  V30 3102 H 274.307 -2.89715 2.63022 0
M  V30 3103 H 273.93 -3.79942 1.17173 0
M  V30 3104 N 274.927 -0.932562 -1.27047 0
M  V30 3105 C 276.338 -0.619451 -1.76124 0
M  V30 3106 C 276.689 0.865397 -1.76083 0
M  V30 3107 O 275.814 1.67722 -1.36742 0
M  V30 3108 C 276.409 -1.11771 -3.19832 0
M  V30 3109 C 274.968 -0.855174 -3.66557 0
M  V30 3110 C 274.115 -1.27362 -2.46321 0
M  V30 3111 H 277.066 -1.11181 -1.13245 0
M  V30 3112 H 277.087 -0.46759 -3.77616 0
M  V30 3113 H 276.599 -2.19842 -3.1983 0
M  V30 3114 H 274.7 0.211524 -3.71999 0
M  V30 3115 H 274.813 -1.47613 -4.55793 0
M  V30 3116 H 273.177 -0.692119 -2.45116 0
M  V30 3117 H 273.96 -2.36307 -2.49025 0
M  V30 3118 N 276.405 1.4127 -0.698611 0
M  V30 3119 C 277.337 2.292 0.00399731 0
M  V30 3120 C 278.35 1.44944 0.741279 0
M  V30 3121 O 279.539 1.68416 0.591477 0
M  V30 3122 C 276.639 3.22875 1.02979 0
M  V30 3123 C 275.812 4.35904 0.36151 0
M  V30 3124 C 274.871 5.10134 1.29033 0
M  V30 3125 O 273.897 5.63809 0.781562 0
M  V30 3126 N 275.099 5.17885 2.6225 0
M  V30 3127 H 277.864 2.9014 -0.750921 0
M  V30 3128 H 275.425 1.52455 -0.544882 0
M  V30 3129 H 277.417 3.69404 1.65296 0
M  V30 3130 H 275.987 2.63221 1.68622 0
M  V30 3131 H 275.207 3.91719 -0.441584 0
M  V30 3132 H 276.495 5.08696 -0.103055 0
M  V30 3133 H 275.893 4.7573 3.061 0
M  V30 3134 H 274.45 5.6798 3.19754 0
M  V30 3135 N 277.883 0.443576 1.51229 0
M  V30 3136 C 278.793 -0.370721 2.31652 0
M  V30 3137 C 279.809 -1.02186 1.40833 0
M  V30 3138 O 280.985 -1.01586 1.73903 0
M  V30 3139 C 278.05 -1.45376 3.14749 0
M  V30 3140 C 277.111 -0.822099 4.21355 0
M  V30 3141 C 276.344 -1.85353 5.0048 0
M  V30 3142 O 276.567 -3.07656 4.80316 0
M  V30 3143 O 275.501 -1.4406 5.84406 0
M  V30 3144 H 279.327 0.286002 3.0235 0
M  V30 3145 H 276.912 0.20598 1.47973 0
M  V30 3146 H 278.794 -2.08173 3.66391 0
M  V30 3147 H 277.469 -2.09445 2.46809 0
M  V30 3148 H 276.376 -0.155909 3.73775 0
M  V30 3149 H 277.709 -0.224797 4.91686 0
M  V30 3150 N 279.361 -1.56624 0.175154 0
M  V30 3151 C 280.291 -2.21155 -0.749195 0
M  V30 3152 C 281.272 -1.16836 -1.23626 0
M  V30 3153 O 282.457 -1.45277 -1.28873 0
M  V30 3154 C 279.587 -2.8553 -1.97711 0
M  V30 3155 C 278.541 -3.95921 -1.62575 0
M  V30 3156 C 277.867 -4.47365 -2.92864 0
M  V30 3157 C 279.167 -5.15323 -0.850838 0
M  V30 3158 H 280.861 -2.98653 -0.211295 0
M  V30 3159 H 278.407 -1.43651 -0.100188 0
M  V30 3160 H 280.36 -3.2935 -2.62881 0
M  V30 3161 H 279.084 -2.05406 -2.53921 0
M  V30 3162 H 277.743 -3.52762 -0.997719 0
M  V30 3163 H 277.391 -3.64027 -3.47122 0
M  V30 3164 H 277.091 -5.21839 -2.70106 0
M  V30 3165 H 278.615 -4.93873 -3.59056 0
M  V30 3166 H 280.029 -5.55812 -1.40521 0
M  V30 3167 H 278.426 -5.95739 -0.722154 0
M  V30 3168 H 279.496 -4.84661 0.152082 0
M  V30 3169 N 280.839 0.0985539 -1.57292 0
M  V30 3170 C 281.802 1.10402 -2.00858 0
M  V30 3171 C 282.802 1.33146 -0.901593 0
M  V30 3172 O 283.992 1.29318 -1.16716 0
M  V30 3173 C 281.124 2.45394 -2.36632 0
M  V30 3174 H 282.317 0.729099 -2.90902 0
M  V30 3175 H 279.87 0.343495 -1.52479 0
M  V30 3176 H 280.605 2.87769 -1.49531 0
M  V30 3177 H 280.39 2.30235 -3.17387 0
M  V30 3178 H 281.88 3.17718 -2.71007 0
M  V30 3179 N 282.317 1.53212 0.369288 0
M  V30 3180 C 283.247 1.82365 1.45826 0
M  V30 3181 C 284.228 0.676907 1.56051 0
M  V30 3182 O 285.413 0.926401 1.70679 0
M  V30 3183 C 282.543 2.01023 2.83208 0
M  V30 3184 C 281.497 3.1678 2.8781 0
M  V30 3185 C 280.823 3.20724 4.27832 0
M  V30 3186 C 282.123 4.55447 2.55667 0
M  V30 3187 H 283.817 2.73559 1.21678 0
M  V30 3188 H 281.363 1.3163 0.583911 0
M  V30 3189 H 283.316 2.20001 3.59413 0
M  V30 3190 H 282.04 1.06536 3.08736 0
M  V30 3191 H 280.699 2.97616 2.14056 0
M  V30 3192 H 280.347 2.23882 4.50429 0
M  V30 3193 H 280.047 3.98496 4.31827 0
M  V30 3194 H 281.571 3.41881 5.05915 0
M  V30 3195 H 282.985 4.74611 3.21586 0
M  V30 3196 H 281.382 5.35432 2.70984 0
M  V30 3197 H 282.452 4.60812 1.5093 0
M  V30 3198 N 283.795 -0.628877 1.44509 0
M  V30 3199 C 285.211 -0.947305 1.28446 0
M  V30 3200 C 285.411 -2.00275 0.221872 0
M  V30 3201 O 284.467 -2.49447 -0.391471 0
M  V30 3202 C 285.78 -1.40843 2.65676 0
M  V30 3203 C 287.328 -1.52379 2.73404 0
M  V30 3204 C 287.803 -2.01875 4.11109 0
M  V30 3205 N 289.294 -2.09142 4.13296 0
M  V30 3206 C 290.029 -2.48615 5.16699 0
M  V30 3207 N 289.525 -2.87209 6.30462 0
M  V30 3208 N 291.318 -2.48768 5.04054 0
M  V30 3209 H 283.469 0.0690977 2.12288 0
M  V30 3210 H 285.732 -0.0317164 0.947469 0
M  V30 3211 H 285.438 -0.707206 3.44516 0
M  V30 3212 H 285.312 -2.37902 2.92716 0
M  V30 3213 H 287.699 -2.21598 1.9488 0
M  V30 3214 H 287.78 -0.536898 2.50102 0
M  V30 3215 H 287.424 -1.3325 4.90109 0
M  V30 3216 H 287.354 -3.0144 4.31789 0
M  V30 3217 H 289.845 -1.81991 3.31191 0
M  V30 3218 H 290.158 -3.16149 7.05174 0
M  V30 3219 H 288.503 -2.84955 6.33897 0
M  V30 3220 H 291.694 -2.18009 4.14234 0
M  V30 3221 H 291.867 -2.79207 5.84763 0
M  V30 3222 N 285.273 -1.31445 -0.869486 0
M  V30 3223 C 286.689 -1.10113 -1.15531 0
M  V30 3224 C 286.889 0.128087 -2.01092 0
M  V30 3225 O 285.945 0.817276 -2.38908 0
M  V30 3226 C 287.258 -2.37291 -1.84698 0
M  V30 3227 C 288.806 -2.42906 -1.97397 0
M  V30 3228 C 289.281 -3.69967 -2.69979 0
M  V30 3229 N 290.772 -3.70864 -2.77514 0
M  V30 3230 C 291.507 -4.65875 -3.34287 0
M  V30 3231 N 291.003 -5.71242 -3.91988 0
M  V30 3232 N 292.796 -4.53394 -3.3225 0
M  V30 3233 H 284.947 -2.1028 -0.299347 0
M  V30 3234 H 287.21 -0.927683 -0.195214 0
M  V30 3235 H 286.916 -3.27078 -1.29278 0
M  V30 3236 H 286.79 -2.47125 -2.84972 0
M  V30 3237 H 289.177 -1.53588 -2.51982 0
M  V30 3238 H 289.258 -2.37036 -0.961643 0
M  V30 3239 H 288.902 -4.59652 -2.16062 0
M  V30 3240 H 288.832 -3.73103 -3.7162 0
M  V30 3241 H 291.323 -2.94697 -2.36563 0
M  V30 3242 H 291.636 -6.39817 -4.33421 0
M  V30 3243 H 289.981 -5.75015 -3.90362 0
M  V30 3244 H 293.172 -3.70252 -2.8641 0
M  V30 3245 H 293.345 -5.27617 -3.76197 0
M  V30 3246 N 286.751 1.08385 -1.14413 0
M  V30 3247 C 287.699 2.17406 -0.826888 0
M  V30 3248 C 288.693 1.6827 0.195312 0
M  V30 3249 O 289.899 1.79927 0.0513892 0
M  V30 3250 H 286.274 0.70934 -0.249681 0
M  V30 3251 H 288.245 2.41388 -1.75426 0
M  V30 3252 C 286.994 3.46215 -0.320979 0
M  V30 3253 H 286.317 3.84401 -1.0989 0
M  V30 3254 H 287.757 4.23777 -0.137549 0
M  V30 3255 C 286.216 3.23067 0.955472 0
M  V30 3256 O 286.746 3.4668 2.02918 0
M  V30 3257 N 284.952 2.7661 0.890798 0
M  V30 3258 H 284.499 2.57594 0.0168815 0
M  V30 3259 H 284.457 2.61501 1.74542 0
M  V30 3260 N 288.23 0.939286 1.26551 0
M  V30 3261 C 289.14 0.453432 2.30176 0
M  V30 3262 C 290.156 -0.471649 1.67486 0
M  V30 3263 O 291.332 -0.35164 1.98306 0
M  V30 3264 C 288.397 -0.275326 3.45605 0
M  V30 3265 C 287.458 0.686084 4.23782 0
M  V30 3266 C 286.691 -0.00798994 5.33699 0
M  V30 3267 O 286.914 -1.22528 5.57085 0
M  V30 3268 O 285.848 0.669746 5.98162 0
M  V30 3269 H 289.674 1.31416 2.73795 0
M  V30 3270 H 287.259 0.705095 1.31715 0
M  V30 3271 H 289.141 -0.685911 4.1578 0
M  V30 3272 H 287.816 -1.11147 3.0402 0
M  V30 3273 H 286.723 1.14658 3.56096 0
M  V30 3274 H 288.056 1.48979 4.69112 0
M  V30 3275 N 289.708 -1.40897 0.706093 0
M  V30 3276 C 290.618 -2.3455 0.0482286 0
M  V30 3277 C 291.634 -1.56796 -0.754396 0
M  V30 3278 O 292.81 -1.89228 -0.689538 0
M  V30 3279 C 289.875 -3.35625 -0.869303 0
M  V30 3280 C 288.936 -4.29261 -0.0576994 0
M  V30 3281 C 288.169 -5.25508 -0.931531 0
M  V30 3282 O 288.392 -5.27472 -2.17092 0
M  V30 3283 O 287.326 -6.00727 -0.375587 0
M  V30 3284 H 291.152 -2.92407 0.820476 0
M  V30 3285 H 288.737 -1.4193 0.4665 0
M  V30 3286 H 290.619 -3.97635 -1.39514 0
M  V30 3287 H 289.294 -2.80196 -1.62086 0
M  V30 3288 H 288.201 -3.70566 0.512988 0
M  V30 3289 H 289.534 -4.87817 0.655426 0
M  V30 3290 N 291.186 -0.45159 -1.50991 0
M  V30 3291 C 292.416 0.108177 -2.06317 0
M  V30 3292 C 292.824 1.35774 -1.31765 0
M  V30 3293 O 292.167 1.79838 -0.374694 0
M  V30 3294 C 292.229 0.481659 -3.56259 0
M  V30 3295 C 291.893 -0.663114 -4.52163 0
M  V30 3296 C 292.89 -1.53947 -4.96585 0
M  V30 3297 C 290.575 -0.8479 -4.95092 0
M  V30 3298 C 292.569 -2.58518 -5.82621 0
M  V30 3299 C 290.256 -1.89686 -5.80915 0
M  V30 3300 C 291.254 -2.76388 -6.24579 0
M  V30 3301 O 290.942 -3.79482 -7.08695 0
M  V30 3302 H 290.674 0.00499183 -0.675982 0
M  V30 3303 H 293.228 -0.633659 -1.95381 0
M  V30 3304 H 291.458 1.27641 -3.65027 0
M  V30 3305 H 293.147 0.974233 -3.94035 0
M  V30 3306 H 293.913 -1.4083 -4.64103 0
M  V30 3307 H 289.792 -0.18258 -4.60638 0
M  V30 3308 H 293.336 -3.26224 -6.16623 0
M  V30 3309 H 289.233 -2.02817 -6.12809 0
M  V30 3310 H 290.001 -3.76234 -7.26905 0
M  V30 3311 N 292.664 1.56529 -0.183458 0
M  V30 3312 C 293.904 1.99141 0.460667 0
M  V30 3313 C 294.268 1.06736 1.59597 0
M  V30 3314 O 295.469 1.38538 2.30349 0
M  V30 3315 C 293.74 3.45358 0.919939 0
M  V30 3316 S 295.299 4.09999 1.56354 0
M  V30 3317 H 292.117 0.695479 0.147748 0
M  V30 3318 H 294.719 1.93429 -0.283782 0
M  V30 3319 H 293.423 4.10315 0.0834208 0
M  V30 3320 H 292.954 3.54862 1.69814 0
M  V30 3321 H 294.969 4.06046 2.85203 0
M  V30 3322 N 294.142 -0.090211 1.57342 0
M  V30 3323 C 295.072 -1.10976 2.05443 0
M  V30 3324 C 296.053 -1.41482 0.944284 0
M  V30 3325 O 297.238 -1.51428 1.21586 0
M  V30 3326 C 294.368 -2.42831 2.48295 0
M  V30 3327 C 293.322 -2.26721 3.63018 0
M  V30 3328 C 292.648 -3.63796 3.91863 0
M  V30 3329 C 293.948 -1.7037 4.93732 0
M  V30 3330 H 295.642 -0.709564 2.9087 0
M  V30 3331 H 293.188 -0.339874 1.39932 0
M  V30 3332 H 295.141 -3.14431 2.80555 0
M  V30 3333 H 293.865 -2.84795 1.59873 0
M  V30 3334 H 292.524 -1.57565 3.31012 0
M  V30 3335 H 292.172 -4.03297 3.00601 0
M  V30 3336 H 291.872 -3.53861 4.69101 0
M  V30 3337 H 293.396 -4.36855 4.26603 0
M  V30 3338 H 294.81 -2.31816 5.24342 0
M  V30 3339 H 293.207 -1.71181 5.75167 0
M  V30 3340 H 294.277 -0.663542 4.80339 0
M  V30 3341 N 295.62 -1.53406 -0.361157 0
M  V30 3342 C 296.55 -1.83136 -1.44857 0
M  V30 3343 C 297.531 -0.685174 -1.5569 0
M  V30 3344 O 298.716 -0.93544 -1.70186 0
M  V30 3345 C 295.846 -2.02522 -2.82138 0
M  V30 3346 C 294.8 -3.18302 -2.86126 0
M  V30 3347 C 294.126 -3.22989 -4.26125 0
M  V30 3348 C 295.426 -4.56796 -2.53248 0
M  V30 3349 H 297.12 -2.74201 -1.20226 0
M  V30 3350 H 294.666 -1.31938 -0.576922 0
M  V30 3351 H 296.619 -2.21904 -3.58241 0
M  V30 3352 H 295.343 -1.08172 -3.08166 0
M  V30 3353 H 294.002 -2.98747 -2.12475 0
M  V30 3354 H 293.65 -2.26267 -4.49235 0
M  V30 3355 H 293.35 -4.00781 -4.29708 0
M  V30 3356 H 294.874 -3.44559 -5.04094 0
M  V30 3357 H 296.288 -4.7631 -3.19064 0
M  V30 3358 H 294.685 -5.36862 -2.68141 0
M  V30 3359 H 295.755 -4.61606 -1.48484 0
M  V30 3360 N 297.098 0.621204 -1.44841 0
M  V30 3361 C 298.375 1.38 -1.38619 0
M  V30 3362 C 298.755 2.11041 -0.0498935 0
M  V30 3363 O 298.103 2.06992 0.967816 0
M  V30 3364 C 298.313 2.33817 -2.59096 0
M  V30 3365 C 299.661 2.96844 -3.03593 0
M  V30 3366 O 300.685 2.44141 -2.59371 0
M  V30 3367 O 299.544 3.92476 -3.80296 0
M  V30 3368 H 296.638 0.61811 -0.549426 0
M  V30 3369 H 299.184 0.645429 -1.56947 0
M  V30 3370 H 297.956 1.79012 -3.47952 0
M  V30 3371 H 297.579 3.14676 -2.43032 0
M  V30 3372 N 298.576 1.31904 0.862503 0
M  V30 3373 C 299.801 1.25135 1.65397 0
M  V30 3374 C 300.226 -0.179 1.87246 0
M  V30 3375 O 299.584 -1.1277 1.4196 0
M  V30 3376 C 299.632 2.00832 2.99498 0
M  V30 3377 O 298.736 1.35075 3.89652 0
M  V30 3378 H 298.077 0.431655 0.504549 0
M  V30 3379 H 300.607 1.74094 1.07483 0
M  V30 3380 H 300.617 2.10709 3.49379 0
M  V30 3381 H 299.292 3.04847 2.82916 0
M  V30 3382 H 297.869 1.33696 3.48109 0
M  V30 3383 N 300.054 -1.07777 1.14986 0
M  V30 3384 C 301.279 -1.84558 0.946213 0
M  V30 3385 C 301.704 -1.81323 -0.500362 0
M  V30 3386 O 301.062 -1.20301 -1.35637 0
M  V30 3387 C 301.11 -3.29736 1.45968 0
M  V30 3388 O 300.214 -4.07149 0.65601 0
M  V30 3389 H 299.555 -0.571641 0.33782 0
M  V30 3390 H 302.085 -1.35991 1.52865 0
M  V30 3391 H 302.095 -3.80574 1.47063 0
M  V30 3392 H 300.77 -3.31406 2.51283 0
M  V30 3393 H 299.347 -3.65994 0.714322 0
M  V30 3394 N 301.532 -0.945985 -1.26051 0
M  V30 3395 C 302.442 -0.465633 -2.29933 0
M  V30 3396 C 303.458 0.462761 -1.67733 0
M  V30 3397 O 304.634 0.341118 -1.9849 0
M  V30 3398 C 301.699 0.256994 -3.45746 0
M  V30 3399 C 300.76 -0.708549 -4.23412 0
M  V30 3400 C 299.993 -0.0203135 -5.33696 0
M  V30 3401 O 300.216 1.19571 -5.57726 0
M  V30 3402 O 299.15 -0.701459 -5.97799 0
M  V30 3403 H 302.976 -1.32866 -2.73094 0
M  V30 3404 H 300.561 -0.712071 -1.31339 0
M  V30 3405 H 302.443 0.663852 -4.16138 0
M  V30 3406 H 301.118 1.09533 -3.04605 0
M  V30 3407 H 300.025 -1.16545 -3.55483 0
M  V30 3408 H 301.358 -1.51465 -4.68315 0
M  V30 3409 N 303.011 1.40521 -0.713556 0
M  V30 3410 C 304.26 2.00155 -0.249192 0
M  V30 3411 C 304.573 1.57224 1.16362 0
M  V30 3412 O 305.779 2.09542 1.72639 0
M  V30 3413 C 304.235 3.5773 -0.3946 0
M  V30 3414 C 303.843 4.09635 -1.81392 0
M  V30 3415 C 305.587 4.24499 0.00907364 0
M  V30 3416 C 303.494 5.59707 -1.91003 0
M  V30 3417 H 302.424 0.74868 -0.0894114 0
M  V30 3418 H 305.075 1.60784 -0.884352 0
M  V30 3419 H 303.457 3.94792 0.30911 0
M  V30 3420 H 304.631 3.83955 -2.54785 0
M  V30 3421 H 302.946 3.55456 -2.16888 0
M  V30 3422 H 305.543 5.34683 -0.0420404 0
M  V30 3423 H 305.886 4.02824 1.05065 0
M  V30 3424 H 306.419 3.92536 -0.645007 0
M  V30 3425 H 303.158 5.86234 -2.93275 0
M  V30 3426 H 302.678 5.87258 -1.22019 0
M  V30 3427 H 304.357 6.24776 -1.6812 0
M  V30 3428 N 304.489 0.459591 1.5075 0
M  V30 3429 C 305.439 -0.358926 2.25157 0
M  V30 3430 C 306.423 -0.971285 1.28276 0
M  V30 3431 O 307.615 -0.885739 1.53244 0
M  V30 3432 C 304.744 -1.44695 3.11317 0
M  V30 3433 C 303.83 -0.842894 4.15639 0
M  V30 3434 N 304.221 0.0299373 5.05791 0
M  V30 3435 C 302.519 -1.10809 4.32015 0
M  V30 3436 C 303.22 0.371563 5.80512 0
M  V30 3437 N 302.196 -0.250409 5.43023 0
M  V30 3438 H 305.998 0.313636 2.92222 0
M  V30 3439 H 303.512 0.273021 1.60089 0
M  V30 3440 H 305.509 -2.04641 3.63218 0
M  V30 3441 H 304.169 -2.12162 2.45799 0
M  V30 3442 H 305.18 0.39797 5.16369 0
M  V30 3443 H 301.857 -1.7786 3.77719 0
M  V30 3444 H 303.247 1.08319 6.63111 0
M  V30 3445 N 305.967 -1.56429 0.191757 0
M  V30 3446 C 307.213 -1.98541 -0.441943 0
M  V30 3447 C 307.568 -1.07646 -1.59468 0
M  V30 3448 O 306.861 -0.120191 -1.91223 0
M  V30 3449 C 307.055 -3.44449 -0.953384 0
M  V30 3450 C 306.884 -4.49456 0.148262 0
M  V30 3451 C 305.654 -5.01668 0.604781 0
M  V30 3452 C 307.852 -5.05336 0.95602 0
M  V30 3453 N 305.834 -5.90334 1.6846 0
M  V30 3454 C 307.205 -5.9064 1.88531 0
M  V30 3455 C 309.26 -4.87779 0.998811 0
M  V30 3456 C 307.963 -6.60264 2.85383 0
M  V30 3457 C 309.989 -5.58139 1.95537 0
M  V30 3458 C 309.351 -6.43187 2.8721 0
M  V30 3459 H 305.45 -0.771247 -0.129236 0
M  V30 3460 H 308.034 -1.92426 0.296682 0
M  V30 3461 H 306.205 -3.5107 -1.66146 0
M  V30 3462 H 307.937 -3.73533 -1.55741 0
M  V30 3463 H 304.692 -4.73183 0.198736 0
M  V30 3464 H 305.116 -6.39371 2.22561 0
M  V30 3465 H 309.758 -4.21705 0.304048 0
M  V30 3466 H 307.476 -7.25538 3.55837 0
M  V30 3467 H 311.062 -5.46532 1.99484 0
M  V30 3468 H 309.942 -6.96674 3.60022 0
M  V30 3469 N 307.445 0.0818655 -1.57387 0
M  V30 3470 C 308.691 0.778884 -1.87896 0
M  V30 3471 C 309.046 1.75692 -0.784229 0
M  V30 3472 O 308.339 1.90417 0.212567 0
M  V30 3473 C 308.533 1.53513 -3.22752 0
M  V30 3474 C 308.362 0.631838 -4.45239 0
M  V30 3475 C 307.132 0.272571 -5.04564 0
M  V30 3476 C 309.33 -0.0670191 -5.14256 0
M  V30 3477 N 307.312 -0.637498 -6.10581 0
M  V30 3478 C 308.683 -0.834653 -6.14356 0
M  V30 3479 C 310.738 -0.139551 -4.97704 0
M  V30 3480 C 309.441 -1.66806 -6.99691 0
M  V30 3481 C 311.467 -0.959903 -5.83558 0
M  V30 3482 C 310.829 -1.71561 -6.83188 0
M  V30 3483 H 306.928 0.260764 -0.737242 0
M  V30 3484 H 309.512 0.0408227 -1.94657 0
M  V30 3485 H 307.683 2.24398 -3.17018 0
M  V30 3486 H 309.415 2.18038 -3.40942 0
M  V30 3487 H 306.17 0.62319 -4.69482 0
M  V30 3488 H 306.594 -1.08548 -6.68241 0
M  V30 3489 H 311.236 0.430376 -4.20604 0
M  V30 3490 H 308.954 -2.249 -7.76174 0
M  V30 3491 H 312.54 -1.01887 -5.72809 0
M  V30 3492 H 311.42 -2.34017 -7.48469 0
M  V30 3493 N 308.923 1.53595 0.353017 0
M  V30 3494 C 310.339 1.43648 0.695516 0
M  V30 3495 C 310.539 0.585617 1.92802 0
M  V30 3496 O 309.595 0.0729223 2.52395 0
M  V30 3497 C 310.908 2.8701 0.896991 0
M  V30 3498 C 312.456 2.96723 0.996209 0
M  V30 3499 C 312.931 4.41173 1.23007 0
M  V30 3500 N 314.422 4.44657 1.29749 0
M  V30 3501 C 315.157 5.53547 1.49577 0
M  V30 3502 N 314.653 6.72461 1.66639 0
M  V30 3503 N 316.446 5.41145 1.52048 0
M  V30 3504 H 308.597 2.07415 -0.457481 0
M  V30 3505 H 310.86 0.9372 -0.142687 0
M  V30 3506 H 310.566 3.51644 0.0629938 0
M  V30 3507 H 310.44 3.31401 1.80148 0
M  V30 3508 H 312.827 2.32235 1.82074 0
M  V30 3509 H 312.908 2.55707 0.0688331 0
M  V30 3510 H 312.552 5.06238 0.410505 0
M  V30 3511 H 312.482 4.79772 2.17086 0
M  V30 3512 H 314.973 3.58963 1.18126 0
M  V30 3513 H 315.286 7.51214 1.81378 0
M  V30 3514 H 313.631 6.75423 1.63794 0
M  V30 3515 H 316.822 4.47205 1.38294 0
M  V30 3516 H 316.995 6.26068 1.67159 0
M  V30 3517 N 310.401 -0.613514 1.45168 0
M  V30 3518 C 311.647 -1.37471 1.49096 0
M  V30 3519 C 311.98 -1.93765 0.129901 0
M  V30 3520 O 311.255 -1.74707 -0.854858 0
M  V30 3521 C 311.538 -2.52701 2.56542 0
M  V30 3522 C 311.391 -2.01643 4.0207 0
M  V30 3523 C 312.71 -3.54849 2.60327 0
M  V30 3524 H 309.829 -0.498502 0.54283 0
M  V30 3525 H 312.471 -0.692125 1.76945 0
M  V30 3526 H 310.621 -3.10931 2.32926 0
M  V30 3527 H 312.293 -1.48108 4.36877 0
M  V30 3528 H 310.536 -1.32688 4.13009 0
M  V30 3529 H 311.207 -2.84681 4.72928 0
M  V30 3530 H 313.683 -3.0645 2.81474 0
M  V30 3531 H 312.559 -4.32973 3.37381 0
M  V30 3532 H 312.82 -4.10079 1.6519 0
M  V30 3533 N 311.879 -1.3236 -0.855495 0
M  V30 3534 C 312.811 -1.17052 -1.97057 0
M  V30 3535 C 313.824 -0.10574 -1.62456 0
M  V30 3536 O 315.013 -0.354619 -1.74942 0
M  V30 3537 C 312.113 -0.769305 -3.30053 0
M  V30 3538 C 311.286 -1.9222 -3.929 0
M  V30 3539 C 310.345 -1.50466 -5.04228 0
M  V30 3540 O 309.371 -2.21655 -5.24269 0
M  V30 3541 N 310.573 -0.400209 -5.79119 0
M  V30 3542 H 313.338 -2.13103 -2.1073 0
M  V30 3543 H 310.899 -1.24885 -1.0303 0
M  V30 3544 H 312.891 -0.472407 -4.01933 0
M  V30 3545 H 311.461 0.100025 -3.1244 0
M  V30 3546 H 310.681 -2.38563 -3.13817 0
M  V30 3547 H 311.969 -2.69403 -4.31624 0
M  V30 3548 H 311.367 0.192319 -5.65373 0
M  V30 3549 H 309.924 -0.162912 -6.51596 0
M  V30 3550 N 313.357 1.07166 -1.15556 0
M  V30 3551 C 314.634 1.76546 -0.842069 0
M  V30 3552 C 315.014 2.00453 0.661939 0
M  V30 3553 O 314.362 1.62452 1.60691 0
M  V30 3554 C 314.572 3.07266 -1.65495 0
M  V30 3555 C 315.92 3.81578 -1.86234 0
M  V30 3556 O 316.944 3.17083 -1.62287 0
M  V30 3557 O 315.803 4.97419 -2.26355 0
M  V30 3558 H 312.897 0.766756 -0.309862 0
M  V30 3559 H 315.443 1.13514 -1.26145 0
M  V30 3560 H 314.215 2.85494 -2.67598 0
M  V30 3561 H 313.838 3.7803 -1.23203 0
M  V30 3562 N 314.835 0.952656 1.25548 0
M  V30 3563 C 316.251 0.656769 1.4546 0
M  V30 3564 C 316.451 -0.78633 1.85524 0
M  V30 3565 O 315.507 -1.56183 1.98402 0
M  V30 3566 C 316.82 1.62801 2.52817 0
M  V30 3567 C 318.368 1.63897 2.66659 0
M  V30 3568 C 318.843 2.5978 3.77198 0
M  V30 3569 N 320.334 2.58133 3.84606 0
M  V30 3570 C 321.069 3.29003 4.69621 0
M  V30 3571 N 320.565 4.09339 5.58939 0
M  V30 3572 N 322.358 3.179 4.63569 0
M  V30 3573 H 314.509 1.88526 0.978344 0
M  V30 3574 H 316.772 0.810815 0.491206 0
M  V30 3575 H 316.478 2.65869 2.30232 0
M  V30 3576 H 316.352 1.38898 3.50695 0
M  V30 3577 H 318.739 0.615481 2.8861 0
M  V30 3578 H 318.82 1.91858 1.69187 0
M  V30 3579 H 318.464 3.62254 3.55997 0
M  V30 3580 H 318.394 2.29105 4.7415 0
M  V30 3581 H 320.885 1.99809 3.20757 0
M  V30 3582 H 321.198 4.6034 6.20731 0
M  V30 3583 H 319.543 4.13438 5.58654 0
M  V30 3584 H 322.734 2.54612 3.92798 0
M  V30 3585 H 322.907 3.73398 5.29602 0
M  V30 3586 N 316.313 -1.40141 0.720998 0
M  V30 3587 C 317.261 -2.3252 0.0608547 0
M  V30 3588 C 318.255 -1.52326 -0.741152 0
M  V30 3589 O 319.461 -1.68089 -0.643911 0
M  V30 3590 H 315.836 -0.751999 0.000876664 0
M  V30 3591 H 317.807 -2.8584 0.856614 0
M  V30 3592 C 316.556 -3.37331 -0.842809 0
M  V30 3593 H 315.879 -3.99108 -0.235084 0
M  V30 3594 H 317.319 -4.04452 -1.27257 0
M  V30 3595 C 315.778 -2.73246 -1.97074 0
M  V30 3596 O 316.308 -2.59998 -3.06209 0
M  V30 3597 N 314.514 -2.31547 -1.75597 0
M  V30 3598 H 314.061 -2.42522 -0.868368 0
M  V30 3599 H 314.019 -1.89007 -2.51244 0
M  V30 3600 N 317.792 -0.46758 -1.50504 0
M  V30 3601 C 319.04 0.0884469 -2.01906 0
M  V30 3602 C 319.361 1.40532 -1.35188 0
M  V30 3603 O 318.631 1.89515 -0.496079 0
M  V30 3604 H 317.211 0.0356765 -0.746148 0
M  V30 3605 H 319.873 -0.6172 -1.84869 0
M  V30 3606 H 318.969 0.2425 -3.11156 0
M  V30 3607 N 319.27 1.56325 -0.20005 0
M  V30 3608 C 320.22 2.15939 0.731743 0
M  V30 3609 C 321.204 1.10154 1.17281 0
M  V30 3610 O 322.396 1.36203 1.13038 0
M  V30 3611 C 319.525 2.82614 1.94895 0
M  V30 3612 C 318.611 3.95596 1.52855 0
M  V30 3613 N 319.002 4.99118 0.819418 0
M  V30 3614 C 317.3 4.07288 1.81748 0
M  V30 3615 C 318.001 5.78513 0.608053 0
M  V30 3616 N 316.977 5.31117 1.15828 0
M  V30 3617 H 320.779 2.9334 0.181285 0
M  V30 3618 H 318.293 1.624 -0.000452172 0
M  V30 3619 H 320.29 3.23718 2.62702 0
M  V30 3620 H 318.95 2.06702 2.50408 0
M  V30 3621 H 319.961 5.15723 0.47436 0
M  V30 3622 H 316.638 3.42509 2.38734 0
M  V30 3623 H 318.028 6.71885 0.0451619 0
M  V30 3624 N 320.748 -0.0735177 1.57428 0
M  V30 3625 C 321.658 -1.10547 2.06922 0
M  V30 3626 C 322.674 -1.42506 0.998402 0
M  V30 3627 O 323.85 -1.52717 1.31299 0
M  V30 3628 C 320.915 -2.40019 2.50184 0
M  V30 3629 C 319.976 -2.15046 3.71556 0
M  V30 3630 C 319.209 -3.38345 4.12745 0
M  V30 3631 O 319.432 -4.47399 3.53822 0
M  V30 3632 O 318.366 -3.2666 5.05546 0
M  V30 3633 H 322.192 -0.715013 2.95163 0
M  V30 3634 H 319.777 -0.287531 1.46607 0
M  V30 3635 H 321.659 -3.16218 2.78539 0
M  V30 3636 H 320.334 -2.78447 1.65072 0
M  V30 3637 H 319.241 -1.36558 3.48285 0
M  V30 3638 H 320.574 -1.81499 4.57514 0
M  V30 3639 N 322.226 -1.5378 -0.344866 0
M  V30 3640 C 323.474 -1.70625 -1.08311 0
M  V30 3641 C 323.795 -0.471447 -1.89215 0
M  V30 3642 O 323.065 0.514616 -1.8902 0
M  V30 3643 H 321.645 -0.629058 -0.402859 0
M  V30 3644 H 324.307 -1.9103 -0.386459 0
M  V30 3645 H 323.403 -2.57656 -1.76124 0
M  V30 3646 N 323.704 0.605807 -1.45491 0
M  V30 3647 C 324.934 1.38934 -1.52908 0
M  V30 3648 C 325.342 1.88513 -0.161086 0
M  V30 3649 O 324.685 1.62962 0.847891 0
M  V30 3650 C 324.747 2.62737 -2.45376 0
M  V30 3651 C 324.411 2.34785 -3.92078 0
M  V30 3652 C 325.408 1.95038 -4.8193 0
M  V30 3653 C 323.093 2.47642 -4.37011 0
M  V30 3654 C 325.087 1.68511 -6.14722 0
M  V30 3655 C 322.774 2.20728 -5.69844 0
M  V30 3656 C 323.772 1.81225 -6.58519 0
M  V30 3657 O 323.46 1.54627 -7.88889 0
M  V30 3658 H 323.192 0.431629 -0.520262 0
M  V30 3659 H 325.746 0.74573 -1.91384 0
M  V30 3660 H 323.976 3.29824 -2.01874 0
M  V30 3661 H 325.665 3.24783 -2.43456 0
M  V30 3662 H 326.431 1.84639 -4.48479 0
M  V30 3663 H 322.31 2.77356 -3.68232 0
M  V30 3664 H 325.854 1.37602 -6.83894 0
M  V30 3665 H 321.751 2.30744 -6.02849 0
M  V30 3666 H 322.519 1.68665 -8.00933 0
M  V30 3667 N 325.182 1.32811 0.848464 0
M  V30 3668 C 326.428 1.23907 1.60546 0
M  V30 3669 C 326.761 -0.197161 1.93197 0
M  V30 3670 O 326.036 -1.13596 1.5788 0
M  V30 3671 C 326.319 2.10489 2.92175 0
M  V30 3672 C 326.172 3.62522 2.66266 0
M  V30 3673 C 327.491 1.97075 3.93509 0
M  V30 3674 H 324.61 0.451459 0.58254 0
M  V30 3675 H 327.252 1.62818 0.979296 0
M  V30 3676 H 325.402 1.77434 3.45614 0
M  V30 3677 H 327.074 4.05821 2.19334 0
M  V30 3678 H 325.317 3.84879 2.00126 0
M  V30 3679 H 325.988 4.18437 3.6002 0
M  V30 3680 H 328.464 2.26045 3.49346 0
M  V30 3681 H 327.34 2.59923 4.83457 0
M  V30 3682 H 327.601 0.940186 4.31987 0
M  V30 3683 N 326.66 -1.06551 1.16123 0
M  V30 3684 C 328.071 -1.60768 0.949232 0
M  V30 3685 C 328.422 -1.89523 -0.507508 0
M  V30 3686 O 327.547 -1.66671 -1.38021 0
M  V30 3687 C 328.142 -2.92086 1.71671 0
M  V30 3688 C 326.701 -3.43015 1.54977 0
M  V30 3689 C 325.848 -2.16947 1.72711 0
M  V30 3690 H 328.799 -0.895354 1.31031 0
M  V30 3691 H 328.82 -3.6138 1.19099 0
M  V30 3692 H 328.332 -2.71127 2.7769 0
M  V30 3693 H 326.433 -3.69039 0.513873 0
M  V30 3694 H 326.546 -4.18516 2.33198 0
M  V30 3695 H 324.91 -2.27041 1.15431 0
M  V30 3696 H 325.693 -1.98473 2.80113 0
M  V30 3697 N 328.138 -0.959301 -1.25041 0
M  V30 3698 C 329.363 -0.633507 -1.97488 0
M  V30 3699 C 329.788 0.788555 -1.70773 0
M  V30 3700 O 329.146 1.53394 -0.966431 0
M  V30 3701 C 329.194 -0.904057 -3.49083 0
M  V30 3702 O 328.298 0.0147939 -4.12397 0
M  V30 3703 H 327.639 -0.240368 -0.618966 0
M  V30 3704 H 330.169 -1.28717 -1.59038 0
M  V30 3705 H 330.179 -0.832203 -3.99423 0
M  V30 3706 H 328.854 -1.94048 -3.67856 0
M  V30 3707 H 327.431 -0.109664 -3.72739 0
M  V30 3708 N 329.616 1.39756 -0.72842 0
M  V30 3709 C 330.841 2.05472 -0.282159 0
M  V30 3710 C 331.266 1.54549 1.07221 0
M  V30 3711 O 330.624 0.686372 1.67805 0
M  V30 3712 C 330.672 3.59462 -0.286264 0
M  V30 3713 O 329.776 4.05918 0.728298 0
M  V30 3714 H 329.117 0.651226 -0.129618 0
M  V30 3715 H 331.647 1.78915 -0.992499 0
M  V30 3716 H 331.657 4.07798 -0.128373 0
M  V30 3717 H 330.332 3.95889 -1.27456 0
M  V30 3718 H 328.909 3.69012 0.537081 0
M  V30 3719 N 331.094 0.475555 1.50254 0
M  V30 3720 C 332.324 -0.0753399 2.06463 0
M  V30 3721 C 332.732 -1.33661 1.33908 0
M  V30 3722 O 332.075 -1.79219 0.403257 0
M  V30 3723 C 332.137 -0.424921 3.5698 0
M  V30 3724 C 331.801 0.734965 4.51051 0
M  V30 3725 C 332.798 1.61827 4.94073 0
M  V30 3726 C 330.483 0.926557 4.9368 0
M  V30 3727 C 332.477 2.67754 5.78434 0
M  V30 3728 C 330.164 1.98904 5.77824 0
M  V30 3729 C 331.162 2.8629 6.20103 0
M  V30 3730 O 330.85 3.90708 7.02568 0
M  V30 3731 H 330.582 0.00576308 0.675975 0
M  V30 3732 H 333.136 0.664662 1.94349 0
M  V30 3733 H 331.366 -1.21817 3.67012 0
M  V30 3734 H 333.055 -0.911422 3.95535 0
M  V30 3735 H 333.821 1.48196 4.61804 0
M  V30 3736 H 329.7 0.25584 4.6029 0
M  V30 3737 H 333.244 3.35992 6.11355 0
M  V30 3738 H 329.141 2.12541 6.09505 0
M  V30 3739 H 329.909 3.87751 7.20827 0
M  V30 3740 N 332.573 -1.56217 0.208337 0
M  V30 3741 C 333.503 -2.22694 -0.702116 0
M  V30 3742 C 334.484 -1.19432 -1.2112 0
M  V30 3743 O 335.669 -1.47978 -1.25762 0
M  V30 3744 C 332.799 -2.8966 -1.9161 0
M  V30 3745 C 331.753 -3.9928 -1.5414 0
M  V30 3746 C 331.079 -4.53476 -2.83308 0
M  V30 3747 C 332.379 -5.17012 -0.741339 0
M  V30 3748 H 334.073 -2.99034 -0.147898 0
M  V30 3749 H 331.619 -1.43831 -0.0696951 0
M  V30 3750 H 333.572 -3.34852 -2.55836 0
M  V30 3751 H 332.296 -2.10746 -2.49507 0
M  V30 3752 H 330.955 -3.54799 -0.922668 0
M  V30 3753 H 330.603 -3.71308 -3.39322 0
M  V30 3754 H 330.303 -5.27451 -2.58976 0
M  V30 3755 H 331.827 -5.01378 -3.485 0
M  V30 3756 H 333.241 -5.58667 -1.28699 0
M  V30 3757 H 331.638 -5.97137 -0.595627 0
M  V30 3758 H 332.708 -4.8423 0.254851 0
M  V30 3759 N 334.051 0.0651679 -1.57465 0
M  V30 3760 C 335.297 0.764193 -1.87851 0
M  V30 3761 C 335.63 1.76889 -0.801495 0
M  V30 3762 O 334.905 1.93594 0.187528 0
M  V30 3763 C 335.188 1.46625 -3.28897 0
M  V30 3764 C 335.041 0.477515 -4.47258 0
M  V30 3765 C 336.36 2.4095 -3.68281 0
M  V30 3766 H 333.479 0.276351 -0.683227 0
M  V30 3767 H 336.121 0.0272868 -1.8998 0
M  V30 3768 H 334.271 2.09438 -3.27212 0
M  V30 3769 H 335.943 -0.145922 -4.61069 0
M  V30 3770 H 334.186 -0.206576 -4.33308 0
M  V30 3771 H 334.857 1.0065 -5.42746 0
M  V30 3772 H 337.333 1.88209 -3.71102 0
M  V30 3773 H 336.209 2.87072 -4.67847 0
M  V30 3774 H 336.47 3.26049 -2.98571 0
M  V30 3775 N 335.529 1.53961 0.336706 0
M  V30 3776 C 336.439 1.85432 1.43708 0
M  V30 3777 C 337.455 0.745053 1.57242 0
M  V30 3778 O 338.631 1.03804 1.72588 0
M  V30 3779 C 335.696 2.06349 2.78605 0
M  V30 3780 C 334.757 3.30191 2.74358 0
M  V30 3781 C 333.99 3.50101 4.02822 0
M  V30 3782 O 334.213 2.7371 5.00439 0
M  V30 3783 O 333.147 4.43547 4.06878 0
M  V30 3784 H 336.973 2.78975 1.20028 0
M  V30 3785 H 334.558 1.39701 0.52952 0
M  V30 3786 H 336.44 2.21513 3.58483 0
M  V30 3787 H 335.115 1.15995 3.02203 0
M  V30 3788 H 334.022 3.20425 1.93078 0
M  V30 3789 H 335.355 4.2056 2.55715 0
M  V30 3790 N 337.007 -0.598083 1.45811 0
M  V30 3791 C 337.954 -1.7082 1.55207 0
M  V30 3792 C 338.924 -1.61278 0.39732 0
M  V30 3793 O 340.109 -1.80717 0.612038 0
M  V30 3794 C 337.249 -3.09144 1.53376 0
M  V30 3795 C 336.362 -3.29423 2.79472 0
M  V30 3796 C 335.497 -4.57907 2.69248 0
M  V30 3797 C 334.536 -4.71476 3.90354 0
M  V30 3798 N 333.673 -5.9127 3.78608 0
M  V30 3799 H 338.513 -1.62125 2.50039 0
M  V30 3800 H 336.05 -0.790389 1.24062 0
M  V30 3801 H 338.008 -3.89186 1.50301 0
M  V30 3802 H 336.638 -3.16773 0.620876 0
M  V30 3803 H 335.69 -2.43091 2.92594 0
M  V30 3804 H 337.002 -3.3532 3.69272 0
M  V30 3805 H 336.156 -5.46157 2.64192 0
M  V30 3806 H 334.895 -4.54423 1.77063 0
M  V30 3807 H 333.9 -3.81648 3.95759 0
M  V30 3808 H 335.125 -4.76751 4.83617 0
M  V30 3809 H 333.071 -5.88813 2.89199 0
M  V30 3810 H 332.988 -5.98369 4.6205 0
M  V30 3811 H 334.256 -6.81992 3.77501 0
M  V30 3812 N 338.485 -1.33259 -0.841409 0
M  V30 3813 C 339.71 -1.2775 -1.63385 0
M  V30 3814 C 340.135 0.149188 -1.87507 0
M  V30 3815 O 339.493 1.10498 -1.43736 0
M  V30 3816 C 339.541 -2.05571 -2.96265 0
M  V30 3817 O 338.645 -1.41257 -3.87453 0
M  V30 3818 H 337.986 -0.439627 -0.497618 0
M  V30 3819 H 340.516 -1.75782 -1.04699 0
M  V30 3820 H 340.526 -2.16241 -3.45982 0
M  V30 3821 H 339.201 -3.09309 -2.7803 0
M  V30 3822 H 337.778 -1.39217 -3.45938 0
M  V30 3823 N 339.963 1.05934 -1.16686 0
M  V30 3824 C 341.374 1.60263 -0.957745 0
M  V30 3825 C 341.725 1.89789 0.49745 0
M  V30 3826 O 340.85 1.67401 1.37135 0
M  V30 3827 C 341.445 2.91172 -1.73218 0
M  V30 3828 C 340.004 3.42188 -1.56794 0
M  V30 3829 C 339.151 2.16028 -1.73859 0
M  V30 3830 H 342.102 0.888392 -1.31504 0
M  V30 3831 H 342.123 3.60744 -1.21014 0
M  V30 3832 H 341.635 2.6965 -2.79124 0
M  V30 3833 H 339.736 3.68762 -0.533437 0
M  V30 3834 H 339.849 4.17273 -2.35414 0
M  V30 3835 H 338.213 2.26426 -1.16633 0
M  V30 3836 H 338.996 1.96985 -2.81161 0
M  V30 3837 N 341.441 0.965919 1.2453 0
M  V30 3838 C 342.389 0.486506 2.27455 0
M  V30 3839 C 343.383 -0.449041 1.6334 0
M  V30 3840 O 344.589 -0.324527 1.7705 0
M  V30 3841 H 340.964 0.138857 0.739069 0
M  V30 3842 H 342.935 1.3666 2.65267 0
M  V30 3843 C 341.684 -0.209481 3.47068 0
M  V30 3844 H 341.007 0.50129 3.96645 0
M  V30 3845 H 342.447 -0.508775 4.20936 0
M  V30 3846 C 340.906 -1.43586 3.0477 0
M  V30 3847 O 341.436 -2.53299 3.11773 0
M  V30 3848 N 339.642 -1.30126 2.59838 0
M  V30 3849 H 339.189 -0.408583 2.54339 0
M  V30 3850 H 339.147 -2.12294 2.31902 0
M  V30 3851 N 342.919 -1.39368 0.735821 0
M  V30 3852 C 343.867 -2.32443 0.0855131 0
M  V30 3853 C 344.861 -1.53104 -0.724954 0
M  V30 3854 O 346.067 -1.68762 -0.626047 0
M  V30 3855 H 342.442 -0.751948 0.00885257 0
M  V30 3856 H 344.413 -2.84916 0.886883 0
M  V30 3857 C 343.162 -3.38206 -0.806983 0
M  V30 3858 H 342.485 -3.99335 -0.19274 0
M  V30 3859 H 343.925 -4.05779 -1.2296 0
M  V30 3860 C 342.384 -2.75321 -1.94165 0
M  V30 3861 O 342.914 -2.63231 -3.03435 0
M  V30 3862 N 341.12 -2.33396 -1.73132 0
M  V30 3863 H 340.667 -2.4343 -0.842596 0
M  V30 3864 H 340.625 -1.91661 -2.49225 0
M  V30 3865 N 344.397 -0.483516 -1.5 0
M  V30 3866 C 345.327 0.293829 -2.31644 0
M  V30 3867 C 346.308 0.978864 -1.39112 0
M  V30 3868 O 347.493 0.973644 -1.68029 0
M  V30 3869 C 344.623 1.36897 -3.19181 0
M  V30 3870 C 343.577 0.804833 -4.20365 0
M  V30 3871 C 342.903 1.9792 -4.96721 0
M  V30 3872 C 344.203 -0.192313 -5.21946 0
M  V30 3873 H 345.897 -0.387616 -2.9688 0
M  V30 3874 H 343.443 -0.187856 -1.42769 0
M  V30 3875 H 345.396 1.92037 -3.751 0
M  V30 3876 H 344.12 2.07936 -2.51853 0
M  V30 3877 H 342.779 0.275319 -3.65565 0
M  V30 3878 H 342.427 2.67686 -4.25856 0
M  V30 3879 H 342.127 1.60789 -5.65173 0
M  V30 3880 H 343.651 2.53526 -5.55479 0
M  V30 3881 H 345.065 0.270333 -5.72662 0
M  V30 3882 H 343.462 -0.478543 -5.98189 0
M  V30 3883 H 344.532 -1.11409 -4.71928 0
M  V30 3884 N 345.875 1.56104 -0.216619 0
M  V30 3885 C 346.785 2.23694 0.706982 0
M  V30 3886 C 347.801 1.24295 1.21765 0
M  V30 3887 O 348.977 1.57094 1.2603 0
M  V30 3888 C 346.042 2.8998 1.90033 0
M  V30 3889 C 345.103 4.04708 1.43213 0
M  V30 3890 C 344.336 4.67824 2.56859 0
M  V30 3891 O 344.559 4.29913 3.74874 0
M  V30 3892 O 343.493 5.56905 2.28343 0
M  V30 3893 H 347.319 3.03272 0.161235 0
M  V30 3894 H 344.904 1.49394 0.0136177 0
M  V30 3895 H 346.786 3.31837 2.59735 0
M  V30 3896 H 345.461 2.13365 2.43428 0
M  V30 3897 H 344.368 3.6743 0.70327 0
M  V30 3898 H 345.701 4.83051 0.944615 0
M  V30 3899 N 347.353 -0.0568162 1.57498 0
M  V30 3900 C 348.581 -0.765626 1.92213 0
M  V30 3901 C 348.996 -1.70353 0.813961 0
M  V30 3902 O 348.353 -1.81268 -0.211701 0
M  V30 3903 C 348.404 -1.5465 3.2675 0
M  V30 3904 O 348.125 -0.646278 4.33307 0
M  V30 3905 C 349.626 -2.35497 3.75574 0
M  V30 3906 H 346.846 -0.216835 0.634999 0
M  V30 3907 H 349.39 -0.0226146 2.04487 0
M  V30 3908 H 347.545 -2.24165 3.15957 0
M  V30 3909 H 347.959 -1.19093 5.108 0
M  V30 3910 H 349.433 -2.85722 4.72299 0
M  V30 3911 H 349.91 -3.15692 3.05344 0
M  V30 3912 H 350.516 -1.7111 3.8936 0
M  V30 3913 N 348.832 -1.54138 -0.328536 0
M  V30 3914 C 350.062 -1.75807 -1.08516 0
M  V30 3915 C 350.47 -0.50428 -1.82356 0
M  V30 3916 O 349.813 0.534451 -1.75754 0
M  V30 3917 C 349.875 -2.89423 -2.13248 0
M  V30 3918 C 349.539 -4.28504 -1.5885 0
M  V30 3919 C 350.536 -5.09536 -1.03289 0
M  V30 3920 C 348.221 -4.75034 -1.63243 0
M  V30 3921 C 350.215 -6.35206 -0.52845 0
M  V30 3922 C 347.902 -6.00672 -1.12411 0
M  V30 3923 C 348.9 -6.80592 -0.573062 0
M  V30 3924 O 348.588 -8.03867 -0.0723692 0
M  V30 3925 H 348.32 -0.590633 -0.328829 0
M  V30 3926 H 350.874 -2.01819 -0.381868 0
M  V30 3927 H 349.104 -2.5897 -2.87178 0
M  V30 3928 H 350.793 -2.98921 -2.74592 0
M  V30 3929 H 351.559 -4.74745 -0.99206 0
M  V30 3930 H 347.438 -4.12875 -2.05074 0
M  V30 3931 H 350.982 -6.97532 -0.0976774 0
M  V30 3932 H 346.879 -6.34955 -1.162 0
M  V30 3933 H 347.647 -8.18283 -0.188258 0
M  V30 3934 N 350.31 0.590341 -1.46126 0
M  V30 3935 C 351.22 1.72793 -1.58681 0
M  V30 3936 C 352.236 1.67516 -0.470566 0
M  V30 3937 O 353.412 1.87562 -0.733642 0
M  V30 3938 C 350.477 3.09287 -1.5666 0
M  V30 3939 C 349.538 3.25886 -2.79458 0
M  V30 3940 C 348.771 4.55869 -2.77524 0
M  V30 3941 O 348.994 5.3928 -1.85832 0
M  V30 3942 O 347.928 4.75552 -3.68964 0
M  V30 3943 H 351.754 1.65149 -2.54872 0
M  V30 3944 H 349.339 0.756486 -1.28832 0
M  V30 3945 H 351.221 3.90577 -1.58202 0
M  V30 3946 H 349.896 3.17385 -0.636271 0
M  V30 3947 H 348.803 2.44119 -2.83472 0
M  V30 3948 H 350.136 3.22675 -3.71674 0
M  V30 3949 N 351.788 1.33704 0.83433 0
M  V30 3950 C 353.034 1.26612 1.59188 0
M  V30 3951 C 353.389 -0.165439 1.91687 0
M  V30 3952 O 352.682 -1.10873 1.56262 0
M  V30 3953 C 352.876 2.07926 2.90692 0
M  V30 3954 C 352.705 3.58844 2.71038 0
M  V30 3955 C 351.475 4.28148 2.68361 0
M  V30 3956 C 353.673 4.53082 2.43353 0
M  V30 3957 N 351.655 5.64987 2.40132 0
M  V30 3958 C 353.026 5.77843 2.24716 0
M  V30 3959 C 355.081 4.42119 2.28987 0
M  V30 3960 C 353.784 6.92877 1.9317 0
M  V30 3961 C 355.81 5.56973 1.98835 0
M  V30 3962 C 355.172 6.80745 1.81012 0
M  V30 3963 H 351.271 0.518517 0.585375 0
M  V30 3964 H 353.855 1.68294 0.979044 0
M  V30 3965 H 352.026 1.68558 3.49918 0
M  V30 3966 H 353.758 1.92568 3.55949 0
M  V30 3967 H 350.513 3.80469 2.82029 0
M  V30 3968 H 350.937 6.37133 2.28889 0
M  V30 3969 H 355.579 3.47058 2.41477 0
M  V30 3970 H 353.297 7.87931 1.79418 0
M  V30 3971 H 356.883 5.50428 1.88468 0
M  V30 3972 H 355.763 7.68115 1.58017 0
M  V30 3973 N 353.266 -1.05314 1.17247 0
M  V30 3974 C 354.496 -1.81707 0.983166 0
M  V30 3975 C 354.904 -1.83222 -0.471822 0
M  V30 3976 O 354.247 -1.25721 -1.3394 0
M  V30 3977 C 354.309 -3.29134 1.44606 0
M  V30 3978 C 353.973 -3.51304 2.92292 0
M  V30 3979 C 354.97 -3.4353 3.90235 0
M  V30 3980 C 352.655 -3.78306 3.30439 0
M  V30 3981 C 354.649 -3.62442 5.24323 0
M  V30 3982 C 352.336 -3.96866 4.64694 0
M  V30 3983 C 353.334 -3.88933 5.61445 0
M  V30 3984 O 353.022 -4.06976 6.93272 0
M  V30 3985 H 352.754 -0.579476 0.348114 0
M  V30 3986 H 355.308 -1.33705 1.55924 0
M  V30 3987 H 353.538 -3.78046 0.813537 0
M  V30 3988 H 355.227 -3.87049 1.22262 0
M  V30 3989 H 355.993 -3.22648 3.62109 0
M  V30 3990 H 351.872 -3.83585 2.55702 0
M  V30 3991 H 355.416 -3.56165 5.99827 0
M  V30 3992 H 351.313 -4.1724 4.92525 0
M  V30 3993 H 352.081 -4.24209 6.99992 0
M  V30 3994 N 354.744 -0.972509 -1.24016 0
M  V30 3995 C 355.692 -0.498562 -2.27194 0
M  V30 3996 C 356.686 0.440372 -1.63576 0
M  V30 3997 O 357.892 0.315133 -1.7722 0
M  V30 3998 H 354.267 -0.142775 -0.738322 0
M  V30 3999 H 356.238 -1.38065 -2.64539 0
M  V30 4000 C 354.987 0.191072 -3.47175 0
M  V30 4001 H 354.31 -0.522318 -3.96373 0
M  V30 4002 H 355.75 0.486445 -4.212 0
M  V30 4003 C 354.209 1.41967 -3.05527 0
M  V30 4004 O 354.739 2.51642 -3.13112 0
M  V30 4005 N 352.945 1.28746 -2.60524 0
M  V30 4006 H 352.492 0.395089 -2.54552 0
M  V30 4007 H 352.45 2.11061 -2.33025 0
M  V30 4008 N 356.222 1.38976 -0.743202 0
M  V30 4009 C 357.169 2.30544 -0.10861 0
M  V30 4010 C 358.139 1.49642 0.720869 0
M  V30 4011 O 359.324 1.78304 0.679142 0
M  V30 4012 C 356.464 3.36018 0.786496 0
M  V30 4013 C 355.577 4.31963 -0.0564849 0
M  V30 4014 C 354.712 5.24506 0.840657 0
M  V30 4015 C 353.751 6.121 -0.00658363 0
M  V30 4016 N 352.888 6.96973 0.846943 0
M  V30 4017 H 357.728 2.8424 -0.895088 0
M  V30 4018 H 355.265 1.3995 -0.453048 0
M  V30 4019 H 357.223 3.95768 1.31999 0
M  V30 4020 H 355.853 2.83758 1.53887 0
M  V30 4021 H 354.905 3.73763 -0.707492 0
M  V30 4022 H 356.217 4.93703 -0.711229 0
M  V30 4023 H 355.371 5.89322 1.4417 0
M  V30 4024 H 354.11 4.63107 1.52916 0
M  V30 4025 H 353.115 5.46289 -0.620366 0
M  V30 4026 H 354.34 6.75565 -0.691992 0
M  V30 4027 H 352.286 6.38133 1.52059 0
M  V30 4028 H 352.203 7.5559 0.248864 0
M  V30 4029 H 353.471 7.6621 1.43328 0
M  V30 4030 N 357.7 0.491464 1.49741 0
M  V30 4031 C 358.925 -0.0557177 2.07325 0
M  V30 4032 C 359.35 -1.30925 1.35056 0
M  V30 4033 O 358.708 -1.76733 0.404365 0
M  V30 4034 C 358.756 -0.302074 3.59333 0
M  V30 4035 O 357.86 -1.37868 3.88672 0
M  V30 4036 H 357.201 0.0219956 0.663636 0
M  V30 4037 H 359.731 0.688352 1.92673 0
M  V30 4038 H 359.741 -0.536464 4.04458 0
M  V30 4039 H 358.416 0.61383 4.11345 0
M  V30 4040 H 356.993 -1.12999 3.55367 0
M  V30 4041 N 359.178 -1.55987 0.224894 0
M  V30 4042 C 360.427 -1.97566 -0.406273 0
M  V30 4043 C 360.74 -1.11569 -1.6066 0
M  V30 4044 O 361.946 -1.43062 -2.3075 0
M  V30 4045 C 360.402 -3.51474 -0.774207 0
M  V30 4046 C 360.01 -4.46179 0.403496 0
M  V30 4047 C 361.754 -4.01758 -1.37079 0
M  V30 4048 C 359.661 -5.91399 0.0129412 0
M  V30 4049 H 358.591 -0.737777 -0.155565 0
M  V30 4050 H 361.242 -1.80659 0.321635 0
M  V30 4051 H 359.624 -3.63994 -1.55963 0
M  V30 4052 H 360.798 -4.45409 1.18101 0
M  V30 4053 H 359.113 -4.06255 0.913536 0
M  V30 4054 H 361.71 -5.07756 -1.67596 0
M  V30 4055 H 362.053 -3.47805 -2.28773 0
M  V30 4056 H 362.586 -3.92475 -0.648733 0
M  V30 4057 H 359.325 -6.49341 0.896451 0
M  V30 4058 H 358.845 -5.95356 -0.728821 0
M  V30 4059 H 360.524 -6.45683 -0.412582 0
M  V30 4060 N 360.656 0.0484629 -1.57525 0
M  V30 4061 C 361.881 0.759177 -1.93006 0
M  V30 4062 C 362.306 1.69125 -0.823317 0
M  V30 4063 O 361.664 1.79931 0.222364 0
M  V30 4064 C 361.712 1.50899 -3.27509 0
M  V30 4065 O 360.816 2.62112 -3.18388 0
M  V30 4066 H 360.157 0.205564 -0.631379 0
M  V30 4067 H 362.687 0.00972959 -2.04598 0
M  V30 4068 H 362.697 1.88317 -3.6194 0
M  V30 4069 H 361.372 0.825269 -4.0763 0
M  V30 4070 H 359.949 2.27379 -2.95556 0
M  V30 4071 N 362.134 1.5431 0.320358 0
M  V30 4072 C 363.55 1.45091 0.664889 0
M  V30 4073 C 363.75 0.626382 1.91517 0
M  V30 4074 O 362.806 0.126443 2.52183 0
M  V30 4075 C 364.119 2.88848 0.83591 0
M  V30 4076 C 365.667 2.9877 0.933046 0
M  V30 4077 C 366.142 4.43683 1.13621 0
M  V30 4078 N 367.633 4.47309 1.20287 0
M  V30 4079 C 368.368 5.56595 1.37801 0
M  V30 4080 N 367.864 6.75844 1.52338 0
M  V30 4081 N 369.657 5.44248 1.40535 0
M  V30 4082 H 361.808 2.06398 -0.501374 0
M  V30 4083 H 364.071 0.933963 -0.162534 0
M  V30 4084 H 363.777 3.51698 -0.0116092 0
M  V30 4085 H 363.651 3.35148 1.73078 0
M  V30 4086 H 366.038 2.36045 1.77107 0
M  V30 4087 H 366.119 2.55796 0.0145782 0
M  V30 4088 H 365.763 5.06995 0.303032 0
M  V30 4089 H 365.693 4.84269 2.0686 0
M  V30 4090 H 368.184 3.61388 1.10485 0
M  V30 4091 H 368.497 7.54892 1.65403 0
M  V30 4092 H 366.842 6.78746 1.4943 0
M  V30 4093 H 370.033 4.50038 1.28777 0
M  V30 4094 H 370.206 6.29473 1.53842 0
M  V30 4095 N 363.613 -0.582584 1.46437 0
M  V30 4096 C 364.89 -1.34276 1.4223 0
M  V30 4097 C 365.27 -2.10835 0.10583 0
M  V30 4098 O 364.618 -2.09485 -0.912596 0
M  V30 4099 C 364.828 -2.26865 2.65204 0
M  V30 4100 C 366.176 -2.88691 3.11356 0
M  V30 4101 O 367.2 -2.37178 2.65753 0
M  V30 4102 O 366.059 -3.82255 3.90568 0
M  V30 4103 H 363.153 -0.603326 0.565621 0
M  V30 4104 H 365.699 -0.603591 1.58603 0
M  V30 4105 H 364.471 -1.69724 3.52576 0
M  V30 4106 H 364.094 -3.08122 2.5129 0
M  V30 4107 N 365.091 -1.34144 -0.827227 0
M  V30 4108 C 366.038 -1.25364 -1.93785 0
M  V30 4109 C 367.008 -0.129774 -1.65592 0
M  V30 4110 O 368.193 -0.310024 -1.88264 0
M  V30 4111 C 365.333 -1.01064 -3.2997 0
M  V30 4112 C 364.446 -2.22185 -3.70484 0
M  V30 4113 C 363.581 -1.91203 -4.95595 0
M  V30 4114 C 362.62 -3.08491 -5.28677 0
M  V30 4115 N 361.757 -2.77421 -6.44967 0
M  V30 4116 H 366.597 -2.20347 -2.00627 0
M  V30 4117 H 364.134 -1.09558 -0.981608 0
M  V30 4118 H 366.092 -0.850139 -4.08446 0
M  V30 4119 H 364.722 -0.0975026 -3.22653 0
M  V30 4120 H 363.774 -2.4917 -2.87434 0
M  V30 4121 H 365.086 -3.0983 -3.90905 0
M  V30 4122 H 364.24 -1.71864 -5.81848 0
M  V30 4123 H 362.979 -1.00812 -4.77167 0
M  V30 4124 H 361.984 -3.28431 -4.40923 0
M  V30 4125 H 363.209 -3.99655 -5.49047 0
M  V30 4126 H 361.155 -1.89601 -6.28003 0
M  V30 4127 H 361.072 -3.58598 -6.6554 0
M  V30 4128 H 362.34 -2.61577 -7.34301 0
M  V30 4129 N 366.569 1.04691 -1.17803 0
M  V30 4130 C 367.532 2.10724 -0.901545 0
M  V30 4131 C 368.532 1.6042 0.110437 0
M  V30 4132 O 369.722 1.7377 -0.122303 0
M  V30 4133 C 366.854 3.39084 -0.351409 0
M  V30 4134 H 368.047 2.36686 -1.84174 0
M  V30 4135 H 365.6 1.21015 -0.98919 0
M  V30 4136 H 366.335 3.18782 0.59569 0
M  V30 4137 H 366.12 3.76909 -1.08083 0
M  V30 4138 H 367.61 4.17227 -0.176451 0
M  V30 4139 N 368.047 0.979072 1.23499 0
M  V30 4140 C 368.957 0.526431 2.28617 0
M  V30 4141 C 369.973 -0.418126 1.68901 0
M  V30 4142 O 371.149 -0.288372 1.99325 0
M  V30 4143 C 368.214 -0.165235 3.46306 0
M  V30 4144 C 367.275 0.82056 4.21385 0
M  V30 4145 C 366.508 0.161807 5.33455 0
M  V30 4146 O 366.731 -1.04742 5.60701 0
M  V30 4147 O 365.665 0.859708 5.95729 0
M  V30 4148 H 369.491 1.4006 2.69475 0
M  V30 4149 H 367.076 0.746643 1.29405 0
M  V30 4150 H 368.958 -0.553287 4.17752 0
M  V30 4151 H 367.633 -1.01419 3.07402 0
M  V30 4152 H 366.54 1.25929 3.52268 0
M  V30 4153 H 367.873 1.63828 4.64135 0
M  V30 4154 N 369.525 -1.3858 0.750561 0
M  V30 4155 C 370.472 -2.30483 0.120835 0
M  V30 4156 C 371.442 -1.50022 -0.712923 0
M  V30 4157 O 372.627 -1.78662 -0.669676 0
M  V30 4158 C 369.767 -3.36431 -0.768666 0
M  V30 4159 C 368.88 -4.31927 0.0793922 0
M  V30 4160 C 368.015 -5.24944 -0.81283 0
M  V30 4161 C 367.054 -6.12088 0.0390447 0
M  V30 4162 N 366.191 -6.97412 -0.809969 0
M  V30 4163 H 371.031 -2.83761 0.91015 0
M  V30 4164 H 368.568 -1.39707 0.460463 0
M  V30 4165 H 370.526 -3.96462 -1.29898 0
M  V30 4166 H 369.156 -2.8457 -1.5238 0
M  V30 4167 H 368.208 -3.73382 0.727303 0
M  V30 4168 H 369.52 -4.93319 0.737401 0
M  V30 4169 H 368.674 -5.90078 -1.41042 0
M  V30 4170 H 367.413 -4.63911 -1.50458 0
M  V30 4171 H 366.418 -5.45952 0.649328 0
M  V30 4172 H 367.643 -6.75189 0.727809 0
M  V30 4173 H 365.589 -6.38931 -1.48672 0
M  V30 4174 H 365.506 -7.55712 -0.208789 0
M  V30 4175 H 366.774 -7.66959 -1.39263 0
M  V30 4176 N 371.003 -0.499398 -1.49478 0
M  V30 4177 C 371.933 0.269244 -2.31943 0
M  V30 4178 C 372.914 0.964054 -1.40143 0
M  V30 4179 O 374.099 0.955767 -1.69052 0
M  V30 4180 C 371.229 1.33504 -3.20615 0
M  V30 4181 C 370.183 0.760202 -4.21195 0
M  V30 4182 C 369.509 1.9264 -4.98792 0
M  V30 4183 C 370.809 -0.247661 -5.21712 0
M  V30 4184 H 372.503 -0.419082 -2.96452 0
M  V30 4185 H 370.049 -0.202988 -1.42562 0
M  V30 4186 H 372.002 1.88048 -3.77115 0
M  V30 4187 H 370.726 2.05253 -2.54045 0
M  V30 4188 H 369.385 0.23653 -3.65836 0
M  V30 4189 H 369.033 2.63154 -4.28671 0
M  V30 4190 H 368.733 1.54785 -5.66847 0
M  V30 4191 H 370.257 2.4762 -5.58137 0
M  V30 4192 H 371.671 0.209579 -5.72917 0
M  V30 4193 H 370.068 -0.541962 -5.97648 0
M  V30 4194 H 371.138 -1.16409 -4.7072 0
M  V30 4195 N 372.481 1.55866 -0.233164 0
M  V30 4196 C 373.411 2.23783 0.666599 0
M  V30 4197 C 374.392 1.21343 1.19205 0
M  V30 4198 O 375.577 1.4996 1.23392 0
M  V30 4199 C 372.707 2.92671 1.86978 0
M  V30 4200 C 371.661 4.01682 1.47768 0
M  V30 4201 C 370.987 4.57926 2.76058 0
M  V30 4202 C 372.287 5.18126 0.658993 0
M  V30 4203 H 373.981 2.99232 0.100306 0
M  V30 4204 H 371.527 1.43924 0.046804 0
M  V30 4205 H 373.48 3.3888 2.50476 0
M  V30 4206 H 372.204 2.14688 2.46123 0
M  V30 4207 H 370.863 3.56222 0.866106 0
M  V30 4208 H 370.511 3.76659 3.33372 0
M  V30 4209 H 370.211 5.31505 2.50552 0
M  V30 4210 H 371.735 5.06859 3.40479 0
M  V30 4211 H 373.149 5.60644 1.19795 0
M  V30 4212 H 371.546 5.98009 0.500552 0
M  V30 4213 H 372.616 4.83763 -0.331856 0
M  V30 4214 N 373.959 -0.0401083 1.57549 0
M  V30 4215 C 374.889 -1.04384 2.08869 0
M  V30 4216 C 375.87 -1.38407 0.988817 0
M  V30 4217 O 377.055 -1.47483 1.26342 0
M  V30 4218 C 374.185 -2.34808 2.55895 0
M  V30 4219 C 373.139 -2.15057 3.70047 0
M  V30 4220 C 372.465 -3.51145 4.03239 0
M  V30 4221 C 373.765 -1.54576 4.98902 0
M  V30 4222 H 375.459 -0.616666 2.92981 0
M  V30 4223 H 373.005 -0.295184 1.40942 0
M  V30 4224 H 374.958 -3.05346 2.90417 0
M  V30 4225 H 373.682 -2.79565 1.68853 0
M  V30 4226 H 372.341 -1.46954 3.35857 0
M  V30 4227 H 371.989 -3.93529 3.13279 0
M  V30 4228 H 371.689 -3.38758 4.80122 0
M  V30 4229 H 373.213 -4.23062 4.40285 0
M  V30 4230 H 374.627 -2.15017 5.31451 0
M  V30 4231 H 373.024 -1.52796 5.80322 0
M  V30 4232 H 374.094 -0.51039 4.82206 0
M  V30 4233 N 375.437 -1.54477 -0.31217 0
M  V30 4234 C 376.714 -1.63891 -1.06767 0
M  V30 4235 C 377.094 -0.480028 -2.0557 0
M  V30 4236 O 376.442 0.524487 -2.22399 0
M  V30 4237 C 376.652 -3.01402 -1.75948 0
M  V30 4238 C 378 -3.57838 -2.28554 0
M  V30 4239 O 379.024 -3.03782 -1.85998 0
M  V30 4240 O 377.883 -4.52462 -3.06497 0
M  V30 4241 H 374.977 -0.664125 -0.492816 0
M  V30 4242 H 377.523 -1.66823 -0.311149 0
M  V30 4243 H 376.295 -3.77187 -1.04144 0
M  V30 4244 H 375.918 -3.02199 -2.58383 0
M  V30 4245 N 376.915 0.57481 -1.46744 0
M  V30 4246 C 378.143 1.35856 -1.56047 0
M  V30 4247 C 378.558 1.87691 -0.204365 0
M  V30 4248 O 377.915 1.64049 0.79963 0
M  V30 4249 C 377.966 2.54066 -2.57163 0
M  V30 4250 O 377.687 2.04377 -3.87507 0
M  V30 4251 C 379.188 3.46514 -2.76483 0
M  V30 4252 H 376.408 0.414754 -0.527466 0
M  V30 4253 H 378.952 0.698035 -1.92218 0
M  V30 4254 H 377.107 3.16092 -2.23974 0
M  V30 4255 H 377.521 2.81419 -4.4261 0
M  V30 4256 H 378.995 4.25919 -3.51137 0
M  V30 4257 H 379.472 3.98951 -1.83671 0
M  V30 4258 H 380.078 2.90318 -3.10799 0
M  V30 4259 N 378.394 1.34581 0.820102 0
M  V30 4260 C 379.642 1.26845 1.57336 0
M  V30 4261 C 379.963 -0.160667 1.94337 0
M  V30 4262 O 379.233 -1.09396 1.6251 0
M  V30 4263 H 377.813 0.466514 0.583415 0
M  V30 4264 H 380.475 1.68526 0.979027 0
M  V30 4265 H 379.571 1.87513 2.4949 0
M  V30 4266 N 379.872 -1.04064 1.18357 0
M  V30 4267 C 380.819 -2.12077 0.910603 0
M  V30 4268 C 381.789 -1.65421 -0.15 0
M  V30 4269 O 382.974 -1.90797 -0.0103614 0
M  V30 4270 C 380.114 -3.42252 0.442472 0
M  V30 4271 C 379.227 -4.0252 1.5685 0
M  V30 4272 C 378.362 -5.20657 1.05309 0
M  V30 4273 C 377.401 -5.72955 2.1538 0
M  V30 4274 N 376.538 -6.8238 1.65233 0
M  V30 4275 H 381.378 -2.34764 1.83548 0
M  V30 4276 H 378.915 -1.15157 0.915279 0
M  V30 4277 H 380.873 -4.16921 0.152534 0
M  V30 4278 H 379.503 -3.19712 -0.445428 0
M  V30 4279 H 378.555 -3.25178 1.97391 0
M  V30 4280 H 379.867 -4.37362 2.39824 0
M  V30 4281 H 379.021 -6.0244 0.717677 0
M  V30 4282 H 377.76 -4.87318 0.19293 0
M  V30 4283 H 376.765 -4.89793 2.49766 0
M  V30 4284 H 377.99 -6.08337 3.01832 0
M  V30 4285 H 375.936 -6.50917 0.815064 0
M  V30 4286 H 375.853 -7.16286 2.41805 0
M  V30 4287 H 377.121 -7.67788 1.34619 0
M  V30 4288 N 381.35 -0.985608 -1.22978 0
M  V30 4289 C 382.26 -0.538548 -2.28335 0
M  V30 4290 C 383.276 0.409163 -1.69121 0
M  V30 4291 O 384.452 0.277797 -1.99475 0
M  V30 4292 C 381.517 0.146867 -3.46389 0
M  V30 4293 C 380.578 -0.842896 -4.20944 0
M  V30 4294 C 379.811 -0.190095 -5.33361 0
M  V30 4295 O 380.034 1.01767 -5.61248 0
M  V30 4296 O 378.968 -0.891289 -5.95264 0
M  V30 4297 H 382.794 -1.41487 -2.68729 0
M  V30 4298 H 380.379 -0.753495 -1.29007 0
M  V30 4299 H 382.261 0.531125 -4.1804 0
M  V30 4300 H 380.936 0.997871 -3.07935 0
M  V30 4301 H 379.843 -1.27795 -3.51595 0
M  V30 4302 H 381.176 -1.66287 -4.6326 0
M  V30 4303 N 382.828 1.3818 -0.7579 0
M  V30 4304 C 384.076 1.99624 -0.315361 0
M  V30 4305 C 384.397 1.60464 1.10799 0
M  V30 4306 O 383.667 0.863507 1.75842 0
M  V30 4307 H 382.247 0.73831 -0.113611 0
M  V30 4308 H 384.909 1.68878 -0.972952 0
M  V30 4309 H 384.005 3.09754 -0.381931 0
M  V30 4310 N 384.306 0.507319 1.49211 0
M  V30 4311 C 385.269 -0.256763 2.27757 0
M  V30 4312 C 386.269 -0.888287 1.34038 0
M  V30 4313 O 387.459 -0.751841 1.5714 0
M  V30 4314 C 384.591 -1.36905 3.12202 0
M  V30 4315 H 385.784 0.432557 2.96764 0
M  V30 4316 H 383.337 0.262488 1.5408 0
M  V30 4317 H 384.072 -2.09233 2.47775 0
M  V30 4318 H 383.857 -0.921599 3.81115 0
M  V30 4319 H 385.347 -1.9071 3.7151 0
M  V30 4320 N 385.784 -1.5574 0.241426 0
M  V30 4321 C 387.031 -1.9881 -0.384836 0
M  V30 4322 C 387.359 -1.12947 -1.58346 0
M  V30 4323 O 386.614 -0.178993 -1.9488 0
M  V30 4324 C 386.913 -3.47308 -0.843317 0
M  V30 4325 C 386.579 -4.50223 0.246946 0
M  V30 4326 C 385.241 -4.78088 0.546399 0
M  V30 4327 C 387.593 -5.11841 0.983282 0
M  V30 4328 C 384.921 -5.64846 1.58636 0
M  V30 4329 C 387.273 -5.99727 2.01272 0
M  V30 4330 C 385.937 -6.25927 2.31888 0
M  V30 4331 H 385.207 -0.727496 -0.140821 0
M  V30 4332 H 387.854 -1.8831 0.348106 0
M  V30 4333 H 386.159 -3.55112 -1.65537 0
M  V30 4334 H 387.856 -3.78017 -1.33806 0
M  V30 4335 H 384.446 -4.286 0.00340639 0
M  V30 4336 H 388.63 -4.90366 0.765182 0
M  V30 4337 H 383.886 -5.83403 1.82896 0
M  V30 4338 H 388.06 -6.46517 2.58823 0
M  V30 4339 H 385.687 -6.92949 3.12611 0
M  V30 4340 N 387.262 0.0317525 -1.57568 0
M  V30 4341 C 388.195 1.06621 -2.0176 0
M  V30 4342 C 389.173 1.35323 -0.901462 0
M  V30 4343 O 390.357 1.48025 -1.16708 0
M  V30 4344 C 387.484 2.40155 -2.38837 0
M  V30 4345 C 386.53 2.27327 -3.60867 0
M  V30 4346 S 387.363 1.62925 -5.10113 0
M  V30 4347 C 388.519 2.97955 -5.5043 0
M  V30 4348 H 388.752 0.689781 -2.89187 0
M  V30 4349 H 386.285 0.24164 -1.52497 0
M  V30 4350 H 388.243 3.1695 -2.6087 0
M  V30 4351 H 386.904 2.74946 -1.51867 0
M  V30 4352 H 386.097 3.25898 -3.84456 0
M  V30 4353 H 385.699 1.58675 -3.38671 0
M  V30 4354 H 387.991 3.94285 -5.5095 0
M  V30 4355 H 388.934 2.79102 -6.50775 0
M  V30 4356 H 389.342 3.00404 -4.77931 0
M  V30 4357 N 388.74 1.54641 0.303973 0
M  V30 4358 C 389.986 1.74038 1.04109 0
M  V30 4359 C 390.319 0.523051 1.87024 0
M  V30 4360 O 389.594 -0.479874 1.88487 0
M  V30 4361 C 389.877 3.02761 1.94955 0
M  V30 4362 C 389.73 4.34787 1.1524 0
M  V30 4363 C 391.049 3.27336 2.94175 0
M  V30 4364 H 388.168 0.63323 0.377079 0
M  V30 4365 H 390.81 1.87354 0.316001 0
M  V30 4366 H 388.96 2.9154 2.56782 0
M  V30 4367 H 390.632 4.57922 0.557236 0
M  V30 4368 H 388.875 4.31407 0.455053 0
M  V30 4369 H 389.546 5.21116 1.8205 0
M  V30 4370 H 392.022 3.38148 2.42477 0
M  V30 4371 H 390.898 4.18726 3.54908 0
M  V30 4372 H 391.159 2.45491 3.67677 0
M  V30 4373 N 390.218 -0.567019 1.47046 0
M  V30 4374 C 391.634 -0.891975 1.32348 0
M  V30 4375 C 391.834 -1.99154 0.306616 0
M  V30 4376 O 390.89 -2.50883 -0.28532 0
M  V30 4377 C 392.203 -1.29449 2.7141 0
M  V30 4378 C 393.751 -1.40646 2.79621 0
M  V30 4379 C 394.226 -1.84257 4.19301 0
M  V30 4380 N 395.717 -1.91424 4.21795 0
M  V30 4381 C 396.452 -2.26476 5.26779 0
M  V30 4382 N 395.948 -2.60211 6.42077 0
M  V30 4383 N 397.741 -2.27166 5.14152 0
M  V30 4384 H 389.892 0.159074 2.11803 0
M  V30 4385 H 392.155 0.00849752 0.947962 0
M  V30 4386 H 391.861 -0.560448 3.47206 0
M  V30 4387 H 391.735 -2.25273 3.02542 0
M  V30 4388 H 394.122 -2.13133 2.04104 0
M  V30 4389 H 394.203 -0.430339 2.52154 0
M  V30 4390 H 393.847 -1.12343 4.95319 0
M  V30 4391 H 393.777 -2.82855 4.44185 0
M  V30 4392 H 396.268 -1.6778 3.38612 0
M  V30 4393 H 396.581 -2.85956 7.17948 0
M  V30 4394 H 394.926 -2.57813 6.45413 0
M  V30 4395 H 398.117 -2.00244 4.23107 0
M  V30 4396 H 398.29 -2.54154 5.96079 0
M  V30 4397 N 391.696 -1.35014 -0.812953 0
M  V30 4398 C 392.973 -1.18502 -1.55617 0
M  V30 4399 C 393.353 0.238421 -2.09749 0
M  V30 4400 O 392.701 1.2411 -1.91857 0
M  V30 4401 C 392.911 -2.24783 -2.66971 0
M  V30 4402 C 394.259 -2.60268 -3.35478 0
M  V30 4403 O 395.283 -2.23648 -2.77236 0
M  V30 4404 O 394.142 -3.2321 -4.40678 0
M  V30 4405 H 391.236 -0.459984 -0.687272 0
M  V30 4406 H 393.782 -1.46677 -0.853464 0
M  V30 4407 H 392.554 -3.20284 -2.24798 0
M  V30 4408 H 392.177 -1.97841 -3.44884 0
M  V30 4409 N 393.175 1.03435 -1.18907 0
M  V30 4410 C 394.4 1.80919 -1.01406 0
M  V30 4411 C 394.825 1.83055 0.432721 0
M  V30 4412 O 394.183 1.25252 1.31079 0
M  V30 4413 C 394.231 3.24091 -1.58105 0
M  V30 4414 O 393.335 4.04434 -0.806669 0
M  V30 4415 H 392.676 0.558709 -0.358803 0
M  V30 4416 H 395.206 1.30223 -1.57807 0
M  V30 4417 H 395.216 3.74853 -1.61087 0
M  V30 4418 H 393.891 3.21851 -2.6341 0
M  V30 4419 H 392.468 3.63091 -0.849666 0
M  V30 4420 N 394.653 0.992116 1.22453 0
M  V30 4421 C 396.069 0.702713 1.43297 0
M  V30 4422 C 396.269 -0.726909 1.87932 0
M  V30 4423 O 395.325 -1.49792 2.0327 0
M  V30 4424 C 396.638 1.70762 2.47509 0
M  V30 4425 C 398.186 1.72298 2.61309 0
M  V30 4426 C 398.661 2.71649 3.68742 0
M  V30 4427 N 400.152 2.70239 3.76199 0
M  V30 4428 C 400.887 3.43778 4.58917 0
M  V30 4429 N 400.383 4.26914 5.45633 0
M  V30 4430 N 402.176 3.32487 4.5322 0
M  V30 4431 H 394.327 1.91543 0.917871 0
M  V30 4432 H 396.59 0.826031 0.465162 0
M  V30 4433 H 396.296 2.73059 2.21657 0
M  V30 4434 H 396.17 1.49985 3.46099 0
M  V30 4435 H 398.557 0.706989 2.86506 0
M  V30 4436 H 398.638 1.97143 1.62997 0
M  V30 4437 H 398.282 3.73397 3.44292 0
M  V30 4438 H 398.212 2.44074 4.66622 0
M  V30 4439 H 400.703 2.09912 3.14237 0
M  V30 4440 H 401.016 4.79855 6.05771 0
M  V30 4441 H 399.361 4.31002 5.45218 0
M  V30 4442 H 402.552 2.6698 3.84499 0
M  V30 4443 H 402.725 3.90058 5.17454 0
M  V30 4444 N 396.131 -1.37776 0.765217 0
M  V30 4445 C 397.359 -2.04124 0.337767 0
M  V30 4446 C 397.774 -1.57715 -1.03785 0
M  V30 4447 O 397.131 -0.755447 -1.6613 0
M  V30 4448 C 397.182 -3.59658 0.364442 0
M  V30 4449 O 396.903 -4.04367 1.68579 0
M  V30 4450 C 398.404 -4.43236 -0.0754221 0
M  V30 4451 H 395.624 -0.655696 0.142491 0
M  V30 4452 H 398.168 -1.76238 1.03732 0
M  V30 4453 H 396.323 -3.86339 -0.286471 0
M  V30 4454 H 396.737 -4.98857 1.61993 0
M  V30 4455 H 398.211 -5.52 -0.00560067 0
M  V30 4456 H 398.688 -4.2455 -1.12491 0
M  V30 4457 H 399.294 -4.21767 0.547055 0
M  V30 4458 N 397.609 -0.515225 -1.4894 0
M  V30 4459 C 398.572 0.244681 -2.2789 0
M  V30 4460 C 399.572 0.881166 -1.34507 0
M  V30 4461 O 400.762 0.743497 -1.57537 0
M  V30 4462 C 397.894 1.35247 -3.12923 0
M  V30 4463 H 399.087 -0.448289 -2.96531 0
M  V30 4464 H 396.64 -0.270656 -1.53939 0
M  V30 4465 H 397.375 2.07916 -2.48881 0
M  V30 4466 H 397.16 0.901374 -3.81599 0
M  V30 4467 H 398.65 1.88737 -3.72516 0
M  V30 4468 N 399.087 1.5561 -0.249682 0
M  V30 4469 C 400.335 1.98618 0.373548 0
M  V30 4470 C 400.656 1.13919 1.58264 0
M  V30 4471 O 399.926 0.222637 1.94631 0
M  V30 4472 H 398.506 0.733571 0.141006 0
M  V30 4473 H 401.168 1.91748 -0.349117 0
M  V30 4474 H 400.264 3.04584 0.680796 0
M  V30 4475 N 400.565 -0.0233959 1.57583 0
M  V30 4476 C 401.793 -0.724682 1.93794 0
M  V30 4477 C 402.208 -1.68588 0.849912 0
M  V30 4478 O 401.565 -1.81676 -0.173204 0
M  V30 4479 C 401.616 -1.47684 3.29957 0
M  V30 4480 O 401.337 -0.554222 4.3458 0
M  V30 4481 C 402.838 -2.27477 3.80485 0
M  V30 4482 H 400.058 -0.203317 0.639455 0
M  V30 4483 H 402.602 0.0207653 2.04489 0
M  V30 4484 H 400.757 -2.17412 3.20641 0
M  V30 4485 H 401.171 -1.08232 5.13212 0
M  V30 4486 H 402.645 -2.7564 4.78254 0
M  V30 4487 H 403.122 -3.09144 3.11972 0
M  V30 4488 H 403.728 -1.62813 3.92902 0
M  V30 4489 N 402.043 -1.548 -0.295768 0
M  V30 4490 C 403.273 -1.78069 -1.04762 0
M  V30 4491 C 403.681 -0.542847 -1.81245 0
M  V30 4492 O 403.024 0.497051 -1.76848 0
M  V30 4493 C 403.086 -2.93881 -2.07061 0
M  V30 4494 C 402.75 -4.31777 -1.49725 0
M  V30 4495 C 403.747 -5.11613 -0.924581 0
M  V30 4496 C 401.432 -4.78389 -1.5313 0
M  V30 4497 C 403.426 -6.36184 -0.393594 0
M  V30 4498 C 401.113 -6.02921 -0.996447 0
M  V30 4499 C 402.111 -6.81654 -0.428569 0
M  V30 4500 O 401.799 -8.0384 0.0981593 0
M  V30 4501 H 401.531 -0.597475 -0.316226 0
M  V30 4502 H 404.085 -2.02584 -0.338973 0
M  V30 4503 H 402.315 -2.65003 -2.81621 0
M  V30 4504 H 404.004 -3.04679 -2.6819 0
M  V30 4505 H 404.77 -4.76743 -0.891136 0
M  V30 4506 H 400.649 -4.17132 -1.9627 0
M  V30 4507 H 404.193 -6.97582 0.0503014 0
M  V30 4508 H 400.09 -6.37277 -1.02706 0
M  V30 4509 H 400.858 -8.18499 -0.0146455 0
M  V30 4510 N 403.521 0.559213 -1.47345 0
M  V30 4511 C 404.749 1.34194 -1.57479 0
M  V30 4512 C 405.164 1.87463 -0.224261 0
M  V30 4513 O 404.521 1.64888 0.782185 0
M  V30 4514 C 404.572 2.51324 -2.59843 0
M  V30 4515 O 404.293 2.00256 -3.89653 0
M  V30 4516 C 405.794 3.43563 -2.80142 0
M  V30 4517 H 403.014 0.409136 -0.531835 0
M  V30 4518 H 405.558 0.677609 -1.92947 0
M  V30 4519 H 403.713 3.13699 -2.27314 0
M  V30 4520 H 404.127 2.76708 -4.4557 0
M  V30 4521 H 405.601 4.2217 -3.55635 0
M  V30 4522 H 406.078 3.9698 -1.87892 0
M  V30 4523 H 406.684 2.87005 -3.1386 0
M  V30 4524 N 404.999 1.35443 0.805782 0
M  V30 4525 C 406.245 1.28952 1.56522 0
M  V30 4526 C 406.578 -0.135597 1.93726 0
M  V30 4527 O 405.853 -1.08516 1.61414 0
M  V30 4528 C 406.136 2.19678 2.85331 0
M  V30 4529 C 405.989 3.7081 2.54598 0
M  V30 4530 C 407.308 2.09495 3.8704 0
M  V30 4531 H 404.427 0.469764 0.567883 0
M  V30 4532 H 407.069 1.65851 0.927001 0
M  V30 4533 H 405.219 1.8834 3.39795 0
M  V30 4534 H 406.891 4.12593 2.06312 0
M  V30 4535 H 405.134 3.91051 1.8778 0
M  V30 4536 H 405.805 4.29679 3.46525 0
M  V30 4537 H 408.281 2.37045 3.41978 0
M  V30 4538 H 407.157 2.75173 4.74943 0
M  V30 4539 H 407.418 1.07714 4.28777 0
M  V30 4540 N 406.477 -1.02803 1.19454 0
M  V30 4541 C 407.702 -1.80378 1.02364 0
M  V30 4542 C 408.127 -1.83282 -0.423007 0
M  V30 4543 O 407.485 -1.25945 -1.30413 0
M  V30 4544 C 407.533 -3.23248 1.59821 0
M  V30 4545 O 406.637 -4.04 0.828105 0
M  V30 4546 H 405.978 -0.556799 0.361761 0
M  V30 4547 H 408.508 -1.29385 1.58495 0
M  V30 4548 H 408.518 -3.73994 1.63073 0
M  V30 4549 H 407.193 -3.2045 2.65113 0
M  V30 4550 H 405.77 -3.62635 0.86891 0
M  V30 4551 N 407.956 -0.998596 -1.21925 0
M  V30 4552 C 409.202 -0.678667 -1.91107 0
M  V30 4553 C 409.535 0.78791 -1.77498 0
M  V30 4554 O 408.81 1.57043 -1.1475 0
M  V30 4555 C 409.093 -1.09245 -3.43129 0
M  V30 4556 C 408.946 -2.61801 -3.6576 0
M  V30 4557 C 410.265 -0.649984 -4.35274 0
M  V30 4558 H 407.384 -0.248025 -0.694012 0
M  V30 4559 H 410.026 -1.24314 -1.43688 0
M  V30 4560 H 408.176 -0.612171 -3.83647 0
M  V30 4561 H 409.848 -3.17543 -3.34611 0
M  V30 4562 H 408.091 -3.03609 -3.09845 0
M  V30 4563 H 408.762 -2.85804 -4.7225 0
M  V30 4564 H 411.238 -1.0626 -4.02303 0
M  V30 4565 H 410.114 -0.967743 -5.40302 0
M  V30 4566 H 410.375 0.449139 -4.39813 0
M  V30 4567 N 409.434 1.37368 -0.772513 0
M  V30 4568 C 410.681 1.99673 -0.337182 0
M  V30 4569 C 411.009 1.61324 1.0865 0
M  V30 4570 O 410.264 0.851377 1.7621 0
M  V30 4571 C 410.563 3.54817 -0.428876 0
M  V30 4572 C 410.229 4.12936 -1.81092 0
M  V30 4573 C 408.891 4.28523 -2.1891 0
M  V30 4574 C 411.243 4.44801 -2.71664 0
M  V30 4575 C 408.571 4.73277 -3.46735 0
M  V30 4576 C 410.923 4.90981 -3.98899 0
M  V30 4577 C 409.587 5.04773 -4.36761 0
M  V30 4578 H 408.857 0.730656 -0.123384 0
M  V30 4579 H 411.504 1.64124 -0.986686 0
M  V30 4580 H 409.809 3.90618 0.304167 0
M  V30 4581 H 411.506 4.00933 -0.0733334 0
M  V30 4582 H 408.096 4.01233 -1.50699 0
M  V30 4583 H 412.28 4.32344 -2.43706 0
M  V30 4584 H 407.536 4.82142 -3.75964 0
M  V30 4585 H 411.71 5.14603 -4.69208 0
M  V30 4586 H 409.337 5.39211 -5.35868 0
M  V30 4587 N 410.912 0.523116 1.48665 0
M  V30 4588 C 412.14 -0.0096312 2.06898 0
M  V30 4589 C 412.555 -1.28784 1.38059 0
M  V30 4590 O 411.912 -1.76453 0.465893 0
M  V30 4591 C 411.963 -0.244386 3.60673 0
M  V30 4592 O 411.684 0.983172 4.26925 0
M  V30 4593 C 413.185 -0.818289 4.35682 0
M  V30 4594 H 410.405 0.0304161 0.67031 0
M  V30 4595 H 412.949 0.726799 1.91149 0
M  V30 4596 H 411.104 -0.930847 3.76051 0
M  V30 4597 H 411.518 0.759653 5.1897 0
M  V30 4598 H 412.992 -0.93201 5.44075 0
M  V30 4599 H 413.469 -1.82153 3.99646 0
M  V30 4600 H 414.075 -0.168609 4.24966 0
M  V30 4601 N 412.39 -1.55475 0.257931 0
M  V30 4602 C 413.337 -2.21837 -0.636939 0
M  V30 4603 C 414.307 -1.18596 -1.16294 0
M  V30 4604 O 415.492 -1.47081 -1.21539 0
M  V30 4605 C 412.632 -2.9301 -1.82317 0
M  V30 4606 C 411.745 -4.10931 -1.33265 0
M  V30 4607 C 410.88 -4.69791 -2.47931 0
M  V30 4608 C 409.919 -5.7994 -1.95796 0
M  V30 4609 N 409.056 -6.32935 -3.0387 0
M  V30 4610 H 413.896 -2.9793 -0.0643591 0
M  V30 4611 H 411.433 -1.47086 -0.0200031 0
M  V30 4612 H 413.391 -3.3248 -2.52018 0
M  V30 4613 H 412.021 -2.1937 -2.36805 0
M  V30 4614 H 411.073 -3.76699 -0.52931 0
M  V30 4615 H 412.385 -4.90417 -0.910654 0
M  V30 4616 H 411.539 -5.11892 -3.25656 0
M  V30 4617 H 410.278 -3.89545 -2.93438 0
M  V30 4618 H 409.283 -5.37305 -1.16546 0
M  V30 4619 H 410.508 -6.62043 -1.51246 0
M  V30 4620 H 408.454 -5.55591 -3.48791 0
M  V30 4621 H 408.371 -7.07645 -2.66035 0
M  V30 4622 H 409.639 -6.79695 -3.81621 0
M  V30 4623 N 413.868 0.0150385 -1.57593 0
M  V30 4624 C 414.831 0.995996 -2.06428 0
M  V30 4625 C 415.831 1.2818 -0.970903 0
M  V30 4626 O 417.021 1.22949 -1.23406 0
M  V30 4627 C 414.153 2.32506 -2.49307 0
M  V30 4628 H 415.346 0.573873 -2.94358 0
M  V30 4629 H 412.899 0.262186 -1.54085 0
M  V30 4630 H 413.634 2.79438 -1.64575 0
M  V30 4631 H 413.419 2.13087 -3.29145 0
M  V30 4632 H 414.909 3.02906 -2.87468 0
M  V30 4633 N 415.346 1.54954 0.287554 0
M  V30 4634 C 416.592 1.75132 1.02257 0
M  V30 4635 C 416.925 0.542858 1.86458 0
M  V30 4636 O 416.2 -0.459856 1.88986 0
M  V30 4637 C 416.483 3.04812 1.91733 0
M  V30 4638 C 416.336 4.35985 1.10622 0
M  V30 4639 C 417.655 3.30438 2.90687 0
M  V30 4640 H 414.774 0.637194 0.370341 0
M  V30 4641 H 417.416 1.87678 0.296111 0
M  V30 4642 H 415.566 2.94247 2.53675 0
M  V30 4643 H 417.238 4.58487 0.508636 0
M  V30 4644 H 415.481 4.31865 0.409271 0
M  V30 4645 H 416.152 5.23017 1.76513 0
M  V30 4646 H 418.628 3.40701 2.38877 0
M  V30 4647 H 417.504 4.22467 3.50447 0
M  V30 4648 H 417.765 2.49377 3.65053 0
M  V30 4649 N 416.824 -0.551391 1.4764 0
M  V30 4650 C 418.07 -1.31024 1.54792 0
M  V30 4651 C 418.403 -1.9304 0.211967 0
M  V30 4652 O 417.678 -1.78175 -0.77999 0
M  V30 4653 C 417.961 -2.41593 2.67029 0
M  V30 4654 C 417.814 -1.84408 4.10261 0
M  V30 4655 C 419.133 -3.43488 2.75143 0
M  V30 4656 H 416.252 -0.475031 0.563485 0
M  V30 4657 H 418.894 -0.616454 1.79722 0
M  V30 4658 H 417.044 -3.00772 2.45904 0
M  V30 4659 H 418.716 -1.29445 4.42766 0
M  V30 4660 H 416.959 -1.15051 4.18265 0
M  V30 4661 H 417.63 -2.64367 4.84576 0
M  V30 4662 H 420.106 -2.94236 2.94218 0
M  V30 4663 H 418.982 -4.18274 3.55441 0
M  V30 4664 H 419.243 -4.02703 1.82435 0
M  V30 4665 N 418.302 -1.35869 -0.798587 0
M  V30 4666 C 419.527 -1.32883 -1.59238 0
M  V30 4667 C 419.952 0.0894587 -1.87887 0
M  V30 4668 O 419.31 1.05869 -1.47178 0
M  V30 4669 C 419.358 -2.14892 -2.89575 0
M  V30 4670 O 418.462 -1.53512 -3.82763 0
M  V30 4671 H 417.803 -0.455236 -0.48338 0
M  V30 4672 H 420.333 -1.79024 -0.990539 0
M  V30 4673 H 420.343 -2.27139 -3.38928 0
M  V30 4674 H 419.018 -3.17998 -2.68049 0
M  V30 4675 H 417.595 -1.50153 -3.41334 0
M  V30 4676 N 419.78 1.02168 -1.19998 0
M  V30 4677 C 420.69 2.14069 -0.959774 0
M  V30 4678 C 421.706 1.73804 0.082655 0
M  V30 4679 O 422.882 2.01133 -0.103633 0
M  V30 4680 C 419.947 3.42936 -0.509459 0
M  V30 4681 C 419.008 3.97474 -1.62213 0
M  V30 4682 C 418.241 5.2019 -1.19321 0
M  V30 4683 O 418.464 5.70369 -0.0597726 0
M  V30 4684 O 417.398 5.67749 -1.99863 0
M  V30 4685 H 421.224 2.37199 -1.89658 0
M  V30 4686 H 418.809 1.12469 -0.983411 0
M  V30 4687 H 420.691 4.20551 -0.267322 0
M  V30 4688 H 419.366 3.21234 0.398821 0
M  V30 4689 H 418.273 3.21161 -1.9185 0
M  V30 4690 H 419.606 4.23555 -2.50723 0
M  V30 4691 N 421.258 1.00505 1.21394 0
M  V30 4692 C 422.206 0.558623 2.25792 0
M  V30 4693 C 423.2 -0.396848 1.64686 0
M  V30 4694 O 424.406 -0.268035 1.77993 0
M  V30 4695 H 420.781 0.1623 0.734277 0
M  V30 4696 H 422.752 1.4503 2.60785 0
M  V30 4697 C 421.501 -0.0989574 3.47559 0
M  V30 4698 H 420.824 0.627225 3.94849 0
M  V30 4699 H 422.264 -0.3746 4.22342 0
M  V30 4700 C 420.723 -1.33817 3.09184 0
M  V30 4701 O 421.253 -2.43252 3.19674 0
M  V30 4702 N 419.459 -1.21793 2.63846 0
M  V30 4703 H 419.006 -0.32746 2.5551 0
M  V30 4704 H 418.964 -2.04809 2.38539 0
M  V30 4705 N 422.737 -1.36956 0.779787 0
M  V30 4706 C 423.685 -2.32053 0.15942 0
M  V30 4707 C 424.679 -1.55333 -0.675878 0
M  V30 4708 O 425.885 -1.70668 -0.57204 0
M  V30 4709 H 422.26 -0.751286 0.0327707 0
M  V30 4710 H 424.231 -2.8195 0.977078 0
M  V30 4711 C 422.98 -3.40602 -0.698977 0
M  V30 4712 H 422.303 -3.99746 -0.0655966 0
M  V30 4713 H 423.743 -4.09486 -1.09989 0
M  V30 4714 C 422.202 -2.81359 -1.85307 0
M  V30 4715 O 422.732 -2.72751 -2.94906 0
M  V30 4716 N 420.938 -2.38786 -1.65619 0
M  V30 4717 H 420.485 -2.45987 -0.764725 0
M  V30 4718 H 420.443 -1.99493 -2.43002 0
M  V30 4719 N 424.215 -0.530993 -1.48385 0
M  V30 4720 C 425.626 -0.0907905 -1.86479 0
M  V30 4721 C 425.977 1.33213 -1.44044 0
M  V30 4722 O 425.102 1.99783 -0.831615 0
M  V30 4723 C 425.697 -0.157987 -3.38431 0
M  V30 4724 C 424.256 0.227026 -3.75715 0
M  V30 4725 C 423.403 -0.5173 -2.72432 0
M  V30 4726 H 426.354 -0.742186 -1.40276 0
M  V30 4727 H 426.375 0.630053 -3.75247 0
M  V30 4728 H 425.887 -1.19372 -3.69286 0
M  V30 4729 H 423.988 1.26486 -3.50474 0
M  V30 4730 H 424.101 -0.113288 -4.78966 0
M  V30 4731 H 422.465 0.0365527 -2.54674 0
M  V30 4732 H 423.248 -1.55368 -3.0613 0
M  V30 4733 N 425.693 1.55336 -0.266172 0
M  V30 4734 C 426.933 2.01303 0.354459 0
M  V30 4735 C 427.297 1.15046 1.53715 0
M  V30 4736 O 428.498 1.50554 2.22681 0
M  V30 4737 C 426.769 3.49748 0.735579 0
M  V30 4738 S 428.328 4.1771 1.34401 0
M  V30 4739 H 425.146 0.702333 0.110674 0
M  V30 4740 H 427.748 1.91653 -0.385916 0
M  V30 4741 H 426.452 4.10181 -0.134196 0
M  V30 4742 H 425.983 3.63364 1.50764 0
M  V30 4743 H 427.998 4.20594 2.63278 0
M  V30 4744 N 427.171 -0.0066808 1.57599 0
M  V30 4745 C 428.42 -0.692078 1.89455 0
M  V30 4746 C 428.733 -1.75306 0.867586 0
M  V30 4747 O 429.939 -2.49262 1.07614 0
M  V30 4748 C 428.395 -1.2821 3.36289 0
M  V30 4749 C 428.003 -0.256291 4.47266 0
M  V30 4750 C 429.747 -1.94608 3.77264 0
M  V30 4751 C 427.654 -0.855927 5.85173 0
M  V30 4752 H 426.584 -0.262252 0.706923 0
M  V30 4753 H 429.235 0.052769 1.83424 0
M  V30 4754 H 427.617 -2.0774 3.37135 0
M  V30 4755 H 428.791 0.513923 4.57925 0
M  V30 4756 H 427.106 0.306862 4.15268 0
M  V30 4757 H 429.703 -2.40364 4.77629 0
M  V30 4758 H 430.046 -2.77382 3.10427 0
M  V30 4759 H 430.579 -1.21822 3.78688 0
M  V30 4760 H 427.318 -0.0671161 6.55466 0
M  V30 4761 H 426.838 -1.59546 5.78191 0
M  V30 4762 H 428.517 -1.35658 6.32618 0
M  V30 4763 N 428.649 -1.55105 -0.279332 0
M  V30 4764 C 429.596 -1.8755 -1.34513 0
M  V30 4765 C 430.566 -0.726384 -1.49375 0
M  V30 4766 O 431.751 -0.977063 -1.63884 0
M  V30 4767 C 428.891 -2.14738 -2.70151 0
M  V30 4768 C 428.004 -3.42285 -2.63562 0
M  V30 4769 C 427.139 -3.59206 -3.91337 0
M  V30 4770 C 426.178 -4.80467 -3.79233 0
M  V30 4771 N 425.315 -4.94079 -4.98829 0
M  V30 4772 H 430.155 -2.78456 -1.06143 0
M  V30 4773 H 427.692 -1.37867 -0.512936 0
M  V30 4774 H 429.65 -2.28501 -3.49061 0
M  V30 4775 H 428.28 -1.27075 -2.96735 0
M  V30 4776 H 427.332 -3.37029 -1.76397 0
M  V30 4777 H 428.644 -4.31328 -2.50515 0
M  V30 4778 H 427.798 -3.72751 -4.78687 0
M  V30 4779 H 426.537 -2.68337 -4.07243 0
M  V30 4780 H 425.542 -4.66932 -2.90266 0
M  V30 4781 H 426.767 -5.72765 -3.64852 0
M  V30 4782 H 424.713 -4.06139 -5.15158 0
M  V30 4783 H 424.63 -5.77156 -4.8829 0
M  V30 4784 H 425.898 -5.12003 -5.8777 0
M  V30 4785 N 430.127 0.543554 -1.4793 0
M  V30 4786 C 431.077 1.64527 -1.57844 0
M  V30 4787 C 432.061 1.54869 -0.436408 0
M  V30 4788 O 433.253 1.63119 -0.687101 0
M  V30 4789 C 430.382 3.03281 -1.6086 0
M  V30 4790 C 429.468 3.18093 -2.80495 0
M  V30 4791 N 429.859 3.02923 -4.05057 0
M  V30 4792 C 428.157 3.49121 -2.77543 0
M  V30 4793 C 428.858 3.20791 -4.85251 0
M  V30 4794 N 427.834 3.47749 -4.17818 0
M  V30 4795 H 431.636 1.51388 -2.5191 0
M  V30 4796 H 429.15 0.748671 -1.44113 0
M  V30 4797 H 431.147 3.82403 -1.66054 0
M  V30 4798 H 429.807 3.17521 -0.678996 0
M  V30 4799 H 430.818 2.79966 -4.35705 0
M  V30 4800 H 427.495 3.69804 -1.93781 0
M  V30 4801 H 428.885 3.13915 -5.9406 0
M  V30 4802 N 431.605 1.3629 0.791371 0
M  V30 4803 C 432.835 1.33368 1.57786 0
M  V30 4804 C 433.243 -0.0875188 1.88997 0
M  V30 4805 O 432.586 -1.05427 1.50435 0
M  V30 4806 C 432.648 2.08802 2.92646 0
M  V30 4807 C 432.312 3.57903 2.84174 0
M  V30 4808 C 433.309 4.52191 2.56553 0
M  V30 4809 C 430.994 4.00762 3.02812 0
M  V30 4810 C 432.988 5.87315 2.47669 0
M  V30 4811 C 430.675 5.35977 2.93551 0
M  V30 4812 C 431.673 6.29066 2.66017 0
M  V30 4813 O 431.361 7.61798 2.56746 0
M  V30 4814 H 431.093 0.459166 0.496128 0
M  V30 4815 H 433.647 1.79952 0.990269 0
M  V30 4816 H 431.877 1.56878 3.53449 0
M  V30 4817 H 433.566 1.98762 3.53904 0
M  V30 4818 H 434.332 4.20393 2.41858 0
M  V30 4819 H 430.211 3.2868 3.2325 0
M  V30 4820 H 433.755 6.59943 2.26099 0
M  V30 4821 H 429.652 5.67384 3.07808 0
M  V30 4822 H 430.42 7.71898 2.72242 0
M  V30 4823 N 433.083 -1.0153 1.20538 0
M  V30 4824 C 434.033 -2.08482 0.922991 0
M  V30 4825 C 435.017 -1.60469 -0.117702 0
M  V30 4826 O 436.209 -1.76772 0.0898465 0
M  V30 4827 C 433.338 -3.39952 0.478312 0
M  V30 4828 C 432.424 -3.94662 1.5525 0
M  V30 4829 N 432.815 -4.22866 2.77521 0
M  V30 4830 C 431.113 -4.22825 1.41897 0
M  V30 4831 C 431.814 -4.67002 3.4682 0
M  V30 4832 N 430.79 -4.69356 2.74237 0
M  V30 4833 H 434.592 -2.28199 1.85209 0
M  V30 4834 H 432.106 -1.19512 1.09957 0
M  V30 4835 H 434.103 -4.16105 0.257408 0
M  V30 4836 H 432.763 -3.21648 -0.444148 0
M  V30 4837 H 433.774 -4.11732 3.1416 0
M  V30 4838 H 430.451 -4.13714 0.561015 0
M  V30 4839 H 431.841 -4.97632 4.51455 0
M  V30 4840 N 434.561 -1.01147 -1.20859 0
M  V30 4841 C 435.81 -0.693214 -1.89413 0
M  V30 4842 C 436.123 0.779969 -1.79376 0
M  V30 4843 O 437.329 1.21057 -2.43017 0
M  V30 4844 C 435.785 -1.18949 -3.39675 0
M  V30 4845 C 435.393 -2.68921 -3.58309 0
M  V30 4846 C 437.137 -0.94642 -4.13815 0
M  V30 4847 C 435.044 -3.12056 -5.0237 0
M  V30 4848 H 433.974 -0.255595 -0.709357 0
M  V30 4849 H 436.625 -1.22349 -1.36759 0
M  V30 4850 H 435.007 -0.587228 -3.91622 0
M  V30 4851 H 436.181 -3.34652 -3.16772 0
M  V30 4852 H 434.496 -2.91314 -2.97532 0
M  V30 4853 H 437.093 -1.24417 -5.20023 0
M  V30 4854 H 437.436 0.117219 -4.16135 0
M  V30 4855 H 437.969 -1.5118 -3.67953 0
M  V30 4856 H 434.708 -4.17674 -5.05202 0
M  V30 4857 H 434.228 -2.51041 -5.44737 0
M  V30 4858 H 435.907 -3.04403 -5.70918 0
M  V30 4859 N 436.039 1.36541 -0.78704 0
M  V30 4860 C 436.986 2.30082 -0.181901 0
M  V30 4861 C 437.956 1.5186 0.672896 0
M  V30 4862 O 439.141 1.80374 0.622072 0
M  V30 4863 C 436.281 3.3835 0.679197 0
M  V30 4864 C 435.394 4.31565 -0.193882 0
M  V30 4865 C 434.529 5.26915 0.673364 0
M  V30 4866 C 433.568 6.11769 -0.201315 0
M  V30 4867 N 432.705 6.99315 0.624777 0
M  V30 4868 H 437.545 2.81248 -0.985064 0
M  V30 4869 H 435.082 1.38437 -0.497342 0
M  V30 4870 H 437.04 3.99767 1.19341 0
M  V30 4871 H 435.67 2.8851 1.44781 0
M  V30 4872 H 434.722 3.71323 -0.826044 0
M  V30 4873 H 436.034 4.91191 -0.867937 0
M  V30 4874 H 435.188 5.9361 1.25348 0
M  V30 4875 H 433.927 4.67737 1.38105 0
M  V30 4876 H 432.932 5.44039 -0.793849 0
M  V30 4877 H 434.157 6.73022 -0.906568 0
M  V30 4878 H 432.103 6.42648 1.3168 0
M  V30 4879 H 432.02 7.56 0.00835237 0
M  V30 4880 H 433.288 7.70382 1.18879 0
M  V30 4881 N 437.518 0.538854 1.48102 0
M  V30 4882 C 438.428 -0.222648 2.33541 0
M  V30 4883 C 439.444 -0.930225 1.47047 0
M  V30 4884 O 440.62 -0.903211 1.80011 0
M  V30 4885 C 437.685 -1.25064 3.23357 0
M  V30 4886 C 436.746 -0.552469 4.2573 0
M  V30 4887 C 435.979 -1.53149 5.11254 0
M  V30 4888 O 436.202 -2.76487 4.9891 0
M  V30 4889 O 435.136 -1.06602 5.92385 0
M  V30 4890 H 438.962 0.477707 2.99919 0
M  V30 4891 H 436.547 0.299669 1.46364 0
M  V30 4892 H 438.429 -1.8445 3.78888 0
M  V30 4893 H 437.104 -1.93325 2.59629 0
M  V30 4894 H 436.011 0.082114 3.7401 0
M  V30 4895 H 437.344 0.0883526 4.92121 0
M  V30 4896 N 438.996 -1.55193 0.274407 0
M  V30 4897 C 440.224 -2.03987 -0.345943 0
M  V30 4898 C 440.639 -1.15279 -1.4952 0
M  V30 4899 O 439.996 -0.172759 -1.8168 0
M  V30 4900 C 440.047 -3.51898 -0.827631 0
M  V30 4901 O 439.768 -4.37231 0.275855 0
M  V30 4902 C 441.269 -4.16577 -1.51587 0
M  V30 4903 H 438.489 -0.666335 -0.0789892 0
M  V30 4904 H 441.033 -2.00423 0.406294 0
M  V30 4905 H 439.188 -3.55909 -1.52996 0
M  V30 4906 H 439.602 -5.24415 -0.0943638 0
M  V30 4907 H 441.076 -5.21678 -1.80433 0
M  V30 4908 H 441.553 -3.64707 -2.44716 0
M  V30 4909 H 442.159 -4.16568 -0.857409 0
M  V30 4910 N 440.474 -0.00167713 -1.576 0
M  V30 4911 C 441.422 1.0074 -2.09652 0
M  V30 4912 C 442.416 1.35483 -1.01689 0
M  V30 4913 O 443.622 1.34028 -1.20152 0
M  V30 4914 H 439.997 0.342537 -0.669457 0
M  V30 4915 H 441.968 0.542841 -2.93421 0
M  V30 4916 C 440.717 2.2899 -2.61647 0
M  V30 4917 H 440.04 2.03124 -3.44355 0
M  V30 4918 H 441.48 2.9787 -3.01744 0
M  V30 4919 C 439.939 3.00085 -1.53136 0
M  V30 4920 O 440.469 3.91135 -0.91524 0
M  V30 4921 N 438.675 2.6194 -1.25841 0
M  V30 4922 H 438.222 1.8798 -1.76129 0
M  V30 4923 H 438.18 3.09822 -0.534576 0
M  V30 4924 N 441.952 1.55251 0.271103 0
M  V30 4925 C 443.229 1.66664 1.02384 0
M  V30 4926 C 443.609 0.534363 2.04225 0
M  V30 4927 O 442.957 -0.465337 2.23712 0
M  V30 4928 C 443.167 3.05961 1.67895 0
M  V30 4929 C 444.515 3.63772 2.18986 0
M  V30 4930 O 445.539 3.08606 1.77878 0
M  V30 4931 O 444.398 4.60429 2.94393 0
M  V30 4932 H 441.492 0.676957 0.475035 0
M  V30 4933 H 444.038 1.67589 0.26681 0
M  V30 4934 H 442.81 3.79815 0.941071 0
M  V30 4935 H 442.433 3.08943 2.5028 0
M  V30 4936 N 443.43 -0.535701 1.48216 0
M  V30 4937 C 444.378 -1.66179 1.62749 0
M  V30 4938 C 445.372 -1.62034 0.49409 0
M  V30 4939 O 446.578 -1.6696 0.672624 0
M  V30 4940 H 442.953 -0.550244 0.512578 0
M  V30 4941 H 444.924 -1.51063 2.57337 0
M  V30 4942 C 443.673 -3.04471 1.67907 0
M  V30 4943 H 442.996 -3.08351 2.54479 0
M  V30 4944 H 444.436 -3.82894 1.82121 0
M  V30 4945 C 442.895 -3.34314 0.416596 0
M  V30 4946 O 443.425 -3.98905 -0.473014 0
M  V30 4947 N 441.631 -2.89149 0.290038 0
M  V30 4948 H 441.178 -2.36764 1.01493 0
M  V30 4949 H 441.136 -3.09486 -0.55367 0
M  V30 4950 N 444.908 -1.36708 -0.784132 0
M  V30 4951 C 446.319 -1.27947 -1.35965 0
M  V30 4952 C 446.67 0.0784013 -1.96043 0
M  V30 4953 O 445.795 0.979989 -1.92938 0
M  V30 4954 C 446.39 -2.31689 -2.47195 0
M  V30 4955 C 444.949 -2.26601 -3.00548 0
M  V30 4956 C 444.096 -2.16184 -1.73666 0
M  V30 4957 H 447.047 -1.4751 -0.585358 0
M  V30 4958 H 447.068 -1.95638 -3.26352 0
M  V30 4959 H 446.58 -3.30506 -2.03439 0
M  V30 4960 H 444.681 -1.31268 -3.48711 0
M  V30 4961 H 444.794 -3.19508 -3.57004 0
M  V30 4962 H 443.158 -1.62524 -1.96107 0
M  V30 4963 H 443.941 -3.16896 -1.32031 0
M  V30 4964 N 446.386 1.0089 -1.21074 0
M  V30 4965 C 447.333 2.09588 -0.966512 0
M  V30 4966 C 448.303 1.65761 0.106089 0
M  V30 4967 O 449.488 1.90758 -0.0402287 0
M  V30 4968 C 446.628 3.40958 -0.533058 0
M  V30 4969 C 445.741 3.9822 -1.67467 0
M  V30 4970 C 444.876 5.17682 -1.19076 0
M  V30 4971 C 443.915 5.67043 -2.30496 0
M  V30 4972 N 443.052 6.77759 -1.83267 0
M  V30 4973 H 447.892 2.29815 -1.89708 0
M  V30 4974 H 445.429 1.12689 -0.945489 0
M  V30 4975 H 447.387 4.1637 -0.263019 0
M  V30 4976 H 446.017 3.20781 0.360505 0
M  V30 4977 H 445.069 3.1983 -2.05944 0
M  V30 4978 H 446.381 4.3085 -2.51336 0
M  V30 4979 H 445.535 6.00326 -0.877151 0
M  V30 4980 H 444.274 4.86635 -0.322066 0
M  V30 4981 H 443.279 4.82999 -2.62664 0
M  V30 4982 H 444.504 6.00121 -3.17855 0
M  V30 4983 H 442.45 6.48527 -0.987356 0
M  V30 4984 H 442.367 7.09624 -2.60711 0
M  V30 4985 H 443.635 7.63949 -1.54928 0
M  V30 4986 N 447.864 1.01787 1.20321 0
M  V30 4987 C 449.28 0.732951 1.41774 0
M  V30 4988 C 449.48 -0.686883 1.89431 0
M  V30 4989 O 448.536 -1.45446 2.06402 0
M  V30 4990 C 449.849 1.75973 2.43832 0
M  V30 4991 C 451.397 1.77802 2.57596 0
M  V30 4992 C 451.872 2.7941 3.62897 0
M  V30 4993 N 453.363 2.78157 3.70382 0
M  V30 4994 C 454.098 3.53434 4.51521 0
M  V30 4995 N 453.594 4.38392 5.36455 0
M  V30 4996 N 455.387 3.42026 4.46066 0
M  V30 4997 H 447.538 1.93447 0.877035 0
M  V30 4998 H 449.801 0.835712 0.447536 0
M  V30 4999 H 449.507 2.77699 2.15815 0
M  V30 5000 H 449.381 1.57292 3.4284 0
M  V30 5001 H 451.768 0.767602 2.84942 0
M  V30 5002 H 451.849 2.00557 1.58779 0
M  V30 5003 H 451.493 3.80616 3.36295 0
M  V30 5004 H 451.423 2.53916 4.61339 0
M  V30 5005 H 453.914 2.16531 3.09714 0
M  V30 5006 H 454.227 4.92596 5.95457 0
M  V30 5007 H 452.572 4.4247 5.35953 0
M  V30 5008 H 455.763 2.75075 3.78749 0
M  V30 5009 H 455.936 4.00946 5.09064 0
M  V30 5010 N 449.342 -1.36122 0.79427 0
M  V30 5011 C 450.572 -2.03067 0.380437 0
M  V30 5012 C 450.98 -1.60018 -1.00949 0
M  V30 5013 O 450.323 -0.787425 -1.65968 0
M  V30 5014 C 450.385 -3.57587 0.37034 0
M  V30 5015 C 450.049 -4.23855 1.70867 0
M  V30 5016 C 451.046 -4.46404 2.66496 0
M  V30 5017 C 448.731 -4.61229 1.9893 0
M  V30 5018 C 450.725 -5.05412 3.88378 0
M  V30 5019 C 448.412 -5.19953 3.21079 0
M  V30 5020 C 449.41 -5.41985 4.15621 0
M  V30 5021 O 449.098 -5.99475 5.35616 0
M  V30 5022 H 448.83 -0.658168 0.154243 0
M  V30 5023 H 451.384 -1.7498 1.0757 0
M  V30 5024 H 449.614 -3.84814 -0.381444 0
M  V30 5025 H 451.303 -4.05895 -0.0194894 0
M  V30 5026 H 452.069 -4.17921 2.46103 0
M  V30 5027 H 447.948 -4.43402 1.26158 0
M  V30 5028 H 451.492 -5.22524 4.62185 0
M  V30 5029 H 447.389 -5.47862 3.41347 0
M  V30 5030 H 448.157 -6.17937 5.36745 0
M  V30 5031 N 450.82 -0.546701 -1.47814 0
M  V30 5032 C 452.05 -0.0232519 -2.06587 0
M  V30 5033 C 452.458 1.2712 -1.40133 0
M  V30 5034 O 451.801 1.77091 -0.488305 0
M  V30 5035 C 451.863 0.254117 -3.58601 0
M  V30 5036 C 451.527 -0.949331 -4.47031 0
M  V30 5037 C 452.524 -1.85216 -4.85789 0
M  V30 5038 C 450.209 -1.16104 -4.88697 0
M  V30 5039 C 452.203 -2.95047 -5.65001 0
M  V30 5040 C 449.89 -2.26247 -5.67676 0
M  V30 5041 C 450.888 -3.1555 -6.05737 0
M  V30 5042 O 450.576 -4.23784 -6.83127 0
M  V30 5043 H 450.308 -0.0380082 -0.674931 0
M  V30 5044 H 452.862 -0.756631 -1.90956 0
M  V30 5045 H 451.092 1.04168 -3.72406 0
M  V30 5046 H 452.781 0.72167 -3.99433 0
M  V30 5047 H 453.547 -1.70061 -4.54207 0
M  V30 5048 H 449.426 -0.475159 -4.58545 0
M  V30 5049 H 452.97 -3.64778 -5.94628 0
M  V30 5050 H 448.867 -2.41379 -5.98671 0
M  V30 5051 H 449.635 -4.21701 -7.01506 0
M  V30 5052 N 452.299 1.55045 -0.282633 0
M  V30 5053 C 453.545 2.00056 0.332481 0
M  V30 5054 C 453.878 1.1708 1.54939 0
M  V30 5055 O 453.153 0.2427 1.9298 0
M  V30 5056 C 453.436 3.53086 0.70725 0
M  V30 5057 C 453.289 4.46813 -0.517521 0
M  V30 5058 C 454.608 4.12245 1.54084 0
M  V30 5059 H 451.727 0.727268 0.119373 0
M  V30 5060 H 454.369 1.85932 -0.391076 0
M  V30 5061 H 452.519 3.65253 1.32372 0
M  V30 5062 H 454.191 4.46579 -1.15607 0
M  V30 5063 H 452.434 4.18163 -1.1542 0
M  V30 5064 H 453.105 5.51595 -0.211426 0
M  V30 5065 H 455.581 4.03401 1.02013 0
M  V30 5066 H 454.457 5.19515 1.77186 0
M  V30 5067 H 454.718 3.62951 2.52427 0
M  V30 5068 N 453.777 0.010035 1.57597 0
M  V30 5069 C 454.74 -0.963029 2.07986 0
M  V30 5070 C 455.74 -1.26619 0.991173 0
M  V30 5071 O 456.93 -1.2097 1.25347 0
M  V30 5072 C 454.062 -2.2851 2.52974 0
M  V30 5073 H 455.255 -0.526971 2.95234 0
M  V30 5074 H 452.808 -0.237639 1.54483 0
M  V30 5075 H 453.543 -2.76784 1.69 0
M  V30 5076 H 453.328 -2.07824 3.32493 0
M  V30 5077 H 454.818 -2.98294 2.9225 0
M  V30 5078 N 455.255 -1.55392 -0.262866 0
M  V30 5079 C 456.165 -1.92077 -1.34698 0
M  V30 5080 C 457.181 -0.819227 -1.53508 0
M  V30 5081 O 458.357 -1.11921 -1.67439 0
M  V30 5082 C 455.422 -2.19407 -2.68443 0
M  V30 5083 C 454.483 -3.42905 -2.58292 0
M  V30 5084 C 453.716 -3.68921 -3.85659 0
M  V30 5085 O 453.939 -2.97275 -4.8681 0
M  V30 5086 O 452.873 -4.62455 -3.85252 0
M  V30 5087 H 456.699 -2.84384 -1.06581 0
M  V30 5088 H 454.284 -1.42069 -0.462264 0
M  V30 5089 H 456.166 -2.38365 -3.47506 0
M  V30 5090 H 454.841 -1.30282 -2.96325 0
M  V30 5091 H 453.748 -3.29272 -1.7757 0
M  V30 5092 H 455.081 -4.32282 -2.35358 0
M  V30 5093 N 456.733 0.527833 -1.48498 0
M  V30 5094 C 457.68 1.6322 -1.6318 0
M  V30 5095 C 458.65 1.59199 -0.473815 0
M  V30 5096 O 459.835 1.77591 -0.697563 0
M  V30 5097 C 456.975 3.01474 -1.67951 0
M  V30 5098 C 456.088 3.15713 -2.94871 0
M  V30 5099 C 455.223 4.44539 -2.90789 0
M  V30 5100 C 454.262 4.52315 -4.12404 0
M  V30 5101 N 453.399 5.72533 -4.06387 0
M  V30 5102 H 458.239 1.50011 -2.57489 0
M  V30 5103 H 455.776 0.730298 -1.27691 0
M  V30 5104 H 457.734 3.81572 -1.68698 0
M  V30 5105 H 456.364 3.1345 -0.771306 0
M  V30 5106 H 455.416 2.28854 -3.03859 0
M  V30 5107 H 456.728 3.1732 -3.8485 0
M  V30 5108 H 455.882 5.3293 -2.89949 0
M  V30 5109 H 454.621 4.45457 -1.98542 0
M  V30 5110 H 453.626 3.62331 -4.13517 0
M  V30 5111 H 454.851 4.53134 -5.05812 0
M  V30 5112 H 452.797 5.74344 -3.16962 0
M  V30 5113 H 452.714 5.75643 -4.90073 0
M  V30 5114 H 453.982 6.63204 -4.0961 0
M  V30 5115 N 458.211 1.37122 0.776871 0
M  V30 5116 C 459.441 1.35034 1.56363 0
M  V30 5117 C 459.849 -0.0674681 1.8908 0
M  V30 5118 O 459.192 -1.03826 1.51545 0
M  V30 5119 C 459.254 2.11894 2.90415 0
M  V30 5120 C 458.918 3.60897 2.80362 0
M  V30 5121 C 459.915 4.54887 2.51742 0
M  V30 5122 C 457.6 4.03951 2.98545 0
M  V30 5123 C 459.594 5.89909 2.41426 0
M  V30 5124 C 457.281 5.3906 2.87849 0
M  V30 5125 C 458.279 6.31852 2.5933 0
M  V30 5126 O 457.967 7.64479 2.48651 0
M  V30 5127 H 457.699 0.464402 0.49123 0
M  V30 5128 H 460.253 1.80992 0.971127 0
M  V30 5129 H 458.483 1.60618 3.51765 0
M  V30 5130 H 460.172 2.02505 3.51776 0
M  V30 5131 H 460.938 4.22934 2.37385 0
M  V30 5132 H 456.817 3.3209 3.19746 0
M  V30 5133 H 460.361 6.62304 2.19086 0
M  V30 5134 H 456.258 5.70617 3.01773 0
M  V30 5135 H 457.026 7.74742 2.64039 0
M  V30 5136 N 459.689 -1.00246 1.21608 0
M  V30 5137 C 460.935 -1.74319 1.03638 0
M  V30 5138 C 461.268 -1.89408 -0.428749 0
M  V30 5139 O 460.543 -1.43026 -1.3181 0
M  V30 5140 C 460.826 -3.15431 1.73711 0
M  V30 5141 C 460.679 -3.08049 3.27759 0
M  V30 5142 C 461.998 -4.14407 1.48173 0
M  V30 5143 H 459.117 -0.632741 0.377899 0
M  V30 5144 H 461.759 -1.16853 1.49818 0
M  V30 5145 H 459.909 -3.64493 1.34452 0
M  V30 5146 H 461.581 -2.66681 3.76403 0
M  V30 5147 H 459.824 -2.45088 3.57931 0
M  V30 5148 H 460.495 -4.07862 3.71958 0
M  V30 5149 H 462.971 -3.74061 1.82258 0
M  V30 5150 H 461.847 -5.11279 1.99713 0
M  V30 5151 H 462.108 -4.40174 0.412273 0
M  V30 5152 N 461.167 -1.02423 -1.1978 0
M  V30 5153 C 462.414 -0.717988 -1.89344 0
M  V30 5154 C 462.742 0.753036 -1.79331 0
M  V30 5155 O 461.997 1.56355 -1.17692 0
M  V30 5156 C 462.296 -1.1088 -3.39765 0
M  V30 5157 C 461.962 -2.57731 -3.6998 0
M  V30 5158 C 460.624 -2.97854 -3.77937 0
M  V30 5159 C 462.976 -3.52763 -3.83677 0
M  V30 5160 C 460.304 -4.31931 -3.97054 0
M  V30 5161 C 462.656 -4.86538 -4.04306 0
M  V30 5162 C 461.32 -5.26356 -4.10494 0
M  V30 5163 H 460.59 -0.26273 -0.692859 0
M  V30 5164 H 463.237 -1.28623 -1.41875 0
M  V30 5165 H 461.542 -0.459094 -3.89101 0
M  V30 5166 H 463.239 -0.849432 -3.919 0
M  V30 5167 H 459.829 -2.25646 -3.64393 0
M  V30 5168 H 464.013 -3.2292 -3.76877 0
M  V30 5169 H 459.269 -4.62324 -4.00083 0
M  V30 5170 H 463.443 -5.60093 -4.13846 0
M  V30 5171 H 461.07 -6.3026 -4.2506 0
M  V30 5172 N 462.645 1.35699 -0.801477 0
M  V30 5173 C 463.922 1.9324 -0.302937 0
M  V30 5174 C 464.302 1.73209 1.20672 0
M  V30 5175 O 463.65 1.09809 2.00385 0
M  V30 5176 C 463.86 3.41728 -0.708747 0
M  V30 5177 C 465.208 4.18868 -0.695328 0
M  V30 5178 O 466.232 3.5022 -0.649971 0
M  V30 5179 O 465.091 5.41342 -0.749081 0
M  V30 5180 H 462.185 0.82331 -0.0780367 0
M  V30 5181 H 464.731 1.44806 -0.884832 0
M  V30 5182 H 463.503 3.50015 -1.74944 0
M  V30 5183 H 463.126 3.97471 -0.101384 0
M  V30 5184 N 464.123 0.554532 1.47522 0
M  V30 5185 C 465.348 0.0322661 2.07375 0
M  V30 5186 C 465.773 -1.25079 1.40488 0
M  V30 5187 O 465.131 -1.74859 0.47896 0
M  V30 5188 C 465.179 -0.149397 3.6029 0
M  V30 5189 O 464.283 -1.21259 3.9417 0
M  V30 5190 H 463.624 0.0501228 0.662106 0
M  V30 5191 H 466.154 0.769452 1.8958 0
M  V30 5192 H 466.164 -0.364437 4.06369 0
M  V30 5193 H 464.839 0.787743 4.08372 0
M  V30 5194 H 463.416 -0.97825 3.5984 0
M  V30 5195 N 465.601 -1.54893 0.290851 0
M  V30 5196 C 466.85 -1.99111 -0.322113 0
M  V30 5197 C 467.163 -1.18283 -1.55784 0
M  V30 5198 O 468.369 -1.5272 -2.24475 0
M  V30 5199 C 466.825 -3.54442 -0.624438 0
M  V30 5200 C 466.433 -4.44066 0.592373 0
M  V30 5201 C 468.177 -4.07211 -1.19916 0
M  V30 5202 C 466.084 -5.90812 0.263762 0
M  V30 5203 H 465.014 -0.743712 -0.124133 0
M  V30 5204 H 467.665 -1.79132 0.39797 0
M  V30 5205 H 466.047 -3.70281 -1.40384 0
M  V30 5206 H 467.221 -4.39999 1.36886 0
M  V30 5207 H 465.536 -4.02015 1.08502 0
M  V30 5208 H 468.133 -5.14407 -1.45909 0
M  V30 5209 H 468.476 -3.57196 -2.13815 0
M  V30 5210 H 469.009 -3.94873 -0.481687 0
M  V30 5211 H 465.748 -6.44955 1.17105 0
M  V30 5212 H 465.268 -5.97911 -0.475655 0
M  V30 5213 H 466.947 -6.46852 -0.138354 0
M  V30 5214 N 467.08 -0.0183926 -1.57589 0
M  V30 5215 C 468.491 0.521927 -1.79256 0
M  V30 5216 C 468.842 1.72885 -0.927636 0
M  V30 5217 O 467.967 2.15978 -0.135091 0
M  V30 5218 C 468.562 0.953632 -3.25102 0
M  V30 5219 C 467.121 1.43913 -3.47801 0
M  V30 5220 C 466.268 0.398837 -2.74417 0
M  V30 5221 H 469.219 -0.244485 -1.56805 0
M  V30 5222 H 469.24 1.81863 -3.34224 0
M  V30 5223 H 468.752 0.0750123 -3.88028 0
M  V30 5224 H 466.853 2.33804 -2.90115 0
M  V30 5225 H 466.966 1.45391 -4.56507 0
M  V30 5226 H 465.33 0.864572 -2.39577 0
M  V30 5227 H 466.113 -0.471132 -3.40052 0
M  V30 5228 N 468.558 1.5553 0.254621 0
M  V30 5229 C 469.488 1.9268 1.31897 0
M  V30 5230 C 470.469 0.790797 1.506 0
M  V30 5231 O 471.654 1.05045 1.63337 0
M  V30 5232 C 468.784 2.21477 2.67517 0
M  V30 5233 C 467.738 3.37256 2.63519 0
M  V30 5234 C 467.064 3.51576 4.02862 0
M  V30 5235 C 468.364 4.73157 2.21179 0
M  V30 5236 H 470.058 2.81832 1.01051 0
M  V30 5237 H 467.604 1.35599 0.484662 0
M  V30 5238 H 469.557 2.46055 3.42104 0
M  V30 5239 H 468.281 1.29144 2.99982 0
M  V30 5240 H 466.94 3.12675 1.9139 0
M  V30 5241 H 466.588 2.56676 4.32581 0
M  V30 5242 H 466.288 4.2943 4.01078 0
M  V30 5243 H 467.812 3.78467 4.79161 0
M  V30 5244 H 469.226 4.97158 2.85494 0
M  V30 5245 H 467.623 5.54058 2.30521 0
M  V30 5246 H 468.693 4.70739 1.16332 0
M  V30 5247 N 470.036 -0.519951 1.48776 0
M  V30 5248 C 470.966 -1.63253 1.66945 0
M  V30 5249 C 471.947 -1.62014 0.518224 0
M  V30 5250 O 473.132 -1.79053 0.751919 0
M  V30 5251 C 470.262 -3.0181 1.71836 0
M  V30 5252 C 469.216 -3.17911 2.8656 0
M  V30 5253 C 468.542 -4.5763 2.76548 0
M  V30 5254 C 469.842 -2.99729 4.27738 0
M  V30 5255 H 471.536 -1.48302 2.6009 0
M  V30 5256 H 469.082 -0.712026 1.25165 0
M  V30 5257 H 471.035 -3.79525 1.83135 0
M  V30 5258 H 469.759 -3.17806 0.752775 0
M  V30 5259 H 468.418 -2.42616 2.74833 0
M  V30 5260 H 468.066 -4.70476 1.77937 0
M  V30 5261 H 467.766 -4.69346 3.53536 0
M  V30 5262 H 469.29 -5.37431 2.89828 0
M  V30 5263 H 470.704 -3.67228 4.40246 0
M  V30 5264 H 469.101 -3.22932 5.05801 0
M  V30 5265 H 470.171 -1.96047 4.43502 0
M  V30 5266 N 471.514 -1.37532 -0.769588 0
M  V30 5267 C 472.763 -1.32183 -1.5235 0
M  V30 5268 C 473.076 0.0906555 -1.9539 0
M  V30 5269 O 474.282 0.266628 -2.70188 0
M  V30 5270 C 472.738 -2.32029 -2.75119 0
M  V30 5271 C 472.346 -3.78816 -2.3917 0
M  V30 5272 C 474.09 -2.35694 -3.53056 0
M  V30 5273 C 471.997 -4.70388 -3.58453 0
M  V30 5274 H 470.927 -0.491275 -0.571984 0
M  V30 5275 H 473.578 -1.63004 -0.842739 0
M  V30 5276 H 471.96 -1.94229 -3.45096 0
M  V30 5277 H 473.134 -4.25466 -1.76962 0
M  V30 5278 H 471.449 -3.78117 -1.74402 0
M  V30 5279 H 474.046 -3.01312 -4.41718 0
M  V30 5280 H 474.389 -1.37117 -3.93071 0
M  V30 5281 H 474.922 -2.72212 -2.90078 0
M  V30 5282 H 471.661 -5.70102 -3.23518 0
M  V30 5283 H 471.181 -4.28442 -4.19758 0
M  V30 5284 H 472.86 -4.87628 -4.25239 0
M  V30 5285 N 472.992 0.995999 -1.22138 0
M  V30 5286 C 473.94 2.10673 -0.985876 0
M  V30 5287 C 474.934 1.69255 0.0699553 0
M  V30 5288 O 476.14 1.79812 -0.0822176 0
M  V30 5289 H 472.515 0.688865 -0.30161 0
M  V30 5290 H 474.486 2.27711 -1.92848 0
M  V30 5291 C 473.235 3.42881 -0.576909 0
M  V30 5292 H 472.558 3.75191 -1.38101 0
M  V30 5293 H 473.998 4.21589 -0.451518 0
M  V30 5294 C 472.457 3.29265 0.713196 0
M  V30 5295 O 472.987 3.60777 1.76643 0
M  V30 5296 N 471.193 2.82456 0.683162 0
M  V30 5297 H 470.74 2.5701 -0.174242 0
M  V30 5298 H 470.698 2.73727 1.54663 0
M  V30 5299 N 474.47 1.03057 1.19235 0
M  V30 5300 C 475.7 0.746613 1.92638 0
M  V30 5301 C 476.108 -0.698708 1.75826 0
M  V30 5302 O 475.451 -1.487 1.07861 0
M  V30 5303 C 475.513 1.02024 3.44719 0
M  V30 5304 C 475.177 2.45745 3.85303 0
M  V30 5305 C 476.174 3.43887 3.8992 0
M  V30 5306 C 473.859 2.8019 4.16892 0
M  V30 5307 C 475.853 4.74529 4.2556 0
M  V30 5308 C 473.54 4.1104 4.52205 0
M  V30 5309 C 474.538 5.0802 4.56513 0
M  V30 5310 O 474.226 6.36527 4.91008 0
M  V30 5311 H 473.958 0.272401 0.618687 0
M  V30 5312 H 476.512 1.37853 1.52269 0
M  V30 5313 H 474.742 0.331184 3.85279 0
M  V30 5314 H 476.431 0.725677 3.9936 0
M  V30 5315 H 477.197 3.18614 3.65664 0
M  V30 5316 H 473.076 2.05382 4.12722 0
M  V30 5317 H 476.62 5.50222 4.28838 0
M  V30 5318 H 472.517 4.36086 4.7592 0
M  V30 5319 H 473.285 6.41025 5.08949 0
M  V30 5320 N 475.948 -1.35272 0.808662 0
M  V30 5321 C 476.898 -2.27181 0.193124 0
M  V30 5322 C 477.882 -1.47871 -0.634265 0
M  V30 5323 O 479.074 -1.70048 -0.491182 0
M  V30 5324 C 476.203 -3.36979 -0.655751 0
M  V30 5325 C 475.289 -4.23712 0.181481 0
M  V30 5326 N 475.68 -4.90225 1.24551 0
M  V30 5327 C 473.978 -4.45985 -0.0365493 0
M  V30 5328 C 474.679 -5.54537 1.75682 0
M  V30 5329 N 473.655 -5.33107 1.06294 0
M  V30 5330 H 477.457 -2.76101 1.00724 0
M  V30 5331 H 474.971 -1.48823 0.650029 0
M  V30 5332 H 476.968 -4.01774 -1.11279 0
M  V30 5333 H 475.628 -2.89611 -1.46819 0
M  V30 5334 H 476.639 -4.91641 1.62818 0
M  V30 5335 H 473.316 -4.09409 -0.817964 0
M  V30 5336 H 474.706 -6.17597 2.64621 0
M  V30 5337 N 477.426 -0.562348 -1.47226 0
M  V30 5338 C 478.358 0.220011 -2.28142 0
M  V30 5339 C 479.371 0.874596 -1.37312 0
M  V30 5340 O 480.56 0.747583 -1.62091 0
M  V30 5341 C 477.66 1.32953 -3.11732 0
M  V30 5342 C 476.833 0.770759 -4.30556 0
M  V30 5343 C 475.892 1.76541 -4.95701 0
M  V30 5344 O 474.918 1.3095 -5.53932 0
M  V30 5345 N 476.12 3.09896 -4.90861 0
M  V30 5346 H 478.885 -0.474107 -2.95926 0
M  V30 5347 H 476.446 -0.398761 -1.56912 0
M  V30 5348 H 478.438 1.99378 -3.5218 0
M  V30 5349 H 477.008 1.92681 -2.46156 0
M  V30 5350 H 476.228 -0.0704056 -3.94137 0
M  V30 5351 H 477.516 0.376872 -5.07402 0
M  V30 5352 H 476.914 3.49577 -4.44761 0
M  V30 5353 H 475.471 3.71865 -5.35313 0
M  V30 5354 N 478.904 1.54736 -0.299062 0
M  V30 5355 C 479.854 2.20155 0.592932 0
M  V30 5356 C 480.838 1.1739 1.10038 0
M  V30 5357 O 482.03 1.43116 1.04147 0
M  V30 5358 C 479.159 2.94437 1.76527 0
M  V30 5359 C 478.245 4.04516 1.27388 0
M  V30 5360 N 478.636 5.03319 0.500339 0
M  V30 5361 C 476.934 4.18022 1.55478 0
M  V30 5362 C 477.635 5.81209 0.238909 0
M  V30 5363 N 476.611 5.37408 0.818163 0
M  V30 5364 H 480.413 2.93899 -0.00563596 0
M  V30 5365 H 477.927 1.62068 -0.103732 0
M  V30 5366 H 479.924 3.3977 2.41582 0
M  V30 5367 H 478.584 2.22209 2.36756 0
M  V30 5368 H 479.595 5.17696 0.145419 0
M  V30 5369 H 476.272 3.56998 2.16469 0
M  V30 5370 H 477.662 6.70812 -0.382223 0
M  V30 5371 N 480.382 0.0267497 1.57577 0
M  V30 5372 C 481.33 -0.973923 2.11229 0
M  V30 5373 C 482.324 -1.33849 1.03831 0
M  V30 5374 O 483.53 -1.321 1.22269 0
M  V30 5375 H 479.905 -0.331844 0.674821 0
M  V30 5376 H 481.876 -0.496092 2.94247 0
M  V30 5377 C 480.625 -2.24798 2.65257 0
M  V30 5378 H 479.948 -1.9762 3.47543 0
M  V30 5379 H 481.388 -2.93031 3.06445 0
M  V30 5380 C 479.847 -2.97611 1.57891 0
M  V30 5381 O 480.377 -3.89629 0.97735 0
M  V30 5382 N 478.583 -2.59905 1.29992 0
M  V30 5383 H 478.13 -1.85154 1.79097 0
M  V30 5384 H 478.088 -3.08932 0.583798 0
M  V30 5385 N 481.861 -1.55662 -0.24637 0
M  V30 5386 C 483.109 -1.77168 -0.972411 0
M  V30 5387 C 483.43 -0.590827 -1.85834 0
M  V30 5388 O 482.7 0.393365 -1.9191 0
M  V30 5389 H 481.28 -0.653405 -0.362038 0
M  V30 5390 H 483.942 -1.93101 -0.264189 0
M  V30 5391 H 483.038 -2.68335 -1.59382 0
M  V30 5392 N 483.339 0.512053 -1.4905 0
M  V30 5393 C 484.587 1.26436 -1.57665 0
M  V30 5394 C 484.908 1.93255 -0.260293 0
M  V30 5395 O 484.178 1.82206 0.719564 0
M  V30 5396 H 482.758 0.469658 -0.580888 0
M  V30 5397 H 485.42 0.594398 -1.85615 0
M  V30 5398 H 484.516 2.03417 -2.36702 0
M  V30 5399 N 484.817 1.37938 0.762283 0
M  V30 5400 C 486.065 1.33404 1.51815 0
M  V30 5401 C 486.386 -0.0780975 1.94844 0
M  V30 5402 O 485.656 -1.02405 1.67003 0
M  V30 5403 H 484.236 0.490839 0.563104 0
M  V30 5404 H 486.898 1.72527 0.906669 0
M  V30 5405 H 485.994 1.97926 2.41313 0
M  V30 5406 N 486.295 -0.989507 1.22664 0
M  V30 5407 C 487.225 -2.09847 1.02404 0
M  V30 5408 C 488.206 -1.70007 -0.0561303 0
M  V30 5409 O 489.391 -1.93906 0.106748 0
M  V30 5410 C 486.521 -3.41996 0.604663 0
M  V30 5411 C 485.475 -3.95699 1.63115 0
M  V30 5412 C 484.801 -5.23936 1.0675 0
M  V30 5413 C 486.101 -4.25999 3.02196 0
M  V30 5414 H 487.795 -2.27054 1.95158 0
M  V30 5415 H 485.341 -1.09111 0.939727 0
M  V30 5416 H 487.294 -4.1899 0.45002 0
M  V30 5417 H 486.018 -3.24626 -0.35855 0
M  V30 5418 H 484.677 -3.2084 1.77362 0
M  V30 5419 H 484.325 -5.02909 0.0955422 0
M  V30 5420 H 484.025 -5.60833 1.75328 0
M  V30 5421 H 485.549 -6.0356 0.924516 0
M  V30 5422 H 486.963 -4.93777 2.91303 0
M  V30 5423 H 485.36 -4.74076 3.67929 0
M  V30 5424 H 486.43 -3.33636 3.51873 0
M  V30 5425 N 487.773 -1.03688 -1.18687 0
M  V30 5426 C 489.019 -0.739123 -1.88851 0
M  V30 5427 C 489.352 0.731042 -1.79915 0
M  V30 5428 O 488.627 1.53313 -1.19688 0
M  V30 5429 C 488.91 -1.20106 -3.3948 0
M  V30 5430 C 488.763 -2.73304 -3.57246 0
M  V30 5431 C 490.082 -0.788134 -4.32986 0
M  V30 5432 H 487.201 -0.269978 -0.68577 0
M  V30 5433 H 489.843 -1.28822 -1.3966 0
M  V30 5434 H 487.993 -0.733915 -3.81505 0
M  V30 5435 H 489.665 -3.28027 -3.24339 0
M  V30 5436 H 487.908 -3.13313 -3.00029 0
M  V30 5437 H 488.579 -3.00684 -4.62918 0
M  V30 5438 H 491.055 -1.19005 -3.98719 0
M  V30 5439 H 489.931 -1.13915 -5.36949 0
M  V30 5440 H 490.192 0.308988 -4.41019 0
M  V30 5441 N 489.251 1.34841 -0.815825 0
M  V30 5442 C 490.479 2.0273 -0.413294 0
M  V30 5443 C 490.894 1.61459 0.978599 0
M  V30 5444 O 490.251 0.816584 1.63212 0
M  V30 5445 C 490.302 3.58058 -0.497676 0
M  V30 5446 O 490.023 3.97832 -1.8347 0
M  V30 5447 C 491.524 4.4321 -0.0891339 0
M  V30 5448 H 488.744 0.649956 -0.166728 0
M  V30 5449 H 491.288 1.72267 -1.10201 0
M  V30 5450 H 489.443 3.87136 0.142886 0
M  V30 5451 H 489.857 4.92501 -1.80396 0
M  V30 5452 H 491.331 5.5164 -0.199274 0
M  V30 5453 H 491.808 4.28432 0.966571 0
M  V30 5454 H 492.414 4.19446 -0.703214 0
M  V30 5455 N 490.729 0.570148 1.46925 0
M  V30 5456 C 492.145 0.23087 1.57921 0
M  V30 5457 C 492.345 -1.26676 1.56702 0
M  V30 5458 O 491.401 -2.04774 1.47729 0
M  V30 5459 C 492.714 0.868973 2.8787 0
M  V30 5460 C 494.262 0.841397 3.01479 0
M  V30 5461 C 494.737 1.45881 4.34146 0
M  V30 5462 N 496.228 1.42258 4.40814 0
M  V30 5463 C 496.963 1.8698 5.42057 0
M  V30 5464 N 496.459 2.39618 6.50042 0
M  V30 5465 N 498.252 1.77972 5.33181 0
M  V30 5466 H 490.403 1.54301 1.45962 0
M  V30 5467 H 492.666 0.644224 0.69547 0
M  V30 5468 H 492.372 1.922 2.94537 0
M  V30 5469 H 492.246 0.369682 3.75384 0
M  V30 5470 H 494.633 -0.202973 2.94401 0
M  V30 5471 H 494.714 1.37858 2.15474 0
M  V30 5472 H 494.358 2.50231 4.4198 0
M  V30 5473 H 494.288 0.896958 5.18905 0
M  V30 5474 H 496.779 1.03768 3.63374 0
M  V30 5475 H 497.092 2.71633 7.23488 0
M  V30 5476 H 495.437 2.43636 6.50897 0
M  V30 5477 H 498.628 1.36617 4.4772 0
M  V30 5478 H 498.801 2.13143 6.11943 0
M  V30 5479 N 492.207 -1.54576 0.307264 0
M  V30 5480 C 493.137 -2.26708 -0.55907 0
M  V30 5481 C 494.118 -1.26893 -1.1328 0
M  V30 5482 O 495.303 -1.55677 -1.16097 0
M  V30 5483 C 492.433 -3.01259 -1.72801 0
M  V30 5484 C 491.387 -4.08275 -1.28435 0
M  V30 5485 C 490.713 -4.70575 -2.53895 0
M  V30 5486 C 492.013 -5.2068 -0.411038 0
M  V30 5487 H 493.707 -2.9937 0.042576 0
M  V30 5488 H 491.253 -1.43983 0.0219173 0
M  V30 5489 H 493.206 -3.50444 -2.34023 0
M  V30 5490 H 491.93 -2.26187 -2.356 0
M  V30 5491 H 490.589 -3.59949 -0.695161 0
M  V30 5492 H 490.237 -3.92136 -3.15021 0
M  V30 5493 H 489.937 -5.42854 -2.24908 0
M  V30 5494 H 491.461 -5.22527 -3.15908 0
M  V30 5495 H 492.875 -5.65721 -0.929097 0
M  V30 5496 H 491.272 -5.99716 -0.214664 0
M  V30 5497 H 492.342 -4.81629 0.562287 0
M  V30 5498 N 493.685 -0.035106 -1.57561 0
M  V30 5499 C 495.101 0.321334 -1.56332 0
M  V30 5500 C 495.301 1.72509 -1.04129 0
M  V30 5501 O 494.357 2.4287 -0.690694 0
M  V30 5502 C 495.67 0.164469 -3.0025 0
M  V30 5503 C 497.218 0.236786 -3.12103 0
M  V30 5504 C 497.693 0.10864 -4.57871 0
M  V30 5505 N 499.184 0.165433 -4.62904 0
M  V30 5506 C 499.919 0.0901506 -5.73329 0
M  V30 5507 N 499.415 -0.0365606 -6.9279 0
M  V30 5508 N 501.208 0.144572 -5.61914 0
M  V30 5509 H 493.359 -0.952976 -1.89821 0
M  V30 5510 H 495.622 -0.368537 -0.873432 0
M  V30 5511 H 495.328 -0.802746 -3.42416 0
M  V30 5512 H 495.202 0.932194 -3.655 0
M  V30 5513 H 497.589 1.19446 -2.69845 0
M  V30 5514 H 497.67 -0.561419 -2.49563 0
M  V30 5515 H 497.314 -0.845644 -5.00811 0
M  V30 5516 H 497.244 0.925786 -5.18398 0
M  V30 5517 H 499.735 0.263269 -3.76982 0
M  V30 5518 H 500.048 -0.0871487 -7.72751 0
M  V30 5519 H 498.393 -0.0714256 -6.94963 0
M  V30 5520 H 501.584 0.242006 -4.67474 0
M  V30 5521 H 501.757 0.0824413 -6.47948 0
M  V30 5522 N 495.163 1.55791 0.238111 0
M  V30 5523 C 496.393 1.81834 0.980809 0
M  V30 5524 C 496.801 0.609741 1.79106 0
M  V30 5525 O 496.144 -0.431073 1.78571 0
M  V30 5526 C 496.206 3.01363 1.96011 0
M  V30 5527 C 495.87 4.37037 1.33597 0
M  V30 5528 C 496.867 5.14692 0.734063 0
M  V30 5529 C 494.552 4.83743 1.3527 0
M  V30 5530 C 496.546 6.37206 0.157208 0
M  V30 5531 C 494.233 6.06204 0.77199 0
M  V30 5532 C 495.231 6.82775 0.175282 0
M  V30 5533 O 494.919 8.02922 -0.396432 0
M  V30 5534 H 494.651 0.6088 0.293834 0
M  V30 5535 H 497.205 2.03702 0.263552 0
M  V30 5536 H 495.435 2.75273 2.71591 0
M  V30 5537 H 497.124 3.14422 2.56697 0
M  V30 5538 H 497.89 4.79722 0.713582 0
M  V30 5539 H 493.769 4.24129 1.80653 0
M  V30 5540 H 497.313 6.96915 -0.30917 0
M  V30 5541 H 493.21 6.4065 0.789828 0
M  V30 5542 H 493.978 8.17989 -0.289145 0
M  V30 5543 N 496.642 -0.504142 1.49319 0
M  V30 5544 C 498.053 -1.08572 1.51885 0
M  V30 5545 C 498.404 -1.93842 0.303255 0
M  V30 5546 O 497.529 -2.0828 -0.58724 0
M  V30 5547 C 498.124 -1.97574 2.75227 0
M  V30 5548 C 496.683 -2.509 2.80581 0
M  V30 5549 C 495.83 -1.28447 2.45757 0
M  V30 5550 H 498.781 -0.288194 1.56061 0
M  V30 5551 H 498.802 -2.82219 2.55211 0
M  V30 5552 H 498.314 -1.35486 3.63683 0
M  V30 5553 H 496.415 -3.16636 1.96398 0
M  V30 5554 H 496.528 -2.88268 3.82673 0
M  V30 5555 H 494.892 -1.60868 1.97468 0
M  V30 5556 H 495.675 -0.68072 3.36483 0
M  V30 5557 N 498.12 -1.38341 -0.754957 0
M  V30 5558 C 499.366 -1.34672 -1.51628 0
M  V30 5559 C 499.699 0.0636036 -1.94096 0
M  V30 5560 O 498.974 1.0245 -1.6533 0
M  V30 5561 C 499.257 -2.30116 -2.76981 0
M  V30 5562 C 499.11 -3.80003 -2.4066 0
M  V30 5563 C 500.429 -2.23715 -3.78998 0
M  V30 5564 H 497.548 -0.490517 -0.550056 0
M  V30 5565 H 500.19 -1.69178 -0.864807 0
M  V30 5566 H 498.34 -2.00821 -3.3257 0
M  V30 5567 H 500.012 -4.19966 -1.90856 0
M  V30 5568 H 498.255 -3.97751 -1.73137 0
M  V30 5569 H 498.926 -4.42244 -3.30339 0
M  V30 5570 H 501.402 -2.49574 -3.32945 0
M  V30 5571 H 500.278 -2.9261 -4.64403 0
M  V30 5572 H 500.539 -1.23554 -4.24484 0
M  V30 5573 N 499.598 0.982988 -1.23187 0
M  V30 5574 C 500.838 1.73903 -1.07412 0
M  V30 5575 C 501.202 1.88146 0.382764 0
M  V30 5576 O 502.403 2.6053 0.661638 0
M  V30 5577 C 500.674 3.10105 -1.77678 0
M  V30 5578 S 502.233 4.01323 -1.77441 0
M  V30 5579 H 499.051 0.598093 -0.384456 0
M  V30 5580 H 501.653 1.17456 -1.56283 0
M  V30 5581 H 500.357 2.97388 -2.82822 0
M  V30 5582 H 499.888 3.71622 -1.29077 0
M  V30 5583 H 501.903 4.89189 -0.831162 0
M  V30 5584 N 501.076 1.04316 1.18135 0
M  V30 5585 C 502.323 0.74802 1.88178 0
M  V30 5586 C 502.651 -0.72441 1.80506 0
M  V30 5587 O 501.906 -1.54463 1.20165 0
M  V30 5588 C 502.205 1.16271 3.37958 0
M  V30 5589 C 501.871 2.63585 3.65833 0
M  V30 5590 C 500.533 3.03829 3.73151 0
M  V30 5591 C 502.885 3.58822 3.78016 0
M  V30 5592 C 500.213 4.38194 3.90132 0
M  V30 5593 C 502.565 4.92909 3.96514 0
M  V30 5594 C 501.229 5.3282 4.02068 0
M  V30 5595 H 500.499 0.27372 0.688592 0
M  V30 5596 H 503.146 1.30863 1.39811 0
M  V30 5597 H 501.451 0.520938 3.88321 0
M  V30 5598 H 503.148 0.911672 3.90499 0
M  V30 5599 H 499.738 2.31414 3.60757 0
M  V30 5600 H 503.922 3.28875 3.71692 0
M  V30 5601 H 499.178 4.68631 3.92677 0
M  V30 5602 H 503.352 5.66606 4.04883 0
M  V30 5603 H 500.979 6.36943 4.14979 0
M  V30 5604 N 502.554 -1.34406 0.822964 0
M  V30 5605 C 503.802 -1.97892 0.410245 0
M  V30 5606 C 504.123 -1.65567 -1.03017 0
M  V30 5607 O 503.393 -0.94642 -1.71522 0
M  V30 5608 H 501.973 -0.732049 0.148707 0
M  V30 5609 H 504.635 -1.64043 1.05242 0
M  V30 5610 H 503.731 -3.07579 0.529284 0
M  V30 5611 N 504.032 -0.577932 -1.46621 0
M  V30 5612 C 505.448 -0.239242 -1.57797 0
M  V30 5613 C 505.648 1.25843 -1.57371 0
M  V30 5614 O 504.704 2.03988 -1.48813 0
M  V30 5615 C 506.017 -0.884227 -2.87405 0
M  V30 5616 C 507.565 -0.857373 -3.01028 0
M  V30 5617 C 508.04 -1.48181 -4.33366 0
M  V30 5618 N 509.531 -1.44593 -4.40053 0
M  V30 5619 C 510.266 -1.89852 -5.41058 0
M  V30 5620 N 509.762 -2.43062 -6.48762 0
M  V30 5621 N 511.555 -1.80797 -5.3223 0
M  V30 5622 H 503.706 -1.55073 -1.45142 0
M  V30 5623 H 505.969 -0.647903 -0.692044 0
M  V30 5624 H 505.675 -1.93759 -2.93514 0
M  V30 5625 H 505.549 -0.389585 -3.75183 0
M  V30 5626 H 507.936 0.187357 -2.94505 0
M  V30 5627 H 508.017 -1.38999 -2.14739 0
M  V30 5628 H 507.661 -2.52572 -4.40647 0
M  V30 5629 H 507.591 -0.924464 -5.18422 0
M  V30 5630 H 510.082 -1.05694 -3.62819 0
M  V30 5631 H 510.395 -2.75466 -7.22038 0
M  V30 5632 H 508.74 -2.47085 -6.49595 0
M  V30 5633 H 511.931 -1.38989 -4.46989 0
M  V30 5634 H 512.104 -2.16385 -6.10804 0
M  V30 5635 N 505.51 1.54411 -0.315457 0
M  V30 5636 C 506.442 2.21527 0.588067 0
M  V30 5637 C 507.455 1.21263 1.08624 0
M  V30 5638 O 508.644 1.47777 1.00121 0
M  V30 5639 C 505.744 2.85963 1.81875 0
M  V30 5640 C 504.917 4.12291 1.46063 0
M  V30 5641 C 503.976 4.60396 2.54799 0
M  V30 5642 O 503.002 5.25265 2.19283 0
M  V30 5643 N 504.204 4.33935 3.85591 0
M  V30 5644 H 506.969 2.99697 0.013414 0
M  V30 5645 H 504.53 1.61308 -0.138295 0
M  V30 5646 H 506.522 3.15071 2.53993 0
M  V30 5647 H 505.092 2.11548 2.30144 0
M  V30 5648 H 504.312 3.90036 0.571445 0
M  V30 5649 H 505.6 4.9452 1.19695 0
M  V30 5650 H 504.998 3.81996 4.17248 0
M  V30 5651 H 503.555 4.67718 4.53964 0
M  V30 5652 N 506.988 0.0434614 1.5754 0
M  V30 5653 C 507.935 -0.93356 2.11077 0
M  V30 5654 C 508.905 -1.31383 1.01626 0
M  V30 5655 O 510.09 -1.40465 1.29129 0
M  V30 5656 C 507.23 -2.20578 2.65404 0
M  V30 5657 C 506.343 -1.88068 3.88914 0
M  V30 5658 C 505.478 -3.09691 4.31584 0
M  V30 5659 C 504.517 -2.73067 5.47815 0
M  V30 5660 N 503.654 -3.87359 5.85574 0
M  V30 5661 H 508.494 -0.470118 2.94268 0
M  V30 5662 H 506.031 -0.220434 1.45439 0
M  V30 5663 H 507.989 -2.95011 2.94999 0
M  V30 5664 H 506.619 -2.64513 1.85021 0
M  V30 5665 H 505.671 -1.03816 3.6596 0
M  V30 5666 H 506.983 -1.57104 4.73413 0
M  V30 5667 H 506.137 -3.92431 4.62691 0
M  V30 5668 H 504.876 -3.43827 3.45882 0
M  V30 5669 H 503.881 -1.88742 5.16388 0
M  V30 5670 H 505.106 -2.40131 6.35227 0
M  V30 5671 H 503.052 -4.21311 5.02825 0
M  V30 5672 H 502.969 -3.60068 6.64746 0
M  V30 5673 H 504.237 -4.70761 6.21292 0
M  V30 5674 N 508.466 -1.55915 -0.229846 0
M  V30 5675 C 509.429 -1.90914 -1.26824 0
M  V30 5676 C 510.429 -0.786999 -1.40225 0
M  V30 5677 O 511.619 -1.05484 -1.38632 0
M  V30 5678 C 508.751 -2.15264 -2.64337 0
M  V30 5679 H 509.944 -2.8378 -0.969998 0
M  V30 5680 H 507.497 -1.49069 -0.4699 0
M  V30 5681 H 508.232 -1.24923 -2.99274 0
M  V30 5682 H 508.017 -2.97005 -2.55989 0
M  V30 5683 H 509.507 -2.43467 -3.39284 0
M  V30 5684 N 509.944 0.496216 -1.49584 0
M  V30 5685 C 511.355 1.07765 -1.52459 0
M  V30 5686 C 511.706 1.93679 -0.31353 0
M  V30 5687 O 510.831 2.08588 0.576186 0
M  V30 5688 C 511.426 1.96111 -2.76271 0
M  V30 5689 C 509.985 2.49409 -2.81908 0
M  V30 5690 C 509.132 1.27142 -2.46435 0
M  V30 5691 H 512.083 0.279914 -1.56212 0
M  V30 5692 H 512.104 2.80862 -2.56704 0
M  V30 5693 H 511.616 1.33555 -3.64396 0
M  V30 5694 H 509.717 3.1559 -1.98074 0
M  V30 5695 H 509.83 2.86234 -3.84196 0
M  V30 5696 H 508.194 1.59818 -1.98319 0
M  V30 5697 H 508.977 0.662866 -3.3684 0
M  V30 5698 N 511.423 1.38739 0.74761 0
M  V30 5699 C 512.669 1.35475 1.50912 0
M  V30 5700 C 513.002 -0.0533093 1.94127 0
M  V30 5701 O 512.277 -1.01572 1.65871 0
M  V30 5702 C 512.56 2.31582 2.75757 0
M  V30 5703 C 512.413 3.81274 2.38642 0
M  V30 5704 C 513.732 2.25722 3.77806 0
M  V30 5705 H 510.851 0.493427 0.547447 0
M  V30 5706 H 513.493 1.69634 0.855823 0
M  V30 5707 H 511.643 2.02582 3.31501 0
M  V30 5708 H 513.315 4.20972 1.88626 0
M  V30 5709 H 511.558 3.98664 1.71025 0
M  V30 5710 H 512.229 4.4399 3.27989 0
M  V30 5711 H 514.705 2.51336 3.31616 0
M  V30 5712 H 513.581 2.95069 4.62845 0
M  V30 5713 H 513.842 1.25803 4.23823 0
M  V30 5714 N 512.901 -0.976442 1.23707 0
M  V30 5715 C 514.129 -1.75341 1.09833 0
M  V30 5716 C 514.544 -1.8553 -0.349885 0
M  V30 5717 O 513.901 -1.33732 -1.24185 0
M  V30 5718 C 513.952 -3.17833 1.72233 0
M  V30 5719 O 513.673 -3.08167 3.11391 0
M  V30 5720 C 515.174 -4.11906 1.63853 0
M  V30 5721 H 512.394 -0.550137 0.384175 0
M  V30 5722 H 514.938 -1.2265 1.63638 0
M  V30 5723 H 513.093 -3.67538 1.22452 0
M  V30 5724 H 513.507 -3.97897 3.41729 0
M  V30 5725 H 514.981 -5.09579 2.12211 0
M  V30 5726 H 515.458 -4.35109 0.598092 0
M  V30 5727 H 516.064 -3.68107 2.13019 0
M  V30 5728 N 514.379 -1.04941 -1.1758 0
M  V30 5729 C 515.342 -0.652456 -2.19717 0
M  V30 5730 C 516.342 0.294745 -1.58076 0
M  V30 5731 O 517.532 0.0789579 -1.74021 0
M  V30 5732 C 514.664 0.0420712 -3.40874 0
M  V30 5733 H 515.857 -1.55642 -2.5635 0
M  V30 5734 H 513.41 -0.842995 -1.31618 0
M  V30 5735 H 514.145 0.95943 -3.09783 0
M  V30 5736 H 513.93 -0.638844 -3.86861 0
M  V30 5737 H 515.42 0.306 -4.16477 0
M  V30 5738 N 515.857 1.33968 -0.830081 0
M  V30 5739 C 517.105 1.97672 -0.420734 0
M  V30 5740 C 517.426 1.66111 1.02138 0
M  V30 5741 O 516.696 0.955503 1.71017 0
M  V30 5742 H 515.276 0.73125 -0.152587 0
M  V30 5743 H 517.938 1.63483 -1.0611 0
M  V30 5744 H 517.034 3.07294 -0.545588 0
M  V30 5745 N 517.335 0.585699 1.46312 0
M  V30 5746 C 518.265 -0.133556 2.33118 0
M  V30 5747 C 519.246 -0.880707 1.45525 0
M  V30 5748 O 520.431 -0.855579 1.74337 0
M  V30 5749 C 517.561 -1.14585 3.27853 0
M  V30 5750 C 516.515 -0.513341 4.2491 0
M  V30 5751 C 515.841 -1.63231 5.09175 0
M  V30 5752 C 517.141 0.551413 5.19381 0
M  V30 5753 H 518.835 0.59121 2.93505 0
M  V30 5754 H 516.381 0.285761 1.41136 0
M  V30 5755 H 518.334 -1.65741 3.87438 0
M  V30 5756 H 517.058 -1.90093 2.65579 0
M  V30 5757 H 515.717 -0.0228349 3.66593 0
M  V30 5758 H 515.365 -2.37713 4.43285 0
M  V30 5759 H 515.065 -1.21473 5.74907 0
M  V30 5760 H 516.589 -2.14658 5.71624 0
M  V30 5761 H 518.003 0.124804 5.73164 0
M  V30 5762 H 516.4 0.889486 5.93471 0
M  V30 5763 H 517.47 1.43655 4.63132 0
M  V30 5764 N 518.813 -1.54241 0.323641 0
M  V30 5765 C 520.229 -1.59574 -0.0290018 0
M  V30 5766 C 520.429 -1.34017 -1.50472 0
M  V30 5767 O 519.485 -1.12464 -2.26071 0
M  V30 5768 C 520.798 -2.98169 0.389295 0
M  V30 5769 C 522.346 -3.11148 0.339958 0
M  V30 5770 C 522.821 -4.5209 0.733418 0
M  V30 5771 N 524.312 -4.5808 0.686827 0
M  V30 5772 C 525.047 -5.65248 0.963464 0
M  V30 5773 N 524.543 -6.80355 1.30724 0
M  V30 5774 N 526.336 -5.55025 0.88902 0
M  V30 5775 H 518.487 -1.6911 1.28512 0
M  V30 5776 H 520.75 -0.790972 0.522558 0
M  V30 5777 H 520.456 -3.21871 1.41746 0
M  V30 5778 H 520.33 -3.76399 -0.245657 0
M  V30 5779 H 522.717 -2.87182 -0.679002 0
M  V30 5780 H 522.798 -2.35023 1.00985 0
M  V30 5781 H 522.442 -4.76788 1.75029 0
M  V30 5782 H 522.372 -5.26584 0.0412189 0
M  V30 5783 H 524.863 -3.75411 0.43298 0
M  V30 5784 H 525.176 -7.58029 1.5037 0
M  V30 5785 H 523.521 -6.81851 1.3455 0
M  V30 5786 H 526.712 -4.63977 0.619939 0
M  V30 5787 H 526.885 -6.38458 1.10797 0
M  V30 5788 N 520.291 -0.0518155 -1.57515 0
M  V30 5789 C 521.521 0.63048 -1.96745 0
M  V30 5790 C 521.929 1.64875 -0.928054 0
M  V30 5791 O 521.272 1.83449 0.0960678 0
M  V30 5792 C 521.334 1.37381 -3.32215 0
M  V30 5793 C 520.998 0.511298 -4.54131 0
M  V30 5794 C 521.995 -0.222884 -5.19422 0
M  V30 5795 C 519.68 0.442035 -5.00351 0
M  V30 5796 C 521.674 -1.01476 -6.2927 0
M  V30 5797 C 519.361 -0.35353 -6.10077 0
M  V30 5798 C 520.359 -1.08062 -6.74397 0
M  V30 5799 O 520.047 -1.8631 -7.82013 0
M  V30 5800 H 519.779 0.177126 -0.652382 0
M  V30 5801 H 522.333 -0.114726 -2.05079 0
M  V30 5802 H 520.563 2.16466 -3.20436 0
M  V30 5803 H 522.252 1.9464 -3.56188 0
M  V30 5804 H 523.018 -0.178846 -4.8467 0
M  V30 5805 H 518.897 0.997562 -4.50077 0
M  V30 5806 H 522.441 -1.58279 -6.79407 0
M  V30 5807 H 518.338 -0.399205 -6.44264 0
M  V30 5808 H 519.106 -1.78528 -7.98793 0
M  V30 5809 N 521.769 1.56035 0.221574 0
M  V30 5810 C 523.017 1.78693 0.944102 0
M  V30 5811 C 523.338 0.620317 1.8487 0
M  V30 5812 O 522.608 -0.362784 1.92512 0
M  V30 5813 H 521.188 0.659082 0.351597 0
M  V30 5814 H 523.85 1.93497 0.233435 0
M  V30 5815 H 522.946 2.70837 1.55093 0
M  V30 5816 N 523.247 -0.488276 1.49845 0
M  V30 5817 C 524.194 -1.58836 1.67451 0
M  V30 5818 C 525.164 -1.57886 0.515857 0
M  V30 5819 O 526.349 -1.75679 0.744403 0
M  V30 5820 C 523.489 -2.96915 1.75885 0
M  V30 5821 C 522.602 -3.07784 3.03138 0
M  V30 5822 C 521.737 -4.36673 3.02473 0
M  V30 5823 C 520.776 -4.41222 4.24252 0
M  V30 5824 N 519.913 -5.61557 4.21424 0
M  V30 5825 H 524.753 -1.43131 2.61376 0
M  V30 5826 H 522.29 -0.696186 1.29583 0
M  V30 5827 H 524.248 -3.76965 1.78755 0
M  V30 5828 H 522.878 -3.11295 0.85414 0
M  V30 5829 H 521.93 -2.20717 3.09819 0
M  V30 5830 H 523.242 -3.07005 3.93128 0
M  V30 5831 H 522.396 -5.25055 3.03977 0
M  V30 5832 H 521.135 -4.40037 2.10283 0
M  V30 5833 H 520.14 -3.5124 4.22978 0
M  V30 5834 H 521.365 -4.39564 5.17649 0
M  V30 5835 H 519.311 -5.65738 3.32078 0
M  V30 5836 H 519.228 -5.62447 5.05163 0
M  V30 5837 H 520.496 -6.52111 4.2705 0
M  V30 5838 N 524.725 -1.39134 -0.740242 0
M  V30 5839 C 525.971 -1.37278 -1.50088 0
M  V30 5840 C 526.326 0.0329967 -1.92372 0
M  V30 5841 O 525.619 0.998447 -1.63529 0
M  V30 5842 C 525.813 -2.27457 -2.75678 0
M  V30 5843 C 525.642 -3.76662 -2.45674 0
M  V30 5844 C 524.412 -4.45617 -2.38229 0
M  V30 5845 C 526.61 -4.6877 -2.11563 0
M  V30 5846 N 524.592 -5.80187 -2.00641 0
M  V30 5847 C 525.963 -5.91951 -1.84376 0
M  V30 5848 C 528.018 -4.56843 -1.97987 0
M  V30 5849 C 526.721 -7.04538 -1.4498 0
M  V30 5850 C 528.747 -5.69347 -1.59994 0
M  V30 5851 C 528.109 -6.91597 -1.33687 0
M  V30 5852 H 524.208 -0.557611 -0.548265 0
M  V30 5853 H 526.792 -1.74638 -0.860784 0
M  V30 5854 H 524.963 -1.92263 -3.37475 0
M  V30 5855 H 526.695 -2.16631 -3.41838 0
M  V30 5856 H 523.45 -3.98993 -2.5515 0
M  V30 5857 H 523.874 -6.51387 -1.84454 0
M  V30 5858 H 528.516 -3.62868 -2.16995 0
M  V30 5859 H 526.234 -7.98419 -1.24712 0
M  V30 5860 H 529.82 -5.62104 -1.50102 0
M  V30 5861 H 528.7 -7.77176 -1.04728 0
M  V30 5862 N 526.204 0.969867 -1.24223 0
M  V30 5863 C 527.45 1.7151 -1.08223 0
M  V30 5864 C 527.783 1.90478 0.37838 0
M  V30 5865 O 527.058 1.4647 1.27971 0
M  V30 5866 C 527.341 3.10714 -1.82013 0
M  V30 5867 C 527.194 2.9925 -3.35811 0
M  V30 5868 C 528.513 4.10332 -1.59108 0
M  V30 5869 H 525.632 0.622499 -0.394543 0
M  V30 5870 H 528.274 1.1284 -1.52863 0
M  V30 5871 H 526.424 3.608 -1.44068 0
M  V30 5872 H 528.096 2.56608 -3.83341 0
M  V30 5873 H 526.339 2.35512 -3.64303 0
M  V30 5874 H 527.01 3.97857 -3.82641 0
M  V30 5875 H 529.486 3.69097 -1.92111 0
M  V30 5876 H 528.362 5.05804 -2.13198 0
M  V30 5877 H 528.623 4.38926 -0.528832 0
M  V30 5878 N 527.682 1.05563 1.17022 0
M  V30 5879 C 528.931 0.763036 1.8671 0
M  V30 5880 C 529.244 -0.712857 1.82147 0
M  V30 5881 O 530.45 -1.11955 2.47343 0
M  V30 5882 C 528.906 1.31474 3.35026 0
M  V30 5883 C 528.514 2.82034 3.48081 0
M  V30 5884 C 530.258 1.09935 4.10018 0
M  V30 5885 C 528.165 3.30486 4.90442 0
M  V30 5886 H 527.095 0.281747 0.699382 0
M  V30 5887 H 529.746 1.2734 1.32124 0
M  V30 5888 H 528.128 0.732171 3.89173 0
M  V30 5889 H 529.302 3.46178 3.04133 0
M  V30 5890 H 527.617 3.02156 2.86515 0
M  V30 5891 H 530.214 1.43632 5.15048 0
M  V30 5892 H 530.557 0.0373072 4.16283 0
M  V30 5893 H 531.09 1.64732 3.62089 0
M  V30 5894 H 527.829 4.36137 4.89352 0
M  V30 5895 H 527.349 2.71086 5.35044 0
M  V30 5896 H 529.028 3.25382 5.59227 0
M  V30 5897 N 529.16 -1.33526 0.837174 0
M  V30 5898 C 530.437 -1.92369 0.354065 0
M  V30 5899 C 530.817 -1.76348 -1.16038 0
M  V30 5900 O 530.165 -1.15083 -1.97403 0
M  V30 5901 C 530.375 -3.39728 0.799101 0
M  V30 5902 C 531.723 -4.16877 0.806139 0
M  V30 5903 O 532.747 -3.48373 0.742597 0
M  V30 5904 O 531.606 -5.39166 0.892345 0
M  V30 5905 H 528.7 -0.820952 0.0998378 0
M  V30 5906 H 531.246 -1.42409 0.922913 0
M  V30 5907 H 530.018 -3.45254 1.84162 0
M  V30 5908 H 529.641 -3.97062 0.206731 0
M  V30 5909 N 530.638 -0.59345 -1.46 0
M  V30 5910 C 532.049 -0.169801 -1.85926 0
M  V30 5911 C 532.4 1.26984 -1.49565 0
M  V30 5912 O 531.525 1.96076 -0.915602 0
M  V30 5913 C 532.12 -0.301385 -3.37457 0
M  V30 5914 C 530.679 0.0674684 -3.7634 0
M  V30 5915 C 529.826 -0.632383 -2.69993 0
M  V30 5916 H 532.777 -0.801014 -1.37002 0
M  V30 5917 H 532.798 0.470331 -3.77582 0
M  V30 5918 H 532.31 -1.34927 -3.63891 0
M  V30 5919 H 530.411 1.11507 -3.55523 0
M  V30 5920 H 530.524 -0.316332 -4.78055 0
M  V30 5921 H 528.888 -0.0714961 -2.546 0
M  V30 5922 H 529.671 -1.68212 -2.99265 0
M  V30 5923 N 532.116 1.54067 -0.331816 0
M  V30 5924 C 533.341 2.05599 0.272705 0
M  V30 5925 C 533.766 1.2059 1.44359 0
M  V30 5926 O 533.124 0.216907 1.79998 0
M  V30 5927 C 533.172 3.54188 0.677021 0
M  V30 5928 O 532.276 3.72082 1.77844 0
M  V30 5929 H 531.617 0.662286 0.0476801 0
M  V30 5930 H 534.147 1.98826 -0.482624 0
M  V30 5931 H 534.157 3.96608 0.957415 0
M  V30 5932 H 532.832 4.15513 -0.179325 0
M  V30 5933 H 531.409 3.41566 1.49622 0
M  V30 5934 N 533.594 0.0601682 1.57485 0
M  V30 5935 C 534.504 -0.926121 2.15546 0
M  V30 5936 C 535.52 -1.33532 1.11558 0
M  V30 5937 O 536.696 -1.4104 1.4377 0
M  V30 5938 C 533.761 -2.17952 2.69625 0
M  V30 5939 C 532.822 -1.82783 3.88444 0
M  V30 5940 C 532.055 -3.02148 4.39935 0
M  V30 5941 O 532.278 -4.15803 3.90466 0
M  V30 5942 O 531.212 -2.82639 5.31412 0
M  V30 5943 H 535.038 -0.462289 3.00161 0
M  V30 5944 H 532.623 -0.162246 1.48516 0
M  V30 5945 H 534.505 -2.91474 3.04337 0
M  V30 5946 H 533.18 -2.63456 1.88077 0
M  V30 5947 H 532.087 -1.06549 3.58606 0
M  V30 5948 H 533.42 -1.42072 4.7125 0
M  V30 5949 N 535.072 -1.5615 -0.213296 0
M  V30 5950 C 536.002 -1.96109 -1.26742 0
M  V30 5951 C 536.983 -0.830448 -1.48451 0
M  V30 5952 O 538.168 -1.09339 -1.60495 0
M  V30 5953 C 535.298 -2.28492 -2.61551 0
M  V30 5954 C 534.252 -3.44124 -2.54485 0
M  V30 5955 C 533.578 -3.62134 -3.93399 0
M  V30 5956 C 534.878 -4.78855 -2.08556 0
M  V30 5957 H 536.572 -2.84412 -0.935434 0
M  V30 5958 H 534.118 -1.36836 -0.44854 0
M  V30 5959 H 536.071 -2.55039 -3.3546 0
M  V30 5960 H 534.795 -1.37052 -2.96453 0
M  V30 5961 H 533.454 -3.17639 -1.83033 0
M  V30 5962 H 533.102 -2.68055 -4.25623 0
M  V30 5963 H 532.802 -4.39913 -3.89551 0
M  V30 5964 H 534.326 -3.91038 -4.68958 0
M  V30 5965 H 535.74 -5.04552 -2.72213 0
M  V30 5966 H 534.137 -5.59975 -2.1575 0
M  V30 5967 H 535.207 -4.73657 -1.03811 0
M  V30 5968 N 536.55 0.480323 -1.50102 0
M  V30 5969 C 537.778 1.25657 -1.64371 0
M  V30 5970 C 538.193 1.86011 -0.323316 0
M  V30 5971 O 537.55 1.68803 0.693682 0
M  V30 5972 C 537.601 2.37197 -2.728 0
M  V30 5973 O 537.322 1.7932 -3.9972 0
M  V30 5974 C 538.823 3.2823 -2.9796 0
M  V30 5975 H 536.043 0.380369 -0.552775 0
M  V30 5976 H 538.587 0.574379 -1.96268 0
M  V30 5977 H 536.742 3.01208 -2.43623 0
M  V30 5978 H 537.156 2.52701 -4.59611 0
M  V30 5979 H 538.63 4.02725 -3.77513 0
M  V30 5980 H 539.107 3.86462 -2.08671 0
M  V30 5981 H 539.713 2.69964 -3.28633 0
M  V30 5982 N 538.028 1.39524 0.732853 0
M  V30 5983 C 539.275 1.36865 1.49246 0
M  V30 5984 C 539.603 -0.0347118 1.94469 0
M  V30 5985 O 538.858 -1.01596 1.67262 0
M  V30 5986 C 539.157 2.28916 2.74468 0
M  V30 5987 C 538.823 3.76506 2.481 0
M  V30 5988 C 537.485 4.16721 2.40619 0
M  V30 5989 C 539.837 4.69846 2.25598 0
M  V30 5990 C 537.165 5.48334 2.08679 0
M  V30 5991 C 539.517 6.01739 1.95174 0
M  V30 5992 C 538.181 6.41015 1.86163 0
M  V30 5993 H 537.451 0.500824 0.546129 0
M  V30 5994 H 540.098 1.72047 0.840958 0
M  V30 5995 H 538.403 1.86859 3.4437 0
M  V30 5996 H 540.1 2.2415 3.32502 0
M  V30 5997 H 536.69 3.44635 2.54803 0
M  V30 5998 H 540.874 4.39608 2.30344 0
M  V30 5999 H 536.13 5.77685 2.00226 0
M  V30 6000 H 540.304 6.73591 1.76771 0
M  V30 6001 H 537.931 7.42917 1.61179 0
M  V30 6002 N 539.506 -0.963266 1.24736 0
M  V30 6003 C 540.752 -1.70933 1.09131 0
M  V30 6004 C 541.085 -1.90676 -0.368273 0
M  V30 6005 O 540.36 -1.47147 -1.27193 0
M  V30 6006 C 540.643 -3.09744 1.83658 0
M  V30 6007 C 540.496 -2.97465 3.37394 0
M  V30 6008 C 541.815 -4.09483 1.61282 0
M  V30 6009 H 538.934 -0.620398 0.397838 0
M  V30 6010 H 541.576 -1.12028 1.53459 0
M  V30 6011 H 539.726 -3.60031 1.4598 0
M  V30 6012 H 541.398 -2.54571 3.84696 0
M  V30 6013 H 539.641 -2.33576 3.65547 0
M  V30 6014 H 540.312 -3.95822 3.84745 0
M  V30 6015 H 542.788 -3.68073 1.94066 0
M  V30 6016 H 541.664 -5.04666 2.15878 0
M  V30 6017 H 541.925 -4.38639 0.552102 0
M  V30 6018 N 540.985 -1.06182 -1.16461 0
M  V30 6019 C 541.917 -0.629584 -2.20383 0
M  V30 6020 C 542.93 0.311834 -1.59786 0
M  V30 6021 O 544.119 0.103 -1.78203 0
M  V30 6022 C 541.219 0.0973695 -3.3876 0
M  V30 6023 C 540.392 -0.857252 -4.28917 0
M  V30 6024 C 539.451 -0.169749 -5.25926 0
M  V30 6025 O 538.477 -0.807044 -5.6345 0
M  V30 6026 N 539.679 1.08911 -5.70192 0
M  V30 6027 H 542.444 -1.52352 -2.58087 0
M  V30 6028 H 540.005 -0.944993 -1.31459 0
M  V30 6029 H 541.997 0.567676 -4.00699 0
M  V30 6030 H 540.567 0.893093 -2.99571 0
M  V30 6031 H 539.787 -1.50696 -3.64259 0
M  V30 6032 H 541.075 -1.50489 -4.86035 0
M  V30 6033 H 540.473 1.62703 -5.41797 0
M  V30 6034 H 539.03 1.50331 -6.34227 0
M  V30 6035 N 542.463 1.3308 -0.844243 0
M  V30 6036 C 543.373 2.32876 -0.283922 0
M  V30 6037 C 544.389 1.63589 0.592846 0
M  V30 6038 O 545.565 1.95205 0.495693 0
M  V30 6039 C 542.63 3.42667 0.527283 0
M  V30 6040 C 541.691 4.27664 -0.374394 0
M  V30 6041 C 540.924 5.32212 0.39819 0
M  V30 6042 O 541.147 5.46635 1.62932 0
M  V30 6043 O 540.081 6.01458 -0.2306 0
M  V30 6044 H 543.907 2.82671 -1.11045 0
M  V30 6045 H 541.492 1.36518 -0.606903 0
M  V30 6046 H 543.374 4.09652 0.988078 0
M  V30 6047 H 542.049 2.95079 1.33078 0
M  V30 6048 H 540.956 3.63526 -0.883144 0
M  V30 6049 H 542.289 4.78749 -1.1428 0
M  V30 6050 N 543.941 0.601185 1.45683 0
M  V30 6051 C 545.19 0.0914953 2.01492 0
M  V30 6052 C 545.503 -1.28331 1.47616 0
M  V30 6053 O 546.709 -1.88537 1.95362 0
M  V30 6054 C 545.165 0.11291 3.59723 0
M  V30 6055 C 544.773 1.48717 4.22596 0
M  V30 6056 C 546.517 -0.341871 4.23121 0
M  V30 6057 C 544.424 1.46531 5.7296 0
M  V30 6058 H 543.354 0.0304365 0.753385 0
M  V30 6059 H 546.005 0.755568 1.67223 0
M  V30 6060 H 544.387 -0.617692 3.91153 0
M  V30 6061 H 545.561 2.23897 4.02749 0
M  V30 6062 H 543.876 1.88351 3.71366 0
M  V30 6063 H 546.473 -0.377304 5.33367 0
M  V30 6064 H 546.816 -1.36325 3.93346 0
M  V30 6065 H 547.349 0.335256 3.96385 0
M  V30 6066 H 544.088 2.46408 6.07423 0
M  V30 6067 H 543.608 0.755997 5.95017 0
M  V30 6068 H 545.287 1.18618 6.36034 0
M  V30 6069 N 545.419 -1.53889 0.339982 0
M  V30 6070 C 546.667 -2.00458 -0.257112 0
M  V30 6071 C 546.988 -1.22953 -1.51353 0
M  V30 6072 O 546.258 -0.335734 -1.93002 0
M  V30 6073 H 544.838 -0.740544 -0.0979965 0
M  V30 6074 H 547.5 -1.89386 0.460317 0
M  V30 6075 H 546.596 -3.08035 -0.502057 0
M  V30 6076 N 546.897 -0.0685191 -1.57451 0
M  V30 6077 C 548.122 0.613919 -1.98106 0
M  V30 6078 C 548.547 1.62551 -0.946501 0
M  V30 6079 O 547.905 1.81085 0.0882824 0
M  V30 6080 C 547.953 1.26189 -3.378 0
M  V30 6081 O 547.057 2.37773 -3.36954 0
M  V30 6082 H 546.398 0.158163 -0.644888 0
M  V30 6083 H 548.928 -0.142063 -2.04106 0
M  V30 6084 H 548.938 1.60951 -3.74912 0
M  V30 6085 H 547.613 0.520625 -4.12629 0
M  V30 6086 H 546.19 2.04829 -3.11608 0
M  V30 6087 N 548.375 1.56261 0.205012 0
M  V30 6088 C 549.623 1.79684 0.925096 0
M  V30 6089 C 549.944 0.63989 1.84202 0
M  V30 6090 O 549.214 -0.342345 1.92885 0
M  V30 6091 H 547.794 0.662774 0.344587 0
M  V30 6092 H 550.456 1.93734 0.212899 0
M  V30 6093 H 549.552 2.72467 1.52211 0
M  V30 6094 N 549.853 -0.472356 1.50355 0
M  V30 6095 C 550.785 -1.58795 1.65278 0
M  V30 6096 C 551.798 -1.53782 0.534313 0
M  V30 6097 O 552.987 -1.59193 0.807446 0
M  V30 6098 C 550.087 -2.97672 1.62001 0
M  V30 6099 C 549.26 -3.27568 2.89859 0
M  V30 6100 C 548.319 -4.45993 2.79242 0
M  V30 6101 O 547.345 -4.46364 3.53197 0
M  V30 6102 N 548.547 -5.47578 1.92713 0
M  V30 6103 H 551.312 -1.46411 2.61503 0
M  V30 6104 H 548.873 -0.660751 1.47803 0
M  V30 6105 H 550.865 -3.74862 1.52513 0
M  V30 6106 H 549.435 -3.03832 0.735159 0
M  V30 6107 H 548.655 -2.39003 3.13483 0
M  V30 6108 H 549.943 -3.44352 3.74565 0
M  V30 6109 H 549.341 -5.50099 1.31939 0
M  V30 6110 H 547.898 -6.23757 1.8913 0
M  V30 6111 N 551.331 -1.39911 -0.725443 0
M  V30 6112 C 552.578 -1.37654 -1.48518 0
M  V30 6113 C 552.906 0.0243982 -1.94485 0
M  V30 6114 O 552.161 1.00708 -1.67799 0
M  V30 6115 C 552.46 -2.30368 -2.7325 0
M  V30 6116 C 552.126 -3.77817 -2.461 0
M  V30 6117 C 550.788 -4.17991 -2.38405 0
M  V30 6118 C 553.14 -4.71036 -2.23103 0
M  V30 6119 C 550.468 -5.49433 -2.05768 0
M  V30 6120 C 552.82 -6.02766 -1.9198 0
M  V30 6121 C 551.484 -6.41993 -1.82761 0
M  V30 6122 H 550.754 -0.503713 -0.543465 0
M  V30 6123 H 553.401 -1.7249 -0.831822 0
M  V30 6124 H 551.706 -1.88683 -3.43375 0
M  V30 6125 H 553.403 -2.2591 -3.31309 0
M  V30 6126 H 549.993 -3.45982 -2.52972 0
M  V30 6127 H 554.177 -4.40823 -2.2801 0
M  V30 6128 H 549.433 -5.78738 -1.9716 0
M  V30 6129 H 553.607 -6.74519 -1.73197 0
M  V30 6130 H 551.234 -7.43761 -1.57237 0
M  V30 6131 N 552.809 0.956637 -1.25245 0
M  V30 6132 C 554.057 1.69764 -1.09657 0
M  V30 6133 C 554.378 1.91583 0.363464 0
M  V30 6134 O 553.648 1.50149 1.25825 0
M  V30 6135 H 552.228 0.629097 -0.402798 0
M  V30 6136 H 554.89 1.15026 -1.57337 0
M  V30 6137 H 553.986 2.67769 -1.60331 0
M  V30 6138 N 554.287 1.06798 1.15896 0
M  V30 6139 C 555.217 0.704677 2.22613 0
M  V30 6140 C 556.198 -0.305252 1.67339 0
M  V30 6141 O 557.383 -0.179247 1.93371 0
M  V30 6142 C 554.513 0.0957325 3.47168 0
M  V30 6143 C 553.467 1.0322 4.15367 0
M  V30 6144 C 552.793 0.286293 5.33933 0
M  V30 6145 C 554.093 2.36341 4.65768 0
M  V30 6146 H 555.787 1.59688 2.53259 0
M  V30 6147 H 553.333 0.769257 1.21731 0
M  V30 6148 H 555.286 -0.170333 4.21056 0
M  V30 6149 H 554.01 -0.831516 3.15838 0
M  V30 6150 H 552.669 1.28309 3.43413 0
M  V30 6151 H 552.317 -0.644237 4.98857 0
M  V30 6152 H 552.017 0.910436 5.80504 0
M  V30 6153 H 553.541 0.0278938 6.10594 0
M  V30 6154 H 554.955 2.1561 5.31211 0
M  V30 6155 H 553.352 2.94299 5.2298 0
M  V30 6156 H 554.422 2.99047 3.81705 0
M  V30 6157 N 555.766 -1.3263 0.851289 0
M  V30 6158 C 557.012 -1.9766 0.453694 0
M  V30 6159 C 557.345 -1.67225 -0.987396 0
M  V30 6160 O 556.62 -0.958693 -1.69232 0
M  V30 6161 C 556.903 -3.5344 0.68936 0
M  V30 6162 C 556.756 -3.93517 2.17862 0
M  V30 6163 C 558.075 -4.39866 0.143555 0
M  V30 6164 H 555.194 -0.717989 0.166314 0
M  V30 6165 H 557.836 -1.57068 1.06909 0
M  V30 6166 H 555.986 -3.88147 0.165546 0
M  V30 6167 H 557.658 -3.69006 2.76826 0
M  V30 6168 H 555.901 -3.42798 2.65841 0
M  V30 6169 H 556.572 -5.02065 2.29422 0
M  V30 6170 H 559.048 -4.11875 0.591451 0
M  V30 6171 H 557.924 -5.47858 0.338043 0
M  V30 6172 H 558.185 -4.31696 -0.953466 0
M  V30 6173 N 557.244 -0.608902 -1.45362 0
M  V30 6174 C 558.194 0.130616 -2.27626 0
M  V30 6175 C 559.178 0.837323 -1.37396 0
M  V30 6176 O 560.37 0.727096 -1.61376 0
M  V30 6177 C 557.499 1.12646 -3.24293 0
M  V30 6178 C 556.585 0.42052 -4.2201 0
M  V30 6179 N 556.976 -0.538569 -5.02925 0
M  V30 6180 C 555.274 0.667901 -4.40971 0
M  V30 6181 C 555.975 -0.953625 -5.7383 0
M  V30 6182 N 554.951 -0.297097 -5.42788 0
M  V30 6183 H 558.753 -0.605996 -2.87585 0
M  V30 6184 H 556.267 -0.432672 -1.5653 0
M  V30 6185 H 558.264 1.67066 -3.81961 0
M  V30 6186 H 556.924 1.86361 -2.65894 0
M  V30 6187 H 557.935 -0.915375 -5.09746 0
M  V30 6188 H 554.612 1.38963 -3.93695 0
M  V30 6189 H 556.002 -1.74473 -6.48852 0
M  V30 6190 N 558.722 1.53707 -0.348139 0
M  V30 6191 C 559.652 2.28111 0.498766 0
M  V30 6192 C 560.633 1.29851 1.09876 0
M  V30 6193 O 561.818 1.587 1.11928 0
M  V30 6194 C 558.948 3.05735 1.64753 0
M  V30 6195 C 557.902 4.11537 1.17565 0
M  V30 6196 C 557.228 4.77142 2.4133 0
M  V30 6197 C 558.528 5.21587 0.272844 0
M  V30 6198 H 560.222 2.99152 -0.121934 0
M  V30 6199 H 557.768 1.43875 -0.0600842 0
M  V30 6200 H 559.721 3.56526 2.24649 0
M  V30 6201 H 558.445 2.32354 2.2952 0
M  V30 6202 H 557.104 3.61665 0.599483 0
M  V30 6203 H 556.752 4.0035 3.04514 0
M  V30 6204 H 556.452 5.48626 2.10436 0
M  V30 6205 H 557.976 5.30719 3.01943 0
M  V30 6206 H 559.39 5.67986 0.778779 0
M  V30 6207 H 557.787 6.00074 0.0555849 0
M  V30 6208 H 558.857 4.79969 -0.689785 0
M  V30 6209 N 560.2 0.0768682 1.57412 0
M  V30 6210 C 561.448 -0.589918 1.93299 0
M  V30 6211 C 561.769 -1.69842 0.958049 0
M  V30 6212 O 561.039 -1.95899 0.00703261 0
M  V30 6213 H 559.619 -0.220901 0.713591 0
M  V30 6214 H 562.281 0.135917 1.94425 0
M  V30 6215 H 561.377 -1.01195 2.95239 0
M  V30 6216 N 561.678 -1.56367 -0.196722 0
M  V30 6217 C 562.908 -1.84371 -0.932254 0
M  V30 6218 C 563.316 -0.657013 -1.77426 0
M  V30 6219 O 562.659 0.383576 -1.79651 0
M  V30 6220 C 562.721 -3.06454 -1.87952 0
M  V30 6221 C 562.385 -4.40425 -1.21962 0
M  V30 6222 C 563.382 -5.16457 -0.597343 0
M  V30 6223 C 561.067 -4.8716 -1.22396 0
M  V30 6224 C 563.061 -6.37399 0.0117913 0
M  V30 6225 C 560.748 -6.08038 -0.610995 0
M  V30 6226 C 561.746 -6.83 0.00580487 0
M  V30 6227 O 561.434 -8.01589 0.609173 0
M  V30 6228 H 561.166 -0.616377 -0.277589 0
M  V30 6229 H 563.72 -2.04329 -0.209452 0
M  V30 6230 H 561.95 -2.82377 -2.64197 0
M  V30 6231 H 563.639 -3.21118 -2.48271 0
M  V30 6232 H 564.405 -4.81445 -0.586142 0
M  V30 6233 H 560.284 -4.2877 -1.69345 0
M  V30 6234 H 563.828 -6.9585 0.493836 0
M  V30 6235 H 559.725 -6.42519 -0.619693 0
M  V30 6236 H 560.493 -8.16935 0.505919 0
M  V30 6237 N 563.156 0.464375 -1.50603 0
M  V30 6238 C 564.402 1.21485 -1.63135 0
M  V30 6239 C 564.757 1.89538 -0.33063 0
M  V30 6240 O 564.05 1.79432 0.671903 0
M  V30 6241 C 564.244 2.278 -2.75394 0
M  V30 6242 C 564.073 1.70178 -4.16257 0
M  V30 6243 C 562.843 1.49854 -4.82568 0
M  V30 6244 C 565.041 1.19298 -5.00272 0
M  V30 6245 N 563.023 0.875458 -6.07626 0
M  V30 6246 C 564.394 0.693527 -6.16109 0
M  V30 6247 C 566.449 1.08216 -4.85998 0
M  V30 6248 C 565.152 0.0941808 -7.19238 0
M  V30 6249 C 567.178 0.496745 -5.8931 0
M  V30 6250 C 566.54 0.00770448 -7.044 0
M  V30 6251 H 562.639 0.433184 -0.651057 0
M  V30 6252 H 565.223 0.515748 -1.87745 0
M  V30 6253 H 563.394 2.95129 -2.52495 0
M  V30 6254 H 565.126 2.94814 -2.77249 0
M  V30 6255 H 561.881 1.75269 -4.39975 0
M  V30 6256 H 562.305 0.582135 -6.74493 0
M  V30 6257 H 566.947 1.44617 -3.97298 0
M  V30 6258 H 564.665 -0.28202 -8.07608 0
M  V30 6259 H 568.251 0.413275 -5.8033 0
M  V30 6260 H 567.131 -0.438188 -7.82975 0
M  V30 6261 N 564.634 1.40294 0.718013 0
M  V30 6262 C 565.564 1.43118 1.84498 0
M  V30 6263 C 566.545 0.292403 1.67568 0
M  V30 6264 O 567.73 0.500675 1.87635 0
M  V30 6265 C 564.86 1.29065 3.22427 0
M  V30 6266 C 563.814 2.40521 3.54025 0
M  V30 6267 C 563.14 2.11546 4.91073 0
M  V30 6268 C 564.44 3.82859 3.55269 0
M  V30 6269 H 566.134 2.37432 1.82391 0
M  V30 6270 H 563.68 1.14283 0.87609 0
M  V30 6271 H 565.633 1.29658 4.00957 0
M  V30 6272 H 564.357 0.312271 3.25104 0
M  V30 6273 H 563.016 2.39173 2.77834 0
M  V30 6274 H 562.664 1.12104 4.90348 0
M  V30 6275 H 562.364 2.86216 5.1318 0
M  V30 6276 H 563.888 2.13817 5.71939 0
M  V30 6277 H 565.302 3.86044 4.23843 0
M  V30 6278 H 563.699 4.57029 3.88902 0
M  V30 6279 H 564.769 4.12617 2.54706 0
M  V30 6280 N 566.112 -0.949982 1.2575 0
M  V30 6281 C 567.06 -2.06869 1.06339 0
M  V30 6282 C 568.054 -1.69399 -0.00708901 0
M  V30 6283 O 569.26 -1.79383 0.148897 0
M  V30 6284 H 565.635 -0.677197 0.326969 0
M  V30 6285 H 567.606 -2.20396 2.01167 0
M  V30 6286 C 566.355 -3.40503 0.703769 0
M  V30 6287 H 565.678 -3.69807 1.51931 0
M  V30 6288 H 567.118 -4.19623 0.607677 0
M  V30 6289 C 565.577 -3.31685 -0.5905 0
M  V30 6290 O 566.107 -3.67085 -1.63131 0
M  V30 6291 N 564.313 -2.84797 -0.577859 0
M  V30 6292 H 563.86 -2.56186 0.26951 0
M  V30 6293 H 563.818 -2.79279 -1.44398 0
M  V30 6294 N 567.59 -1.07411 -1.15328 0
M  V30 6295 C 568.537 -0.694995 -2.20087 0
M  V30 6296 C 569.507 0.313904 -1.63107 0
M  V30 6297 O 570.692 0.200216 -1.89747 0
M  V30 6298 C 567.832 -0.0996218 -3.44956 0
M  V30 6299 C 566.945 -1.16007 -4.16133 0
M  V30 6300 C 566.08 -0.529636 -5.28553 0
M  V30 6301 C 565.119 -1.57283 -5.91548 0
M  V30 6302 N 564.256 -0.964932 -6.95438 0
M  V30 6303 H 569.096 -1.5927 -2.51867 0
M  V30 6304 H 566.633 -0.796115 -1.23695 0
M  V30 6305 H 568.591 0.263197 -4.16369 0
M  V30 6306 H 567.221 0.761435 -3.13691 0
M  V30 6307 H 566.273 -1.64045 -3.4321 0
M  V30 6308 H 567.585 -1.95101 -4.59061 0
M  V30 6309 H 566.739 -0.114487 -6.06592 0
M  V30 6310 H 565.478 0.29307 -4.86819 0
M  V30 6311 H 564.483 -1.99775 -5.12221 0
M  V30 6312 H 565.708 -2.39783 -6.35359 0
M  V30 6313 H 563.654 -0.16314 -6.55797 0
M  V30 6314 H 563.571 -1.69311 -7.36797 0
M  V30 6315 H 564.839 -0.575305 -7.77374 0
M  V30 6316 N 569.068 1.32177 -0.85831 0
M  V30 6317 C 570.345 1.91781 -0.384624 0
M  V30 6318 C 570.725 1.78171 1.13217 0
M  V30 6319 O 570.073 1.18209 1.95548 0
M  V30 6320 C 570.283 3.38414 -0.853047 0
M  V30 6321 C 571.631 4.15542 -0.872359 0
M  V30 6322 O 572.655 3.47148 -0.797926 0
M  V30 6323 O 571.514 5.37678 -0.978009 0
M  V30 6324 H 568.608 0.819259 -0.112886 0
M  V30 6325 H 571.154 1.40923 -0.945453 0
M  V30 6326 H 569.926 3.4228 -1.89632 0
M  V30 6327 H 569.549 3.96683 -0.269874 0
M  V30 6328 N 570.547 0.616602 1.45037 0
M  V30 6329 C 571.494 -0.0969439 2.30596 0
M  V30 6330 C 572.464 -0.851151 1.42635 0
M  V30 6331 O 573.649 -0.835092 1.71554 0
M  V30 6332 C 570.789 -1.08234 3.27688 0
M  V30 6333 C 569.902 -0.328072 4.30752 0
M  V30 6334 C 569.037 -1.30399 5.14946 0
M  V30 6335 C 568.076 -0.538049 6.09731 0
M  V30 6336 N 567.213 -1.46371 6.86673 0
M  V30 6337 H 572.053 0.63864 2.91076 0
M  V30 6338 H 569.59 0.326733 1.43425 0
M  V30 6339 H 571.548 -1.66688 3.82454 0
M  V30 6340 H 570.178 -1.78523 2.68941 0
M  V30 6341 H 569.23 0.372136 3.78575 0
M  V30 6342 H 570.542 0.269142 4.98073 0
M  V30 6343 H 569.696 -1.96032 5.74157 0
M  V30 6344 H 568.435 -1.93514 4.47665 0
M  V30 6345 H 567.44 0.131852 5.49642 0
M  V30 6346 H 568.665 0.0881732 6.79043 0
M  V30 6347 H 566.611 -2.08233 6.22073 0
M  V30 6348 H 566.528 -0.920152 7.50379 0
M  V30 6349 H 567.796 -2.10932 7.50418 0
M  V30 6350 N 572.025 -1.5352 0.356285 0
M  V30 6351 C 573.271 -2.01414 -0.236653 0
M  V30 6352 C 573.604 -1.24339 -1.49176 0
M  V30 6353 O 572.879 -0.334496 -1.91602 0
M  V30 6354 C 573.162 -3.56059 -0.537982 0
M  V30 6355 C 573.015 -4.43835 0.730112 0
M  V30 6356 C 574.334 -4.19127 -1.34239 0
M  V30 6357 H 571.453 -0.732135 -0.0845386 0
M  V30 6358 H 574.095 -1.83854 0.479341 0
M  V30 6359 H 572.245 -3.71153 -1.14795 0
M  V30 6360 H 573.917 -4.40555 1.36782 0
M  V30 6361 H 572.16 -4.1218 1.3524 0
M  V30 6362 H 572.831 -5.49958 0.474358 0
M  V30 6363 H 575.307 -4.07809 -0.826498 0
M  V30 6364 H 574.183 -5.27378 -1.52198 0
M  V30 6365 H 574.444 -3.74581 -2.34822 0
M  V30 6366 N 573.503 -0.0852151 -1.57369 0
M  V30 6367 C 574.466 0.8627 -2.12344 0
M  V30 6368 C 575.466 1.21746 -1.05046 0
M  V30 6369 O 576.656 1.14852 -1.30976 0
M  V30 6370 C 573.788 2.1618 -2.63589 0
M  V30 6371 H 574.981 0.385511 -2.97412 0
M  V30 6372 H 572.534 0.163663 -1.55441 0
M  V30 6373 H 573.269 2.68406 -1.82013 0
M  V30 6374 H 573.054 1.91723 -3.4203 0
M  V30 6375 H 574.544 2.84011 -3.06149 0
M  V30 6376 N 574.981 1.5647 0.188427 0
M  V30 6377 C 576.23 1.80207 0.905995 0
M  V30 6378 C 576.543 0.659579 1.84144 0
M  V30 6379 O 577.749 0.781431 2.60011 0
M  V30 6380 C 576.205 3.19255 1.66145 0
M  V30 6381 C 575.813 4.41324 0.770504 0
M  V30 6382 C 577.557 3.52298 2.36826 0
M  V30 6383 C 575.464 5.71394 1.52521 0
M  V30 6384 H 574.394 0.671953 0.342045 0
M  V30 6385 H 577.045 1.82808 0.159164 0
M  V30 6386 H 575.427 3.10922 2.45242 0
M  V30 6387 H 576.601 4.60797 0.0177261 0
M  V30 6388 H 574.916 4.16035 0.174199 0
M  V30 6389 H 577.513 4.46715 2.93854 0
M  V30 6390 H 577.856 2.76359 3.11338 0
M  V30 6391 H 578.389 3.62108 1.6469 0
M  V30 6392 H 575.128 6.50316 0.82275 0
M  V30 6393 H 574.648 5.55928 2.25175 0
M  V30 6394 H 576.327 6.12747 2.07725 0
M  V30 6395 N 576.459 -0.456382 1.50847 0
M  V30 6396 C 577.406 -1.55249 1.70782 0
M  V30 6397 C 578.376 -1.56757 0.549231 0
M  V30 6398 O 579.561 -1.74061 0.7815 0
M  V30 6399 C 576.701 -2.93118 1.82143 0
M  V30 6400 C 575.814 -3.01285 3.09598 0
M  V30 6401 C 574.949 -4.30159 3.11667 0
M  V30 6402 C 573.988 -4.32124 4.33515 0
M  V30 6403 N 573.125 -5.52492 4.3324 0
M  V30 6404 H 577.965 -1.37555 2.64353 0
M  V30 6405 H 575.502 -0.668543 1.3103 0
M  V30 6406 H 577.46 -3.73088 1.86711 0
M  V30 6407 H 576.09 -3.09413 0.919978 0
M  V30 6408 H 575.142 -2.14096 3.14431 0
M  V30 6409 H 576.454 -2.98597 3.99551 0
M  V30 6410 H 575.608 -5.18489 3.15046 0
M  V30 6411 H 574.347 -4.35477 2.1957 0
M  V30 6412 H 573.352 -3.42189 4.30333 0
M  V30 6413 H 574.577 -4.28485 5.26856 0
M  V30 6414 H 572.523 -5.58567 3.44004 0
M  V30 6415 H 572.44 -5.51605 5.16979 0
M  V30 6416 H 573.708 -6.42906 4.40786 0
M  V30 6417 N 577.937 -1.40673 -0.710563 0
M  V30 6418 C 579.165 -1.42547 -1.4996 0
M  V30 6419 C 579.58 -0.0265485 -1.88781 0
M  V30 6420 O 578.937 0.950694 -1.55782 0
M  V30 6421 C 578.988 -2.32071 -2.77173 0
M  V30 6422 O 578.709 -3.66518 -2.39992 0
M  V30 6423 C 580.21 -2.42591 -3.71032 0
M  V30 6424 H 577.43 -0.486025 -0.462623 0
M  V30 6425 H 579.974 -1.84783 -0.876102 0
M  V30 6426 H 578.129 -1.93184 -3.35795 0
M  V30 6427 H 578.543 -4.14115 -3.21884 0
M  V30 6428 H 580.017 -3.09429 -4.57119 0
M  V30 6429 H 580.494 -1.4525 -4.14486 0
M  V30 6430 H 581.1 -2.82051 -3.18319 0
M  V30 6431 N 579.415 0.9433 -1.26252 0
M  V30 6432 C 580.664 1.68369 -1.11062 0
M  V30 6433 C 580.977 1.92514 0.346104 0
M  V30 6434 O 582.183 2.64358 0.618646 0
M  V30 6435 C 580.639 3.03171 -1.93946 0
M  V30 6436 C 580.247 2.86782 -3.4418 0
M  V30 6437 C 581.991 3.80916 -1.87359 0
M  V30 6438 C 579.898 4.17044 -4.19319 0
M  V30 6439 H 578.828 0.631469 -0.412023 0
M  V30 6440 H 581.479 1.04922 -1.50544 0
M  V30 6441 H 579.861 3.67587 -1.47296 0
M  V30 6442 H 581.035 2.31229 -3.98585 0
M  V30 6443 H 579.35 2.22482 -3.51981 0
M  V30 6444 H 581.947 4.77417 -2.40784 0
M  V30 6445 H 582.29 4.07658 -0.843857 0
M  V30 6446 H 582.823 3.2327 -2.31821 0
M  V30 6447 H 579.562 3.95487 -5.22753 0
M  V30 6448 H 579.082 4.72319 -3.69696 0
M  V30 6449 H 580.761 4.85513 -4.27651 0
M  V30 6450 N 580.893 1.08022 1.14757 0
M  V30 6451 C 582.309 0.807072 1.3769 0
M  V30 6452 C 582.509 -0.585504 1.92806 0
M  V30 6453 O 581.565 -1.34301 2.13821 0
M  V30 6454 C 582.878 1.88651 2.34161 0
M  V30 6455 C 584.426 1.91206 2.47809 0
M  V30 6456 C 584.901 2.98253 3.47576 0
M  V30 6457 N 586.392 2.974 3.55117 0
M  V30 6458 C 587.127 3.76872 4.32152 0
M  V30 6459 N 586.623 4.66212 5.12463 0
M  V30 6460 N 588.416 3.6519 4.27309 0
M  V30 6461 H 580.567 1.97824 0.77326 0
M  V30 6462 H 582.83 0.85826 0.402608 0
M  V30 6463 H 582.536 2.88749 2.00791 0
M  V30 6464 H 582.41 1.75244 3.3402 0
M  V30 6465 H 584.797 0.917564 2.80472 0
M  V30 6466 H 584.878 2.08691 1.47925 0
M  V30 6467 H 584.522 3.97907 3.15646 0
M  V30 6468 H 584.452 2.78014 4.47231 0
M  V30 6469 H 586.943 2.32643 2.97801 0
M  V30 6470 H 587.256 5.23468 5.68508 0
M  V30 6471 H 585.601 4.70257 5.11745 0
M  V30 6472 H 588.792 2.94765 3.63636 0
M  V30 6473 H 588.965 4.27366 4.87095 0
M  V30 6474 N 582.371 -1.3172 0.865308 0
M  V30 6475 C 583.281 -2.32394 0.320935 0
M  V30 6476 C 584.297 -1.64511 -0.566746 0
M  V30 6477 O 585.473 -1.95969 -0.464575 0
M  V30 6478 C 582.538 -3.43462 -0.472701 0
M  V30 6479 C 581.599 -4.27015 0.442385 0
M  V30 6480 C 580.832 -5.32779 -0.313469 0
M  V30 6481 O 581.055 -5.49158 -1.54214 0
M  V30 6482 O 579.989 -6.01015 0.326257 0
M  V30 6483 H 583.815 -2.80868 1.15528 0
M  V30 6484 H 581.4 -1.35535 0.628545 0
M  V30 6485 H 583.282 -4.11172 -0.922781 0
M  V30 6486 H 581.957 -2.97159 -1.28367 0
M  V30 6487 H 580.864 -3.62075 0.940866 0
M  V30 6488 H 582.197 -4.76871 1.21882 0
M  V30 6489 N 583.85 -0.624285 -1.44708 0
M  V30 6490 C 585.098 -0.125802 -2.01708 0
M  V30 6491 C 585.418 1.2543 -1.49306 0
M  V30 6492 O 584.689 1.83198 -0.693924 0
M  V30 6493 H 583.269 -0.0435161 -0.745731 0
M  V30 6494 H 585.931 -0.809446 -1.77296 0
M  V30 6495 H 585.027 -0.0882734 -3.11975 0
M  V30 6496 N 585.328 1.53329 -0.364422 0
M  V30 6497 C 586.291 2.24323 0.470292 0
M  V30 6498 C 587.291 1.25068 1.01067 0
M  V30 6499 O 588.481 1.49354 0.896605 0
M  V30 6500 C 585.613 2.97908 1.65722 0
M  V30 6501 H 586.806 2.9952 -0.150917 0
M  V30 6502 H 584.359 1.55868 -0.116092 0
M  V30 6503 H 585.094 2.2695 2.31655 0
M  V30 6504 H 584.879 3.70732 1.27671 0
M  V30 6505 H 586.369 3.5188 2.24878 0
M  V30 6506 N 586.806 0.0935595 1.57322 0
M  V30 6507 C 587.739 -0.902505 2.09595 0
M  V30 6508 C 588.717 -1.27732 1.00615 0
M  V30 6509 O 589.901 -1.38283 1.28102 0
M  V30 6510 C 587.028 -2.20416 2.57166 0
M  V30 6511 C 586.074 -1.97932 3.7779 0
M  V30 6512 S 586.907 -1.21873 5.21447 0
M  V30 6513 C 588.063 -2.53273 5.72367 0
M  V30 6514 H 588.296 -0.457797 2.93754 0
M  V30 6515 H 585.829 -0.119694 1.53935 0
M  V30 6516 H 587.787 -2.95217 2.85232 0
M  V30 6517 H 586.448 -2.62008 1.73235 0
M  V30 6518 H 585.641 -2.94316 4.09138 0
M  V30 6519 H 585.243 -1.3126 3.5021 0
M  V30 6520 H 587.535 -3.49256 5.8054 0
M  V30 6521 H 588.478 -2.26505 6.70896 0
M  V30 6522 H 588.886 -2.61475 5.00291 0
M  V30 6523 N 588.284 -1.56567 -0.180126 0
M  V30 6524 C 589.509 -1.85975 -0.918041 0
M  V30 6525 C 589.934 -0.678888 -1.75422 0
M  V30 6526 O 589.292 0.372168 -1.77439 0
M  V30 6527 C 589.34 -3.13731 -1.77779 0
M  V30 6528 O 588.444 -2.95335 -2.87838 0
M  V30 6529 H 587.785 -0.61196 -0.257683 0
M  V30 6530 H 590.315 -2.03798 -0.180923 0
M  V30 6531 H 590.325 -3.4491 -2.17948 0
M  V30 6532 H 589 -3.99293 -1.16352 0
M  V30 6533 H 587.577 -2.7549 -2.51316 0
M  V30 6534 N 589.762 0.448376 -1.51087 0
M  V30 6535 C 590.672 1.56882 -1.74428 0
M  V30 6536 C 591.688 1.62268 -0.62809 0
M  V30 6537 O 592.864 1.79716 -0.909075 0
M  V30 6538 C 589.929 2.92947 -1.85426 0
M  V30 6539 C 588.99 2.97766 -3.09247 0
M  V30 6540 C 588.223 4.27341 -3.19711 0
M  V30 6541 O 588.446 5.19112 -2.36387 0
M  V30 6542 O 587.38 4.38219 -4.12611 0
M  V30 6543 H 591.206 1.40104 -2.69452 0
M  V30 6544 H 588.791 0.630247 -1.35456 0
M  V30 6545 H 590.673 3.73719 -1.94709 0
M  V30 6546 H 589.348 3.09876 -0.935887 0
M  V30 6547 H 588.255 2.15989 -3.0545 0
M  V30 6548 H 589.588 2.8578 -4.00738 0
M  V30 6549 N 591.24 1.41047 0.703093 0
M  V30 6550 C 592.15 1.44645 1.84703 0
M  V30 6551 C 593.166 0.337778 1.7069 0
M  V30 6552 O 594.342 0.584327 1.92737 0
M  V30 6553 C 591.407 1.31928 3.20618 0
M  V30 6554 C 590.468 2.53047 3.46794 0
M  V30 6555 C 589.701 2.40927 4.76224 0
M  V30 6556 O 589.924 1.42978 5.5219 0
M  V30 6557 O 588.858 3.30543 5.03016 0
M  V30 6558 H 592.684 2.41139 1.84624 0
M  V30 6559 H 590.269 1.22504 0.855167 0
M  V30 6560 H 592.151 1.27092 4.01778 0
M  V30 6561 H 590.826 0.385469 3.21397 0
M  V30 6562 H 589.733 2.6346 2.65593 0
M  V30 6563 H 591.066 3.45231 3.50822 0
M  V30 6564 N 592.718 -0.936591 1.26751 0
M  V30 6565 C 593.995 -1.66094 1.03306 0
M  V30 6566 C 594.375 -2.06568 -0.435058 0
M  V30 6567 O 593.723 -1.79305 -1.41641 0
M  V30 6568 C 593.933 -2.86969 1.98619 0
M  V30 6569 C 595.281 -3.58516 2.27489 0
M  V30 6570 O 596.305 -2.97082 1.96522 0
M  V30 6571 O 595.164 -4.69181 2.80235 0
M  V30 6572 H 592.258 -0.727568 0.393158 0
M  V30 6573 H 594.804 -0.987914 1.3798 0
M  V30 6574 H 593.576 -2.53985 2.9767 0
M  V30 6575 H 593.199 -3.61996 1.64454 0
M  V30 6576 N 594.196 -1.08629 -1.14182 0
M  V30 6577 C 595.443 -0.817345 -1.85272 0
M  V30 6578 C 595.771 0.656917 -1.83071 0
M  V30 6579 O 595.026 1.49897 -1.25815 0
M  V30 6580 C 595.325 -1.28734 -3.3341 0
M  V30 6581 C 594.991 -2.76981 -3.55798 0
M  V30 6582 C 593.653 -3.17469 -3.61617 0
M  V30 6583 C 596.005 -3.72605 -3.64438 0
M  V30 6584 C 593.333 -4.52371 -3.736 0
M  V30 6585 C 595.685 -5.07286 -3.77947 0
M  V30 6586 C 594.349 -5.47376 -3.82016 0
M  V30 6587 H 593.619 -0.299088 -0.677958 0
M  V30 6588 H 596.266 -1.35962 -1.34857 0
M  V30 6589 H 594.571 -0.664702 -3.8612 0
M  V30 6590 H 596.268 -1.05598 -3.86846 0
M  V30 6591 H 592.858 -2.44644 -3.51919 0
M  V30 6592 H 597.042 -3.42443 -3.5923 0
M  V30 6593 H 592.298 -4.82882 -3.75013 0
M  V30 6594 H 596.472 -5.81243 -3.83575 0
M  V30 6595 H 594.099 -6.51906 -3.91054 0
M  V30 6596 N 595.674 1.31259 -0.872281 0
M  V30 6597 C 596.923 1.95893 -0.480493 0
M  V30 6598 C 597.236 1.697 0.972688 0
M  V30 6599 O 598.442 2.28214 1.47073 0
M  V30 6600 C 596.898 3.50705 -0.808342 0
M  V30 6601 C 596.506 3.85735 -2.27844 0
M  V30 6602 C 598.25 4.21719 -0.485136 0
M  V30 6603 C 596.157 5.33668 -2.54858 0
M  V30 6604 H 595.087 0.733182 -0.175955 0
M  V30 6605 H 597.738 1.49396 -1.0655 0
M  V30 6606 H 596.12 3.95706 -0.152558 0
M  V30 6607 H 597.294 3.51686 -2.97748 0
M  V30 6608 H 595.609 3.27792 -2.56791 0
M  V30 6609 H 598.206 5.30559 -0.664166 0
M  V30 6610 H 598.549 4.12316 0.574592 0
M  V30 6611 H 599.082 3.82359 -1.09756 0
M  V30 6612 H 595.821 5.48109 -3.59523 0
M  V30 6613 H 595.341 5.69061 -1.8955 0
M  V30 6614 H 597.02 6.00958 -2.39706 0
M  V30 6615 N 597.152 0.631951 1.44375 0
M  V30 6616 C 598.062 -0.073674 2.34484 0
M  V30 6617 C 599.078 -0.834825 1.52665 0
M  V30 6618 O 600.254 -0.786902 1.85391 0
M  V30 6619 C 597.319 -1.04247 3.30656 0
M  V30 6620 C 596.38 -0.280602 4.28382 0
M  V30 6621 C 595.613 -1.20325 5.19959 0
M  V30 6622 O 595.836 -2.44199 5.15484 0
M  V30 6623 O 594.77 -0.687128 5.97965 0
M  V30 6624 H 598.596 0.667477 2.96274 0
M  V30 6625 H 596.181 0.392144 1.44162 0
M  V30 6626 H 598.063 -1.59981 3.89851 0
M  V30 6627 H 596.738 -1.76422 2.71398 0
M  V30 6628 H 595.645 0.319804 3.72731 0
M  V30 6629 H 596.978 0.401144 4.90563 0
M  V30 6630 N 598.631 -1.53133 0.372548 0
M  V30 6631 C 599.541 -2.29671 -0.478379 0
M  V30 6632 C 600.557 -1.35913 -1.08644 0
M  V30 6633 O 601.733 -1.68975 -1.09588 0
M  V30 6634 C 598.798 -3.07625 -1.599 0
M  V30 6635 C 597.859 -4.17061 -1.01776 0
M  V30 6636 C 597.092 -4.91289 -2.08497 0
M  V30 6637 O 597.315 -4.65442 -3.29727 0
M  V30 6638 O 596.249 -5.7705 -1.71164 0
M  V30 6639 H 600.075 -3.03355 0.144649 0
M  V30 6640 H 597.66 -1.48773 0.136729 0
M  V30 6641 H 599.542 -3.56281 -2.25038 0
M  V30 6642 H 598.217 -2.3677 -2.2073 0
M  V30 6643 H 597.124 -3.72641 -0.330098 0
M  V30 6644 H 598.457 -4.90102 -0.453915 0
M  V30 6645 N 600.109 -0.101901 -1.5727 0
M  V30 6646 C 601.072 0.840129 -2.13247 0
M  V30 6647 C 602.072 1.20625 -1.06331 0
M  V30 6648 O 603.262 1.13456 -1.32186 0
M  V30 6649 C 600.394 2.13372 -2.65867 0
M  V30 6650 H 601.587 0.353945 -2.97804 0
M  V30 6651 H 599.14 0.147167 -1.55606 0
M  V30 6652 H 599.875 2.66461 -1.84849 0
M  V30 6653 H 599.66 1.88085 -3.44044 0
M  V30 6654 H 601.15 2.80748 -3.09145 0
M  V30 6655 N 601.587 1.56661 0.17182 0
M  V30 6656 C 602.497 1.99604 1.2327 0
M  V30 6657 C 603.513 0.907333 1.4847 0
M  V30 6658 O 604.689 1.21492 1.60629 0
M  V30 6659 C 601.754 2.34685 2.55194 0
M  V30 6660 C 600.815 3.57381 2.3786 0
M  V30 6661 C 600.048 3.90779 3.63494 0
M  V30 6662 O 600.271 3.25152 4.6865 0
M  V30 6663 O 599.205 4.84129 3.57634 0
M  V30 6664 H 603.031 2.90114 0.898192 0
M  V30 6665 H 600.616 1.44522 0.378647 0
M  V30 6666 H 602.498 2.5822 3.33017 0
M  V30 6667 H 601.173 1.47336 2.88225 0
M  V30 6668 H 600.08 3.39064 1.5807 0
M  V30 6669 H 601.413 4.45268 2.09754 0
M  V30 6670 N 603.065 -0.440357 1.51323 0
M  V30 6671 C 604.311 -1.19181 1.64085 0
M  V30 6672 C 604.644 -1.90936 0.354575 0
M  V30 6673 O 603.919 -1.8347 -0.645675 0
M  V30 6674 C 604.202 -2.2112 2.84215 0
M  V30 6675 C 604.055 -1.53468 4.22809 0
M  V30 6676 C 605.374 -3.22133 2.99864 0
M  V30 6677 H 602.493 -0.431924 0.597169 0
M  V30 6678 H 605.135 -0.481443 1.83799 0
M  V30 6679 H 603.285 -2.81703 2.67537 0
M  V30 6680 H 604.957 -0.962455 4.51148 0
M  V30 6681 H 603.2 -0.837086 4.25647 0
M  V30 6682 H 603.871 -2.27694 5.02852 0
M  V30 6683 H 606.347 -2.71601 3.15233 0
M  V30 6684 H 605.223 -3.90756 3.85488 0
M  V30 6685 H 605.484 -3.88061 2.11804 0
M  V30 6686 N 604.543 -1.41418 -0.695603 0
M  V30 6687 C 605.476 -1.3768 -1.81988 0
M  V30 6688 C 606.454 -0.244061 -1.60758 0
M  V30 6689 O 607.638 -0.430965 -1.83507 0
M  V30 6690 C 604.765 -1.1476 -3.18666 0
M  V30 6691 C 603.811 -2.30752 -3.58686 0
M  V30 6692 S 604.644 -3.9323 -3.63498 0
M  V30 6693 C 605.8 -3.72613 -5.02902 0
M  V30 6694 H 606.033 -2.32822 -1.84882 0
M  V30 6695 H 603.566 -1.27942 -0.86431 0
M  V30 6696 H 605.524 -1.02223 -3.97569 0
M  V30 6697 H 604.185 -0.212385 -3.13381 0
M  V30 6698 H 603.378 -2.10409 -4.57978 0
M  V30 6699 H 602.98 -2.39696 -2.87092 0
M  V30 6700 H 605.272 -3.32317 -5.904 0
M  V30 6701 H 606.215 -4.71507 -5.28286 0
M  V30 6702 H 606.623 -3.0589 -4.74438 0
M  V30 6703 N 606.021 0.929856 -1.27246 0
M  V30 6704 C 606.954 2.03069 -1.04106 0
M  V30 6705 C 607.932 1.62556 0.0378417 0
M  V30 6706 O 609.116 1.88197 -0.106869 0
M  V30 6707 C 606.243 3.33718 -0.578778 0
M  V30 6708 C 605.289 3.93209 -1.65193 0
M  V30 6709 S 606.122 4.26068 -3.24386 0
M  V30 6710 C 607.278 5.598 -2.79954 0
M  V30 6711 H 607.511 2.22386 -1.97311 0
M  V30 6712 H 605.044 1.07269 -1.11053 0
M  V30 6713 H 607.002 4.09261 -0.31874 0
M  V30 6714 H 605.663 3.12328 0.333182 0
M  V30 6715 H 604.856 4.87482 -1.27973 0
M  V30 6716 H 604.458 3.24243 -1.86393 0
M  V30 6717 H 606.75 6.39004 -2.25123 0
M  V30 6718 H 607.693 6.01917 -3.72963 0
M  V30 6719 H 608.101 5.20219 -2.19164 0
M  V30 6720 N 607.499 1.09233 1.13605 0
M  V30 6721 C 608.446 0.729921 2.18954 0
M  V30 6722 C 609.416 -0.287916 1.63586 0
M  V30 6723 O 610.601 -0.170003 1.90041 0
M  V30 6724 C 607.741 0.154489 3.44754 0
M  V30 6725 C 606.854 1.22613 4.14234 0
M  V30 6726 C 605.989 0.613657 5.27644 0
M  V30 6727 C 605.028 1.66674 5.8897 0
M  V30 6728 N 604.165 1.07545 6.93814 0
M  V30 6729 H 609.005 1.63257 2.49302 0
M  V30 6730 H 606.542 0.815693 1.22413 0
M  V30 6731 H 608.5 -0.196923 4.16735 0
M  V30 6732 H 607.13 -0.711433 3.14863 0
M  V30 6733 H 606.182 1.69485 3.40557 0
M  V30 6734 H 607.494 2.0238 4.55899 0
M  V30 6735 H 606.648 0.210976 6.06333 0
M  V30 6736 H 605.387 -0.215584 4.87223 0
M  V30 6737 H 604.392 2.07899 5.08978 0
M  V30 6738 H 605.617 2.49861 6.31464 0
M  V30 6739 H 603.563 0.267451 6.55455 0
M  V30 6740 H 603.48 1.81011 7.3401 0
M  V30 6741 H 604.748 0.698906 7.7636 0
M  V30 6742 N 608.977 -1.30795 0.87923 0
M  V30 6743 C 609.907 -2.30742 0.357796 0
M  V30 6744 C 610.888 -1.60747 -0.556283 0
M  V30 6745 O 612.073 -1.88393 -0.47135 0
M  V30 6746 C 609.203 -3.44583 -0.433555 0
M  V30 6747 C 608.157 -4.26235 0.388251 0
M  V30 6748 C 607.483 -5.32073 -0.529352 0
M  V30 6749 C 608.783 -4.96303 1.62729 0
M  V30 6750 H 610.477 -2.74605 1.19299 0
M  V30 6751 H 608.023 -1.32017 0.575104 0
M  V30 6752 H 609.976 -4.13563 -0.808934 0
M  V30 6753 H 608.7 -2.99511 -1.30234 0
M  V30 6754 H 607.359 -3.58936 0.745695 0
M  V30 6755 H 607.007 -4.83249 -1.39569 0
M  V30 6756 H 606.707 -5.87598 0.0166741 0
M  V30 6757 H 608.231 -6.0391 -0.901373 0
M  V30 6758 H 609.645 -5.5783 1.32283 0
M  V30 6759 H 608.042 -5.61666 2.11309 0
M  V30 6760 H 609.112 -4.22758 2.37494 0
M  V30 6761 N 610.455 -0.639598 -1.44038 0
M  V30 6762 C 611.68 -0.153117 -2.06834 0
M  V30 6763 C 612.105 1.16676 -1.47541 0
M  V30 6764 O 611.463 1.71769 -0.580093 0
M  V30 6765 C 611.511 -0.0609169 -3.60549 0
M  V30 6766 O 610.615 0.98071 -4.00569 0
M  V30 6767 H 609.956 -0.0886402 -0.658057 0
M  V30 6768 H 612.486 -0.878674 -1.84771 0
M  V30 6769 H 612.496 0.126892 -4.07803 0
M  V30 6770 H 611.171 -1.0245 -4.03084 0
M  V30 6771 H 609.748 0.766789 -3.64931 0
M  V30 6772 N 611.933 1.52934 -0.380664 0
M  V30 6773 C 612.883 2.22989 0.475399 0
M  V30 6774 C 613.867 1.23058 1.03661 0
M  V30 6775 O 615.059 1.48436 0.964146 0
M  V30 6776 C 612.188 3.0338 1.60671 0
M  V30 6777 C 611.274 4.107 1.05766 0
M  V30 6778 N 611.665 5.05264 0.232837 0
M  V30 6779 C 609.963 4.25676 1.33101 0
M  V30 6780 C 610.664 5.81658 -0.0695134 0
M  V30 6781 N 609.64 5.40989 0.532144 0
M  V30 6782 H 613.442 2.93456 -0.161418 0
M  V30 6783 H 610.956 1.61291 -0.189495 0
M  V30 6784 H 612.953 3.52098 2.23232 0
M  V30 6785 H 611.613 2.34446 2.24644 0
M  V30 6786 H 612.624 5.17739 -0.129204 0
M  V30 6787 H 609.301 3.6797 1.97241 0
M  V30 6788 H 610.691 6.67843 -0.737269 0
M  V30 6789 N 613.412 0.11024 1.57214 0
M  V30 6790 C 614.823 -0.416527 1.81994 0
M  V30 6791 C 615.174 -1.67183 1.02686 0
M  V30 6792 O 614.299 -2.14823 0.260782 0
M  V30 6793 C 614.894 -0.762466 3.30109 0
M  V30 6794 C 613.453 -1.23391 3.556 0
M  V30 6795 C 612.6 -0.238166 2.76275 0
M  V30 6796 H 615.551 0.335491 1.55113 0
M  V30 6797 H 615.572 -1.62068 3.44259 0
M  V30 6798 H 615.084 0.151346 3.87805 0
M  V30 6799 H 613.185 -2.16492 3.03253 0
M  V30 6800 H 613.298 -1.18528 4.64207 0
M  V30 6801 H 611.662 -0.723421 2.4421 0
M  V30 6802 H 612.445 0.668591 3.36727 0
M  V30 6803 N 614.89 -1.56749 -0.16351 0
M  V30 6804 C 615.837 -1.97011 -1.2023 0
M  V30 6805 C 616.807 -0.835186 -1.43575 0
M  V30 6806 O 617.992 -1.09594 -1.56185 0
M  V30 6807 C 615.132 -2.34186 -2.53478 0
M  V30 6808 C 614.245 -3.60893 -2.37446 0
M  V30 6809 C 613.38 -3.87245 -3.63614 0
M  V30 6810 C 612.419 -5.07274 -3.42548 0
M  V30 6811 N 611.556 -5.29719 -4.60806 0
M  V30 6812 H 616.396 -2.85562 -0.851958 0
M  V30 6813 H 613.933 -1.41292 -0.409257 0
M  V30 6814 H 615.891 -2.53764 -3.31149 0
M  V30 6815 H 614.521 -1.48736 -2.86492 0
M  V30 6816 H 613.573 -3.49185 -1.50911 0
M  V30 6817 H 614.885 -4.48722 -2.1783 0
M  V30 6818 H 614.039 -4.07232 -4.49719 0
M  V30 6819 H 612.778 -2.97806 -3.86216 0
M  V30 6820 H 611.783 -4.87177 -2.5483 0
M  V30 6821 H 613.008 -5.98251 -3.2136 0
M  V30 6822 H 610.954 -4.43233 -4.83612 0
M  V30 6823 H 610.871 -6.11786 -4.44132 0
M  V30 6824 H 612.139 -5.54192 -5.48171 0
M  V30 6825 N 616.368 0.432326 -1.51554 0
M  V30 6826 C 617.298 1.53242 -1.76179 0
M  V30 6827 C 618.279 1.58717 -0.611801 0
M  V30 6828 O 619.464 1.74364 -0.855033 0
M  V30 6829 C 616.594 2.91278 -1.89141 0
M  V30 6830 C 615.548 3.00663 -3.04608 0
M  V30 6831 C 614.874 4.40728 -3.02759 0
M  V30 6832 C 616.174 2.74281 -4.44485 0
M  V30 6833 H 617.868 1.32886 -2.68294 0
M  V30 6834 H 615.414 0.637841 -1.29103 0
M  V30 6835 H 617.367 3.68203 -2.04951 0
M  V30 6836 H 616.091 3.12877 -0.936785 0
M  V30 6837 H 614.75 2.26179 -2.88511 0
M  V30 6838 H 614.398 4.59301 -2.05065 0
M  V30 6839 H 614.098 4.47936 -3.80299 0
M  V30 6840 H 615.622 5.19619 -3.20669 0
M  V30 6841 H 617.036 3.40936 -4.60907 0
M  V30 6842 H 615.433 2.92893 -5.23769 0
M  V30 6843 H 616.503 1.69856 -4.54177 0
M  V30 6844 N 617.846 1.41785 0.688094 0
M  V30 6845 C 619.092 1.41753 1.4503 0
M  V30 6846 C 619.425 0.0290745 1.94178 0
M  V30 6847 O 618.7 -0.944456 1.7003 0
M  V30 6848 C 618.983 2.43069 2.65686 0
M  V30 6849 C 618.836 3.91053 2.22256 0
M  V30 6850 C 620.155 2.41543 3.67893 0
M  V30 6851 H 617.274 0.516202 0.526027 0
M  V30 6852 H 619.916 1.73111 0.783105 0
M  V30 6853 H 618.066 2.1646 3.2261 0
M  V30 6854 H 619.738 4.28594 1.70602 0
M  V30 6855 H 617.981 4.05559 1.53963 0
M  V30 6856 H 618.652 4.57501 3.08863 0
M  V30 6857 H 621.128 2.65175 3.20658 0
M  V30 6858 H 620.004 3.14434 4.49914 0
M  V30 6859 H 620.265 1.43666 4.18106 0
M  V30 6860 N 619.324 -0.923095 1.27737 0
M  V30 6861 C 620.256 -2.02871 1.06658 0
M  V30 6862 C 621.269 -1.62786 0.0212095 0
M  V30 6863 O 622.458 -1.76548 0.263267 0
M  V30 6864 C 619.558 -3.33603 0.59682 0
M  V30 6865 C 618.731 -4.02354 1.71551 0
M  V30 6866 C 617.79 -5.11364 1.24071 0
M  V30 6867 O 616.816 -5.35075 1.94123 0
M  V30 6868 N 618.018 -5.80416 0.0988444 0
M  V30 6869 H 620.783 -2.21515 2.01869 0
M  V30 6870 H 618.344 -1.09378 1.19365 0
M  V30 6871 H 620.336 -4.03845 0.262984 0
M  V30 6872 H 618.906 -3.11499 -0.262187 0
M  V30 6873 H 618.126 -3.25786 2.2194 0
M  V30 6874 H 619.414 -4.45035 2.46619 0
M  V30 6875 H 618.812 -5.63611 -0.485743 0
M  V30 6876 H 617.369 -6.51563 -0.17578 0
M  V30 6877 N 620.802 -1.09834 -1.13024 0
M  V30 6878 C 621.732 -0.763451 -2.20666 0
M  V30 6879 C 622.713 0.260778 -1.68089 0
M  V30 6880 O 623.898 0.127915 -1.93778 0
M  V30 6881 C 621.028 -0.187744 -3.46792 0
M  V30 6882 C 619.982 -1.14196 -4.12484 0
M  V30 6883 C 619.308 -0.427755 -5.32986 0
M  V30 6884 C 620.608 -2.48607 -4.59338 0
M  V30 6885 H 622.302 -1.66347 -2.48936 0
M  V30 6886 H 619.848 -0.801261 -1.19649 0
M  V30 6887 H 621.801 0.0586375 -4.21359 0
M  V30 6888 H 620.525 0.747485 -3.17931 0
M  V30 6889 H 619.184 -1.37369 -3.3989 0
M  V30 6890 H 618.832 0.511747 -5.0039 0
M  V30 6891 H 618.532 -1.06403 -5.77886 0
M  V30 6892 H 620.056 -0.189772 -6.10305 0
M  V30 6893 H 621.47 -2.29618 -5.25308 0
M  V30 6894 H 619.867 -3.08062 -5.14993 0
M  V30 6895 H 620.937 -3.09062 -3.73642 0
M  V30 6896 N 622.28 1.30327 -0.886154 0
M  V30 6897 C 623.51 1.99964 -0.519421 0
M  V30 6898 C 623.918 1.66593 0.89686 0
M  V30 6899 O 623.261 0.899886 1.60149 0
M  V30 6900 C 623.323 3.54187 -0.615795 0
M  V30 6901 C 622.987 4.11078 -1.9966 0
M  V30 6902 C 623.984 4.26985 -2.96614 0
M  V30 6903 C 621.669 4.46429 -2.30231 0
M  V30 6904 C 623.663 4.77456 -4.22273 0
M  V30 6905 C 621.35 4.966 -3.56135 0
M  V30 6906 C 622.348 5.12066 -4.5197 0
M  V30 6907 O 622.036 5.61154 -5.7564 0
M  V30 6908 H 621.768 0.645979 -0.199217 0
M  V30 6909 H 624.322 1.67154 -1.19368 0
M  V30 6910 H 622.552 3.86528 0.115448 0
M  V30 6911 H 624.241 4.05065 -0.26017 0
M  V30 6912 H 625.007 3.99975 -2.74308 0
M  V30 6913 H 620.886 4.33658 -1.56404 0
M  V30 6914 H 624.43 4.89444 -4.97082 0
M  V30 6915 H 620.327 5.23045 -3.78277 0
M  V30 6916 H 621.095 5.79494 -5.78039 0
M  V30 6917 N 623.758 0.647228 1.43697 0
M  V30 6918 C 625.006 0.157876 2.01482 0
M  V30 6919 C 625.327 -1.23039 1.51282 0
M  V30 6920 O 624.597 -1.82071 0.722982 0
M  V30 6921 H 623.177 0.0553745 0.744945 0
M  V30 6922 H 625.839 0.83755 1.75986 0
M  V30 6923 H 624.935 0.137895 3.11795 0
M  V30 6924 N 625.236 -1.5273 0.388769 0
M  V30 6925 C 626.482 -2.01871 -0.193877 0
M  V30 6926 C 626.815 -1.27475 -1.46505 0
M  V30 6927 O 626.09 -0.375063 -1.90849 0
M  V30 6928 C 626.373 -3.5712 -0.462336 0
M  V30 6929 C 626.226 -4.42186 0.824091 0
M  V30 6930 C 627.545 -4.21881 -1.25319 0
M  V30 6931 H 624.664 -0.733764 -0.0689899 0
M  V30 6932 H 627.306 -1.82796 0.518231 0
M  V30 6933 H 625.456 -3.73504 -1.06896 0
M  V30 6934 H 627.128 -4.37554 1.46096 0
M  V30 6935 H 625.371 -4.09219 1.43952 0
M  V30 6936 H 626.042 -5.48828 0.590905 0
M  V30 6937 H 628.518 -4.0947 -0.73981 0
M  V30 6938 H 627.394 -5.30487 -1.40977 0
M  V30 6939 H 627.655 -3.79478 -2.26824 0
M  V30 6940 N 626.714 -0.118576 -1.57153 0
M  V30 6941 C 627.954 0.542618 -1.97066 0
M  V30 6942 C 628.318 1.63874 -1.00046 0
M  V30 6943 O 629.519 2.3588 -1.28895 0
M  V30 6944 C 627.79 1.06196 -3.41258 0
M  V30 6945 S 629.349 1.73174 -4.03183 0
M  V30 6946 H 626.167 0.17638 -0.688775 0
M  V30 6947 H 628.769 -0.203556 -1.94437 0
M  V30 6948 H 627.473 0.253016 -4.09619 0
M  V30 6949 H 627.004 1.84342 -3.47536 0
M  V30 6950 H 629.019 3.01749 -3.93906 0
M  V30 6951 N 628.193 1.56834 0.155195 0
M  V30 6952 C 629.123 2.00678 1.19376 0
M  V30 6953 C 630.104 0.884973 1.45266 0
M  V30 6954 O 631.289 1.1522 1.56326 0
M  V30 6955 C 628.419 2.38042 2.5289 0
M  V30 6956 C 627.373 3.53332 2.41538 0
M  V30 6957 C 626.699 3.76485 3.79688 0
M  V30 6958 C 627.999 4.86265 1.9064 0
M  V30 6959 H 629.693 2.87688 0.829232 0
M  V30 6960 H 627.239 1.38407 0.397445 0
M  V30 6961 H 629.192 2.67314 3.25763 0
M  V30 6962 H 627.916 1.4796 2.91162 0
M  V30 6963 H 626.575 3.24213 1.71117 0
M  V30 6964 H 626.223 2.83667 4.15382 0
M  V30 6965 H 625.923 4.54068 3.72956 0
M  V30 6966 H 627.447 4.08174 4.54122 0
M  V30 6967 H 628.861 5.14308 2.53299 0
M  V30 6968 H 627.258 5.67597 1.94818 0
M  V30 6969 H 628.328 4.77184 0.861596 0
M  V30 6970 N 629.671 -0.424282 1.51781 0
M  V30 6971 C 630.581 -1.54087 1.76902 0
M  V30 6972 C 631.597 -1.61249 0.653826 0
M  V30 6973 O 632.773 -1.78247 0.937552 0
M  V30 6974 C 629.838 -2.8996 1.90063 0
M  V30 6975 C 628.899 -2.92809 3.13945 0
M  V30 6976 C 628.132 -4.22201 3.26469 0
M  V30 6977 O 628.355 -5.15286 2.44616 0
M  V30 6978 O 627.289 -4.31599 4.1953 0
M  V30 6979 H 631.115 -1.358 2.71647 0
M  V30 6980 H 628.7 -0.608618 1.36441 0
M  V30 6981 H 630.582 -3.70575 2.0063 0
M  V30 6982 H 629.257 -3.08347 0.985067 0
M  V30 6983 H 628.164 -2.11102 3.08847 0
M  V30 6984 H 629.497 -2.79369 4.05233 0
M  V30 6985 N 631.149 -1.42148 -0.680565 0
M  V30 6986 C 632.081 -1.41119 -1.80605 0
M  V30 6987 C 633.094 -0.311099 -1.598 0
M  V30 6988 O 634.283 -0.573813 -1.69026 0
M  V30 6989 C 631.383 -1.18204 -3.17618 0
M  V30 6990 C 630.556 -2.40537 -3.65322 0
M  V30 6991 C 629.615 -2.13254 -4.8105 0
M  V30 6992 O 628.641 -2.8641 -4.91892 0
M  V30 6993 N 629.843 -1.13208 -5.69354 0
M  V30 6994 H 632.608 -2.38128 -1.81975 0
M  V30 6995 H 630.169 -1.36953 -0.863446 0
M  V30 6996 H 632.161 -0.97878 -3.92686 0
M  V30 6997 H 630.731 -0.29738 -3.11182 0
M  V30 6998 H 629.951 -2.76468 -2.80996 0
M  V30 6999 H 631.239 -3.22012 -3.93936 0
M  V30 7000 H 630.637 -0.526893 -5.63241 0
M  V30 7001 H 629.194 -0.988699 -6.44258 0
M  V30 7002 N 632.627 0.916307 -1.28225 0
M  V30 7003 C 633.59 1.99996 -1.11957 0
M  V30 7004 C 634.59 1.60688 -0.0600152 0
M  V30 7005 O 635.78 1.71499 -0.30558 0
M  V30 7006 C 632.912 3.33458 -0.708411 0
M  V30 7007 H 634.105 2.15858 -2.08196 0
M  V30 7008 H 631.658 1.09863 -1.11175 0
M  V30 7009 H 632.393 3.23297 0.254859 0
M  V30 7010 H 632.178 3.63349 -1.47377 0
M  V30 7011 H 633.668 4.13014 -0.617164 0
M  V30 7012 N 634.105 1.10431 1.1244 0
M  V30 7013 C 635.516 0.864439 1.65482 0
M  V30 7014 C 635.867 -0.60527 1.8663 0
M  V30 7015 O 634.992 -1.46492 1.59276 0
M  V30 7016 C 635.587 1.56267 3.0061 0
M  V30 7017 C 634.146 1.3695 3.50602 0
M  V30 7018 C 633.293 1.61209 2.25626 0
M  V30 7019 H 636.244 1.26203 0.962209 0
M  V30 7020 H 636.265 1.00166 3.67079 0
M  V30 7021 H 635.777 2.63231 2.85186 0
M  V30 7022 H 633.878 0.321481 3.71211 0
M  V30 7023 H 633.991 2.11143 4.30064 0
M  V30 7024 H 632.355 1.03482 2.32731 0
M  V30 7025 H 633.138 2.69425 2.12756 0
M  V30 7026 N 635.583 -1.29855 0.893053 0
M  V30 7027 C 636.832 -1.95104 0.511597 0
M  V30 7028 C 637.145 -1.71226 -0.945567 0
M  V30 7029 O 638.351 -2.30525 -1.43424 0
M  V30 7030 C 636.807 -3.49374 0.864034 0
M  V30 7031 C 636.415 -3.82061 2.33952 0
M  V30 7032 C 638.159 -4.20894 0.552167 0
M  V30 7033 C 636.066 -5.29546 2.63316 0
M  V30 7034 H 634.996 -0.73029 0.187597 0
M  V30 7035 H 637.647 -1.47682 1.08914 0
M  V30 7036 H 636.029 -3.95413 0.215493 0
M  V30 7037 H 637.203 -3.46904 3.03305 0
M  V30 7038 H 635.518 -3.23665 2.61973 0
M  V30 7039 H 638.115 -5.29435 0.748489 0
M  V30 7040 H 638.458 -4.13178 -0.508924 0
M  V30 7041 H 638.991 -3.80564 1.15825 0
M  V30 7042 H 635.73 -5.4232 3.68197 0
M  V30 7043 H 635.25 -5.65974 1.9858 0
M  V30 7044 H 636.929 -5.97068 2.49236 0
M  V30 7045 N 637.061 -0.65484 -1.43351 0
M  V30 7046 C 638.301 -0.172514 -2.03671 0
M  V30 7047 C 638.665 1.19154 -1.50553 0
M  V30 7048 O 639.866 1.76737 -2.02528 0
M  V30 7049 C 638.137 -0.183982 -3.56926 0
M  V30 7050 S 639.696 0.230262 -4.38195 0
M  V30 7051 H 636.514 -0.0727503 -0.707268 0
M  V30 7052 H 639.116 -0.863537 -1.75395 0
M  V30 7053 H 637.82 -1.17945 -3.93087 0
M  V30 7054 H 637.351 0.527527 -3.89847 0
M  V30 7055 H 639.366 1.46874 -4.73965 0
M  V30 7056 N 638.539 1.52521 -0.396863 0
M  V30 7057 C 639.469 2.29582 0.425941 0
M  V30 7058 C 640.45 1.33281 1.05689 0
M  V30 7059 O 641.635 1.62181 1.06823 0
M  V30 7060 C 638.765 3.10821 1.54943 0
M  V30 7061 C 637.719 4.15069 1.04413 0
M  V30 7062 C 637.045 4.84578 2.26028 0
M  V30 7063 C 638.345 5.22191 0.106767 0
M  V30 7064 H 640.039 2.98612 -0.217045 0
M  V30 7065 H 637.585 1.43611 -0.105826 0
M  V30 7066 H 639.538 3.63492 2.13193 0
M  V30 7067 H 638.262 2.39538 2.22011 0
M  V30 7068 H 636.921 3.63389 0.484118 0
M  V30 7069 H 636.569 4.09835 2.91623 0
M  V30 7070 H 636.269 5.55043 1.92876 0
M  V30 7071 H 637.793 5.40056 2.84906 0
M  V30 7072 H 639.207 5.70176 0.597685 0
M  V30 7073 H 637.604 5.99947 -0.135352 0
M  V30 7074 H 638.674 4.77531 -0.842134 0
M  V30 7075 N 640.017 0.126909 1.57088 0
M  V30 7076 C 641.263 -0.529952 1.95753 0
M  V30 7077 C 641.596 -1.65823 1.01077 0
M  V30 7078 O 640.871 -1.94437 0.0494162 0
M  V30 7079 C 641.154 -1.05517 3.44294 0
M  V30 7080 C 641.007 0.0702253 4.49745 0
M  V30 7081 C 642.326 -1.9435 3.94862 0
M  V30 7082 H 639.445 -0.191168 0.711775 0
M  V30 7083 H 642.087 0.204071 1.88901 0
M  V30 7084 H 640.237 -1.68069 3.50264 0
M  V30 7085 H 641.909 0.705834 4.55868 0
M  V30 7086 H 640.152 0.732259 4.27575 0
M  V30 7087 H 640.823 -0.338642 5.5096 0
M  V30 7088 H 643.299 -1.41658 3.91244 0
M  V30 7089 H 642.175 -2.28015 4.993 0
M  V30 7090 H 642.436 -2.87299 3.36024 0
M  V30 7091 N 641.495 -1.56914 -0.146875 0
M  V30 7092 C 642.742 -1.83356 -0.859467 0
M  V30 7093 C 643.07 -0.707811 -1.81164 0
M  V30 7094 O 642.325 0.303155 -1.93338 0
M  V30 7095 C 642.624 -3.16128 -1.66727 0
M  V30 7096 C 642.29 -4.42586 -0.861881 0
M  V30 7097 C 640.952 -4.76929 -0.639687 0
M  V30 7098 C 643.304 -5.20344 -0.298643 0
M  V30 7099 C 640.632 -5.86491 0.156451 0
M  V30 7100 C 642.984 -6.30742 0.484536 0
M  V30 7101 C 641.648 -6.63635 0.717306 0
M  V30 7102 H 640.918 -0.670947 -0.314501 0
M  V30 7103 H 643.565 -1.91104 -0.123108 0
M  V30 7104 H 641.87 -3.03831 -2.47374 0
M  V30 7105 H 643.567 -3.33802 -2.2221 0
M  V30 7106 H 640.157 -4.15662 -1.04513 0
M  V30 7107 H 644.341 -4.94186 -0.457585 0
M  V30 7108 H 639.597 -6.10419 0.346292 0
M  V30 7109 H 643.771 -6.90188 0.928105 0
M  V30 7110 H 641.398 -7.48367 1.33607 0
M  V30 7111 N 642.974 0.416227 -1.52004 0
M  V30 7112 C 643.884 1.53147 -1.77717 0
M  V30 7113 C 644.9 1.609 -0.662368 0
M  V30 7114 O 646.076 1.77747 -0.946991 0
M  V30 7115 C 643.141 2.88948 -1.91598 0
M  V30 7116 C 642.202 2.9114 -3.15493 0
M  V30 7117 C 641.435 4.20464 -3.28703 0
M  V30 7118 O 641.658 5.13981 -2.47345 0
M  V30 7119 O 640.592 4.29368 -4.21813 0
M  V30 7120 H 644.418 1.34357 -2.72363 0
M  V30 7121 H 642.003 0.601373 -1.36762 0
M  V30 7122 H 643.885 3.69505 -2.02593 0
M  V30 7123 H 642.56 3.07821 -1.00141 0
M  V30 7124 H 641.467 2.09461 -3.09962 0
M  V30 7125 H 642.8 2.77216 -4.06709 0
M  V30 7126 N 644.452 1.42507 0.673017 0
M  V30 7127 C 645.699 1.43072 1.43306 0
M  V30 7128 C 646.027 0.0478004 1.94441 0
M  V30 7129 O 645.282 -0.944106 1.71421 0
M  V30 7130 C 645.581 2.40351 2.64511 0
M  V30 7131 C 645.247 3.8669 2.31908 0
M  V30 7132 C 643.909 4.26551 2.22728 0
M  V30 7133 C 646.261 4.78991 2.05467 0
M  V30 7134 C 643.589 5.56691 1.85234 0
M  V30 7135 C 645.941 6.09476 1.69477 0
M  V30 7136 C 644.605 6.48334 1.58808 0
M  V30 7137 H 643.875 0.523536 0.524395 0
M  V30 7138 H 646.522 1.75459 0.76723 0
M  V30 7139 H 644.827 2.01297 3.36135 0
M  V30 7140 H 646.524 2.38051 3.22696 0
M  V30 7141 H 643.114 3.55132 2.39956 0
M  V30 7142 H 647.298 4.48982 2.11492 0
M  V30 7143 H 642.554 5.85657 1.75545 0
M  V30 7144 H 646.728 6.80482 1.48043 0
M  V30 7145 H 644.355 7.49084 1.29525 0
M  V30 7146 N 645.93 -0.909495 1.28709 0
M  V30 7147 C 646.863 -2.01388 1.07323 0
M  V30 7148 C 647.841 -1.62596 -0.0119757 0
M  V30 7149 O 649.025 -1.88003 0.136796 0
M  V30 7150 C 646.152 -3.32755 0.631797 0
M  V30 7151 C 645.198 -3.90532 1.71428 0
M  V30 7152 S 646.031 -4.20853 3.31124 0
M  V30 7153 C 647.187 -5.55276 2.88825 0
M  V30 7154 H 647.42 -2.19219 2.00824 0
M  V30 7155 H 644.953 -1.05489 1.12745 0
M  V30 7156 H 646.911 -4.08702 0.38381 0
M  V30 7157 H 645.572 -3.12818 -0.283451 0
M  V30 7158 H 644.765 -4.85385 1.35712 0
M  V30 7159 H 644.367 -3.21237 1.91528 0
M  V30 7160 H 646.659 -6.35341 2.3526 0
M  V30 7161 H 647.602 -5.95907 3.82492 0
M  V30 7162 H 648.01 -5.16666 2.27412 0
M  V30 7163 N 647.408 -1.11026 -1.11852 0
M  V30 7164 C 648.318 -0.777252 -2.2135 0
M  V30 7165 C 649.334 0.227821 -1.72502 0
M  V30 7166 O 650.51 0.0650587 -2.01295 0
M  V30 7167 C 647.575 -0.220668 -3.45997 0
M  V30 7168 C 646.636 -1.2838 -4.09655 0
M  V30 7169 C 645.869 -0.753678 -5.28352 0
M  V30 7170 O 646.092 0.417779 -5.68868 0
M  V30 7171 O 645.026 -1.51647 -5.82483 0
M  V30 7172 H 648.852 -1.69141 -2.5224 0
M  V30 7173 H 646.437 -0.885836 -1.20305 0
M  V30 7174 H 648.319 0.0855756 -4.21313 0
M  V30 7175 H 646.994 0.666262 -3.16769 0
M  V30 7176 H 645.901 -1.64299 -3.3609 0
M  V30 7177 H 647.234 -2.14396 -4.43052 0
M  V30 7178 N 648.886 1.2938 -0.899927 0
M  V30 7179 C 649.836 2.25311 -0.349165 0
M  V30 7180 C 650.82 1.51889 0.530892 0
M  V30 7181 O 652.012 1.73028 0.372872 0
M  V30 7182 C 649.141 3.40696 0.422055 0
M  V30 7183 C 648.227 4.21455 -0.472935 0
M  V30 7184 N 648.618 4.8048 -1.58026 0
M  V30 7185 C 646.916 4.45177 -0.270767 0
M  V30 7186 C 647.617 5.41117 -2.13465 0
M  V30 7187 N 646.593 5.24518 -1.42766 0
M  V30 7188 H 650.395 2.68507 -1.19505 0
M  V30 7189 H 647.909 1.43992 -0.751006 0
M  V30 7190 H 649.906 4.08486 0.833369 0
M  V30 7191 H 648.566 2.99037 1.2652 0
M  V30 7192 H 649.577 4.79257 -1.96299 0
M  V30 7193 H 646.254 4.14071 0.533988 0
M  V30 7194 H 647.644 5.979 -3.06537 0
M  V30 7195 N 650.364 0.662433 1.43002 0
M  V30 7196 C 651.612 0.179237 2.01304 0
M  V30 7197 C 651.933 -1.21428 1.52579 0
M  V30 7198 O 651.203 -1.81294 0.742252 0
M  V30 7199 H 649.783 0.0632725 0.744316 0
M  V30 7200 H 652.445 0.856169 1.75088 0
M  V30 7201 H 651.541 0.170957 3.11631 0
M  V30 7202 N 651.842 -1.52309 0.404946 0
M  V30 7203 C 653.082 -2.03677 -0.171779 0
M  V30 7204 C 653.446 -1.28419 -1.42733 0
M  V30 7205 O 654.647 -1.69991 -2.08222 0
M  V30 7206 C 652.918 -3.54951 -0.417701 0
M  V30 7207 S 654.477 -4.28114 -0.962472 0
M  V30 7208 H 651.295 -0.709445 -0.0469912 0
M  V30 7209 H 653.897 -1.874 0.556901 0
M  V30 7210 H 652.601 -4.07306 0.50295 0
M  V30 7211 H 652.132 -3.75462 -1.17437 0
M  V30 7212 H 654.147 -4.42589 -2.24342 0
M  V30 7213 N 653.32 -0.135238 -1.57019 0
M  V30 7214 C 654.25 0.805235 -2.19176 0
M  V30 7215 C 655.231 1.2656 -1.13651 0
M  V30 7216 O 656.416 1.32528 -1.4195 0
M  V30 7217 C 653.546 2.04914 -2.80406 0
M  V30 7218 C 652.5 1.72598 -3.91655 0
M  V30 7219 C 651.826 3.04154 -4.39766 0
M  V30 7220 C 653.126 0.981709 -5.12991 0
M  V30 7221 H 654.82 0.287232 -2.98019 0
M  V30 7222 H 652.366 0.136714 -1.4335 0
M  V30 7223 H 654.319 2.71178 -3.22553 0
M  V30 7224 H 653.043 2.59067 -1.98877 0
M  V30 7225 H 651.702 1.08717 -3.50109 0
M  V30 7226 H 651.35 3.56274 -3.55075 0
M  V30 7227 H 651.05 2.83299 -5.14796 0
M  V30 7228 H 652.574 3.71509 -4.84576 0
M  V30 7229 H 653.988 1.5462 -5.52056 0
M  V30 7230 H 652.385 0.873533 -5.93708 0
M  V30 7231 H 653.455 -0.0286887 -4.84892 0
M  V30 7232 N 654.798 1.5699 0.138552 0
M  V30 7233 C 656.023 1.88344 0.86841 0
M  V30 7234 C 656.448 0.725159 1.7356 0
M  V30 7235 O 655.806 -0.324992 1.78363 0
M  V30 7236 C 655.854 3.18334 1.69398 0
M  V30 7237 O 654.958 3.02863 2.79907 0
M  V30 7238 H 654.299 0.618577 0.241367 0
M  V30 7239 H 656.829 2.04207 0.126826 0
M  V30 7240 H 656.839 3.50567 2.08726 0
M  V30 7241 H 655.514 4.02238 1.05725 0
M  V30 7242 H 654.091 2.82056 2.43924 0
M  V30 7243 N 656.276 -0.40816 1.52223 0
M  V30 7244 C 657.553 -1.16807 1.56893 0
M  V30 7245 C 657.933 -2.08169 0.350537 0
M  V30 7246 O 657.281 -2.18684 -0.662536 0
M  V30 7247 C 657.491 -1.94451 2.8981 0
M  V30 7248 C 658.839 -2.50484 3.42845 0
M  V30 7249 O 659.863 -2.0463 2.91556 0
M  V30 7250 O 658.722 -3.34192 4.3241 0
M  V30 7251 H 655.816 -0.533382 0.632007 0
M  V30 7252 H 658.362 -0.414862 1.64551 0
M  V30 7253 H 657.134 -1.27527 3.69936 0
M  V30 7254 H 656.757 -2.76775 2.85449 0
M  V30 7255 N 657.755 -1.42862 -0.66545 0
M  V30 7256 C 658.985 -1.47032 -1.45138 0
M  V30 7257 C 659.393 -0.0829977 -1.89018 0
M  V30 7258 O 658.736 0.914551 -1.59316 0
M  V30 7259 C 658.798 -2.34302 -2.72659 0
M  V30 7260 C 658.462 -3.82034 -2.50796 0
M  V30 7261 C 659.459 -4.73453 -2.14799 0
M  V30 7262 C 657.144 -4.26397 -2.655 0
M  V30 7263 C 659.138 -6.07228 -1.93785 0
M  V30 7264 C 656.825 -5.6023 -2.44103 0
M  V30 7265 C 657.823 -6.50462 -2.08299 0
M  V30 7266 O 657.511 -7.8182 -1.87116 0
M  V30 7267 H 657.243 -0.501969 -0.452772 0
M  V30 7268 H 659.797 -1.88137 -0.82423 0
M  V30 7269 H 658.027 -1.88063 -3.37889 0
M  V30 7270 H 659.716 -2.29818 -3.34572 0
M  V30 7271 H 660.482 -4.4046 -2.03026 0
M  V30 7272 H 656.361 -3.56448 -2.92345 0
M  V30 7273 H 659.905 -6.7762 -1.65763 0
M  V30 7274 H 655.802 -5.92793 -2.55475 0
M  V30 7275 H 656.57 -7.93274 -2.01639 0
M  V30 7276 N 659.233 0.902656 -1.29189 0
M  V30 7277 C 660.163 2.02294 -1.16616 0
M  V30 7278 C 661.144 1.6999 -0.0611175 0
M  V30 7279 O 662.329 1.9271 -0.240072 0
M  V30 7280 C 659.459 3.37018 -0.83882 0
M  V30 7281 C 658.413 3.83522 -1.89986 0
M  V30 7282 C 657.739 5.15337 -1.42589 0
M  V30 7283 C 659.039 4.04169 -3.30824 0
M  V30 7284 H 660.733 2.13071 -2.10336 0
M  V30 7285 H 658.279 1.02378 -1.01266 0
M  V30 7286 H 660.232 4.14895 -0.737584 0
M  V30 7287 H 658.956 3.26325 0.134071 0
M  V30 7288 H 657.615 3.07859 -1.99043 0
M  V30 7289 H 657.263 5.01056 -0.441759 0
M  V30 7290 H 656.963 5.47423 -2.13547 0
M  V30 7291 H 658.487 5.95758 -1.3381 0
M  V30 7292 H 659.901 4.72537 -3.24626 0
M  V30 7293 H 658.298 4.47604 -3.99713 0
M  V30 7294 H 659.368 3.08604 -3.74021 0
M  V30 7295 N 660.711 1.11618 1.11262 0
M  V30 7296 C 662.127 0.850468 1.35053 0
M  V30 7297 C 662.327 -0.523868 1.94571 0
M  V30 7298 O 661.383 -1.2743 2.17986 0
M  V30 7299 C 662.696 1.96005 2.28041 0
M  V30 7300 C 664.244 1.98993 2.416 0
M  V30 7301 C 664.719 3.0916 3.37911 0
M  V30 7302 N 666.21 3.08547 3.45475 0
M  V30 7303 C 666.945 3.9043 4.19943 0
M  V30 7304 N 666.441 4.8228 4.97371 0
M  V30 7305 N 668.234 3.786 4.15474 0
M  V30 7306 H 660.385 2.00184 0.709932 0
M  V30 7307 H 662.648 0.870635 0.375099 0
M  V30 7308 H 662.354 2.9499 1.91503 0
M  V30 7309 H 662.228 1.85782 3.28275 0
M  V30 7310 H 664.615 1.00633 2.77411 0
M  V30 7311 H 664.696 2.13292 1.4121 0
M  V30 7312 H 664.34 4.07748 3.02827 0
M  V30 7313 H 664.27 2.92102 4.3816 0
M  V30 7314 H 666.761 2.42 2.90249 0
M  V30 7315 H 667.074 5.41289 5.51567 0
M  V30 7316 H 665.419 4.863 4.96525 0
M  V30 7317 H 668.61 3.06185 3.54074 0
M  V30 7318 H 668.783 4.42647 4.73253 0
M  V30 7319 N 662.189 -1.289 0.906776 0
M  V30 7320 C 663.417 -1.99401 0.551969 0
M  V30 7321 C 663.832 -1.67816 -0.865048 0
M  V30 7322 O 663.189 -0.927078 -1.57199 0
M  V30 7323 C 663.24 -3.53779 0.743152 0
M  V30 7324 O 662.961 -3.84248 2.1044 0
M  V30 7325 C 664.462 -4.41543 0.39424 0
M  V30 7326 H 661.682 -0.636926 0.211106 0
M  V30 7327 H 664.226 -1.64266 1.21807 0
M  V30 7328 H 662.381 -3.87201 0.124143 0
M  V30 7329 H 662.795 -4.78904 2.13895 0
M  V30 7330 H 664.269 -5.48957 0.578814 0
M  V30 7331 H 664.746 -4.34073 -0.669137 0
M  V30 7332 H 665.352 -4.13605 0.990491 0
M  V30 7333 N 663.667 -0.670007 -1.42649 0
M  V30 7334 C 664.599 0.0501746 -2.29145 0
M  V30 7335 C 665.612 0.770331 -1.43422 0
M  V30 7336 O 666.801 0.625288 -1.6719 0
M  V30 7337 C 663.901 1.09463 -3.20735 0
M  V30 7338 C 663.074 0.44926 -4.35087 0
M  V30 7339 C 662.133 1.39285 -5.07431 0
M  V30 7340 O 661.159 0.894997 -5.6212 0
M  V30 7341 N 662.361 2.72631 -5.12496 0
M  V30 7342 H 665.126 -0.692312 -2.91594 0
M  V30 7343 H 662.687 -0.514056 -1.53522 0
M  V30 7344 H 664.679 1.72705 -3.65999 0
M  V30 7345 H 663.249 1.73891 -2.59771 0
M  V30 7346 H 662.469 -0.362573 -3.92529 0
M  V30 7347 H 663.757 -0.000544776 -5.088 0
M  V30 7348 H 663.155 3.15623 -4.69467 0
M  V30 7349 H 661.712 3.31132 -5.61422 0
M  V30 7350 N 665.145 1.52092 -0.413018 0
M  V30 7351 C 666.561 1.59471 -0.0640836 0
M  V30 7352 C 666.761 1.42562 1.42402 0
M  V30 7353 O 665.817 1.25453 2.19129 0
M  V30 7354 C 667.13 2.95392 -0.562474 0
M  V30 7355 C 668.678 3.08637 -0.520788 0
M  V30 7356 C 669.153 4.47044 -0.995752 0
M  V30 7357 N 670.644 4.53296 -0.952732 0
M  V30 7358 C 671.379 5.58669 -1.29138 0
M  V30 7359 N 670.875 6.71576 -1.70168 0
M  V30 7360 N 672.668 5.48898 -1.2111 0
M  V30 7361 H 664.819 1.6133 -1.38153 0
M  V30 7362 H 667.082 0.75916 -0.567785 0
M  V30 7363 H 666.788 3.13059 -1.60271 0
M  V30 7364 H 666.662 3.77191 0.0257875 0
M  V30 7365 H 669.049 2.90652 0.510412 0
M  V30 7366 H 669.13 2.28735 -1.14515 0
M  V30 7367 H 668.774 4.65773 -2.0253 0
M  V30 7368 H 668.704 5.25448 -0.348162 0
M  V30 7369 H 671.195 3.72248 -0.651119 0
M  V30 7370 H 671.508 7.47973 -1.9431 0
M  V30 7371 H 669.853 6.72847 -1.74075 0
M  V30 7372 H 673.044 4.59573 -0.889396 0
M  V30 7373 H 673.217 6.30912 -1.47833 0
M  V30 7374 N 666.623 0.143563 1.56945 0
M  V30 7375 C 667.871 -0.507402 1.95627 0
M  V30 7376 C 668.192 -1.65626 1.02922 0
M  V30 7377 O 667.462 -1.95693 0.0901136 0
M  V30 7378 H 666.042 -0.190436 0.722318 0
M  V30 7379 H 668.704 0.218257 1.93674 0
M  V30 7380 H 667.8 -0.885816 2.99265 0
M  V30 7381 N 668.101 -1.57061 -0.130224 0
M  V30 7382 C 669.031 -2.02552 -1.16168 0
M  V30 7383 C 670.012 -0.907971 -1.4384 0
M  V30 7384 O 671.197 -1.17693 -1.54473 0
M  V30 7385 C 668.327 -2.42035 -2.49071 0
M  V30 7386 C 667.281 -3.5713 -2.35886 0
M  V30 7387 C 666.607 -3.82478 -3.7365 0
M  V30 7388 C 667.907 -4.89236 -1.8288 0
M  V30 7389 H 669.601 -2.8897 -0.783359 0
M  V30 7390 H 667.147 -1.39021 -0.375376 0
M  V30 7391 H 669.1 -2.72462 -3.21469 0
M  V30 7392 H 667.824 -1.52573 -2.88771 0
M  V30 7393 H 666.483 -3.26895 -1.65938 0
M  V30 7394 H 666.131 -2.9024 -4.10816 0
M  V30 7395 H 665.831 -4.59944 -3.65685 0
M  V30 7396 H 667.355 -4.15347 -4.47571 0
M  V30 7397 H 668.769 -5.18272 -2.45085 0
M  V30 7398 H 667.166 -5.70624 -1.85763 0
M  V30 7399 H 668.236 -4.78494 -0.785571 0
M  V30 7400 N 669.579 0.400081 -1.52437 0
M  V30 7401 C 670.826 1.14619 -1.6694 0
M  V30 7402 C 671.154 1.90262 -0.403797 0
M  V30 7403 O 670.409 1.85835 0.61351 0
M  V30 7404 C 670.708 2.15914 -2.84808 0
M  V30 7405 C 670.374 1.57011 -4.2268 0
M  V30 7406 C 669.036 1.40672 -4.60179 0
M  V30 7407 C 671.388 1.14081 -5.08562 0
M  V30 7408 C 668.716 0.799335 -5.81229 0
M  V30 7409 C 671.068 0.547573 -6.30226 0
M  V30 7410 C 669.732 0.371389 -6.66466 0
M  V30 7411 H 669.002 0.419419 -0.610875 0
M  V30 7412 H 671.649 0.432227 -1.86558 0
M  V30 7413 H 669.954 2.93488 -2.59561 0
M  V30 7414 H 671.651 2.73533 -2.93225 0
M  V30 7415 H 668.241 1.70713 -3.93135 0
M  V30 7416 H 672.425 1.2551 -4.80168 0
M  V30 7417 H 667.681 0.65093 -6.07925 0
M  V30 7418 H 671.855 0.206575 -6.96094 0
M  V30 7419 H 669.482 -0.10135 -7.60132 0
M  V30 7420 N 671.057 1.43213 0.657864 0
M  V30 7421 C 672.02 1.47687 1.75275 0
M  V30 7422 C 673.02 0.362179 1.56668 0
M  V30 7423 O 674.21 0.623734 1.62651 0
M  V30 7424 C 671.342 1.32497 3.14098 0
M  V30 7425 H 672.535 2.4519 1.7269 0
M  V30 7426 H 670.088 1.2991 0.869087 0
M  V30 7427 H 670.823 0.359831 3.22298 0
M  V30 7428 H 670.608 2.13299 3.29008 0
M  V30 7429 H 672.098 1.38549 3.93946 0
M  V30 7430 N 672.536 -0.895792 1.29666 0
M  V30 7431 C 673.499 -1.98189 1.15124 0
M  V30 7432 C 674.499 -1.60572 0.0855717 0
M  V30 7433 O 675.689 -1.70991 0.332826 0
M  V30 7434 C 672.821 -3.32289 0.761372 0
M  V30 7435 H 674.014 -2.12518 2.11603 0
M  V30 7436 H 671.567 -1.0808 1.12908 0
M  V30 7437 H 672.302 -3.23662 -0.203393 0
M  V30 7438 H 672.087 -3.60958 1.53139 0
M  V30 7439 H 673.577 -4.1198 0.682792 0
M  V30 7440 N 674.014 -1.12206 -1.10668 0
M  V30 7441 C 674.924 -0.800686 -2.20513 0
M  V30 7442 C 675.94 0.209512 -1.72734 0
M  V30 7443 O 677.116 0.043705 -2.01353 0
M  V30 7444 C 674.181 -0.257353 -3.45744 0
M  V30 7445 C 673.242 -1.32718 -4.0827 0
M  V30 7446 C 672.475 -0.809674 -5.27522 0
M  V30 7447 O 672.698 0.35742 -5.69279 0
M  V30 7448 O 671.632 -1.57816 -5.80842 0
M  V30 7449 H 675.458 -1.71807 -2.50432 0
M  V30 7450 H 673.043 -0.898546 -1.19359 0
M  V30 7451 H 674.925 0.0408849 -4.2138 0
M  V30 7452 H 673.6 0.632627 -3.17458 0
M  V30 7453 H 672.507 -1.67855 -3.34329 0
M  V30 7454 H 673.84 -2.19083 -4.40753 0
M  V30 7455 N 675.492 1.28418 -0.913599 0
M  V30 7456 C 676.72 1.99106 -0.562536 0
M  V30 7457 C 677.135 1.68273 0.856137 0
M  V30 7458 O 676.492 0.935401 1.56705 0
M  V30 7459 C 676.543 3.5338 -0.761903 0
M  V30 7460 O 676.264 3.83127 -2.12475 0
M  V30 7461 C 677.765 4.41328 -0.417651 0
M  V30 7462 H 674.985 0.635798 -0.214481 0
M  V30 7463 H 677.529 1.63618 -1.22676 0
M  V30 7464 H 675.684 3.8713 -0.144676 0
M  V30 7465 H 676.098 4.77763 -2.16431 0
M  V30 7466 H 677.572 5.48642 -0.607919 0
M  V30 7467 H 678.049 4.34422 0.646108 0
M  V30 7468 H 678.655 4.13074 -1.01241 0
M  V30 7469 N 676.97 0.677563 1.42291 0
M  V30 7470 C 677.9 0.014968 2.33495 0
M  V30 7471 C 678.881 -0.786376 1.50831 0
M  V30 7472 O 680.066 -0.742975 1.79426 0
M  V30 7473 C 677.196 -0.935023 3.34477 0
M  V30 7474 C 676.15 -0.242074 4.27315 0
M  V30 7475 C 675.476 -1.30519 5.18526 0
M  V30 7476 C 676.776 0.880604 5.14823 0
M  V30 7477 H 678.47 0.776671 2.89151 0
M  V30 7478 H 676.016 0.37494 1.39033 0
M  V30 7479 H 677.969 -1.40766 3.97194 0
M  V30 7480 H 676.693 -1.72818 2.77131 0
M  V30 7481 H 675.352 0.210351 3.65996 0
M  V30 7482 H 675 -2.09041 4.57505 0
M  V30 7483 H 674.7 -0.846652 5.81468 0
M  V30 7484 H 676.224 -1.7787 5.84119 0
M  V30 7485 H 677.638 0.489062 5.7121 0
M  V30 7486 H 676.035 1.26511 5.86613 0
M  V30 7487 H 677.105 1.72818 4.53059 0
M  V30 7488 N 678.448 -1.51871 0.421078 0
M  V30 7489 C 679.378 -2.30231 -0.389363 0
M  V30 7490 C 680.359 -1.34946 -1.03555 0
M  V30 7491 O 681.544 -1.63859 -1.04229 0
M  V30 7492 C 678.674 -3.13247 -1.49979 0
M  V30 7493 C 677.628 -4.16677 -0.977966 0
M  V30 7494 C 676.954 -4.88112 -2.1829 0
M  V30 7495 C 678.254 -5.22295 -0.0236775 0
M  V30 7496 H 679.948 -2.98229 0.264524 0
M  V30 7497 H 677.494 -1.43424 0.12866 0
M  V30 7498 H 679.447 -3.66838 -2.07383 0
M  V30 7499 H 678.171 -2.4304 -2.18173 0
M  V30 7500 H 676.83 -3.64114 -0.426245 0
M  V30 7501 H 676.478 -4.14423 -2.85066 0
M  V30 7502 H 676.178 -5.58041 -1.84021 0
M  V30 7503 H 677.702 -5.44521 -2.76278 0
M  V30 7504 H 679.116 -5.71055 -0.506899 0
M  V30 7505 H 677.513 -5.99656 0.230782 0
M  V30 7506 H 678.583 -4.76131 0.917999 0
M  V30 7507 N 679.926 -0.151884 -1.56866 0
M  V30 7508 C 681.174 0.497021 -1.95893 0
M  V30 7509 C 681.495 1.65078 -1.03799 0
M  V30 7510 O 680.765 1.95642 -0.10049 0
M  V30 7511 H 679.345 0.186603 -0.723318 0
M  V30 7512 H 682.007 -0.228525 -1.93556 0
M  V30 7513 H 681.103 0.869933 -2.99731 0
M  V30 7514 N 681.404 1.57128 0.121893 0
M  V30 7515 C 682.337 1.95327 1.17995 0
M  V30 7516 C 683.315 0.822524 1.40262 0
M  V30 7517 O 684.499 1.08044 1.54463 0
M  V30 7518 C 681.626 2.24699 2.53432 0
M  V30 7519 C 680.672 3.47263 2.4761 0
M  V30 7520 S 681.505 4.99951 1.91857 0
M  V30 7521 C 682.661 5.32473 3.28973 0
M  V30 7522 H 682.894 2.84765 0.854182 0
M  V30 7523 H 680.427 1.50864 0.328534 0
M  V30 7524 H 682.385 2.423 3.31362 0
M  V30 7525 H 681.046 1.3588 2.83188 0
M  V30 7526 H 680.239 3.65171 3.4737 0
M  V30 7527 H 679.841 3.29034 1.778 0
M  V30 7528 H 682.133 5.27478 4.25175 0
M  V30 7529 H 683.076 6.33732 3.15895 0
M  V30 7530 H 683.484 4.59952 3.27268 0
M  V30 7531 N 682.882 -0.391992 1.52647 0
M  V30 7532 C 684.122 -1.1463 1.69232 0
M  V30 7533 C 684.486 -1.87312 0.421684 0
M  V30 7534 O 685.687 -2.64768 0.463852 0
M  V30 7535 C 683.958 -2.10088 2.89133 0
M  V30 7536 S 685.517 -2.93395 3.2629 0
M  V30 7537 H 682.335 -0.388076 0.59575 0
M  V30 7538 H 684.937 -0.431149 1.90687 0
M  V30 7539 H 683.641 -1.55408 3.79837 0
M  V30 7540 H 683.172 -2.86116 2.70003 0
M  V30 7541 H 685.187 -4.12193 2.76244 0
M  V30 7542 N 684.36 -1.4356 -0.65026 0
M  V30 7543 C 685.29 -1.51758 -1.77459 0
M  V30 7544 C 686.271 -0.372019 -1.65982 0
M  V30 7545 O 687.456 -0.589627 -1.85033 0
M  V30 7546 C 684.586 -1.44302 -3.15902 0
M  V30 7547 C 683.54 -2.57138 -3.42146 0
M  V30 7548 C 682.866 -2.34735 -4.8042 0
M  V30 7549 C 684.166 -3.99373 -3.36598 0
M  V30 7550 H 685.86 -2.45863 -1.70855 0
M  V30 7551 H 683.406 -1.18333 -0.820566 0
M  V30 7552 H 685.359 -1.48641 -3.94314 0
M  V30 7553 H 684.083 -0.467026 -3.23244 0
M  V30 7554 H 682.742 -2.52157 -2.66106 0
M  V30 7555 H 682.39 -1.35372 -4.84441 0
M  V30 7556 H 682.09 -3.10375 -4.9894 0
M  V30 7557 H 683.614 -2.40862 -5.61086 0
M  V30 7558 H 685.028 -4.05826 -4.04942 0
M  V30 7559 H 683.425 -4.75063 -3.66654 0
M  V30 7560 H 684.495 -4.243 -2.34729 0
M  V30 7561 N 685.838 0.888903 -1.30139 0
M  V30 7562 C 687.115 1.62145 -1.094 0
M  V30 7563 C 687.495 2.08041 0.358091 0
M  V30 7564 O 686.843 1.84438 1.34888 0
M  V30 7565 C 687.053 2.794 -2.09133 0
M  V30 7566 C 688.401 3.49826 -2.40638 0
M  V30 7567 O 689.425 2.89583 -2.07412 0
M  V30 7568 O 688.284 4.58457 -2.97455 0
M  V30 7569 H 685.378 0.712475 -0.41989 0
M  V30 7570 H 687.924 0.936023 -1.41551 0
M  V30 7571 H 686.696 2.42762 -3.06891 0
M  V30 7572 H 686.319 3.55643 -1.77776 0
M  V30 7573 N 687.317 1.12792 1.10072 0
M  V30 7574 C 688.563 0.886857 1.82381 0
M  V30 7575 C 688.896 -0.58576 1.85155 0
M  V30 7576 O 688.171 -1.43317 1.31493 0
M  V30 7577 C 688.454 1.46703 3.28862 0
M  V30 7578 C 688.307 3.00829 3.34398 0
M  V30 7579 C 689.626 1.12971 4.25353 0
M  V30 7580 H 686.745 0.32362 0.662148 0
M  V30 7581 H 689.387 1.39513 1.28982 0
M  V30 7582 H 687.537 1.03476 3.74466 0
M  V30 7583 H 689.209 3.52764 2.97247 0
M  V30 7584 H 687.452 3.36164 2.74183 0
M  V30 7585 H 688.123 3.36519 4.3756 0
M  V30 7586 H 690.599 1.50313 3.88001 0
M  V30 7587 H 689.475 1.56223 5.26199 0
M  V30 7588 H 689.736 0.0424452 4.4208 0
M  V30 7589 N 688.795 -1.27931 0.920396 0
M  V30 7590 C 690.035 -1.96459 0.564198 0
M  V30 7591 C 690.399 -1.70802 -0.876967 0
M  V30 7592 O 691.6 -2.32956 -1.34107 0
M  V30 7593 C 689.871 -3.46583 0.872641 0
M  V30 7594 S 691.43 -4.34343 0.623859 0
M  V30 7595 H 688.248 -0.679735 0.208523 0
M  V30 7596 H 690.85 -1.55319 1.18727 0
M  V30 7597 H 689.554 -3.62753 1.91933 0
M  V30 7598 H 689.085 -3.92677 0.238479 0
M  V30 7599 H 691.1 -4.93449 -0.521744 0
M  V30 7600 N 690.273 -0.685099 -1.4193 0
M  V30 7601 C 691.183 -0.013404 -2.34596 0
M  V30 7602 C 692.199 0.777589 -1.55658 0
M  V30 7603 O 693.375 0.717553 -1.88184 0
M  V30 7604 C 690.44 0.919031 -3.34297 0
M  V30 7605 C 689.501 0.121417 -4.29128 0
M  V30 7606 C 688.734 1.00944 -5.24067 0
M  V30 7607 O 688.957 2.24898 -5.24192 0
M  V30 7608 O 687.891 0.464724 -6.00103 0
M  V30 7609 H 691.717 -0.776978 -2.93593 0
M  V30 7610 H 689.302 -0.445379 -1.42607 0
M  V30 7611 H 691.184 1.45402 -3.9552 0
M  V30 7612 H 689.859 1.66228 -2.77759 0
M  V30 7613 H 688.766 -0.45792 -3.71287 0
M  V30 7614 H 690.099 -0.582937 -4.88736 0
M  V30 7615 N 691.751 1.51645 -0.429126 0
M  V30 7616 C 692.999 2.01616 0.139802 0
M  V30 7617 C 693.32 1.31568 1.43927 0
M  V30 7618 O 692.59 0.447688 1.90716 0
M  V30 7619 H 691.17 0.744998 0.054654 0
M  V30 7620 H 693.832 1.8638 -0.569952 0
M  V30 7621 H 692.928 3.10439 0.321609 0
M  V30 7622 N 693.229 0.160201 1.56784 0
M  V30 7623 C 694.162 -0.812797 2.13234 0
M  V30 7624 C 695.14 -1.2335 1.05942 0
M  V30 7625 O 696.324 -1.32725 1.33852 0
M  V30 7626 C 693.451 -2.09311 2.66283 0
M  V30 7627 C 692.497 -1.8173 3.85845 0
M  V30 7628 S 693.33 -0.996473 5.26147 0
M  V30 7629 C 694.486 -2.28769 5.82594 0
M  V30 7630 H 694.719 -0.332794 2.95432 0
M  V30 7631 H 692.252 -0.0542971 1.54304 0
M  V30 7632 H 694.21 -2.82854 2.97496 0
M  V30 7633 H 692.871 -2.54425 1.84192 0
M  V30 7634 H 692.064 -2.76699 4.21253 0
M  V30 7635 H 691.666 -1.16289 3.55462 0
M  V30 7636 H 693.958 -3.24319 5.9483 0
M  V30 7637 H 694.901 -1.97846 6.79899 0
M  V30 7638 H 695.309 -2.40021 5.10931 0
M  V30 7639 N 694.707 -1.5719 -0.113559 0
M  V30 7640 C 695.67 -1.99796 -1.12314 0
M  V30 7641 C 696.67 -0.888847 -1.34001 0
M  V30 7642 O 697.86 -1.15476 -1.30426 0
M  V30 7643 C 694.992 -2.34279 -2.47641 0
M  V30 7644 H 696.185 -2.90193 -0.756825 0
M  V30 7645 H 693.738 -1.52144 -0.358029 0
M  V30 7646 H 694.473 -1.46778 -2.89183 0
M  V30 7647 H 694.258 -3.15175 -2.33253 0
M  V30 7648 H 695.748 -2.67963 -3.2029 0
M  V30 7649 N 696.185 0.383891 -1.52853 0
M  V30 7650 C 697.415 1.14783 -1.7178 0
M  V30 7651 C 697.823 1.84055 -0.438211 0
M  V30 7652 O 697.166 1.73713 0.597465 0
M  V30 7653 C 697.228 2.23543 -2.81547 0
M  V30 7654 C 696.892 1.74195 -4.22499 0
M  V30 7655 C 697.889 1.21591 -5.05481 0
M  V30 7656 C 695.574 1.80262 -4.6884 0
M  V30 7657 C 697.568 0.757104 -6.32888 0
M  V30 7658 C 695.255 1.33993 -5.96229 0
M  V30 7659 C 696.253 0.818049 -6.78083 0
M  V30 7660 O 695.941 0.362123 -8.03084 0
M  V30 7661 H 695.673 0.349908 -0.578395 0
M  V30 7662 H 698.227 0.454377 -2.00311 0
M  V30 7663 H 696.457 2.96328 -2.48449 0
M  V30 7664 H 698.146 2.8519 -2.88828 0
M  V30 7665 H 698.912 1.16257 -4.7086 0
M  V30 7666 H 694.791 2.19825 -4.05213 0
M  V30 7667 H 698.335 0.34908 -6.96726 0
M  V30 7668 H 694.232 1.39015 -6.30353 0
M  V30 7669 H 695 0.483134 -8.17073 0
M  V30 7670 N 697.663 1.43903 0.642637 0
M  V30 7671 C 698.593 1.52697 1.76652 0
M  V30 7672 C 699.574 0.380816 1.65782 0
M  V30 7673 O 700.759 0.599432 1.84717 0
M  V30 7674 C 697.889 1.45975 3.15133 0
M  V30 7675 C 696.843 2.58949 3.40778 0
M  V30 7676 C 696.169 2.37279 4.79169 0
M  V30 7677 C 697.469 4.01153 3.34475 0
M  V30 7678 H 699.163 2.46766 1.69549 0
M  V30 7679 H 696.709 1.18767 0.814279 0
M  V30 7680 H 698.662 1.5073 3.93521 0
M  V30 7681 H 697.386 0.484162 3.22991 0
M  V30 7682 H 696.045 2.53564 2.64765 0
M  V30 7683 H 695.693 1.37939 4.83717 0
M  V30 7684 H 695.393 3.13016 4.97287 0
M  V30 7685 H 696.917 2.43834 5.59801 0
M  V30 7686 H 698.331 4.07968 4.02784 0
M  V30 7687 H 696.728 4.77001 3.64129 0
M  V30 7688 H 697.798 4.25539 2.32475 0
M  V30 7689 N 699.141 -0.881989 1.30609 0
M  V30 7690 C 700.051 -2.02076 1.19174 0
M  V30 7691 C 701.067 -1.73645 0.11102 0
M  V30 7692 O 702.243 -1.98735 0.326528 0
M  V30 7693 C 699.308 -3.3515 0.887438 0
M  V30 7694 C 698.369 -3.76983 2.05383 0
M  V30 7695 C 697.602 -5.03707 1.76395 0
M  V30 7696 O 697.825 -5.66171 0.693302 0
M  V30 7697 O 696.759 -5.42019 2.61723 0
M  V30 7698 H 700.585 -2.14652 2.14845 0
M  V30 7699 H 698.17 -1.00843 1.10232 0
M  V30 7700 H 700.052 -4.14975 0.73306 0
M  V30 7701 H 698.727 -3.23676 -0.0393354 0
M  V30 7702 H 697.634 -2.97849 2.26355 0
M  V30 7703 H 698.967 -3.93066 2.96243 0
M  V30 7704 N 700.619 -1.13374 -1.09472 0
M  V30 7705 C 701.529 -0.824029 -2.19652 0
M  V30 7706 C 702.545 0.19118 -1.72947 0
M  V30 7707 O 703.721 0.0223464 -2.01388 0
M  V30 7708 C 700.786 -0.294009 -3.45451 0
M  V30 7709 C 699.847 -1.3704 -4.0684 0
M  V30 7710 C 699.08 -0.86558 -5.26634 0
M  V30 7711 O 699.303 0.29702 -5.69626 0
M  V30 7712 O 698.237 -1.63968 -5.79136 0
M  V30 7713 H 702.063 -1.74454 -2.48595 0
M  V30 7714 H 699.648 -0.911155 -1.18399 0
M  V30 7715 H 701.53 -0.00381039 -4.214 0
M  V30 7716 H 700.205 0.598921 -3.18111 0
M  V30 7717 H 699.112 -1.71391 -3.3253 0
M  V30 7718 H 700.445 -2.23746 -4.38405 0
M  V30 7719 N 702.098 1.27442 -0.927168 0
M  V30 7720 C 703.061 2.2512 -0.430525 0
M  V30 7721 C 704.061 1.54357 0.450619 0
M  V30 7722 O 705.251 1.72371 0.251774 0
M  V30 7723 C 702.383 3.38763 0.381144 0
M  V30 7724 H 703.576 2.70569 -1.29354 0
M  V30 7725 H 701.129 1.39355 -0.707806 0
M  V30 7726 H 701.864 2.98695 1.263 0
M  V30 7727 H 701.649 3.91298 -0.250618 0
M  V30 7728 H 703.139 4.11364 0.719012 0
M  V30 7729 N 703.576 0.692616 1.41565 0
M  V30 7730 C 704.816 0.226453 2.03142 0
M  V30 7731 C 705.18 -1.1512 1.5366 0
M  V30 7732 O 706.381 -1.71305 2.07143 0
M  V30 7733 C 704.652 0.27855 3.56313 0
M  V30 7734 S 706.211 -0.114001 4.38652 0
M  V30 7735 H 703.029 0.0914767 0.705091 0
M  V30 7736 H 705.631 0.909737 1.73043 0
M  V30 7737 H 704.335 1.28325 3.89821 0
M  V30 7738 H 703.866 -0.423981 3.91109 0
M  V30 7739 H 705.881 -1.34256 4.77692 0
M  V30 7740 N 705.054 -1.51416 0.437162 0
M  V30 7741 C 706.3 -2.02386 -0.129555 0
M  V30 7742 C 706.633 -1.32071 -1.42376 0
M  V30 7743 O 705.908 -0.43559 -1.8956 0
M  V30 7744 C 706.191 -3.5841 -0.348487 0
M  V30 7745 C 706.044 -4.39341 0.964352 0
M  V30 7746 C 707.363 -4.25654 -1.11834 0
M  V30 7747 H 704.482 -0.735587 -0.0456109 0
M  V30 7748 H 707.124 -1.81055 0.576124 0
M  V30 7749 H 705.274 -3.76716 -0.949592 0
M  V30 7750 H 706.946 -4.32685 1.59942 0
M  V30 7751 H 705.189 -4.04432 1.56898 0
M  V30 7752 H 705.86 -5.4667 0.765212 0
M  V30 7753 H 708.336 -4.11617 -0.609165 0
M  V30 7754 H 707.212 -5.34704 -1.24029 0
M  V30 7755 H 707.473 -3.86502 -2.14636 0
M  V30 7756 N 706.532 -0.168513 -1.56696 0
M  V30 7757 C 707.781 0.477233 -1.95973 0
M  V30 7758 C 708.094 1.64578 -1.05704 0
M  V30 7759 O 709.3 2.35758 -1.3465 0
M  V30 7760 C 707.756 0.900413 -3.48455 0
M  V30 7761 C 707.364 -0.242382 -4.47344 0
M  V30 7762 C 709.108 1.51474 -3.96555 0
M  V30 7763 C 707.015 0.200272 -5.91061 0
M  V30 7764 H 705.945 0.182061 -0.73169 0
M  V30 7765 H 708.596 -0.256297 -1.81701 0
M  V30 7766 H 706.978 1.68984 -3.58135 0
M  V30 7767 H 708.152 -1.01967 -4.49377 0
M  V30 7768 H 706.467 -0.766484 -4.09285 0
M  V30 7769 H 709.064 1.85792 -5.01384 0
M  V30 7770 H 709.407 2.41163 -3.39332 0
M  V30 7771 H 709.94 0.789802 -3.89881 0
M  V30 7772 H 706.679 -0.661775 -6.52151 0
M  V30 7773 H 706.199 0.942979 -5.92341 0
M  V30 7774 H 707.878 0.645088 -6.43776 0
M  V30 7775 N 708.01 1.57248 0.105221 0
M  V30 7776 C 708.96 1.9777 1.1345 0
M  V30 7777 C 709.944 0.854654 1.36325 0
M  V30 7778 O 711.136 1.11844 1.37186 0
M  V30 7779 C 708.265 2.39717 2.45745 0
M  V30 7780 C 707.351 3.58686 2.26286 0
M  V30 7781 N 707.742 4.73942 1.76671 0
M  V30 7782 C 706.04 3.64586 2.56891 0
M  V30 7783 C 706.741 5.55923 1.71245 0
M  V30 7784 N 705.717 4.98803 2.16093 0
M  V30 7785 H 709.519 2.84336 0.743664 0
M  V30 7786 H 707.033 1.59359 0.312787 0
M  V30 7787 H 709.03 2.66971 3.20206 0
M  V30 7788 H 707.69 1.54523 2.85574 0
M  V30 7789 H 708.701 4.9689 1.46016 0
M  V30 7790 H 705.378 2.90031 3.00314 0
M  V30 7791 H 706.768 6.58398 1.34022 0
M  V30 7792 N 709.488 -0.375779 1.53054 0
M  V30 7793 C 710.904 -0.716764 1.426 0
M  V30 7794 C 711.104 -1.93651 0.556931 0
M  V30 7795 O 710.16 -2.52475 0.0354461 0
M  V30 7796 C 711.473 -0.939499 2.85646 0
M  V30 7797 C 713.021 -1.04015 2.95212 0
M  V30 7798 C 713.496 -1.29543 4.39298 0
M  V30 7799 N 714.987 -1.36335 4.42682 0
M  V30 7800 C 715.722 -1.57778 5.51266 0
M  V30 7801 N 715.218 -1.76604 6.69913 0
M  V30 7802 N 717.011 -1.60065 5.38828 0
M  V30 7803 H 709.162 0.42664 2.08071 0
M  V30 7804 H 711.425 0.128758 0.939215 0
M  V30 7805 H 711.131 -0.115189 3.51511 0
M  V30 7806 H 711.005 -1.85048 3.2869 0
M  V30 7807 H 713.392 -1.85501 2.29507 0
M  V30 7808 H 713.473 -0.106785 2.55577 0
M  V30 7809 H 713.117 -0.485611 5.05573 0
M  V30 7810 H 713.047 -2.24184 4.76497 0
M  V30 7811 H 715.538 -1.23441 3.5717 0
M  V30 7812 H 715.851 -1.9251 7.48438 0
M  V30 7813 H 714.196 -1.73802 6.72917 0
M  V30 7814 H 717.387 -1.44917 4.45103 0
M  V30 7815 H 717.56 -1.76435 6.23518 0
M  V30 7816 N 710.966 -1.44241 -0.634997 0
M  V30 7817 C 712.243 -1.37296 -1.39317 0
M  V30 7818 C 712.623 -0.0297532 -2.11079 0
M  V30 7819 O 711.971 0.987524 -2.06059 0
M  V30 7820 C 712.181 -2.56853 -2.36279 0
M  V30 7821 C 713.529 -3.00747 -2.99728 0
M  V30 7822 O 714.553 -2.5703 -2.46605 0
M  V30 7823 O 713.412 -3.76533 -3.96087 0
M  V30 7824 H 710.506 -0.543503 -0.623325 0
M  V30 7825 H 713.052 -1.56324 -0.660376 0
M  V30 7826 H 711.824 -3.46228 -1.82324 0
M  V30 7827 H 711.447 -2.40019 -3.16981 0
M  V30 7828 N 712.444 0.87505 -1.31075 0
M  V30 7829 C 713.374 1.99775 -1.20881 0
M  V30 7830 C 714.355 1.69822 -0.0971612 0
M  V30 7831 O 715.54 1.92158 -0.280895 0
M  V30 7832 C 712.67 3.35163 -0.910118 0
M  V30 7833 C 711.624 3.79406 -1.98078 0
M  V30 7834 C 710.95 5.12197 -1.53488 0
M  V30 7835 C 712.25 3.97061 -3.39323 0
M  V30 7836 H 713.944 2.08562 -2.14808 0
M  V30 7837 H 711.49 1.00207 -1.03415 0
M  V30 7838 H 713.443 4.13237 -0.825423 0
M  V30 7839 H 712.167 3.26536 0.064822 0
M  V30 7840 H 710.826 3.03568 -2.05528 0
M  V30 7841 H 710.474 5.00007 -0.547941 0
M  V30 7842 H 710.174 5.4277 -2.2511 0
M  V30 7843 H 711.698 5.92785 -1.46417 0
M  V30 7844 H 713.112 4.65545 -3.34576 0
M  V30 7845 H 711.509 4.39025 -4.09118 0
M  V30 7846 H 712.579 3.00601 -3.80483 0
M  V30 7847 N 713.922 1.13953 1.08869 0
M  V30 7848 C 714.885 0.824991 2.13838 0
M  V30 7849 C 715.885 -0.168198 1.59918 0
M  V30 7850 O 717.075 0.0595778 1.74098 0
M  V30 7851 C 714.207 0.228938 3.4013 0
M  V30 7852 H 715.4 1.75521 2.43171 0
M  V30 7853 H 712.953 0.94492 1.24503 0
M  V30 7854 H 713.688 -0.710227 3.16427 0
M  V30 7855 H 713.473 0.944243 3.80561 0
M  V30 7856 H 714.963 0.0259223 4.17592 0
M  V30 7857 N 715.4 -1.26948 0.933913 0
M  V30 7858 C 716.363 -2.24889 0.442457 0
M  V30 7859 C 717.363 -1.54594 -0.442426 0
M  V30 7860 O 718.553 -1.72502 -0.242629 0
M  V30 7861 C 715.685 -3.3896 -0.363173 0
M  V30 7862 H 716.878 -2.69879 1.30787 0
M  V30 7863 H 714.431 -1.38978 0.715187 0
M  V30 7864 H 715.166 -2.99361 -1.24714 0
M  V30 7865 H 714.951 -3.9116 0.271366 0
M  V30 7866 H 716.441 -4.11739 -0.697186 0
M  V30 7867 N 716.879 -0.700114 -1.41195 0
M  V30 7868 C 718.295 -0.372114 -1.55201 0
M  V30 7869 C 718.495 1.12053 -1.6747 0
M  V30 7870 O 717.551 1.90642 -1.65566 0
M  V30 7871 C 718.864 -1.12462 -2.78878 0
M  V30 7872 C 720.412 -1.10941 -2.92679 0
M  V30 7873 C 720.887 -1.84376 -4.19249 0
M  V30 7874 N 722.378 -1.81368 -4.26216 0
M  V30 7875 C 723.113 -2.35024 -5.23021 0
M  V30 7876 N 722.609 -2.9717 -6.25829 0
M  V30 7877 N 724.402 -2.25254 -5.14992 0
M  V30 7878 H 716.553 -1.66816 -1.31477 0
M  V30 7879 H 718.816 -0.704223 -0.634644 0
M  V30 7880 H 718.522 -2.17937 -2.76037 0
M  V30 7881 H 718.396 -0.706152 -3.70531 0
M  V30 7882 H 720.783 -0.062911 -2.95033 0
M  V30 7883 H 720.864 -1.56698 -2.02187 0
M  V30 7884 H 720.508 -2.89008 -4.17656 0
M  V30 7885 H 720.438 -1.3605 -5.08722 0
M  V30 7886 H 722.929 -1.36062 -3.52556 0
M  V30 7887 H 723.242 -3.35668 -6.96094 0
M  V30 7888 H 721.587 -3.01249 -6.26318 0
M  V30 7889 H 724.778 -1.76372 -4.33602 0
M  V30 7890 H 724.951 -2.67373 -5.90268 0
M  V30 7891 N 718.357 1.51182 -0.445186 0
M  V30 7892 C 719.305 2.29531 0.376597 0
M  V30 7893 C 720.299 1.35711 1.01385 0
M  V30 7894 O 721.505 1.53018 0.947922 0
M  V30 7895 H 717.88 0.738803 0.140267 0
M  V30 7896 H 719.851 2.96838 -0.304958 0
M  V30 7897 C 718.6 3.1552 1.4609 0
M  V30 7898 H 717.923 3.87605 0.979912 0
M  V30 7899 H 719.363 3.73384 2.009 0
M  V30 7900 C 717.822 2.31406 2.44852 0
M  V30 7901 O 718.352 1.97912 3.49562 0
M  V30 7902 N 716.558 1.94478 2.15932 0
M  V30 7903 H 716.105 2.21917 1.30808 0
M  V30 7904 H 716.063 1.38498 2.82251 0
M  V30 7905 N 719.835 0.176821 1.56605 0
M  V30 7906 C 721.075 -0.469104 1.98944 0
M  V30 7907 C 721.439 -1.60048 1.06059 0
M  V30 7908 O 722.64 -2.30934 1.3756 0
M  V30 7909 C 720.911 -0.934571 3.44965 0
M  V30 7910 S 722.47 -1.58091 4.09332 0
M  V30 7911 H 719.288 -0.150695 0.694847 0
M  V30 7912 H 721.89 0.27558 1.93548 0
M  V30 7913 H 720.594 -0.100814 4.10276 0
M  V30 7914 H 720.125 -1.71316 3.54139 0
M  V30 7915 H 722.14 -2.86922 4.04834 0
M  V30 7916 N 721.313 -1.57302 -0.09688 0
M  V30 7917 C 722.243 -2.0497 -1.11846 0
M  V30 7918 C 723.224 -0.938278 -1.41882 0
M  V30 7919 O 724.409 -1.20943 -1.51942 0
M  V30 7920 C 721.539 -2.47264 -2.43881 0
M  V30 7921 C 720.493 -3.62053 -2.28257 0
M  V30 7922 C 719.819 -3.90318 -3.65453 0
M  V30 7923 C 721.119 -4.93005 -1.72461 0
M  V30 7924 H 722.813 -2.90567 -0.721888 0
M  V30 7925 H 720.359 -1.39786 -0.345803 0
M  V30 7926 H 722.312 -2.7922 -3.15617 0
M  V30 7927 H 721.036 -1.58664 -2.8547 0
M  V30 7928 H 719.695 -3.30341 -1.58967 0
M  V30 7929 H 719.343 -2.98889 -4.04567 0
M  V30 7930 H 719.043 -4.67597 -3.55846 0
M  V30 7931 H 720.567 -4.24747 -4.3866 0
M  V30 7932 H 721.981 -5.23354 -2.34036 0
M  V30 7933 H 720.378 -5.74436 -1.73618 0
M  V30 7934 H 721.448 -4.80053 -0.683898 0
M  V30 7935 N 722.791 0.367657 -1.53252 0
M  V30 7936 C 724.037 1.11216 -1.69584 0
M  V30 7937 C 724.37 1.89026 -0.445269 0
M  V30 7938 O 723.645 1.86342 0.557404 0
M  V30 7939 C 723.928 2.07308 -2.94441 0
M  V30 7940 C 723.781 1.3312 -4.2965 0
M  V30 7941 C 725.1 3.07459 -3.14892 0
M  V30 7942 H 722.219 0.40294 -0.617096 0
M  V30 7943 H 724.861 0.393201 -1.85887 0
M  V30 7944 H 723.011 2.68617 -2.80673 0
M  V30 7945 H 724.683 0.746111 -4.55226 0
M  V30 7946 H 722.926 0.633051 -4.29156 0
M  V30 7947 H 723.597 2.03443 -5.13142 0
M  V30 7948 H 726.073 2.56252 -3.27832 0
M  V30 7949 H 724.949 3.71919 -4.03693 0
M  V30 7950 H 725.21 3.77514 -2.30077 0
M  V30 7951 N 724.269 1.44576 0.627338 0
M  V30 7952 C 725.517 1.47267 1.38408 0
M  V30 7953 C 725.838 0.107971 1.94701 0
M  V30 7954 O 725.108 -0.860206 1.76004 0
M  V30 7955 H 723.688 0.542276 0.513756 0
M  V30 7956 H 726.35 1.80383 0.738099 0
M  V30 7957 H 725.446 2.20025 2.21349 0
M  V30 7958 N 725.747 -0.868086 1.31537 0
M  V30 7959 C 726.657 -2.00801 1.21311 0
M  V30 7960 C 727.673 -1.73518 0.129431 0
M  V30 7961 O 728.849 -1.98378 0.347588 0
M  V30 7962 C 725.914 -3.3419 0.922935 0
M  V30 7963 C 724.975 -3.74783 2.0937 0
M  V30 7964 C 724.208 -5.01807 1.81728 0
M  V30 7965 O 724.431 -5.65404 0.753313 0
M  V30 7966 O 723.365 -5.39213 2.67457 0
M  V30 7967 H 727.191 -2.12361 2.17109 0
M  V30 7968 H 724.776 -0.996684 1.11295 0
M  V30 7969 H 726.658 -4.14174 0.777033 0
M  V30 7970 H 725.333 -3.237 -0.00500301 0
M  V30 7971 H 724.24 -2.95432 2.29501 0
M  V30 7972 H 725.573 -3.89902 3.00396 0
M  V30 7973 N 727.225 -1.14528 -1.08264 0
M  V30 7974 C 728.173 -0.829201 -2.17318 0
M  V30 7975 C 729.167 0.193521 -1.68291 0
M  V30 7976 O 730.373 0.0494744 -1.79932 0
M  V30 7977 H 726.748 -0.250435 -0.709074 0
M  V30 7978 H 728.719 -1.75683 -2.41201 0
M  V30 7979 C 727.468 -0.324663 -3.46181 0
M  V30 7980 H 726.791 -1.10299 -3.84284 0
M  V30 7981 H 728.231 -0.142059 -4.23762 0
M  V30 7982 C 726.69 0.952033 -3.23169 0
M  V30 7983 O 727.22 2.02549 -3.46896 0
M  V30 7984 N 725.426 0.887854 -2.76705 0
M  V30 7985 H 724.973 0.0141402 -2.57596 0
M  V30 7986 H 724.931 1.74263 -2.61686 0
M  V30 7987 N 728.703 1.26451 -0.940633 0
M  V30 7988 C 729.635 2.25556 -0.407104 0
M  V30 7989 C 730.648 1.55888 0.469324 0
M  V30 7990 O 731.837 1.76292 0.279858 0
M  V30 7991 C 728.937 3.36109 0.434064 0
M  V30 7992 C 728.11 4.3532 -0.426082 0
M  V30 7993 C 727.169 5.25004 0.354563 0
M  V30 7994 O 726.195 5.68684 -0.242219 0
M  V30 7995 N 727.397 5.5652 1.65123 0
M  V30 7996 H 730.162 2.7197 -1.25907 0
M  V30 7997 H 727.723 1.40212 -0.809456 0
M  V30 7998 H 729.715 3.93059 0.963684 0
M  V30 7999 H 728.285 2.89194 1.18683 0
M  V30 8000 H 727.505 3.77449 -1.13692 0
M  V30 8001 H 728.793 4.986 -1.01366 0
M  V30 8002 H 728.191 5.22912 2.15822 0
M  V30 8003 H 726.748 6.16115 2.12711 0
M  V30 8004 N 730.181 0.707592 1.40822 0
M  V30 8005 C 731.427 0.244031 2.01326 0
M  V30 8006 C 731.76 -1.15722 1.55955 0
M  V30 8007 O 731.035 -1.78347 0.776044 0
M  V30 8008 C 731.318 0.315128 3.58718 0
M  V30 8009 C 731.171 1.75419 4.14184 0
M  V30 8010 C 732.49 -0.318251 4.38948 0
M  V30 8011 H 729.609 0.0901471 0.731466 0
M  V30 8012 H 732.251 0.898584 1.67408 0
M  V30 8013 H 730.401 -0.242176 3.87744 0
M  V30 8014 H 732.073 2.36626 3.95987 0
M  V30 8015 H 730.316 2.28449 3.68773 0
M  V30 8016 H 730.987 1.75538 5.23345 0
M  V30 8017 H 733.463 0.156514 4.15806 0
M  V30 8018 H 732.339 -0.238019 5.48384 0
M  V30 8019 H 732.6 -1.40067 4.19325 0
M  V30 8020 N 731.66 -1.50943 0.453197 0
M  V30 8021 C 732.909 -2.01402 -0.10951 0
M  V30 8022 C 733.222 -1.3411 -1.42386 0
M  V30 8023 O 734.428 -1.75626 -2.07045 0
M  V30 8024 C 732.884 -3.5906 -0.245693 0
M  V30 8025 C 732.492 -4.353 1.05916 0
M  V30 8026 C 734.236 -4.17617 -0.761318 0
M  V30 8027 C 732.143 -5.84699 0.887752 0
M  V30 8028 H 731.073 -0.752674 -0.0447013 0
M  V30 8029 H 733.724 -1.73913 0.585375 0
M  V30 8030 H 732.106 -3.83062 -1.00395 0
M  V30 8031 H 733.28 -4.23034 1.82698 0
M  V30 8032 H 731.595 -3.88269 1.50452 0
M  V30 8033 H 734.192 -5.26963 -0.906306 0
M  V30 8034 H 734.535 -3.77824 -1.74799 0
M  V30 8035 H 735.068 -3.97753 -0.0609416 0
M  V30 8036 H 731.807 -6.28933 1.84726 0
M  V30 8037 H 731.327 -5.99587 0.160006 0
M  V30 8038 H 733.006 -6.44682 0.547223 0
M  V30 8039 N 733.138 -0.185124 -1.56509 0
M  V30 8040 C 734.085 0.739729 -2.18624 0
M  V30 8041 C 735.055 1.217 -1.13042 0
M  V30 8042 O 736.24 1.28268 -1.41251 0
M  V30 8043 C 733.38 1.95787 -2.84186 0
M  V30 8044 C 732.493 1.52289 -4.04267 0
M  V30 8045 C 731.628 2.69576 -4.57714 0
M  V30 8046 C 730.667 2.22636 -5.70175 0
M  V30 8047 N 729.804 3.33065 -6.18071 0
M  V30 8048 H 734.644 0.203269 -2.97306 0
M  V30 8049 H 732.181 0.0885946 -1.46833 0
M  V30 8050 H 734.139 2.67253 -3.20361 0
M  V30 8051 H 732.769 2.4678 -2.08085 0
M  V30 8052 H 731.821 0.704458 -3.7382 0
M  V30 8053 H 733.133 1.13843 -4.85635 0
M  V30 8054 H 732.287 3.4918 -4.96143 0
M  V30 8055 H 731.026 3.1129 -3.75433 0
M  V30 8056 H 730.031 1.41483 -5.31284 0
M  V30 8057 H 731.256 1.81964 -6.54267 0
M  V30 8058 H 729.202 3.74328 -5.38715 0
M  V30 8059 H 729.119 2.98756 -6.94464 0
M  V30 8060 H 730.387 4.12912 -6.61153 0
M  V30 8061 N 734.616 1.57351 0.0885366 0
M  V30 8062 C 735.862 1.86696 0.791996 0
M  V30 8063 C 736.195 0.775148 1.78059 0
M  V30 8064 O 735.47 -0.216247 1.93294 0
M  V30 8065 C 735.753 3.26684 1.51491 0
M  V30 8066 C 735.606 4.465 0.543858 0
M  V30 8067 C 736.925 3.64664 2.46391 0
M  V30 8068 H 734.044 0.679049 0.286463 0
M  V30 8069 H 736.686 1.89919 0.0554866 0
M  V30 8070 H 734.836 3.24067 2.14273 0
M  V30 8071 H 736.508 4.61235 -0.0774597 0
M  V30 8072 H 734.751 4.33567 -0.142228 0
M  V30 8073 H 735.422 5.41192 1.08696 0
M  V30 8074 H 737.898 3.68267 1.93698 0
M  V30 8075 H 736.774 4.63534 2.93986 0
M  V30 8076 H 737.035 2.93698 3.30445 0
M  V30 8077 N 736.094 -0.359525 1.53444 0
M  V30 8078 C 737.319 -1.12644 1.74144 0
M  V30 8079 C 737.744 -1.82082 0.472007 0
M  V30 8080 O 737.102 -1.71962 -0.57436 0
M  V30 8081 C 737.15 -2.12781 2.9113 0
M  V30 8082 O 736.254 -3.19984 2.60162 0
M  V30 8083 H 735.595 -0.326553 0.578152 0
M  V30 8084 H 738.125 -0.414798 2.00351 0
M  V30 8085 H 738.135 -2.56278 3.17467 0
M  V30 8086 H 736.81 -1.61634 3.83207 0
M  V30 8087 H 735.387 -2.81417 2.44661 0
M  V30 8088 N 737.572 -1.44907 -0.619662 0
M  V30 8089 C 738.849 -1.38766 -1.37852 0
M  V30 8090 C 739.229 -0.0521393 -2.11036 0
M  V30 8091 O 738.577 0.965613 -2.07095 0
M  V30 8092 C 738.787 -2.59344 -2.33541 0
M  V30 8093 C 740.135 -3.03909 -2.96521 0
M  V30 8094 O 741.159 -2.59631 -2.43865 0
M  V30 8095 O 740.018 -3.80713 -3.92071 0
M  V30 8096 H 737.112 -0.550083 -0.617525 0
M  V30 8097 H 739.658 -1.57015 -0.643759 0
M  V30 8098 H 738.43 -3.48142 -1.78642 0
M  V30 8099 H 738.053 -2.43367 -3.14417 0
M  V30 8100 N 739.05 0.861098 -1.31996 0
M  V30 8101 C 740.297 1.61481 -1.22188 0
M  V30 8102 C 740.625 1.93276 0.217853 0
M  V30 8103 O 739.88 1.56942 1.16909 0
M  V30 8104 C 740.179 2.94822 -2.02027 0
M  V30 8105 C 739.845 2.82483 -3.51446 0
M  V30 8106 C 738.507 2.78825 -3.92186 0
M  V30 8107 C 740.859 2.68878 -4.46491 0
M  V30 8108 C 738.187 2.59433 -5.26224 0
M  V30 8109 C 740.539 2.51022 -5.80664 0
M  V30 8110 C 739.203 2.45753 -6.20614 0
M  V30 8111 H 738.473 0.590902 -0.447119 0
M  V30 8112 H 741.12 0.999376 -1.63355 0
M  V30 8113 H 739.425 3.6045 -1.53569 0
M  V30 8114 H 741.122 3.52149 -1.91812 0
M  V30 8115 H 737.712 2.86152 -3.19085 0
M  V30 8116 H 741.896 2.70754 -4.1594 0
M  V30 8117 H 737.152 2.53784 -5.5624 0
M  V30 8118 H 741.326 2.39473 -6.53931 0
M  V30 8119 H 738.953 2.30485 -7.24417 0
M  V30 8120 N 740.528 1.15101 1.07655 0
M  V30 8121 C 741.776 0.922149 1.79836 0
M  V30 8122 C 742.097 -0.552346 1.87014 0
M  V30 8123 O 741.367 -1.40145 1.3688 0
M  V30 8124 H 739.947 0.338182 0.666064 0
M  V30 8125 H 742.609 1.45107 1.30115 0
M  V30 8126 H 741.705 1.32883 2.82398 0
M  V30 8127 N 742.006 -1.2595 0.947325 0
M  V30 8128 C 742.939 -2.24559 0.406009 0
M  V30 8129 C 743.917 -1.54441 -0.508598 0
M  V30 8130 O 745.101 -1.83181 -0.444644 0
M  V30 8131 C 742.228 -3.36136 -0.415987 0
M  V30 8132 C 741.274 -4.24245 0.437969 0
M  V30 8133 S 742.107 -5.01948 1.86572 0
M  V30 8134 C 743.263 -6.16997 1.05194 0
M  V30 8135 H 743.496 -2.70128 1.24171 0
M  V30 8136 H 741.029 -1.34912 0.750874 0
M  V30 8137 H 742.987 -4.00861 -0.88433 0
M  V30 8138 H 741.648 -2.89167 -1.22643 0
M  V30 8139 H 740.841 -5.03634 -0.192127 0
M  V30 8140 H 740.443 -3.64416 0.841235 0
M  V30 8141 H 742.735 -6.76848 0.297126 0
M  V30 8142 H 743.678 -6.84324 1.8195 0
M  V30 8143 H 744.086 -5.61458 0.585294 0
M  V30 8144 N 743.484 -0.715051 -1.40445 0
M  V30 8145 C 744.712 -0.263959 -2.05209 0
M  V30 8146 C 745.127 1.09403 -1.53871 0
M  V30 8147 O 744.484 1.68746 -0.695064 0
M  V30 8148 C 744.535 -0.234545 -3.60738 0
M  V30 8149 O 744.256 -1.53891 -4.10182 0
M  V30 8150 C 745.757 0.235164 -4.42676 0
M  V30 8151 H 742.977 -0.11876 -0.660407 0
M  V30 8152 H 745.521 -0.973107 -1.79864 0
M  V30 8153 H 743.676 0.425563 -3.85055 0
M  V30 8154 H 744.09 -1.43903 -5.04373 0
M  V30 8155 H 745.564 0.204598 -5.51621 0
M  V30 8156 H 746.041 1.27724 -4.20218 0
M  V30 8157 H 746.647 -0.394649 -4.23465 0
M  V30 8158 N 744.962 1.50701 -0.461195 0
M  V30 8159 C 746.378 1.59187 -0.114786 0
M  V30 8160 C 746.578 1.4702 1.37794 0
M  V30 8161 O 745.634 1.32361 2.15027 0
M  V30 8162 C 746.947 2.93453 -0.656167 0
M  V30 8163 C 748.495 3.06824 -0.618715 0
M  V30 8164 C 748.97 4.4365 -1.13747 0
M  V30 8165 N 750.461 4.50035 -1.09646 0
M  V30 8166 C 751.196 5.54278 -1.46846 0
M  V30 8167 N 750.692 6.65822 -1.91448 0
M  V30 8168 N 752.485 5.44767 -1.38512 0
M  V30 8169 H 744.636 1.56853 -1.43216 0
M  V30 8170 H 746.899 0.740712 -0.59165 0
M  V30 8171 H 746.605 3.07802 -1.7015 0
M  V30 8172 H 746.479 3.77082 -0.0942261 0
M  V30 8173 H 748.866 2.92129 0.417685 0
M  V30 8174 H 748.947 2.24976 -1.21734 0
M  V30 8175 H 748.591 4.59093 -2.17245 0
M  V30 8176 H 748.521 5.24074 -0.515153 0
M  V30 8177 H 751.012 3.69988 -0.769217 0
M  V30 8178 H 751.325 7.41413 -2.18007 0
M  V30 8179 H 749.67 6.66968 -1.95393 0
M  V30 8180 H 752.861 4.56511 -1.03516 0
M  V30 8181 H 753.034 6.25889 -1.6783 0
M  V30 8182 N 746.441 0.193421 1.56409 0
M  V30 8183 C 747.688 -0.445789 1.97532 0
M  V30 8184 C 748.016 -1.61744 1.08024 0
M  V30 8185 O 747.271 -1.95338 0.118982 0
M  V30 8186 C 747.57 -0.949718 3.44551 0
M  V30 8187 C 747.236 0.108383 4.5077 0
M  V30 8188 C 745.898 0.399126 4.79542 0
M  V30 8189 C 748.25 0.825423 5.14622 0
M  V30 8190 C 745.578 1.41192 5.69457 0
M  V30 8191 C 747.93 1.82735 6.05632 0
M  V30 8192 C 746.594 2.12531 6.32761 0
M  V30 8193 H 745.864 -0.163126 0.722822 0
M  V30 8194 H 748.511 0.290035 1.89291 0
M  V30 8195 H 746.816 -1.76378 3.49854 0
M  V30 8196 H 748.513 -1.45367 3.73724 0
M  V30 8197 H 745.103 -0.128392 4.28408 0
M  V30 8198 H 749.287 0.61403 4.92487 0
M  V30 8199 H 744.543 1.6487 5.88751 0
M  V30 8200 H 748.717 2.3882 6.5417 0
M  V30 8201 H 746.344 2.91155 7.02234 0
M  V30 8202 N 747.919 -1.57396 -0.0801906 0
M  V30 8203 C 749.165 -1.87113 -0.782083 0
M  V30 8204 C 749.498 -0.78458 -1.77646 0
M  V30 8205 O 748.773 0.205993 -1.93406 0
M  V30 8206 C 749.056 -3.27483 -1.49756 0
M  V30 8207 C 748.909 -4.46782 -0.520171 0
M  V30 8208 C 750.228 -3.65965 -2.44454 0
M  V30 8209 H 747.347 -0.680559 -0.282858 0
M  V30 8210 H 749.989 -1.89946 -0.0454139 0
M  V30 8211 H 748.139 -3.25199 -2.12551 0
M  V30 8212 H 749.811 -4.61187 0.101919 0
M  V30 8213 H 748.054 -4.33485 0.165219 0
M  V30 8214 H 748.725 -5.41761 -1.05824 0
M  V30 8215 H 751.201 -3.69289 -1.91742 0
M  V30 8216 H 750.077 -4.65086 -2.91524 0
M  V30 8217 H 750.338 -2.95446 -3.28883 0
M  V30 8218 N 749.397 0.351382 -1.53633 0
M  V30 8219 C 750.327 1.43688 -1.84055 0
M  V30 8220 C 751.308 1.55251 -0.695073 0
M  V30 8221 O 752.493 1.69587 -0.946257 0
M  V30 8222 C 749.623 2.80843 -2.04315 0
M  V30 8223 C 748.577 2.84094 -3.20117 0
M  V30 8224 C 747.903 4.2406 -3.25696 0
M  V30 8225 C 749.203 2.50334 -4.58399 0
M  V30 8226 H 750.897 1.18478 -2.74961 0
M  V30 8227 H 748.443 0.568509 -1.32303 0
M  V30 8228 H 750.396 3.56821 -2.2418 0
M  V30 8229 H 749.12 3.07471 -1.10132 0
M  V30 8230 H 747.779 2.10568 -3.00094 0
M  V30 8231 H 747.427 4.47785 -2.29123 0
M  V30 8232 H 747.127 4.27147 -4.03509 0
M  V30 8233 H 748.651 5.0189 -3.47762 0
M  V30 8234 H 750.065 3.16025 -4.78332 0
M  V30 8235 H 748.462 2.64717 -5.38558 0
M  V30 8236 H 749.532 1.45542 -4.62543 0
M  V30 8237 N 750.875 1.45233 0.611969 0
M  V30 8238 C 752.152 1.39495 1.37115 0
M  V30 8239 C 752.532 0.0633303 2.11005 0
M  V30 8240 O 751.88 -0.954617 2.07604 0
M  V30 8241 C 752.09 2.60579 2.32163 0
M  V30 8242 C 753.438 3.05477 2.94905 0
M  V30 8243 O 754.462 2.60921 2.42485 0
M  V30 8244 O 753.321 3.82787 3.90047 0
M  V30 8245 H 750.415 0.55335 0.614599 0
M  V30 8246 H 752.961 1.57355 0.635423 0
M  V30 8247 H 751.733 3.49085 1.76793 0
M  V30 8248 H 751.356 2.45031 3.13122 0
M  V30 8249 N 752.353 -0.854086 1.3245 0
M  V30 8250 C 753.63 -1.59188 1.1366 0
M  V30 8251 C 754.01 -2.08917 -0.302807 0
M  V30 8252 O 753.358 -1.8795 -1.29951 0
M  V30 8253 C 753.568 -2.73757 2.16467 0
M  V30 8254 C 754.916 -3.43323 2.49829 0
M  V30 8255 O 755.94 -2.83983 2.15017 0
M  V30 8256 O 754.799 -4.50409 3.09506 0
M  V30 8257 H 751.893 -0.701092 0.438633 0
M  V30 8258 H 754.439 -0.898165 1.43983 0
M  V30 8259 H 753.211 -2.3454 3.1322 0
M  V30 8260 H 752.834 -3.50804 1.87142 0
M  V30 8261 N 753.831 -1.1567 -1.07043 0
M  V30 8262 C 754.763 -0.814095 -2.14255 0
M  V30 8263 C 755.776 0.175293 -1.61854 0
M  V30 8264 O 756.965 -0.0483984 -1.78434 0
M  V30 8265 C 754.065 -0.190082 -3.38367 0
M  V30 8266 C 753.238 -1.21768 -4.20109 0
M  V30 8267 C 752.297 -0.614863 -5.22595 0
M  V30 8268 O 751.323 -1.28167 -5.54583 0
M  V30 8269 N 752.525 0.601955 -5.77371 0
M  V30 8270 H 755.29 -1.73677 -2.44247 0
M  V30 8271 H 752.851 -1.05301 -1.22977 0
M  V30 8272 H 754.843 0.22604 -4.04068 0
M  V30 8273 H 753.413 0.635992 -3.06062 0
M  V30 8274 H 752.633 -1.81025 -3.50177 0
M  V30 8275 H 753.921 -1.9114 -4.71533 0
M  V30 8276 H 753.319 1.162 -5.53637 0
M  V30 8277 H 751.876 0.96039 -6.44686 0
M  V30 8278 N 755.309 1.25446 -0.953992 0
M  V30 8279 C 756.539 1.96929 -0.624688 0
M  V30 8280 C 756.947 1.71112 0.807292 0
M  V30 8281 O 756.29 0.983512 1.55154 0
M  V30 8282 C 756.352 3.50425 -0.802676 0
M  V30 8283 C 756.016 3.99916 -2.21169 0
M  V30 8284 C 757.013 4.10662 -3.18831 0
M  V30 8285 C 754.698 4.33598 -2.53571 0
M  V30 8286 C 756.692 4.54401 -4.46988 0
M  V30 8287 C 754.379 4.77024 -3.81958 0
M  V30 8288 C 755.377 4.87388 -4.78478 0
M  V30 8289 O 755.065 5.29851 -6.04577 0
M  V30 8290 H 754.797 0.634511 -0.233179 0
M  V30 8291 H 757.351 1.60591 -1.28061 0
M  V30 8292 H 755.581 3.86596 -0.0896044 0
M  V30 8293 H 757.27 4.03117 -0.47452 0
M  V30 8294 H 758.036 3.84872 -2.95124 0
M  V30 8295 H 753.915 4.24757 -1.79171 0
M  V30 8296 H 757.459 4.62406 -5.22328 0
M  V30 8297 H 753.356 5.02258 -4.05471 0
M  V30 8298 H 754.124 5.48039 -6.07944 0
M  V30 8299 N 756.787 0.722489 1.40064 0
M  V30 8300 C 758.015 0.274838 2.05066 0
M  V30 8301 C 758.43 -1.08586 1.54449 0
M  V30 8302 O 757.787 -1.68375 0.704003 0
M  V30 8303 C 757.838 0.253673 3.60609 0
M  V30 8304 O 757.559 1.56064 4.0936 0
M  V30 8305 C 759.06 -0.211684 4.42794 0
M  V30 8306 H 756.28 0.12226 0.659768 0
M  V30 8307 H 758.824 0.982632 1.79345 0
M  V30 8308 H 756.979 -0.405137 3.85276 0
M  V30 8309 H 757.393 1.46576 5.03603 0
M  V30 8310 H 758.867 -0.175341 5.51721 0
M  V30 8311 H 759.344 -1.25493 4.2089 0
M  V30 8312 H 759.95 0.4171 4.2325 0
M  V30 8313 N 758.265 -1.50454 0.469181 0
M  V30 8314 C 759.49 -2.0722 -0.0864892 0
M  V30 8315 C 759.915 -1.33098 -1.32916 0
M  V30 8316 O 759.273 -0.378084 -1.77314 0
M  V30 8317 C 759.321 -3.58845 -0.355384 0
M  V30 8318 O 758.425 -3.86583 -1.43622 0
M  V30 8319 H 757.766 -0.663889 0.0121414 0
M  V30 8320 H 760.296 -1.93674 0.659674 0
M  V30 8321 H 760.306 -4.03617 -0.596447 0
M  V30 8322 H 758.981 -4.12211 0.552698 0
M  V30 8323 H 757.558 -3.5365 -1.18262 0
M  V30 8324 N 759.743 -0.201713 -1.56304 0
M  V30 8325 C 760.968 0.443815 -2.02596 0
M  V30 8326 C 761.393 1.53945 -1.08086 0
M  V30 8327 O 760.751 1.81182 -0.0655056 0
M  V30 8328 C 760.799 0.971066 -3.47279 0
M  V30 8329 O 759.903 2.0836 -3.55893 0
M  V30 8330 H 759.244 0.10294 -0.655972 0
M  V30 8331 H 761.774 -0.314533 -2.02168 0
M  V30 8332 H 761.784 1.28598 -3.87204 0
M  V30 8333 H 760.459 0.169048 -4.15556 0
M  V30 8334 H 759.036 1.77683 -3.27846 0
M  V30 8335 N 761.222 1.57436 0.0718424 0
M  V30 8336 C 762.45 1.91474 0.783932 0
M  V30 8337 C 762.865 0.797669 1.71122 0
M  V30 8338 O 762.222 -0.228989 1.81058 0
M  V30 8339 C 762.273 3.25259 1.57761 0
M  V30 8340 O 761.994 4.3267 0.687596 0
M  V30 8341 C 763.495 3.7331 2.3907 0
M  V30 8342 H 760.715 0.632901 0.222885 0
M  V30 8343 H 763.259 2.04457 0.0421262 0
M  V30 8344 H 761.414 3.13804 2.27169 0
M  V30 8345 H 761.828 5.09641 1.23962 0
M  V30 8346 H 763.302 4.69551 2.90216 0
M  V30 8347 H 763.779 3.02318 3.18591 0
M  V30 8348 H 764.385 3.8771 1.74818 0
M  V30 8349 N 762.7 -0.34323 1.53817 0
M  V30 8350 C 763.948 -1.0813 1.70741 0
M  V30 8351 C 764.269 -1.89165 0.473461 0
M  V30 8352 O 763.539 -1.89075 -0.512605 0
M  V30 8353 H 762.119 -0.40219 0.629486 0
M  V30 8354 H 764.781 -0.384426 1.91071 0
M  V30 8355 H 763.877 -1.7585 2.57843 0
M  V30 8356 N 764.178 -1.45556 -0.604258 0
M  V30 8357 C 765.406 -1.53278 -1.38973 0
M  V30 8358 C 765.821 -0.166509 -1.88064 0
M  V30 8359 O 765.178 0.832519 -1.62405 0
M  V30 8360 C 765.229 -2.51992 -2.59195 0
M  V30 8361 O 764.95 -3.8331 -2.12143 0
M  V30 8362 C 766.451 -2.69445 -3.52015 0
M  V30 8363 H 763.671 -0.519003 -0.425297 0
M  V30 8364 H 766.215 -1.90773 -0.736621 0
M  V30 8365 H 764.37 -2.17561 -3.2054 0
M  V30 8366 H 764.784 -4.3685 -2.90279 0
M  V30 8367 H 766.258 -3.42485 -4.32907 0
M  V30 8368 H 766.735 -1.75596 -4.0257 0
M  V30 8369 H 767.341 -3.04886 -2.9652 0
M  V30 8370 N 765.656 0.84705 -1.32902 0
M  V30 8371 C 766.603 1.95624 -1.22473 0
M  V30 8372 C 767.573 1.65767 -0.105178 0
M  V30 8373 O 768.758 1.88704 -0.282042 0
M  V30 8374 C 765.898 3.31434 -0.961542 0
M  V30 8375 C 765.011 3.73741 -2.1666 0
M  V30 8376 C 764.146 4.98379 -1.83825 0
M  V30 8377 C 763.185 5.33199 -3.00609 0
M  V30 8378 N 762.322 6.49014 -2.67816 0
M  V30 8379 H 767.162 2.03875 -2.17345 0
M  V30 8380 H 764.699 0.997764 -1.08088 0
M  V30 8381 H 766.657 4.09663 -0.789411 0
M  V30 8382 H 765.287 3.22762 -0.0495938 0
M  V30 8383 H 764.339 2.91102 -2.44875 0
M  V30 8384 H 765.651 3.95462 -3.03993 0
M  V30 8385 H 764.805 5.84336 -1.63208 0
M  V30 8386 H 763.544 4.78611 -0.937172 0
M  V30 8387 H 762.549 4.4575 -3.21849 0
M  V30 8388 H 763.774 5.5492 -3.9146 0
M  V30 8389 H 761.72 6.30748 -1.80258 0
M  V30 8390 H 761.637 6.7079 -3.48679 0
M  V30 8391 H 762.905 7.38103 -2.50647 0
M  V30 8392 N 767.134 1.16236 1.06428 0
M  V30 8393 C 768.381 0.943034 1.79201 0
M  V30 8394 C 768.709 -0.529243 1.87161 0
M  V30 8395 O 767.964 -1.40874 1.35842 0
M  V30 8396 C 768.263 1.51396 3.2375 0
M  V30 8397 C 767.929 3.00833 3.35873 0
M  V30 8398 C 766.591 3.41626 3.38888 0
M  V30 8399 C 768.943 3.96825 3.37904 0
M  V30 8400 C 766.271 4.77033 3.4155 0
M  V30 8401 C 768.623 5.32116 3.42104 0
M  V30 8402 C 767.287 5.72392 3.43401 0
M  V30 8403 H 766.557 0.34508 0.655744 0
M  V30 8404 H 769.204 1.44929 1.25171 0
M  V30 8405 H 767.509 0.929114 3.80624 0
M  V30 8406 H 769.206 1.31996 3.78653 0
M  V30 8407 H 765.796 2.68306 3.3423 0
M  V30 8408 H 769.98 3.66376 3.34787 0
M  V30 8409 H 765.236 5.07569 3.40858 0
M  V30 8410 H 769.41 6.06286 3.42623 0
M  V30 8411 H 767.037 6.77296 3.45216 0
M  V30 8412 N 768.612 -1.24939 0.960631 0
M  V30 8413 C 770.023 -1.74701 0.658529 0
M  V30 8414 C 770.374 -1.77967 -0.825959 0
M  V30 8415 O 769.499 -1.40444 -1.64634 0
M  V30 8416 C 770.094 -3.17263 1.18867 0
M  V30 8417 C 768.653 -3.64561 0.936614 0
M  V30 8418 C 767.8 -2.43423 1.32817 0
M  V30 8419 H 770.751 -1.10741 1.13676 0
M  V30 8420 H 770.772 -3.76481 0.551589 0
M  V30 8421 H 770.284 -3.14854 2.26912 0
M  V30 8422 H 768.385 -3.72378 -0.128608 0
M  V30 8423 H 768.498 -4.52392 1.57729 0
M  V30 8424 H 766.862 -2.43513 0.746548 0
M  V30 8425 H 767.645 -2.437 2.41796 0
M  V30 8426 N 770.09 -0.729906 -1.39679 0
M  V30 8427 C 771.336 -0.27603 -2.00913 0
M  V30 8428 C 771.669 1.13227 -1.57776 0
M  V30 8429 O 770.944 1.7709 -0.804319 0
M  V30 8430 C 771.227 -0.372157 -3.58172 0
M  V30 8431 C 771.08 -1.81986 -4.11341 0
M  V30 8432 C 772.399 0.248378 -4.39399 0
M  V30 8433 H 769.518 -0.101773 -0.729939 0
M  V30 8434 H 772.16 -0.925104 -1.65957 0
M  V30 8435 H 770.31 0.180459 -3.88081 0
M  V30 8436 H 771.982 -2.42896 -3.92172 0
M  V30 8437 H 770.225 -2.34287 -3.65092 0
M  V30 8438 H 770.896 -1.83842 -5.20486 0
M  V30 8439 H 773.372 -0.222645 -4.15504 0
M  V30 8440 H 772.248 0.150746 -5.48693 0
M  V30 8441 H 772.509 1.33378 -4.21501 0
M  V30 8442 N 771.568 1.50203 -0.477153 0
M  V30 8443 C 772.515 2.28656 0.31386 0
M  V30 8444 C 773.485 1.33977 0.981802 0
M  V30 8445 O 774.67 1.62919 0.993072 0
M  V30 8446 C 771.81 3.16027 1.38639 0
M  V30 8447 C 770.923 4.25743 0.732615 0
M  V30 8448 C 770.058 5.00363 1.78355 0
M  V30 8449 C 769.097 6.01945 1.11035 0
M  V30 8450 N 768.234 6.6982 2.10441 0
M  V30 8451 H 773.074 2.958 -0.361445 0
M  V30 8452 H 770.611 1.45867 -0.190093 0
M  V30 8453 H 772.569 3.6504 2.01994 0
M  V30 8454 H 771.199 2.50917 2.03077 0
M  V30 8455 H 770.251 3.80398 -0.0136546 0
M  V30 8456 H 771.563 4.98393 0.201513 0
M  V30 8457 H 770.717 5.53124 2.49276 0
M  V30 8458 H 769.456 4.27432 2.34847 0
M  V30 8459 H 768.461 5.48438 0.386797 0
M  V30 8460 H 769.686 6.76851 0.552248 0
M  V30 8461 H 767.632 5.99677 2.65939 0
M  V30 8462 H 767.549 7.38366 1.62332 0
M  V30 8463 H 768.817 7.27196 2.80724 0
M  V30 8464 N 773.046 0.209999 1.56195 0
M  V30 8465 C 774.292 -0.418742 1.99043 0
M  V30 8466 C 774.647 -1.58201 1.095 0
M  V30 8467 O 773.94 -1.91069 0.1425 0
M  V30 8468 C 774.134 -0.91312 3.45539 0
M  V30 8469 C 773.963 0.200706 4.49252 0
M  V30 8470 C 772.733 0.663287 5.00928 0
M  V30 8471 C 774.931 1.01493 5.04186 0
M  V30 8472 N 772.913 1.75338 5.88328 0
M  V30 8473 C 774.284 1.95411 5.884 0
M  V30 8474 C 776.339 1.05567 4.8658 0
M  V30 8475 C 775.042 2.93069 6.56889 0
M  V30 8476 C 777.068 2.02037 5.55819 0
M  V30 8477 C 776.43 2.94697 6.39791 0
M  V30 8478 H 772.529 -0.120226 0.772703 0
M  V30 8479 H 775.113 0.319119 1.92067 0
M  V30 8480 H 773.284 -1.62038 3.52985 0
M  V30 8481 H 775.016 -1.51371 3.75325 0
M  V30 8482 H 771.771 0.253945 4.72919 0
M  V30 8483 H 772.195 2.30007 6.3673 0
M  V30 8484 H 776.837 0.353242 4.21322 0
M  V30 8485 H 774.555 3.6428 7.21336 0
M  V30 8486 H 778.141 2.05849 5.44167 0
M  V30 8487 H 777.021 3.68128 6.92425 0
M  V30 8488 N 774.524 -1.57472 -0.0634922 0
M  V30 8489 C 775.487 -2.03268 -1.059 0
M  V30 8490 C 776.487 -0.931028 -1.31105 0
M  V30 8491 O 777.677 -1.19567 -1.26686 0
M  V30 8492 C 774.809 -2.42039 -2.40062 0
M  V30 8493 H 776.002 -2.92454 -0.664119 0
M  V30 8494 H 773.555 -1.53206 -0.309444 0
M  V30 8495 H 774.29 -1.55904 -2.84367 0
M  V30 8496 H 774.075 -3.22437 -2.23108 0
M  V30 8497 H 775.565 -2.78017 -3.11603 0
M  V30 8498 N 776.003 0.335068 -1.53997 0
M  V30 8499 C 777.228 1.09859 -1.75914 0
M  V30 8500 C 777.653 1.81308 -0.500915 0
M  V30 8501 O 777.011 1.72854 0.54693 0
M  V30 8502 C 777.059 2.08122 -2.94478 0
M  V30 8503 O 776.163 3.15805 -2.65219 0
M  V30 8504 H 775.504 0.317313 -0.583274 0
M  V30 8505 H 778.034 0.382872 -2.00986 0
M  V30 8506 H 778.044 2.51195 -3.21504 0
M  V30 8507 H 776.719 1.55517 -3.8573 0
M  V30 8508 H 775.296 2.77489 -2.49107 0
M  V30 8509 N 777.481 1.45874 0.596531 0
M  V30 8510 C 778.892 1.44798 1.17857 0
M  V30 8511 C 779.243 0.181443 1.95359 0
M  V30 8512 O 778.368 -0.716336 2.042 0
M  V30 8513 C 778.963 2.62333 2.14398 0
M  V30 8514 C 777.522 2.64342 2.67955 0
M  V30 8515 C 776.669 2.37244 1.43564 0
M  V30 8516 H 779.62 1.53954 0.385222 0
M  V30 8517 H 779.641 2.37063 2.97626 0
M  V30 8518 H 779.153 3.54499 1.57963 0
M  V30 8519 H 777.254 1.76213 3.28298 0
M  V30 8520 H 777.367 3.63897 3.11634 0
M  V30 8521 H 775.731 1.87022 1.72901 0
M  V30 8522 H 776.514 3.31568 0.889805 0
M  V30 8523 N 778.959 -0.83999 1.33349 0
M  V30 8524 C 779.869 -1.98182 1.25543 0
M  V30 8525 C 780.885 -1.73204 0.166208 0
M  V30 8526 O 782.061 -1.97596 0.389589 0
M  V30 8527 C 779.126 -3.32157 0.993614 0
M  V30 8528 C 778.187 -3.70258 2.17273 0
M  V30 8529 C 777.42 -4.9784 1.92331 0
M  V30 8530 O 777.643 -5.63679 0.873074 0
M  V30 8531 O 776.577 -5.33418 2.78835 0
M  V30 8532 H 780.403 -2.07708 2.21565 0
M  V30 8533 H 777.988 -0.972852 1.13384 0
M  V30 8534 H 779.87 -4.12433 0.864711 0
M  V30 8535 H 778.545 -3.23637 0.0636596 0
M  V30 8536 H 777.452 -2.90497 2.35716 0
M  V30 8537 H 778.785 -3.83442 3.08598 0
M  V30 8538 N 780.437 -1.16799 -1.0581 0
M  V30 8539 C 781.683 -0.953935 -1.78963 0
M  V30 8540 C 782.016 0.516638 -1.87202 0
M  V30 8541 O 781.291 1.38338 -1.36721 0
M  V30 8542 C 781.574 -1.58808 -3.23191 0
M  V30 8543 C 781.427 -3.13032 -3.23003 0
M  V30 8544 C 782.746 -1.2868 -4.20867 0
M  V30 8545 H 779.865 -0.347972 -0.64968 0
M  V30 8546 H 782.507 -1.44204 -1.23715 0
M  V30 8547 H 780.657 -1.17303 -3.70368 0
M  V30 8548 H 782.329 -3.63553 -2.83949 0
M  V30 8549 H 780.572 -3.46108 -2.61518 0
M  V30 8550 H 781.243 -3.52527 -4.24769 0
M  V30 8551 H 783.719 -1.6461 -3.82155 0
M  V30 8552 H 782.595 -1.75645 -5.20038 0
M  V30 8553 H 782.856 -0.206491 -4.41618 0
M  V30 8554 N 781.915 1.24427 -0.967243 0
M  V30 8555 C 783.162 1.92487 -0.62888 0
M  V30 8556 C 783.49 1.75623 0.835871 0
M  V30 8557 O 782.745 1.1027 1.61675 0
M  V30 8558 C 783.044 3.44568 -0.949096 0
M  V30 8559 C 782.71 3.816 -2.40192 0
M  V30 8560 C 781.372 3.9142 -2.799 0
M  V30 8561 C 783.724 3.99715 -3.34481 0
M  V30 8562 C 781.052 4.16771 -4.12939 0
M  V30 8563 C 783.404 4.26562 -4.67148 0
M  V30 8564 C 782.068 4.34601 -5.06634 0
M  V30 8565 H 781.338 0.704361 -0.230124 0
M  V30 8566 H 783.985 1.4772 -1.21864 0
M  V30 8567 H 782.29 3.90819 -0.277085 0
M  V30 8568 H 783.987 3.95436 -0.665692 0
M  V30 8569 H 780.577 3.74522 -2.08402 0
M  V30 8570 H 784.761 3.91531 -3.04987 0
M  V30 8571 H 780.017 4.21214 -4.43158 0
M  V30 8572 H 784.191 4.39523 -5.40178 0
M  V30 8573 H 781.818 4.53998 -6.09746 0
M  V30 8574 N 783.393 0.737304 1.3929 0
M  V30 8575 C 784.618 0.295237 2.05288 0
M  V30 8576 C 785.043 -1.06235 1.55228 0
M  V30 8577 O 784.401 -1.67365 0.697043 0
M  V30 8578 C 784.449 0.309146 3.59272 0
M  V30 8579 O 783.553 -0.702437 4.06374 0
M  V30 8580 H 782.894 0.133762 0.650387 0
M  V30 8581 H 785.424 1.00387 1.78279 0
M  V30 8582 H 785.434 0.154336 4.07708 0
M  V30 8583 H 784.109 1.29974 3.95069 0
M  V30 8584 H 782.686 -0.513574 3.69346 0
M  V30 8585 N 784.871 -1.49948 0.485112 0
M  V30 8586 C 786.118 -2.02396 -0.0650059 0
M  V30 8587 C 786.446 -1.36606 -1.38452 0
M  V30 8588 O 785.701 -0.485476 -1.89583 0
M  V30 8589 C 786 -3.56282 -0.282434 0
M  V30 8590 C 785.666 -4.40625 0.957106 0
M  V30 8591 C 784.328 -4.63393 1.29692 0
M  V30 8592 C 786.68 -4.89799 1.78176 0
M  V30 8593 C 784.008 -5.3258 2.4612 0
M  V30 8594 C 786.36 -5.60266 2.93743 0
M  V30 8595 C 785.024 -5.81284 3.28124 0
M  V30 8596 H 784.294 -0.740618 -0.0237873 0
M  V30 8597 H 786.941 -1.80416 0.642044 0
M  V30 8598 H 785.246 -3.76853 -1.07186 0
M  V30 8599 H 786.943 -3.94442 -0.722276 0
M  V30 8600 H 783.533 -4.23133 0.682384 0
M  V30 8601 H 787.717 -4.7205 1.53239 0
M  V30 8602 H 782.973 -5.47059 2.73014 0
M  V30 8603 H 787.147 -5.97347 3.5798 0
M  V30 8604 H 784.774 -6.34671 4.18446 0
M  V30 8605 N 786.349 -0.21828 -1.56081 0
M  V30 8606 C 787.574 0.422302 -2.03055 0
M  V30 8607 C 787.999 1.5279 -1.09713 0
M  V30 8608 O 787.357 1.81102 -0.0847187 0
M  V30 8609 C 787.405 0.934177 -3.48289 0
M  V30 8610 O 786.509 2.04574 -3.58083 0
M  V30 8611 H 785.85 0.0959764 -0.657027 0
M  V30 8612 H 788.38 -0.335958 -2.01823 0
M  V30 8613 H 788.39 1.24484 -3.88546 0
M  V30 8614 H 787.065 0.124963 -4.15712 0
M  V30 8615 H 785.642 1.74196 -3.29712 0
M  V30 8616 N 787.827 1.57504 0.0551401 0
M  V30 8617 C 789.243 1.54236 0.410292 0
M  V30 8618 C 789.443 0.940839 1.78187 0
M  V30 8619 O 788.499 0.550541 2.46425 0
M  V30 8620 C 789.812 2.98816 0.336064 0
M  V30 8621 C 791.36 3.10236 0.415047 0
M  V30 8622 C 791.835 4.56499 0.37055 0
M  V30 8623 N 793.326 4.61199 0.43013 0
M  V30 8624 C 794.061 5.71873 0.418179 0
M  V30 8625 N 793.557 6.91864 0.360056 0
M  V30 8626 N 795.35 5.60165 0.465977 0
M  V30 8627 H 787.501 1.94965 -0.842759 0
M  V30 8628 H 789.764 0.893096 -0.317937 0
M  V30 8629 H 789.47 3.4645 -0.605429 0
M  V30 8630 H 789.344 3.59564 1.13988 0
M  V30 8631 H 791.731 2.62566 1.34697 0
M  V30 8632 H 791.812 2.52367 -0.417648 0
M  V30 8633 H 791.456 5.0483 -0.557592 0
M  V30 8634 H 791.386 5.12249 1.221 0
M  V30 8635 H 793.877 3.74857 0.478623 0
M  V30 8636 H 794.19 7.71983 0.35532 0
M  V30 8637 H 792.535 6.94233 0.326492 0
M  V30 8638 H 795.726 4.65322 0.509194 0
M  V30 8639 H 795.899 6.46413 0.453194 0
M  V30 8640 N 789.305 -0.326896 1.54172 0
M  V30 8641 C 790.535 -1.08328 1.75922 0
M  V30 8642 C 790.943 -1.82302 0.50622 0
M  V30 8643 O 790.286 -1.7581 -0.532581 0
M  V30 8644 C 790.348 -2.1294 2.8965 0
M  V30 8645 C 790.012 -1.58394 4.28673 0
M  V30 8646 C 791.009 -1.02747 5.09646 0
M  V30 8647 C 788.694 -1.62737 4.75207 0
M  V30 8648 C 790.688 -0.52169 6.35261 0
M  V30 8649 C 788.375 -1.11772 6.00791 0
M  V30 8650 C 789.373 -0.565819 6.80652 0
M  V30 8651 O 789.061 -0.0638146 8.03875 0
M  V30 8652 H 788.793 -0.3282 0.590983 0
M  V30 8653 H 791.347 -0.37972 2.0186 0
M  V30 8654 H 789.577 -2.86903 2.59275 0
M  V30 8655 H 791.266 -2.74274 2.99213 0
M  V30 8656 H 792.032 -0.987007 4.74851 0
M  V30 8657 H 787.911 -2.04635 4.13093 0
M  V30 8658 H 791.455 -0.0902544 6.97542 0
M  V30 8659 H 787.352 -1.15524 6.35078 0
M  V30 8660 H 788.12 -0.17955 8.18303 0
M  V30 8661 N 790.784 -1.46188 -0.588786 0
M  V30 8662 C 792.009 -1.5498 -1.37826 0
M  V30 8663 C 792.434 -0.189498 -1.87143 0
M  V30 8664 O 791.792 0.829293 -1.61222 0
M  V30 8665 C 791.84 -2.55369 -2.54596 0
M  V30 8666 O 790.944 -2.08452 -3.55839 0
M  V30 8667 H 790.285 -0.521741 -0.41071 0
M  V30 8668 H 792.815 -1.91708 -0.714779 0
M  V30 8669 H 792.825 -2.74782 -3.01594 0
M  V30 8670 H 791.5 -3.54155 -2.18052 0
M  V30 8671 H 790.077 -1.98999 -3.15363 0
M  V30 8672 N 792.262 0.832906 -1.33792 0
M  V30 8673 C 793.487 1.62568 -1.28788 0
M  V30 8674 C 793.912 1.87599 0.137246 0
M  V30 8675 O 793.27 1.44436 1.0958 0
M  V30 8676 C 793.318 2.9495 -2.07453 0
M  V30 8677 O 792.422 3.86546 -1.43722 0
M  V30 8678 H 791.763 0.494809 -0.442787 0
M  V30 8679 H 794.293 1.03578 -1.76445 0
M  V30 8680 H 794.303 3.44599 -2.1844 0
M  V30 8681 H 792.978 2.76055 -3.11073 0
M  V30 8682 H 791.555 3.45044 -1.41417 0
M  V30 8683 N 793.74 1.17359 1.05189 0
M  V30 8684 C 794.687 0.890325 2.12936 0
M  V30 8685 C 795.657 -0.165779 1.65271 0
M  V30 8686 O 796.842 -0.0285672 1.90779 0
M  V30 8687 C 793.982 0.409793 3.42658 0
M  V30 8688 C 793.095 1.53002 4.03998 0
M  V30 8689 C 792.23 1.00336 5.21638 0
M  V30 8690 C 791.269 2.09903 5.74984 0
M  V30 8691 N 790.406 1.58714 6.83926 0
M  V30 8692 H 795.246 1.81299 2.36505 0
M  V30 8693 H 792.783 0.904249 1.16025 0
M  V30 8694 H 794.741 0.112743 4.17048 0
M  V30 8695 H 793.371 -0.475915 3.19272 0
M  V30 8696 H 792.423 1.9428 3.27047 0
M  V30 8697 H 793.735 2.3564 4.39631 0
M  V30 8698 H 792.889 0.660158 6.03098 0
M  V30 8699 H 791.628 0.14642 4.8748 0
M  V30 8700 H 790.633 2.45081 4.92154 0
M  V30 8701 H 791.858 2.96013 6.1119 0
M  V30 8702 H 789.804 0.752915 6.51665 0
M  V30 8703 H 789.721 2.34959 7.18561 0
M  V30 8704 H 790.989 1.27287 7.69037 0
M  V30 8705 N 795.218 -1.23913 0.973828 0
M  V30 8706 C 796.443 -1.96735 0.656511 0
M  V30 8707 C 796.868 -1.71682 -0.768571 0
M  V30 8708 O 796.226 -0.984267 -1.52256 0
M  V30 8709 C 796.274 -3.48004 0.944735 0
M  V30 8710 O 795.378 -4.12387 0.0333357 0
M  V30 8711 H 794.719 -0.616119 0.247575 0
M  V30 8712 H 797.249 -1.57525 1.30564 0
M  V30 8713 H 797.259 -3.98424 0.87876 0
M  V30 8714 H 795.934 -3.65567 1.98328 0
M  V30 8715 H 794.511 -3.72585 0.153157 0
M  V30 8716 N 796.696 -0.74468 -1.38897 0
M  V30 8717 C 797.973 -0.222773 -1.94327 0
M  V30 8718 C 798.353 1.27731 -1.68071 0
M  V30 8719 O 797.701 2.04754 -1.01429 0
M  V30 8720 C 797.911 -0.566836 -3.44366 0
M  V30 8721 C 799.259 -0.521531 -4.21385 0
M  V30 8722 O 800.283 -0.504599 -3.52608 0
M  V30 8723 O 799.142 -0.524595 -5.43976 0
M  V30 8724 H 796.236 -0.0439259 -0.825833 0
M  V30 8725 H 798.782 -0.824197 -1.48341 0
M  V30 8726 H 797.554 -1.60321 -3.56949 0
M  V30 8727 H 797.177 0.0630577 -3.9755 0
M  V30 8728 N 798.174 1.49689 -0.493057 0
M  V30 8729 C 799.42 2.02727 0.0543518 0
M  V30 8730 C 799.753 1.37264 1.37376 0
M  V30 8731 O 799.028 0.505644 1.87812 0
M  V30 8732 C 799.311 3.59456 0.215226 0
M  V30 8733 C 799.164 4.35459 -1.12675 0
M  V30 8734 C 800.483 4.29511 0.959586 0
M  V30 8735 H 797.602 0.736773 0.0182786 0
M  V30 8736 H 800.244 1.78792 -0.642924 0
M  V30 8737 H 798.394 3.79981 0.809122 0
M  V30 8738 H 800.066 4.2645 -1.75891 0
M  V30 8739 H 798.309 3.9833 -1.71801 0
M  V30 8740 H 798.98 5.43454 -0.967578 0
M  V30 8741 H 801.456 4.13594 0.455977 0
M  V30 8742 H 800.332 5.38939 1.04098 0
M  V30 8743 H 800.593 3.94202 2.00144 0
M  V30 8744 N 799.652 0.226554 1.55963 0
M  V30 8745 C 800.898 -0.397608 1.99476 0
M  V30 8746 C 801.253 -1.57031 1.11172 0
M  V30 8747 O 800.546 -1.90907 0.162757 0
M  V30 8748 C 800.74 -0.87642 3.46488 0
M  V30 8749 C 800.569 0.248344 4.49014 0
M  V30 8750 C 799.339 0.71638 5.00196 0
M  V30 8751 C 801.537 1.06835 5.03081 0
M  V30 8752 N 799.519 1.81568 5.86435 0
M  V30 8753 C 800.89 2.01641 5.86294 0
M  V30 8754 C 802.945 1.10722 4.85433 0
M  V30 8755 C 801.648 3.0002 6.53743 0
M  V30 8756 C 803.674 2.07921 5.53645 0
M  V30 8757 C 803.036 3.01466 6.3663 0
M  V30 8758 H 799.135 -0.112024 0.773935 0
M  V30 8759 H 801.719 0.339472 1.91718 0
M  V30 8760 H 799.89 -1.58285 3.54684 0
M  V30 8761 H 801.622 -1.47382 3.76909 0
M  V30 8762 H 798.377 0.30409 4.72623 0
M  V30 8763 H 798.801 2.36748 6.34255 0
M  V30 8764 H 803.443 0.397909 4.20923 0
M  V30 8765 H 801.161 3.71911 7.17432 0
M  V30 8766 H 804.747 2.11609 5.41953 0
M  V30 8767 H 803.627 3.75451 6.88481 0
M  V30 8768 N 801.13 -1.57531 -0.0467866 0
M  V30 8769 C 802.355 -1.93087 -0.757123 0
M  V30 8770 C 802.78 -0.825116 -1.69037 0
M  V30 8771 O 802.138 0.220449 -1.79955 0
M  V30 8772 C 802.186 -3.27669 -1.5055 0
M  V30 8773 O 801.29 -3.18667 -2.61773 0
M  V30 8774 H 800.631 -0.631597 -0.204892 0
M  V30 8775 H 803.161 -2.04599 -0.00755232 0
M  V30 8776 H 803.171 -3.6214 -1.87932 0
M  V30 8777 H 801.846 -4.07717 -0.820931 0
M  V30 8778 H 800.423 -2.95798 -2.27064 0
M  V30 8779 N 802.608 0.318715 -1.54344 0
M  V30 8780 C 803.855 1.05608 -1.72781 0
M  V30 8781 C 804.183 1.87854 -0.504083 0
M  V30 8782 O 803.438 1.88826 0.51414 0
M  V30 8783 C 803.737 2.00514 -2.95853 0
M  V30 8784 C 803.403 1.34385 -4.30409 0
M  V30 8785 C 802.065 1.16081 -4.66989 0
M  V30 8786 C 804.417 0.869627 -5.13894 0
M  V30 8787 C 801.745 0.490114 -5.84649 0
M  V30 8788 C 804.097 0.212735 -6.32242 0
M  V30 8789 C 802.761 0.0175882 -6.67498 0
M  V30 8790 H 802.031 0.386449 -0.632249 0
M  V30 8791 H 804.678 0.332729 -1.88587 0
M  V30 8792 H 802.983 2.79317 -2.74753 0
M  V30 8793 H 804.68 2.57605 -3.07312 0
M  V30 8794 H 801.27 1.49634 -4.01631 0
M  V30 8795 H 805.454 0.998809 -4.86146 0
M  V30 8796 H 800.71 0.327767 -6.10521 0
M  V30 8797 H 804.884 -0.162699 -6.9621 0
M  V30 8798 H 802.511 -0.504137 -7.58527 0
M  V30 8799 N 804.086 1.46499 0.581025 0
M  V30 8800 C 805.334 1.51596 1.33653 0
M  V30 8801 C 805.655 0.169859 1.94259 0
M  V30 8802 O 804.925 -0.803776 1.78651 0
M  V30 8803 H 803.505 0.558346 0.496244 0
M  V30 8804 H 806.167 1.8264 0.680338 0
M  V30 8805 H 805.263 2.26956 2.14237 0
M  V30 8806 N 805.565 -0.825799 1.34232 0
M  V30 8807 C 806.811 -1.58419 1.26614 0
M  V30 8808 C 807.144 -1.93503 -0.164341 0
M  V30 8809 O 806.419 -1.59785 -1.109 0
M  V30 8810 C 806.702 -2.8856 2.15418 0
M  V30 8811 C 806.555 -2.60075 3.66989 0
M  V30 8812 C 807.874 -3.90107 2.03726 0
M  V30 8813 H 804.993 -0.574794 0.461282 0
M  V30 8814 H 807.635 -0.951519 1.64457 0
M  V30 8815 H 805.785 -3.42553 1.83275 0
M  V30 8816 H 807.457 -2.12414 4.09485 0
M  V30 8817 H 805.7 -1.93565 3.88221 0
M  V30 8818 H 806.371 -3.52866 4.24488 0
M  V30 8819 H 808.847 -3.45459 2.31942 0
M  V30 8820 H 807.723 -4.78976 2.68092 0
M  V30 8821 H 807.984 -4.30329 1.01337 0
M  V30 8822 N 807.043 -1.17915 -1.04565 0
M  V30 8823 C 807.973 -0.925033 -2.14395 0
M  V30 8824 C 808.954 0.135375 -1.6956 0
M  V30 8825 O 810.139 -0.0161774 -1.94193 0
M  V30 8826 C 807.269 -0.444469 -3.44444 0
M  V30 8827 C 806.223 -1.44478 -4.02877 0
M  V30 8828 C 805.549 -0.821933 -5.28345 0
M  V30 8829 C 806.849 -2.81995 -4.39632 0
M  V30 8830 H 808.543 -1.84354 -2.35911 0
M  V30 8831 H 806.089 -0.887806 -1.13375 0
M  V30 8832 H 808.042 -0.254078 -4.20633 0
M  V30 8833 H 806.766 0.509592 -3.226 0
M  V30 8834 H 805.425 -1.62203 -3.28764 0
M  V30 8835 H 805.073 0.139161 -5.02807 0
M  V30 8836 H 804.773 -1.48976 -5.68401 0
M  V30 8837 H 806.297 -0.641959 -6.07216 0
M  V30 8838 H 807.711 -2.67952 -5.06828 0
M  V30 8839 H 806.108 -3.45414 -4.90723 0
M  V30 8840 H 807.178 -3.35927 -3.49687 0
M  V30 8841 N 808.521 1.23394 -0.980386 0
M  V30 8842 C 809.454 2.23404 -0.465404 0
M  V30 8843 C 810.432 1.55735 0.467471 0
M  V30 8844 O 811.616 1.84295 0.395921 0
M  V30 8845 C 808.743 3.3712 0.32672 0
M  V30 8846 C 807.789 4.22935 -0.550296 0
M  V30 8847 S 808.622 4.96824 -1.99814 0
M  V30 8848 C 809.778 6.13991 -1.21516 0
M  V30 8849 H 810.011 2.6674 -1.31289 0
M  V30 8850 H 807.544 1.32874 -0.78638 0
M  V30 8851 H 809.502 4.03065 0.777738 0
M  V30 8852 H 808.163 2.92317 1.14933 0
M  V30 8853 H 807.356 5.03966 0.0585298 0
M  V30 8854 H 806.958 3.62058 -0.937558 0
M  V30 8855 H 809.25 6.75822 -0.476476 0
M  V30 8856 H 810.193 6.7926 -2.0003 0
M  V30 8857 H 810.601 5.59708 -0.733949 0
M  V30 8858 N 809.999 0.752036 1.385 0
M  V30 8859 C 811.245 0.316909 2.00916 0
M  V30 8860 C 811.6 -1.08884 1.58625 0
M  V30 8861 O 810.893 -1.73494 0.813047 0
M  V30 8862 C 811.087 0.376155 3.55415 0
M  V30 8863 C 810.916 1.78612 4.12708 0
M  V30 8864 C 809.686 2.4023 4.44542 0
M  V30 8865 C 811.884 2.74253 4.35075 0
M  V30 8866 N 809.866 3.73204 4.87434 0
M  V30 8867 C 811.237 3.9199 4.80358 0
M  V30 8868 C 813.292 2.71795 4.17171 0
M  V30 8869 C 811.995 5.07627 5.09615 0
M  V30 8870 C 814.021 3.86589 4.47552 0
M  V30 8871 C 813.383 5.03064 4.93058 0
M  V30 8872 H 809.482 0.16259 0.764911 0
M  V30 8873 H 812.066 0.981657 1.68142 0
M  V30 8874 H 810.237 -0.258317 3.8754 0
M  V30 8875 H 811.969 -0.0791421 4.04623 0
M  V30 8876 H 808.724 1.92009 4.32931 0
M  V30 8877 H 809.148 4.41519 5.13215 0
M  V30 8878 H 813.79 1.82929 3.81178 0
M  V30 8879 H 811.508 5.97109 5.44506 0
M  V30 8880 H 815.094 3.86005 4.35306 0
M  V30 8881 H 813.974 5.90417 5.16118 0
M  V30 8882 N 811.477 -1.49425 0.500989 0
M  V30 8883 C 812.387 -2.32899 -0.282011 0
M  V30 8884 C 813.403 -1.44632 -0.967346 0
M  V30 8885 O 814.579 -1.77654 -0.94873 0
M  V30 8886 C 811.644 -3.20069 -1.33253 0
M  V30 8887 C 810.705 -4.24186 -0.660636 0
M  V30 8888 C 809.938 -5.07191 -1.6611 0
M  V30 8889 O 810.161 -4.91712 -2.89094 0
M  V30 8890 O 809.095 -5.8948 -1.21643 0
M  V30 8891 H 812.921 -3.01038 0.401224 0
M  V30 8892 H 810.506 -1.47079 0.262323 0
M  V30 8893 H 812.388 -3.74071 -1.94033 0
M  V30 8894 H 811.063 -2.54625 -1.9987 0
M  V30 8895 H 809.97 -3.74098 -0.0130959 0
M  V30 8896 H 811.303 -4.92186 -0.0369179 0
M  V30 8897 N 812.955 -0.234822 -1.55841 0
M  V30 8898 C 814.201 0.393843 -1.98939 0
M  V30 8899 C 814.534 1.58466 -1.1226 0
M  V30 8900 O 813.809 1.93635 -0.183242 0
M  V30 8901 C 814.092 0.815492 -3.50745 0
M  V30 8902 C 813.945 -0.379878 -4.48193 0
M  V30 8903 C 815.264 1.66687 -4.07312 0
M  V30 8904 H 812.383 0.141681 -0.723253 0
M  V30 8905 H 815.025 -0.333716 -1.87046 0
M  V30 8906 H 813.175 1.43541 -3.6101 0
M  V30 8907 H 814.847 -1.0182 -4.49923 0
M  V30 8908 H 813.09 -1.02507 -4.21515 0
M  V30 8909 H 813.761 -0.0417069 -5.51984 0
M  V30 8910 H 816.237 1.14369 -4.00074 0
M  V30 8911 H 815.113 1.93078 -5.13821 0
M  V30 8912 H 815.374 2.63468 -3.55017 0
M  V30 8913 N 814.433 1.57553 0.0384317 0
M  V30 8914 C 815.68 1.88841 0.731116 0
M  V30 8915 C 816.008 0.83093 1.75857 0
M  V30 8916 O 815.263 -0.169248 1.94967 0
M  V30 8917 C 815.562 3.26862 1.44554 0
M  V30 8918 C 815.228 4.47472 0.554946 0
M  V30 8919 C 813.89 4.80203 0.309621 0
M  V30 8920 C 816.242 5.21165 -0.0605204 0
M  V30 8921 C 813.57 5.8402 -0.560101 0
M  V30 8922 C 815.922 6.25905 -0.91789 0
M  V30 8923 C 814.586 6.57117 -1.17277 0
M  V30 8924 H 813.856 0.691018 0.267534 0
M  V30 8925 H 816.503 1.91498 -0.00883195 0
M  V30 8926 H 814.808 3.2015 2.25856 0
M  V30 8927 H 816.505 3.48316 1.98688 0
M  V30 8928 H 813.095 4.21874 0.756304 0
M  V30 8929 H 817.279 4.96164 0.116064 0
M  V30 8930 H 812.535 6.06583 -0.765974 0
M  V30 8931 H 816.709 6.82155 -1.40136 0
M  V30 8932 H 814.336 7.37385 -1.84843 0
M  V30 8933 N 815.911 -0.310526 1.54511 0
M  V30 8934 C 817.136 -1.07046 1.7764 0
M  V30 8935 C 817.561 -1.80488 0.529696 0
M  V30 8936 O 816.919 -1.73702 -0.519361 0
M  V30 8937 C 816.967 -2.03411 2.97752 0
M  V30 8938 O 816.071 -3.11545 2.7021 0
M  V30 8939 H 815.412 -0.307994 0.588248 0
M  V30 8940 H 817.942 -0.350848 2.01569 0
M  V30 8941 H 817.952 -2.46048 3.2546 0
M  V30 8942 H 816.627 -1.49361 3.88155 0
M  V30 8943 H 815.204 -2.7349 2.53491 0
M  V30 8944 N 817.389 -1.46805 -0.573248 0
M  V30 8945 C 818.299 -1.60687 -1.70929 0
M  V30 8946 C 819.315 -0.490084 -1.66956 0
M  V30 8947 O 820.491 -0.755482 -1.86693 0
M  V30 8948 C 817.556 -1.60259 -3.07438 0
M  V30 8949 C 816.617 -2.83242 -3.22603 0
M  V30 8950 C 815.85 -2.82825 -4.52599 0
M  V30 8951 O 816.073 -1.92113 -5.37074 0
M  V30 8952 O 815.007 -3.74489 -4.71213 0
M  V30 8953 H 818.833 -2.56782 -1.62163 0
M  V30 8954 H 816.418 -1.29706 -0.741399 0
M  V30 8955 H 818.3 -1.6275 -3.88704 0
M  V30 8956 H 816.975 -0.673268 -3.16621 0
M  V30 8957 H 815.882 -2.86302 -2.40794 0
M  V30 8958 H 817.215 -3.75415 -3.18315 0
M  V30 8959 N 818.867 0.818669 -1.34668 0
M  V30 8960 C 820.115 1.57201 -1.27013 0
M  V30 8961 C 820.436 1.94354 0.158599 0
M  V30 8962 O 819.706 1.62626 1.09223 0
M  V30 8963 H 818.286 0.582919 -0.467135 0
M  V30 8964 H 820.948 0.977234 -1.6863 0
M  V30 8965 H 820.044 2.49291 -1.87778 0
M  V30 8966 N 820.346 1.18468 1.03938 0
M  V30 8967 C 821.293 0.912859 2.1198 0
M  V30 8968 C 822.263 -0.14824 1.65437 0
M  V30 8969 O 823.448 -0.008331 1.90798 0
M  V30 8970 C 820.588 0.446114 3.42204 0
M  V30 8971 C 819.701 1.57278 4.02353 0
M  V30 8972 C 818.836 1.05863 5.20544 0
M  V30 8973 C 817.875 2.1599 5.72726 0
M  V30 8974 N 817.012 1.65959 6.82204 0
M  V30 8975 H 821.852 1.83798 2.34569 0
M  V30 8976 H 819.389 0.916504 1.15059 0
M  V30 8977 H 821.347 0.15697 4.16905 0
M  V30 8978 H 819.977 -0.442025 3.19759 0
M  V30 8979 H 819.029 1.97737 3.24968 0
M  V30 8980 H 820.341 2.40289 4.37107 0
M  V30 8981 H 819.495 0.724087 6.02364 0
M  V30 8982 H 818.234 0.198116 4.87297 0
M  V30 8983 H 817.239 2.50287 4.89527 0
M  V30 8984 H 818.464 3.02479 6.08016 0
M  V30 8985 H 816.41 0.82199 6.5083 0
M  V30 8986 H 816.327 2.42567 7.16029 0
M  V30 8987 H 817.595 1.35436 7.67644 0
M  V30 8988 N 821.824 -1.22873 0.986916 0
M  V30 8989 C 823.073 -1.90772 0.654911 0
M  V30 8990 C 823.386 -1.77768 -0.81595 0
M  V30 8991 O 824.592 -2.40529 -1.25929 0
M  V30 8992 C 823.048 -3.42003 1.12081 0
M  V30 8993 C 822.656 -3.63655 2.61647 0
M  V30 8994 C 824.4 -4.15638 0.862854 0
M  V30 8995 C 822.307 -5.08555 3.01871 0
M  V30 8996 H 821.237 -0.714362 0.241252 0
M  V30 8997 H 823.888 -1.39196 1.19568 0
M  V30 8998 H 822.27 -3.92725 0.508207 0
M  V30 8999 H 823.444 -3.2345 3.28202 0
M  V30 9000 H 821.759 -3.03341 2.8526 0
M  V30 9001 H 824.356 -5.22425 1.13915 0
M  V30 9002 H 824.699 -4.15814 -0.201036 0
M  V30 9003 H 825.232 -3.70924 1.43736 0
M  V30 9004 H 821.971 -5.13514 4.07411 0
M  V30 9005 H 821.491 -5.49684 2.40015 0
M  V30 9006 H 823.17 -5.76936 2.92839 0
M  V30 9007 N 823.302 -0.75937 -1.38099 0
M  V30 9008 C 824.713 -0.385078 -1.82686 0
M  V30 9009 C 825.064 1.0871 -1.6333 0
M  V30 9010 O 824.189 1.84084 -1.13762 0
M  V30 9011 C 824.784 -0.692161 -3.31654 0
M  V30 9012 C 823.343 -0.371077 -3.74566 0
M  V30 9013 C 822.49 -0.942375 -2.60796 0
M  V30 9014 H 825.441 -0.955048 -1.26746 0
M  V30 9015 H 825.462 0.0276001 -3.8049 0
M  V30 9016 H 824.974 -1.76369 -3.4571 0
M  V30 9017 H 823.075 0.693637 -3.66087 0
M  V30 9018 H 823.188 -0.870672 -4.71122 0
M  V30 9019 H 821.552 -0.367383 -2.52036 0
M  V30 9020 H 822.335 -2.01905 -2.77649 0
M  V30 9021 N 824.78 1.49157 -0.508906 0
M  V30 9022 C 826.01 2.06579 0.0293308 0
M  V30 9023 C 826.418 1.36852 1.30645 0
M  V30 9024 O 825.761 0.443079 1.78276 0
M  V30 9025 C 825.823 3.57838 0.345296 0
M  V30 9026 C 825.487 4.49302 -0.835256 0
M  V30 9027 C 826.484 4.90345 -1.72793 0
M  V30 9028 C 824.169 4.91494 -1.0363 0
M  V30 9029 C 826.163 5.72327 -2.80573 0
M  V30 9030 C 823.85 5.7325 -2.11726 0
M  V30 9031 C 824.848 6.13572 -3.00032 0
M  V30 9032 O 824.536 6.93691 -4.06261 0
M  V30 9033 H 824.268 0.675679 -0.0208193 0
M  V30 9034 H 826.822 1.9282 -0.707789 0
M  V30 9035 H 825.052 3.69634 1.13612 0
M  V30 9036 H 826.741 3.97467 0.823089 0
M  V30 9037 H 827.507 4.58388 -1.58446 0
M  V30 9038 H 823.386 4.59605 -0.358308 0
M  V30 9039 H 826.93 6.03719 -3.49527 0
M  V30 9040 H 822.827 6.0462 -2.26065 0
M  V30 9041 H 823.595 7.12011 -4.03711 0
M  V30 9042 N 826.258 0.243083 1.55714 0
M  V30 9043 C 827.168 -0.668913 2.24862 0
M  V30 9044 C 828.184 -1.19638 1.26344 0
M  V30 9045 O 829.36 -1.23345 1.5921 0
M  V30 9046 C 826.425 -1.85084 2.93163 0
M  V30 9047 C 825.486 -1.36323 4.07081 0
M  V30 9048 C 824.719 -2.48882 4.72116 0
M  V30 9049 O 824.942 -3.67523 4.36214 0
M  V30 9050 O 823.876 -2.18857 5.60701 0
M  V30 9051 H 827.702 -0.109737 3.03502 0
M  V30 9052 H 825.287 0.0117411 1.49395 0
M  V30 9053 H 827.169 -2.54065 3.36197 0
M  V30 9054 H 825.844 -2.39771 2.17466 0
M  V30 9055 H 824.751 -0.640804 3.68571 0
M  V30 9056 H 826.084 -0.86249 4.84584 0
M  V30 9057 N 827.736 -1.57571 -0.0300757 0
M  V30 9058 C 828.684 -2.0758 -1.04944 0
M  V30 9059 C 829.678 -0.989384 -1.37505 0
M  V30 9060 O 830.884 -1.17427 -1.36422 0
M  V30 9061 H 827.259 -0.662419 -0.355956 0
M  V30 9062 H 829.23 -2.92268 -0.601848 0
M  V30 9063 C 827.979 -2.5698 -2.34215 0
M  V30 9064 H 827.302 -3.40193 -2.10021 0
M  V30 9065 H 828.742 -2.95682 -3.03888 0
M  V30 9066 C 827.201 -1.47059 -3.03109 0
M  V30 9067 O 827.731 -0.83625 -3.92899 0
M  V30 9068 N 825.937 -1.20538 -2.64422 0
M  V30 9069 H 825.484 -1.72305 -1.9149 0
M  V30 9070 H 825.442 -0.472045 -3.10836 0
M  V30 9071 N 829.214 0.302327 -1.54673 0
M  V30 9072 C 830.63 0.647911 -1.45857 0
M  V30 9073 C 830.83 1.90773 -0.64869 0
M  V30 9074 O 829.886 2.52018 -0.155865 0
M  V30 9075 C 831.199 0.802144 -2.89804 0
M  V30 9076 C 832.747 0.898114 -2.99838 0
M  V30 9077 C 833.222 1.08436 -4.44978 0
M  V30 9078 N 834.713 1.15059 -4.48682 0
M  V30 9079 C 835.448 1.31296 -5.58166 0
M  V30 9080 N 834.944 1.4444 -6.77576 0
M  V30 9081 N 836.737 1.34174 -5.45851 0
M  V30 9082 H 828.888 -0.525428 -2.05798 0
M  V30 9083 H 831.151 -0.173423 -0.932002 0
M  V30 9084 H 830.857 -0.0526531 -3.51661 0
M  V30 9085 H 830.731 1.69155 -3.37145 0
M  V30 9086 H 833.118 1.7434 -2.38096 0
M  V30 9087 H 833.199 -0.0152752 -2.55795 0
M  V30 9088 H 832.843 0.243843 -5.07314 0
M  V30 9089 H 832.773 2.01195 -4.8665 0
M  V30 9090 H 835.264 1.0626 -3.62653 0
M  V30 9091 H 835.577 1.56582 -7.56771 0
M  V30 9092 H 833.922 1.41499 -6.80443 0
M  V30 9093 H 837.113 1.23516 -4.5151 0
M  V30 9094 H 837.286 1.46485 -6.31226 0
M  V30 9095 N 830.692 1.47107 0.565454 0
M  V30 9096 C 831.917 1.57153 1.35343 0
M  V30 9097 C 832.342 0.219247 1.86818 0
M  V30 9098 O 831.7 -0.803539 1.62521 0
M  V30 9099 C 831.748 2.59387 2.50501 0
M  V30 9100 O 830.852 2.14086 3.52478 0
M  V30 9101 H 830.193 0.528209 0.402357 0
M  V30 9102 H 832.723 1.92821 0.684189 0
M  V30 9103 H 832.733 2.79546 2.97184 0
M  V30 9104 H 831.408 3.57579 2.12391 0
M  V30 9105 H 829.985 2.03991 3.12157 0
M  V30 9106 N 832.17 -0.811516 1.35101 0
M  V30 9107 C 833.118 -1.94449 1.27642 0
M  V30 9108 C 834.112 -1.68522 0.172287 0
M  V30 9109 O 835.318 -1.76799 0.337967 0
M  V30 9110 H 831.693 -0.638776 0.396824 0
M  V30 9111 H 833.664 -1.97861 2.23369 0
M  V30 9112 C 832.413 -3.31139 1.06029 0
M  V30 9113 H 831.736 -3.51644 1.90227 0
M  V30 9114 H 833.176 -4.10831 1.0485 0
M  V30 9115 C 831.635 -3.36072 -0.236039 0
M  V30 9116 O 832.165 -3.82292 -1.23353 0
M  V30 9117 N 830.371 -2.89314 -0.273107 0
M  V30 9118 H 829.918 -2.51893 0.539211 0
M  V30 9119 H 829.876 -2.92996 -1.1402 0
M  V30 9120 N 833.648 -1.19017 -1.03309 0
M  V30 9121 C 834.873 -1.01598 -1.80811 0
M  V30 9122 C 835.298 0.430773 -1.83101 0
M  V30 9123 O 834.656 1.30946 -1.25391 0
M  V30 9124 C 834.704 -1.5845 -3.23923 0
M  V30 9125 O 833.808 -0.810972 -4.04348 0
M  V30 9126 H 833.149 -0.359398 -0.558327 0
M  V30 9127 H 835.679 -1.57945 -1.30055 0
M  V30 9128 H 835.689 -1.61486 -3.74682 0
M  V30 9129 H 834.364 -2.63752 -3.21571 0
M  V30 9130 H 832.941 -0.85353 -3.63 0
M  V30 9131 N 835.127 1.22348 -0.993418 0
M  V30 9132 C 836.037 2.27987 -0.553076 0
M  V30 9133 C 837.053 1.69378 0.398386 0
M  V30 9134 O 838.229 1.99648 0.26509 0
M  V30 9135 C 835.294 3.46475 0.124809 0
M  V30 9136 C 834.355 4.20399 -0.869682 0
M  V30 9137 C 833.588 5.33229 -0.224052 0
M  V30 9138 O 833.811 5.61885 0.981915 0
M  V30 9139 O 832.745 5.94685 -0.929174 0
M  V30 9140 H 836.571 2.67822 -1.43195 0
M  V30 9141 H 834.156 1.28525 -0.761694 0
M  V30 9142 H 836.038 4.18369 0.504496 0
M  V30 9143 H 834.713 3.08565 0.978243 0
M  V30 9144 H 833.62 3.50774 -1.30031 0
M  V30 9145 H 834.953 4.62191 -1.69233 0
M  V30 9146 N 836.605 0.766683 1.37694 0
M  V30 9147 C 837.851 0.329201 2.0011 0
M  V30 9148 C 838.184 -1.09004 1.60723 0
M  V30 9149 O 837.459 -1.74895 0.850989 0
M  V30 9150 C 837.742 0.466989 3.57059 0
M  V30 9151 C 837.595 1.92828 4.06371 0
M  V30 9152 C 838.914 -0.131792 4.39903 0
M  V30 9153 H 836.033 0.12109 0.726984 0
M  V30 9154 H 838.675 0.968779 1.63446 0
M  V30 9155 H 836.825 -0.0775023 3.88423 0
M  V30 9156 H 838.497 2.53208 3.85595 0
M  V30 9157 H 836.74 2.43884 3.58752 0
M  V30 9158 H 837.411 1.97577 5.15429 0
M  V30 9159 H 839.887 0.332731 4.14768 0
M  V30 9160 H 838.763 -0.005217 5.489 0
M  V30 9161 H 839.024 -1.22156 4.24889 0
M  V30 9162 N 838.083 -1.48885 0.516809 0
M  V30 9163 C 839.329 -2.02788 -0.0220928 0
M  V30 9164 C 839.662 -1.39433 -1.35175 0
M  V30 9165 O 838.937 -0.535459 -1.86984 0
M  V30 9166 C 839.22 -3.59753 -0.158012 0
M  V30 9167 C 839.073 -4.33611 1.19588 0
M  V30 9168 C 840.392 -4.30984 -0.891133 0
M  V30 9169 H 837.511 -0.736971 -0.00655488 0
M  V30 9170 H 840.153 -1.77746 0.671287 0
M  V30 9171 H 838.303 -3.8122 -0.748568 0
M  V30 9172 H 839.975 -4.23598 1.82653 0
M  V30 9173 H 838.218 -3.95547 1.78116 0
M  V30 9174 H 838.889 -5.41846 1.05391 0
M  V30 9175 H 841.365 -4.14267 -0.39012 0
M  V30 9176 H 840.241 -5.40527 -0.955107 0
M  V30 9177 H 840.502 -3.97336 -1.93847 0
M  V30 9178 N 839.561 -0.251338 -1.55583 0
M  V30 9179 C 840.471 0.656978 -2.25213 0
M  V30 9180 C 841.487 1.18966 -1.26977 0
M  V30 9181 O 842.663 1.22499 -1.59862 0
M  V30 9182 C 839.728 1.83527 -2.94141 0
M  V30 9183 C 838.789 1.34162 -4.07798 0
M  V30 9184 C 838.022 2.46375 -4.73429 0
M  V30 9185 O 838.245 3.65205 -4.38157 0
M  V30 9186 O 837.179 2.15881 -5.61853 0
M  V30 9187 H 841.005 0.0936395 -3.03556 0
M  V30 9188 H 838.59 -0.0196638 -1.49387 0
M  V30 9189 H 840.472 2.52279 -3.3754 0
M  V30 9190 H 839.147 2.38614 -2.18735 0
M  V30 9191 H 838.054 0.621249 -3.68906 0
M  V30 9192 H 839.387 0.836779 -4.85035 0
M  V30 9193 N 841.039 1.57585 0.0217189 0
M  V30 9194 C 842.316 1.80779 0.74687 0
M  V30 9195 C 842.696 0.851163 1.9318 0
M  V30 9196 O 842.044 -0.105039 2.28258 0
M  V30 9197 C 842.254 3.28696 1.17302 0
M  V30 9198 C 843.602 3.93871 1.58589 0
M  V30 9199 O 844.626 3.3289 1.2674 0
M  V30 9200 O 843.485 5.01254 2.1773 0
M  V30 9201 H 840.579 0.743666 0.361786 0
M  V30 9202 H 843.125 1.697 -0.00206785 0
M  V30 9203 H 841.897 3.89927 0.327453 0
M  V30 9204 H 841.52 3.44692 1.98174 0
M  V30 9205 N 842.517 -0.29412 1.54831 0
M  V30 9206 C 843.766 -1.02614 1.73647 0
M  V30 9207 C 844.079 -1.88193 0.533162 0
M  V30 9208 O 845.285 -2.64713 0.603275 0
M  V30 9209 C 843.741 -1.87417 3.07251 0
M  V30 9210 C 843.349 -1.06806 4.35082 0
M  V30 9211 C 845.093 -2.60176 3.35423 0
M  V30 9212 C 843 -1.90926 5.59733 0
M  V30 9213 H 841.93 -0.386834 0.647206 0
M  V30 9214 H 844.581 -0.282789 1.81308 0
M  V30 9215 H 842.963 -2.65765 2.93572 0
M  V30 9216 H 844.137 -0.330226 4.59615 0
M  V30 9217 H 842.452 -0.455979 4.13896 0
M  V30 9218 H 845.049 -3.23476 4.25755 0
M  V30 9219 H 845.392 -3.29365 2.54606 0
M  V30 9220 H 845.925 -1.88871 3.50103 0
M  V30 9221 H 842.664 -1.26194 6.43238 0
M  V30 9222 H 842.184 -2.62363 5.39375 0
M  V30 9223 H 843.863 -2.48807 5.97247 0
M  V30 9224 N 843.995 -1.47404 -0.557645 0
M  V30 9225 C 845.22 -1.57868 -1.34508 0
M  V30 9226 C 845.645 -0.229151 -1.86699 0
M  V30 9227 O 845.003 0.794908 -1.62944 0
M  V30 9228 C 845.051 -2.60712 -2.49122 0
M  V30 9229 O 844.155 -2.15952 -3.51338 0
M  V30 9230 H 843.496 -0.530335 -0.399551 0
M  V30 9231 H 846.026 -1.93181 -0.673954 0
M  V30 9232 H 846.036 -2.81118 -2.95697 0
M  V30 9233 H 844.711 -3.58701 -2.10491 0
M  V30 9234 H 843.288 -2.05644 -3.11071 0
M  V30 9235 N 845.473 0.80434 -1.35529 0
M  V30 9236 C 846.701 1.59283 -1.32048 0
M  V30 9237 C 847.116 1.88527 0.101556 0
M  V30 9238 O 846.473 1.48975 1.05417 0
M  V30 9239 C 846.524 2.92276 -2.12737 0
M  V30 9240 O 846.245 2.64299 -3.49396 0
M  V30 9241 C 847.746 3.86631 -2.16867 0
M  V30 9242 H 844.966 0.494523 -0.453528 0
M  V30 9243 H 847.51 0.999415 -1.78415 0
M  V30 9244 H 845.665 3.48125 -1.69964 0
M  V30 9245 H 846.079 3.4923 -3.91329 0
M  V30 9246 H 847.553 4.77053 -2.77712 0
M  V30 9247 H 848.03 4.23384 -1.16803 0
M  V30 9248 H 848.636 3.36717 -2.59811 0
M  V30 9249 N 846.951 1.19563 1.02676 0
M  V30 9250 C 848.199 0.997593 1.75763 0
M  V30 9251 C 848.52 -0.47253 1.89188 0
M  V30 9252 O 847.79 -1.34214 1.42701 0
M  V30 9253 H 846.37 0.366128 0.651122 0
M  V30 9254 H 849.032 1.50495 1.23844 0
M  V30 9255 H 848.128 1.44741 2.76508 0
M  V30 9256 N 848.429 -1.21819 0.999893 0
M  V30 9257 C 849.676 -1.90752 0.679694 0
M  V30 9258 C 850.004 -1.77777 -0.789014 0
M  V30 9259 O 849.259 -1.14518 -1.58695 0
M  V30 9260 C 849.558 -3.4193 1.04012 0
M  V30 9261 C 849.224 -3.75098 2.50225 0
M  V30 9262 C 847.886 -3.83861 2.90179 0
M  V30 9263 C 850.238 -3.90706 3.44961 0
M  V30 9264 C 847.566 -4.05676 4.23844 0
M  V30 9265 C 849.918 -4.14027 4.78294 0
M  V30 9266 C 848.582 -4.21016 5.17979 0
M  V30 9267 H 847.852 -0.698012 0.248718 0
M  V30 9268 H 850.499 -1.44437 1.25738 0
M  V30 9269 H 848.804 -3.89947 0.380606 0
M  V30 9270 H 850.501 -3.93532 0.770301 0
M  V30 9271 H 847.091 -3.68865 2.18258 0
M  V30 9272 H 851.275 -3.83307 3.15261 0
M  V30 9273 H 846.531 -4.09316 4.5417 0
M  V30 9274 H 850.705 -4.25046 5.51642 0
M  V30 9275 H 848.332 -4.37672 6.21568 0
M  V30 9276 N 849.908 -0.773975 -1.37286 0
M  V30 9277 C 851.324 -0.45386 -1.53011 0
M  V30 9278 C 851.524 1.03018 -1.73175 0
M  V30 9279 O 850.58 1.81597 -1.75438 0
M  V30 9280 C 851.893 -1.27087 -2.72524 0
M  V30 9281 C 853.441 -1.26299 -2.86387 0
M  V30 9282 C 853.916 -2.0634 -4.08886 0
M  V30 9283 N 855.407 -2.03706 -4.16003 0
M  V30 9284 C 856.142 -2.62418 -5.09828 0
M  V30 9285 N 855.638 -3.29926 -6.09197 0
M  V30 9286 N 857.431 -2.52236 -5.02328 0
M  V30 9287 H 849.582 -1.73551 -1.22449 0
M  V30 9288 H 851.845 -0.736874 -0.596423 0
M  V30 9289 H 851.551 -2.32263 -2.64096 0
M  V30 9290 H 851.425 -0.90157 -3.66267 0
M  V30 9291 H 853.812 -0.219213 -2.94285 0
M  V30 9292 H 853.893 -1.67195 -1.93596 0
M  V30 9293 H 853.537 -3.10741 -4.01749 0
M  V30 9294 H 853.467 -1.62825 -5.00795 0
M  V30 9295 H 855.958 -1.54559 -3.44848 0
M  V30 9296 H 856.271 -3.72095 -6.77322 0
M  V30 9297 H 854.616 -3.34026 -6.09469 0
M  V30 9298 H 857.807 -1.99108 -4.23643 0
M  V30 9299 H 857.98 -2.98286 -5.75265 0
M  V30 9300 N 851.386 1.48609 -0.524698 0
M  V30 9301 C 852.316 2.32366 0.229837 0
M  V30 9302 C 853.297 1.41759 0.940129 0
M  V30 9303 O 854.482 1.7065 0.926936 0
M  V30 9304 C 851.612 3.22835 1.28043 0
M  V30 9305 C 850.566 4.22424 0.688603 0
M  V30 9306 C 849.892 5.0199 1.84146 0
M  V30 9307 C 851.192 5.21217 -0.336176 0
M  V30 9308 H 852.886 2.95698 -0.469339 0
M  V30 9309 H 850.432 1.42197 -0.227156 0
M  V30 9310 H 852.385 3.80253 1.8162 0
M  V30 9311 H 851.109 2.57492 2.00912 0
M  V30 9312 H 849.768 3.66185 0.174402 0
M  V30 9313 H 849.416 4.33076 2.5584 0
M  V30 9314 H 849.116 5.69392 1.45142 0
M  V30 9315 H 850.64 5.62259 2.38111 0
M  V30 9316 H 852.054 5.7319 0.112307 0
M  V30 9317 H 850.451 5.96642 -0.643324 0
M  V30 9318 H 851.521 4.68676 -1.24381 0
M  V30 9319 N 852.864 0.259585 1.55447 0
M  V30 9320 C 854.094 -0.364863 2.03353 0
M  V30 9321 C 854.502 -1.5116 1.13786 0
M  V30 9322 O 853.845 -1.83109 0.147283 0
M  V30 9323 C 853.907 -0.922587 3.4746 0
M  V30 9324 C 853.571 0.0935207 4.56904 0
M  V30 9325 C 854.568 0.907571 5.11917 0
M  V30 9326 C 852.253 0.223276 5.01804 0
M  V30 9327 C 854.247 1.83771 6.10333 0
M  V30 9328 C 851.934 1.15691 6.00049 0
M  V30 9329 C 852.932 1.96264 6.54194 0
M  V30 9330 O 852.62 2.88052 7.50521 0
M  V30 9331 H 852.352 -0.0893313 0.670072 0
M  V30 9332 H 854.906 0.384821 2.01763 0
M  V30 9333 H 853.136 -1.72206 3.4624 0
M  V30 9334 H 854.825 -1.45846 3.78792 0
M  V30 9335 H 855.591 0.817979 4.78052 0
M  V30 9336 H 851.47 -0.393834 4.59315 0
M  V30 9337 H 855.014 2.46703 6.52521 0
M  V30 9338 H 850.911 1.24738 6.33333 0
M  V30 9339 H 851.679 2.82557 7.68182 0
M  V30 9340 N 854.342 -1.57594 -0.0133615 0
M  V30 9341 C 855.289 -2.07574 -1.00905 0
M  V30 9342 C 856.259 -0.968231 -1.34961 0
M  V30 9343 O 857.444 -1.23981 -1.45028 0
M  V30 9344 C 854.584 -2.5728 -2.30002 0
M  V30 9345 C 853.697 -3.81881 -2.01967 0
M  V30 9346 C 852.832 -4.20139 -3.25049 0
M  V30 9347 C 851.871 -5.37614 -2.92639 0
M  V30 9348 N 851.008 -5.71229 -4.08218 0
M  V30 9349 H 855.848 -2.92382 -0.575899 0
M  V30 9350 H 853.385 -1.4455 -0.272722 0
M  V30 9351 H 855.343 -2.84171 -3.05454 0
M  V30 9352 H 853.973 -1.75365 -2.71011 0
M  V30 9353 H 853.025 -3.61979 -1.16942 0
M  V30 9354 H 854.337 -4.67441 -1.74069 0
M  V30 9355 H 853.491 -4.48242 -4.08857 0
M  V30 9356 H 852.23 -3.33262 -3.56073 0
M  V30 9357 H 851.235 -5.09248 -2.07235 0
M  V30 9358 H 852.46 -6.26157 -2.62876 0
M  V30 9359 H 850.406 -4.8731 -4.39164 0
M  V30 9360 H 850.323 -6.51333 -3.83799 0
M  V30 9361 H 851.591 -6.03917 -4.92854 0
M  V30 9362 N 855.82 0.285905 -1.54985 0
M  V30 9363 C 857.231 0.857869 -1.65824 0
M  V30 9364 C 857.582 1.87531 -0.576763 0
M  V30 9365 O 856.707 2.14528 0.284016 0
M  V30 9366 C 857.302 1.56277 -3.00604 0
M  V30 9367 C 855.861 2.08294 -3.13513 0
M  V30 9368 C 855.008 0.920633 -2.61571 0
M  V30 9369 H 857.959 0.0625463 -1.58577 0
M  V30 9370 H 857.98 2.42912 -2.92872 0
M  V30 9371 H 857.492 0.822017 -3.79295 0
M  V30 9372 H 855.593 2.8537 -2.39572 0
M  V30 9373 H 855.706 2.3071 -4.19892 0
M  V30 9374 H 854.07 1.31043 -2.18403 0
M  V30 9375 H 854.853 0.193594 -3.42754 0
M  V30 9376 N 857.298 1.47698 0.54982 0
M  V30 9377 C 858.714 1.3338 0.876468 0
M  V30 9378 C 858.914 0.329837 1.98782 0
M  V30 9379 O 857.97 -0.256022 2.51199 0
M  V30 9380 C 859.283 2.72903 1.26272 0
M  V30 9381 C 860.831 2.81243 1.37373 0
M  V30 9382 C 861.306 4.21423 1.79351 0
M  V30 9383 N 862.797 4.24 1.86489 0
M  V30 9384 C 863.532 5.29386 2.20313 0
M  V30 9385 N 863.028 6.4507 2.527 0
M  V30 9386 N 864.821 5.16768 2.2115 0
M  V30 9387 H 856.972 2.11603 -0.183781 0
M  V30 9388 H 859.235 0.947798 -0.0195601 0
M  V30 9389 H 858.941 3.47836 0.519889 0
M  V30 9390 H 858.815 3.05151 2.21727 0
M  V30 9391 H 861.202 2.06577 2.10737 0
M  V30 9392 H 861.283 2.52639 0.400882 0
M  V30 9393 H 860.927 4.96597 1.06555 0
M  V30 9394 H 860.857 4.47456 2.77652 0
M  V30 9395 H 863.348 3.40547 1.63817 0
M  V30 9396 H 863.661 7.21236 2.77557 0
M  V30 9397 H 862.006 6.48377 2.50263 0
M  V30 9398 H 865.197 4.25416 1.95293 0
M  V30 9399 H 865.37 5.99004 2.4718 0
M  V30 9400 N 858.776 -0.797141 1.35954 0
M  V30 9401 C 859.706 -1.92387 1.32323 0
M  V30 9402 C 860.687 -1.68967 0.196007 0
M  V30 9403 O 861.872 -1.90193 0.39245 0
M  V30 9404 C 859.002 -3.29286 1.10398 0
M  V30 9405 C 857.956 -3.67212 2.19862 0
M  V30 9406 C 857.282 -5.02377 1.8309 0
M  V30 9407 C 858.582 -3.76602 3.61896 0
M  V30 9408 H 860.276 -1.95683 2.26602 0
M  V30 9409 H 857.822 -0.94007 1.09081 0
M  V30 9410 H 859.775 -4.07721 1.06495 0
M  V30 9411 H 858.499 -3.26358 0.125668 0
M  V30 9412 H 857.158 -2.91069 2.22878 0
M  V30 9413 H 856.806 -4.95961 0.838527 0
M  V30 9414 H 856.506 -5.28722 2.56372 0
M  V30 9415 H 858.03 -5.8324 1.80729 0
M  V30 9416 H 859.444 -4.45246 3.6115 0
M  V30 9417 H 857.841 -4.14425 4.34018 0
M  V30 9418 H 858.911 -2.77906 3.97361 0
M  V30 9419 N 860.254 -1.20106 -1.0204 0
M  V30 9420 C 861.217 -0.948261 -2.08664 0
M  V30 9421 C 862.217 0.0746753 -1.60627 0
M  V30 9422 O 863.407 -0.160981 -1.73455 0
M  V30 9423 C 860.539 -0.426854 -3.38217 0
M  V30 9424 H 861.732 -1.894 -2.32524 0
M  V30 9425 H 859.285 -1.0159 -1.18782 0
M  V30 9426 H 860.02 0.524532 -3.2003 0
M  V30 9427 H 859.805 -1.16451 -3.74408 0
M  V30 9428 H 861.295 -0.269346 -4.1673 0
M  V30 9429 N 861.732 1.21287 -1.00634 0
M  V30 9430 C 862.957 1.94925 -0.708441 0
M  V30 9431 C 863.382 1.73659 0.722783 0
M  V30 9432 O 862.74 1.02429 1.49593 0
M  V30 9433 C 862.788 3.45377 -1.03667 0
M  V30 9434 O 861.892 4.12153 -0.142661 0
M  V30 9435 H 861.233 0.609338 -0.263824 0
M  V30 9436 H 863.763 1.54008 -1.34695 0
M  V30 9437 H 863.773 3.95954 -0.984086 0
M  V30 9438 H 862.448 3.6018 -2.0795 0
M  V30 9439 H 861.025 3.72048 -0.251888 0
M  V30 9440 N 863.21 0.781244 1.36873 0
M  V30 9441 C 864.438 0.361566 2.03716 0
M  V30 9442 C 864.853 -1.01937 1.58916 0
M  V30 9443 O 864.21 -1.65237 0.774783 0
M  V30 9444 C 864.261 0.406391 3.59208 0
M  V30 9445 O 863.982 1.73286 4.02372 0
M  V30 9446 C 865.483 -0.0236894 4.43294 0
M  V30 9447 H 862.703 0.150133 0.653988 0
M  V30 9448 H 865.247 1.05781 1.75016 0
M  V30 9449 H 863.402 -0.241364 3.86647 0
M  V30 9450 H 863.816 1.67804 4.96933 0
M  V30 9451 H 865.29 0.0588205 5.51969 0
M  V30 9452 H 865.767 -1.07529 4.25833 0
M  V30 9453 H 866.373 0.59624 4.211 0
M  V30 9454 N 864.689 -1.48329 0.532571 0
M  V30 9455 C 865.639 -2.2664 -0.24868 0
M  V30 9456 C 866.623 -1.32861 -0.907563 0
M  V30 9457 O 867.815 -1.57382 -0.809942 0
M  V30 9458 C 864.944 -3.18004 -1.29339 0
M  V30 9459 C 864.03 -4.19256 -0.639166 0
M  V30 9460 N 864.421 -5.05043 0.276597 0
M  V30 9461 C 862.719 -4.36906 -0.896062 0
M  V30 9462 C 863.42 -5.78009 0.654261 0
M  V30 9463 N 862.396 -5.43598 0.0147447 0
M  V30 9464 H 866.198 -2.90344 0.455792 0
M  V30 9465 H 863.712 -1.58566 0.350778 0
M  V30 9466 H 865.709 -3.72767 -1.86682 0
M  V30 9467 H 864.369 -2.55855 -1.99921 0
M  V30 9468 H 865.38 -5.13813 0.649351 0
M  V30 9469 H 862.057 -3.85945 -1.59226 0
M  V30 9470 H 863.447 -6.57039 1.40532 0
M  V30 9471 N 866.167 -0.267825 -1.55308 0
M  V30 9472 C 867.413 0.351556 -1.9973 0
M  V30 9473 C 867.746 1.56049 -1.15596 0
M  V30 9474 O 867.021 1.93203 -0.224274 0
M  V30 9475 C 867.304 0.74091 -3.52395 0
M  V30 9476 C 867.157 -0.474861 -4.47286 0
M  V30 9477 C 868.476 1.5801 -4.10756 0
M  V30 9478 H 865.595 0.126308 -0.726096 0
M  V30 9479 H 868.237 -0.373316 -1.86296 0
M  V30 9480 H 866.387 1.35851 -3.63973 0
M  V30 9481 H 868.059 -1.1134 -4.47662 0
M  V30 9482 H 866.302 -1.11425 -4.19246 0
M  V30 9483 H 866.973 -0.158782 -5.51772 0
M  V30 9484 H 869.449 1.05857 -4.0241 0
M  V30 9485 H 868.325 1.82135 -5.17801 0
M  V30 9486 H 868.586 2.55878 -3.60526 0
M  V30 9487 N 867.645 1.57599 0.00500368 0
M  V30 9488 C 868.875 1.94344 0.700998 0
M  V30 9489 C 869.283 0.868011 1.68114 0
M  V30 9490 O 868.626 -0.16214 1.82983 0
M  V30 9491 C 868.688 3.27046 1.49268 0
M  V30 9492 C 868.352 4.51992 0.674684 0
M  V30 9493 C 869.349 5.19888 -0.0354833 0
M  V30 9494 C 867.034 4.98432 0.622129 0
M  V30 9495 C 869.028 6.3252 -0.787246 0
M  V30 9496 C 866.715 6.10954 -0.133362 0
M  V30 9497 C 867.713 6.77855 -0.836788 0
M  V30 9498 O 867.401 7.88221 -1.57996 0
M  V30 9499 H 867.133 0.645572 0.20053 0
M  V30 9500 H 869.687 2.0536 -0.040718 0
M  V30 9501 H 867.917 3.12424 2.27877 0
M  V30 9502 H 869.606 3.4894 2.07355 0
M  V30 9503 H 870.372 4.85 -0.00400159 0
M  V30 9504 H 866.251 4.46189 1.15917 0
M  V30 9505 H 869.795 6.84671 -1.33683 0
M  V30 9506 H 865.692 6.45285 -0.166682 0
M  V30 9507 H 866.46 8.0471 -1.49615 0
M  V30 9508 N 869.123 -0.277682 1.55134 0
M  V30 9509 C 870.055 -1.36531 1.84098 0
M  V30 9510 C 871.068 -1.45756 0.725194 0
M  V30 9511 O 872.257 -1.47656 1.00299 0
M  V30 9512 C 869.357 -2.74701 1.98476 0
M  V30 9513 C 868.53 -2.88125 3.29094 0
M  V30 9514 C 867.589 -4.0694 3.33596 0
M  V30 9515 O 866.615 -3.9792 4.06999 0
M  V30 9516 N 867.817 -5.18687 2.60661 0
M  V30 9517 H 870.582 -1.12032 2.77973 0
M  V30 9518 H 868.143 -0.467793 1.54995 0
M  V30 9519 H 870.135 -3.52471 1.98863 0
M  V30 9520 H 868.705 -2.92043 1.11488 0
M  V30 9521 H 867.925 -1.97277 3.41285 0
M  V30 9522 H 869.213 -2.94021 4.15246 0
M  V30 9523 H 868.611 -5.28901 2.00699 0
M  V30 9524 H 867.168 -5.94705 2.66776 0
M  V30 9525 N 870.601 -1.47988 -0.541979 0
M  V30 9526 C 871.85 -1.5465 -1.29485 0
M  V30 9527 C 872.163 -0.220041 -1.94358 0
M  V30 9528 O 873.369 -0.164792 -2.70999 0
M  V30 9529 C 871.825 -2.72685 -2.34885 0
M  V30 9530 C 871.433 -4.11923 -1.76134 0
M  V30 9531 C 873.177 -2.88651 -3.11257 0
M  V30 9532 C 871.084 -5.21237 -2.79404 0
M  V30 9533 H 870.014 -0.575688 -0.486928 0
M  V30 9534 H 872.665 -1.74296 -0.573853 0
M  V30 9535 H 871.047 -2.46448 -3.09966 0
M  V30 9536 H 872.221 -4.48128 -1.07322 0
M  V30 9537 H 870.536 -4.00972 -1.12295 0
M  V30 9538 H 873.133 -3.67487 -3.88404 0
M  V30 9539 H 873.476 -1.97658 -3.66384 0
M  V30 9540 H 874.009 -3.14731 -2.43288 0
M  V30 9541 H 870.748 -6.14156 -2.29113 0
M  V30 9542 H 870.268 -4.89533 -3.4658 0
M  V30 9543 H 871.947 -5.48839 -3.42615 0
M  V30 9544 N 872.079 0.78992 -1.36375 0
M  V30 9545 C 873.012 1.90907 -1.25019 0
M  V30 9546 C 873.99 1.62043 -0.134463 0
M  V30 9547 O 875.174 1.86008 -0.305506 0
M  V30 9548 C 872.301 3.25716 -0.928822 0
M  V30 9549 C 871.347 3.73511 -2.05892 0
M  V30 9550 S 872.18 3.89332 -3.6767 0
M  V30 9551 C 873.336 5.27017 -3.37645 0
M  V30 9552 H 873.569 2.00247 -2.19746 0
M  V30 9553 H 871.102 0.949097 -1.21785 0
M  V30 9554 H 873.06 4.03586 -0.750219 0
M  V30 9555 H 871.721 3.141 0.000658424 0
M  V30 9556 H 870.914 4.71195 -1.78862 0
M  V30 9557 H 870.516 3.02688 -2.19672 0
M  V30 9558 H 872.808 6.1158 -2.91507 0
M  V30 9559 H 873.751 5.5905 -4.3459 0
M  V30 9560 H 874.159 4.94093 -2.73006 0
M  V30 9561 N 873.557 1.20646 1.01402 0
M  V30 9562 C 874.505 0.954493 2.12114 0
M  V30 9563 C 875.499 -0.0950737 1.69133 0
M  V30 9564 O 876.705 0.0555153 1.79914 0
M  V30 9565 H 873.08 0.29135 0.693267 0
M  V30 9566 H 875.051 1.89447 2.30548 0
M  V30 9567 C 873.8 0.525944 3.43699 0
M  V30 9568 H 873.123 1.32516 3.772 0
M  V30 9569 H 874.563 0.388883 4.22213 0
M  V30 9570 C 873.022 -0.761997 3.28169 0
M  V30 9571 O 873.552 -1.81979 3.58115 0
M  V30 9572 N 871.758 -0.725017 2.8141 0
M  V30 9573 H 871.305 0.13607 2.5724 0
M  V30 9574 H 871.263 -1.5871 2.71401 0
M  V30 9575 N 875.035 -1.20752 1.01276 0
M  V30 9576 C 875.985 -2.21252 0.550602 0
M  V30 9577 C 876.969 -1.56052 -0.391985 0
M  V30 9578 O 878.161 -1.75682 -0.215575 0
M  V30 9579 C 875.29 -3.43112 -0.113601 0
M  V30 9580 C 874.376 -4.15485 0.850465 0
M  V30 9581 N 874.767 -4.64301 2.00643 0
M  V30 9582 C 873.065 -4.40932 0.670476 0
M  V30 9583 C 873.766 -5.197 2.61317 0
M  V30 9584 N 872.742 -5.09534 1.8941 0
M  V30 9585 H 876.544 -2.56657 1.43194 0
M  V30 9586 H 874.058 -1.36646 0.877597 0
M  V30 9587 H 876.055 -4.1433 -0.462211 0
M  V30 9588 H 874.715 -3.09213 -0.990825 0
M  V30 9589 H 875.726 -4.59637 2.38651 0
M  V30 9590 H 872.403 -4.17197 -0.159016 0
M  V30 9591 H 873.793 -5.67873 3.59123 0
M  V30 9592 N 876.513 -0.788492 -1.36457 0
M  V30 9593 C 877.753 -0.365855 -2.01099 0
M  V30 9594 C 878.117 1.04262 -1.61225 0
M  V30 9595 O 879.318 1.56628 -2.18451 0
M  V30 9596 C 877.589 -0.523344 -3.53548 0
M  V30 9597 S 879.148 -0.188448 -4.38395 0
M  V30 9598 H 875.966 -0.139832 -0.697114 0
M  V30 9599 H 878.568 -1.02678 -1.66365 0
M  V30 9600 H 877.272 -1.54874 -3.80055 0
M  V30 9601 H 876.803 0.153547 -3.931 0
M  V30 9602 H 878.818 1.0103 -4.85806 0
M  V30 9603 N 877.991 1.48044 -0.54043 0
M  V30 9604 C 879.237 2.03392 -0.0183377 0
M  V30 9605 C 879.592 1.4091 1.31004 0
M  V30 9606 O 878.885 0.549375 1.83555 0
M  V30 9607 C 879.079 3.57085 0.150008 0
M  V30 9608 C 878.908 4.34468 -1.1605 0
M  V30 9609 C 877.678 4.75008 -1.72324 0
M  V30 9610 C 879.876 4.70641 -2.07368 0
M  V30 9611 N 877.858 5.36968 -2.97555 0
M  V30 9612 C 879.229 5.32728 -3.17176 0
M  V30 9613 C 881.284 4.52571 -2.07567 0
M  V30 9614 C 879.987 5.78654 -4.27261 0
M  V30 9615 C 882.013 4.99485 -3.16653 0
M  V30 9616 C 881.375 5.61606 -4.2518 0
M  V30 9617 H 877.474 0.780497 -0.0484652 0
M  V30 9618 H 880.058 1.80738 -0.724018 0
M  V30 9619 H 878.229 3.79542 0.824787 0
M  V30 9620 H 879.961 3.99071 0.672649 0
M  V30 9621 H 876.716 4.5644 -1.26331 0
M  V30 9622 H 877.14 5.72505 -3.61341 0
M  V30 9623 H 881.782 4.03914 -1.24952 0
M  V30 9624 H 879.5 6.26311 -5.10647 0
M  V30 9625 H 883.086 4.87286 -3.17874 0
M  V30 9626 H 881.966 5.97248 -5.08197 0
M  V30 9627 N 879.47 0.276058 1.55163 0
M  V30 9628 C 880.417 -0.611006 2.22565 0
M  V30 9629 C 881.387 -1.14902 1.19945 0
M  V30 9630 O 882.572 -1.19815 1.48489 0
M  V30 9631 C 879.712 -1.78885 2.95117 0
M  V30 9632 C 878.825 -1.2846 4.12458 0
M  V30 9633 C 877.96 -2.42432 4.72652 0
M  V30 9634 C 876.999 -1.89015 5.82185 0
M  V30 9635 N 876.136 -2.96463 6.36439 0
M  V30 9636 H 880.976 -0.0295849 2.97985 0
M  V30 9637 H 878.513 -0.00283607 1.471 0
M  V30 9638 H 880.471 -2.48121 3.35398 0
M  V30 9639 H 879.101 -2.34229 2.22119 0
M  V30 9640 H 878.153 -0.485312 3.77292 0
M  V30 9641 H 879.465 -0.853358 4.91446 0
M  V30 9642 H 878.619 -3.19659 5.15658 0
M  V30 9643 H 877.358 -2.88872 3.92943 0
M  V30 9644 H 876.363 -1.10267 5.38629 0
M  V30 9645 H 877.588 -1.43509 6.63763 0
M  V30 9646 H 875.534 -3.42283 5.59623 0
M  V30 9647 H 875.451 -2.57759 7.10701 0
M  V30 9648 H 876.719 -3.73663 6.84103 0
M  V30 9649 N 880.948 -1.576 0.00335426 0
M  V30 9650 C 881.858 -2.12067 -1.00322 0
M  V30 9651 C 882.874 -1.06672 -1.37467 0
M  V30 9652 O 884.05 -1.38592 -1.46131 0
M  V30 9653 C 881.115 -2.61593 -2.27531 0
M  V30 9654 C 880.176 -3.81602 -1.96668 0
M  V30 9655 C 879.409 -4.28756 -3.17811 0
M  V30 9656 O 879.632 -3.75222 -4.2961 0
M  V30 9657 O 878.566 -5.20877 -3.01613 0
M  V30 9658 H 882.392 -2.98299 -0.570199 0
M  V30 9659 H 879.977 -1.47835 -0.215682 0
M  V30 9660 H 881.859 -2.93631 -3.02256 0
M  V30 9661 H 880.534 -1.78457 -2.70065 0
M  V30 9662 H 879.441 -3.54531 -1.19408 0
M  V30 9663 H 880.774 -4.65822 -1.58968 0
M  V30 9664 N 882.426 0.269451 -1.5528 0
M  V30 9665 C 883.842 0.616827 -1.47199 0
M  V30 9666 C 884.042 1.89354 -0.68901 0
M  V30 9667 O 883.098 2.51631 -0.209287 0
M  V30 9668 C 884.411 0.740492 -2.9144 0
M  V30 9669 C 885.959 0.834312 -3.01676 0
M  V30 9670 C 886.434 0.989725 -4.47178 0
M  V30 9671 N 887.925 1.05516 -4.51022 0
M  V30 9672 C 888.66 1.19427 -5.60825 0
M  V30 9673 N 888.156 1.30035 -6.80487 0
M  V30 9674 N 889.949 1.22566 -5.48575 0
M  V30 9675 H 882.1 -0.568962 -2.04638 0
M  V30 9676 H 884.363 -0.193153 -0.928114 0
M  V30 9677 H 884.069 -0.127234 -3.5147 0
M  V30 9678 H 883.943 1.61965 -3.40657 0
M  V30 9679 H 886.33 1.6925 -2.4174 0
M  V30 9680 H 886.411 -0.0695298 -2.55705 0
M  V30 9681 H 886.055 0.136179 -5.07717 0
M  V30 9682 H 885.985 1.90827 -4.90808 0
M  V30 9683 H 888.476 0.985434 -3.64825 0
M  V30 9684 H 888.789 1.40494 -7.59922 0
M  V30 9685 H 887.134 1.27033 -6.83292 0
M  V30 9686 H 890.325 1.13911 -4.54029 0
M  V30 9687 H 890.498 1.33063 -6.34191 0
M  V30 9688 N 883.904 1.48273 0.534124 0
M  V30 9689 C 885.315 1.49667 1.1161 0
M  V30 9690 C 885.666 0.264139 1.94414 0
M  V30 9691 O 884.791 -0.629084 2.07054 0
M  V30 9692 C 885.386 2.71191 2.03079 0
M  V30 9693 C 883.945 2.7547 2.56502 0
M  V30 9694 C 883.092 2.43119 1.33373 0
M  V30 9695 H 886.043 1.55449 0.319578 0
M  V30 9696 H 886.064 2.49473 2.87304 0
M  V30 9697 H 885.576 3.60879 1.42785 0
M  V30 9698 H 883.677 1.89979 3.20529 0
M  V30 9699 H 883.79 3.76787 2.95919 0
M  V30 9700 H 882.154 1.94187 1.64813 0
M  V30 9701 H 882.937 3.35044 0.748375 0
M  V30 9702 N 885.382 -0.782676 1.36792 0
M  V30 9703 C 886.292 -1.92679 1.33835 0
M  V30 9704 C 887.308 -1.72344 0.23952 0
M  V30 9705 O 888.484 -1.95766 0.473045 0
M  V30 9706 C 885.549 -3.27644 1.1336 0
M  V30 9707 C 884.61 -3.6071 2.32781 0
M  V30 9708 C 883.843 -4.89234 2.13273 0
M  V30 9709 O 884.066 -5.59468 1.11136 0
M  V30 9710 O 883 -5.21112 3.01208 0
M  V30 9711 H 886.826 -1.98124 2.30175 0
M  V30 9712 H 884.411 -0.923887 1.17408 0
M  V30 9713 H 886.293 -4.08394 1.03886 0
M  V30 9714 H 884.968 -3.23076 0.200868 0
M  V30 9715 H 883.875 -2.80238 2.47825 0
M  V30 9716 H 885.208 -3.70008 3.24584 0
M  V30 9717 N 886.86 -1.21182 -1.00761 0
M  V30 9718 C 888.137 -0.936297 -1.71735 0
M  V30 9719 C 888.517 0.552585 -2.03739 0
M  V30 9720 O 887.865 1.51672 -1.70903 0
M  V30 9721 C 888.075 -1.81867 -2.97868 0
M  V30 9722 C 889.423 -2.06594 -3.7095 0
M  V30 9723 O 890.447 -1.79194 -3.07844 0
M  V30 9724 O 889.306 -2.5292 -4.84452 0
M  V30 9725 H 886.4 -0.350867 -0.74888 0
M  V30 9726 H 888.946 -1.32098 -1.06527 0
M  V30 9727 H 887.718 -2.82643 -2.70607 0
M  V30 9728 H 887.341 -1.43463 -3.70815 0
M  V30 9729 N 888.338 1.20213 -1.01915 0
M  V30 9730 C 889.754 1.41696 -0.734459 0
M  V30 9731 C 889.954 1.89504 0.684867 0
M  V30 9732 O 889.01 2.06556 1.45227 0
M  V30 9733 C 890.323 2.43644 -1.76233 0
M  V30 9734 C 891.871 2.57406 -1.78076 0
M  V30 9735 C 892.346 3.626 -2.79796 0
M  V30 9736 N 893.837 3.70086 -2.78551 0
M  V30 9737 C 894.572 4.51145 -3.53915 0
M  V30 9738 N 894.068 5.35988 -4.38963 0
M  V30 9739 N 895.861 4.45702 -3.425 0
M  V30 9740 H 888.012 0.874976 -1.93541 0
M  V30 9741 H 890.275 0.446647 -0.836188 0
M  V30 9742 H 889.981 2.15519 -2.77929 0
M  V30 9743 H 889.855 3.42672 -1.57657 0
M  V30 9744 H 892.242 2.8486 -0.770634 0
M  V30 9745 H 892.323 1.58565 -2.00725 0
M  V30 9746 H 891.967 3.35889 -3.80973 0
M  V30 9747 H 891.897 4.61069 -2.54407 0
M  V30 9748 H 894.388 3.09484 -2.1686 0
M  V30 9749 H 894.701 5.94932 -4.9323 0
M  V30 9750 H 893.046 5.35482 -4.4304 0
M  V30 9751 H 896.237 3.78456 -2.75478 0
M  V30 9752 H 896.41 5.08637 -4.01487 0
M  V30 9753 N 889.816 0.795718 1.36037 0
M  V30 9754 C 891.227 0.433379 1.816 0
M  V30 9755 C 891.578 -1.04341 1.66155 0
M  V30 9756 O 890.703 -1.81004 1.18603 0
M  V30 9757 C 891.298 0.77985 3.29703 0
M  V30 9758 C 889.857 0.470256 3.73451 0
M  V30 9759 C 889.004 1.01119 2.58206 0
M  V30 9760 H 891.955 0.988317 1.24169 0
M  V30 9761 H 891.976 0.0732898 3.80429 0
M  V30 9762 H 891.488 1.85473 3.40913 0
M  V30 9763 H 889.589 -0.596332 3.67797 0
M  V30 9764 H 889.702 0.995276 4.68648 0
M  V30 9765 H 888.066 0.434077 2.50974 0
M  V30 9766 H 888.849 2.09196 2.72198 0
M  V30 9767 N 891.294 -1.47756 0.548274 0
M  V30 9768 C 892.257 -2.28379 -0.193857 0
M  V30 9769 C 893.257 -1.36436 -0.850986 0
M  V30 9770 O 894.447 -1.59154 -0.70822 0
M  V30 9771 C 891.579 -3.15858 -1.28243 0
M  V30 9772 H 892.772 -2.95458 0.514231 0
M  V30 9773 H 890.325 -1.53298 0.304879 0
M  V30 9774 H 891.06 -2.5345 -2.0232 0
M  V30 9775 H 890.845 -3.83512 -0.816148 0
M  V30 9776 H 892.335 -3.76627 -1.80393 0
M  V30 9777 N 892.772 -0.284283 -1.55015 0
M  V30 9778 C 894.019 0.329864 -1.99795 0
M  V30 9779 C 894.347 1.55171 -1.1727 0
M  V30 9780 O 893.602 1.94312 -0.232667 0
M  V30 9781 C 893.901 0.747219 -3.49502 0
M  V30 9782 C 893.567 -0.37101 -4.49371 0
M  V30 9783 C 892.229 -0.678034 -4.76399 0
M  V30 9784 C 894.581 -1.12406 -5.08935 0
M  V30 9785 C 891.909 -1.74152 -5.60257 0
M  V30 9786 C 894.261 -2.17734 -5.93948 0
M  V30 9787 C 892.925 -2.49061 -6.19294 0
M  V30 9788 H 892.195 0.120706 -0.731103 0
M  V30 9789 H 894.842 -0.399904 -1.87278 0
M  V30 9790 H 893.147 1.55681 -3.59542 0
M  V30 9791 H 894.844 1.2333 -3.81563 0
M  V30 9792 H 891.434 -0.1216 -4.28427 0
M  V30 9793 H 895.618 -0.900119 -4.88069 0
M  V30 9794 H 890.874 -1.98915 -5.78137 0
M  V30 9795 H 895.048 -2.76553 -6.39133 0
M  V30 9796 H 892.675 -3.31602 -6.84064 0
M  V30 9797 N 894.251 1.57596 -0.0117121 0
M  V30 9798 C 895.476 1.95764 0.684938 0
M  V30 9799 C 895.901 0.887285 1.65858 0
M  V30 9800 O 895.259 -0.153508 1.80649 0
M  V30 9801 C 895.307 3.33031 1.38285 0
M  V30 9802 O 894.411 3.28163 2.49765 0
M  V30 9803 H 893.752 0.638767 0.181309 0
M  V30 9804 H 896.282 2.04486 -0.0683883 0
M  V30 9805 H 896.292 3.68866 1.74362 0
M  V30 9806 H 894.967 4.10483 0.669043 0
M  V30 9807 H 893.544 3.04021 2.15929 0
M  V30 9808 N 895.729 -0.261212 1.5542 0
M  V30 9809 C 897.145 -0.609012 1.47524 0
M  V30 9810 C 897.345 -1.88986 0.699042 0
M  V30 9811 O 896.401 -2.51517 0.222628 0
M  V30 9812 C 897.714 -0.725025 2.91828 0
M  V30 9813 C 899.262 -0.818302 3.02114 0
M  V30 9814 C 899.737 -0.965996 4.47697 0
M  V30 9815 N 901.228 -1.03123 4.51575 0
M  V30 9816 C 901.963 -1.16451 5.6145 0
M  V30 9817 N 901.459 -1.26425 6.81167 0
M  V30 9818 N 903.252 -1.19655 5.49217 0
M  V30 9819 H 895.403 0.579807 2.04333 0
M  V30 9820 H 897.666 0.198072 0.927077 0
M  V30 9821 H 897.372 0.145871 3.51397 0
M  V30 9822 H 897.246 -1.60156 3.41511 0
M  V30 9823 H 899.633 -1.67966 2.42634 0
M  V30 9824 H 899.714 0.0830895 2.55665 0
M  V30 9825 H 899.358 -0.109251 5.07782 0
M  V30 9826 H 899.288 -1.88221 4.91813 0
M  V30 9827 H 901.779 -0.966072 3.65343 0
M  V30 9828 H 902.092 -1.36462 7.60656 0
M  V30 9829 H 900.437 -1.23408 6.83956 0
M  V30 9830 H 903.628 -1.11501 4.54626 0
M  V30 9831 H 903.801 -1.29698 6.34888 0
M  V30 9832 N 897.207 -1.48554 -0.526253 0
M  V30 9833 C 898.137 -1.66252 -1.63959 0
M  V30 9834 C 899.118 -0.511351 -1.62232 0
M  V30 9835 O 900.303 -0.744322 -1.7937 0
M  V30 9836 C 897.433 -1.70556 -3.02536 0
M  V30 9837 C 896.387 -2.8521 -3.19123 0
M  V30 9838 C 895.713 -2.74606 -4.58798 0
M  V30 9839 C 897.013 -4.26463 -3.0154 0
M  V30 9840 H 898.707 -2.59459 -1.49404 0
M  V30 9841 H 896.253 -1.24862 -0.717326 0
M  V30 9842 H 898.206 -1.81524 -3.80298 0
M  V30 9843 H 896.93 -0.739297 -3.18123 0
M  V30 9844 H 895.589 -2.73802 -2.43779 0
M  V30 9845 H 895.237 -1.75941 -4.71226 0
M  V30 9846 H 894.937 -3.51544 -4.70841 0
M  V30 9847 H 896.461 -2.87548 -5.38655 0
M  V30 9848 H 897.875 -4.38685 -3.69091 0
M  V30 9849 H 896.272 -5.04428 -3.25073 0
M  V30 9850 H 897.342 -4.42667 -1.97925 0
M  V30 9851 N 898.685 0.775411 -1.37205 0
M  V30 9852 C 899.615 1.90258 -1.35367 0
M  V30 9853 C 900.596 1.68634 -0.222864 0
M  V30 9854 O 901.781 1.89545 -0.422659 0
M  V30 9855 C 898.911 3.27488 -1.15623 0
M  V30 9856 C 897.865 3.63668 -2.25676 0
M  V30 9857 C 897.191 4.994 -1.91059 0
M  V30 9858 C 898.491 3.70797 -3.67841 0
M  V30 9859 H 900.185 1.92053 -2.29687 0
M  V30 9860 H 897.731 0.922597 -1.10563 0
M  V30 9861 H 899.684 4.05976 -1.12968 0
M  V30 9862 H 898.408 3.26117 -0.177573 0
M  V30 9863 H 897.067 2.87486 -2.2748 0
M  V30 9864 H 896.715 4.94565 -0.917324 0
M  V30 9865 H 896.415 5.24576 -2.64751 0
M  V30 9866 H 897.939 5.80291 -1.89985 0
M  V30 9867 H 899.353 4.39444 -3.68187 0
M  V30 9868 H 897.75 4.07468 -4.40556 0
M  V30 9869 H 898.82 2.71549 -4.01732 0
M  V30 9870 N 900.163 1.21714 1.00117 0
M  V30 9871 C 901.579 0.97532 1.26332 0
M  V30 9872 C 901.779 -0.336029 1.98678 0
M  V30 9873 O 900.835 -1.06073 2.29139 0
M  V30 9874 C 902.148 2.16848 2.0832 0
M  V30 9875 C 903.696 2.21115 2.21533 0
M  V30 9876 C 904.171 3.3996 3.06906 0
M  V30 9877 N 905.662 3.40071 3.14494 0
M  V30 9878 C 906.397 4.28678 3.80818 0
M  V30 9879 N 905.893 5.2749 4.49139 0
M  V30 9880 N 907.686 4.16476 3.77497 0
M  V30 9881 H 899.837 2.06039 0.515897 0
M  V30 9882 H 902.1 0.902423 0.290408 0
M  V30 9883 H 901.806 3.119 1.62515 0
M  V30 9884 H 901.68 2.16226 3.09073 0
M  V30 9885 H 904.067 1.26616 2.66557 0
M  V30 9886 H 904.148 2.2578 1.20238 0
M  V30 9887 H 903.792 4.34755 2.62585 0
M  V30 9888 H 903.722 3.32534 4.08324 0
M  V30 9889 H 906.213 2.68563 2.65861 0
M  V30 9890 H 906.526 5.91397 4.97463 0
M  V30 9891 H 904.871 5.31412 4.47914 0
M  V30 9892 H 908.062 3.38539 3.23278 0
M  V30 9893 H 908.235 4.85739 4.28908 0
M  V30 9894 N 901.641 -1.19671 1.02551 0
M  V30 9895 C 902.573 -2.22215 0.561517 0
M  V30 9896 C 903.586 -1.58751 -0.360821 0
M  V30 9897 O 904.775 -1.77802 -0.157749 0
M  V30 9898 C 901.875 -3.383 -0.201494 0
M  V30 9899 C 901.048 -4.3135 0.724952 0
M  V30 9900 C 900.107 -5.26199 0.00794334 0
M  V30 9901 O 899.133 -5.65665 0.633398 0
M  V30 9902 N 900.335 -5.66573 -1.26394 0
M  V30 9903 H 903.1 -2.6265 1.44343 0
M  V30 9904 H 900.661 -1.34303 0.904122 0
M  V30 9905 H 902.653 -3.98764 -0.690625 0
M  V30 9906 H 901.223 -2.96683 -0.98479 0
M  V30 9907 H 900.443 -3.6872 1.39423 0
M  V30 9908 H 901.731 -4.90433 1.35472 0
M  V30 9909 H 901.129 -5.36538 -1.79287 0
M  V30 9910 H 899.686 -6.29304 -1.69763 0
M  V30 9911 N 903.119 -0.802921 -1.35613 0
M  V30 9912 C 904.049 -0.225131 -2.32412 0
M  V30 9913 C 905.03 0.647383 -1.57299 0
M  V30 9914 O 906.215 0.578414 -1.85386 0
M  V30 9915 C 903.345 0.630085 -3.41537 0
M  V30 9916 C 902.299 -0.143635 -4.27759 0
M  V30 9917 C 901.625 0.833046 -5.28171 0
M  V30 9918 C 902.925 -1.34054 -5.04804 0
M  V30 9919 H 904.619 -1.03385 -2.80984 0
M  V30 9920 H 902.165 -0.498593 -1.35093 0
M  V30 9921 H 904.118 1.04433 -4.08254 0
M  V30 9922 H 902.842 1.47165 -2.91565 0
M  V30 9923 H 901.501 -0.539015 -3.62616 0
M  V30 9924 H 901.149 1.67001 -4.74468 0
M  V30 9925 H 900.849 0.319697 -5.8673 0
M  V30 9926 H 902.373 1.24558 -5.97761 0
M  V30 9927 H 903.787 -1.00136 -5.64487 0
M  V30 9928 H 902.184 -1.78812 -5.72841 0
M  V30 9929 H 903.254 -2.12906 -4.35659 0
M  V30 9930 N 904.597 1.47463 -0.556102 0
M  V30 9931 C 905.56 2.28478 0.181743 0
M  V30 9932 C 906.56 1.36886 0.843738 0
M  V30 9933 O 907.75 1.59527 0.69977 0
M  V30 9934 C 904.882 3.16534 1.26566 0
M  V30 9935 H 906.075 2.95182 -0.529892 0
M  V30 9936 H 903.628 1.53134 -0.313005 0
M  V30 9937 H 904.363 2.5452 2.00973 0
M  V30 9938 H 904.148 3.83939 0.795798 0
M  V30 9939 H 905.638 3.77579 1.78393 0
M  V30 9940 N 906.075 0.2925 1.54862 0
M  V30 9941 C 906.985 -0.597036 2.26876 0
M  V30 9942 C 908.001 -1.15558 1.30086 0
M  V30 9943 O 909.177 -1.18217 1.63054 0
M  V30 9944 C 906.242 -1.75664 2.98903 0
M  V30 9945 C 905.303 -1.23303 4.11212 0
M  V30 9946 C 904.536 -2.33736 4.79795 0
M  V30 9947 O 904.759 -3.53459 4.47686 0
M  V30 9948 O 903.693 -2.00908 5.67379 0
M  V30 9949 H 907.519 -0.0131242 3.03697 0
M  V30 9950 H 905.104 0.0592642 1.49282 0
M  V30 9951 H 906.986 -2.43241 3.4411 0
M  V30 9952 H 905.661 -2.32731 2.24984 0
M  V30 9953 H 904.568 -0.523222 3.70423 0
M  V30 9954 H 905.901 -0.707887 4.87083 0
M  V30 9955 N 907.553 -1.57587 0.0200696 0
M  V30 9956 C 908.802 -1.90602 -0.659822 0
M  V30 9957 C 909.115 -0.897216 -1.73808 0
M  V30 9958 O 910.321 -1.11829 -2.47399 0
M  V30 9959 C 908.777 -3.38416 -1.22484 0
M  V30 9960 C 908.385 -4.47637 -0.180339 0
M  V30 9961 C 910.129 -3.80513 -1.88176 0
M  V30 9962 C 908.036 -5.86542 -0.756482 0
M  V30 9963 H 906.966 -0.711272 -0.250216 0
M  V30 9964 H 909.617 -1.83308 0.0838942 0
M  V30 9965 H 907.999 -3.40613 -2.01987 0
M  V30 9966 H 909.173 -4.56987 0.591573 0
M  V30 9967 H 907.488 -4.14687 0.377302 0
M  V30 9968 H 910.085 -4.8164 -2.32222 0
M  V30 9969 H 910.428 -3.15091 -2.72073 0
M  V30 9970 H 910.961 -3.80701 -1.15377 0
M  V30 9971 H 907.7 -6.55485 0.0441468 0
M  V30 9972 H 907.22 -5.80816 -1.49709 0
M  V30 9973 H 908.899 -6.3483 -1.249 0
M  V30 9974 N 909.032 0.252966 -1.55557 0
M  V30 9975 C 909.995 1.29645 -1.8901 0
M  V30 9976 C 910.995 1.41378 -0.766096 0
M  V30 9977 O 912.185 1.40183 -1.03414 0
M  V30 9978 C 909.317 2.67504 -2.11316 0
M  V30 9979 H 910.51 1.01202 -2.82309 0
M  V30 9980 H 908.063 0.491977 -1.48355 0
M  V30 9981 H 908.798 3.01095 -1.20466 0
M  V30 9982 H 908.583 2.6037 -2.93172 0
M  V30 9983 H 910.073 3.42861 -2.38403 0
M  V30 9984 N 910.51 1.48831 0.518367 0
M  V30 9985 C 911.42 1.6692 1.64848 0
M  V30 9986 C 912.436 0.551711 1.65022 0
M  V30 9987 O 913.612 0.824251 1.83761 0
M  V30 9988 C 910.677 1.71559 3.01278 0
M  V30 9989 C 909.738 2.9502 3.11868 0
M  V30 9990 C 908.971 2.99428 4.4179 0
M  V30 9991 O 909.194 2.11914 5.29574 0
M  V30 9992 O 908.128 3.91719 4.5699 0
M  V30 9993 H 911.954 2.62623 1.52521 0
M  V30 9994 H 909.539 1.32368 0.692749 0
M  V30 9995 H 911.421 1.77064 3.82396 0
M  V30 9996 H 910.096 0.790316 3.13904 0
M  V30 9997 H 909.003 2.95042 2.30003 0
M  V30 9998 H 910.336 3.8697 3.04163 0
M  V30 9999 N 911.988 -0.768124 1.37614 0
M  V30 10000 C 913.213 -1.56239 1.36397 0
M  V30 10001 C 913.638 -1.8804 -0.0475839 0
M  V30 10002 O 912.996 -1.495 -1.02564 0
M  V30 10003 C 913.044 -2.84716 2.21289 0
M  V30 10004 O 912.148 -3.79249 1.62001 0
M  V30 10005 H 911.489 -0.473119 0.465891 0
M  V30 10006 H 914.019 -0.950415 1.81186 0
M  V30 10007 H 914.029 -3.33784 2.34632 0
M  V30 10008 H 912.704 -2.60899 3.2389 0
M  V30 10009 H 911.281 -3.37904 1.57719 0
M  V30 10010 N 913.466 -1.22244 -0.994698 0
M  V30 10011 C 914.714 -1.04384 -1.73056 0
M  V30 10012 C 915.035 0.422204 -1.90374 0
M  V30 10013 O 914.305 1.30383 -1.46209 0
M  V30 10014 H 912.885 -0.383263 -0.641185 0
M  V30 10015 H 915.547 -1.53725 -1.1981 0
M  V30 10016 H 914.643 -1.52021 -2.72573 0
M  V30 10017 N 914.944 1.19125 -1.03184 0
M  V30 10018 C 915.874 2.24675 -0.635889 0
M  V30 10019 C 916.855 1.66321 0.356565 0
M  V30 10020 O 918.04 1.92728 0.238625 0
M  V30 10021 C 915.17 3.47298 0.011069 0
M  V30 10022 C 914.124 4.18345 -0.903979 0
M  V30 10023 C 913.45 5.34561 -0.12197 0
M  V30 10024 C 914.75 4.72816 -2.21907 0
M  V30 10025 H 916.444 2.5805 -1.51825 0
M  V30 10026 H 913.99 1.24039 -0.73146 0
M  V30 10027 H 915.943 4.20333 0.299729 0
M  V30 10028 H 914.667 3.13131 0.928245 0
M  V30 10029 H 913.326 3.47196 -1.17688 0
M  V30 10030 H 912.974 4.9664 0.797334 0
M  V30 10031 H 912.674 5.83029 -0.731498 0
M  V30 10032 H 914.198 6.10391 0.159881 0
M  V30 10033 H 915.612 5.3759 -1.99173 0
M  V30 10034 H 914.009 5.31782 -2.78078 0
M  V30 10035 H 915.079 3.9072 -2.87168 0
M  V30 10036 O 916.461 0.94573 1.30913 0
M  V30 10037 H 917.152 0.5754 1.84956 0
M  V30 END ATOM
M  V30 BEGIN BOND
M  V30 END BOND
M  V30 END CTAB
M  END
$$$$
