drugbank_target|P36673 HTH-type transcriptional regulator TreR (DB02430)
 OpenBabel12092120013D

  0  0  0     0  0            999 V3000
M  V30 BEGIN CTAB
M  V30 COUNTS 4885 4925 0 0 0
M  V30 BEGIN ATOM
M  V30 1 H -0.908 1.98254 -0.117106 0
M  V30 2 N 0 1.576 0 0
M  V30 3 C 0.933 2.03868 1.02534 0
M  V30 4 C 1.911 0.928543 1.3348 0
M  V30 5 O 3.095 1.19667 1.45644 0
M  V30 6 C 0.222 2.43627 2.35294 0
M  V30 7 C -0.732 3.65373 2.2001 0
M  V30 8 S 0.101 5.13292 1.52614 0
M  V30 9 C 1.257 5.56322 2.86805 0
M  V30 10 H 1.49 2.90518 0.631377 0
M  V30 11 H -0.977 1.52953 0.210867 0
M  V30 12 H 0.981 2.67203 3.11629 0
M  V30 13 H -0.358 1.57376 2.7183 0
M  V30 14 H -1.165 3.90944 3.18086 0
M  V30 15 H -1.563 3.418 1.51819 0
M  V30 16 H 0.729 5.58782 3.83104 0
M  V30 17 H 1.672 6.56266 2.65933 0
M  V30 18 H 2.08 4.83886 2.90714 0
M  V30 19 N 1.4781 -0.272755 1.55222 0
M  V30 20 C 2.4101 -1.35946 1.8453 0
M  V30 21 C 3.4231 -1.45525 0.729818 0
M  V30 22 O 4.6121 -1.47337 1.00767 0
M  V30 23 C 1.7121 -2.74069 1.99347 0
M  V30 24 C 0.8851 -2.87079 3.30007 0
M  V30 25 C -0.0559 -4.05879 3.34886 0
M  V30 26 O -1.0299 -3.96626 4.08261 0
M  V30 27 N 0.1721 -5.17857 2.62307 0
M  V30 28 H 2.9371 -1.11149 2.78327 0
M  V30 29 H 0.4981 -0.462869 1.55142 0
M  V30 30 H 2.4901 -3.51838 1.99981 0
M  V30 31 H 1.0601 -2.91688 1.12415 0
M  V30 32 H 0.2801 -1.96193 3.41909 0
M  V30 33 H 1.5681 -2.92701 4.16177 0
M  V30 34 H 0.9661 -5.28261 2.02377 0
M  V30 35 H -0.4769 -5.93855 2.68663 0
M  V30 36 N 2.9562 -1.48159 -0.537278 0
M  V30 37 C 3.9042 -1.62573 -1.66352 0
M  V30 38 C 4.8982 -0.492366 -1.62087 0
M  V30 39 O 6.1042 -0.670847 -1.67032 0
M  V30 40 H 2.4792 -0.511992 -0.550789 0
M  V30 41 H 4.4502 -2.57176 -1.51337 0
M  V30 42 C 3.1992 -1.67583 -3.04649 0
M  V30 43 H 2.5222 -2.54151 -3.08622 0
M  V30 44 H 3.9622 -1.81713 -3.83088 0
M  V30 45 C 2.4212 -0.413039 -3.34358 0
M  V30 46 O 2.9512 0.477259 -3.98855 0
M  V30 47 N 1.1572 -0.286961 -2.8918 0
M  V30 48 H 0.7042 -1.01241 -2.36871 0
M  V30 49 H 0.6622 0.556963 -3.09427 0
M  V30 50 N 4.4343 0.785586 -1.36625 0
M  V30 51 C 5.8503 1.08419 -1.17122 0
M  V30 52 C 6.0503 2.015 0.00208491 0
M  V30 53 O 5.1063 2.43551 0.666278 0
M  V30 54 C 6.4193 1.69498 -2.48377 0
M  V30 55 C 7.9673 1.81821 -2.54775 0
M  V30 56 C 8.4423 2.46315 -3.86126 0
M  V30 57 N 9.9333 2.53779 -3.87492 0
M  V30 58 C 10.6683 3.045 -4.85868 0
M  V30 59 N 10.1643 3.55499 -5.94637 0
M  V30 60 N 11.9573 3.03247 -4.73284 0
M  V30 61 H 4.1083 0.167264 -2.1174 0
M  V30 62 H 6.3713 0.13682 -0.938075 0
M  V30 63 H 6.0773 1.08571 -3.34522 0
M  V30 64 H 5.9513 2.6896 -2.64462 0
M  V30 65 H 8.3383 2.41884 -1.69045 0
M  V30 66 H 8.4193 0.811532 -2.42586 0
M  V30 67 H 8.0633 1.86895 -4.72263 0
M  V30 68 H 7.9933 3.47561 -3.95612 0
M  V30 69 H 10.4843 2.17672 -3.08913 0
M  V30 70 H 10.7973 3.92562 -6.65669 0
M  V30 71 H 9.1423 3.5364 -5.98301 0
M  V30 72 H 12.3333 2.62696 -3.87438 0
M  V30 73 H 12.5063 3.42467 -5.50109 0
M  V30 74 N 5.9124 1.20967 1.01018 0
M  V30 75 C 6.8424 0.988272 2.11555 0
M  V30 76 C 7.8234 -0.0849778 1.69888 0
M  V30 77 O 9.0084 0.0738202 1.9406 0
M  V30 78 C 6.1384 0.546528 3.42973 0
M  V30 79 C 5.0924 1.56375 3.9841 0
M  V30 80 C 4.4184 0.97842 5.25672 0
M  V30 81 C 5.7184 2.94922 4.31066 0
M  V30 82 H 7.4124 1.91276 2.30334 0
M  V30 83 H 4.9584 0.921073 1.1069 0
M  V30 84 H 6.9114 0.378839 4.19694 0
M  V30 85 H 5.6354 -0.413598 3.23971 0
M  V30 86 H 4.2944 1.71891 3.23804 0
M  V30 87 H 3.9424 0.0101688 5.02999 0
M  V30 88 H 3.6424 1.65784 5.63728 0
M  V30 89 H 5.1664 0.821939 6.05043 0
M  V30 90 H 6.5804 2.8288 4.9865 0
M  V30 91 H 4.9774 3.5983 4.80253 0
M  V30 92 H 6.0474 3.4616 3.39561 0
M  V30 93 N 7.3905 -1.2043 1.01659 0
M  V30 94 C 8.6185 -1.93777 0.725132 0
M  V30 95 C 9.0335 -1.74772 -0.714166 0
M  V30 96 O 8.3905 -1.06169 -1.4844 0
M  V30 97 C 8.4415 -3.45876 1.05129 0
M  V30 98 O 8.1625 -3.6426 2.43406 0
M  V30 99 C 9.6635 -4.36368 0.780891 0
M  V30 100 H 6.8835 -0.615901 0.266284 0
M  V30 101 H 9.4275 -1.52922 1.35776 0
M  V30 102 H 7.5825 -3.8461 0.464065 0
M  V30 103 H 7.9965 -4.58246 2.55169 0
M  V30 104 H 9.4705 -5.41743 1.05918 0
M  V30 105 H 9.9475 -4.38275 -0.284937 0
M  V30 106 H 10.5535 -4.03296 1.35027 0
M  V30 107 N 8.8686 -0.792821 -1.36206 0
M  V30 108 C 10.1176 -0.363353 -1.984 0
M  V30 109 C 10.4306 1.07172 -1.63626 0
M  V30 110 O 11.6366 1.60362 -2.19081 0
M  V30 111 C 10.0926 -0.59872 -3.54885 0
M  V30 112 C 9.7006 -2.04543 -3.9858 0
M  V30 113 C 11.4446 -0.233926 -4.23855 0
M  V30 114 C 9.3516 -2.22727 -5.47856 0
M  V30 115 H 8.2816 -0.13212 -0.742334 0
M  V30 116 H 10.9326 -0.974935 -1.55458 0
M  V30 117 H 9.3146 0.0826222 -3.95914 0
M  V30 118 H 10.4886 -2.76345 -3.68741 0
M  V30 119 H 8.8036 -2.36879 -3.42458 0
M  V30 120 H 11.4006 -0.348027 -5.33566 0
M  V30 121 H 11.7436 0.818351 -4.08177 0
M  V30 122 H 12.2766 -0.868639 -3.882 0
M  V30 123 H 9.0156 -3.2635 -5.68486 0
M  V30 124 H 8.5356 -1.55434 -5.7931 0
M  V30 125 H 10.2146 -2.03607 -6.14128 0
M  V30 126 N 10.3467 1.47872 -0.545128 0
M  V30 127 C 11.2937 2.29849 0.2093 0
M  V30 128 C 12.2637 1.38313 0.919707 0
M  V30 129 O 13.4487 1.67277 0.917772 0
M  V30 130 C 10.5887 3.22019 1.24088 0
M  V30 131 C 9.7017 4.2864 0.537778 0
M  V30 132 C 8.8367 5.07973 1.5536 0
M  V30 133 C 7.8757 6.06381 0.8348 0
M  V30 134 N 7.0127 6.78717 1.79688 0
M  V30 135 H 11.8527 2.93845 -0.49591 0
M  V30 136 H 9.3897 1.44848 -0.256389 0
M  V30 137 H 11.3477 3.73868 1.85144 0
M  V30 138 H 9.9777 2.59914 1.91428 0
M  V30 139 H 9.0297 3.7994 -0.187046 0
M  V30 140 H 10.3417 4.98793 -0.0258907 0
M  V30 141 H 9.4957 5.63912 2.23803 0
M  V30 142 H 8.2347 4.37693 2.15118 0
M  V30 143 H 7.2397 5.49631 0.136388 0
M  V30 144 H 8.4647 6.78665 0.24313 0
M  V30 145 H 6.4107 6.11177 2.38326 0
M  V30 146 H 6.3277 7.44998 1.28505 0
M  V30 147 H 7.5957 7.39237 2.47282 0
M  V30 148 N 11.8248 0.280983 1.55075 0
M  V30 149 C 13.1018 -0.386207 1.91749 0
M  V30 150 C 13.4818 -1.73264 1.20594 0
M  V30 151 O 12.8298 -2.26034 0.334784 0
M  V30 152 C 13.0398 -0.520687 3.45094 0
M  V30 153 C 14.3878 -0.800865 4.16979 0
M  V30 154 O 15.4118 -0.605271 3.5102 0
M  V30 155 O 14.2708 -1.1753 5.33712 0
M  V30 156 H 11.3648 -0.212408 0.799257 0
M  V30 157 H 13.9108 0.327568 1.66509 0
M  V30 158 H 12.6828 0.426633 3.88967 0
M  V30 159 H 12.3058 -1.2837 3.76307 0
M  V30 160 N 13.3029 -1.57598 0.00835791 0
M  V30 161 C 14.5519 -1.90107 -0.673968 0
M  V30 162 C 14.8649 -0.884275 -1.7447 0
M  V30 163 O 16.0709 -1.09987 -2.48224 0
M  V30 164 C 14.5269 -3.37497 -1.24995 0
M  V30 165 C 14.1349 -4.47491 -0.2136 0
M  V30 166 C 15.8789 -3.79104 -1.90999 0
M  V30 167 C 13.7859 -5.85963 -0.80005 0
M  V30 168 H 12.7159 -0.709393 -0.255495 0
M  V30 169 H 15.3669 -1.83365 0.0702693 0
M  V30 170 H 13.7489 -3.39102 -2.04513 0
M  V30 171 H 14.9229 -4.57414 0.557596 0
M  V30 172 H 13.2379 -4.14956 0.346474 0
M  V30 173 H 15.8349 -4.79901 -2.35795 0
M  V30 174 H 16.1779 -3.1306 -2.74407 0
M  V30 175 H 16.7109 -3.79833 -1.18203 0
M  V30 176 H 13.4499 -6.555 -0.00456708 0
M  V30 177 H 12.9699 -5.79687 -1.54021 0
M  V30 178 H 14.6489 -6.33884 -1.29615 0
M  V30 179 N 14.781 0.264519 -1.55364 0
M  V30 180 C 15.744 1.31046 -1.88042 0
M  V30 181 C 16.744 1.41943 -0.755569 0
M  V30 182 O 17.934 1.40947 -1.02369 0
M  V30 183 C 15.066 2.69067 -2.09323 0
M  V30 184 H 16.259 1.03297 -2.81549 0
M  V30 185 H 13.812 0.502989 -1.47986 0
M  V30 186 H 14.547 3.01982 -1.18226 0
M  V30 187 H 14.332 2.62542 -2.91229 0
M  V30 188 H 15.822 3.44623 -2.35848 0
M  V30 189 N 16.2591 1.48442 0.529413 0
M  V30 190 C 17.6751 1.34575 0.858004 0
M  V30 191 C 17.8751 0.3572 1.98309 0
M  V30 192 O 16.9311 -0.221379 2.51528 0
M  V30 193 C 18.2441 2.74617 1.22499 0
M  V30 194 C 19.7921 2.83109 1.33484 0
M  V30 195 C 20.2671 4.23854 1.73526 0
M  V30 196 N 21.7581 4.2653 1.80628 0
M  V30 197 C 22.4931 5.32372 2.12997 0
M  V30 198 N 21.9891 6.48491 2.43786 0
M  V30 199 N 23.7821 5.19766 2.14008 0
M  V30 200 H 15.9331 2.1133 -0.212925 0
M  V30 201 H 18.1961 0.947439 -0.0326199 0
M  V30 202 H 17.9021 3.4852 0.471905 0
M  V30 203 H 17.7761 3.08177 2.17501 0
M  V30 204 H 20.1631 2.09462 2.0787 0
M  V30 205 H 20.2441 2.53168 0.366027 0
M  V30 206 H 19.8881 4.98018 0.997013 0
M  V30 207 H 19.8181 4.5124 2.71459 0
M  V30 208 H 22.3091 3.42772 1.59108 0
M  V30 209 H 22.6221 7.24993 2.67592 0
M  V30 210 H 20.9671 6.51765 2.41304 0
M  V30 211 H 24.1581 4.28066 1.89412 0
M  V30 212 H 24.3311 6.02354 2.38902 0
M  V30 213 N 17.7372 -0.778329 1.37039 0
M  V30 214 C 18.6672 -1.90546 1.34962 0
M  V30 215 C 19.6482 -1.68681 0.219274 0
M  V30 216 O 20.8332 -1.89634 0.418624 0
M  V30 217 C 17.9632 -3.27734 1.14925 0
M  V30 218 C 16.9172 -3.64147 2.24902 0
M  V30 219 C 16.2432 -4.99806 1.89996 0
M  V30 220 C 17.5432 -3.71579 3.67051 0
M  V30 221 H 19.2372 -1.92541 2.29277 0
M  V30 222 H 16.7832 -0.924948 1.10366 0
M  V30 223 H 18.7362 -4.06215 1.12104 0
M  V30 224 H 17.4602 -3.26154 0.170631 0
M  V30 225 H 16.1192 -2.8797 2.26868 0
M  V30 226 H 15.7672 -4.94759 0.906796 0
M  V30 227 H 15.4672 -5.25139 2.63634 0
M  V30 228 H 16.9912 -5.80694 1.88749 0
M  V30 229 H 18.4052 -4.40227 3.67251 0
M  V30 230 H 16.8022 -4.08405 4.39688 0
M  V30 231 H 17.8722 -2.72404 4.01154 0
M  V30 232 N 19.2153 -1.21501 -1.00376 0
M  V30 233 C 20.4403 -1.05977 -1.78279 0
M  V30 234 C 20.8653 0.385994 -1.84097 0
M  V30 235 O 20.2233 1.27849 -1.28547 0
M  V30 236 C 20.2713 -1.66302 -3.19963 0
M  V30 237 O 19.3753 -0.909333 -4.0225 0
M  V30 238 H 18.7163 -0.372906 -0.549397 0
M  V30 239 H 21.2463 -1.6107 -1.26165 0
M  V30 240 H 21.2563 -1.70574 -3.70632 0
M  V30 241 H 19.9313 -2.71515 -3.15043 0
M  V30 242 H 18.5083 -0.941795 -3.60811 0
M  V30 243 N 20.6934 1.19889 -1.02296 0
M  V30 244 C 21.9414 1.89046 -0.714558 0
M  V30 245 C 22.2624 1.79636 0.758681 0
M  V30 246 O 21.5324 1.20292 1.54618 0
M  V30 247 H 20.1124 0.699802 -0.261317 0
M  V30 248 H 22.7744 1.45574 -1.29592 0
M  V30 249 H 21.8704 2.95524 -1.0036 0
M  V30 250 N 22.1715 0.800033 1.35784 0
M  V30 251 C 23.4175 0.377901 1.99248 0
M  V30 252 C 23.7505 -1.05052 1.63333 0
M  V30 253 O 23.0255 -1.72768 0.893385 0
M  V30 254 C 23.3085 0.553922 3.55814 0
M  V30 255 C 23.1615 2.0268 4.01548 0
M  V30 256 C 24.4805 -0.0244802 4.40093 0
M  V30 257 H 21.5995 0.138782 0.723815 0
M  V30 258 H 24.2415 1.00835 1.61035 0
M  V30 259 H 22.3915 0.0172398 3.88496 0
M  V30 260 H 24.0635 2.62536 3.79305 0
M  V30 261 H 22.3065 2.5256 3.52698 0
M  V30 262 H 22.9775 2.10087 5.10458 0
M  V30 263 H 25.4535 0.433775 4.13833 0
M  V30 264 H 24.3295 0.128637 5.48749 0
M  V30 265 H 24.5905 -1.11758 4.27741 0
M  V30 266 N 23.6496 -1.47581 0.552962 0
M  V30 267 C 24.8976 -2.02082 0.0272703 0
M  V30 268 C 25.2186 -1.4301 -1.32563 0
M  V30 269 O 24.4886 -0.603745 -1.86365 0
M  V30 270 H 23.0686 -0.746966 0.00709182 0
M  V30 271 H 25.7306 -1.81033 0.722008 0
M  V30 272 H 24.8266 -3.12034 -0.0639951 0
M  V30 273 N 25.1277 -0.289203 -1.54924 0
M  V30 274 C 26.0747 0.592115 -2.23075 0
M  V30 275 C 27.0447 1.13881 -1.20915 0
M  V30 276 O 28.2297 1.18551 -1.495 0
M  V30 277 C 25.3697 1.76376 -2.96623 0
M  V30 278 C 24.4827 1.24959 -4.13533 0
M  V30 279 C 23.6177 2.38416 -4.74691 0
M  V30 280 C 22.6567 1.84072 -5.83767 0
M  V30 281 N 21.7937 2.91057 -6.38929 0
M  V30 282 H 26.6337 0.00432038 -2.98 0
M  V30 283 H 24.1707 -0.00963529 -1.47097 0
M  V30 284 H 26.1287 2.45268 -3.3749 0
M  V30 285 H 24.7587 2.32337 -2.24097 0
M  V30 286 H 23.8107 0.453307 -3.77689 0
M  V30 287 H 25.1227 0.811662 -4.92152 0
M  V30 288 H 24.2767 3.15276 -5.18349 0
M  V30 289 H 23.0157 2.8553 -3.95378 0
M  V30 290 H 22.0207 1.05697 -5.39545 0
M  V30 291 H 23.2457 1.37877 -6.64956 0
M  V30 292 H 21.1917 3.37526 -5.62505 0
M  V30 293 H 21.1087 2.51724 -7.12861 0
M  V30 294 H 22.3767 3.6785 -6.87246 0
M  V30 295 N 26.6058 1.57591 -0.0167156 0
M  V30 296 C 27.8308 1.9598 0.67872 0
M  V30 297 C 28.2558 0.892546 1.65575 0
M  V30 298 O 27.6138 -0.147772 1.80697 0
M  V30 299 C 27.6618 3.33468 1.37227 0
M  V30 300 O 26.7658 3.28954 2.48722 0
M  V30 301 H 26.1068 0.639339 0.17928 0
M  V30 302 H 28.6368 2.04463 -0.0748802 0
M  V30 303 H 28.6468 3.69417 1.7319 0
M  V30 304 H 27.3218 4.10694 0.656007 0
M  V30 305 H 25.8988 3.04705 2.14963 0
M  V30 306 N 28.0839 -0.256276 1.55502 0
M  V30 307 C 29.3119 -1.00342 1.8094 0
M  V30 308 C 29.7269 -1.79307 0.59114 0
M  V30 309 O 29.0839 -1.77114 -0.440081 0
M  V30 310 C 29.1349 -1.94875 3.04476 0
M  V30 311 O 28.8559 -1.19107 4.21598 0
M  V30 312 C 30.3569 -2.81266 3.42644 0
M  V30 313 H 27.5769 -0.295685 0.602338 0
M  V30 314 H 30.1209 -0.281998 2.02546 0
M  V30 315 H 28.2759 -2.62457 2.84947 0
M  V30 316 H 28.6899 -1.82969 4.91551 0
M  V30 317 H 30.1639 -3.43362 4.32211 0
M  V30 318 H 30.6409 -3.51897 2.62802 0
M  V30 319 H 31.2469 -2.1915 3.64491 0
M  V30 320 N 29.562 -1.4872 -0.521534 0
M  V30 321 C 30.808 -1.574 -1.27879 0
M  V30 322 C 31.141 -0.250817 -1.92573 0
M  V30 323 O 30.416 0.743934 -1.79711 0
M  V30 324 C 30.699 -2.71843 -2.36164 0
M  V30 325 C 30.552 -4.13893 -1.76105 0
M  V30 326 C 31.871 -2.82008 -3.37875 0
M  V30 327 H 28.99 -0.572941 -0.463581 0
M  V30 328 H 31.632 -1.80927 -0.580119 0
M  V30 329 H 29.782 -2.51914 -2.95756 0
M  V30 330 H 31.454 -4.45284 -1.20499 0
M  V30 331 H 29.697 -4.20498 -1.06601 0
M  V30 332 H 30.368 -4.89804 -2.5455 0
M  V30 333 H 32.844 -3.00086 -2.88249 0
M  V30 334 H 31.72 -3.63796 -4.11028 0
M  V30 335 H 31.981 -1.90511 -3.98946 0
M  V30 336 N 31.0401 0.771051 -1.3745 0
M  V30 337 C 32.2651 1.56529 -1.36065 0
M  V30 338 C 32.6901 1.88029 0.0515859 0
M  V30 339 O 32.0481 1.49282 1.02882 0
M  V30 340 C 32.0961 2.85187 -2.20683 0
M  V30 341 O 31.2001 3.79593 -1.61193 0
M  V30 342 H 30.5411 0.47411 -0.464883 0
M  V30 343 H 33.0711 0.954269 -1.80983 0
M  V30 344 H 33.0811 3.34283 -2.33921 0
M  V30 345 H 31.7561 2.61588 -3.23334 0
M  V30 346 H 30.3331 3.38239 -1.56999 0
M  V30 347 N 32.5182 1.22032 0.997298 0
M  V30 348 C 33.9342 0.979326 1.26021 0
M  V30 349 C 34.1342 -0.32972 1.98784 0
M  V30 350 O 33.1902 -1.05345 2.29475 0
M  V30 351 C 34.5032 2.17509 2.07631 0
M  V30 352 C 36.0512 2.21817 2.2083 0
M  V30 353 C 36.5262 3.40933 3.05825 0
M  V30 354 N 38.0172 3.41067 3.13412 0
M  V30 355 C 38.7522 4.29885 3.79455 0
M  V30 356 N 38.2482 5.28914 4.47462 0
M  V30 357 N 40.0412 4.17673 3.76173 0
M  V30 358 H 32.1922 2.06202 0.509352 0
M  V30 359 H 34.4552 0.90334 0.287541 0
M  V30 360 H 34.1612 3.12415 1.61524 0
M  V30 361 H 34.0352 2.17206 3.08385 0
M  V30 362 H 36.4222 1.27462 2.66153 0
M  V30 363 H 36.5032 2.2616 1.1952 0
M  V30 364 H 36.1472 4.35586 2.61203 0
M  V30 365 H 36.0772 3.33829 4.07266 0
M  V30 366 H 38.5682 2.69406 2.65007 0
M  V30 367 H 38.8812 5.92973 4.95583 0
M  V30 368 H 37.2262 5.32831 4.46224 0
M  V30 369 H 40.4172 3.39564 3.22202 0
M  V30 370 H 40.5902 4.87098 4.27363 0
M  V30 371 N 33.9963 -1.19345 1.0293 0
M  V30 372 C 35.2423 -1.89318 0.727083 0
M  V30 373 C 35.5753 -1.79446 -0.742483 0
M  V30 374 O 34.8503 -1.1871 -1.54072 0
M  V30 375 C 35.1333 -3.40238 1.17942 0
M  V30 376 C 34.9863 -3.58979 2.71024 0
M  V30 377 C 36.3053 -4.33479 0.760548 0
M  V30 378 H 33.4243 -0.687475 0.265606 0
M  V30 379 H 36.0663 -1.40477 1.2793 0
M  V30 380 H 34.2163 -3.81964 0.709608 0
M  V30 381 H 35.8883 -3.26421 3.25955 0
M  V30 382 H 34.1313 -3.02018 3.11396 0
M  V30 383 H 34.8023 -4.64823 2.9773 0
M  V30 384 H 37.2783 -3.99469 1.16464 0
M  V30 385 H 36.1543 -5.37664 1.10493 0
M  V30 386 H 36.4153 -4.40813 -0.337063 0
M  V30 387 N 35.4744 -0.807222 -1.35358 0
M  V30 388 C 36.4044 -0.232509 -2.3234 0
M  V30 389 C 37.3854 0.642386 -1.57504 0
M  V30 390 O 38.5704 0.572526 -1.85569 0
M  V30 391 C 35.7004 0.619238 -3.41735 0
M  V30 392 C 34.6544 -0.157215 -4.27711 0
M  V30 393 C 33.9804 0.816273 -5.28433 0
M  V30 394 C 35.2804 -1.35656 -5.04376 0
M  V30 395 H 36.9744 -1.04276 -2.80654 0
M  V30 396 H 34.5204 -0.50288 -1.34934 0
M  V30 397 H 36.4734 1.03137 -4.08584 0
M  V30 398 H 35.1974 1.46239 -2.92031 0
M  V30 399 H 33.8564 -0.550525 -3.62443 0
M  V30 400 H 33.5044 1.65494 -4.74996 0
M  V30 401 H 33.2044 0.301067 -5.86828 0
M  V30 402 H 34.7284 1.22659 -5.98153 0
M  V30 403 H 36.1424 -1.01927 -5.64166 0
M  V30 404 H 34.5394 -1.8063 -5.7227 0
M  V30 405 H 35.6094 -2.14288 -4.34981 0
M  V30 406 N 36.9525 1.47285 -0.560781 0
M  V30 407 C 37.9005 2.31756 0.197942 0
M  V30 408 C 38.8945 1.43146 0.905854 0
M  V30 409 O 40.1005 1.59891 0.826733 0
M  V30 410 H 36.4755 0.747438 0.0827049 0
M  V30 411 H 38.4465 2.9359 -0.533629 0
M  V30 412 C 37.1955 3.25874 1.21249 0
M  V30 413 H 36.5185 3.94023 0.67719 0
M  V30 414 H 37.9585 3.87803 1.71419 0
M  V30 415 C 36.4175 2.49651 2.26221 0
M  V30 416 O 36.9475 2.24355 3.33208 0
M  V30 417 N 35.1535 2.10597 2.00243 0
M  V30 418 H 34.7005 2.31369 1.13252 0
M  V30 419 H 34.6585 1.59913 2.70694 0
M  V30 420 N 38.4306 0.297415 1.54768 0
M  V30 421 C 39.3786 -0.596051 2.24833 0
M  V30 422 C 40.3726 -1.13992 1.25308 0
M  V30 423 O 41.5786 -1.09098 1.4317 0
M  V30 424 H 37.9536 -0.210814 0.721846 0
M  V30 425 H 39.9246 0.0174667 2.98395 0
M  V30 426 C 38.6736 -1.75818 2.99972 0
M  V30 427 H 37.9966 -1.3489 3.76357 0
M  V30 428 H 39.4366 -2.35949 3.52284 0
M  V30 429 C 37.8956 -2.66014 2.06732 0
M  V30 430 O 38.4256 -3.67009 1.63302 0
M  V30 431 N 36.6316 -2.33669 1.72763 0
M  V30 432 H 36.1786 -1.51586 2.08277 0
M  V30 433 H 36.1366 -2.94285 1.10652 0
M  V30 434 N 39.9087 -1.5758 0.0250728 0
M  V30 435 C 40.8187 -2.1343 -0.973905 0
M  V30 436 C 41.8347 -1.08556 -1.35984 0
M  V30 437 O 43.0107 -1.40592 -1.44207 0
M  V30 438 C 40.0757 -2.64703 -2.23904 0
M  V30 439 C 39.1367 -3.84276 -1.91391 0
M  V30 440 C 38.3697 -4.33095 -3.11873 0
M  V30 441 O 38.5927 -3.81107 -4.24398 0
M  V30 442 O 37.5267 -5.24984 -2.94406 0
M  V30 443 H 41.3527 -2.99057 -0.529036 0
M  V30 444 H 38.9377 -1.48118 -0.195288 0
M  V30 445 H 40.8197 -2.97769 -2.98181 0
M  V30 446 H 39.4947 -1.82161 -2.6758 0
M  V30 447 H 38.4017 -3.56143 -1.14511 0
M  V30 448 H 39.7347 -4.67968 -1.52534 0
M  V30 449 N 41.3868 0.248026 -1.55636 0
M  V30 450 C 42.6118 0.998028 -1.81808 0
M  V30 451 C 43.0368 1.78207 -0.601979 0
M  V30 452 O 42.3948 1.75653 0.448961 0
M  V30 453 C 42.4428 1.9125 -3.05705 0
M  V30 454 O 41.5468 3.00406 -2.82542 0
M  V30 455 H 40.8878 0.284045 -0.600179 0
M  V30 456 H 43.4178 0.269357 -2.02819 0
M  V30 457 H 43.4278 2.32737 -3.35108 0
M  V30 458 H 42.1028 1.33602 -3.93857 0
M  V30 459 H 40.6798 2.63056 -2.64303 0
M  V30 460 N 42.8649 1.48995 0.513639 0
M  V30 461 C 44.1129 1.57531 1.26604 0
M  V30 462 C 44.4339 0.258236 1.93283 0
M  V30 463 O 43.7039 -0.721502 1.8213 0
M  V30 464 H 42.2839 0.580387 0.470276 0
M  V30 465 H 44.9459 1.85552 0.596373 0
M  V30 466 H 44.0419 2.36486 2.03669 0
M  V30 467 N 44.343 -0.763751 1.37857 0
M  V30 468 C 45.589 -1.52483 1.33704 0
M  V30 469 C 45.922 -1.94051 -0.0759612 0
M  V30 470 O 45.197 -1.64675 -1.03501 0
M  V30 471 C 45.48 -2.78441 2.28348 0
M  V30 472 C 45.333 -2.43075 3.78463 0
M  V30 473 C 46.652 -3.80415 2.21298 0
M  V30 474 H 43.771 -0.553169 0.487005 0
M  V30 475 H 46.413 -0.875562 1.68624 0
M  V30 476 H 44.563 -3.33842 1.987 0
M  V30 477 H 46.235 -1.93527 4.18742 0
M  V30 478 H 44.478 -1.75666 3.96641 0
M  V30 479 H 45.149 -3.33149 4.40132 0
M  V30 480 H 47.625 -3.34527 2.47449 0
M  V30 481 H 46.501 -4.66257 2.89647 0
M  V30 482 H 46.762 -4.25262 1.20849 0
M  V30 483 N 45.8211 -1.22559 -0.990812 0
M  V30 484 C 47.0461 -1.07862 -1.77145 0
M  V30 485 C 47.4711 0.366447 -1.84496 0
M  V30 486 O 46.8291 1.26478 -1.29896 0
M  V30 487 C 46.8771 -1.69686 -3.18181 0
M  V30 488 O 45.9811 -0.951946 -4.01263 0
M  V30 489 H 45.3221 -0.378712 -0.545411 0
M  V30 490 H 47.8521 -1.62399 -1.2445 0
M  V30 491 H 47.8621 -1.74496 -3.68802 0
M  V30 492 H 46.5371 -2.74841 -3.12146 0
M  V30 493 H 45.1141 -0.980011 -3.59792 0
M  V30 494 N 47.2992 1.18797 -1.03562 0
M  V30 495 C 48.2312 2.21731 -0.580337 0
M  V30 496 C 49.2442 1.59051 0.347349 0
M  V30 497 O 50.4332 1.77929 0.142669 0
M  V30 498 C 47.5332 3.38459 0.172805 0
M  V30 499 C 46.7062 4.3072 -0.761496 0
M  V30 500 C 45.7652 5.26174 -0.0525547 0
M  V30 501 O 44.7912 5.65108 -0.681333 0
M  V30 502 N 45.9932 5.67624 1.21586 0
M  V30 503 H 48.7582 2.61417 -1.46565 0
M  V30 504 H 46.3192 1.33531 -0.915476 0
M  V30 505 H 48.3112 3.99335 0.656793 0
M  V30 506 H 46.8812 2.97507 0.959602 0
M  V30 507 H 46.1012 3.67525 -1.42544 0
M  V30 508 H 47.3892 4.89267 -1.39626 0
M  V30 509 H 46.7872 5.38038 1.74732 0
M  V30 510 H 45.3442 6.30721 1.64421 0
M  V30 511 N 48.7773 0.814389 1.34928 0
M  V30 512 C 49.7073 0.244827 2.32213 0
M  V30 513 C 50.6883 -0.634024 1.57842 0
M  V30 514 O 51.8733 -0.562676 1.8587 0
M  V30 515 C 49.0033 -0.601106 3.42058 0
M  V30 516 C 47.9573 0.179896 4.27622 0
M  V30 517 C 47.2833 -0.788237 5.28858 0
M  V30 518 C 48.5833 1.38329 5.03649 0
M  V30 519 H 50.2773 1.05763 2.80097 0
M  V30 520 H 47.8233 0.510029 1.34665 0
M  V30 521 H 49.7763 -1.00968 4.09125 0
M  V30 522 H 48.5003 -1.44688 2.92802 0
M  V30 523 H 47.1593 0.569739 3.62146 0
M  V30 524 H 46.8073 -1.62973 4.75866 0
M  V30 525 H 46.5073 -0.269942 5.8698 0
M  V30 526 H 48.0313 -1.19485 5.98795 0
M  V30 527 H 49.4453 1.04918 5.63618 0
M  V30 528 H 47.8423 1.83662 5.71304 0
M  V30 529 H 48.9123 2.16592 4.33839 0
M  V30 530 N 50.2554 -1.46986 0.568584 0
M  V30 531 C 51.4834 -2.0683 0.0539956 0
M  V30 532 C 51.8984 -1.41953 -1.24478 0
M  V30 533 O 51.2554 -0.519933 -1.74937 0
M  V30 534 C 51.3064 -3.61254 -0.133362 0
M  V30 535 O 51.0274 -4.237 1.11399 0
M  V30 536 C 52.5284 -4.37992 -0.683927 0
M  V30 537 H 49.7484 -0.669058 0.0510141 0
M  V30 538 H 52.2924 -1.88824 0.785234 0
M  V30 539 H 50.4474 -3.78735 -0.81477 0
M  V30 540 H 50.8614 -5.16388 0.91888 0
M  V30 541 H 52.3354 -5.46684 -0.764263 0
M  V30 542 H 52.8124 -4.05058 -1.69778 0
M  V30 543 H 53.4184 -4.25283 -0.0378494 0
M  V30 544 N 51.7335 -0.305618 -1.54608 0
M  V30 545 C 53.1495 0.0476228 -1.59529 0
M  V30 546 C 53.3495 1.52025 -1.32252 0
M  V30 547 O 52.4055 2.27368 -1.09818 0
M  V30 548 C 53.7185 -0.354471 -2.98603 0
M  V30 549 C 55.2665 -0.303622 -3.11524 0
M  V30 550 C 55.7415 -0.680608 -4.52915 0
M  V30 551 N 57.2325 -0.63332 -4.5885 0
M  V30 552 C 57.9675 -0.897432 -5.66334 0
M  V30 553 N 57.4635 -1.22775 -6.81834 0
M  V30 554 N 59.2565 -0.824186 -5.56025 0
M  V30 555 H 51.4075 -1.2653 -1.70599 0
M  V30 556 H 53.6705 -0.513291 -0.797017 0
M  V30 557 H 53.3765 -1.3798 -3.23503 0
M  V30 558 H 53.2505 0.289568 -3.76087 0
M  V30 559 H 55.6375 0.712472 -2.8637 0
M  V30 560 H 55.7185 -0.982348 -2.36185 0
M  V30 561 H 55.3625 -1.69453 -4.78799 0
M  V30 562 H 55.2925 0.0202385 -5.26596 0
M  V30 563 H 57.7835 -0.389138 -3.75891 0
M  V30 564 H 58.0965 -1.41513 -7.59733 0
M  V30 565 H 56.4415 -1.26583 -6.83375 0
M  V30 566 H 59.6325 -0.565748 -4.64669 0
M  V30 567 H 59.8055 -1.03338 -6.39707 0
M  V30 568 N 53.2116 1.57565 -0.0334293 0
M  V30 569 C 54.1216 2.13943 0.962572 0
M  V30 570 C 55.1376 1.09276 1.35406 0
M  V30 571 O 56.3136 1.41355 1.4346 0
M  V30 572 C 53.3786 2.65887 2.22497 0
M  V30 573 C 52.4396 3.85286 1.8935 0
M  V30 574 C 51.6726 4.34743 3.09571 0
M  V30 575 O 51.8956 3.83352 4.22371 0
M  V30 576 O 50.8296 5.26538 2.91618 0
M  V30 577 H 54.6556 2.99333 0.513169 0
M  V30 578 H 52.2406 1.4822 0.18743 0
M  V30 579 H 54.1226 2.99346 2.96598 0
M  V30 580 H 52.7976 1.83578 2.6661 0
M  V30 581 H 51.7046 3.56746 1.1262 0
M  V30 582 H 53.0376 4.68771 1.5005 0
M  V30 583 N 54.6897 -0.239769 1.55765 0
M  V30 584 C 56.1057 -0.588624 1.48349 0
M  V30 585 C 56.3057 -1.88005 0.72502 0
M  V30 586 O 55.3617 -2.51186 0.257269 0
M  V30 587 C 56.6747 -0.68474 2.928 0
M  V30 588 C 58.2227 -0.77659 3.03213 0
M  V30 589 C 58.6977 -0.904207 4.48986 0
M  V30 590 N 60.1887 -0.968896 4.52953 0
M  V30 591 C 60.9237 -1.08703 5.63002 0
M  V30 592 N 60.4197 -1.17026 6.82845 0
M  V30 593 N 62.2127 -1.12074 5.50814 0
M  V30 594 H 54.3637 0.607911 2.03515 0
M  V30 595 H 56.6267 0.21083 0.924259 0
M  V30 596 H 56.3327 0.194284 3.51163 0
M  V30 597 H 56.2067 -1.55435 3.43686 0
M  V30 598 H 58.5937 -1.64606 2.44926 0
M  V30 599 H 58.6747 0.118315 2.55526 0
M  V30 600 H 58.3187 -0.0392633 5.07885 0
M  V30 601 H 58.2487 -1.81426 4.9436 0
M  V30 602 H 60.7397 -0.915633 3.6664 0
M  V30 603 H 61.0527 -1.25966 7.62465 0
M  V30 604 H 59.3977 -1.13971 6.85591 0
M  V30 605 H 62.5887 -1.05226 4.5612 0
M  V30 606 H 62.7617 -1.20936 6.36615 0
M  V30 607 N 56.1678 -1.49265 -0.50573 0
M  V30 608 C 57.4138 -1.58748 -1.26202 0
M  V30 609 C 57.7468 -0.271227 -1.92297 0
M  V30 610 O 57.0218 0.724831 -1.80489 0
M  V30 611 C 57.3048 -2.74332 -2.33268 0
M  V30 612 C 57.1578 -4.15737 -1.71705 0
M  V30 613 C 58.4768 -2.85576 -3.34865 0
M  V30 614 H 55.5958 -0.577826 -0.457478 0
M  V30 615 H 58.2378 -1.81532 -0.560897 0
M  V30 616 H 56.3878 -2.55036 -2.93068 0
M  V30 617 H 58.0598 -4.46537 -1.15769 0
M  V30 618 H 56.3028 -4.21605 -1.02135 0
M  V30 619 H 56.9738 -4.92477 -2.49341 0
M  V30 620 H 59.4498 -3.03127 -2.8505 0
M  V30 621 H 58.3258 -3.68135 -4.07146 0
M  V30 622 H 58.5868 -1.94732 -3.96903 0
M  V30 623 N 57.6459 0.756429 -1.3826 0
M  V30 624 C 58.5559 1.9009 -1.37488 0
M  V30 625 C 59.5719 1.71855 -0.272366 0
M  V30 626 O 60.7479 1.94827 -0.510318 0
M  V30 627 C 57.8129 3.25421 -1.19592 0
M  V30 628 C 56.8739 3.56202 -2.39622 0
M  V30 629 C 56.1069 4.85075 -2.2257 0
M  V30 630 O 56.3299 5.57246 -1.21793 0
M  V30 631 O 55.2639 5.15269 -3.11098 0
M  V30 632 H 59.0899 1.93695 -2.33914 0
M  V30 633 H 56.6749 0.901313 -1.1915 0
M  V30 634 H 58.5569 4.06337 -1.11661 0
M  V30 635 H 57.2319 3.22634 -0.262486 0
M  V30 636 H 56.1389 2.75458 -2.53128 0
M  V30 637 H 57.4719 3.63747 -3.31586 0
M  V30 638 N 59.124 1.23083 0.984299 0
M  V30 639 C 60.087 1.00979 2.05757 0
M  V30 640 C 61.087 -0.0269573 1.60777 0
M  V30 641 O 62.277 0.212403 1.729 0
M  V30 642 C 59.409 0.527072 3.36801 0
M  V30 643 H 60.602 1.9622 2.26799 0
M  V30 644 H 58.155 1.05072 1.15714 0
M  V30 645 H 58.89 -0.429294 3.21446 0
M  V30 646 H 58.675 1.27515 3.70786 0
M  V30 647 H 60.165 0.392942 4.15747 0
M  V30 648 N 60.6021 -1.18246 1.0419 0
M  V30 649 C 61.8481 -1.88536 0.747122 0
M  V30 650 C 62.1811 -1.80223 -0.723409 0
M  V30 651 O 61.4561 -1.20337 -1.52804 0
M  V30 652 C 61.7391 -3.38968 1.21544 0
M  V30 653 C 61.5921 -3.56084 2.74816 0
M  V30 654 C 62.9111 -4.32648 0.806482 0
M  V30 655 H 60.0301 -0.684619 0.272883 0
M  V30 656 H 62.6721 -1.39113 1.29413 0
M  V30 657 H 60.8221 -3.8119 0.750081 0
M  V30 658 H 62.4941 -3.22946 3.29399 0
M  V30 659 H 60.7371 -2.98699 3.14582 0
M  V30 660 H 61.4081 -4.61639 3.02644 0
M  V30 661 H 63.8841 -3.98211 1.20695 0
M  V30 662 H 62.7601 -5.36462 1.1619 0
M  V30 663 H 63.0211 -4.41146 -0.29029 0
M  V30 664 N 62.0802 -0.821533 -1.34494 0
M  V30 665 C 63.0132 -0.187704 -2.27427 0
M  V30 666 C 63.9912 0.65507 -1.48821 0
M  V30 667 O 65.1752 0.619111 -1.78043 0
M  V30 668 C 62.3022 0.737996 -3.30562 0
M  V30 669 C 61.3482 -0.0270713 -4.26491 0
M  V30 670 S 62.1812 -1.37329 -5.17592 0
M  V30 671 C 63.3372 -0.452427 -6.24263 0
M  V30 672 H 63.5702 -0.975598 -2.80837 0
M  V30 673 H 61.1032 -0.61736 -1.4152 0
M  V30 674 H 63.0612 1.26654 -3.90473 0
M  V30 675 H 61.7222 1.4994 -2.76001 0
M  V30 676 H 60.9152 0.6766 -4.99438 0
M  V30 677 H 60.5172 -0.48612 -3.70827 0
M  V30 678 H 62.8092 0.356557 -6.76561 0
M  V30 679 H 63.7522 -1.15153 -6.98674 0
M  V30 680 H 64.1602 -0.0414755 -5.64485 0
M  V30 681 N 63.5583 1.46682 -0.576371 0
M  V30 682 C 64.5063 2.31953 0.17335 0
M  V30 683 C 65.5003 1.44098 0.89062 0
M  V30 684 O 66.7063 1.60759 0.809728 0
M  V30 685 H 63.0813 0.748273 0.0747727 0
M  V30 686 H 65.0523 2.93007 -0.564738 0
M  V30 687 C 63.8013 3.27142 1.17786 0
M  V30 688 H 63.1243 3.94719 0.635361 0
M  V30 689 H 64.5643 3.896 1.67296 0
M  V30 690 C 63.0233 2.52036 2.23561 0
M  V30 691 O 63.5533 2.27877 3.3081 0
M  V30 692 N 61.7593 2.12709 1.97998 0
M  V30 693 H 61.3063 2.32557 1.10792 0
M  V30 694 H 61.2643 1.62776 2.68982 0
M  V30 695 N 65.0364 0.313813 1.54444 0
M  V30 696 C 65.9684 -0.590425 2.21465 0
M  V30 697 C 66.9814 -1.08753 1.21147 0
M  V30 698 O 68.1704 -1.00278 1.4767 0
M  V30 699 C 65.2704 -1.82179 2.85769 0
M  V30 700 C 64.4434 -1.46502 4.12136 0
M  V30 701 C 63.5024 -2.55288 4.60124 0
M  V30 702 O 62.5284 -2.19842 5.25032 0
M  V30 703 N 63.7304 -3.86053 4.33525 0
M  V30 704 H 66.4954 -0.0166033 2.99695 0
M  V30 705 H 64.0564 0.136578 1.61323 0
M  V30 706 H 66.0484 -2.54328 3.14801 0
M  V30 707 H 64.6184 -2.30369 2.11303 0
M  V30 708 H 63.8384 -0.575595 3.89975 0
M  V30 709 H 65.1264 -1.20221 4.94393 0
M  V30 710 H 64.5244 -4.17654 3.81552 0
M  V30 711 H 63.0814 -4.54461 4.67235 0
M  V30 712 N 66.5145 -1.57545 0.0417849 0
M  V30 713 C 67.4645 -2.07483 -0.945247 0
M  V30 714 C 68.4485 -0.977983 -1.27767 0
M  V30 715 O 69.6405 -1.24142 -1.26166 0
M  V30 716 C 66.7695 -2.61576 -2.22335 0
M  V30 717 C 65.8555 -3.78213 -1.91874 0
M  V30 718 N 66.2465 -4.88344 -1.31733 0
M  V30 719 C 64.5445 -3.8694 -2.21796 0
M  V30 720 C 65.2455 -5.69462 -1.1869 0
M  V30 721 N 64.2215 -5.16771 -1.68666 0
M  V30 722 H 68.0235 -2.90029 -0.475441 0
M  V30 723 H 65.5375 -1.61581 -0.162911 0
M  V30 724 H 67.5345 -2.95651 -2.93932 0
M  V30 725 H 66.1945 -1.80465 -2.69931 0
M  V30 726 H 67.2055 -5.08335 -0.990729 0
M  V30 727 H 63.8825 -3.16757 -2.71977 0
M  V30 728 H 65.2725 -6.68023 -0.720793 0
M  V30 729 N 67.9926 0.231505 -1.5589 0
M  V30 730 C 69.2406 0.955461 -1.78088 0
M  V30 731 C 69.5616 1.85262 -0.608533 0
M  V30 732 O 68.8316 1.92277 0.375035 0
M  V30 733 H 67.4116 0.355787 -0.656829 0
M  V30 734 H 70.0736 0.245751 -1.93344 0
M  V30 735 H 69.1696 1.56814 -2.69844 0
M  V30 736 N 69.4707 1.49531 0.497807 0
M  V30 737 C 70.7177 1.59179 1.25173 0
M  V30 738 C 71.0457 0.279932 1.92475 0
M  V30 739 O 70.3007 -0.732383 1.81479 0
M  V30 740 C 70.5997 2.70252 2.33878 0
M  V30 741 C 70.2657 4.11644 1.84012 0
M  V30 742 C 68.9277 4.50121 1.70132 0
M  V30 743 C 71.2797 5.00121 1.46725 0
M  V30 744 C 68.6077 5.74845 1.17348 0
M  V30 745 C 70.9597 6.25366 0.95392 0
M  V30 746 C 69.6237 6.6267 0.801538 0
M  V30 747 H 68.8937 0.582478 0.45804 0
M  V30 748 H 71.5407 1.83373 0.551948 0
M  V30 749 H 69.8457 2.40041 3.09657 0
M  V30 750 H 71.5427 2.74925 2.9192 0
M  V30 751 H 68.1327 3.81274 1.95775 0
M  V30 752 H 72.3167 4.71048 1.56294 0
M  V30 753 H 67.5727 6.02444 1.04264 0
M  V30 754 H 71.7467 6.93301 0.656225 0
M  V30 755 H 69.3737 7.59197 0.390351 0
M  V30 756 N 70.9488 -0.749086 1.3866 0
M  V30 757 C 72.1738 -1.54344 1.38538 0
M  V30 758 C 72.5988 -1.88088 -0.0216655 0
M  V30 759 O 71.9568 -1.50899 -1.00494 0
M  V30 760 C 72.0048 -2.8164 2.25192 0
M  V30 761 O 71.1088 -3.7698 1.67212 0
M  V30 762 H 70.4498 -0.466654 0.472367 0
M  V30 763 H 72.9798 -0.925355 1.82478 0
M  V30 764 H 72.9898 -3.30519 2.3921 0
M  V30 765 H 71.6648 -2.56411 3.27454 0
M  V30 766 H 70.2418 -3.35699 1.6236 0
M  V30 767 N 72.4269 -1.23603 -0.977757 0
M  V30 768 C 73.8379 -1.06424 -1.53398 0
M  V30 769 C 74.1889 0.367578 -1.92726 0
M  V30 770 O 73.3139 1.25465 -1.76316 0
M  V30 771 C 73.9089 -1.92568 -2.78753 0
M  V30 772 C 72.4679 -1.79642 -3.30765 0
M  V30 773 C 71.6149 -1.88111 -2.03739 0
M  V30 774 H 74.5659 -1.37227 -0.797152 0
M  V30 775 H 74.5869 -1.45203 -3.51705 0
M  V30 776 H 74.0989 -2.96771 -2.50098 0
M  V30 777 H 72.1999 -0.782325 -3.64294 0
M  V30 778 H 72.3129 -2.63174 -4.00345 0
M  V30 779 H 70.6769 -1.31723 -2.17994 0
M  V30 780 H 71.4599 -2.93875 -1.77461 0
M  V30 781 N 73.905 1.17692 -1.04816 0
M  V30 782 C 75.13 1.92327 -0.776207 0
M  V30 783 C 75.555 1.76082 0.661581 0
M  V30 784 O 74.913 1.076 1.45917 0
M  V30 785 C 74.961 3.41539 -1.15687 0
M  V30 786 O 74.065 4.11402 -0.286775 0
M  V30 787 H 73.406 0.599735 -0.284981 0
M  V30 788 H 75.936 1.49201 -1.4 0
M  V30 789 H 75.946 3.92269 -1.12202 0
M  V30 790 H 74.621 3.52684 -2.20425 0
M  V30 791 H 73.198 3.70939 -0.381903 0
M  V30 792 N 75.3831 0.828654 1.34056 0
M  V30 793 C 76.7991 0.515135 1.51058 0
M  V30 794 C 76.9991 -0.959581 1.77184 0
M  V30 795 O 76.0551 -1.74382 1.82612 0
M  V30 796 C 77.3681 1.37963 2.67183 0
M  V30 797 C 78.9161 1.37735 2.81066 0
M  V30 798 C 79.3911 2.22645 4.00241 0
M  V30 799 N 80.8821 2.203 4.07458 0
M  V30 800 C 81.6171 2.82744 4.98842 0
M  V30 801 N 81.1131 3.54201 5.9541 0
M  V30 802 N 82.9061 2.72268 4.91759 0
M  V30 803 H 75.0571 1.78343 1.15358 0
M  V30 804 H 77.3201 0.760304 0.566252 0
M  V30 805 H 77.0261 2.42714 2.54525 0
M  V30 806 H 76.9001 1.0484 3.62338 0
M  V30 807 H 79.2871 0.337593 2.93163 0
M  V30 808 H 79.3681 1.74859 1.86703 0
M  V30 809 H 79.0121 3.26674 3.88905 0
M  V30 810 H 78.9421 1.82869 4.93829 0
M  V30 811 H 81.4331 1.68327 3.38341 0
M  V30 812 H 81.7461 3.9908 6.61782 0
M  V30 813 H 80.0911 3.58308 5.95517 0
M  V30 814 H 83.2821 2.16014 4.15278 0
M  V30 815 H 83.4551 3.21219 5.62781 0
M  V30 816 N 76.8612 -1.46375 0.584142 0
M  V30 817 C 78.0862 -2.07268 0.0740405 0
M  V30 818 C 78.5112 -1.42979 -1.22223 0
M  V30 819 O 77.8692 -0.514092 -1.73859 0
M  V30 820 C 77.9172 -3.60518 -0.0767769 0
M  V30 821 O 77.0212 -3.96533 -1.13292 0
M  V30 822 H 76.3622 -0.660961 0.0634524 0
M  V30 823 H 78.8922 -1.87991 0.807492 0
M  V30 824 H 78.9022 -4.07021 -0.282489 0
M  V30 825 H 77.5772 -4.06702 0.86986 0
M  V30 826 H 76.1542 -3.61738 -0.905553 0
M  V30 827 N 78.3393 -0.321999 -1.54275 0
M  V30 828 C 79.3023 0.531975 -2.22941 0
M  V30 829 C 80.3023 1.04478 -1.22234 0
M  V30 830 O 81.4923 0.937452 -1.46825 0
M  V30 831 C 78.6243 1.73874 -2.93224 0
M  V30 832 H 79.8173 -0.0682612 -2.99822 0
M  V30 833 H 77.3703 -0.0730644 -1.56129 0
M  V30 834 H 78.1053 2.37825 -2.20476 0
M  V30 835 H 77.8903 1.37847 -3.6707 0
M  V30 836 H 79.3803 2.34496 -3.45545 0
M  V30 837 N 79.8174 1.5752 -0.0501392 0
M  V30 838 C 81.2334 1.56631 0.306402 0
M  V30 839 C 81.4334 1.0577 1.71508 0
M  V30 840 O 80.4894 0.713837 2.422 0
M  V30 841 C 81.8024 3.00393 0.135811 0
M  V30 842 C 83.3504 3.12315 0.206993 0
M  V30 843 C 83.8254 4.57954 0.064944 0
M  V30 844 N 85.3164 4.63041 0.121254 0
M  V30 845 C 86.0514 5.73389 0.0354381 0
M  V30 846 N 85.5474 6.92724 -0.102666 0
M  V30 847 N 87.3404 5.62026 0.090946 0
M  V30 848 H 79.4914 1.88903 -0.971046 0
M  V30 849 H 81.7544 0.869876 -0.376855 0
M  V30 850 H 81.4604 3.41635 -0.835384 0
M  V30 851 H 81.3344 3.66373 0.897275 0
M  V30 852 H 83.7214 2.70973 1.16866 0
M  V30 853 H 83.8024 2.49016 -0.585208 0
M  V30 854 H 83.4464 4.99981 -0.893394 0
M  V30 855 H 83.3764 5.19258 0.876277 0
M  V30 856 H 85.8674 3.77216 0.227284 0
M  V30 857 H 86.1804 7.72633 -0.160882 0
M  V30 858 H 84.5254 6.94864 -0.137737 0
M  V30 859 H 87.7164 4.67684 0.197388 0
M  V30 860 H 87.8894 6.47997 0.0206089 0
M  V30 861 N 81.2955 -0.223234 1.56011 0
M  V30 862 C 82.2585 -1.26014 1.9145 0
M  V30 863 C 83.2585 -1.3989 0.792937 0
M  V30 864 O 84.4485 -1.38184 1.0607 0
M  V30 865 C 81.5805 -2.63422 2.16383 0
M  V30 866 H 82.7735 -0.95796 2.84189 0
M  V30 867 H 80.3265 -0.463576 1.49267 0
M  V30 868 H 81.0615 -2.98741 1.2619 0
M  V30 869 H 80.8465 -2.54728 2.98088 0
M  V30 870 H 82.3365 -3.38249 2.44903 0
M  V30 871 N 82.7736 -1.49793 -0.48987 0
M  V30 872 C 83.7066 -1.61898 -1.60823 0
M  V30 873 C 84.6846 -0.467651 -1.5573 0
M  V30 874 O 85.8686 -0.684682 -1.75626 0
M  V30 875 C 82.9956 -1.58422 -2.99366 0
M  V30 876 C 82.0416 -2.78889 -3.22682 0
M  V30 877 S 82.8746 -4.40429 -3.04602 0
M  V30 878 C 84.0306 -4.39617 -4.4552 0
M  V30 879 H 84.2636 -2.56502 -1.50312 0
M  V30 880 H 81.7966 -1.38822 -0.675849 0
M  V30 881 H 83.7546 -1.57103 -3.79248 0
M  V30 882 H 82.4156 -0.650866 -3.07283 0
M  V30 883 H 81.6086 -2.72708 -4.23847 0
M  V30 884 H 81.2106 -2.77678 -2.50541 0
M  V30 885 H 83.5026 -4.12022 -5.37814 0
M  V30 886 H 84.4456 -5.41097 -4.56749 0
M  V30 887 H 84.8536 -3.69554 -4.2672 0
M  V30 888 N 84.2517 0.741722 -1.39055 0
M  V30 889 C 85.6677 1.04638 -1.20512 0
M  V30 890 C 85.8677 2.01405 -0.0620218 0
M  V30 891 O 84.9237 2.45547 0.588457 0
M  V30 892 C 86.2367 1.6151 -2.53643 0
M  V30 893 C 87.7847 1.73623 -2.6043 0
M  V30 894 C 88.2597 2.33906 -3.93767 0
M  V30 895 N 89.7507 2.41323 -3.9537 0
M  V30 896 C 90.4857 2.88888 -4.95309 0
M  V30 897 N 89.9817 3.36401 -6.05645 0
M  V30 898 N 91.7747 2.88037 -4.82692 0
M  V30 899 H 83.9257 0.0998155 -2.12165 0
M  V30 900 H 86.1887 0.106907 -0.941953 0
M  V30 901 H 85.8947 0.978739 -3.37807 0
M  V30 902 H 85.7687 2.60411 -2.72885 0
M  V30 903 H 88.1557 2.36384 -1.76655 0
M  V30 904 H 88.2367 0.733945 -2.45045 0
M  V30 905 H 87.8807 1.71776 -4.7797 0
M  V30 906 H 87.8107 3.34799 -4.06469 0
M  V30 907 H 90.3017 2.07734 -3.15682 0
M  V30 908 H 90.6147 3.71186 -6.77821 0
M  V30 909 H 88.9597 3.34427 -6.09248 0
M  V30 910 H 92.1507 2.50237 -3.95599 0
M  V30 911 H 92.3237 3.24792 -5.60726 0
M  V30 912 N 85.7298 1.2412 0.971189 0
M  V30 913 C 86.9778 1.07668 1.71032 0
M  V30 914 C 87.2988 -0.385797 1.91146 0
M  V30 915 O 86.5688 -1.27569 1.4867 0
M  V30 916 H 85.1488 0.395429 0.633755 0
M  V30 917 H 87.8108 1.55984 1.16855 0
M  V30 918 H 86.9068 1.57195 2.69622 0
M  V30 919 N 87.2079 -1.17134 1.05439 0
M  V30 920 C 88.1399 -2.2078 0.615539 0
M  V30 921 C 89.1529 -1.59584 -0.322001 0
M  V30 922 O 90.3419 -1.78133 -0.114344 0
M  V30 923 C 87.4419 -3.38691 -0.118938 0
M  V30 924 C 86.6149 -4.29454 0.829924 0
M  V30 925 C 85.6739 -5.26024 0.136258 0
M  V30 926 O 84.6999 -5.63952 0.77115 0
M  V30 927 N 85.9019 -5.69487 -1.1254 0
M  V30 928 H 88.6669 -2.59052 1.50705 0
M  V30 929 H 86.2279 -1.32058 0.936603 0
M  V30 930 H 88.2199 -4.00329 -0.593179 0
M  V30 931 H 86.7899 -2.98996 -0.91215 0
M  V30 932 H 86.0099 -3.65211 1.48373 0
M  V30 933 H 87.2979 -4.86984 1.47392 0
M  V30 934 H 86.6959 -5.4075 -1.6615 0
M  V30 935 H 85.2529 -6.33257 -1.54366 0
M  V30 936 N 88.686 -0.835752 -1.33615 0
M  V30 937 C 89.911 -0.442389 -2.02627 0
M  V30 938 C 90.336 0.947735 -1.62479 0
M  V30 939 O 89.694 1.61907 -0.815826 0
M  V30 940 C 89.742 -0.567216 -3.56111 0
M  V30 941 O 88.846 0.407799 -4.10379 0
M  V30 942 H 88.187 -0.180278 -0.639059 0
M  V30 943 H 90.717 -1.12972 -1.70583 0
M  V30 944 H 90.727 -0.447708 -4.05536 0
M  V30 945 H 89.402 -1.58103 -3.84677 0
M  V30 946 H 87.979 0.246107 -3.72087 0
M  V30 947 N 90.1641 1.46063 -0.591896 0
M  V30 948 C 91.4411 1.95595 -0.0137119 0
M  V30 949 C 91.8211 1.5345 1.4497 0
M  V30 950 O 91.1691 0.789543 2.14426 0
M  V30 951 C 91.3791 3.48453 -0.195373 0
M  V30 952 C 92.7271 4.24546 -0.0679765 0
M  V30 953 O 93.7511 3.55982 -0.124681 0
M  V30 954 O 92.6101 5.46467 0.0600579 0
M  V30 955 H 89.7041 0.825795 0.0446279 0
M  V30 956 H 92.2501 1.56303 -0.660859 0
M  V30 957 H 91.0221 3.72045 -1.21235 0
M  V30 958 H 90.6451 3.94597 0.487775 0
M  V30 959 N 91.6422 0.330177 1.54103 0
M  V30 960 C 92.5892 -0.532762 2.24567 0
M  V30 961 C 93.5592 -1.10635 1.23892 0
M  V30 962 O 94.7442 -1.14546 1.5259 0
M  V30 963 C 91.8842 -1.6845 3.01195 0
M  V30 964 C 90.9972 -1.13951 4.167 0
M  V30 965 C 90.1322 -2.25746 4.80845 0
M  V30 966 C 89.1712 -1.6853 5.88442 0
M  V30 967 N 88.3082 -2.74014 6.46421 0
M  V30 968 H 93.1482 0.0746905 2.97906 0
M  V30 969 H 90.6852 0.048632 1.4702 0
M  V30 970 H 92.6432 -2.36234 3.43874 0
M  V30 971 H 91.2732 -2.26314 2.30178 0
M  V30 972 H 90.3252 -0.35301 3.78758 0
M  V30 973 H 91.6372 -0.680892 4.94131 0
M  V30 974 H 90.7912 -3.01422 5.26526 0
M  V30 975 H 89.5302 -2.74947 4.0281 0
M  V30 976 H 88.5352 -0.913543 5.42157 0
M  V30 977 H 89.7602 -1.20198 6.68378 0
M  V30 978 H 87.7062 -3.22494 5.71256 0
M  V30 979 H 87.6232 -2.32735 7.19285 0
M  V30 980 H 88.8912 -3.49499 6.96757 0
M  V30 981 N 93.1203 -1.57491 0.0584922 0
M  V30 982 C 94.3663 -1.93264 -0.614558 0
M  V30 983 C 94.6993 -0.937717 -1.7006 0
M  V30 984 O 93.9743 0.0351652 -1.94468 0
M  V30 985 C 94.2573 -3.3938 -1.20386 0
M  V30 986 C 94.1103 -4.49625 -0.125375 0
M  V30 987 C 95.4293 -3.86039 -2.11334 0
M  V30 988 H 92.5483 -0.702791 -0.221933 0
M  V30 989 H 95.1903 -1.8961 0.12175 0
M  V30 990 H 93.3403 -3.42626 -1.83139 0
M  V30 991 H 95.0123 -4.58506 0.506971 0
M  V30 992 H 93.2553 -4.30354 0.545672 0
M  V30 993 H 93.9263 -5.48967 -0.577861 0
M  V30 994 H 96.4023 -3.84716 -1.58534 0
M  V30 995 H 95.2783 -4.88914 -2.49507 0
M  V30 996 H 95.5393 -3.23215 -3.01636 0
M  V30 997 N 94.5984 0.214957 -1.56127 0
M  V30 998 C 95.8444 0.939762 -1.79712 0
M  V30 999 C 96.1774 1.83723 -0.629247 0
M  V30 1000 O 95.4524 1.90925 0.371197 0
M  V30 1001 C 95.7354 1.77306 -3.13424 0
M  V30 1002 C 95.5884 0.90164 -4.40671 0
M  V30 1003 C 96.9074 2.74956 -3.43638 0
M  V30 1004 H 94.0264 0.340214 -0.653776 0
M  V30 1005 H 96.6684 0.20824 -1.88855 0
M  V30 1006 H 94.8184 2.39673 -3.0576 0
M  V30 1007 H 96.4904 0.294206 -4.60361 0
M  V30 1008 H 94.7334 0.207368 -4.33304 0
M  V30 1009 H 95.4044 1.51923 -5.30682 0
M  V30 1010 H 97.8804 2.22724 -3.51473 0
M  V30 1011 H 96.7564 3.30358 -4.38355 0
M  V30 1012 H 97.0174 3.53023 -2.66134 0
M  V30 1013 N 96.0765 1.50051 0.48192 0
M  V30 1014 C 97.0395 1.67584 1.5636 0
M  V30 1015 C 98.0395 0.546894 1.51214 0
M  V30 1016 O 99.2295 0.813725 1.54026 0
M  V30 1017 C 96.3615 1.691 2.96003 0
M  V30 1018 H 97.5545 2.64078 1.42136 0
M  V30 1019 H 95.1075 1.39369 0.707533 0
M  V30 1020 H 95.8425 0.742589 3.15684 0
M  V30 1021 H 95.6275 2.51105 3.01146 0
M  V30 1022 H 97.1175 1.84656 3.74556 0
M  V30 1023 N 97.5546 -0.734337 1.39446 0
M  V30 1024 C 98.8036 -1.48937 1.36017 0
M  V30 1025 C 99.1166 -1.95557 -0.0409005 0
M  V30 1026 O 100.323 -2.70779 -0.19778 0
M  V30 1027 C 98.7786 -2.69125 2.38955 0
M  V30 1028 C 98.3866 -2.29452 3.8478 0
M  V30 1029 C 100.131 -3.46944 2.44603 0
M  V30 1030 C 98.0376 -3.46366 4.79358 0
M  V30 1031 H 96.9676 -0.559296 0.505672 0
M  V30 1032 H 99.6186 -0.800983 1.65095 0
M  V30 1033 H 98.0006 -3.40041 2.02948 0
M  V30 1034 H 99.1746 -1.66077 4.29831 0
M  V30 1035 H 97.4896 -1.64723 3.82433 0
M  V30 1036 H 100.087 -4.33907 3.12456 0
M  V30 1037 H 100.43 -3.89454 1.47076 0
M  V30 1038 H 100.963 -2.83056 2.79507 0
M  V30 1039 H 97.7016 -3.08905 5.78151 0
M  V30 1040 H 97.2216 -4.08719 4.38986 0
M  V30 1041 H 98.9006 -4.12691 4.98292 0
M  V30 1042 N 99.0327 -1.24633 -0.964593 0
M  V30 1043 C 100.282 -1.08188 -1.7023 0
M  V30 1044 C 100.595 0.37873 -1.91898 0
M  V30 1045 O 101.801 0.663427 -2.6327 0
M  V30 1046 C 100.257 -1.88773 -3.06419 0
M  V30 1047 C 99.8647 -3.39263 -2.92582 0
M  V30 1048 C 101.609 -1.80867 -3.84041 0
M  V30 1049 C 99.5157 -4.1218 -4.24101 0
M  V30 1050 H 98.4457 -0.401245 -0.638372 0
M  V30 1051 H 101.097 -1.48742 -1.07462 0
M  V30 1052 H 99.4787 -1.41035 -3.70034 0
M  V30 1053 H 100.653 -3.94603 -2.37961 0
M  V30 1054 H 98.9677 -3.48154 -2.28424 0
M  V30 1055 H 101.565 -2.32646 -4.81435 0
M  V30 1056 H 101.908 -0.774543 -4.09031 0
M  V30 1057 H 102.441 -2.26301 -3.27159 0
M  V30 1058 H 99.1797 -5.15965 -4.04303 0
M  V30 1059 H 98.6997 -3.61626 -4.78526 0
M  V30 1060 H 100.379 -4.19349 -4.92702 0
M  V30 1061 N 100.511 1.16574 -1.06058 0
M  V30 1062 C 101.757 1.87324 -0.777022 0
M  V30 1063 C 102.09 1.81351 0.694645 0
M  V30 1064 O 101.365 1.22753 1.50871 0
M  V30 1065 C 101.648 3.36991 -1.26922 0
M  V30 1066 C 101.501 3.51667 -2.80447 0
M  V30 1067 C 102.82 4.3131 -0.87521 0
M  V30 1068 H 99.9388 0.680191 -0.28374 0
M  V30 1069 H 102.581 1.37036 -1.3161 0
M  V30 1070 H 100.731 3.79949 -0.81063 0
M  V30 1071 H 102.403 3.17664 -3.34495 0
M  V30 1072 H 100.646 2.93656 -3.19294 0
M  V30 1073 H 101.317 4.56766 -3.0995 0
M  V30 1074 H 103.793 3.9624 -1.27014 0
M  V30 1075 H 102.669 5.34545 -1.2471 0
M  V30 1076 H 102.93 4.41552 0.220071 0
M  V30 1077 N 101.989 0.842826 1.3317 0
M  V30 1078 C 103.217 0.454055 2.01856 0
M  V30 1079 C 103.632 -0.94587 1.63397 0
M  V30 1080 O 102.989 -1.61534 0.849302 0
M  V30 1081 C 103.04 0.569715 3.56982 0
M  V30 1082 O 102.761 1.91448 3.94055 0
M  V30 1083 C 104.262 0.178412 4.42941 0
M  V30 1084 H 101.482 0.17979 0.646465 0
M  V30 1085 H 104.026 1.1365 1.70012 0
M  V30 1086 H 102.181 -0.0648587 3.87346 0
M  V30 1087 H 102.595 1.90282 4.88767 0
M  V30 1088 H 104.069 0.310376 5.51127 0
M  V30 1089 H 104.546 -0.880056 4.30293 0
M  V30 1090 H 105.152 0.787579 4.17944 0
M  V30 1091 N 103.467 -1.45747 0.599634 0
M  V30 1092 C 104.883 -1.57424 0.26264 0
M  V30 1093 C 105.083 -1.59222 -1.23493 0
M  V30 1094 O 104.139 -1.51825 -2.01756 0
M  V30 1095 C 105.452 -2.86061 0.926795 0
M  V30 1096 C 107 -2.99722 0.901967 0
M  V30 1097 C 107.475 -4.31119 1.54598 0
M  V30 1098 N 108.966 -4.37858 1.5111 0
M  V30 1099 C 109.701 -5.3818 1.97863 0
M  V30 1100 N 109.197 -6.45083 2.52666 0
M  V30 1101 N 110.99 -5.29487 1.88679 0
M  V30 1102 H 103.141 -1.42823 1.57211 0
M  V30 1103 H 105.404 -0.68235 0.658105 0
M  V30 1104 H 105.11 -2.90605 1.98095 0
M  V30 1105 H 104.984 -3.74563 0.445238 0
M  V30 1106 H 107.371 -2.9475 -0.143617 0
M  V30 1107 H 107.452 -2.12652 1.42171 0
M  V30 1108 H 107.096 -4.36849 2.59085 0
M  V30 1109 H 107.026 -5.16992 1.00132 0
M  V30 1110 H 109.517 -3.61209 1.11068 0
M  V30 1111 H 109.83 -7.17869 2.86155 0
M  V30 1112 H 108.175 -6.45856 2.56701 0
M  V30 1113 H 111.366 -4.44877 1.4561 0
M  V30 1114 H 111.539 -6.07524 2.25429 0
M  V30 1115 N 104.945 -0.338344 -1.53925 0
M  V30 1116 C 105.875 0.51328 -2.27789 0
M  V30 1117 C 106.856 1.107 -1.29149 0
M  V30 1118 O 108.041 1.12937 -1.57984 0
M  V30 1119 C 105.171 1.66697 -3.04679 0
M  V30 1120 C 104.125 1.20183 -4.1078 0
M  V30 1121 C 103.451 2.44363 -4.75595 0
M  V30 1122 C 104.751 0.30605 -5.21403 0
M  V30 1123 H 106.445 -0.102883 -2.99223 0
M  V30 1124 H 103.991 -0.0509219 -1.4391 0
M  V30 1125 H 105.944 2.26915 -3.55088 0
M  V30 1126 H 104.668 2.30995 -2.30887 0
M  V30 1127 H 103.327 0.622499 -3.61276 0
M  V30 1128 H 102.975 3.07057 -3.98403 0
M  V30 1129 H 102.675 2.13925 -5.47275 0
M  V30 1130 H 104.199 3.05317 -5.28786 0
M  V30 1131 H 105.613 0.814929 -5.67478 0
M  V30 1132 H 104.01 0.0937929 -6.00027 0
M  V30 1133 H 105.08 -0.65921 -4.80398 0
M  V30 1134 N 106.423 1.57458 -0.0668435 0
M  V30 1135 C 107.7 1.8469 0.644132 0
M  V30 1136 C 108.08 0.958343 1.88093 0
M  V30 1137 O 107.428 0.0233579 2.28488 0
M  V30 1138 C 107.638 3.34767 0.986509 0
M  V30 1139 C 108.986 4.02159 1.36212 0
M  V30 1140 O 110.01 3.39484 1.07839 0
M  V30 1141 O 108.869 5.12694 1.89227 0
M  V30 1142 H 105.963 0.762816 0.319437 0
M  V30 1143 H 108.509 1.6942 -0.0973986 0
M  V30 1144 H 107.281 3.91151 0.107883 0
M  V30 1145 H 106.904 3.55281 1.78497 0
M  V30 1146 N 107.901 -0.206675 1.56239 0
M  V30 1147 C 109.126 -0.949474 1.8439 0
M  V30 1148 C 109.551 -1.76549 0.649016 0
M  V30 1149 O 108.909 -1.76782 -0.402231 0
M  V30 1150 C 108.957 -1.83078 3.10668 0
M  V30 1151 O 108.061 -2.9281 2.90407 0
M  V30 1152 H 107.402 -0.268033 0.607499 0
M  V30 1153 H 109.932 -0.215488 2.03462 0
M  V30 1154 H 109.942 -2.2377 3.41161 0
M  V30 1155 H 108.617 -1.23112 3.97261 0
M  V30 1156 H 107.194 -2.55956 2.71184 0
M  V30 1157 N 109.379 -1.50304 -0.473955 0
M  V30 1158 C 110.309 -1.71886 -1.58042 0
M  V30 1159 C 111.29 -0.567799 -1.60344 0
M  V30 1160 O 112.475 -0.806623 -1.76656 0
M  V30 1161 C 109.605 -1.81036 -2.96384 0
M  V30 1162 C 108.559 -2.962 -3.08949 0
M  V30 1163 C 107.885 -2.9049 -4.48909 0
M  V30 1164 C 109.185 -4.36752 -2.86434 0
M  V30 1165 H 110.879 -2.64527 -1.40234 0
M  V30 1166 H 108.425 -1.27295 -0.673201 0
M  V30 1167 H 110.378 -1.94719 -3.73714 0
M  V30 1168 H 109.102 -0.850147 -3.15341 0
M  V30 1169 H 107.761 -2.82164 -2.3405 0
M  V30 1170 H 107.409 -1.92321 -4.64781 0
M  V30 1171 H 107.109 -3.67802 -4.58253 0
M  V30 1172 H 108.633 -3.06218 -5.28264 0
M  V30 1173 H 110.047 -4.5133 -3.53517 0
M  V30 1174 H 108.444 -5.15493 -3.07225 0
M  V30 1175 H 109.514 -4.49321 -1.82316 0
M  V30 1176 N 110.857 0.726932 -1.39834 0
M  V30 1177 C 112.082 1.52121 -1.40976 0
M  V30 1178 C 112.507 1.88098 -0.00826029 0
M  V30 1179 O 111.865 1.52479 0.980807 0
M  V30 1180 C 111.913 2.78021 -2.29644 0
M  V30 1181 O 111.017 3.74272 -1.73188 0
M  V30 1182 H 110.358 0.45908 -0.479731 0
M  V30 1183 H 112.888 0.896207 -1.83927 0
M  V30 1184 H 112.898 3.26671 -2.44438 0
M  V30 1185 H 111.573 2.51169 -3.31492 0
M  V30 1186 H 110.15 3.33073 -1.6768 0
M  V30 1187 N 112.336 1.25143 0.95797 0
M  V30 1188 C 113.246 1.06968 2.08794 0
M  V30 1189 C 114.262 0.00773911 1.73998 0
M  V30 1190 O 115.438 0.207972 2.00323 0
M  V30 1191 C 112.503 0.68691 3.39827 0
M  V30 1192 C 111.564 1.82641 3.88511 0
M  V30 1193 C 110.797 1.46181 5.1329 0
M  V30 1194 O 111.02 0.355971 5.69288 0
M  V30 1195 O 109.954 2.29085 5.566 0
M  V30 1196 H 113.78 2.01723 2.27027 0
M  V30 1197 H 111.365 1.04051 1.07209 0
M  V30 1198 H 113.247 0.485417 4.18595 0
M  V30 1199 H 111.922 -0.231417 3.22872 0
M  V30 1200 H 110.829 2.08274 3.10762 0
M  V30 1201 H 112.162 2.72386 4.09959 0
M  V30 1202 N 113.814 -1.1601 1.06675 0
M  V30 1203 C 114.762 -2.22586 0.675157 0
M  V30 1204 C 115.756 -1.66525 -0.310766 0
M  V30 1205 O 116.962 -1.79145 -0.175215 0
M  V30 1206 H 113.337 -0.724855 0.200223 0
M  V30 1207 H 115.308 -2.52899 1.58381 0
M  V30 1208 C 114.057 -3.47604 0.0817162 0
M  V30 1209 H 113.38 -3.91058 0.831484 0
M  V30 1210 H 114.82 -4.23718 -0.154708 0
M  V30 1211 C 113.279 -3.15718 -1.17576 0
M  V30 1212 O 113.809 -3.31878 -2.26318 0
M  V30 1213 N 112.015 -2.69816 -1.07923 0
M  V30 1214 H 111.562 -2.56866 -0.194293 0
M  V30 1215 H 111.52 -2.48855 -1.92141 0
M  V30 1216 N 115.292 -0.849877 -1.32721 0
M  V30 1217 C 116.222 -0.306308 -2.31482 0
M  V30 1218 C 117.203 0.591952 -1.59468 0
M  V30 1219 O 118.388 0.513199 -1.87296 0
M  V30 1220 C 115.518 0.510204 -3.43532 0
M  V30 1221 C 114.472 -0.293209 -4.26994 0
M  V30 1222 C 113.798 0.647743 -5.30762 0
M  V30 1223 C 115.098 -1.51634 -4.99804 0
M  V30 1224 H 116.792 -1.13153 -2.77195 0
M  V30 1225 H 114.338 -0.545553 -1.33266 0
M  V30 1226 H 116.291 0.900856 -4.11658 0
M  V30 1227 H 115.015 1.36874 -2.96535 0
M  V30 1228 H 113.674 -0.665555 -3.60508 0
M  V30 1229 H 113.322 1.50299 -4.8002 0
M  V30 1230 H 113.022 0.11422 -5.87489 0
M  V30 1231 H 114.546 1.03567 -6.01753 0
M  V30 1232 H 115.96 -1.19824 -5.60638 0
M  V30 1233 H 114.357 -1.98745 -5.66234 0
M  V30 1234 H 115.427 -2.28018 -4.27943 0
M  V30 1235 N 116.77 1.45427 -0.607355 0
M  V30 1236 C 117.733 2.28974 0.101693 0
M  V30 1237 C 118.733 1.39754 0.795329 0
M  V30 1238 O 119.923 1.61878 0.643527 0
M  V30 1239 C 117.055 3.20768 1.15414 0
M  V30 1240 H 118.248 2.93147 -0.632844 0
M  V30 1241 H 115.801 1.51945 -0.366391 0
M  V30 1242 H 116.536 2.61395 1.91945 0
M  V30 1243 H 116.321 3.86489 0.66098 0
M  V30 1244 H 117.811 3.83589 1.65073 0
M  V30 1245 N 118.248 0.346503 1.53744 0
M  V30 1246 C 119.494 -0.249473 2.0126 0
M  V30 1247 C 119.827 -1.49965 1.23386 0
M  V30 1248 O 119.102 -1.91811 0.32229 0
M  V30 1249 C 119.385 -0.560643 3.55709 0
M  V30 1250 C 119.238 0.701836 4.44291 0
M  V30 1251 C 120.557 -1.36905 4.18264 0
M  V30 1252 H 117.676 -0.0891987 0.731582 0
M  V30 1253 H 120.318 0.467624 1.84156 0
M  V30 1254 H 118.468 -1.17156 3.70414 0
M  V30 1255 H 120.14 1.33974 4.41417 0
M  V30 1256 H 118.383 1.32612 4.13033 0
M  V30 1257 H 119.054 0.43933 5.50249 0
M  V30 1258 H 121.53 -0.852448 4.07275 0
M  V30 1259 H 120.406 -1.55553 5.26398 0
M  V30 1260 H 120.667 -2.37203 3.73078 0
M  V30 1261 N 119.726 -1.57421 0.075193 0
M  V30 1262 C 120.658 -2.09904 -0.920483 0
M  V30 1263 C 121.671 -1.03191 -1.25918 0
M  V30 1264 O 122.86 -1.30695 -1.21577 0
M  V30 1265 C 119.96 -2.54726 -2.23534 0
M  V30 1266 C 119.133 -3.8505 -2.07498 0
M  V30 1267 C 118.192 -4.15929 -3.22319 0
M  V30 1268 O 117.218 -4.85474 -2.9716 0
M  V30 1269 N 118.42 -3.69745 -4.47514 0
M  V30 1270 H 121.185 -2.95954 -0.472359 0
M  V30 1271 H 118.746 -1.61523 -0.110444 0
M  V30 1272 H 120.738 -2.72443 -2.9926 0
M  V30 1273 H 119.308 -1.73795 -2.59835 0
M  V30 1274 H 118.528 -3.76679 -1.16219 0
M  V30 1275 H 119.816 -4.70348 -1.94038 0
M  V30 1276 H 119.214 -3.13569 -4.7084 0
M  V30 1277 H 117.771 -3.92655 -5.20255 0
M  V30 1278 N 121.204 0.198386 -1.56346 0
M  V30 1279 C 122.432 0.935572 -1.84539 0
M  V30 1280 C 122.847 1.76989 -0.657281 0
M  V30 1281 O 122.204 1.78626 0.374043 0
M  V30 1282 C 122.255 1.8344 -3.11499 0
M  V30 1283 O 121.976 1.03377 -4.25728 0
M  V30 1284 C 123.477 2.68355 -3.52846 0
M  V30 1285 H 120.697 0.273126 -0.612897 0
M  V30 1286 H 123.241 0.20663 -2.03453 0
M  V30 1287 H 121.396 2.51701 -2.94492 0
M  V30 1288 H 121.81 1.64599 -4.98003 0
M  V30 1289 H 123.284 3.27085 -4.44657 0
M  V30 1290 H 123.761 3.41901 -2.75681 0
M  V30 1291 H 124.367 2.05471 -3.72373 0
M  V30 1292 N 122.682 1.50554 0.465978 0
M  V30 1293 C 123.615 1.64436 1.58227 0
M  V30 1294 C 124.593 0.492367 1.54966 0
M  V30 1295 O 125.777 0.712536 1.74514 0
M  V30 1296 C 122.904 1.63165 2.96808 0
M  V30 1297 C 121.95 2.83987 3.18204 0
M  V30 1298 S 122.783 4.45219 2.97557 0
M  V30 1299 C 123.939 4.46649 4.3847 0
M  V30 1300 H 124.172 2.58861 1.46213 0
M  V30 1301 H 121.705 1.3988 0.653678 0
M  V30 1302 H 123.663 1.63116 3.76701 0
M  V30 1303 H 122.324 0.69967 3.06208 0
M  V30 1304 H 121.517 2.79416 4.19455 0
M  V30 1305 H 121.119 2.81629 2.46092 0
M  V30 1306 H 123.411 4.20526 5.31191 0
M  V30 1307 H 124.354 5.48295 4.48082 0
M  V30 1308 H 124.762 3.76296 4.20787 0
M  V30 1309 N 124.16 -0.719506 1.40217 0
M  V30 1310 C 125.09 -1.8465 1.42922 0
M  V30 1311 C 126.071 -1.67599 0.29062 0
M  V30 1312 O 127.256 -1.87688 0.498677 0
M  V30 1313 C 124.386 -3.22565 1.28722 0
M  V30 1314 C 123.34 -3.54281 2.40144 0
M  V30 1315 C 122.666 -4.91298 2.11023 0
M  V30 1316 C 123.966 -3.55676 3.82481 0
M  V30 1317 H 125.66 -1.82644 2.37237 0
M  V30 1318 H 123.206 -0.877305 1.1419 0
M  V30 1319 H 125.159 -4.01095 1.29232 0
M  V30 1320 H 123.883 -3.25137 0.308811 0
M  V30 1321 H 122.542 -2.78088 2.38877 0
M  V30 1322 H 122.19 -4.90468 1.11582 0
M  V30 1323 H 121.89 -5.13485 2.8567 0
M  V30 1324 H 123.414 -5.72166 2.13209 0
M  V30 1325 H 124.828 -4.24254 3.85592 0
M  V30 1326 H 123.225 -3.89388 4.56614 0
M  V30 1327 H 124.295 -2.55144 4.12346 0
M  V30 1328 N 125.638 -1.25649 -0.95132 0
M  V30 1329 C 127.049 -1.09654 -1.51106 0
M  V30 1330 C 127.4 0.326615 -1.93462 0
M  V30 1331 O 126.525 1.21697 -1.78938 0
M  V30 1332 C 127.12 -1.98437 -2.74605 0
M  V30 1333 C 125.679 -1.86618 -3.2688 0
M  V30 1334 C 124.826 -1.9239 -1.99703 0
M  V30 1335 H 127.777 -1.38887 -0.767865 0
M  V30 1336 H 127.798 -1.5263 -3.48546 0
M  V30 1337 H 127.31 -3.02009 -2.43746 0
M  V30 1338 H 125.411 -0.859421 -3.62553 0
M  V30 1339 H 125.524 -2.71607 -3.94673 0
M  V30 1340 H 123.888 -1.36317 -2.15151 0
M  V30 1341 H 124.671 -2.97573 -1.71188 0
M  V30 1342 N 127.117 1.15442 -1.07289 0
M  V30 1343 C 128.08 2.18358 -0.696591 0
M  V30 1344 C 129.08 1.58637 0.262837 0
M  V30 1345 O 130.27 1.74145 0.0438809 0
M  V30 1346 C 127.402 3.4089 -0.0266151 0
M  V30 1347 H 128.595 2.53162 -1.60776 0
M  V30 1348 H 126.148 1.29893 -0.869342 0
M  V30 1349 H 126.883 3.11653 0.896822 0
M  V30 1350 H 126.668 3.85495 -0.716657 0
M  V30 1351 H 128.158 4.17009 0.222028 0
M  V30 1352 N 128.595 0.856903 1.32268 0
M  V30 1353 C 129.842 0.461386 1.97174 0
M  V30 1354 C 130.17 -0.983491 1.67803 0
M  V30 1355 O 129.425 -1.70541 0.959903 0
M  V30 1356 C 129.724 0.649919 3.51441 0
M  V30 1357 C 129.39 2.0656 4.00804 0
M  V30 1358 C 128.052 2.45279 4.13995 0
M  V30 1359 C 130.404 2.98947 4.26943 0
M  V30 1360 C 127.732 3.75653 4.50668 0
M  V30 1361 C 130.084 4.28822 4.65075 0
M  V30 1362 C 128.748 4.67472 4.76472 0
M  V30 1363 H 128.018 0.168833 0.72151 0
M  V30 1364 H 130.665 1.08739 1.57633 0
M  V30 1365 H 128.97 -0.0593018 3.91755 0
M  V30 1366 H 130.667 0.32391 3.9969 0
M  V30 1367 H 127.257 1.75495 3.91024 0
M  V30 1368 H 131.441 2.70265 4.16258 0
M  V30 1369 H 126.697 4.05379 4.57688 0
M  V30 1370 H 130.871 5.0047 4.84255 0
M  V30 1371 H 128.498 5.68539 5.04646 0
M  V30 1372 N 130.073 -1.45103 0.615059 0
M  V30 1373 C 131.303 -2.06254 0.119596 0
M  V30 1374 C 131.711 -1.4591 -1.20445 0
M  V30 1375 O 131.054 -0.570384 -1.7462 0
M  V30 1376 C 131.116 -3.59396 -0.0865591 0
M  V30 1377 C 130.78 -4.42116 1.15683 0
M  V30 1378 C 131.777 -4.7662 2.07676 0
M  V30 1379 C 129.462 -4.82749 1.38775 0
M  V30 1380 C 131.456 -5.50622 3.21082 0
M  V30 1381 C 129.143 -5.56504 2.52481 0
M  V30 1382 C 130.141 -5.90358 3.43463 0
M  V30 1383 O 129.829 -6.62615 4.55189 0
M  V30 1384 H 129.561 -0.672423 0.0694512 0
M  V30 1385 H 132.115 -1.87219 0.844885 0
M  V30 1386 H 130.345 -3.76859 -0.866823 0
M  V30 1387 H 132.034 -4.02365 -0.534555 0
M  V30 1388 H 132.8 -4.4578 1.91063 0
M  V30 1389 H 128.679 -4.55829 0.688545 0
M  V30 1390 H 132.223 -5.76965 3.92119 0
M  V30 1391 H 128.12 -5.86759 2.69043 0
M  V30 1392 H 128.888 -6.81071 4.53966 0
M  V30 1393 N 131.551 -0.354651 -1.53558 0
M  V30 1394 C 132.461 0.50515 -2.29097 0
M  V30 1395 C 133.477 1.10223 -1.34636 0
M  V30 1396 O 134.653 1.11553 -1.67684 0
M  V30 1397 C 131.718 1.63479 -3.05738 0
M  V30 1398 C 130.779 1.06636 -4.15845 0
M  V30 1399 C 130.012 2.14217 -4.88822 0
M  V30 1400 O 130.235 3.35137 -4.61562 0
M  V30 1401 O 129.169 1.77887 -5.75013 0
M  V30 1402 H 132.995 -0.109237 -3.03503 0
M  V30 1403 H 130.58 -0.119357 -1.48922 0
M  V30 1404 H 132.462 2.2918 -3.5363 0
M  V30 1405 H 131.137 2.23478 -2.34178 0
M  V30 1406 H 130.044 0.373565 -3.7223 0
M  V30 1407 H 131.377 0.511081 -4.89539 0
M  V30 1408 N 133.029 1.57378 -0.0835403 0
M  V30 1409 C 133.961 2.10389 0.909338 0
M  V30 1410 C 134.974 1.03858 1.25369 0
M  V30 1411 O 136.163 1.31338 1.20882 0
M  V30 1412 C 133.263 2.55908 2.2218 0
M  V30 1413 C 132.436 3.86145 2.05453 0
M  V30 1414 C 131.495 4.17633 3.20108 0
M  V30 1415 O 130.521 4.87043 2.94581 0
M  V30 1416 N 131.723 3.72113 4.45547 0
M  V30 1417 H 134.488 2.962 0.456657 0
M  V30 1418 H 132.049 1.61579 0.101877 0
M  V30 1419 H 134.041 2.74027 2.97811 0
M  V30 1420 H 132.611 1.75171 2.58909 0
M  V30 1421 H 131.831 3.7729 1.1422 0
M  V30 1422 H 133.119 4.7137 1.91541 0
M  V30 1423 H 132.517 3.16062 4.69171 0
M  V30 1424 H 131.074 3.95409 5.18165 0
M  V30 1425 N 134.507 -0.190092 1.56449 0
M  V30 1426 C 135.755 -0.907908 1.80559 0
M  V30 1427 C 136.076 -1.83583 0.657438 0
M  V30 1428 O 135.346 -1.93203 -0.323924 0
M  V30 1429 H 133.926 -0.338247 0.666032 0
M  V30 1430 H 136.588 -0.194403 1.93928 0
M  V30 1431 H 135.684 -1.49604 2.73907 0
M  V30 1432 N 135.985 -1.50799 -0.457987 0
M  V30 1433 C 137.215 -1.65977 -1.23025 0
M  V30 1434 C 137.623 -0.347918 -1.85974 0
M  V30 1435 O 136.966 0.68148 -1.70592 0
M  V30 1436 C 137.028 -2.70309 -2.3701 0
M  V30 1437 C 136.692 -4.135 -1.94594 0
M  V30 1438 C 137.689 -4.98949 -1.46101 0
M  V30 1439 C 135.374 -4.5949 -2.02915 0
M  V30 1440 C 137.368 -6.28442 -1.06489 0
M  V30 1441 C 135.055 -5.88984 -1.62914 0
M  V30 1442 C 136.053 -6.73286 -1.1478 0
M  V30 1443 O 135.741 -8.00362 -0.75339 0
M  V30 1444 H 135.473 -0.56064 -0.377702 0
M  V30 1445 H 138.027 -1.97857 -0.551537 0
M  V30 1446 H 136.257 -2.337 -3.08093 0
M  V30 1447 H 137.946 -2.74574 -2.98938 0
M  V30 1448 H 138.712 -4.6463 -1.39084 0
M  V30 1449 H 134.591 -3.94009 -2.39328 0
M  V30 1450 H 138.135 -6.94194 -0.688488 0
M  V30 1451 H 134.032 -6.22822 -1.69595 0
M  V30 1452 H 134.8 -8.13744 -0.88108 0
M  V30 1453 N 137.463 0.71206 -1.40597 0
M  V30 1454 C 138.74 1.46536 -1.29563 0
M  V30 1455 C 139.12 2.10931 0.0844217 0
M  V30 1456 O 138.468 2.00418 1.0975 0
M  V30 1457 C 138.678 2.49821 -2.43701 0
M  V30 1458 C 140.026 3.15551 -2.841 0
M  V30 1459 O 141.05 2.60142 -2.4332 0
M  V30 1460 O 139.909 4.15867 -3.54566 0
M  V30 1461 H 137.003 0.651801 -0.509004 0
M  V30 1462 H 139.549 0.743935 -1.52524 0
M  V30 1463 H 138.321 2.00778 -3.35863 0
M  V30 1464 H 137.944 3.29495 -2.22528 0
M  V30 1465 N 138.941 1.26152 0.944643 0
M  V30 1466 C 140.352 1.10454 1.50522 0
M  V30 1467 C 140.703 -0.31635 1.93633 0
M  V30 1468 O 139.828 -1.20746 1.79581 0
M  V30 1469 C 140.423 1.99891 2.73549 0
M  V30 1470 C 138.982 1.88348 3.25886 0
M  V30 1471 C 138.129 1.93447 1.9868 0
M  V30 1472 H 141.08 1.39292 0.760489 0
M  V30 1473 H 141.101 1.54477 3.47732 0
M  V30 1474 H 140.613 3.03297 2.42141 0
M  V30 1475 H 138.714 0.878636 3.62092 0
M  V30 1476 H 138.827 2.73696 3.93227 0
M  V30 1477 H 137.191 1.37456 2.14425 0
M  V30 1478 H 137.974 2.98476 1.69607 0
M  V30 1479 N 140.419 -1.14872 1.07899 0
M  V30 1480 C 141.668 -1.85135 0.800499 0
M  V30 1481 C 141.981 -1.83547 -0.676014 0
M  V30 1482 O 143.187 -2.49548 -1.06948 0
M  V30 1483 C 141.643 -3.3231 1.38197 0
M  V30 1484 C 141.251 -3.42329 2.8899 0
M  V30 1485 C 142.995 -4.0772 1.18174 0
M  V30 1486 C 140.902 -4.83684 3.403 0
M  V30 1487 H 139.832 -0.693563 0.29578 0
M  V30 1488 H 142.483 -1.29532 1.29976 0
M  V30 1489 H 140.865 -3.87618 0.810431 0
M  V30 1490 H 142.039 -2.97097 3.52236 0
M  V30 1491 H 140.354 -2.80369 3.07867 0
M  V30 1492 H 142.951 -5.12049 1.5398 0
M  V30 1493 H 143.294 -4.16124 0.12117 0
M  V30 1494 H 143.827 -3.58696 1.71994 0
M  V30 1495 H 140.566 -4.80465 4.45907 0
M  V30 1496 H 140.086 -5.29474 2.81811 0
M  V30 1497 H 141.765 -5.52558 3.36584 0
M  V30 1498 N 141.898 -0.863906 -1.31812 0
M  V30 1499 C 142.831 -0.259963 -2.26714 0
M  V30 1500 C 143.809 0.607392 -1.50829 0
M  V30 1501 O 144.993 0.562155 -1.79922 0
M  V30 1502 C 142.12 0.632456 -3.32743 0
M  V30 1503 C 141.166 -0.162743 -4.26189 0
M  V30 1504 S 141.999 -1.53726 -5.12961 0
M  V30 1505 C 143.155 -0.650803 -6.22507 0
M  V30 1506 H 143.388 -1.06445 -2.77591 0
M  V30 1507 H 140.921 -0.662071 -1.39485 0
M  V30 1508 H 142.879 1.14167 -3.94305 0
M  V30 1509 H 141.54 1.41083 -2.80632 0
M  V30 1510 H 140.733 0.517366 -5.01338 0
M  V30 1511 H 140.335 -0.60385 -3.69093 0
M  V30 1512 H 142.627 0.141134 -6.77353 0
M  V30 1513 H 143.57 -1.37322 -6.94657 0
M  V30 1514 H 143.978 -0.221041 -5.64067 0
M  V30 1515 N 143.376 1.44774 -0.622745 0
M  V30 1516 C 144.309 2.27792 0.136329 0
M  V30 1517 C 145.287 1.38041 0.859264 0
M  V30 1518 O 146.471 1.67478 0.86506 0
M  V30 1519 C 143.598 3.16776 1.19878 0
M  V30 1520 C 142.644 4.22575 0.57731 0
M  V30 1521 S 143.477 5.31825 -0.626294 0
M  V30 1522 C 144.633 6.24377 0.436378 0
M  V30 1523 H 144.866 2.91824 -0.567967 0
M  V30 1524 H 142.399 1.48838 -0.410677 0
M  V30 1525 H 144.357 3.68596 1.80686 0
M  V30 1526 H 143.018 2.5198 1.87523 0
M  V30 1527 H 142.211 4.84818 1.37721 0
M  V30 1528 H 141.813 3.73974 0.0440439 0
M  V30 1529 H 144.105 6.64689 1.31128 0
M  V30 1530 H 145.048 7.07941 -0.150271 0
M  V30 1531 H 145.456 5.59381 0.758513 0
M  V30 1532 N 144.854 0.36279 1.53368 0
M  V30 1533 C 145.764 -0.492994 2.29362 0
M  V30 1534 C 146.78 -1.09507 1.35219 0
M  V30 1535 O 147.956 -1.10662 1.68273 0
M  V30 1536 C 145.021 -1.61855 3.066 0
M  V30 1537 C 144.082 -1.04429 4.16405 0
M  V30 1538 C 143.315 -2.11621 4.89951 0
M  V30 1539 O 143.538 -3.32684 4.63333 0
M  V30 1540 O 142.472 -1.74835 5.75948 0
M  V30 1541 H 146.298 0.125331 3.03441 0
M  V30 1542 H 143.883 0.127253 1.48857 0
M  V30 1543 H 145.765 -2.27302 3.54841 0
M  V30 1544 H 144.44 -2.22233 2.3536 0
M  V30 1545 H 143.347 -0.353819 3.72423 0
M  V30 1546 H 144.68 -0.485113 4.89804 0
M  V30 1547 N 146.332 -1.57332 0.0918853 0
M  V30 1548 C 147.557 -1.98995 -0.584442 0
M  V30 1549 C 147.982 -0.970528 -1.61128 0
M  V30 1550 O 147.34 0.0613904 -1.81196 0
M  V30 1551 C 147.388 -3.39636 -1.21161 0
M  V30 1552 O 146.492 -3.40447 -2.32744 0
M  V30 1553 H 145.833 -0.647165 -0.148572 0
M  V30 1554 H 148.363 -2.03873 0.172347 0
M  V30 1555 H 148.373 -3.7726 -1.55367 0
M  V30 1556 H 147.048 -4.13356 -0.459313 0
M  V30 1557 H 145.625 -3.14614 -2.0018 0
M  V30 1558 N 147.81 0.181792 -1.56548 0
M  V30 1559 C 148.742 1.24956 -1.92142 0
M  V30 1560 C 149.755 1.41022 -0.813422 0
M  V30 1561 O 150.944 1.41212 -1.09186 0
M  V30 1562 C 148.044 2.61981 -2.14987 0
M  V30 1563 C 147.217 2.6735 -3.46183 0
M  V30 1564 C 146.276 3.85664 -3.5798 0
M  V30 1565 O 145.302 3.72148 -4.30691 0
M  V30 1566 N 146.504 5.01683 -2.92053 0
M  V30 1567 H 149.269 0.947329 -2.84334 0
M  V30 1568 H 146.83 0.371629 -1.57577 0
M  V30 1569 H 148.822 3.3958 -2.20154 0
M  V30 1570 H 147.392 2.84637 -1.2923 0
M  V30 1571 H 146.612 1.75925 -3.52766 0
M  V30 1572 H 147.9 2.67939 -4.32534 0
M  V30 1573 H 147.298 5.15564 -2.32832 0
M  V30 1574 H 145.855 5.77181 -3.0283 0
M  V30 1575 N 149.288 1.51039 0.449983 0
M  V30 1576 C 150.535 1.63081 1.20045 0
M  V30 1577 C 150.863 0.341024 1.91487 0
M  V30 1578 O 150.118 -0.674276 1.83717 0
M  V30 1579 C 150.417 2.77556 2.25161 0
M  V30 1580 C 150.083 4.17289 1.70823 0
M  V30 1581 C 148.745 4.55305 1.55725 0
M  V30 1582 C 151.097 5.04536 1.3074 0
M  V30 1583 C 148.425 5.78287 0.989999 0
M  V30 1584 C 150.777 6.28085 0.754482 0
M  V30 1585 C 149.441 6.64885 0.590308 0
M  V30 1586 H 148.711 0.596755 0.439277 0
M  V30 1587 H 151.358 1.85037 0.49333 0
M  V30 1588 H 149.663 2.49771 3.01863 0
M  V30 1589 H 151.36 2.84073 2.83026 0
M  V30 1590 H 147.95 3.8731 1.83546 0
M  V30 1591 H 152.134 4.75782 1.41229 0
M  V30 1592 H 147.39 6.05456 0.850451 0
M  V30 1593 H 151.564 6.95038 0.435324 0
M  V30 1594 H 149.191 7.60055 0.14862 0
M  V30 1595 N 150.766 -0.704594 1.40972 0
M  V30 1596 C 151.991 -1.49858 1.43378 0
M  V30 1597 C 152.416 -1.88061 0.038184 0
M  V30 1598 O 151.774 -1.5402 -0.956425 0
M  V30 1599 C 151.822 -2.74333 2.34038 0
M  V30 1600 O 150.926 -3.7147 1.7912 0
M  V30 1601 H 150.267 -0.45139 0.486974 0
M  V30 1602 H 152.797 -0.866832 1.8533 0
M  V30 1603 H 152.807 -3.22741 2.49604 0
M  V30 1604 H 151.482 -2.45863 3.35446 0
M  V30 1605 H 150.059 -3.30363 1.72958 0
M  V30 1606 N 152.244 -1.26651 -0.937939 0
M  V30 1607 C 153.655 -1.1125 -1.49934 0
M  V30 1608 C 154.006 0.306077 -1.93798 0
M  V30 1609 O 153.131 1.19792 -1.80219 0
M  V30 1610 C 153.726 -2.01339 -2.72485 0
M  V30 1611 C 152.285 -1.90074 -3.24883 0
M  V30 1612 C 151.432 -1.94498 -1.97651 0
M  V30 1613 H 154.383 -1.39693 -0.753091 0
M  V30 1614 H 154.404 -1.56319 -3.46907 0
M  V30 1615 H 153.916 -3.04577 -2.40529 0
M  V30 1616 H 152.017 -0.897827 -3.61621 0
M  V30 1617 H 152.13 -2.75778 -3.9177 0
M  V30 1618 H 150.494 -1.38591 -2.13693 0
M  V30 1619 H 151.277 -2.99372 -1.68022 0
M  V30 1620 N 153.722 1.14298 -1.08507 0
M  V30 1621 C 154.654 2.1907 -0.673859 0
M  V30 1622 C 155.667 1.60381 0.279577 0
M  V30 1623 O 156.856 1.78374 0.0670754 0
M  V30 1624 C 153.956 3.38888 0.0290979 0
M  V30 1625 C 153.129 4.27103 -0.943494 0
M  V30 1626 C 152.188 5.25477 -0.275676 0
M  V30 1627 O 151.214 5.61709 -0.920401 0
M  V30 1628 N 152.416 5.7227 0.974013 0
M  V30 1629 H 155.181 2.54965 -1.57521 0
M  V30 1630 H 152.742 1.29528 -0.971287 0
M  V30 1631 H 154.734 4.01761 0.48683 0
M  V30 1632 H 153.304 3.01309 0.832555 0
M  V30 1633 H 152.524 3.61149 -1.58004 0
M  V30 1634 H 153.812 4.82905 -1.60251 0
M  V30 1635 H 153.21 5.44965 1.51755 0
M  V30 1636 H 151.767 6.37127 1.37522 0
M  V30 1637 N 155.201 0.870884 1.31352 0
M  V30 1638 C 156.131 0.343096 2.30966 0
M  V30 1639 C 157.112 -0.566507 1.60389 0
M  V30 1640 O 158.297 -0.483336 1.88089 0
M  V30 1641 C 155.427 -0.455487 3.443 0
M  V30 1642 C 154.381 0.361103 4.26474 0
M  V30 1643 C 153.707 -0.563221 5.31725 0
M  V30 1644 C 155.007 1.59566 4.97329 0
M  V30 1645 H 156.701 1.17548 2.75359 0
M  V30 1646 H 154.247 0.566686 1.32381 0
M  V30 1647 H 156.2 -0.83525 4.13039 0
M  V30 1648 H 154.924 -1.32139 2.98675 0
M  V30 1649 H 153.583 0.722825 3.59403 0
M  V30 1650 H 153.231 -1.42643 4.82351 0
M  V30 1651 H 152.931 -0.0207409 5.87596 0
M  V30 1652 H 154.455 -0.939808 6.03324 0
M  V30 1653 H 155.869 1.28728 5.58661 0
M  V30 1654 H 154.266 2.07728 5.63 0
M  V30 1655 H 155.336 2.34798 4.24262 0
M  V30 1656 N 156.679 -1.44442 0.630414 0
M  V30 1657 C 157.925 -2.02351 0.134816 0
M  V30 1658 C 158.258 -1.4947 -1.23986 0
M  V30 1659 O 157.533 -0.678475 -1.82283 0
M  V30 1660 C 157.816 -3.59898 0.120707 0
M  V30 1661 C 157.669 -4.23063 1.52767 0
M  V30 1662 C 158.988 -4.36585 -0.555127 0
M  V30 1663 H 156.107 -0.73527 0.0504646 0
M  V30 1664 H 158.749 -1.72022 0.806751 0
M  V30 1665 H 156.899 -3.85868 -0.451477 0
M  V30 1666 H 158.571 -4.08202 2.14869 0
M  V30 1667 H 156.814 -3.80586 2.08175 0
M  V30 1668 H 157.485 -5.32071 1.46984 0
M  V30 1669 H 159.961 -4.16044 -0.0685429 0
M  V30 1670 H 158.837 -5.46294 -0.534185 0
M  V30 1671 H 159.098 -4.11138 -1.62535 0
M  V30 1672 N 158.157 -0.370918 -1.53173 0
M  V30 1673 C 159.12 0.460778 -2.24521 0
M  V30 1674 C 160.12 1.00536 -1.25496 0
M  V30 1675 O 161.31 0.890266 -1.49733 0
M  V30 1676 C 158.442 1.64457 -2.98608 0
M  V30 1677 H 159.635 -0.163613 -2.99453 0
M  V30 1678 H 157.188 -0.122699 -1.55818 0
M  V30 1679 H 157.923 2.30691 -2.2793 0
M  V30 1680 H 157.708 1.26099 -3.7127 0
M  V30 1681 H 159.198 2.23384 -3.5283 0
M  V30 1682 N 159.635 1.57281 -0.100228 0
M  V30 1683 C 160.545 2.17833 0.870965 0
M  V30 1684 C 161.561 1.14921 1.30649 0
M  V30 1685 O 162.737 1.47313 1.37335 0
M  V30 1686 C 159.802 2.75085 2.1102 0
M  V30 1687 C 158.863 3.9297 1.72838 0
M  V30 1688 C 158.096 4.47482 2.90854 0
M  V30 1689 O 158.319 4.00922 4.05731 0
M  V30 1690 O 157.253 5.38433 2.69023 0
M  V30 1691 H 161.079 3.0124 0.38575 0
M  V30 1692 H 158.664 1.48881 0.124397 0
M  V30 1693 H 160.546 3.11656 2.83634 0
M  V30 1694 H 159.221 1.94721 2.58584 0
M  V30 1695 H 158.128 3.61201 0.973883 0
M  V30 1696 H 159.461 4.74713 1.30033 0
M  V30 1697 N 161.113 -0.173488 1.56642 0
M  V30 1698 C 162.063 -1.21941 1.92651 0
M  V30 1699 C 163.047 -1.39912 0.794577 0
M  V30 1700 O 164.239 -1.41919 1.05773 0
M  V30 1701 C 161.368 -2.55935 2.28806 0
M  V30 1702 C 160.454 -2.41667 3.48508 0
M  V30 1703 N 160.845 -1.9711 4.65813 0
M  V30 1704 C 159.143 -2.72499 3.53072 0
M  V30 1705 C 159.844 -1.95253 5.47952 0
M  V30 1706 N 158.82 -2.37575 4.88937 0
M  V30 1707 H 162.622 -0.866581 2.80834 0
M  V30 1708 H 160.136 -0.381776 1.57849 0
M  V30 1709 H 162.133 -3.31511 2.52797 0
M  V30 1710 H 160.793 -2.92022 1.41961 0
M  V30 1711 H 161.804 -1.67481 4.90072 0
M  V30 1712 H 158.481 -3.12639 2.767 0
M  V30 1713 H 159.871 -1.6252 6.51948 0
M  V30 1714 N 162.591 -1.51276 -0.441967 0
M  V30 1715 C 163.521 -1.752 -1.54361 0
M  V30 1716 C 164.502 -0.601682 -1.59103 0
M  V30 1717 O 165.687 -0.843913 -1.74905 0
M  V30 1718 C 162.817 -1.87282 -2.92477 0
M  V30 1719 C 161.771 -3.02687 -3.02596 0
M  V30 1720 C 161.097 -2.99947 -4.42647 0
M  V30 1721 C 162.397 -4.4273 -2.77106 0
M  V30 1722 H 164.091 -2.67442 -1.34592 0
M  V30 1723 H 161.637 -1.28694 -0.646048 0
M  V30 1724 H 163.59 -2.02602 -3.695 0
M  V30 1725 H 162.314 -0.916844 -3.13467 0
M  V30 1726 H 160.973 -2.87065 -2.28012 0
M  V30 1727 H 160.621 -2.02136 -4.60597 0
M  V30 1728 H 160.321 -3.77439 -4.50348 0
M  V30 1729 H 161.845 -3.17354 -5.2165 0
M  V30 1730 H 163.259 -4.58727 -3.43864 0
M  V30 1731 H 161.656 -5.21893 -2.96222 0
M  V30 1732 H 162.726 -4.53087 -1.72744 0
M  V30 1733 N 164.069 0.697108 -1.41344 0
M  V30 1734 C 165.317 1.45426 -1.40341 0
M  V30 1735 C 165.638 1.94996 -0.0128787 0
M  V30 1736 O 164.908 1.71599 0.945027 0
M  V30 1737 H 163.488 0.539594 -0.516573 0
M  V30 1738 H 166.15 0.825201 -1.76569 0
M  V30 1739 H 165.246 2.31817 -2.08967 0
M  V30 1740 N 165.547 1.27147 0.931209 0
M  V30 1741 C 166.793 1.13446 1.68101 0
M  V30 1742 C 167.126 -0.319628 1.91552 0
M  V30 1743 O 166.401 -1.23407 1.50336 0
M  V30 1744 C 166.684 1.91482 3.0497 0
M  V30 1745 C 166.537 3.44855 2.88782 0
M  V30 1746 C 167.856 1.71651 4.05246 0
M  V30 1747 H 164.975 0.413498 0.610072 0
M  V30 1748 H 167.617 1.56261 1.08086 0
M  V30 1749 H 165.767 1.55095 3.56199 0
M  V30 1750 H 167.439 3.9105 2.44698 0
M  V30 1751 H 165.682 3.71373 2.24198 0
M  V30 1752 H 166.353 3.94694 3.85902 0
M  V30 1753 H 168.829 2.0337 3.63015 0
M  V30 1754 H 167.705 2.28651 4.99009 0
M  V30 1755 H 167.966 0.663555 4.37092 0
M  V30 1756 N 167.025 -1.13721 1.09112 0
M  V30 1757 C 167.955 -2.21148 0.749385 0
M  V30 1758 C 168.936 -1.6792 -0.271475 0
M  V30 1759 O 170.121 -1.93693 -0.140251 0
M  V30 1760 C 167.251 -3.46905 0.165659 0
M  V30 1761 C 166.205 -4.13203 1.11567 0
M  V30 1762 C 165.531 -5.33248 0.393809 0
M  V30 1763 C 166.831 -4.60912 2.45678 0
M  V30 1764 H 168.525 -2.4999 1.64758 0
M  V30 1765 H 166.071 -1.20156 0.793626 0
M  V30 1766 H 168.024 -4.21313 -0.085466 0
M  V30 1767 H 166.748 -3.17449 -0.767714 0
M  V30 1768 H 165.407 -3.40758 1.35202 0
M  V30 1769 H 165.055 -5.00054 -0.543599 0
M  V30 1770 H 164.755 -5.78552 1.02721 0
M  V30 1771 H 166.279 -6.10413 0.150908 0
M  V30 1772 H 167.693 -5.26759 2.26269 0
M  V30 1773 H 166.09 -5.16944 3.04776 0
M  V30 1774 H 167.16 -3.75603 3.06677 0
M  V30 1775 N 168.503 -0.877838 -1.30888 0
M  V30 1776 C 169.45 -0.337538 -2.28318 0
M  V30 1777 C 170.42 0.568346 -1.56074 0
M  V30 1778 O 171.605 0.498298 -1.84178 0
M  V30 1779 C 168.745 0.448142 -3.42178 0
M  V30 1780 C 167.858 -0.48615 -4.29256 0
M  V30 1781 C 166.993 0.314427 -5.30269 0
M  V30 1782 C 166.032 -0.615791 -6.08995 0
M  V30 1783 N 165.169 0.14902 -7.01942 0
M  V30 1784 H 170.009 -1.17356 -2.73919 0
M  V30 1785 H 167.546 -0.590094 -1.34745 0
M  V30 1786 H 169.504 0.919517 -4.06941 0
M  V30 1787 H 168.134 1.24879 -2.97666 0
M  V30 1788 H 167.186 -1.076 -3.64865 0
M  V30 1789 H 168.498 -1.19909 -4.84173 0
M  V30 1790 H 167.652 0.847969 -6.00745 0
M  V30 1791 H 166.391 1.06062 -4.76027 0
M  V30 1792 H 165.396 -1.16102 -5.37401 0
M  V30 1793 H 166.621 -1.36097 -6.65323 0
M  V30 1794 H 164.567 0.877884 -6.50099 0
M  V30 1795 H 164.484 -0.504433 -7.54315 0
M  V30 1796 H 165.752 0.663537 -7.76671 0
M  V30 1797 N 169.982 1.44106 -0.638065 0
M  V30 1798 C 171.398 1.56672 -0.304286 0
M  V30 1799 C 171.598 1.6244 1.19228 0
M  V30 1800 O 170.654 1.57121 1.9766 0
M  V30 1801 C 171.967 2.83503 -1.00231 0
M  V30 1802 C 173.515 2.97226 -0.981116 0
M  V30 1803 C 173.99 4.26868 -1.65974 0
M  V30 1804 N 175.481 4.33698 -1.62666 0
M  V30 1805 C 176.216 5.32745 -2.12063 0
M  V30 1806 N 175.712 6.38157 -2.6968 0
M  V30 1807 N 177.505 5.24299 -2.02651 0
M  V30 1808 H 169.656 1.38605 -1.60942 0
M  V30 1809 H 171.919 0.664661 -0.675965 0
M  V30 1810 H 171.625 2.85251 -2.0573 0
M  V30 1811 H 171.499 3.73251 -0.54439 0
M  V30 1812 H 173.886 2.95027 0.0654188 0
M  V30 1813 H 173.967 2.08808 -1.47759 0
M  V30 1814 H 173.611 4.29826 -2.70576 0
M  V30 1815 H 173.541 5.14156 -1.13804 0
M  V30 1816 H 176.032 3.58138 -1.20606 0
M  V30 1817 H 176.345 7.10029 -3.05087 0
M  V30 1818 H 174.69 6.38823 -2.73734 0
M  V30 1819 H 177.881 4.4086 -1.57353 0
M  V30 1820 H 178.054 6.01334 -2.41457 0
M  V30 1821 N 171.46 0.379036 1.52974 0
M  V30 1822 C 172.876 0.0285448 1.59574 0
M  V30 1823 C 173.076 -1.45542 1.39355 0
M  V30 1824 O 172.132 -2.2187 1.20541 0
M  V30 1825 C 173.445 0.496535 2.96572 0
M  V30 1826 C 174.993 0.451909 3.0972 0
M  V30 1827 C 175.468 0.895924 4.49152 0
M  V30 1828 N 176.959 0.851522 4.55306 0
M  V30 1829 C 177.694 1.16661 5.61407 0
M  V30 1830 N 177.19 1.55166 6.752 0
M  V30 1831 N 178.983 1.08853 5.51459 0
M  V30 1832 H 171.134 1.34525 1.64367 0
M  V30 1833 H 173.397 0.550733 0.771619 0
M  V30 1834 H 173.103 1.53258 3.16552 0
M  V30 1835 H 172.977 -0.109802 3.7704 0
M  V30 1836 H 175.364 -0.575029 2.89443 0
M  V30 1837 H 175.445 1.09392 2.3123 0
M  V30 1838 H 175.089 1.92104 4.70168 0
M  V30 1839 H 175.019 0.23103 5.26093 0
M  V30 1840 H 177.51 0.568038 3.73606 0
M  V30 1841 H 177.823 1.776 7.52116 0
M  V30 1842 H 176.168 1.59044 6.76557 0
M  V30 1843 H 179.359 0.786803 4.6144 0
M  V30 1844 H 179.532 1.33742 6.34048 0
M  V30 1845 N 172.938 -1.57226 0.108567 0
M  V30 1846 C 173.886 -2.16002 -0.862885 0
M  V30 1847 C 174.88 -1.10644 -1.28274 0
M  V30 1848 O 176.086 -1.28966 -1.2557 0
M  V30 1849 H 172.461 -0.691148 -0.296342 0
M  V30 1850 H 174.432 -2.96427 -0.342575 0
M  V30 1851 C 173.181 -2.76576 -2.10716 0
M  V30 1852 H 172.504 -3.5734 -1.793 0
M  V30 1853 H 173.944 -3.21253 -2.76717 0
M  V30 1854 C 172.403 -1.73137 -2.89007 0
M  V30 1855 O 172.933 -1.17842 -3.84026 0
M  V30 1856 N 171.139 -1.43317 -2.52801 0
M  V30 1857 H 170.686 -1.88473 -1.75601 0
M  V30 1858 H 170.644 -0.743485 -3.05483 0
M  V30 1859 N 174.416 0.165178 -1.56732 0
M  V30 1860 C 175.665 0.879143 -1.81532 0
M  V30 1861 C 175.978 1.83144 -0.686842 0
M  V30 1862 O 177.184 2.58823 -0.819944 0
M  V30 1863 C 175.64 1.61388 -3.21686 0
M  V30 1864 C 175.248 0.704904 -4.4242 0
M  V30 1865 C 176.992 2.3157 -3.55774 0
M  V30 1866 C 174.899 1.44022 -5.73595 0
M  V30 1867 H 173.829 0.332033 -0.676957 0
M  V30 1868 H 176.48 0.132008 -1.83025 0
M  V30 1869 H 174.862 2.40599 -3.14529 0
M  V30 1870 H 176.036 -0.0506815 -4.60772 0
M  V30 1871 H 174.351 0.112419 -4.16248 0
M  V30 1872 H 176.948 2.8719 -4.51028 0
M  V30 1873 H 177.291 3.07201 -2.8095 0
M  V30 1874 H 177.824 1.59297 -3.64513 0
M  V30 1875 H 174.563 0.72612 -6.51466 0
M  V30 1876 H 174.083 2.16898 -5.5921 0
M  V30 1877 H 175.762 1.98606 -6.15764 0
M  V30 1878 N 175.894 1.51508 0.433938 0
M  V30 1879 C 177.171 1.54888 1.19453 0
M  V30 1880 C 177.551 0.315154 2.08734 0
M  V30 1881 O 176.899 -0.699558 2.17528 0
M  V30 1882 C 177.109 2.86467 1.99342 0
M  V30 1883 C 178.457 3.38545 2.56267 0
M  V30 1884 O 179.481 2.88041 2.0955 0
M  V30 1885 O 178.34 4.26675 3.41483 0
M  V30 1886 H 175.434 0.622863 0.544032 0
M  V30 1887 H 177.98 1.63823 0.442732 0
M  V30 1888 H 176.752 3.67718 1.33788 0
M  V30 1889 H 176.375 2.8071 2.8158 0
M  V30 1890 N 177.372 -0.689602 1.41712 0
M  V30 1891 C 178.62 -1.4468 1.4111 0
M  V30 1892 C 178.941 -1.94986 0.0232196 0
M  V30 1893 O 178.211 -1.72097 -0.935913 0
M  V30 1894 H 176.791 -0.536847 0.519427 0
M  V30 1895 H 179.453 -0.815825 1.77004 0
M  V30 1896 H 178.549 -2.30706 2.10193 0
M  V30 1897 N 178.85 -1.27639 -0.924453 0
M  V30 1898 C 180.096 -1.14336 -1.67497 0
M  V30 1899 C 180.429 0.309465 -1.91718 0
M  V30 1900 O 179.704 1.22608 -1.50989 0
M  V30 1901 C 179.987 -1.93096 -3.0395 0
M  V30 1902 C 179.84 -3.46381 -2.8695 0
M  V30 1903 C 181.159 -1.73798 -4.0433 0
M  V30 1904 H 178.278 -0.416728 -0.607871 0
M  V30 1905 H 180.92 -1.56832 -1.07256 0
M  V30 1906 H 179.07 -1.56982 -3.55372 0
M  V30 1907 H 180.742 -3.92343 -2.42621 0
M  V30 1908 H 178.985 -3.72557 -2.22225 0
M  V30 1909 H 179.656 -3.96735 -3.83804 0
M  V30 1910 H 182.132 -2.05293 -3.61931 0
M  V30 1911 H 181.008 -2.31294 -4.97789 0
M  V30 1912 H 181.269 -0.686725 -4.36734 0
M  V30 1913 N 180.328 1.1314 -1.09713 0
M  V30 1914 C 181.574 1.84757 -0.836224 0
M  V30 1915 C 181.907 1.8347 0.636598 0
M  V30 1916 O 181.182 1.27491 1.46889 0
M  V30 1917 C 181.465 3.32782 -1.37578 0
M  V30 1918 C 181.318 3.42567 -2.91493 0
M  V30 1919 C 182.637 4.28307 -1.01198 0
M  V30 1920 H 179.756 0.67082 -0.305236 0
M  V30 1921 H 182.398 1.3278 -1.35903 0
M  V30 1922 H 180.548 3.77177 -0.931097 0
M  V30 1923 H 182.22 3.06862 -3.44432 0
M  V30 1924 H 180.463 2.83349 -3.28475 0
M  V30 1925 H 181.134 4.46674 -3.24324 0
M  V30 1926 H 183.61 3.91999 -1.39556 0
M  V30 1927 H 182.486 5.30307 -1.41653 0
M  V30 1928 H 182.747 4.42029 0.0794833 0
M  V30 1929 N 181.806 0.884767 1.30421 0
M  V30 1930 C 182.736 0.367574 2.30589 0
M  V30 1931 C 183.717 -0.549464 1.60981 0
M  V30 1932 O 184.902 -0.46336 1.88591 0
M  V30 1933 C 182.032 -0.418944 3.44764 0
M  V30 1934 C 180.986 0.406316 4.26067 0
M  V30 1935 C 180.312 -0.506793 5.32293 0
M  V30 1936 C 181.612 1.64832 4.95608 0
M  V30 1937 H 183.306 1.20462 2.74097 0
M  V30 1938 H 180.852 0.580695 1.31772 0
M  V30 1939 H 182.805 -0.791395 4.13902 0
M  V30 1940 H 181.529 -1.28964 3.0006 0
M  V30 1941 H 180.188 0.760903 3.58617 0
M  V30 1942 H 179.836 -1.37519 4.83836 0
M  V30 1943 H 179.536 0.0415828 5.87585 0
M  V30 1944 H 181.06 -0.875764 6.04287 0
M  V30 1945 H 182.474 1.34646 5.57264 0
M  V30 1946 H 180.871 2.13688 5.60765 0
M  V30 1947 H 181.941 2.39284 4.21748 0
M  V30 1948 N 183.284 -1.43765 0.645699 0
M  V30 1949 C 184.531 -2.01898 0.15604 0
M  V30 1950 C 184.859 -1.50887 -1.22733 0
M  V30 1951 O 184.114 -0.689271 -1.8316 0
M  V30 1952 C 184.413 -3.57238 0.107679 0
M  V30 1953 C 184.079 -4.27564 1.43178 0
M  V30 1954 C 182.741 -4.46492 1.7944 0
M  V30 1955 C 185.093 -4.67454 2.30513 0
M  V30 1956 C 182.421 -5.02573 3.02716 0
M  V30 1957 C 184.773 -5.24901 3.53074 0
M  V30 1958 C 183.437 -5.42046 3.89541 0
M  V30 1959 H 182.707 -0.738797 0.057099 0
M  V30 1960 H 185.354 -1.72341 0.834912 0
M  V30 1961 H 183.659 -3.86293 -0.654618 0
M  V30 1962 H 185.356 -3.99965 -0.287938 0
M  V30 1963 H 181.946 -4.13171 1.13963 0
M  V30 1964 H 186.13 -4.5253 2.0379 0
M  V30 1965 H 181.386 -5.14033 3.31028 0
M  V30 1966 H 185.56 -5.54758 4.20971 0
M  V30 1967 H 183.187 -5.85268 4.85145 0
M  V30 1968 N 184.763 -0.387143 -1.52771 0
M  V30 1969 C 186.011 0.195349 -2.01154 0
M  V30 1970 C 186.332 1.475 -1.27549 0
M  V30 1971 O 185.602 1.91878 -0.394924 0
M  V30 1972 H 184.182 0.075178 -0.743207 0
M  V30 1973 H 186.844 -0.518337 -1.87881 0
M  V30 1974 H 185.94 0.407096 -3.09434 0
M  V30 1975 N 186.241 1.57166 -0.116904 0
M  V30 1976 C 187.488 1.95123 0.541603 0
M  V30 1977 C 187.816 1.00006 1.6682 0
M  V30 1978 O 187.071 0.0235658 1.95686 0
M  V30 1979 C 187.37 3.39508 1.11664 0
M  V30 1980 C 187.036 4.50762 0.111606 0
M  V30 1981 C 185.698 4.80918 -0.164758 0
M  V30 1982 C 188.05 5.18036 -0.573438 0
M  V30 1983 C 185.378 5.75666 -1.13249 0
M  V30 1984 C 187.73 6.13824 -1.52978 0
M  V30 1985 C 186.394 6.42374 -1.81415 0
M  V30 1986 H 185.664 0.714005 0.198187 0
M  V30 1987 H 188.311 1.9048 -0.197365 0
M  V30 1988 H 186.616 3.40835 1.93232 0
M  V30 1989 H 188.313 3.66189 1.63422 0
M  V30 1990 H 184.903 4.27272 0.337192 0
M  V30 1991 H 189.087 4.94896 -0.373092 0
M  V30 1992 H 184.343 5.96092 -1.35958 0
M  V30 1993 H 188.517 6.65039 -2.06629 0
M  V30 1994 H 186.144 7.15599 -2.56557 0
M  V30 1995 N 187.719 -0.156864 1.56817 0
M  V30 1996 C 188.947 -0.886316 1.86955 0
M  V30 1997 C 189.362 -1.75185 0.703975 0
M  V30 1998 O 188.719 -1.79555 -0.326552 0
M  V30 1999 C 188.77 -1.75117 3.16253 0
M  V30 2000 O 188.491 -0.920537 4.2832 0
M  V30 2001 C 189.992 -2.58905 3.59837 0
M  V30 2002 H 187.212 -0.25678 0.619923 0
M  V30 2003 H 189.756 -0.152615 2.0393 0
M  V30 2004 H 187.911 -2.43805 3.01062 0
M  V30 2005 H 188.325 -1.51337 5.02192 0
M  V30 2006 H 189.799 -3.1518 4.53172 0
M  V30 2007 H 190.276 -3.34472 2.84649 0
M  V30 2008 H 190.882 -1.95526 3.7769 0
M  V30 2009 N 189.197 -1.51736 -0.425897 0
M  V30 2010 C 190.445 -1.64644 -1.17204 0
M  V30 2011 C 190.766 -0.370486 -1.91448 0
M  V30 2012 O 190.036 0.614088 -1.86026 0
M  V30 2013 H 188.616 -0.606819 -0.435638 0
M  V30 2014 H 191.278 -1.88713 -0.487177 0
M  V30 2015 H 190.374 -2.47958 -1.89534 0
M  V30 2016 N 190.675 0.682077 -1.42076 0
M  V30 2017 C 191.924 1.43786 -1.41451 0
M  V30 2018 C 192.237 1.95574 -0.0317074 0
M  V30 2019 O 193.443 2.71326 0.0971462 0
M  V30 2020 C 191.899 2.60071 -2.48779 0
M  V30 2021 C 191.507 2.15013 -3.93031 0
M  V30 2022 C 193.251 3.37626 -2.57311 0
M  V30 2023 C 191.158 3.28336 -4.91883 0
M  V30 2024 H 190.088 0.540143 -0.526082 0
M  V30 2025 H 192.739 0.739157 -1.67955 0
M  V30 2026 H 191.121 3.32275 -2.15429 0
M  V30 2027 H 192.295 1.5001 -4.35699 0
M  V30 2028 H 190.61 1.50416 -3.88284 0
M  V30 2029 H 193.207 4.22012 -3.28345 0
M  V30 2030 H 193.55 3.83727 -1.61429 0
M  V30 2031 H 194.083 2.72488 -2.89819 0
M  V30 2032 H 190.822 2.87234 -5.89217 0
M  V30 2033 H 190.342 3.92145 -4.53853 0
M  V30 2034 H 192.021 3.93913 -5.13265 0
M  V30 2035 N 192.153 1.28127 0.917671 0
M  V30 2036 C 193.381 1.17892 1.70026 0
M  V30 2037 C 193.796 -0.262958 1.8696 0
M  V30 2038 O 193.153 -1.17811 1.3938 0
M  V30 2039 C 193.204 1.86872 3.09453 0
M  V30 2040 O 192.925 3.25428 2.93306 0
M  V30 2041 C 194.426 1.8289 4.03815 0
M  V30 2042 H 191.646 0.40942 0.531617 0
M  V30 2043 H 194.19 1.69181 1.14883 0
M  V30 2044 H 192.345 1.39464 3.61426 0
M  V30 2045 H 192.759 3.59918 3.81523 0
M  V30 2046 H 194.233 2.35751 4.99125 0
M  V30 2047 H 194.71 0.800412 4.31845 0
M  V30 2048 H 195.316 2.29959 3.57769 0
M  V30 2049 N 193.631 -1.12557 1.10312 0
M  V30 2050 C 194.541 -2.21841 0.763142 0
M  V30 2051 C 195.557 -1.72354 -0.238801 0
M  V30 2052 O 196.733 -2.01249 -0.0778746 0
M  V30 2053 C 193.798 -3.46131 0.198632 0
M  V30 2054 C 192.859 -4.10464 1.25769 0
M  V30 2055 C 192.092 -5.28821 0.72002 0
M  V30 2056 O 192.315 -5.6859 -0.453993 0
M  V30 2057 O 191.249 -5.83437 1.47935 0
M  V30 2058 H 195.075 -2.53312 1.67532 0
M  V30 2059 H 192.66 -1.20867 0.878157 0
M  V30 2060 H 194.542 -4.2125 -0.112401 0
M  V30 2061 H 193.217 -3.16338 -0.686419 0
M  V30 2062 H 192.124 -3.3713 1.62156 0
M  V30 2063 H 193.457 -4.44408 2.11571 0
M  V30 2064 N 195.109 -0.891671 -1.2995 0
M  V30 2065 C 196.019 -0.367691 -2.31701 0
M  V30 2066 C 197.035 0.533486 -1.6562 0
M  V30 2067 O 198.211 0.424997 -1.96865 0
M  V30 2068 C 195.276 0.403406 -3.44345 0
M  V30 2069 C 194.337 -0.528328 -4.26037 0
M  V30 2070 C 193.57 0.206063 -5.33302 0
M  V30 2071 O 193.793 1.43119 -5.52153 0
M  V30 2072 O 192.727 -0.447281 -6.00236 0
M  V30 2073 H 196.553 -1.21163 -2.78484 0
M  V30 2074 H 194.138 -0.655725 -1.34241 0
M  V30 2075 H 196.02 0.839753 -4.12948 0
M  V30 2076 H 194.695 1.22354 -2.99685 0
M  V30 2077 H 193.602 -1.01362 -3.60106 0
M  V30 2078 H 194.935 -1.31465 -4.74318 0
M  V30 2079 N 196.587 1.43421 -0.653314 0
M  V30 2080 C 197.52 2.2803 0.0879804 0
M  V30 2081 C 198.498 1.39833 0.82979 0
M  V30 2082 O 199.682 1.69275 0.829341 0
M  V30 2083 C 196.809 3.19247 1.13132 0
M  V30 2084 C 195.855 4.23704 0.487546 0
M  V30 2085 S 196.688 5.30377 -0.738961 0
M  V30 2086 C 197.844 6.25162 0.30384 0
M  V30 2087 H 198.077 2.90554 -0.629739 0
M  V30 2088 H 195.61 1.47934 -0.442156 0
M  V30 2089 H 197.568 3.72346 1.72827 0
M  V30 2090 H 196.229 2.55901 1.82136 0
M  V30 2091 H 195.422 4.87631 1.27407 0
M  V30 2092 H 195.024 3.73983 -0.0352915 0
M  V30 2093 H 197.316 6.67321 1.17 0
M  V30 2094 H 198.259 7.07463 -0.300402 0
M  V30 2095 H 198.667 5.60864 0.63969 0
M  V30 2096 N 198.065 0.39524 1.52563 0
M  V30 2097 C 198.995 -0.428384 2.29537 0
M  V30 2098 C 199.976 -1.05831 1.33169 0
M  V30 2099 O 201.161 -1.06995 1.62067 0
M  V30 2100 C 198.291 -1.55274 3.10656 0
M  V30 2101 C 197.245 -1.04855 4.14957 0
M  V30 2102 C 196.571 -2.26543 4.84337 0
M  V30 2103 C 197.871 -0.112324 5.22179 0
M  V30 2104 H 199.565 0.213867 2.98635 0
M  V30 2105 H 197.111 0.104298 1.43622 0
M  V30 2106 H 199.064 -2.1358 3.63265 0
M  V30 2107 H 197.788 -2.22266 2.39302 0
M  V30 2108 H 196.447 -0.487985 3.63338 0
M  V30 2109 H 196.095 -2.92059 4.09525 0
M  V30 2110 H 195.795 -1.93466 5.54837 0
M  V30 2111 H 197.319 -2.85481 5.39753 0
M  V30 2112 H 198.733 -0.603752 5.70112 0
M  V30 2113 H 197.13 0.128968 5.99961 0
M  V30 2114 H 198.2 0.837052 4.77621 0
M  V30 2115 N 199.544 -1.57102 0.125237 0
M  V30 2116 C 200.507 -2.14471 -0.80838 0
M  V30 2117 C 201.507 -1.0811 -1.19033 0
M  V30 2118 O 202.697 -1.33856 -1.11482 0
M  V30 2119 C 199.829 -2.69005 -2.09402 0
M  V30 2120 H 201.022 -2.98297 -0.309696 0
M  V30 2121 H 198.575 -1.55807 -0.124051 0
M  V30 2122 H 199.31 -1.88785 -2.63687 0
M  V30 2123 H 199.095 -3.46799 -1.82957 0
M  V30 2124 H 200.585 -3.13278 -2.76128 0
M  V30 2125 N 201.022 0.148545 -1.56898 0
M  V30 2126 C 201.972 1.1886 -1.94567 0
M  V30 2127 C 202.956 1.3863 -0.816735 0
M  V30 2128 O 204.148 1.40218 -1.08018 0
M  V30 2129 C 201.277 2.52262 -2.32849 0
M  V30 2130 C 200.363 2.36092 -3.52309 0
M  V30 2131 N 200.754 1.89674 -4.6889 0
M  V30 2132 C 199.052 2.66848 -3.57363 0
M  V30 2133 C 199.753 1.86511 -5.50989 0
M  V30 2134 N 198.729 2.29766 -4.92655 0
M  V30 2135 H 202.531 0.821793 -2.82177 0
M  V30 2136 H 200.045 0.356615 -1.58436 0
M  V30 2137 H 202.042 3.27447 -2.58039 0
M  V30 2138 H 200.702 2.89727 -1.46589 0
M  V30 2139 H 201.713 1.59663 -4.92674 0
M  V30 2140 H 198.39 3.08198 -2.81639 0
M  V30 2141 H 199.78 1.52128 -6.54452 0
M  V30 2142 N 202.5 1.5196 0.417844 0
M  V30 2143 C 203.746 1.66793 1.16411 0
M  V30 2144 C 204.101 0.388758 1.88432 0
M  V30 2145 O 203.394 -0.616409 1.81414 0
M  V30 2146 C 203.588 2.82269 2.19223 0
M  V30 2147 C 203.417 4.21293 1.57297 0
M  V30 2148 C 202.187 4.86948 1.34944 0
M  V30 2149 C 204.385 5.03704 1.03858 0
M  V30 2150 N 202.367 6.1003 0.688195 0
M  V30 2151 C 203.738 6.1795 0.503742 0
M  V30 2152 C 205.793 4.89095 0.932203 0
M  V30 2153 C 204.496 7.19188 -0.127034 0
M  V30 2154 C 206.522 5.90559 0.315293 0
M  V30 2155 C 205.884 7.0409 -0.208906 0
M  V30 2156 H 201.983 0.66407 0.412959 0
M  V30 2157 H 204.567 1.89242 0.457772 0
M  V30 2158 H 202.738 2.61451 2.87225 0
M  V30 2159 H 204.47 2.86183 2.86149 0
M  V30 2160 H 201.225 4.45156 1.61657 0
M  V30 2161 H 201.649 6.75964 0.374449 0
M  V30 2162 H 206.291 4.01557 1.32332 0
M  V30 2163 H 204.009 8.06359 -0.530231 0
M  V30 2164 H 207.595 5.81327 0.234625 0
M  V30 2165 H 206.475 7.81257 -0.67875 0
M  V30 2166 N 203.978 -0.674533 1.42435 0
M  V30 2167 C 204.91 -1.80005 1.41883 0
M  V30 2168 C 205.923 -1.59667 0.31787 0
M  V30 2169 O 207.112 -1.68781 0.580973 0
M  V30 2170 C 204.212 -3.17114 1.19549 0
M  V30 2171 C 203.385 -3.64299 2.42084 0
M  V30 2172 C 202.444 -4.80142 2.15291 0
M  V30 2173 O 201.47 -4.90673 2.88493 0
M  V30 2174 N 202.672 -5.68869 1.1562 0
M  V30 2175 H 205.437 -1.80964 2.38898 0
M  V30 2176 H 202.998 -0.857633 1.37318 0
M  V30 2177 H 204.99 -3.92267 0.995417 0
M  V30 2178 H 203.56 -3.11053 0.310569 0
M  V30 2179 H 202.78 -2.79822 2.77657 0
M  V30 2180 H 204.068 -3.92567 3.23679 0
M  V30 2181 H 203.466 -5.63012 0.550765 0
M  V30 2182 H 202.023 -6.43833 1.016 0
M  V30 2183 N 205.456 -1.28612 -0.910864 0
M  V30 2184 C 206.681 -1.1891 -1.69927 0
M  V30 2185 C 207.106 0.248372 -1.86453 0
M  V30 2186 O 206.464 1.17961 -1.37676 0
M  V30 2187 C 206.512 -1.89578 -3.06745 0
M  V30 2188 O 205.616 -1.20521 -3.94396 0
M  V30 2189 H 204.957 -0.412632 -0.520222 0
M  V30 2190 H 207.487 -1.69985 -1.1387 0
M  V30 2191 H 207.497 -1.97597 -3.56958 0
M  V30 2192 H 206.172 -2.94136 -2.94035 0
M  V30 2193 H 204.749 -1.20684 -3.52831 0
M  V30 2194 N 206.934 1.1197 -1.10907 0
M  V30 2195 C 208.159 1.87942 -0.877064 0
M  V30 2196 C 208.584 1.79341 0.567314 0
M  V30 2197 O 207.942 1.15184 1.40009 0
M  V30 2198 C 207.99 3.34926 -1.33629 0
M  V30 2199 O 207.094 4.09303 -0.504447 0
M  V30 2200 H 206.435 0.583785 -0.316371 0
M  V30 2201 H 208.965 1.4157 -1.47712 0
M  V30 2202 H 208.975 3.8577 -1.32837 0
M  V30 2203 H 207.65 3.40504 -2.3881 0
M  V30 2204 H 206.227 3.68393 -0.577993 0
M  V30 2205 N 208.412 0.89855 1.29475 0
M  V30 2206 C 209.342 0.39201 2.30186 0
M  V30 2207 C 210.323 -0.532359 1.61555 0
M  V30 2208 O 211.508 -0.443331 1.89072 0
M  V30 2209 C 208.638 -0.382353 3.45189 0
M  V30 2210 C 207.592 0.451483 4.25612 0
M  V30 2211 C 206.918 -0.450307 5.328 0
M  V30 2212 C 208.218 1.70079 4.93832 0
M  V30 2213 H 209.912 1.23362 2.72804 0
M  V30 2214 H 207.458 0.594638 1.31149 0
M  V30 2215 H 209.411 -0.747451 4.14718 0
M  V30 2216 H 208.135 -1.25774 3.01411 0
M  V30 2217 H 206.794 0.798897 3.57789 0
M  V30 2218 H 206.442 -1.32379 4.85268 0
M  V30 2219 H 206.142 0.103902 5.87508 0
M  V30 2220 H 207.666 -0.811623 6.05182 0
M  V30 2221 H 209.08 1.40549 5.55805 0
M  V30 2222 H 207.477 2.19623 5.58467 0
M  V30 2223 H 208.547 2.43744 4.19186 0
M  V30 2224 N 209.89 -1.43072 0.660911 0
M  V30 2225 C 211.136 -2.0202 0.177708 0
M  V30 2226 C 211.469 -1.52066 -1.20787 0
M  V30 2227 O 210.744 -0.716987 -1.80802 0
M  V30 2228 C 211.027 -3.59561 0.197019 0
M  V30 2229 C 210.88 -4.19727 1.61706 0
M  V30 2230 C 212.199 -4.37664 -0.462396 0
M  V30 2231 H 209.318 -0.734034 0.0660494 0
M  V30 2232 H 211.96 -1.70272 0.843058 0
M  V30 2233 H 210.11 -3.86739 -0.369527 0
M  V30 2234 H 211.782 -4.03553 2.23479 0
M  V30 2235 H 210.025 -3.76084 2.16201 0
M  V30 2236 H 210.696 -5.28834 1.58237 0
M  V30 2237 H 213.172 -4.16095 0.0197215 0
M  V30 2238 H 212.048 -5.47305 -0.418188 0
M  V30 2239 H 212.309 -4.14493 -1.53778 0
M  V30 2240 N 211.368 -0.403325 -1.52352 0
M  V30 2241 C 212.298 0.416205 -2.29761 0
M  V30 2242 C 213.279 1.05123 -1.33728 0
M  V30 2243 O 214.464 1.06134 -1.62632 0
M  V30 2244 C 211.594 1.53624 -3.11475 0
M  V30 2245 C 210.548 1.02653 -4.15507 0
M  V30 2246 C 209.874 2.23971 -4.85532 0
M  V30 2247 C 211.174 0.08463 -5.22231 0
M  V30 2248 H 212.868 -0.229701 -2.98518 0
M  V30 2249 H 210.414 -0.111913 -1.43564 0
M  V30 2250 H 212.367 2.1165 -3.64393 0
M  V30 2251 H 211.091 2.20994 -2.40477 0
M  V30 2252 H 209.75 0.46871 -3.63591 0
M  V30 2253 H 209.398 2.89883 -4.11068 0
M  V30 2254 H 209.098 1.90521 -5.55856 0
M  V30 2255 H 210.622 2.82614 -5.41259 0
M  V30 2256 H 212.036 0.573509 -5.70424 0
M  V30 2257 H 210.433 -0.160783 -5.99885 0
M  V30 2258 H 211.503 -0.86237 -4.7717 0
M  V30 2259 N 212.846 1.57033 -0.133567 0
M  V30 2260 C 213.776 2.1909 0.807567 0
M  V30 2261 C 214.757 1.13517 1.26681 0
M  V30 2262 O 215.942 1.41809 1.32679 0
M  V30 2263 C 213.072 2.80188 2.05212 0
M  V30 2264 C 212.026 3.91471 1.73015 0
M  V30 2265 C 211.352 4.39443 3.04622 0
M  V30 2266 C 212.652 5.12886 0.987168 0
M  V30 2267 H 214.346 2.97988 0.290403 0
M  V30 2268 H 211.892 1.43335 0.138239 0
M  V30 2269 H 213.845 3.22264 2.71521 0
M  V30 2270 H 212.569 1.98601 2.59278 0
M  V30 2271 H 211.228 3.49993 1.0909 0
M  V30 2272 H 210.876 3.54695 3.56651 0
M  V30 2273 H 210.576 5.14495 2.83847 0
M  V30 2274 H 212.1 4.8418 3.72024 0
M  V30 2275 H 213.514 5.51891 1.55208 0
M  V30 2276 H 211.911 5.93615 0.87985 0
M  V30 2277 H 212.981 4.84894 -0.0235286 0
M  V30 2278 N 214.325 -0.140222 1.56975 0
M  V30 2279 C 215.288 -1.15689 1.97861 0
M  V30 2280 C 216.288 -1.3549 0.865974 0
M  V30 2281 O 217.478 -1.32367 1.13246 0
M  V30 2282 C 214.61 -2.51582 2.30042 0
M  V30 2283 H 215.803 -0.805971 2.88867 0
M  V30 2284 H 213.356 -0.383801 1.51515 0
M  V30 2285 H 214.091 -2.91632 1.41849 0
M  V30 2286 H 213.876 -2.38569 3.11171 0
M  V30 2287 H 215.366 -3.24792 2.62488 0
M  V30 2288 N 215.803 -1.52179 -0.40978 0
M  V30 2289 C 217.219 -1.40968 -0.74835 0
M  V30 2290 C 217.419 -0.513657 -1.94843 0
M  V30 2291 O 216.475 0.0208026 -2.52491 0
M  V30 2292 C 217.788 -2.83483 -1.0029 0
M  V30 2293 C 219.336 -2.92821 -1.10565 0
M  V30 2294 C 219.811 -4.36303 -1.39296 0
M  V30 2295 N 221.302 -4.39535 -1.46162 0
M  V30 2296 C 222.037 -5.47614 -1.70018 0
M  V30 2297 N 221.533 -6.65812 -1.91483 0
M  V30 2298 N 223.326 -5.35129 -1.72027 0
M  V30 2299 H 215.477 -2.0897 0.380186 0
M  V30 2300 H 217.74 -0.94185 0.107805 0
M  V30 2301 H 217.446 -3.51168 -0.193461 0
M  V30 2302 H 217.32 -3.24487 -1.92323 0
M  V30 2303 H 219.707 -2.25318 -1.90568 0
M  V30 2304 H 219.788 -2.55276 -0.16369 0
M  V30 2305 H 219.432 -5.04366 -0.598109 0
M  V30 2306 H 219.362 -4.71385 -2.34743 0
M  V30 2307 H 221.853 -3.54332 -1.31367 0
M  V30 2308 H 222.166 -7.43964 -2.09134 0
M  V30 2309 H 220.511 -6.68879 -1.88749 0
M  V30 2310 H 223.702 -4.41764 -1.54796 0
M  V30 2311 H 223.875 -6.19433 -1.9028 0
M  V30 2312 N 217.281 0.66697 -1.42791 0
M  V30 2313 C 218.558 1.4234 -1.34159 0
M  V30 2314 C 218.938 2.11093 0.0172729 0
M  V30 2315 O 218.286 2.03808 1.03318 0
M  V30 2316 C 218.496 2.41942 -2.51526 0
M  V30 2317 C 219.844 3.06353 -2.93995 0
M  V30 2318 O 220.868 2.52269 -2.51473 0
M  V30 2319 O 219.727 4.04376 -3.67617 0
M  V30 2320 H 216.821 0.635277 -0.529483 0
M  V30 2321 H 219.367 0.695034 -1.54814 0
M  V30 2322 H 218.139 1.89991 -3.42081 0
M  V30 2323 H 217.762 3.22249 -2.32898 0
M  V30 2324 N 218.759 1.29093 0.90403 0
M  V30 2325 C 219.722 1.1386 1.98919 0
M  V30 2326 C 220.722 0.0753457 1.60623 0
M  V30 2327 O 221.912 0.321931 1.71199 0
M  V30 2328 C 219.044 0.740198 3.32767 0
M  V30 2329 H 220.237 2.10246 2.13861 0
M  V30 2330 H 217.79 1.12218 1.08797 0
M  V30 2331 H 218.525 -0.223997 3.23525 0
M  V30 2332 H 218.31 1.50838 3.61926 0
M  V30 2333 H 219.8 0.656546 4.12407 0
M  V30 2334 N 220.237 -1.11381 1.11499 0
M  V30 2335 C 221.184 -2.17439 0.773887 0
M  V30 2336 C 222.154 -1.64132 -0.254899 0
M  V30 2337 O 223.339 -1.90345 -0.13168 0
M  V30 2338 C 220.479 -3.44373 0.223917 0
M  V30 2339 C 219.592 -4.1168 1.30934 0
M  V30 2340 C 218.727 -5.263 0.71984 0
M  V30 2341 C 217.766 -5.85493 1.78507 0
M  V30 2342 N 216.903 -6.91507 1.21502 0
M  V30 2343 H 221.743 -2.45962 1.68246 0
M  V30 2344 H 219.28 -1.20744 0.840191 0
M  V30 2345 H 221.238 -4.17047 -0.112921 0
M  V30 2346 H 219.868 -3.16232 -0.647851 0
M  V30 2347 H 218.92 -3.37073 1.76312 0
M  V30 2348 H 220.232 -4.51729 2.11524 0
M  V30 2349 H 219.386 -6.05785 0.333094 0
M  V30 2350 H 218.125 -4.87559 -0.117377 0
M  V30 2351 H 217.13 -5.04686 2.18111 0
M  V30 2352 H 218.355 -6.26301 2.62533 0
M  V30 2353 H 216.301 -6.54783 0.399455 0
M  V30 2354 H 216.218 -7.30214 1.95763 0
M  V30 2355 H 217.486 -7.74795 0.855181 0
M  V30 2356 N 221.715 -0.905404 -1.28997 0
M  V30 2357 C 222.963 -0.533192 -1.9494 0
M  V30 2358 C 223.284 0.924618 -1.71685 0
M  V30 2359 O 222.554 1.65268 -1.05183 0
M  V30 2360 H 221.134 -0.194194 -0.721317 0
M  V30 2361 H 223.796 -1.15294 -1.57141 0
M  V30 2362 H 222.892 -0.72059 -3.03667 0
M  V30 2363 N 223.193 1.4272 -0.668489 0
M  V30 2364 C 224.44 2.01624 -0.18814 0
M  V30 2365 C 224.768 1.5282 1.20317 0
M  V30 2366 O 224.023 0.718323 1.8204 0
M  V30 2367 C 224.322 3.57021 -0.164499 0
M  V30 2368 C 223.988 4.25232 -1.49962 0
M  V30 2369 C 222.65 4.4358 -1.8652 0
M  V30 2370 C 225.002 4.63727 -2.37921 0
M  V30 2371 C 222.33 4.97694 -3.10674 0
M  V30 2372 C 224.682 5.19218 -3.6138 0
M  V30 2373 C 223.346 5.3578 -3.98115 0
M  V30 2374 H 222.616 0.737795 -0.0688454 0
M  V30 2375 H 225.263 1.70991 -0.862225 0
M  V30 2376 H 223.568 3.87285 0.593079 0
M  V30 2377 H 225.265 4.00372 0.224271 0
M  V30 2378 H 221.855 4.11306 -1.20522 0
M  V30 2379 H 226.039 4.4923 -2.10964 0
M  V30 2380 H 221.295 5.08702 -3.39164 0
M  V30 2381 H 225.469 5.4799 -4.29743 0
M  V30 2382 H 223.096 5.77475 -4.94395 0
M  V30 2383 N 224.671 0.411399 1.52136 0
M  V30 2384 C 225.634 -0.401089 2.25663 0
M  V30 2385 C 226.634 -0.971732 1.28117 0
M  V30 2386 O 227.824 -0.850254 1.52041 0
M  V30 2387 C 224.956 -1.56483 3.02863 0
M  V30 2388 H 226.149 0.24295 2.98914 0
M  V30 2389 H 223.702 0.163968 1.55438 0
M  V30 2390 H 224.437 -2.24567 2.33967 0
M  V30 2391 H 224.222 -1.16211 3.74483 0
M  V30 2392 H 225.712 -2.13951 3.58629 0
M  V30 2393 N 226.149 -1.5696 0.141893 0
M  V30 2394 C 227.374 -2.00754 -0.520838 0
M  V30 2395 C 227.799 -1.0213 -1.57959 0
M  V30 2396 O 227.157 0.00371324 -1.813 0
M  V30 2397 C 227.205 -3.43318 -1.10294 0
M  V30 2398 O 226.309 -3.47679 -2.21795 0
M  V30 2399 H 225.65 -0.651564 -0.127908 0
M  V30 2400 H 228.18 -2.03221 0.23712 0
M  V30 2401 H 228.19 -3.82012 -1.43287 0
M  V30 2402 H 226.865 -4.14608 -0.327574 0
M  V30 2403 H 225.442 -3.20824 -1.9007 0
M  V30 2404 N 227.627 0.131896 -1.57047 0
M  V30 2405 C 228.873 0.843179 -1.84441 0
M  V30 2406 C 229.206 1.80129 -0.725749 0
M  V30 2407 O 228.481 1.92624 0.269469 0
M  V30 2408 C 228.764 1.60442 -3.22382 0
M  V30 2409 C 228.617 0.666782 -4.4483 0
M  V30 2410 C 229.936 2.56354 -3.5773 0
M  V30 2411 H 227.055 0.305081 -0.670891 0
M  V30 2412 H 229.697 0.107839 -1.89694 0
M  V30 2413 H 227.847 2.23128 -3.18035 0
M  V30 2414 H 229.519 0.0497646 -4.61273 0
M  V30 2415 H 227.762 -0.022609 -4.33794 0
M  V30 2416 H 228.433 1.23579 -5.37989 0
M  V30 2417 H 230.909 2.0378 -3.62785 0
M  V30 2418 H 229.785 3.06657 -4.5525 0
M  V30 2419 H 230.046 3.38419 -2.84473 0
M  V30 2420 N 229.106 1.52395 0.401703 0
M  V30 2421 C 230.346 1.68498 1.15705 0
M  V30 2422 C 230.71 0.409748 1.87577 0
M  V30 2423 O 231.911 0.446983 2.65058 0
M  V30 2424 C 230.182 2.87789 2.11924 0
M  V30 2425 S 231.741 3.24415 2.95466 0
M  V30 2426 H 228.559 0.593267 0.391862 0
M  V30 2427 H 231.161 1.90408 0.443282 0
M  V30 2428 H 229.865 3.7884 1.57824 0
M  V30 2429 H 229.396 2.68175 2.87829 0
M  V30 2430 H 231.411 2.73614 4.13944 0
M  V30 2431 N 230.584 -0.659388 1.43143 0
M  V30 2432 C 231.814 -1.44513 1.47646 0
M  V30 2433 C 232.222 -1.88981 0.0910095 0
M  V30 2434 O 231.565 -1.59702 -0.907789 0
M  V30 2435 C 231.627 -2.71663 2.35456 0
M  V30 2436 C 231.291 -2.49175 3.83094 0
M  V30 2437 C 232.288 -2.1279 4.74359 0
M  V30 2438 C 229.973 -2.63691 4.27519 0
M  V30 2439 C 231.967 -1.9121 6.08044 0
M  V30 2440 C 229.654 -2.41726 5.61259 0
M  V30 2441 C 230.652 -2.0554 6.51339 0
M  V30 2442 O 230.34 -1.838 7.82606 0
M  V30 2443 H 230.072 -0.45064 0.503884 0
M  V30 2444 H 232.626 -0.816248 1.88485 0
M  V30 2445 H 230.856 -3.37089 1.89493 0
M  V30 2446 H 232.545 -3.33595 2.31235 0
M  V30 2447 H 233.311 -2.01157 4.41317 0
M  V30 2448 H 229.19 -2.90832 3.57684 0
M  V30 2449 H 232.734 -1.62889 6.78316 0
M  V30 2450 H 228.631 -2.52959 5.9387 0
M  V30 2451 H 229.399 -1.98275 7.94122 0
M  V30 2452 N 232.062 -1.29571 -0.897171 0
M  V30 2453 C 233.339 -1.08365 -1.62839 0
M  V30 2454 C 233.719 0.371331 -2.07808 0
M  V30 2455 O 233.067 1.3606 -1.83576 0
M  V30 2456 C 233.277 -2.0735 -2.80726 0
M  V30 2457 C 234.625 -2.38406 -3.51351 0
M  V30 2458 O 235.649 -2.05564 -2.90898 0
M  V30 2459 O 234.508 -2.9453 -4.60341 0
M  V30 2460 H 231.602 -0.415345 -0.715134 0
M  V30 2461 H 234.148 -1.40952 -0.945018 0
M  V30 2462 H 232.92 -3.05339 -2.44711 0
M  V30 2463 H 232.543 -1.75507 -3.56767 0
M  V30 2464 N 233.54 1.10788 -1.12088 0
M  V30 2465 C 234.817 1.79136 -0.785476 0
M  V30 2466 C 235.197 1.98246 0.725377 0
M  V30 2467 O 234.545 1.57258 1.65778 0
M  V30 2468 C 234.755 3.12375 -1.55636 0
M  V30 2469 C 236.103 3.8731 -1.74001 0
M  V30 2470 O 237.127 3.22085 -1.52117 0
M  V30 2471 O 235.986 5.04369 -2.10415 0
M  V30 2472 H 233.08 0.776226 -0.285311 0
M  V30 2473 H 235.626 1.1747 -1.2247 0
M  V30 2474 H 234.398 2.93863 -2.5838 0
M  V30 2475 H 234.021 3.81758 -1.11114 0
M  V30 2476 N 235.018 0.912232 1.28515 0
M  V30 2477 C 235.928 0.404506 2.31086 0
M  V30 2478 C 236.944 -0.50707 1.66448 0
M  V30 2479 O 238.12 -0.393624 1.97516 0
M  V30 2480 C 235.185 -0.348572 3.44943 0
M  V30 2481 C 234.246 0.59604 4.25142 0
M  V30 2482 C 233.479 -0.121194 5.33562 0
M  V30 2483 O 233.702 -1.34317 5.5436 0
M  V30 2484 O 232.636 0.542716 5.99448 0
M  V30 2485 H 236.462 1.25579 2.76521 0
M  V30 2486 H 234.047 0.676998 1.33181 0
M  V30 2487 H 235.929 -0.77395 4.14232 0
M  V30 2488 H 234.604 -1.17571 3.01594 0
M  V30 2489 H 233.511 1.07079 3.58448 0
M  V30 2490 H 234.844 1.38995 4.72167 0
M  V30 2491 N 236.496 -1.42363 0.676048 0
M  V30 2492 C 237.744 -2.01123 0.198437 0
M  V30 2493 C 238.065 -1.53731 -1.19966 0
M  V30 2494 O 237.335 -0.759518 -1.80577 0
M  V30 2495 H 235.915 -0.743678 0.0703721 0
M  V30 2496 H 238.577 -1.74263 0.872837 0
M  V30 2497 H 237.673 -3.11454 0.200686 0
M  V30 2498 N 237.974 -0.419461 -1.51915 0
M  V30 2499 C 238.937 0.389116 -2.25873 0
M  V30 2500 C 239.937 0.964924 -1.28631 0
M  V30 2501 O 241.127 0.842179 -1.52489 0
M  V30 2502 C 238.259 1.54874 -3.03689 0
M  V30 2503 H 239.452 -0.258799 -2.98781 0
M  V30 2504 H 237.005 -0.172209 -1.55348 0
M  V30 2505 H 237.74 2.23323 -2.35154 0
M  V30 2506 H 237.525 1.14223 -3.75094 0
M  V30 2507 H 239.015 2.12046 -3.59759 0
M  V30 2508 N 239.452 1.56882 -0.150215 0
M  V30 2509 C 240.701 1.95403 0.500071 0
M  V30 2510 C 241.014 1.03777 1.658 0
M  V30 2511 O 242.22 1.31889 2.37313 0
M  V30 2512 C 240.676 3.4738 0.941018 0
M  V30 2513 C 240.284 4.47596 -0.190158 0
M  V30 2514 C 242.028 3.9476 1.56091 0
M  V30 2515 C 239.935 5.90787 0.269237 0
M  V30 2516 H 238.865 0.729515 0.190588 0
M  V30 2517 H 241.516 1.81988 -0.235074 0
M  V30 2518 H 239.898 3.56138 1.73152 0
M  V30 2519 H 241.072 4.50536 -0.967157 0
M  V30 2520 H 239.387 4.10151 -0.718666 0
M  V30 2521 H 241.984 4.99181 1.9163 0
M  V30 2522 H 242.327 3.36494 2.45107 0
M  V30 2523 H 242.86 3.88932 0.835249 0
M  V30 2524 H 239.599 6.52879 -0.585621 0
M  V30 2525 H 239.119 5.912 1.01204 0
M  V30 2526 H 240.798 6.42979 0.720176 0
M  V30 2527 N 240.93 -0.123565 1.57115 0
M  V30 2528 C 241.877 -1.15177 2.00007 0
M  V30 2529 C 242.847 -1.41403 0.871454 0
M  V30 2530 O 244.032 -1.53346 1.13533 0
M  V30 2531 C 241.172 -2.47436 2.40561 0
M  V30 2532 C 240.285 -2.28184 3.66819 0
M  V30 2533 C 239.42 -3.53641 3.96373 0
M  V30 2534 C 238.459 -3.29528 5.15827 0
M  V30 2535 N 237.596 -4.47175 5.41275 0
M  V30 2536 H 242.436 -0.779008 2.87638 0
M  V30 2537 H 239.973 -0.373166 1.42288 0
M  V30 2538 H 241.931 -3.24584 2.62109 0
M  V30 2539 H 240.561 -2.82614 1.55978 0
M  V30 2540 H 239.613 -1.41976 3.52912 0
M  V30 2541 H 240.925 -2.0634 4.5412 0
M  V30 2542 H 240.079 -4.39209 4.18545 0
M  V30 2543 H 238.818 -3.78512 3.07538 0
M  V30 2544 H 237.823 -2.42349 4.93505 0
M  V30 2545 H 239.048 -3.06031 6.06236 0
M  V30 2546 H 236.994 -4.72175 4.55397 0
M  V30 2547 H 236.911 -4.28419 6.22891 0
M  V30 2548 H 238.179 -5.3389 5.67963 0
M  V30 2549 N 242.408 -1.52605 -0.393616 0
M  V30 2550 C 243.657 -1.66649 -1.13627 0
M  V30 2551 C 243.97 -0.410364 -1.91247 0
M  V30 2552 O 245.176 -0.430854 -2.68059 0
M  V30 2553 C 243.632 -2.9449 -2.06891 0
M  V30 2554 C 243.24 -4.27266 -1.34714 0
M  V30 2555 C 244.984 -3.17899 -2.81319 0
M  V30 2556 C 242.891 -5.46217 -2.26717 0
M  V30 2557 H 241.821 -0.62084 -0.427871 0
M  V30 2558 H 244.472 -1.791 -0.399428 0
M  V30 2559 H 242.854 -2.75774 -2.84191 0
M  V30 2560 H 244.028 -4.56518 -0.626714 0
M  V30 2561 H 242.343 -4.10081 -0.722643 0
M  V30 2562 H 244.94 -4.03949 -3.50328 0
M  V30 2563 H 245.283 -2.32777 -3.45139 0
M  V30 2564 H 245.816 -3.37159 -2.11113 0
M  V30 2565 H 242.555 -6.33733 -1.67521 0
M  V30 2566 H 242.075 -5.21283 -2.96689 0
M  V30 2567 H 243.754 -5.7991 -2.86903 0
M  V30 2568 N 243.887 0.651787 -1.4349 0
M  V30 2569 C 244.817 1.77621 -1.51569 0
M  V30 2570 C 245.798 1.66022 -0.370253 0
M  V30 2571 O 246.983 1.85095 -0.587658 0
M  V30 2572 C 244.113 3.16056 -1.43966 0
M  V30 2573 C 243.067 3.4242 -2.56774 0
M  V30 2574 C 242.393 4.8067 -2.34223 0
M  V30 2575 C 243.693 3.37023 -3.99015 0
M  V30 2576 H 245.387 1.71117 -2.45681 0
M  V30 2577 H 242.933 0.821825 -1.18246 0
M  V30 2578 H 244.886 3.94472 -1.48221 0
M  V30 2579 H 243.61 3.23293 -0.463586 0
M  V30 2580 H 242.269 2.66375 -2.51873 0
M  V30 2581 H 241.917 4.84585 -1.34856 0
M  V30 2582 H 241.617 4.9927 -3.09844 0
M  V30 2583 H 243.141 5.61342 -2.40265 0
M  V30 2584 H 244.555 4.05374 -4.05395 0
M  V30 2585 H 242.952 3.67159 -4.74673 0
M  V30 2586 H 244.022 2.3518 -4.2405 0
M  V30 2587 N 245.365 1.30045 0.890287 0
M  V30 2588 C 246.298 1.10301 1.99772 0
M  V30 2589 C 247.276 0.0121631 1.62595 0
M  V30 2590 O 248.46 0.16469 1.87779 0
M  V30 2591 C 245.587 0.681125 3.31781 0
M  V30 2592 C 244.633 1.77206 3.87944 0
M  V30 2593 S 245.466 3.37335 4.15891 0
M  V30 2594 C 246.622 2.97036 5.50927 0
M  V30 2595 H 246.855 2.04057 2.16213 0
M  V30 2596 H 244.388 1.14299 1.03804 0
M  V30 2597 H 246.346 0.444439 4.08087 0
M  V30 2598 H 245.007 -0.236981 3.13205 0
M  V30 2599 H 244.2 1.42903 4.83316 0
M  V30 2600 H 243.802 1.96275 3.18358 0
M  V30 2601 H 246.094 2.44666 6.31779 0
M  V30 2602 H 247.037 3.91296 5.90164 0
M  V30 2603 H 247.445 2.35057 5.13233 0
M  V30 2604 N 246.843 -1.10192 1.12674 0
M  V30 2605 C 247.775 -2.16418 0.754701 0
M  V30 2606 C 248.788 -1.61309 -0.21986 0
M  V30 2607 O 249.977 -1.785 -0.000826841 0
M  V30 2608 C 247.077 -3.38762 0.096698 0
M  V30 2609 C 246.25 -4.23307 1.10136 0
M  V30 2610 C 245.309 -5.24092 0.470513 0
M  V30 2611 O 244.335 -5.57906 1.12824 0
M  V30 2612 N 245.537 -5.75491 -0.760948 0
M  V30 2613 H 248.302 -2.48943 1.66875 0
M  V30 2614 H 245.863 -1.25834 1.01869 0
M  V30 2615 H 247.855 -4.03291 -0.337384 0
M  V30 2616 H 246.425 -3.04192 -0.720153 0
M  V30 2617 H 245.645 -3.55036 1.71299 0
M  V30 2618 H 246.933 -4.76624 1.78064 0
M  V30 2619 H 246.331 -5.50222 -1.31424 0
M  V30 2620 H 244.888 -6.41792 -1.13781 0
M  V30 2621 N 248.321 -0.919034 -1.28029 0
M  V30 2622 C 249.737 -0.617972 -1.4715 0
M  V30 2623 C 249.937 0.835242 -1.83374 0
M  V30 2624 O 248.993 1.61388 -1.94191 0
M  V30 2625 C 250.306 -1.56041 -2.57044 0
M  V30 2626 C 251.854 -1.56769 -2.7091 0
M  V30 2627 C 252.329 -2.49688 -3.83953 0
M  V30 2628 N 253.82 -2.47845 -3.91314 0
M  V30 2629 C 254.555 -3.16437 -4.78179 0
M  V30 2630 N 254.051 -3.94376 -5.69596 0
M  V30 2631 N 255.844 -3.05498 -4.71834 0
M  V30 2632 H 247.995 -1.85866 -1.02798 0
M  V30 2633 H 250.258 -0.797506 -0.512531 0
M  V30 2634 H 249.964 -2.59671 -2.372 0
M  V30 2635 H 249.838 -1.29551 -3.54255 0
M  V30 2636 H 252.225 -0.538745 -2.90141 0
M  V30 2637 H 252.306 -1.87305 -1.74214 0
M  V30 2638 H 251.95 -3.52688 -3.65477 0
M  V30 2639 H 251.88 -2.16453 -4.80058 0
M  V30 2640 H 254.371 -1.91234 -3.25941 0
M  V30 2641 H 254.684 -4.43721 -6.32718 0
M  V30 2642 H 253.029 -3.98481 -5.69419 0
M  V30 2643 H 256.22 -2.44108 -3.99411 0
M  V30 2644 H 256.393 -3.59225 -5.39316 0
M  V30 2645 N 249.799 1.42003 -0.683588 0
M  V30 2646 C 250.729 2.33487 -0.024866 0
M  V30 2647 C 251.71 1.51163 0.779975 0
M  V30 2648 O 252.895 1.79739 0.735362 0
M  V30 2649 C 250.025 3.3487 0.920836 0
M  V30 2650 C 248.979 4.27414 0.223958 0
M  V30 2651 C 248.305 5.19074 1.2832 0
M  V30 2652 C 249.605 5.14445 -0.90242 0
M  V30 2653 H 251.299 2.88819 -0.788921 0
M  V30 2654 H 248.845 1.38873 -0.38083 0
M  V30 2655 H 250.798 3.97787 1.39081 0
M  V30 2656 H 249.522 2.77861 1.71642 0
M  V30 2657 H 248.181 3.65904 -0.225864 0
M  V30 2658 H 247.829 4.58387 2.071 0
M  V30 2659 H 247.529 5.81822 0.821995 0
M  V30 2660 H 249.053 5.84867 1.75392 0
M  V30 2661 H 250.467 5.70998 -0.513272 0
M  V30 2662 H 248.864 5.86072 -1.28997 0
M  V30 2663 H 249.934 4.52322 -1.74737 0
M  V30 2664 N 251.277 0.427512 1.51691 0
M  V30 2665 C 252.507 -0.140986 2.06118 0
M  V30 2666 C 252.915 -1.37854 1.29588 0
M  V30 2667 O 252.258 -1.80411 0.346036 0
M  V30 2668 C 252.32 -0.538276 3.55447 0
M  V30 2669 C 251.984 0.591095 4.53161 0
M  V30 2670 C 252.981 1.46027 4.98971 0
M  V30 2671 C 250.666 0.769028 4.96378 0
M  V30 2672 C 252.66 2.49216 5.8666 0
M  V30 2673 C 250.347 1.80421 5.83859 0
M  V30 2674 C 251.345 2.66417 6.28897 0
M  V30 2675 O 251.033 3.68159 7.14643 0
M  V30 2676 H 250.765 -0.0157455 0.675817 0
M  V30 2677 H 253.319 0.602495 1.96365 0
M  V30 2678 H 251.549 -1.33432 3.6295 0
M  V30 2679 H 253.238 -1.0368 3.92435 0
M  V30 2680 H 254.004 1.33429 4.66285 0
M  V30 2681 H 249.883 0.109273 4.6087 0
M  V30 2682 H 253.427 3.16372 6.21735 0
M  V30 2683 H 249.324 1.93042 6.15959 0
M  V30 2684 H 250.092 3.64622 7.32798 0
M  V30 2685 N 252.755 -1.56801 0.158532 0
M  V30 2686 C 254.032 -1.88131 -0.535357 0
M  V30 2687 C 254.412 -1.06638 -1.82186 0
M  V30 2688 O 253.76 -0.156533 -2.27963 0
M  V30 2689 C 253.97 -3.39949 -0.789653 0
M  V30 2690 C 255.318 -4.09416 -1.12533 0
M  V30 2691 O 256.342 -3.45194 -0.878622 0
M  V30 2692 O 255.201 -5.22855 -1.59014 0
M  V30 2693 H 252.295 -0.780143 -0.27442 0
M  V30 2694 H 254.841 -1.68564 0.19601 0
M  V30 2695 H 253.613 -3.91115 0.120353 0
M  V30 2696 H 253.236 -3.65084 -1.57479 0
M  V30 2697 N 254.233 0.115231 -1.57178 0
M  V30 2698 C 255.165 1.16694 -1.97269 0
M  V30 2699 C 256.178 1.37445 -0.872502 0
M  V30 2700 O 257.367 1.36454 -1.15077 0
M  V30 2701 C 254.467 2.52627 -2.25905 0
M  V30 2702 C 253.64 2.52427 -3.57211 0
M  V30 2703 C 252.699 3.70134 -3.74016 0
M  V30 2704 O 251.725 3.53546 -4.46087 0
M  V30 2705 N 252.927 4.88844 -3.13068 0
M  V30 2706 H 255.692 0.82588 -2.88096 0
M  V30 2707 H 253.253 0.304461 -1.59011 0
M  V30 2708 H 255.245 3.29937 -2.34359 0
M  V30 2709 H 253.815 2.789 -1.41186 0
M  V30 2710 H 253.035 1.60805 -3.5991 0
M  V30 2711 H 254.323 2.49353 -4.43509 0
M  V30 2712 H 253.721 5.05225 -2.54489 0
M  V30 2713 H 252.278 5.63817 -3.27037 0
M  V30 2714 N 255.711 1.52812 0.385517 0
M  V30 2715 C 256.959 1.67694 1.12797 0
M  V30 2716 C 257.28 0.421115 1.90399 0
M  V30 2717 O 256.55 -0.564551 1.87589 0
M  V30 2718 H 255.13 0.618155 0.419396 0
M  V30 2719 H 257.792 1.89938 0.436972 0
M  V30 2720 H 256.888 2.52896 1.82894 0
M  V30 2721 N 257.189 -0.644168 1.43834 0
M  V30 2722 C 258.139 -1.7501 1.46135 0
M  V30 2723 C 259.123 -1.57507 0.328685 0
M  V30 2724 O 260.315 -1.67465 0.5731 0
M  V30 2725 C 257.444 -3.13641 1.39585 0
M  V30 2726 C 256.53 -3.3666 2.57916 0
M  V30 2727 N 256.921 -3.30107 3.83227 0
M  V30 2728 C 255.219 -3.67411 2.52834 0
M  V30 2729 C 255.92 -3.53456 4.61999 0
M  V30 2730 N 254.896 -3.75705 3.9287 0
M  V30 2731 H 258.698 -1.68382 2.40883 0
M  V30 2732 H 256.212 -0.846169 1.38614 0
M  V30 2733 H 258.209 -3.92933 1.39317 0
M  V30 2734 H 256.869 -3.21444 0.45865 0
M  V30 2735 H 257.88 -3.09316 4.15384 0
M  V30 2736 H 254.557 -3.82275 1.67845 0
M  V30 2737 H 255.947 -3.54093 5.71024 0
M  V30 2738 N 258.668 -1.30515 -0.883378 0
M  V30 2739 C 260.084 -1.08881 -1.16692 0
M  V30 2740 C 260.284 0.149409 -2.00945 0
M  V30 2741 O 259.34 0.84257 -2.38027 0
M  V30 2742 C 260.653 -2.35319 -1.87204 0
M  V30 2743 C 262.201 -2.40799 -1.99962 0
M  V30 2744 C 262.676 -3.67083 -2.73887 0
M  V30 2745 N 264.167 -3.679 -2.81432 0
M  V30 2746 C 264.902 -4.62303 -3.3921 0
M  V30 2747 N 264.398 -5.67052 -3.98025 0
M  V30 2748 N 266.191 -4.49845 -3.3704 0
M  V30 2749 H 258.342 -2.09951 -0.321633 0
M  V30 2750 H 260.605 -0.92556 -0.205043 0
M  V30 2751 H 260.311 -3.25689 -1.3274 0
M  V30 2752 H 260.185 -2.44089 -2.87577 0
M  V30 2753 H 262.572 -1.50907 -2.53597 0
M  V30 2754 H 262.653 -2.36003 -0.98673 0
M  V30 2755 H 262.297 -4.57334 -2.20925 0
M  V30 2756 H 262.227 -3.69141 -3.75556 0
M  V30 2757 H 264.718 -2.92171 -2.39676 0
M  V30 2758 H 265.031 -6.35184 -4.40183 0
M  V30 2759 H 263.376 -5.70842 -3.96439 0
M  V30 2760 H 266.567 -3.67194 -2.90321 0
M  V30 2761 H 266.74 -5.23597 -3.81772 0
M  V30 2762 N 260.146 1.09593 -1.13257 0
M  V30 2763 C 261.094 2.18271 -0.803783 0
M  V30 2764 C 262.088 1.68054 0.213148 0
M  V30 2765 O 263.294 1.79862 0.0704699 0
M  V30 2766 H 259.669 0.711949 -0.242143 0
M  V30 2767 H 261.64 2.43235 -1.72856 0
M  V30 2768 C 260.389 3.46536 -0.28424 0
M  V30 2769 H 259.712 3.85545 -1.05807 0
M  V30 2770 H 261.152 4.23899 -0.0925945 0
M  V30 2771 C 259.611 3.22036 0.989684 0
M  V30 2772 O 260.141 3.44509 2.06584 0
M  V30 2773 N 258.347 2.7565 0.920086 0
M  V30 2774 H 257.894 2.57562 0.0442019 0
M  V30 2775 H 257.852 2.59635 1.77306 0
M  V30 2776 N 261.624 0.925811 1.2754 0
M  V30 2777 C 262.873 0.561084 1.93739 0
M  V30 2778 C 263.186 -0.901685 1.73577 0
M  V30 2779 O 264.392 -1.37511 2.34101 0
M  V30 2780 C 262.848 0.952668 3.47062 0
M  V30 2781 C 262.456 2.43599 3.75983 0
M  V30 2782 C 264.2 0.659103 4.19352 0
M  V30 2783 C 262.107 2.76707 5.22673 0
M  V30 2784 H 261.037 0.206122 0.725279 0
M  V30 2785 H 263.688 1.12637 1.44863 0
M  V30 2786 H 262.07 0.316053 3.94737 0
M  V30 2787 H 263.244 3.12035 3.39073 0
M  V30 2788 H 261.559 2.70125 3.16893 0
M  V30 2789 H 264.156 0.882985 5.27359 0
M  V30 2790 H 264.499 -0.403607 4.14339 0
M  V30 2791 H 265.032 1.25473 3.77494 0
M  V30 2792 H 261.771 3.8188 5.32774 0
M  V30 2793 H 261.291 2.12919 5.60737 0
M  V30 2794 H 262.97 2.6435 5.90532 0
M  V30 2795 N 263.102 -1.41638 0.69111 0
M  V30 2796 C 264.327 -2.06148 0.227583 0
M  V30 2797 C 264.752 -1.51652 -1.11281 0
M  V30 2798 O 264.11 -0.64164 -1.69566 0
M  V30 2799 C 264.158 -3.60095 0.190858 0
M  V30 2800 O 263.262 -4.03845 -0.835664 0
M  V30 2801 H 262.603 -0.654434 0.112306 0
M  V30 2802 H 265.133 -1.81484 0.944714 0
M  V30 2803 H 265.143 -4.07995 0.020207 0
M  V30 2804 H 263.818 -3.99129 1.16915 0
M  V30 2805 H 262.395 -3.67458 -0.63473 0
M  V30 2806 N 264.58 -0.43555 -1.51462 0
M  V30 2807 C 265.81 0.130053 -2.0619 0
M  V30 2808 C 266.218 1.37164 -1.30317 0
M  V30 2809 O 265.561 1.80225 -0.355598 0
M  V30 2810 C 265.623 0.519418 -3.55728 0
M  V30 2811 C 265.287 -0.615119 -4.52841 0
M  V30 2812 C 266.284 -1.48671 -4.9819 0
M  V30 2813 C 263.969 -0.795341 -4.95963 0
M  V30 2814 C 265.963 -2.52324 -5.8533 0
M  V30 2815 C 263.65 -1.83514 -5.82894 0
M  V30 2816 C 264.648 -2.69748 -6.27475 0
M  V30 2817 O 264.336 -3.71944 -7.1268 0
M  V30 2818 H 264.068 0.0121612 -0.675891 0
M  V30 2819 H 266.622 -0.6129 -1.96043 0
M  V30 2820 H 264.852 1.31505 -3.63653 0
M  V30 2821 H 266.541 1.01597 -3.92979 0
M  V30 2822 H 267.307 -1.359 -4.65571 0
M  V30 2823 H 263.186 -0.133713 -4.60806 0
M  V30 2824 H 266.73 -3.19665 -6.20048 0
M  V30 2825 H 262.627 -1.96306 -6.14926 0
M  V30 2826 H 263.395 -3.68503 -7.30854 0
M  V30 2827 N 266.058 1.56714 -0.166846 0
M  V30 2828 C 266.988 2.20754 0.760913 0
M  V30 2829 C 267.969 1.16178 1.24244 0
M  V30 2830 O 269.154 1.44592 1.29641 0
M  V30 2831 C 266.284 2.84478 1.99223 0
M  V30 2832 C 265.238 3.95053 1.64672 0
M  V30 2833 C 264.564 4.45805 2.95232 0
M  V30 2834 C 265.864 5.14865 0.878155 0
M  V30 2835 H 267.558 2.98537 0.22713 0
M  V30 2836 H 265.104 1.43596 0.107805 0
M  V30 2837 H 267.057 3.27951 2.64624 0
M  V30 2838 H 265.781 2.04056 2.55007 0
M  V30 2839 H 264.44 3.52228 1.01641 0
M  V30 2840 H 264.088 3.62181 3.49047 0
M  V30 2841 H 263.788 5.204 2.7287 0
M  V30 2842 H 265.312 4.91962 3.6167 0
M  V30 2843 H 266.726 5.55059 1.43466 0
M  V30 2844 H 265.123 5.95348 0.753738 0
M  V30 2845 H 266.193 4.84735 -0.126377 0
M  V30 2846 N 267.536 -0.106894 1.57237 0
M  V30 2847 C 268.784 -0.810921 1.85117 0
M  V30 2848 C 269.105 -1.7984 0.753827 0
M  V30 2849 O 268.375 -1.94649 -0.221056 0
M  V30 2850 H 266.955 -0.302466 0.683025 0
M  V30 2851 H 269.617 -0.0913324 1.94686 0
M  V30 2852 H 268.713 -1.34875 2.81452 0
M  V30 2853 N 269.014 -1.53014 -0.377408 0
M  V30 2854 C 270.26 -1.68872 -1.12294 0
M  V30 2855 C 270.593 -0.433224 -1.89306 0
M  V30 2856 O 269.868 0.569258 -1.85983 0
M  V30 2857 C 270.151 -2.93115 -2.09179 0
M  V30 2858 C 270.004 -4.28794 -1.35853 0
M  V30 2859 C 271.323 -3.12928 -3.09458 0
M  V30 2860 H 268.442 -0.614518 -0.406862 0
M  V30 2861 H 271.084 -1.85633 -0.40503 0
M  V30 2862 H 269.234 -2.78956 -2.70399 0
M  V30 2863 H 270.906 -4.54742 -0.775082 0
M  V30 2864 H 269.149 -4.28744 -0.660364 0
M  V30 2865 H 269.82 -5.11837 -2.06706 0
M  V30 2866 H 272.296 -3.26194 -2.58334 0
M  V30 2867 H 271.172 -4.01316 -3.74482 0
M  V30 2868 H 271.433 -2.27669 -3.78971 0
M  V30 2869 N 270.492 0.636531 -1.44174 0
M  V30 2870 C 271.903 1.21806 -1.41493 0
M  V30 2871 C 272.254 1.95785 -0.1275 0
M  V30 2872 O 271.379 2.02147 0.772376 0
M  V30 2873 C 271.974 2.21551 -2.56321 0
M  V30 2874 C 270.533 2.75143 -2.56853 0
M  V30 2875 C 269.68 1.50052 -2.33195 0
M  V30 2876 H 272.631 0.427531 -1.52833 0
M  V30 2877 H 272.652 3.0405 -2.28765 0
M  V30 2878 H 272.164 1.67679 -3.50008 0
M  V30 2879 H 270.265 3.33033 -1.67093 0
M  V30 2880 H 270.378 3.2155 -3.55165 0
M  V30 2881 H 268.742 1.77993 -1.82183 0
M  V30 2882 H 269.525 0.980903 -3.28988 0
M  V30 2883 N 271.97 1.30982 0.876444 0
M  V30 2884 C 272.92 1.14688 1.97055 0
M  V30 2885 C 273.904 0.0596593 1.60789 0
M  V30 2886 O 275.096 0.283892 1.74708 0
M  V30 2887 C 272.225 0.849627 3.3262 0
M  V30 2888 C 271.311 1.97752 3.75173 0
M  V30 2889 N 271.702 3.22384 3.89746 0
M  V30 2890 C 270 1.8758 4.04635 0
M  V30 2891 C 270.701 3.96121 4.25985 0
M  V30 2892 N 269.677 3.24237 4.36315 0
M  V30 2893 H 273.479 2.09204 2.06424 0
M  V30 2894 H 270.993 1.22445 1.06682 0
M  V30 2895 H 272.99 0.713895 4.10742 0
M  V30 2896 H 271.65 -0.087376 3.24582 0
M  V30 2897 H 272.661 3.57575 3.74647 0
M  V30 2898 H 269.338 1.01303 4.05024 0
M  V30 2899 H 270.728 5.03491 4.44911 0
M  V30 2900 N 273.449 -1.08991 1.13837 0
M  V30 2901 C 274.674 -1.85551 0.926585 0
M  V30 2902 C 275.099 -1.80782 -0.519566 0
M  V30 2903 O 274.457 -1.18855 -1.36906 0
M  V30 2904 C 274.505 -3.31266 1.42462 0
M  V30 2905 O 273.609 -4.07822 0.612789 0
M  V30 2906 H 272.95 -0.575192 0.331738 0
M  V30 2907 H 275.48 -1.37604 1.51414 0
M  V30 2908 H 275.49 -3.82112 1.43019 0
M  V30 2909 H 274.165 -3.34052 2.47754 0
M  V30 2910 H 272.742 -3.66731 0.675463 0
M  V30 2911 N 274.927 -0.932562 -1.27047 0
M  V30 2912 C 276.204 -0.49377 -1.89265 0
M  V30 2913 C 276.584 1.02833 -1.8436 0
M  V30 2914 O 275.932 1.88461 -1.29209 0
M  V30 2915 C 276.142 -1.04536 -3.32976 0
M  V30 2916 C 277.49 -1.10879 -4.09867 0
M  V30 2917 O 278.514 -0.995327 -3.42011 0
M  V30 2918 O 277.373 -1.28417 -5.31198 0
M  V30 2919 H 274.467 -0.159596 -0.811454 0
M  V30 2920 H 277.013 -1.02457 -1.3528 0
M  V30 2921 H 275.785 -2.08913 -3.30864 0
M  V30 2922 H 275.408 -0.496494 -3.94488 0
M  V30 2923 N 276.405 1.4127 -0.698611 0
M  V30 2924 C 277.651 2.01478 -0.231207 0
M  V30 2925 C 277.984 1.55215 1.16713 0
M  V30 2926 O 277.259 0.764672 1.78838 0
M  V30 2927 C 277.542 3.58912 -0.292281 0
M  V30 2928 C 277.395 4.15293 -1.72778 0
M  V30 2929 C 278.714 4.38736 0.346194 0
M  V30 2930 H 275.833 0.732025 -0.0854878 0
M  V30 2931 H 278.475 1.67977 -0.887906 0
M  V30 2932 H 276.625 3.87582 0.26686 0
M  V30 2933 H 278.297 3.97486 -2.341 0
M  V30 2934 H 276.54 3.7022 -2.26096 0
M  V30 2935 H 277.211 5.24452 -1.72202 0
M  V30 2936 H 279.687 4.15897 -0.130035 0
M  V30 2937 H 278.563 5.48221 0.272932 0
M  V30 2938 H 278.824 4.18425 1.42734 0
M  V30 2939 N 277.883 0.443576 1.51229 0
M  V30 2940 C 279.111 -0.11929 2.06556 0
M  V30 2941 C 279.526 -1.35921 1.31038 0
M  V30 2942 O 278.883 -1.78675 0.371704 0
M  V30 2943 C 278.934 -0.435228 3.5887 0
M  V30 2944 O 278.655 0.755486 4.31537 0
M  V30 2945 C 280.156 -1.04808 4.30732 0
M  V30 2946 H 277.376 -0.0051584 0.67098 0
M  V30 2947 H 279.92 0.624453 1.94733 0
M  V30 2948 H 278.075 -1.12887 3.70588 0
M  V30 2949 H 278.489 0.483491 5.22267 0
M  V30 2950 H 279.963 -1.2191 5.3837 0
M  V30 2951 H 280.44 -2.03081 3.89429 0
M  V30 2952 H 281.046 -0.393637 4.23474 0
M  V30 2953 N 279.361 -1.56624 0.175154 0
M  V30 2954 C 280.589 -2.01374 -0.474971 0
M  V30 2955 C 281.004 -1.05537 -1.56548 0
M  V30 2956 O 280.361 -0.0568668 -1.82411 0
M  V30 2957 C 280.412 -3.45923 -1.04975 0
M  V30 2958 O 280.133 -4.381 -0.00276605 0
M  V30 2959 C 281.634 -4.06093 -1.77773 0
M  V30 2960 H 278.854 -0.659962 -0.121206 0
M  V30 2961 H 281.398 -2.02601 0.27801 0
M  V30 2962 H 279.553 -3.45458 -1.75321 0
M  V30 2963 H 279.967 -5.22753 -0.427681 0
M  V30 2964 H 281.441 -5.09147 -2.13245 0
M  V30 2965 H 281.918 -3.48405 -2.67414 0
M  V30 2966 H 282.524 -4.10272 -1.12059 0
M  V30 2967 N 280.839 0.0985539 -1.57292 0
M  V30 2968 C 282.087 0.801092 -1.85545 0
M  V30 2969 C 282.408 1.79438 -0.763353 0
M  V30 2970 O 281.678 1.94763 0.21073 0
M  V30 2971 H 280.258 0.29884 -0.684619 0
M  V30 2972 H 282.92 0.0810064 -1.94732 0
M  V30 2973 H 282.016 1.3338 -2.82163 0
M  V30 2974 N 282.317 1.53212 0.369288 0
M  V30 2975 C 283.264 1.79388 1.45219 0
M  V30 2976 C 284.234 0.638059 1.53356 0
M  V30 2977 O 285.419 0.879852 1.69302 0
M  V30 2978 C 282.559 1.98623 2.82211 0
M  V30 2979 C 281.672 3.26337 2.8307 0
M  V30 2980 C 280.807 3.35779 4.11614 0
M  V30 2981 C 279.846 4.5754 4.06601 0
M  V30 2982 N 278.983 4.64155 5.26787 0
M  V30 2983 H 283.823 2.71794 1.22198 0
M  V30 2984 H 281.36 1.34642 0.592444 0
M  V30 2985 H 283.318 2.07761 3.61789 0
M  V30 2986 H 281.948 1.09558 3.03639 0
M  V30 2987 H 281 3.26171 1.95747 0
M  V30 2988 H 282.312 4.15988 2.75237 0
M  V30 2989 H 281.466 3.44208 4.99606 0
M  V30 2990 H 280.205 2.44137 4.22195 0
M  V30 2991 H 279.21 4.49215 3.16996 0
M  V30 2992 H 280.435 5.50519 3.97625 0
M  V30 2993 H 278.381 3.75413 5.3796 0
M  V30 2994 H 278.298 5.47706 5.21109 0
M  V30 2995 H 279.566 4.76863 6.16621 0
M  V30 2996 N 283.795 -0.628877 1.44509 0
M  V30 2997 C 285.211 -0.947305 1.28446 0
M  V30 2998 C 285.411 -2.00275 0.221872 0
M  V30 2999 O 284.467 -2.49447 -0.391471 0
M  V30 3000 C 285.78 -1.40843 2.65676 0
M  V30 3001 C 287.328 -1.52379 2.73404 0
M  V30 3002 C 287.803 -2.01875 4.11109 0
M  V30 3003 N 289.294 -2.09142 4.13296 0
M  V30 3004 C 290.029 -2.48615 5.16699 0
M  V30 3005 N 289.525 -2.87209 6.30462 0
M  V30 3006 N 291.318 -2.48768 5.04054 0
M  V30 3007 H 283.469 0.0690977 2.12288 0
M  V30 3008 H 285.732 -0.0317164 0.947469 0
M  V30 3009 H 285.438 -0.707206 3.44516 0
M  V30 3010 H 285.312 -2.37902 2.92716 0
M  V30 3011 H 287.699 -2.21598 1.9488 0
M  V30 3012 H 287.78 -0.536898 2.50102 0
M  V30 3013 H 287.424 -1.3325 4.90109 0
M  V30 3014 H 287.354 -3.0144 4.31789 0
M  V30 3015 H 289.845 -1.81991 3.31191 0
M  V30 3016 H 290.158 -3.16149 7.05174 0
M  V30 3017 H 288.503 -2.84955 6.33897 0
M  V30 3018 H 291.694 -2.18009 4.14234 0
M  V30 3019 H 291.867 -2.79207 5.84763 0
M  V30 3020 N 285.273 -1.31445 -0.869486 0
M  V30 3021 C 286.689 -1.10113 -1.15531 0
M  V30 3022 C 286.889 0.128087 -2.01092 0
M  V30 3023 O 285.945 0.817276 -2.38908 0
M  V30 3024 C 287.258 -2.37291 -1.84698 0
M  V30 3025 C 288.806 -2.42906 -1.97397 0
M  V30 3026 C 289.281 -3.69967 -2.69979 0
M  V30 3027 N 290.772 -3.70864 -2.77514 0
M  V30 3028 C 291.507 -4.65875 -3.34287 0
M  V30 3029 N 291.003 -5.71242 -3.91988 0
M  V30 3030 N 292.796 -4.53394 -3.3225 0
M  V30 3031 H 284.947 -2.1028 -0.299347 0
M  V30 3032 H 287.21 -0.927683 -0.195214 0
M  V30 3033 H 286.916 -3.27078 -1.29278 0
M  V30 3034 H 286.79 -2.47125 -2.84972 0
M  V30 3035 H 289.177 -1.53588 -2.51982 0
M  V30 3036 H 289.258 -2.37036 -0.961643 0
M  V30 3037 H 288.902 -4.59652 -2.16062 0
M  V30 3038 H 288.832 -3.73103 -3.7162 0
M  V30 3039 H 291.323 -2.94697 -2.36563 0
M  V30 3040 H 291.636 -6.39817 -4.33421 0
M  V30 3041 H 289.981 -5.75015 -3.90362 0
M  V30 3042 H 293.172 -3.70252 -2.8641 0
M  V30 3043 H 293.345 -5.27617 -3.76197 0
M  V30 3044 N 286.751 1.08385 -1.14413 0
M  V30 3045 C 287.701 2.13509 -0.79987 0
M  V30 3046 C 288.685 1.5951 0.211059 0
M  V30 3047 O 289.877 1.76995 0.0133694 0
M  V30 3048 C 287.006 3.42162 -0.279297 0
M  V30 3049 C 286.092 4.03042 -1.31976 0
M  V30 3050 N 286.483 4.38327 -2.52395 0
M  V30 3051 C 284.781 4.30379 -1.17004 0
M  V30 3052 C 285.482 4.86428 -3.19003 0
M  V30 3053 N 284.458 4.84547 -2.46405 0
M  V30 3054 H 288.26 2.38609 -1.7159 0
M  V30 3055 H 285.774 1.2572 -1.02802 0
M  V30 3056 H 287.771 4.16898 -0.0143688 0
M  V30 3057 H 286.431 3.18511 0.630923 0
M  V30 3058 H 287.442 4.29349 -2.89621 0
M  V30 3059 H 284.119 4.16281 -0.318854 0
M  V30 3060 H 285.509 5.23107 -4.21674 0
M  V30 3061 N 288.23 0.939286 1.26551 0
M  V30 3062 C 289.14 0.453432 2.30176 0
M  V30 3063 C 290.156 -0.471649 1.67486 0
M  V30 3064 O 291.332 -0.35164 1.98306 0
M  V30 3065 C 288.397 -0.275326 3.45605 0
M  V30 3066 C 287.458 0.686084 4.23782 0
M  V30 3067 C 286.691 -0.00798994 5.33699 0
M  V30 3068 O 286.914 -1.22528 5.57085 0
M  V30 3069 O 285.848 0.669746 5.98162 0
M  V30 3070 H 289.674 1.31416 2.73795 0
M  V30 3071 H 287.259 0.705095 1.31715 0
M  V30 3072 H 289.141 -0.685911 4.1578 0
M  V30 3073 H 287.816 -1.11147 3.0402 0
M  V30 3074 H 286.723 1.14658 3.56096 0
M  V30 3075 H 288.056 1.48979 4.69112 0
M  V30 3076 N 289.708 -1.40897 0.706093 0
M  V30 3077 C 290.671 -2.29131 0.0562841 0
M  V30 3078 C 291.671 -1.44901 -0.697166 0
M  V30 3079 O 292.861 -1.65926 -0.530484 0
M  V30 3080 C 289.993 -3.27957 -0.93043 0
M  V30 3081 H 291.186 -2.88091 0.833284 0
M  V30 3082 H 288.739 -1.4906 0.470192 0
M  V30 3083 H 289.474 -2.73997 -1.73482 0
M  V30 3084 H 289.259 -3.90124 -0.393166 0
M  V30 3085 H 290.749 -3.94049 -1.38256 0
M  V30 3086 N 291.186 -0.45159 -1.50991 0
M  V30 3087 C 292.416 0.108177 -2.06317 0
M  V30 3088 C 292.824 1.35774 -1.31765 0
M  V30 3089 O 292.167 1.79838 -0.374694 0
M  V30 3090 C 292.229 0.481659 -3.56259 0
M  V30 3091 C 291.893 -0.663114 -4.52163 0
M  V30 3092 C 292.89 -1.53947 -4.96585 0
M  V30 3093 C 290.575 -0.8479 -4.95092 0
M  V30 3094 C 292.569 -2.58518 -5.82621 0
M  V30 3095 C 290.256 -1.89686 -5.80915 0
M  V30 3096 C 291.254 -2.76388 -6.24579 0
M  V30 3097 O 290.942 -3.79482 -7.08695 0
M  V30 3098 H 290.674 0.00499183 -0.675982 0
M  V30 3099 H 293.228 -0.633659 -1.95381 0
M  V30 3100 H 291.458 1.27641 -3.65027 0
M  V30 3101 H 293.147 0.974233 -3.94035 0
M  V30 3102 H 293.913 -1.4083 -4.64103 0
M  V30 3103 H 289.792 -0.18258 -4.60638 0
M  V30 3104 H 293.336 -3.26224 -6.16623 0
M  V30 3105 H 289.233 -2.02817 -6.12809 0
M  V30 3106 H 290.001 -3.76234 -7.26905 0
M  V30 3107 N 292.664 1.56529 -0.183458 0
M  V30 3108 C 293.594 2.21549 0.737456 0
M  V30 3109 C 294.575 1.17489 1.23005 0
M  V30 3110 O 295.76 1.45959 1.281 0
M  V30 3111 C 292.89 2.86575 1.96194 0
M  V30 3112 C 291.844 3.96778 1.60473 0
M  V30 3113 C 291.17 4.48911 2.90487 0
M  V30 3114 C 292.47 5.15767 0.823497 0
M  V30 3115 H 294.164 2.98761 0.195453 0
M  V30 3116 H 291.71 1.43702 0.0925686 0
M  V30 3117 H 293.663 3.30739 2.61131 0
M  V30 3118 H 292.387 2.06749 2.52828 0
M  V30 3119 H 291.046 3.53286 0.978997 0
M  V30 3120 H 290.694 3.65862 3.45186 0
M  V30 3121 H 290.394 5.23265 2.67335 0
M  V30 3122 H 291.918 4.95771 3.56432 0
M  V30 3123 H 293.332 5.56549 1.37571 0
M  V30 3124 H 291.729 5.96114 0.690551 0
M  V30 3125 H 292.799 4.84574 -0.177782 0
M  V30 3126 N 294.142 -0.090211 1.57342 0
M  V30 3127 C 295.105 -1.09335 2.01441 0
M  V30 3128 C 296.105 -1.32666 0.908641 0
M  V30 3129 O 297.295 -1.28697 1.174 0
M  V30 3130 C 294.427 -2.44136 2.3793 0
M  V30 3131 H 295.62 -0.713662 2.91285 0
M  V30 3132 H 293.173 -0.335404 1.52659 0
M  V30 3133 H 293.908 -2.86972 1.51055 0
M  V30 3134 H 293.693 -2.28548 3.18603 0
M  V30 3135 H 295.183 -3.16277 2.72688 0
M  V30 3136 N 295.62 -1.53406 -0.361157 0
M  V30 3137 C 296.867 -1.69802 -1.10333 0
M  V30 3138 C 297.195 -0.452087 -1.89173 0
M  V30 3139 O 296.45 0.566017 -1.87336 0
M  V30 3140 C 296.749 -2.90211 -2.08596 0
M  V30 3141 C 296.415 -4.26539 -1.46203 0
M  V30 3142 C 295.077 -4.6361 -1.28915 0
M  V30 3143 C 297.429 -5.113 -1.01101 0
M  V30 3144 C 294.757 -5.83075 -0.651157 0
M  V30 3145 C 297.109 -6.31415 -0.387007 0
M  V30 3146 C 295.773 -6.67195 -0.201657 0
M  V30 3147 H 295.043 -0.621351 -0.403737 0
M  V30 3148 H 297.69 -1.87598 -0.384609 0
M  V30 3149 H 295.995 -2.66946 -2.86788 0
M  V30 3150 H 297.692 -3.00091 -2.65982 0
M  V30 3151 H 294.282 -3.97352 -1.60653 0
M  V30 3152 H 298.466 -4.83206 -1.13249 0
M  V30 3153 H 293.722 -6.09385 -0.496006 0
M  V30 3154 H 297.896 -6.96394 -0.0293563 0
M  V30 3155 H 295.523 -7.59628 0.294766 0
M  V30 3156 N 297.098 0.621204 -1.44841 0
M  V30 3157 C 298.338 1.39201 -1.49674 0
M  V30 3158 C 298.702 1.91561 -0.129764 0
M  V30 3159 O 299.903 2.68748 -0.0527814 0
M  V30 3160 C 298.174 2.519 -2.53537 0
M  V30 3161 S 299.733 3.39916 -2.77494 0
M  V30 3162 H 296.551 0.474758 -0.529269 0
M  V30 3163 H 299.153 0.718171 -1.81831 0
M  V30 3164 H 297.857 2.11761 -3.51547 0
M  V30 3165 H 297.388 3.241 -2.22986 0
M  V30 3166 H 299.403 4.49646 -2.0984 0
M  V30 3167 N 298.576 1.31904 0.862503 0
M  V30 3168 C 299.523 1.20182 1.9704 0
M  V30 3169 C 300.493 0.0858247 1.65878 0
M  V30 3170 O 301.678 0.26 1.8902 0
M  V30 3171 C 298.818 0.922797 3.32533 0
M  V30 3172 C 297.931 2.12284 3.76244 0
M  V30 3173 C 297.066 1.77996 5.00491 0
M  V30 3174 C 296.105 2.94366 5.36671 0
M  V30 3175 N 295.242 2.60223 6.52095 0
M  V30 3176 H 300.082 2.14951 2.06398 0
M  V30 3177 H 297.619 1.06917 1.01031 0
M  V30 3178 H 299.577 0.741548 4.10557 0
M  V30 3179 H 298.207 0.0119227 3.22798 0
M  V30 3180 H 297.259 2.41461 2.9394 0
M  V30 3181 H 298.571 2.99357 3.98982 0
M  V30 3182 H 297.725 1.56377 5.862 0
M  V30 3183 H 296.464 0.881252 4.79672 0
M  V30 3184 H 295.469 3.16625 4.49476 0
M  V30 3185 H 296.694 3.84957 5.59451 0
M  V30 3186 H 294.64 1.72884 6.32809 0
M  V30 3187 H 294.557 3.40827 6.74814 0
M  V30 3188 H 295.825 2.42016 7.40978 0
M  V30 3189 N 300.054 -1.07777 1.14986 0
M  V30 3190 C 301.017 -2.13041 0.845358 0
M  V30 3191 C 302.017 -1.60071 -0.152931 0
M  V30 3192 O 303.207 -1.74033 0.0761879 0
M  V30 3193 C 300.339 -3.39896 0.261383 0
M  V30 3194 H 301.532 -2.41485 1.77834 0
M  V30 3195 H 299.085 -1.23595 0.956757 0
M  V30 3196 H 299.82 -3.17091 -0.68 0
M  V30 3197 H 299.605 -3.79642 0.980514 0
M  V30 3198 H 301.095 -4.17548 0.0657687 0
M  V30 3199 N 301.532 -0.945985 -1.26051 0
M  V30 3200 C 302.482 -0.430164 -2.23905 0
M  V30 3201 C 303.466 0.47579 -1.53704 0
M  V30 3202 O 304.658 0.310252 -1.7426 0
M  V30 3203 C 301.787 0.298957 -3.41996 0
M  V30 3204 C 300.873 -0.624566 -4.19476 0
M  V30 3205 N 301.264 -1.75245 -4.74471 0
M  V30 3206 C 299.562 -0.431082 -4.43912 0
M  V30 3207 C 300.263 -2.32834 -5.3307 0
M  V30 3208 N 299.239 -1.61583 -5.1903 0
M  V30 3209 H 303.041 -1.29107 -2.64024 0
M  V30 3210 H 300.555 -0.802428 -1.41191 0
M  V30 3211 H 302.552 0.685565 -4.11225 0
M  V30 3212 H 301.212 1.15657 -3.03403 0
M  V30 3213 H 302.223 -2.13449 -4.71868 0
M  V30 3214 H 298.9 0.384364 -4.15727 0
M  V30 3215 H 300.29 -3.27893 -5.86461 0
M  V30 3216 N 303.011 1.40521 -0.713556 0
M  V30 3217 C 303.958 2.30723 -0.059684 0
M  V30 3218 C 304.928 1.48079 0.752448 0
M  V30 3219 O 306.113 1.76823 0.71681 0
M  V30 3220 C 303.253 3.34274 0.857594 0
M  V30 3221 C 302.366 4.31986 0.0351536 0
M  V30 3222 C 301.501 5.22605 0.951724 0
M  V30 3223 C 300.54 6.11976 0.123253 0
M  V30 3224 N 299.677 6.9502 0.99459 0
M  V30 3225 H 304.517 2.86074 -0.834596 0
M  V30 3226 H 302.054 1.40879 -0.42326 0
M  V30 3227 H 304.012 3.92879 1.40364 0
M  V30 3228 H 302.642 2.8043 1.59871 0
M  V30 3229 H 301.694 3.7518 -0.628052 0
M  V30 3230 H 303.006 4.95101 -0.606347 0
M  V30 3231 H 302.16 5.86131 1.56638 0
M  V30 3232 H 300.899 4.59759 1.62705 0
M  V30 3233 H 299.904 5.47482 -0.50435 0
M  V30 3234 H 301.129 6.76881 -0.548539 0
M  V30 3235 H 299.075 6.34764 1.6556 0
M  V30 3236 H 298.992 7.54892 0.40908 0
M  V30 3237 H 300.26 7.62997 1.59549 0
M  V30 3238 N 304.489 0.459591 1.5075 0
M  V30 3239 C 305.419 -0.330644 2.31147 0
M  V30 3240 C 306.4 -1.00087 1.37538 0
M  V30 3241 O 307.585 -1.00025 1.66459 0
M  V30 3242 C 304.715 -1.41958 3.16962 0
M  V30 3243 C 303.669 -0.871608 4.19031 0
M  V30 3244 C 302.995 -2.05797 4.9351 0
M  V30 3245 C 304.295 0.109251 5.22186 0
M  V30 3246 H 305.989 0.340336 2.97459 0
M  V30 3247 H 303.535 0.165119 1.4305 0
M  V30 3248 H 305.488 -1.9798 3.71997 0
M  V30 3249 H 304.212 -2.11917 2.48513 0
M  V30 3250 H 302.871 -0.333442 3.6508 0
M  V30 3251 H 302.519 -2.74427 4.21544 0
M  V30 3252 H 302.219 -1.6976 5.62544 0
M  V30 3253 H 303.743 -2.62331 5.51375 0
M  V30 3254 H 305.157 -0.361405 5.7216 0
M  V30 3255 H 303.554 0.383316 5.98875 0
M  V30 3256 H 304.624 1.03887 4.73641 0
M  V30 3257 N 305.967 -1.56429 0.191757 0
M  V30 3258 C 306.917 -2.15548 -0.743184 0
M  V30 3259 C 307.901 -1.09531 -1.17863 0
M  V30 3260 O 309.093 -1.35602 -1.13759 0
M  V30 3261 C 306.222 -2.81577 -1.96391 0
M  V30 3262 C 305.308 -3.9478 -1.54951 0
M  V30 3263 N 305.699 -4.98677 -0.845876 0
M  V30 3264 C 303.997 -4.06319 -1.83905 0
M  V30 3265 C 304.698 -5.78183 -0.638724 0
M  V30 3266 N 303.674 -5.30495 -1.18643 0
M  V30 3267 H 307.476 -2.9324 -0.196839 0
M  V30 3268 H 304.99 -1.62398 -0.0081603 0
M  V30 3269 H 306.987 -3.22321 -2.64415 0
M  V30 3270 H 305.647 -2.05371 -2.51501 0
M  V30 3271 H 306.658 -5.15464 -0.501704 0
M  V30 3272 H 303.335 -3.41238 -2.40548 0
M  V30 3273 H 304.725 -6.71851 -0.0807929 0
M  V30 3274 N 307.445 0.0818655 -1.57387 0
M  V30 3275 C 308.856 0.634871 -1.75574 0
M  V30 3276 C 309.207 1.78435 -0.815809 0
M  V30 3277 O 308.332 2.164 0.0025366 0
M  V30 3278 C 308.927 1.15845 -3.18379 0
M  V30 3279 C 307.486 1.65741 -3.37945 0
M  V30 3280 C 306.633 0.572549 -2.71325 0
M  V30 3281 H 309.584 -0.144268 -1.58043 0
M  V30 3282 H 309.605 2.02751 -3.21982 0
M  V30 3283 H 309.117 0.321631 -3.86765 0
M  V30 3284 H 307.218 2.51781 -2.74658 0
M  V30 3285 H 307.331 1.74129 -4.46336 0
M  V30 3286 H 305.695 1.01518 -2.33594 0
M  V30 3287 H 306.478 -0.253918 -3.4236 0
M  V30 3288 N 308.923 1.53595 0.353017 0
M  V30 3289 C 310.169 1.70638 1.09593 0
M  V30 3290 C 310.502 0.463286 1.88593 0
M  V30 3291 O 309.777 -0.539597 1.86865 0
M  V30 3292 C 310.06 2.96406 2.04489 0
M  V30 3293 C 309.913 4.30901 1.29014 0
M  V30 3294 C 311.232 3.17812 3.0444 0
M  V30 3295 H 308.351 0.620913 0.397034 0
M  V30 3296 H 310.993 1.86254 0.375446 0
M  V30 3297 H 309.143 2.83223 2.65927 0
M  V30 3298 H 310.815 4.55917 0.702638 0
M  V30 3299 H 309.058 4.29741 0.592071 0
M  V30 3300 H 309.729 5.1506 1.98537 0
M  V30 3301 H 312.205 3.30263 2.53112 0
M  V30 3302 H 311.081 4.07223 3.6805 0
M  V30 3303 H 311.342 2.33669 3.75301 0
M  V30 3304 N 310.401 -0.613514 1.45168 0
M  V30 3305 C 311.364 -1.7065 1.53007 0
M  V30 3306 C 312.364 -1.5548 0.410184 0
M  V30 3307 O 313.554 -1.60656 0.673455 0
M  V30 3308 C 310.686 -3.09875 1.42093 0
M  V30 3309 H 311.879 -1.65068 2.50385 0
M  V30 3310 H 309.432 -0.828728 1.32521 0
M  V30 3311 H 310.167 -3.21039 0.458769 0
M  V30 3312 H 309.952 -3.22293 2.23315 0
M  V30 3313 H 311.442 -3.895 1.50598 0
M  V30 3314 N 311.879 -1.3236 -0.855495 0
M  V30 3315 C 312.842 -1.21164 -1.94556 0
M  V30 3316 C 313.842 -0.134908 -1.60233 0
M  V30 3317 O 315.032 -0.385249 -1.69887 0
M  V30 3318 C 312.164 -0.863192 -3.29791 0
M  V30 3319 H 313.357 -2.18038 -2.05911 0
M  V30 3320 H 310.91 -1.16179 -1.04557 0
M  V30 3321 H 311.645 0.103769 -3.24134 0
M  V30 3322 H 311.43 -1.64166 -3.56078 0
M  V30 3323 H 312.92 -0.809156 -4.09686 0
M  V30 3324 N 313.357 1.07166 -1.15556 0
M  V30 3325 C 314.287 2.16403 -0.877046 0
M  V30 3326 C 315.268 1.69217 0.173111 0
M  V30 3327 O 316.453 1.94181 0.027084 0
M  V30 3328 C 313.583 3.45349 -0.367632 0
M  V30 3329 C 312.537 4.05995 -1.35468 0
M  V30 3330 C 311.863 5.30045 -0.704038 0
M  V30 3331 C 313.163 4.45804 -2.72132 0
M  V30 3332 H 314.857 2.39959 -1.79053 0
M  V30 3333 H 312.403 1.15325 -0.862331 0
M  V30 3334 H 314.356 4.21095 -0.160317 0
M  V30 3335 H 313.08 3.21385 0.581326 0
M  V30 3336 H 311.739 3.32296 -1.54839 0
M  V30 3337 H 311.387 5.02373 0.251128 0
M  V30 3338 H 311.087 5.71579 -1.36277 0
M  V30 3339 H 312.611 6.08495 -0.50654 0
M  V30 3340 H 314.025 5.12671 -2.56595 0
M  V30 3341 H 312.422 4.98296 -3.34397 0
M  V30 3342 H 313.492 3.57083 -3.28054 0
M  V30 3343 N 314.835 0.952656 1.25548 0
M  V30 3344 C 316.246 0.647392 1.75116 0
M  V30 3345 C 316.597 -0.837274 1.77438 0
M  V30 3346 O 315.722 -1.65525 1.39393 0
M  V30 3347 C 316.317 1.16845 3.18014 0
M  V30 3348 C 314.876 0.913382 3.6515 0
M  V30 3349 C 314.023 1.31265 2.44264 0
M  V30 3350 H 316.974 1.12968 1.11462 0
M  V30 3351 H 316.995 0.527606 3.76824 0
M  V30 3352 H 316.507 2.24902 3.16292 0
M  V30 3353 H 314.608 -0.152316 3.72289 0
M  V30 3354 H 314.721 1.54845 4.53387 0
M  V30 3355 H 313.085 0.731028 2.43984 0
M  V30 3356 H 313.868 2.40239 2.45234 0
M  V30 3357 N 316.313 -1.40141 0.720998 0
M  V30 3358 C 317.561 -2.0039 0.262323 0
M  V30 3359 C 317.882 -1.57469 -1.15015 0
M  V30 3360 O 317.152 -0.816582 -1.78069 0
M  V30 3361 H 315.732 -0.741063 0.093996 0
M  V30 3362 H 318.394 -1.71398 0.927835 0
M  V30 3363 H 317.49 -3.10658 0.299671 0
M  V30 3364 N 317.792 -0.46758 -1.50504 0
M  V30 3365 C 318.722 0.318381 -2.31319 0
M  V30 3366 C 319.703 0.993564 -1.38066 0
M  V30 3367 O 320.888 0.991411 -1.66987 0
M  V30 3368 C 318.018 1.40275 -3.17711 0
M  V30 3369 C 316.972 0.849373 -4.19487 0
M  V30 3370 C 316.298 2.03177 -4.94594 0
M  V30 3371 C 317.598 -0.136942 -5.2212 0
M  V30 3372 H 319.292 -0.356106 -2.97275 0
M  V30 3373 H 316.838 -0.172703 -1.42961 0
M  V30 3374 H 318.791 1.96004 -3.73042 0
M  V30 3375 H 317.515 2.10596 -2.49634 0
M  V30 3376 H 316.174 0.314076 -3.65252 0
M  V30 3377 H 315.822 2.72187 -4.22993 0
M  V30 3378 H 315.522 1.66774 -5.63436 0
M  V30 3379 H 317.046 2.59403 -5.52759 0
M  V30 3380 H 318.46 0.331056 -5.72343 0
M  V30 3381 H 316.857 -0.41507 -5.98663 0
M  V30 3382 H 317.927 -1.06398 -4.73083 0
M  V30 3383 N 319.27 1.56325 -0.20005 0
M  V30 3384 C 320.233 2.18084 0.705132 0
M  V30 3385 C 321.233 1.13666 1.1374 0
M  V30 3386 O 322.423 1.39023 1.04968 0
M  V30 3387 C 319.555 2.78689 1.96329 0
M  V30 3388 H 320.748 2.99435 0.167023 0
M  V30 3389 H 318.301 1.56221 0.0495725 0
M  V30 3390 H 319.036 2.0115 2.5438 0
M  V30 3391 H 318.821 3.55133 1.66202 0
M  V30 3392 H 320.311 3.26096 2.60866 0
M  V30 3393 N 320.748 -0.0735177 1.57428 0
M  V30 3394 C 321.681 -1.11932 1.98863 0
M  V30 3395 C 322.659 -1.37666 0.865266 0
M  V30 3396 O 323.843 -1.51068 1.12742 0
M  V30 3397 C 320.97 -2.46403 2.32386 0
M  V30 3398 C 320.016 -2.36815 3.54713 0
M  V30 3399 S 320.849 -1.76392 5.05614 0
M  V30 3400 C 322.005 -3.12444 5.42337 0
M  V30 3401 H 322.238 -0.766212 2.87257 0
M  V30 3402 H 319.771 -0.281987 1.51803 0
M  V30 3403 H 321.729 -3.23755 2.52375 0
M  V30 3404 H 320.39 -2.78876 1.44524 0
M  V30 3405 H 319.583 -3.35977 3.7568 0
M  V30 3406 H 319.185 -1.67598 3.34345 0
M  V30 3407 H 321.477 -4.08753 5.40303 0
M  V30 3408 H 322.42 -2.96258 6.43146 0
M  V30 3409 H 322.828 -3.1297 4.69798 0
M  V30 3410 N 322.226 -1.5378 -0.344866 0
M  V30 3411 C 323.173 -1.81676 -1.42346 0
M  V30 3412 C 324.143 -0.662376 -1.52321 0
M  V30 3413 O 325.328 -0.906675 -1.67881 0
M  V30 3414 C 322.468 -2.03087 -2.79015 0
M  V30 3415 C 321.581 -3.30799 -2.77842 0
M  V30 3416 C 320.716 -3.42285 -4.0622 0
M  V30 3417 C 319.755 -4.6395 -3.9927 0
M  V30 3418 N 318.892 -4.72477 -5.19336 0
M  V30 3419 H 323.732 -2.73703 -1.17858 0
M  V30 3420 H 321.269 -1.35568 -0.570949 0
M  V30 3421 H 323.227 -2.1349 -3.58438 0
M  V30 3422 H 321.857 -1.14375 -3.01858 0
M  V30 3423 H 320.909 -3.29244 -1.90533 0
M  V30 3424 H 322.221 -4.20314 -2.68584 0
M  V30 3425 H 321.375 -3.52113 -4.94066 0
M  V30 3426 H 320.114 -2.50823 -4.18258 0
M  V30 3427 H 319.119 -4.54201 -3.09809 0
M  V30 3428 H 320.344 -5.56775 -3.88817 0
M  V30 3429 H 318.29 -3.83924 -5.3192 0
M  V30 3430 H 318.207 -5.55927 -5.12329 0
M  V30 3431 H 319.475 -4.86613 -6.08957 0
M  V30 3432 N 323.704 0.605807 -1.45491 0
M  V30 3433 C 324.636 1.73031 -1.5031 0
M  V30 3434 C 325.649 1.57968 -0.393687 0
M  V30 3435 O 326.838 1.65817 -0.660839 0
M  V30 3436 C 323.938 3.11049 -1.34543 0
M  V30 3437 C 323.111 3.52334 -2.59189 0
M  V30 3438 C 322.17 4.69323 -2.37954 0
M  V30 3439 O 321.196 4.7635 -3.11575 0
M  V30 3440 N 322.398 5.62705 -1.4263 0
M  V30 3441 H 325.163 1.6936 -2.4726 0
M  V30 3442 H 322.724 0.79114 -1.41254 0
M  V30 3443 H 324.716 3.87071 -1.18144 0
M  V30 3444 H 323.286 3.09217 -0.458623 0
M  V30 3445 H 322.506 2.66256 -2.90691 0
M  V30 3446 H 323.794 3.76677 -3.42041 0
M  V30 3447 H 323.192 5.59744 -0.818758 0
M  V30 3448 H 321.749 6.38252 -1.32202 0
M  V30 3449 N 325.182 1.32811 0.848464 0
M  V30 3450 C 326.43 1.23479 1.59991 0
M  V30 3451 C 326.751 -0.201853 1.93952 0
M  V30 3452 O 326.021 -1.12818 1.60153 0
M  V30 3453 H 324.601 0.454034 0.593179 0
M  V30 3454 H 327.263 1.66412 1.01455 0
M  V30 3455 H 326.359 1.82178 2.53412 0
M  V30 3456 N 326.66 -1.06551 1.16123 0
M  V30 3457 C 327.89 -1.8274 0.963838 0
M  V30 3458 C 328.298 -1.82712 -0.491228 0
M  V30 3459 O 327.641 -1.24294 -1.35265 0
M  V30 3460 C 327.703 -3.3065 1.41106 0
M  V30 3461 C 327.367 -3.54384 2.88549 0
M  V30 3462 C 328.364 -3.4765 3.86569 0
M  V30 3463 C 326.049 -3.81789 3.26408 0
M  V30 3464 C 328.043 -3.67982 5.2045 0
M  V30 3465 C 325.73 -4.01772 4.60459 0
M  V30 3466 C 326.728 -3.94866 5.57288 0
M  V30 3467 O 326.416 -4.14306 6.88916 0
M  V30 3468 H 326.148 -0.583136 0.341948 0
M  V30 3469 H 328.702 -1.35351 1.54497 0
M  V30 3470 H 326.932 -3.78887 0.773394 0
M  V30 3471 H 328.621 -3.88324 1.1815 0
M  V30 3472 H 329.387 -3.2647 3.58667 0
M  V30 3473 H 325.266 -3.86276 2.51619 0
M  V30 3474 H 328.81 -3.62507 5.96015 0
M  V30 3475 H 324.707 -4.2244 4.88072 0
M  V30 3476 H 325.475 -4.31609 6.95454 0
M  V30 3477 N 328.138 -0.959301 -1.25041 0
M  V30 3478 C 329.048 -0.489994 -2.29426 0
M  V30 3479 C 330.064 0.444944 -1.68215 0
M  V30 3480 O 331.24 0.320046 -1.98841 0
M  V30 3481 C 328.305 0.220309 -3.45999 0
M  V30 3482 C 327.366 -0.753418 -4.22637 0
M  V30 3483 C 326.599 -0.076918 -5.33645 0
M  V30 3484 O 326.822 1.13649 -5.58963 0
M  V30 3485 O 325.756 -0.764824 -5.97021 0
M  V30 3486 H 329.582 -1.35755 -2.71669 0
M  V30 3487 H 327.167 -0.725961 -1.30576 0
M  V30 3488 H 329.049 0.619677 -4.16819 0
M  V30 3489 H 327.724 1.06296 -3.0575 0
M  V30 3490 H 326.631 -1.20308 -3.54227 0
M  V30 3491 H 327.964 -1.56423 -4.66683 0
M  V30 3492 N 329.616 1.39756 -0.72842 0
M  V30 3493 C 330.564 2.32485 -0.0731849 0
M  V30 3494 C 331.558 1.52717 0.733063 0
M  V30 3495 O 332.764 1.68428 0.634988 0
M  V30 3496 H 329.139 0.751984 -0.00486469 0
M  V30 3497 H 331.11 2.85382 -0.871761 0
M  V30 3498 C 329.859 3.37773 0.824908 0
M  V30 3499 H 329.182 3.99227 0.213915 0
M  V30 3500 H 330.622 4.05121 1.25111 0
M  V30 3501 C 329.081 2.74287 1.95622 0
M  V30 3502 O 329.611 2.61618 3.04826 0
M  V30 3503 N 327.817 2.32475 1.74367 0
M  V30 3504 H 327.364 2.4298 0.855494 0
M  V30 3505 H 327.322 1.90337 2.50238 0
M  V30 3506 N 331.094 0.475555 1.50254 0
M  V30 3507 C 332.34 -0.0780073 2.0265 0
M  V30 3508 C 332.673 -1.38968 1.35652 0
M  V30 3509 O 331.948 -1.8839 0.483691 0
M  V30 3510 C 332.231 -0.257161 3.59181 0
M  V30 3511 C 332.084 1.07585 4.36744 0
M  V30 3512 C 333.403 -1.00965 4.28362 0
M  V30 3513 H 330.522 -0.0268758 0.73651 0
M  V30 3514 H 333.164 0.622015 1.7953 0
M  V30 3515 H 331.314 -0.853412 3.79011 0
M  V30 3516 H 332.986 1.70902 4.28474 0
M  V30 3517 H 331.229 1.6714 4.00308 0
M  V30 3518 H 331.9 0.904088 5.44546 0
M  V30 3519 H 334.376 -0.504214 4.13034 0
M  V30 3520 H 333.252 -1.10381 5.37687 0
M  V30 3521 H 333.513 -2.04731 3.91839 0
M  V30 3522 N 332.573 -1.56217 0.208337 0
M  V30 3523 C 333.536 -2.18455 -0.693557 0
M  V30 3524 C 334.536 -1.14268 -1.13135 0
M  V30 3525 O 335.726 -1.39577 -1.0423 0
M  V30 3526 C 332.858 -2.79727 -1.94848 0
M  V30 3527 H 334.051 -2.99519 -0.15114 0
M  V30 3528 H 331.604 -1.56245 -0.041287 0
M  V30 3529 H 332.339 -2.02497 -2.53309 0
M  V30 3530 H 332.124 -3.56009 -1.64316 0
M  V30 3531 H 333.614 -3.27475 -2.59133 0
M  V30 3532 N 334.051 0.0651679 -1.57465 0
M  V30 3533 C 334.998 1.07675 -2.04144 0
M  V30 3534 C 335.968 1.38071 -0.923335 0
M  V30 3535 O 337.153 1.49026 -1.19146 0
M  V30 3536 C 334.293 2.38337 -2.49579 0
M  V30 3537 C 333.406 2.14413 -3.75035 0
M  V30 3538 C 332.541 3.38686 -4.09225 0
M  V30 3539 C 331.58 3.10156 -5.27702 0
M  V30 3540 N 330.717 4.26778 -5.57499 0
M  V30 3541 H 335.557 0.671716 -2.90331 0
M  V30 3542 H 333.094 0.3201 -1.43575 0
M  V30 3543 H 335.052 3.14632 -2.73975 0
M  V30 3544 H 333.682 2.7663 -1.6636 0
M  V30 3545 H 332.734 1.2878 -3.57939 0
M  V30 3546 H 334.046 1.89344 -4.61466 0
M  V30 3547 H 333.2 4.23373 -4.34558 0
M  V30 3548 H 331.939 3.66837 -3.21374 0
M  V30 3549 H 330.944 2.23866 -5.02159 0
M  V30 3550 H 332.169 2.8332 -6.17176 0
M  V30 3551 H 330.115 4.54948 -4.72608 0
M  V30 3552 H 330.032 4.05005 -6.38362 0
M  V30 3553 H 331.3 5.12443 -5.87386 0
M  V30 3554 N 335.529 1.53961 0.336706 0
M  V30 3555 C 336.775 1.7179 1.07777 0
M  V30 3556 C 337.108 0.483263 1.88091 0
M  V30 3557 O 336.383 -0.519747 1.87427 0
M  V30 3558 C 336.666 2.98558 2.01334 0
M  V30 3559 C 336.519 4.32245 1.24437 0
M  V30 3560 C 337.838 3.21023 3.01052 0
M  V30 3561 H 334.957 0.625089 0.390426 0
M  V30 3562 H 337.599 1.86641 0.35567 0
M  V30 3563 H 335.749 2.86028 2.62908 0
M  V30 3564 H 337.421 4.56637 0.654243 0
M  V30 3565 H 335.664 4.30344 0.546458 0
M  V30 3566 H 336.335 5.17137 1.93063 0
M  V30 3567 H 338.811 3.32929 2.49595 0
M  V30 3568 H 337.687 4.11104 3.6371 0
M  V30 3569 H 337.948 2.37637 3.72802 0
M  V30 3570 N 337.007 -0.598083 1.45811 0
M  V30 3571 C 338.256 -1.35295 1.49594 0
M  V30 3572 C 338.569 -1.95057 0.145679 0
M  V30 3573 O 339.775 -2.71431 0.0612099 0
M  V30 3574 C 338.231 -2.45124 2.63519 0
M  V30 3575 C 337.839 -1.91732 4.04899 0
M  V30 3576 C 339.583 -3.2205 2.76558 0
M  V30 3577 C 337.49 -2.991 5.1019 0
M  V30 3578 H 336.42 -0.508552 0.556679 0
M  V30 3579 H 339.071 -0.639977 1.71978 0
M  V30 3580 H 337.453 -3.19149 2.34435 0
M  V30 3581 H 338.627 -1.24352 4.43704 0
M  V30 3582 H 336.942 -1.27522 3.96393 0
M  V30 3583 H 339.539 -4.0215 3.52391 0
M  V30 3584 H 339.882 -3.73663 1.83526 0
M  V30 3585 H 340.415 -2.55127 3.05213 0
M  V30 3586 H 337.154 -2.52393 6.04961 0
M  V30 3587 H 336.674 -3.65017 4.75944 0
M  V30 3588 H 338.353 -3.63318 5.35359 0
M  V30 3589 N 338.485 -1.33259 -0.841409 0
M  V30 3590 C 339.713 -1.27605 -1.62864 0
M  V30 3591 C 340.128 0.153507 -1.88175 0
M  V30 3592 O 339.485 1.09485 -1.46011 0
M  V30 3593 C 339.536 -2.04596 -2.98031 0
M  V30 3594 O 339.257 -3.41975 -2.73834 0
M  V30 3595 C 340.758 -2.06122 -3.92465 0
M  V30 3596 H 337.978 -0.439718 -0.506842 0
M  V30 3597 H 340.522 -1.75591 -1.04824 0
M  V30 3598 H 338.677 -1.60299 -3.5268 0
M  V30 3599 H 339.091 -3.81549 -3.59889 0
M  V30 3600 H 340.565 -2.64451 -4.84531 0
M  V30 3601 H 341.042 -1.05083 -4.26444 0
M  V30 3602 H 341.648 -2.50427 -3.43753 0
M  V30 3603 N 339.963 1.05934 -1.16686 0
M  V30 3604 C 341.374 1.60263 -0.957745 0
M  V30 3605 C 341.725 1.89789 0.49745 0
M  V30 3606 O 340.85 1.67401 1.37135 0
M  V30 3607 C 341.445 2.91172 -1.73218 0
M  V30 3608 C 340.004 3.42188 -1.56794 0
M  V30 3609 C 339.151 2.16028 -1.73859 0
M  V30 3610 H 342.102 0.888392 -1.31504 0
M  V30 3611 H 342.123 3.60744 -1.21014 0
M  V30 3612 H 341.635 2.6965 -2.79124 0
M  V30 3613 H 339.736 3.68762 -0.533437 0
M  V30 3614 H 339.849 4.17273 -2.35414 0
M  V30 3615 H 338.213 2.26426 -1.16633 0
M  V30 3616 H 338.996 1.96985 -2.81161 0
M  V30 3617 N 341.441 0.965919 1.2453 0
M  V30 3618 C 342.351 0.502154 2.29163 0
M  V30 3619 C 343.367 -0.436017 1.68448 0
M  V30 3620 O 344.543 -0.309497 1.99008 0
M  V30 3621 C 341.608 -0.201956 3.46111 0
M  V30 3622 C 340.669 0.775821 4.22232 0
M  V30 3623 C 339.902 0.105217 5.33596 0
M  V30 3624 O 340.125 -1.10683 5.59558 0
M  V30 3625 O 339.059 0.796475 5.96607 0
M  V30 3626 H 342.885 1.37194 2.70946 0
M  V30 3627 H 340.47 0.732875 1.30189 0
M  V30 3628 H 342.352 -0.597564 4.17142 0
M  V30 3629 H 341.027 -1.04673 3.06309 0
M  V30 3630 H 339.934 1.22185 3.53584 0
M  V30 3631 H 341.267 1.58896 4.65846 0
M  V30 3632 N 342.919 -1.39368 0.735821 0
M  V30 3633 C 344.147 -2.04795 0.294393 0
M  V30 3634 C 344.562 -1.55478 -1.07107 0
M  V30 3635 O 343.919 -0.720038 -1.67695 0
M  V30 3636 C 343.97 -3.6035 0.288071 0
M  V30 3637 O 343.691 -4.07852 1.59963 0
M  V30 3638 C 345.192 -4.42976 -0.169422 0
M  V30 3639 H 342.412 -0.658571 0.128551 0
M  V30 3640 H 344.956 -1.78399 0.999701 0
M  V30 3641 H 343.111 -3.85645 -0.368355 0
M  V30 3642 H 343.525 -5.02181 1.51375 0
M  V30 3643 H 344.999 -5.51864 -0.122687 0
M  V30 3644 H 345.476 -4.22068 -1.21472 0
M  V30 3645 H 346.082 -4.22832 0.457469 0
M  V30 3646 N 344.397 -0.483516 -1.5 0
M  V30 3647 C 345.625 0.0644831 -2.06799 0
M  V30 3648 C 346.04 1.32399 -1.34596 0
M  V30 3649 O 345.397 1.77626 -0.418946 0
M  V30 3650 C 345.448 0.339927 -3.59898 0
M  V30 3651 O 345.169 -0.869635 -4.29382 0
M  V30 3652 C 346.67 0.933515 -4.33359 0
M  V30 3653 H 343.89 -0.0126333 -0.670881 0
M  V30 3654 H 346.434 -0.675864 -1.93009 0
M  V30 3655 H 344.589 1.03022 -3.7345 0
M  V30 3656 H 345.003 -0.62179 -5.20801 0
M  V30 3657 H 346.477 1.07593 -5.41413 0
M  V30 3658 H 346.954 1.92685 -3.94676 0
M  V30 3659 H 347.56 0.281221 -4.24369 0
M  V30 3660 N 345.875 1.56104 -0.216619 0
M  V30 3661 C 346.838 2.18819 0.681962 0
M  V30 3662 C 347.838 1.14866 1.12528 0
M  V30 3663 O 349.028 1.40128 1.03488 0
M  V30 3664 C 346.16 2.80756 1.93362 0
M  V30 3665 H 347.353 2.99595 0.135254 0
M  V30 3666 H 344.906 1.56265 0.0330003 0
M  V30 3667 H 345.641 2.03837 2.52232 0
M  V30 3668 H 345.426 3.56876 1.62426 0
M  V30 3669 H 346.916 3.28844 2.57393 0
M  V30 3670 N 347.353 -0.0568162 1.57498 0
M  V30 3671 C 348.283 -1.06593 2.0775 0
M  V30 3672 C 349.264 -1.39448 0.974082 0
M  V30 3673 O 350.449 -1.48815 1.24771 0
M  V30 3674 C 347.579 -2.37509 2.5339 0
M  V30 3675 C 346.533 -2.1897 3.67745 0
M  V30 3676 C 345.859 -3.55402 3.99492 0
M  V30 3677 C 347.159 -1.59859 4.97235 0
M  V30 3678 H 348.853 -0.647706 2.9231 0
M  V30 3679 H 346.399 -0.310116 1.40621 0
M  V30 3680 H 348.352 -3.08409 2.87162 0
M  V30 3681 H 347.076 -2.8134 1.65878 0
M  V30 3682 H 345.735 -1.50508 3.3428 0
M  V30 3683 H 345.383 -3.9683 3.09088 0
M  V30 3684 H 345.083 -3.43831 4.76502 0
M  V30 3685 H 346.607 -4.27708 4.35773 0
M  V30 3686 H 348.021 -2.20642 5.29141 0
M  V30 3687 H 346.418 -1.58942 5.78669 0
M  V30 3688 H 347.488 -0.561506 4.81638 0
M  V30 3689 N 348.832 -1.54138 -0.328536 0
M  V30 3690 C 349.762 -1.86167 -1.40939 0
M  V30 3691 C 350.743 -0.718044 -1.54202 0
M  V30 3692 O 351.928 -0.971328 -1.68163 0
M  V30 3693 C 349.058 -2.08461 -2.77779 0
M  V30 3694 C 348.012 -3.24299 -2.7931 0
M  V30 3695 C 347.338 -3.31955 -4.19178 0
M  V30 3696 C 348.638 -4.62065 -2.43502 0
M  V30 3697 H 350.332 -2.76689 -1.14383 0
M  V30 3698 H 347.878 -1.33132 -0.548806 0
M  V30 3699 H 349.831 -2.29453 -3.53454 0
M  V30 3700 H 348.555 -1.14684 -3.05802 0
M  V30 3701 H 347.214 -3.03187 -2.0609 0
M  V30 3702 H 346.862 -2.35745 -4.44335 0
M  V30 3703 H 346.562 -4.09805 -4.2111 0
M  V30 3704 H 348.086 -3.55175 -4.96672 0
M  V30 3705 H 349.5 -4.8297 -3.08889 0
M  V30 3706 H 347.897 -5.42429 -2.56693 0
M  V30 3707 H 348.967 -4.64652 -1.38659 0
M  V30 3708 N 350.31 0.590341 -1.46126 0
M  V30 3709 C 351.55 1.35995 -1.52593 0
M  V30 3710 C 351.914 1.91243 -0.170368 0
M  V30 3711 O 353.115 2.68576 -0.109775 0
M  V30 3712 C 351.386 2.46465 -2.58823 0
M  V30 3713 S 352.945 3.33953 -2.84641 0
M  V30 3714 H 349.763 0.463425 -0.53922 0
M  V30 3715 H 352.365 0.67944 -1.83314 0
M  V30 3716 H 351.069 2.04256 -3.5596 0
M  V30 3717 H 350.6 3.19297 -2.2981 0
M  V30 3718 H 352.615 4.45094 -2.19331 0
M  V30 3719 N 351.788 1.33704 0.83433 0
M  V30 3720 C 352.751 1.24244 1.92603 0
M  V30 3721 C 353.751 0.160383 1.59998 0
M  V30 3722 O 354.941 0.412228 1.69252 0
M  V30 3723 C 352.073 0.91555 3.28376 0
M  V30 3724 H 353.266 2.21287 2.02416 0
M  V30 3725 H 350.819 1.17827 1.02696 0
M  V30 3726 H 351.554 -0.0521886 3.24258 0
M  V30 3727 H 351.339 1.69811 3.53422 0
M  V30 3728 H 352.829 0.874231 4.08347 0
M  V30 3729 N 353.266 -1.05314 1.17247 0
M  V30 3730 C 354.494 -1.81971 0.984593 0
M  V30 3731 C 354.909 -1.82929 -0.467166 0
M  V30 3732 O 354.266 -1.25564 -1.32438 0
M  V30 3733 C 354.317 -3.28143 1.51672 0
M  V30 3734 O 354.038 -3.27347 2.91163 0
M  V30 3735 C 355.539 -4.21493 1.37326 0
M  V30 3736 H 352.759 -0.573455 0.348411 0
M  V30 3737 H 355.303 -1.32808 1.55506 0
M  V30 3738 H 353.458 -3.74582 0.988302 0
M  V30 3739 H 353.872 -4.18824 3.15732 0
M  V30 3740 H 355.346 -5.22043 1.79375 0
M  V30 3741 H 355.823 -4.38031 0.320169 0
M  V30 3742 H 356.429 -3.80909 1.89178 0
M  V30 3743 N 354.744 -0.972509 -1.24016 0
M  V30 3744 C 356.021 -0.553733 -1.87598 0
M  V30 3745 C 356.401 0.969158 -1.87538 0
M  V30 3746 O 355.749 1.84255 -1.35139 0
M  V30 3747 C 355.959 -1.15076 -3.29482 0
M  V30 3748 C 357.307 -1.23862 -4.06132 0
M  V30 3749 O 358.331 -1.10363 -3.38672 0
M  V30 3750 O 357.19 -1.45252 -5.26844 0
M  V30 3751 H 354.284 -0.185331 -0.805966 0
M  V30 3752 H 356.83 -1.06709 -1.31952 0
M  V30 3753 H 355.602 -2.19333 -3.2405 0
M  V30 3754 H 355.225 -0.621746 -3.92709 0
M  V30 3755 N 356.222 1.38976 -0.743202 0
M  V30 3756 C 357.45 2.04636 -0.30525 0
M  V30 3757 C 357.865 1.56044 1.06281 0
M  V30 3758 O 357.222 0.728921 1.67311 0
M  V30 3759 C 357.273 3.60193 -0.307177 0
M  V30 3760 O 356.994 4.06998 -1.62124 0
M  V30 3761 C 358.495 4.4306 0.145928 0
M  V30 3762 H 355.715 0.65788 -0.132041 0
M  V30 3763 H 358.259 1.77866 -1.00915 0
M  V30 3764 H 356.414 3.85835 0.347898 0
M  V30 3765 H 356.828 5.01371 -1.54036 0
M  V30 3766 H 358.302 5.51921 0.0934183 0
M  V30 3767 H 358.779 4.22706 1.19231 0
M  V30 3768 H 359.385 4.22584 -0.479886 0
M  V30 3769 N 357.7 0.491464 1.49741 0
M  V30 3770 C 358.63 -0.28154 2.31796 0
M  V30 3771 C 359.611 -0.971473 1.3963 0
M  V30 3772 O 360.796 -0.964719 1.68543 0
M  V30 3773 C 357.926 -1.35203 3.19902 0
M  V30 3774 C 356.88 -0.782529 4.20786 0
M  V30 3775 C 356.206 -1.95283 4.97764 0
M  V30 3776 C 357.506 0.21999 5.21837 0
M  V30 3777 H 359.2 0.403355 2.96671 0
M  V30 3778 H 356.746 0.195425 1.42668 0
M  V30 3779 H 358.699 -1.90045 3.76113 0
M  V30 3780 H 357.423 -2.06598 2.52953 0
M  V30 3781 H 356.082 -0.255928 3.65706 0
M  V30 3782 H 355.73 -2.65423 4.2727 0
M  V30 3783 H 355.43 -1.57789 5.66018 0
M  V30 3784 H 356.954 -2.50577 5.56816 0
M  V30 3785 H 358.368 -0.23996 5.72798 0
M  V30 3786 H 356.765 0.51026 5.97927 0
M  V30 3787 H 357.835 1.13911 4.7133 0
M  V30 3788 N 359.178 -1.55987 0.224894 0
M  V30 3789 C 360.141 -2.19178 -0.670348 0
M  V30 3790 C 361.141 -1.15461 -1.11917 0
M  V30 3791 O 362.331 -1.40675 -1.02743 0
M  V30 3792 C 359.463 -2.81777 -1.9187 0
M  V30 3793 H 360.656 -2.99662 -0.119364 0
M  V30 3794 H 358.209 -1.5628 -0.0247128 0
M  V30 3795 H 358.944 -2.05172 -2.51147 0
M  V30 3796 H 358.729 -3.57732 -1.60531 0
M  V30 3797 H 360.219 -3.30205 -2.55645 0
M  V30 3798 N 360.656 0.0484629 -1.57525 0
M  V30 3799 C 361.586 1.0549 -2.08313 0
M  V30 3800 C 362.567 1.38929 -0.981463 0
M  V30 3801 O 363.752 1.48151 -1.25558 0
M  V30 3802 C 360.882 2.36162 -2.54646 0
M  V30 3803 C 359.836 2.17016 -3.68901 0
M  V30 3804 C 359.162 3.53278 -4.01371 0
M  V30 3805 C 360.462 1.57219 -4.98076 0
M  V30 3806 H 362.156 0.632195 -2.92649 0
M  V30 3807 H 359.702 0.302654 -1.40784 0
M  V30 3808 H 361.655 3.06882 -2.88793 0
M  V30 3809 H 360.379 2.80456 -1.67368 0
M  V30 3810 H 359.038 1.48733 -3.35073 0
M  V30 3811 H 358.686 3.95185 -3.11188 0
M  V30 3812 H 358.386 3.41299 -4.78318 0
M  V30 3813 H 359.91 4.25391 -4.38035 0
M  V30 3814 H 361.324 2.17832 -5.30304 0
M  V30 3815 H 359.721 1.55871 -5.79503 0
M  V30 3816 H 360.791 0.535956 -4.81929 0
M  V30 3817 N 362.134 1.5431 0.320358 0
M  V30 3818 C 363.382 1.72327 1.05583 0
M  V30 3819 C 363.703 0.50149 1.88441 0
M  V30 3820 O 362.973 -0.48448 1.89815 0
M  V30 3821 H 361.553 0.635387 0.3928 0
M  V30 3822 H 364.215 1.91621 0.356019 0
M  V30 3823 H 363.311 2.60426 1.72003 0
M  V30 3824 N 363.613 -0.582584 1.46437 0
M  V30 3825 C 364.576 -1.67366 1.56592 0
M  V30 3826 C 365.576 -1.54575 0.443072 0
M  V30 3827 O 366.766 -1.59191 0.707381 0
M  V30 3828 C 363.898 -3.06791 1.48634 0
M  V30 3829 H 365.091 -1.5972 2.5383 0
M  V30 3830 H 362.644 -0.800432 1.34249 0
M  V30 3831 H 363.379 -3.19993 0.526763 0
M  V30 3832 H 363.164 -3.17484 2.30101 0
M  V30 3833 H 364.654 -3.86218 1.58826 0
M  V30 3834 N 365.091 -1.34144 -0.827227 0
M  V30 3835 C 366.316 -1.29476 -1.62021 0
M  V30 3836 C 366.741 0.129292 -1.87655 0
M  V30 3837 O 366.099 1.08967 -1.449 0
M  V30 3838 C 366.147 -2.08702 -2.94068 0
M  V30 3839 O 365.251 -1.45359 -3.85933 0
M  V30 3840 H 364.592 -0.444881 -0.492927 0
M  V30 3841 H 367.122 -1.76882 -1.02829 0
M  V30 3842 H 367.132 -2.19898 -3.43669 0
M  V30 3843 H 365.807 -3.12241 -2.74734 0
M  V30 3844 H 364.384 -1.42879 -3.44442 0
M  V30 3845 N 366.569 1.04691 -1.17803 0
M  V30 3846 C 367.516 2.12557 -0.899343 0
M  V30 3847 C 368.486 1.65339 0.158771 0
M  V30 3848 O 369.671 1.90789 0.0204797 0
M  V30 3849 C 366.811 3.42481 -0.424315 0
M  V30 3850 C 365.924 4.03346 -1.54713 0
M  V30 3851 C 365.059 5.21208 -1.02546 0
M  V30 3852 C 364.098 5.74089 -2.12339 0
M  V30 3853 N 363.235 6.83247 -1.61612 0
M  V30 3854 H 368.075 2.35734 -1.823 0
M  V30 3855 H 365.612 1.1564 -0.909159 0
M  V30 3856 H 367.57 4.16996 -0.130421 0
M  V30 3857 H 366.2 3.19471 0.462377 0
M  V30 3858 H 365.252 3.2622 -1.95664 0
M  V30 3859 H 366.564 4.38628 -2.37501 0
M  V30 3860 H 365.718 6.02812 -0.685718 0
M  V30 3861 H 364.457 4.87414 -0.167084 0
M  V30 3862 H 363.462 4.91111 -2.47165 0
M  V30 3863 H 364.687 6.0993 -2.98601 0
M  V30 3864 H 362.633 6.5134 -0.780533 0
M  V30 3865 H 362.55 7.17559 -2.38003 0
M  V30 3866 H 363.818 7.68491 -1.30545 0
M  V30 3867 N 368.047 0.979072 1.23499 0
M  V30 3868 C 369.277 0.664237 1.95631 0
M  V30 3869 C 369.685 -0.772653 1.72704 0
M  V30 3870 O 369.028 -1.53141 1.01457 0
M  V30 3871 C 369.09 0.873115 3.48736 0
M  V30 3872 C 368.754 2.29182 3.95379 0
M  V30 3873 C 369.751 3.2704 4.04155 0
M  V30 3874 C 367.436 2.62256 4.28401 0
M  V30 3875 C 369.43 4.56052 4.45304 0
M  V30 3876 C 367.117 3.91491 4.69231 0
M  V30 3877 C 368.115 4.88201 4.77649 0
M  V30 3878 O 367.803 6.15129 5.17563 0
M  V30 3879 H 367.535 0.245915 0.629684 0
M  V30 3880 H 370.089 1.3127 1.57979 0
M  V30 3881 H 368.319 0.167476 3.86337 0
M  V30 3882 H 370.008 0.555642 4.02079 0
M  V30 3883 H 370.774 3.02819 3.78848 0
M  V30 3884 H 366.653 1.87692 4.21061 0
M  V30 3885 H 370.197 5.31538 4.51789 0
M  V30 3886 H 366.094 4.15508 4.93987 0
M  V30 3887 H 366.862 6.18862 5.35679 0
M  V30 3888 N 369.525 -1.3858 0.750561 0
M  V30 3889 C 370.455 -2.33102 0.136237 0
M  V30 3890 C 371.436 -1.54713 -0.706965 0
M  V30 3891 O 372.621 -1.83043 -0.648769 0
M  V30 3892 C 369.751 -3.38882 -0.760017 0
M  V30 3893 C 368.705 -4.27995 -0.0197785 0
M  V30 3894 C 368.031 -5.24605 -1.03408 0
M  V30 3895 C 369.331 -5.09554 1.14684 0
M  V30 3896 H 371.025 -2.84726 0.925822 0
M  V30 3897 H 368.571 -1.36898 0.446654 0
M  V30 3898 H 370.524 -4.0397 -1.19943 0
M  V30 3899 H 369.248 -2.85734 -1.58189 0
M  V30 3900 H 367.907 -3.64409 0.400184 0
M  V30 3901 H 367.555 -4.67746 -1.84994 0
M  V30 3902 H 367.255 -5.85081 -0.543464 0
M  V30 3903 H 368.779 -5.9257 -1.47288 0
M  V30 3904 H 370.193 -5.67899 0.785118 0
M  V30 3905 H 368.59 -5.7925 1.56812 0
M  V30 3906 H 369.66 -4.4347 1.96118 0
M  V30 3907 N 371.003 -0.499398 -1.49478 0
M  V30 3908 C 371.935 0.316575 -2.27003 0
M  V30 3909 C 372.948 0.932047 -1.33479 0
M  V30 3910 O 374.137 0.815658 -1.58774 0
M  V30 3911 C 371.237 1.46055 -3.05812 0
M  V30 3912 C 370.41 0.952679 -4.26899 0
M  V30 3913 C 369.469 1.97407 -4.87767 0
M  V30 3914 O 368.495 1.54326 -5.4788 0
M  V30 3915 N 369.697 3.30436 -4.77276 0
M  V30 3916 H 372.462 -0.348168 -2.97671 0
M  V30 3917 H 370.023 -0.33185 -1.58463 0
M  V30 3918 H 372.015 2.14135 -3.43407 0
M  V30 3919 H 370.585 2.02948 -2.37762 0
M  V30 3920 H 369.805 0.0968248 -3.94081 0
M  V30 3921 H 371.093 0.59174 -5.05347 0
M  V30 3922 H 370.491 3.68126 -4.29534 0
M  V30 3923 H 369.048 3.94235 -5.19059 0
M  V30 3924 N 372.481 1.55866 -0.233164 0
M  V30 3925 C 373.391 2.24431 0.683217 0
M  V30 3926 C 374.407 1.2558 1.2044 0
M  V30 3927 O 375.583 1.58422 1.24356 0
M  V30 3928 C 372.648 2.91979 1.86947 0
M  V30 3929 C 371.709 4.06204 1.38912 0
M  V30 3930 C 370.942 4.70522 2.51883 0
M  V30 3931 O 371.165 4.33865 3.70293 0
M  V30 3932 O 370.099 5.59296 2.22423 0
M  V30 3933 H 373.925 3.03426 0.129059 0
M  V30 3934 H 371.51 1.494 -0.0022283 0
M  V30 3935 H 373.392 3.34573 2.56201 0
M  V30 3936 H 372.067 2.15935 2.41151 0
M  V30 3937 H 370.974 3.68155 0.664259 0
M  V30 3938 H 372.307 4.84025 0.893328 0
M  V30 3939 N 373.959 -0.0401083 1.57549 0
M  V30 3940 C 374.891 -1.07149 2.02612 0
M  V30 3941 C 375.904 -1.33126 0.937085 0
M  V30 3942 O 377.093 -1.30808 1.21456 0
M  V30 3943 C 374.193 -2.41561 2.37701 0
M  V30 3944 C 373.366 -2.35096 3.68848 0
M  V30 3945 C 372.425 -3.51867 3.91249 0
M  V30 3946 O 371.451 -3.3186 4.62447 0
M  V30 3947 N 372.653 -4.73351 3.36035 0
M  V30 3948 H 375.418 -0.687485 2.91708 0
M  V30 3949 H 372.979 -0.228248 1.60283 0
M  V30 3950 H 374.971 -3.18379 2.49833 0
M  V30 3951 H 373.541 -2.71846 1.54332 0
M  V30 3952 H 372.761 -1.4345 3.67173 0
M  V30 3953 H 374.049 -2.27908 4.54901 0
M  V30 3954 H 373.447 -4.92507 2.78304 0
M  V30 3955 H 372.004 -5.47572 3.53565 0
M  V30 3956 N 375.437 -1.54477 -0.31217 0
M  V30 3957 C 376.853 -1.45442 -0.657185 0
M  V30 3958 C 377.053 -0.63653 -1.91182 0
M  V30 3959 O 376.109 -0.139815 -2.52113 0
M  V30 3960 C 377.422 -2.89287 -0.82058 0
M  V30 3961 C 378.97 -2.9926 -0.917188 0
M  V30 3962 C 379.445 -4.44279 -1.11267 0
M  V30 3963 N 380.936 -4.4794 -1.17914 0
M  V30 3964 C 381.671 -5.57318 -1.34848 0
M  V30 3965 N 381.167 -6.76642 -1.48752 0
M  V30 3966 N 382.96 -5.44986 -1.37647 0
M  V30 3967 H 375.111 -2.06129 0.512313 0
M  V30 3968 H 377.374 -0.933088 0.167485 0
M  V30 3969 H 377.08 -3.51687 0.0302604 0
M  V30 3970 H 376.954 -3.36061 -1.71298 0
M  V30 3971 H 379.341 -2.36981 -1.75852 0
M  V30 3972 H 379.422 -2.558 -0.00101257 0
M  V30 3973 H 379.066 -5.07149 -0.27614 0
M  V30 3974 H 378.996 -4.85359 -2.04289 0
M  V30 3975 H 381.487 -3.61969 -1.08567 0
M  V30 3976 H 381.8 -7.55758 -1.61397 0
M  V30 3977 H 380.145 -6.79529 -1.45828 0
M  V30 3978 H 383.336 -4.50715 -1.26388 0
M  V30 3979 H 383.509 -6.3028 -1.50501 0
M  V30 3980 N 376.915 0.57481 -1.46744 0
M  V30 3981 C 378.164 1.32898 -1.51727 0
M  V30 3982 C 378.477 1.948 -0.176692 0
M  V30 3983 O 379.683 2.71299 -0.104385 0
M  V30 3984 C 378.139 2.40901 -2.67385 0
M  V30 3985 C 377.747 1.85266 -4.07898 0
M  V30 3986 C 379.491 3.17609 -2.81646 0
M  V30 3987 C 377.398 2.90945 -5.14883 0
M  V30 3988 H 376.328 0.499631 -0.564699 0
M  V30 3989 H 378.979 0.612536 -1.72975 0
M  V30 3990 H 377.361 3.15379 -2.39483 0
M  V30 3991 H 378.535 1.17278 -4.45626 0
M  V30 3992 H 376.85 1.21199 -3.98371 0
M  V30 3993 H 379.447 3.96493 -3.58744 0
M  V30 3994 H 379.79 3.70696 -1.89448 0
M  V30 3995 H 380.323 2.50239 -3.09233 0
M  V30 3996 H 377.062 2.42736 -6.089 0
M  V30 3997 H 376.582 3.57398 -4.81691 0
M  V30 3998 H 378.261 3.54755 -5.41071 0
M  V30 3999 N 378.394 1.34581 0.820102 0
M  V30 4000 C 379.671 1.17675 1.56244 0
M  V30 4001 C 380.051 -0.249541 2.0962 0
M  V30 4002 O 379.399 -1.25125 1.91196 0
M  V30 4003 C 379.609 2.23364 2.6816 0
M  V30 4004 C 380.957 2.58485 3.36854 0
M  V30 4005 O 381.981 2.22175 2.78418 0
M  V30 4006 O 380.84 3.20868 4.42386 0
M  V30 4007 H 377.934 0.456333 0.689702 0
M  V30 4008 H 380.48 1.46222 0.861231 0
M  V30 4009 H 379.252 3.19087 2.26493 0
M  V30 4010 H 378.875 1.96009 3.45928 0
M  V30 4011 N 379.872 -1.04064 1.18357 0
M  V30 4012 C 381.1 -1.80916 1.00384 0
M  V30 4013 C 381.515 -1.83414 -0.447738 0
M  V30 4014 O 380.872 -1.26962 -1.31099 0
M  V30 4015 C 380.923 -3.26516 1.55144 0
M  V30 4016 O 380.644 -3.2424 2.94618 0
M  V30 4017 C 382.145 -4.20013 1.41789 0
M  V30 4018 H 379.365 -0.569728 0.354474 0
M  V30 4019 H 381.909 -1.31151 1.56906 0
M  V30 4020 H 380.064 -3.73512 1.02798 0
M  V30 4021 H 380.478 -4.15452 3.20156 0
M  V30 4022 H 381.952 -5.20111 1.84901 0
M  V30 4023 H 382.429 -4.37667 0.36661 0
M  V30 4024 H 383.035 -3.78881 1.93207 0
M  V30 4025 N 381.35 -0.985608 -1.22978 0
M  V30 4026 C 382.28 -0.549649 -2.26939 0
M  V30 4027 C 383.261 0.419803 -1.64838 0
M  V30 4028 O 384.446 0.31203 -1.91677 0
M  V30 4029 C 381.576 0.143652 -3.47003 0
M  V30 4030 C 380.53 -0.743606 -4.21491 0
M  V30 4031 C 379.856 0.0822027 -5.34637 0
M  V30 4032 C 381.156 -2.03694 -4.80943 0
M  V30 4033 H 382.85 -1.41862 -2.63658 0
M  V30 4034 H 380.396 -0.683571 -1.26741 0
M  V30 4035 H 382.349 0.459985 -4.18882 0
M  V30 4036 H 381.073 1.04711 -3.09359 0
M  V30 4037 H 379.732 -1.04347 -3.51436 0
M  V30 4038 H 379.38 0.986359 -4.93234 0
M  V30 4039 H 379.08 -0.508377 -5.85397 0
M  V30 4040 H 380.604 0.392797 -6.09335 0
M  V30 4041 H 382.018 -1.78504 -5.44802 0
M  V30 4042 H 380.415 -2.57573 -5.42011 0
M  V30 4043 H 381.485 -2.72042 -4.01399 0
M  V30 4044 N 382.828 1.3818 -0.7579 0
M  V30 4045 C 383.76 2.2901 -0.0932177 0
M  V30 4046 C 384.773 1.47958 0.679136 0
M  V30 4047 O 385.962 1.70773 0.519514 0
M  V30 4048 C 383.062 3.26953 0.89192 0
M  V30 4049 C 382.235 4.37045 0.176303 0
M  V30 4050 C 381.294 5.15148 1.07281 0
M  V30 4051 O 380.32 5.66616 0.541728 0
M  V30 4052 N 381.522 5.28542 2.40049 0
M  V30 4053 H 384.287 2.86694 -0.873303 0
M  V30 4054 H 381.848 1.50007 -0.609054 0
M  V30 4055 H 383.84 3.76083 1.49479 0
M  V30 4056 H 382.41 2.70136 1.57306 0
M  V30 4057 H 381.63 3.89493 -0.607328 0
M  V30 4058 H 382.918 5.07801 -0.318718 0
M  V30 4059 H 382.316 4.88285 2.85647 0
M  V30 4060 H 380.873 5.8103 2.95376 0
M  V30 4061 N 384.306 0.507319 1.49211 0
M  V30 4062 C 385.236 -0.256939 2.32082 0
M  V30 4063 C 386.217 -0.956609 1.40652 0
M  V30 4064 O 387.402 -0.946788 1.69557 0
M  V30 4065 C 384.532 -1.31802 3.21318 0
M  V30 4066 C 383.486 -0.737855 4.21592 0
M  V30 4067 C 382.812 -1.89992 4.99807 0
M  V30 4068 C 384.112 0.275325 5.21574 0
M  V30 4069 H 385.806 0.434798 2.96226 0
M  V30 4070 H 383.352 0.210546 1.42452 0
M  V30 4071 H 385.305 -1.86045 3.78107 0
M  V30 4072 H 384.029 -2.03903 2.5513 0
M  V30 4073 H 382.688 -0.217126 3.65956 0
M  V30 4074 H 382.336 -2.60877 4.30061 0
M  V30 4075 H 382.036 -1.51777 5.6766 0
M  V30 4076 H 383.56 -2.44657 5.59442 0
M  V30 4077 H 384.974 -0.179193 5.7302 0
M  V30 4078 H 383.371 0.573649 5.97352 0
M  V30 4079 H 384.441 1.18903 4.70096 0
M  V30 4080 N 385.784 -1.5574 0.241426 0
M  V30 4081 C 386.747 -2.19877 -0.647063 0
M  V30 4082 C 387.747 -1.16642 -1.10686 0
M  V30 4083 O 388.937 -1.41757 -1.01245 0
M  V30 4084 C 386.069 -2.83797 -1.88871 0
M  V30 4085 H 387.262 -2.99772 -0.087574 0
M  V30 4086 H 384.815 -1.56298 -0.00813574 0
M  V30 4087 H 385.55 -2.07824 -2.48957 0
M  V30 4088 H 385.335 -3.59414 -1.56728 0
M  V30 4089 H 386.825 -3.32898 -2.52129 0
M  V30 4090 N 387.262 0.0317525 -1.57568 0
M  V30 4091 C 388.487 0.738664 -1.938 0
M  V30 4092 C 388.912 1.68242 -0.841208 0
M  V30 4093 O 388.27 1.80157 0.203267 0
M  V30 4094 C 388.318 1.47417 -3.29091 0
M  V30 4095 O 387.422 2.5872 -3.2115 0
M  V30 4096 H 386.763 0.198856 -0.633524 0
M  V30 4097 H 389.293 -0.0119713 -2.04596 0
M  V30 4098 H 389.303 1.84468 -3.63917 0
M  V30 4099 H 387.978 0.781988 -4.08482 0
M  V30 4100 H 386.555 2.24231 -2.97951 0
M  V30 4101 N 388.74 1.54641 0.303973 0
M  V30 4102 C 389.986 1.74038 1.04109 0
M  V30 4103 C 390.319 0.523051 1.87024 0
M  V30 4104 O 389.594 -0.479874 1.88487 0
M  V30 4105 C 389.877 3.02761 1.94955 0
M  V30 4106 C 389.73 4.34787 1.1524 0
M  V30 4107 C 391.049 3.27336 2.94175 0
M  V30 4108 H 388.168 0.63323 0.377079 0
M  V30 4109 H 390.81 1.87354 0.316001 0
M  V30 4110 H 388.96 2.9154 2.56782 0
M  V30 4111 H 390.632 4.57922 0.557236 0
M  V30 4112 H 388.875 4.31407 0.455053 0
M  V30 4113 H 389.546 5.21116 1.8205 0
M  V30 4114 H 392.022 3.38148 2.42477 0
M  V30 4115 H 390.898 4.18726 3.54908 0
M  V30 4116 H 391.159 2.45491 3.67677 0
M  V30 4117 N 390.218 -0.567019 1.47046 0
M  V30 4118 C 391.466 -1.322 1.52864 0
M  V30 4119 C 391.787 -1.94088 0.188388 0
M  V30 4120 O 391.057 -1.7941 -0.786693 0
M  V30 4121 H 389.637 -0.490894 0.563056 0
M  V30 4122 H 392.299 -0.662879 1.83281 0
M  V30 4123 H 391.395 -2.12062 2.2899 0
M  V30 4124 N 391.696 -1.35014 -0.812953 0
M  V30 4125 C 392.644 -1.27435 -1.94585 0
M  V30 4126 C 393.638 -0.170494 -1.6854 0
M  V30 4127 O 394.844 -0.336085 -1.76835 0
M  V30 4128 H 391.219 -0.396144 -0.639198 0
M  V30 4129 H 393.19 -2.23158 -1.98098 0
M  V30 4130 C 391.939 -1.05677 -3.31252 0
M  V30 4131 H 391.262 -1.89853 -3.51846 0
M  V30 4132 H 392.702 -1.04413 -4.10943 0
M  V30 4133 C 391.161 0.239615 -3.36047 0
M  V30 4134 O 391.691 1.23759 -3.8216 0
M  V30 4135 N 389.897 0.276186 -2.89285 0
M  V30 4136 H 389.444 -0.53653 -2.51951 0
M  V30 4137 H 389.402 1.14332 -2.92875 0
M  V30 4138 N 393.175 1.03435 -1.18907 0
M  V30 4139 C 394.403 1.80381 -1.01342 0
M  V30 4140 C 394.818 1.83649 0.438005 0
M  V30 4141 O 394.175 1.27655 1.30424 0
M  V30 4142 C 394.226 3.25689 -1.56873 0
M  V30 4143 O 393.947 3.22673 -2.96334 0
M  V30 4144 C 395.448 4.19255 -1.44014 0
M  V30 4145 H 392.668 0.56784 -0.35749 0
M  V30 4146 H 395.212 1.30317 -1.576 0
M  V30 4147 H 393.367 3.72962 -1.04777 0
M  V30 4148 H 393.781 4.13748 -3.22355 0
M  V30 4149 H 395.255 5.19123 -1.87657 0
M  V30 4150 H 395.732 4.37467 -0.389815 0
M  V30 4151 H 396.338 3.77851 -1.95214 0
M  V30 4152 N 394.653 0.992116 1.22453 0
M  V30 4153 C 396.064 0.702776 1.72968 0
M  V30 4154 C 396.415 -0.780399 1.80012 0
M  V30 4155 O 395.54 -1.61007 1.44589 0
M  V30 4156 C 396.135 1.26903 3.14135 0
M  V30 4157 C 394.694 1.02909 3.62059 0
M  V30 4158 C 393.841 1.38969 2.39964 0
M  V30 4159 H 396.792 1.16457 1.07812 0
M  V30 4160 H 396.813 0.647223 3.74955 0
M  V30 4161 H 396.325 2.34851 3.08977 0
M  V30 4162 H 394.426 -0.0337979 3.72585 0
M  V30 4163 H 394.539 1.69191 4.48231 0
M  V30 4164 H 392.903 0.808279 2.41535 0
M  V30 4165 H 393.686 2.4792 2.37467 0
M  V30 4166 N 396.131 -1.37776 0.765217 0
M  V30 4167 C 397.061 -2.32945 0.160953 0
M  V30 4168 C 398.042 -1.55454 -0.690516 0
M  V30 4169 O 399.227 -1.83721 -0.629318 0
M  V30 4170 C 396.357 -3.39669 -0.724031 0
M  V30 4171 C 395.311 -4.27992 0.0256173 0
M  V30 4172 C 394.637 -5.25673 -0.978383 0
M  V30 4173 C 395.937 -5.08309 1.20082 0
M  V30 4174 H 397.631 -2.83728 0.955969 0
M  V30 4175 H 395.177 -1.36416 0.461149 0
M  V30 4176 H 397.13 -4.05219 -1.15652 0
M  V30 4177 H 395.854 -2.87396 -1.5515 0
M  V30 4178 H 394.513 -3.63964 0.438812 0
M  V30 4179 H 394.161 -4.69682 -1.80022 0
M  V30 4180 H 393.861 -5.85625 -0.481378 0
M  V30 4181 H 395.385 -5.94098 -1.40995 0
M  V30 4182 H 396.799 -5.67034 0.845307 0
M  V30 4183 H 395.196 -5.77554 1.62947 0
M  V30 4184 H 396.266 -4.41365 2.00811 0
M  V30 4185 N 397.609 -0.515225 -1.4894 0
M  V30 4186 C 398.542 0.302518 -2.26186 0
M  V30 4187 C 399.52 0.957895 -1.31389 0
M  V30 4188 O 400.704 0.985198 -1.60705 0
M  V30 4189 C 397.831 1.42719 -3.07163 0
M  V30 4190 C 396.877 0.884736 -4.17223 0
M  V30 4191 S 397.71 -0.235767 -5.34981 0
M  V30 4192 C 398.866 0.891731 -6.19515 0
M  V30 4193 H 399.099 -0.353076 -2.95196 0
M  V30 4194 H 396.632 -0.300753 -1.51443 0
M  V30 4195 H 398.59 2.07152 -3.54398 0
M  V30 4196 H 397.251 2.05445 -2.37595 0
M  V30 4197 H 396.444 1.72801 -4.73451 0
M  V30 4198 H 396.046 0.317362 -3.72651 0
M  V30 4199 H 398.338 1.79377 -6.53322 0
M  V30 4200 H 399.281 0.367751 -7.07144 0
M  V30 4201 H 399.689 1.16548 -5.52338 0
M  V30 4202 N 399.087 1.5561 -0.249682 0
M  V30 4203 C 400.034 2.21496 0.648694 0
M  V30 4204 C 401.004 1.17977 1.16921 0
M  V30 4205 O 402.189 1.46434 1.22318 0
M  V30 4206 C 399.329 2.92039 1.83868 0
M  V30 4207 C 398.442 4.10219 1.35442 0
M  V30 4208 C 397.577 4.6847 2.50419 0
M  V30 4209 C 396.616 5.78893 1.98869 0
M  V30 4210 N 395.753 6.31315 3.07223 0
M  V30 4211 H 400.593 2.97892 0.0801582 0
M  V30 4212 H 398.13 1.47074 0.0278031 0
M  V30 4213 H 400.088 3.31138 2.53778 0
M  V30 4214 H 398.718 2.18111 2.37965 0
M  V30 4215 H 397.77 3.76413 0.54928 0
M  V30 4216 H 399.082 4.89927 0.936649 0
M  V30 4217 H 398.236 5.10158 3.28366 0
M  V30 4218 H 396.975 3.87984 2.95499 0
M  V30 4219 H 395.98 5.3668 1.19393 0
M  V30 4220 H 397.205 6.61232 1.54755 0
M  V30 4221 H 395.151 5.53733 3.51732 0
M  V30 4222 H 395.068 7.06224 2.69784 0
M  V30 4223 H 396.336 6.77662 3.8522 0
M  V30 4224 N 400.565 -0.0233959 1.57583 0
M  V30 4225 C 401.812 -0.713063 1.8953 0
M  V30 4226 C 402.14 -1.75056 0.847673 0
M  V30 4227 O 401.395 -1.95119 -0.150636 0
M  V30 4228 C 401.694 -1.41428 3.28227 0
M  V30 4229 C 401.36 -0.512222 4.47981 0
M  V30 4230 C 400.022 -0.263785 4.80476 0
M  V30 4231 C 402.374 0.110248 5.21083 0
M  V30 4232 C 399.702 0.615804 5.83459 0
M  V30 4233 C 402.054 0.977573 6.25001 0
M  V30 4234 C 400.718 1.23542 6.55968 0
M  V30 4235 H 399.988 -0.260928 0.69354 0
M  V30 4236 H 402.635 0.0271047 1.91481 0
M  V30 4237 H 400.94 -2.22791 3.22291 0
M  V30 4238 H 402.637 -1.95355 3.50196 0
M  V30 4239 H 399.227 -0.716013 4.22577 0
M  V30 4240 H 403.411 -0.0687137 4.96252 0
M  V30 4241 H 398.667 0.82382 6.05824 0
M  V30 4242 H 402.841 1.46638 6.80786 0
M  V30 4243 H 400.468 1.91871 7.35588 0
M  V30 4244 N 402.043 -1.548 -0.295768 0
M  V30 4245 C 402.973 -1.89115 -1.36959 0
M  V30 4246 C 403.954 -0.75059 -1.52644 0
M  V30 4247 O 405.139 -1.00678 -1.66065 0
M  V30 4248 C 402.269 -2.14307 -2.73295 0
M  V30 4249 C 401.223 -3.30151 -2.72368 0
M  V30 4250 C 400.549 -3.40772 -4.12042 0
M  V30 4251 C 401.849 -4.67126 -2.33646 0
M  V30 4252 H 403.543 -2.79053 -1.08488 0
M  V30 4253 H 401.089 -1.34266 -0.520443 0
M  V30 4254 H 403.042 -2.36898 -3.48507 0
M  V30 4255 H 401.766 -1.21145 -3.03301 0
M  V30 4256 H 400.425 -3.0749 -1.99613 0
M  V30 4257 H 400.073 -2.45117 -4.39234 0
M  V30 4258 H 399.773 -4.18645 -4.12322 0
M  V30 4259 H 401.297 -3.6563 -4.89027 0
M  V30 4260 H 402.711 -4.89414 -2.98575 0
M  V30 4261 H 401.108 -5.47751 -2.45129 0
M  V30 4262 H 402.178 -4.67489 -1.28772 0
M  V30 4263 N 403.521 0.559213 -1.47345 0
M  V30 4264 C 404.471 1.66192 -1.5609 0
M  V30 4265 C 405.455 1.55323 -0.419957 0
M  V30 4266 O 406.647 1.63839 -0.669762 0
M  V30 4267 C 403.776 3.0497 -1.57634 0
M  V30 4268 C 402.862 3.2105 -2.77106 0
M  V30 4269 N 403.253 3.07203 -4.01821 0
M  V30 4270 C 401.551 3.52046 -2.73825 0
M  V30 4271 C 402.252 3.25919 -4.81821 0
M  V30 4272 N 401.228 3.52161 -4.14106 0
M  V30 4273 H 405.03 1.54052 -2.5029 0
M  V30 4274 H 402.544 0.763914 -1.43311 0
M  V30 4275 H 404.541 3.84142 -1.61989 0
M  V30 4276 H 403.201 3.18224 -0.645281 0
M  V30 4277 H 404.212 2.84572 -4.32711 0
M  V30 4278 H 400.889 3.71839 -1.89848 0
M  V30 4279 H 402.279 3.20198 -5.90697 0
M  V30 4280 N 404.999 1.35443 0.805782 0
M  V30 4281 C 406.41 1.25768 1.37983 0
M  V30 4282 C 406.761 -0.10958 1.95894 0
M  V30 4283 O 405.886 -1.01056 1.91355 0
M  V30 4284 C 406.481 2.27727 2.5085 0
M  V30 4285 C 405.04 2.2179 3.04115 0
M  V30 4286 C 404.187 2.13393 1.77084 0
M  V30 4287 H 407.138 1.4656 0.608752 0
M  V30 4288 H 407.159 1.90422 3.29424 0
M  V30 4289 H 406.671 3.27227 2.08671 0
M  V30 4290 H 404.772 1.25703 3.50756 0
M  V30 4291 H 404.885 3.13788 3.62042 0
M  V30 4292 H 403.249 1.59384 1.98668 0
M  V30 4293 H 404.032 3.14755 1.37056 0
M  V30 4294 N 406.477 -1.02803 1.19454 0
M  V30 4295 C 407.387 -2.14575 0.948408 0
M  V30 4296 C 408.403 -1.73757 -0.091871 0
M  V30 4297 O 409.579 -2.01185 0.0929654 0
M  V30 4298 C 406.644 -3.43202 0.491265 0
M  V30 4299 C 405.705 -3.98328 1.60103 0
M  V30 4300 C 404.938 -5.20816 1.16561 0
M  V30 4301 O 405.161 -5.70392 0.0295238 0
M  V30 4302 O 404.095 -5.68801 1.96849 0
M  V30 4303 H 407.921 -2.38202 1.88397 0
M  V30 4304 H 405.506 -1.12989 0.977433 0
M  V30 4305 H 407.388 -4.20687 0.245015 0
M  V30 4306 H 406.063 -3.21018 -0.415851 0
M  V30 4307 H 404.97 -3.22174 1.90144 0
M  V30 4308 H 406.303 -4.24879 2.48473 0
M  V30 4309 N 407.956 -0.998596 -1.21925 0
M  V30 4310 C 409.205 -0.673085 -1.90138 0
M  V30 4311 C 409.518 0.79895 -1.78539 0
M  V30 4312 O 410.724 1.23628 -2.4172 0
M  V30 4313 C 409.18 -1.15339 -3.40918 0
M  V30 4314 C 408.788 -2.65106 -3.61141 0
M  V30 4315 C 410.532 -0.902476 -4.14796 0
M  V30 4316 C 408.439 -3.0671 -5.05651 0
M  V30 4317 H 407.369 -0.248057 -0.712028 0
M  V30 4318 H 410.02 -1.20891 -1.38049 0
M  V30 4319 H 408.402 -0.545658 -3.92223 0
M  V30 4320 H 409.576 -3.31274 -3.20304 0
M  V30 4321 H 407.891 -2.88142 -3.00605 0
M  V30 4322 H 410.488 -1.18895 -5.21314 0
M  V30 4323 H 410.831 0.161349 -4.15987 0
M  V30 4324 H 411.364 -1.47269 -3.69536 0
M  V30 4325 H 408.103 -4.12292 -5.09603 0
M  V30 4326 H 407.623 -2.45249 -5.47369 0
M  V30 4327 H 409.302 -2.9833 -5.74115 0
M  V30 4328 N 409.434 1.37368 -0.772513 0
M  V30 4329 C 410.68 1.99969 -0.337681 0
M  V30 4330 C 411.013 1.61184 1.08321 0
M  V30 4331 O 410.288 0.858395 1.74533 0
M  V30 4332 C 410.571 3.56858 -0.482121 0
M  V30 4333 C 410.424 4.0555 -1.94549 0
M  V30 4334 C 411.743 4.39955 0.113143 0
M  V30 4335 H 408.862 0.726464 -0.124171 0
M  V30 4336 H 411.504 1.63034 -0.975699 0
M  V30 4337 H 409.654 3.88452 0.0610361 0
M  V30 4338 H 411.326 3.84518 -2.54841 0
M  V30 4339 H 409.569 3.57715 -2.45403 0
M  V30 4340 H 410.24 5.14587 -1.9976 0
M  V30 4341 H 412.716 4.14623 -0.35031 0
M  V30 4342 H 411.592 5.48897 -0.0180514 0
M  V30 4343 H 411.853 4.25403 1.20354 0
M  V30 4344 N 410.912 0.523116 1.48665 0
M  V30 4345 C 412.14 -0.0096312 2.06898 0
M  V30 4346 C 412.555 -1.28784 1.38059 0
M  V30 4347 O 411.912 -1.76453 0.465893 0
M  V30 4348 C 411.963 -0.244386 3.60673 0
M  V30 4349 O 411.684 0.983172 4.26925 0
M  V30 4350 C 413.185 -0.818289 4.35682 0
M  V30 4351 H 410.405 0.0304161 0.67031 0
M  V30 4352 H 412.949 0.726799 1.91149 0
M  V30 4353 H 411.104 -0.930847 3.76051 0
M  V30 4354 H 411.518 0.759653 5.1897 0
M  V30 4355 H 412.992 -0.93201 5.44075 0
M  V30 4356 H 413.469 -1.82153 3.99646 0
M  V30 4357 H 414.075 -0.168609 4.24966 0
M  V30 4358 N 412.39 -1.55475 0.257931 0
M  V30 4359 C 413.636 -1.99502 -0.364266 0
M  V30 4360 C 413.969 -1.146 -1.56782 0
M  V30 4361 O 413.244 -0.211968 -1.93342 0
M  V30 4362 C 413.527 -3.51917 -0.763333 0
M  V30 4363 C 413.38 -4.4758 0.446371 0
M  V30 4364 C 414.699 -4.09742 -1.60623 0
M  V30 4365 H 411.818 -0.725277 -0.130929 0
M  V30 4366 H 414.46 -1.8653 0.361446 0
M  V30 4367 H 412.61 -3.63101 -1.38166 0
M  V30 4368 H 414.282 -4.48362 1.08487 0
M  V30 4369 H 412.525 -4.19947 1.08753 0
M  V30 4370 H 413.196 -5.51862 0.123645 0
M  V30 4371 H 415.672 -4.01727 -1.08418 0
M  V30 4372 H 414.548 -5.16631 -1.85429 0
M  V30 4373 H 414.809 -3.58889 -2.58169 0
M  V30 4374 N 413.868 0.0150385 -1.57593 0
M  V30 4375 C 415.145 0.7392 -1.81094 0
M  V30 4376 C 415.525 1.92817 -0.859344 0
M  V30 4377 O 414.873 2.28301 0.095362 0
M  V30 4378 C 415.083 1.15907 -3.29191 0
M  V30 4379 C 416.431 1.56918 -3.9454 0
M  V30 4380 O 417.455 1.25328 -3.33424 0
M  V30 4381 O 416.314 2.15604 -5.02173 0
M  V30 4382 H 413.408 0.358631 -0.745193 0
M  V30 4383 H 415.954 -0.00926156 -1.69697 0
M  V30 4384 H 414.726 0.310921 -3.90063 0
M  V30 4385 H 414.349 1.96711 -3.45529 0
M  V30 4386 N 415.346 1.54954 0.287554 0
M  V30 4387 C 416.757 1.65732 0.859634 0
M  V30 4388 C 417.108 0.574767 1.87592 0
M  V30 4389 O 416.233 -0.286299 2.14498 0
M  V30 4390 C 416.828 3.00438 1.56597 0
M  V30 4391 C 415.387 3.13292 2.08627 0
M  V30 4392 C 414.534 2.61473 0.923416 0
M  V30 4393 H 417.485 1.5857 0.0642338 0
M  V30 4394 H 417.506 2.92613 2.43224 0
M  V30 4395 H 417.018 3.79207 0.826053 0
M  V30 4396 H 415.119 2.39268 2.85625 0
M  V30 4397 H 415.232 4.19647 2.31157 0
M  V30 4398 H 413.596 2.18264 1.31275 0
M  V30 4399 H 414.379 3.42733 0.197241 0
M  V30 4400 N 416.824 -0.551391 1.4764 0
M  V30 4401 C 418.072 -1.30572 1.54258 0
M  V30 4402 C 418.393 -1.93877 0.208963 0
M  V30 4403 O 417.663 -1.80234 -0.767619 0
M  V30 4404 H 416.243 -0.484894 0.568231 0
M  V30 4405 H 418.905 -0.643402 1.83974 0
M  V30 4406 H 418.001 -2.09621 2.31226 0
M  V30 4407 N 418.302 -1.35869 -0.798587 0
M  V30 4408 C 419.532 -1.32529 -1.58491 0
M  V30 4409 C 419.94 0.0975405 -1.88948 0
M  V30 4410 O 419.283 1.06224 -1.49874 0
M  V30 4411 C 419.345 -2.07247 -2.9375 0
M  V30 4412 C 419.009 -3.56391 -2.86068 0
M  V30 4413 C 420.006 -4.50824 -2.58947 0
M  V30 4414 C 417.691 -3.9915 -3.04933 0
M  V30 4415 C 419.685 -5.85993 -2.5078 0
M  V30 4416 C 417.372 -5.34413 -2.96389 0
M  V30 4417 C 418.37 -6.27646 -2.69349 0
M  V30 4418 O 418.058 -7.60426 -2.60782 0
M  V30 4419 H 417.79 -0.456529 -0.498556 0
M  V30 4420 H 420.344 -1.79425 -0.999799 0
M  V30 4421 H 418.574 -1.55001 -3.54276 0
M  V30 4422 H 420.263 -1.96883 -3.54954 0
M  V30 4423 H 421.029 -4.19104 -2.44084 0
M  V30 4424 H 416.908 -3.26961 -3.24989 0
M  V30 4425 H 420.452 -6.58735 -2.29595 0
M  V30 4426 H 416.349 -5.65743 -3.10813 0
M  V30 4427 H 417.117 -7.70444 -2.76331 0
M  V30 4428 N 419.78 1.02168 -1.19998 0
M  V30 4429 C 420.743 2.08765 -0.94604 0
M  V30 4430 C 421.743 1.60618 0.0763846 0
M  V30 4431 O 422.933 1.73472 -0.159135 0
M  V30 4432 C 420.065 3.38262 -0.423255 0
M  V30 4433 H 421.258 2.32726 -1.89153 0
M  V30 4434 H 418.811 1.1889 -1.01464 0
M  V30 4435 H 419.546 3.19974 0.527938 0
M  V30 4436 H 419.331 3.74532 -1.16053 0
M  V30 4437 H 420.821 4.16759 -0.264911 0
M  V30 4438 N 421.258 1.00505 1.21394 0
M  V30 4439 C 422.168 0.574806 2.27449 0
M  V30 4440 C 423.184 -0.382206 1.6975 0
M  V30 4441 O 424.36 -0.246027 1.99892 0
M  V30 4442 C 421.425 -0.0917414 3.46579 0
M  V30 4443 C 420.486 0.909758 4.1955 0
M  V30 4444 C 419.719 0.274924 5.32991 0
M  V30 4445 O 419.942 -0.928254 5.62796 0
M  V30 4446 O 418.876 0.985877 5.93771 0
M  V30 4447 H 422.702 1.45744 2.66444 0
M  V30 4448 H 420.287 0.773923 1.27792 0
M  V30 4449 H 422.169 -0.464551 4.18832 0
M  V30 4450 H 420.844 -0.948755 3.09484 0
M  V30 4451 H 419.751 1.33372 3.49518 0
M  V30 4452 H 421.084 1.73636 4.60555 0
M  V30 4453 N 422.737 -1.36956 0.779787 0
M  V30 4454 C 423.7 -2.2851 0.177662 0
M  V30 4455 C 424.7 -1.48393 -0.619377 0
M  V30 4456 O 425.89 -1.68505 -0.441785 0
M  V30 4457 C 423.022 -3.32428 -0.755279 0
M  V30 4458 H 424.215 -2.83269 0.984823 0
M  V30 4459 H 421.768 -1.46358 0.548544 0
M  V30 4460 H 422.503 -2.82808 -1.58714 0
M  V30 4461 H 422.288 -3.91659 -0.185817 0
M  V30 4462 H 423.778 -4.00824 -1.17174 0
M  V30 4463 N 424.215 -0.530993 -1.48385 0
M  V30 4464 C 425.463 0.00273189 -2.021 0
M  V30 4465 C 425.784 1.34672 -1.41027 0
M  V30 4466 O 425.054 1.8724 -0.576012 0
M  V30 4467 H 423.634 0.00399774 -0.746989 0
M  V30 4468 H 426.296 -0.695054 -1.82085 0
M  V30 4469 H 425.392 0.11031 -3.11905 0
M  V30 4470 N 425.693 1.55336 -0.266172 0
M  V30 4471 C 427.109 1.59356 0.0882065 0
M  V30 4472 C 427.309 1.2834 1.55342 0
M  V30 4473 O 426.365 1.03996 2.30089 0
M  V30 4474 C 427.678 2.99409 -0.278364 0
M  V30 4475 C 429.226 3.12196 -0.224243 0
M  V30 4476 C 429.701 4.545 -0.565123 0
M  V30 4477 N 431.192 4.60313 -0.51634 0
M  V30 4478 C 431.927 5.68434 -0.753013 0
M  V30 4479 N 431.423 6.84738 -1.05383 0
M  V30 4480 N 433.216 5.57942 -0.682414 0
M  V30 4481 H 425.367 1.73764 -1.22147 0
M  V30 4482 H 427.63 0.809822 -0.492841 0
M  V30 4483 H 427.336 3.2691 -1.29703 0
M  V30 4484 H 427.21 3.75228 0.385186 0
M  V30 4485 H 429.597 2.84464 0.78512 0
M  V30 4486 H 429.678 2.38609 -0.921922 0
M  V30 4487 H 429.322 4.82956 -1.57213 0
M  V30 4488 H 429.252 5.26374 0.154248 0
M  V30 4489 H 431.743 3.7676 -0.29335 0
M  V30 4490 H 432.056 7.63088 -1.22133 0
M  V30 4491 H 430.401 6.86375 -1.09151 0
M  V30 4492 H 433.592 4.65958 -0.44731 0
M  V30 4493 H 433.765 6.4213 -0.870248 0
M  V30 4494 N 427.171 -0.0066808 1.57599 0
M  V30 4495 C 428.103 -1.02827 2.04839 0
M  V30 4496 C 429.116 -1.31108 0.965113 0
M  V30 4497 O 430.305 -1.28202 1.24203 0
M  V30 4498 C 427.405 -2.36464 2.42771 0
M  V30 4499 C 426.578 -2.27219 3.73751 0
M  V30 4500 C 425.637 -3.43489 3.98625 0
M  V30 4501 O 424.663 -3.21976 4.69382 0
M  V30 4502 N 425.865 -4.66116 3.46 0
M  V30 4503 H 428.63 -0.625455 2.93101 0
M  V30 4504 H 426.191 -0.194198 1.60731 0
M  V30 4505 H 428.183 -3.13008 2.56531 0
M  V30 4506 H 426.753 -2.68512 1.60063 0
M  V30 4507 H 425.973 -1.35629 3.70133 0
M  V30 4508 H 427.261 -2.18208 4.59633 0
M  V30 4509 H 426.659 -4.86493 2.88688 0
M  V30 4510 H 425.216 -5.39949 3.65101 0
M  V30 4511 N 428.649 -1.55105 -0.279332 0
M  V30 4512 C 429.612 -1.86783 -1.32834 0
M  V30 4513 C 430.612 -0.74199 -1.42657 0
M  V30 4514 O 431.802 -1.0102 -1.41918 0
M  V30 4515 C 428.934 -2.06746 -2.71052 0
M  V30 4516 H 430.127 -2.8055 -1.05979 0
M  V30 4517 H 427.68 -1.47499 -0.517087 0
M  V30 4518 H 428.415 -1.15339 -3.03097 0
M  V30 4519 H 428.2 -2.88711 -2.65309 0
M  V30 4520 H 429.69 -2.32549 -3.46858 0
M  V30 4521 N 430.127 0.543554 -1.4793 0
M  V30 4522 C 431.09 1.63156 -1.60975 0
M  V30 4523 C 432.09 1.53346 -0.483899 0
M  V30 4524 O 433.28 1.5726 -0.749339 0
M  V30 4525 C 430.412 3.02743 -1.56716 0
M  V30 4526 H 431.605 1.52934 -2.57975 0
M  V30 4527 H 429.158 0.764557 -1.36324 0
M  V30 4528 H 429.893 3.18484 -0.611418 0
M  V30 4529 H 429.678 3.11272 -2.38438 0
M  V30 4530 H 431.168 3.81871 -1.6901 0
M  V30 4531 N 431.605 1.3629 0.791371 0
M  V30 4532 C 432.845 1.31792 1.56238 0
M  V30 4533 C 433.209 -0.102237 1.91728 0
M  V30 4534 O 434.41 -0.271759 2.67423 0
M  V30 4535 C 432.681 2.21303 2.80642 0
M  V30 4536 S 434.24 2.34468 3.70904 0
M  V30 4537 H 431.058 0.468141 0.535131 0
M  V30 4538 H 433.66 1.71841 0.932246 0
M  V30 4539 H 432.364 3.23439 2.52617 0
M  V30 4540 H 431.895 1.82266 3.4863 0
M  V30 4541 H 433.91 1.54074 4.71673 0
M  V30 4542 N 433.083 -1.0153 1.20538 0
M  V30 4543 C 434.015 -2.10224 0.913155 0
M  V30 4544 C 435.028 -1.62495 -0.0995998 0
M  V30 4545 O 436.217 -1.78014 0.131582 0
M  V30 4546 C 433.317 -3.37111 0.347717 0
M  V30 4547 C 432.49 -4.13971 1.41233 0
M  V30 4548 C 431.549 -5.19158 0.857976 0
M  V30 4549 O 430.575 -5.48 1.53897 0
M  V30 4550 N 431.777 -5.7955 -0.331966 0
M  V30 4551 H 434.542 -2.35879 1.84881 0
M  V30 4552 H 432.103 -1.17931 1.10923 0
M  V30 4553 H 434.095 -4.04683 -0.0373026 0
M  V30 4554 H 432.665 -3.08696 -0.492527 0
M  V30 4555 H 431.885 -3.41351 1.97163 0
M  V30 4556 H 433.173 -4.62103 2.12928 0
M  V30 4557 H 432.571 -5.58455 -0.902478 0
M  V30 4558 H 431.128 -6.48464 -0.65861 0
M  V30 4559 N 434.561 -1.01147 -1.20859 0
M  V30 4560 C 435.491 -0.597663 -2.25722 0
M  V30 4561 C 436.472 0.384744 -1.65692 0
M  V30 4562 O 437.657 0.271303 -1.92296 0
M  V30 4563 C 434.787 0.0700149 -3.47229 0
M  V30 4564 C 433.741 -0.832843 -4.19819 0
M  V30 4565 C 433.067 -0.0312202 -5.34691 0
M  V30 4566 C 434.367 -2.1385 -4.76514 0
M  V30 4567 H 436.061 -1.47423 -2.60589 0
M  V30 4568 H 433.607 -0.710301 -1.25263 0
M  V30 4569 H 435.56 0.37103 -4.19763 0
M  V30 4570 H 434.284 0.981259 -3.11511 0
M  V30 4571 H 432.943 -1.11778 -3.49144 0
M  V30 4572 H 432.591 0.881515 -4.95215 0
M  V30 4573 H 432.291 -0.632434 -5.84187 0
M  V30 4574 H 433.815 0.26346 -6.10031 0
M  V30 4575 H 435.229 -1.9002 -5.40893 0
M  V30 4576 H 433.626 -2.69012 -5.36426 0
M  V30 4577 H 434.696 -2.80495 -3.95538 0
M  V30 4578 N 436.039 1.36541 -0.78704 0
M  V30 4579 C 437.288 1.98552 -0.35494 0
M  V30 4580 C 437.601 1.63171 1.07864 0
M  V30 4581 O 438.807 2.18399 1.61289 0
M  V30 4582 C 437.263 3.55136 -0.583671 0
M  V30 4583 C 436.871 3.99444 -2.02851 0
M  V30 4584 C 438.615 4.2395 -0.215957 0
M  V30 4585 C 436.522 5.48796 -2.20403 0
M  V30 4586 H 435.452 0.742888 -0.128972 0
M  V30 4587 H 438.103 1.5587 -0.968337 0
M  V30 4588 H 436.485 3.95875 0.0994046 0
M  V30 4589 H 437.659 3.6991 -2.74779 0
M  V30 4590 H 435.974 3.43459 -2.35425 0
M  V30 4591 H 438.571 5.33709 -0.325405 0
M  V30 4592 H 438.914 4.07827 0.835646 0
M  V30 4593 H 439.447 3.88565 -0.852175 0
M  V30 4594 H 436.186 5.69864 -3.23937 0
M  V30 4595 H 435.706 5.79964 -1.52977 0
M  V30 4596 H 437.385 6.14986 -2.01002 0
M  V30 4597 N 437.518 0.538854 1.48102 0
M  V30 4598 C 438.481 -0.208395 2.28251 0
M  V30 4599 C 439.481 -0.859656 1.35892 0
M  V30 4600 O 440.671 -0.71834 1.58699 0
M  V30 4601 C 437.803 -1.30252 3.15035 0
M  V30 4602 H 438.996 0.495407 2.9578 0
M  V30 4603 H 436.549 0.295112 1.53489 0
M  V30 4604 H 437.284 -2.0393 2.52157 0
M  V30 4605 H 437.069 -0.840551 3.82985 0
M  V30 4606 H 438.559 -1.82787 3.75471 0
M  V30 4607 N 438.996 -1.55193 0.274407 0
M  V30 4608 C 439.928 -2.1989 -0.646595 0
M  V30 4609 C 440.941 -1.1834 -1.11801 0
M  V30 4610 O 442.13 -1.4507 -1.04004 0
M  V30 4611 C 439.23 -2.8104 -1.89393 0
M  V30 4612 C 438.403 -4.08274 -1.56943 0
M  V30 4613 C 437.462 -4.53478 -2.66916 0
M  V30 4614 O 436.488 -5.19267 -2.33132 0
M  V30 4615 N 437.69 -4.2356 -3.9696 0
M  V30 4616 H 440.455 -2.99556 -0.0928686 0
M  V30 4617 H 438.016 -1.61618 0.0954783 0
M  V30 4618 H 440.008 -3.08226 -2.62257 0
M  V30 4619 H 438.578 -2.05372 -2.35672 0
M  V30 4620 H 437.798 -3.88384 -0.674655 0
M  V30 4621 H 439.086 -4.91173 -1.32764 0
M  V30 4622 H 438.484 -3.70799 -4.27229 0
M  V30 4623 H 437.041 -4.55518 -4.66205 0
M  V30 4624 N 440.474 -0.00167713 -1.576 0
M  V30 4625 C 441.72 0.683832 -1.90923 0
M  V30 4626 C 442.053 1.7333 -0.875799 0
M  V30 4627 O 441.328 1.94215 0.10525 0
M  V30 4628 C 441.611 1.32543 -3.3482 0
M  V30 4629 C 441.464 0.287387 -4.48881 0
M  V30 4630 C 442.783 2.25114 -3.78169 0
M  V30 4631 H 439.902 0.247125 -0.694333 0
M  V30 4632 H 442.544 -0.0533149 -1.89925 0
M  V30 4633 H 440.694 1.95372 -3.35801 0
M  V30 4634 H 442.366 -0.341346 -4.60035 0
M  V30 4635 H 440.609 -0.39017 -4.32042 0
M  V30 4636 H 441.28 0.775393 -5.46527 0
M  V30 4637 H 443.756 1.723 -3.7875 0
M  V30 4638 H 442.632 2.66971 -4.79602 0
M  V30 4639 H 442.893 3.13092 -3.12131 0
M  V30 4640 N 441.952 1.55251 0.271103 0
M  V30 4641 C 443.18 1.79974 1.02064 0
M  V30 4642 C 443.595 0.574003 1.79863 0
M  V30 4643 O 442.952 -0.456962 1.76686 0
M  V30 4644 C 443.003 3.02603 1.97772 0
M  V30 4645 O 442.724 4.20443 1.23124 0
M  V30 4646 C 444.225 3.39944 2.84522 0
M  V30 4647 H 441.445 0.599489 0.301419 0
M  V30 4648 H 443.989 2.02268 0.301313 0
M  V30 4649 H 442.144 2.8243 2.65165 0
M  V30 4650 H 442.558 4.89783 1.87651 0
M  V30 4651 H 444.032 4.28915 3.47471 0
M  V30 4652 H 444.509 2.59432 3.54389 0
M  V30 4653 H 445.115 3.62383 2.22618 0
M  V30 4654 N 443.43 -0.535701 1.48216 0
M  V30 4655 C 444.678 -1.28928 1.55634 0
M  V30 4656 C 444.999 -1.93645 0.229514 0
M  V30 4657 O 444.269 -1.81038 -0.74846 0
M  V30 4658 H 442.849 -0.47884 0.573342 0
M  V30 4659 H 445.511 -0.623853 1.84646 0
M  V30 4660 H 444.607 -2.07157 2.33436 0
M  V30 4661 N 444.908 -1.36708 -0.784132 0
M  V30 4662 C 446.324 -1.17237 -1.08294 0
M  V30 4663 C 446.524 -5.93947e-05 -2.015 0
M  V30 4664 O 445.58 0.663686 -2.43622 0
M  V30 4665 C 446.893 -2.48557 -1.69233 0
M  V30 4666 C 448.441 -2.54968 -1.8155 0
M  V30 4667 C 448.916 -3.86388 -2.45904 0
M  V30 4668 N 450.407 -3.87762 -2.53367 0
M  V30 4669 C 451.142 -4.86191 -3.03983 0
M  V30 4670 N 450.638 -5.95015 -3.54866 0
M  V30 4671 N 452.431 -4.73606 -3.02743 0
M  V30 4672 H 444.582 -2.11758 -0.16501 0
M  V30 4673 H 446.845 -0.93822 -0.135822 0
M  V30 4674 H 446.551 -3.34638 -1.08215 0
M  V30 4675 H 446.425 -2.64748 -2.68679 0
M  V30 4676 H 448.812 -1.69302 -2.41704 0
M  V30 4677 H 448.893 -2.42672 -0.80895 0
M  V30 4678 H 448.537 -4.72462 -1.86392 0
M  V30 4679 H 448.467 -3.95982 -3.4714 0
M  V30 4680 H 450.958 -3.09145 -2.17343 0
M  V30 4681 H 451.271 -6.66086 -3.91854 0
M  V30 4682 H 449.616 -5.98676 -3.53003 0
M  V30 4683 H 452.807 -3.87717 -2.62284 0
M  V30 4684 H 452.98 -5.50473 -3.41881 0
M  V30 4685 N 446.386 1.0089 -1.21074 0
M  V30 4686 C 447.611 1.78727 -1.05221 0
M  V30 4687 C 448.036 1.83932 0.393795 0
M  V30 4688 O 447.394 1.28004 1.28393 0
M  V30 4689 C 447.442 3.20665 -1.64944 0
M  V30 4690 O 446.546 4.02632 -0.892273 0
M  V30 4691 H 445.887 0.550973 -0.370574 0
M  V30 4692 H 448.417 1.26847 -1.60534 0
M  V30 4693 H 448.427 3.71352 -1.69002 0
M  V30 4694 H 447.102 3.16191 -2.70177 0
M  V30 4695 H 445.679 3.61207 -0.926492 0
M  V30 4696 N 447.864 1.01787 1.20321 0
M  V30 4697 C 448.774 0.598898 2.26827 0
M  V30 4698 C 449.79 -0.36418 1.70146 0
M  V30 4699 O 450.966 -0.224812 2.00141 0
M  V30 4700 C 448.031 -0.0549769 3.46656 0
M  V30 4701 C 447.092 0.954205 4.18561 0
M  V30 4702 C 446.325 0.331439 5.3267 0
M  V30 4703 O 446.548 -0.86851 5.63749 0
M  V30 4704 O 445.482 1.0488 5.92692 0
M  V30 4705 H 449.308 1.48562 2.64883 0
M  V30 4706 H 446.893 0.787434 1.26964 0
M  V30 4707 H 448.775 -0.420102 4.19301 0
M  V30 4708 H 447.45 -0.915876 3.10473 0
M  V30 4709 H 446.357 1.37072 3.48083 0
M  V30 4710 H 447.69 1.78511 4.58688 0
M  V30 4711 N 449.342 -1.36122 0.79427 0
M  V30 4712 C 450.753 -1.81646 0.431446 0
M  V30 4713 C 451.104 -1.66043 -1.04518 0
M  V30 4714 O 450.229 -1.1841 -1.8113 0
M  V30 4715 C 450.824 -3.29785 0.776341 0
M  V30 4716 C 449.383 -3.73501 0.466282 0
M  V30 4717 C 448.53 -2.58313 1.00844 0
M  V30 4718 H 451.481 -1.24274 0.986995 0
M  V30 4719 H 451.502 -3.80437 0.0692413 0
M  V30 4720 H 451.014 -3.4111 1.8511 0
M  V30 4721 H 449.115 -3.67733 -0.600245 0
M  V30 4722 H 449.228 -4.68754 0.990288 0
M  V30 4723 H 447.592 -2.5102 0.431406 0
M  V30 4724 H 448.375 -2.72421 2.08906 0
M  V30 4725 N 450.82 -0.546701 -1.47814 0
M  V30 4726 C 451.752 0.244196 -2.27895 0
M  V30 4727 C 452.765 0.88911 -1.36377 0
M  V30 4728 O 453.954 0.764733 -1.61289 0
M  V30 4729 C 451.054 1.36252 -3.10304 0
M  V30 4730 C 450.227 0.816382 -4.29714 0
M  V30 4731 C 449.286 1.81789 -4.93801 0
M  V30 4732 O 448.312 1.36818 -5.52512 0
M  V30 4733 N 449.514 3.15085 -4.87547 0
M  V30 4734 H 452.279 -0.442694 -2.96412 0
M  V30 4735 H 449.84 -0.382095 -1.57327 0
M  V30 4736 H 451.832 2.03102 -3.50045 0
M  V30 4737 H 450.402 1.95281 -2.44099 0
M  V30 4738 H 449.622 -0.0285981 -3.9419 0
M  V30 4739 H 450.91 0.430668 -5.06974 0
M  V30 4740 H 450.308 3.54275 -4.41028 0
M  V30 4741 H 448.865 3.77522 -5.31339 0
M  V30 4742 N 452.299 1.55045 -0.282633 0
M  V30 4743 C 453.231 2.2023 0.634924 0
M  V30 4744 C 454.244 1.18931 1.11172 0
M  V30 4745 O 455.433 1.4562 1.03233 0
M  V30 4746 C 452.533 2.82041 1.87899 0
M  V30 4747 C 451.706 4.091 1.54776 0
M  V30 4748 C 450.765 4.54887 2.64507 0
M  V30 4749 O 449.791 5.20496 2.30375 0
M  V30 4750 N 450.993 4.25659 3.94709 0
M  V30 4751 H 453.758 2.99601 0.0769811 0
M  V30 4752 H 451.319 1.61565 -0.104048 0
M  V30 4753 H 453.311 3.09613 2.60619 0
M  V30 4754 H 451.881 2.06618 2.3458 0
M  V30 4755 H 451.101 3.88736 0.654049 0
M  V30 4756 H 452.389 4.9187 1.30158 0
M  V30 4757 H 451.787 3.7306 4.25256 0
M  V30 4758 H 450.344 4.57984 4.63782 0
M  V30 4759 N 453.777 0.010035 1.57597 0
M  V30 4760 C 455.026 -0.671945 1.90178 0
M  V30 4761 C 455.339 -1.74376 0.886131 0
M  V30 4762 O 456.545 -2.48107 1.10252 0
M  V30 4763 C 455.001 -1.24636 3.3763 0
M  V30 4764 C 454.609 -0.208838 4.47513 0
M  V30 4765 C 456.353 -1.90595 3.79307 0
M  V30 4766 C 454.26 -0.793814 5.86048 0
M  V30 4767 H 453.19 -0.25474 0.709665 0
M  V30 4768 H 455.841 0.0722206 1.83358 0
M  V30 4769 H 454.223 -2.04152 3.3932 0
M  V30 4770 H 455.397 0.562463 4.57354 0
M  V30 4771 H 453.712 0.350889 4.14919 0
M  V30 4772 H 456.309 -2.35284 4.80151 0
M  V30 4773 H 456.652 -2.74074 3.13352 0
M  V30 4774 H 457.185 -1.17798 3.79958 0
M  V30 4775 H 453.924 0.00240855 6.555 0
M  V30 4776 H 453.444 -1.53404 5.79851 0
M  V30 4777 H 455.123 -1.2894 6.34022 0
M  V30 4778 N 455.255 -1.55392 -0.262866 0
M  V30 4779 C 456.504 -1.75679 -0.990943 0
M  V30 4780 C 456.817 -0.57097 -1.87081 0
M  V30 4781 O 458.023 -0.656486 -2.63444 0
M  V30 4782 C 456.479 -3.10964 -1.81188 0
M  V30 4783 C 456.087 -4.37146 -0.980188 0
M  V30 4784 C 457.831 -3.40597 -2.53365 0
M  V30 4785 C 455.738 -5.63466 -1.7961 0
M  V30 4786 H 454.668 -0.654868 -0.373716 0
M  V30 4787 H 457.319 -1.81841 -0.246203 0
M  V30 4788 H 455.701 -2.98867 -2.59797 0
M  V30 4789 H 456.875 -4.60187 -0.237558 0
M  V30 4790 H 455.19 -4.14731 -0.372497 0
M  V30 4791 H 457.787 -4.32186 -3.14833 0
M  V30 4792 H 458.13 -2.6119 -3.24169 0
M  V30 4793 H 458.663 -3.53838 -1.81779 0
M  V30 4794 H 455.402 -6.4565 -1.13209 0
M  V30 4795 H 454.922 -5.44552 -2.51443 0
M  V30 4796 H 456.601 -6.02139 -2.36723 0
M  V30 4797 N 456.733 0.527833 -1.48498 0
M  V30 4798 C 457.982 1.28003 -1.55878 0
M  V30 4799 C 458.295 1.9414 -0.238577 0
M  V30 4800 O 459.501 2.7083 -0.190643 0
M  V30 4801 C 457.957 2.32272 -2.74914 0
M  V30 4802 C 457.565 1.72196 -4.13585 0
M  V30 4803 C 459.309 3.08488 -2.91608 0
M  V30 4804 C 457.216 2.74417 -5.23879 0
M  V30 4805 H 456.146 0.481413 -0.580308 0
M  V30 4806 H 458.797 0.557195 -1.74836 0
M  V30 4807 H 457.179 3.07601 -2.49395 0
M  V30 4808 H 458.353 1.03041 -4.49132 0
M  V30 4809 H 456.668 1.08464 -4.02025 0
M  V30 4810 H 459.265 3.84879 -3.71177 0
M  V30 4811 H 459.608 3.64481 -2.01145 0
M  V30 4812 H 460.141 2.40274 -3.17038 0
M  V30 4813 H 456.88 2.23242 -6.16314 0
M  V30 4814 H 456.4 3.41893 -4.92818 0
M  V30 4815 H 458.079 3.37362 -5.52083 0
M  V30 4816 N 458.211 1.37122 0.776871 0
M  V30 4817 C 459.622 1.28667 1.35284 0
M  V30 4818 C 459.973 -0.0680035 1.96082 0
M  V30 4819 O 459.098 -0.969743 1.93455 0
M  V30 4820 C 459.693 2.32997 2.45963 0
M  V30 4821 C 458.252 2.28191 2.99342 0
M  V30 4822 C 457.399 2.17101 1.72517 0
M  V30 4823 H 460.35 1.47819 0.577527 0
M  V30 4824 H 460.371 1.97366 3.2531 0
M  V30 4825 H 459.883 3.3158 2.01684 0
M  V30 4826 H 457.984 1.33115 3.4801 0
M  V30 4827 H 458.097 3.21397 3.55304 0
M  V30 4828 H 456.461 1.63562 1.95242 0
M  V30 4829 H 457.244 3.17591 1.30348 0
M  V30 4830 N 459.689 -1.00246 1.21608 0
M  V30 4831 C 460.652 -2.07233 0.979133 0
M  V30 4832 C 461.652 -1.6072 -0.0508219 0
M  V30 4833 O 462.842 -1.73196 0.186712 0
M  V30 4834 C 459.974 -3.37546 0.477016 0
M  V30 4835 H 461.167 -2.29687 1.92831 0
M  V30 4836 H 458.72 -1.17261 1.03342 0
M  V30 4837 H 459.455 -3.20773 -0.476966 0
M  V30 4838 H 459.24 -3.72638 1.21997 0
M  V30 4839 H 460.73 -4.16285 0.331181 0
M  V30 4840 N 461.167 -1.02423 -1.1978 0
M  V30 4841 C 462.395 -0.737456 -1.93311 0
M  V30 4842 C 462.81 0.703023 -1.75223 0
M  V30 4843 O 462.167 1.47761 -1.07112 0
M  V30 4844 C 462.218 -1.0733 -3.45199 0
M  V30 4845 O 461.939 -2.4572 -3.62702 0
M  V30 4846 C 463.44 -0.80866 -4.35862 0
M  V30 4847 H 460.66 -0.2702 -0.614193 0
M  V30 4848 H 463.204 -1.36747 -1.52054 0
M  V30 4849 H 461.359 -0.488545 -3.84307 0
M  V30 4850 H 461.773 -2.58081 -4.56612 0
M  V30 4851 H 463.247 -1.09365 -5.41057 0
M  V30 4852 H 463.724 0.257025 -4.38447 0
M  V30 4853 H 464.33 -1.37592 -4.02428 0
M  V30 4854 N 462.645 1.35699 -0.801477 0
M  V30 4855 C 463.575 2.32436 -0.222658 0
M  V30 4856 C 464.556 1.5723 0.649057 0
M  V30 4857 O 465.741 1.85324 0.580387 0
M  V30 4858 C 462.871 3.41469 0.633719 0
M  V30 4859 C 461.825 4.27774 -0.139083 0
M  V30 4860 C 461.151 5.28082 0.838666 0
M  V30 4861 C 462.451 5.04946 -1.33517 0
M  V30 4862 H 464.145 2.81094 -1.03086 0
M  V30 4863 H 461.691 1.35146 -0.497155 0
M  V30 4864 H 463.644 4.08143 1.04868 0
M  V30 4865 H 462.368 2.91408 1.47475 0
M  V30 4866 H 461.027 3.62673 -0.535156 0
M  V30 4867 H 460.675 4.7429 1.67506 0
M  V30 4868 H 460.375 5.86695 0.32594 0
M  V30 4869 H 461.899 5.97628 1.25194 0
M  V30 4870 H 463.313 5.64593 -0.995349 0
M  V30 4871 H 461.71 5.7303 -1.78202 0
M  V30 4872 H 462.78 4.35886 -2.12442 0
M  V30 4873 N 464.123 0.554532 1.47522 0
M  V30 4874 C 465.348 0.0322661 2.07375 0
M  V30 4875 C 465.773 -1.25079 1.40488 0
M  V30 4876 O 465.131 -1.74859 0.47896 0
M  V30 4877 C 465.179 -0.149397 3.6029 0
M  V30 4878 O 464.283 -1.21259 3.9417 0
M  V30 4879 H 463.624 0.0501228 0.662106 0
M  V30 4880 H 466.154 0.769452 1.8958 0
M  V30 4881 H 466.164 -0.364437 4.06369 0
M  V30 4882 H 464.839 0.787743 4.08372 0
M  V30 4883 H 463.416 -0.97825 3.5984 0
M  V30 4884 O 465.64 -1.55591 0.432879 0
M  V30 4885 H 466.331 -1.93432 -0.101927 0
M  V30 END ATOM
M  V30 BEGIN BOND
M  V30 END BOND
M  V30 END CTAB
M  END
$$$$
