drugbank_target|O60493 Sorting nexin-3 (DB04530)
 OpenBabel12092120553D

  0  0  0     0  0            999 V3000
M  V30 BEGIN CTAB
M  V30 COUNTS 2650 2679 0 0 0
M  V30 BEGIN ATOM
M  V30 1 H -0.908 1.98254 -0.117106 0
M  V30 2 N 0 1.576 0 0
M  V30 3 C 0.933 2.03868 1.02534 0
M  V30 4 C 1.911 0.928543 1.3348 0
M  V30 5 O 3.095 1.19667 1.45644 0
M  V30 6 C 0.222 2.43627 2.35294 0
M  V30 7 C -0.732 3.65373 2.2001 0
M  V30 8 S 0.101 5.13292 1.52614 0
M  V30 9 C 1.257 5.56322 2.86805 0
M  V30 10 H 1.49 2.90518 0.631377 0
M  V30 11 H -0.977 1.52953 0.210867 0
M  V30 12 H 0.981 2.67203 3.11629 0
M  V30 13 H -0.358 1.57376 2.7183 0
M  V30 14 H -1.165 3.90944 3.18086 0
M  V30 15 H -1.563 3.418 1.51819 0
M  V30 16 H 0.729 5.58782 3.83104 0
M  V30 17 H 1.672 6.56266 2.65933 0
M  V30 18 H 2.08 4.83886 2.90714 0
M  V30 19 N 1.4781 -0.272755 1.55222 0
M  V30 20 C 2.4411 -1.32041 1.87344 0
M  V30 21 C 3.4411 -1.42342 0.74803 0
M  V30 22 O 4.6311 -1.41488 1.0162 0
M  V30 23 C 1.7631 -2.70173 2.07893 0
M  V30 24 H 2.9561 -1.04789 2.80997 0
M  V30 25 H 0.5091 -0.51083 1.47717 0
M  V30 26 H 1.2441 -3.02605 1.16622 0
M  V30 27 H 1.0291 -2.64082 2.89833 0
M  V30 28 H 2.5191 -3.45869 2.34017 0
M  V30 29 N 2.9562 -1.48159 -0.537278 0
M  V30 30 C 3.8662 -1.64807 -1.6696 0
M  V30 31 C 4.8822 -0.530651 -1.65711 0
M  V30 32 O 6.0582 -0.800784 -1.84796 0
M  V30 33 C 3.1232 -1.67708 -3.03438 0
M  V30 34 C 2.1842 -2.91025 -3.156 0
M  V30 35 C 1.4172 -2.93778 -4.45567 0
M  V30 36 O 1.6402 -2.05153 -5.3223 0
M  V30 37 O 0.5742 -3.85868 -4.61941 0
M  V30 38 H 4.4002 -2.6066 -1.55853 0
M  V30 39 H 1.9852 -1.31475 -0.709549 0
M  V30 40 H 3.8672 -1.7218 -3.84619 0
M  V30 41 H 2.5422 -0.750278 -3.14885 0
M  V30 42 H 1.4492 -2.92089 -2.33741 0
M  V30 43 H 2.7822 -3.83065 -3.09066 0
M  V30 44 N 4.4343 0.785586 -1.36625 0
M  V30 45 C 5.6623 1.57448 -1.3423 0
M  V30 46 C 6.0773 1.88649 0.0755653 0
M  V30 47 O 5.4343 1.50414 1.03354 0
M  V30 48 C 5.4853 2.89316 -2.16745 0
M  V30 49 O 5.2063 2.59459 -3.53005 0
M  V30 50 C 6.7073 3.83606 -2.22174 0
M  V30 51 H 3.9273 0.488226 -0.4603 0
M  V30 52 H 6.4713 0.974733 -1.79775 0
M  V30 53 H 4.6263 3.4575 -1.74745 0
M  V30 54 H 5.0403 3.43804 -3.96105 0
M  V30 55 H 6.5143 4.73181 -2.8426 0
M  V30 56 H 6.9913 4.21734 -1.22627 0
M  V30 57 H 7.5973 3.33104 -2.64427 0
M  V30 58 N 5.9124 1.20967 1.01018 0
M  V30 59 C 7.1584 1.02526 1.74975 0
M  V30 60 C 7.4914 -0.4408 1.89131 0
M  V30 61 O 6.7664 -1.32718 1.42184 0
M  V30 62 C 7.0494 1.71699 3.1653 0
M  V30 63 C 6.9024 3.25791 3.10129 0
M  V30 64 C 8.2214 1.45531 4.15342 0
M  V30 65 H 5.3404 0.373863 0.635134 0
M  V30 66 H 7.9824 1.49071 1.17805 0
M  V30 67 H 6.1324 1.32128 3.65341 0
M  V30 68 H 7.8044 3.74697 2.69072 0
M  V30 69 H 6.0474 3.56363 2.47362 0
M  V30 70 H 6.7184 3.69353 4.10222 0
M  V30 71 H 9.1944 1.79872 3.75213 0
M  V30 72 H 8.0704 1.96453 5.1254 0
M  V30 73 H 8.3314 0.384237 4.40427 0
M  V30 74 N 7.3905 -1.2043 1.01659 0
M  V30 75 C 8.3535 -2.21433 0.591616 0
M  V30 76 C 9.3535 -1.57203 -0.338226 0
M  V30 77 O 10.5435 -1.73737 -0.126918 0
M  V30 78 C 7.6755 -3.40628 -0.136058 0
M  V30 79 H 8.8685 -2.60545 1.48514 0
M  V30 80 H 6.4215 -1.33893 0.806379 0
M  V30 81 H 7.1565 -3.07019 -1.04449 0
M  V30 82 H 6.9415 -3.88475 0.531917 0
M  V30 83 H 8.4315 -4.15475 -0.420735 0
M  V30 84 N 8.8686 -0.792821 -1.36206 0
M  V30 85 C 10.1456 -0.290627 -1.93429 0
M  V30 86 C 10.5256 1.21773 -1.72437 0
M  V30 87 O 9.8736 2.0108 -1.08531 0
M  V30 88 C 10.0836 -0.686973 -3.42172 0
M  V30 89 C 11.4316 -0.668643 -4.19302 0
M  V30 90 O 12.4556 -0.627658 -3.50626 0
M  V30 91 O 11.3146 -0.714597 -5.41808 0
M  V30 92 H 8.4086 -0.0727927 -0.82379 0
M  V30 93 H 10.9546 -0.875593 -1.45367 0
M  V30 94 H 9.7266 -1.72711 -3.51122 0
M  V30 95 H 9.3496 -0.0760733 -3.97527 0
M  V30 96 N 10.3467 1.47872 -0.545128 0
M  V30 97 C 11.5747 2.06889 -0.021084 0
M  V30 98 C 11.9897 1.39955 1.2672 0
M  V30 99 O 11.3467 0.492036 1.75742 0
M  V30 100 C 11.3977 3.60996 0.190817 0
M  V30 101 O 11.1187 4.25419 -1.04644 0
M  V30 102 C 12.6197 4.36849 0.753521 0
M  V30 103 H 9.8397 0.669785 -0.0403635 0
M  V30 104 H 12.3837 1.90049 -0.755095 0
M  V30 105 H 10.5387 3.77391 0.87492 0
M  V30 106 H 10.9527 5.17785 -0.836611 0
M  V30 107 H 12.4267 5.45399 0.851139 0
M  V30 108 H 12.9037 4.02306 1.762 0
M  V30 109 H 13.5097 4.25169 0.105503 0
M  V30 110 N 11.8248 0.280983 1.55075 0
M  V30 111 C 13.2408 -0.0729964 1.59433 0
M  V30 112 C 13.4408 -1.5411 1.29817 0
M  V30 113 O 12.4968 -2.29086 1.06187 0
M  V30 114 C 13.8098 0.306921 2.9913 0
M  V30 115 C 15.3578 0.254023 3.11968 0
M  V30 116 C 15.8328 0.608467 4.5394 0
M  V30 117 N 17.3238 0.560241 4.59799 0
M  V30 118 C 18.0588 0.80722 5.6769 0
M  V30 119 N 17.5548 1.11912 6.83701 0
M  V30 120 N 19.3478 0.735623 5.57266 0
M  V30 121 H 11.4988 1.238 1.7259 0
M  V30 122 H 13.7618 0.500547 0.805082 0
M  V30 123 H 13.4678 1.32816 3.25657 0
M  V30 124 H 13.3418 -0.349363 3.75579 0
M  V30 125 H 15.7288 -0.75794 2.852 0
M  V30 126 H 15.8098 0.944649 2.37718 0
M  V30 127 H 15.4538 1.61814 4.81434 0
M  V30 128 H 15.3838 -0.104013 5.26497 0
M  V30 129 H 17.8748 0.329288 3.76463 0
M  V30 130 H 18.1878 1.29409 7.61888 0
M  V30 131 H 16.5328 1.15695 6.85303 0
M  V30 132 H 19.7238 0.491752 4.6551 0
M  V30 133 H 19.8968 0.931482 6.4127 0
M  V30 134 N 13.3029 -1.57598 0.00835791 0
M  V30 135 C 14.7189 -1.55764 -0.347822 0
M  V30 136 C 14.9189 -1.01186 -1.74252 0
M  V30 137 O 13.9749 -0.649371 -2.44007 0
M  V30 138 C 15.2879 -2.99927 -0.215407 0
M  V30 139 C 16.8359 -3.11656 -0.289725 0
M  V30 140 C 17.3109 -4.57621 -0.18634 0
M  V30 141 N 18.8019 -4.62557 -0.243978 0
M  V30 142 C 19.5369 -5.73094 -0.18745 0
M  V30 143 N 19.0329 -6.92753 -0.0810331 0
M  V30 144 N 20.8259 -5.61588 -0.239925 0
M  V30 145 H 12.9769 -1.91411 0.92062 0
M  V30 146 H 15.2399 -0.879562 0.353659 0
M  V30 147 H 14.9459 -3.43729 0.744512 0
M  V30 148 H 14.8199 -3.63865 -0.994097 0
M  V30 149 H 17.2069 -2.67779 -1.24009 0
M  V30 150 H 17.2879 -2.5048 0.51898 0
M  V30 151 H 16.9319 -5.02174 0.760519 0
M  V30 152 H 16.8619 -5.16752 -1.01364 0
M  V30 153 H 19.3529 -3.76481 -0.327217 0
M  V30 154 H 19.6659 -7.72787 -0.0440241 0
M  V30 155 H 18.0109 -6.94984 -0.0465419 0
M  V30 156 H 21.2019 -4.66996 -0.321317 0
M  V30 157 H 21.3749 -6.47714 -0.192407 0
M  V30 158 N 14.781 0.264519 -1.55364 0
M  V30 159 C 15.711 1.33121 -1.91836 0
M  V30 160 C 16.692 1.51101 -0.781192 0
M  V30 161 O 17.877 1.64003 -1.04003 0
M  V30 162 C 15.007 2.68921 -2.19769 0
M  V30 163 C 13.961 2.65661 -3.35571 0
M  V30 164 C 13.287 4.05093 -3.49004 0
M  V30 165 C 14.587 2.24187 -4.71739 0
M  V30 166 H 16.281 1.02844 -2.81182 0
M  V30 167 H 13.827 0.493286 -1.35287 0
M  V30 168 H 15.78 3.43663 -2.43872 0
M  V30 169 H 14.504 3.00799 -1.27231 0
M  V30 170 H 13.163 1.93377 -3.1145 0
M  V30 171 H 12.811 4.34206 -2.53917 0
M  V30 172 H 12.511 4.03804 -4.26868 0
M  V30 173 H 14.035 4.81561 -3.75408 0
M  V30 174 H 15.449 2.88654 -4.9533 0
M  V30 175 H 13.846 2.34044 -5.52579 0
M  V30 176 H 14.916 1.19327 -4.69988 0
M  V30 177 N 16.2591 1.48442 0.529413 0
M  V30 178 C 17.5081 1.55742 1.28169 0
M  V30 179 C 17.8211 0.236511 1.94165 0
M  V30 180 O 19.0271 0.187761 2.7085 0
M  V30 181 C 17.4831 2.74667 2.32564 0
M  V30 182 C 17.0911 4.13402 1.72636 0
M  V30 183 C 18.8351 2.9128 3.08798 0
M  V30 184 C 16.7421 5.23587 2.74975 0
M  V30 185 H 15.6721 0.579796 0.48203 0
M  V30 186 H 18.3231 1.74776 0.559056 0
M  V30 187 H 16.7051 2.49067 3.07866 0
M  V30 188 H 17.8791 4.49022 1.03519 0
M  V30 189 H 16.1941 4.0191 1.08892 0
M  V30 190 H 18.7911 3.70767 3.85274 0
M  V30 191 H 19.1341 2.00757 3.64695 0
M  V30 192 H 19.6671 3.16782 2.40611 0
M  V30 193 H 16.4061 6.16076 2.23897 0
M  V30 194 H 15.9261 4.92454 3.42417 0
M  V30 195 H 17.6051 5.51724 3.37949 0
M  V30 196 N 17.7372 -0.778329 1.37039 0
M  V30 197 C 18.9652 -1.56734 1.35063 0
M  V30 198 C 19.3802 -1.88686 -0.0655597 0
M  V30 199 O 18.7372 -1.5096 -1.02554 0
M  V30 200 C 18.7882 -2.88163 2.18276 0
M  V30 201 O 18.5092 -2.57583 3.54376 0
M  V30 202 C 20.0102 -3.82422 2.24206 0
M  V30 203 H 17.2302 -0.485778 0.462883 0
M  V30 204 H 19.7742 -0.965185 1.8029 0
M  V30 205 H 17.9292 -3.44818 1.76576 0
M  V30 206 H 18.3432 -3.41699 3.97922 0
M  V30 207 H 19.8172 -4.71667 2.86765 0
M  V30 208 H 20.2942 -4.21078 1.24861 0
M  V30 209 H 20.9002 -3.31697 2.6619 0
M  V30 210 N 19.2153 -1.21501 -1.00376 0
M  V30 211 C 20.1623 -0.975387 -2.09177 0
M  V30 212 C 21.1323 0.0990615 -1.65804 0
M  V30 213 O 22.3173 -0.0483147 -1.90739 0
M  V30 214 C 19.4573 -0.547507 -3.40729 0
M  V30 215 C 18.5703 -1.69153 -3.97506 0
M  V30 216 C 17.7053 -1.2127 -5.17172 0
M  V30 217 C 16.7443 -2.32897 -5.66061 0
M  V30 218 N 15.8813 -1.86138 -6.76976 0
M  V30 219 H 20.7213 -1.9068 -2.29009 0
M  V30 220 H 18.2583 -0.950257 -1.12288 0
M  V30 221 H 20.2163 -0.280667 -4.16255 0
M  V30 222 H 18.8463 0.346904 -3.20931 0
M  V30 223 H 17.8983 -2.07298 -3.18954 0
M  V30 224 H 19.2103 -2.5316 -4.29781 0
M  V30 225 H 18.3643 -0.902591 -5.99948 0
M  V30 226 H 17.1033 -0.342692 -4.86495 0
M  V30 227 H 16.1083 -2.64709 -4.81881 0
M  V30 228 H 17.3333 -3.20396 -5.98768 0
M  V30 229 H 15.2793 -1.01484 -6.48103 0
M  V30 230 H 15.1963 -2.63717 -7.08512 0
M  V30 231 H 16.4643 -1.58165 -7.63285 0
M  V30 232 N 20.6934 1.19889 -1.02296 0
M  V30 233 C 22.1044 1.71124 -0.746568 0
M  V30 234 C 22.4554 1.81939 0.734335 0
M  V30 235 O 21.5804 1.48639 1.57275 0
M  V30 236 C 22.1754 3.10804 -1.34857 0
M  V30 237 C 20.7344 3.59323 -1.1209 0
M  V30 238 C 19.8814 2.3635 -1.45031 0
M  V30 239 H 22.8324 1.04813 -1.19163 0
M  V30 240 H 22.8534 3.73186 -0.742437 0
M  V30 241 H 22.3654 3.029 -2.42638 0
M  V30 242 H 20.4664 3.7255 -0.0610337 0
M  V30 243 H 20.5794 4.4378 -1.80544 0
M  V30 244 H 18.9434 2.39399 -0.869487 0
M  V30 245 H 19.7264 2.31081 -2.53883 0
M  V30 246 N 22.1715 0.800033 1.35784 0
M  V30 247 C 23.1035 0.163596 2.28615 0
M  V30 248 C 24.1165 -0.633317 1.49976 0
M  V30 249 O 25.3055 -0.466754 1.72289 0
M  V30 250 C 22.4055 -0.790958 3.29541 0
M  V30 251 C 21.5785 -0.0418255 4.3738 0
M  V30 252 C 20.6375 -0.91389 5.18203 0
M  V30 253 O 19.6635 -0.367234 5.68014 0
M  V30 254 N 20.8655 -2.23682 5.35674 0
M  V30 255 H 23.6305 0.96105 2.83873 0
M  V30 256 H 21.1915 0.654894 1.48063 0
M  V30 257 H 23.1835 -1.37844 3.80501 0
M  V30 258 H 21.7535 -1.48925 2.74846 0
M  V30 259 H 20.9735 0.726813 3.87442 0
M  V30 260 H 22.2615 0.474719 5.06581 0
M  V30 261 H 21.6595 -2.70497 4.96838 0
M  V30 262 H 20.2165 -2.77369 5.89839 0
M  V30 263 N 23.6496 -1.47581 0.552962 0
M  V30 264 C 24.5976 -2.31648 -0.21023 0
M  V30 265 C 25.5916 -1.42663 -0.913432 0
M  V30 266 O 26.7976 -1.5945 -0.835201 0
M  V30 267 H 23.1726 -0.746989 -0.0866676 0
M  V30 268 H 25.1436 -2.93869 0.518051 0
M  V30 269 C 23.8926 -3.25226 -1.22976 0
M  V30 270 H 23.2156 -3.93658 -0.698077 0
M  V30 271 H 24.6556 -3.86889 -1.73473 0
M  V30 272 C 23.1146 -2.48448 -2.27542 0
M  V30 273 O 23.6446 -2.22585 -3.34393 0
M  V30 274 N 21.8506 -2.09532 -2.01357 0
M  V30 275 H 21.3976 -2.30765 -1.14478 0
M  V30 276 H 21.3556 -1.58476 -2.71538 0
M  V30 277 N 25.1277 -0.289203 -1.54924 0
M  V30 278 C 26.0577 0.58549 -2.2604 0
M  V30 279 C 27.0387 1.14753 -1.25562 0
M  V30 280 O 28.2237 1.17906 -1.54311 0
M  V30 281 C 25.3537 1.76305 -2.99222 0
M  V30 282 C 24.3077 1.33191 -4.06748 0
M  V30 283 C 23.6337 2.5937 -4.6758 0
M  V30 284 C 24.9337 0.471775 -5.20165 0
M  V30 285 H 26.6277 -0.00763532 -2.99399 0
M  V30 286 H 24.1737 -0.00511229 -1.43999 0
M  V30 287 H 26.1267 2.38097 -3.47689 0
M  V30 288 H 24.8507 2.38223 -2.23422 0
M  V30 289 H 23.5097 0.737121 -3.59113 0
M  V30 290 H 23.1577 3.19576 -3.88433 0
M  V30 291 H 22.8577 2.31228 -5.40192 0
M  V30 292 H 24.3817 3.21985 -5.18804 0
M  V30 293 H 25.7957 0.995056 -5.64599 0
M  V30 294 H 24.1927 0.284639 -5.99425 0
M  V30 295 H 25.2627 -0.506041 -4.82252 0
M  V30 296 N 26.6058 1.57591 -0.0167156 0
M  V30 297 C 27.5538 2.10604 0.987353 0
M  V30 298 C 28.5478 1.02977 1.34507 0
M  V30 299 O 29.7538 1.21425 1.32875 0
M  V30 300 H 26.1288 0.672695 0.336134 0
M  V30 301 H 28.0998 2.93925 0.514817 0
M  V30 302 C 26.8488 2.6382 2.26483 0
M  V30 303 H 26.1718 3.46278 1.99829 0
M  V30 304 H 27.6118 3.04573 2.94977 0
M  V30 305 C 26.0708 1.55992 2.9861 0
M  V30 306 O 26.6008 0.952521 3.90243 0
M  V30 307 N 24.8068 1.28335 2.60727 0
M  V30 308 H 24.3538 1.77914 1.86291 0
M  V30 309 H 24.3118 0.564115 3.09298 0
M  V30 310 N 28.0839 -0.256276 1.55502 0
M  V30 311 C 29.3609 -1.00789 1.67633 0
M  V30 312 C 29.7409 -2.03706 0.553826 0
M  V30 313 O 29.0889 -2.24145 -0.443969 0
M  V30 314 C 29.2989 -1.64968 3.07549 0
M  V30 315 C 30.6469 -2.15505 3.65845 0
M  V30 316 O 31.6709 -1.74925 3.1029 0
M  V30 317 O 30.5299 -2.89986 4.63217 0
M  V30 318 H 27.6239 -0.468553 0.681459 0
M  V30 319 H 30.1699 -0.250806 1.67836 0
M  V30 320 H 28.9419 -0.904785 3.80696 0
M  V30 321 H 28.5649 -2.47321 3.11317 0
M  V30 322 N 29.562 -1.4872 -0.521534 0
M  V30 323 C 30.525 -1.63379 -1.60748 0
M  V30 324 C 31.525 -0.50661 -1.52611 0
M  V30 325 O 32.715 -0.772601 -1.5613 0
M  V30 326 C 29.847 -1.61192 -3.00383 0
M  V30 327 H 31.04 -2.60217 -1.49087 0
M  V30 328 H 28.593 -1.37444 -0.744235 0
M  V30 329 H 29.328 -0.65863 -3.17541 0
M  V30 330 H 29.113 -2.43032 -3.07698 0
M  V30 331 H 30.603 -1.7466 -3.7932 0
M  V30 332 N 31.0401 0.771051 -1.3745 0
M  V30 333 C 32.2701 1.55789 -1.35696 0
M  V30 334 C 32.6781 1.89107 0.0594523 0
M  V30 335 O 32.0211 1.51984 1.03183 0
M  V30 336 C 32.0831 2.89515 -2.13123 0
M  V30 337 C 31.7471 2.78829 -3.62082 0
M  V30 338 C 32.7441 2.49812 -4.5595 0
M  V30 339 C 30.4291 2.9683 -4.05213 0
M  V30 340 C 32.4231 2.38923 -5.90927 0
M  V30 341 C 30.1101 2.85562 -5.40276 0
M  V30 342 C 31.1081 2.56649 -6.32946 0
M  V30 343 O 30.7961 2.45408 -7.65526 0
M  V30 344 H 30.5281 0.489257 -0.466481 0
M  V30 345 H 33.0821 0.963446 -1.81403 0
M  V30 346 H 31.3121 3.51081 -1.62107 0
M  V30 347 H 33.0011 3.50915 -2.03994 0
M  V30 348 H 33.7671 2.3559 -4.23937 0
M  V30 349 H 29.6461 3.18335 -3.33442 0
M  V30 350 H 33.1901 2.16277 -6.63227 0
M  V30 351 H 29.0871 2.99351 -5.71891 0
M  V30 352 H 29.8551 2.60753 -7.75855 0
M  V30 353 N 32.5182 1.22032 0.997298 0
M  V30 354 C 33.7662 1.04016 1.73278 0
M  V30 355 C 34.0872 -0.426255 1.90284 0
M  V30 356 O 33.3572 -1.30694 1.45931 0
M  V30 357 H 31.9372 0.381897 0.642 0
M  V30 358 H 34.5992 1.5347 1.20137 0
M  V30 359 H 33.6952 1.51441 2.72896 0
M  V30 360 N 33.9963 -1.19345 1.0293 0
M  V30 361 C 35.4073 -1.70725 0.755633 0
M  V30 362 C 35.7583 -1.82326 -0.724676 0
M  V30 363 O 34.8833 -1.49471 -1.56484 0
M  V30 364 C 35.4783 -3.10084 1.36503 0
M  V30 365 C 34.0373 -3.58723 1.13994 0
M  V30 366 C 33.1843 -2.35577 1.46283 0
M  V30 367 H 36.1353 -1.0418 1.19718 0
M  V30 368 H 36.1563 -3.72787 0.762217 0
M  V30 369 H 35.6683 -3.01609 2.44241 0
M  V30 370 H 33.7693 -3.72512 0.0807901 0
M  V30 371 H 33.8823 -4.42816 1.82894 0
M  V30 372 H 32.2463 -2.38935 0.88217 0
M  V30 373 H 33.0293 -2.29731 2.55105 0
M  V30 374 N 35.4744 -0.807222 -1.35358 0
M  V30 375 C 36.8854 -0.44876 -1.81226 0
M  V30 376 C 37.2364 1.02929 -1.67033 0
M  V30 377 O 36.3614 1.79991 -1.20133 0
M  V30 378 C 36.9564 -0.807774 -3.2903 0
M  V30 379 C 35.5154 -0.501901 -3.73039 0
M  V30 380 C 34.6624 -1.03304 -2.57339 0
M  V30 381 H 37.6134 -0.998808 -1.23327 0
M  V30 382 H 37.6344 -0.10554 -3.80354 0
M  V30 383 H 37.1464 -1.88357 -3.39328 0
M  V30 384 H 35.2474 0.565128 -3.68289 0
M  V30 385 H 35.3604 -1.03497 -4.67787 0
M  V30 386 H 33.7244 -0.455339 -2.50597 0
M  V30 387 H 34.5074 -2.11496 -2.70415 0
M  V30 388 N 36.9525 1.47285 -0.560781 0
M  V30 389 C 38.1775 2.07359 -0.0410566 0
M  V30 390 C 38.6025 1.41017 1.24483 0
M  V30 391 O 37.9605 0.486368 1.74654 0
M  V30 392 C 38.0085 3.6035 0.134123 0
M  V30 393 O 37.1125 3.94681 1.19587 0
M  V30 394 H 36.4535 0.661887 -0.0529291 0
M  V30 395 H 38.9835 1.89252 -0.777482 0
M  V30 396 H 38.9935 4.0652 0.347207 0
M  V30 397 H 37.6685 4.08034 -0.805047 0
M  V30 398 H 36.2455 3.60251 0.962987 0
M  V30 399 N 38.4306 0.297415 1.54768 0
M  V30 400 C 39.3786 -0.596051 2.24833 0
M  V30 401 C 40.3726 -1.13992 1.25308 0
M  V30 402 O 41.5786 -1.09098 1.4317 0
M  V30 403 H 37.9536 -0.210814 0.721846 0
M  V30 404 H 39.9246 0.0174667 2.98395 0
M  V30 405 C 38.6736 -1.75818 2.99972 0
M  V30 406 H 37.9966 -1.3489 3.76357 0
M  V30 407 H 39.4366 -2.35949 3.52284 0
M  V30 408 C 37.8956 -2.66014 2.06732 0
M  V30 409 O 38.4256 -3.67009 1.63302 0
M  V30 410 N 36.6316 -2.33669 1.72763 0
M  V30 411 H 36.1786 -1.51586 2.08277 0
M  V30 412 H 36.1366 -2.94285 1.10652 0
M  V30 413 N 39.9087 -1.5758 0.0250728 0
M  V30 414 C 41.1557 -1.91633 -0.654444 0
M  V30 415 C 41.4837 -0.901103 -1.72367 0
M  V30 416 O 40.7387 0.0905647 -1.9549 0
M  V30 417 C 41.0377 -3.32421 -1.31268 0
M  V30 418 C 40.7037 -4.49344 -0.374223 0
M  V30 419 C 39.3657 -4.8106 -0.115911 0
M  V30 420 C 41.7177 -5.20498 0.270432 0
M  V30 421 C 39.0457 -5.8129 0.79493 0
M  V30 422 C 41.3977 -6.21699 1.1693 0
M  V30 423 C 40.0617 -6.51859 1.43655 0
M  V30 424 H 39.3317 -0.701236 -0.239478 0
M  V30 425 H 41.9787 -1.91307 0.0859734 0
M  V30 426 H 40.2837 -3.28989 -2.12775 0
M  V30 427 H 41.9807 -3.56038 -1.84494 0
M  V30 428 H 38.5707 -4.24579 -0.58573 0
M  V30 429 H 42.7547 -4.96229 0.0839194 0
M  V30 430 H 38.0107 -6.03005 1.00973 0
M  V30 431 H 42.1847 -6.75955 1.67504 0
M  V30 432 H 39.8117 -7.2934 2.144 0
M  V30 433 N 41.3868 0.248026 -1.55636 0
M  V30 434 C 42.3168 1.31079 -1.93237 0
M  V30 435 C 43.2978 1.50264 -0.797174 0
M  V30 436 O 44.4828 1.62891 -1.05737 0
M  V30 437 C 41.6128 2.66575 -2.22609 0
M  V30 438 C 40.5668 2.62087 -3.3837 0
M  V30 439 C 39.8928 4.01369 -3.53281 0
M  V30 440 C 41.1928 2.19171 -4.7409 0
M  V30 441 H 42.8868 0.998556 -2.82257 0
M  V30 442 H 40.4328 0.47891 -1.35803 0
M  V30 443 H 42.3858 3.41057 -2.47503 0
M  V30 444 H 41.1098 2.99432 -1.30414 0
M  V30 445 H 39.7688 1.90063 -3.13483 0
M  V30 446 H 39.4168 4.31489 -2.58508 0
M  V30 447 H 39.1168 3.99254 -4.31127 0
M  V30 448 H 40.6408 4.77552 -3.80495 0
M  V30 449 H 42.0548 2.83384 -4.98363 0
M  V30 450 H 40.4518 2.2817 -5.5503 0
M  V30 451 H 41.5218 1.14336 -4.71227 0
M  V30 452 N 42.8649 1.48995 0.513639 0
M  V30 453 C 43.7749 1.67443 1.64317 0
M  V30 454 C 44.7909 0.556947 1.64846 0
M  V30 455 O 45.9669 0.830082 1.83498 0
M  V30 456 C 43.0319 1.72515 3.00732 0
M  V30 457 C 42.0929 2.96009 3.1093 0
M  V30 458 C 41.3259 3.00829 4.40837 0
M  V30 459 O 41.5489 2.13594 5.28898 0
M  V30 460 O 40.4829 3.93168 4.55744 0
M  V30 461 H 44.3089 2.63106 1.51687 0
M  V30 462 H 41.8939 1.32588 0.688543 0
M  V30 463 H 43.7759 1.78277 3.81831 0
M  V30 464 H 42.4509 0.800278 3.13651 0
M  V30 465 H 41.3579 2.9577 2.29065 0
M  V30 466 H 42.6909 3.87934 3.02933 0
M  V30 467 N 44.343 -0.763751 1.37857 0
M  V30 468 C 45.592 -1.51789 1.32827 0
M  V30 469 C 45.905 -1.95426 -0.0823719 0
M  V30 470 O 47.111 -2.70298 -0.255172 0
M  V30 471 C 45.567 -2.74133 2.33193 0
M  V30 472 C 45.175 -2.37562 3.79827 0
M  V30 473 C 46.919 -3.52054 2.37188 0
M  V30 474 C 44.826 -3.56456 4.71904 0
M  V30 475 H 43.756 -0.569896 0.493695 0
M  V30 476 H 46.407 -0.835822 1.63359 0
M  V30 477 H 44.789 -3.4427 1.9569 0
M  V30 478 H 45.963 -1.75157 4.26212 0
M  V30 479 H 44.278 -1.72798 3.78853 0
M  V30 480 H 46.875 -4.40437 3.03182 0
M  V30 481 H 47.218 -3.92486 1.38782 0
M  V30 482 H 47.751 -2.88921 2.7344 0
M  V30 483 H 44.49 -3.21099 5.71468 0
M  V30 484 H 44.01 -4.17938 4.30218 0
M  V30 485 H 45.689 -4.23168 4.89426 0
M  V30 486 N 45.8211 -1.22559 -0.990812 0
M  V30 487 C 47.0981 -0.959875 -1.70428 0
M  V30 488 C 47.4781 0.524455 -2.04481 0
M  V30 489 O 46.8261 1.49302 -1.72977 0
M  V30 490 C 47.0361 -1.85955 -2.95333 0
M  V30 491 C 48.3841 -2.11687 -3.68068 0
M  V30 492 O 49.4081 -1.8342 -3.05345 0
M  V30 493 O 48.2671 -2.59572 -4.80921 0
M  V30 494 H 45.3611 -0.361154 -0.743974 0
M  V30 495 H 47.9071 -1.33554 -1.04697 0
M  V30 496 H 46.6791 -2.86346 -2.66687 0
M  V30 497 H 46.3021 -1.4856 -3.68803 0
M  V30 498 N 47.2992 1.18797 -1.03562 0
M  V30 499 C 48.5452 1.8893 -0.737113 0
M  V30 500 C 48.8782 1.79837 0.732956 0
M  V30 501 O 48.1532 1.19525 1.5344 0
M  V30 502 C 48.4362 3.39607 -1.19745 0
M  V30 503 C 48.2892 3.57537 -2.72924 0
M  V30 504 C 49.6082 4.33069 -0.783526 0
M  V30 505 H 46.7272 0.686057 -0.269249 0
M  V30 506 H 49.3692 1.39797 -1.28673 0
M  V30 507 H 47.5192 3.81583 -0.729855 0
M  V30 508 H 49.1912 3.24688 -3.27682 0
M  V30 509 H 47.4342 3.00363 -3.12993 0
M  V30 510 H 48.1052 4.63238 -3.00191 0
M  V30 511 H 50.5812 3.98846 -1.18581 0
M  V30 512 H 49.4572 5.3707 -1.13343 0
M  V30 513 H 49.7182 4.40986 0.313681 0
M  V30 514 N 48.7773 0.814389 1.34928 0
M  V30 515 C 50.0023 0.410097 2.03305 0
M  V30 516 C 50.4273 -0.973464 1.60951 0
M  V30 517 O 49.7853 -1.63185 0.789964 0
M  V30 518 C 49.8333 0.51049 3.56968 0
M  V30 519 O 48.9373 -0.473035 4.09678 0
M  V30 520 H 48.2783 0.170088 0.641846 0
M  V30 521 H 50.8083 1.10244 1.72358 0
M  V30 522 H 50.8183 0.383135 4.06197 0
M  V30 523 H 49.4933 1.51963 3.87144 0
M  V30 524 H 48.0703 -0.305272 3.71648 0
M  V30 525 N 50.2554 -1.46986 0.568584 0
M  V30 526 C 51.2034 -2.31858 -0.185649 0
M  V30 527 C 52.1974 -1.43624 -0.898249 0
M  V30 528 O 53.4034 -1.60327 -0.818242 0
M  V30 529 H 49.7784 -0.747866 -0.0787399 0
M  V30 530 H 51.7494 -2.93303 0.549191 0
M  V30 531 C 50.4984 -3.26513 -1.19519 0
M  V30 532 H 49.8214 -3.94377 -0.656285 0
M  V30 533 H 51.2614 -3.88707 -1.6936 0
M  V30 534 C 49.7204 -2.50847 -2.24894 0
M  V30 535 O 50.2504 -2.26119 -3.32014 0
M  V30 536 N 48.4564 -2.11656 -1.99124 0
M  V30 537 H 48.0034 -2.31966 -1.12024 0
M  V30 538 H 47.9614 -1.61347 -2.69842 0
M  V30 539 N 51.7335 -0.305618 -1.54608 0
M  V30 540 C 53.1445 0.186098 -1.8577 0
M  V30 541 C 53.4955 1.53058 -1.22751 0
M  V30 542 O 52.6205 2.09888 -0.526893 0
M  V30 543 C 53.2155 0.344449 -3.37044 0
M  V30 544 C 51.7745 0.780384 -3.68221 0
M  V30 545 C 50.9215 -0.108554 -2.77087 0
M  V30 546 H 53.8725 -0.526485 -1.49712 0
M  V30 547 H 53.8935 1.17828 -3.61796 0
M  V30 548 H 53.4055 -0.634235 -3.82883 0
M  V30 549 H 51.5065 1.76945 -3.27904 0
M  V30 550 H 51.6195 0.596572 -4.75371 0
M  V30 551 H 49.9835 0.412931 -2.5133 0
M  V30 552 H 50.7665 -1.08368 -3.25747 0
M  V30 553 N 53.2116 1.57565 -0.0334293 0
M  V30 554 C 54.1436 2.0739 0.975811 0
M  V30 555 C 55.1566 0.998166 1.2861 0
M  V30 556 O 56.3456 1.27426 1.25 0
M  V30 557 C 53.4456 2.4871 2.30209 0
M  V30 558 C 52.6186 3.79413 2.17634 0
M  V30 559 C 51.6776 4.07237 3.33233 0
M  V30 560 O 50.7036 4.77425 3.09927 0
M  V30 561 N 51.9056 3.5775 4.5716 0
M  V30 562 H 54.6706 2.94598 0.55066 0
M  V30 563 H 52.2316 1.61173 0.15323 0
M  V30 564 H 54.2236 2.64413 3.06378 0
M  V30 565 H 52.7936 1.66845 2.64351 0
M  V30 566 H 52.0136 3.73465 1.26165 0
M  V30 567 H 53.3016 4.65038 2.0644 0
M  V30 568 H 52.6996 3.00976 4.78989 0
M  V30 569 H 51.2566 3.78724 5.30482 0
M  V30 570 N 54.6897 -0.239769 1.55765 0
M  V30 571 C 55.9177 -0.98417 1.81994 0
M  V30 572 C 56.3327 -1.7867 0.610124 0
M  V30 573 O 55.6897 -1.77571 -0.421271 0
M  V30 574 C 55.7407 -1.91635 3.06526 0
M  V30 575 O 55.4617 -1.14629 4.22838 0
M  V30 576 C 56.9627 -2.77616 3.45607 0
M  V30 577 H 54.1827 -0.28928 0.605441 0
M  V30 578 H 56.7267 -0.260499 2.02834 0
M  V30 579 H 54.8817 -2.5942 2.87715 0
M  V30 580 H 55.2957 -1.77745 4.93464 0
M  V30 581 H 56.7697 -3.38759 4.35828 0
M  V30 582 H 57.2467 -3.4909 2.6652 0
M  V30 583 H 57.8527 -2.15271 3.66795 0
M  V30 584 N 56.1678 -1.49265 -0.50573 0
M  V30 585 C 57.4138 -1.58748 -1.26202 0
M  V30 586 C 57.7468 -0.271227 -1.92297 0
M  V30 587 O 57.0218 0.724831 -1.80489 0
M  V30 588 C 57.3048 -2.74332 -2.33268 0
M  V30 589 C 57.1578 -4.15737 -1.71705 0
M  V30 590 C 58.4768 -2.85576 -3.34865 0
M  V30 591 H 55.5958 -0.577826 -0.457478 0
M  V30 592 H 58.2378 -1.81532 -0.560897 0
M  V30 593 H 56.3878 -2.55036 -2.93068 0
M  V30 594 H 58.0598 -4.46537 -1.15769 0
M  V30 595 H 56.3028 -4.21605 -1.02135 0
M  V30 596 H 56.9738 -4.92477 -2.49341 0
M  V30 597 H 59.4498 -3.03127 -2.8505 0
M  V30 598 H 58.3258 -3.68135 -4.07146 0
M  V30 599 H 58.5868 -1.94732 -3.96903 0
M  V30 600 N 57.6459 0.756429 -1.3826 0
M  V30 601 C 58.8939 1.51248 -1.34047 0
M  V30 602 C 59.2149 1.94875 0.0698372 0
M  V30 603 O 58.4849 1.67436 1.01696 0
M  V30 604 H 57.0649 0.561018 -0.493222 0
M  V30 605 H 59.7269 0.899347 -1.7291 0
M  V30 606 H 58.8229 2.40472 -1.98947 0
M  V30 607 N 59.124 1.23083 0.984299 0
M  V30 608 C 60.37 1.06214 1.72761 0
M  V30 609 C 60.703 -0.400584 1.90024 0
M  V30 610 O 59.978 -1.29672 1.44967 0
M  V30 611 C 60.261 1.78375 3.12817 0
M  V30 612 C 60.114 3.32296 3.03149 0
M  V30 613 C 61.433 1.54309 4.12161 0
M  V30 614 H 58.552 0.387251 0.627061 0
M  V30 615 H 61.194 1.51536 1.14616 0
M  V30 616 H 59.344 1.39848 3.62457 0
M  V30 617 H 61.016 3.8032 2.61064 0
M  V30 618 H 59.259 3.6153 2.39747 0
M  V30 619 H 59.93 3.77972 4.02295 0
M  V30 620 H 62.406 1.87791 3.71314 0
M  V30 621 H 61.282 2.07281 5.08258 0
M  V30 622 H 61.543 0.477572 4.39513 0
M  V30 623 N 60.6021 -1.18246 1.0419 0
M  V30 624 C 61.8501 -1.87886 0.744543 0
M  V30 625 C 62.1711 -1.8082 -0.730006 0
M  V30 626 O 61.4411 -1.22736 -1.52685 0
M  V30 627 H 60.0211 -0.695556 0.272417 0
M  V30 628 H 62.6831 -1.43494 1.31892 0
M  V30 629 H 61.7791 -2.9389 1.05049 0
M  V30 630 N 62.0802 -0.821533 -1.34494 0
M  V30 631 C 63.4962 -0.507117 -1.51329 0
M  V30 632 C 63.6962 0.968964 -1.76673 0
M  V30 633 O 62.7522 1.75348 -1.81685 0
M  V30 634 C 64.0652 -1.36544 -2.67911 0
M  V30 635 C 65.6132 -1.36242 -2.81793 0
M  V30 636 C 66.0882 -2.2052 -4.01416 0
M  V30 637 N 67.5792 -2.18136 -4.08621 0
M  V30 638 C 68.3142 -2.80095 -5.00334 0
M  V30 639 N 67.8102 -3.51039 -5.9728 0
M  V30 640 N 69.6032 -2.69656 -4.93196 0
M  V30 641 H 61.7542 -1.77729 -1.16302 0
M  V30 642 H 64.0172 -0.757291 -0.570276 0
M  V30 643 H 63.7232 -2.41361 -2.55808 0
M  V30 644 H 63.5972 -1.02917 -3.62888 0
M  V30 645 H 65.9842 -0.322041 -2.93338 0
M  V30 646 H 66.0652 -1.73866 -1.87628 0
M  V30 647 H 65.7092 -3.24607 -3.90631 0
M  V30 648 H 65.6392 -1.80247 -4.94791 0
M  V30 649 H 68.1302 -1.6653 -3.39229 0
M  V30 650 H 68.4432 -3.95565 -6.63889 0
M  V30 651 H 66.7882 -3.55145 -5.97409 0
M  V30 652 H 69.9792 -2.13808 -4.16418 0
M  V30 653 H 70.1522 -3.1823 -5.64476 0
M  V30 654 N 63.5583 1.46682 -0.576371 0
M  V30 655 C 64.8063 2.02013 -0.0594163 0
M  V30 656 C 65.1273 1.45101 1.30271 0
M  V30 657 O 64.3973 0.633317 1.8538 0
M  V30 658 H 62.9773 0.746759 -0.0189745 0
M  V30 659 H 65.6393 1.79862 -0.750717 0
M  V30 660 H 64.7353 3.12097 0.014345 0
M  V30 661 N 65.0364 0.313813 1.54444 0
M  V30 662 C 66.4524 -0.0391619 1.59552 0
M  V30 663 C 66.6524 -1.51322 1.33056 0
M  V30 664 O 65.7084 -2.26782 1.11022 0
M  V30 665 C 67.0214 0.370302 2.98411 0
M  V30 666 C 68.5694 0.320139 3.11358 0
M  V30 667 C 69.0444 0.704617 4.52547 0
M  V30 668 N 70.5354 0.657645 4.58508 0
M  V30 669 C 71.2704 0.927453 5.6585 0
M  V30 670 N 70.7664 1.26389 6.81174 0
M  V30 671 N 72.5594 0.853662 5.5558 0
M  V30 672 H 64.7104 1.27433 1.69925 0
M  V30 673 H 66.9734 0.517511 0.794284 0
M  V30 674 H 66.6794 1.39694 3.22767 0
M  V30 675 H 66.5534 -0.269619 3.76235 0
M  V30 676 H 68.9404 -0.697275 2.86744 0
M  V30 677 H 69.0214 0.99486 2.35661 0
M  V30 678 H 68.6654 1.7199 4.77893 0
M  V30 679 H 68.5954 0.00768843 5.26599 0
M  V30 680 H 71.0864 0.409067 3.75679 0
M  V30 681 H 71.3994 1.4554 7.58972 0
M  V30 682 H 69.7444 1.30206 6.82694 0
M  V30 683 H 72.9354 0.590383 4.64362 0
M  V30 684 H 73.1084 1.0673 6.3915 0
M  V30 685 N 66.5145 -1.57545 0.0417849 0
M  V30 686 C 67.7615 -1.92317 -0.634082 0
M  V30 687 C 68.0895 -0.919334 -1.71402 0
M  V30 688 O 67.3445 0.0698253 -1.95575 0
M  V30 689 C 67.6435 -3.33794 -1.27735 0
M  V30 690 C 67.3095 -4.49716 -0.326543 0
M  V30 691 C 65.9715 -4.81156 -0.0648814 0
M  V30 692 C 68.3235 -5.20182 0.325623 0
M  V30 693 C 65.6515 -5.80414 0.856539 0
M  V30 694 C 68.0035 -6.20424 1.23518 0
M  V30 695 C 66.6675 -6.50298 1.5056 0
M  V30 696 H 65.9375 -0.703736 -0.232027 0
M  V30 697 H 68.5845 -1.91205 0.106259 0
M  V30 698 H 66.8895 -3.31228 -2.09274 0
M  V30 699 H 68.5865 -3.57975 -1.80707 0
M  V30 700 H 65.1765 -4.25176 -0.540665 0
M  V30 701 H 69.3605 -4.96112 0.136546 0
M  V30 702 H 64.6165 -6.019 1.07363 0
M  V30 703 H 68.7905 -6.74141 1.74664 0
M  V30 704 H 66.4175 -7.27025 2.22123 0
M  V30 705 N 67.9926 0.231505 -1.5589 0
M  V30 706 C 69.2206 0.974505 -1.82513 0
M  V30 707 C 69.6356 1.78344 -0.619591 0
M  V30 708 O 68.9926 1.77792 0.411848 0
M  V30 709 C 69.0436 1.90007 -3.07538 0
M  V30 710 O 68.7646 1.12385 -4.2344 0
M  V30 711 C 70.2656 2.75779 -3.47075 0
M  V30 712 H 67.4856 0.286065 -0.606966 0
M  V30 713 H 70.0296 0.249739 -2.02969 0
M  V30 714 H 68.1846 2.57891 -2.89086 0
M  V30 715 H 68.5986 1.75125 -4.944 0
M  V30 716 H 70.0726 3.36443 -4.37619 0
M  V30 717 H 70.5496 3.47672 -2.68367 0
M  V30 718 H 71.1556 2.13323 -3.67931 0
M  V30 719 N 69.4707 1.49531 0.497807 0
M  V30 720 C 70.6987 1.62893 1.27567 0
M  V30 721 C 71.1137 0.301585 1.86376 0
M  V30 722 O 70.4707 -0.713335 1.67982 0
M  V30 723 C 70.5217 2.70013 2.40364 0
M  V30 724 O 70.2427 3.976 1.83972 0
M  V30 725 C 71.7437 2.94109 3.31685 0
M  V30 726 H 68.9637 0.548298 0.386794 0
M  V30 727 H 71.5077 1.95584 0.597245 0
M  V30 728 H 69.6627 2.40092 3.04031 0
M  V30 729 H 70.0767 4.56631 2.58047 0
M  V30 730 H 71.5507 3.72788 4.07104 0
M  V30 731 H 72.0277 2.04147 3.88871 0
M  V30 732 H 72.6337 3.2546 2.73781 0
M  V30 733 N 70.9488 -0.749086 1.3866 0
M  V30 734 C 72.1788 -1.53611 1.38157 0
M  V30 735 C 72.5868 -1.89177 -0.0293595 0
M  V30 736 O 71.9298 -1.53606 -1.00752 0
M  V30 737 C 71.9918 -2.86087 2.17702 0
M  V30 738 C 71.6558 -2.73034 3.66472 0
M  V30 739 C 72.6528 -2.42526 4.59866 0
M  V30 740 C 70.3378 -2.90345 4.09884 0
M  V30 741 C 72.3318 -2.29492 5.94653 0
M  V30 742 C 70.0188 -2.7693 5.4475 0
M  V30 743 C 71.0168 -2.46547 6.36949 0
M  V30 744 O 70.7048 -2.33199 7.69333 0
M  V30 745 H 70.4368 -0.481773 0.474205 0
M  V30 746 H 72.9908 -0.934465 1.82912 0
M  V30 747 H 71.2208 -3.48458 1.67672 0
M  V30 748 H 72.9098 -3.47625 2.09551 0
M  V30 749 H 73.6758 -2.28816 4.27631 0
M  V30 750 H 69.5548 -3.1299 3.38464 0
M  V30 751 H 73.0988 -2.05698 6.66584 0
M  V30 752 H 68.9958 -2.90215 5.76581 0
M  V30 753 H 69.7638 -2.48376 7.79905 0
M  V30 754 N 72.4269 -1.23603 -0.977757 0
M  V30 755 C 73.3369 -1.03632 -2.1047 0
M  V30 756 C 74.3529 0.0199435 -1.73989 0
M  V30 757 O 75.5289 -0.176076 -2.00629 0
M  V30 758 C 72.5939 -0.63276 -3.40877 0
M  V30 759 C 71.6549 -1.76437 -3.91367 0
M  V30 760 C 70.8879 -1.37997 -5.15551 0
M  V30 761 O 71.1109 -0.265357 -5.69782 0
M  V30 762 O 70.0449 -2.20201 -5.60174 0
M  V30 763 H 73.8709 -1.98086 -2.30208 0
M  V30 764 H 71.4559 -1.02332 -1.08851 0
M  V30 765 H 73.3379 -0.418761 -4.19314 0
M  V30 766 H 72.0129 0.282754 -3.22463 0
M  V30 767 H 70.9199 -2.03304 -3.14036 0
M  V30 768 H 72.2529 -2.6583 -4.14241 0
M  V30 769 N 73.905 1.17692 -1.04816 0
M  V30 770 C 75.154 1.87192 -0.751132 0
M  V30 771 C 75.467 1.8169 0.724441 0
M  V30 772 O 76.673 2.46625 1.13527 0
M  V30 773 C 75.129 3.35857 -1.29338 0
M  V30 774 C 74.737 3.4987 -2.79812 0
M  V30 775 C 76.481 4.10709 -1.07322 0
M  V30 776 C 74.388 4.92536 -3.27356 0
M  V30 777 H 73.318 0.701162 -0.277288 0
M  V30 778 H 75.969 1.32932 -1.26496 0
M  V30 779 H 74.351 3.89631 -0.707376 0
M  V30 780 H 75.525 3.06332 -3.44235 0
M  V30 781 H 73.84 2.88433 -3.00325 0
M  V30 782 H 76.437 5.15952 -1.4035 0
M  V30 783 H 76.78 4.16299 -0.0108001 0
M  V30 784 H 77.313 3.6313 -1.62423 0
M  V30 785 H 74.052 4.92119 -4.33012 0
M  V30 786 H 73.572 5.3676 -2.67673 0
M  V30 787 H 75.251 5.61288 -3.21815 0
M  V30 788 N 75.3831 0.828654 1.34056 0
M  V30 789 C 76.7991 0.515135 1.51058 0
M  V30 790 C 76.9991 -0.959581 1.77184 0
M  V30 791 O 76.0551 -1.74382 1.82612 0
M  V30 792 C 77.3681 1.37963 2.67183 0
M  V30 793 C 78.9161 1.37735 2.81066 0
M  V30 794 C 79.3911 2.22645 4.00241 0
M  V30 795 N 80.8821 2.203 4.07458 0
M  V30 796 C 81.6171 2.82744 4.98842 0
M  V30 797 N 81.1131 3.54201 5.9541 0
M  V30 798 N 82.9061 2.72268 4.91759 0
M  V30 799 H 75.0571 1.78343 1.15358 0
M  V30 800 H 77.3201 0.760304 0.566252 0
M  V30 801 H 77.0261 2.42714 2.54525 0
M  V30 802 H 76.9001 1.0484 3.62338 0
M  V30 803 H 79.2871 0.337593 2.93163 0
M  V30 804 H 79.3681 1.74859 1.86703 0
M  V30 805 H 79.0121 3.26674 3.88905 0
M  V30 806 H 78.9421 1.82869 4.93829 0
M  V30 807 H 81.4331 1.68327 3.38341 0
M  V30 808 H 81.7461 3.9908 6.61782 0
M  V30 809 H 80.0911 3.58308 5.95517 0
M  V30 810 H 83.2821 2.16014 4.15278 0
M  V30 811 H 83.4551 3.21219 5.62781 0
M  V30 812 N 76.8612 -1.46375 0.584142 0
M  V30 813 C 78.1072 -2.02678 0.0703716 0
M  V30 814 C 78.4402 -1.4545 -1.28678 0
M  V30 815 O 77.7152 -0.62014 -1.84349 0
M  V30 816 C 77.9982 -3.60099 0.00614674 0
M  V30 817 C 77.8512 -4.27709 1.3923 0
M  V30 818 C 79.1702 -4.34598 -0.693742 0
M  V30 819 H 76.2892 -0.736504 0.027047 0
M  V30 820 H 78.9312 -1.74501 0.751615 0
M  V30 821 H 77.0812 -3.84236 -0.574009 0
M  V30 822 H 78.7532 -4.14832 2.01773 0
M  V30 823 H 76.9962 -3.87016 1.95962 0
M  V30 824 H 77.6672 -5.36478 1.29982 0
M  V30 825 H 80.1432 -4.15615 -0.200869 0
M  V30 826 H 79.0192 -5.44318 -0.707714 0
M  V30 827 H 79.2802 -4.05759 -1.75533 0
M  V30 828 N 78.3393 -0.321999 -1.54275 0
M  V30 829 C 79.2863 0.544664 -2.24281 0
M  V30 830 C 80.2563 1.1129 -1.23303 0
M  V30 831 O 81.4413 1.15354 -1.51981 0
M  V30 832 C 78.5813 1.70045 -3.00298 0
M  V30 833 C 77.6943 1.16159 -4.1609 0
M  V30 834 C 76.8293 2.28293 -4.79641 0
M  V30 835 C 75.8683 1.71648 -5.8754 0
M  V30 836 N 75.0053 2.77438 -6.44959 0
M  V30 837 H 79.8453 -0.0588907 -2.97942 0
M  V30 838 H 77.3823 -0.0408345 -1.47043 0
M  V30 839 H 79.3403 2.38054 -3.42616 0
M  V30 840 H 77.9703 2.27531 -2.28975 0
M  V30 841 H 77.0223 0.373092 -3.78566 0
M  V30 842 H 78.3343 0.707087 -4.93763 0
M  V30 843 H 77.4883 3.0421 -5.2492 0
M  V30 844 H 76.2273 2.77079 -4.01346 0
M  V30 845 H 75.2323 0.942282 -5.41665 0
M  V30 846 H 76.4573 1.23741 -6.67731 0
M  V30 847 H 74.4033 3.25519 -5.69538 0
M  V30 848 H 74.3203 2.36547 -7.1804 0
M  V30 849 H 75.5883 3.53189 -6.94894 0
M  V30 850 N 79.8174 1.5752 -0.0501392 0
M  V30 851 C 81.0454 1.96963 0.633492 0
M  V30 852 C 81.4604 0.927631 1.6444 0
M  V30 853 O 80.8174 -0.0882665 1.82286 0
M  V30 854 C 80.8684 3.36487 1.32132 0
M  V30 855 O 80.5894 4.36693 0.350894 0
M  V30 856 C 82.0904 3.90682 2.09481 0
M  V30 857 H 79.3104 0.648244 0.173266 0
M  V30 858 H 81.8544 2.0417 -0.116134 0
M  V30 859 H 80.0094 3.30434 2.02218 0
M  V30 860 H 80.4234 5.17702 0.841735 0
M  V30 861 H 81.8974 4.90591 2.5303 0
M  V30 862 H 82.3744 3.26053 2.94255 0
M  V30 863 H 82.9804 4.00069 1.44307 0
M  V30 864 N 81.2955 -0.223234 1.56011 0
M  V30 865 C 82.2435 -1.29627 1.93131 0
M  V30 866 C 83.2375 -1.48608 0.813146 0
M  V30 867 O 84.4435 -1.49802 0.997966 0
M  V30 868 H 80.8185 -0.434563 0.613726 0
M  V30 869 H 82.7895 -0.955995 2.82672 0
M  V30 870 C 81.5385 -2.63983 2.26292 0
M  V30 871 H 80.8615 -2.50185 3.11846 0
M  V30 872 H 82.3015 -3.3788 2.56151 0
M  V30 873 C 80.7605 -3.18866 1.08747 0
M  V30 874 O 81.2905 -4.00192 0.347727 0
M  V30 875 N 79.4965 -2.77217 0.871743 0
M  V30 876 H 79.0435 -2.1119 1.47501 0
M  V30 877 H 79.0015 -3.1428 0.0869905 0
M  V30 878 N 82.7736 -1.49793 -0.48987 0
M  V30 879 C 83.7036 -1.70201 -1.59856 0
M  V30 880 C 84.6846 -0.55076 -1.60937 0
M  V30 881 O 85.8696 -0.787841 -1.77501 0
M  V30 882 C 82.9996 -1.77882 -2.98287 0
M  V30 883 C 81.9536 -2.92907 -3.12073 0
M  V30 884 C 81.2796 -2.85712 -4.51965 0
M  V30 885 C 82.5796 -4.3369 -2.91051 0
M  V30 886 H 84.2736 -2.63025 -1.43032 0
M  V30 887 H 81.8196 -1.26574 -0.686664 0
M  V30 888 H 83.7726 -1.90744 -3.75759 0
M  V30 889 H 82.4966 -0.816653 -3.16225 0
M  V30 890 H 81.1556 -2.79665 -2.37029 0
M  V30 891 H 80.8036 -1.8738 -4.66795 0
M  V30 892 H 80.5036 -3.62921 -4.62128 0
M  V30 893 H 82.0276 -3.00598 -5.31482 0
M  V30 894 H 83.4416 -4.47555 -3.58284 0
M  V30 895 H 81.8386 -5.12205 -3.12675 0
M  V30 896 H 82.9086 -4.47362 -1.87071 0
M  V30 897 N 84.2517 0.741722 -1.39055 0
M  V30 898 C 85.6627 1.31966 -1.32068 0
M  V30 899 C 86.0137 1.96192 0.0180797 0
M  V30 900 O 85.1387 1.95861 0.920196 0
M  V30 901 C 85.7337 2.39954 -2.39181 0
M  V30 902 C 84.2927 2.93438 -2.35735 0
M  V30 903 C 83.4397 1.66936 -2.21422 0
M  V30 904 H 86.3907 0.539721 -1.4924 0
M  V30 905 H 86.4117 3.20182 -2.05581 0
M  V30 906 H 85.9237 1.9318 -3.36605 0
M  V30 907 H 84.0247 3.4451 -1.41929 0
M  V30 908 H 84.1377 3.4701 -3.30335 0
M  V30 909 H 82.5017 1.91016 -1.68478 0
M  V30 910 H 83.2847 1.22224 -3.20806 0
M  V30 911 N 85.7298 1.2412 0.971189 0
M  V30 912 C 86.9788 1.07284 1.70801 0
M  V30 913 C 87.2918 -0.388902 1.91695 0
M  V30 914 O 88.4978 -0.677379 2.62914 0
M  V30 915 C 86.9538 1.87145 3.07416 0
M  V30 916 C 86.5618 3.37707 2.94377 0
M  V30 917 C 88.3058 1.78828 3.84995 0
M  V30 918 C 86.2128 4.09925 4.26281 0
M  V30 919 H 85.1428 0.397854 0.64049 0
M  V30 920 H 87.7938 1.4817 1.0825 0
M  V30 921 H 86.1758 1.39071 3.70777 0
M  V30 922 H 87.3498 3.93335 2.4005 0
M  V30 923 H 85.6648 3.46938 2.30267 0
M  V30 924 H 88.2618 2.30089 4.82662 0
M  V30 925 H 88.6048 0.75284 4.09436 0
M  V30 926 H 89.1378 2.24563 3.28354 0
M  V30 927 H 85.8768 5.13813 4.07033 0
M  V30 928 H 85.3968 3.59083 4.80437 0
M  V30 929 H 87.0758 4.1673 4.94919 0
M  V30 930 N 87.2079 -1.17134 1.05439 0
M  V30 931 C 88.4549 -1.87456 0.765942 0
M  V30 932 C 88.7829 -1.81189 -0.707153 0
M  V30 933 O 88.0379 -1.21633 -1.5331 0
M  V30 934 C 88.3369 -3.36833 1.19491 0
M  V30 935 C 88.0029 -3.63301 2.67063 0
M  V30 936 C 86.6649 -3.70234 3.07376 0
M  V30 937 C 89.0169 -3.74575 3.62413 0
M  V30 938 C 86.3449 -3.85933 4.41896 0
M  V30 939 C 88.6969 -3.91793 4.9667 0
M  V30 940 C 87.3609 -3.96966 5.36633 0
M  V30 941 H 86.6309 -0.685948 0.280278 0
M  V30 942 H 89.2779 -1.38556 1.32192 0
M  V30 943 H 87.5829 -3.87807 0.557969 0
M  V30 944 H 89.2799 -3.89611 0.948893 0
M  V30 945 H 85.8699 -3.58532 2.34846 0
M  V30 946 H 90.0539 -3.68537 3.32406 0
M  V30 947 H 85.3099 -3.88187 4.72357 0
M  V30 948 H 89.4839 -3.99458 5.70444 0
M  V30 949 H 87.1109 -4.08883 6.40874 0
M  V30 950 N 88.686 -0.835752 -1.33615 0
M  V30 951 C 89.633 -0.26473 -2.29277 0
M  V30 952 C 90.603 0.617712 -1.54187 0
M  V30 953 O 91.788 0.556641 -1.825 0
M  V30 954 C 88.928 0.556777 -3.40579 0
M  V30 955 C 88.041 -0.349339 -4.30585 0
M  V30 956 C 87.176 0.482969 -5.29 0
M  V30 957 C 86.215 -0.421732 -6.10645 0
M  V30 958 N 85.352 0.372262 -7.01112 0
M  V30 959 H 90.192 -1.08582 -2.77514 0
M  V30 960 H 87.729 -0.546927 -1.36554 0
M  V30 961 H 89.687 1.04852 -4.03809 0
M  V30 962 H 88.317 1.34286 -2.93542 0
M  V30 963 H 87.369 -0.959372 -3.68104 0
M  V30 964 H 88.681 -1.04445 -4.87742 0
M  V30 965 H 87.835 1.03866 -5.97743 0
M  V30 966 H 86.574 1.21153 -4.72412 0
M  V30 967 H 85.579 -0.989464 -5.40823 0
M  V30 968 H 86.804 -1.14861 -6.69316 0
M  V30 969 H 84.75 1.08426 -6.46977 0
M  V30 970 H 84.667 -0.264198 -7.55538 0
M  V30 971 H 85.935 0.910293 -7.74167 0
M  V30 972 N 90.1641 1.46063 -0.591896 0
M  V30 973 C 91.0941 2.33172 0.123673 0
M  V30 974 C 92.0751 1.45897 0.87453 0
M  V30 975 O 93.2601 1.74698 0.848181 0
M  V30 976 C 90.3901 3.28336 1.13194 0
M  V30 977 C 89.3441 4.25124 0.495324 0
M  V30 978 C 88.6701 5.09863 1.61071 0
M  V30 979 C 89.9701 5.19143 -0.573425 0
M  V30 980 H 91.6641 2.93252 -0.603646 0
M  V30 981 H 89.2101 1.41014 -0.291741 0
M  V30 982 H 91.1631 3.88137 1.64097 0
M  V30 983 H 89.8871 2.66383 1.88965 0
M  V30 984 H 88.5461 3.66599 0.00729452 0
M  V30 985 H 88.1941 4.44288 2.35832 0
M  V30 986 H 87.8941 5.75417 1.19035 0
M  V30 987 H 89.4181 5.72529 2.12233 0
M  V30 988 H 90.8321 5.73106 -0.1491 0
M  V30 989 H 89.2291 5.93089 -0.914636 0
M  V30 990 H 90.2991 4.62519 -1.45617 0
M  V30 991 N 91.6422 0.330177 1.54103 0
M  V30 992 C 92.5892 -0.532762 2.24567 0
M  V30 993 C 93.5592 -1.10635 1.23892 0
M  V30 994 O 94.7442 -1.14546 1.5259 0
M  V30 995 C 91.8842 -1.6845 3.01195 0
M  V30 996 C 90.9972 -1.13951 4.167 0
M  V30 997 C 90.1322 -2.25746 4.80845 0
M  V30 998 C 89.1712 -1.6853 5.88442 0
M  V30 999 N 88.3082 -2.74014 6.46421 0
M  V30 1000 H 93.1482 0.0746905 2.97906 0
M  V30 1001 H 90.6852 0.048632 1.4702 0
M  V30 1002 H 92.6432 -2.36234 3.43874 0
M  V30 1003 H 91.2732 -2.26314 2.30178 0
M  V30 1004 H 90.3252 -0.35301 3.78758 0
M  V30 1005 H 91.6372 -0.680892 4.94131 0
M  V30 1006 H 90.7912 -3.01422 5.26526 0
M  V30 1007 H 89.5302 -2.74947 4.0281 0
M  V30 1008 H 88.5352 -0.913543 5.42157 0
M  V30 1009 H 89.7602 -1.20198 6.68378 0
M  V30 1010 H 87.7062 -3.22494 5.71256 0
M  V30 1011 H 87.6232 -2.32735 7.19285 0
M  V30 1012 H 88.8912 -3.49499 6.96757 0
M  V30 1013 N 93.1203 -1.57491 0.0584922 0
M  V30 1014 C 94.0303 -2.15448 -0.928414 0
M  V30 1015 C 95.0463 -1.11416 -1.3365 0
M  V30 1016 O 96.2223 -1.4362 -1.41193 0
M  V30 1017 C 93.2873 -2.69393 -2.18239 0
M  V30 1018 C 92.3483 -3.88249 -1.83196 0
M  V30 1019 C 91.5813 -4.39613 -3.02616 0
M  V30 1020 O 91.8043 -3.90023 -4.16219 0
M  V30 1021 O 90.7383 -5.31111 -2.83204 0
M  V30 1022 H 94.5643 -3.00112 -0.465483 0
M  V30 1023 H 92.1493 -1.48499 -0.163826 0
M  V30 1024 H 94.0313 -3.04026 -2.91798 0
M  V30 1025 H 92.7063 -1.87796 -2.63656 0
M  V30 1026 H 91.6133 -3.58492 -1.06931 0
M  V30 1027 H 92.9463 -4.71098 -1.42573 0
M  V30 1028 N 94.5984 0.214957 -1.56127 0
M  V30 1029 C 95.8234 0.95924 -1.83884 0
M  V30 1030 C 96.2484 1.7689 -0.639644 0
M  V30 1031 O 95.6064 1.76566 0.411601 0
M  V30 1032 C 95.6544 1.84723 -3.09693 0
M  V30 1033 O 94.7584 2.94346 -2.8885 0
M  V30 1034 H 94.0994 0.27125 -0.606069 0
M  V30 1035 H 96.6294 0.226276 -2.03345 0
M  V30 1036 H 96.6394 2.25576 -3.39969 0
M  V30 1037 H 95.3144 1.25218 -3.96602 0
M  V30 1038 H 93.8914 2.57391 -2.69823 0
M  V30 1039 N 96.0765 1.50051 0.48192 0
M  V30 1040 C 97.3045 1.64237 1.25832 0
M  V30 1041 C 97.7195 0.321336 1.86045 0
M  V30 1042 O 97.0765 -0.695478 1.68729 0
M  V30 1043 C 97.1275 2.72548 2.37487 0
M  V30 1044 O 96.8485 3.99529 1.79745 0
M  V30 1045 C 98.3495 2.9761 3.28547 0
M  V30 1046 H 95.5695 0.55237 0.380957 0
M  V30 1047 H 98.1135 1.96207 0.576467 0
M  V30 1048 H 96.2685 2.43303 3.01467 0
M  V30 1049 H 96.6825 4.59342 2.5319 0
M  V30 1050 H 98.1565 3.77084 4.03127 0
M  V30 1051 H 98.6335 2.0826 3.86684 0
M  V30 1052 H 99.2395 3.28345 2.70314 0
M  V30 1053 N 97.5546 -0.734337 1.39446 0
M  V30 1054 C 98.8006 -1.49613 1.36908 0
M  V30 1055 C 99.1336 -1.94169 -0.0347829 0
M  V30 1056 O 98.4086 -1.66833 -0.999847 0
M  V30 1057 C 98.6916 -2.73534 2.34203 0
M  V30 1058 C 98.5446 -2.34993 3.83534 0
M  V30 1059 C 99.8636 -3.75635 2.29317 0
M  V30 1060 H 96.9826 -0.542714 0.498629 0
M  V30 1061 H 99.6246 -0.839597 1.70443 0
M  V30 1062 H 97.7746 -3.29553 2.05736 0
M  V30 1063 H 99.4466 -1.84601 4.22753 0
M  V30 1064 H 97.6896 -1.67213 4.00278 0
M  V30 1065 H 98.3606 -3.23738 4.47099 0
M  V30 1066 H 100.837 -3.29203 2.54489 0
M  V30 1067 H 99.7126 -4.60008 2.99472 0
M  V30 1068 H 99.9736 -4.22603 1.29842 0
M  V30 1069 N 99.0327 -1.24633 -0.964593 0
M  V30 1070 C 100.449 -1.01239 -1.2338 0
M  V30 1071 C 100.649 0.2769 -1.99588 0
M  V30 1072 O 99.7047 0.992241 -2.32187 0
M  V30 1073 C 101.018 -2.22937 -2.01791 0
M  V30 1074 C 102.566 -2.27594 -2.14872 0
M  V30 1075 C 103.041 -3.48921 -2.96678 0
M  V30 1076 N 104.532 -3.49257 -3.04259 0
M  V30 1077 C 105.267 -4.39795 -3.67924 0
M  V30 1078 N 104.763 -5.40591 -4.33281 0
M  V30 1079 N 106.556 -4.275 -3.64966 0
M  V30 1080 H 98.7067 -2.0748 -0.454502 0
M  V30 1081 H 100.97 -0.910647 -0.26349 0
M  V30 1082 H 100.676 -3.16587 -1.53184 0
M  V30 1083 H 100.55 -2.25306 -3.02518 0
M  V30 1084 H 102.937 -1.34473 -2.6268 0
M  V30 1085 H 103.018 -2.2925 -1.13482 0
M  V30 1086 H 102.662 -4.42359 -2.49562 0
M  V30 1087 H 102.592 -3.4451 -3.98272 0
M  V30 1088 H 105.083 -2.76337 -2.57771 0
M  V30 1089 H 105.396 -6.05904 -4.79687 0
M  V30 1090 H 103.741 -5.44475 -4.3194 0
M  V30 1091 H 106.932 -3.47987 -3.13086 0
M  V30 1092 H 107.105 -4.98258 -4.14298 0
M  V30 1093 N 100.511 1.16574 -1.06058 0
M  V30 1094 C 101.927 1.3904 -0.783585 0
M  V30 1095 C 102.127 1.91784 0.618145 0
M  V30 1096 O 101.183 2.11511 1.37911 0
M  V30 1097 C 102.496 2.37329 -1.84649 0
M  V30 1098 C 104.044 2.51018 -1.86973 0
M  V30 1099 C 104.519 3.52588 -2.92311 0
M  V30 1100 N 106.01 3.60113 -2.91329 0
M  V30 1101 C 106.745 4.38486 -3.69482 0
M  V30 1102 N 106.241 5.20302 -4.57447 0
M  V30 1103 N 108.034 4.33446 -3.57885 0
M  V30 1104 H 100.185 0.806725 -1.96483 0
M  V30 1105 H 102.448 0.417117 -0.851303 0
M  V30 1106 H 102.154 2.05663 -2.85299 0
M  V30 1107 H 102.028 3.36946 -1.6955 0
M  V30 1108 H 104.415 2.81989 -0.869827 0
M  V30 1109 H 104.496 1.51445 -2.0615 0
M  V30 1110 H 104.14 3.22354 -3.92492 0
M  V30 1111 H 104.07 4.51886 -2.70383 0
M  V30 1112 H 106.561 3.01707 -2.27555 0
M  V30 1113 H 106.874 5.77311 -5.13743 0
M  V30 1114 H 105.219 5.19653 -4.61503 0
M  V30 1115 H 108.41 3.68586 -2.88551 0
M  V30 1116 H 108.583 4.94279 -4.19037 0
M  V30 1117 N 101.989 0.842826 1.3317 0
M  V30 1118 C 103.405 0.531128 1.50503 0
M  V30 1119 C 103.605 -0.940734 1.78192 0
M  V30 1120 O 102.661 -1.72436 1.84451 0
M  V30 1121 C 103.974 1.40789 2.65705 0
M  V30 1122 C 105.522 1.40708 2.79589 0
M  V30 1123 C 105.997 2.26878 3.97857 0
M  V30 1124 N 107.488 2.24609 4.05099 0
M  V30 1125 C 108.223 2.88019 4.95815 0
M  V30 1126 N 107.719 3.60496 5.9162 0
M  V30 1127 N 109.512 2.77469 4.88843 0
M  V30 1128 H 101.663 1.79557 1.1346 0
M  V30 1129 H 103.926 0.766267 0.558156 0
M  V30 1130 H 103.632 2.454 2.51936 0
M  V30 1131 H 103.506 1.08677 3.61205 0
M  V30 1132 H 105.893 0.368668 2.92788 0
M  V30 1133 H 105.974 1.76829 1.84838 0
M  V30 1134 H 105.618 3.3078 3.85418 0
M  V30 1135 H 105.548 1.88096 4.91861 0
M  V30 1136 H 108.039 1.71906 3.36536 0
M  V30 1137 H 108.352 4.06076 6.57512 0
M  V30 1138 H 106.697 3.64604 5.91683 0
M  V30 1139 H 109.888 2.20406 4.12963 0
M  V30 1140 H 110.061 3.2717 5.59342 0
M  V30 1141 N 103.467 -1.45747 0.599634 0
M  V30 1142 C 104.697 -2.06369 0.0977132 0
M  V30 1143 C 105.105 -1.44624 -1.21985 0
M  V30 1144 O 104.448 -0.551831 -1.75216 0
M  V30 1145 C 104.51 -3.59284 -0.124673 0
M  V30 1146 C 104.174 -4.43318 1.10987 0
M  V30 1147 C 105.171 -4.78796 2.02609 0
M  V30 1148 C 102.856 -4.84194 1.33647 0
M  V30 1149 C 104.85 -5.53997 3.15224 0
M  V30 1150 C 102.537 -5.5915 2.46565 0
M  V30 1151 C 103.535 -5.93968 3.37182 0
M  V30 1152 O 103.223 -6.67405 4.48136 0
M  V30 1153 H 102.955 -0.673122 0.0623153 0
M  V30 1154 H 105.509 -1.88104 0.824981 0
M  V30 1155 H 103.739 -3.75919 -0.906745 0
M  V30 1156 H 105.428 -4.01775 -0.577201 0
M  V30 1157 H 106.194 -4.47781 1.86325 0
M  V30 1158 H 102.073 -4.56534 0.64016 0
M  V30 1159 H 105.617 -5.81091 3.85978 0
M  V30 1160 H 101.514 -5.89579 2.62805 0
M  V30 1161 H 102.282 -6.85847 4.46717 0
M  V30 1162 N 104.945 -0.338344 -1.53925 0
M  V30 1163 C 106.17 0.263987 -2.05713 0
M  V30 1164 C 106.595 1.43847 -1.21201 0
M  V30 1165 O 105.953 1.79904 -0.224535 0
M  V30 1166 C 106.001 0.662 -3.54471 0
M  V30 1167 O 105.105 1.76265 -3.72833 0
M  V30 1168 H 104.446 0.0448722 -0.662482 0
M  V30 1169 H 106.976 -0.491048 -1.9862 0
M  V30 1170 H 106.986 0.940594 -3.9701 0
M  V30 1171 H 105.661 -0.196937 -4.15433 0
M  V30 1172 H 104.238 1.48173 -3.42198 0
M  V30 1173 N 106.423 1.57458 -0.0668435 0
M  V30 1174 C 107.7 1.8469 0.644132 0
M  V30 1175 C 108.08 0.958343 1.88093 0
M  V30 1176 O 107.428 0.0233579 2.28488 0
M  V30 1177 C 107.638 3.34767 0.986509 0
M  V30 1178 C 108.986 4.02159 1.36212 0
M  V30 1179 O 110.01 3.39484 1.07839 0
M  V30 1180 O 108.869 5.12694 1.89227 0
M  V30 1181 H 105.963 0.762816 0.319437 0
M  V30 1182 H 108.509 1.6942 -0.0973986 0
M  V30 1183 H 107.281 3.91151 0.107883 0
M  V30 1184 H 106.904 3.55281 1.78497 0
M  V30 1185 N 107.901 -0.206675 1.56239 0
M  V30 1186 C 109.148 -0.928842 1.79941 0
M  V30 1187 C 109.476 -1.83734 0.638131 0
M  V30 1188 O 108.731 -1.92039 -0.376746 0
M  V30 1189 C 109.03 -1.78675 3.09532 0
M  V30 1190 C 108.696 -1.03022 4.38973 0
M  V30 1191 C 107.358 -0.821302 4.74139 0
M  V30 1192 C 109.71 -0.497081 5.18824 0
M  V30 1193 C 107.038 -0.0675719 5.86661 0
M  V30 1194 C 109.39 0.24338 6.32132 0
M  V30 1195 C 108.054 0.463422 6.65889 0
M  V30 1196 H 107.324 -0.339887 0.658451 0
M  V30 1197 H 109.971 -0.195977 1.90495 0
M  V30 1198 H 108.276 -2.58794 2.94165 0
M  V30 1199 H 109.973 -2.34792 3.25075 0
M  V30 1200 H 106.563 -1.20306 4.11369 0
M  V30 1201 H 110.747 -0.645921 4.92079 0
M  V30 1202 H 106.003 0.112995 6.11296 0
M  V30 1203 H 110.177 0.66393 6.93228 0
M  V30 1204 H 107.804 1.04938 7.52922 0
M  V30 1205 N 109.379 -1.50304 -0.473955 0
M  V30 1206 C 110.289 -1.7174 -1.5982 0
M  V30 1207 C 111.305 -0.600457 -1.63311 0
M  V30 1208 O 112.481 -0.878441 -1.81233 0
M  V30 1209 C 109.546 -1.80427 -2.96052 0
M  V30 1210 C 108.607 -3.04148 -3.02972 0
M  V30 1211 C 107.84 -3.12411 -4.32706 0
M  V30 1212 O 108.063 -2.27542 -5.23049 0
M  V30 1213 O 106.997 -4.05113 -4.45159 0
M  V30 1214 H 110.823 -2.67035 -1.44657 0
M  V30 1215 H 108.408 -1.34366 -0.653148 0
M  V30 1216 H 110.29 -1.88338 -3.7697 0
M  V30 1217 H 108.965 -0.883156 -3.11419 0
M  V30 1218 H 107.872 -3.0174 -2.21142 0
M  V30 1219 H 109.205 -3.95829 -2.92541 0
M  V30 1220 N 110.857 0.726932 -1.39834 0
M  V30 1221 C 112.103 1.48771 -1.38704 0
M  V30 1222 C 112.458 1.92394 0.0146387 0
M  V30 1223 O 111.751 1.64474 0.982797 0
M  V30 1224 C 111.945 2.73495 -2.30077 0
M  V30 1225 C 111.774 2.42068 -3.78989 0
M  V30 1226 C 110.544 2.33966 -4.4787 0
M  V30 1227 C 112.742 2.0708 -4.70768 0
M  V30 1228 N 110.724 1.95095 -5.82075 0
M  V30 1229 C 112.095 1.78719 -5.93683 0
M  V30 1230 C 114.15 1.93618 -4.58712 0
M  V30 1231 C 112.853 1.3825 -7.05889 0
M  V30 1232 C 114.879 1.54553 -5.70848 0
M  V30 1233 C 114.241 1.27082 -6.92842 0
M  V30 1234 H 110.34 0.542919 -0.562817 0
M  V30 1235 H 112.924 0.84408 -1.75452 0
M  V30 1236 H 111.095 3.35625 -1.95474 0
M  V30 1237 H 112.827 3.39755 -2.19883 0
M  V30 1238 H 109.582 2.51331 -4.0141 0
M  V30 1239 H 110.006 1.7823 -6.53118 0
M  V30 1240 H 114.648 2.13522 -3.64922 0
M  V30 1241 H 112.366 1.17088 -7.99572 0
M  V30 1242 H 115.952 1.44731 -5.6351 0
M  V30 1243 H 114.832 0.973069 -7.78139 0
M  V30 1244 N 112.336 1.25143 0.95797 0
M  V30 1245 C 113.266 1.07711 2.07173 0
M  V30 1246 C 114.247 -0.0128462 1.70095 0
M  V30 1247 O 115.432 0.156061 1.93572 0
M  V30 1248 C 112.562 0.691503 3.40346 0
M  V30 1249 C 111.516 1.73132 3.9142 0
M  V30 1250 C 110.842 1.20049 5.21049 0
M  V30 1251 C 112.142 3.1294 4.1817 0
M  V30 1252 H 113.836 2.00873 2.22014 0
M  V30 1253 H 111.382 0.967191 1.06684 0
M  V30 1254 H 113.335 0.556505 4.17709 0
M  V30 1255 H 112.059 -0.275819 3.25433 0
M  V30 1256 H 110.718 1.8547 3.16222 0
M  V30 1257 H 110.366 0.223499 5.02503 0
M  V30 1258 H 110.066 1.89545 5.56189 0
M  V30 1259 H 111.59 1.07782 6.01012 0
M  V30 1260 H 113.004 3.03775 4.86203 0
M  V30 1261 H 111.401 3.79875 4.64559 0
M  V30 1262 H 112.471 3.6025 3.24573 0
M  V30 1263 N 113.814 -1.1601 1.06675 0
M  V30 1264 C 115.23 -1.38622 0.790948 0
M  V30 1265 C 115.43 -1.92109 -0.607965 0
M  V30 1266 O 114.486 -2.12239 -1.36787 0
M  V30 1267 C 115.799 -2.36347 1.85905 0
M  V30 1268 C 117.347 -2.50023 1.88301 0
M  V30 1269 C 117.822 -3.51033 2.94176 0
M  V30 1270 N 119.313 -3.58563 2.93235 0
M  V30 1271 C 120.048 -4.36521 3.71803 0
M  V30 1272 N 119.544 -5.17869 4.602 0
M  V30 1273 N 121.337 -4.31541 3.60178 0
M  V30 1274 H 113.488 -0.796294 1.96908 0
M  V30 1275 H 115.751 -0.412597 0.853503 0
M  V30 1276 H 115.457 -2.04147 2.86386 0
M  V30 1277 H 115.331 -3.36042 1.71334 0
M  V30 1278 H 117.718 -2.81524 0.884769 0
M  V30 1279 H 117.799 -1.5035 2.06951 0
M  V30 1280 H 117.443 -3.20268 3.94196 0
M  V30 1281 H 117.373 -4.50445 2.72776 0
M  V30 1282 H 119.864 -3.00496 2.29152 0
M  V30 1283 H 120.177 -5.74578 5.16797 0
M  V30 1284 H 118.522 -5.17199 4.64253 0
M  V30 1285 H 121.713 -3.67051 2.90502 0
M  V30 1286 H 121.886 -4.9205 4.21653 0
M  V30 1287 N 115.292 -0.849877 -1.32721 0
M  V30 1288 C 116.517 -0.463856 -2.02146 0
M  V30 1289 C 116.942 0.930449 -1.63476 0
M  V30 1290 O 116.3 1.61033 -0.832952 0
M  V30 1291 C 116.348 -0.604955 -3.55489 0
M  V30 1292 O 115.452 0.36425 -4.10788 0
M  V30 1293 H 114.793 -0.187046 -0.637111 0
M  V30 1294 H 117.323 -1.14775 -1.69375 0
M  V30 1295 H 117.333 -0.490696 -4.05038 0
M  V30 1296 H 116.008 -1.62174 -3.82978 0
M  V30 1297 H 114.585 0.206628 -3.72327 0
M  V30 1298 N 116.77 1.45427 -0.607355 0
M  V30 1299 C 117.68 2.34325 0.113463 0
M  V30 1300 C 118.696 1.51226 0.860617 0
M  V30 1301 O 119.872 1.84029 0.818255 0
M  V30 1302 C 116.937 3.28839 1.09844 0
M  V30 1303 C 115.998 4.27844 0.353271 0
M  V30 1304 C 115.231 5.17842 1.29133 0
M  V30 1305 O 115.454 5.11264 2.52913 0
M  V30 1306 O 114.388 5.96713 0.788523 0
M  V30 1307 H 118.214 2.97364 -0.617094 0
M  V30 1308 H 115.799 1.44807 -0.367619 0
M  V30 1309 H 117.681 3.8708 1.66575 0
M  V30 1310 H 116.356 2.68365 1.81003 0
M  V30 1311 H 115.263 3.7322 -0.256494 0
M  V30 1312 H 116.596 4.91173 -0.317822 0
M  V30 1313 N 118.248 0.346503 1.53744 0
M  V30 1314 C 119.178 -0.501193 2.28058 0
M  V30 1315 C 120.159 -1.10014 1.29734 0
M  V30 1316 O 121.344 -1.12097 1.58581 0
M  V30 1317 C 118.474 -1.65078 3.05559 0
M  V30 1318 C 117.428 -1.18003 4.11411 0
M  V30 1319 C 116.754 -2.41837 4.76884 0
M  V30 1320 C 118.054 -0.278394 5.21558 0
M  V30 1321 H 119.748 0.11875 2.99164 0
M  V30 1322 H 117.294 0.0585531 1.43881 0
M  V30 1323 H 119.247 -2.25028 3.56287 0
M  V30 1324 H 117.971 -2.29767 2.32109 0
M  V30 1325 H 116.63 -0.603331 3.61601 0
M  V30 1326 H 116.278 -3.0494 4.00026 0
M  V30 1327 H 115.978 -2.1102 5.48402 0
M  V30 1328 H 117.502 -3.02508 5.30397 0
M  V30 1329 H 118.916 -0.784823 5.67903 0
M  V30 1330 H 117.313 -0.0619707 6.00068 0
M  V30 1331 H 118.383 0.684677 4.80042 0
M  V30 1332 N 119.726 -1.57421 0.075193 0
M  V30 1333 C 120.636 -2.1642 -0.905511 0
M  V30 1334 C 121.652 -1.12828 -1.32461 0
M  V30 1335 O 122.828 -1.45109 -1.39661 0
M  V30 1336 C 119.893 -2.71693 -2.15369 0
M  V30 1337 C 118.954 -3.90171 -1.79068 0
M  V30 1338 C 118.187 -4.42798 -2.97936 0
M  V30 1339 O 118.41 -3.94416 -4.12058 0
M  V30 1340 O 117.344 -5.34085 -2.77555 0
M  V30 1341 H 121.17 -3.00588 -0.433626 0
M  V30 1342 H 118.755 -1.48664 -0.148067 0
M  V30 1343 H 120.637 -3.07104 -2.88557 0
M  V30 1344 H 119.312 -1.90582 -2.61649 0
M  V30 1345 H 118.219 -3.59606 -1.03122 0
M  V30 1346 H 119.552 -4.72584 -1.37569 0
M  V30 1347 N 121.204 0.198386 -1.56346 0
M  V30 1348 C 122.62 0.549085 -1.49857 0
M  V30 1349 C 122.82 1.86016 -0.774611 0
M  V30 1350 O 121.876 2.50416 -0.323776 0
M  V30 1351 C 123.189 0.606868 -2.94512 0
M  V30 1352 C 124.737 0.695925 -3.05165 0
M  V30 1353 C 125.212 0.784848 -4.51225 0
M  V30 1354 N 126.703 0.848463 -4.55363 0
M  V30 1355 C 127.438 0.937378 -5.65686 0
M  V30 1356 N 126.934 0.9888 -6.85707 0
M  V30 1357 N 128.727 0.974312 -5.53592 0
M  V30 1358 H 120.878 -0.661655 -2.01831 0
M  V30 1359 H 123.141 -0.235261 -0.918344 0
M  V30 1360 H 122.847 -0.28732 -3.50524 0
M  V30 1361 H 122.721 1.46268 -3.47686 0
M  V30 1362 H 125.108 1.58055 -2.49204 0
M  V30 1363 H 125.189 -0.186022 -2.55123 0
M  V30 1364 H 124.833 -0.0954072 -5.0781 0
M  V30 1365 H 124.763 1.68255 -4.98997 0
M  V30 1366 H 127.254 0.818103 -3.68938 0
M  V30 1367 H 127.567 1.05707 -7.65536 0
M  V30 1368 H 125.912 0.957534 -6.88372 0
M  V30 1369 H 129.103 0.930954 -4.58749 0
M  V30 1370 H 129.276 1.04015 -6.39597 0
M  V30 1371 N 122.682 1.50554 0.465978 0
M  V30 1372 C 123.592 1.72585 1.58907 0
M  V30 1373 C 124.608 0.60911 1.6299 0
M  V30 1374 O 125.784 0.88804 1.80765 0
M  V30 1375 C 122.849 1.81995 2.95091 0
M  V30 1376 C 121.91 3.05751 3.01355 0
M  V30 1377 C 121.143 3.14702 4.31043 0
M  V30 1378 O 121.366 2.30313 5.21835 0
M  V30 1379 O 120.3 4.07468 4.43005 0
M  V30 1380 H 124.126 2.67799 1.43239 0
M  V30 1381 H 121.711 1.34711 0.646013 0
M  V30 1382 H 123.593 1.90335 3.75966 0
M  V30 1383 H 122.268 0.899659 3.10947 0
M  V30 1384 H 121.175 3.02908 2.19539 0
M  V30 1385 H 122.508 3.97375 2.90437 0
M  V30 1386 N 124.16 -0.719506 1.40217 0
M  V30 1387 C 125.385 -1.51371 1.4178 0
M  V30 1388 C 125.81 -1.88091 0.0182355 0
M  V30 1389 O 125.168 -1.52997 -0.972707 0
M  V30 1390 C 125.216 -2.768 2.31115 0
M  V30 1391 O 124.32 -3.73349 1.7517 0
M  V30 1392 H 123.661 -0.456529 0.482159 0
M  V30 1393 H 126.191 -0.88644 1.844 0
M  V30 1394 H 126.201 -3.25371 2.46167 0
M  V30 1395 H 124.876 -2.49407 3.3282 0
M  V30 1396 H 123.453 -3.32179 1.69444 0
M  V30 1397 N 125.638 -1.25649 -0.95132 0
M  V30 1398 C 126.585 -1.06323 -2.04851 0
M  V30 1399 C 127.555 0.0286491 -1.66075 0
M  V30 1400 O 128.74 -0.12917 -1.90362 0
M  V30 1401 C 125.88 -0.691529 -3.381 0
M  V30 1402 C 124.993 -1.85861 -3.89974 0
M  V30 1403 C 124.128 -1.43096 -5.11563 0
M  V30 1404 C 123.167 -2.56696 -5.55674 0
M  V30 1405 N 122.304 -2.14684 -6.68472 0
M  V30 1406 H 127.144 -2.00222 -2.20715 0
M  V30 1407 H 124.681 -0.997027 -1.08156 0
M  V30 1408 H 126.639 -0.456963 -4.1469 0
M  V30 1409 H 125.269 0.210474 -3.22113 0
M  V30 1410 H 124.321 -2.20639 -3.09875 0
M  V30 1411 H 125.633 -2.71161 -4.18657 0
M  V30 1412 H 124.787 -1.15624 -5.9558 0
M  V30 1413 H 123.526 -0.548722 -4.84603 0
M  V30 1414 H 122.531 -2.84909 -4.7022 0
M  V30 1415 H 123.756 -3.45503 -5.8464 0
M  V30 1416 H 121.702 -1.28881 -6.43215 0
M  V30 1417 H 121.619 -2.9353 -6.96689 0
M  V30 1418 H 122.887 -1.90397 -7.5589 0
M  V30 1419 N 127.117 1.15442 -1.07289 0
M  V30 1420 C 128.363 1.86489 -0.796846 0
M  V30 1421 C 128.696 1.82078 0.675371 0
M  V30 1422 O 127.971 1.24346 1.4956 0
M  V30 1423 C 128.254 3.35626 -1.30489 0
M  V30 1424 C 128.107 3.48673 -2.84161 0
M  V30 1425 C 129.426 4.30357 -0.920907 0
M  V30 1426 H 126.545 0.677144 -0.290939 0
M  V30 1427 H 129.187 1.35633 -1.33056 0
M  V30 1428 H 127.337 3.79068 -0.850883 0
M  V30 1429 H 129.009 3.14099 -3.37846 0
M  V30 1430 H 127.252 2.90253 -3.22391 0
M  V30 1431 H 127.923 4.53453 -3.14777 0
M  V30 1432 H 130.399 3.94871 -1.3121 0
M  V30 1433 H 129.275 5.33193 -1.30372 0
M  V30 1434 H 129.536 4.4176 0.173226 0
M  V30 1435 N 128.595 0.856903 1.32268 0
M  V30 1436 C 129.841 0.462069 1.97466 0
M  V30 1437 C 130.174 -0.980298 1.67642 0
M  V30 1438 O 129.449 -1.68824 0.965858 0
M  V30 1439 C 129.732 0.704336 3.53145 0
M  V30 1440 C 129.585 2.19529 3.9259 0
M  V30 1441 C 130.904 0.1622 4.39801 0
M  V30 1442 H 128.023 0.169357 0.717278 0
M  V30 1443 H 130.665 1.07574 1.56614 0
M  V30 1444 H 128.815 0.181999 3.88073 0
M  V30 1445 H 130.487 2.78387 3.67829 0
M  V30 1446 H 128.73 2.67292 3.41668 0
M  V30 1447 H 129.401 2.31549 5.01088 0
M  V30 1448 H 131.877 0.608905 4.11621 0
M  V30 1449 H 130.753 0.361265 5.4771 0
M  V30 1450 H 131.014 -0.935158 4.32096 0
M  V30 1451 N 130.073 -1.45103 0.615059 0
M  V30 1452 C 131.319 -2.02483 0.113347 0
M  V30 1453 C 131.652 -1.48146 -1.25564 0
M  V30 1454 O 130.927 -0.659104 -1.82992 0
M  V30 1455 C 131.21 -3.60005 0.0825278 0
M  V30 1456 C 131.063 -4.2466 1.48271 0
M  V30 1457 C 132.382 -4.35972 -0.601401 0
M  V30 1458 H 129.501 -0.735764 0.0426632 0
M  V30 1459 H 132.143 -1.72868 0.788461 0
M  V30 1460 H 130.293 -3.85367 -0.492378 0
M  V30 1461 H 131.965 -4.10458 2.10527 0
M  V30 1462 H 130.208 -3.82772 2.04127 0
M  V30 1463 H 130.879 -5.336 1.41332 0
M  V30 1464 H 133.355 -4.15947 -0.112666 0
M  V30 1465 H 132.231 -5.45697 -0.592097 0
M  V30 1466 H 132.492 -4.09391 -1.66887 0
M  V30 1467 N 131.551 -0.354651 -1.53558 0
M  V30 1468 C 132.962 0.126902 -1.86268 0
M  V30 1469 C 133.313 1.49075 -1.27558 0
M  V30 1470 O 132.438 2.08105 -0.5934 0
M  V30 1471 C 133.033 0.237046 -3.3797 0
M  V30 1472 C 131.592 0.662842 -3.70518 0
M  V30 1473 C 130.739 -0.196652 -2.76602 0
M  V30 1474 H 133.69 -0.573849 -1.47962 0
M  V30 1475 H 133.711 1.06259 -3.65362 0
M  V30 1476 H 133.223 -0.755725 -3.80671 0
M  V30 1477 H 131.324 1.66424 -3.33367 0
M  V30 1478 H 131.437 0.445034 -4.77029 0
M  V30 1479 H 129.801 0.332763 -2.52517 0
M  V30 1480 H 130.584 -1.18676 -3.22135 0
M  V30 1481 N 133.029 1.57378 -0.0835403 0
M  V30 1482 C 134.44 1.81261 0.447358 0
M  V30 1483 C 134.791 0.998331 1.68902 0
M  V30 1484 O 133.916 0.224282 2.15235 0
M  V30 1485 C 134.511 3.28767 0.818386 0
M  V30 1486 C 133.07 3.53455 1.29409 0
M  V30 1487 C 132.217 2.75831 0.285024 0
M  V30 1488 H 135.168 1.5566 -0.309115 0
M  V30 1489 H 135.189 3.41459 1.67887 0
M  V30 1490 H 134.701 3.88006 -0.0855019 0
M  V30 1491 H 132.802 2.99534 2.21608 0
M  V30 1492 H 132.915 4.62128 1.2639 0
M  V30 1493 H 131.279 2.42947 0.764767 0
M  V30 1494 H 132.062 3.37813 -0.611341 0
M  V30 1495 N 134.507 -0.190092 1.56449 0
M  V30 1496 C 135.437 -1.23816 1.97969 0
M  V30 1497 C 136.418 -1.47201 0.852395 0
M  V30 1498 O 137.603 -1.58854 1.1171 0
M  V30 1499 C 134.733 -2.5813 2.3235 0
M  V30 1500 C 133.687 -2.49348 3.47864 0
M  V30 1501 C 133.013 -3.8798 3.67934 0
M  V30 1502 C 134.313 -2.01424 4.81898 0
M  V30 1503 H 136.007 -0.89311 2.85769 0
M  V30 1504 H 133.553 -0.428177 1.37487 0
M  V30 1505 H 135.506 -3.31637 2.59991 0
M  V30 1506 H 134.23 -2.94386 1.41438 0
M  V30 1507 H 132.889 -1.78297 3.20321 0
M  V30 1508 H 132.537 -4.21597 2.74344 0
M  V30 1509 H 132.237 -3.82978 4.45648 0
M  V30 1510 H 133.761 -4.63101 3.97957 0
M  V30 1511 H 135.175 -2.64693 5.08538 0
M  V30 1512 H 133.572 -2.07413 5.63116 0
M  V30 1513 H 134.642 -0.967677 4.75146 0
M  V30 1514 N 135.985 -1.50799 -0.457987 0
M  V30 1515 C 137.396 -1.55152 -1.0385 0
M  V30 1516 C 137.747 -0.362719 -1.92818 0
M  V30 1517 O 136.872 0.522915 -2.09987 0
M  V30 1518 C 137.467 -2.81173 -1.89017 0
M  V30 1519 C 136.026 -2.88164 -2.42154 0
M  V30 1520 C 135.173 -2.49591 -1.20829 0
M  V30 1521 H 138.124 -1.56874 -0.240068 0
M  V30 1522 H 138.145 -2.63769 -2.74238 0
M  V30 1523 H 137.657 -3.67677 -1.24238 0
M  V30 1524 H 135.758 -2.06042 -3.10447 0
M  V30 1525 H 135.871 -3.91356 -2.76364 0
M  V30 1526 H 134.235 -2.02322 -1.54719 0
M  V30 1527 H 135.018 -3.38418 -0.576927 0
M  V30 1528 N 137.463 0.71206 -1.40597 0
M  V30 1529 C 138.711 1.46907 -1.38791 0
M  V30 1530 C 139.032 1.94998 0.00780391 0
M  V30 1531 O 138.302 1.70587 0.963174 0
M  V30 1532 H 136.882 0.545043 -0.51082 0
M  V30 1533 H 139.544 0.843882 -1.75683 0
M  V30 1534 H 138.64 2.34021 -2.06496 0
M  V30 1535 N 138.941 1.26152 0.944643 0
M  V30 1536 C 139.888 1.07408 2.04285 0
M  V30 1537 C 140.858 -0.0198413 1.66088 0
M  V30 1538 O 142.043 0.139264 1.90291 0
M  V30 1539 C 139.183 0.70945 3.37729 0
M  V30 1540 C 138.296 1.87926 3.88983 0
M  V30 1541 C 137.431 1.45807 5.10797 0
M  V30 1542 C 136.47 2.5964 5.54305 0
M  V30 1543 N 135.607 2.18226 6.67324 0
M  V30 1544 H 140.447 2.01389 2.1965 0
M  V30 1545 H 137.984 1.00275 1.07626 0
M  V30 1546 H 139.942 0.478948 4.14442 0
M  V30 1547 H 138.572 -0.193389 3.2222 0
M  V30 1548 H 137.624 2.22279 3.08701 0
M  V30 1549 H 138.936 2.73377 4.17213 0
M  V30 1550 H 138.09 1.18781 5.94959 0
M  V30 1551 H 136.829 0.574414 4.84305 0
M  V30 1552 H 135.834 2.87399 4.68702 0
M  V30 1553 H 137.059 3.48599 5.828 0
M  V30 1554 H 135.005 1.3229 6.42523 0
M  V30 1555 H 134.922 2.97221 6.95123 0
M  V30 1556 H 136.19 1.94403 7.54869 0
M  V30 1557 N 140.419 -1.14872 1.07899 0
M  V30 1558 C 141.382 -2.17986 0.708161 0
M  V30 1559 C 142.382 -1.58775 -0.25442 0
M  V30 1560 O 143.572 -1.74166 -0.034645 0
M  V30 1561 C 140.704 -3.40871 0.0446929 0
M  V30 1562 H 141.897 -2.52306 1.62116 0
M  V30 1563 H 139.45 -1.2943 0.876218 0
M  V30 1564 H 140.185 -3.12124 -0.880281 0
M  V30 1565 H 139.97 -3.8511 0.737091 0
M  V30 1566 H 141.46 -4.17121 -0.19991 0
M  V30 1567 N 141.898 -0.863906 -1.31812 0
M  V30 1568 C 143.145 -0.471836 -1.96926 0
M  V30 1569 C 143.473 0.974578 -1.68322 0
M  V30 1570 O 142.728 1.7003 -0.968933 0
M  V30 1571 C 143.027 -0.668547 -3.51091 0
M  V30 1572 C 142.693 -2.08683 -3.99703 0
M  V30 1573 C 141.355 -2.47471 -4.12688 0
M  V30 1574 C 143.707 -3.01207 -4.25351 0
M  V30 1575 C 141.035 -3.78037 -4.4867 0
M  V30 1576 C 143.387 -4.31282 -4.62794 0
M  V30 1577 C 142.051 -4.69992 -4.73987 0
M  V30 1578 H 141.321 -0.172657 -0.720604 0
M  V30 1579 H 143.968 -1.09573 -1.57054 0
M  V30 1580 H 142.273 0.0385252 -3.91781 0
M  V30 1581 H 143.97 -0.345102 -3.99512 0
M  V30 1582 H 140.56 -1.77566 -3.90087 0
M  V30 1583 H 144.744 -2.72469 -4.14819 0
M  V30 1584 H 140 -4.078 -4.55532 0
M  V30 1585 H 144.174 -5.03031 -4.81594 0
M  V30 1586 H 141.801 -5.71207 -5.01624 0
M  V30 1587 N 143.376 1.44774 -0.622745 0
M  V30 1588 C 144.306 2.33382 0.0741861 0
M  V30 1589 C 145.287 1.47719 0.843387 0
M  V30 1590 O 146.472 1.76458 0.810934 0
M  V30 1591 C 143.602 3.30663 1.06204 0
M  V30 1592 C 142.556 4.26079 0.405037 0
M  V30 1593 C 141.882 5.13165 1.5022 0
M  V30 1594 C 143.182 5.1781 -0.683414 0
M  V30 1595 H 144.876 2.91905 -0.665713 0
M  V30 1596 H 142.422 1.40363 -0.321587 0
M  V30 1597 H 144.375 3.9153 1.55827 0
M  V30 1598 H 143.099 2.70331 1.83272 0
M  V30 1599 H 141.758 3.66532 -0.0704683 0
M  V30 1600 H 141.406 4.49191 2.26355 0
M  V30 1601 H 141.106 5.77812 1.06803 0
M  V30 1602 H 142.63 5.76902 2.00041 0
M  V30 1603 H 144.044 5.72661 -0.270631 0
M  V30 1604 H 142.441 5.91015 -1.04023 0
M  V30 1605 H 143.511 4.59326 -1.55395 0
M  V30 1606 N 144.854 0.36279 1.53368 0
M  V30 1607 C 146.27 0.0116182 1.59596 0
M  V30 1608 C 146.47 -1.47012 1.37803 0
M  V30 1609 O 145.526 -2.23136 1.18181 0
M  V30 1610 C 146.839 0.465052 2.97082 0
M  V30 1611 C 148.387 0.419033 3.10182 0
M  V30 1612 C 148.862 0.848235 4.50077 0
M  V30 1613 N 150.353 0.803183 4.56183 0
M  V30 1614 C 151.088 1.107 5.62613 0
M  V30 1615 N 150.584 1.47996 6.76808 0
M  V30 1616 N 152.377 1.02998 5.52583 0
M  V30 1617 H 144.528 1.32775 1.65785 0
M  V30 1618 H 146.791 0.542518 0.777417 0
M  V30 1619 H 146.497 1.49892 3.18159 0
M  V30 1620 H 146.371 -0.149786 3.76902 0
M  V30 1621 H 148.758 -0.605696 2.88817 0
M  V30 1622 H 148.839 1.06933 2.32377 0
M  V30 1623 H 148.483 1.87107 4.7218 0
M  V30 1624 H 148.413 0.175218 5.26308 0
M  V30 1625 H 150.904 0.52838 3.74188 0
M  V30 1626 H 151.217 1.69613 7.53957 0
M  V30 1627 H 149.562 1.51859 6.78206 0
M  V30 1628 H 152.753 0.737817 4.62249 0
M  V30 1629 H 152.926 1.2701 6.35431 0
M  V30 1630 N 146.332 -1.57332 0.0918853 0
M  V30 1631 C 147.264 -2.10869 -0.898168 0
M  V30 1632 C 148.277 -1.04521 -1.24817 0
M  V30 1633 O 149.466 -1.31977 -1.20184 0
M  V30 1634 C 146.566 -2.57083 -2.2082 0
M  V30 1635 C 145.739 -3.87229 -2.03402 0
M  V30 1636 C 144.798 -4.19324 -3.17889 0
M  V30 1637 O 143.824 -4.88598 -2.91994 0
M  V30 1638 N 145.026 -3.74471 -4.43567 0
M  V30 1639 H 147.791 -2.96439 -0.440943 0
M  V30 1640 H 145.352 -1.61631 -0.0933064 0
M  V30 1641 H 147.344 -2.75602 -2.96354 0
M  V30 1642 H 145.914 -1.76541 -2.57977 0
M  V30 1643 H 145.134 -3.7789 -1.12218 0
M  V30 1644 H 146.422 -4.72379 -1.89038 0
M  V30 1645 H 145.82 -3.18546 -4.67488 0
M  V30 1646 H 144.377 -3.98151 -5.16061 0
M  V30 1647 N 147.81 0.181792 -1.56548 0
M  V30 1648 C 148.74 1.22765 -1.98623 0
M  V30 1649 C 149.721 1.46747 -0.860189 0
M  V30 1650 O 150.906 1.58259 -1.12551 0
M  V30 1651 C 148.036 2.56894 -2.33715 0
M  V30 1652 C 146.99 2.475 -3.49182 0
M  V30 1653 C 146.316 3.86023 -3.69986 0
M  V30 1654 C 147.616 1.98866 -4.82959 0
M  V30 1655 H 149.31 0.877942 -2.86239 0
M  V30 1656 H 146.856 0.42088 -1.37712 0
M  V30 1657 H 148.809 3.30253 -2.61746 0
M  V30 1658 H 147.533 2.93632 -1.42997 0
M  V30 1659 H 146.192 1.76596 -3.21262 0
M  V30 1660 H 145.84 4.20136 -2.76576 0
M  V30 1661 H 145.54 3.80609 -4.47672 0
M  V30 1662 H 147.064 4.60984 -4.00407 0
M  V30 1663 H 148.478 2.61992 -5.09934 0
M  V30 1664 H 146.875 2.04424 -5.64208 0
M  V30 1665 H 147.945 0.942465 -4.75653 0
M  V30 1666 N 149.288 1.51039 0.449983 0
M  V30 1667 C 150.699 1.557 1.03026 0
M  V30 1668 C 151.05 0.372939 1.92623 0
M  V30 1669 O 150.175 -0.511771 2.10261 0
M  V30 1670 C 150.77 2.82171 1.87523 0
M  V30 1671 C 149.329 2.89444 2.40622 0
M  V30 1672 C 148.476 2.50228 1.19504 0
M  V30 1673 H 151.427 1.56999 0.231745 0
M  V30 1674 H 151.448 2.65219 2.72835 0
M  V30 1675 H 150.96 3.68331 1.22286 0
M  V30 1676 H 149.061 2.07685 3.0935 0
M  V30 1677 H 149.174 3.92816 2.74285 0
M  V30 1678 H 147.538 2.03139 1.53644 0
M  V30 1679 H 148.321 3.38719 0.558972 0
M  V30 1680 N 150.766 -0.704594 1.40972 0
M  V30 1681 C 152.013 -1.46458 1.39844 0
M  V30 1682 C 152.341 -1.94499 0.00447594 0
M  V30 1683 O 151.596 -1.69275 -0.982057 0
M  V30 1684 C 151.895 -2.698 2.34399 0
M  V30 1685 C 151.561 -2.40464 3.81429 0
M  V30 1686 C 150.223 -2.32174 4.21484 0
M  V30 1687 C 152.575 -2.16086 4.74296 0
M  V30 1688 C 149.903 -1.97589 5.52427 0
M  V30 1689 C 152.255 -1.83011 6.05549 0
M  V30 1690 C 150.919 -1.7321 6.44635 0
M  V30 1691 H 150.189 -0.535927 0.511725 0
M  V30 1692 H 152.836 -0.806124 1.73706 0
M  V30 1693 H 151.141 -3.40536 1.93759 0
M  V30 1694 H 152.838 -3.27919 2.30804 0
M  V30 1695 H 149.428 -2.47808 3.49699 0
M  V30 1696 H 153.612 -2.2144 4.4416 0
M  V30 1697 H 148.868 -1.88547 5.81601 0
M  V30 1698 H 153.042 -1.63164 6.77016 0
M  V30 1699 H 150.669 -1.46179 7.46013 0
M  V30 1700 N 152.244 -1.26651 -0.937939 0
M  V30 1701 C 153.66 -1.03834 -1.21205 0
M  V30 1702 C 153.86 0.234502 -2.00131 0
M  V30 1703 O 152.916 0.942767 -2.3424 0
M  V30 1704 C 154.229 -2.27167 -1.97017 0
M  V30 1705 C 155.777 -2.32101 -2.09996 0
M  V30 1706 C 156.252 -3.55136 -2.8921 0
M  V30 1707 N 157.743 -3.55632 -2.96783 0
M  V30 1708 C 158.478 -4.475 -3.58512 0
M  V30 1709 N 157.974 -5.4966 -4.21717 0
M  V30 1710 N 159.767 -4.35145 -3.55816 0
M  V30 1711 H 151.918 -2.08398 -0.410391 0
M  V30 1712 H 154.181 -0.916031 -0.244114 0
M  V30 1713 H 153.887 -3.19765 -1.46434 0
M  V30 1714 H 153.761 -2.31672 -2.97671 0
M  V30 1715 H 156.148 -1.40015 -2.59769 0
M  V30 1716 H 156.229 -2.31605 -1.08594 0
M  V30 1717 H 155.873 -4.47553 -2.40123 0
M  V30 1718 H 155.803 -3.5288 -3.90875 0
M  V30 1719 H 158.294 -2.81743 -2.51852 0
M  V30 1720 H 158.607 -6.15943 -4.66727 0
M  V30 1721 H 156.952 -5.53514 -4.20294 0
M  V30 1722 H 160.143 -3.5455 -3.05634 0
M  V30 1723 H 160.316 -5.06934 -4.03636 0
M  V30 1724 N 153.722 1.14298 -1.08507 0
M  V30 1725 C 154.97 1.84993 -0.813763 0
M  V30 1726 C 155.291 1.83405 0.662393 0
M  V30 1727 O 154.561 1.28319 1.48024 0
M  V30 1728 H 153.141 0.684966 -0.298045 0
M  V30 1729 H 155.803 1.385 -1.37126 0
M  V30 1730 H 154.899 2.89788 -1.15884 0
M  V30 1731 N 155.201 0.870884 1.31352 0
M  V30 1732 C 156.478 0.402907 1.91405 0
M  V30 1733 C 156.858 -1.11512 1.79244 0
M  V30 1734 O 156.206 -1.94411 1.2007 0
M  V30 1735 C 156.416 0.885301 3.37585 0
M  V30 1736 C 157.764 0.911971 4.14691 0
M  V30 1737 O 158.788 0.831016 3.46371 0
M  V30 1738 O 157.647 1.02927 5.3672 0
M  V30 1739 H 154.741 0.120698 0.818145 0
M  V30 1740 H 157.287 0.958857 1.40014 0
M  V30 1741 H 156.059 1.92889 3.40455 0
M  V30 1742 H 155.682 0.307714 3.96407 0
M  V30 1743 N 156.679 -1.44442 0.630414 0
M  V30 1744 C 157.956 -1.9549 0.0655657 0
M  V30 1745 C 158.336 -1.5724 -1.40851 0
M  V30 1746 O 157.684 -0.846116 -2.12257 0
M  V30 1747 C 157.894 -3.47812 0.287691 0
M  V30 1748 C 159.242 -4.24216 0.180513 0
M  V30 1749 O 160.266 -3.55526 0.219019 0
M  V30 1750 O 159.125 -5.46434 0.0848493 0
M  V30 1751 H 156.219 -0.826688 -0.0227177 0
M  V30 1752 H 158.765 -1.54496 0.702068 0
M  V30 1753 H 157.537 -3.687 1.31056 0
M  V30 1754 H 157.16 -3.95751 -0.382984 0
M  V30 1755 N 158.157 -0.370918 -1.53173 0
M  V30 1756 C 159.405 0.216673 -2.00935 0
M  V30 1757 C 159.726 1.48845 -1.25977 0
M  V30 1758 O 158.996 1.92286 -0.374551 0
M  V30 1759 H 157.576 0.0830565 -0.742368 0
M  V30 1760 H 160.238 -0.49838 -1.8842 0
M  V30 1761 H 159.334 0.439893 -3.08984 0
M  V30 1762 N 159.635 1.57281 -0.100228 0
M  V30 1763 C 160.884 1.93713 0.561984 0
M  V30 1764 C 161.197 0.984492 1.69018 0
M  V30 1765 O 162.403 1.24273 2.41389 0
M  V30 1766 C 160.859 3.4421 1.05106 0
M  V30 1767 C 160.467 4.47975 -0.0476628 0
M  V30 1768 C 162.211 3.89595 1.68571 0
M  V30 1769 C 160.118 5.89631 0.457055 0
M  V30 1770 H 159.048 0.723082 0.2137 0
M  V30 1771 H 161.699 1.82644 -0.177057 0
M  V30 1772 H 160.081 3.50449 1.84395 0
M  V30 1773 H 161.255 4.53385 -0.823333 0
M  V30 1774 H 159.57 4.1223 -0.587816 0
M  V30 1775 H 162.167 4.92832 2.07414 0
M  V30 1776 H 162.51 3.28526 2.55688 0
M  V30 1777 H 163.043 3.86078 0.958562 0
M  V30 1778 H 159.782 6.54411 -0.377616 0
M  V30 1779 H 159.302 5.87681 1.19962 0
M  V30 1780 H 160.981 6.40363 0.92437 0
M  V30 1781 N 161.113 -0.173488 1.56642 0
M  V30 1782 C 162.36 -0.890465 1.81871 0
M  V30 1783 C 162.688 -1.82339 0.67696 0
M  V30 1784 O 161.943 -1.92795 -0.335926 0
M  V30 1785 C 162.242 -1.72069 3.13252 0
M  V30 1786 C 161.908 -0.936878 4.41059 0
M  V30 1787 C 160.57 -0.720545 4.75775 0
M  V30 1788 C 162.922 -0.386919 5.19762 0
M  V30 1789 C 160.25 0.0568829 5.86672 0
M  V30 1790 C 162.602 0.37741 6.31473 0
M  V30 1791 C 161.266 0.604563 6.64757 0
M  V30 1792 H 160.536 -0.325844 0.665512 0
M  V30 1793 H 163.183 -0.155527 1.90867 0
M  V30 1794 H 161.488 -2.52496 2.99588 0
M  V30 1795 H 163.185 -2.27844 3.29982 0
M  V30 1796 H 159.775 -1.11553 4.13828 0
M  V30 1797 H 163.959 -0.541398 4.93338 0
M  V30 1798 H 159.215 0.242635 6.10918 0
M  V30 1799 H 163.389 0.810825 6.91664 0
M  V30 1800 H 161.016 1.20885 7.50527 0
M  V30 1801 N 162.591 -1.51276 -0.441967 0
M  V30 1802 C 163.868 -1.54252 -1.20273 0
M  V30 1803 C 164.248 -0.30408 -2.08898 0
M  V30 1804 O 163.596 0.711084 -2.17154 0
M  V30 1805 C 163.806 -2.85406 -2.00859 0
M  V30 1806 C 165.154 -3.37181 -2.58059 0
M  V30 1807 O 166.178 -2.86925 -2.11074 0
M  V30 1808 O 165.037 -4.24858 -3.43741 0
M  V30 1809 H 162.131 -0.619969 -0.547328 0
M  V30 1810 H 164.677 -1.63586 -0.451413 0
M  V30 1811 H 163.449 -3.67003 -1.35736 0
M  V30 1812 H 163.072 -2.79213 -2.83065 0
M  V30 1813 N 164.069 0.697108 -1.41344 0
M  V30 1814 C 165.346 1.45154 -1.31109 0
M  V30 1815 C 165.726 2.11009 0.0620449 0
M  V30 1816 O 165.074 2.01571 1.07618 0
M  V30 1817 C 165.284 2.47223 -2.46337 0
M  V30 1818 C 166.632 3.1252 -2.87431 0
M  V30 1819 O 167.656 2.57547 -2.46065 0
M  V30 1820 O 166.515 4.12083 -3.58957 0
M  V30 1821 H 163.609 0.646365 -0.515889 0
M  V30 1822 H 166.155 0.727716 -1.53305 0
M  V30 1823 H 164.927 1.97204 -3.37974 0
M  V30 1824 H 164.55 3.27116 -2.2601 0
M  V30 1825 N 165.547 1.27147 0.931209 0
M  V30 1826 C 166.495 1.09398 2.05268 0
M  V30 1827 C 167.489 0.0180591 1.6939 0
M  V30 1828 O 168.695 0.17551 1.79142 0
M  V30 1829 H 165.07 0.336986 0.672268 0
M  V30 1830 H 167.041 2.04416 2.17386 0
M  V30 1831 C 165.79 0.75424 3.39421 0
M  V30 1832 H 165.113 1.57404 3.67511 0
M  V30 1833 H 166.553 0.669903 4.18674 0
M  V30 1834 C 165.012 -0.541197 3.32525 0
M  V30 1835 O 165.542 -1.57664 3.69466 0
M  V30 1836 N 163.748 -0.535517 2.85623 0
M  V30 1837 H 163.295 0.307511 2.55758 0
M  V30 1838 H 163.253 -1.40236 2.81392 0
M  V30 1839 N 167.025 -1.13721 1.09112 0
M  V30 1840 C 168.272 -1.84924 0.825192 0
M  V30 1841 C 168.6 -1.83347 -0.649151 0
M  V30 1842 O 167.855 -1.26449 -1.49362 0
M  V30 1843 C 168.154 -3.32861 1.30146 0
M  V30 1844 C 167.82 -3.54621 2.78486 0
M  V30 1845 C 166.482 -3.60268 3.18999 0
M  V30 1846 C 168.834 -3.62855 3.74146 0
M  V30 1847 C 166.162 -3.71679 4.53951 0
M  V30 1848 C 168.514 -3.75793 5.08883 0
M  V30 1849 C 167.178 -3.79692 5.4899 0
M  V30 1850 H 166.448 -0.676684 0.301959 0
M  V30 1851 H 169.095 -1.3428 1.36533 0
M  V30 1852 H 167.4 -3.85835 0.681064 0
M  V30 1853 H 169.097 -3.86395 1.07236 0
M  V30 1854 H 165.687 -3.50879 2.46134 0
M  V30 1855 H 169.871 -3.57775 3.43963 0
M  V30 1856 H 165.127 -3.72963 4.84467 0
M  V30 1857 H 169.301 -3.81107 5.82864 0
M  V30 1858 H 166.928 -3.88287 6.53558 0
M  V30 1859 N 168.503 -0.877838 -1.30888 0
M  V30 1860 C 169.752 -0.488793 -1.95688 0
M  V30 1861 C 170.065 0.965485 -1.70111 0
M  V30 1862 O 171.271 1.46104 -2.28836 0
M  V30 1863 C 169.727 -0.823201 -3.50359 0
M  V30 1864 C 169.335 -2.29477 -3.84765 0
M  V30 1865 C 171.079 -0.503009 -4.21509 0
M  V30 1866 C 168.986 -2.57118 -5.32583 0
M  V30 1867 H 167.916 -0.179062 -0.732429 0
M  V30 1868 H 170.567 -1.07183 -1.48943 0
M  V30 1869 H 168.949 -0.169331 -3.95638 0
M  V30 1870 H 170.123 -2.99236 -3.5042 0
M  V30 1871 H 168.438 -2.58178 -3.267 0
M  V30 1872 H 171.035 -0.68665 -5.30273 0
M  V30 1873 H 171.378 0.557109 -4.12555 0
M  V30 1874 H 171.911 -1.11376 -3.8189 0
M  V30 1875 H 168.65 -3.61843 -5.4658 0
M  V30 1876 H 168.17 -1.91961 -5.68253 0
M  V30 1877 H 169.849 -2.42251 -5.99936 0
M  V30 1878 N 169.982 1.44106 -0.638065 0
M  V30 1879 C 170.892 2.34513 0.0637334 0
M  V30 1880 C 171.908 1.53018 0.828346 0
M  V30 1881 O 173.084 1.85723 0.779036 0
M  V30 1882 C 170.149 3.31095 1.02844 0
M  V30 1883 C 169.21 4.28497 0.26244 0
M  V30 1884 C 168.443 5.20465 1.1812 0
M  V30 1885 O 168.666 5.16514 2.42011 0
M  V30 1886 O 167.6 5.98251 0.661774 0
M  V30 1887 H 171.426 2.95989 -0.68003 0
M  V30 1888 H 169.011 1.43994 -0.398252 0
M  V30 1889 H 170.893 3.90526 1.58327 0
M  V30 1890 H 169.568 2.72144 1.7527 0
M  V30 1891 H 168.475 3.72592 -0.335602 0
M  V30 1892 H 169.808 4.90388 -0.421936 0
M  V30 1893 N 171.46 0.379036 1.52974 0
M  V30 1894 C 172.37 -0.468639 2.29872 0
M  V30 1895 C 173.386 -1.08067 1.36373 0
M  V30 1896 O 174.562 -1.08871 1.69438 0
M  V30 1897 C 171.627 -1.58594 3.083 0
M  V30 1898 C 170.688 -1.00007 4.17489 0
M  V30 1899 C 169.921 -2.06413 4.92168 0
M  V30 1900 O 170.144 -3.27751 4.66835 0
M  V30 1901 O 169.078 -1.68717 5.7777 0
M  V30 1902 H 172.904 0.157508 3.03291 0
M  V30 1903 H 170.489 0.143035 1.48714 0
M  V30 1904 H 172.371 -2.23525 3.57232 0
M  V30 1905 H 171.046 -2.19724 2.37703 0
M  V30 1906 H 169.953 -0.314299 3.72777 0
M  V30 1907 H 171.286 -0.433135 4.90291 0
M  V30 1908 N 172.938 -1.57226 0.108567 0
M  V30 1909 C 174.354 -1.5766 -0.248058 0
M  V30 1910 C 174.554 -1.12063 -1.67464 0
M  V30 1911 O 173.61 -0.803236 -2.39383 0
M  V30 1912 C 174.923 -3.0069 -0.0242287 0
M  V30 1913 C 176.471 -3.12868 -0.0909372 0
M  V30 1914 C 176.946 -4.57879 0.105067 0
M  V30 1915 N 178.437 -4.63172 0.0506846 0
M  V30 1916 C 179.172 -5.73126 0.177396 0
M  V30 1917 N 178.668 -6.91866 0.359696 0
M  V30 1918 N 180.461 -5.61977 0.117709 0
M  V30 1919 H 172.612 -1.85169 1.04049 0
M  V30 1920 H 174.875 -0.85529 0.40888 0
M  V30 1921 H 174.581 -3.38299 0.961604 0
M  V30 1922 H 174.455 -3.6945 -0.76068 0
M  V30 1923 H 176.842 -2.75124 -1.06729 0
M  V30 1924 H 176.923 -2.46672 0.677225 0
M  V30 1925 H 176.567 -4.96321 1.07834 0
M  V30 1926 H 176.497 -5.22153 -0.682954 0
M  V30 1927 H 178.988 -3.778 -0.0871266 0
M  V30 1928 H 179.301 -7.71503 0.447529 0
M  V30 1929 H 177.646 -6.93874 0.395536 0
M  V30 1930 H 180.837 -4.68094 -0.0236741 0
M  V30 1931 H 181.01 -6.47627 0.219905 0
M  V30 1932 N 174.416 0.165178 -1.56732 0
M  V30 1933 C 175.363 1.2044 -1.96883 0
M  V30 1934 C 176.333 1.43664 -0.833657 0
M  V30 1935 O 177.518 1.56302 -1.09427 0
M  V30 1936 C 174.658 2.53727 -2.33916 0
M  V30 1937 C 173.771 2.3783 -3.6064 0
M  V30 1938 C 172.906 3.64026 -3.86857 0
M  V30 1939 C 171.945 3.43088 -5.06909 0
M  V30 1940 N 171.082 4.61369 -5.29229 0
M  V30 1941 H 175.922 0.854996 -2.85471 0
M  V30 1942 H 173.459 0.41076 -1.41249 0
M  V30 1943 H 175.417 3.31419 -2.53411 0
M  V30 1944 H 174.047 2.8665 -1.48431 0
M  V30 1945 H 173.099 1.51282 -3.49024 0
M  V30 1946 H 174.411 2.18308 -4.4849 0
M  V30 1947 H 173.565 4.50152 -4.06753 0
M  V30 1948 H 172.304 3.86533 -2.97394 0
M  V30 1949 H 171.309 2.55349 -4.86906 0
M  V30 1950 H 172.534 3.21997 -5.97909 0
M  V30 1951 H 170.48 4.84084 -4.42718 0
M  V30 1952 H 170.397 4.44783 -6.11313 0
M  V30 1953 H 171.665 5.48761 -5.53608 0
M  V30 1954 N 175.894 1.51508 0.433938 0
M  V30 1955 C 176.826 1.69266 1.54537 0
M  V30 1956 C 177.839 0.573276 1.52373 0
M  V30 1957 O 179.028 0.847698 1.57087 0
M  V30 1958 C 176.128 1.69524 2.93453 0
M  V30 1959 C 175.301 2.98101 3.20085 0
M  V30 1960 C 174.36 2.90502 4.38742 0
M  V30 1961 O 173.386 3.64442 4.3723 0
M  V30 1962 N 174.588 2.06586 5.42496 0
M  V30 1963 H 177.353 2.65145 1.39708 0
M  V30 1964 H 174.914 1.49437 0.622922 0
M  V30 1965 H 176.906 1.62004 3.70859 0
M  V30 1966 H 175.476 0.812245 3.01863 0
M  V30 1967 H 174.696 3.19464 2.30947 0
M  V30 1968 H 175.984 3.83207 3.34708 0
M  V30 1969 H 175.382 1.45896 5.46563 0
M  V30 1970 H 173.939 2.04943 6.18742 0
M  V30 1971 N 177.372 -0.689602 1.41712 0
M  V30 1972 C 178.62 -1.4468 1.4111 0
M  V30 1973 C 178.941 -1.94986 0.0232196 0
M  V30 1974 O 178.211 -1.72097 -0.935913 0
M  V30 1975 H 176.791 -0.536847 0.519427 0
M  V30 1976 H 179.453 -0.815825 1.77004 0
M  V30 1977 H 178.549 -2.30706 2.10193 0
M  V30 1978 N 178.85 -1.27639 -0.924453 0
M  V30 1979 C 179.78 -1.13166 -2.04244 0
M  V30 1980 C 180.761 -0.032256 -1.70069 0
M  V30 1981 O 181.946 -0.207328 -1.9309 0
M  V30 1982 C 179.076 -0.781496 -3.38393 0
M  V30 1983 C 178.03 -1.83449 -3.86692 0
M  V30 1984 C 177.356 -1.33822 -5.17683 0
M  V30 1985 C 178.656 -3.23917 -4.09726 0
M  V30 1986 H 180.35 -2.06689 -2.1661 0
M  V30 1987 H 177.896 -0.995136 -1.04082 0
M  V30 1988 H 179.849 -0.667057 -4.16087 0
M  V30 1989 H 178.573 0.189439 -3.2605 0
M  V30 1990 H 177.232 -1.93789 -3.11193 0
M  V30 1991 H 176.88 -0.35665 -5.01734 0
M  V30 1992 H 176.58 -2.04224 -5.50968 0
M  V30 1993 H 178.104 -1.23679 -5.97943 0
M  V30 1994 H 179.518 -3.16559 -4.77978 0
M  V30 1995 H 177.915 -3.92059 -4.54324 0
M  V30 1996 H 178.985 -3.68729 -3.14908 0
M  V30 1997 N 180.328 1.1314 -1.09713 0
M  V30 1998 C 181.238 2.22242 -0.751367 0
M  V30 1999 C 182.254 1.72224 0.247938 0
M  V30 2000 O 183.43 2.01205 0.0885463 0
M  V30 2001 C 180.495 3.46231 -0.180274 0
M  V30 2002 C 179.556 4.11125 -1.2359 0
M  V30 2003 C 178.789 5.29195 -0.691966 0
M  V30 2004 O 179.012 5.68342 0.48414 0
M  V30 2005 O 177.946 5.84214 -1.44838 0
M  V30 2006 H 181.772 2.54197 -1.66186 0
M  V30 2007 H 179.357 1.21331 -0.871735 0
M  V30 2008 H 181.239 4.21185 0.134739 0
M  V30 2009 H 179.914 3.1597 0.703185 0
M  V30 2010 H 178.821 3.37985 -1.60366 0
M  V30 2011 H 180.154 4.45524 -2.09211 0
M  V30 2012 N 181.806 0.884767 1.30421 0
M  V30 2013 C 182.738 0.308655 2.27112 0
M  V30 2014 C 183.751 -0.536655 1.53701 0
M  V30 2015 O 184.94 -0.35624 1.74909 0
M  V30 2016 C 182.04 -0.579782 3.33904 0
M  V30 2017 C 181.213 0.236417 4.36761 0
M  V30 2018 C 180.272 -0.582482 5.22966 0
M  V30 2019 O 179.298 -0.00525502 5.692 0
M  V30 2020 N 180.5 -1.89163 5.48815 0
M  V30 2021 H 183.265 1.13964 2.77186 0
M  V30 2022 H 180.826 0.747731 1.43599 0
M  V30 2023 H 182.818 -1.13366 3.88497 0
M  V30 2024 H 181.388 -1.31144 2.83761 0
M  V30 2025 H 180.608 0.97174 3.82035 0
M  V30 2026 H 181.896 0.795924 5.02536 0
M  V30 2027 H 181.294 -2.38352 5.13035 0
M  V30 2028 H 179.851 -2.39296 6.06284 0
M  V30 2029 N 183.284 -1.43765 0.645699 0
M  V30 2030 C 184.531 -2.01898 0.15604 0
M  V30 2031 C 184.859 -1.50887 -1.22733 0
M  V30 2032 O 184.114 -0.689271 -1.8316 0
M  V30 2033 C 184.413 -3.57238 0.107679 0
M  V30 2034 C 184.079 -4.27564 1.43178 0
M  V30 2035 C 182.741 -4.46492 1.7944 0
M  V30 2036 C 185.093 -4.67454 2.30513 0
M  V30 2037 C 182.421 -5.02573 3.02716 0
M  V30 2038 C 184.773 -5.24901 3.53074 0
M  V30 2039 C 183.437 -5.42046 3.89541 0
M  V30 2040 H 182.707 -0.738797 0.057099 0
M  V30 2041 H 185.354 -1.72341 0.834912 0
M  V30 2042 H 183.659 -3.86293 -0.654618 0
M  V30 2043 H 185.356 -3.99965 -0.287938 0
M  V30 2044 H 181.946 -4.13171 1.13963 0
M  V30 2045 H 186.13 -4.5253 2.0379 0
M  V30 2046 H 181.386 -5.14033 3.31028 0
M  V30 2047 H 185.56 -5.54758 4.20971 0
M  V30 2048 H 183.187 -5.85268 4.85145 0
M  V30 2049 N 184.763 -0.387143 -1.52771 0
M  V30 2050 C 186.012 0.19697 -2.00736 0
M  V30 2051 C 186.325 1.48082 -1.27793 0
M  V30 2052 O 187.531 2.14485 -1.66458 0
M  V30 2053 C 185.987 0.401568 -3.57653 0
M  V30 2054 C 185.595 -0.868907 -4.39493 0
M  V30 2055 C 187.339 0.942164 -4.13912 0
M  V30 2056 C 185.246 -0.632705 -5.88006 0
M  V30 2057 H 184.176 0.0773827 -0.750019 0
M  V30 2058 H 186.827 -0.50921 -1.76293 0
M  V30 2059 H 185.209 1.16954 -3.78335 0
M  V30 2060 H 186.383 -1.64133 -4.30577 0
M  V30 2061 H 184.698 -1.33429 -3.94443 0
M  V30 2062 H 187.295 1.13455 -5.22525 0
M  V30 2063 H 187.638 1.9106 -3.69867 0
M  V30 2064 H 188.171 0.233814 -3.97112 0
M  V30 2065 H 184.91 -1.57208 -6.36369 0
M  V30 2066 H 184.43 0.100825 -5.99715 0
M  V30 2067 H 186.109 -0.26642 -6.46451 0
M  V30 2068 N 186.241 1.57166 -0.116904 0
M  V30 2069 C 187.189 2.16457 0.851418 0
M  V30 2070 C 188.183 1.11323 1.27686 0
M  V30 2071 O 189.389 1.2963 1.24884 0
M  V30 2072 H 185.764 0.69271 0.292672 0
M  V30 2073 H 187.735 2.96605 0.32685 0
M  V30 2074 C 186.484 2.77689 2.09246 0
M  V30 2075 H 185.807 3.58285 1.77402 0
M  V30 2076 H 187.247 3.22716 2.7501 0
M  V30 2077 C 185.706 1.74667 2.88085 0
M  V30 2078 O 186.236 1.19877 3.83396 0
M  V30 2079 N 184.442 1.44656 2.52038 0
M  V30 2080 H 183.989 1.89402 1.74599 0
M  V30 2081 H 183.947 0.759675 3.05084 0
M  V30 2082 N 187.719 -0.156864 1.56817 0
M  V30 2083 C 188.666 -1.19394 1.97519 0
M  V30 2084 C 189.636 -1.4322 0.841265 0
M  V30 2085 O 190.821 -1.55719 1.10255 0
M  V30 2086 C 187.961 -2.52483 2.35258 0
M  V30 2087 C 187.074 -2.35914 3.61896 0
M  V30 2088 C 186.209 -3.61969 3.88782 0
M  V30 2089 C 185.248 -3.40395 5.08722 0
M  V30 2090 N 184.385 -4.58556 5.31668 0
M  V30 2091 H 189.225 -0.839845 2.85921 0
M  V30 2092 H 186.762 -0.403264 1.41464 0
M  V30 2093 H 188.72 -3.30071 2.55165 0
M  V30 2094 H 187.35 -2.85859 1.49949 0
M  V30 2095 H 186.402 -1.49429 3.49821 0
M  V30 2096 H 187.714 -2.15926 4.49641 0
M  V30 2097 H 186.868 -4.47989 4.09135 0
M  V30 2098 H 185.607 -3.84951 2.9944 0
M  V30 2099 H 184.612 -2.52763 4.88253 0
M  V30 2100 H 185.837 -3.18822 5.99608 0
M  V30 2101 H 183.783 -4.81729 4.45279 0
M  V30 2102 H 183.7 -4.41535 6.13664 0
M  V30 2103 H 184.968 -5.45817 5.5651 0
M  V30 2104 N 189.197 -1.51736 -0.425897 0
M  V30 2105 C 190.443 -1.65214 -1.1761 0
M  V30 2106 C 190.776 -0.372778 -1.90589 0
M  V30 2107 O 190.051 0.628139 -1.84078 0
M  V30 2108 C 190.334 -2.86312 -2.18398 0
M  V30 2109 C 190.187 -4.24254 -1.49426 0
M  V30 2110 C 191.506 -3.02925 -3.19256 0
M  V30 2111 H 188.625 -0.601263 -0.426206 0
M  V30 2112 H 191.267 -1.8425 -0.463882 0
M  V30 2113 H 189.417 -2.70213 -2.79137 0
M  V30 2114 H 191.089 -4.52046 -0.919362 0
M  V30 2115 H 189.332 -4.26426 -0.796432 0
M  V30 2116 H 190.003 -5.05001 -2.22885 0
M  V30 2117 H 192.479 -3.1781 -2.68581 0
M  V30 2118 H 191.355 -3.89199 -3.8706 0
M  V30 2119 H 191.616 -2.15497 -3.86023 0
M  V30 2120 N 190.675 0.682077 -1.42076 0
M  V30 2121 C 191.638 1.77756 -1.44691 0
M  V30 2122 C 192.638 1.5726 -0.335535 0
M  V30 2123 O 193.828 1.63686 -0.596037 0
M  V30 2124 C 190.96 3.16301 -1.27146 0
M  V30 2125 H 192.153 1.76826 -2.42224 0
M  V30 2126 H 189.706 0.891012 -1.28416 0
M  V30 2127 H 190.441 3.22862 -0.305075 0
M  V30 2128 H 190.226 3.32581 -2.07683 0
M  V30 2129 H 191.716 3.96241 -1.31843 0
M  V30 2130 N 192.153 1.28127 0.917671 0
M  V30 2131 C 193.401 1.14825 1.66312 0
M  V30 2132 C 193.722 -0.304379 1.9261 0
M  V30 2133 O 192.992 -1.21149 1.53947 0
M  V30 2134 H 191.572 0.421953 0.616413 0
M  V30 2135 H 194.234 1.608 1.10134 0
M  V30 2136 H 193.33 1.68489 2.62712 0
M  V30 2137 N 193.631 -1.12557 1.10312 0
M  V30 2138 C 194.581 -2.16331 0.720076 0
M  V30 2139 C 195.565 -1.58616 -0.270115 0
M  V30 2140 O 196.757 -1.76823 -0.0790507 0
M  V30 2141 C 193.886 -3.42963 0.152113 0
M  V30 2142 C 192.972 -4.07663 1.16927 0
M  V30 2143 N 193.363 -4.47392 2.35953 0
M  V30 2144 C 191.661 -4.34425 1.0095 0
M  V30 2145 C 192.362 -4.97932 3.0073 0
M  V30 2146 N 191.338 -4.93358 2.28252 0
M  V30 2147 H 195.14 -2.44813 1.62616 0
M  V30 2148 H 192.654 -1.29449 0.980654 0
M  V30 2149 H 194.651 -4.16664 -0.14037 0
M  V30 2150 H 193.311 -3.1595 -0.748701 0
M  V30 2151 H 194.322 -4.39802 2.73486 0
M  V30 2152 H 190.999 -4.17177 0.164134 0
M  V30 2153 H 192.389 -5.38397 4.01969 0
M  V30 2154 N 195.109 -0.891671 -1.2995 0
M  V30 2155 C 196.52 -0.563104 -1.78006 0
M  V30 2156 C 196.871 0.920978 -1.73241 0
M  V30 2157 O 195.996 1.71987 -1.31337 0
M  V30 2158 C 196.591 -1.01539 -3.23226 0
M  V30 2159 C 195.15 -0.738124 -3.69092 0
M  V30 2160 C 194.297 -1.19461 -2.50249 0
M  V30 2161 H 197.248 -1.07522 -1.16725 0
M  V30 2162 H 197.269 -0.347217 -3.78912 0
M  V30 2163 H 196.781 -2.09555 -3.26662 0
M  V30 2164 H 194.882 0.329766 -3.71138 0
M  V30 2165 H 194.995 -1.33037 -4.60259 0
M  V30 2166 H 193.359 -0.613787 -2.47194 0
M  V30 2167 H 194.142 -2.28265 -2.56417 0
M  V30 2168 N 196.587 1.43421 -0.653314 0
M  V30 2169 C 197.517 2.33487 0.0246656 0
M  V30 2170 C 198.498 1.49475 0.811863 0
M  V30 2171 O 199.683 1.78139 0.773322 0
M  V30 2172 C 196.813 3.32841 0.99166 0
M  V30 2173 C 195.767 4.26842 0.314568 0
M  V30 2174 C 195.093 5.16236 1.39302 0
M  V30 2175 C 196.393 5.16243 -0.793095 0
M  V30 2176 H 198.087 2.90427 -0.727481 0
M  V30 2177 H 195.633 1.39649 -0.351287 0
M  V30 2178 H 197.586 3.94747 1.47487 0
M  V30 2179 H 196.31 2.74158 1.77497 0
M  V30 2180 H 194.969 3.663 -0.148199 0
M  V30 2181 H 194.617 4.53891 2.16776 0
M  V30 2182 H 194.317 5.79948 0.945223 0
M  V30 2183 H 195.841 5.81015 1.87759 0
M  V30 2184 H 197.255 5.71958 -0.392039 0
M  V30 2185 H 195.652 5.88676 -1.16536 0
M  V30 2186 H 196.722 4.55927 -1.65103 0
M  V30 2187 N 198.065 0.39524 1.52563 0
M  V30 2188 C 199.028 -0.425001 2.25225 0
M  V30 2189 C 200.028 -0.985266 1.27079 0
M  V30 2190 O 201.218 -0.866332 1.5113 0
M  V30 2191 C 198.35 -1.59686 3.01186 0
M  V30 2192 H 199.543 0.211233 2.99155 0
M  V30 2193 H 197.096 0.147472 1.55603 0
M  V30 2194 H 197.831 -2.27035 2.31572 0
M  V30 2195 H 197.616 -1.20176 3.73229 0
M  V30 2196 H 199.106 -2.17743 3.5634 0
M  V30 2197 N 199.544 -1.57102 0.125237 0
M  V30 2198 C 200.476 -2.12726 -0.853237 0
M  V30 2199 C 201.489 -1.07145 -1.22571 0
M  V30 2200 O 202.678 -1.34497 -1.17358 0
M  V30 2201 C 199.778 -2.61709 -2.15317 0
M  V30 2202 C 198.951 -3.91456 -1.95143 0
M  V30 2203 C 198.01 -4.25973 -3.08923 0
M  V30 2204 O 197.036 -4.94682 -2.81564 0
M  V30 2205 N 198.238 -3.83795 -4.35524 0
M  V30 2206 H 201.003 -2.97307 -0.377964 0
M  V30 2207 H 198.564 -1.61792 -0.0590011 0
M  V30 2208 H 200.556 -2.81826 -2.90441 0
M  V30 2209 H 199.126 -1.81974 -2.54174 0
M  V30 2210 H 198.346 -3.80185 -1.04177 0
M  V30 2211 H 199.634 -4.76283 -1.78976 0
M  V30 2212 H 199.032 -3.2839 -4.60626 0
M  V30 2213 H 197.589 -4.09008 -5.07499 0
M  V30 2214 N 201.022 0.148545 -1.56898 0
M  V30 2215 C 201.97 1.20265 -1.99096 0
M  V30 2216 C 202.964 1.44559 -0.883123 0
M  V30 2217 O 204.17 1.4487 -1.0683 0
M  V30 2218 H 200.545 0.404786 -0.63376 0
M  V30 2219 H 202.516 0.82004 -2.86911 0
M  V30 2220 C 201.265 2.52886 -2.3863 0
M  V30 2221 H 200.588 2.35021 -3.23427 0
M  V30 2222 H 202.028 3.25274 -2.7198 0
M  V30 2223 C 200.487 3.13315 -1.23837 0
M  V30 2224 O 201.017 3.98077 -0.538268 0
M  V30 2225 N 199.223 2.72742 -1.00301 0
M  V30 2226 H 198.77 2.03912 -1.5741 0
M  V30 2227 H 198.728 3.13507 -0.236838 0
M  V30 2228 N 202.5 1.5196 0.417844 0
M  V30 2229 C 203.41 1.77554 1.53336 0
M  V30 2230 C 204.426 0.660655 1.6097 0
M  V30 2231 O 205.602 0.945099 1.77848 0
M  V30 2232 C 202.667 1.91291 2.89152 0
M  V30 2233 C 201.728 3.15183 2.91475 0
M  V30 2234 C 200.961 3.28256 4.20813 0
M  V30 2235 O 201.184 2.46798 5.14244 0
M  V30 2236 O 200.118 4.21356 4.29817 0
M  V30 2237 H 203.944 2.7222 1.34647 0
M  V30 2238 H 201.529 1.36698 0.602828 0
M  V30 2239 H 203.411 2.02199 3.69721 0
M  V30 2240 H 202.086 0.998129 3.07927 0
M  V30 2241 H 200.993 3.09739 2.09791 0
M  V30 2242 H 202.326 4.06414 2.77648 0
M  V30 2243 N 203.978 -0.674533 1.42435 0
M  V30 2244 C 205.394 -0.98769 1.25367 0
M  V30 2245 C 205.594 -2.00879 0.158044 0
M  V30 2246 O 204.65 -2.48075 -0.470633 0
M  V30 2247 C 205.963 -1.49224 2.6106 0
M  V30 2248 C 207.511 -1.61 2.68417 0
M  V30 2249 C 207.986 -2.14852 4.04478 0
M  V30 2250 N 209.477 -2.22185 4.06434 0
M  V30 2251 C 210.212 -2.64928 5.08528 0
M  V30 2252 N 209.708 -3.07121 6.21006 0
M  V30 2253 N 211.501 -2.64679 4.95885 0
M  V30 2254 H 203.652 0.00152503 2.124 0
M  V30 2255 H 205.915 -0.0618434 0.945981 0
M  V30 2256 H 205.621 -0.816453 3.42092 0
M  V30 2257 H 205.495 -2.47094 2.84999 0
M  V30 2258 H 207.882 -2.27686 1.87732 0
M  V30 2259 H 207.963 -0.616195 2.48267 0
M  V30 2260 H 207.607 -1.48775 4.85622 0
M  V30 2261 H 207.537 -3.15024 4.2198 0
M  V30 2262 H 210.028 -1.92435 3.25234 0
M  V30 2263 H 210.341 -3.38423 6.94759 0
M  V30 2264 H 208.686 -3.04978 6.24511 0
M  V30 2265 H 211.877 -2.31078 4.07088 0
M  V30 2266 H 212.05 -2.9767 5.75584 0
M  V30 2267 N 205.456 -1.28612 -0.910864 0
M  V30 2268 C 206.696 -1.1719 -1.67469 0
M  V30 2269 C 207.06 0.274441 -1.90028 0
M  V30 2270 O 208.261 0.511425 -2.6389 0
M  V30 2271 C 206.532 -1.95137 -2.99427 0
M  V30 2272 S 208.091 -2.00122 -3.90508 0
M  V30 2273 H 204.909 -0.41806 -0.575106 0
M  V30 2274 H 207.511 -1.6275 -1.08317 0
M  V30 2275 H 206.215 -2.99381 -2.80712 0
M  V30 2276 H 205.746 -1.50137 -3.63624 0
M  V30 2277 H 207.761 -1.10981 -4.8363 0
M  V30 2278 N 206.934 1.1197 -1.10907 0
M  V30 2279 C 207.864 2.19928 -0.784473 0
M  V30 2280 C 208.845 1.6833 0.244726 0
M  V30 2281 O 210.03 1.93892 0.109418 0
M  V30 2282 C 207.16 3.46597 -0.220827 0
M  V30 2283 C 206.114 4.11376 -1.18127 0
M  V30 2284 C 205.44 5.32554 -0.478594 0
M  V30 2285 C 206.74 4.56945 -2.52979 0
M  V30 2286 H 208.434 2.47337 -1.68715 0
M  V30 2287 H 205.98 1.18879 -0.812642 0
M  V30 2288 H 207.933 4.21396 0.0184278 0
M  V30 2289 H 206.657 3.1863 0.717113 0
M  V30 2290 H 205.316 3.38564 -1.40606 0
M  V30 2291 H 204.964 5.00856 0.463976 0
M  V30 2292 H 204.664 5.76844 -1.11912 0
M  V30 2293 H 206.188 6.10096 -0.248 0
M  V30 2294 H 207.602 5.23093 -2.3462 0
M  V30 2295 H 205.999 5.1203 -3.12962 0
M  V30 2296 H 207.069 3.70676 -3.12614 0
M  V30 2297 N 208.412 0.89855 1.29475 0
M  V30 2298 C 209.362 0.346767 2.25348 0
M  V30 2299 C 210.346 -0.532509 1.51833 0
M  V30 2300 O 211.538 -0.374714 1.72988 0
M  V30 2301 C 208.667 -0.425681 3.40651 0
M  V30 2302 C 207.753 0.46845 4.21505 0
M  V30 2303 N 208.144 1.57514 4.80648 0
M  V30 2304 C 206.442 0.26603 4.45206 0
M  V30 2305 C 207.143 2.12889 5.41344 0
M  V30 2306 N 206.119 1.42208 5.24669 0
M  V30 2307 H 209.921 1.19219 2.68634 0
M  V30 2308 H 207.435 0.749473 1.44072 0
M  V30 2309 H 209.432 -0.837716 4.08397 0
M  V30 2310 H 208.092 -1.26838 2.98902 0
M  V30 2311 H 209.103 1.95789 4.79465 0
M  V30 2312 H 205.78 -0.538394 4.14014 0
M  V30 2313 H 207.17 3.05901 5.98226 0
M  V30 2314 N 209.89 -1.43072 0.660911 0
M  V30 2315 C 210.823 -2.28074 -0.0758862 0
M  V30 2316 C 211.801 -1.40271 -0.822362 0
M  V30 2317 O 212.985 -1.69713 -0.820352 0
M  V30 2318 C 210.112 -3.19843 -1.11437 0
M  V30 2319 C 209.158 -4.23957 -0.465069 0
M  V30 2320 S 209.991 -5.29978 0.767078 0
M  V30 2321 C 211.147 -6.25314 -0.270682 0
M  V30 2322 H 211.38 -2.90216 0.645139 0
M  V30 2323 H 208.913 -1.47697 0.449995 0
M  V30 2324 H 210.871 -3.73257 -1.70849 0
M  V30 2325 H 209.532 -2.56863 -1.80776 0
M  V30 2326 H 208.725 -4.88299 -1.24819 0
M  V30 2327 H 208.327 -3.73959 0.0551242 0
M  V30 2328 H 210.619 -6.67932 -1.13459 0
M  V30 2329 H 211.562 -7.07293 0.337916 0
M  V30 2330 H 211.97 -5.61195 -0.609937 0
M  V30 2331 N 211.368 -0.403325 -1.52352 0
M  V30 2332 C 212.615 0.174347 -2.01748 0
M  V30 2333 C 212.943 1.45636 -1.2892 0
M  V30 2334 O 212.198 1.9193 -0.382258 0
M  V30 2335 C 212.497 0.474665 -3.54234 0
M  V30 2336 C 212.163 -0.717458 -4.45155 0
M  V30 2337 C 210.825 -1.04447 -4.69728 0
M  V30 2338 C 213.177 -1.51432 -4.98716 0
M  V30 2339 C 210.505 -2.16963 -5.45109 0
M  V30 2340 C 212.857 -2.6302 -5.75329 0
M  V30 2341 C 211.521 -2.96213 -5.98175 0
M  V30 2342 H 210.791 0.0637981 -0.738248 0
M  V30 2343 H 213.438 -0.543553 -1.83624 0
M  V30 2344 H 211.743 1.27406 -3.70506 0
M  V30 2345 H 213.44 0.934496 -3.89959 0
M  V30 2346 H 210.03 -0.452596 -4.26204 0
M  V30 2347 H 214.214 -1.27491 -4.79645 0
M  V30 2348 H 209.47 -2.43034 -5.61021 0
M  V30 2349 H 213.644 -3.25158 -6.15829 0
M  V30 2350 H 211.271 -3.83516 -6.56368 0
M  V30 2351 N 212.846 1.57033 -0.133567 0
M  V30 2352 C 213.776 2.1909 0.807567 0
M  V30 2353 C 214.757 1.13517 1.26681 0
M  V30 2354 O 215.942 1.41809 1.32679 0
M  V30 2355 C 213.072 2.80188 2.05212 0
M  V30 2356 C 212.026 3.91471 1.73015 0
M  V30 2357 C 211.352 4.39443 3.04622 0
M  V30 2358 C 212.652 5.12886 0.987168 0
M  V30 2359 H 214.346 2.97988 0.290403 0
M  V30 2360 H 211.892 1.43335 0.138239 0
M  V30 2361 H 213.845 3.22264 2.71521 0
M  V30 2362 H 212.569 1.98601 2.59278 0
M  V30 2363 H 211.228 3.49993 1.0909 0
M  V30 2364 H 210.876 3.54695 3.56651 0
M  V30 2365 H 210.576 5.14495 2.83847 0
M  V30 2366 H 212.1 4.8418 3.72024 0
M  V30 2367 H 213.514 5.51891 1.55208 0
M  V30 2368 H 211.911 5.93615 0.87985 0
M  V30 2369 H 212.981 4.84894 -0.0235286 0
M  V30 2370 N 214.325 -0.140222 1.56975 0
M  V30 2371 C 215.257 -1.19818 1.95388 0
M  V30 2372 C 216.27 -1.38816 0.850525 0
M  V30 2373 O 217.459 -1.38267 1.12891 0
M  V30 2374 C 214.559 -2.56189 2.21857 0
M  V30 2375 C 213.732 -2.58077 3.5315 0
M  V30 2376 C 212.791 -3.76037 3.6808 0
M  V30 2377 O 211.817 -3.60598 4.40406 0
M  V30 2378 N 213.019 -4.93763 3.05251 0
M  V30 2379 H 215.784 -0.871609 2.86746 0
M  V30 2380 H 213.345 -0.32972 1.58507 0
M  V30 2381 H 215.337 -3.33623 2.2908 0
M  V30 2382 H 213.907 -2.81111 1.36731 0
M  V30 2383 H 213.127 -1.6651 3.57307 0
M  V30 2384 H 214.415 -2.56377 4.39486 0
M  V30 2385 H 213.813 -5.09209 2.46419 0
M  V30 2386 H 212.37 -5.68949 3.18026 0
M  V30 2387 N 215.803 -1.52179 -0.40978 0
M  V30 2388 C 217.08 -1.56769 -1.16974 0
M  V30 2389 C 217.46 -0.348322 -2.08206 0
M  V30 2390 O 216.808 0.664862 -2.18613 0
M  V30 2391 C 217.018 -2.89603 -1.9476 0
M  V30 2392 C 218.366 -3.42579 -2.50849 0
M  V30 2393 O 219.39 -2.91338 -2.04941 0
M  V30 2394 O 218.249 -4.32054 -3.34652 0
M  V30 2395 H 215.343 -0.631439 -0.534054 0
M  V30 2396 H 217.889 -1.64507 -0.416613 0
M  V30 2397 H 216.661 -3.698 -1.27921 0
M  V30 2398 H 216.284 -2.85155 -2.77079 0
M  V30 2399 N 217.281 0.66697 -1.42791 0
M  V30 2400 C 218.191 1.80962 -1.49299 0
M  V30 2401 C 219.207 1.69775 -0.381108 0
M  V30 2402 O 220.383 1.91188 -0.633188 0
M  V30 2403 C 217.448 3.17156 -1.40045 0
M  V30 2404 C 216.509 3.40242 -2.6179 0
M  V30 2405 C 215.742 4.69939 -2.52969 0
M  V30 2406 O 215.965 5.48372 -1.56985 0
M  V30 2407 O 214.899 4.94441 -3.43237 0
M  V30 2408 H 218.725 1.78427 -2.45759 0
M  V30 2409 H 216.31 0.823713 -1.24641 0
M  V30 2410 H 218.192 3.98413 -1.37276 0
M  V30 2411 H 216.867 3.20312 -0.467138 0
M  V30 2412 H 215.774 2.58802 -2.70134 0
M  V30 2413 H 217.107 3.41923 -3.54047 0
M  V30 2414 N 218.759 1.29093 0.90403 0
M  V30 2415 C 220.008 1.16187 1.64874 0
M  V30 2416 C 220.321 -0.286742 1.93487 0
M  V30 2417 O 221.527 -0.537062 2.66135 0
M  V30 2418 C 219.983 2.03177 2.97064 0
M  V30 2419 C 219.591 3.52836 2.76062 0
M  V30 2420 C 221.335 1.98984 3.74974 0
M  V30 2421 C 219.242 4.31945 4.03952 0
M  V30 2422 H 218.172 0.431246 0.618501 0
M  V30 2423 H 220.823 1.53699 1.00243 0
M  V30 2424 H 219.205 1.5853 3.62883 0
M  V30 2425 H 220.379 4.05507 2.18863 0
M  V30 2426 H 218.694 3.58656 2.11553 0
M  V30 2427 H 221.291 2.55351 4.69787 0
M  V30 2428 H 221.634 0.968815 4.0487 0
M  V30 2429 H 222.167 2.41652 3.15989 0
M  V30 2430 H 218.906 5.34667 3.79225 0
M  V30 2431 H 218.426 3.84045 4.60727 0
M  V30 2432 H 220.105 4.42379 4.72133 0
M  V30 2433 N 220.237 -1.11381 1.11499 0
M  V30 2434 C 221.486 -1.82494 0.858993 0
M  V30 2435 C 221.799 -1.85605 -0.617278 0
M  V30 2436 O 223.005 -2.52824 -0.989552 0
M  V30 2437 C 221.461 -3.27745 1.48699 0
M  V30 2438 C 221.069 -3.32961 2.99735 0
M  V30 2439 C 222.813 -4.03754 1.31085 0
M  V30 2440 C 220.72 -4.72612 3.55516 0
M  V30 2441 H 219.65 -0.683802 0.317696 0
M  V30 2442 H 222.301 -1.25331 1.34031 0
M  V30 2443 H 220.683 -3.84844 0.933339 0
M  V30 2444 H 221.857 -2.85741 3.61509 0
M  V30 2445 H 220.172 -2.70433 3.16631 0
M  V30 2446 H 222.769 -5.06891 1.70192 0
M  V30 2447 H 223.112 -4.15527 0.253496 0
M  V30 2448 H 223.645 -3.53043 1.83318 0
M  V30 2449 H 220.384 -4.66036 4.60967 0
M  V30 2450 H 219.904 -5.2024 2.98513 0
M  V30 2451 H 221.583 -5.4157 3.53992 0
M  V30 2452 N 221.715 -0.905404 -1.28997 0
M  V30 2453 C 222.992 -0.453513 -1.9027 0
M  V30 2454 C 223.372 1.06721 -1.82137 0
M  V30 2455 O 222.72 1.91159 -1.25182 0
M  V30 2456 C 222.93 -0.974494 -3.35119 0
M  V30 2457 C 224.278 -1.0216 -4.12127 0
M  V30 2458 O 225.302 -0.922557 -3.44046 0
M  V30 2459 O 224.161 -1.17121 -5.33802 0
M  V30 2460 H 221.255 -0.142347 -0.814657 0
M  V30 2461 H 223.801 -0.995642 -1.37423 0
M  V30 2462 H 222.573 -2.01848 -3.35221 0
M  V30 2463 H 222.196 -0.412706 -3.95452 0
M  V30 2464 N 223.193 1.4272 -0.668489 0
M  V30 2465 C 224.14 2.30796 0.0137489 0
M  V30 2466 C 225.11 1.4561 0.799177 0
M  V30 2467 O 226.295 1.74453 0.772702 0
M  V30 2468 C 223.435 3.31377 0.963507 0
M  V30 2469 C 222.548 4.31655 0.172569 0
M  V30 2470 C 221.683 5.19312 1.1175 0
M  V30 2471 C 220.722 6.11274 0.317886 0
M  V30 2472 N 219.859 6.91504 1.2152 0
M  V30 2473 H 224.699 2.88585 -0.743161 0
M  V30 2474 H 222.236 1.42154 -0.378226 0
M  V30 2475 H 224.194 3.88214 1.52792 0
M  V30 2476 H 222.824 2.75202 1.68712 0
M  V30 2477 H 221.876 3.76988 -0.508374 0
M  V30 2478 H 223.188 4.96779 -0.448527 0
M  V30 2479 H 222.342 5.80851 1.75206 0
M  V30 2480 H 221.081 4.5435 1.77249 0
M  V30 2481 H 220.086 5.48809 -0.329918 0
M  V30 2482 H 221.311 6.78283 -0.332917 0
M  V30 2483 H 219.257 6.29176 1.85671 0
M  V30 2484 H 219.174 7.53209 0.649036 0
M  V30 2485 H 220.442 7.57535 1.83742 0
M  V30 2486 N 224.671 0.411399 1.52136 0
M  V30 2487 C 225.896 -0.165538 2.06738 0
M  V30 2488 C 226.321 -1.379 1.27926 0
M  V30 2489 O 225.679 -1.78628 0.310114 0
M  V30 2490 C 225.727 -0.492124 3.57226 0
M  V30 2491 O 224.831 -1.58276 3.80818 0
M  V30 2492 H 224.172 -0.0132132 0.663869 0
M  V30 2493 H 226.702 0.585253 1.96051 0
M  V30 2494 H 226.712 -0.750104 4.01045 0
M  V30 2495 H 225.387 0.394922 4.14021 0
M  V30 2496 H 223.964 -1.31677 3.48877 0
M  V30 2497 N 226.149 -1.5696 0.141893 0
M  V30 2498 C 227.379 -2.00031 -0.516828 0
M  V30 2499 C 227.787 -1.02091 -1.59293 0
M  V30 2500 O 227.13 -0.00909657 -1.83698 0
M  V30 2501 C 227.192 -3.39534 -1.1814 0
M  V30 2502 C 226.856 -4.56313 -0.250513 0
M  V30 2503 C 227.853 -5.17295 0.519839 0
M  V30 2504 C 225.538 -5.02061 -0.154907 0
M  V30 2505 C 227.532 -6.2243 1.3733 0
M  V30 2506 C 225.219 -6.07053 0.702161 0
M  V30 2507 C 226.217 -6.67106 1.46487 0
M  V30 2508 O 225.905 -7.70066 2.30767 0
M  V30 2509 H 225.637 -0.661451 -0.139493 0
M  V30 2510 H 228.191 -2.04086 0.231926 0
M  V30 2511 H 226.421 -3.32302 -1.97769 0
M  V30 2512 H 228.11 -3.66745 -1.73933 0
M  V30 2513 H 228.876 -4.82852 0.45598 0
M  V30 2514 H 224.755 -4.5505 -0.7383 0
M  V30 2515 H 228.299 -6.69233 1.96909 0
M  V30 2516 H 224.196 -6.40923 0.76733 0
M  V30 2517 H 224.964 -7.87264 2.23959 0
M  V30 2518 N 227.627 0.131896 -1.57047 0
M  V30 2519 C 228.855 0.856461 -1.88341 0
M  V30 2520 C 229.27 1.74042 -0.731757 0
M  V30 2521 O 228.627 1.80051 0.297945 0
M  V30 2522 C 228.678 1.70064 -3.18999 0
M  V30 2523 O 228.399 0.852278 -4.2973 0
M  V30 2524 C 229.9 2.53148 -3.63911 0
M  V30 2525 H 227.12 0.246885 -0.62393 0
M  V30 2526 H 229.664 0.120152 -2.04147 0
M  V30 2527 H 227.819 2.38984 -3.04902 0
M  V30 2528 H 228.233 1.43329 -5.04537 0
M  V30 2529 H 229.707 3.07931 -4.58129 0
M  V30 2530 H 230.184 3.29901 -2.89935 0
M  V30 2531 H 230.79 1.89492 -3.80753 0
M  V30 2532 N 229.106 1.52395 0.401703 0
M  V30 2533 C 230.517 1.58899 0.980202 0
M  V30 2534 C 230.868 0.434032 1.91339 0
M  V30 2535 O 229.993 -0.444619 2.11783 0
M  V30 2536 C 230.588 2.87994 1.78451 0
M  V30 2537 C 229.147 2.96953 2.31292 0
M  V30 2538 C 228.294 2.53903 1.11483 0
M  V30 2539 H 231.245 1.57657 0.18168 0
M  V30 2540 H 231.266 2.73765 2.64259 0
M  V30 2541 H 230.778 3.72035 1.10506 0
M  V30 2542 H 228.879 2.17422 3.02586 0
M  V30 2543 H 228.992 4.01344 2.61649 0
M  V30 2544 H 227.356 2.07925 1.47104 0
M  V30 2545 H 228.139 3.40326 0.450928 0
M  V30 2546 N 230.584 -0.659388 1.43143 0
M  V30 2547 C 231.809 -1.45221 1.48073 0
M  V30 2548 C 232.234 -1.87845 0.097995 0
M  V30 2549 O 231.592 -1.56985 -0.90694 0
M  V30 2550 C 231.64 -2.66748 2.42647 0
M  V30 2551 O 230.744 -3.65583 1.90848 0
M  V30 2552 H 230.085 -0.435669 0.501088 0
M  V30 2553 H 232.615 -0.807432 1.87994 0
M  V30 2554 H 232.625 -3.14637 2.59745 0
M  V30 2555 H 231.3 -2.35067 3.43098 0
M  V30 2556 H 229.877 -3.24693 1.83381 0
M  V30 2557 N 232.062 -1.29571 -0.897171 0
M  V30 2558 C 233.009 -1.14916 -2.00158 0
M  V30 2559 C 233.979 -0.0418149 -1.66047 0
M  V30 2560 O 235.164 -0.209793 -1.89643 0
M  V30 2561 C 232.304 -0.834307 -3.34863 0
M  V30 2562 C 231.417 -2.02234 -3.8174 0
M  V30 2563 C 230.552 -1.64664 -5.05034 0
M  V30 2564 C 229.591 -2.80033 -5.44286 0
M  V30 2565 N 228.728 -2.42843 -6.58765 0
M  V30 2566 H 233.568 -2.09403 -2.12025 0
M  V30 2567 H 231.105 -1.042 -1.0383 0
M  V30 2568 H 233.063 -0.632436 -4.12379 0
M  V30 2569 H 231.693 0.0736656 -3.22716 0
M  V30 2570 H 230.745 -2.33583 -3.00238 0
M  V30 2571 H 232.057 -2.88673 -4.06779 0
M  V30 2572 H 231.211 -1.4078 -5.9014 0
M  V30 2573 H 229.95 -0.753766 -4.8184 0
M  V30 2574 H 228.955 -3.04596 -4.57713 0
M  V30 2575 H 230.18 -3.69989 -5.6946 0
M  V30 2576 H 228.126 -1.56046 -6.3717 0
M  V30 2577 H 228.043 -3.22815 -6.83613 0
M  V30 2578 H 229.311 -2.22285 -7.47134 0
M  V30 2579 N 233.54 1.10788 -1.12088 0
M  V30 2580 C 234.789 1.82036 -0.868659 0
M  V30 2581 C 235.102 1.85929 0.607426 0
M  V30 2582 O 236.308 2.53346 0.97613 0
M  V30 2583 C 234.764 3.26951 -1.50435 0
M  V30 2584 C 234.372 3.31367 -3.01496 0
M  V30 2585 C 236.116 4.03053 -1.33225 0
M  V30 2586 C 234.023 4.7072 -3.58017 0
M  V30 2587 H 232.953 0.682108 -0.321318 0
M  V30 2588 H 235.604 1.24618 -1.34694 0
M  V30 2589 H 233.986 3.84343 -0.953735 0
M  V30 2590 H 235.16 2.83819 -3.6302 0
M  V30 2591 H 233.475 2.6875 -3.18061 0
M  V30 2592 H 236.072 5.05981 -1.72878 0
M  V30 2593 H 236.415 4.15387 -0.275529 0
M  V30 2594 H 236.948 3.52066 -1.85188 0
M  V30 2595 H 233.687 4.63585 -4.63432 0
M  V30 2596 H 233.207 5.1865 -3.01268 0
M  V30 2597 H 234.886 5.39685 -3.56859 0
M  V30 2598 N 235.018 0.912232 1.28515 0
M  V30 2599 C 236.434 0.610159 1.47476 0
M  V30 2600 C 236.634 -0.844955 1.82928 0
M  V30 2601 O 235.69 -1.62416 1.93332 0
M  V30 2602 C 237.003 1.54675 2.57868 0
M  V30 2603 C 238.551 1.55331 2.71738 0
M  V30 2604 C 239.026 2.47649 3.85272 0
M  V30 2605 N 240.517 2.45767 3.92623 0
M  V30 2606 C 241.252 3.13896 4.79851 0
M  V30 2607 N 240.748 3.9135 5.71679 0
M  V30 2608 N 242.541 3.02991 4.73448 0
M  V30 2609 H 234.692 1.85318 1.03783 0
M  V30 2610 H 236.955 0.794777 0.516753 0
M  V30 2611 H 236.661 2.5841 2.38574 0
M  V30 2612 H 236.535 1.27671 3.54937 0
M  V30 2613 H 238.922 0.52335 2.90422 0
M  V30 2614 H 239.003 1.86378 1.75205 0
M  V30 2615 H 238.647 3.50745 3.67342 0
M  V30 2616 H 238.577 2.13904 4.81199 0
M  V30 2617 H 241.068 1.89503 3.26951 0
M  V30 2618 H 241.381 4.40359 6.35062 0
M  V30 2619 H 239.726 3.95455 5.71524 0
M  V30 2620 H 242.917 2.41987 4.007 0
M  V30 2621 H 243.09 3.5636 5.41213 0
M  V30 2622 N 236.496 -1.42363 0.676048 0
M  V30 2623 C 237.446 -2.27987 -0.0242903 0
M  V30 2624 C 238.43 -1.41153 -0.772319 0
M  V30 2625 O 239.622 -1.64592 -0.651025 0
M  V30 2626 C 236.751 -3.29195 -0.973953 0
M  V30 2627 C 235.837 -4.23512 -0.223202 0
M  V30 2628 N 236.228 -4.99865 0.772589 0
M  V30 2629 C 234.526 -4.43606 -0.461469 0
M  V30 2630 C 235.227 -5.68757 1.22027 0
M  V30 2631 N 234.203 -5.40811 0.549975 0
M  V30 2632 H 238.005 -2.84445 0.73949 0
M  V30 2633 H 235.519 -1.54341 0.50522 0
M  V30 2634 H 237.516 -3.89339 -1.49067 0
M  V30 2635 H 236.176 -2.74298 -1.73755 0
M  V30 2636 H 237.187 -5.04921 1.15217 0
M  V30 2637 H 233.864 -3.99749 -1.20446 0
M  V30 2638 H 235.254 -6.40007 2.0455 0
M  V30 2639 N 237.974 -0.419461 -1.51915 0
M  V30 2640 C 238.937 0.389116 -2.25873 0
M  V30 2641 C 239.937 0.964924 -1.28631 0
M  V30 2642 O 241.127 0.842179 -1.52489 0
M  V30 2643 C 238.259 1.54874 -3.03689 0
M  V30 2644 H 239.452 -0.258799 -2.98781 0
M  V30 2645 H 237.005 -0.172209 -1.55348 0
M  V30 2646 H 237.74 2.23323 -2.35154 0
M  V30 2647 H 237.525 1.14223 -3.75094 0
M  V30 2648 H 239.015 2.12046 -3.59759 0
M  V30 2649 O 239.491 1.58856 -0.291037 0
M  V30 2650 H 240.182 1.91728 0.275667 0
M  V30 END ATOM
M  V30 BEGIN BOND
M  V30 END BOND
M  V30 END CTAB
M  END
$$$$
