drugbank_target|P31434 Alpha-xylosidase (DB03434; DB03586; DB03814; DB04807)
 OpenBabel12092120023D

  0  0  0     0  0            999 V3000
M  V30 BEGIN CTAB
M  V30 COUNTS 12154 12337 0 0 0
M  V30 BEGIN ATOM
M  V30 1 H -0.908 1.98254 -0.117106 0
M  V30 2 N 0 1.576 0 0
M  V30 3 C 0.933 2.03868 1.02534 0
M  V30 4 C 1.911 0.928543 1.3348 0
M  V30 5 O 3.095 1.19667 1.45644 0
M  V30 6 C 0.222 2.43627 2.35294 0
M  V30 7 C -0.732 3.65373 2.2001 0
M  V30 8 S 0.101 5.13292 1.52614 0
M  V30 9 C 1.257 5.56322 2.86805 0
M  V30 10 H 1.49 2.90518 0.631377 0
M  V30 11 H -0.977 1.52953 0.210867 0
M  V30 12 H 0.981 2.67203 3.11629 0
M  V30 13 H -0.358 1.57376 2.7183 0
M  V30 14 H -1.165 3.90944 3.18086 0
M  V30 15 H -1.563 3.418 1.51819 0
M  V30 16 H 0.729 5.58782 3.83104 0
M  V30 17 H 1.672 6.56266 2.65933 0
M  V30 18 H 2.08 4.83886 2.90714 0
M  V30 19 N 1.4781 -0.272755 1.55222 0
M  V30 20 C 2.4251 -1.33716 1.88119 0
M  V30 21 C 3.3951 -1.49066 0.73271 0
M  V30 22 O 4.5801 -1.63469 0.984002 0
M  V30 23 C 1.7201 -2.69238 2.15882 0
M  V30 24 C 0.8331 -2.62108 3.43399 0
M  V30 25 C -0.0319 -3.89811 3.60861 0
M  V30 26 C -0.9929 -3.77193 4.8207 0
M  V30 27 N -1.8559 -4.9673 4.96189 0
M  V30 28 H 2.9841 -1.04962 2.78903 0
M  V30 29 H 0.5211 -0.507088 1.38083 0
M  V30 30 H 2.4791 -3.48089 2.29978 0
M  V30 31 H 1.1091 -2.96194 1.28331 0
M  V30 32 H 0.1611 -1.74967 3.37773 0
M  V30 33 H 1.4731 -2.48685 4.32386 0
M  V30 34 H 0.6271 -4.77103 3.74777 0
M  V30 35 H -0.6339 -4.06102 2.7006 0
M  V30 36 H -1.6289 -2.88284 4.68159 0
M  V30 37 H -0.4039 -3.62421 5.74307 0
M  V30 38 H -2.4579 -5.13431 4.08319 0
M  V30 39 H -2.5409 -4.85839 5.79221 0
M  V30 40 H -1.2729 -5.85594 5.1449 0
M  V30 41 N 2.9562 -1.48159 -0.537278 0
M  V30 42 C 4.2052 -1.5506 -1.28993 0
M  V30 43 C 4.5182 -0.226211 -1.94288 0
M  V30 44 O 5.7242 -0.173395 -2.70946 0
M  V30 45 C 4.1802 -2.73429 -2.34018 0
M  V30 46 C 3.7882 -4.1248 -1.74825 0
M  V30 47 C 5.5322 -2.89638 -3.10339 0
M  V30 48 C 3.4392 -5.22121 -2.77747 0
M  V30 49 H 2.3692 -0.577231 -0.485098 0
M  V30 50 H 5.0202 -1.74478 -0.568317 0
M  V30 51 H 3.4022 -2.47431 -3.09182 0
M  V30 52 H 4.5762 -4.48466 -1.05899 0
M  V30 53 H 2.8912 -4.01327 -1.11022 0
M  V30 54 H 5.4882 -3.68718 -3.87235 0
M  V30 55 H 5.8312 -1.9882 -3.65754 0
M  V30 56 H 6.3642 -3.15502 -2.42288 0
M  V30 57 H 3.1032 -6.1488 -2.27161 0
M  V30 58 H 2.6232 -4.90631 -3.45024 0
M  V30 59 H 4.3022 -5.49924 -3.4087 0
M  V30 60 N 4.4343 0.785586 -1.36625 0
M  V30 61 C 5.6593 1.57963 -1.34397 0
M  V30 62 C 6.0843 1.87964 0.071526 0
M  V30 63 O 5.4423 1.48182 1.0446 0
M  V30 64 C 5.4903 2.87511 -2.17646 0
M  V30 65 O 4.5943 3.81281 -1.57158 0
M  V30 66 H 3.9353 0.479014 -0.459828 0
M  V30 67 H 6.4653 0.973411 -1.79961 0
M  V30 68 H 6.4753 3.36745 -2.30362 0
M  V30 69 H 5.1503 2.65002 -3.20541 0
M  V30 70 H 3.7273 3.39885 -1.53403 0
M  V30 71 N 5.9124 1.20967 1.01018 0
M  V30 72 C 7.1894 0.93264 1.71934 0
M  V30 73 C 7.5694 -0.55692 2.03621 0
M  V30 74 O 6.9174 -1.52035 1.7058 0
M  V30 75 C 7.1274 1.81233 2.98254 0
M  V30 76 C 8.4754 2.05804 3.71389 0
M  V30 77 O 9.4994 1.78539 3.08225 0
M  V30 78 O 8.3584 2.51888 4.84989 0
M  V30 79 H 5.4524 0.349272 0.749625 0
M  V30 80 H 7.9984 1.31871 1.06808 0
M  V30 81 H 6.7704 2.82067 2.71208 0
M  V30 82 H 6.3934 1.42674 3.7112 0
M  V30 83 N 7.3905 -1.2043 1.01659 0
M  V30 84 C 8.6385 -1.89423 0.704522 0
M  V30 85 C 8.9595 -1.79231 -0.768197 0
M  V30 86 O 8.2295 -1.1947 -1.55254 0
M  V30 87 H 6.8095 -0.701178 0.257602 0
M  V30 88 H 9.4715 -1.4626 1.28818 0
M  V30 89 H 8.5675 -2.96052 0.987916 0
M  V30 90 N 8.8686 -0.792821 -1.36206 0
M  V30 91 C 9.8166 -0.181555 -2.3189 0
M  V30 92 C 10.8106 0.661025 -1.55971 0
M  V30 93 O 12.0166 0.555728 -1.71206 0
M  V30 94 H 8.3916 -0.0399382 -0.750939 0
M  V30 95 H 10.3626 -1.00394 -2.81005 0
M  V30 96 C 9.1116 0.666444 -3.41253 0
M  V30 97 H 8.4346 0.0274489 -3.99791 0
M  V30 98 H 9.8746 1.06076 -4.10517 0
M  V30 99 C 8.3336 1.82614 -2.83114 0
M  V30 100 O 8.8636 2.9229 -2.75553 0
M  V30 101 N 7.0696 1.63333 -2.40356 0
M  V30 102 H 6.6166 0.741217 -2.46706 0
M  V30 103 H 6.5746 2.41087 -2.01803 0
M  V30 104 N 10.3467 1.47872 -0.545128 0
M  V30 105 C 11.5927 2.03385 -0.0247951 0
M  V30 106 C 11.9477 1.41325 1.30556 0
M  V30 107 O 11.2407 0.5552 1.8338 0
M  V30 108 C 11.4347 3.57131 0.13867 0
M  V30 109 C 11.2637 4.34097 -1.17429 0
M  V30 110 C 10.0337 4.74458 -1.73831 0
M  V30 111 C 12.2317 4.6998 -2.08861 0
M  V30 112 N 10.2137 5.3602 -2.99258 0
M  V30 113 C 11.5847 5.31719 -3.18866 0
M  V30 114 C 13.6397 4.5191 -2.09003 0
M  V30 115 C 12.3427 5.77295 -4.29096 0
M  V30 116 C 14.3687 4.98477 -3.18237 0
M  V30 117 C 13.7307 5.60253 -4.26961 0
M  V30 118 H 9.8297 0.780339 -0.050943 0
M  V30 119 H 12.4137 1.80507 -0.729753 0
M  V30 120 H 10.5847 3.79802 0.812733 0
M  V30 121 H 12.3167 3.99282 0.659976 0
M  V30 122 H 9.0717 4.56037 -1.2778 0
M  V30 123 H 9.4957 5.71355 -3.63157 0
M  V30 124 H 14.1377 4.03516 -1.26234 0
M  V30 125 H 11.8557 6.24687 -5.12633 0
M  V30 126 H 15.4417 4.86274 -3.1942 0
M  V30 127 H 14.3217 5.95631 -5.10091 0
M  V30 128 N 11.8248 0.280983 1.55075 0
M  V30 129 C 12.7548 -0.597469 2.25727 0
M  V30 130 C 13.7358 -1.15417 1.24952 0
M  V30 131 O 14.9208 -1.18722 1.53684 0
M  V30 132 C 12.0508 -1.7789 2.98283 0
M  V30 133 C 11.0048 -1.35347 4.06036 0
M  V30 134 C 10.3308 -2.61846 4.66198 0
M  V30 135 C 11.6308 -0.499354 5.19907 0
M  V30 136 H 13.3248 -0.00824265 2.99399 0
M  V30 137 H 10.8708 -0.0025244 1.44 0
M  V30 138 H 12.8238 -2.39937 3.46422 0
M  V30 139 H 11.5478 -2.39405 2.22155 0
M  V30 140 H 10.2068 -0.756156 3.58717 0
M  V30 141 H 9.8548 -3.21632 3.86732 0
M  V30 142 H 9.5548 -2.3409 5.38958 0
M  V30 143 H 11.0788 -3.24732 5.1709 0
M  V30 144 H 12.4928 -1.02498 5.64063 0
M  V30 145 H 10.8898 -0.316424 5.99265 0
M  V30 146 H 11.9598 0.480459 4.82514 0
M  V30 147 N 13.3029 -1.57598 0.00835791 0
M  V30 148 C 14.5519 -1.90107 -0.673968 0
M  V30 149 C 14.8649 -0.884275 -1.7447 0
M  V30 150 O 16.0709 -1.09987 -2.48224 0
M  V30 151 C 14.5269 -3.37497 -1.24995 0
M  V30 152 C 14.1349 -4.47491 -0.2136 0
M  V30 153 C 15.8789 -3.79104 -1.90999 0
M  V30 154 C 13.7859 -5.85963 -0.80005 0
M  V30 155 H 12.7159 -0.709393 -0.255495 0
M  V30 156 H 15.3669 -1.83365 0.0702693 0
M  V30 157 H 13.7489 -3.39102 -2.04513 0
M  V30 158 H 14.9229 -4.57414 0.557596 0
M  V30 159 H 13.2379 -4.14956 0.346474 0
M  V30 160 H 15.8349 -4.79901 -2.35795 0
M  V30 161 H 16.1779 -3.1306 -2.74407 0
M  V30 162 H 16.7109 -3.79833 -1.18203 0
M  V30 163 H 13.4499 -6.555 -0.00456708 0
M  V30 164 H 12.9699 -5.79687 -1.54021 0
M  V30 165 H 14.6489 -6.33884 -1.29615 0
M  V30 166 N 14.781 0.264519 -1.55364 0
M  V30 167 C 15.713 1.34965 -1.85248 0
M  V30 168 C 16.726 1.45136 -0.737525 0
M  V30 169 O 17.915 1.46801 -1.01547 0
M  V30 170 C 15.015 2.73008 -2.00797 0
M  V30 171 C 14.188 2.85324 -3.31525 0
M  V30 172 C 13.247 4.04097 -3.37034 0
M  V30 173 O 12.273 3.94455 -4.10358 0
M  V30 174 N 13.475 5.16458 -2.65049 0
M  V30 175 H 16.24 1.09672 -2.78913 0
M  V30 176 H 13.801 0.454635 -1.55386 0
M  V30 177 H 15.793 3.50772 -2.01844 0
M  V30 178 H 14.363 2.91087 -1.1396 0
M  V30 179 H 13.583 1.94377 -3.42945 0
M  V30 180 H 14.871 2.9049 -4.17724 0
M  V30 181 H 14.269 5.27181 -2.05175 0
M  V30 182 H 12.826 5.92422 -2.71809 0
M  V30 183 N 16.2591 1.48442 0.529413 0
M  V30 184 C 17.6701 1.5002 1.11134 0
M  V30 185 C 18.0211 0.27031 1.94329 0
M  V30 186 O 17.1461 -0.622507 2.07253 0
M  V30 187 C 17.7411 2.71834 2.02217 0
M  V30 188 C 16.3001 2.76283 2.55627 0
M  V30 189 C 15.4471 2.43542 1.326 0
M  V30 190 H 18.3981 1.5555 0.314641 0
M  V30 191 H 18.4191 2.50384 2.8651 0
M  V30 192 H 17.9311 3.61331 1.41639 0
M  V30 193 H 16.0321 1.90995 3.19924 0
M  V30 194 H 16.1451 3.77725 2.94721 0
M  V30 195 H 14.5091 1.94709 1.64196 0
M  V30 196 H 15.2921 3.3528 0.737734 0
M  V30 197 N 17.7372 -0.778329 1.37039 0
M  V30 198 C 18.9852 -1.53361 1.31623 0
M  V30 199 C 19.3062 -1.94739 -0.100831 0
M  V30 200 O 18.5762 -1.65797 -1.04347 0
M  V30 201 H 17.1562 -0.568794 0.484234 0
M  V30 202 H 19.8182 -0.926742 1.71457 0
M  V30 203 H 18.9142 -2.43606 1.95096 0
M  V30 204 N 19.2153 -1.21501 -1.00376 0
M  V30 205 C 20.1453 -0.999478 -2.11028 0
M  V30 206 C 21.1263 0.0759671 -1.6993 0
M  V30 207 O 22.3113 -0.0841106 -1.94018 0
M  V30 208 C 19.4413 -0.564709 -3.42678 0
M  V30 209 C 18.3953 -1.58486 -3.97576 0
M  V30 210 C 17.7213 -1.00628 -5.25146 0
M  V30 211 C 19.0213 -2.97204 -4.29496 0
M  V30 212 H 20.7153 -1.92495 -2.29317 0
M  V30 213 H 18.2613 -0.92693 -1.102 0
M  V30 214 H 20.2143 -0.401091 -4.19487 0
M  V30 215 H 18.9383 0.396411 -3.24185 0
M  V30 216 H 17.5973 -1.73606 -3.22888 0
M  V30 217 H 17.2453 -0.0368439 -5.02987 0
M  V30 218 H 16.9453 -1.68771 -5.62841 0
M  V30 219 H 18.4693 -0.854015 -6.04598 0
M  V30 220 H 19.8833 -2.8552 -4.97143 0
M  V30 221 H 18.2803 -3.62372 -4.78338 0
M  V30 222 H 19.3503 -3.47956 -3.3772 0
M  V30 223 N 20.6934 1.19889 -1.02296 0
M  V30 224 C 21.6414 2.24938 -0.592081 0
M  V30 225 C 22.6354 1.65257 0.372357 0
M  V30 226 O 23.8414 1.78371 0.241583 0
M  V30 227 H 20.2164 0.731787 -0.173182 0
M  V30 228 H 22.1874 2.58603 -1.48885 0
M  V30 229 C 20.9364 3.47668 0.047351 0
M  V30 230 H 20.2594 3.93875 -0.685772 0
M  V30 231 H 21.6994 4.22852 0.311862 0
M  V30 232 C 20.1584 3.11136 1.29212 0
M  V30 233 O 20.6884 3.2325 2.38479 0
M  V30 234 N 18.8944 2.65625 1.17863 0
M  V30 235 H 18.4414 2.55968 0.289493 0
M  V30 236 H 18.3994 2.41553 2.01245 0
M  V30 237 N 22.1715 0.800033 1.35784 0
M  V30 238 C 23.1015 0.220184 2.3246 0
M  V30 239 C 24.0825 -0.65073 1.57161 0
M  V30 240 O 25.2675 -0.582359 1.85263 0
M  V30 241 C 22.3975 -0.637353 3.41402 0
M  V30 242 C 21.3515 0.134531 4.27789 0
M  V30 243 C 20.6775 -0.844285 5.27992 0
M  V30 244 C 21.9775 1.32979 5.05088 0
M  V30 245 H 23.6715 1.02787 2.81203 0
M  V30 246 H 21.2175 0.495717 1.35199 0
M  V30 247 H 23.1705 -1.05302 4.08031 0
M  V30 248 H 21.8945 -1.47785 2.91251 0
M  V30 249 H 20.5535 0.531296 3.6273 0
M  V30 250 H 20.2015 -1.68011 4.74111 0
M  V30 251 H 19.9015 -0.332184 5.8666 0
M  V30 252 H 21.4255 -1.2583 5.97494 0
M  V30 253 H 22.8395 0.98934 5.64699 0
M  V30 254 H 21.2365 1.77593 5.7322 0
M  V30 255 H 22.3065 2.11978 4.36111 0
M  V30 256 N 23.6496 -1.47581 0.552962 0
M  V30 257 C 24.8986 -2.01684 0.0251995 0
M  V30 258 C 25.2116 -1.43317 -1.33115 0
M  V30 259 O 26.4176 -1.89057 -1.94858 0
M  V30 260 C 24.8736 -3.599 -0.00542052 0
M  V30 261 C 24.4816 -4.27257 1.34742 0
M  V30 262 C 26.2256 -4.21768 -0.4808 0
M  V30 263 C 24.1326 -5.77467 1.27614 0
M  V30 264 H 23.0626 -0.753979 0.00565033 0
M  V30 265 H 25.7136 -1.69616 0.70018 0
M  V30 266 H 24.0956 -3.88911 -0.745961 0
M  V30 267 H 25.2696 -4.09893 2.10534 0
M  V30 268 H 23.5846 -3.77358 1.76039 0
M  V30 269 H 26.1816 -5.31838 -0.55246 0
M  V30 270 H 26.5246 -3.88651 -1.49184 0
M  V30 271 H 27.0576 -3.97273 0.204752 0
M  V30 272 H 23.7966 -6.15196 2.26304 0
M  V30 273 H 23.3166 -5.9718 0.55996 0
M  V30 274 H 24.9956 -6.3959 0.976421 0
M  V30 275 N 25.1277 -0.289203 -1.54924 0
M  V30 276 C 26.0777 0.606939 -2.19773 0
M  V30 277 C 27.0617 1.10783 -1.16687 0
M  V30 278 O 28.2537 1.05057 -1.4245 0
M  V30 279 C 25.3827 1.78398 -2.93307 0
M  V30 280 C 24.4687 1.29961 -4.03697 0
M  V30 281 N 24.8597 0.532377 -5.0299 0
M  V30 282 C 23.1577 1.58136 -4.17024 0
M  V30 283 C 23.8587 0.275912 -5.81045 0
M  V30 284 N 22.8347 0.852365 -5.36876 0
M  V30 285 H 26.6367 0.0130779 -2.93897 0
M  V30 286 H 24.1507 -0.09341 -1.62131 0
M  V30 287 H 26.1477 2.43741 -3.38225 0
M  V30 288 H 24.8077 2.38166 -2.20697 0
M  V30 289 H 25.8187 0.17838 -5.17593 0
M  V30 290 H 22.4957 2.18738 -3.55612 0
M  V30 291 H 23.8857 -0.339502 -6.71042 0
M  V30 292 N 26.6058 1.57591 -0.0167156 0
M  V30 293 C 28.0168 1.79201 0.523834 0
M  V30 294 C 28.3678 0.925796 1.72984 0
M  V30 295 O 27.4928 0.132792 2.15992 0
M  V30 296 C 28.0878 3.25 0.957091 0
M  V30 297 C 26.6468 3.47648 1.44283 0
M  V30 298 C 25.7938 2.74374 0.401757 0
M  V30 299 H 28.7448 1.56831 -0.242816 0
M  V30 300 H 28.7658 3.34031 1.82219 0
M  V30 301 H 28.2778 3.88019 0.0791415 0
M  V30 302 H 26.3788 2.89866 2.34113 0
M  V30 303 H 26.4918 4.56352 1.45877 0
M  V30 304 H 24.8558 2.39485 0.867121 0
M  V30 305 H 25.6388 3.40102 -0.467513 0
M  V30 306 N 28.0839 -0.256276 1.55502 0
M  V30 307 C 29.0139 -1.32102 1.92539 0
M  V30 308 C 29.9949 -1.50684 0.789194 0
M  V30 309 O 31.1799 -1.63449 1.04872 0
M  V30 310 C 28.3099 -2.67752 2.21192 0
M  V30 311 C 27.2639 -2.63878 3.36975 0
M  V30 312 C 26.5899 -4.03236 3.51147 0
M  V30 313 C 27.8899 -2.21682 4.72921 0
M  V30 314 H 29.5839 -1.01351 2.81724 0
M  V30 315 H 27.1299 -0.486105 1.35547 0
M  V30 316 H 29.0829 -3.42365 2.45691 0
M  V30 317 H 27.8069 -3.0012 1.28824 0
M  V30 318 H 26.4659 -1.91722 3.12471 0
M  V30 319 H 26.1139 -4.32854 2.56216 0
M  V30 320 H 25.8139 -4.01535 4.29003 0
M  V30 321 H 27.3379 -4.79563 3.77957 0
M  V30 322 H 28.7519 -2.86023 4.96854 0
M  V30 323 H 27.1489 -2.3111 5.53812 0
M  V30 324 H 28.2189 -1.16833 4.70615 0
M  V30 325 N 29.562 -1.4872 -0.521534 0
M  V30 326 C 30.494 -1.59968 -1.64143 0
M  V30 327 C 31.507 -0.483463 -1.55456 0
M  V30 328 O 32.696 -0.75467 -1.61762 0
M  V30 329 C 29.796 -1.52127 -3.02838 0
M  V30 330 C 28.969 -2.78932 -3.36921 0
M  V30 331 C 28.028 -2.64428 -4.54933 0
M  V30 332 O 27.054 -3.38331 -4.57735 0
M  V30 333 N 28.256 -1.74606 -5.53618 0
M  V30 334 H 31.021 -2.56548 -1.54929 0
M  V30 335 H 28.582 -1.45551 -0.708988 0
M  V30 336 H 30.574 -1.40106 -3.79674 0
M  V30 337 H 29.144 -0.634868 -3.06085 0
M  V30 338 H 28.364 -3.05455 -2.4918 0
M  V30 339 H 29.652 -3.63041 -3.56481 0
M  V30 340 H 29.05 -1.13782 -5.54139 0
M  V30 341 H 27.607 -1.6852 -6.29638 0
M  V30 342 N 31.0401 0.771051 -1.3745 0
M  V30 343 C 32.2861 1.5319 -1.32894 0
M  V30 344 C 32.6191 1.94008 0.0862511 0
M  V30 345 O 31.8941 1.64124 1.04373 0
M  V30 346 C 32.1771 2.79648 -2.26868 0
M  V30 347 C 32.0301 2.45079 -3.77169 0
M  V30 348 C 33.3491 3.81583 -2.19277 0
M  V30 349 H 30.4681 0.555744 -0.484064 0
M  V30 350 H 33.1101 0.884492 -1.68157 0
M  V30 351 H 31.2601 3.34891 -1.96926 0
M  V30 352 H 32.9321 1.95745 -4.1771 0
M  V30 353 H 31.1751 1.77767 -3.95704 0
M  V30 354 H 31.8461 3.35478 -4.38359 0
M  V30 355 H 34.3221 3.35835 -2.45671 0
M  V30 356 H 33.1981 4.67787 -2.87171 0
M  V30 357 H 33.4591 4.25897 -1.18592 0
M  V30 358 N 32.5182 1.22032 0.997298 0
M  V30 359 C 33.7652 1.04222 1.73621 0
M  V30 360 C 34.0932 -0.423264 1.89839 0
M  V30 361 O 33.3482 -1.3302 1.43542 0
M  V30 362 C 33.6472 1.69345 3.14733 0
M  V30 363 C 33.3132 3.19226 3.18442 0
M  V30 364 C 31.9752 3.60124 3.19161 0
M  V30 365 C 34.3272 4.15181 3.15078 0
M  V30 366 C 31.6552 4.95467 3.14212 0
M  V30 367 C 34.0072 5.50495 3.1167 0
M  V30 368 C 32.6712 5.90779 3.10703 0
M  V30 369 H 31.9412 0.381374 0.635323 0
M  V30 370 H 34.5882 1.51732 1.16831 0
M  V30 371 H 32.8932 1.14147 3.74803 0
M  V30 372 H 34.5902 1.53059 3.7064 0
M  V30 373 H 31.1802 2.86659 3.18629 0
M  V30 374 H 35.3642 3.84605 3.13676 0
M  V30 375 H 30.6202 5.25916 3.11805 0
M  V30 376 H 34.7942 6.24576 3.08022 0
M  V30 377 H 32.4212 6.9562 3.06622 0
M  V30 378 N 33.9963 -1.19345 1.0293 0
M  V30 379 C 34.9063 -2.26245 0.620515 0
M  V30 380 C 35.9223 -1.70486 -0.347928 0
M  V30 381 O 37.0983 -2.00347 -0.205704 0
M  V30 382 C 34.1633 -3.46693 -0.0218957 0
M  V30 383 C 33.2243 -4.17632 0.994102 0
M  V30 384 C 32.4573 -5.32329 0.382253 0
M  V30 385 O 32.6803 -5.64552 -0.814676 0
M  V30 386 O 31.6143 -5.91664 1.10531 0
M  V30 387 H 35.4403 -2.63453 1.51083 0
M  V30 388 H 33.0253 -1.26207 0.799513 0
M  V30 389 H 34.9073 -4.19683 -0.380072 0
M  V30 390 H 33.5823 -3.11333 -0.886209 0
M  V30 391 H 32.4893 -3.4676 1.40387 0
M  V30 392 H 33.8223 -4.56964 1.8288 0
M  V30 393 N 35.4744 -0.807222 -1.35358 0
M  V30 394 C 36.7204 -0.388463 -1.99045 0
M  V30 395 C 37.0534 1.04184 -1.63888 0
M  V30 396 O 36.3284 1.72292 -0.902535 0
M  V30 397 C 36.6114 -0.572783 -3.55515 0
M  V30 398 C 36.4644 -2.04807 -4.00468 0
M  V30 399 C 37.7834 0.00114064 -4.401 0
M  V30 400 H 34.9024 -0.142619 -0.723069 0
M  V30 401 H 37.5444 -1.01687 -1.60498 0
M  V30 402 H 35.6944 -0.0378425 -3.88482 0
M  V30 403 H 37.3664 -2.64544 -3.77908 0
M  V30 404 H 35.6094 -2.54427 -3.51353 0
M  V30 405 H 36.2804 -2.12792 -5.09337 0
M  V30 406 H 38.7564 -0.455716 -4.13597 0
M  V30 407 H 37.6324 -0.157737 -5.48673 0
M  V30 408 H 37.8934 1.09488 -4.28328 0
M  V30 409 N 36.9525 1.47285 -0.560781 0
M  V30 410 C 37.8625 2.33846 0.187954 0
M  V30 411 C 38.8785 1.48412 0.908293 0
M  V30 412 O 40.0545 1.81332 0.876388 0
M  V30 413 C 37.1195 3.25178 1.2025 0
M  V30 414 C 36.1805 4.26504 0.489208 0
M  V30 415 C 35.4135 5.13472 1.45542 0
M  V30 416 O 35.6365 5.02959 2.6905 0
M  V30 417 O 34.5705 5.93902 0.977963 0
M  V30 418 H 38.3965 2.99177 -0.522177 0
M  V30 419 H 35.9815 1.45903 -0.321364 0
M  V30 420 H 37.8635 3.81584 1.78805 0
M  V30 421 H 36.5385 2.6247 1.89449 0
M  V30 422 H 35.4455 3.73847 -0.137627 0
M  V30 423 H 36.7785 4.91935 -0.161399 0
M  V30 424 N 38.4306 0.297415 1.54768 0
M  V30 425 C 39.3626 -0.613881 2.20826 0
M  V30 426 C 40.3756 -1.10032 1.19987 0
M  V30 427 O 41.5646 -1.01839 1.46598 0
M  V30 428 C 38.6646 -1.852 2.83821 0
M  V30 429 C 37.8376 -1.50865 4.10559 0
M  V30 430 C 36.8966 -2.60154 4.57391 0
M  V30 431 O 35.9226 -2.25398 5.2267 0
M  V30 432 N 37.1246 -3.90629 4.29406 0
M  V30 433 H 39.8896 -0.048389 2.99661 0
M  V30 434 H 37.4506 0.11946 1.61459 0
M  V30 435 H 39.4426 -2.57652 3.12086 0
M  V30 436 H 38.0126 -2.32597 2.08847 0
M  V30 437 H 37.2326 -0.616925 3.89343 0
M  V30 438 H 38.5206 -1.25458 4.9309 0
M  V30 439 H 37.9186 -4.21677 3.77101 0
M  V30 440 H 36.4756 -4.59391 4.62388 0
M  V30 441 N 39.9087 -1.5758 0.0250728 0
M  V30 442 C 40.8407 -2.06869 -0.986796 0
M  V30 443 C 41.8537 -0.991332 -1.29137 0
M  V30 444 O 43.0427 -1.26761 -1.25674 0
M  V30 445 C 40.1427 -2.47486 -2.31525 0
M  V30 446 C 39.3157 -3.78253 -2.19643 0
M  V30 447 C 38.3747 -4.05464 -3.35388 0
M  V30 448 O 37.4007 -4.75774 -3.12454 0
M  V30 449 N 38.6027 -3.55321 -4.59051 0
M  V30 450 H 41.3677 -2.94302 -0.566276 0
M  V30 451 H 38.9287 -1.6109 -0.161776 0
M  V30 452 H 40.9207 -2.62785 -3.07776 0
M  V30 453 H 39.4907 -1.65441 -2.65232 0
M  V30 454 H 38.7107 -3.7279 -1.28144 0
M  V30 455 H 39.9987 -4.63936 -2.08903 0
M  V30 456 H 39.3967 -2.98431 -4.80578 0
M  V30 457 H 37.9537 -3.75905 -5.32483 0
M  V30 458 N 41.3868 0.248026 -1.55636 0
M  V30 459 C 42.6638 0.998988 -1.68165 0
M  V30 460 C 43.0438 2.03409 -0.564621 0
M  V30 461 O 42.3918 2.24378 0.432076 0
M  V30 462 C 42.6018 1.63334 -3.0842 0
M  V30 463 C 43.9498 2.13562 -3.66983 0
M  V30 464 O 44.9738 1.73277 -3.11213 0
M  V30 465 O 43.8328 2.87526 -4.64749 0
M  V30 466 H 40.9268 0.464933 -0.683935 0
M  V30 467 H 43.4728 0.241902 -1.67967 0
M  V30 468 H 42.2448 0.884583 -3.8117 0
M  V30 469 H 41.8678 2.45666 -3.12624 0
M  V30 470 N 42.8649 1.48995 0.513639 0
M  V30 471 C 43.8129 1.65199 1.63744 0
M  V30 472 C 44.8069 0.51809 1.61283 0
M  V30 473 O 46.0129 0.697335 1.65943 0
M  V30 474 H 42.3879 0.52069 0.542574 0
M  V30 475 H 44.3589 2.59552 1.47226 0
M  V30 476 C 43.1079 1.72409 3.01945 0
M  V30 477 H 42.4309 2.59029 3.04539 0
M  V30 478 H 43.8709 1.87785 3.80148 0
M  V30 479 C 42.3299 0.46618 3.33659 0
M  V30 480 O 42.8599 -0.413744 3.99564 0
M  V30 481 N 41.0659 0.332931 2.88687 0
M  V30 482 H 40.6129 1.04996 2.35231 0
M  V30 483 H 40.5709 -0.507665 3.10274 0
M  V30 484 N 44.343 -0.763751 1.37857 0
M  V30 485 C 45.253 -1.90817 1.36478 0
M  V30 486 C 46.269 -1.71997 0.263248 0
M  V30 487 O 47.445 -1.95095 0.499979 0
M  V30 488 C 44.51 -3.2605 1.17864 0
M  V30 489 C 43.571 -3.57467 2.3773 0
M  V30 490 C 42.804 -4.86249 2.19995 0
M  V30 491 O 43.027 -5.57884 1.18836 0
M  V30 492 O 41.961 -5.16911 3.08361 0
M  V30 493 H 45.787 -1.94933 2.32884 0
M  V30 494 H 43.372 -0.907619 1.1867 0
M  V30 495 H 45.254 -4.06924 1.09504 0
M  V30 496 H 43.929 -3.22769 0.245372 0
M  V30 497 H 42.836 -2.76796 2.51664 0
M  V30 498 H 44.169 -3.655 3.29652 0
M  V30 499 N 45.8211 -1.22559 -0.990812 0
M  V30 500 C 46.7541 -0.940773 -2.07905 0
M  V30 501 C 47.7321 0.117082 -1.62178 0
M  V30 502 O 48.9161 -0.0149506 -1.88494 0
M  V30 503 C 46.0431 -0.415321 -3.36144 0
M  V30 504 C 45.0891 -1.45818 -4.00799 0
M  V30 505 S 45.9221 -3.03219 -4.41382 0
M  V30 506 C 47.0781 -2.52317 -5.72789 0
M  V30 507 H 47.3111 -1.8623 -2.31745 0
M  V30 508 H 44.8441 -1.05688 -1.12558 0
M  V30 509 H 46.8021 -0.118747 -4.10328 0
M  V30 510 H 45.4631 0.485121 -3.10331 0
M  V30 511 H 44.6561 -1.04044 -4.93144 0
M  V30 512 H 44.2581 -1.70356 -3.32949 0
M  V30 513 H 46.5501 -1.93688 -6.49224 0
M  V30 514 H 47.4931 -3.43161 -6.19392 0
M  V30 515 H 47.9011 -1.93529 -5.30289 0
M  V30 516 N 47.2992 1.18797 -1.03562 0
M  V30 517 C 48.5452 1.8893 -0.737113 0
M  V30 518 C 48.8782 1.79837 0.732956 0
M  V30 519 O 48.1532 1.19525 1.5344 0
M  V30 520 C 48.4362 3.39607 -1.19745 0
M  V30 521 C 48.2892 3.57537 -2.72924 0
M  V30 522 C 49.6082 4.33069 -0.783526 0
M  V30 523 H 46.7272 0.686057 -0.269249 0
M  V30 524 H 49.3692 1.39797 -1.28673 0
M  V30 525 H 47.5192 3.81583 -0.729855 0
M  V30 526 H 49.1912 3.24688 -3.27682 0
M  V30 527 H 47.4342 3.00363 -3.12993 0
M  V30 528 H 48.1052 4.63238 -3.00191 0
M  V30 529 H 50.5812 3.98846 -1.18581 0
M  V30 530 H 49.4572 5.3707 -1.13343 0
M  V30 531 H 49.7182 4.40986 0.313681 0
M  V30 532 N 48.7773 0.814389 1.34928 0
M  V30 533 C 50.0233 0.399013 1.98836 0
M  V30 534 C 50.3563 -1.03314 1.64438 0
M  V30 535 O 49.6313 -1.71811 0.911659 0
M  V30 536 C 49.9143 0.591629 3.55207 0
M  V30 537 C 49.7673 2.06928 3.99376 0
M  V30 538 C 51.0863 0.022199 4.40094 0
M  V30 539 H 48.2053 0.146451 0.722303 0
M  V30 540 H 50.8473 1.02537 1.59957 0
M  V30 541 H 48.9973 0.0584441 3.88456 0
M  V30 542 H 50.6693 2.66544 3.76499 0
M  V30 543 H 48.9123 2.56287 3.49999 0
M  V30 544 H 49.5833 2.1549 5.08201 0
M  V30 545 H 52.0593 0.477643 4.13349 0
M  V30 546 H 50.9353 0.186832 5.48582 0
M  V30 547 H 51.1963 -1.07215 4.28902 0
M  V30 548 N 50.2554 -1.46986 0.568584 0
M  V30 549 C 51.4854 -2.0653 0.0539173 0
M  V30 550 C 51.8934 -1.42004 -1.25026 0
M  V30 551 O 51.2364 -0.514541 -1.76347 0
M  V30 552 C 51.2984 -3.58938 -0.200854 0
M  V30 553 C 50.9624 -4.45572 1.01559 0
M  V30 554 C 51.9594 -4.82986 1.92407 0
M  V30 555 C 49.6444 -4.8692 1.23346 0
M  V30 556 C 51.6384 -5.60559 3.03402 0
M  V30 557 C 49.3254 -5.64255 2.34649 0
M  V30 558 C 50.3234 -6.00986 3.24507 0
M  V30 559 O 50.0114 -6.76761 4.33878 0
M  V30 560 H 49.7434 -0.674292 0.0480234 0
M  V30 561 H 52.2974 -1.89812 0.784896 0
M  V30 562 H 50.5274 -3.73911 -0.986279 0
M  V30 563 H 52.2164 -4.0046 -0.662294 0
M  V30 564 H 52.9824 -4.51633 1.76785 0
M  V30 565 H 48.8614 -4.57789 0.543178 0
M  V30 566 H 52.4054 -5.89147 3.73565 0
M  V30 567 H 48.3024 -5.95021 2.5024 0
M  V30 568 H 49.0704 -6.95168 4.32068 0
M  V30 569 N 51.7335 -0.305618 -1.54608 0
M  V30 570 C 52.6965 0.555591 -2.22364 0
M  V30 571 C 53.6965 1.05768 -1.21119 0
M  V30 572 O 54.8865 0.952972 -1.45822 0
M  V30 573 C 52.0185 1.76974 -2.91364 0
M  V30 574 H 53.2115 -0.0364572 -2.99878 0
M  V30 575 H 50.7645 -0.0565007 -1.56198 0
M  V30 576 H 51.4995 2.40151 -2.17941 0
M  V30 577 H 51.2845 1.41732 -3.65588 0
M  V30 578 H 52.7745 2.38148 -3.43038 0
M  V30 579 N 53.2116 1.57565 -0.0334293 0
M  V30 580 C 54.1746 2.09393 0.932048 0
M  V30 581 C 55.1746 1.00986 1.25134 0
M  V30 582 O 56.3646 1.27129 1.19096 0
M  V30 583 C 53.4966 2.56338 2.2473 0
M  V30 584 H 54.6896 2.95984 0.483085 0
M  V30 585 H 52.2426 1.54819 0.21468 0
M  V30 586 H 52.9776 1.7309 2.74245 0
M  V30 587 H 52.7626 3.35542 2.02865 0
M  V30 588 H 54.2526 2.96646 2.93923 0
M  V30 589 N 54.6897 -0.239769 1.55765 0
M  V30 590 C 56.1007 -0.808263 1.68297 0
M  V30 591 C 56.4517 -1.85736 0.632181 0
M  V30 592 O 55.5767 -2.15277 -0.220204 0
M  V30 593 C 56.1717 -1.47284 3.05111 0
M  V30 594 C 54.7307 -1.98895 3.19559 0
M  V30 595 C 53.8777 -0.842575 2.64189 0
M  V30 596 H 56.8287 -0.0154422 1.58692 0
M  V30 597 H 56.8497 -2.34111 2.99954 0
M  V30 598 H 56.3617 -0.709053 3.81568 0
M  V30 599 H 54.4627 -2.78132 2.47938 0
M  V30 600 H 54.5757 -2.18143 4.26556 0
M  V30 601 H 52.9397 -1.24501 2.22197 0
M  V30 602 H 53.7227 -0.0917552 3.43177 0
M  V30 603 N 56.1678 -1.49265 -0.50573 0
M  V30 604 C 57.5838 -1.35923 -0.836486 0
M  V30 605 C 57.7838 -0.388704 -1.97715 0
M  V30 606 O 56.8398 0.181336 -2.51848 0
M  V30 607 C 58.1528 -2.76531 -1.18115 0
M  V30 608 C 59.7008 -2.85197 -1.28964 0
M  V30 609 C 60.1758 -4.26561 -1.66761 0
M  V30 610 N 61.6668 -4.2935 -1.73819 0
M  V30 611 C 62.4018 -5.35693 -2.045 0
M  V30 612 N 61.8978 -6.52287 -2.33438 0
M  V30 613 N 63.6908 -5.23105 -2.05711 0
M  V30 614 H 55.8418 -2.10965 0.246519 0
M  V30 615 H 58.1048 -0.9468 0.0476887 0
M  V30 616 H 57.8108 -3.49226 -0.416398 0
M  V30 617 H 57.6848 -3.11599 -2.1257 0
M  V30 618 H 60.0718 -2.12742 -2.04511 0
M  V30 619 H 60.1528 -2.53718 -0.325704 0
M  V30 620 H 59.7968 -4.99541 -0.917656 0
M  V30 621 H 59.7268 -4.55502 -2.64246 0
M  V30 622 H 62.2178 -3.4526 -1.53635 0
M  V30 623 H 62.5308 -7.29158 -2.56024 0
M  V30 624 H 60.8758 -6.55521 -2.30905 0
M  V30 625 H 64.0668 -4.31026 -1.82577 0
M  V30 626 H 64.2398 -6.06078 -2.29289 0
M  V30 627 N 57.6459 0.756429 -1.3826 0
M  V30 628 C 58.9229 1.50584 -1.24835 0
M  V30 629 C 59.3029 2.10556 0.151485 0
M  V30 630 O 58.6509 1.96825 1.1607 0
M  V30 631 C 58.8609 2.57448 -2.3563 0
M  V30 632 C 60.2089 3.24429 -2.73917 0
M  V30 633 O 61.2329 2.67751 -2.34921 0
M  V30 634 O 60.0919 4.26937 -3.41156 0
M  V30 635 H 57.1859 0.667664 -0.48801 0
M  V30 636 H 59.7319 0.792083 -1.5008 0
M  V30 637 H 58.5039 2.11362 -3.29305 0
M  V30 638 H 58.1269 3.36408 -2.11933 0
M  V30 639 N 59.124 1.23083 0.984299 0
M  V30 640 C 60.37 1.06214 1.72761 0
M  V30 641 C 60.703 -0.400584 1.90024 0
M  V30 642 O 59.978 -1.29672 1.44967 0
M  V30 643 C 60.261 1.78375 3.12817 0
M  V30 644 C 60.114 3.32296 3.03149 0
M  V30 645 C 61.433 1.54309 4.12161 0
M  V30 646 H 58.552 0.387251 0.627061 0
M  V30 647 H 61.194 1.51536 1.14616 0
M  V30 648 H 59.344 1.39848 3.62457 0
M  V30 649 H 61.016 3.8032 2.61064 0
M  V30 650 H 59.259 3.6153 2.39747 0
M  V30 651 H 59.93 3.77972 4.02295 0
M  V30 652 H 62.406 1.87791 3.71314 0
M  V30 653 H 61.282 2.07281 5.08258 0
M  V30 654 H 61.543 0.477572 4.39513 0
M  V30 655 N 60.6021 -1.18246 1.0419 0
M  V30 656 C 62.0181 -1.40269 0.761366 0
M  V30 657 C 62.2181 -1.90777 -0.648578 0
M  V30 658 O 61.2741 -2.0929 -1.41258 0
M  V30 659 C 62.5871 -2.40237 1.8085 0
M  V30 660 C 64.1351 -2.53961 1.82955 0
M  V30 661 C 64.6101 -3.57194 2.86664 0
M  V30 662 N 66.1011 -3.64702 2.85563 0
M  V30 663 C 66.8361 -4.44309 3.6246 0
M  V30 664 N 66.3321 -5.27514 4.49111 0
M  V30 665 N 68.1251 -4.39084 3.50944 0
M  V30 666 H 60.2761 -0.837882 1.95175 0
M  V30 667 H 62.5391 -0.430608 0.84456 0
M  V30 668 H 62.2451 -2.10176 2.81991 0
M  V30 669 H 62.1191 -3.39601 1.64168 0
M  V30 670 H 64.5061 -2.83338 0.824855 0
M  V30 671 H 64.5871 -1.54706 2.03715 0
M  V30 672 H 64.2311 -3.28558 3.87314 0
M  V30 673 H 64.1611 -4.5613 2.6316 0
M  V30 674 H 66.6521 -3.05289 2.22727 0
M  V30 675 H 66.9651 -5.85411 5.04493 0
M  V30 676 H 65.3101 -5.2693 4.53178 0
M  V30 677 H 68.5011 -3.7313 2.82651 0
M  V30 678 H 68.6741 -5.00883 4.11121 0
M  V30 679 N 62.0802 -0.821533 -1.34494 0
M  V30 680 C 62.9902 -0.244355 -2.33324 0
M  V30 681 C 64.0062 0.620527 -1.62559 0
M  V30 682 O 65.1822 0.528754 -1.94335 0
M  V30 683 C 62.2472 0.585368 -3.41723 0
M  V30 684 C 61.3082 -0.301752 -4.28238 0
M  V30 685 C 60.5412 0.488466 -5.3146 0
M  V30 686 O 60.7642 1.72186 -5.4379 0
M  V30 687 O 59.6982 -0.12848 -6.01763 0
M  V30 688 H 63.5242 -1.06231 -2.84515 0
M  V30 689 H 61.1092 -0.583645 -1.37528 0
M  V30 690 H 62.9912 1.05747 -4.07916 0
M  V30 691 H 61.6662 1.38068 -2.92778 0
M  V30 692 H 60.5732 -0.821315 -3.64973 0
M  V30 693 H 61.9062 -1.06138 -4.8062 0
M  V30 694 N 63.5583 1.46682 -0.576371 0
M  V30 695 C 64.9743 1.57822 -0.237562 0
M  V30 696 C 65.1743 1.57237 1.26011 0
M  V30 697 O 64.2303 1.48596 2.04146 0
M  V30 698 C 65.5433 2.87499 -0.881168 0
M  V30 699 C 67.0913 3.01119 -0.85417 0
M  V30 700 C 67.5663 4.33524 -1.4772 0
M  V30 701 N 69.0573 4.40207 -1.44125 0
M  V30 702 C 69.7923 5.4126 -1.89276 0
M  V30 703 N 69.2883 6.49021 -2.42371 0
M  V30 704 N 71.0813 5.32422 -1.80231 0
M  V30 705 H 63.2323 1.45306 -1.54919 0
M  V30 706 H 65.4953 0.692733 -0.647167 0
M  V30 707 H 65.2013 2.9372 -1.93447 0
M  V30 708 H 65.0753 3.75224 -0.385592 0
M  V30 709 H 67.4623 2.94485 0.190491 0
M  V30 710 H 67.5433 2.14887 -1.3877 0
M  V30 711 H 67.1873 4.40916 -2.52103 0
M  V30 712 H 67.1173 5.1852 -0.918947 0
M  V30 713 H 69.6083 3.62931 -1.05307 0
M  V30 714 H 69.9213 7.2233 -2.74698 0
M  V30 715 H 68.2663 6.49858 -2.46393 0
M  V30 716 H 71.4573 4.47137 -1.38514 0
M  V30 717 H 71.6303 6.11034 -2.15735 0
M  V30 718 N 65.0364 0.313813 1.54444 0
M  V30 719 C 66.2644 -0.293918 2.04802 0
M  V30 720 C 66.6794 -1.46537 1.19047 0
M  V30 721 O 66.0364 -1.81182 0.218939 0
M  V30 722 C 66.0874 -0.737806 3.53891 0
M  V30 723 O 65.8084 0.387038 4.36387 0
M  V30 724 C 67.3094 -1.40936 4.203 0
M  V30 725 H 64.5294 -0.0620057 0.668129 0
M  V30 726 H 67.0734 0.457169 1.99324 0
M  V30 727 H 65.2284 -1.43889 3.59687 0
M  V30 728 H 65.6424 0.0391274 5.24485 0
M  V30 729 H 67.1164 -1.67099 5.26101 0
M  V30 730 H 67.5934 -2.35355 3.70816 0
M  V30 731 H 68.1994 -0.751117 4.18615 0
M  V30 732 N 66.5145 -1.57545 0.0417849 0
M  V30 733 C 67.7605 -1.93424 -0.629168 0
M  V30 734 C 68.1155 -0.919564 -1.69002 0
M  V30 735 O 67.4085 0.0626178 -1.91498 0
M  V30 736 C 67.6025 -3.33794 -1.27735 0
M  V30 737 C 67.4315 -4.48822 -0.280806 0
M  V30 738 C 66.2015 -5.05148 0.123869 0
M  V30 739 C 68.3995 -5.12148 0.470012 0
M  V30 740 N 66.3815 -6.03703 1.11426 0
M  V30 741 C 67.7525 -6.05921 1.31377 0
M  V30 742 C 69.8075 -4.95078 0.529343 0
M  V30 743 C 68.5105 -6.84459 2.21152 0
M  V30 744 C 70.5365 -5.74235 1.41448 0
M  V30 745 C 69.8985 -6.67634 2.24598 0
M  V30 746 H 65.9975 -0.755418 -0.202158 0
M  V30 747 H 68.5815 -1.94378 0.111923 0
M  V30 748 H 66.7525 -3.33635 -1.98852 0
M  V30 749 H 68.4845 -3.56988 -1.90635 0
M  V30 750 H 65.2395 -4.72923 -0.253178 0
M  V30 751 H 65.6635 -6.57674 1.60607 0
M  V30 752 H 70.3055 -4.22683 -0.0992798 0
M  V30 753 H 68.0235 -7.56151 2.85063 0
M  V30 754 H 71.6095 -5.63057 1.46484 0
M  V30 755 H 70.4895 -7.27817 2.9198 0
M  V30 756 N 67.9926 0.231505 -1.5589 0
M  V30 757 C 68.9246 1.31006 -1.8807 0
M  V30 758 C 69.9376 1.43539 -0.768145 0
M  V30 759 O 71.1266 1.44614 -1.04638 0
M  V30 760 C 68.2266 2.68688 -2.06543 0
M  V30 761 C 67.3996 2.78228 -3.37502 0
M  V30 762 C 66.4586 3.96857 -3.4553 0
M  V30 763 O 65.4846 3.85662 -4.18633 0
M  V30 764 N 66.6866 5.1072 -2.75944 0
M  V30 765 H 69.4516 1.03731 -2.81176 0
M  V30 766 H 67.0126 0.421573 -1.56315 0
M  V30 767 H 69.0046 3.46412 -2.09239 0
M  V30 768 H 67.5746 2.88605 -1.20109 0
M  V30 769 H 66.7946 1.87059 -3.46991 0
M  V30 770 H 68.0826 2.81564 -4.23791 0
M  V30 771 H 67.4806 5.2271 -2.16311 0
M  V30 772 H 66.0376 5.86523 -2.84314 0
M  V30 773 N 69.4707 1.49531 0.497807 0
M  V30 774 C 70.4007 1.6935 1.60757 0
M  V30 775 C 71.3817 0.542218 1.61227 0
M  V30 776 O 72.5667 0.778417 1.77917 0
M  V30 777 C 69.6967 1.76298 2.99226 0
M  V30 778 C 68.6507 2.91248 3.13622 0
M  V30 779 C 67.9767 2.83312 4.53474 0
M  V30 780 C 69.2767 4.3214 2.93346 0
M  V30 781 H 70.9707 2.62263 1.44425 0
M  V30 782 H 68.5167 1.26208 0.693367 0
M  V30 783 H 70.4697 1.88749 3.76765 0
M  V30 784 H 69.1937 0.799871 3.16654 0
M  V30 785 H 67.8527 2.78404 2.38509 0
M  V30 786 H 67.5007 1.84902 4.67782 0
M  V30 787 H 67.2007 3.60465 4.64046 0
M  V30 788 H 68.7247 2.97775 5.33069 0
M  V30 789 H 70.1387 4.45649 3.60652 0
M  V30 790 H 68.5357 5.1054 3.15387 0
M  V30 791 H 69.6057 4.46363 1.89441 0
M  V30 792 N 70.9488 -0.749086 1.3866 0
M  V30 793 C 72.2258 -1.4992 1.25632 0
M  V30 794 C 72.6058 -2.10633 -0.140317 0
M  V30 795 O 71.9538 -1.97437 -1.15025 0
M  V30 796 C 72.1638 -2.56195 2.36992 0
M  V30 797 C 73.5118 -3.22972 2.75634 0
M  V30 798 O 74.5358 -2.66502 2.36337 0
M  V30 799 O 73.3948 -4.25122 3.43415 0
M  V30 800 H 70.4888 -0.665067 0.491544 0
M  V30 801 H 73.0348 -0.784113 1.50498 0
M  V30 802 H 71.8068 -2.09612 3.30422 0
M  V30 803 H 71.4298 -3.35279 2.13714 0
M  V30 804 N 72.4269 -1.23603 -0.977757 0
M  V30 805 C 73.6549 -1.09646 -1.75458 0
M  V30 806 C 74.0699 0.351859 -1.85492 0
M  V30 807 O 73.4269 1.24327 -1.336 0
M  V30 808 C 73.4779 -1.71895 -3.18016 0
M  V30 809 O 73.1989 -3.11063 -3.08498 0
M  V30 810 C 74.6999 -1.63415 -4.12081 0
M  V30 811 H 71.9199 -0.38359 -0.550545 0
M  V30 812 H 74.4639 -1.63507 -1.22824 0
M  V30 813 H 72.6189 -1.22061 -3.67668 0
M  V30 814 H 73.0329 -3.41305 -3.9826 0
M  V30 815 H 74.5069 -2.11669 -5.09804 0
M  V30 816 H 74.9839 -0.593462 -4.35172 0
M  V30 817 H 75.5899 -2.12628 -3.68334 0
M  V30 818 N 73.905 1.17692 -1.04816 0
M  V30 819 C 75.316 1.69501 -0.782698 0
M  V30 820 C 75.667 1.83456 0.695577 0
M  V30 821 O 74.792 1.51942 1.54086 0
M  V30 822 C 75.387 3.07874 -1.41419 0
M  V30 823 C 73.946 3.56864 -1.19686 0
M  V30 824 C 73.093 2.3322 -1.50012 0
M  V30 825 H 76.044 1.02262 -1.2136 0
M  V30 826 H 76.065 3.71528 -0.821428 0
M  V30 827 H 75.577 2.97685 -2.49009 0
M  V30 828 H 73.678 3.72337 -0.140043 0
M  V30 829 H 73.791 4.39851 -1.89916 0
M  V30 830 H 72.155 2.37501 -0.920071 0
M  V30 831 H 72.938 2.25644 -2.58727 0
M  V30 832 N 75.3831 0.828654 1.34056 0
M  V30 833 C 76.3131 0.269443 2.3194 0
M  V30 834 C 77.2941 -0.617247 1.58506 0
M  V30 835 O 78.4791 -0.542931 1.86456 0
M  V30 836 C 75.6091 -0.564793 3.42677 0
M  V30 837 C 74.5631 0.225241 4.27407 0
M  V30 838 C 73.8891 -0.7321 5.29664 0
M  V30 839 C 75.1891 1.43663 5.02154 0
M  V30 840 H 76.8831 1.08728 2.7896 0
M  V30 841 H 74.4291 0.524283 1.34117 0
M  V30 842 H 76.3821 -0.966233 4.10173 0
M  V30 843 H 75.1061 -1.41574 2.9432 0
M  V30 844 H 73.7651 0.608117 3.61521 0
M  V30 845 H 73.4131 -1.57916 4.77568 0
M  V30 846 H 73.1131 -0.20767 5.87233 0
M  V30 847 H 74.6371 -1.13128 6.00029 0
M  V30 848 H 76.0511 1.1089 5.62473 0
M  V30 849 H 74.4481 1.89711 5.69324 0
M  V30 850 H 75.5181 2.21181 4.31517 0
M  V30 851 N 76.8612 -1.46375 0.584142 0
M  V30 852 C 78.1082 -2.02378 0.0702675 0
M  V30 853 C 78.4362 -1.45545 -1.29023 0
M  V30 854 O 77.6912 -0.610967 -1.85918 0
M  V30 855 C 77.9902 -3.57373 -0.0439342 0
M  V30 856 C 77.6562 -4.33252 1.24915 0
M  V30 857 C 76.3182 -4.53701 1.60341 0
M  V30 858 C 78.6702 -4.7681 2.1048 0
M  V30 859 C 75.9982 -5.1496 2.81128 0
M  V30 860 C 78.3502 -5.39404 3.30494 0
M  V30 861 C 77.0142 -5.5808 3.66201 0
M  V30 862 H 76.2842 -0.740554 0.0257127 0
M  V30 863 H 78.9312 -1.75727 0.761065 0
M  V30 864 H 77.2362 -3.83169 -0.817869 0
M  V30 865 H 78.9332 -3.98384 -0.457318 0
M  V30 866 H 75.5232 -4.17633 0.963364 0
M  V30 867 H 79.7072 -4.60766 1.84414 0
M  V30 868 H 74.9632 -5.27611 3.08928 0
M  V30 869 H 79.1372 -5.72114 3.97063 0
M  V30 870 H 76.7642 -6.05318 4.59885 0
M  V30 871 N 78.3393 -0.321999 -1.54275 0
M  V30 872 C 79.5673 0.283052 -2.04955 0
M  V30 873 C 79.9823 1.45904 -1.19823 0
M  V30 874 O 79.3393 1.81063 -0.228545 0
M  V30 875 C 79.3903 0.719028 -3.54277 0
M  V30 876 O 79.1113 -0.410175 -4.36176 0
M  V30 877 C 80.6123 1.38705 -4.21041 0
M  V30 878 H 77.8323 0.0584616 -0.668448 0
M  V30 879 H 80.3763 -0.467734 -1.99079 0
M  V30 880 H 78.5313 1.41979 -3.60445 0
M  V30 881 H 78.9453 -0.0669416 -5.24457 0
M  V30 882 H 80.4193 1.64306 -5.2698 0
M  V30 883 H 80.8963 2.33385 -3.72059 0
M  V30 884 H 81.5023 0.728906 -4.19007 0
M  V30 885 N 79.8174 1.5752 -0.0501392 0
M  V30 886 C 80.7474 2.14502 0.922566 0
M  V30 887 C 81.7284 1.06642 1.3252 0
M  V30 888 O 82.9134 1.34577 1.4001 0
M  V30 889 C 80.0434 2.68916 2.19776 0
M  V30 890 C 78.9974 3.8175 1.93523 0
M  V30 891 C 78.3234 4.22677 3.27487 0
M  V30 892 C 79.6234 5.06932 1.25765 0
M  V30 893 H 81.3174 2.9603 0.447952 0
M  V30 894 H 78.8634 1.42401 0.214024 0
M  V30 895 H 80.8164 3.07419 2.88222 0
M  V30 896 H 79.5404 1.84578 2.69441 0
M  V30 897 H 78.1994 3.43718 1.27489 0
M  V30 898 H 77.8474 3.35291 3.74952 0
M  V30 899 H 77.5474 4.98725 3.1072 0
M  V30 900 H 79.0714 4.63779 3.97166 0
M  V30 901 H 80.4854 5.42888 1.84244 0
M  V30 902 H 78.8824 5.88116 1.19328 0
M  V30 903 H 79.9524 4.84337 0.233536 0
M  V30 904 N 81.2955 -0.223234 1.56011 0
M  V30 905 C 82.7115 -0.572856 1.48965 0
M  V30 906 C 82.9115 -1.87225 0.74492 0
M  V30 907 O 81.9675 -2.50899 0.283896 0
M  V30 908 C 83.2805 -0.653646 2.9351 0
M  V30 909 C 84.8285 -0.744386 3.0402 0
M  V30 910 C 85.3035 -0.856535 4.49919 0
M  V30 911 N 86.7945 -0.9208 4.53955 0
M  V30 912 C 87.5295 -1.02726 5.64123 0
M  V30 913 N 87.0255 -1.09777 6.84047 0
M  V30 914 N 88.8185 -1.06226 5.51971 0
M  V30 915 H 80.9695 0.629462 2.02858 0
M  V30 916 H 83.2325 0.220621 0.921971 0
M  V30 917 H 82.9385 0.231518 3.50937 0
M  V30 918 H 82.8125 -1.51781 3.45315 0
M  V30 919 H 85.1995 -1.61999 2.46658 0
M  V30 920 H 85.2805 0.14541 2.55386 0
M  V30 921 H 84.9245 0.0146069 5.07898 0
M  V30 922 H 84.8545 -1.76172 4.96257 0
M  V30 923 H 87.3455 -0.876694 3.6759 0
M  V30 924 H 87.6585 -1.17872 7.63758 0
M  V30 925 H 86.0035 -1.06693 6.86762 0
M  V30 926 H 89.1945 -1.00382 4.5721 0
M  V30 927 H 89.3675 -1.14177 6.37862 0
M  V30 928 N 82.7736 -1.49793 -0.48987 0
M  V30 929 C 84.0206 -1.59841 -1.24327 0
M  V30 930 C 84.3486 -0.290135 -1.92324 0
M  V30 931 O 83.6036 0.722749 -1.81865 0
M  V30 932 C 83.9026 -2.71488 -2.32441 0
M  V30 933 C 83.5686 -4.12614 -1.81826 0
M  V30 934 C 82.2306 -4.51017 -1.67742 0
M  V30 935 C 84.5826 -5.00892 -1.4407 0
M  V30 936 C 81.9106 -5.75459 -1.14297 0
M  V30 937 C 84.2626 -6.25863 -0.920742 0
M  V30 938 C 82.9266 -6.63086 -0.766383 0
M  V30 939 H 82.1966 -0.584899 -0.454944 0
M  V30 940 H 84.8436 -1.83663 -0.542215 0
M  V30 941 H 83.1486 -2.4168 -3.0838 0
M  V30 942 H 84.8456 -2.76469 -2.90458 0
M  V30 943 H 81.4356 -3.82307 -1.93751 0
M  V30 944 H 85.6196 -4.7187 -1.53794 0
M  V30 945 H 80.8756 -6.02989 -1.01068 0
M  V30 946 H 85.0496 -6.9364 -0.619448 0
M  V30 947 H 82.6766 -7.59393 -0.350083 0
M  V30 948 N 84.2517 0.741722 -1.39055 0
M  V30 949 C 85.4987 1.50114 -1.35912 0
M  V30 950 C 85.8267 1.94443 0.0470937 0
M  V30 951 O 85.0817 1.66612 1.02659 0
M  V30 952 C 85.3807 2.7592 -2.27163 0
M  V30 953 C 85.0467 2.50493 -3.74919 0
M  V30 954 C 83.7087 2.43267 -4.1518 0
M  V30 955 C 86.0607 2.28585 -4.684 0
M  V30 956 C 83.3887 2.12166 -5.46994 0
M  V30 957 C 85.7407 1.99002 -6.00484 0
M  V30 958 C 84.4047 1.90241 -6.39816 0
M  V30 959 H 83.6747 0.549306 -0.497336 0
M  V30 960 H 86.3217 0.851896 -1.71508 0
M  V30 961 H 84.6267 3.45553 -1.84663 0
M  V30 962 H 86.3237 3.33923 -2.22028 0
M  V30 963 H 82.9137 2.56992 -3.43006 0
M  V30 964 H 87.0977 2.33139 -4.38132 0
M  V30 965 H 82.3537 2.03901 -5.76398 0
M  V30 966 H 86.5277 1.81057 -6.72452 0
M  V30 967 H 84.1547 1.65907 -7.41875 0
M  V30 968 N 85.7298 1.2412 0.971189 0
M  V30 969 C 86.9548 1.10667 1.75407 0
M  V30 970 C 87.3798 -0.337048 1.85056 0
M  V30 971 O 86.7378 -1.24396 1.31892 0
M  V30 972 C 86.7858 1.74726 3.15441 0
M  V30 973 O 85.8898 1.01566 3.99697 0
M  V30 974 H 85.2308 0.387341 0.539317 0
M  V30 975 H 87.7608 1.64358 1.2185 0
M  V30 976 H 87.7708 1.80341 3.6598 0
M  V30 977 H 86.4458 2.79773 3.07734 0
M  V30 978 H 85.0228 1.03713 3.58187 0
M  V30 979 N 87.2079 -1.17134 1.05439 0
M  V30 980 C 88.6189 -1.69084 0.791676 0
M  V30 981 C 88.9699 -1.83822 -0.685839 0
M  V30 982 O 88.0949 -1.52757 -1.53278 0
M  V30 983 C 88.6899 -3.07119 1.4305 0
M  V30 984 C 87.2489 -3.56225 1.21577 0
M  V30 985 C 86.3959 -2.32421 1.51247 0
M  V30 986 H 89.3469 -1.01617 1.219 0
M  V30 987 H 89.3679 -3.71087 0.84112 0
M  V30 988 H 88.8799 -2.9636 2.50584 0
M  V30 989 H 86.9809 -3.72257 0.159787 0
M  V30 990 H 87.0939 -4.38837 1.92246 0
M  V30 991 H 85.4579 -2.3701 0.932653 0
M  V30 992 H 86.2409 -2.24268 2.5992 0
M  V30 993 N 88.686 -0.835752 -1.33615 0
M  V30 994 C 89.618 -0.224151 -2.28101 0
M  V30 995 C 90.631 0.593331 -1.51603 0
M  V30 996 O 91.82 0.420911 -1.73466 0
M  V30 997 C 88.92 0.703309 -3.31522 0
M  V30 998 C 88.093 -0.0741528 -4.37337 0
M  V30 999 C 87.152 0.776176 -5.20444 0
M  V30 1000 O 86.178 0.216506 -5.68788 0
M  V30 1001 N 87.38 2.09401 -5.41416 0
M  V30 1002 H 90.145 -1.03598 -2.81225 0
M  V30 1003 H 87.706 -0.69392 -1.46275 0
M  V30 1004 H 89.698 1.27707 -3.84022 0
M  V30 1005 H 88.268 1.41585 -2.78698 0
M  V30 1006 H 87.488 -0.82928 -3.85378 0
M  V30 1007 H 88.776 -0.608863 -5.05144 0
M  V30 1008 H 88.174 2.57229 -5.03835 0
M  V30 1009 H 86.731 2.61633 -5.96985 0
M  V30 1010 N 90.1641 1.46063 -0.591896 0
M  V30 1011 C 91.0741 2.34192 0.13831 0
M  V30 1012 C 92.0901 1.50305 0.876608 0
M  V30 1013 O 93.2661 1.8315 0.837728 0
M  V30 1014 C 90.3311 3.27656 1.13326 0
M  V30 1015 C 89.3921 4.27445 0.39863 0
M  V30 1016 C 88.6251 5.16443 1.34618 0
M  V30 1017 O 88.8481 5.08553 2.58321 0
M  V30 1018 O 87.7821 5.95843 0.851768 0
M  V30 1019 H 91.6081 2.98002 -0.58552 0
M  V30 1020 H 89.1931 1.45188 -0.352239 0
M  V30 1021 H 91.0751 3.85291 1.70671 0
M  V30 1022 H 89.7501 2.6643 1.83839 0
M  V30 1023 H 88.6571 3.73471 -0.216895 0
M  V30 1024 H 89.9901 4.91482 -0.265709 0
M  V30 1025 N 91.6422 0.330177 1.54103 0
M  V30 1026 C 92.8902 -0.269871 2.0029 0
M  V30 1027 C 93.2112 -1.52133 1.21986 0
M  V30 1028 O 92.4812 -1.93212 0.323438 0
M  V30 1029 H 91.0612 -0.10271 0.739905 0
M  V30 1030 H 93.7232 0.448249 1.89675 0
M  V30 1031 H 92.8192 -0.52166 3.07709 0
M  V30 1032 N 93.1203 -1.57491 0.0584922 0
M  V30 1033 C 94.3693 -1.92155 -0.613146 0
M  V30 1034 C 94.6823 -0.939334 -1.71569 0
M  V30 1035 O 95.8883 -1.17829 -2.44599 0
M  V30 1036 C 94.3443 -3.41303 -1.14195 0
M  V30 1037 C 93.9523 -4.47944 -0.0711265 0
M  V30 1038 C 95.6963 -3.84988 -1.78841 0
M  V30 1039 C 93.6033 -5.88212 -0.613225 0
M  V30 1040 H 92.5333 -0.717162 -0.232796 0
M  V30 1041 H 95.1843 -1.83049 0.12857 0
M  V30 1042 H 93.5663 -3.45437 -1.93621 0
M  V30 1043 H 94.7403 -4.55408 0.702836 0
M  V30 1044 H 93.0553 -4.13644 0.478313 0
M  V30 1045 H 95.6523 -4.87159 -2.20408 0
M  V30 1046 H 95.9953 -3.21632 -2.64308 0
M  V30 1047 H 96.5283 -3.83401 -1.06059 0
M  V30 1048 H 93.2673 -6.55183 0.203978 0
M  V30 1049 H 92.7873 -5.84294 -1.35501 0
M  V30 1050 H 94.4663 -6.37687 -1.09383 0
M  V30 1051 N 94.5984 0.214957 -1.56127 0
M  V30 1052 C 95.8444 0.939762 -1.79712 0
M  V30 1053 C 96.1774 1.83723 -0.629247 0
M  V30 1054 O 95.4524 1.90925 0.371197 0
M  V30 1055 C 95.7354 1.77306 -3.13424 0
M  V30 1056 C 95.5884 0.90164 -4.40671 0
M  V30 1057 C 96.9074 2.74956 -3.43638 0
M  V30 1058 H 94.0264 0.340214 -0.653776 0
M  V30 1059 H 96.6684 0.20824 -1.88855 0
M  V30 1060 H 94.8184 2.39673 -3.0576 0
M  V30 1061 H 96.4904 0.294206 -4.60361 0
M  V30 1062 H 94.7334 0.207368 -4.33304 0
M  V30 1063 H 95.4044 1.51923 -5.30682 0
M  V30 1064 H 97.8804 2.22724 -3.51473 0
M  V30 1065 H 96.7564 3.30358 -4.38355 0
M  V30 1066 H 97.0174 3.53023 -2.66134 0
M  V30 1067 N 96.0765 1.50051 0.48192 0
M  V30 1068 C 97.3245 1.60181 1.23234 0
M  V30 1069 C 97.6455 0.299176 1.92691 0
M  V30 1070 O 96.9155 -0.682708 1.83619 0
M  V30 1071 H 95.4955 0.590232 0.457859 0
M  V30 1072 H 98.1575 1.86775 0.556881 0
M  V30 1073 H 97.2535 2.40753 1.98607 0
M  V30 1074 N 97.5546 -0.734337 1.39446 0
M  V30 1075 C 98.8006 -1.49613 1.36908 0
M  V30 1076 C 99.1336 -1.94169 -0.0347829 0
M  V30 1077 O 98.4086 -1.66833 -0.999847 0
M  V30 1078 C 98.6916 -2.73534 2.34203 0
M  V30 1079 C 98.5446 -2.34993 3.83534 0
M  V30 1080 C 99.8636 -3.75635 2.29317 0
M  V30 1081 H 96.9826 -0.542714 0.498629 0
M  V30 1082 H 99.6246 -0.839597 1.70443 0
M  V30 1083 H 97.7746 -3.29553 2.05736 0
M  V30 1084 H 99.4466 -1.84601 4.22753 0
M  V30 1085 H 97.6896 -1.67213 4.00278 0
M  V30 1086 H 98.3606 -3.23738 4.47099 0
M  V30 1087 H 100.837 -3.29203 2.54489 0
M  V30 1088 H 99.7126 -4.60008 2.99472 0
M  V30 1089 H 99.9736 -4.22603 1.29842 0
M  V30 1090 N 99.0327 -1.24633 -0.964593 0
M  V30 1091 C 100.449 -1.01239 -1.2338 0
M  V30 1092 C 100.649 0.2769 -1.99588 0
M  V30 1093 O 99.7047 0.992241 -2.32187 0
M  V30 1094 C 101.018 -2.22937 -2.01791 0
M  V30 1095 C 102.566 -2.27594 -2.14872 0
M  V30 1096 C 103.041 -3.48921 -2.96678 0
M  V30 1097 N 104.532 -3.49257 -3.04259 0
M  V30 1098 C 105.267 -4.39795 -3.67924 0
M  V30 1099 N 104.763 -5.40591 -4.33281 0
M  V30 1100 N 106.556 -4.275 -3.64966 0
M  V30 1101 H 98.7067 -2.0748 -0.454502 0
M  V30 1102 H 100.97 -0.910647 -0.26349 0
M  V30 1103 H 100.676 -3.16587 -1.53184 0
M  V30 1104 H 100.55 -2.25306 -3.02518 0
M  V30 1105 H 102.937 -1.34473 -2.6268 0
M  V30 1106 H 103.018 -2.2925 -1.13482 0
M  V30 1107 H 102.662 -4.42359 -2.49562 0
M  V30 1108 H 102.592 -3.4451 -3.98272 0
M  V30 1109 H 105.083 -2.76337 -2.57771 0
M  V30 1110 H 105.396 -6.05904 -4.79687 0
M  V30 1111 H 103.741 -5.44475 -4.3194 0
M  V30 1112 H 106.932 -3.47987 -3.13086 0
M  V30 1113 H 107.105 -4.98258 -4.14298 0
M  V30 1114 N 100.511 1.16574 -1.06058 0
M  V30 1115 C 101.76 1.86385 -0.770944 0
M  V30 1116 C 102.073 1.82448 0.705129 0
M  V30 1117 O 103.279 2.47815 1.10905 0
M  V30 1118 C 101.735 3.34466 -1.32893 0
M  V30 1119 C 101.343 3.46883 -2.83507 0
M  V30 1120 C 103.087 4.09548 -1.11672 0
M  V30 1121 C 100.994 4.89036 -3.32562 0
M  V30 1122 H 99.9238 0.698181 -0.284709 0
M  V30 1123 H 102.575 1.31583 -1.27899 0
M  V30 1124 H 100.957 3.88859 -0.748662 0
M  V30 1125 H 102.131 3.02663 -3.47465 0
M  V30 1126 H 100.446 2.85232 -3.03368 0
M  V30 1127 H 103.043 5.14434 -1.45814 0
M  V30 1128 H 103.386 4.16264 -0.0549535 0
M  V30 1129 H 103.919 3.61387 -1.66265 0
M  V30 1130 H 100.658 4.87499 -4.38207 0
M  V30 1131 H 100.178 5.3389 -2.73351 0
M  V30 1132 H 101.857 5.57843 -3.2775 0
M  V30 1133 N 101.989 0.842826 1.3317 0
M  V30 1134 C 102.899 0.281444 2.32906 0
M  V30 1135 C 103.915 -0.594587 1.63526 0
M  V30 1136 O 105.091 -0.49777 1.95152 0
M  V30 1137 C 102.156 -0.530929 3.42611 0
M  V30 1138 C 101.217 0.369843 4.27704 0
M  V30 1139 C 100.45 -0.403853 5.3217 0
M  V30 1140 O 100.673 -1.63513 5.46461 0
M  V30 1141 O 99.6069 0.224199 6.01482 0
M  V30 1142 H 103.433 1.10744 2.82789 0
M  V30 1143 H 101.018 0.60545 1.36582 0
M  V30 1144 H 102.9 -0.992437 4.09547 0
M  V30 1145 H 101.575 -1.33392 2.94938 0
M  V30 1146 H 100.482 0.879275 3.6362 0
M  V30 1147 H 101.815 1.13771 4.78871 0
M  V30 1148 N 103.467 -1.45747 0.599634 0
M  V30 1149 C 104.417 -2.27538 -0.145107 0
M  V30 1150 C 105.401 -1.3686 -0.846055 0
M  V30 1151 O 106.593 -1.6091 -0.737357 0
M  V30 1152 C 103.722 -3.23569 -1.14708 0
M  V30 1153 C 102.808 -4.21734 -0.447383 0
M  V30 1154 N 103.199 -5.03257 0.506535 0
M  V30 1155 C 101.497 -4.40536 -0.695966 0
M  V30 1156 C 102.198 -5.74426 0.917068 0
M  V30 1157 N 101.174 -5.42966 0.26253 0
M  V30 1158 H 104.976 -2.87965 0.587672 0
M  V30 1159 H 102.49 -1.56803 0.422697 0
M  V30 1160 H 104.487 -3.8089 -1.69495 0
M  V30 1161 H 103.147 -2.64702 -1.8805 0
M  V30 1162 H 104.158 -5.10319 0.882899 0
M  V30 1163 H 100.835 -3.92802 -1.41467 0
M  V30 1164 H 102.225 -6.4995 1.70338 0
M  V30 1165 N 104.945 -0.338344 -1.53925 0
M  V30 1166 C 106.192 0.259758 -2.00827 0
M  V30 1167 C 106.52 1.50973 -1.22628 0
M  V30 1168 O 105.775 1.93379 -0.300509 0
M  V30 1169 C 106.074 0.62448 -3.51902 0
M  V30 1170 C 105.74 -0.528006 -4.47798 0
M  V30 1171 C 104.402 -0.844298 -4.73735 0
M  V30 1172 C 106.754 -1.30143 -5.0469 0
M  V30 1173 C 104.082 -1.93648 -5.53821 0
M  V30 1174 C 106.434 -2.38382 -5.85967 0
M  V30 1175 C 105.098 -2.70576 -6.10201 0
M  V30 1176 H 104.368 0.0950523 -0.734878 0
M  V30 1177 H 107.015 -0.465182 -1.85764 0
M  V30 1178 H 105.32 1.43006 -3.64769 0
M  V30 1179 H 107.017 1.09905 -3.85645 0
M  V30 1180 H 103.607 -0.271421 -4.2774 0
M  V30 1181 H 107.791 -1.07033 -4.84621 0
M  V30 1182 H 103.047 -2.19021 -5.70824 0
M  V30 1183 H 107.221 -2.98746 -6.29066 0
M  V30 1184 H 104.848 -3.55333 -6.72044 0
M  V30 1185 N 106.423 1.57458 -0.0668435 0
M  V30 1186 C 107.355 2.09413 0.931601 0
M  V30 1187 C 108.368 1.02522 1.26464 0
M  V30 1188 O 109.557 1.30049 1.22269 0
M  V30 1189 C 106.657 2.53537 2.24882 0
M  V30 1190 C 105.83 3.83944 2.09537 0
M  V30 1191 C 104.889 4.14214 3.2452 0
M  V30 1192 O 103.915 4.83891 2.9973 0
M  V30 1193 N 105.117 3.67367 4.49469 0
M  V30 1194 H 107.882 2.95699 0.488048 0
M  V30 1195 H 105.443 1.61462 0.119009 0
M  V30 1196 H 107.435 2.70853 3.00701 0
M  V30 1197 H 106.005 1.72415 2.60753 0
M  V30 1198 H 105.225 3.76057 1.18215 0
M  V30 1199 H 106.513 4.69312 1.96529 0
M  V30 1200 H 105.911 3.11068 4.72497 0
M  V30 1201 H 104.468 3.89891 5.2233 0
M  V30 1202 N 107.901 -0.206675 1.56239 0
M  V30 1203 C 109.149 -0.927007 1.79586 0
M  V30 1204 C 109.47 -1.8427 0.637929 0
M  V30 1205 O 108.74 -1.92849 -0.344398 0
M  V30 1206 H 107.32 -0.345292 0.662407 0
M  V30 1207 H 109.982 -0.21496 1.93711 0
M  V30 1208 H 109.078 -1.52501 2.72305 0
M  V30 1209 N 109.379 -1.50304 -0.473955 0
M  V30 1210 C 110.342 -1.6841 -1.55469 0
M  V30 1211 C 111.342 -0.554905 -1.50922 0
M  V30 1212 O 112.532 -0.821882 -1.53593 0
M  V30 1213 C 109.664 -1.70667 -2.95102 0
M  V30 1214 H 110.857 -2.64828 -1.40733 0
M  V30 1215 H 108.41 -1.39742 -0.700132 0
M  V30 1216 H 109.145 -0.75932 -3.15285 0
M  V30 1217 H 108.93 -2.52698 -2.9981 0
M  V30 1218 H 110.42 -1.8664 -3.73571 0
M  V30 1219 N 110.857 0.726932 -1.39834 0
M  V30 1220 C 111.787 1.85405 -1.41941 0
M  V30 1221 C 112.768 1.67751 -0.281728 0
M  V30 1222 O 113.953 1.8795 -0.488717 0
M  V30 1223 C 111.083 3.23243 -1.2701 0
M  V30 1224 C 110.037 3.55549 -2.38262 0
M  V30 1225 C 109.363 4.9241 -2.08415 0
M  V30 1226 C 110.663 3.577 -3.80589 0
M  V30 1227 H 112.357 1.83899 -2.36266 0
M  V30 1228 H 109.903 0.883349 -1.13723 0
M  V30 1229 H 111.856 4.01775 -1.27103 0
M  V30 1230 H 110.58 3.25296 -0.291564 0
M  V30 1231 H 109.239 2.79351 -2.37399 0
M  V30 1232 H 108.887 4.91052 -1.0898 0
M  V30 1233 H 108.587 5.14992 -2.82943 0
M  V30 1234 H 110.111 5.73289 -2.10171 0
M  V30 1235 H 111.525 4.26293 -3.83337 0
M  V30 1236 H 109.922 3.91804 -4.54543 0
M  V30 1237 H 110.992 2.57328 -4.10987 0
M  V30 1238 N 112.336 1.25143 0.95797 0
M  V30 1239 C 113.284 1.05019 2.07542 0
M  V30 1240 C 114.278 -0.0178751 1.69391 0
M  V30 1241 O 115.484 0.137472 1.79474 0
M  V30 1242 H 111.859 0.32265 0.679265 0
M  V30 1243 H 113.83 1.99759 2.21673 0
M  V30 1244 C 112.579 0.682074 3.40944 0
M  V30 1245 H 111.902 1.49573 3.70767 0
M  V30 1246 H 113.342 0.580945 4.20001 0
M  V30 1247 C 111.801 -0.611608 3.31302 0
M  V30 1248 O 112.331 -1.65465 3.66038 0
M  V30 1249 N 110.537 -0.595982 2.84423 0
M  V30 1250 H 110.084 0.253192 2.56353 0
M  V30 1251 H 110.042 -1.46173 2.78354 0
M  V30 1252 N 113.814 -1.1601 1.06675 0
M  V30 1253 C 114.762 -2.22586 0.675157 0
M  V30 1254 C 115.756 -1.66525 -0.310766 0
M  V30 1255 O 116.962 -1.79145 -0.175215 0
M  V30 1256 H 113.337 -0.724855 0.200223 0
M  V30 1257 H 115.308 -2.52899 1.58381 0
M  V30 1258 C 114.057 -3.47604 0.0817162 0
M  V30 1259 H 113.38 -3.91058 0.831484 0
M  V30 1260 H 114.82 -4.23718 -0.154708 0
M  V30 1261 C 113.279 -3.15718 -1.17576 0
M  V30 1262 O 113.809 -3.31878 -2.26318 0
M  V30 1263 N 112.015 -2.69816 -1.07923 0
M  V30 1264 H 111.562 -2.56866 -0.194293 0
M  V30 1265 H 111.52 -2.48855 -1.92141 0
M  V30 1266 N 115.292 -0.849877 -1.32721 0
M  V30 1267 C 116.54 -0.450032 -1.97026 0
M  V30 1268 C 116.861 0.996604 -1.67609 0
M  V30 1269 O 116.131 1.6958 -0.980786 0
M  V30 1270 H 114.711 -0.163426 -0.728904 0
M  V30 1271 H 117.373 -1.08526 -1.6189 0
M  V30 1272 H 116.469 -0.591146 -3.0645 0
M  V30 1273 N 116.77 1.45427 -0.607355 0
M  V30 1274 C 118.181 1.85756 -0.187535 0
M  V30 1275 C 118.532 1.5077 1.25551 0
M  V30 1276 O 117.657 0.93427 1.95193 0
M  V30 1277 C 118.252 3.37154 -0.333572 0
M  V30 1278 C 116.811 3.76387 0.0315542 0
M  V30 1279 C 115.958 2.69377 -0.658117 0
M  V30 1280 H 118.909 1.36231 -0.81405 0
M  V30 1281 H 118.93 3.78014 0.43428 0
M  V30 1282 H 118.442 3.62586 -1.38393 0
M  V30 1283 H 116.543 3.56571 1.0811 0
M  V30 1284 H 116.656 4.77731 -0.361935 0
M  V30 1285 H 115.02 2.5452 -0.0957873 0
M  V30 1286 H 115.803 2.97646 -1.7106 0
M  V30 1287 N 118.248 0.346503 1.53744 0
M  V30 1288 C 119.198 -0.524953 2.21874 0
M  V30 1289 C 120.182 -1.06376 1.20718 0
M  V30 1290 O 121.374 -0.996972 1.46251 0
M  V30 1291 C 118.503 -1.6739 2.99726 0
M  V30 1292 C 117.589 -1.14888 4.08242 0
M  V30 1293 N 117.98 -0.345329 5.0462 0
M  V30 1294 C 116.278 -1.4255 4.22606 0
M  V30 1295 C 116.979 -0.0600706 5.81669 0
M  V30 1296 N 115.955 -0.65252 5.39669 0
M  V30 1297 H 119.757 0.0960091 2.93743 0
M  V30 1298 H 117.271 0.15352 1.61673 0
M  V30 1299 H 119.268 -2.3102 3.47038 0
M  V30 1300 H 117.928 -2.29811 2.29384 0
M  V30 1301 H 118.939 0.0138439 5.17898 0
M  V30 1302 H 115.616 -2.05389 3.63486 0
M  V30 1303 H 117.006 0.588321 6.69319 0
M  V30 1304 N 119.726 -1.57421 0.075193 0
M  V30 1305 C 120.956 -1.97659 -0.601203 0
M  V30 1306 C 121.364 -0.952427 -1.63479 0
M  V30 1307 O 120.707 0.0688241 -1.83571 0
M  V30 1308 C 120.769 -3.34218 -1.32434 0
M  V30 1309 C 120.433 -4.5484 -0.443826 0
M  V30 1310 C 121.43 -5.19034 0.299969 0
M  V30 1311 C 119.115 -5.00952 -0.367709 0
M  V30 1312 C 121.109 -6.27695 1.10807 0
M  V30 1313 C 118.796 -6.09484 0.444058 0
M  V30 1314 C 119.794 -6.72719 1.18061 0
M  V30 1315 O 119.482 -7.79161 1.97898 0
M  V30 1316 H 119.214 -0.65494 -0.167422 0
M  V30 1317 H 121.768 -2.04886 0.145157 0
M  V30 1318 H 119.998 -3.23615 -2.11685 0
M  V30 1319 H 121.687 -3.59038 -1.89331 0
M  V30 1320 H 122.453 -4.84351 0.250776 0
M  V30 1321 H 118.332 -4.51509 -0.930638 0
M  V30 1322 H 121.876 -6.76982 1.68347 0
M  V30 1323 H 117.773 -6.43601 0.494803 0
M  V30 1324 H 118.541 -7.96055 1.90367 0
M  V30 1325 N 121.204 0.198386 -1.56346 0
M  V30 1326 C 122.615 0.763358 -1.70381 0
M  V30 1327 C 122.966 1.83995 -0.681203 0
M  V30 1328 O 122.091 2.15785 0.16305 0
M  V30 1329 C 122.686 1.39143 -3.08909 0
M  V30 1330 C 121.245 1.90352 -3.2472 0
M  V30 1331 C 120.392 0.772233 -2.6633 0
M  V30 1332 H 123.343 -0.0266377 -1.58678 0
M  V30 1333 H 123.364 2.26076 -3.06055 0
M  V30 1334 H 122.876 0.607638 -3.83314 0
M  V30 1335 H 120.977 2.71461 -2.55225 0
M  V30 1336 H 121.09 2.06757 -4.3219 0
M  V30 1337 H 119.454 1.18566 -2.2542 0
M  V30 1338 H 120.237 0.00073556 -3.433 0
M  V30 1339 N 122.682 1.50554 0.465978 0
M  V30 1340 C 123.612 1.72722 1.57128 0
M  V30 1341 C 124.593 0.576294 1.6004 0
M  V30 1342 O 125.778 0.81598 1.76225 0
M  V30 1343 C 122.908 1.82605 2.95419 0
M  V30 1344 C 121.862 2.97835 3.07373 0
M  V30 1345 C 121.188 2.92867 4.47363 0
M  V30 1346 C 122.488 4.38265 2.84114 0
M  V30 1347 H 124.182 2.65267 1.38829 0
M  V30 1348 H 121.728 1.2765 0.666441 0
M  V30 1349 H 123.681 1.96698 3.72677 0
M  V30 1350 H 122.405 0.866858 3.14886 0
M  V30 1351 H 121.064 2.83401 2.3255 0
M  V30 1352 H 120.712 1.94783 4.63755 0
M  V30 1353 H 120.412 3.70227 4.56296 0
M  V30 1354 H 121.936 3.09015 5.26633 0
M  V30 1355 H 123.35 4.53198 3.51118 0
M  V30 1356 H 121.747 5.17115 3.04487 0
M  V30 1357 H 122.817 4.50281 1.7993 0
M  V30 1358 N 124.16 -0.719506 1.40217 0
M  V30 1359 C 125.108 -1.85493 1.40339 0
M  V30 1360 C 126.102 -1.66995 0.284415 0
M  V30 1361 O 127.308 -1.74148 0.455252 0
M  V30 1362 H 123.683 -0.610857 0.438586 0
M  V30 1363 H 125.654 -1.82506 2.36081 0
M  V30 1364 C 124.403 -3.23321 1.27901 0
M  V30 1365 H 123.726 -3.38159 2.1328 0
M  V30 1366 H 125.166 -4.02914 1.32045 0
M  V30 1367 C 123.625 -3.36898 -0.0111355 0
M  V30 1368 O 124.155 -3.89674 -0.975538 0
M  V30 1369 N 122.361 -2.90492 -0.0793393 0
M  V30 1370 H 121.908 -2.47731 0.706183 0
M  V30 1371 H 121.866 -2.99955 -0.942038 0
M  V30 1372 N 125.638 -1.25649 -0.95132 0
M  V30 1373 C 126.887 -1.09988 -1.69073 0
M  V30 1374 C 127.2 0.358355 -1.92289 0
M  V30 1375 O 128.406 0.635466 -2.63958 0
M  V30 1376 C 126.862 -1.92012 -3.044 0
M  V30 1377 C 126.47 -3.42347 -2.88968 0
M  V30 1378 C 128.214 -1.8493 -3.82101 0
M  V30 1379 C 126.121 -4.16655 -4.19705 0
M  V30 1380 H 125.051 -0.407993 -0.63408 0
M  V30 1381 H 127.702 -1.49873 -1.05879 0
M  V30 1382 H 126.084 -1.44952 -3.68517 0
M  V30 1383 H 127.258 -3.97104 -2.33762 0
M  V30 1384 H 125.573 -3.50557 -2.24719 0
M  V30 1385 H 128.17 -2.37739 -4.78941 0
M  V30 1386 H 128.513 -0.817883 -4.08187 0
M  V30 1387 H 129.046 -2.29758 -3.2474 0
M  V30 1388 H 125.785 -5.20224 -3.98807 0
M  V30 1389 H 125.305 -3.66681 -4.74663 0
M  V30 1390 H 126.984 -4.24551 -4.88227 0
M  V30 1391 N 127.117 1.15442 -1.07289 0
M  V30 1392 C 128.047 2.22312 -0.714107 0
M  V30 1393 C 129.028 1.67467 0.298155 0
M  V30 1394 O 130.213 1.93445 0.171048 0
M  V30 1395 C 127.343 3.47124 -0.110448 0
M  V30 1396 C 126.297 4.14926 -1.04979 0
M  V30 1397 C 125.623 5.33807 -0.308924 0
M  V30 1398 C 126.923 4.64762 -2.38314 0
M  V30 1399 H 128.617 2.5258 -1.6076 0
M  V30 1400 H 126.163 1.21404 -0.77441 0
M  V30 1401 H 128.116 4.21124 0.152482 0
M  V30 1402 H 126.84 3.16187 0.81812 0
M  V30 1403 H 125.499 3.42866 -1.29764 0
M  V30 1404 H 125.147 4.99126 0.623084 0
M  V30 1405 H 124.847 5.80113 -0.935036 0
M  V30 1406 H 126.371 6.10576 -0.0537771 0
M  V30 1407 H 127.785 5.30292 -2.1786 0
M  V30 1408 H 126.182 5.21728 -2.96514 0
M  V30 1409 H 127.252 3.80434 -3.00663 0
M  V30 1410 N 128.595 0.856903 1.32268 0
M  V30 1411 C 129.527 0.260412 2.27716 0
M  V30 1412 C 130.54 -0.569137 1.52528 0
M  V30 1413 O 131.729 -0.39326 1.74114 0
M  V30 1414 C 128.829 -0.650477 3.32599 0
M  V30 1415 C 128.002 0.14372 4.37164 0
M  V30 1416 C 127.061 -0.69328 5.21613 0
M  V30 1417 O 126.087 -0.12599 5.69061 0
M  V30 1418 N 127.289 -2.00761 5.44679 0
M  V30 1419 H 130.054 1.08059 2.79541 0
M  V30 1420 H 127.615 0.717103 1.45152 0
M  V30 1421 H 129.607 -1.21581 3.86005 0
M  V30 1422 H 128.177 -1.37133 2.80915 0
M  V30 1423 H 127.397 0.890486 3.8401 0
M  V30 1424 H 128.685 0.68915 5.04111 0
M  V30 1425 H 128.083 -2.49181 5.07863 0
M  V30 1426 H 126.64 -2.52103 6.01072 0
M  V30 1427 N 130.073 -1.45103 0.615059 0
M  V30 1428 C 131.35 -1.95549 0.0448276 0
M  V30 1429 C 131.73 -1.55737 -1.4251 0
M  V30 1430 O 131.078 -0.823556 -2.13143 0
M  V30 1431 C 131.288 -3.48098 0.250785 0
M  V30 1432 C 132.636 -4.24384 0.135509 0
M  V30 1433 O 133.66 -3.55738 0.181299 0
M  V30 1434 O 132.519 -5.46493 0.0268878 0
M  V30 1435 H 129.613 -0.8264 -0.0314845 0
M  V30 1436 H 132.159 -1.55232 0.685642 0
M  V30 1437 H 130.931 -3.7007 1.27139 0
M  V30 1438 H 130.554 -3.95323 -0.424937 0
M  V30 1439 N 131.551 -0.354651 -1.53558 0
M  V30 1440 C 132.797 0.238797 -2.01389 0
M  V30 1441 C 133.13 1.49309 -1.2418 0
M  V30 1442 O 132.405 1.91638 -0.332457 0
M  V30 1443 C 132.688 0.541771 -3.56001 0
M  V30 1444 C 132.541 -0.725388 -4.43912 0
M  V30 1445 C 133.86 1.34685 -4.18984 0
M  V30 1446 H 130.979 0.0853177 -0.732045 0
M  V30 1447 H 133.621 -0.477384 -1.83905 0
M  V30 1448 H 131.771 1.15189 -3.71031 0
M  V30 1449 H 133.443 -1.36313 -4.407 0
M  V30 1450 H 131.686 -1.34801 -4.12324 0
M  V30 1451 H 132.357 -0.468505 -5.50008 0
M  V30 1452 H 134.833 0.830837 -4.07721 0
M  V30 1453 H 133.709 1.52759 -5.27215 0
M  V30 1454 H 133.97 2.35221 -3.74331 0
M  V30 1455 N 133.029 1.57378 -0.0835403 0
M  V30 1456 C 133.976 2.13384 0.879539 0
M  V30 1457 C 134.946 1.04936 1.28754 0
M  V30 1458 O 136.131 1.32662 1.37133 0
M  V30 1459 C 133.271 2.70932 2.13752 0
M  V30 1460 C 132.384 3.93575 1.7811 0
M  V30 1461 C 131.519 4.39326 2.98607 0
M  V30 1462 C 130.558 5.54587 2.59037 0
M  V30 1463 N 129.695 5.95243 3.72331 0
M  V30 1464 H 134.535 2.9537 0.395076 0
M  V30 1465 H 132.072 1.45953 0.183349 0
M  V30 1466 H 134.03 3.02411 2.87408 0
M  V30 1467 H 132.66 1.91693 2.59718 0
M  V30 1468 H 131.712 3.68483 0.94469 0
M  V30 1469 H 133.024 4.77258 1.45005 0
M  V30 1470 H 132.178 4.72528 3.80529 0
M  V30 1471 H 130.917 3.5452 3.34913 0
M  V30 1472 H 129.922 5.21024 1.75539 0
M  V30 1473 H 131.147 6.41133 2.23887 0
M  V30 1474 H 129.093 5.13385 4.08378 0
M  V30 1475 H 129.01 6.73694 3.43034 0
M  V30 1476 H 130.278 6.33072 4.54797 0
M  V30 1477 N 134.507 -0.190092 1.56449 0
M  V30 1478 C 135.753 -0.911052 1.81184 0
M  V30 1479 C 136.086 -1.82699 0.658396 0
M  V30 1480 O 135.361 -1.91491 -0.340775 0
M  V30 1481 C 135.644 -1.72297 3.16205 0
M  V30 1482 C 135.497 -0.831419 4.42049 0
M  V30 1483 C 136.816 -2.69454 3.47969 0
M  V30 1484 H 133.935 -0.32977 0.659106 0
M  V30 1485 H 136.577 -0.178169 1.89163 0
M  V30 1486 H 134.727 -2.34778 3.09534 0
M  V30 1487 H 136.399 -0.220929 4.60771 0
M  V30 1488 H 134.642 -0.138406 4.33579 0
M  V30 1489 H 135.313 -1.43461 5.33032 0
M  V30 1490 H 137.789 -2.17104 3.54972 0
M  V30 1491 H 136.665 -3.23342 4.43555 0
M  V30 1492 H 136.926 -3.48744 2.71717 0
M  V30 1493 N 135.985 -1.50799 -0.457987 0
M  V30 1494 C 137.213 -1.66218 -1.23203 0
M  V30 1495 C 137.628 -0.350894 -1.85511 0
M  V30 1496 O 136.985 0.668546 -1.69814 0
M  V30 1497 C 137.036 -2.76291 -2.33121 0
M  V30 1498 O 136.757 -4.02338 -1.73366 0
M  V30 1499 C 138.258 -3.028 -3.2377 0
M  V30 1500 H 135.478 -0.558361 -0.372121 0
M  V30 1501 H 138.022 -1.97099 -0.545179 0
M  V30 1502 H 136.177 -2.48068 -2.97558 0
M  V30 1503 H 136.591 -4.63312 -2.4585 0
M  V30 1504 H 138.065 -3.8345 -3.97077 0
M  V30 1505 H 138.542 -2.14385 -3.83322 0
M  V30 1506 H 139.148 -3.32604 -2.65056 0
M  V30 1507 N 137.463 0.71206 -1.40597 0
M  V30 1508 C 138.712 1.46754 -1.38369 0
M  V30 1509 C 139.025 1.95598 0.0097839 0
M  V30 1510 O 140.231 2.71059 0.154677 0
M  V30 1511 C 138.687 2.65289 -2.43207 0
M  V30 1512 C 138.295 2.23301 -3.88382 0
M  V30 1513 C 140.039 3.43008 -2.50091 0
M  V30 1514 C 137.946 3.38696 -4.84808 0
M  V30 1515 H 136.876 0.55118 -0.514506 0
M  V30 1516 H 139.527 0.774616 -1.66349 0
M  V30 1517 H 137.909 3.36769 -2.08332 0
M  V30 1518 H 139.083 1.59218 -4.32419 0
M  V30 1519 H 137.398 1.58618 -3.85006 0
M  V30 1520 H 139.995 4.28881 -3.1932 0
M  V30 1521 H 140.338 3.87065 -1.53253 0
M  V30 1522 H 140.871 2.78574 -2.83974 0
M  V30 1523 H 137.61 2.99668 -5.82992 0
M  V30 1524 H 137.13 4.01683 -4.45433 0
M  V30 1525 H 138.809 4.04712 -5.04794 0
M  V30 1526 N 138.941 1.26152 0.944643 0
M  V30 1527 C 139.851 1.09176 2.07648 0
M  V30 1528 C 140.867 0.0261935 1.7398 0
M  V30 1529 O 142.043 0.229208 2.00091 0
M  V30 1530 C 139.108 0.722915 3.39079 0
M  V30 1531 C 138.169 1.86752 3.86552 0
M  V30 1532 C 137.402 1.51617 5.11711 0
M  V30 1533 O 137.625 0.416331 5.68879 0
M  V30 1534 O 136.559 2.34975 5.54139 0
M  V30 1535 H 140.385 2.0412 2.24875 0
M  V30 1536 H 137.97 1.05182 1.061 0
M  V30 1537 H 139.852 0.529787 4.18056 0
M  V30 1538 H 138.527 -0.197159 3.23099 0
M  V30 1539 H 137.434 2.11558 3.08535 0
M  V30 1540 H 138.767 2.76719 4.07047 0
M  V30 1541 N 140.419 -1.14872 1.07899 0
M  V30 1542 C 141.367 -2.21857 0.698727 0
M  V30 1543 C 142.361 -1.66845 -0.293086 0
M  V30 1544 O 143.567 -1.79321 -0.156204 0
M  V30 1545 H 139.942 -0.722691 0.207899 0
M  V30 1546 H 141.913 -2.51205 1.61054 0
M  V30 1547 C 140.662 -3.47498 0.11858 0
M  V30 1548 H 139.985 -3.90154 0.872914 0
M  V30 1549 H 141.425 -4.23858 -0.109759 0
M  V30 1550 C 139.884 -3.16947 -1.1422 0
M  V30 1551 O 140.414 -3.3426 -2.22785 0
M  V30 1552 N 138.62 -2.70946 -1.05055 0
M  V30 1553 H 138.167 -2.57058 -0.167038 0
M  V30 1554 H 138.125 -2.50879 -1.89491 0
M  V30 1555 N 141.898 -0.863906 -1.31812 0
M  V30 1556 C 143.126 -0.486111 -2.01108 0
M  V30 1557 C 143.541 0.919755 -1.64882 0
M  V30 1558 O 142.898 1.60162 -0.874893 0
M  V30 1559 C 142.949 -0.626435 -3.56031 0
M  V30 1560 O 142.67 -1.97693 -3.90959 0
M  V30 1561 C 144.171 -0.248857 -4.42601 0
M  V30 1562 H 141.391 -0.190052 -0.643523 0
M  V30 1563 H 143.935 -1.1634 -1.68182 0
M  V30 1564 H 142.09 0.00322717 -3.874 0
M  V30 1565 H 142.504 -1.98034 -4.85678 0
M  V30 1566 H 143.978 -0.398016 -5.50563 0
M  V30 1567 H 144.455 0.811489 -4.31638 0
M  V30 1568 H 145.061 -0.853971 -4.16638 0
M  V30 1569 N 143.376 1.44774 -0.622745 0
M  V30 1570 C 144.286 2.34433 0.0886031 0
M  V30 1571 C 145.302 1.52131 0.844529 0
M  V30 1572 O 146.478 1.84886 0.798691 0
M  V30 1573 C 143.543 3.29986 1.0635 0
M  V30 1574 C 142.604 4.28195 0.307873 0
M  V30 1575 C 141.837 5.19183 1.23633 0
M  V30 1576 O 142.06 5.13918 2.47476 0
M  V30 1577 O 140.994 5.97515 0.725189 0
M  V30 1578 H 144.82 2.96693 -0.648599 0
M  V30 1579 H 142.405 1.44408 -0.382957 0
M  V30 1580 H 144.287 3.88825 1.6246 0
M  V30 1581 H 142.962 2.70269 1.78146 0
M  V30 1582 H 141.869 3.72927 -0.296064 0
M  V30 1583 H 143.202 4.90808 -0.3699 0
M  V30 1584 N 144.854 0.36279 1.53368 0
M  V30 1585 C 146.27 0.0116182 1.59596 0
M  V30 1586 C 146.47 -1.47012 1.37803 0
M  V30 1587 O 145.526 -2.23136 1.18181 0
M  V30 1588 C 146.839 0.465052 2.97082 0
M  V30 1589 C 148.387 0.419033 3.10182 0
M  V30 1590 C 148.862 0.848235 4.50077 0
M  V30 1591 N 150.353 0.803183 4.56183 0
M  V30 1592 C 151.088 1.107 5.62613 0
M  V30 1593 N 150.584 1.47996 6.76808 0
M  V30 1594 N 152.377 1.02998 5.52583 0
M  V30 1595 H 144.528 1.32775 1.65785 0
M  V30 1596 H 146.791 0.542518 0.777417 0
M  V30 1597 H 146.497 1.49892 3.18159 0
M  V30 1598 H 146.371 -0.149786 3.76902 0
M  V30 1599 H 148.758 -0.605696 2.88817 0
M  V30 1600 H 148.839 1.06933 2.32377 0
M  V30 1601 H 148.483 1.87107 4.7218 0
M  V30 1602 H 148.413 0.175218 5.26308 0
M  V30 1603 H 150.904 0.52838 3.74188 0
M  V30 1604 H 151.217 1.69613 7.53957 0
M  V30 1605 H 149.562 1.51859 6.78206 0
M  V30 1606 H 152.753 0.737817 4.62249 0
M  V30 1607 H 152.926 1.2701 6.35431 0
M  V30 1608 N 146.332 -1.57332 0.0918853 0
M  V30 1609 C 147.562 -1.98286 -0.580205 0
M  V30 1610 C 147.97 -0.969713 -1.6246 0
M  V30 1611 O 147.313 0.0493501 -1.83634 0
M  V30 1612 C 147.375 -3.35603 -1.28882 0
M  V30 1613 C 147.039 -4.55285 -0.395559 0
M  V30 1614 C 148.036 -5.18687 0.355002 0
M  V30 1615 C 145.721 -5.01314 -0.314556 0
M  V30 1616 C 147.715 -6.26484 1.17458 0
M  V30 1617 C 145.402 -6.08979 0.508677 0
M  V30 1618 C 146.4 -6.71429 1.2519 0
M  V30 1619 O 146.088 -7.77018 2.06151 0
M  V30 1620 H 145.82 -0.656678 -0.160466 0
M  V30 1621 H 148.374 -2.04721 0.16688 0
M  V30 1622 H 146.604 -3.25842 -2.08241 0
M  V30 1623 H 148.293 -3.61026 -1.85512 0
M  V30 1624 H 149.059 -4.84058 0.302134 0
M  V30 1625 H 144.938 -4.5247 -0.882697 0
M  V30 1626 H 148.482 -6.75159 1.75518 0
M  V30 1627 H 144.379 -6.4304 0.563037 0
M  V30 1628 H 145.147 -7.93991 1.98799 0
M  V30 1629 N 147.81 0.181792 -1.56548 0
M  V30 1630 C 148.773 1.20894 -1.94724 0
M  V30 1631 C 149.773 1.37738 -0.829747 0
M  V30 1632 O 150.963 1.35323 -1.09697 0
M  V30 1633 C 148.095 2.57593 -2.23291 0
M  V30 1634 H 149.288 0.882275 -2.86629 0
M  V30 1635 H 146.841 0.423838 -1.50444 0
M  V30 1636 H 147.576 2.95291 -1.34067 0
M  V30 1637 H 147.361 2.46735 -3.04736 0
M  V30 1638 H 148.851 3.31637 -2.53785 0
M  V30 1639 N 149.288 1.51039 0.449983 0
M  V30 1640 C 150.198 1.74261 1.57067 0
M  V30 1641 C 151.214 0.626363 1.62335 0
M  V30 1642 O 152.39 0.907162 1.79812 0
M  V30 1643 C 149.455 1.85114 2.93144 0
M  V30 1644 C 148.516 3.0893 2.98095 0
M  V30 1645 C 147.749 3.19256 4.27681 0
M  V30 1646 O 147.972 2.35835 5.19363 0
M  V30 1647 O 146.906 4.12144 4.38658 0
M  V30 1648 H 150.732 2.69303 1.40391 0
M  V30 1649 H 148.317 1.35389 0.631688 0
M  V30 1650 H 150.199 1.94311 3.73926 0
M  V30 1651 H 148.874 0.932588 3.09975 0
M  V30 1652 H 147.781 3.0522 2.16314 0
M  V30 1653 H 149.114 4.00433 2.86206 0
M  V30 1654 N 150.766 -0.704594 1.40972 0
M  V30 1655 C 152.013 -1.46458 1.39844 0
M  V30 1656 C 152.341 -1.94499 0.00447594 0
M  V30 1657 O 151.596 -1.69275 -0.982057 0
M  V30 1658 C 151.895 -2.698 2.34399 0
M  V30 1659 C 151.561 -2.40464 3.81429 0
M  V30 1660 C 150.223 -2.32174 4.21484 0
M  V30 1661 C 152.575 -2.16086 4.74296 0
M  V30 1662 C 149.903 -1.97589 5.52427 0
M  V30 1663 C 152.255 -1.83011 6.05549 0
M  V30 1664 C 150.919 -1.7321 6.44635 0
M  V30 1665 H 150.189 -0.535927 0.511725 0
M  V30 1666 H 152.836 -0.806124 1.73706 0
M  V30 1667 H 151.141 -3.40536 1.93759 0
M  V30 1668 H 152.838 -3.27919 2.30804 0
M  V30 1669 H 149.428 -2.47808 3.49699 0
M  V30 1670 H 153.612 -2.2144 4.4416 0
M  V30 1671 H 148.868 -1.88547 5.81601 0
M  V30 1672 H 153.042 -1.63164 6.77016 0
M  V30 1673 H 150.669 -1.46179 7.46013 0
M  V30 1674 N 152.244 -1.26651 -0.937939 0
M  V30 1675 C 153.191 -1.0849 -2.03712 0
M  V30 1676 C 154.161 0.011033 -1.66096 0
M  V30 1677 O 155.346 -0.149353 -1.90215 0
M  V30 1678 C 152.486 -0.72735 -3.37348 0
M  V30 1679 C 151.599 -1.89986 -3.87981 0
M  V30 1680 C 150.734 -1.48513 -5.10017 0
M  V30 1681 C 149.773 -2.62575 -5.5292 0
M  V30 1682 N 148.91 -2.21762 -6.66158 0
M  V30 1683 H 153.75 -2.02551 -2.18579 0
M  V30 1684 H 151.287 -1.00844 -1.07093 0
M  V30 1685 H 153.245 -0.50092 -4.14182 0
M  V30 1686 H 151.875 0.176298 -3.22318 0
M  V30 1687 H 150.927 -2.23913 -3.07518 0
M  V30 1688 H 152.239 -2.75586 -4.15757 0
M  V30 1689 H 151.393 -1.21934 -5.94321 0
M  V30 1690 H 150.132 -0.60009 -4.83994 0
M  V30 1691 H 149.137 -2.8988 -4.67172 0
M  V30 1692 H 150.362 -3.51685 -5.80943 0
M  V30 1693 H 148.308 -1.35696 -6.41812 0
M  V30 1694 H 148.225 -3.00903 -6.93537 0
M  V30 1695 H 149.493 -1.98403 -7.53828 0
M  V30 1696 N 153.722 1.14298 -1.08507 0
M  V30 1697 C 154.947 1.8976 -0.837001 0
M  V30 1698 C 155.372 1.78097 0.605228 0
M  V30 1699 O 154.73 1.12188 1.4242 0
M  V30 1700 C 154.778 3.37685 -1.26495 0
M  V30 1701 O 153.882 4.10281 -0.417514 0
M  V30 1702 H 153.223 0.590365 -0.303917 0
M  V30 1703 H 155.753 1.44672 -1.44676 0
M  V30 1704 H 155.763 3.88501 -1.24625 0
M  V30 1705 H 154.438 3.45492 -2.31534 0
M  V30 1706 H 153.015 3.69536 -0.499722 0
M  V30 1707 N 155.201 0.870884 1.31352 0
M  V30 1708 C 156.449 0.48132 1.96285 0
M  V30 1709 C 156.77 -0.969813 1.69173 0
M  V30 1710 O 156.04 -1.67998 1.00764 0
M  V30 1711 H 154.62 0.175002 0.726212 0
M  V30 1712 H 157.282 1.11087 1.60143 0
M  V30 1713 H 156.378 0.639825 3.05471 0
M  V30 1714 N 156.679 -1.44442 0.630414 0
M  V30 1715 C 157.627 -2.32437 -0.0871428 0
M  V30 1716 C 158.621 -1.47304 -0.836525 0
M  V30 1717 O 159.827 -1.63653 -0.749506 0
M  V30 1718 H 156.202 -0.750533 -0.0469495 0
M  V30 1719 H 158.173 -2.90709 0.673096 0
M  V30 1720 C 156.922 -3.31288 -1.05563 0
M  V30 1721 H 156.245 -3.96805 -0.488426 0
M  V30 1722 H 157.685 -3.9554 -1.52721 0
M  V30 1723 C 156.144 -2.6016 -2.14052 0
M  V30 1724 O 156.674 -2.39997 -3.22124 0
M  V30 1725 N 154.88 -2.19911 -1.89967 0
M  V30 1726 H 154.427 -2.36509 -1.02085 0
M  V30 1727 H 154.385 -1.72646 -2.62756 0
M  V30 1728 N 158.157 -0.370918 -1.53173 0
M  V30 1729 C 159.087 0.464847 -2.28826 0
M  V30 1730 C 160.068 1.07936 -1.31468 0
M  V30 1731 O 161.253 1.0956 -1.60344 0
M  V30 1732 C 158.383 1.60196 -3.08147 0
M  V30 1733 C 157.337 1.11443 -4.13237 0
M  V30 1734 C 156.663 2.3422 -4.80672 0
M  V30 1735 C 157.963 0.195384 -5.21934 0
M  V30 1736 H 159.657 -0.166329 -2.98938 0
M  V30 1737 H 157.203 -0.0814359 -1.4377 0
M  V30 1738 H 159.156 2.19332 -3.59822 0
M  V30 1739 H 157.88 2.26045 -2.35735 0
M  V30 1740 H 156.539 0.545727 -3.62515 0
M  V30 1741 H 156.187 2.98537 -4.04827 0
M  V30 1742 H 155.887 2.02269 -5.51689 0
M  V30 1743 H 157.411 2.94032 -5.35143 0
M  V30 1744 H 158.825 0.694375 -5.69079 0
M  V30 1745 H 157.222 -0.0335027 -6.00091 0
M  V30 1746 H 158.292 -0.760961 -4.78892 0
M  V30 1747 N 159.635 1.57281 -0.100228 0
M  V30 1748 C 160.86 1.99302 0.573881 0
M  V30 1749 C 161.285 0.979059 1.60611 0
M  V30 1750 O 160.643 -0.0517803 1.81226 0
M  V30 1751 C 160.691 3.40274 1.19358 0
M  V30 1752 O 159.795 3.41676 2.30935 0
M  V30 1753 H 159.136 0.647944 0.145138 0
M  V30 1754 H 161.666 2.03779 -0.183156 0
M  V30 1755 H 161.676 3.78078 1.53365 0
M  V30 1756 H 160.351 4.13594 0.437385 0
M  V30 1757 H 158.928 3.15672 1.98509 0
M  V30 1758 N 161.113 -0.173488 1.56642 0
M  V30 1759 C 162.076 -1.19859 1.95362 0
M  V30 1760 C 163.076 -1.37296 0.83704 0
M  V30 1761 O 164.266 -1.34739 1.10413 0
M  V30 1762 C 161.398 -2.56405 2.24654 0
M  V30 1763 H 162.591 -0.867062 2.87092 0
M  V30 1764 H 160.144 -0.415853 1.50666 0
M  V30 1765 H 160.879 -2.94576 1.35631 0
M  V30 1766 H 160.664 -2.45115 3.06041 0
M  V30 1767 H 162.154 -3.30287 2.5554 0
M  V30 1768 N 162.591 -1.51276 -0.441967 0
M  V30 1769 C 164.007 -1.39349 -0.778083 0
M  V30 1770 C 164.207 -0.472212 -1.95889 0
M  V30 1771 O 163.263 0.0743551 -2.5239 0
M  V30 1772 C 164.576 -2.81292 -1.0628 0
M  V30 1773 C 166.124 -2.9041 -1.16751 0
M  V30 1774 C 166.599 -4.33251 -1.48519 0
M  V30 1775 N 168.09 -4.36336 -1.55453 0
M  V30 1776 C 168.825 -5.43885 -1.81596 0
M  V30 1777 N 168.321 -6.61601 -2.05562 0
M  V30 1778 N 170.114 -5.3136 -1.8334 0
M  V30 1779 H 162.265 -2.09729 0.335774 0
M  V30 1780 H 164.528 -0.943925 0.0878028 0
M  V30 1781 H 164.234 -3.50678 -0.267905 0
M  V30 1782 H 164.108 -3.20334 -1.99163 0
M  V30 1783 H 166.495 -2.21225 -1.95304 0
M  V30 1784 H 166.576 -2.54871 -0.217801 0
M  V30 1785 H 166.22 -5.02984 -0.704958 0
M  V30 1786 H 166.15 -4.66299 -2.44689 0
M  V30 1787 H 168.641 -3.51466 -1.38853 0
M  V30 1788 H 168.954 -7.39361 -2.24867 0
M  V30 1789 H 167.299 -6.64725 -2.02894 0
M  V30 1790 H 170.49 -4.38382 -1.64132 0
M  V30 1791 H 170.663 -6.15258 -2.03377 0
M  V30 1792 N 164.069 0.697108 -1.41344 0
M  V30 1793 C 165.315 1.4593 -1.40827 0
M  V30 1794 C 165.648 1.94193 -0.0167098 0
M  V30 1795 O 164.923 1.69425 0.955263 0
M  V30 1796 C 165.206 2.67229 -2.41373 0
M  V30 1797 C 165.059 2.24741 -3.8963 0
M  V30 1798 C 166.378 3.69423 -2.39196 0
M  V30 1799 H 163.497 0.529303 -0.512842 0
M  V30 1800 H 166.139 0.794112 -1.72609 0
M  V30 1801 H 164.289 3.23982 -2.14401 0
M  V30 1802 H 165.961 1.73327 -4.27499 0
M  V30 1803 H 164.204 1.56542 -4.0457 0
M  V30 1804 H 164.875 3.1177 -4.55525 0
M  V30 1805 H 167.351 3.2234 -2.63128 0
M  V30 1806 H 166.227 4.51907 -3.11563 0
M  V30 1807 H 166.488 4.19012 -1.41001 0
M  V30 1808 N 165.547 1.27147 0.931209 0
M  V30 1809 C 166.772 1.16191 1.71797 0
M  V30 1810 C 167.197 -0.278004 1.86034 0
M  V30 1811 O 166.555 -1.20137 1.35782 0
M  V30 1812 C 166.603 1.84673 3.09723 0
M  V30 1813 O 165.707 1.14231 3.96264 0
M  V30 1814 H 165.048 0.404303 0.526721 0
M  V30 1815 H 167.578 1.68152 1.1656 0
M  V30 1816 H 167.588 1.91893 3.60057 0
M  V30 1817 H 166.263 2.89421 2.98677 0
M  V30 1818 H 164.84 1.15056 3.54706 0
M  V30 1819 N 167.025 -1.13721 1.09112 0
M  V30 1820 C 167.972 -2.19031 0.727591 0
M  V30 1821 C 168.942 -1.63555 -0.289656 0
M  V30 1822 O 170.127 -1.90023 -0.172026 0
M  V30 1823 C 167.267 -3.4477 0.15082 0
M  V30 1824 C 166.38 -4.14365 1.22172 0
M  V30 1825 C 165.515 -5.27709 0.608042 0
M  V30 1826 C 164.554 -5.89147 1.66047 0
M  V30 1827 N 163.691 -6.93929 1.06806 0
M  V30 1828 H 168.531 -2.49475 1.62991 0
M  V30 1829 H 166.068 -1.22499 0.81439 0
M  V30 1830 H 168.026 -4.16714 -0.201358 0
M  V30 1831 H 166.656 -3.14787 -0.714783 0
M  V30 1832 H 165.708 -3.40737 1.69122 0
M  V30 1833 H 167.02 -4.56114 2.01895 0
M  V30 1834 H 166.174 -6.06355 0.204523 0
M  V30 1835 H 164.913 -4.872 -0.220769 0
M  V30 1836 H 163.918 -5.09198 2.07357 0
M  V30 1837 H 165.143 -6.31729 2.49189 0
M  V30 1838 H 163.089 -6.55483 0.260476 0
M  V30 1839 H 163.006 -7.34202 1.8023 0
M  V30 1840 H 164.274 -7.76434 0.690644 0
M  V30 1841 N 168.503 -0.877838 -1.30888 0
M  V30 1842 C 169.751 -0.491723 -1.96027 0
M  V30 1843 C 170.072 0.960827 -1.69685 0
M  V30 1844 O 169.342 1.67462 -1.01654 0
M  V30 1845 H 167.922 -0.17885 -0.725273 0
M  V30 1846 H 170.584 -1.11935 -1.59551 0
M  V30 1847 H 169.68 -0.656016 -3.05128 0
M  V30 1848 N 169.982 1.44106 -0.638065 0
M  V30 1849 C 170.892 2.34513 0.0637334 0
M  V30 1850 C 171.908 1.53018 0.828346 0
M  V30 1851 O 173.084 1.85723 0.779036 0
M  V30 1852 C 170.149 3.31095 1.02844 0
M  V30 1853 C 169.21 4.28497 0.26244 0
M  V30 1854 C 168.443 5.20465 1.1812 0
M  V30 1855 O 168.666 5.16514 2.42011 0
M  V30 1856 O 167.6 5.98251 0.661774 0
M  V30 1857 H 171.426 2.95989 -0.68003 0
M  V30 1858 H 169.011 1.43994 -0.398252 0
M  V30 1859 H 170.893 3.90526 1.58327 0
M  V30 1860 H 169.568 2.72144 1.7527 0
M  V30 1861 H 168.475 3.72592 -0.335602 0
M  V30 1862 H 169.808 4.90388 -0.421936 0
M  V30 1863 N 171.46 0.379036 1.52974 0
M  V30 1864 C 172.707 -0.206421 2.01445 0
M  V30 1865 C 173.035 -1.47668 1.26587 0
M  V30 1866 O 172.29 -1.92514 0.351675 0
M  V30 1867 C 172.589 -0.53096 3.53434 0
M  V30 1868 C 172.255 0.646546 4.46241 0
M  V30 1869 C 170.917 0.969604 4.7133 0
M  V30 1870 C 173.269 1.43479 5.01062 0
M  V30 1871 C 170.597 2.08263 5.48492 0
M  V30 1872 C 172.949 2.53834 5.7944 0
M  V30 1873 C 171.613 2.86659 6.02812 0
M  V30 1874 H 170.883 -0.0755349 0.73714 0
M  V30 1875 H 173.53 0.514271 1.84465 0
M  V30 1876 H 171.835 -1.33285 3.68432 0
M  V30 1877 H 173.532 -0.996417 3.88423 0
M  V30 1878 H 170.122 0.384734 4.2687 0
M  V30 1879 H 174.306 1.19844 4.81613 0
M  V30 1880 H 169.562 2.34078 5.64816 0
M  V30 1881 H 173.736 3.15319 6.20924 0
M  V30 1882 H 171.363 3.73026 6.62387 0
M  V30 1883 N 172.938 -1.57226 0.108567 0
M  V30 1884 C 174.184 -1.95919 -0.546564 0
M  V30 1885 C 174.539 -0.990417 -1.6495 0
M  V30 1886 O 173.832 -0.0186593 -1.91591 0
M  V30 1887 C 174.026 -3.38911 -1.13463 0
M  V30 1888 C 173.855 -4.4961 -0.0901926 0
M  V30 1889 C 172.625 -5.04168 0.338008 0
M  V30 1890 C 174.823 -5.09693 0.686808 0
M  V30 1891 N 172.805 -5.98434 1.36931 0
M  V30 1892 C 174.176 -5.99804 1.56958 0
M  V30 1893 C 176.231 -4.92388 0.738846 0
M  V30 1894 C 174.934 -6.74463 2.49983 0
M  V30 1895 C 176.96 -5.67719 1.65676 0
M  V30 1896 C 176.322 -6.57507 2.52713 0
M  V30 1897 H 172.421 -0.763312 -0.169936 0
M  V30 1898 H 175.005 -1.93728 0.194264 0
M  V30 1899 H 173.176 -3.41769 -1.84522 0
M  V30 1900 H 174.908 -3.64752 -1.75322 0
M  V30 1901 H 171.663 -4.73571 -0.0523673 0
M  V30 1902 H 172.087 -6.5027 1.88356 0
M  V30 1903 H 176.729 -4.22724 0.080084 0
M  V30 1904 H 174.447 -7.4338 3.16878 0
M  V30 1905 H 178.033 -5.56338 1.70233 0
M  V30 1906 H 176.913 -7.14778 3.22586 0
M  V30 1907 N 174.416 0.165178 -1.56732 0
M  V30 1908 C 175.641 0.900253 -1.86843 0
M  V30 1909 C 176.066 1.74766 -0.695596 0
M  V30 1910 O 175.424 1.77786 0.35522 0
M  V30 1911 C 175.472 1.74777 -3.15413 0
M  V30 1912 O 174.576 2.85007 -2.98068 0
M  V30 1913 H 173.917 0.251832 -0.614391 0
M  V30 1914 H 176.447 0.161468 -2.03962 0
M  V30 1915 H 176.457 2.14646 -3.46974 0
M  V30 1916 H 175.132 1.12537 -4.00385 0
M  V30 1917 H 173.709 2.48676 -2.77875 0
M  V30 1918 N 175.894 1.51508 0.433938 0
M  V30 1919 C 176.824 1.76016 1.53429 0
M  V30 1920 C 177.805 0.610112 1.58782 0
M  V30 1921 O 178.99 0.853177 1.74455 0
M  V30 1922 C 176.12 1.88831 2.9148 0
M  V30 1923 C 175.074 3.04288 3.00987 0
M  V30 1924 C 174.4 3.0229 4.4105 0
M  V30 1925 C 175.7 4.44193 2.74754 0
M  V30 1926 H 177.394 2.68152 1.33171 0
M  V30 1927 H 174.94 1.29035 0.639214 0
M  V30 1928 H 176.893 2.04559 3.6842 0
M  V30 1929 H 175.617 0.933455 3.12976 0
M  V30 1930 H 174.276 2.8827 2.26486 0
M  V30 1931 H 173.924 2.04576 4.59519 0
M  V30 1932 H 173.624 3.79822 4.4834 0
M  V30 1933 H 175.148 3.20116 5.1996 0
M  V30 1934 H 176.562 4.60544 3.41426 0
M  V30 1935 H 174.959 5.23457 2.9345 0
M  V30 1936 H 176.029 4.53996 1.70339 0
M  V30 1937 N 177.372 -0.689602 1.41712 0
M  V30 1938 C 178.649 -1.44457 1.31877 0
M  V30 1939 C 179.029 -2.11039 -0.0508537 0
M  V30 1940 O 178.377 -2.02138 -1.06547 0
M  V30 1941 C 178.587 -2.45913 2.47645 0
M  V30 1942 C 179.935 -3.10991 2.89084 0
M  V30 1943 O 180.959 -2.56238 2.47428 0
M  V30 1944 O 179.818 -4.10174 3.61137 0
M  V30 1945 H 176.912 -0.64362 0.519309 0
M  V30 1946 H 179.458 -0.719576 1.53689 0
M  V30 1947 H 178.23 -1.95409 3.39015 0
M  V30 1948 H 177.853 -3.25913 2.27742 0
M  V30 1949 N 178.85 -1.27639 -0.924453 0
M  V30 1950 C 180.097 -1.14167 -1.67249 0
M  V30 1951 C 180.425 0.311863 -1.91984 0
M  V30 1952 O 179.68 1.24425 -1.51053 0
M  V30 1953 C 179.979 -1.87407 -3.04325 0
M  V30 1954 C 179.645 -3.37249 -2.99289 0
M  V30 1955 C 178.307 -3.7812 -2.97622 0
M  V30 1956 C 180.659 -4.32845 -2.90336 0
M  V30 1957 C 177.987 -5.12944 -2.8479 0
M  V30 1958 C 180.339 -5.6773 -2.79045 0
M  V30 1959 C 179.003 -6.07889 -2.7573 0
M  V30 1960 H 178.273 -0.417766 -0.612007 0
M  V30 1961 H 180.92 -1.58286 -1.07786 0
M  V30 1962 H 179.225 -1.35805 -3.67511 0
M  V30 1963 H 180.922 -1.74408 -3.61086 0
M  V30 1964 H 177.512 -3.04748 -3.01374 0
M  V30 1965 H 181.696 -4.02239 -2.90719 0
M  V30 1966 H 176.952 -5.432 -2.80612 0
M  V30 1967 H 181.126 -6.41472 -2.71083 0
M  V30 1968 H 178.753 -7.12314 -2.65544 0
M  V30 1969 N 180.328 1.1314 -1.09713 0
M  V30 1970 C 181.258 2.20748 -0.761102 0
M  V30 1971 C 182.239 1.68061 0.262566 0
M  V30 1972 O 183.424 1.93765 0.129977 0
M  V30 1973 C 180.554 3.46812 -0.184054 0
M  V30 1974 C 179.508 4.12606 -1.13757 0
M  V30 1975 C 178.834 5.33031 -0.422083 0
M  V30 1976 C 180.134 4.59603 -2.48118 0
M  V30 1977 H 181.828 2.49113 -1.66082 0
M  V30 1978 H 179.374 1.19734 -0.799987 0
M  V30 1979 H 181.327 4.21353 0.0631215 0
M  V30 1980 H 180.051 3.17851 0.750868 0
M  V30 1981 H 178.71 3.40036 -1.37007 0
M  V30 1982 H 178.358 5.00335 0.517072 0
M  V30 1983 H 178.058 5.77999 -1.05788 0
M  V30 1984 H 179.582 6.10325 -0.183277 0
M  V30 1985 H 180.996 5.25552 -2.29059 0
M  V30 1986 H 179.393 5.15321 -3.07514 0
M  V30 1987 H 180.463 3.73971 -3.08665 0
M  V30 1988 N 181.806 0.884767 1.30421 0
M  V30 1989 C 183.222 0.57874 1.48737 0
M  V30 1990 C 183.422 -0.883567 1.81095 0
M  V30 1991 O 182.478 -1.6648 1.89844 0
M  V30 1992 C 183.791 1.49171 2.61091 0
M  V30 1993 C 185.339 1.49532 2.74971 0
M  V30 1994 C 185.814 2.39421 3.90438 0
M  V30 1995 N 187.305 2.37383 3.97748 0
M  V30 1996 C 188.04 3.03647 4.86401 0
M  V30 1997 N 187.536 3.79136 5.79852 0
M  V30 1998 N 189.329 2.9288 4.79768 0
M  V30 1999 H 181.48 1.83075 1.0769 0
M  V30 2000 H 183.743 0.783637 0.533495 0
M  V30 2001 H 183.449 2.53291 2.44001 0
M  V30 2002 H 183.323 1.20113 3.57565 0
M  V30 2003 H 185.71 0.46163 2.91467 0
M  V30 2004 H 185.791 1.8262 1.79119 0
M  V30 2005 H 185.435 3.42874 3.74699 0
M  V30 2006 H 185.365 2.03649 4.85628 0
M  V30 2007 H 187.856 1.82525 3.30897 0
M  V30 2008 H 188.169 4.26789 6.4426 0
M  V30 2009 H 186.514 3.83243 5.79784 0
M  V30 2010 H 189.705 2.33433 4.05742 0
M  V30 2011 H 189.878 3.448 5.4865 0
M  V30 2012 N 183.284 -1.43765 0.645699 0
M  V30 2013 C 184.232 -2.32516 -0.0624849 0
M  V30 2014 C 185.226 -1.48183 -0.820855 0
M  V30 2015 O 186.432 -1.64439 -0.732106 0
M  V30 2016 H 182.807 -0.750989 -0.0389864 0
M  V30 2017 H 184.778 -2.89979 0.703892 0
M  V30 2018 C 183.527 -3.32389 -1.02044 0
M  V30 2019 H 182.85 -3.97301 -0.446312 0
M  V30 2020 H 184.29 -3.97138 -1.48517 0
M  V30 2021 C 182.749 -2.62416 -2.11281 0
M  V30 2022 O 183.279 -2.434 -3.19561 0
M  V30 2023 N 181.485 -2.21913 -1.87624 0
M  V30 2024 H 181.032 -2.37578 -0.995703 0
M  V30 2025 H 180.99 -1.75424 -2.6091 0
M  V30 2026 N 184.763 -0.387143 -1.52771 0
M  V30 2027 C 186.011 0.195349 -2.01154 0
M  V30 2028 C 186.332 1.475 -1.27549 0
M  V30 2029 O 185.602 1.91878 -0.394924 0
M  V30 2030 H 184.182 0.075178 -0.743207 0
M  V30 2031 H 186.844 -0.518337 -1.87881 0
M  V30 2032 H 185.94 0.407096 -3.09434 0
M  V30 2033 N 186.241 1.57166 -0.116904 0
M  V30 2034 C 187.151 2.18745 0.847812 0
M  V30 2035 C 188.167 1.163 1.29423 0
M  V30 2036 O 189.343 1.48761 1.35765 0
M  V30 2037 C 186.408 2.77307 2.0809 0
M  V30 2038 C 185.469 3.94781 1.68661 0
M  V30 2039 C 184.702 4.50541 2.86091 0
M  V30 2040 O 184.925 4.05202 4.01456 0
M  V30 2041 O 183.859 5.41256 2.63298 0
M  V30 2042 H 187.685 3.01632 0.353778 0
M  V30 2043 H 185.27 1.49005 0.108599 0
M  V30 2044 H 187.152 3.14647 2.80313 0
M  V30 2045 H 185.827 1.97452 2.56504 0
M  V30 2046 H 184.734 3.62214 0.935518 0
M  V30 2047 H 186.067 4.76065 1.24991 0
M  V30 2048 N 187.719 -0.156864 1.56817 0
M  V30 2049 C 189.135 -0.50916 1.5126 0
M  V30 2050 C 189.335 -1.83897 0.823658 0
M  V30 2051 O 188.391 -2.49469 0.390055 0
M  V30 2052 C 189.704 -0.52857 2.96018 0
M  V30 2053 C 191.252 -0.614771 3.06903 0
M  V30 2054 C 191.727 -0.664938 4.53147 0
M  V30 2055 N 193.218 -0.727433 4.57452 0
M  V30 2056 C 193.953 -0.787067 5.67973 0
M  V30 2057 N 193.449 -0.806649 6.88088 0
M  V30 2058 N 195.242 -0.827195 5.5598 0
M  V30 2059 H 187.393 0.714935 2.00006 0
M  V30 2060 H 189.656 0.259526 0.911784 0
M  V30 2061 H 189.362 0.380154 3.49639 0
M  V30 2062 H 189.236 -1.36998 3.51442 0
M  V30 2063 H 191.623 -1.51392 2.53307 0
M  V30 2064 H 191.704 0.253597 2.5454 0
M  V30 2065 H 191.348 0.230011 5.07379 0
M  V30 2066 H 191.278 -1.54966 5.03282 0
M  V30 2067 H 193.769 -0.719998 3.70978 0
M  V30 2068 H 194.082 -0.853727 7.6807 0
M  V30 2069 H 192.427 -0.774687 6.90669 0
M  V30 2070 H 195.618 -0.808998 4.61056 0
M  V30 2071 H 195.791 -0.870206 6.4213 0
M  V30 2072 N 189.197 -1.51736 -0.425897 0
M  V30 2073 C 190.446 -1.64201 -1.17136 0
M  V30 2074 C 190.759 -0.369705 -1.92074 0
M  V30 2075 O 191.965 -0.373898 -2.68913 0
M  V30 2076 C 190.421 -2.90035 -2.13091 0
M  V30 2077 C 190.029 -4.24312 -1.43747 0
M  V30 2078 C 191.773 -3.1186 -2.87999 0
M  V30 2079 C 189.68 -5.41285 -2.38253 0
M  V30 2080 H 188.61 -0.611624 -0.440944 0
M  V30 2081 H 191.261 -1.78212 -0.437328 0
M  V30 2082 H 189.643 -2.69684 -2.89977 0
M  V30 2083 H 190.817 -4.55086 -0.723408 0
M  V30 2084 H 189.132 -4.08456 -0.809465 0
M  V30 2085 H 191.729 -3.96427 -3.58817 0
M  V30 2086 H 192.072 -2.25403 -3.49999 0
M  V30 2087 H 192.605 -3.32605 -2.18217 0
M  V30 2088 H 189.344 -6.30037 -1.80925 0
M  V30 2089 H 188.864 -5.14872 -3.0768 0
M  V30 2090 H 190.543 -5.73694 -2.99139 0
M  V30 2091 N 190.675 0.682077 -1.42076 0
M  V30 2092 C 191.903 1.47057 -1.4554 0
M  V30 2093 C 192.318 1.8869 -0.0645779 0
M  V30 2094 O 191.675 1.57666 0.919115 0
M  V30 2095 C 191.726 2.72442 -2.37609 0
M  V30 2096 O 191.447 2.32559 -3.71279 0
M  V30 2097 C 192.948 3.66069 -2.50017 0
M  V30 2098 H 190.168 0.452737 -0.495248 0
M  V30 2099 H 192.712 0.838695 -1.8651 0
M  V30 2100 H 190.867 3.31835 -1.9991 0
M  V30 2101 H 191.281 3.13475 -4.20516 0
M  V30 2102 H 192.755 4.50792 -3.18576 0
M  V30 2103 H 193.232 4.11476 -1.53572 0
M  V30 2104 H 193.838 3.12572 -2.88407 0
M  V30 2105 N 192.153 1.28127 0.917671 0
M  V30 2106 C 193.401 1.14825 1.66312 0
M  V30 2107 C 193.722 -0.304379 1.9261 0
M  V30 2108 O 192.992 -1.21149 1.53947 0
M  V30 2109 H 191.572 0.421953 0.616413 0
M  V30 2110 H 194.234 1.608 1.10134 0
M  V30 2111 H 193.33 1.68489 2.62712 0
M  V30 2112 N 193.631 -1.12557 1.10312 0
M  V30 2113 C 194.856 -1.88405 0.867085 0
M  V30 2114 C 195.281 -1.79038 -0.576817 0
M  V30 2115 O 194.639 -1.14439 -1.40618 0
M  V30 2116 C 194.687 -3.3563 1.31851 0
M  V30 2117 O 193.791 -4.09565 0.482734 0
M  V30 2118 H 193.132 -0.585455 0.313271 0
M  V30 2119 H 195.662 -1.42352 1.4696 0
M  V30 2120 H 195.672 -3.86469 1.3079 0
M  V30 2121 H 194.347 -3.41765 2.37001 0
M  V30 2122 H 192.924 -3.68695 0.558448 0
M  V30 2123 N 195.109 -0.891671 -1.2995 0
M  V30 2124 C 196.041 -0.320695 -2.26945 0
M  V30 2125 C 197.054 0.528497 -1.53983 0
M  V30 2126 O 198.243 0.346959 -1.75096 0
M  V30 2127 C 195.343 0.562066 -3.34207 0
M  V30 2128 C 194.516 -0.259576 -4.36629 0
M  V30 2129 C 193.575 0.554739 -5.23268 0
M  V30 2130 O 192.601 -0.0249311 -5.69195 0
M  V30 2131 N 193.803 1.8625 -5.4981 0
M  V30 2132 H 196.568 -1.15432 -2.76578 0
M  V30 2133 H 194.129 -0.755336 -1.432 0
M  V30 2134 H 196.121 1.11304 -3.89093 0
M  V30 2135 H 194.691 1.29637 -2.84452 0
M  V30 2136 H 193.911 -0.991986 -3.81514 0
M  V30 2137 H 195.199 -0.822564 -5.02107 0
M  V30 2138 H 194.597 2.35628 -5.14292 0
M  V30 2139 H 193.154 2.36078 -6.07545 0
M  V30 2140 N 196.587 1.43421 -0.653314 0
M  V30 2141 C 197.833 2.02111 -0.166992 0
M  V30 2142 C 198.166 1.51423 1.21592 0
M  V30 2143 O 197.441 0.707389 1.8118 0
M  V30 2144 C 197.724 3.5966 -0.177948 0
M  V30 2145 C 197.577 4.20579 -1.59478 0
M  V30 2146 C 198.896 4.37413 0.4856 0
M  V30 2147 H 196.015 0.734374 -0.0621557 0
M  V30 2148 H 198.657 1.70717 -0.834016 0
M  V30 2149 H 196.807 3.86537 0.390032 0
M  V30 2150 H 198.479 4.04732 -2.21336 0
M  V30 2151 H 196.722 3.77226 -2.14204 0
M  V30 2152 H 197.393 5.29665 -1.5543 0
M  V30 2153 H 199.869 4.161 0.00234528 0
M  V30 2154 H 198.745 5.47075 0.447207 0
M  V30 2155 H 199.006 4.13672 1.55974 0
M  V30 2156 N 198.065 0.39524 1.52563 0
M  V30 2157 C 199.012 -0.437036 2.26624 0
M  V30 2158 C 199.982 -1.05281 1.28472 0
M  V30 2159 O 201.167 -1.07971 1.57311 0
M  V30 2160 C 198.307 -1.55524 3.08069 0
M  V30 2161 C 197.42 -0.961745 4.21158 0
M  V30 2162 C 196.555 -2.05149 4.89987 0
M  V30 2163 C 195.594 -1.4342 5.95061 0
M  V30 2164 N 194.731 -2.46351 6.57462 0
M  V30 2165 H 199.571 0.200976 2.97322 0
M  V30 2166 H 197.108 0.110944 1.46681 0
M  V30 2167 H 199.066 -2.21437 3.53584 0
M  V30 2168 H 197.696 -2.16348 2.3957 0
M  V30 2169 H 196.748 -0.192048 3.79915 0
M  V30 2170 H 198.06 -0.470701 4.96574 0
M  V30 2171 H 197.214 -2.78819 5.38837 0
M  V30 2172 H 195.953 -2.57615 4.14109 0
M  V30 2173 H 194.958 -0.682774 5.45544 0
M  V30 2174 H 196.183 -0.917416 6.72875 0
M  V30 2175 H 194.129 -2.97975 5.8442 0
M  V30 2176 H 194.046 -2.02019 7.28508 0
M  V30 2177 H 195.314 -3.19633 7.10954 0
M  V30 2178 N 199.544 -1.57102 0.125237 0
M  V30 2179 C 200.492 -2.16905 -0.839927 0
M  V30 2180 C 201.486 -1.11998 -1.27094 0
M  V30 2181 O 202.692 -1.3029 -1.24195 0
M  V30 2182 H 199.067 -0.694252 -0.288995 0
M  V30 2183 H 201.038 -2.96774 -0.311115 0
M  V30 2184 C 199.787 -2.78795 -2.07771 0
M  V30 2185 H 199.11 -3.59221 -1.755 0
M  V30 2186 H 200.55 -3.2417 -2.73295 0
M  V30 2187 C 199.009 -1.76193 -2.87155 0
M  V30 2188 O 199.539 -1.21909 -3.82755 0
M  V30 2189 N 197.745 -1.45991 -2.51267 0
M  V30 2190 H 197.292 -1.90325 -1.73592 0
M  V30 2191 H 197.25 -0.775844 -3.04677 0
M  V30 2192 N 201.022 0.148545 -1.56898 0
M  V30 2193 C 201.97 1.20265 -1.99096 0
M  V30 2194 C 202.964 1.44559 -0.883123 0
M  V30 2195 O 204.17 1.4487 -1.0683 0
M  V30 2196 H 200.545 0.404786 -0.63376 0
M  V30 2197 H 202.516 0.82004 -2.86911 0
M  V30 2198 C 201.265 2.52886 -2.3863 0
M  V30 2199 H 200.588 2.35021 -3.23427 0
M  V30 2200 H 202.028 3.25274 -2.7198 0
M  V30 2201 C 200.487 3.13315 -1.23837 0
M  V30 2202 O 201.017 3.98077 -0.538268 0
M  V30 2203 N 199.223 2.72742 -1.00301 0
M  V30 2204 H 198.77 2.03912 -1.5741 0
M  V30 2205 H 198.728 3.13507 -0.236838 0
M  V30 2206 N 202.5 1.5196 0.417844 0
M  V30 2207 C 203.748 1.65263 1.16329 0
M  V30 2208 C 204.069 0.380634 1.91249 0
M  V30 2209 O 203.339 -0.604214 1.86349 0
M  V30 2210 H 201.919 0.60912 0.432414 0
M  V30 2211 H 204.581 1.88969 0.477162 0
M  V30 2212 H 203.677 2.4896 1.88217 0
M  V30 2213 N 203.978 -0.674533 1.42435 0
M  V30 2214 C 205.208 -1.46071 1.46105 0
M  V30 2215 C 205.616 -1.89067 0.0709605 0
M  V30 2216 O 204.959 -1.58731 -0.924677 0
M  V30 2217 C 205.021 -2.74145 2.32561 0
M  V30 2218 C 204.685 -2.53224 3.8043 0
M  V30 2219 C 205.682 -2.17809 4.72075 0
M  V30 2220 C 203.367 -2.6821 4.24698 0
M  V30 2221 C 205.361 -1.97648 6.05982 0
M  V30 2222 C 203.048 -2.47665 5.58664 0
M  V30 2223 C 204.046 -2.12437 6.49122 0
M  V30 2224 O 203.734 -1.9209 7.80613 0
M  V30 2225 H 203.466 -0.455959 0.499076 0
M  V30 2226 H 206.02 -0.836193 1.87609 0
M  V30 2227 H 204.25 -3.3908 1.85908 0
M  V30 2228 H 205.939 -3.36028 2.27683 0
M  V30 2229 H 206.705 -2.05826 4.39159 0
M  V30 2230 H 202.584 -2.94609 3.54579 0
M  V30 2231 H 206.128 -1.70075 6.7655 0
M  V30 2232 H 202.025 -2.59244 5.91154 0
M  V30 2233 H 202.793 -2.06686 7.91974 0
M  V30 2234 N 205.456 -1.28612 -0.910864 0
M  V30 2235 C 206.702 -1.16106 -1.66274 0
M  V30 2236 C 207.035 0.289113 -1.92036 0
M  V30 2237 O 206.31 1.21 -1.52281 0
M  V30 2238 C 206.593 -1.96309 -3.01885 0
M  V30 2239 C 206.446 -3.49405 -2.8326 0
M  V30 2240 C 207.765 -1.78076 -4.02463 0
M  V30 2241 H 204.884 -0.423152 -0.603417 0
M  V30 2242 H 207.526 -1.57961 -1.05586 0
M  V30 2243 H 205.676 -1.60742 -3.53687 0
M  V30 2244 H 207.348 -3.94894 -2.38446 0
M  V30 2245 H 205.591 -3.74893 -2.18261 0
M  V30 2246 H 206.262 -4.00784 -3.79574 0
M  V30 2247 H 208.738 -2.0912 -3.59733 0
M  V30 2248 H 207.614 -2.36561 -4.95308 0
M  V30 2249 H 207.875 -0.733008 -4.35981 0
M  V30 2250 N 206.934 1.1197 -1.10907 0
M  V30 2251 C 207.866 2.17592 -0.720175 0
M  V30 2252 C 208.879 1.60938 0.245495 0
M  V30 2253 O 210.068 1.78476 0.0292245 0
M  V30 2254 C 207.168 3.38873 -0.0427917 0
M  V30 2255 C 206.341 4.25006 -1.03388 0
M  V30 2256 C 205.4 5.24774 -0.387075 0
M  V30 2257 O 204.426 5.59631 -1.03934 0
M  V30 2258 N 205.628 5.74208 0.852407 0
M  V30 2259 H 208.393 2.51567 -1.62893 0
M  V30 2260 H 205.954 1.27439 -0.998543 0
M  V30 2261 H 207.946 4.02703 0.401501 0
M  V30 2262 H 206.516 3.03007 0.768456 0
M  V30 2263 H 205.736 3.57716 -1.65629 0
M  V30 2264 H 207.024 4.79397 -1.70458 0
M  V30 2265 H 206.422 5.48062 1.40161 0
M  V30 2266 H 204.979 6.39901 1.23977 0
M  V30 2267 N 208.412 0.89855 1.29475 0
M  V30 2268 C 209.689 0.443416 1.90508 0
M  V30 2269 C 210.069 -1.07685 1.81569 0
M  V30 2270 O 209.417 -1.9182 1.24166 0
M  V30 2271 C 209.627 0.956708 3.35631 0
M  V30 2272 C 210.975 0.999728 4.12663 0
M  V30 2273 O 211.999 0.904299 3.4453 0
M  V30 2274 O 210.858 1.14289 5.34416 0
M  V30 2275 H 207.952 0.138025 0.815401 0
M  V30 2276 H 210.498 0.98834 1.37949 0
M  V30 2277 H 209.27 2.00067 3.36287 0
M  V30 2278 H 208.893 0.391728 3.95666 0
M  V30 2279 N 209.89 -1.43072 0.660911 0
M  V30 2280 C 211.118 -2.06067 0.185422 0
M  V30 2281 C 211.533 -1.49582 -1.15198 0
M  V30 2282 O 210.89 -0.630134 -1.71276 0
M  V30 2283 C 210.941 -3.61371 0.0966523 0
M  V30 2284 O 210.662 -4.15758 1.38119 0
M  V30 2285 C 212.163 -4.41455 -0.403996 0
M  V30 2286 H 209.383 -0.664459 0.0934604 0
M  V30 2287 H 211.927 -1.83447 0.90373 0
M  V30 2288 H 210.082 -3.8315 -0.572259 0
M  V30 2289 H 210.496 -5.09499 1.24542 0
M  V30 2290 H 211.97 -5.50437 -0.415045 0
M  V30 2291 H 212.447 -4.15036 -1.43674 0
M  V30 2292 H 213.053 -4.24663 0.232691 0
M  V30 2293 N 211.368 -0.403325 -1.52352 0
M  V30 2294 C 212.316 0.439752 -2.28405 0
M  V30 2295 C 213.31 1.05089 -1.32863 0
M  V30 2296 O 214.516 0.989759 -1.50345 0
M  V30 2297 H 210.891 0.160587 -0.734653 0
M  V30 2298 H 212.862 -0.222983 -2.97566 0
M  V30 2299 C 211.611 1.54736 -3.11371 0
M  V30 2300 H 210.934 1.08643 -3.84755 0
M  V30 2301 H 212.374 2.1112 -3.67701 0
M  V30 2302 C 210.833 2.51141 -2.24566 0
M  V30 2303 O 211.363 3.54887 -1.88196 0
M  V30 2304 N 209.569 2.21213 -1.8845 0
M  V30 2305 H 209.116 1.36878 -2.18225 0
M  V30 2306 H 209.074 2.85963 -1.30662 0
M  V30 2307 N 212.846 1.57033 -0.133567 0
M  V30 2308 C 213.794 2.17348 0.828412 0
M  V30 2309 C 214.788 1.12671 1.26498 0
M  V30 2310 O 215.994 1.30947 1.23502 0
M  V30 2311 H 212.369 0.695775 0.285309 0
M  V30 2312 H 214.34 2.96935 0.295372 0
M  V30 2313 C 213.089 2.79893 2.06289 0
M  V30 2314 H 212.412 3.60147 1.73592 0
M  V30 2315 H 213.852 3.25615 2.71572 0
M  V30 2316 C 212.311 1.77713 2.86216 0
M  V30 2317 O 212.841 1.23937 3.82103 0
M  V30 2318 N 211.047 1.47321 2.50489 0
M  V30 2319 H 210.594 1.91243 1.7258 0
M  V30 2320 H 210.552 0.79199 3.04261 0
M  V30 2321 N 214.325 -0.140222 1.56975 0
M  V30 2322 C 215.257 -1.19818 1.95388 0
M  V30 2323 C 216.27 -1.38816 0.850525 0
M  V30 2324 O 217.459 -1.38267 1.12891 0
M  V30 2325 C 214.559 -2.56189 2.21857 0
M  V30 2326 C 213.732 -2.58077 3.5315 0
M  V30 2327 C 212.791 -3.76037 3.6808 0
M  V30 2328 O 211.817 -3.60598 4.40406 0
M  V30 2329 N 213.019 -4.93763 3.05251 0
M  V30 2330 H 215.784 -0.871609 2.86746 0
M  V30 2331 H 213.345 -0.32972 1.58507 0
M  V30 2332 H 215.337 -3.33623 2.2908 0
M  V30 2333 H 213.907 -2.81111 1.36731 0
M  V30 2334 H 213.127 -1.6651 3.57307 0
M  V30 2335 H 214.415 -2.56377 4.39486 0
M  V30 2336 H 213.813 -5.09209 2.46419 0
M  V30 2337 H 212.37 -5.68949 3.18026 0
M  V30 2338 N 215.803 -1.52179 -0.40978 0
M  V30 2339 C 217.219 -1.40968 -0.74835 0
M  V30 2340 C 217.419 -0.513657 -1.94843 0
M  V30 2341 O 216.475 0.0208026 -2.52491 0
M  V30 2342 C 217.788 -2.83483 -1.0029 0
M  V30 2343 C 219.336 -2.92821 -1.10565 0
M  V30 2344 C 219.811 -4.36303 -1.39296 0
M  V30 2345 N 221.302 -4.39535 -1.46162 0
M  V30 2346 C 222.037 -5.47614 -1.70018 0
M  V30 2347 N 221.533 -6.65812 -1.91483 0
M  V30 2348 N 223.326 -5.35129 -1.72027 0
M  V30 2349 H 215.477 -2.0897 0.380186 0
M  V30 2350 H 217.74 -0.94185 0.107805 0
M  V30 2351 H 217.446 -3.51168 -0.193461 0
M  V30 2352 H 217.32 -3.24487 -1.92323 0
M  V30 2353 H 219.707 -2.25318 -1.90568 0
M  V30 2354 H 219.788 -2.55276 -0.16369 0
M  V30 2355 H 219.432 -5.04366 -0.598109 0
M  V30 2356 H 219.362 -4.71385 -2.34743 0
M  V30 2357 H 221.853 -3.54332 -1.31367 0
M  V30 2358 H 222.166 -7.43964 -2.09134 0
M  V30 2359 H 220.511 -6.68879 -1.88749 0
M  V30 2360 H 223.702 -4.41764 -1.54796 0
M  V30 2361 H 223.875 -6.19433 -1.9028 0
M  V30 2362 N 217.281 0.66697 -1.42791 0
M  V30 2363 C 218.229 1.80157 -1.47127 0
M  V30 2364 C 219.223 1.65825 -0.346199 0
M  V30 2365 O 220.429 1.72338 -0.519572 0
M  V30 2366 H 216.804 0.594158 -0.460956 0
M  V30 2367 H 218.775 1.73619 -2.42692 0
M  V30 2368 C 217.524 3.18351 -1.39813 0
M  V30 2369 H 216.847 3.3001 -2.25684 0
M  V30 2370 H 218.287 3.97736 -1.46908 0
M  V30 2371 C 216.746 3.36707 -0.11391 0
M  V30 2372 O 217.276 3.93027 0.830241 0
M  V30 2373 N 215.482 2.90586 -0.0285295 0
M  V30 2374 H 215.029 2.4494 -0.79764 0
M  V30 2375 H 214.987 3.03245 0.830063 0
M  V30 2376 N 218.759 1.29093 0.90403 0
M  V30 2377 C 219.989 1.19516 1.68522 0
M  V30 2378 C 220.397 -0.24738 1.87576 0
M  V30 2379 O 219.74 -1.17798 1.40959 0
M  V30 2380 C 219.802 1.83249 3.0929 0
M  V30 2381 C 219.466 3.32531 3.13484 0
M  V30 2382 C 220.463 4.28821 2.93953 0
M  V30 2383 C 218.148 3.73656 3.35688 0
M  V30 2384 C 220.142 5.64212 2.96553 0
M  V30 2385 C 217.829 5.0917 3.37919 0
M  V30 2386 C 218.827 6.04258 3.18373 0
M  V30 2387 O 218.515 7.37298 3.20385 0
M  V30 2388 H 218.247 0.415467 0.533257 0
M  V30 2389 H 220.801 1.70912 1.13922 0
M  V30 2390 H 219.031 1.26358 3.65473 0
M  V30 2391 H 220.72 1.68054 3.69476 0
M  V30 2392 H 221.486 3.98382 2.76616 0
M  V30 2393 H 217.365 3.00101 3.49943 0
M  V30 2394 H 220.909 6.38407 2.81216 0
M  V30 2395 H 216.806 5.39256 3.54787 0
M  V30 2396 H 217.574 7.46048 3.36681 0
M  V30 2397 N 220.237 -1.11381 1.11499 0
M  V30 2398 C 221.17 -2.16621 0.71769 0
M  V30 2399 C 222.148 -1.60058 -0.286413 0
M  V30 2400 O 223.332 -1.87613 -0.182689 0
M  V30 2401 C 220.459 -3.38646 0.0607265 0
M  V30 2402 C 219.505 -4.13874 1.03008 0
M  V30 2403 S 220.338 -4.70731 2.55289 0
M  V30 2404 C 221.494 -5.96079 1.90895 0
M  V30 2405 H 221.727 -2.49987 1.60915 0
M  V30 2406 H 219.26 -1.23015 0.933092 0
M  V30 2407 H 221.218 -4.09313 -0.311965 0
M  V30 2408 H 219.879 -3.03537 -0.807702 0
M  V30 2409 H 219.072 -5.01333 0.517853 0
M  V30 2410 H 218.674 -3.4897 1.34522 0
M  V30 2411 H 220.966 -6.65948 1.24577 0
M  V30 2412 H 221.909 -6.51946 2.76354 0
M  V30 2413 H 222.317 -5.47652 1.36885 0
M  V30 2414 N 221.715 -0.905404 -1.28997 0
M  V30 2415 C 222.962 -0.534248 -1.95325 0
M  V30 2416 C 223.29 0.920535 -1.71337 0
M  V30 2417 O 222.545 1.66861 -1.02254 0
M  V30 2418 C 222.844 -0.779906 -3.48787 0
M  V30 2419 C 222.51 -2.21293 -3.92861 0
M  V30 2420 C 221.172 -2.60475 -4.04606 0
M  V30 2421 C 223.524 -3.14587 -4.15553 0
M  V30 2422 C 220.852 -3.9212 -4.36416 0
M  V30 2423 C 223.204 -4.45787 -4.48839 0
M  V30 2424 C 221.868 -4.84834 -4.58794 0
M  V30 2425 H 221.138 -0.195495 -0.714747 0
M  V30 2426 H 223.785 -1.14514 -1.53488 0
M  V30 2427 H 222.09 -0.0861365 -3.91705 0
M  V30 2428 H 223.787 -0.472029 -3.98212 0
M  V30 2429 H 220.377 -1.89887 -3.84241 0
M  V30 2430 H 224.561 -2.85528 -4.0594 0
M  V30 2431 H 219.817 -4.22086 -4.42327 0
M  V30 2432 H 223.991 -5.18098 -4.65346 0
M  V30 2433 H 221.618 -5.86877 -4.83197 0
M  V30 2434 N 223.193 1.4272 -0.668489 0
M  V30 2435 C 224.103 2.34596 0.0139753 0
M  V30 2436 C 225.119 1.5474 0.795703 0
M  V30 2437 O 226.295 1.87334 0.739466 0
M  V30 2438 C 223.36 3.33202 0.957982 0
M  V30 2439 C 222.421 4.28957 0.17149 0
M  V30 2440 C 221.654 5.22853 1.07053 0
M  V30 2441 O 221.877 5.21531 2.31001 0
M  V30 2442 O 220.811 5.9952 0.534727 0
M  V30 2443 H 224.637 2.9448 -0.742661 0
M  V30 2444 H 222.222 1.43117 -0.428705 0
M  V30 2445 H 224.104 3.93796 1.50008 0
M  V30 2446 H 222.779 2.758 1.69458 0
M  V30 2447 H 221.686 3.71796 -0.414558 0
M  V30 2448 H 223.019 4.89383 -0.52586 0
M  V30 2449 N 224.671 0.411399 1.52136 0
M  V30 2450 C 226.087 0.0623865 1.59478 0
M  V30 2451 C 226.287 -1.42554 1.4241 0
M  V30 2452 O 225.343 -2.19263 1.2522 0
M  V30 2453 C 226.656 0.559331 2.95452 0
M  V30 2454 C 228.204 0.517503 3.08692 0
M  V30 2455 C 228.679 0.990994 4.4715 0
M  V30 2456 N 230.17 0.947908 4.53397 0
M  V30 2457 C 230.905 1.28544 5.58806 0
M  V30 2458 N 230.401 1.69454 6.71757 0
M  V30 2459 N 232.194 1.20526 5.49026 0
M  V30 2460 H 224.345 1.37982 1.61477 0
M  V30 2461 H 226.608 0.566977 0.759764 0
M  V30 2462 H 226.314 1.59938 3.1323 0
M  V30 2463 H 226.188 -0.0298014 3.77188 0
M  V30 2464 H 228.575 -0.513505 2.90598 0
M  V30 2465 H 228.656 1.14272 2.28857 0
M  V30 2466 H 228.3 2.02034 4.65988 0
M  V30 2467 H 228.23 0.34257 5.25485 0
M  V30 2468 H 230.721 0.647157 3.72317 0
M  V30 2469 H 231.034 1.93513 7.48179 0
M  V30 2470 H 229.379 1.73359 6.73032 0
M  V30 2471 H 232.57 0.884505 4.59667 0
M  V30 2472 H 232.743 1.47161 6.31069 0
M  V30 2473 N 226.149 -1.5696 0.141893 0
M  V30 2474 C 227.079 -2.19516 -0.795936 0
M  V30 2475 C 228.06 -1.14187 -1.26077 0
M  V30 2476 O 229.245 -1.42511 -1.31925 0
M  V30 2477 C 226.375 -2.81272 -2.03723 0
M  V30 2478 C 225.329 -3.92384 -1.70936 0
M  V30 2479 C 224.655 -4.41052 -3.02287 0
M  V30 2480 C 225.955 -5.13403 -0.959954 0
M  V30 2481 H 227.649 -2.98138 -0.274596 0
M  V30 2482 H 225.195 -1.43406 -0.130636 0
M  V30 2483 H 227.148 -3.237 -2.69808 0
M  V30 2484 H 225.872 -1.99973 -2.58221 0
M  V30 2485 H 224.531 -3.50566 -1.07232 0
M  V30 2486 H 224.179 -3.56582 -3.54765 0
M  V30 2487 H 223.879 -5.15993 -2.81114 0
M  V30 2488 H 225.403 -4.86146 -3.69451 0
M  V30 2489 H 226.817 -5.52706 -1.52279 0
M  V30 2490 H 225.214 -5.94073 -0.848357 0
M  V30 2491 H 226.284 -4.84875 0.0492434 0
M  V30 2492 N 227.627 0.131896 -1.57047 0
M  V30 2493 C 228.904 0.871495 -1.75112 0
M  V30 2494 C 229.284 1.9866 -0.713949 0
M  V30 2495 O 228.632 2.26965 0.264447 0
M  V30 2496 C 228.842 1.40007 -3.19686 0
M  V30 2497 C 230.19 1.85752 -3.81813 0
M  V30 2498 O 231.214 1.49715 -3.23209 0
M  V30 2499 O 230.073 2.5226 -4.84796 0
M  V30 2500 H 227.167 0.412919 -0.716538 0
M  V30 2501 H 229.713 0.116641 -1.69299 0
M  V30 2502 H 228.485 0.599404 -3.86682 0
M  V30 2503 H 228.108 2.218 -3.29986 0
M  V30 2504 N 229.106 1.52395 0.401703 0
M  V30 2505 C 230.036 1.79231 1.49661 0
M  V30 2506 C 231.017 0.643654 1.57452 0
M  V30 2507 O 232.202 0.889989 1.72606 0
M  V30 2508 C 229.332 1.94971 2.87409 0
M  V30 2509 C 228.286 3.10604 2.94465 0
M  V30 2510 C 227.612 3.11577 4.34538 0
M  V30 2511 C 228.912 4.49921 2.6527 0
M  V30 2512 H 230.606 2.70917 1.27454 0
M  V30 2513 H 228.152 1.30362 0.6117 0
M  V30 2514 H 230.105 2.12328 3.63999 0
M  V30 2515 H 228.829 0.999632 3.10926 0
M  V30 2516 H 227.488 2.93009 2.20321 0
M  V30 2517 H 227.136 2.14277 4.55076 0
M  V30 2518 H 226.836 3.89247 4.40183 0
M  V30 2519 H 228.36 3.31073 5.13053 0
M  V30 2520 H 229.774 4.67683 3.31581 0
M  V30 2521 H 228.171 5.29564 2.82281 0
M  V30 2522 H 229.241 4.57507 1.60671 0
M  V30 2523 N 230.584 -0.659388 1.43143 0
M  V30 2524 C 231.832 -1.41654 1.44147 0
M  V30 2525 C 232.153 -1.94893 0.0645739 0
M  V30 2526 O 231.423 -1.74044 -0.899198 0
M  V30 2527 H 230.003 -0.525708 0.530697 0
M  V30 2528 H 232.665 -0.778097 1.78694 0
M  V30 2529 H 231.761 -2.26195 2.1504 0
M  V30 2530 N 232.062 -1.29571 -0.897171 0
M  V30 2531 C 233.308 -1.17863 -1.65034 0
M  V30 2532 C 233.641 0.268729 -1.92332 0
M  V30 2533 O 232.916 1.19378 -1.53555 0
M  V30 2534 C 233.199 -1.995 -2.99786 0
M  V30 2535 C 233.052 -3.5239 -2.79538 0
M  V30 2536 C 234.371 -1.82335 -4.00552 0
M  V30 2537 H 231.49 -0.429528 -0.598895 0
M  V30 2538 H 234.132 -1.59072 -1.03905 0
M  V30 2539 H 232.282 -1.64485 -3.51962 0
M  V30 2540 H 233.954 -3.97401 -2.34244 0
M  V30 2541 H 232.197 -3.77187 -2.14273 0
M  V30 2542 H 232.868 -4.04787 -3.75302 0
M  V30 2543 H 235.344 -2.12924 -3.57495 0
M  V30 2544 H 234.22 -2.41801 -4.92771 0
M  V30 2545 H 234.481 -0.779209 -4.35179 0
M  V30 2546 N 233.54 1.10788 -1.12088 0
M  V30 2547 C 234.788 1.8231 -0.872205 0
M  V30 2548 C 235.109 1.85419 0.603709 0
M  V30 2549 O 234.379 1.32963 1.43867 0
M  V30 2550 H 232.959 0.675137 -0.319686 0
M  V30 2551 H 235.621 1.34068 -1.41463 0
M  V30 2552 H 234.717 2.85955 -1.25045 0
M  V30 2553 N 235.018 0.912232 1.28515 0
M  V30 2554 C 235.928 0.404506 2.31086 0
M  V30 2555 C 236.944 -0.50707 1.66448 0
M  V30 2556 O 238.12 -0.393624 1.97516 0
M  V30 2557 C 235.185 -0.348572 3.44943 0
M  V30 2558 C 234.246 0.59604 4.25142 0
M  V30 2559 C 233.479 -0.121194 5.33562 0
M  V30 2560 O 233.702 -1.34317 5.5436 0
M  V30 2561 O 232.636 0.542716 5.99448 0
M  V30 2562 H 236.462 1.25579 2.76521 0
M  V30 2563 H 234.047 0.676998 1.33181 0
M  V30 2564 H 235.929 -0.77395 4.14232 0
M  V30 2565 H 234.604 -1.17571 3.01594 0
M  V30 2566 H 233.511 1.07079 3.58448 0
M  V30 2567 H 234.844 1.38995 4.72167 0
M  V30 2568 N 236.496 -1.42363 0.676048 0
M  V30 2569 C 237.724 -2.05859 0.207268 0
M  V30 2570 C 238.139 -1.50796 -1.13605 0
M  V30 2571 O 237.496 -0.648265 -1.70598 0
M  V30 2572 C 237.547 -3.61248 0.134975 0
M  V30 2573 O 237.268 -4.1427 1.42521 0
M  V30 2574 C 238.769 -4.41859 -0.357151 0
M  V30 2575 H 235.989 -0.663431 0.100503 0
M  V30 2576 H 238.533 -1.82479 0.923136 0
M  V30 2577 H 236.688 -3.83735 -0.531588 0
M  V30 2578 H 237.102 -5.0815 1.29939 0
M  V30 2579 H 238.576 -5.50847 -0.356641 0
M  V30 2580 H 239.053 -4.16536 -1.39264 0
M  V30 2581 H 239.659 -4.24392 0.27772 0
M  V30 2582 N 237.974 -0.419461 -1.51915 0
M  V30 2583 C 239.22 0.153166 -2.02221 0
M  V30 2584 C 239.553 1.43907 -1.30401 0
M  V30 2585 O 238.828 1.90055 -0.413438 0
M  V30 2586 C 239.111 0.390291 -3.57979 0
M  V30 2587 C 238.964 -0.913014 -4.40436 0
M  V30 2588 C 240.283 1.16794 -4.2432 0
M  V30 2589 H 237.402 0.0541924 -0.735005 0
M  V30 2590 H 240.044 -0.554955 -1.81715 0
M  V30 2591 H 238.194 0.993491 -3.75582 0
M  V30 2592 H 239.866 -1.54882 -4.34522 0
M  V30 2593 H 238.109 -1.52168 -4.06236 0
M  V30 2594 H 238.78 -0.701361 -5.47526 0
M  V30 2595 H 241.256 0.657161 -4.10878 0
M  V30 2596 H 240.132 1.3026 -5.3322 0
M  V30 2597 H 240.393 2.19132 -3.83971 0
M  V30 2598 N 239.452 1.56882 -0.150215 0
M  V30 2599 C 240.682 2.00302 0.506213 0
M  V30 2600 C 241.09 1.02934 1.58749 0
M  V30 2601 O 240.433 0.0188384 1.8369 0
M  V30 2602 C 240.495 3.40156 1.16337 0
M  V30 2603 C 240.159 4.56439 0.226311 0
M  V30 2604 C 241.156 5.17012 -0.547265 0
M  V30 2605 C 238.841 5.02136 0.128279 0
M  V30 2606 C 240.835 6.21693 -1.40629 0
M  V30 2607 C 238.522 6.06672 -0.734345 0
M  V30 2608 C 239.52 6.6632 -1.50023 0
M  V30 2609 O 239.208 7.68831 -2.34848 0
M  V30 2610 H 238.94 0.662182 0.135984 0
M  V30 2611 H 241.494 2.03961 -0.242746 0
M  V30 2612 H 239.724 3.33346 1.96004 0
M  V30 2613 H 241.413 3.67663 1.71985 0
M  V30 2614 H 242.179 4.82603 -0.48158 0
M  V30 2615 H 238.058 4.55435 0.714157 0
M  V30 2616 H 241.602 6.68179 -2.00455 0
M  V30 2617 H 237.499 6.40507 -0.801309 0
M  V30 2618 H 238.267 7.86065 -2.28131 0
M  V30 2619 N 240.93 -0.123565 1.57115 0
M  V30 2620 C 242.178 -0.83051 1.84247 0
M  V30 2621 C 242.499 -1.80629 0.73471 0
M  V30 2622 O 241.769 -1.94403 -0.241688 0
M  V30 2623 H 240.349 -0.309694 0.679778 0
M  V30 2624 H 243.011 -0.111976 1.94578 0
M  V30 2625 H 242.107 -1.37852 2.80006 0
M  V30 2626 N 242.408 -1.52605 -0.393616 0
M  V30 2627 C 243.338 -1.80022 -1.48709 0
M  V30 2628 C 244.319 -0.651995 -1.57108 0
M  V30 2629 O 245.504 -0.89913 -1.72132 0
M  V30 2630 C 242.634 -1.96492 -2.86371 0
M  V30 2631 C 241.588 -3.12161 -2.92813 0
M  V30 2632 C 240.914 -3.13877 -4.3288 0
M  V30 2633 C 242.214 -4.51322 -2.6288 0
M  V30 2634 H 243.908 -2.71589 -1.26015 0
M  V30 2635 H 241.454 -1.30684 -0.604778 0
M  V30 2636 H 243.407 -2.14255 -3.62867 0
M  V30 2637 H 242.131 -1.01611 -3.10391 0
M  V30 2638 H 240.79 -2.94173 -2.18764 0
M  V30 2639 H 240.438 -2.16687 -4.53933 0
M  V30 2640 H 240.138 -3.91576 -4.38112 0
M  V30 2641 H 241.662 -3.33789 -5.1129 0
M  V30 2642 H 243.076 -4.69435 -3.29096 0
M  V30 2643 H 241.473 -5.31053 -2.79468 0
M  V30 2644 H 242.543 -4.58353 -1.58242 0
M  V30 2645 N 243.887 0.651787 -1.4349 0
M  V30 2646 C 245.135 1.40888 -1.44897 0
M  V30 2647 C 245.456 1.94856 -0.0749086 0
M  V30 2648 O 244.726 1.74518 0.889956 0
M  V30 2649 H 243.306 0.522887 -0.533478 0
M  V30 2650 H 245.968 0.768609 -1.79104 0
M  V30 2651 H 245.064 2.25052 -2.16236 0
M  V30 2652 N 245.365 1.30045 0.890287 0
M  V30 2653 C 246.275 1.17885 2.02831 0
M  V30 2654 C 247.291 0.0999609 1.73713 0
M  V30 2655 O 248.467 0.313867 1.98939 0
M  V30 2656 C 245.532 0.866079 3.35708 0
M  V30 2657 C 244.593 2.02979 3.78283 0
M  V30 2658 C 243.826 1.73184 5.0482 0
M  V30 2659 O 244.049 0.657237 5.66601 0
M  V30 2660 O 242.983 2.58267 5.43674 0
M  V30 2661 H 246.809 2.13474 2.16015 0
M  V30 2662 H 244.394 1.09587 1.01543 0
M  V30 2663 H 246.276 0.706623 4.15433 0
M  V30 2664 H 244.951 -0.0599443 3.23644 0
M  V30 2665 H 243.858 2.24454 2.99285 0
M  V30 2666 H 245.191 2.93734 3.94944 0
M  V30 2667 N 246.843 -1.10192 1.12674 0
M  V30 2668 C 248.259 -1.34235 0.863317 0
M  V30 2669 C 248.459 -1.95062 -0.505277 0
M  V30 2670 O 247.515 -2.19192 -1.25345 0
M  V30 2671 C 248.828 -2.2616 1.98172 0
M  V30 2672 C 250.376 -2.3969 2.0129 0
M  V30 2673 C 250.851 -3.34946 3.1237 0
M  V30 2674 N 252.342 -3.42515 3.11829 0
M  V30 2675 C 253.077 -4.16199 3.94419 0
M  V30 2676 N 252.573 -4.92747 4.87004 0
M  V30 2677 N 254.366 -4.11843 3.82547 0
M  V30 2678 H 246.517 -0.690798 2.00853 0
M  V30 2679 H 248.78 -0.366774 0.874174 0
M  V30 2680 H 248.486 -1.8868 2.96804 0
M  V30 2681 H 248.36 -3.26488 1.88906 0
M  V30 2682 H 250.747 -2.76438 1.03276 0
M  V30 2683 H 250.828 -1.39169 2.14629 0
M  V30 2684 H 250.472 -2.98923 4.10619 0
M  V30 2685 H 250.402 -4.35353 2.96269 0
M  V30 2686 H 252.893 -2.87926 2.44759 0
M  V30 2687 H 253.206 -5.46376 5.46528 0
M  V30 2688 H 251.551 -4.91862 4.91016 0
M  V30 2689 H 254.742 -3.51136 3.0955 0
M  V30 2690 H 254.915 -4.69007 4.47142 0
M  V30 2691 N 248.321 -0.919034 -1.28029 0
M  V30 2692 C 249.568 -0.554934 -1.94748 0
M  V30 2693 C 249.896 0.90231 -1.72304 0
M  V30 2694 O 249.151 1.65767 -1.04018 0
M  V30 2695 C 249.45 -0.816855 -3.4794 0
M  V30 2696 C 249.116 -2.25448 -3.90492 0
M  V30 2697 C 247.778 -2.64752 -4.01821 0
M  V30 2698 C 250.13 -3.18977 -4.12193 0
M  V30 2699 C 247.458 -3.96727 -4.32232 0
M  V30 2700 C 249.81 -4.50523 -4.44086 0
M  V30 2701 C 248.474 -4.89673 -4.53626 0
M  V30 2702 H 247.744 -0.203065 -0.712633 0
M  V30 2703 H 250.391 -1.16136 -1.52265 0
M  V30 2704 H 248.696 -0.127677 -3.91592 0
M  V30 2705 H 250.393 -0.514238 -3.97689 0
M  V30 2706 H 246.983 -1.93952 -3.82205 0
M  V30 2707 H 251.167 -2.89817 -4.02889 0
M  V30 2708 H 246.423 -4.26754 -4.37825 0
M  V30 2709 H 250.597 -5.23005 -4.59825 0
M  V30 2710 H 248.224 -5.91969 -4.76946 0
M  V30 2711 N 249.799 1.42003 -0.683588 0
M  V30 2712 C 251.027 2.05746 -0.218182 0
M  V30 2713 C 251.442 1.51396 1.12804 0
M  V30 2714 O 250.799 0.657303 1.70252 0
M  V30 2715 C 250.85 3.61171 -0.154131 0
M  V30 2716 O 250.571 4.13508 -1.44716 0
M  V30 2717 C 252.072 4.42042 0.333713 0
M  V30 2718 H 249.292 0.662888 -0.10402 0
M  V30 2719 H 251.836 1.81987 -0.9328 0
M  V30 2720 H 249.991 3.84012 0.511231 0
M  V30 2721 H 250.405 5.07453 -1.32632 0
M  V30 2722 H 251.879 5.51028 0.327423 0
M  V30 2723 H 252.356 4.17269 1.37053 0
M  V30 2724 H 252.962 4.24239 -0.300222 0
M  V30 2725 N 251.277 0.427512 1.51691 0
M  V30 2726 C 252.24 -0.377132 2.26076 0
M  V30 2727 C 253.24 -0.958089 1.29141 0
M  V30 2728 O 254.43 -0.83408 1.52934 0
M  V30 2729 C 251.562 -1.53262 3.04506 0
M  V30 2730 H 252.755 0.27464 2.9864 0
M  V30 2731 H 250.308 0.180445 1.55255 0
M  V30 2732 H 251.043 -2.22072 2.36335 0
M  V30 2733 H 250.828 -1.12232 3.75694 0
M  V30 2734 H 252.318 -2.10135 3.60878 0
M  V30 2735 N 252.755 -1.56801 0.158532 0
M  V30 2736 C 253.685 -2.20347 -0.772609 0
M  V30 2737 C 254.666 -1.15518 -1.24859 0
M  V30 2738 O 255.851 -1.43902 -1.30406 0
M  V30 2739 C 252.981 -2.83417 -2.00729 0
M  V30 2740 C 251.935 -3.94174 -1.66765 0
M  V30 2741 C 251.261 -4.44233 -2.97592 0
M  V30 2742 C 252.561 -5.14392 -0.905447 0
M  V30 2743 H 254.255 -2.98413 -0.242959 0
M  V30 2744 H 251.801 -1.43537 -0.115419 0
M  V30 2745 H 253.754 -3.26543 -2.6636 0
M  V30 2746 H 252.478 -2.02701 -2.56086 0
M  V30 2747 H 251.137 -3.51684 -1.03508 0
M  V30 2748 H 250.785 -3.60325 -3.50963 0
M  V30 2749 H 250.485 -5.18945 -2.75626 0
M  V30 2750 H 252.009 -4.90037 -3.64274 0
M  V30 2751 H 253.423 -5.5429 -1.46408 0
M  V30 2752 H 251.82 -5.9494 -0.7853 0
M  V30 2753 H 252.89 -4.84795 0.100668 0
M  V30 2754 N 254.233 0.115231 -1.57178 0
M  V30 2755 C 255.479 0.82357 -1.85325 0
M  V30 2756 C 255.812 1.79349 -0.744814 0
M  V30 2757 O 255.087 1.92899 0.249024 0
M  V30 2758 C 255.37 1.57014 -3.24066 0
M  V30 2759 C 255.223 0.619565 -4.45513 0
M  V30 2760 C 256.542 2.52545 -3.60429 0
M  V30 2761 H 253.661 0.297948 -0.674089 0
M  V30 2762 H 256.303 0.0877138 -1.89797 0
M  V30 2763 H 254.453 2.19742 -3.20383 0
M  V30 2764 H 256.125 0.000837639 -4.613 0
M  V30 2765 H 254.368 -0.0686174 -4.33746 0
M  V30 2766 H 255.039 1.17866 -5.3927 0
M  V30 2767 H 257.515 1.9992 -3.64926 0
M  V30 2768 H 256.391 3.01811 -4.58477 0
M  V30 2769 H 256.652 3.35383 -2.88047 0
M  V30 2770 N 255.711 1.52812 0.385517 0
M  V30 2771 C 257.127 1.4214 0.725829 0
M  V30 2772 C 257.327 0.544589 1.94001 0
M  V30 2773 O 256.383 0.0193693 2.52493 0
M  V30 2774 C 257.696 2.85042 0.957668 0
M  V30 2775 C 259.244 2.94543 1.05892 0
M  V30 2776 C 259.719 4.38464 1.32337 0
M  V30 2777 N 261.21 4.41804 1.39151 0
M  V30 2778 C 261.945 5.5025 1.61285 0
M  V30 2779 N 261.441 6.68775 1.80866 0
M  V30 2780 N 263.234 5.37798 1.63492 0
M  V30 2781 H 255.385 2.08338 -0.413383 0
M  V30 2782 H 257.648 0.940016 -0.122775 0
M  V30 2783 H 257.354 3.51431 0.137568 0
M  V30 2784 H 257.228 3.27505 1.87137 0
M  V30 2785 H 259.615 2.28321 1.86959 0
M  V30 2786 H 259.696 2.55504 0.123057 0
M  V30 2787 H 259.34 5.05254 0.517793 0
M  V30 2788 H 259.27 4.75059 2.27214 0
M  V30 2789 H 261.761 3.56377 1.25713 0
M  V30 2790 H 262.074 7.47197 1.97271 0
M  V30 2791 H 260.419 6.71797 1.78083 0
M  V30 2792 H 263.61 4.44171 1.47749 0
M  V30 2793 H 263.783 6.22382 1.80402 0
M  V30 2794 N 257.189 -0.644168 1.43834 0
M  V30 2795 C 258.137 -1.77793 1.49974 0
M  V30 2796 C 259.131 -1.65253 0.372536 0
M  V30 2797 O 260.337 -1.7149 0.546924 0
M  V30 2798 H 256.712 -0.58675 0.47035 0
M  V30 2799 H 258.683 -1.69736 2.45423 0
M  V30 2800 C 257.432 -3.16087 1.4486 0
M  V30 2801 H 256.755 -3.26378 2.30905 0
M  V30 2802 H 258.195 -3.95349 1.53217 0
M  V30 2803 C 256.654 -3.36484 0.167463 0
M  V30 2804 O 257.184 -3.94298 -0.767609 0
M  V30 2805 N 255.39 -2.90504 0.0747556 0
M  V30 2806 H 254.937 -2.4364 0.836507 0
M  V30 2807 H 254.895 -3.04527 -0.781714 0
M  V30 2808 N 258.668 -1.30515 -0.883378 0
M  V30 2809 C 259.916 -1.19194 -1.63209 0
M  V30 2810 C 260.237 0.253205 -1.93349 0
M  V30 2811 O 259.507 1.17025 -1.57105 0
M  V30 2812 H 258.087 -0.438148 -0.605009 0
M  V30 2813 H 260.749 -1.63663 -1.05832 0
M  V30 2814 H 259.845 -1.75396 -2.58153 0
M  V30 2815 N 260.146 1.09593 -1.13257 0
M  V30 2816 C 261.078 2.16015 -0.766167 0
M  V30 2817 C 262.091 1.61423 0.211303 0
M  V30 2818 O 263.28 1.78498 -0.00863946 0
M  V30 2819 C 260.38 3.38706 -0.114662 0
M  V30 2820 C 259.553 4.22717 -1.12379 0
M  V30 2821 C 258.612 5.23835 -0.498301 0
M  V30 2822 O 257.638 5.573 -1.15781 0
M  V30 2823 N 258.84 5.75886 0.730417 0
M  V30 2824 H 261.605 2.48055 -1.68193 0
M  V30 2825 H 259.166 1.25292 -1.02535 0
M  V30 2826 H 261.158 4.03464 0.315991 0
M  V30 2827 H 259.728 3.04569 0.704011 0
M  V30 2828 H 258.948 3.54122 -1.73179 0
M  V30 2829 H 260.236 4.75673 -1.80589 0
M  V30 2830 H 259.634 5.50911 1.28504 0
M  V30 2831 H 258.191 6.42387 1.10376 0
M  V30 2832 N 261.624 0.925811 1.2754 0
M  V30 2833 C 262.852 0.581509 1.9856 0
M  V30 2834 C 263.267 -0.840041 1.69082 0
M  V30 2835 O 262.624 -1.55805 0.950312 0
M  V30 2836 C 262.675 0.795589 3.52637 0
M  V30 2837 O 262.396 2.16121 3.81082 0
M  V30 2838 C 263.897 0.459744 4.4091 0
M  V30 2839 H 261.117 0.220538 0.633722 0
M  V30 2840 H 263.661 1.24232 1.6244 0
M  V30 2841 H 261.816 0.18161 3.86974 0
M  V30 2842 H 262.23 2.2098 4.75676 0
M  V30 2843 H 263.704 0.660244 5.48037 0
M  V30 2844 H 264.181 -0.604625 4.35018 0
M  V30 2845 H 264.787 1.05178 4.12089 0
M  V30 2846 N 263.102 -1.41638 0.69111 0
M  V30 2847 C 264.348 -2.01598 0.220519 0
M  V30 2848 C 264.681 -1.54594 -1.17535 0
M  V30 2849 O 263.956 -0.755177 -1.79241 0
M  V30 2850 C 264.239 -3.59062 0.273243 0
M  V30 2851 C 264.092 -4.16203 1.70573 0
M  V30 2852 C 265.411 -4.38546 -0.369457 0
M  V30 2853 H 262.53 -0.732468 0.0816045 0
M  V30 2854 H 265.172 -1.68445 0.878986 0
M  V30 2855 H 263.322 -3.87435 -0.287411 0
M  V30 2856 H 264.994 -3.98722 2.31989 0
M  V30 2857 H 263.237 -3.71414 2.2413 0
M  V30 2858 H 263.908 -5.25358 1.69419 0
M  V30 2859 H 266.384 -4.1596 0.107977 0
M  V30 2860 H 265.26 -5.48069 -0.302002 0
M  V30 2861 H 265.521 -4.17662 -1.44951 0
M  V30 2862 N 264.58 -0.43555 -1.51462 0
M  V30 2863 C 265.49 0.383001 -2.31453 0
M  V30 2864 C 266.506 1.02931 -1.4029 0
M  V30 2865 O 267.682 1.02507 -1.73362 0
M  V30 2866 C 264.747 1.47043 -3.13973 0
M  V30 2867 C 263.808 0.844433 -4.20913 0
M  V30 2868 C 263.041 1.88004 -4.9949 0
M  V30 2869 O 263.264 3.10199 -4.78678 0
M  V30 2870 O 262.198 1.47157 -5.83634 0
M  V30 2871 H 266.024 -0.269964 -3.02498 0
M  V30 2872 H 263.609 -0.19813 -1.4808 0
M  V30 2873 H 265.491 2.10113 -3.65281 0
M  V30 2874 H 264.166 2.10751 -2.45695 0
M  V30 2875 H 263.073 0.175729 -3.73687 0
M  V30 2876 H 264.406 0.250869 -4.9156 0
M  V30 2877 N 266.058 1.56714 -0.166846 0
M  V30 2878 C 267.286 2.0112 0.485644 0
M  V30 2879 C 267.701 1.04705 1.57106 0
M  V30 2880 O 267.058 0.0471923 1.82439 0
M  V30 2881 C 267.109 3.45361 1.06808 0
M  V30 2882 O 266.83 4.38092 0.0259995 0
M  V30 2883 C 268.331 4.05145 1.79924 0
M  V30 2884 H 265.551 0.65931 0.124704 0
M  V30 2885 H 268.095 2.02746 -0.267262 0
M  V30 2886 H 266.25 3.44524 1.7715 0
M  V30 2887 H 266.664 5.22519 0.455398 0
M  V30 2888 H 268.138 5.08009 2.15942 0
M  V30 2889 H 268.615 3.46982 2.69258 0
M  V30 2890 H 269.221 4.09672 1.14234 0
M  V30 2891 N 267.536 -0.106894 1.57237 0
M  V30 2892 C 268.782 -0.808678 1.86633 0
M  V30 2893 C 269.137 -1.76917 0.756178 0
M  V30 2894 O 268.43 -1.90055 -0.242834 0
M  V30 2895 C 268.624 -1.58628 3.20268 0
M  V30 2896 C 268.453 -0.702592 4.44178 0
M  V30 2897 C 267.223 -0.352808 5.04067 0
M  V30 2898 C 269.421 -0.0148031 5.14298 0
M  V30 2899 N 267.403 0.540279 6.11518 0
M  V30 2900 C 268.774 0.736809 6.15606 0
M  V30 2901 C 270.829 0.0603524 4.97863 0
M  V30 2902 C 269.532 1.55654 7.02257 0
M  V30 2903 C 271.558 0.866942 5.85011 0
M  V30 2904 C 270.92 1.60671 6.85831 0
M  V30 2905 H 267.019 -0.27246 0.733001 0
M  V30 2906 H 269.603 -0.0717858 1.94568 0
M  V30 2907 H 267.774 -2.29413 3.13408 0
M  V30 2908 H 269.506 -2.23434 3.3743 0
M  V30 2909 H 266.261 -0.697802 4.68431 0
M  V30 2910 H 266.685 0.979029 6.69884 0
M  V30 2911 H 271.327 -0.497236 4.19866 0
M  V30 2912 H 269.045 2.12524 7.79653 0
M  V30 2913 H 272.631 0.927612 5.74358 0
M  V30 2914 H 271.511 2.2208 7.52097 0
M  V30 2915 N 269.014 -1.53014 -0.377408 0
M  V30 2916 C 269.962 -1.7927 -1.48206 0
M  V30 2917 C 270.956 -0.661195 -1.55963 0
M  V30 2918 O 272.162 -0.843908 -1.58991 0
M  V30 2919 H 268.537 -0.567425 -0.493491 0
M  V30 2920 H 270.508 -2.71753 -1.2326 0
M  V30 2921 C 269.257 -1.98894 -2.85196 0
M  V30 2922 H 268.58 -2.85395 -2.79981 0
M  V30 2923 H 270.02 -2.21249 -3.61698 0
M  V30 2924 C 268.479 -0.764691 -3.28107 0
M  V30 2925 O 269.009 0.0523226 -4.01666 0
M  V30 2926 N 267.215 -0.591493 -2.84517 0
M  V30 2927 H 266.762 -1.25749 -2.24822 0
M  V30 2928 H 266.72 0.226253 -3.13585 0
M  V30 2929 N 270.492 0.636531 -1.44174 0
M  V30 2930 C 271.908 0.954104 -1.27941 0
M  V30 2931 C 272.108 2.0039 -0.211248 0
M  V30 2932 O 271.164 2.49236 0.404695 0
M  V30 2933 C 272.477 1.4225 -2.64925 0
M  V30 2934 C 274.025 1.53827 -2.72592 0
M  V30 2935 C 274.5 2.04053 -4.10032 0
M  V30 2936 N 275.991 2.11331 -4.12182 0
M  V30 2937 C 276.726 2.51352 -5.15374 0
M  V30 2938 N 276.222 2.90549 -6.2893 0
M  V30 2939 N 278.015 2.51438 -5.02728 0
M  V30 2940 H 270.166 -0.0578386 -2.12321 0
M  V30 2941 H 272.429 0.0367406 -0.947288 0
M  V30 2942 H 272.135 0.725466 -3.44136 0
M  V30 2943 H 272.009 2.39451 -2.9145 0
M  V30 2944 H 274.396 2.22628 -1.93702 0
M  V30 2945 H 274.477 0.550154 -2.49814 0
M  V30 2946 H 274.121 1.35848 -4.89395 0
M  V30 2947 H 274.051 3.03726 -4.30184 0
M  V30 2948 H 276.542 1.83745 -3.30222 0
M  V30 2949 H 276.855 3.19884 -7.03487 0
M  V30 2950 H 275.2 2.88313 -6.32377 0
M  V30 2951 H 278.391 2.20203 -4.13072 0
M  V30 2952 H 278.564 2.82304 -5.83274 0
M  V30 2953 N 271.97 1.30982 0.876444 0
M  V30 2954 C 273.247 1.10942 1.61094 0
M  V30 2955 C 273.627 -0.338223 2.08373 0
M  V30 2956 O 272.975 -1.33122 1.85717 0
M  V30 2957 C 273.185 2.11789 2.77392 0
M  V30 2958 C 274.533 2.43965 3.47514 0
M  V30 2959 O 275.557 2.10166 2.87591 0
M  V30 2960 O 274.416 3.01817 4.55597 0
M  V30 2961 H 271.51 0.42667 0.708436 0
M  V30 2962 H 274.056 1.42438 0.922474 0
M  V30 2963 H 272.828 3.09194 2.39823 0
M  V30 2964 H 272.451 1.81161 3.5393 0
M  V30 2965 N 273.449 -1.08991 1.13837 0
M  V30 2966 C 274.697 -1.80899 0.901098 0
M  V30 2967 C 275.018 -1.86356 -0.574134 0
M  V30 2968 O 274.288 -1.35235 -1.41733 0
M  V30 2969 H 272.868 -0.669966 0.330386 0
M  V30 2970 H 275.53 -1.318 1.43578 0
M  V30 2971 H 274.626 -2.83929 1.29578 0
M  V30 2972 N 274.927 -0.932562 -1.27047 0
M  V30 2973 C 276.175 -0.574422 -1.93765 0
M  V30 2974 C 276.496 0.887993 -1.73608 0
M  V30 2975 O 275.766 1.62999 -1.08665 0
M  V30 2976 H 274.346 -0.209451 -0.717035 0
M  V30 2977 H 277.008 -1.18601 -1.5466 0
M  V30 2978 H 276.104 -0.784841 -3.02071 0
M  V30 2979 N 276.405 1.4127 -0.698611 0
M  V30 2980 C 277.633 2.05503 -0.239992 0
M  V30 2981 C 278.048 1.52584 1.11191 0
M  V30 2982 O 277.405 0.675323 1.69545 0
M  V30 2983 C 277.456 3.60987 -0.192429 0
M  V30 2984 O 277.177 4.1195 -1.49094 0
M  V30 2985 C 278.678 4.42371 0.28681 0
M  V30 2986 H 275.898 0.661748 -0.111045 0
M  V30 2987 H 278.442 1.80987 -0.95205 0
M  V30 2988 H 276.597 3.84533 0.470472 0
M  V30 2989 H 277.011 5.06018 -1.38007 0
M  V30 2990 H 278.485 5.51344 0.26896 0
M  V30 2991 H 278.962 4.18699 1.32619 0
M  V30 2992 H 279.568 4.23897 -0.345201 0
M  V30 2993 N 277.883 0.443576 1.51229 0
M  V30 2994 C 279.108 -0.121648 2.07043 0
M  V30 2995 C 279.533 -1.35156 1.30823 0
M  V30 2996 O 278.891 -1.7793 0.347934 0
M  V30 2997 C 278.939 -0.41624 3.5819 0
M  V30 2998 O 278.043 -1.50163 3.8409 0
M  V30 2999 H 277.384 0.000871367 0.663999 0
M  V30 3000 H 279.914 0.626706 1.94765 0
M  V30 3001 H 279.924 -0.664867 4.02546 0
M  V30 3002 H 278.599 0.482653 4.1309 0
M  V30 3003 H 277.176 -1.24248 3.51592 0
M  V30 3004 N 279.361 -1.56624 0.175154 0
M  V30 3005 C 280.589 -2.01374 -0.474971 0
M  V30 3006 C 281.004 -1.05537 -1.56548 0
M  V30 3007 O 280.361 -0.0568668 -1.82411 0
M  V30 3008 C 280.412 -3.45923 -1.04975 0
M  V30 3009 O 280.133 -4.381 -0.00276605 0
M  V30 3010 C 281.634 -4.06093 -1.77773 0
M  V30 3011 H 278.854 -0.659962 -0.121206 0
M  V30 3012 H 281.398 -2.02601 0.27801 0
M  V30 3013 H 279.553 -3.45458 -1.75321 0
M  V30 3014 H 279.967 -5.22753 -0.427681 0
M  V30 3015 H 281.441 -5.09147 -2.13245 0
M  V30 3016 H 281.918 -3.48405 -2.67414 0
M  V30 3017 H 282.524 -4.10272 -1.12059 0
M  V30 3018 N 280.839 0.0985539 -1.57292 0
M  V30 3019 C 281.749 1.13824 -2.05137 0
M  V30 3020 C 282.765 1.44076 -0.975604 0
M  V30 3021 O 283.941 1.54786 -1.28853 0
M  V30 3022 C 281.006 2.43969 -2.46333 0
M  V30 3023 C 280.067 2.2093 -3.68087 0
M  V30 3024 C 279.3 3.44869 -4.0731 0
M  V30 3025 O 279.523 4.52972 -3.46659 0
M  V30 3026 O 278.457 3.34661 -5.00285 0
M  V30 3027 H 282.283 0.761881 -2.93988 0
M  V30 3028 H 279.868 0.310818 -1.46131 0
M  V30 3029 H 281.75 3.20609 -2.73473 0
M  V30 3030 H 280.425 2.81038 -1.60621 0
M  V30 3031 H 279.332 1.42081 -3.46069 0
M  V30 3032 H 280.665 1.88755 -4.54568 0
M  V30 3033 N 282.317 1.53212 0.369288 0
M  V30 3034 C 283.249 1.75668 1.47219 0
M  V30 3035 C 284.262 0.637387 1.49804 0
M  V30 3036 O 285.451 0.913561 1.5335 0
M  V30 3037 C 282.551 1.81818 2.85999 0
M  V30 3038 C 281.724 3.11409 3.07153 0
M  V30 3039 C 280.783 3.08849 4.26026 0
M  V30 3040 O 279.809 3.82659 4.2138 0
M  V30 3041 N 281.011 2.29409 5.33246 0
M  V30 3042 H 283.776 2.70832 1.28337 0
M  V30 3043 H 281.337 1.51944 0.55898 0
M  V30 3044 H 283.329 1.77588 3.63655 0
M  V30 3045 H 281.899 0.939544 2.98146 0
M  V30 3046 H 281.119 3.28971 2.1719 0
M  V30 3047 H 282.407 3.97059 3.18154 0
M  V30 3048 H 281.805 1.68946 5.39883 0
M  V30 3049 H 280.362 2.31001 6.09493 0
M  V30 3050 N 283.795 -0.628877 1.44509 0
M  V30 3051 C 284.758 -1.72263 1.51188 0
M  V30 3052 C 285.758 -1.55907 0.39367 0
M  V30 3053 O 286.948 -1.61361 0.656377 0
M  V30 3054 C 284.08 -3.11365 1.38798 0
M  V30 3055 H 285.273 -1.67714 2.4862 0
M  V30 3056 H 282.826 -0.842737 1.31634 0
M  V30 3057 H 283.561 -3.21507 0.424693 0
M  V30 3058 H 283.346 -3.24644 2.19884 0
M  V30 3059 H 284.836 -3.91075 1.46458 0
M  V30 3060 N 285.273 -1.31445 -0.869486 0
M  V30 3061 C 286.503 -1.23942 -1.65294 0
M  V30 3062 C 286.911 0.197561 -1.88166 0
M  V30 3063 O 286.254 1.14019 -1.44033 0
M  V30 3064 C 286.316 -1.91385 -3.04322 0
M  V30 3065 C 285.98 -3.40726 -3.04557 0
M  V30 3066 C 286.977 -4.36464 -2.82481 0
M  V30 3067 C 284.662 -3.82425 -3.25663 0
M  V30 3068 C 286.656 -5.71876 -2.8149 0
M  V30 3069 C 284.343 -5.1795 -3.243 0
M  V30 3070 C 285.341 -6.12486 -3.02241 0
M  V30 3071 O 285.029 -7.45534 -3.00724 0
M  V30 3072 H 284.761 -0.429459 -0.522054 0
M  V30 3073 H 287.315 -1.73873 -1.0935 0
M  V30 3074 H 285.545 -1.36004 -3.61994 0
M  V30 3075 H 287.234 -1.77791 -3.64891 0
M  V30 3076 H 288 -4.05576 -2.65956 0
M  V30 3077 H 283.879 -3.09274 -3.41863 0
M  V30 3078 H 287.423 -6.45638 -2.64191 0
M  V30 3079 H 283.32 -5.48473 -3.40365 0
M  V30 3080 H 284.088 -7.54713 -3.16782 0
M  V30 3081 N 286.751 1.08385 -1.14413 0
M  V30 3082 C 287.698 2.15311 -0.831265 0
M  V30 3083 C 288.668 1.64751 0.211292 0
M  V30 3084 O 289.853 1.90627 0.0811674 0
M  V30 3085 C 286.993 3.43658 -0.315143 0
M  V30 3086 C 286.106 4.08064 -1.41802 0
M  V30 3087 C 285.241 5.24207 -0.859126 0
M  V30 3088 C 284.28 5.80554 -1.93967 0
M  V30 3089 N 283.417 6.88042 -1.39793 0
M  V30 3090 H 288.257 2.41415 -1.74708 0
M  V30 3091 H 285.794 1.18474 -0.871909 0
M  V30 3092 H 287.752 4.172 0.00230884 0
M  V30 3093 H 286.382 3.17839 0.56378 0
M  V30 3094 H 285.434 3.3228 -1.85187 0
M  V30 3095 H 286.746 4.45962 -2.23427 0
M  V30 3096 H 285.9 6.04689 -0.49359 0
M  V30 3097 H 284.639 4.87699 -0.011932 0
M  V30 3098 H 283.644 4.98725 -2.31415 0
M  V30 3099 H 284.869 6.19121 -2.79046 0
M  V30 3100 H 282.815 6.53493 -0.572919 0
M  V30 3101 H 282.732 7.24767 -2.15054 0
M  V30 3102 H 284 7.72255 -1.0603 0
M  V30 3103 N 288.23 0.939286 1.26551 0
M  V30 3104 C 289.178 0.43815 2.28436 0
M  V30 3105 C 290.172 -0.483587 1.62351 0
M  V30 3106 O 291.378 -0.362009 1.76322 0
M  V30 3107 H 287.753 0.123149 0.741848 0
M  V30 3108 H 289.724 1.31002 2.68106 0
M  V30 3109 C 288.473 -0.283052 3.46546 0
M  V30 3110 H 287.796 0.417043 3.97619 0
M  V30 3111 H 289.236 -0.597948 4.19763 0
M  V30 3112 C 287.695 -1.50018 3.01656 0
M  V30 3113 O 288.225 -2.59855 3.0633 0
M  V30 3114 N 286.431 -1.35608 2.57019 0
M  V30 3115 H 285.978 -0.46244 2.53415 0
M  V30 3116 H 285.936 -2.17165 2.27347 0
M  V30 3117 N 289.708 -1.40897 0.706093 0
M  V30 3118 C 290.957 -2.00284 0.238574 0
M  V30 3119 C 291.27 -1.56604 -1.17194 0
M  V30 3120 O 292.476 -2.08624 -1.73748 0
M  V30 3121 C 290.932 -3.57934 0.375623 0
M  V30 3122 C 290.54 -4.10591 1.79217 0
M  V30 3123 C 292.284 -4.24488 -0.0315857 0
M  V30 3124 C 290.191 -5.60712 1.88032 0
M  V30 3125 H 289.121 -0.749144 0.0854398 0
M  V30 3126 H 291.772 -1.61251 0.875813 0
M  V30 3127 H 290.154 -3.94622 -0.330042 0
M  V30 3128 H 291.328 -3.85301 2.52745 0
M  V30 3129 H 289.643 -3.56601 2.15 0
M  V30 3130 H 292.24 -5.34698 0.0136842 0
M  V30 3131 H 292.583 -4.02261 -1.072 0
M  V30 3132 H 293.116 -3.92873 0.624181 0
M  V30 3133 H 289.855 -5.87781 2.90161 0
M  V30 3134 H 289.375 -5.87896 1.18903 0
M  V30 3135 H 291.054 -6.25658 1.64805 0
M  V30 3136 N 291.186 -0.45159 -1.50991 0
M  V30 3137 C 292.597 0.00818571 -1.86698 0
M  V30 3138 C 292.948 1.40661 -1.3678 0
M  V30 3139 O 292.073 2.0391 -0.724546 0
M  V30 3140 C 292.668 0.0216303 -3.38793 0
M  V30 3141 C 291.227 0.425865 -3.73983 0
M  V30 3142 C 290.374 -0.372163 -2.74791 0
M  V30 3143 H 293.325 -0.666785 -1.44013 0
M  V30 3144 H 293.346 0.828078 -3.7138 0
M  V30 3145 H 292.858 -0.996288 -3.75094 0
M  V30 3146 H 290.959 1.44886 -3.43277 0
M  V30 3147 H 291.072 0.140761 -4.78893 0
M  V30 3148 H 289.436 0.171498 -2.54122 0
M  V30 3149 H 290.219 -1.38922 -3.13935 0
M  V30 3150 N 292.664 1.56529 -0.183458 0
M  V30 3151 C 293.911 1.97244 0.458357 0
M  V30 3152 C 294.239 1.06992 1.62428 0
M  V30 3153 O 293.494 0.106542 1.9541 0
M  V30 3154 C 293.793 3.43939 0.971637 0
M  V30 3155 C 293.459 4.5083 -0.0796784 0
M  V30 3156 C 292.121 4.79786 -0.368584 0
M  V30 3157 C 294.473 5.15138 -0.792638 0
M  V30 3158 C 291.801 5.70345 -1.37563 0
M  V30 3159 C 294.153 6.06784 -1.78875 0
M  V30 3160 C 292.817 6.34102 -2.08497 0
M  V30 3161 H 292.087 0.721768 0.167725 0
M  V30 3162 H 294.734 1.89472 -0.277976 0
M  V30 3163 H 293.039 3.48724 1.78602 0
M  V30 3164 H 294.736 3.72791 1.47744 0
M  V30 3165 H 291.326 4.28317 0.155668 0
M  V30 3166 H 295.51 4.92868 -0.582659 0
M  V30 3167 H 290.766 5.89789 -1.61118 0
M  V30 3168 H 294.94 6.55677 -2.3465 0
M  V30 3169 H 292.567 7.04074 -2.86678 0
M  V30 3170 N 294.142 -0.090211 1.57342 0
M  V30 3171 C 295.372 -0.805055 1.90269 0
M  V30 3172 C 295.78 -1.72561 0.775842 0
M  V30 3173 O 295.123 -1.81839 -0.260843 0
M  V30 3174 C 295.185 -1.66734 3.18497 0
M  V30 3175 C 294.849 -0.918092 4.47683 0
M  V30 3176 C 295.846 -0.245674 5.19319 0
M  V30 3177 C 293.531 -0.890724 4.94339 0
M  V30 3178 C 295.525 0.444088 6.35851 0
M  V30 3179 C 293.212 -0.197179 6.10782 0
M  V30 3180 C 294.21 0.469044 6.81388 0
M  V30 3181 O 293.898 1.15146 7.95611 0
M  V30 3182 H 293.63 -0.235143 0.633785 0
M  V30 3183 H 296.184 -0.0703805 2.05279 0
M  V30 3184 H 294.414 -2.44437 2.99646 0
M  V30 3185 H 296.103 -2.25919 3.37217 0
M  V30 3186 H 296.869 -0.258246 4.84312 0
M  V30 3187 H 292.748 -1.39873 4.39268 0
M  V30 3188 H 296.292 0.964667 6.90898 0
M  V30 3189 H 292.189 -0.18247 6.45242 0
M  V30 3190 H 292.957 1.05885 8.11622 0
M  V30 3191 N 295.62 -1.53406 -0.361157 0
M  V30 3192 C 296.553 -1.74946 -1.46524 0
M  V30 3193 C 297.531 -0.59795 -1.51206 0
M  V30 3194 O 298.715 -0.831062 -1.69191 0
M  V30 3195 C 295.842 -1.83224 -2.84863 0
M  V30 3196 C 294.888 -3.05233 -2.97885 0
M  V30 3197 S 295.721 -4.6466 -2.66179 0
M  V30 3198 C 296.877 -4.75793 -4.06659 0
M  V30 3199 H 297.11 -2.68319 -1.28033 0
M  V30 3200 H 294.643 -1.44051 -0.555764 0
M  V30 3201 H 296.601 -1.88679 -3.64569 0
M  V30 3202 H 295.262 -0.908948 -3.00661 0
M  V30 3203 H 294.455 -3.07648 -3.9921 0
M  V30 3204 H 294.057 -2.97913 -2.26106 0
M  V30 3205 H 296.349 -4.5612 -5.0096 0
M  V30 3206 H 297.292 -5.7786 -4.09247 0
M  V30 3207 H 297.7 -4.04389 -3.93865 0
M  V30 3208 N 297.098 0.621204 -1.44841 0
M  V30 3209 C 298.326 1.40752 -1.51646 0
M  V30 3210 C 298.741 1.88246 -0.144549 0
M  V30 3211 O 298.098 1.61422 0.851416 0
M  V30 3212 C 298.149 2.62119 -2.4895 0
M  V30 3213 O 297.87 2.16602 -3.80808 0
M  V30 3214 C 299.371 3.55135 -2.65319 0
M  V30 3215 H 296.591 0.431325 -0.514004 0
M  V30 3216 H 299.135 0.758835 -1.899 0
M  V30 3217 H 297.29 3.23058 -2.13805 0
M  V30 3218 H 297.704 2.95358 -4.33433 0
M  V30 3219 H 299.178 4.36874 -3.37409 0
M  V30 3220 H 299.655 4.04592 -1.70886 0
M  V30 3221 H 300.261 3.00058 -3.01405 0
M  V30 3222 N 298.576 1.31904 0.862503 0
M  V30 3223 C 299.524 1.20125 1.9918 0
M  V30 3224 C 300.518 0.107824 1.69056 0
M  V30 3225 O 301.724 0.270223 1.7796 0
M  V30 3226 H 298.099 0.372148 0.65346 0
M  V30 3227 H 300.07 2.15652 2.06244 0
M  V30 3228 C 298.819 0.933099 3.34946 0
M  V30 3229 H 298.142 1.76664 3.5865 0
M  V30 3230 H 299.582 0.890892 4.14535 0
M  V30 3231 C 298.041 -0.364172 3.34926 0
M  V30 3232 O 298.571 -1.37858 3.77304 0
M  V30 3233 N 296.777 -0.383362 2.8806 0
M  V30 3234 H 296.324 0.442651 2.53768 0
M  V30 3235 H 296.282 -1.25123 2.8843 0
M  V30 3236 N 300.054 -1.07777 1.14986 0
M  V30 3237 C 301.47 -1.32373 0.891596 0
M  V30 3238 C 301.67 -1.9609 -0.463788 0
M  V30 3239 O 300.726 -2.21801 -1.20667 0
M  V30 3240 C 302.039 -2.21905 2.02925 0
M  V30 3241 C 303.587 -2.35367 2.06329 0
M  V30 3242 C 304.062 -3.28245 3.19405 0
M  V30 3243 N 305.553 -3.35824 3.19024 0
M  V30 3244 C 306.288 -4.07739 4.03158 0
M  V30 3245 N 305.784 -4.82306 4.97346 0
M  V30 3246 N 307.577 -4.03635 3.91197 0
M  V30 3247 H 299.728 -0.648039 2.02273 0
M  V30 3248 H 301.991 -0.348149 0.881757 0
M  V30 3249 H 301.697 -1.82342 3.0074 0
M  V30 3250 H 301.571 -3.22407 1.95789 0
M  V30 3251 H 303.958 -2.74186 1.09116 0
M  V30 3252 H 304.039 -1.34585 2.17533 0
M  V30 3253 H 303.683 -2.90146 4.16867 0
M  V30 3254 H 303.613 -4.28971 3.05437 0
M  V30 3255 H 306.104 -2.8267 2.50811 0
M  V30 3256 H 306.417 -5.34661 5.57994 0
M  V30 3257 H 304.762 -4.81337 5.01338 0
M  V30 3258 H 307.953 -3.44491 3.16928 0
M  V30 3259 H 308.126 -4.59417 4.5699 0
M  V30 3260 N 301.532 -0.945985 -1.26051 0
M  V30 3261 C 302.78 -0.594941 -1.93145 0
M  V30 3262 C 303.101 0.86953 -1.7454 0
M  V30 3263 O 302.371 1.61838 -1.10387 0
M  V30 3264 H 300.951 -0.217044 -0.714773 0
M  V30 3265 H 303.613 -1.20235 -1.53393 0
M  V30 3266 H 302.709 -0.816835 -3.01221 0
M  V30 3267 N 303.011 1.40521 -0.713556 0
M  V30 3268 C 304.241 2.0494 -0.261395 0
M  V30 3269 C 304.649 1.53861 1.10107 0
M  V30 3270 O 303.992 0.689321 1.70276 0
M  V30 3271 C 304.054 3.59138 -0.161227 0
M  V30 3272 C 303.718 4.33096 -1.45865 0
M  V30 3273 C 304.715 4.61182 -2.40016 0
M  V30 3274 C 302.4 4.72043 -1.71701 0
M  V30 3275 C 304.394 5.27196 -3.58251 0
M  V30 3276 C 302.081 5.37789 -2.90218 0
M  V30 3277 C 303.079 5.65295 -3.83315 0
M  V30 3278 O 302.767 6.29683 -4.99754 0
M  V30 3279 H 302.499 0.666041 -0.115608 0
M  V30 3280 H 305.053 1.80954 -0.971849 0
M  V30 3281 H 303.283 3.81936 0.605153 0
M  V30 3282 H 304.972 4.05091 0.256105 0
M  V30 3283 H 305.738 4.31559 -2.21318 0
M  V30 3284 H 301.617 4.50003 -1.00092 0
M  V30 3285 H 305.161 5.48582 -4.30934 0
M  V30 3286 H 301.058 5.66831 -3.08825 0
M  V30 3287 H 301.826 6.4818 -4.99805 0
M  V30 3288 N 304.489 0.459591 1.5075 0
M  V30 3289 C 305.737 -0.0991532 2.01857 0
M  V30 3290 C 306.058 -1.41247 1.34441 0
M  V30 3291 O 305.328 -1.89775 0.486022 0
M  V30 3292 H 303.908 -0.039633 0.745948 0
M  V30 3293 H 306.57 0.607387 1.85194 0
M  V30 3294 H 305.666 -0.258998 3.11023 0
M  V30 3295 N 305.967 -1.56429 0.191757 0
M  V30 3296 C 307.213 -1.97777 -0.448554 0
M  V30 3297 C 307.546 -1.07847 -1.61501 0
M  V30 3298 O 306.821 -0.129774 -1.94067 0
M  V30 3299 C 307.104 -3.48362 -0.911906 0
M  V30 3300 C 306.957 -4.4907 0.256136 0
M  V30 3301 C 308.276 -4.02561 -1.77857 0
M  V30 3302 H 305.395 -0.719071 -0.161572 0
M  V30 3303 H 308.037 -1.87896 0.282007 0
M  V30 3304 H 306.187 -3.56914 -1.53442 0
M  V30 3305 H 307.859 -4.5256 0.893733 0
M  V30 3306 H 306.102 -4.24181 0.908436 0
M  V30 3307 H 306.773 -5.51889 -0.11053 0
M  V30 3308 H 309.249 -3.96767 -1.25359 0
M  V30 3309 H 308.125 -5.08301 -2.07174 0
M  V30 3310 H 308.386 -3.47616 -2.73158 0
M  V30 3311 N 307.445 0.0818655 -1.57387 0
M  V30 3312 C 308.375 1.09885 -2.06028 0
M  V30 3313 C 309.356 1.4098 -0.951774 0
M  V30 3314 O 310.541 1.50781 -1.22387 0
M  V30 3315 C 307.671 2.4151 -2.4958 0
M  V30 3316 C 306.625 2.24792 -3.64215 0
M  V30 3317 C 305.951 3.61712 -3.93787 0
M  V30 3318 C 307.251 1.67749 -4.94629 0
M  V30 3319 H 308.945 0.694128 -2.91243 0
M  V30 3320 H 306.491 0.332448 -1.4011 0
M  V30 3321 H 308.444 3.12939 -2.82219 0
M  V30 3322 H 307.168 2.83943 -1.61381 0
M  V30 3323 H 305.827 1.55807 -3.31843 0
M  V30 3324 H 305.475 4.01697 -3.02735 0
M  V30 3325 H 305.175 3.51368 -4.70971 0
M  V30 3326 H 306.699 4.34587 -4.28913 0
M  V30 3327 H 308.113 2.29032 -5.25564 0
M  V30 3328 H 306.51 1.68128 -5.76067 0
M  V30 3329 H 307.58 0.638059 -4.80684 0
M  V30 3330 N 308.923 1.53595 0.353017 0
M  V30 3331 C 310.169 1.70638 1.09593 0
M  V30 3332 C 310.502 0.463286 1.88593 0
M  V30 3333 O 309.777 -0.539597 1.86865 0
M  V30 3334 C 310.06 2.96406 2.04489 0
M  V30 3335 C 309.913 4.30901 1.29014 0
M  V30 3336 C 311.232 3.17812 3.0444 0
M  V30 3337 H 308.351 0.620913 0.397034 0
M  V30 3338 H 310.993 1.86254 0.375446 0
M  V30 3339 H 309.143 2.83223 2.65927 0
M  V30 3340 H 310.815 4.55917 0.702638 0
M  V30 3341 H 309.058 4.29741 0.592071 0
M  V30 3342 H 309.729 5.1506 1.98537 0
M  V30 3343 H 312.205 3.30263 2.53112 0
M  V30 3344 H 311.081 4.07223 3.6805 0
M  V30 3345 H 311.342 2.33669 3.75301 0
M  V30 3346 N 310.401 -0.613514 1.45168 0
M  V30 3347 C 311.349 -1.74572 1.53712 0
M  V30 3348 C 312.343 -1.64426 0.407505 0
M  V30 3349 O 313.549 -1.70291 0.583176 0
M  V30 3350 H 309.924 -0.576641 0.48269 0
M  V30 3351 H 311.895 -1.64492 2.48968 0
M  V30 3352 C 310.644 -3.12943 1.51532 0
M  V30 3353 H 309.967 -3.21407 2.37776 0
M  V30 3354 H 311.407 -3.9201 1.61569 0
M  V30 3355 C 309.866 -3.36053 0.238798 0
M  V30 3356 O 310.396 -3.95837 -0.6838 0
M  V30 3357 N 308.602 -2.9028 0.136359 0
M  V30 3358 H 308.149 -2.41811 0.887999 0
M  V30 3359 H 308.107 -3.06116 -0.716944 0
M  V30 3360 N 311.879 -1.3236 -0.855495 0
M  V30 3361 C 312.829 -1.17809 -1.95205 0
M  V30 3362 C 313.813 -0.0852319 -1.60674 0
M  V30 3363 O 315.005 -0.311651 -1.74235 0
M  V30 3364 C 312.134 -0.902437 -3.31226 0
M  V30 3365 C 311.22 -2.03695 -3.7198 0
M  V30 3366 N 311.611 -3.28544 -3.84568 0
M  V30 3367 C 309.909 -1.93993 -4.016 0
M  V30 3368 C 310.61 -4.02847 -4.19629 0
M  V30 3369 N 309.586 -3.31138 -4.31102 0
M  V30 3370 H 313.388 -2.12462 -2.0307 0
M  V30 3371 H 310.902 -1.24127 -1.0472 0
M  V30 3372 H 312.899 -0.77915 -4.09554 0
M  V30 3373 H 311.559 0.0357267 -3.2468 0
M  V30 3374 H 312.57 -3.6349 -3.68911 0
M  V30 3375 H 309.247 -1.07733 -4.03361 0
M  V30 3376 H 310.637 -5.10506 -4.36845 0
M  V30 3377 N 313.357 1.07166 -1.15556 0
M  V30 3378 C 314.768 1.6127 -0.940693 0
M  V30 3379 C 315.119 1.89251 0.517551 0
M  V30 3380 O 314.244 1.65937 1.38903 0
M  V30 3381 C 314.839 2.92993 -1.7012 0
M  V30 3382 C 313.398 3.43832 -1.53156 0
M  V30 3383 C 312.545 2.1786 -1.71558 0
M  V30 3384 H 315.496 0.90229 -1.30554 0
M  V30 3385 H 315.517 3.62007 -1.17181 0
M  V30 3386 H 315.029 2.72596 -2.76248 0
M  V30 3387 H 313.13 3.69307 -0.494294 0
M  V30 3388 H 313.243 4.19747 -2.30975 0
M  V30 3389 H 311.607 2.2765 -1.14225 0
M  V30 3390 H 312.39 1.99956 -2.79056 0
M  V30 3391 N 314.835 0.952656 1.25548 0
M  V30 3392 C 315.767 0.428609 2.25157 0
M  V30 3393 C 316.78 -0.454428 1.56329 0
M  V30 3394 O 317.969 -0.263023 1.76552 0
M  V30 3395 C 315.069 -0.401972 3.36508 0
M  V30 3396 C 314.242 0.467601 4.34893 0
M  V30 3397 C 313.301 -0.30445 5.25319 0
M  V30 3398 O 312.327 0.296473 5.68427 0
M  V30 3399 N 313.529 -1.59805 5.5807 0
M  V30 3400 H 316.294 1.28497 2.70756 0
M  V30 3401 H 313.855 0.822798 1.39433 0
M  V30 3402 H 315.847 -0.926134 3.9396 0
M  V30 3403 H 314.417 -1.15918 2.90313 0
M  V30 3404 H 313.637 1.17288 3.76347 0
M  V30 3405 H 314.925 1.06119 4.97611 0
M  V30 3406 H 314.323 -2.10823 5.24948 0
M  V30 3407 H 312.88 -2.06822 6.18116 0
M  V30 3408 N 316.313 -1.40141 0.720998 0
M  V30 3409 C 317.553 -2.02644 0.267335 0
M  V30 3410 C 317.917 -1.55948 -1.12001 0
M  V30 3411 O 319.118 -2.10552 -1.67097 0
M  V30 3412 C 317.389 -3.55679 0.350281 0
M  V30 3413 S 318.948 -4.38793 -0.0256004 0
M  V30 3414 H 315.766 -0.703105 0.105664 0
M  V30 3415 H 318.368 -1.71175 0.944416 0
M  V30 3416 H 317.072 -3.87157 1.36153 0
M  V30 3417 H 316.603 -3.91883 -0.345096 0
M  V30 3418 H 318.618 -4.803 -1.24604 0
M  V30 3419 N 317.792 -0.46758 -1.50504 0
M  V30 3420 C 319.038 0.0887532 -2.02606 0
M  V30 3421 C 319.371 1.39686 -1.34913 0
M  V30 3422 O 318.646 1.88644 -0.473694 0
M  V30 3423 C 318.929 0.276206 -3.59039 0
M  V30 3424 C 318.782 -1.05267 -4.37309 0
M  V30 3425 C 320.101 1.03235 -4.27821 0
M  V30 3426 H 317.22 0.0307814 -0.736357 0
M  V30 3427 H 319.862 -0.612485 -1.79857 0
M  V30 3428 H 318.012 0.8735 -3.78553 0
M  V30 3429 H 319.684 -1.68628 -4.29374 0
M  V30 3430 H 317.927 -1.65015 -4.01189 0
M  V30 3431 H 318.598 -0.875197 -5.45018 0
M  V30 3432 H 321.074 0.526111 -4.12761 0
M  V30 3433 H 319.95 1.1323 -5.37094 0
M  V30 3434 H 320.211 2.06806 -3.90748 0
M  V30 3435 N 319.27 1.56325 -0.20005 0
M  V30 3436 C 320.495 2.02548 0.44597 0
M  V30 3437 C 320.92 1.07922 1.5406 0
M  V30 3438 O 320.278 0.0635775 1.81188 0
M  V30 3439 C 320.326 3.47175 0.974761 0
M  V30 3440 O 319.43 3.55671 2.08739 0
M  V30 3441 H 318.771 0.655862 0.103638 0
M  V30 3442 H 321.301 2.02201 -0.312381 0
M  V30 3443 H 321.311 3.87067 1.2901 0
M  V30 3444 H 319.986 4.15538 0.17347 0
M  V30 3445 H 318.563 3.27657 1.78032 0
M  V30 3446 N 320.748 -0.0735177 1.57428 0
M  V30 3447 C 321.995 -0.772999 1.87166 0
M  V30 3448 C 322.323 -1.77665 0.791551 0
M  V30 3449 O 321.578 -1.94541 -0.212636 0
M  V30 3450 C 321.877 -1.51799 3.23561 0
M  V30 3451 C 321.543 -0.654484 4.46125 0
M  V30 3452 C 320.205 -0.416511 4.79394 0
M  V30 3453 C 322.557 -0.0555862 5.2117 0
M  V30 3454 C 319.885 0.429869 5.85123 0
M  V30 3455 C 322.237 0.778239 6.27795 0
M  V30 3456 C 320.901 1.0261 6.59566 0
M  V30 3457 H 320.171 -0.282861 0.684888 0
M  V30 3458 H 322.818 -0.0338272 1.9147 0
M  V30 3459 H 321.123 -2.32932 3.1504 0
M  V30 3460 H 322.82 -2.06397 3.43804 0
M  V30 3461 H 319.41 -0.850091 4.20085 0
M  V30 3462 H 323.594 -0.226558 4.95783 0
M  V30 3463 H 318.85 0.630665 6.08139 0
M  V30 3464 H 323.024 1.24906 6.85107 0
M  V30 3465 H 320.651 1.68371 7.4132 0
M  V30 3466 N 322.226 -1.5378 -0.344866 0
M  V30 3467 C 323.136 -1.84667 -1.4469 0
M  V30 3468 C 324.152 -0.736704 -1.57635 0
M  V30 3469 O 325.328 -1.02888 -1.73136 0
M  V30 3470 C 322.393 -2.04869 -2.79696 0
M  V30 3471 C 321.454 -3.28731 -2.76106 0
M  V30 3472 C 320.687 -3.4796 -4.04673 0
M  V30 3473 O 320.91 -2.71052 -5.01883 0
M  V30 3474 O 319.844 -4.41383 -4.09224 0
M  V30 3475 H 323.67 -2.78334 -1.21506 0
M  V30 3476 H 321.255 -1.39418 -0.536921 0
M  V30 3477 H 323.137 -2.19609 -3.59652 0
M  V30 3478 H 321.812 -1.14391 -3.02814 0
M  V30 3479 H 320.719 -3.19396 -1.94774 0
M  V30 3480 H 322.052 -4.19198 -2.57941 0
M  V30 3481 N 323.704 0.605807 -1.45491 0
M  V30 3482 C 324.95 1.36679 -1.49823 0
M  V30 3483 C 325.283 1.93693 -0.140175 0
M  V30 3484 O 324.558 1.75158 0.845581 0
M  V30 3485 C 324.841 2.51337 -2.57879 0
M  V30 3486 C 324.694 1.99508 -4.03134 0
M  V30 3487 C 326.013 3.53463 -2.62205 0
M  V30 3488 H 323.132 0.495617 -0.545466 0
M  V30 3489 H 325.774 0.682732 -1.7731 0
M  V30 3490 H 323.924 3.09691 -2.34571 0
M  V30 3491 H 325.596 1.45789 -4.37656 0
M  V30 3492 H 323.839 1.30496 -4.13707 0
M  V30 3493 H 324.51 2.82169 -4.74431 0
M  V30 3494 H 326.986 3.04953 -2.83095 0
M  V30 3495 H 325.862 4.31178 -3.39672 0
M  V30 3496 H 326.123 4.09197 -1.67363 0
M  V30 3497 N 325.182 1.32811 0.848464 0
M  V30 3498 C 326.43 1.23479 1.59991 0
M  V30 3499 C 326.751 -0.201853 1.93952 0
M  V30 3500 O 326.021 -1.12818 1.60153 0
M  V30 3501 H 324.601 0.454034 0.593179 0
M  V30 3502 H 327.263 1.66412 1.01455 0
M  V30 3503 H 326.359 1.82178 2.53412 0
M  V30 3504 N 326.66 -1.06551 1.16123 0
M  V30 3505 C 327.885 -1.83544 0.965735 0
M  V30 3506 C 328.31 -1.81843 -0.481102 0
M  V30 3507 O 327.668 -1.21732 -1.34354 0
M  V30 3508 C 327.716 -3.28169 1.49457 0
M  V30 3509 O 326.82 -4.0643 0.699157 0
M  V30 3510 H 326.161 -0.568026 0.343864 0
M  V30 3511 H 328.691 -1.34362 1.54299 0
M  V30 3512 H 328.701 -3.78992 1.51092 0
M  V30 3513 H 327.376 -3.28722 2.54784 0
M  V30 3514 H 325.953 -3.65216 0.7531 0
M  V30 3515 N 328.138 -0.959301 -1.25041 0
M  V30 3516 C 329.048 -0.489994 -2.29426 0
M  V30 3517 C 330.064 0.444944 -1.68215 0
M  V30 3518 O 331.24 0.320046 -1.98841 0
M  V30 3519 C 328.305 0.220309 -3.45999 0
M  V30 3520 C 327.366 -0.753418 -4.22637 0
M  V30 3521 C 326.599 -0.076918 -5.33645 0
M  V30 3522 O 326.822 1.13649 -5.58963 0
M  V30 3523 O 325.756 -0.764824 -5.97021 0
M  V30 3524 H 329.582 -1.35755 -2.71669 0
M  V30 3525 H 327.167 -0.725961 -1.30576 0
M  V30 3526 H 329.049 0.619677 -4.16819 0
M  V30 3527 H 327.724 1.06296 -3.0575 0
M  V30 3528 H 326.631 -1.20308 -3.54227 0
M  V30 3529 H 327.964 -1.56423 -4.66683 0
M  V30 3530 N 329.616 1.39756 -0.72842 0
M  V30 3531 C 330.563 2.30647 -0.0841519 0
M  V30 3532 C 331.533 1.48869 0.7367 0
M  V30 3533 O 332.718 1.77574 0.698015 0
M  V30 3534 C 329.858 3.35165 0.822091 0
M  V30 3535 C 328.971 4.31999 -0.0106663 0
M  V30 3536 C 328.106 5.23585 0.896241 0
M  V30 3537 C 327.145 6.12072 0.0583381 0
M  V30 3538 N 326.282 6.96035 0.920818 0
M  V30 3539 H 331.122 2.85173 -0.864891 0
M  V30 3540 H 328.659 1.40422 -0.438179 0
M  V30 3541 H 330.617 3.94345 1.36189 0
M  V30 3542 H 329.247 2.8211 1.56888 0
M  V30 3543 H 328.299 3.74492 -0.66781 0
M  V30 3544 H 329.611 4.9443 -0.658825 0
M  V30 3545 H 328.765 5.87759 1.50412 0
M  V30 3546 H 327.504 4.61459 1.57819 0
M  V30 3547 H 326.509 5.46916 -0.562389 0
M  V30 3548 H 327.734 6.76261 -0.6203 0
M  V30 3549 H 325.68 6.36485 1.58818 0
M  V30 3550 H 325.597 7.55284 0.32899 0
M  V30 3551 H 326.865 7.64646 1.51447 0
M  V30 3552 N 331.094 0.475555 1.50254 0
M  V30 3553 C 332.34 -0.0780073 2.0265 0
M  V30 3554 C 332.673 -1.38968 1.35652 0
M  V30 3555 O 331.948 -1.8839 0.483691 0
M  V30 3556 C 332.231 -0.257161 3.59181 0
M  V30 3557 C 332.084 1.07585 4.36744 0
M  V30 3558 C 333.403 -1.00965 4.28362 0
M  V30 3559 H 330.522 -0.0268758 0.73651 0
M  V30 3560 H 333.164 0.622015 1.7953 0
M  V30 3561 H 331.314 -0.853412 3.79011 0
M  V30 3562 H 332.986 1.70902 4.28474 0
M  V30 3563 H 331.229 1.6714 4.00308 0
M  V30 3564 H 331.9 0.904088 5.44546 0
M  V30 3565 H 334.376 -0.504214 4.13034 0
M  V30 3566 H 333.252 -1.10381 5.37687 0
M  V30 3567 H 333.513 -2.04731 3.91839 0
M  V30 3568 N 332.573 -1.56217 0.208337 0
M  V30 3569 C 333.798 -2.02782 -0.435222 0
M  V30 3570 C 334.223 -1.08738 -1.53485 0
M  V30 3571 O 333.581 -0.0731855 -1.81152 0
M  V30 3572 C 333.629 -3.47687 -0.956335 0
M  V30 3573 O 332.733 -3.56773 -2.06849 0
M  V30 3574 H 332.074 -0.656403 -0.100158 0
M  V30 3575 H 334.604 -2.02033 0.3231 0
M  V30 3576 H 334.614 -3.87745 -1.26955 0
M  V30 3577 H 333.289 -4.15624 -0.15143 0
M  V30 3578 H 331.866 -3.28597 -1.76292 0
M  V30 3579 N 334.051 0.0651679 -1.57465 0
M  V30 3580 C 334.998 1.07675 -2.04144 0
M  V30 3581 C 335.968 1.38071 -0.923335 0
M  V30 3582 O 337.153 1.49026 -1.19146 0
M  V30 3583 C 334.293 2.38337 -2.49579 0
M  V30 3584 C 333.406 2.14413 -3.75035 0
M  V30 3585 C 332.541 3.38686 -4.09225 0
M  V30 3586 C 331.58 3.10156 -5.27702 0
M  V30 3587 N 330.717 4.26778 -5.57499 0
M  V30 3588 H 335.557 0.671716 -2.90331 0
M  V30 3589 H 333.094 0.3201 -1.43575 0
M  V30 3590 H 335.052 3.14632 -2.73975 0
M  V30 3591 H 333.682 2.7663 -1.6636 0
M  V30 3592 H 332.734 1.2878 -3.57939 0
M  V30 3593 H 334.046 1.89344 -4.61466 0
M  V30 3594 H 333.2 4.23373 -4.34558 0
M  V30 3595 H 331.939 3.66837 -3.21374 0
M  V30 3596 H 330.944 2.23866 -5.02159 0
M  V30 3597 H 332.169 2.8332 -6.17176 0
M  V30 3598 H 330.115 4.54948 -4.72608 0
M  V30 3599 H 330.032 4.05005 -6.38362 0
M  V30 3600 H 331.3 5.12443 -5.87386 0
M  V30 3601 N 335.529 1.53961 0.336706 0
M  V30 3602 C 336.775 1.7179 1.07777 0
M  V30 3603 C 337.108 0.483263 1.88091 0
M  V30 3604 O 336.383 -0.519747 1.87427 0
M  V30 3605 C 336.666 2.98558 2.01334 0
M  V30 3606 C 336.519 4.32245 1.24437 0
M  V30 3607 C 337.838 3.21023 3.01052 0
M  V30 3608 H 334.957 0.625089 0.390426 0
M  V30 3609 H 337.599 1.86641 0.35567 0
M  V30 3610 H 335.749 2.86028 2.62908 0
M  V30 3611 H 337.421 4.56637 0.654243 0
M  V30 3612 H 335.664 4.30344 0.546458 0
M  V30 3613 H 336.335 5.17137 1.93063 0
M  V30 3614 H 338.811 3.32929 2.49595 0
M  V30 3615 H 337.687 4.11104 3.6371 0
M  V30 3616 H 337.948 2.37637 3.72802 0
M  V30 3617 N 337.007 -0.598083 1.45811 0
M  V30 3618 C 337.939 -1.72231 1.51225 0
M  V30 3619 C 338.952 -1.57757 0.402059 0
M  V30 3620 O 340.141 -1.65464 0.669624 0
M  V30 3621 C 337.241 -3.10331 1.3619 0
M  V30 3622 C 336.414 -3.50955 2.61054 0
M  V30 3623 C 335.473 -4.68055 2.40439 0
M  V30 3624 O 334.499 -4.74691 3.14097 0
M  V30 3625 N 335.701 -5.61941 1.45612 0
M  V30 3626 H 338.466 -1.68046 2.48154 0
M  V30 3627 H 336.027 -0.783637 1.41671 0
M  V30 3628 H 338.019 -3.86439 1.20195 0
M  V30 3629 H 336.589 -3.0897 0.475015 0
M  V30 3630 H 335.809 -2.64711 2.92099 0
M  V30 3631 H 337.097 -3.74858 3.44034 0
M  V30 3632 H 336.495 -5.59301 0.848431 0
M  V30 3633 H 335.052 -6.37542 1.35585 0
M  V30 3634 N 338.485 -1.33259 -0.841409 0
M  V30 3635 C 339.732 -1.24572 -1.5965 0
M  V30 3636 C 340.06 0.189137 -1.93578 0
M  V30 3637 O 339.315 1.14566 -1.5866 0
M  V30 3638 C 339.614 -2.06381 -2.9179 0
M  V30 3639 C 339.28 -3.556 -2.77235 0
M  V30 3640 C 337.942 -3.96282 -2.72973 0
M  V30 3641 C 340.294 -4.50433 -2.62221 0
M  V30 3642 C 337.622 -5.30017 -2.51592 0
M  V30 3643 C 339.974 -5.84327 -2.42374 0
M  V30 3644 C 338.638 -6.24194 -2.36512 0
M  V30 3645 H 337.908 -0.455842 -0.5842 0
M  V30 3646 H 340.555 -1.6482 -0.975016 0
M  V30 3647 H 338.86 -1.58903 -3.5813 0
M  V30 3648 H 340.557 -1.97019 -3.49263 0
M  V30 3649 H 337.147 -3.23298 -2.81384 0
M  V30 3650 H 341.331 -4.19914 -2.64549 0
M  V30 3651 H 336.587 -5.59947 -2.45499 0
M  V30 3652 H 340.761 -6.57414 -2.29739 0
M  V30 3653 H 338.388 -7.27759 -2.19706 0
M  V30 3654 N 339.963 1.05934 -1.16686 0
M  V30 3655 C 341.188 1.83029 -0.975455 0
M  V30 3656 C 341.613 1.82096 0.471452 0
M  V30 3657 O 340.971 1.22443 1.33706 0
M  V30 3658 C 341.019 3.27372 -1.51195 0
M  V30 3659 O 340.123 4.06054 -0.720701 0
M  V30 3660 H 339.464 0.566194 -0.346872 0
M  V30 3661 H 341.994 1.33541 -1.55009 0
M  V30 3662 H 342.004 3.78186 -1.53099 0
M  V30 3663 H 340.679 3.27366 -2.56523 0
M  V30 3664 H 339.256 3.64812 -0.772458 0
M  V30 3665 N 341.441 0.965919 1.2453 0
M  V30 3666 C 342.687 0.62776 1.92839 0
M  V30 3667 C 343.02 -0.834694 1.75347 0
M  V30 3668 O 342.295 -1.60031 1.10546 0
M  V30 3669 C 342.578 1.00109 3.45905 0
M  V30 3670 C 342.431 2.52011 3.72573 0
M  V30 3671 C 343.75 0.53435 4.36844 0
M  V30 3672 H 340.869 0.229537 0.700344 0
M  V30 3673 H 343.511 1.2046 1.46933 0
M  V30 3674 H 341.661 0.510238 3.85135 0
M  V30 3675 H 343.333 3.08559 3.42912 0
M  V30 3676 H 341.576 2.95287 3.17786 0
M  V30 3677 H 342.247 2.73183 4.79661 0
M  V30 3678 H 344.723 0.955565 4.04979 0
M  V30 3679 H 343.599 0.824152 5.42678 0
M  V30 3680 H 343.86 -0.565589 4.38467 0
M  V30 3681 N 342.919 -1.39368 0.735821 0
M  V30 3682 C 343.829 -2.34395 0.0979693 0
M  V30 3683 C 344.845 -1.58361 -0.720968 0
M  V30 3684 O 346.021 -1.90648 -0.649245 0
M  V30 3685 C 343.086 -3.37393 -0.797916 0
M  V30 3686 C 342.147 -4.29287 0.0333662 0
M  V30 3687 C 341.38 -5.27365 -0.819854 0
M  V30 3688 O 341.603 -5.31959 -2.05855 0
M  V30 3689 O 340.537 -6.01389 -0.248079 0
M  V30 3690 H 344.363 -2.90601 0.882315 0
M  V30 3691 H 341.948 -1.40909 0.4965 0
M  V30 3692 H 343.83 -4.00505 -1.31048 0
M  V30 3693 H 342.505 -2.83571 -1.56106 0
M  V30 3694 H 341.412 -3.69395 0.591475 0
M  V30 3695 H 342.745 -4.86317 0.758752 0
M  V30 3696 N 344.397 -0.483516 -1.5 0
M  V30 3697 C 345.622 0.0667119 -2.07293 0
M  V30 3698 C 346.047 1.3164 -1.3436 0
M  V30 3699 O 345.405 1.76945 -0.394987 0
M  V30 3700 C 345.453 0.321126 -3.59167 0
M  V30 3701 O 344.557 1.39927 -3.87936 0
M  V30 3702 H 343.898 -0.0184758 -0.663743 0
M  V30 3703 H 346.428 -0.678125 -1.93035 0
M  V30 3704 H 346.438 0.557906 -4.04168 0
M  V30 3705 H 345.113 -0.592007 -4.11665 0
M  V30 3706 H 343.69 1.14882 -3.54763 0
M  V30 3707 N 345.875 1.56104 -0.216619 0
M  V30 3708 C 346.785 2.23694 0.706982 0
M  V30 3709 C 347.801 1.24295 1.21765 0
M  V30 3710 O 348.977 1.57094 1.2603 0
M  V30 3711 C 346.042 2.8998 1.90033 0
M  V30 3712 C 345.103 4.04708 1.43213 0
M  V30 3713 C 344.336 4.67824 2.56859 0
M  V30 3714 O 344.559 4.29913 3.74874 0
M  V30 3715 O 343.493 5.56905 2.28343 0
M  V30 3716 H 347.319 3.03272 0.161235 0
M  V30 3717 H 344.904 1.49394 0.0136177 0
M  V30 3718 H 346.786 3.31837 2.59735 0
M  V30 3719 H 345.461 2.13365 2.43428 0
M  V30 3720 H 344.368 3.6743 0.70327 0
M  V30 3721 H 345.701 4.83051 0.944615 0
M  V30 3722 N 347.353 -0.0568162 1.57498 0
M  V30 3723 C 348.583 -0.764515 1.91934 0
M  V30 3724 C 348.991 -1.70877 0.81227 0
M  V30 3725 O 348.334 -1.82351 -0.222213 0
M  V30 3726 C 348.396 -1.5994 3.21962 0
M  V30 3727 C 348.06 -0.822925 4.4953 0
M  V30 3728 C 349.057 -0.135464 5.19723 0
M  V30 3729 C 346.742 -0.785666 4.96117 0
M  V30 3730 C 348.736 0.578861 6.34766 0
M  V30 3731 C 346.423 -0.0675784 6.11063 0
M  V30 3732 C 347.421 0.613471 6.80239 0
M  V30 3733 O 347.109 1.31996 7.92989 0
M  V30 3734 H 346.841 -0.221647 0.63863 0
M  V30 3735 H 349.395 -0.0268218 2.05382 0
M  V30 3736 H 347.625 -2.38026 3.04763 0
M  V30 3737 H 349.314 -2.18715 3.41934 0
M  V30 3738 H 350.08 -0.155458 4.84751 0
M  V30 3739 H 345.959 -1.30524 4.42136 0
M  V30 3740 H 349.503 1.111 6.88696 0
M  V30 3741 H 345.4 -0.0455636 6.45484 0
M  V30 3742 H 346.168 1.23077 8.09194 0
M  V30 3743 N 348.832 -1.54138 -0.328536 0
M  V30 3744 C 349.762 -1.86167 -1.40939 0
M  V30 3745 C 350.743 -0.718044 -1.54202 0
M  V30 3746 O 351.928 -0.971328 -1.68163 0
M  V30 3747 C 349.058 -2.08461 -2.77779 0
M  V30 3748 C 348.012 -3.24299 -2.7931 0
M  V30 3749 C 347.338 -3.31955 -4.19178 0
M  V30 3750 C 348.638 -4.62065 -2.43502 0
M  V30 3751 H 350.332 -2.76689 -1.14383 0
M  V30 3752 H 347.878 -1.33132 -0.548806 0
M  V30 3753 H 349.831 -2.29453 -3.53454 0
M  V30 3754 H 348.555 -1.14684 -3.05802 0
M  V30 3755 H 347.214 -3.03187 -2.0609 0
M  V30 3756 H 346.862 -2.35745 -4.44335 0
M  V30 3757 H 346.562 -4.09805 -4.2111 0
M  V30 3758 H 348.086 -3.55175 -4.96672 0
M  V30 3759 H 349.5 -4.8297 -3.08889 0
M  V30 3760 H 347.897 -5.42429 -2.56693 0
M  V30 3761 H 348.967 -4.64652 -1.38659 0
M  V30 3762 N 350.31 0.590341 -1.46126 0
M  V30 3763 C 351.22 1.72793 -1.58681 0
M  V30 3764 C 352.236 1.67516 -0.470566 0
M  V30 3765 O 353.412 1.87562 -0.733642 0
M  V30 3766 C 350.477 3.09287 -1.5666 0
M  V30 3767 C 349.538 3.25886 -2.79458 0
M  V30 3768 C 348.771 4.55869 -2.77524 0
M  V30 3769 O 348.994 5.3928 -1.85832 0
M  V30 3770 O 347.928 4.75552 -3.68964 0
M  V30 3771 H 351.754 1.65149 -2.54872 0
M  V30 3772 H 349.339 0.756486 -1.28832 0
M  V30 3773 H 351.221 3.90577 -1.58202 0
M  V30 3774 H 349.896 3.17385 -0.636271 0
M  V30 3775 H 348.803 2.44119 -2.83472 0
M  V30 3776 H 350.136 3.22675 -3.71674 0
M  V30 3777 N 351.788 1.33704 0.83433 0
M  V30 3778 C 353.018 1.28281 1.6195 0
M  V30 3779 C 353.426 -0.147603 1.88623 0
M  V30 3780 O 352.769 -1.1016 1.47005 0
M  V30 3781 C 352.831 1.99386 2.99141 0
M  V30 3782 C 352.495 3.48681 2.95416 0
M  V30 3783 C 353.492 4.438 2.70809 0
M  V30 3784 C 351.177 3.90925 3.15409 0
M  V30 3785 C 353.171 5.79138 2.66229 0
M  V30 3786 C 350.858 5.26366 3.10454 0
M  V30 3787 C 351.856 6.20284 2.85895 0
M  V30 3788 O 351.544 7.53245 2.80852 0
M  V30 3789 H 351.276 0.44315 0.510484 0
M  V30 3790 H 353.83 1.76711 1.04702 0
M  V30 3791 H 352.06 1.45554 3.58261 0
M  V30 3792 H 353.749 1.87403 3.60049 0
M  V30 3793 H 354.515 4.12485 2.5511 0
M  V30 3794 H 350.394 3.18229 3.33543 0
M  V30 3795 H 353.938 6.52416 2.4698 0
M  V30 3796 H 349.835 5.57304 3.25703 0
M  V30 3797 H 350.603 7.62846 2.96661 0
M  V30 3798 N 353.266 -1.05314 1.17247 0
M  V30 3799 C 354.513 -1.78293 0.960091 0
M  V30 3800 C 354.841 -1.87658 -0.51136 0
M  V30 3801 O 354.096 -1.3718 -1.39571 0
M  V30 3802 C 354.395 -3.2229 1.54479 0
M  V30 3803 C 354.061 -3.32987 3.04024 0
M  V30 3804 C 352.723 -3.35613 3.44844 0
M  V30 3805 C 355.075 -3.34102 4.00031 0
M  V30 3806 C 352.403 -3.36982 4.8027 0
M  V30 3807 C 354.755 -3.3701 5.35357 0
M  V30 3808 C 353.419 -3.37923 5.75642 0
M  V30 3809 H 352.689 -0.652422 0.351322 0
M  V30 3810 H 355.336 -1.23782 1.46117 0
M  V30 3811 H 353.641 -3.7972 0.965391 0
M  V30 3812 H 355.338 -3.77376 1.35603 0
M  V30 3813 H 351.928 -3.31655 2.71483 0
M  V30 3814 H 356.112 -3.31276 3.69554 0
M  V30 3815 H 351.368 -3.35999 5.10798 0
M  V30 3816 H 355.542 -3.36822 6.09528 0
M  V30 3817 H 353.169 -3.38738 6.80559 0
M  V30 3818 N 354.744 -0.972509 -1.24016 0
M  V30 3819 C 355.99 -0.637978 -1.92504 0
M  V30 3820 C 356.323 0.825383 -1.75787 0
M  V30 3821 O 355.598 1.59442 -1.11393 0
M  V30 3822 C 355.881 -1.01942 -3.45369 0
M  V30 3823 C 355.734 -2.53983 -3.71231 0
M  V30 3824 C 357.053 -0.55751 -4.36555 0
M  V30 3825 H 354.172 -0.233248 -0.699117 0
M  V30 3826 H 356.814 -1.21238 -1.46292 0
M  V30 3827 H 354.964 -0.530656 -3.84859 0
M  V30 3828 H 356.636 -3.10374 -3.41271 0
M  V30 3829 H 354.879 -2.96968 -3.16216 0
M  V30 3830 H 355.55 -2.75723 -4.78206 0
M  V30 3831 H 358.026 -0.977029 -4.04467 0
M  V30 3832 H 356.902 -0.85292 -5.42233 0
M  V30 3833 H 357.163 0.542328 -4.38761 0
M  V30 3834 N 356.222 1.38976 -0.743202 0
M  V30 3835 C 357.471 1.99581 -0.291592 0
M  V30 3836 C 357.784 1.59656 1.13001 0
M  V30 3837 O 358.99 2.13157 1.68156 0
M  V30 3838 C 357.446 3.56813 -0.470391 0
M  V30 3839 C 357.054 4.05695 -1.90041 0
M  V30 3840 C 358.798 4.24423 -0.0809709 0
M  V30 3841 C 356.705 5.5553 -2.02832 0
M  V30 3842 H 355.635 0.746615 -0.105272 0
M  V30 3843 H 358.286 1.58872 -0.918258 0
M  V30 3844 H 356.668 3.95359 0.225299 0
M  V30 3845 H 357.842 3.78464 -2.62872 0
M  V30 3846 H 356.157 3.50775 -2.24379 0
M  V30 3847 H 358.754 5.34474 -0.155445 0
M  V30 3848 H 359.097 4.04962 0.96497 0
M  V30 3849 H 359.63 3.9108 -0.728124 0
M  V30 3850 H 356.369 5.79881 -3.05643 0
M  V30 3851 H 355.889 5.84537 -1.34448 0
M  V30 3852 H 357.568 6.21069 -1.81335 0
M  V30 3853 N 357.7 0.491464 1.49741 0
M  V30 3854 C 358.977 -0.118984 1.95238 0
M  V30 3855 C 359.357 -1.55044 1.43264 0
M  V30 3856 O 358.705 -2.19287 0.642287 0
M  V30 3857 C 358.915 -0.0414187 3.48975 0
M  V30 3858 C 360.263 -0.220133 4.24029 0
M  V30 3859 O 361.287 -0.117055 3.56008 0
M  V30 3860 O 360.146 -0.430567 5.44801 0
M  V30 3861 H 357.24 -0.100536 0.820866 0
M  V30 3862 H 359.786 0.553322 1.60426 0
M  V30 3863 H 358.558 0.957214 3.79412 0
M  V30 3864 H 358.181 -0.754292 3.9038 0
M  V30 3865 N 359.178 -1.55987 0.224894 0
M  V30 3866 C 360.426 -1.97998 -0.405099 0
M  V30 3867 C 360.747 -1.11387 -1.60056 0
M  V30 3868 O 360.017 -0.191645 -1.9496 0
M  V30 3869 H 358.597 -0.731235 -0.152658 0
M  V30 3870 H 361.259 -1.92279 0.318567 0
M  V30 3871 H 360.355 -3.03463 -0.729167 0
M  V30 3872 N 360.656 0.0484629 -1.57525 0
M  V30 3873 C 362.067 0.597486 -1.76881 0
M  V30 3874 C 362.418 1.76664 -0.853475 0
M  V30 3875 O 361.543 2.16357 -0.0433656 0
M  V30 3876 C 362.138 1.09066 -3.20765 0
M  V30 3877 C 360.697 1.58535 -3.41385 0
M  V30 3878 C 359.844 0.514868 -2.72478 0
M  V30 3879 H 362.795 -0.177758 -1.57701 0
M  V30 3880 H 362.816 1.95875 -3.2621 0
M  V30 3881 H 362.328 0.239521 -3.8736 0
M  V30 3882 H 360.429 2.45898 -2.79937 0
M  V30 3883 H 360.542 1.64622 -4.49929 0
M  V30 3884 H 358.906 0.965407 -2.35695 0
M  V30 3885 H 359.689 -0.32648 -3.41744 0
M  V30 3886 N 362.134 1.5431 0.320358 0
M  V30 3887 C 363.362 1.76636 1.07738 0
M  V30 3888 C 363.777 0.51649 1.81598 0
M  V30 3889 O 363.134 -0.512942 1.75143 0
M  V30 3890 C 363.185 2.96158 2.07299 0
M  V30 3891 O 362.906 4.16313 1.36438 0
M  V30 3892 C 364.407 3.3072 2.95193 0
M  V30 3893 H 361.627 0.589597 0.320339 0
M  V30 3894 H 364.171 2.01207 0.36551 0
M  V30 3895 H 362.326 2.73851 2.74016 0
M  V30 3896 H 362.74 4.83565 2.03138 0
M  V30 3897 H 364.214 4.17643 3.60941 0
M  V30 3898 H 364.691 2.48026 3.62463 0
M  V30 3899 H 365.297 3.55117 2.34034 0
M  V30 3900 N 363.613 -0.582584 1.46437 0
M  V30 3901 C 365.024 -1.1647 1.45916 0
M  V30 3902 C 365.375 -1.95177 0.200077 0
M  V30 3903 O 364.5 -2.04874 -0.696819 0
M  V30 3904 C 365.095 -2.11885 2.64367 0
M  V30 3905 C 363.654 -2.65421 2.66887 0
M  V30 3906 C 362.801 -1.41294 2.38603 0
M  V30 3907 H 365.752 -0.370514 1.54314 0
M  V30 3908 H 365.773 -2.9535 2.39892 0
M  V30 3909 H 365.285 -1.54573 3.5599 0
M  V30 3910 H 363.386 -3.26602 1.79338 0
M  V30 3911 H 363.499 -3.08147 3.66854 0
M  V30 3912 H 361.863 -1.71109 1.88663 0
M  V30 3913 H 362.646 -0.858125 3.32402 0
M  V30 3914 N 365.091 -1.34144 -0.827227 0
M  V30 3915 C 366.038 -1.25364 -1.93785 0
M  V30 3916 C 367.008 -0.129774 -1.65592 0
M  V30 3917 O 368.193 -0.310024 -1.88264 0
M  V30 3918 C 365.333 -1.01064 -3.2997 0
M  V30 3919 C 364.446 -2.22185 -3.70484 0
M  V30 3920 C 363.581 -1.91203 -4.95595 0
M  V30 3921 C 362.62 -3.08491 -5.28677 0
M  V30 3922 N 361.757 -2.77421 -6.44967 0
M  V30 3923 H 366.597 -2.20347 -2.00627 0
M  V30 3924 H 364.134 -1.09558 -0.981608 0
M  V30 3925 H 366.092 -0.850139 -4.08446 0
M  V30 3926 H 364.722 -0.0975026 -3.22653 0
M  V30 3927 H 363.774 -2.4917 -2.87434 0
M  V30 3928 H 365.086 -3.0983 -3.90905 0
M  V30 3929 H 364.24 -1.71864 -5.81848 0
M  V30 3930 H 362.979 -1.00812 -4.77167 0
M  V30 3931 H 361.984 -3.28431 -4.40923 0
M  V30 3932 H 363.209 -3.99655 -5.49047 0
M  V30 3933 H 361.155 -1.89601 -6.28003 0
M  V30 3934 H 361.072 -3.58598 -6.6554 0
M  V30 3935 H 362.34 -2.61577 -7.34301 0
M  V30 3936 N 366.569 1.04691 -1.17803 0
M  V30 3937 C 367.532 2.10724 -0.901545 0
M  V30 3938 C 368.532 1.6042 0.110437 0
M  V30 3939 O 369.722 1.7377 -0.122303 0
M  V30 3940 C 366.854 3.39084 -0.351409 0
M  V30 3941 H 368.047 2.36686 -1.84174 0
M  V30 3942 H 365.6 1.21015 -0.98919 0
M  V30 3943 H 366.335 3.18782 0.59569 0
M  V30 3944 H 366.12 3.76909 -1.08083 0
M  V30 3945 H 367.61 4.17227 -0.176451 0
M  V30 3946 N 368.047 0.979072 1.23499 0
M  V30 3947 C 369.293 0.648178 1.92163 0
M  V30 3948 C 369.626 -0.816049 1.76222 0
M  V30 3949 O 368.901 -1.58849 1.12237 0
M  V30 3950 C 369.184 1.03773 3.44824 0
M  V30 3951 C 369.037 2.55948 3.69879 0
M  V30 3952 C 370.356 0.580653 4.36253 0
M  V30 3953 H 367.475 0.236952 0.69787 0
M  V30 3954 H 370.117 1.22012 1.45647 0
M  V30 3955 H 368.267 0.551058 3.84572 0
M  V30 3956 H 369.939 3.12179 3.3962 0
M  V30 3957 H 368.182 2.98641 3.14636 0
M  V30 3958 H 368.853 2.78255 4.76737 0
M  V30 3959 H 371.329 0.998465 4.03943 0
M  V30 3960 H 370.205 0.881663 5.41773 0
M  V30 3961 H 370.466 -0.519052 4.39042 0
M  V30 3962 N 369.525 -1.3858 0.750561 0
M  V30 3963 C 370.455 -2.33102 0.136237 0
M  V30 3964 C 371.436 -1.54713 -0.706965 0
M  V30 3965 O 372.621 -1.83043 -0.648769 0
M  V30 3966 C 369.751 -3.38882 -0.760017 0
M  V30 3967 C 368.705 -4.27995 -0.0197785 0
M  V30 3968 C 368.031 -5.24605 -1.03408 0
M  V30 3969 C 369.331 -5.09554 1.14684 0
M  V30 3970 H 371.025 -2.84726 0.925822 0
M  V30 3971 H 368.571 -1.36898 0.446654 0
M  V30 3972 H 370.524 -4.0397 -1.19943 0
M  V30 3973 H 369.248 -2.85734 -1.58189 0
M  V30 3974 H 367.907 -3.64409 0.400184 0
M  V30 3975 H 367.555 -4.67746 -1.84994 0
M  V30 3976 H 367.255 -5.85081 -0.543464 0
M  V30 3977 H 368.779 -5.9257 -1.47288 0
M  V30 3978 H 370.193 -5.67899 0.785118 0
M  V30 3979 H 368.59 -5.7925 1.56812 0
M  V30 3980 H 369.66 -4.4347 1.96118 0
M  V30 3981 N 371.003 -0.499398 -1.49478 0
M  V30 3982 C 372.28 0.108629 -1.95298 0
M  V30 3983 C 372.66 1.54282 -1.44084 0
M  V30 3984 O 372.008 2.18944 -0.653908 0
M  V30 3985 C 372.218 0.0229111 -3.48992 0
M  V30 3986 C 373.566 0.197643 -4.2414 0
M  V30 3987 O 374.59 0.0981735 -3.56065 0
M  V30 3988 O 373.449 0.401669 -5.45022 0
M  V30 3989 H 370.543 0.096181 -0.821388 0
M  V30 3990 H 373.089 -0.561822 -1.6013 0
M  V30 3991 H 371.861 -0.977321 -3.78899 0
M  V30 3992 H 371.484 0.733579 -3.90774 0
M  V30 3993 N 372.481 1.55866 -0.233164 0
M  V30 3994 C 373.897 1.59133 0.121988 0
M  V30 3995 C 374.097 1.25016 1.58029 0
M  V30 3996 O 373.153 0.990922 2.32243 0
M  V30 3997 C 374.466 2.99932 -0.214792 0
M  V30 3998 C 376.014 3.12601 -0.157971 0
M  V30 3999 C 376.489 4.55597 -0.46859 0
M  V30 4000 N 377.98 4.61305 -0.418585 0
M  V30 4001 C 378.715 5.69903 -0.63227 0
M  V30 4002 N 378.211 6.86819 -0.90835 0
M  V30 4003 N 380.004 5.59264 -0.563913 0
M  V30 4004 H 372.155 1.76315 -1.18434 0
M  V30 4005 H 374.418 0.820093 -0.475553 0
M  V30 4006 H 374.124 3.29588 -1.22739 0
M  V30 4007 H 373.998 3.74327 0.464691 0
M  V30 4008 H 376.385 2.82735 0.845283 0
M  V30 4009 H 376.466 2.40511 -0.871102 0
M  V30 4010 H 376.11 4.86182 -1.46934 0
M  V30 4011 H 376.04 5.25928 0.265865 0
M  V30 4012 H 378.531 3.77297 -0.213368 0
M  V30 4013 H 378.844 7.65507 -1.05919 0
M  V30 4014 H 377.189 6.88536 -0.945673 0
M  V30 4015 H 380.38 4.66802 -0.348372 0
M  V30 4016 H 380.553 6.43831 -0.733847 0
M  V30 4017 N 373.959 -0.0401083 1.57549 0
M  V30 4018 C 375.189 -0.744115 1.92734 0
M  V30 4019 C 375.597 -1.70005 0.830348 0
M  V30 4020 O 374.94 -1.82576 -0.20286 0
M  V30 4021 C 375.002 -1.56516 3.2364 0
M  V30 4022 C 374.666 -0.7752 4.50377 0
M  V30 4023 C 375.663 -0.0803326 5.19838 0
M  V30 4024 C 373.348 -0.733002 4.96923 0
M  V30 4025 C 375.342 0.646154 6.34116 0
M  V30 4026 C 373.029 -0.00276321 6.111 0
M  V30 4027 C 374.027 0.685585 6.7955 0
M  V30 4028 O 373.715 1.40399 7.91545 0
M  V30 4029 H 373.447 -0.214861 0.640945 0
M  V30 4030 H 376.001 -0.00503675 2.05399 0
M  V30 4031 H 374.231 -2.3478 3.07271 0
M  V30 4032 H 375.92 -2.15076 3.44234 0
M  V30 4033 H 376.686 -0.104035 4.84888 0
M  V30 4034 H 372.565 -1.25827 4.43496 0
M  V30 4035 H 376.109 1.18398 6.87479 0
M  V30 4036 H 372.006 0.0229012 6.45496 0
M  V30 4037 H 372.774 1.31653 8.07843 0
M  V30 4038 N 375.437 -1.54477 -0.31217 0
M  V30 4039 C 376.665 -1.77205 -1.068 0
M  V30 4040 C 377.08 -0.526114 -1.81321 0
M  V30 4041 O 376.437 0.503647 -1.75413 0
M  V30 4042 C 376.488 -2.97253 -2.05725 0
M  V30 4043 O 376.209 -4.1703 -1.34228 0
M  V30 4044 C 377.71 -3.32281 -2.93435 0
M  V30 4045 H 374.93 -0.591287 -0.317208 0
M  V30 4046 H 377.474 -2.01398 -0.354834 0
M  V30 4047 H 375.629 -2.753 -2.72559 0
M  V30 4048 H 376.043 -4.84636 -2.00571 0
M  V30 4049 H 377.517 -4.19551 -3.58721 0
M  V30 4050 H 377.994 -2.49945 -3.61143 0
M  V30 4051 H 378.6 -3.56353 -2.32147 0
M  V30 4052 N 376.915 0.57481 -1.46744 0
M  V30 4053 C 378.331 0.898981 -1.31873 0
M  V30 4054 C 378.531 1.99313 -0.29605 0
M  V30 4055 O 377.587 2.50728 0.298621 0
M  V30 4056 C 378.9 1.30886 -2.7072 0
M  V30 4057 C 380.448 1.42127 -2.78871 0
M  V30 4058 C 380.923 1.86478 -4.18318 0
M  V30 4059 N 382.414 1.93658 -4.20774 0
M  V30 4060 C 383.149 2.29267 -5.2557 0
M  V30 4061 N 382.645 2.63612 -6.40688 0
M  V30 4062 N 384.438 2.29889 -5.1294 0
M  V30 4063 H 376.589 -0.147839 -2.11885 0
M  V30 4064 H 378.852 -0.00347013 -0.947994 0
M  V30 4065 H 378.558 0.578853 -3.46904 0
M  V30 4066 H 378.432 2.26874 -3.01343 0
M  V30 4067 H 380.819 2.14213 -2.0297 0
M  V30 4068 H 380.9 0.443705 -2.51922 0
M  V30 4069 H 380.544 1.14968 -4.94717 0
M  V30 4070 H 380.474 2.85207 -4.42679 0
M  V30 4071 H 382.965 1.69574 -3.37718 0
M  V30 4072 H 383.278 2.89759 -7.16421 0
M  V30 4073 H 381.623 2.61232 -6.44036 0
M  V30 4074 H 384.814 2.02485 -4.22039 0
M  V30 4075 H 384.987 2.57312 -5.94722 0
M  V30 4076 N 378.394 1.34581 0.820102 0
M  V30 4077 C 379.641 1.27096 1.57648 0
M  V30 4078 C 379.969 -0.158317 1.93855 0
M  V30 4079 O 379.224 -1.12028 1.60463 0
M  V30 4080 C 379.523 2.10997 2.8847 0
M  V30 4081 C 379.189 3.59966 2.71543 0
M  V30 4082 C 377.851 4.00575 2.66634 0
M  V30 4083 C 380.203 4.54548 2.55021 0
M  V30 4084 C 377.531 5.33953 2.43128 0
M  V30 4085 C 379.883 5.88109 2.33047 0
M  V30 4086 C 378.547 6.27878 2.26552 0
M  V30 4087 H 377.817 0.465078 0.576874 0
M  V30 4088 H 380.464 1.6635 0.948671 0
M  V30 4089 H 378.769 1.6458 3.55557 0
M  V30 4090 H 380.466 2.0255 3.46084 0
M  V30 4091 H 377.056 3.27733 2.76205 0
M  V30 4092 H 381.24 4.24069 2.57835 0
M  V30 4093 H 376.496 5.63781 2.3656 0
M  V30 4094 H 380.67 6.60985 2.19251 0
M  V30 4095 H 378.297 7.31162 2.081 0
M  V30 4096 N 379.872 -1.04064 1.18357 0
M  V30 4097 C 381.1 -1.80916 1.00384 0
M  V30 4098 C 381.515 -1.83414 -0.447738 0
M  V30 4099 O 380.872 -1.26962 -1.31099 0
M  V30 4100 C 380.923 -3.26516 1.55144 0
M  V30 4101 O 380.644 -3.2424 2.94618 0
M  V30 4102 C 382.145 -4.20013 1.41789 0
M  V30 4103 H 379.365 -0.569728 0.354474 0
M  V30 4104 H 381.909 -1.31151 1.56906 0
M  V30 4105 H 380.064 -3.73512 1.02798 0
M  V30 4106 H 380.478 -4.15452 3.20156 0
M  V30 4107 H 381.952 -5.20111 1.84901 0
M  V30 4108 H 382.429 -4.37667 0.36661 0
M  V30 4109 H 383.035 -3.78881 1.93207 0
M  V30 4110 N 381.35 -0.985608 -1.22978 0
M  V30 4111 C 382.598 -0.656087 -1.91154 0
M  V30 4112 C 382.919 0.813561 -1.77218 0
M  V30 4113 O 382.189 1.58244 -1.1548 0
M  V30 4114 H 380.769 -0.239674 -0.707506 0
M  V30 4115 H 383.431 -1.25054 -1.49491 0
M  V30 4116 H 382.527 -0.912253 -2.9847 0
M  V30 4117 N 382.828 1.3818 -0.7579 0
M  V30 4118 C 384.244 1.5353 -0.435972 0
M  V30 4119 C 384.444 1.71961 1.05032 0
M  V30 4120 O 383.5 1.73307 1.83633 0
M  V30 4121 C 384.813 2.73989 -1.23898 0
M  V30 4122 C 386.361 2.87841 -1.22949 0
M  V30 4123 C 386.836 4.11266 -2.01554 0
M  V30 4124 N 388.327 4.18352 -1.98837 0
M  V30 4125 C 389.062 5.12856 -2.5645 0
M  V30 4126 N 388.558 6.13005 -3.22794 0
M  V30 4127 N 390.351 5.05238 -2.46356 0
M  V30 4128 H 382.502 1.24467 -1.7211 0
M  V30 4129 H 384.765 0.604982 -0.729864 0
M  V30 4130 H 384.471 2.66789 -2.29165 0
M  V30 4131 H 384.345 3.67294 -0.858764 0
M  V30 4132 H 386.732 2.9452 -0.184854 0
M  V30 4133 H 386.813 1.95534 -1.64924 0
M  V30 4134 H 386.457 4.05349 -3.06031 0
M  V30 4135 H 386.387 5.02661 -1.5697 0
M  V30 4136 H 388.878 3.46628 -1.50524 0
M  V30 4137 H 389.191 6.81619 -3.64165 0
M  V30 4138 H 387.536 6.13325 -3.2689 0
M  V30 4139 H 390.727 4.25938 -1.9415 0
M  V30 4140 H 390.9 5.78707 -2.91552 0
M  V30 4141 N 384.306 0.507319 1.49211 0
M  V30 4142 C 385.717 0.0611118 1.866 0
M  V30 4143 C 386.068 -1.35488 1.41907 0
M  V30 4144 O 385.193 -2.0108 0.799726 0
M  V30 4145 C 385.788 0.104125 3.3864 0
M  V30 4146 C 384.347 -0.28677 3.75306 0
M  V30 4147 C 383.494 0.473893 2.73221 0
M  V30 4148 H 386.445 0.719775 1.41439 0
M  V30 4149 H 386.466 -0.689672 3.74198 0
M  V30 4150 H 385.978 1.13482 3.71138 0
M  V30 4151 H 384.079 -1.32046 3.48417 0
M  V30 4152 H 384.192 0.0370745 4.79086 0
M  V30 4153 H 382.556 -0.0770644 2.54583 0
M  V30 4154 H 383.339 1.50478 3.08563 0
M  V30 4155 N 385.784 -1.5574 0.241426 0
M  V30 4156 C 386.747 -2.19877 -0.647063 0
M  V30 4157 C 387.747 -1.16642 -1.10686 0
M  V30 4158 O 388.937 -1.41757 -1.01245 0
M  V30 4159 C 386.069 -2.83797 -1.88871 0
M  V30 4160 H 387.262 -2.99772 -0.087574 0
M  V30 4161 H 384.815 -1.56298 -0.00813574 0
M  V30 4162 H 385.55 -2.07824 -2.48957 0
M  V30 4163 H 385.335 -3.59414 -1.56728 0
M  V30 4164 H 386.825 -3.32898 -2.52129 0
M  V30 4165 N 387.262 0.0317525 -1.57568 0
M  V30 4166 C 388.192 1.03274 -2.0942 0
M  V30 4167 C 389.173 1.3788 -0.996143 0
M  V30 4168 O 390.358 1.46811 -1.27122 0
M  V30 4169 C 387.488 2.33448 -2.57137 0
M  V30 4170 C 386.442 2.13091 -3.71182 0
M  V30 4171 C 385.768 3.49001 -4.05095 0
M  V30 4172 C 387.068 1.51928 -4.99715 0
M  V30 4173 H 388.762 0.60112 -2.93303 0
M  V30 4174 H 386.308 0.287705 -1.41097 0
M  V30 4175 H 388.261 3.03802 -2.92032 0
M  V30 4176 H 386.985 2.78665 -1.70333 0
M  V30 4177 H 385.644 1.45171 -3.36632 0
M  V30 4178 H 385.292 3.91862 -3.15362 0
M  V30 4179 H 384.992 3.36207 -4.81911 0
M  V30 4180 H 386.516 4.20721 -4.42522 0
M  V30 4181 H 387.93 2.12196 -5.32584 0
M  V30 4182 H 386.327 1.49716 -5.81124 0
M  V30 4183 H 387.397 0.484811 -4.8247 0
M  V30 4184 N 388.74 1.54641 0.303973 0
M  V30 4185 C 390.151 1.64811 0.877163 0
M  V30 4186 C 390.502 0.554838 1.88191 0
M  V30 4187 O 389.627 -0.309033 2.14182 0
M  V30 4188 C 390.222 2.9876 1.59775 0
M  V30 4189 C 388.781 3.11061 2.11938 0
M  V30 4190 C 387.928 2.60479 0.951097 0
M  V30 4191 H 390.879 1.58493 0.0810486 0
M  V30 4192 H 390.9 2.90017 2.46314 0
M  V30 4193 H 390.412 3.7831 0.866226 0
M  V30 4194 H 388.513 2.36225 2.88146 0
M  V30 4195 H 388.626 4.17171 2.35595 0
M  V30 4196 H 386.99 2.16859 1.33583 0
M  V30 4197 H 387.773 3.42504 0.233581 0
M  V30 4198 N 390.218 -0.567019 1.47046 0
M  V30 4199 C 391.629 -1.14916 1.47143 0
M  V30 4200 C 391.98 -1.94954 0.220767 0
M  V30 4201 O 391.105 -2.05602 -0.67505 0
M  V30 4202 C 391.7 -2.09069 2.666 0
M  V30 4203 C 390.259 -2.62575 2.69687 0
M  V30 4204 C 389.406 -1.38755 2.40088 0
M  V30 4205 H 392.357 -0.354126 1.54699 0
M  V30 4206 H 392.378 -2.92789 2.43011 0
M  V30 4207 H 391.89 -1.50789 3.57609 0
M  V30 4208 H 389.991 -3.24681 1.82792 0
M  V30 4209 H 390.104 -3.04239 3.70102 0
M  V30 4210 H 388.468 -1.69098 1.90468 0
M  V30 4211 H 389.251 -0.822822 3.33293 0
M  V30 4212 N 391.696 -1.35014 -0.812953 0
M  V30 4213 C 392.659 -1.27292 -1.90602 0
M  V30 4214 C 393.659 -0.185817 -1.59723 0
M  V30 4215 O 394.849 -0.439102 -1.68575 0
M  V30 4216 C 391.981 -0.967676 -3.26877 0
M  V30 4217 H 393.174 -2.24479 -1.9887 0
M  V30 4218 H 390.727 -1.19446 -1.00808 0
M  V30 4219 H 391.462 0.0005954 -3.243 0
M  V30 4220 H 391.247 -1.75412 -3.50675 0
M  V30 4221 H 392.737 -0.939085 -4.06904 0
M  V30 4222 N 393.175 1.03435 -1.18907 0
M  V30 4223 C 394.421 1.7713 -0.99982 0
M  V30 4224 C 394.776 1.86695 0.465049 0
M  V30 4225 O 394.069 1.36866 1.34083 0
M  V30 4226 C 394.263 3.19792 -1.59586 0
M  V30 4227 C 394.092 3.24134 -3.11717 0
M  V30 4228 C 392.862 3.32398 -3.80578 0
M  V30 4229 C 395.06 3.11625 -4.09138 0
M  V30 4230 N 393.042 3.26055 -5.20155 0
M  V30 4231 C 394.413 3.12855 -5.35277 0
M  V30 4232 C 396.468 2.95713 -4.00572 0
M  V30 4233 C 395.171 2.99805 -6.53842 0
M  V30 4234 C 397.197 2.84011 -5.1874 0
M  V30 4235 C 396.559 2.8589 -6.43775 0
M  V30 4236 H 392.658 0.659683 -0.419931 0
M  V30 4237 H 395.242 1.2317 -1.50789 0
M  V30 4238 H 393.413 3.72085 -1.11389 0
M  V30 4239 H 395.145 3.81819 -1.3415 0
M  V30 4240 H 391.9 3.38392 -3.31342 0
M  V30 4241 H 392.324 3.26307 -5.93172 0
M  V30 4242 H 396.966 2.93086 -3.0473 0
M  V30 4243 H 394.684 3.01184 -7.49876 0
M  V30 4244 H 398.27 2.72744 -5.13909 0
M  V30 4245 H 397.15 2.76931 -7.33675 0
M  V30 4246 N 394.653 0.992116 1.22453 0
M  V30 4247 C 395.878 0.685644 1.95739 0
M  V30 4248 C 396.303 -0.743 1.72804 0
M  V30 4249 O 395.661 -1.50778 1.00676 0
M  V30 4250 C 395.709 0.996293 3.46564 0
M  V30 4251 O 394.813 0.0945512 4.12292 0
M  V30 4252 H 394.154 0.256694 0.612376 0
M  V30 4253 H 396.684 1.32888 1.5557 0
M  V30 4254 H 396.694 0.93781 3.97076 0
M  V30 4255 H 395.369 2.03733 3.62582 0
M  V30 4256 H 393.946 0.208451 3.72317 0
M  V30 4257 N 396.131 -1.37776 0.765217 0
M  V30 4258 C 397.378 -1.99849 0.326588 0
M  V30 4259 C 397.706 -1.60746 -1.09504 0
M  V30 4260 O 396.961 -0.84202 -1.76659 0
M  V30 4261 C 397.26 -3.5504 0.410053 0
M  V30 4262 C 396.926 -4.13891 1.78899 0
M  V30 4263 C 395.588 -4.29678 2.16635 0
M  V30 4264 C 397.94 -4.46236 2.69301 0
M  V30 4265 C 395.268 -4.7511 3.44221 0
M  V30 4266 C 397.62 -4.93089 3.9629 0
M  V30 4267 C 396.284 -5.07082 4.34078 0
M  V30 4268 H 395.554 -0.7313 0.119507 0
M  V30 4269 H 398.201 -1.64645 0.977968 0
M  V30 4270 H 396.506 -3.90451 -0.324878 0
M  V30 4271 H 398.203 -4.00966 0.0520699 0
M  V30 4272 H 394.793 -4.02026 1.48569 0
M  V30 4273 H 398.977 -4.3363 2.41409 0
M  V30 4274 H 394.233 -4.84129 3.73402 0
M  V30 4275 H 398.407 -5.17084 4.66472 0
M  V30 4276 H 396.034 -5.42046 5.33001 0
M  V30 4277 N 397.609 -0.515225 -1.4894 0
M  V30 4278 C 398.857 0.0241671 -2.02086 0
M  V30 4279 C 399.178 1.3616 -1.3959 0
M  V30 4280 O 398.448 1.87841 -0.556121 0
M  V30 4281 H 397.028 0.0119203 -0.746905 0
M  V30 4282 H 399.69 -0.675702 -1.82812 0
M  V30 4283 H 398.786 0.143385 -3.1177 0
M  V30 4284 N 399.087 1.5561 -0.249682 0
M  V30 4285 C 400.017 2.24477 0.642826 0
M  V30 4286 C 400.998 1.22601 1.17911 0
M  V30 4287 O 402.183 1.5126 1.21795 0
M  V30 4288 C 399.313 2.94638 1.83863 0
M  V30 4289 C 398.267 4.03227 1.435 0
M  V30 4290 C 397.593 4.60828 2.71186 0
M  V30 4291 C 398.893 5.18796 0.604002 0
M  V30 4292 H 400.587 2.99321 0.0685625 0
M  V30 4293 H 398.133 1.43965 0.0315363 0
M  V30 4294 H 400.086 3.41517 2.46868 0
M  V30 4295 H 398.81 2.17287 2.43832 0
M  V30 4296 H 397.469 3.57121 0.828275 0
M  V30 4297 H 397.117 3.80174 3.29358 0
M  V30 4298 H 396.817 5.34132 2.44901 0
M  V30 4299 H 398.341 5.10442 3.35084 0
M  V30 4300 H 399.755 5.61883 1.13842 0
M  V30 4301 H 398.152 5.98506 0.437097 0
M  V30 4302 H 399.222 4.83384 -0.383147 0
M  V30 4303 N 400.565 -0.0233959 1.57583 0
M  V30 4304 C 401.811 -0.708611 1.90657 0
M  V30 4305 C 402.166 -1.7266 0.848895 0
M  V30 4306 O 401.459 -1.91075 -0.141749 0
M  V30 4307 C 401.653 -1.41428 3.28227 0
M  V30 4308 C 401.482 -0.466155 4.47277 0
M  V30 4309 C 400.252 -0.085117 5.05228 0
M  V30 4310 C 402.45 0.257836 5.13653 0
M  V30 4311 N 400.432 0.863672 6.07794 0
M  V30 4312 C 401.803 1.06209 6.10835 0
M  V30 4313 C 403.858 0.324174 4.96844 0
M  V30 4314 C 402.561 1.9266 6.93018 0
M  V30 4315 C 404.587 1.17583 5.79593 0
M  V30 4316 C 403.949 1.96799 6.7635 0
M  V30 4317 H 400.048 -0.233222 0.746412 0
M  V30 4318 H 402.632 0.0314512 1.94675 0
M  V30 4319 H 400.803 -2.12477 3.25128 0
M  V30 4320 H 402.535 -2.05233 3.488 0
M  V30 4321 H 399.29 -0.448516 4.71471 0
M  V30 4322 H 399.714 1.33274 6.63752 0
M  V30 4323 H 404.356 -0.273975 4.21911 0
M  V30 4324 H 402.074 2.53552 7.67292 0
M  V30 4325 H 405.66 1.23076 5.68633 0
M  V30 4326 H 404.54 2.61635 7.39268 0
M  V30 4327 N 402.043 -1.548 -0.295768 0
M  V30 4328 C 402.973 -1.89115 -1.36959 0
M  V30 4329 C 403.954 -0.75059 -1.52644 0
M  V30 4330 O 405.139 -1.00678 -1.66065 0
M  V30 4331 C 402.269 -2.14307 -2.73295 0
M  V30 4332 C 401.223 -3.30151 -2.72368 0
M  V30 4333 C 400.549 -3.40772 -4.12042 0
M  V30 4334 C 401.849 -4.67126 -2.33646 0
M  V30 4335 H 403.543 -2.79053 -1.08488 0
M  V30 4336 H 401.089 -1.34266 -0.520443 0
M  V30 4337 H 403.042 -2.36898 -3.48507 0
M  V30 4338 H 401.766 -1.21145 -3.03301 0
M  V30 4339 H 400.425 -3.0749 -1.99613 0
M  V30 4340 H 400.073 -2.45117 -4.39234 0
M  V30 4341 H 399.773 -4.18645 -4.12322 0
M  V30 4342 H 401.297 -3.6563 -4.89027 0
M  V30 4343 H 402.711 -4.89414 -2.98575 0
M  V30 4344 H 401.108 -5.47751 -2.45129 0
M  V30 4345 H 402.178 -4.67489 -1.28772 0
M  V30 4346 N 403.521 0.559213 -1.47345 0
M  V30 4347 C 404.749 1.34194 -1.57479 0
M  V30 4348 C 405.164 1.87463 -0.224261 0
M  V30 4349 O 404.521 1.64888 0.782185 0
M  V30 4350 C 404.572 2.51324 -2.59843 0
M  V30 4351 O 404.293 2.00256 -3.89653 0
M  V30 4352 C 405.794 3.43563 -2.80142 0
M  V30 4353 H 403.014 0.409136 -0.531835 0
M  V30 4354 H 405.558 0.677609 -1.92947 0
M  V30 4355 H 403.713 3.13699 -2.27314 0
M  V30 4356 H 404.127 2.76708 -4.4557 0
M  V30 4357 H 405.601 4.2217 -3.55635 0
M  V30 4358 H 406.078 3.9698 -1.87892 0
M  V30 4359 H 406.684 2.87005 -3.1386 0
M  V30 4360 N 404.999 1.35443 0.805782 0
M  V30 4361 C 406.227 1.31878 1.59423 0
M  V30 4362 C 406.642 -0.103562 1.88516 0
M  V30 4363 O 405.999 -1.05575 1.48863 0
M  V30 4364 C 406.05 2.12426 2.92502 0
M  V30 4365 O 405.771 3.49115 2.6467 0
M  V30 4366 C 407.272 2.16455 3.86862 0
M  V30 4367 H 404.492 0.453002 0.495005 0
M  V30 4368 H 407.036 1.78309 1.00131 0
M  V30 4369 H 405.191 1.69593 3.48306 0
M  V30 4370 H 405.605 3.90957 3.49647 0
M  V30 4371 H 407.079 2.77204 4.77349 0
M  V30 4372 H 407.556 1.16352 4.23508 0
M  V30 4373 H 408.162 2.59453 3.36993 0
M  V30 4374 N 406.477 -1.02803 1.19454 0
M  V30 4375 C 407.702 -1.80378 1.02364 0
M  V30 4376 C 408.127 -1.83282 -0.423007 0
M  V30 4377 O 407.485 -1.25945 -1.30413 0
M  V30 4378 C 407.533 -3.23248 1.59821 0
M  V30 4379 O 406.637 -4.04 0.828105 0
M  V30 4380 H 405.978 -0.556799 0.361761 0
M  V30 4381 H 408.508 -1.29385 1.58495 0
M  V30 4382 H 408.518 -3.73994 1.63073 0
M  V30 4383 H 407.193 -3.2045 2.65113 0
M  V30 4384 H 405.77 -3.62635 0.86891 0
M  V30 4385 N 407.956 -0.998596 -1.21925 0
M  V30 4386 C 409.203 -0.677663 -1.90824 0
M  V30 4387 C 409.531 0.790905 -1.77693 0
M  V30 4388 O 408.786 1.58817 -1.14349 0
M  V30 4389 C 409.085 -1.03648 -3.42041 0
M  V30 4390 C 408.751 -2.49825 -3.75364 0
M  V30 4391 C 407.413 -2.8977 -3.8417 0
M  V30 4392 C 409.765 -3.44545 -3.91073 0
M  V30 4393 C 407.093 -4.23412 -4.06127 0
M  V30 4394 C 409.445 -4.77853 -4.14535 0
M  V30 4395 C 408.109 -5.17531 -4.21566 0
M  V30 4396 H 407.379 -0.247975 -0.698276 0
M  V30 4397 H 410.026 -1.25584 -1.44571 0
M  V30 4398 H 408.331 -0.376457 -3.89987 0
M  V30 4399 H 410.028 -0.766113 -3.93614 0
M  V30 4400 H 406.618 -2.17866 -3.69097 0
M  V30 4401 H 410.802 -3.14853 -3.83642 0
M  V30 4402 H 406.058 -4.53734 -4.09799 0
M  V30 4403 H 410.232 -5.51189 -4.25633 0
M  V30 4404 H 407.859 -6.21102 -4.38333 0
M  V30 4405 N 409.434 1.37368 -0.772513 0
M  V30 4406 C 410.662 2.03942 -0.348588 0
M  V30 4407 C 411.077 1.58264 1.02947 0
M  V30 4408 O 410.434 0.764246 1.65727 0
M  V30 4409 C 410.485 3.5946 -0.38351 0
M  V30 4410 O 410.206 4.03468 -1.70721 0
M  V30 4411 C 411.707 4.4327 0.0519152 0
M  V30 4412 H 408.927 0.654931 -0.145966 0
M  V30 4413 H 411.471 1.75686 -1.04665 0
M  V30 4414 H 409.626 3.86486 0.265978 0
M  V30 4415 H 410.04 4.97991 -1.64636 0
M  V30 4416 H 411.514 5.51995 -0.0236733 0
M  V30 4417 H 411.991 4.2514 1.10238 0
M  V30 4418 H 412.597 4.21471 -0.569415 0
M  V30 4419 N 410.912 0.523116 1.48665 0
M  V30 4420 C 412.14 -0.0096312 2.06898 0
M  V30 4421 C 412.555 -1.28784 1.38059 0
M  V30 4422 O 411.912 -1.76453 0.465893 0
M  V30 4423 C 411.963 -0.244386 3.60673 0
M  V30 4424 O 411.684 0.983172 4.26925 0
M  V30 4425 C 413.185 -0.818289 4.35682 0
M  V30 4426 H 410.405 0.0304161 0.67031 0
M  V30 4427 H 412.949 0.726799 1.91149 0
M  V30 4428 H 411.104 -0.930847 3.76051 0
M  V30 4429 H 411.518 0.759653 5.1897 0
M  V30 4430 H 412.992 -0.93201 5.44075 0
M  V30 4431 H 413.469 -1.82153 3.99646 0
M  V30 4432 H 414.075 -0.168609 4.24966 0
M  V30 4433 N 412.39 -1.55475 0.257931 0
M  V30 4434 C 413.338 -2.23244 -0.653076 0
M  V30 4435 C 414.332 -1.22366 -1.17144 0
M  V30 4436 O 415.538 -1.40347 -1.12706 0
M  V30 4437 H 411.913 -0.716247 -0.229117 0
M  V30 4438 H 413.884 -2.98343 -0.0584788 0
M  V30 4439 C 412.633 -2.95401 -1.83395 0
M  V30 4440 H 411.956 -3.72802 -1.44424 0
M  V30 4441 H 413.396 -3.46165 -2.44838 0
M  V30 4442 C 411.855 -1.99895 -2.71189 0
M  V30 4443 O 412.385 -1.53909 -3.71046 0
M  V30 4444 N 410.591 -1.6676 -2.3799 0
M  V30 4445 H 410.138 -2.04352 -1.56837 0
M  V30 4446 H 410.096 -1.03127 -2.97005 0
M  V30 4447 N 413.868 0.0150385 -1.57593 0
M  V30 4448 C 415.098 0.713359 -1.93894 0
M  V30 4449 C 415.506 1.68663 -0.857289 0
M  V30 4450 O 414.849 1.82876 0.173788 0
M  V30 4451 C 414.911 1.51348 -3.26089 0
M  V30 4452 C 414.575 0.703451 -4.51554 0
M  V30 4453 C 415.572 -0.00237924 -5.199 0
M  V30 4454 C 413.257 0.653854 -4.98026 0
M  V30 4455 C 415.251 -0.746955 -6.33008 0
M  V30 4456 C 412.938 -0.0944578 -6.11027 0
M  V30 4457 C 413.936 -0.793609 -6.78374 0
M  V30 4458 O 413.624 -1.52974 -7.89211 0
M  V30 4459 H 413.356 0.204637 -0.644282 0
M  V30 4460 H 415.91 -0.0276411 -2.05381 0
M  V30 4461 H 414.14 2.29862 -3.10967 0
M  V30 4462 H 415.829 2.09572 -3.47612 0
M  V30 4463 H 416.595 0.0268803 -4.84993 0
M  V30 4464 H 412.474 1.18756 -4.45441 0
M  V30 4465 H 416.018 -1.2932 -6.85509 0
M  V30 4466 H 411.915 -0.125591 -6.45378 0
M  V30 4467 H 412.683 -1.44488 -8.05646 0
M  V30 4468 N 415.346 1.54954 0.287554 0
M  V30 4469 C 416.623 1.65569 1.04146 0
M  V30 4470 C 417.003 0.512672 2.0478 0
M  V30 4471 O 416.351 -0.489038 2.23205 0
M  V30 4472 C 416.561 3.04163 1.71131 0
M  V30 4473 C 417.909 3.61429 2.22832 0
M  V30 4474 O 418.933 3.06702 1.81141 0
M  V30 4475 O 417.792 4.57281 2.9926 0
M  V30 4476 H 414.886 0.671881 0.482188 0
M  V30 4477 H 417.432 1.67297 0.28457 0
M  V30 4478 H 416.204 3.78796 0.981303 0
M  V30 4479 H 415.827 3.06271 2.53543 0
M  V30 4480 N 416.824 -0.551391 1.4764 0
M  V30 4481 C 417.734 -1.68525 1.63207 0
M  V30 4482 C 418.75 -1.6621 0.514815 0
M  V30 4483 O 419.926 -1.85551 0.783113 0
M  V30 4484 C 416.991 -3.05025 1.64805 0
M  V30 4485 C 416.052 -3.18362 2.88 0
M  V30 4486 C 415.285 -4.4835 2.89513 0
M  V30 4487 O 415.508 -5.34163 2.00065 0
M  V30 4488 O 414.442 -4.65602 3.81443 0
M  V30 4489 H 418.268 -1.58333 2.59161 0
M  V30 4490 H 415.853 -0.722063 1.30792 0
M  V30 4491 H 417.735 -3.86245 1.68502 0
M  V30 4492 H 416.41 -3.15587 0.720197 0
M  V30 4493 H 415.317 -2.36518 2.89845 0
M  V30 4494 H 416.65 -3.12707 3.80099 0
M  V30 4495 N 418.302 -1.35869 -0.798587 0
M  V30 4496 C 419.265 -1.29307 -1.89242 0
M  V30 4497 C 420.265 -0.202747 -1.59517 0
M  V30 4498 O 421.455 -0.456957 -1.681 0
M  V30 4499 C 418.587 -1.00229 -3.25833 0
M  V30 4500 H 419.78 -2.26576 -1.96478 0
M  V30 4501 H 417.333 -1.20509 -0.995358 0
M  V30 4502 H 418.068 -0.033801 -3.24282 0
M  V30 4503 H 417.853 -1.79121 -3.48795 0
M  V30 4504 H 419.343 -0.98219 -4.05885 0
M  V30 4505 N 419.78 1.02168 -1.19998 0
M  V30 4506 C 421.008 1.79296 -1.03249 0
M  V30 4507 C 421.423 1.84103 0.418502 0
M  V30 4508 O 420.78 1.29031 1.29063 0
M  V30 4509 C 420.831 3.24007 -1.60319 0
M  V30 4510 O 420.552 3.19512 -2.99739 0
M  V30 4511 C 422.053 4.17704 -1.48453 0
M  V30 4512 H 419.273 0.564016 -0.363493 0
M  V30 4513 H 421.817 1.28639 -1.58973 0
M  V30 4514 H 419.972 3.7183 -1.08727 0
M  V30 4515 H 420.386 4.10306 -3.26725 0
M  V30 4516 H 421.86 5.17104 -1.93153 0
M  V30 4517 H 422.337 4.37029 -0.436193 0
M  V30 4518 H 422.943 3.7576 -1.99211 0
M  V30 4519 N 421.258 1.00505 1.21394 0
M  V30 4520 C 422.504 0.688793 1.90745 0
M  V30 4521 C 422.837 -0.778486 1.77914 0
M  V30 4522 O 422.112 -1.56433 1.15581 0
M  V30 4523 C 422.395 1.11063 3.42545 0
M  V30 4524 C 422.248 2.63737 3.64367 0
M  V30 4525 C 423.567 0.673059 4.34923 0
M  V30 4526 H 420.686 0.251702 0.692687 0
M  V30 4527 H 423.328 1.25074 1.43026 0
M  V30 4528 H 421.478 0.632508 3.83317 0
M  V30 4529 H 423.15 3.19313 3.32922 0
M  V30 4530 H 421.393 3.05248 3.08231 0
M  V30 4531 H 422.064 2.88305 4.70727 0
M  V30 4532 H 424.54 1.08392 4.01734 0
M  V30 4533 H 423.416 0.996383 5.39781 0
M  V30 4534 H 423.677 -0.425808 4.40045 0
M  V30 4535 N 422.737 -1.36956 0.779787 0
M  V30 4536 C 423.685 -2.32053 0.15942 0
M  V30 4537 C 424.679 -1.55333 -0.675878 0
M  V30 4538 O 425.885 -1.70668 -0.57204 0
M  V30 4539 H 422.26 -0.751286 0.0327707 0
M  V30 4540 H 424.231 -2.8195 0.977078 0
M  V30 4541 C 422.98 -3.40602 -0.698977 0
M  V30 4542 H 422.303 -3.99746 -0.0655966 0
M  V30 4543 H 423.743 -4.09486 -1.09989 0
M  V30 4544 C 422.202 -2.81359 -1.85307 0
M  V30 4545 O 422.732 -2.72751 -2.94906 0
M  V30 4546 N 420.938 -2.38786 -1.65619 0
M  V30 4547 H 420.485 -2.45987 -0.764725 0
M  V30 4548 H 420.443 -1.99493 -2.43002 0
M  V30 4549 N 424.215 -0.530993 -1.48385 0
M  V30 4550 C 425.44 0.000729535 -2.074 0
M  V30 4551 C 425.865 1.27298 -1.3848 0
M  V30 4552 O 425.223 1.75599 -0.451081 0
M  V30 4553 C 425.271 0.206697 -3.60007 0
M  V30 4554 O 424.375 1.27514 -3.92191 0
M  V30 4555 H 423.716 -0.039583 -0.662819 0
M  V30 4556 H 426.246 -0.739194 -1.9078 0
M  V30 4557 H 426.256 0.42904 -4.05738 0
M  V30 4558 H 424.931 -0.722675 -4.09573 0
M  V30 4559 H 423.508 1.03537 -3.58238 0
M  V30 4560 N 425.693 1.55336 -0.266172 0
M  V30 4561 C 426.94 1.99397 0.353158 0
M  V30 4562 C 427.268 1.15451 1.56529 0
M  V30 4563 O 426.523 0.209974 1.9457 0
M  V30 4564 C 426.822 3.48606 0.787957 0
M  V30 4565 C 426.488 4.49773 -0.318541 0
M  V30 4566 C 425.15 4.77158 -0.62239 0
M  V30 4567 C 427.502 5.10212 -1.06459 0
M  V30 4568 C 424.83 5.62251 -1.67602 0
M  V30 4569 C 427.182 5.96449 -2.10788 0
M  V30 4570 C 425.846 6.22158 -2.41817 0
M  V30 4571 H 425.116 0.729644 0.12923 0
M  V30 4572 H 427.763 1.87732 -0.37802 0
M  V30 4573 H 426.068 3.57701 1.59866 0
M  V30 4574 H 427.765 3.80098 1.27775 0
M  V30 4575 H 424.355 4.2854 -0.0715925 0
M  V30 4576 H 428.539 4.89086 -0.843098 0
M  V30 4577 H 423.795 5.80419 -1.92155 0
M  V30 4578 H 427.969 6.42317 -2.69076 0
M  V30 4579 H 425.596 6.87888 -3.23596 0
M  V30 4580 N 427.171 -0.0066808 1.57599 0
M  V30 4581 C 428.42 -0.692078 1.89455 0
M  V30 4582 C 428.733 -1.75306 0.867586 0
M  V30 4583 O 429.939 -2.49262 1.07614 0
M  V30 4584 C 428.395 -1.2821 3.36289 0
M  V30 4585 C 428.003 -0.256291 4.47266 0
M  V30 4586 C 429.747 -1.94608 3.77264 0
M  V30 4587 C 427.654 -0.855927 5.85173 0
M  V30 4588 H 426.584 -0.262252 0.706923 0
M  V30 4589 H 429.235 0.052769 1.83424 0
M  V30 4590 H 427.617 -2.0774 3.37135 0
M  V30 4591 H 428.791 0.513923 4.57925 0
M  V30 4592 H 427.106 0.306862 4.15268 0
M  V30 4593 H 429.703 -2.40364 4.77629 0
M  V30 4594 H 430.046 -2.77382 3.10427 0
M  V30 4595 H 430.579 -1.21822 3.78688 0
M  V30 4596 H 427.318 -0.0671161 6.55466 0
M  V30 4597 H 426.838 -1.59546 5.78191 0
M  V30 4598 H 428.517 -1.35658 6.32618 0
M  V30 4599 N 428.649 -1.55105 -0.279332 0
M  V30 4600 C 429.926 -1.66119 -1.03267 0
M  V30 4601 C 430.306 -0.523525 -2.04505 0
M  V30 4602 O 429.654 0.477194 -2.23462 0
M  V30 4603 C 429.864 -3.05067 -1.69515 0
M  V30 4604 C 431.212 -3.62606 -2.20912 0
M  V30 4605 O 432.236 -3.07659 -1.79512 0
M  V30 4606 O 431.095 -4.58861 -2.96831 0
M  V30 4607 H 428.189 -0.674429 -0.478618 0
M  V30 4608 H 430.735 -1.67446 -0.275694 0
M  V30 4609 H 429.507 -3.79311 -0.9612 0
M  V30 4610 H 429.13 -3.07611 -2.51915 0
M  V30 4611 N 430.127 0.543554 -1.4793 0
M  V30 4612 C 431.375 1.29752 -1.54948 0
M  V30 4613 C 431.696 1.93764 -0.219242 0
M  V30 4614 O 430.966 1.80639 0.75805 0
M  V30 4615 H 429.546 0.481874 -0.570795 0
M  V30 4616 H 432.208 0.633636 -1.84312 0
M  V30 4617 H 431.304 2.08392 -2.32334 0
M  V30 4618 N 431.605 1.3629 0.791371 0
M  V30 4619 C 432.538 1.24816 1.9104 0
M  V30 4620 C 433.516 0.132739 1.62057 0
M  V30 4621 O 434.7 0.303527 1.8604 0
M  V30 4622 C 431.827 0.925355 3.25814 0
M  V30 4623 C 430.873 2.05495 3.7373 0
M  V30 4624 S 431.706 3.67255 3.89723 0
M  V30 4625 C 432.862 3.37084 5.27376 0
M  V30 4626 H 433.095 2.19533 2.00481 0
M  V30 4627 H 430.628 1.21684 0.950393 0
M  V30 4628 H 432.586 0.745924 4.03666 0
M  V30 4629 H 431.247 -0.00400098 3.141 0
M  V30 4630 H 430.44 1.7836 4.71385 0
M  V30 4631 H 430.042 2.1935 3.02922 0
M  V30 4632 H 432.334 2.90856 6.1189 0
M  V30 4633 H 433.277 4.33995 5.59512 0
M  V30 4634 H 433.685 2.7248 4.94383 0
M  V30 4635 N 433.083 -1.0153 1.20538 0
M  V30 4636 C 434.046 -2.0826 0.957098 0
M  V30 4637 C 435.046 -1.60657 -0.0678655 0
M  V30 4638 O 436.236 -1.73385 0.168332 0
M  V30 4639 C 433.368 -3.38033 0.441188 0
M  V30 4640 H 434.561 -2.31719 1.90384 0
M  V30 4641 H 432.114 -1.1835 1.02093 0
M  V30 4642 H 432.849 -3.20249 -0.510961 0
M  V30 4643 H 432.634 -3.73911 1.18038 0
M  V30 4644 H 434.124 -4.16613 0.287009 0
M  V30 4645 N 434.561 -1.01147 -1.20859 0
M  V30 4646 C 435.471 -0.58686 -2.27141 0
M  V30 4647 C 436.487 0.373198 -1.69951 0
M  V30 4648 O 437.663 0.235423 -2.00019 0
M  V30 4649 C 434.728 0.0733602 -3.46622 0
M  V30 4650 C 433.789 -0.931995 -4.19061 0
M  V30 4651 C 433.022 -0.303186 -5.32838 0
M  V30 4652 O 433.245 0.898395 -5.63281 0
M  V30 4653 O 432.179 -1.01735 -5.9324 0
M  V30 4654 H 436.005 -1.47155 -2.65667 0
M  V30 4655 H 433.59 -0.780689 -1.2738 0
M  V30 4656 H 435.472 0.442333 -4.19072 0
M  V30 4657 H 434.147 0.932329 -3.09983 0
M  V30 4658 H 433.054 -1.35224 -3.48805 0
M  V30 4659 H 434.387 -1.76076 -4.59628 0
M  V30 4660 N 436.039 1.36541 -0.78704 0
M  V30 4661 C 437.455 1.52571 -0.46844 0
M  V30 4662 C 437.655 1.7415 1.01361 0
M  V30 4663 O 436.711 1.77163 1.79915 0
M  V30 4664 C 438.024 2.71299 -1.29682 0
M  V30 4665 C 439.572 2.85169 -1.29027 0
M  V30 4666 C 440.047 4.06898 -2.10233 0
M  V30 4667 N 441.538 4.1404 -2.07666 0
M  V30 4668 C 442.273 5.07301 -2.67271 0
M  V30 4669 N 441.769 6.06021 -3.35724 0
M  V30 4670 N 443.562 4.99898 -2.57018 0
M  V30 4671 H 435.713 1.20788 -1.74711 0
M  V30 4672 H 437.976 0.589364 -0.742532 0
M  V30 4673 H 437.682 2.61868 -2.34773 0
M  V30 4674 H 437.556 3.6539 -0.936479 0
M  V30 4675 H 439.943 2.94062 -0.247284 0
M  V30 4676 H 440.024 1.91992 -1.69035 0
M  V30 4677 H 439.668 3.98766 -3.1456 0
M  V30 4678 H 439.598 4.99218 -1.67597 0
M  V30 4679 H 442.089 3.43357 -1.57843 0
M  V30 4680 H 442.402 6.73741 -3.78541 0
M  V30 4681 H 440.747 6.06253 -3.39826 0
M  V30 4682 H 443.938 4.21724 -2.03142 0
M  V30 4683 H 444.111 5.72392 -3.03761 0
M  V30 4684 N 437.518 0.538854 1.48102 0
M  V30 4685 C 438.466 -0.232325 2.31437 0
M  V30 4686 C 439.46 -0.927004 1.41785 0
M  V30 4687 O 440.666 -0.850378 1.58646 0
M  V30 4688 H 437.041 -0.0937916 0.746128 0
M  V30 4689 H 439.012 0.489986 2.9435 0
M  V30 4690 C 437.761 -1.26074 3.24038 0
M  V30 4691 H 437.084 -0.735609 3.92974 0
M  V30 4692 H 438.524 -1.77157 3.85216 0
M  V30 4693 C 436.983 -2.29902 2.46265 0
M  V30 4694 O 437.513 -3.36502 2.19384 0
M  V30 4695 N 435.719 -2.03348 2.07601 0
M  V30 4696 H 435.266 -1.16675 2.29662 0
M  V30 4697 H 435.224 -2.73038 1.55877 0
M  V30 4698 N 438.996 -1.55193 0.274407 0
M  V30 4699 C 439.926 -2.25471 -0.607032 0
M  V30 4700 C 440.907 -1.24461 -1.15946 0
M  V30 4701 O 442.092 -1.53179 -1.19373 0
M  V30 4702 C 439.222 -2.97526 -1.79153 0
M  V30 4703 C 438.176 -4.05459 -1.37067 0
M  V30 4704 C 437.502 -4.65084 -2.6382 0
M  V30 4705 C 438.802 -5.19691 -0.521389 0
M  V30 4706 H 440.496 -2.99393 -0.0209343 0
M  V30 4707 H 438.042 -1.43997 -0.00862866 0
M  V30 4708 H 439.995 -3.45402 -2.41404 0
M  V30 4709 H 438.719 -2.21138 -2.40344 0
M  V30 4710 H 437.378 -3.58393 -0.771355 0
M  V30 4711 H 437.026 -3.85365 -3.23268 0
M  V30 4712 H 436.726 -5.37961 -2.36372 0
M  V30 4713 H 438.25 -5.15708 -3.26921 0
M  V30 4714 H 439.664 -5.63623 -1.04889 0
M  V30 4715 H 438.061 -5.99126 -0.341825 0
M  V30 4716 H 439.131 -4.82713 0.46 0
M  V30 4717 N 440.474 -0.00167713 -1.576 0
M  V30 4718 C 441.885 0.54091 -1.78693 0
M  V30 4719 C 442.236 1.7386 -0.909247 0
M  V30 4720 O 441.361 2.16109 -0.112176 0
M  V30 4721 C 441.956 0.98806 -3.24072 0
M  V30 4722 C 440.515 1.47594 -3.46256 0
M  V30 4723 C 439.662 0.42792 -2.73978 0
M  V30 4724 H 442.613 -0.22784 -1.57056 0
M  V30 4725 H 442.634 1.85398 -3.32277 0
M  V30 4726 H 442.146 0.116164 -3.87926 0
M  V30 4727 H 440.247 2.36868 -2.87618 0
M  V30 4728 H 440.36 1.50225 -4.54939 0
M  V30 4729 H 438.724 0.889934 -2.38647 0
M  V30 4730 H 439.507 -0.435038 -3.40532 0
M  V30 4731 N 441.952 1.55251 0.271103 0
M  V30 4732 C 442.882 1.9127 1.33933 0
M  V30 4733 C 443.863 0.77478 1.5143 0
M  V30 4734 O 445.048 1.03307 1.64442 0
M  V30 4735 C 442.178 2.18627 2.69851 0
M  V30 4736 C 441.132 3.34442 2.67081 0
M  V30 4737 C 440.458 3.47284 4.06569 0
M  V30 4738 C 441.758 4.70784 2.26185 0
M  V30 4739 H 443.452 2.80744 1.04035 0
M  V30 4740 H 440.998 1.35077 0.499017 0
M  V30 4741 H 442.951 2.42413 3.44694 0
M  V30 4742 H 441.675 1.25955 3.01335 0
M  V30 4743 H 440.334 3.10627 1.94695 0
M  V30 4744 H 439.982 2.52074 4.35279 0
M  V30 4745 H 439.682 4.25152 4.0561 0
M  V30 4746 H 441.206 3.73363 4.83148 0
M  V30 4747 H 442.62 4.94102 2.90751 0
M  V30 4748 H 441.017 5.51582 2.36384 0
M  V30 4749 H 442.087 4.69478 1.21319 0
M  V30 4750 N 443.43 -0.535701 1.48216 0
M  V30 4751 C 444.38 -1.63688 1.58714 0
M  V30 4752 C 445.364 -1.54635 0.444615 0
M  V30 4753 O 446.556 -1.62753 0.695742 0
M  V30 4754 C 443.685 -3.02423 1.62466 0
M  V30 4755 C 442.771 -3.16601 2.82178 0
M  V30 4756 N 443.162 -3.00771 4.06658 0
M  V30 4757 C 441.46 -3.47645 2.79391 0
M  V30 4758 C 442.161 -3.18213 4.86945 0
M  V30 4759 N 441.137 -3.45528 4.19656 0
M  V30 4760 H 444.939 -1.5005 2.5271 0
M  V30 4761 H 442.453 -0.741018 1.44508 0
M  V30 4762 H 444.45 -3.81517 1.6808 0
M  V30 4763 H 443.11 -3.17157 0.695826 0
M  V30 4764 H 444.121 -2.77652 4.37184 0
M  V30 4765 H 440.798 -3.68771 1.95739 0
M  V30 4766 H 442.188 -3.1076 5.95716 0
M  V30 4767 N 444.908 -1.36708 -0.784132 0
M  V30 4768 C 446.154 -1.31426 -1.54451 0
M  V30 4769 C 446.487 0.10476 -1.93917 0
M  V30 4770 O 445.762 1.05934 -1.6312 0
M  V30 4771 C 446.045 -2.24189 -2.818 0
M  V30 4772 C 445.898 -3.74813 -2.48667 0
M  V30 4773 C 447.217 -2.15626 -3.83658 0
M  V30 4774 H 444.336 -0.478739 -0.560337 0
M  V30 4775 H 446.978 -1.67305 -0.900498 0
M  V30 4776 H 445.128 -1.93722 -3.36755 0
M  V30 4777 H 446.8 -4.15823 -1.99722 0
M  V30 4778 H 445.043 -3.93989 -1.81535 0
M  V30 4779 H 445.714 -4.35138 -3.39646 0
M  V30 4780 H 448.19 -2.42456 -3.38163 0
M  V30 4781 H 447.066 -2.82694 -4.70506 0
M  V30 4782 H 447.327 -1.14522 -4.27009 0
M  V30 4783 N 446.386 1.0089 -1.21074 0
M  V30 4784 C 447.633 1.74607 -1.0256 0
M  V30 4785 C 447.961 1.89426 0.44136 0
M  V30 4786 O 447.216 1.42266 1.34384 0
M  V30 4787 C 447.515 3.16335 -1.66334 0
M  V30 4788 C 447.181 3.21474 -3.16173 0
M  V30 4789 C 445.843 3.22583 -3.57062 0
M  V30 4790 C 448.195 3.19025 -4.12156 0
M  V30 4791 C 445.523 3.18925 -4.92446 0
M  V30 4792 C 447.875 3.16909 -5.47496 0
M  V30 4793 C 446.539 3.16326 -5.87787 0
M  V30 4794 H 445.809 0.638933 -0.375294 0
M  V30 4795 H 448.456 1.18274 -1.50611 0
M  V30 4796 H 446.761 3.75876 -1.10566 0
M  V30 4797 H 448.458 3.72083 -1.49516 0
M  V30 4798 H 445.048 3.2135 -2.83605 0
M  V30 4799 H 449.232 3.17332 -3.81595 0
M  V30 4800 H 444.488 3.16809 -5.22917 0
M  V30 4801 H 448.662 3.13968 -6.21609 0
M  V30 4802 H 446.289 3.13246 -6.92662 0
M  V30 4803 N 447.864 1.01787 1.20321 0
M  V30 4804 C 448.814 0.559976 2.21016 0
M  V30 4805 C 449.798 -0.385366 1.56217 0
M  V30 4806 O 450.99 -0.208126 1.75772 0
M  V30 4807 C 448.119 -0.0990553 3.43157 0
M  V30 4808 C 447.205 0.86807 4.15121 0
M  V30 4809 N 447.596 2.0261 4.63447 0
M  V30 4810 C 445.894 0.689162 4.40643 0
M  V30 4811 C 446.595 2.63518 5.18588 0
M  V30 4812 N 445.571 1.91569 5.08726 0
M  V30 4813 H 449.373 1.44281 2.56048 0
M  V30 4814 H 446.887 0.883381 1.36272 0
M  V30 4815 H 448.884 -0.444643 4.14522 0
M  V30 4816 H 447.544 -0.977709 3.0963 0
M  V30 4817 H 448.555 2.40598 4.58621 0
M  V30 4818 H 445.232 -0.14133 4.17261 0
M  V30 4819 H 446.622 3.61527 5.66346 0
M  V30 4820 N 449.342 -1.36122 0.79427 0
M  V30 4821 C 450.589 -1.99111 0.368905 0
M  V30 4822 C 450.917 -1.63032 -1.0607 0
M  V30 4823 O 450.172 -0.879303 -1.74833 0
M  V30 4824 C 450.471 -3.5409 0.48527 0
M  V30 4825 C 450.137 -4.10003 1.87638 0
M  V30 4826 C 448.799 -4.24986 2.257 0
M  V30 4827 C 451.151 -4.40423 2.78706 0
M  V30 4828 C 448.479 -4.67701 3.54221 0
M  V30 4829 C 450.831 -4.84573 4.0666 0
M  V30 4830 C 449.495 -4.97761 4.44737 0
M  V30 4831 H 448.765 -0.7286 0.134992 0
M  V30 4832 H 451.412 -1.62534 1.01267 0
M  V30 4833 H 449.717 -3.91052 -0.241984 0
M  V30 4834 H 451.414 -4.00766 0.137109 0
M  V30 4835 H 448.004 -3.98784 1.57064 0
M  V30 4836 H 452.188 -4.28412 2.50553 0
M  V30 4837 H 447.444 -4.761 3.83587 0
M  V30 4838 H 451.618 -5.07074 4.77336 0
M  V30 4839 H 449.245 -5.30618 5.44379 0
M  V30 4840 N 450.82 -0.546701 -1.47814 0
M  V30 4841 C 452.097 0.0464413 -1.95545 0
M  V30 4842 C 452.477 1.4962 -1.48919 0
M  V30 4843 O 451.825 2.16752 -0.723232 0
M  V30 4844 C 452.035 -0.0881298 -3.48889 0
M  V30 4845 C 453.383 0.0626059 -4.24554 0
M  V30 4846 O 454.407 -0.0151555 -3.56197 0
M  V30 4847 O 453.266 0.228071 -5.46024 0
M  V30 4848 H 450.36 0.0700004 -0.824032 0
M  V30 4849 H 452.906 -0.612482 -1.58262 0
M  V30 4850 H 451.678 -1.09737 -3.75597 0
M  V30 4851 H 451.301 0.608886 -3.9291 0
M  V30 4852 N 452.299 1.55045 -0.282633 0
M  V30 4853 C 453.539 2.01668 0.333088 0
M  V30 4854 C 453.903 1.1667 1.52486 0
M  V30 4855 O 455.104 1.52907 2.21072 0
M  V30 4856 C 453.375 3.50509 0.698442 0
M  V30 4857 S 454.934 4.19112 1.29963 0
M  V30 4858 H 451.752 0.703468 0.103219 0
M  V30 4859 H 454.354 1.91233 -0.406222 0
M  V30 4860 H 453.058 4.10015 -0.177693 0
M  V30 4861 H 452.589 3.64943 1.46902 0
M  V30 4862 H 454.604 4.23362 2.58803 0
M  V30 4863 N 453.777 0.010035 1.57597 0
M  V30 4864 C 455.024 -0.6727 1.91 0
M  V30 4865 C 455.352 -1.73219 0.884614 0
M  V30 4866 O 454.607 -1.95395 -0.109215 0
M  V30 4867 C 454.906 -1.34434 3.31153 0
M  V30 4868 C 454.572 -0.417083 4.48967 0
M  V30 4869 C 453.234 -0.161809 4.80928 0
M  V30 4870 C 455.586 0.220753 5.20732 0
M  V30 4871 C 452.914 0.739426 5.82022 0
M  V30 4872 C 455.266 1.10993 6.22787 0
M  V30 4873 C 453.93 1.37428 6.532 0
M  V30 4874 H 453.2 -0.246158 0.698918 0
M  V30 4875 H 455.847 0.0677145 1.9138 0
M  V30 4876 H 454.152 -2.15905 3.26944 0
M  V30 4877 H 455.849 -1.87883 3.54261 0
M  V30 4878 H 452.439 -0.626217 4.24001 0
M  V30 4879 H 456.623 0.0365643 4.96287 0
M  V30 4880 H 451.879 0.952139 6.03941 0
M  V30 4881 H 456.053 1.61046 6.77523 0
M  V30 4882 H 453.68 2.0743 7.31353 0
M  V30 4883 N 455.255 -1.55392 -0.262866 0
M  V30 4884 C 456.501 -1.77657 -0.990424 0
M  V30 4885 C 456.856 -0.576333 -1.83565 0
M  V30 4886 O 456.149 0.430795 -1.86694 0
M  V30 4887 C 456.343 -3.02889 -1.89718 0
M  V30 4888 C 456.172 -4.34979 -1.14121 0
M  V30 4889 C 454.942 -4.98052 -0.852768 0
M  V30 4890 C 457.14 -5.11597 -0.526625 0
M  V30 4891 N 455.122 -6.13859 -0.0710649 0
M  V30 4892 C 456.493 -6.19883 0.12042 0
M  V30 4893 C 458.548 -4.95992 -0.435485 0
M  V30 4894 C 457.251 -7.14262 0.849833 0
M  V30 4895 C 459.277 -5.90735 0.280359 0
M  V30 4896 C 458.639 -6.98417 0.916103 0
M  V30 4897 H 454.738 -0.702242 -0.344064 0
M  V30 4898 H 457.322 -1.92887 -0.265088 0
M  V30 4899 H 455.493 -2.89017 -2.59468 0
M  V30 4900 H 457.225 -3.13516 -2.5591 0
M  V30 4901 H 453.98 -4.5916 -1.16058 0
M  V30 4902 H 454.404 -6.76302 0.307413 0
M  V30 4903 H 459.046 -4.12832 -0.912671 0
M  V30 4904 H 456.764 -7.96935 1.33867 0
M  V30 4905 H 460.35 -5.80738 0.351332 0
M  V30 4906 H 459.23 -7.70467 1.46119 0
M  V30 4907 N 456.733 0.527833 -1.48498 0
M  V30 4908 C 457.666 1.64892 -1.57753 0
M  V30 4909 C 458.644 1.5687 -0.427867 0
M  V30 4910 O 459.828 1.77311 -0.639764 0
M  V30 4911 C 456.955 3.03301 -1.50752 0
M  V30 4912 C 456.001 3.29675 -2.70586 0
M  V30 4913 S 456.834 3.15712 -4.32535 0
M  V30 4914 C 457.99 4.56564 -4.28136 0
M  V30 4915 H 458.223 1.56792 -2.52594 0
M  V30 4916 H 455.756 0.710959 -1.37057 0
M  V30 4917 H 457.714 3.83123 -1.474 0
M  V30 4918 H 456.375 3.08839 -0.572454 0
M  V30 4919 H 455.568 4.3065 -2.61833 0
M  V30 4920 H 455.17 2.57526 -2.71212 0
M  V30 4921 H 457.462 5.48126 -3.98201 0
M  V30 4922 H 458.405 4.70371 -5.29298 0
M  V30 4923 H 458.813 4.35987 -3.58574 0
M  V30 4924 N 458.211 1.37122 0.776871 0
M  V30 4925 C 459.158 1.3247 1.88998 0
M  V30 4926 C 460.128 0.191143 1.64997 0
M  V30 4927 O 461.313 0.379683 1.86984 0
M  V30 4928 C 458.453 1.13241 3.25992 0
M  V30 4929 C 457.566 2.35782 3.61982 0
M  V30 4930 C 456.701 2.09465 4.88158 0
M  V30 4931 C 455.74 3.279 5.16864 0
M  V30 4932 N 454.877 3.01167 6.34226 0
M  V30 4933 H 459.717 2.27642 1.9231 0
M  V30 4934 H 457.254 1.13125 0.94027 0
M  V30 4935 H 459.212 1.00115 4.0501 0
M  V30 4936 H 457.842 0.217186 3.22069 0
M  V30 4937 H 456.894 2.59666 2.77989 0
M  V30 4938 H 458.206 3.24125 3.79137 0
M  V30 4939 H 457.36 1.93341 5.75069 0
M  V30 4940 H 456.099 1.18452 4.73097 0
M  V30 4941 H 455.104 3.44569 4.2843 0
M  V30 4942 H 456.329 4.19757 5.33836 0
M  V30 4943 H 454.275 2.12779 6.20533 0
M  V30 4944 H 454.192 3.83052 6.51772 0
M  V30 4945 H 455.46 2.88649 7.24087 0
M  V30 4946 N 459.689 -1.00246 1.21608 0
M  V30 4947 C 460.652 -2.07233 0.979133 0
M  V30 4948 C 461.652 -1.6072 -0.0508219 0
M  V30 4949 O 462.842 -1.73196 0.186712 0
M  V30 4950 C 459.974 -3.37546 0.477016 0
M  V30 4951 H 461.167 -2.29687 1.92831 0
M  V30 4952 H 458.72 -1.17261 1.03342 0
M  V30 4953 H 459.455 -3.20773 -0.476966 0
M  V30 4954 H 459.24 -3.72638 1.21997 0
M  V30 4955 H 460.73 -4.16285 0.331181 0
M  V30 4956 N 461.167 -1.02423 -1.1978 0
M  V30 4957 C 462.414 -0.717988 -1.89344 0
M  V30 4958 C 462.742 0.753036 -1.79331 0
M  V30 4959 O 461.997 1.56355 -1.17692 0
M  V30 4960 C 462.296 -1.1088 -3.39765 0
M  V30 4961 C 461.962 -2.57731 -3.6998 0
M  V30 4962 C 460.624 -2.97854 -3.77937 0
M  V30 4963 C 462.976 -3.52763 -3.83677 0
M  V30 4964 C 460.304 -4.31931 -3.97054 0
M  V30 4965 C 462.656 -4.86538 -4.04306 0
M  V30 4966 C 461.32 -5.26356 -4.10494 0
M  V30 4967 H 460.59 -0.26273 -0.692859 0
M  V30 4968 H 463.237 -1.28623 -1.41875 0
M  V30 4969 H 461.542 -0.459094 -3.89101 0
M  V30 4970 H 463.239 -0.849432 -3.919 0
M  V30 4971 H 459.829 -2.25646 -3.64393 0
M  V30 4972 H 464.013 -3.2292 -3.76877 0
M  V30 4973 H 459.269 -4.62324 -4.00083 0
M  V30 4974 H 463.443 -5.60093 -4.13846 0
M  V30 4975 H 461.07 -6.3026 -4.2506 0
M  V30 4976 N 462.645 1.35699 -0.801477 0
M  V30 4977 C 463.577 2.28598 -0.166028 0
M  V30 4978 C 464.59 1.50044 0.631721 0
M  V30 4979 O 465.779 1.72339 0.464921 0
M  V30 4980 C 462.879 3.29625 0.787451 0
M  V30 4981 C 462.052 4.37384 0.037171 0
M  V30 4982 C 461.111 5.183 0.908375 0
M  V30 4983 O 460.137 5.68053 0.361189 0
M  V30 4984 N 461.339 5.35912 2.23112 0
M  V30 4985 H 464.104 2.83771 -0.964071 0
M  V30 4986 H 461.665 1.47994 -0.656469 0
M  V30 4987 H 463.657 3.80648 1.37439 0
M  V30 4988 H 462.227 2.75004 1.48632 0
M  V30 4989 H 461.447 3.87364 -0.730935 0
M  V30 4990 H 462.735 5.0653 -0.480109 0
M  V30 4991 H 462.133 4.97125 2.69968 0
M  V30 4992 H 460.69 5.90133 2.76741 0
M  V30 4993 N 464.123 0.554532 1.47522 0
M  V30 4994 C 465.369 0.0377449 2.03365 0
M  V30 4995 C 465.724 -1.29654 1.42154 0
M  V30 4996 O 465.017 -1.83022 0.566865 0
M  V30 4997 C 465.211 -0.115927 3.57212 0
M  V30 4998 C 465.04 1.20191 4.33341 0
M  V30 4999 C 463.81 1.76849 4.73342 0
M  V30 5000 C 466.008 2.11849 4.68641 0
M  V30 5001 N 463.99 3.02665 5.34104 0
M  V30 5002 C 465.361 3.22245 5.29677 0
M  V30 5003 C 467.416 2.11876 4.5057 0
M  V30 5004 C 466.119 4.32763 5.74551 0
M  V30 5005 C 468.145 3.21405 4.9644 0
M  V30 5006 C 467.507 4.30519 5.57523 0
M  V30 5007 H 463.606 0.0559107 0.779999 0
M  V30 5008 H 466.19 0.741232 1.80038 0
M  V30 5009 H 464.361 -0.788533 3.80311 0
M  V30 5010 H 466.093 -0.634538 3.99695 0
M  V30 5011 H 462.848 1.30681 4.55214 0
M  V30 5012 H 463.272 3.66788 5.69031 0
M  V30 5013 H 467.914 1.28801 4.02704 0
M  V30 5014 H 465.632 5.166 6.2141 0
M  V30 5015 H 469.218 3.22509 4.8423 0
M  V30 5016 H 468.098 5.13873 5.92371 0
M  V30 5017 N 465.601 -1.54893 0.290851 0
M  V30 5018 C 466.841 -2.01842 -0.322388 0
M  V30 5019 C 467.205 -1.17477 -1.51865 0
M  V30 5020 O 468.406 -1.54077 -2.20258 0
M  V30 5021 C 466.677 -3.50874 -0.679844 0
M  V30 5022 S 468.236 -4.19796 -1.27739 0
M  V30 5023 H 465.054 -0.704005 -0.0994866 0
M  V30 5024 H 467.656 -1.91015 0.416358 0
M  V30 5025 H 466.36 -4.09915 0.199435 0
M  V30 5026 H 465.891 -3.65717 -1.44964 0
M  V30 5027 H 467.906 -4.24729 -2.56554 0
M  V30 5028 N 467.08 -0.0183926 -1.57589 0
M  V30 5029 C 468.357 0.700621 -1.82622 0
M  V30 5030 C 468.737 1.90951 -0.90005 0
M  V30 5031 O 468.085 2.28452 0.0469145 0
M  V30 5032 C 468.295 1.08899 -3.31575 0
M  V30 5033 C 469.643 1.48514 -3.9778 0
M  V30 5034 O 470.667 1.18227 -3.36007 0
M  V30 5035 O 469.526 2.04903 -5.06633 0
M  V30 5036 H 466.62 0.342743 -0.752633 0
M  V30 5037 H 469.166 -0.0452548 -1.6964 0
M  V30 5038 H 467.938 0.228113 -3.90635 0
M  V30 5039 H 467.561 1.89338 -3.49624 0
M  V30 5040 N 468.558 1.5553 0.254621 0
M  V30 5041 C 469.805 1.77 0.983736 0
M  V30 5042 C 470.133 0.58133 1.85609 0
M  V30 5043 O 469.388 -0.435621 1.9079 0
M  V30 5044 C 469.687 3.03891 1.88109 0
M  V30 5045 C 469.353 4.35597 1.16472 0
M  V30 5046 C 468.015 4.7139 0.966714 0
M  V30 5047 C 470.367 5.1705 0.656387 0
M  V30 5048 C 467.695 5.86176 0.247942 0
M  V30 5049 C 470.047 6.32581 -0.0488807 0
M  V30 5050 C 468.711 6.67 -0.258438 0
M  V30 5051 H 467.981 0.647688 0.359974 0
M  V30 5052 H 470.628 1.89802 0.254463 0
M  V30 5053 H 468.933 2.86068 2.67717 0
M  V30 5054 H 470.63 3.17701 2.44677 0
M  V30 5055 H 467.22 4.07475 1.32899 0
M  V30 5056 H 471.404 4.8986 0.796933 0
M  V30 5057 H 466.66 6.11354 0.075035 0
M  V30 5058 H 470.834 6.94942 -0.450444 0
M  V30 5059 H 468.461 7.55793 -0.817358 0
M  V30 5060 N 470.036 -0.519951 1.48776 0
M  V30 5061 C 470.946 -1.65025 1.66745 0
M  V30 5062 C 471.962 -1.6508 0.549954 0
M  V30 5063 O 473.138 -1.83848 0.822295 0
M  V30 5064 C 470.203 -3.0146 1.71238 0
M  V30 5065 C 469.264 -3.12182 2.94688 0
M  V30 5066 C 468.497 -4.42109 2.98958 0
M  V30 5067 O 468.72 -5.29799 2.1135 0
M  V30 5068 O 467.654 -4.57406 3.91233 0
M  V30 5069 H 471.48 -1.52801 2.62461 0
M  V30 5070 H 469.065 -0.694157 1.32294 0
M  V30 5071 H 470.947 -3.82584 1.76657 0
M  V30 5072 H 469.622 -3.13988 0.786975 0
M  V30 5073 H 468.529 -2.30316 2.94797 0
M  V30 5074 H 469.862 -3.04574 3.86646 0
M  V30 5075 N 471.514 -1.37532 -0.769588 0
M  V30 5076 C 472.76 -1.34063 -1.52966 0
M  V30 5077 C 473.115 0.0737942 -1.92258 0
M  V30 5078 O 472.408 1.03291 -1.61374 0
M  V30 5079 C 472.602 -2.21558 -2.8044 0
M  V30 5080 C 472.431 -3.71367 -2.53608 0
M  V30 5081 C 471.201 -4.40464 -2.47628 0
M  V30 5082 C 473.399 -4.64177 -2.21459 0
M  V30 5083 N 471.381 -5.758 -2.12902 0
M  V30 5084 C 472.752 -5.87907 -1.9689 0
M  V30 5085 C 474.807 -4.52541 -2.07633 0
M  V30 5086 C 473.51 -7.01304 -1.59892 0
M  V30 5087 C 475.536 -5.65825 -1.72034 0
M  V30 5088 C 474.898 -6.88606 -1.48327 0
M  V30 5089 H 470.997 -0.545856 -0.559969 0
M  V30 5090 H 473.581 -1.72773 -0.897634 0
M  V30 5091 H 471.752 -1.85061 -3.41478 0
M  V30 5092 H 473.484 -2.09332 -3.46356 0
M  V30 5093 H 470.239 -3.93491 -2.63556 0
M  V30 5094 H 470.663 -6.47328 -1.9823 0
M  V30 5095 H 475.305 -3.58183 -2.24643 0
M  V30 5096 H 473.023 -7.95594 -1.4162 0
M  V30 5097 H 476.609 -5.58793 -1.61991 0
M  V30 5098 H 475.489 -7.74779 -1.21189 0
M  V30 5099 N 472.992 0.995999 -1.22138 0
M  V30 5100 C 474.269 1.70834 -0.952642 0
M  V30 5101 C 474.649 2.04257 0.533119 0
M  V30 5102 O 473.997 1.72343 1.50034 0
M  V30 5103 C 474.207 2.96119 -1.84701 0
M  V30 5104 C 475.555 3.68962 -2.10124 0
M  V30 5105 O 476.579 3.0612 -1.82124 0
M  V30 5106 O 475.438 4.82017 -2.57531 0
M  V30 5107 H 472.532 0.745498 -0.357997 0
M  V30 5108 H 475.078 1.05262 -1.33109 0
M  V30 5109 H 473.85 2.67898 -2.85213 0
M  V30 5110 H 473.473 3.6943 -1.46995 0
M  V30 5111 N 474.47 1.03057 1.19235 0
M  V30 5112 C 475.881 0.757449 1.70645 0
M  V30 5113 C 476.232 -0.722735 1.82403 0
M  V30 5114 O 475.357 -1.56325 1.49638 0
M  V30 5115 C 475.952 1.36833 3.09939 0
M  V30 5116 C 474.511 1.14375 3.58602 0
M  V30 5117 C 473.658 1.46533 2.35422 0
M  V30 5118 H 476.609 1.19828 1.04052 0
M  V30 5119 H 476.63 0.766184 3.72706 0
M  V30 5120 H 476.142 2.44562 3.01349 0
M  V30 5121 H 474.243 0.0847542 3.72504 0
M  V30 5122 H 474.356 1.83366 4.42622 0
M  V30 5123 H 472.72 0.884712 2.38841 0
M  V30 5124 H 473.503 2.55349 2.2946 0
M  V30 5125 N 475.948 -1.35272 0.808662 0
M  V30 5126 C 476.878 -2.32315 0.234981 0
M  V30 5127 C 477.859 -1.57572 -0.64071 0
M  V30 5128 O 479.044 -1.8563 -0.570551 0
M  V30 5129 C 476.174 -3.41801 -0.615601 0
M  V30 5130 C 475.128 -4.27694 0.161767 0
M  V30 5131 C 474.454 -5.28519 -0.810649 0
M  V30 5132 C 475.754 -5.04231 1.36193 0
M  V30 5133 H 477.448 -2.80543 1.04575 0
M  V30 5134 H 474.994 -1.3488 0.504315 0
M  V30 5135 H 476.947 -4.08693 -1.02702 0
M  V30 5136 H 475.671 -2.92186 -1.45928 0
M  V30 5137 H 474.33 -3.62384 0.554382 0
M  V30 5138 H 473.978 -4.75171 -1.64988 0
M  V30 5139 H 473.678 -5.8686 -0.294822 0
M  V30 5140 H 475.202 -5.98283 -1.22023 0
M  V30 5141 H 476.616 -5.64058 1.02528 0
M  V30 5142 H 475.013 -5.72077 1.81239 0
M  V30 5143 H 476.083 -4.34753 2.14751 0
M  V30 5144 N 477.426 -0.562348 -1.47226 0
M  V30 5145 C 478.654 -0.0452275 -2.06851 0
M  V30 5146 C 479.069 1.25078 -1.41424 0
M  V30 5147 O 478.426 1.75156 -0.512513 0
M  V30 5148 C 478.477 0.148674 -3.61194 0
M  V30 5149 O 478.198 -1.09602 -4.24169 0
M  V30 5150 C 479.699 0.702488 -4.37699 0
M  V30 5151 H 476.919 -0.0481775 -0.669268 0
M  V30 5152 H 479.463 -0.777223 -1.89155 0
M  V30 5153 H 477.618 0.830817 -3.78386 0
M  V30 5154 H 478.032 -0.896982 -5.16773 0
M  V30 5155 H 479.506 0.78743 -5.46355 0
M  V30 5156 H 479.983 1.71493 -4.04335 0
M  V30 5157 H 480.589 0.0558772 -4.25263 0
M  V30 5158 N 478.904 1.54736 -0.299062 0
M  V30 5159 C 480.151 2.00101 0.310784 0
M  V30 5160 C 480.479 1.18746 1.54045 0
M  V30 5161 O 479.734 0.251198 1.94081 0
M  V30 5162 C 480.033 3.50199 0.713835 0
M  V30 5163 C 479.699 4.48997 -0.413873 0
M  V30 5164 C 478.361 4.7573 -0.723462 0
M  V30 5165 C 480.713 5.07839 -1.17257 0
M  V30 5166 C 478.041 5.5857 -1.79491 0
M  V30 5167 C 480.393 5.91844 -2.23392 0
M  V30 5168 C 479.057 6.16889 -2.54959 0
M  V30 5169 H 478.327 0.732221 0.113724 0
M  V30 5170 H 480.974 1.86888 -0.417756 0
M  V30 5171 H 479.279 3.61012 1.52243 0
M  V30 5172 H 480.976 3.82723 1.19684 0
M  V30 5173 H 477.566 4.28292 -0.162476 0
M  V30 5174 H 481.75 4.87188 -0.946651 0
M  V30 5175 H 477.006 5.76213 -2.04423 0
M  V30 5176 H 481.18 6.36465 -2.8264 0
M  V30 5177 H 478.807 6.80869 -3.38114 0
M  V30 5178 N 480.382 0.0267497 1.57577 0
M  V30 5179 C 481.793 -0.512413 1.79531 0
M  V30 5180 C 482.144 -1.72391 0.936791 0
M  V30 5181 O 481.269 -2.15903 0.146543 0
M  V30 5182 C 481.864 -0.936378 3.25603 0
M  V30 5183 C 480.423 -1.42067 3.4856 0
M  V30 5184 C 479.57 -0.384278 2.74624 0
M  V30 5185 H 482.521 0.252797 1.56674 0
M  V30 5186 H 482.542 -1.80088 3.35184 0
M  V30 5187 H 482.054 -0.0544332 3.88062 0
M  V30 5188 H 480.155 -2.32262 2.9135 0
M  V30 5189 H 480.268 -1.42968 4.57271 0
M  V30 5190 H 478.632 -0.851855 2.40032 0
M  V30 5191 H 479.415 0.489159 3.39797 0
M  V30 5192 N 481.861 -1.55662 -0.24637 0
M  V30 5193 C 483.138 -1.68272 -0.997198 0
M  V30 5194 C 483.518 -0.566785 -2.03349 0
M  V30 5195 O 482.866 0.429688 -2.24424 0
M  V30 5196 C 483.076 -3.08594 -1.63006 0
M  V30 5197 C 484.424 -3.6721 -2.13171 0
M  V30 5198 O 485.448 -3.11397 -1.72946 0
M  V30 5199 O 484.307 -4.65054 -2.87031 0
M  V30 5200 H 481.401 -0.684429 -0.464205 0
M  V30 5201 H 483.947 -1.67993 -0.240114 0
M  V30 5202 H 482.719 -3.81264 -0.880527 0
M  V30 5203 H 482.342 -3.12886 -2.45333 0
M  V30 5204 N 483.339 0.512053 -1.4905 0
M  V30 5205 C 484.75 1.09376 -1.51307 0
M  V30 5206 C 485.101 1.94 -0.292971 0
M  V30 5207 O 484.226 2.07965 0.598277 0
M  V30 5208 C 484.821 1.99031 -2.74176 0
M  V30 5209 C 483.38 2.52385 -2.79247 0
M  V30 5210 C 482.527 1.29749 -2.45073 0
M  V30 5211 H 485.478 0.296467 -1.55906 0
M  V30 5212 H 485.499 2.83569 -2.53711 0
M  V30 5213 H 485.011 1.37412 -3.62959 0
M  V30 5214 H 483.112 3.17673 -1.94716 0
M  V30 5215 H 483.225 2.90293 -3.81139 0
M  V30 5216 H 481.589 1.61912 -1.96612 0
M  V30 5217 H 482.372 0.698555 -3.36118 0
M  V30 5218 N 484.817 1.37938 0.762283 0
M  V30 5219 C 485.727 1.36681 1.90671 0
M  V30 5220 C 486.743 0.265078 1.71969 0
M  V30 5221 O 487.919 0.502055 1.95042 0
M  V30 5222 C 484.984 1.18211 3.25925 0
M  V30 5223 C 484.045 2.3811 3.57214 0
M  V30 5224 C 483.278 2.20512 4.86014 0
M  V30 5225 O 483.501 1.19429 5.57757 0
M  V30 5226 O 482.435 3.08911 5.16583 0
M  V30 5227 H 486.261 2.33091 1.94685 0
M  V30 5228 H 483.846 1.18767 0.906356 0
M  V30 5229 H 485.728 1.09937 4.06807 0
M  V30 5230 H 484.403 0.248807 3.22742 0
M  V30 5231 H 483.31 2.51958 2.76529 0
M  V30 5232 H 484.643 3.30041 3.65149 0
M  V30 5233 N 486.295 -0.989507 1.22664 0
M  V30 5234 C 487.543 -1.72612 1.05117 0
M  V30 5235 C 487.864 -1.90552 -0.414131 0
M  V30 5236 O 487.134 -1.4676 -1.29762 0
M  V30 5237 H 485.714 -0.639555 0.385977 0
M  V30 5238 H 488.376 -1.19158 1.54232 0
M  V30 5239 H 487.472 -2.71926 1.53175 0
M  V30 5240 N 487.773 -1.03688 -1.18687 0
M  V30 5241 C 488.706 -0.569112 -2.2099 0
M  V30 5242 C 489.684 0.394315 -1.57746 0
M  V30 5243 O 490.868 0.309519 -1.85941 0
M  V30 5244 C 487.995 0.169104 -3.38278 0
M  V30 5245 C 487.041 -0.746989 -4.19908 0
M  V30 5246 S 487.874 -2.22773 -4.86963 0
M  V30 5247 C 489.03 -1.50025 -6.07654 0
M  V30 5248 H 489.263 -1.43589 -2.60326 0
M  V30 5249 H 486.796 -0.847507 -1.29061 0
M  V30 5250 H 488.754 0.588868 -4.06254 0
M  V30 5251 H 487.415 1.01172 -2.9736 0
M  V30 5252 H 486.608 -0.176626 -5.0369 0
M  V30 5253 H 486.21 -1.10543 -3.5729 0
M  V30 5254 H 488.502 -0.791217 -6.72864 0
M  V30 5255 H 489.445 -2.31498 -6.69189 0
M  V30 5256 H 489.853 -0.994245 -5.55675 0
M  V30 5257 N 489.251 1.34841 -0.815825 0
M  V30 5258 C 490.5 1.97755 -0.396976 0
M  V30 5259 C 490.813 1.65422 1.04379 0
M  V30 5260 O 492.019 2.21771 1.5662 0
M  V30 5261 C 490.475 3.53818 -0.658869 0
M  V30 5262 C 490.083 3.95051 -2.11278 0
M  V30 5263 C 491.827 4.23397 -0.305834 0
M  V30 5264 C 489.734 5.43997 -2.31994 0
M  V30 5265 H 488.664 0.739985 -0.1447 0
M  V30 5266 H 491.315 1.53781 -1.00118 0
M  V30 5267 H 489.697 3.95997 0.0154112 0
M  V30 5268 H 490.871 3.63998 -2.82564 0
M  V30 5269 H 489.186 3.38388 -2.42657 0
M  V30 5270 H 491.783 5.32899 -0.43854 0
M  V30 5271 H 492.126 4.09508 0.748952 0
M  V30 5272 H 492.659 3.8667 -0.934403 0
M  V30 5273 H 489.398 5.62865 -3.35952 0
M  V30 5274 H 488.918 5.76589 -1.65244 0
M  V30 5275 H 490.597 6.10584 -2.14001 0
M  V30 5276 N 490.729 0.570148 1.46925 0
M  V30 5277 C 492.145 0.23087 1.57921 0
M  V30 5278 C 492.345 -1.26676 1.56702 0
M  V30 5279 O 491.401 -2.04774 1.47729 0
M  V30 5280 C 492.714 0.868973 2.8787 0
M  V30 5281 C 494.262 0.841397 3.01479 0
M  V30 5282 C 494.737 1.45881 4.34146 0
M  V30 5283 N 496.228 1.42258 4.40814 0
M  V30 5284 C 496.963 1.8698 5.42057 0
M  V30 5285 N 496.459 2.39618 6.50042 0
M  V30 5286 N 498.252 1.77972 5.33181 0
M  V30 5287 H 490.403 1.54301 1.45962 0
M  V30 5288 H 492.666 0.644224 0.69547 0
M  V30 5289 H 492.372 1.922 2.94537 0
M  V30 5290 H 492.246 0.369682 3.75384 0
M  V30 5291 H 494.633 -0.202973 2.94401 0
M  V30 5292 H 494.714 1.37858 2.15474 0
M  V30 5293 H 494.358 2.50231 4.4198 0
M  V30 5294 H 494.288 0.896958 5.18905 0
M  V30 5295 H 496.779 1.03768 3.63374 0
M  V30 5296 H 497.092 2.71633 7.23488 0
M  V30 5297 H 495.437 2.43636 6.50897 0
M  V30 5298 H 498.628 1.36617 4.4772 0
M  V30 5299 H 498.801 2.13143 6.11943 0
M  V30 5300 N 492.207 -1.54576 0.307264 0
M  V30 5301 C 493.623 -1.59534 -0.0459251 0
M  V30 5302 C 493.823 -1.32414 -1.51884 0
M  V30 5303 O 492.879 -1.1006 -2.27251 0
M  V30 5304 C 494.192 -2.98566 0.357649 0
M  V30 5305 C 495.74 -3.11491 0.306937 0
M  V30 5306 C 496.215 -4.52842 0.685427 0
M  V30 5307 N 497.706 -4.58782 0.638203 0
M  V30 5308 C 498.441 -5.66238 0.903458 0
M  V30 5309 N 497.937 -6.81703 1.23501 0
M  V30 5310 N 499.73 -5.55937 0.830102 0
M  V30 5311 H 491.881 -1.70464 1.26712 0
M  V30 5312 H 494.144 -0.79647 0.514139 0
M  V30 5313 H 493.85 -3.23356 1.38325 0
M  V30 5314 H 493.724 -3.76117 -0.285565 0
M  V30 5315 H 496.111 -2.86446 -0.709424 0
M  V30 5316 H 496.192 -2.36081 0.984861 0
M  V30 5317 H 495.836 -4.78618 1.69963 0
M  V30 5318 H 495.766 -5.26598 -0.0146346 0
M  V30 5319 H 498.257 -3.75849 0.393138 0
M  V30 5320 H 498.57 -7.59582 1.42322 0
M  V30 5321 H 496.915 -6.8324 1.27311 0
M  V30 5322 H 500.106 -4.64608 0.570693 0
M  V30 5323 H 500.279 -6.39597 1.04019 0
M  V30 5324 N 493.685 -0.035106 -1.57561 0
M  V30 5325 C 494.615 0.942993 -2.13612 0
M  V30 5326 C 495.596 1.33531 -1.05373 0
M  V30 5327 O 496.781 1.41287 -1.33235 0
M  V30 5328 C 493.911 2.22332 -2.66807 0
M  V30 5329 C 492.865 1.97156 -3.79886 0
M  V30 5330 C 492.191 3.31506 -4.19533 0
M  V30 5331 C 493.491 1.30596 -5.05709 0
M  V30 5332 H 495.185 0.476179 -2.95589 0
M  V30 5333 H 492.731 0.227602 -1.4219 0
M  V30 5334 H 494.684 2.91142 -3.04654 0
M  V30 5335 H 493.408 2.7119 -1.81999 0
M  V30 5336 H 492.067 1.30763 -3.42486 0
M  V30 5337 H 491.715 3.78134 -3.31698 0
M  V30 5338 H 491.415 3.15465 -4.95738 0
M  V30 5339 H 492.939 4.01574 -4.59968 0
M  V30 5340 H 494.353 1.89416 -5.41105 0
M  V30 5341 H 492.75 1.24934 -5.86951 0
M  V30 5342 H 493.82 0.279742 -4.84092 0
M  V30 5343 N 495.163 1.55791 0.238111 0
M  V30 5344 C 496.11 1.9105 1.29493 0
M  V30 5345 C 497.08 0.765733 1.47397 0
M  V30 5346 O 498.265 1.02017 1.61236 0
M  V30 5347 C 495.405 2.21826 2.64362 0
M  V30 5348 C 494.518 3.49153 2.54394 0
M  V30 5349 C 493.653 3.69455 3.81676 0
M  V30 5350 C 492.692 4.90353 3.66361 0
M  V30 5351 N 491.829 5.07131 4.85554 0
M  V30 5352 H 496.669 2.81172 0.987233 0
M  V30 5353 H 494.206 1.39179 0.476203 0
M  V30 5354 H 496.164 2.37675 3.4288 0
M  V30 5355 H 494.794 1.34897 2.93262 0
M  V30 5356 H 493.846 3.41587 1.67399 0
M  V30 5357 H 495.158 4.37818 2.38991 0
M  V30 5358 H 494.312 3.85311 4.68636 0
M  V30 5359 H 493.051 2.7904 3.99985 0
M  V30 5360 H 492.056 4.74464 2.77784 0
M  V30 5361 H 493.281 5.82237 3.49538 0
M  V30 5362 H 491.227 4.19654 5.04209 0
M  V30 5363 H 491.144 5.89899 4.72816 0
M  V30 5364 H 492.412 5.27407 5.73988 0
M  V30 5365 N 496.642 -0.504142 1.49319 0
M  V30 5366 C 497.605 -1.5883 1.65244 0
M  V30 5367 C 498.605 -1.52009 0.524386 0
M  V30 5368 O 499.795 -1.55218 0.79077 0
M  V30 5369 C 496.927 -2.98481 1.64687 0
M  V30 5370 H 498.12 -1.4604 2.61939 0
M  V30 5371 H 495.673 -0.728144 1.38303 0
M  V30 5372 H 496.408 -3.16751 0.695644 0
M  V30 5373 H 496.193 -3.0484 2.46607 0
M  V30 5374 H 497.683 -3.77256 1.79075 0
M  V30 5375 N 498.12 -1.38341 -0.754957 0
M  V30 5376 C 499.067 -1.3546 -1.86867 0
M  V30 5377 C 500.037 -0.217369 -1.64672 0
M  V30 5378 O 501.222 -0.409383 -1.86356 0
M  V30 5379 C 498.362 -1.18413 -3.24149 0
M  V30 5380 C 497.475 -2.41511 -3.58185 0
M  V30 5381 C 496.61 -2.17205 -4.84763 0
M  V30 5382 C 495.649 -3.36081 -5.11582 0
M  V30 5383 N 494.786 -3.11219 -6.29354 0
M  V30 5384 H 499.626 -2.30672 -1.88664 0
M  V30 5385 H 497.163 -1.14607 -0.922154 0
M  V30 5386 H 499.121 -1.06545 -4.03366 0
M  V30 5387 H 497.751 -0.268397 -3.21682 0
M  V30 5388 H 496.803 -2.64056 -2.73822 0
M  V30 5389 H 498.115 -3.30115 -3.73932 0
M  V30 5390 H 497.269 -2.02465 -5.7192 0
M  V30 5391 H 496.008 -1.25964 -4.71152 0
M  V30 5392 H 495.013 -3.51341 -4.22894 0
M  V30 5393 H 496.238 -4.28196 -5.27091 0
M  V30 5394 H 494.184 -2.22624 -6.17069 0
M  V30 5395 H 494.101 -3.93373 -6.45596 0
M  V30 5396 H 495.369 -3.00132 -7.19403 0
M  V30 5397 N 499.598 0.982988 -1.23187 0
M  V30 5398 C 500.846 1.72052 -1.06031 0
M  V30 5399 C 501.167 1.90769 0.404019 0
M  V30 5400 O 500.437 1.47446 1.28982 0
M  V30 5401 H 499.017 0.637499 -0.389363 0
M  V30 5402 H 501.679 1.18338 -1.54862 0
M  V30 5403 H 500.775 2.7111 -1.54615 0
M  V30 5404 N 501.076 1.04316 1.18135 0
M  V30 5405 C 502.006 0.657299 2.24058 0
M  V30 5406 C 502.987 -0.340678 1.66654 0
M  V30 5407 O 504.172 -0.220223 1.92947 0
M  V30 5408 C 501.302 0.0220715 3.47293 0
M  V30 5409 C 500.256 0.943857 4.17463 0
M  V30 5410 C 499.582 0.172973 5.3442 0
M  V30 5411 C 500.882 2.26409 4.70677 0
M  V30 5412 H 502.576 1.5428 2.56589 0
M  V30 5413 H 500.122 0.743263 1.23335 0
M  V30 5414 H 502.075 -0.259607 4.206 0
M  V30 5415 H 500.799 -0.898323 3.14003 0
M  V30 5416 H 499.458 1.20996 3.46057 0
M  V30 5417 H 499.106 -0.749907 4.97379 0
M  V30 5418 H 498.806 0.787098 5.82304 0
M  V30 5419 H 500.33 -0.101628 6.10515 0
M  V30 5420 H 501.744 2.04294 5.35665 0
M  V30 5421 H 500.141 2.8314 5.29105 0
M  V30 5422 H 501.211 2.90883 3.87962 0
M  V30 5423 N 502.554 -1.34406 0.822964 0
M  V30 5424 C 503.501 -2.29519 0.24284 0
M  V30 5425 C 504.471 -1.5359 -0.632397 0
M  V30 5426 O 505.656 -1.8196 -0.57403 0
M  V30 5427 C 502.796 -3.40032 -0.58925 0
M  V30 5428 C 501.909 -4.30899 0.308236 0
M  V30 5429 C 501.044 -5.28515 -0.533425 0
M  V30 5430 C 500.083 -6.1102 0.363444 0
M  V30 5431 N 499.22 -7.00725 -0.439147 0
M  V30 5432 H 504.06 -2.78537 1.05929 0
M  V30 5433 H 501.597 -1.3707 0.533872 0
M  V30 5434 H 503.555 -4.0279 -1.087 0
M  V30 5435 H 502.185 -2.92248 -1.37081 0
M  V30 5436 H 501.237 -3.69002 0.924203 0
M  V30 5437 H 502.549 -4.88717 0.997862 0
M  V30 5438 H 501.703 -5.96725 -1.09565 0
M  V30 5439 H 500.442 -4.71235 -1.25656 0
M  V30 5440 H 499.447 -5.41743 0.937812 0
M  V30 5441 H 500.672 -6.70381 1.08469 0
M  V30 5442 H 498.618 -6.45913 -1.14595 0
M  V30 5443 H 498.535 -7.55756 0.19209 0
M  V30 5444 H 499.803 -7.73263 -0.984124 0
M  V30 5445 N 504.032 -0.577932 -1.46621 0
M  V30 5446 C 505.281 -0.0594281 -2.01612 0
M  V30 5447 C 505.594 1.30663 -1.45556 0
M  V30 5448 O 506.8 1.91621 -1.92337 0
M  V30 5449 C 505.256 -0.0556666 -3.59857 0
M  V30 5450 C 504.864 -1.41975 -4.24908 0
M  V30 5451 C 506.608 0.409143 -4.22524 0
M  V30 5452 C 504.515 -1.37397 -5.75218 0
M  V30 5453 H 503.445 -0.0184469 -0.753774 0
M  V30 5454 H 506.096 -0.728869 -1.68404 0
M  V30 5455 H 504.478 0.679843 -3.90121 0
M  V30 5456 H 505.652 -2.17461 -4.0626 0
M  V30 5457 H 503.967 -1.82419 -3.74316 0
M  V30 5458 H 506.564 0.46211 -5.32699 0
M  V30 5459 H 506.907 1.42565 -3.91128 0
M  V30 5460 H 507.44 -0.272152 -3.96868 0
M  V30 5461 H 504.179 -2.36714 -6.11267 0
M  V30 5462 H 503.699 -0.661239 -5.96144 0
M  V30 5463 H 505.378 -1.08484 -6.3784 0
M  V30 5464 N 505.51 1.54411 -0.315457 0
M  V30 5465 C 506.75 2.02329 0.290236 0
M  V30 5466 C 507.114 1.19878 1.49977 0
M  V30 5467 O 508.315 1.57562 2.17779 0
M  V30 5468 C 506.586 3.51912 0.623937 0
M  V30 5469 S 508.145 4.21775 1.21044 0
M  V30 5470 H 504.963 0.705499 0.0882739 0
M  V30 5471 H 507.565 1.90328 -0.446694 0
M  V30 5472 H 506.269 4.09546 -0.264624 0
M  V30 5473 H 505.8 3.67977 1.39128 0
M  V30 5474 H 507.815 4.28757 2.49764 0
M  V30 5475 N 506.988 0.0434614 1.5754 0
M  V30 5476 C 508.234 -0.632971 1.92669 0
M  V30 5477 C 508.567 -1.70947 0.921446 0
M  V30 5478 O 507.842 -1.94426 -0.0537202 0
M  V30 5479 C 508.125 -1.23619 3.38216 0
M  V30 5480 C 507.978 -0.168274 4.49485 0
M  V30 5481 C 509.297 -2.15008 3.84005 0
M  V30 5482 H 506.416 -0.228629 0.700641 0
M  V30 5483 H 509.058 0.103651 1.89717 0
M  V30 5484 H 507.208 -1.864 3.40863 0
M  V30 5485 H 508.88 0.463196 4.58969 0
M  V30 5486 H 507.123 0.504581 4.30855 0
M  V30 5487 H 507.794 -0.630218 5.48391 0
M  V30 5488 H 510.27 -1.62198 3.83185 0
M  V30 5489 H 509.146 -2.54161 4.86511 0
M  V30 5490 H 509.407 -3.04707 3.20322 0
M  V30 5491 N 508.466 -1.55915 -0.229846 0
M  V30 5492 C 509.712 -1.79718 -0.952517 0
M  V30 5493 C 510.067 -0.61514 -1.82301 0
M  V30 5494 O 509.36 0.391098 -1.87566 0
M  V30 5495 C 509.554 -3.06845 -1.8325 0
M  V30 5496 C 509.383 -4.37302 -1.04868 0
M  V30 5497 C 508.153 -4.99749 -0.746932 0
M  V30 5498 C 510.351 -5.12599 -0.417989 0
M  V30 5499 N 508.333 -6.13871 0.0591596 0
M  V30 5500 C 509.704 -6.19488 0.251879 0
M  V30 5501 C 511.759 -4.96804 -0.33018 0
M  V30 5502 C 510.462 -7.12299 1.00115 0
M  V30 5503 C 512.488 -5.90007 0.4056 0
M  V30 5504 C 511.85 -6.96317 1.06404 0
M  V30 5505 H 507.949 -0.709382 -0.329091 0
M  V30 5506 H 510.533 -1.93406 -0.224114 0
M  V30 5507 H 508.704 -2.94456 -2.53279 0
M  V30 5508 H 510.436 -3.18874 -2.49202 0
M  V30 5509 H 507.191 -4.61518 -1.06292 0
M  V30 5510 H 507.615 -6.75497 0.450798 0
M  V30 5511 H 512.257 -4.14675 -0.824898 0
M  V30 5512 H 509.975 -7.93916 1.50741 0
M  V30 5513 H 513.561 -5.79862 0.474436 0
M  V30 5514 H 512.441 -7.67194 1.62429 0
M  V30 5515 N 509.944 0.496216 -1.49584 0
M  V30 5516 C 511.193 1.24668 -1.58558 0
M  V30 5517 C 511.506 1.9359 -0.279703 0
M  V30 5518 O 512.712 2.70365 -0.248048 0
M  V30 5519 C 511.168 2.26388 -2.79779 0
M  V30 5520 C 510.776 1.63384 -4.17145 0
M  V30 5521 C 512.52 3.02233 -2.98086 0
M  V30 5522 C 510.427 2.63243 -5.29582 0
M  V30 5523 H 509.357 0.468995 -0.590389 0
M  V30 5524 H 512.008 0.519985 -1.75978 0
M  V30 5525 H 510.39 3.02241 -2.55863 0
M  V30 5526 H 511.564 0.93491 -4.51216 0
M  V30 5527 H 509.879 0.999121 -4.04236 0
M  V30 5528 H 512.476 3.76919 -3.79257 0
M  V30 5529 H 512.819 3.60132 -2.08831 0
M  V30 5530 H 513.352 2.33495 -3.22063 0
M  V30 5531 H 510.091 2.10119 -6.20911 0
M  V30 5532 H 509.611 3.31363 -4.99959 0
M  V30 5533 H 511.29 3.25575 -5.59115 0
M  V30 5534 N 511.423 1.38739 0.74761 0
M  V30 5535 C 512.371 1.36573 1.88283 0
M  V30 5536 C 513.365 0.250712 1.67534 0
M  V30 5537 O 514.571 0.420073 1.7503 0
M  V30 5538 H 510.946 0.42619 0.619569 0
M  V30 5539 H 512.917 2.32356 1.87226 0
M  V30 5540 C 511.666 1.21361 3.25832 0
M  V30 5541 H 510.989 2.06424 3.42388 0
M  V30 5542 H 512.429 1.23901 4.05493 0
M  V30 5543 C 510.888 -0.0790099 3.36807 0
M  V30 5544 O 511.418 -1.05385 3.8763 0
M  V30 5545 N 509.624 -0.13785 2.90273 0
M  V30 5546 H 509.171 0.656128 2.49104 0
M  V30 5547 H 509.129 -1.00228 2.97996 0
M  V30 5548 N 512.901 -0.976442 1.23707 0
M  V30 5549 C 514.312 -1.53284 1.06587 0
M  V30 5550 C 514.663 -1.92765 -0.365526 0
M  V30 5551 O 513.788 -1.7645 -1.25277 0
M  V30 5552 C 514.383 -2.78548 1.92864 0
M  V30 5553 C 512.942 -3.30574 1.79994 0
M  V30 5554 C 512.089 -2.03538 1.88328 0
M  V30 5555 H 515.04 -0.795692 1.37311 0
M  V30 5556 H 515.061 -3.5155 1.45577 0
M  V30 5557 H 514.573 -2.49782 2.97037 0
M  V30 5558 H 512.674 -3.64211 0.786202 0
M  V30 5559 H 512.787 -4.00065 2.636 0
M  V30 5560 H 511.151 -2.17853 1.31954 0
M  V30 5561 H 511.934 -1.77149 2.94063 0
M  V30 5562 N 514.379 -1.04941 -1.1758 0
M  V30 5563 C 515.609 -0.777166 -1.91425 0
M  V30 5564 C 516.017 0.670647 -1.76915 0
M  V30 5565 O 515.36 1.46965 -1.10213 0
M  V30 5566 C 515.422 -1.07495 -3.43052 0
M  V30 5567 C 515.086 -2.51844 -3.81345 0
M  V30 5568 C 516.083 -3.50047 -3.844 0
M  V30 5569 C 513.768 -2.86787 -4.12382 0
M  V30 5570 C 515.762 -4.81239 -4.17957 0
M  V30 5571 C 513.449 -4.18182 -4.45608 0
M  V30 5572 C 514.447 -5.15219 -4.48373 0
M  V30 5573 O 514.135 -6.44258 -4.80819 0
M  V30 5574 H 513.867 -0.282209 -0.614275 0
M  V30 5575 H 516.421 -1.40258 -1.50056 0
M  V30 5576 H 514.651 -0.392437 -3.84704 0
M  V30 5577 H 516.34 -0.78912 -3.98155 0
M  V30 5578 H 517.106 -3.24391 -3.60548 0
M  V30 5579 H 512.985 -2.11922 -4.09402 0
M  V30 5580 H 516.529 -5.56974 -4.2003 0
M  V30 5581 H 512.426 -4.43602 -4.68922 0
M  V30 5582 H 513.194 -6.49041 -4.98686 0
M  V30 5583 N 515.857 1.33968 -0.830081 0
M  V30 5584 C 517.106 1.97323 -0.417928 0
M  V30 5585 C 517.419 1.6652 1.02618 0
M  V30 5586 O 518.625 2.2342 1.54259 0
M  V30 5587 C 517.081 3.53099 -0.696359 0
M  V30 5588 C 516.689 3.92788 -2.15457 0
M  V30 5589 C 518.433 4.23049 -0.350724 0
M  V30 5590 C 516.34 5.41506 -2.37751 0
M  V30 5591 H 515.27 0.738409 -0.152541 0
M  V30 5592 H 517.921 1.52711 -1.01744 0
M  V30 5593 H 516.303 3.95991 -0.0265904 0
M  V30 5594 H 517.477 3.6098 -2.86408 0
M  V30 5595 H 515.792 3.35795 -2.46232 0
M  V30 5596 H 518.389 5.32403 -0.495036 0
M  V30 5597 H 518.732 4.10279 0.705476 0
M  V30 5598 H 519.265 3.85657 -0.975362 0
M  V30 5599 H 516.004 5.5927 -3.41903 0
M  V30 5600 H 515.524 5.74804 -1.7135 0
M  V30 5601 H 517.203 6.0828 -2.20465 0
M  V30 5602 N 517.335 0.585699 1.46312 0
M  V30 5603 C 518.583 0.072278 2.01971 0
M  V30 5604 C 518.904 -1.29345 1.45928 0
M  V30 5605 O 518.174 -1.84973 0.645109 0
M  V30 5606 H 516.754 0.023729 0.746623 0
M  V30 5607 H 519.416 0.762155 1.7938 0
M  V30 5608 H 518.512 0.00552767 3.121 0
M  V30 5609 N 518.813 -1.54241 0.323641 0
M  V30 5610 C 519.745 -2.21836 -0.576311 0
M  V30 5611 C 520.758 -1.21837 -1.07979 0
M  V30 5612 O 521.947 -1.48306 -0.99336 0
M  V30 5613 C 519.047 -2.86923 -1.80356 0
M  V30 5614 C 518.22 -4.1306 -1.43875 0
M  V30 5615 C 517.279 -4.6174 -2.52353 0
M  V30 5616 O 516.305 -5.26421 -2.16494 0
M  V30 5617 N 517.507 -4.35974 -3.83284 0
M  V30 5618 H 520.272 -2.997 0.00247987 0
M  V30 5619 H 517.833 -1.61233 0.146848 0
M  V30 5620 H 519.825 -3.16414 -2.52318 0
M  V30 5621 H 518.395 -2.12765 -2.29019 0
M  V30 5622 H 517.615 -3.90334 -0.550752 0
M  V30 5623 H 518.903 -4.95148 -1.17071 0
M  V30 5624 H 518.301 -3.84203 -4.15216 0
M  V30 5625 H 516.858 -4.70119 -4.51477 0
M  V30 5626 N 520.291 -0.0518155 -1.57515 0
M  V30 5627 C 521.238 0.922352 -2.11569 0
M  V30 5628 C 522.208 1.30842 -1.02321 0
M  V30 5629 O 523.393 1.39778 -1.29872 0
M  V30 5630 C 520.533 2.19167 -2.6657 0
M  V30 5631 C 519.646 1.86003 -3.89906 0
M  V30 5632 C 518.781 3.07398 -4.33221 0
M  V30 5633 C 517.82 2.70158 -5.49255 0
M  V30 5634 N 516.957 3.84248 -5.8762 0
M  V30 5635 H 521.797 0.454506 -2.94514 0
M  V30 5636 H 519.334 0.212718 -1.45554 0
M  V30 5637 H 521.292 2.93443 -2.96559 0
M  V30 5638 H 519.922 2.63528 -1.86421 0
M  V30 5639 H 518.974 1.01874 -3.66505 0
M  V30 5640 H 520.286 1.54592 -4.74239 0
M  V30 5641 H 519.44 3.89972 -4.64765 0
M  V30 5642 H 518.179 3.41988 -3.477 0
M  V30 5643 H 517.184 1.86001 -5.17382 0
M  V30 5644 H 518.409 2.36759 -6.36492 0
M  V30 5645 H 516.355 4.18638 -5.05053 0
M  V30 5646 H 516.272 3.56538 -6.66646 0
M  V30 5647 H 517.54 4.6746 -6.2378 0
M  V30 5648 N 521.769 1.56035 0.221574 0
M  V30 5649 C 522.994 1.83476 0.967026 0
M  V30 5650 C 523.419 0.632139 1.7716 0
M  V30 5651 O 522.777 -0.419082 1.7639 0
M  V30 5652 C 522.825 3.08907 1.86034 0
M  V30 5653 O 521.929 2.876 2.95567 0
M  V30 5654 H 521.27 0.604913 0.273817 0
M  V30 5655 H 523.8 2.03247 0.234893 0
M  V30 5656 H 523.81 3.3901 2.27016 0
M  V30 5657 H 522.485 3.96068 1.26898 0
M  V30 5658 H 521.062 2.6873 2.58532 0
M  V30 5659 N 523.247 -0.488276 1.49845 0
M  V30 5660 C 524.658 -1.06955 1.53028 0
M  V30 5661 C 525.009 -1.9351 0.323797 0
M  V30 5662 O 524.134 -2.08891 -0.565116 0
M  V30 5663 C 524.729 -1.94643 2.77307 0
M  V30 5664 C 523.288 -2.4791 2.83227 0
M  V30 5665 C 522.435 -1.25833 2.47106 0
M  V30 5666 H 525.386 -0.271626 1.56358 0
M  V30 5667 H 525.407 -2.79496 2.5819 0
M  V30 5668 H 524.919 -1.31621 3.65099 0
M  V30 5669 H 523.02 -3.14535 1.99745 0
M  V30 5670 H 523.133 -2.84193 3.85709 0
M  V30 5671 H 521.497 -1.58764 1.99163 0
M  V30 5672 H 522.28 -0.644993 3.37186 0
M  V30 5673 N 524.725 -1.39134 -0.740242 0
M  V30 5674 C 525.971 -1.36273 -1.50192 0
M  V30 5675 C 526.304 0.0430136 -1.94152 0
M  V30 5676 O 525.579 1.00691 -1.66408 0
M  V30 5677 C 525.862 -2.33041 -2.74525 0
M  V30 5678 C 525.715 -3.82535 -2.36617 0
M  V30 5679 C 527.034 -2.27723 -3.76604 0
M  V30 5680 H 524.153 -0.496323 -0.544823 0
M  V30 5681 H 526.795 -1.70085 -0.846815 0
M  V30 5682 H 524.945 -2.04337 -3.30422 0
M  V30 5683 H 526.617 -4.21967 -1.86391 0
M  V30 5684 H 524.86 -3.99565 -1.68909 0
M  V30 5685 H 525.531 -4.45723 -3.2563 0
M  V30 5686 H 528.007 -2.53091 -3.30279 0
M  V30 5687 H 526.883 -2.97519 -4.61274 0
M  V30 5688 H 527.144 -1.28049 -4.2315 0
M  V30 5689 N 526.204 0.969867 -1.24223 0
M  V30 5690 C 527.451 1.71256 -1.08063 0
M  V30 5691 C 527.779 1.90734 0.380872 0
M  V30 5692 O 527.034 1.46469 1.29789 0
M  V30 5693 C 527.333 3.10883 -1.76314 0
M  V30 5694 C 526.999 3.11252 -3.26241 0
M  V30 5695 C 525.661 3.1106 -3.67144 0
M  V30 5696 C 528.013 3.05751 -4.22097 0
M  V30 5697 C 525.341 3.03097 -5.02344 0
M  V30 5698 C 527.693 2.9933 -5.57301 0
M  V30 5699 C 526.357 2.97466 -5.97554 0
M  V30 5700 H 525.627 0.62667 -0.395431 0
M  V30 5701 H 528.274 1.13422 -1.54297 0
M  V30 5702 H 526.579 3.72168 -1.22468 0
M  V30 5703 H 528.276 3.67138 -1.61277 0
M  V30 5704 H 524.866 3.12165 -2.93685 0
M  V30 5705 H 529.05 3.05031 -3.91497 0
M  V30 5706 H 524.306 3.00013 -5.32731 0
M  V30 5707 H 528.48 2.94033 -6.31283 0
M  V30 5708 H 526.107 2.91051 -7.02277 0
M  V30 5709 N 527.682 1.05563 1.17022 0
M  V30 5710 C 528.629 0.659893 2.21165 0
M  V30 5711 C 529.599 -0.339813 1.62587 0
M  V30 5712 O 530.784 -0.230378 1.89404 0
M  V30 5713 C 527.924 0.0447297 3.45071 0
M  V30 5714 C 527.037 1.09372 4.17926 0
M  V30 5715 C 526.172 0.445481 5.29329 0
M  V30 5716 C 525.211 1.47852 5.93975 0
M  V30 5717 N 524.348 0.854172 6.96885 0
M  V30 5718 H 529.188 1.55243 2.54369 0
M  V30 5719 H 526.725 0.776336 1.24946 0
M  V30 5720 H 528.683 -0.329404 4.15898 0
M  V30 5721 H 527.313 -0.811244 3.1244 0
M  V30 5722 H 526.365 1.58564 3.45777 0
M  V30 5723 H 527.677 1.87773 4.62107 0
M  V30 5724 H 526.831 0.0179688 6.06697 0
M  V30 5725 H 525.57 -0.370481 4.86291 0
M  V30 5726 H 524.575 1.91601 5.15334 0
M  V30 5727 H 525.8 2.29645 6.39093 0
M  V30 5728 H 523.746 0.0587882 6.55974 0
M  V30 5729 H 523.663 1.57567 7.39397 0
M  V30 5730 H 524.931 0.451559 7.78191 0
M  V30 5731 N 529.16 -1.33526 0.837174 0
M  V30 5732 C 530.07 -2.33023 0.271568 0
M  V30 5733 C 531.086 -1.63272 -0.601514 0
M  V30 5734 O 532.262 -1.94939 -0.506038 0
M  V30 5735 C 529.327 -3.42382 -0.545448 0
M  V30 5736 C 528.388 -4.27857 0.351709 0
M  V30 5737 C 527.621 -5.31994 -0.426409 0
M  V30 5738 O 527.844 -5.45763 -1.65828 0
M  V30 5739 O 526.778 -6.01572 0.1987 0
M  V30 5740 H 530.604 -2.83256 1.09545 0
M  V30 5741 H 528.189 -1.36837 0.599655 0
M  V30 5742 H 530.071 -4.09122 -1.00979 0
M  V30 5743 H 528.746 -2.94369 -1.34641 0
M  V30 5744 H 527.653 -3.6399 0.863853 0
M  V30 5745 H 528.986 -4.79349 1.1174 0
M  V30 5746 N 530.638 -0.59345 -1.46 0
M  V30 5747 C 531.568 0.121192 -2.33185 0
M  V30 5748 C 532.549 0.872977 -1.4599 0
M  V30 5749 O 533.734 0.846321 -1.74789 0
M  V30 5750 C 530.864 1.12844 -3.28456 0
M  V30 5751 C 529.818 0.4908 -4.25177 0
M  V30 5752 C 529.144 1.60529 -5.10034 0
M  V30 5753 C 530.444 -0.578949 -5.19081 0
M  V30 5754 H 532.138 -0.606767 -2.93187 0
M  V30 5755 H 529.684 -0.293242 -1.40983 0
M  V30 5756 H 531.637 1.63684 -3.88311 0
M  V30 5757 H 530.361 1.88681 -2.66584 0
M  V30 5758 H 529.02 0.00339328 -3.666 0
M  V30 5759 H 528.668 2.35359 -4.44539 0
M  V30 5760 H 528.368 1.18422 -5.75543 0
M  V30 5761 H 529.892 2.11623 -5.72755 0
M  V30 5762 H 531.306 -0.155199 -5.7309 0
M  V30 5763 H 529.703 -0.920947 -5.92991 0
M  V30 5764 H 530.773 -1.46109 -4.62364 0
M  V30 5765 N 532.116 1.54067 -0.331816 0
M  V30 5766 C 533.048 2.22139 0.564538 0
M  V30 5767 C 534.061 1.22408 1.07332 0
M  V30 5768 O 535.25 1.4883 0.985481 0
M  V30 5769 C 532.35 2.87876 1.78831 0
M  V30 5770 C 531.523 4.13817 1.41682 0
M  V30 5771 C 530.582 4.63072 2.49901 0
M  V30 5772 O 529.608 5.27562 2.13699 0
M  V30 5773 N 530.81 4.38001 3.80967 0
M  V30 5774 H 533.575 2.99694 -0.0183736 0
M  V30 5775 H 531.136 1.61153 -0.155396 0
M  V30 5776 H 533.128 3.17747 2.50637 0
M  V30 5777 H 531.698 2.13977 2.27887 0
M  V30 5778 H 530.918 3.9062 0.530044 0
M  V30 5779 H 532.206 4.95762 1.14443 0
M  V30 5780 H 531.604 3.864 4.13173 0
M  V30 5781 H 530.161 4.72507 4.48977 0
M  V30 5782 N 533.594 0.0601682 1.57485 0
M  V30 5783 C 534.504 -0.926121 2.15546 0
M  V30 5784 C 535.52 -1.33532 1.11558 0
M  V30 5785 O 536.696 -1.4104 1.4377 0
M  V30 5786 C 533.761 -2.17952 2.69625 0
M  V30 5787 C 532.822 -1.82783 3.88444 0
M  V30 5788 C 532.055 -3.02148 4.39935 0
M  V30 5789 O 532.278 -4.15803 3.90466 0
M  V30 5790 O 531.212 -2.82639 5.31412 0
M  V30 5791 H 535.038 -0.462289 3.00161 0
M  V30 5792 H 532.623 -0.162246 1.48516 0
M  V30 5793 H 534.505 -2.91474 3.04337 0
M  V30 5794 H 533.18 -2.63456 1.88077 0
M  V30 5795 H 532.087 -1.06549 3.58606 0
M  V30 5796 H 533.42 -1.42072 4.7125 0
M  V30 5797 N 535.072 -1.5615 -0.213296 0
M  V30 5798 C 536.019 -1.93086 -1.26437 0
M  V30 5799 C 536.989 -0.789086 -1.4616 0
M  V30 5800 O 538.174 -1.04569 -1.59593 0
M  V30 5801 C 535.314 -2.26003 -2.608 0
M  V30 5802 C 534.427 -3.53156 -2.48807 0
M  V30 5803 C 533.562 -3.7548 -3.7575 0
M  V30 5804 C 532.601 -4.96119 -3.58514 0
M  V30 5805 N 531.738 -5.14791 -4.77425 0
M  V30 5806 H 536.578 -2.82707 -0.942376 0
M  V30 5807 H 534.115 -1.39919 -0.454001 0
M  V30 5808 H 536.073 -2.431 -3.39055 0
M  V30 5809 H 534.703 -1.39546 -2.91079 0
M  V30 5810 H 533.755 -3.44207 -1.61944 0
M  V30 5811 H 535.067 -4.41565 -2.31996 0
M  V30 5812 H 534.221 -3.92718 -4.62447 0
M  V30 5813 H 532.96 -2.85368 -3.95495 0
M  V30 5814 H 531.965 -4.78823 -2.70201 0
M  V30 5815 H 533.19 -5.87724 -3.40231 0
M  V30 5816 H 531.136 -4.27623 -4.97468 0
M  V30 5817 H 531.053 -5.97347 -4.63371 0
M  V30 5818 H 532.321 -5.36471 -5.65525 0
M  V30 5819 N 536.55 0.480323 -1.50102 0
M  V30 5820 C 537.798 1.23063 -1.60312 0
M  V30 5821 C 538.119 1.92659 -0.301226 0
M  V30 5822 O 537.389 1.83691 0.680753 0
M  V30 5823 H 535.969 0.457231 -0.590719 0
M  V30 5824 H 538.631 0.554893 -1.86834 0
M  V30 5825 H 537.727 1.9835 -2.40964 0
M  V30 5826 N 538.028 1.39524 0.732853 0
M  V30 5827 C 539.258 1.3994 1.51988 0
M  V30 5828 C 539.666 -0.00727973 1.89199 0
M  V30 5829 O 539.009 -0.989521 1.54771 0
M  V30 5830 C 539.071 2.21026 2.83527 0
M  V30 5831 C 538.735 3.69633 2.68738 0
M  V30 5832 C 539.732 4.62665 2.37143 0
M  V30 5833 C 537.417 4.13244 2.85542 0
M  V30 5834 C 539.411 5.97291 2.22536 0
M  V30 5835 C 537.098 5.47945 2.70554 0
M  V30 5836 C 538.096 6.39783 2.39097 0
M  V30 5837 O 537.784 7.72002 2.24204 0
M  V30 5838 H 537.516 0.479795 0.476206 0
M  V30 5839 H 540.07 1.8399 0.913054 0
M  V30 5840 H 538.3 1.71728 3.46477 0
M  V30 5841 H 539.989 2.13594 3.45156 0
M  V30 5842 H 540.755 4.30272 2.2381 0
M  V30 5843 H 536.634 3.42094 3.09019 0
M  V30 5844 H 540.178 6.68939 1.97905 0
M  V30 5845 H 536.075 5.79928 2.83466 0
M  V30 5846 H 536.843 7.8275 2.39258 0
M  V30 5847 N 539.506 -0.963266 1.24736 0
M  V30 5848 C 540.436 -2.07628 1.06832 0
M  V30 5849 C 541.417 -1.70088 -0.0200566 0
M  V30 5850 O 542.602 -1.93636 0.147854 0
M  V30 5851 C 539.732 -3.40636 0.677069 0
M  V30 5852 C 538.686 -3.9215 1.71471 0
M  V30 5853 C 538.012 -5.21553 1.1784 0
M  V30 5854 C 539.312 -4.19493 3.11164 0
M  V30 5855 H 541.006 -2.22864 1.9993 0
M  V30 5856 H 538.552 -1.07093 0.96266 0
M  V30 5857 H 540.505 -4.17941 0.538792 0
M  V30 5858 H 539.229 -3.25313 -0.289612 0
M  V30 5859 H 537.888 -3.17005 1.84128 0
M  V30 5860 H 537.536 -5.02593 0.202195 0
M  V30 5861 H 537.236 -5.56988 1.87185 0
M  V30 5862 H 538.76 -6.01463 1.05233 0
M  V30 5863 H 540.174 -4.87487 3.01711 0
M  V30 5864 H 538.571 -4.66165 3.77902 0
M  V30 5865 H 539.641 -3.26097 3.58871 0
M  V30 5866 N 540.985 -1.06182 -1.16461 0
M  V30 5867 C 541.915 -0.692861 -2.22984 0
M  V30 5868 C 542.896 0.314122 -1.67174 0
M  V30 5869 O 544.081 0.189499 -1.93273 0
M  V30 5870 C 541.211 -0.07732 -3.47214 0
M  V30 5871 C 540.165 -1.01015 -4.15909 0
M  V30 5872 C 539.491 -0.257973 -5.34077 0
M  V30 5873 C 540.791 -2.33868 -4.67015 0
M  V30 5874 H 542.485 -1.58343 -2.54102 0
M  V30 5875 H 540.031 -0.76279 -1.22137 0
M  V30 5876 H 541.984 0.19266 -4.20959 0
M  V30 5877 H 540.708 0.848254 -3.15392 0
M  V30 5878 H 539.367 -1.26486 -3.44088 0
M  V30 5879 H 539.015 0.670684 -4.98509 0
M  V30 5880 H 538.715 -0.879638 -5.80979 0
M  V30 5881 H 540.239 0.00448788 -6.106 0
M  V30 5882 H 541.653 -2.1279 -5.32347 0
M  V30 5883 H 540.05 -2.91522 -5.24533 0
M  V30 5884 H 541.12 -2.97019 -3.83286 0
M  V30 5885 N 542.463 1.3308 -0.844243 0
M  V30 5886 C 543.41 2.29104 -0.279323 0
M  V30 5887 C 544.38 1.54577 0.607882 0
M  V30 5888 O 545.565 1.8285 0.545009 0
M  V30 5889 C 542.705 3.40927 0.53508 0
M  V30 5890 C 541.818 4.30354 -0.376749 0
M  V30 5891 C 540.953 5.29297 0.449276 0
M  V30 5892 C 539.992 6.10365 -0.460606 0
M  V30 5893 N 539.129 7.01335 0.327612 0
M  V30 5894 H 543.969 2.76817 -1.10346 0
M  V30 5895 H 541.506 1.36203 -0.555611 0
M  V30 5896 H 543.464 4.04469 1.02278 0
M  V30 5897 H 542.094 2.94391 1.32414 0
M  V30 5898 H 541.146 3.67485 -0.982791 0
M  V30 5899 H 542.458 4.87067 -1.07549 0
M  V30 5900 H 541.612 5.98392 1.00058 0
M  V30 5901 H 540.351 4.73174 1.18143 0
M  V30 5902 H 539.356 5.40182 -1.02388 0
M  V30 5903 H 540.581 6.68571 -1.1912 0
M  V30 5904 H 538.527 6.47655 1.04305 0
M  V30 5905 H 538.444 7.55355 -0.3123 0
M  V30 5906 H 539.712 7.74731 0.86098 0
M  V30 5907 N 543.941 0.601185 1.45683 0
M  V30 5908 C 545.357 0.264315 1.57396 0
M  V30 5909 C 545.557 -1.23324 1.59353 0
M  V30 5910 O 544.613 -2.01594 1.52039 0
M  V30 5911 C 545.926 0.929839 2.85962 0
M  V30 5912 C 547.474 0.905156 2.99626 0
M  V30 5913 C 547.949 1.55057 4.30954 0
M  V30 5914 N 549.44 1.51576 4.37697 0
M  V30 5915 C 550.175 1.98436 5.37969 0
M  V30 5916 N 549.671 2.53352 6.44813 0
M  V30 5917 N 551.464 1.89242 5.29286 0
M  V30 5918 H 543.615 1.57363 1.42656 0
M  V30 5919 H 545.878 0.658831 0.681649 0
M  V30 5920 H 545.584 1.98404 2.90394 0
M  V30 5921 H 545.458 0.449224 3.74515 0
M  V30 5922 H 547.845 -0.14048 2.94765 0
M  V30 5923 H 547.926 1.42397 2.12501 0
M  V30 5924 H 547.57 2.5955 4.36573 0
M  V30 5925 H 547.5 1.00682 5.16886 0
M  V30 5926 H 549.991 1.11452 3.61091 0
M  V30 5927 H 550.304 2.86918 7.17564 0
M  V30 5928 H 548.649 2.57388 6.45582 0
M  V30 5929 H 551.84 1.46083 4.44722 0
M  V30 5930 H 552.013 2.26075 6.07284 0
M  V30 5931 N 545.419 -1.53889 0.339982 0
M  V30 5932 C 546.83 -1.86139 -0.144671 0
M  V30 5933 C 547.181 -1.2613 -1.50285 0
M  V30 5934 O 546.306 -0.573515 -2.08662 0
M  V30 5935 C 546.901 -3.37728 -0.269285 0
M  V30 5936 C 545.46 -3.69868 -0.698168 0
M  V30 5937 C 544.607 -2.76777 0.170249 0
M  V30 5938 H 547.558 -1.48503 0.559704 0
M  V30 5939 H 547.579 -3.64331 -1.0974 0
M  V30 5940 H 547.091 -3.81375 0.719366 0
M  V30 5941 H 545.192 -3.31764 -1.69597 0
M  V30 5942 H 545.305 -4.76582 -0.490533 0
M  V30 5943 H 543.669 -2.52188 -0.356844 0
M  V30 5944 H 544.452 -3.23253 1.15597 0
M  V30 5945 N 546.897 -0.0685191 -1.57451 0
M  V30 5946 C 548.174 0.642167 -1.84758 0
M  V30 5947 C 548.554 1.87991 -0.960344 0
M  V30 5948 O 547.902 2.28485 -0.0257894 0
M  V30 5949 C 548.112 0.982946 -3.34872 0
M  V30 5950 C 549.46 1.35784 -4.02303 0
M  V30 5951 O 550.484 1.07477 -3.39598 0
M  V30 5952 O 549.343 1.88681 -5.12895 0
M  V30 5953 H 546.437 0.318625 -0.763156 0
M  V30 5954 H 548.983 -0.0992015 -1.6941 0
M  V30 5955 H 547.755 0.10372 -3.91163 0
M  V30 5956 H 547.378 1.78119 -3.55471 0
M  V30 5957 N 548.375 1.56261 0.205012 0
M  V30 5958 C 549.623 1.79684 0.925096 0
M  V30 5959 C 549.944 0.63989 1.84202 0
M  V30 5960 O 549.214 -0.342345 1.92885 0
M  V30 5961 H 547.794 0.662774 0.344587 0
M  V30 5962 H 550.456 1.93734 0.212899 0
M  V30 5963 H 549.552 2.72467 1.52211 0
M  V30 5964 N 549.853 -0.472356 1.50355 0
M  V30 5965 C 551.078 -1.25251 1.65309 0
M  V30 5966 C 551.503 -1.85081 0.335643 0
M  V30 5967 O 550.861 -1.67227 -0.700335 0
M  V30 5968 C 550.909 -2.3379 2.74544 0
M  V30 5969 O 550.013 -3.38401 2.35709 0
M  V30 5970 H 549.354 -0.368539 0.552336 0
M  V30 5971 H 551.884 -0.562271 1.96722 0
M  V30 5972 H 551.894 -2.79121 2.97583 0
M  V30 5973 H 550.569 -1.89614 3.70161 0
M  V30 5974 H 549.146 -2.9879 2.23112 0
M  V30 5975 N 551.331 -1.39911 -0.725443 0
M  V30 5976 C 552.261 -1.42138 -1.85254 0
M  V30 5977 C 553.242 -0.283513 -1.67721 0
M  V30 5978 O 554.427 -0.490717 -1.87898 0
M  V30 5979 C 551.557 -1.27354 -3.23107 0
M  V30 5980 C 550.511 -2.3864 -3.55296 0
M  V30 5981 C 549.837 -2.08939 -4.92188 0
M  V30 5982 C 551.137 -3.8097 -3.57295 0
M  V30 5983 H 552.831 -2.36461 -1.83648 0
M  V30 5984 H 550.377 -1.13817 -0.882138 0
M  V30 5985 H 552.33 -1.2753 -4.01639 0
M  V30 5986 H 551.054 -0.295025 -3.25265 0
M  V30 5987 H 549.713 -2.37696 -2.79099 0
M  V30 5988 H 549.361 -1.09502 -4.90936 0
M  V30 5989 H 549.061 -2.83491 -5.14691 0
M  V30 5990 H 550.585 -2.10781 -5.73065 0
M  V30 5991 H 551.999 -3.8379 -4.25885 0
M  V30 5992 H 550.396 -4.5496 -3.9132 0
M  V30 5993 H 551.466 -4.11261 -2.5689 0
M  V30 5994 N 552.809 0.956637 -1.25245 0
M  V30 5995 C 554.055 1.70413 -1.11044 0
M  V30 5996 C 554.41 1.89275 0.345377 0
M  V30 5997 O 553.703 1.45116 1.25107 0
M  V30 5998 C 553.897 3.08996 -1.79601 0
M  V30 5999 C 553.726 3.03654 -3.317 0
M  V30 6000 C 552.496 3.07521 -4.00947 0
M  V30 6001 C 554.694 2.84975 -4.28128 0
M  V30 6002 N 552.676 2.92316 -5.39838 0
M  V30 6003 C 554.047 2.7818 -5.5409 0
M  V30 6004 C 556.102 2.6964 -4.18568 0
M  V30 6005 C 554.805 2.57616 -6.71585 0
M  V30 6006 C 556.831 2.50447 -5.35752 0
M  V30 6007 C 556.193 2.4437 -6.60653 0
M  V30 6008 H 552.292 0.631642 -0.461035 0
M  V30 6009 H 554.876 1.13331 -1.58317 0
M  V30 6010 H 553.047 3.64248 -1.34826 0
M  V30 6011 H 554.779 3.72515 -1.58161 0
M  V30 6012 H 551.534 3.16635 -3.52192 0
M  V30 6013 H 551.958 2.87923 -6.12723 0
M  V30 6014 H 556.6 2.73113 -3.22752 0
M  V30 6015 H 554.318 2.52885 -7.67512 0
M  V30 6016 H 557.904 2.39509 -5.30214 0
M  V30 6017 H 556.784 2.29712 -7.49801 0
M  V30 6018 N 554.287 1.06798 1.15896 0
M  V30 6019 C 555.219 0.641263 2.20046 0
M  V30 6020 C 556.232 -0.303355 1.59949 0
M  V30 6021 O 557.421 -0.0935478 1.78255 0
M  V30 6022 C 554.521 -0.0794029 3.38807 0
M  V30 6023 C 553.694 0.879986 4.28457 0
M  V30 6024 C 552.753 0.197638 5.25829 0
M  V30 6025 O 551.779 0.836913 5.63014 0
M  V30 6026 N 552.981 -1.05886 5.70761 0
M  V30 6027 H 555.746 1.53718 2.57276 0
M  V30 6028 H 553.307 0.951951 1.30956 0
M  V30 6029 H 555.299 -0.546418 4.00994 0
M  V30 6030 H 553.869 -0.877193 3.0004 0
M  V30 6031 H 553.089 1.52625 3.63454 0
M  V30 6032 H 554.377 1.53065 4.8523 0
M  V30 6033 H 553.775 -1.59828 5.42652 0
M  V30 6034 H 552.332 -1.46965 6.35015 0
M  V30 6035 N 555.766 -1.3263 0.851289 0
M  V30 6036 C 557.012 -1.98061 0.462963 0
M  V30 6037 C 557.367 -1.66162 -0.969948 0
M  V30 6038 O 556.66 -0.937723 -1.67085 0
M  V30 6039 C 556.854 -3.51713 0.635015 0
M  V30 6040 C 556.683 -3.98544 2.0831 0
M  V30 6041 C 555.453 -4.25787 2.72091 0
M  V30 6042 C 557.651 -4.13858 3.0533 0
M  V30 6043 N 555.633 -4.58842 4.07845 0
M  V30 6044 C 557.004 -4.50412 4.26063 0
M  V30 6045 C 559.059 -3.96182 3.0157 0
M  V30 6046 C 557.762 -4.71136 5.43529 0
M  V30 6047 C 559.788 -4.18088 4.18278 0
M  V30 6048 C 559.15 -4.54956 5.37768 0
M  V30 6049 H 555.249 -0.750976 0.218082 0
M  V30 6050 H 557.833 -1.60514 1.10197 0
M  V30 6051 H 556.004 -3.88391 0.0257298 0
M  V30 6052 H 557.736 -4.04118 0.216915 0
M  V30 6053 H 554.491 -4.17734 2.23149 0
M  V30 6054 H 554.915 -4.7956 4.77862 0
M  V30 6055 H 559.557 -3.66783 2.1031 0
M  V30 6056 H 557.275 -4.9939 6.35323 0
M  V30 6057 H 560.861 -4.05918 4.168 0
M  V30 6058 H 559.741 -4.71567 6.26573 0
M  V30 6059 N 557.244 -0.608902 -1.45362 0
M  V30 6060 C 558.521 -0.0365378 -1.95566 0
M  V30 6061 C 558.901 1.43169 -1.55131 0
M  V30 6062 O 558.249 2.1349 -0.814513 0
M  V30 6063 C 558.459 -0.236026 -3.48201 0
M  V30 6064 C 559.807 -0.117518 -4.24437 0
M  V30 6065 O 560.831 -0.166217 -3.55812 0
M  V30 6066 O 559.69 -0.00372127 -5.465 0
M  V30 6067 H 556.784 0.0349874 -0.82626 0
M  V30 6068 H 559.33 -0.679055 -1.55521 0
M  V30 6069 H 558.102 -1.25569 -3.70605 0
M  V30 6070 H 557.725 0.441691 -3.95139 0
M  V30 6071 N 558.722 1.53707 -0.348139 0
M  V30 6072 C 559.669 2.25173 0.506518 0
M  V30 6073 C 560.639 1.25174 1.09182 0
M  V30 6074 O 561.824 1.53917 1.12757 0
M  V30 6075 C 558.964 3.03141 1.64923 0
M  V30 6076 C 558.077 4.18002 1.0908 0
M  V30 6077 C 557.212 4.83447 2.20119 0
M  V30 6078 C 556.251 5.90369 1.61651 0
M  V30 6079 N 555.388 6.49575 2.66451 0
M  V30 6080 H 560.228 2.97799 -0.109452 0
M  V30 6081 H 557.765 1.46953 -0.0657866 0
M  V30 6082 H 559.723 3.46607 2.32205 0
M  V30 6083 H 558.353 2.32803 2.23612 0
M  V30 6084 H 557.405 3.79145 0.308783 0
M  V30 6085 H 558.717 4.94892 0.623178 0
M  V30 6086 H 557.871 5.30008 2.95257 0
M  V30 6087 H 556.61 4.05991 2.70227 0
M  V30 6088 H 555.615 5.43186 0.850209 0
M  V30 6089 H 556.84 6.69735 1.1239 0
M  V30 6090 H 554.786 5.74981 3.15805 0
M  V30 6091 H 554.703 7.21952 2.24325 0
M  V30 6092 H 555.971 7.00789 3.41344 0
M  V30 6093 N 560.2 0.0768682 1.57412 0
M  V30 6094 C 561.446 -0.585926 1.94778 0
M  V30 6095 C 561.801 -1.66912 0.956982 0
M  V30 6096 O 561.094 -1.9159 -0.0199454 0
M  V30 6097 C 561.288 -1.20268 3.36557 0
M  V30 6098 C 561.117 -0.18076 4.49337 0
M  V30 6099 C 559.887 0.236362 5.04747 0
M  V30 6100 C 562.085 0.583978 5.10974 0
M  V30 6101 N 560.067 1.24846 6.01071 0
M  V30 6102 C 561.438 1.44841 6.02844 0
M  V30 6103 C 563.493 0.639492 4.93776 0
M  V30 6104 C 562.196 2.36343 6.79363 0
M  V30 6105 C 564.222 1.54204 5.70942 0
M  V30 6106 C 563.584 2.39414 6.62465 0
M  V30 6107 H 559.683 -0.185281 0.759734 0
M  V30 6108 H 562.267 0.155193 1.9408 0
M  V30 6109 H 560.438 -1.9137 3.37982 0
M  V30 6110 H 562.17 -1.82636 3.61146 0
M  V30 6111 H 558.925 -0.14777 4.73369 0
M  V30 6112 H 559.349 1.75217 6.53933 0
M  V30 6113 H 563.991 -0.00510074 4.228 0
M  V30 6114 H 561.709 3.01836 7.49614 0
M  V30 6115 H 565.295 1.5899 5.59655 0
M  V30 6116 H 564.175 3.0812 7.21132 0
M  V30 6117 N 561.678 -1.56367 -0.196722 0
M  V30 6118 C 562.61 -1.90941 -1.26784 0
M  V30 6119 C 563.623 -0.799928 -1.41792 0
M  V30 6120 O 564.812 -1.07833 -1.42247 0
M  V30 6121 C 561.912 -2.12477 -2.6402 0
M  V30 6122 C 561.085 -3.43616 -2.70641 0
M  V30 6123 C 560.144 -3.54284 -3.89062 0
M  V30 6124 O 559.17 -4.2712 -3.76241 0
M  V30 6125 N 560.372 -2.87252 -5.04447 0
M  V30 6126 H 563.137 -2.83417 -0.974417 0
M  V30 6127 H 560.698 -1.57215 -0.386649 0
M  V30 6128 H 562.69 -2.16904 -3.41665 0
M  V30 6129 H 561.26 -1.26508 -2.85857 0
M  V30 6130 H 560.48 -3.51072 -1.79283 0
M  V30 6131 H 561.768 -4.29958 -2.72054 0
M  V30 6132 H 561.166 -2.27901 -5.17762 0
M  V30 6133 H 559.723 -2.97308 -5.80044 0
M  V30 6134 N 563.156 0.464375 -1.50603 0
M  V30 6135 C 564.567 1.04507 -1.5471 0
M  V30 6136 C 564.918 1.9297 -0.354542 0
M  V30 6137 O 564.043 2.09763 0.531812 0
M  V30 6138 C 564.638 1.90207 -2.80369 0
M  V30 6139 C 563.197 2.43373 -2.87135 0
M  V30 6140 C 562.344 1.21886 -2.49076 0
M  V30 6141 H 565.295 0.246716 -1.56771 0
M  V30 6142 H 565.316 2.75353 -2.62604 0
M  V30 6143 H 564.828 1.25796 -3.67147 0
M  V30 6144 H 562.929 3.11318 -2.04724 0
M  V30 6145 H 563.042 2.7802 -3.90181 0
M  V30 6146 H 561.406 1.55575 -2.01664 0
M  V30 6147 H 562.189 0.591268 -3.3817 0
M  V30 6148 N 564.634 1.40294 0.718013 0
M  V30 6149 C 565.882 1.38167 1.47494 0
M  V30 6150 C 566.203 -0.01607 1.94993 0
M  V30 6151 O 565.473 -0.970396 1.70177 0
M  V30 6152 H 564.053 0.508505 0.547203 0
M  V30 6153 H 566.715 1.75324 0.851322 0
M  V30 6154 H 565.811 2.05503 2.34894 0
M  V30 6155 N 566.112 -0.949982 1.2575 0
M  V30 6156 C 567.042 -2.06483 1.09028 0
M  V30 6157 C 568.023 -1.701 -0.00201532 0
M  V30 6158 O 569.208 -1.93469 0.168383 0
M  V30 6159 C 566.338 -3.39899 0.71316 0
M  V30 6160 C 565.292 -3.90309 1.75621 0
M  V30 6161 C 564.618 -5.20274 1.23365 0
M  V30 6162 C 565.918 -4.16169 3.15596 0
M  V30 6163 H 567.612 -2.20731 2.02283 0
M  V30 6164 H 565.158 -1.06066 0.973964 0
M  V30 6165 H 567.111 -4.17346 0.58309 0
M  V30 6166 H 565.835 -3.25602 -0.255091 0
M  V30 6167 H 564.494 -3.15035 1.8748 0
M  V30 6168 H 564.142 -5.02351 0.255491 0
M  V30 6169 H 563.842 -5.54971 1.93082 0
M  V30 6170 H 565.366 -6.00314 1.11607 0
M  V30 6171 H 566.78 -4.84259 3.06864 0
M  V30 6172 H 565.177 -4.62131 3.82825 0
M  V30 6173 H 566.247 -3.22273 3.6231 0
M  V30 6174 N 567.59 -1.07411 -1.15328 0
M  V30 6175 C 568.553 -0.698914 -2.18284 0
M  V30 6176 C 569.553 0.261149 -1.58665 0
M  V30 6177 O 570.743 0.0420277 -1.74149 0
M  V30 6178 C 567.875 -0.0302427 -3.40887 0
M  V30 6179 H 569.068 -1.61045 -2.52991 0
M  V30 6180 H 566.621 -0.870724 -1.298 0
M  V30 6181 H 567.356 0.893505 -3.11748 0
M  V30 6182 H 567.141 -0.720759 -3.85419 0
M  V30 6183 H 568.631 0.21759 -4.17033 0
M  V30 6184 N 569.068 1.32177 -0.85831 0
M  V30 6185 C 570.317 1.96392 -0.459689 0
M  V30 6186 C 570.63 1.68659 0.990632 0
M  V30 6187 O 571.836 2.26641 1.49485 0
M  V30 6188 C 570.292 3.51542 -0.7711 0
M  V30 6189 C 569.9 3.8813 -2.2374 0
M  V30 6190 C 571.644 4.2221 -0.44038 0
M  V30 6191 C 569.551 5.36341 -2.49183 0
M  V30 6192 H 568.481 0.735007 -0.168169 0
M  V30 6193 H 571.132 1.50518 -1.0496 0
M  V30 6194 H 569.514 3.95846 -0.11058 0
M  V30 6195 H 570.688 3.54824 -2.94001 0
M  V30 6196 H 569.003 3.30497 -2.533 0
M  V30 6197 H 571.6 5.31234 -0.607855 0
M  V30 6198 H 571.943 4.11683 0.618291 0
M  V30 6199 H 572.476 3.83502 -1.05695 0
M  V30 6200 H 569.215 5.51892 -3.53689 0
M  V30 6201 H 568.735 5.7104 -1.83504 0
M  V30 6202 H 570.414 6.03466 -2.33318 0
M  V30 6203 N 570.547 0.616602 1.45037 0
M  V30 6204 C 571.777 0.121791 2.06241 0
M  V30 6205 C 572.185 -1.20289 1.46038 0
M  V30 6206 O 571.528 -1.7456 0.572242 0
M  V30 6207 C 571.59 -0.0827345 3.59405 0
M  V30 6208 C 571.254 1.16153 4.41993 0
M  V30 6209 C 572.251 2.08183 4.76399 0
M  V30 6210 C 569.936 1.39288 4.82601 0
M  V30 6211 C 571.93 3.21668 5.5028 0
M  V30 6212 C 569.617 2.53073 5.56235 0
M  V30 6213 C 570.615 3.44091 5.89992 0
M  V30 6214 O 570.303 4.55894 6.6213 0
M  V30 6215 H 570.035 0.0701667 0.672349 0
M  V30 6216 H 572.589 0.846877 1.87129 0
M  V30 6217 H 570.819 -0.862812 3.76952 0
M  V30 6218 H 572.508 -0.530273 4.02421 0
M  V30 6219 H 573.274 1.91538 4.45576 0
M  V30 6220 H 569.153 0.693396 4.55755 0
M  V30 6221 H 572.697 3.92733 5.76547 0
M  V30 6222 H 568.594 2.69667 5.86472 0
M  V30 6223 H 569.362 4.5469 6.80587 0
M  V30 6224 N 572.025 -1.5352 0.356285 0
M  V30 6225 C 573.302 -1.93405 -0.292223 0
M  V30 6226 C 573.682 -1.28901 -1.67176 0
M  V30 6227 O 573.03 -0.444632 -2.24132 0
M  V30 6228 C 573.24 -3.47223 -0.35175 0
M  V30 6229 C 574.588 -4.20389 -0.596534 0
M  V30 6230 O 575.612 -3.53554 -0.433344 0
M  V30 6231 O 574.471 -5.3881 -0.913589 0
M  V30 6232 H 571.565 -0.808666 -0.173172 0
M  V30 6233 H 574.111 -1.64713 0.408391 0
M  V30 6234 H 572.883 -3.86423 0.615841 0
M  V30 6235 H 572.506 -3.8212 -1.09864 0
M  V30 6236 N 573.503 -0.0852151 -1.57369 0
M  V30 6237 C 574.75 0.580806 -1.93992 0
M  V30 6238 C 575.078 1.68801 -0.966252 0
M  V30 6239 O 574.333 1.95694 0.0158649 0
M  V30 6240 C 574.632 1.18482 -3.3719 0
M  V30 6241 C 574.298 0.2024 -4.50446 0
M  V30 6242 C 572.96 -0.0678318 -4.81152 0
M  V30 6243 C 575.312 -0.46895 -5.19086 0
M  V30 6244 C 572.64 -1.01627 -5.77831 0
M  V30 6245 C 574.992 -1.4058 -6.16782 0
M  V30 6246 C 573.656 -1.68436 -6.45899 0
M  V30 6247 H 572.926 0.212532 -0.709867 0
M  V30 6248 H 575.573 -0.158947 -1.90839 0
M  V30 6249 H 573.878 2.0006 -3.36873 0
M  V30 6250 H 575.575 1.70767 -3.62822 0
M  V30 6251 H 572.165 0.423208 -4.26505 0
M  V30 6252 H 576.349 -0.273307 -4.95547 0
M  V30 6253 H 571.605 -1.2392 -5.9871 0
M  V30 6254 H 575.779 -1.93188 -6.69068 0
M  V30 6255 H 573.406 -2.42088 -7.20623 0
M  V30 6256 N 574.981 1.5647 0.188427 0
M  V30 6257 C 576.209 1.85131 0.923803 0
M  V30 6258 C 576.624 0.668537 1.76567 0
M  V30 6259 O 575.981 -0.362662 1.7886 0
M  V30 6260 C 576.032 3.12661 1.81453 0
M  V30 6261 O 575.753 4.26378 1.00665 0
M  V30 6262 C 577.254 3.54548 2.66103 0
M  V30 6263 H 574.474 0.614624 0.269218 0
M  V30 6264 H 577.018 2.03581 0.193671 0
M  V30 6265 H 575.173 2.96088 2.49821 0
M  V30 6266 H 575.587 4.99041 1.61425 0
M  V30 6267 H 577.061 4.4673 3.24247 0
M  V30 6268 H 577.538 2.77853 3.40139 0
M  V30 6269 H 578.144 3.73674 2.03096 0
M  V30 6270 N 576.459 -0.456382 1.50847 0
M  V30 6271 C 577.407 -1.57318 1.71329 0
M  V30 6272 C 578.401 -1.59187 0.579287 0
M  V30 6273 O 579.607 -1.6316 0.76018 0
M  V30 6274 H 575.982 -0.5223 0.541024 0
M  V30 6275 H 577.953 -1.3721 2.64983 0
M  V30 6276 C 576.702 -2.95142 1.83811 0
M  V30 6277 H 576.025 -2.94428 2.70467 0
M  V30 6278 H 577.465 -3.72702 2.02161 0
M  V30 6279 C 575.924 -3.31636 0.593224 0
M  V30 6280 O 576.454 -4.00852 -0.260898 0
M  V30 6281 N 574.66 -2.87205 0.442902 0
M  V30 6282 H 574.207 -2.31051 1.13901 0
M  V30 6283 H 574.165 -3.11986 -0.38884 0
M  V30 6284 N 577.937 -1.40673 -0.710563 0
M  V30 6285 C 579.348 -1.34975 -1.28991 0
M  V30 6286 C 579.699 -0.0256272 -1.96183 0
M  V30 6287 O 578.824 0.876339 -1.97862 0
M  V30 6288 C 579.419 -2.44467 -2.34567 0
M  V30 6289 C 577.978 -2.42213 -2.88114 0
M  V30 6290 C 577.125 -2.25085 -1.61963 0
M  V30 6291 H 580.076 -1.50406 -0.506343 0
M  V30 6292 H 580.097 -2.12663 -3.15523 0
M  V30 6293 H 579.609 -3.40825 -1.85634 0
M  V30 6294 H 577.71 -1.49568 -3.41263 0
M  V30 6295 H 577.823 -3.37983 -3.39565 0
M  V30 6296 H 576.187 -1.72691 -1.87216 0
M  V30 6297 H 576.97 -3.23449 -1.15047 0
M  V30 6298 N 579.415 0.9433 -1.26252 0
M  V30 6299 C 580.692 1.66639 -1.02424 0
M  V30 6300 C 581.072 2.06335 0.446006 0
M  V30 6301 O 580.42 1.78551 1.42589 0
M  V30 6302 C 580.63 2.88019 -1.97094 0
M  V30 6303 C 581.978 3.59718 -2.25584 0
M  V30 6304 O 583.002 2.9812 -1.94943 0
M  V30 6305 O 581.861 4.7066 -2.77743 0
M  V30 6306 H 578.955 0.729643 -0.389294 0
M  V30 6307 H 581.501 0.995218 -1.37454 0
M  V30 6308 H 580.273 2.5556 -2.96319 0
M  V30 6309 H 579.896 3.62863 -1.62532 0
M  V30 6310 N 580.893 1.08022 1.14757 0
M  V30 6311 C 581.856 0.71048 2.1791 0
M  V30 6312 C 582.856 -0.252731 1.58801 0
M  V30 6313 O 584.046 -0.0327915 1.74169 0
M  V30 6314 C 581.178 0.0483203 3.40866 0
M  V30 6315 H 582.371 1.62384 2.52134 0
M  V30 6316 H 579.924 0.877595 1.29337 0
M  V30 6317 H 580.659 -0.876959 3.12218 0
M  V30 6318 H 580.444 0.741189 3.85031 0
M  V30 6319 H 581.934 -0.195471 4.17142 0
M  V30 6320 N 582.371 -1.3172 0.865308 0
M  V30 6321 C 583.611 -1.98675 0.480365 0
M  V30 6322 C 583.975 -1.66929 -0.948621 0
M  V30 6323 O 585.176 -2.27059 -1.43867 0
M  V30 6324 C 583.447 -3.49972 0.724858 0
M  V30 6325 S 585.006 -4.36598 0.439078 0
M  V30 6326 H 581.824 -0.687967 0.179506 0
M  V30 6327 H 584.426 -1.60215 1.12033 0
M  V30 6328 H 583.13 -3.70567 1.76375 0
M  V30 6329 H 582.661 -3.93335 0.0717173 0
M  V30 6330 H 584.676 -4.90792 -0.730564 0
M  V30 6331 N 583.85 -0.624285 -1.44708 0
M  V30 6332 C 584.797 0.0847135 -2.30644 0
M  V30 6333 C 585.767 0.843575 -1.43084 0
M  V30 6334 O 586.952 0.825982 -1.71995 0
M  V30 6335 C 584.091 1.06495 -3.28257 0
M  V30 6336 C 583.205 0.305224 -4.3092 0
M  V30 6337 C 582.34 1.27667 -5.1563 0
M  V30 6338 C 581.379 0.505706 -6.10007 0
M  V30 6339 N 580.516 1.42727 -6.8744 0
M  V30 6340 H 585.356 -0.654068 -2.90733 0
M  V30 6341 H 582.893 -0.334334 -1.4325 0
M  V30 6342 H 584.851 1.64658 -3.83332 0
M  V30 6343 H 583.481 1.77094 -2.69884 0
M  V30 6344 H 582.533 -0.392207 -3.78373 0
M  V30 6345 H 583.845 -0.295553 -4.97924 0
M  V30 6346 H 582.999 1.92984 -5.75189 0
M  V30 6347 H 581.738 1.91137 -4.48685 0
M  V30 6348 H 580.743 -0.160999 -5.49564 0
M  V30 6349 H 581.968 -0.124183 -6.78986 0
M  V30 6350 H 579.913 2.04931 -6.23169 0
M  V30 6351 H 579.831 0.880345 -7.50857 0
M  V30 6352 H 581.099 2.0695 -7.51526 0
M  V30 6353 N 585.328 1.53329 -0.364422 0
M  V30 6354 C 586.574 2.02222 0.21855 0
M  V30 6355 C 586.929 1.24702 1.46517 0
M  V30 6356 O 586.222 0.331969 1.88702 0
M  V30 6357 C 586.416 3.52911 0.564661 0
M  V30 6358 C 586.245 4.45023 -0.646862 0
M  V30 6359 C 585.015 4.91838 -1.15858 0
M  V30 6360 C 587.213 4.91581 -1.51172 0
M  V30 6361 N 585.195 5.67955 -2.33025 0
M  V30 6362 C 586.566 5.66028 -2.53006 0
M  V30 6363 C 588.621 4.73656 -1.53473 0
M  V30 6364 C 587.324 6.24457 -3.56996 0
M  V30 6365 C 589.35 5.3295 -2.56356 0
M  V30 6366 C 588.712 6.07282 -3.56914 0
M  V30 6367 H 584.811 0.780832 0.0427199 0
M  V30 6368 H 587.395 1.87937 -0.508704 0
M  V30 6369 H 585.566 3.6736 1.26099 0
M  V30 6370 H 587.298 3.88528 1.13262 0
M  V30 6371 H 584.053 4.68043 -0.723393 0
M  V30 6372 H 584.477 6.10675 -2.92241 0
M  V30 6373 H 589.119 4.15714 -0.770842 0
M  V30 6374 H 586.837 6.81496 -4.34268 0
M  V30 6375 H 590.423 5.20976 -2.58989 0
M  V30 6376 H 589.303 6.52345 -4.35218 0
M  V30 6377 N 586.806 0.0935595 1.57322 0
M  V30 6378 C 588.036 -0.578095 1.98347 0
M  V30 6379 C 588.444 -1.62357 0.971441 0
M  V30 6380 O 587.787 -1.83639 -0.0473959 0
M  V30 6381 C 587.849 -1.28525 3.3574 0
M  V30 6382 C 587.513 -0.390714 4.55327 0
M  V30 6383 C 588.51 0.360522 5.18648 0
M  V30 6384 C 586.195 -0.309221 5.01347 0
M  V30 6385 C 588.189 1.18125 6.26359 0
M  V30 6386 C 585.876 0.515157 6.08925 0
M  V30 6387 C 586.874 1.25904 6.71295 0
M  V30 6388 O 586.562 2.06978 7.76798 0
M  V30 6389 H 586.294 -0.159767 0.656849 0
M  V30 6390 H 588.848 0.169058 2.04703 0
M  V30 6391 H 587.078 -2.07894 3.26063 0
M  V30 6392 H 588.767 -1.85128 3.61223 0
M  V30 6393 H 589.533 0.307285 4.84026 0
M  V30 6394 H 585.412 -0.877881 4.52564 0
M  V30 6395 H 588.956 1.76236 6.74971 0
M  V30 6396 H 584.853 0.56988 6.42979 0
M  V30 6397 H 585.621 1.99644 7.93779 0
M  V30 6398 N 588.284 -1.56567 -0.180126 0
M  V30 6399 C 589.247 -1.94852 -1.20686 0
M  V30 6400 C 590.247 -0.831212 -1.3765 0
M  V30 6401 O 591.437 -1.09841 -1.35206 0
M  V30 6402 C 588.569 -2.23565 -2.57355 0
M  V30 6403 H 589.762 -2.86722 -0.879225 0
M  V30 6404 H 587.315 -1.50489 -0.422237 0
M  V30 6405 H 588.05 -1.34381 -2.95148 0
M  V30 6406 H 587.835 -3.04999 -2.46411 0
M  V30 6407 H 589.325 -2.54137 -3.31367 0
M  V30 6408 N 589.762 0.448376 -1.51087 0
M  V30 6409 C 591.039 1.20926 -1.53741 0
M  V30 6410 C 591.419 2.09025 -0.295222 0
M  V30 6411 O 590.767 2.16851 0.720283 0
M  V30 6412 C 590.977 2.02067 -2.84552 0
M  V30 6413 C 592.325 2.59486 -3.36084 0
M  V30 6414 O 593.349 2.12289 -2.86028 0
M  V30 6415 O 592.208 3.45539 -4.23397 0
M  V30 6416 H 589.302 0.549951 -0.617643 0
M  V30 6417 H 591.848 0.458344 -1.63393 0
M  V30 6418 H 590.62 1.37291 -3.66425 0
M  V30 6419 H 590.243 2.84246 -2.78011 0
M  V30 6420 N 591.24 1.41047 0.703093 0
M  V30 6421 C 592.187 1.42302 1.81711 0
M  V30 6422 C 593.157 0.278336 1.63751 0
M  V30 6423 O 594.342 0.478266 1.84709 0
M  V30 6424 C 591.482 1.30362 3.19531 0
M  V30 6425 C 590.595 2.54638 3.48975 0
M  V30 6426 C 589.73 2.35047 4.76368 0
M  V30 6427 C 588.769 3.54837 4.98756 0
M  V30 6428 N 587.906 3.34363 6.1737 0
M  V30 6429 H 592.746 2.37516 1.79973 0
M  V30 6430 H 590.283 1.1795 0.878983 0
M  V30 6431 H 592.241 1.21443 3.99134 0
M  V30 6432 H 590.871 0.387602 3.20464 0
M  V30 6433 H 589.923 2.74037 2.63833 0
M  V30 6434 H 591.235 3.43766 3.61423 0
M  V30 6435 H 590.389 2.23552 5.64012 0
M  V30 6436 H 589.128 1.43363 4.66153 0
M  V30 6437 H 588.133 3.66795 4.09563 0
M  V30 6438 H 589.358 4.47464 5.10835 0
M  V30 6439 H 587.304 2.45373 6.08382 0
M  V30 6440 H 587.221 4.17063 6.30551 0
M  V30 6441 H 588.489 3.26626 7.07768 0
M  V30 6442 N 592.718 -0.936591 1.26751 0
M  V30 6443 C 593.648 -2.05315 1.11212 0
M  V30 6444 C 594.629 -1.70092 0.0160262 0
M  V30 6445 O 595.814 -1.93279 0.188894 0
M  V30 6446 C 592.944 -3.39123 0.749171 0
M  V30 6447 C 591.898 -3.88425 1.79751 0
M  V30 6448 C 591.224 -5.18936 1.28876 0
M  V30 6449 C 592.524 -4.12798 3.19992 0
M  V30 6450 H 594.218 -2.18573 2.04613 0
M  V30 6451 H 591.764 -1.05027 0.985159 0
M  V30 6452 H 593.717 -4.16704 0.627323 0
M  V30 6453 H 592.441 -3.25855 -0.220543 0
M  V30 6454 H 591.1 -3.13028 1.90811 0
M  V30 6455 H 590.748 -5.02051 0.308757 0
M  V30 6456 H 590.448 -5.52892 1.98958 0
M  V30 6457 H 591.972 -5.99096 1.17967 0
M  V30 6458 H 593.386 -4.80977 3.11983 0
M  V30 6459 H 591.783 -4.58044 3.87705 0
M  V30 6460 H 592.853 -3.18412 3.65707 0
M  V30 6461 N 594.196 -1.08629 -1.14182 0
M  V30 6462 C 595.143 -0.718299 -2.19338 0
M  V30 6463 C 596.113 0.296587 -1.63431 0
M  V30 6464 O 597.298 0.180079 -1.89948 0
M  V30 6465 C 594.438 -0.136203 -3.44831 0
M  V30 6466 C 593.551 -1.20414 -4.14879 0
M  V30 6467 C 592.686 -0.585666 -5.27962 0
M  V30 6468 C 591.725 -1.63548 -5.89846 0
M  V30 6469 N 590.862 -1.03864 -6.94375 0
M  V30 6470 H 595.702 -1.61932 -2.50164 0
M  V30 6471 H 593.239 -0.80919 -1.22844 0
M  V30 6472 H 595.197 0.219021 -4.16625 0
M  V30 6473 H 593.827 0.728121 -3.14481 0
M  V30 6474 H 592.879 -1.67676 -3.41451 0
M  V30 6475 H 594.191 -1.99959 -4.56966 0
M  V30 6476 H 593.345 -0.178818 -6.06436 0
M  V30 6477 H 592.084 0.24142 -4.87102 0
M  V30 6478 H 591.089 -2.05197 -5.10073 0
M  V30 6479 H 592.314 -2.46509 -6.3278 0
M  V30 6480 H 590.26 -0.232687 -6.55587 0
M  V30 6481 H 590.177 -1.77116 -7.3496 0
M  V30 6482 H 591.445 -0.657724 -7.7672 0
M  V30 6483 N 595.674 1.31259 -0.872281 0
M  V30 6484 C 596.922 1.96233 -0.483409 0
M  V30 6485 C 597.243 1.69276 0.968012 0
M  V30 6486 O 596.513 1.00943 1.67891 0
M  V30 6487 H 595.093 0.726025 -0.175774 0
M  V30 6488 H 597.755 1.60024 -1.11258 0
M  V30 6489 H 596.851 3.05403 -0.643075 0
M  V30 6490 N 597.152 0.631951 1.44375 0
M  V30 6491 C 598.082 -0.0593243 2.33425 0
M  V30 6492 C 599.063 -0.833964 1.48253 0
M  V30 6493 O 600.248 -0.799682 1.76971 0
M  V30 6494 C 597.378 -1.04096 3.31333 0
M  V30 6495 C 596.332 -0.377899 4.26328 0
M  V30 6496 C 595.658 -1.4695 5.14111 0
M  V30 6497 C 596.958 0.716371 5.17364 0
M  V30 6498 H 598.652 0.684287 2.91475 0
M  V30 6499 H 596.198 0.330518 1.40156 0
M  V30 6500 H 598.151 -1.53331 3.92514 0
M  V30 6501 H 596.875 -1.81547 2.71493 0
M  V30 6502 H 595.534 0.0938054 3.6648 0
M  V30 6503 H 595.182 -2.2349 4.50623 0
M  V30 6504 H 594.882 -1.03121 5.78481 0
M  V30 6505 H 596.406 -1.96363 5.78164 0
M  V30 6506 H 597.82 0.307089 5.72477 0
M  V30 6507 H 596.217 1.07784 5.90341 0
M  V30 6508 H 597.287 1.58316 4.58327 0
M  V30 6509 N 598.631 -1.53133 0.372548 0
M  V30 6510 C 599.877 -2.01654 -0.215277 0
M  V30 6511 C 600.21 -1.25914 -1.47849 0
M  V30 6512 O 599.485 -0.3548 -1.91237 0
M  V30 6513 C 599.768 -3.56609 -0.500187 0
M  V30 6514 C 599.621 -4.43036 0.777145 0
M  V30 6515 C 600.94 -4.20528 -1.29786 0
M  V30 6516 H 598.059 -0.732991 -0.0767686 0
M  V30 6517 H 600.701 -1.83335 0.498814 0
M  V30 6518 H 598.851 -3.7235 -1.10852 0
M  V30 6519 H 600.523 -4.39079 1.41447 0
M  V30 6520 H 598.766 -4.10723 1.39604 0
M  V30 6521 H 599.437 -5.49424 0.532662 0
M  V30 6522 H 601.913 -4.08663 -0.783198 0
M  V30 6523 H 600.789 -5.28962 -1.46596 0
M  V30 6524 H 601.05 -3.77051 -2.30836 0
M  V30 6525 N 600.109 -0.101901 -1.5727 0
M  V30 6526 C 601.072 0.840129 -2.13247 0
M  V30 6527 C 602.072 1.20625 -1.06331 0
M  V30 6528 O 603.262 1.13456 -1.32186 0
M  V30 6529 C 600.394 2.13372 -2.65867 0
M  V30 6530 H 601.587 0.353945 -2.97804 0
M  V30 6531 H 599.14 0.147167 -1.55606 0
M  V30 6532 H 599.875 2.66461 -1.84849 0
M  V30 6533 H 599.66 1.88085 -3.44044 0
M  V30 6534 H 601.15 2.80748 -3.09145 0
M  V30 6535 N 601.587 1.56661 0.17182 0
M  V30 6536 C 602.52 1.91474 1.24149 0
M  V30 6537 C 603.498 0.777485 1.42807 0
M  V30 6538 O 604.682 1.03075 1.57822 0
M  V30 6539 C 601.809 2.16523 2.60453 0
M  V30 6540 C 600.855 3.39209 2.58533 0
M  V30 6541 S 601.688 4.93594 2.07665 0
M  V30 6542 C 602.844 5.21737 3.45747 0
M  V30 6543 H 603.077 2.81903 0.944346 0
M  V30 6544 H 600.61 1.49743 0.376364 0
M  V30 6545 H 602.568 2.31635 3.38903 0
M  V30 6546 H 601.229 1.26802 2.87368 0
M  V30 6547 H 600.422 3.53935 3.58812 0
M  V30 6548 H 600.024 3.2321 1.88178 0
M  V30 6549 H 602.316 5.13684 4.41741 0
M  V30 6550 H 603.259 6.23361 3.35896 0
M  V30 6551 H 603.667 4.49307 3.41736 0
M  V30 6552 N 603.065 -0.440357 1.51323 0
M  V30 6553 C 604.313 -1.18769 1.63518 0
M  V30 6554 C 604.634 -1.91793 0.352201 0
M  V30 6555 O 603.904 -1.85432 -0.631811 0
M  V30 6556 H 602.484 -0.441408 0.602634 0
M  V30 6557 H 605.146 -0.505162 1.8824 0
M  V30 6558 H 604.242 -1.91892 2.46138 0
M  V30 6559 N 604.543 -1.41418 -0.695603 0
M  V30 6560 C 605.789 -1.40982 -1.4578 0
M  V30 6561 C 606.122 -0.0187763 -1.94191 0
M  V30 6562 O 605.397 0.95346 -1.69527 0
M  V30 6563 C 605.68 -2.41657 -2.66972 0
M  V30 6564 C 605.533 -3.89869 -2.24327 0
M  V30 6565 C 606.852 -2.39589 -3.69168 0
M  V30 6566 H 603.971 -0.513405 -0.528757 0
M  V30 6567 H 606.613 -1.72693 -0.792275 0
M  V30 6568 H 604.763 -2.14746 -3.23754 0
M  V30 6569 H 606.435 -4.27683 -1.72872 0
M  V30 6570 H 604.678 -4.04737 -1.56111 0
M  V30 6571 H 605.349 -4.55857 -3.11285 0
M  V30 6572 H 607.825 -2.63471 -3.2206 0
M  V30 6573 H 606.701 -3.12044 -4.51575 0
M  V30 6574 H 606.962 -1.41447 -4.18862 0
M  V30 6575 N 606.021 0.929856 -1.27246 0
M  V30 6576 C 607.298 1.65544 -1.04186 0
M  V30 6577 C 607.678 2.06796 0.424097 0
M  V30 6578 O 607.026 1.80053 1.40688 0
M  V30 6579 C 607.236 2.85912 -2.00138 0
M  V30 6580 C 608.584 3.57305 -2.29387 0
M  V30 6581 O 609.608 2.96036 -1.98094 0
M  V30 6582 O 608.467 4.67688 -2.82719 0
M  V30 6583 H 605.561 0.725473 -0.397011 0
M  V30 6584 H 608.107 0.980583 -1.38501 0
M  V30 6585 H 606.879 2.52403 -2.99013 0
M  V30 6586 H 606.502 3.61118 -1.66371 0
M  V30 6587 N 607.499 1.09233 1.13605 0
M  V30 6588 C 608.739 0.836786 1.86487 0
M  V30 6589 C 609.103 -0.626191 1.81502 0
M  V30 6590 O 610.304 -0.99758 2.49603 0
M  V30 6591 C 608.575 1.35476 3.30728 0
M  V30 6592 S 610.134 1.2328 4.21126 0
M  V30 6593 H 606.952 0.302702 0.643345 0
M  V30 6594 H 609.554 1.3953 1.36936 0
M  V30 6595 H 608.258 2.41381 3.31909 0
M  V30 6596 H 607.789 0.792286 3.85339 0
M  V30 6597 H 609.804 0.182468 4.95864 0
M  V30 6598 N 608.977 -1.30795 0.87923 0
M  V30 6599 C 610.224 -1.96362 0.494786 0
M  V30 6600 C 610.552 -1.69448 -0.954868 0
M  V30 6601 O 609.807 -0.988711 -1.68888 0
M  V30 6602 C 610.106 -3.50287 0.709476 0
M  V30 6603 C 609.772 -3.9724 2.13333 0
M  V30 6604 C 608.434 -4.09772 2.52271 0
M  V30 6605 C 610.786 -4.21807 3.06151 0
M  V30 6606 C 608.114 -4.44227 3.83248 0
M  V30 6607 C 610.466 -4.5773 4.36654 0
M  V30 6608 C 609.13 -4.68469 4.75492 0
M  V30 6609 H 608.4 -0.71854 0.181055 0
M  V30 6610 H 611.047 -1.55764 1.11399 0
M  V30 6611 H 609.352 -3.91799 0.0072 0
M  V30 6612 H 611.049 -3.99082 0.391703 0
M  V30 6613 H 607.639 -3.87988 1.82107 0
M  V30 6614 H 611.823 -4.11611 2.77291 0
M  V30 6615 H 607.079 -4.50741 4.13089 0
M  V30 6616 H 611.253 -4.7569 5.08617 0
M  V30 6617 H 608.88 -4.94923 5.77022 0
M  V30 6618 N 610.455 -0.639598 -1.44038 0
M  V30 6619 C 611.402 0.0602458 -2.30721 0
M  V30 6620 C 612.372 0.828352 -1.43971 0
M  V30 6621 O 613.557 0.807693 -1.72861 0
M  V30 6622 C 610.697 1.03008 -3.29368 0
M  V30 6623 C 609.81 0.259502 -4.3122 0
M  V30 6624 C 608.945 1.22191 -5.16955 0
M  V30 6625 C 607.984 0.440978 -6.10509 0
M  V30 6626 N 607.121 1.35428 -6.88915 0
M  V30 6627 H 611.961 -0.684867 -2.90023 0
M  V30 6628 H 609.498 -0.349509 -1.42888 0
M  V30 6629 H 611.456 1.60583 -3.85057 0
M  V30 6630 H 610.086 1.74222 -2.71747 0
M  V30 6631 H 609.138 -0.432317 -3.77935 0
M  V30 6632 H 610.45 -0.348347 -4.97582 0
M  V30 6633 H 609.604 1.86873 -5.77203 0
M  V30 6634 H 608.343 1.86367 -4.50687 0
M  V30 6635 H 607.348 -0.219279 -5.49363 0
M  V30 6636 H 608.573 -0.196192 -6.78817 0
M  V30 6637 H 606.519 1.9831 -6.25307 0
M  V30 6638 H 606.436 0.800657 -7.51748 0
M  V30 6639 H 607.704 1.98967 -7.53679 0
M  V30 6640 N 611.933 1.52934 -0.380664 0
M  V30 6641 C 613.161 2.05886 0.204599 0
M  V30 6642 C 613.576 1.25305 1.41223 0
M  V30 6643 O 612.933 0.297504 1.80059 0
M  V30 6644 C 612.984 3.56764 0.583249 0
M  V30 6645 O 612.705 4.34292 -0.576398 0
M  V30 6646 C 614.206 4.2603 1.2253 0
M  V30 6647 H 611.426 0.670193 0.0328991 0
M  V30 6648 H 613.97 1.97148 -0.543397 0
M  V30 6649 H 612.125 3.65603 1.28115 0
M  V30 6650 H 612.539 5.23819 -0.267119 0
M  V30 6651 H 614.013 5.32868 1.44068 0
M  V30 6652 H 614.49 3.80698 2.19011 0
M  V30 6653 H 615.096 4.21485 0.568407 0
M  V30 6654 N 613.412 0.11024 1.57214 0
M  V30 6655 C 614.689 -0.592956 1.86396 0
M  V30 6656 C 615.069 -1.85379 1.00985 0
M  V30 6657 O 614.417 -2.28337 0.0863592 0
M  V30 6658 C 614.627 -0.893816 3.3736 0
M  V30 6659 C 615.975 -1.25069 4.05762 0
M  V30 6660 O 616.999 -0.984356 3.42329 0
M  V30 6661 O 615.858 -1.75017 5.17718 0
M  V30 6662 H 612.952 -0.29828 0.771335 0
M  V30 6663 H 615.498 0.144083 1.69087 0
M  V30 6664 H 614.27 2.6031e-05 3.913 0
M  V30 6665 H 613.893 -1.68631 3.60068 0
M  V30 6666 N 614.89 -1.56749 -0.16351 0
M  V30 6667 C 616.137 -1.82434 -0.878866 0
M  V30 6668 C 616.465 -0.688557 -1.81904 0
M  V30 6669 O 615.72 0.323644 -1.93005 0
M  V30 6670 C 616.019 -3.14342 -1.70071 0
M  V30 6671 C 615.685 -4.41647 -0.908775 0
M  V30 6672 C 614.347 -4.76224 -0.690236 0
M  V30 6673 C 616.699 -5.19998 -0.353815 0
M  V30 6674 C 614.027 -5.86624 0.0942374 0
M  V30 6675 C 616.379 -6.3122 0.41761 0
M  V30 6676 C 615.043 -6.64358 0.646879 0
M  V30 6677 H 614.313 -0.667574 -0.3216 0
M  V30 6678 H 616.96 -1.90963 -0.14337 0
M  V30 6679 H 615.265 -3.0119 -2.50583 0
M  V30 6680 H 616.962 -3.31426 -2.25738 0
M  V30 6681 H 613.552 -4.1453 -1.08916 0
M  V30 6682 H 617.736 -4.93673 -0.509975 0
M  V30 6683 H 612.992 -6.10751 0.281529 0
M  V30 6684 H 617.166 -6.91133 0.854849 0
M  V30 6685 H 614.793 -7.49742 1.25662 0
M  V30 6686 N 616.368 0.432326 -1.51554 0
M  V30 6687 C 617.616 1.17901 -1.64146 0
M  V30 6688 C 617.937 1.91604 -0.362367 0
M  V30 6689 O 617.207 1.85764 0.621968 0
M  V30 6690 H 615.787 0.438206 -0.604966 0
M  V30 6691 H 618.449 0.495172 -1.88505 0
M  V30 6692 H 617.545 1.90584 -2.47152 0
M  V30 6693 N 617.846 1.41785 0.688094 0
M  V30 6694 C 618.756 1.46596 1.83158 0
M  V30 6695 C 619.772 0.355862 1.70322 0
M  V30 6696 O 620.948 0.604737 1.92106 0
M  V30 6697 C 618.013 1.35322 3.192 0
M  V30 6698 C 617.074 2.56711 3.4409 0
M  V30 6699 C 616.307 2.45965 4.73642 0
M  V30 6700 O 616.53 1.48827 5.50642 0
M  V30 6701 O 615.464 3.35859 4.99482 0
M  V30 6702 H 619.29 2.43083 1.82056 0
M  V30 6703 H 616.875 1.23404 0.842126 0
M  V30 6704 H 618.757 1.31347 4.00407 0
M  V30 6705 H 617.432 0.419536 3.2097 0
M  V30 6706 H 616.339 2.66262 2.62784 0
M  V30 6707 H 617.672 3.48933 3.47141 0
M  V30 6708 N 619.324 -0.923095 1.27737 0
M  V30 6709 C 620.74 -1.19985 1.05241 0
M  V30 6710 C 620.94 -2.00391 -0.21113 0
M  V30 6711 O 619.996 -2.35324 -0.915366 0
M  V30 6712 C 621.309 -1.94352 2.29451 0
M  V30 6713 C 622.857 -2.07273 2.34536 0
M  V30 6714 C 623.332 -2.85046 3.58487 0
M  V30 6715 N 624.823 -2.92612 3.59072 0
M  V30 6716 C 625.558 -3.53266 4.51654 0
M  V30 6717 N 625.054 -4.15274 5.54545 0
M  V30 6718 N 626.847 -3.50714 4.39268 0
M  V30 6719 H 618.998 -0.386042 2.08862 0
M  V30 6720 H 621.261 -0.233407 0.918817 0
M  V30 6721 H 620.967 -1.42692 3.21453 0
M  V30 6722 H 620.841 -2.94947 2.3513 0
M  V30 6723 H 623.228 -2.58117 1.43037 0
M  V30 6724 H 623.309 -1.05884 2.32857 0
M  V30 6725 H 622.953 -2.34884 4.50324 0
M  V30 6726 H 622.883 -3.8673 3.57418 0
M  V30 6727 H 625.374 -2.48547 2.84663 0
M  V30 6728 H 625.687 -4.59507 6.21348 0
M  V30 6729 H 624.032 -4.13806 5.58382 0
M  V30 6730 H 627.223 -3.01475 3.58093 0
M  V30 6731 H 627.396 -3.97693 5.1161 0
M  V30 6732 N 620.802 -1.09834 -1.13024 0
M  V30 6733 C 622.051 -0.831806 -1.83749 0
M  V30 6734 C 622.364 0.644763 -1.84668 0
M  V30 6735 O 623.57 1.02697 -2.51327 0
M  V30 6736 C 622.026 -1.43817 -3.29916 0
M  V30 6737 C 621.634 -2.94759 -3.37374 0
M  V30 6738 C 623.378 -1.25077 -4.05655 0
M  V30 6739 C 621.285 -3.48461 -4.77838 0
M  V30 6740 H 620.215 -0.30751 -0.688443 0
M  V30 6741 H 622.866 -1.32156 -1.27307 0
M  V30 6742 H 621.248 -0.876106 -3.86187 0
M  V30 6743 H 622.422 -3.57228 -2.91076 0
M  V30 6744 H 620.737 -3.12581 -2.75103 0
M  V30 6745 H 623.334 -1.62649 -5.09362 0
M  V30 6746 H 623.677 -0.191782 -4.15858 0
M  V30 6747 H 624.21 -1.78057 -3.55725 0
M  V30 6748 H 620.949 -4.53998 -4.72828 0
M  V30 6749 H 620.469 -2.90757 -5.24615 0
M  V30 6750 H 622.148 -3.45914 -5.46766 0
M  V30 6751 N 622.28 1.30327 -0.886154 0
M  V30 6752 C 623.691 1.78243 -0.555554 0
M  V30 6753 C 624.042 1.72849 0.928314 0
M  V30 6754 O 623.167 1.30607 1.72542 0
M  V30 6755 C 623.762 3.23654 -1.00168 0
M  V30 6756 C 622.321 3.69401 -0.722471 0
M  V30 6757 C 621.468 2.50753 -1.18399 0
M  V30 6758 H 624.419 1.1718 -1.07026 0
M  V30 6759 H 624.44 3.79056 -0.331152 0
M  V30 6760 H 623.952 3.27548 -2.08169 0
M  V30 6761 H 622.053 3.70995 0.345496 0
M  V30 6762 H 622.166 4.60818 -1.31085 0
M  V30 6763 H 620.53 2.47452 -0.603303 0
M  V30 6764 H 621.313 2.57383 -2.27176 0
M  V30 6765 N 623.758 0.647228 1.43697 0
M  V30 6766 C 624.986 0.16575 2.06235 0
M  V30 6767 C 625.401 -1.1662 1.48476 0
M  V30 6768 O 624.758 -1.7187 0.613762 0
M  V30 6769 C 624.809 0.0621651 3.61447 0
M  V30 6770 O 624.53 1.34146 4.17057 0
M  V30 6771 C 626.031 -0.446102 4.4105 0
M  V30 6772 H 623.251 0.0871158 0.665321 0
M  V30 6773 H 625.795 0.886183 1.84301 0
M  V30 6774 H 623.95 -0.608794 3.82587 0
M  V30 6775 H 624.364 1.19675 5.10664 0
M  V30 6776 H 625.838 -0.46755 5.50016 0
M  V30 6777 H 626.315 -1.47627 4.13646 0
M  V30 6778 H 626.921 0.192159 4.24866 0
M  V30 6779 N 625.236 -1.5273 0.388769 0
M  V30 6780 C 626.513 -1.93981 -0.251133 0
M  V30 6781 C 626.893 -1.32418 -1.64404 0
M  V30 6782 O 626.241 -0.492074 -2.23139 0
M  V30 6783 C 626.451 -3.47891 -0.27802 0
M  V30 6784 C 627.799 -4.21559 -0.507229 0
M  V30 6785 O 628.823 -3.54394 -0.358252 0
M  V30 6786 O 627.682 -5.40626 -0.799094 0
M  V30 6787 H 624.776 -0.812157 -0.15598 0
M  V30 6788 H 627.322 -1.63809 0.443237 0
M  V30 6789 H 626.094 -3.8503 0.697669 0
M  V30 6790 H 625.717 -3.84364 -1.01733 0
M  V30 6791 N 626.714 -0.118576 -1.57153 0
M  V30 6792 C 627.96 0.540326 -1.95469 0
M  V30 6793 C 628.293 1.66356 -1.00196 0
M  V30 6794 O 627.568 1.94461 -0.039104 0
M  V30 6795 C 627.851 1.07342 -3.43729 0
M  V30 6796 C 627.704 -0.0463732 -4.49776 0
M  V30 6797 C 629.023 1.96442 -3.93826 0
M  V30 6798 H 626.142 0.19494 -0.710751 0
M  V30 6799 H 628.784 -0.19405 -1.89006 0
M  V30 6800 H 626.934 1.69925 -3.49368 0
M  V30 6801 H 628.606 -0.681648 -4.56236 0
M  V30 6802 H 626.849 -0.709574 -4.27957 0
M  V30 6803 H 627.52 0.367856 -5.50773 0
M  V30 6804 H 629.996 1.43731 -3.90488 0
M  V30 6805 H 628.872 2.3066 -4.98084 0
M  V30 6806 H 629.133 2.89077 -3.34495 0
M  V30 6807 N 628.193 1.56834 0.155195 0
M  V30 6808 C 629.125 1.94235 1.21677 0
M  V30 6809 C 630.138 0.83724 1.39621 0
M  V30 6810 O 631.327 1.11567 1.39338 0
M  V30 6811 C 628.427 2.19402 2.58294 0
M  V30 6812 C 627.6 3.50671 2.61436 0
M  V30 6813 C 626.659 3.64475 3.79532 0
M  V30 6814 O 625.685 4.36945 3.64784 0
M  V30 6815 N 626.887 3.00526 4.96653 0
M  V30 6816 H 629.652 2.85901 0.898932 0
M  V30 6817 H 627.213 1.58185 0.34483 0
M  V30 6818 H 629.205 2.25886 3.35794 0
M  V30 6819 H 627.775 1.34042 2.82403 0
M  V30 6820 H 626.995 3.55702 1.69912 0
M  V30 6821 H 628.283 4.3702 2.60559 0
M  V30 6822 H 627.681 2.41549 5.11538 0
M  V30 6823 H 626.238 3.12583 5.71958 0
M  V30 6824 N 629.671 -0.424282 1.51781 0
M  V30 6825 C 630.917 -1.17117 1.66298 0
M  V30 6826 C 631.272 -1.88595 0.380767 0
M  V30 6827 O 630.565 -1.81151 -0.624094 0
M  V30 6828 C 630.759 -2.20418 2.81337 0
M  V30 6829 C 630.588 -1.59081 4.20622 0
M  V30 6830 C 629.358 -1.37007 4.86371 0
M  V30 6831 C 631.556 -1.05992 5.0326 0
M  V30 6832 N 629.538 -0.714049 6.09733 0
M  V30 6833 C 630.909 -0.529933 6.17731 0
M  V30 6834 C 632.964 -0.952927 4.88696 0
M  V30 6835 C 631.667 0.0965457 7.19235 0
M  V30 6836 C 633.693 -0.340325 5.9042 0
M  V30 6837 C 633.055 0.179057 7.04172 0
M  V30 6838 H 629.154 -0.41577 0.662314 0
M  V30 6839 H 631.738 -0.46579 1.89046 0
M  V30 6840 H 629.909 -2.8833 2.60231 0
M  V30 6841 H 631.641 -2.8736 2.84968 0
M  V30 6842 H 628.396 -1.63543 4.44467 0
M  V30 6843 H 628.82 -0.403101 6.75799 0
M  V30 6844 H 633.462 -1.34033 4.00993 0
M  V30 6845 H 631.18 0.496044 8.06576 0
M  V30 6846 H 634.766 -0.259266 5.81222 0
M  V30 6847 H 633.646 0.645626 7.81538 0
M  V30 6848 N 631.149 -1.42148 -0.680565 0
M  V30 6849 C 632.396 -1.4231 -1.44063 0
M  V30 6850 C 632.724 -0.037488 -1.94464 0
M  V30 6851 O 631.979 0.953184 -1.70918 0
M  V30 6852 C 632.278 -2.38945 -2.65782 0
M  V30 6853 C 631.944 -3.85455 -2.33956 0
M  V30 6854 C 630.606 -4.25364 -2.24987 0
M  V30 6855 C 632.958 -4.77895 -2.08004 0
M  V30 6856 C 630.286 -5.55701 -1.88184 0
M  V30 6857 C 632.638 -6.08568 -1.72706 0
M  V30 6858 C 631.302 -6.47482 -1.62244 0
M  V30 6859 H 630.572 -0.520748 -0.527164 0
M  V30 6860 H 633.219 -1.7505 -0.776524 0
M  V30 6861 H 631.524 -1.99511 -3.37198 0
M  V30 6862 H 633.221 -2.36336 -3.23954 0
M  V30 6863 H 629.811 -3.53855 -2.41836 0
M  V30 6864 H 633.995 -4.47854 -2.1387 0
M  V30 6865 H 629.251 -5.84718 -1.78648 0
M  V30 6866 H 633.425 -6.79688 -1.5165 0
M  V30 6867 H 631.052 -7.48387 -1.33496 0
M  V30 6868 N 632.627 0.916307 -1.28225 0
M  V30 6869 C 633.904 1.64429 -1.05936 0
M  V30 6870 C 634.284 2.07234 0.402139 0
M  V30 6871 O 633.632 1.81535 1.3877 0
M  V30 6872 C 633.842 2.83773 -2.03159 0
M  V30 6873 C 635.19 3.54852 -2.33164 0
M  V30 6874 O 636.214 2.93918 -2.01223 0
M  V30 6875 O 635.073 4.64663 -2.87664 0
M  V30 6876 H 632.167 0.721221 -0.404683 0
M  V30 6877 H 634.713 0.965838 -1.39534 0
M  V30 6878 H 633.485 2.49217 -3.01673 0
M  V30 6879 H 633.108 3.59333 -1.70192 0
M  V30 6880 N 634.105 1.10431 1.1244 0
M  V30 6881 C 635.353 0.845045 1.83585 0
M  V30 6882 C 635.674 -0.631168 1.84503 0
M  V30 6883 O 634.944 -1.45825 1.30813 0
M  V30 6884 H 633.524 0.309628 0.679809 0
M  V30 6885 H 636.186 1.39458 1.36153 0
M  V30 6886 H 635.282 1.20786 2.8778 0
M  V30 6887 N 635.583 -1.29855 0.893053 0
M  V30 6888 C 636.808 -2.00512 0.530066 0
M  V30 6889 C 637.233 -1.66446 -0.876199 0
M  V30 6890 O 636.591 -0.885446 -1.58207 0
M  V30 6891 C 636.639 -3.53308 0.721505 0
M  V30 6892 O 635.743 -4.11764 -0.228994 0
M  V30 6893 H 635.084 -0.630617 0.207891 0
M  V30 6894 H 637.614 -1.6551 1.20282 0
M  V30 6895 H 637.624 -4.03206 0.623599 0
M  V30 6896 H 636.299 -3.77439 1.74678 0
M  V30 6897 H 634.876 -3.72805 -0.0841034 0
M  V30 6898 N 637.061 -0.65484 -1.43351 0
M  V30 6899 C 638.338 -0.0987371 -1.95351 0
M  V30 6900 C 638.718 1.38161 -1.59608 0
M  V30 6901 O 638.066 2.10791 -0.882021 0
M  V30 6902 C 638.276 -0.346684 -3.47274 0
M  V30 6903 C 639.624 -0.25249 -4.23849 0
M  V30 6904 O 640.648 -0.279332 -3.55103 0
M  V30 6905 O 639.507 -0.177584 -5.46211 0
M  V30 6906 H 636.601 0.0086829 -0.826954 0
M  V30 6907 H 639.147 -0.728189 -1.53282 0
M  V30 6908 H 637.919 -1.37296 -3.66423 0
M  V30 6909 H 637.542 0.315757 -3.96344 0
M  V30 6910 N 638.539 1.52521 -0.396863 0
M  V30 6911 C 639.95 1.86547 0.0754868 0
M  V30 6912 C 640.301 1.31621 1.45501 0
M  V30 6913 O 639.426 0.650563 2.0639 0
M  V30 6914 C 640.021 3.38495 0.143754 0
M  V30 6915 C 638.58 3.72205 0.560413 0
M  V30 6916 C 637.727 2.75954 -0.272856 0
M  V30 6917 H 640.678 1.46323 -0.614434 0
M  V30 6918 H 640.699 3.68153 0.961425 0
M  V30 6919 H 640.211 3.78442 -0.860415 0
M  V30 6920 H 638.312 3.3783 1.57167 0
M  V30 6921 H 638.425 4.78074 0.313314 0
M  V30 6922 H 636.789 2.53339 0.263 0
M  V30 6923 H 637.572 3.1874 -1.27515 0
M  V30 6924 N 640.017 0.126909 1.57088 0
M  V30 6925 C 640.949 -0.850973 2.12817 0
M  V30 6926 C 641.962 -1.22457 1.07276 0
M  V30 6927 O 643.151 -1.17215 1.34622 0
M  V30 6928 C 640.251 -2.15039 2.61938 0
M  V30 6929 C 639.424 -1.94726 3.91664 0
M  V30 6930 C 638.483 -3.0847 4.26301 0
M  V30 6931 O 637.509 -2.81038 4.94981 0
M  V30 6932 N 638.711 -4.35116 3.84259 0
M  V30 6933 H 641.476 -0.3748 2.97347 0
M  V30 6934 H 639.037 -0.0572793 1.61799 0
M  V30 6935 H 641.029 -2.90141 2.82135 0
M  V30 6936 H 639.599 -2.5398 1.82244 0
M  V30 6937 H 638.819 -1.03772 3.80296 0
M  V30 6938 H 640.107 -1.78469 4.76473 0
M  V30 6939 H 639.505 -4.60276 3.2888 0
M  V30 6940 H 638.062 -5.07064 4.09548 0
M  V30 6941 N 641.495 -1.56914 -0.146875 0
M  V30 6942 C 642.442 -1.98275 -1.18134 0
M  V30 6943 C 643.412 -0.850367 -1.42681 0
M  V30 6944 O 644.597 -1.11244 -1.55014 0
M  V30 6945 C 641.737 -2.36861 -2.5098 0
M  V30 6946 C 640.85 -3.63391 -2.33605 0
M  V30 6947 C 639.985 -3.91079 -3.59486 0
M  V30 6948 C 639.024 -5.10879 -3.37149 0
M  V30 6949 N 638.161 -5.34577 -4.55161 0
M  V30 6950 H 643.001 -2.8645 -0.821622 0
M  V30 6951 H 640.538 -1.41718 -0.394248 0
M  V30 6952 H 642.496 -2.57262 -3.28439 0
M  V30 6953 H 641.126 -1.51766 -2.84898 0
M  V30 6954 H 640.178 -3.50766 -1.47199 0
M  V30 6955 H 641.49 -4.51007 -2.13059 0
M  V30 6956 H 640.644 -4.11979 -4.45374 0
M  V30 6957 H 639.383 -3.01885 -3.83036 0
M  V30 6958 H 638.388 -4.89853 -2.49649 0
M  V30 6959 H 639.613 -6.01626 -3.14997 0
M  V30 6960 H 637.559 -4.48337 -4.78884 0
M  V30 6961 H 637.476 -6.16463 -4.37618 0
M  V30 6962 H 638.744 -5.59975 -5.42263 0
M  V30 6963 N 642.974 0.416227 -1.52004 0
M  V30 6964 C 643.907 1.52736 -1.6955 0
M  V30 6965 C 644.885 1.53264 -0.54305 0
M  V30 6966 O 646.069 1.72077 -0.769527 0
M  V30 6967 C 643.196 2.91283 -1.72835 0
M  V30 6968 C 642.242 3.08695 -2.94295 0
M  V30 6969 S 643.075 2.82758 -4.54762 0
M  V30 6970 C 644.231 4.23548 -4.60823 0
M  V30 6971 H 644.464 1.37623 -2.63528 0
M  V30 6972 H 641.997 0.607335 -1.41954 0
M  V30 6973 H 643.955 3.71134 -1.75413 0
M  V30 6974 H 642.616 3.03742 -0.799966 0
M  V30 6975 H 641.809 4.10042 -2.93056 0
M  V30 6976 H 641.411 2.36699 -2.89568 0
M  V30 6977 H 643.703 5.17078 -4.37763 0
M  V30 6978 H 644.646 4.29813 -5.62731 0
M  V30 6979 H 645.054 4.08188 -3.89927 0
M  V30 6980 N 644.452 1.42507 0.673017 0
M  V30 6981 C 645.402 1.4258 1.77919 0
M  V30 6982 C 646.386 0.296885 1.58137 0
M  V30 6983 O 647.578 0.539243 1.68586 0
M  V30 6984 C 644.707 1.33238 3.1639 0
M  V30 6985 C 643.793 2.51081 3.41788 0
M  V30 6986 N 644.184 3.76498 3.37761 0
M  V30 6987 C 642.482 2.4538 3.72431 0
M  V30 6988 C 643.183 4.54784 3.62693 0
M  V30 6989 N 642.159 3.8522 3.83544 0
M  V30 6990 H 645.961 2.37442 1.73201 0
M  V30 6991 H 643.475 1.36881 0.873924 0
M  V30 6992 H 645.472 1.31372 3.9566 0
M  V30 6993 H 644.132 0.393794 3.22303 0
M  V30 6994 H 645.143 4.09068 3.17622 0
M  V30 6995 H 641.82 1.60109 3.85579 0
M  V30 6996 H 643.21 5.63774 3.65525 0
M  V30 6997 N 645.93 -0.909495 1.28709 0
M  V30 6998 C 646.878 -2.03381 1.12866 0
M  V30 6999 C 647.872 -1.69335 0.0468074 0
M  V30 7000 O 649.078 -1.78819 0.205891 0
M  V30 7001 H 645.453 -0.666452 0.348348 0
M  V30 7002 H 647.424 -2.13885 2.08077 0
M  V30 7003 C 646.173 -3.38092 0.811742 0
M  V30 7004 H 645.496 -3.64786 1.63619 0
M  V30 7005 H 646.936 -4.17477 0.740869 0
M  V30 7006 C 645.395 -3.33395 -0.484679 0
M  V30 7007 O 645.925 -3.72089 -1.5137 0
M  V30 7008 N 644.131 -2.86491 -0.486961 0
M  V30 7009 H 643.678 -2.55199 0.350877 0
M  V30 7010 H 643.636 -2.83731 -1.3544 0
M  V30 7011 N 647.408 -1.11026 -1.11852 0
M  V30 7012 C 648.358 -0.733836 -2.15868 0
M  V30 7013 C 649.342 0.26001 -1.58785 0
M  V30 7014 O 650.534 0.0677901 -1.7687 0
M  V30 7015 C 647.663 -0.173948 -3.42859 0
M  V30 7016 C 646.749 -1.1952 -4.0691 0
M  V30 7017 N 647.14 -2.38797 -4.45881 0
M  V30 7018 C 645.438 -1.03714 -4.33773 0
M  V30 7019 C 646.139 -3.03894 -4.96007 0
M  V30 7020 N 645.115 -2.31389 -4.91894 0
M  V30 7021 H 648.917 -1.64171 -2.43773 0
M  V30 7022 H 646.431 -0.988877 -1.28822 0
M  V30 7023 H 648.428 0.113836 -4.16745 0
M  V30 7024 H 647.088 0.728568 -3.16421 0
M  V30 7025 H 648.099 -2.76281 -4.38051 0
M  V30 7026 H 644.776 -0.190694 -4.17064 0
M  V30 7027 H 646.166 -4.05389 -5.35826 0
M  V30 7028 N 648.886 1.2938 -0.899927 0
M  V30 7029 C 650.116 1.99402 -0.540601 0
M  V30 7030 C 650.524 1.67534 0.87914 0
M  V30 7031 O 649.867 0.916821 1.59186 0
M  V30 7032 C 649.929 3.53514 -0.653326 0
M  V30 7033 C 649.593 4.08937 -2.04009 0
M  V30 7034 C 650.59 4.23815 -3.01126 0
M  V30 7035 C 648.275 4.43962 -2.34953 0
M  V30 7036 C 650.269 4.72951 -4.27313 0
M  V30 7037 C 647.956 4.92795 -3.61382 0
M  V30 7038 C 648.954 5.07244 -4.57376 0
M  V30 7039 O 648.642 5.55017 -5.8156 0
M  V30 7040 H 648.374 0.64383 -0.206057 0
M  V30 7041 H 650.928 1.65878 -1.21134 0
M  V30 7042 H 649.158 3.86628 0.0744449 0
M  V30 7043 H 650.847 4.04767 -0.303118 0
M  V30 7044 H 651.613 3.97043 -2.78535 0
M  V30 7045 H 647.492 4.31974 -1.60994 0
M  V30 7046 H 651.036 4.84144 -5.02245 0
M  V30 7047 H 646.933 5.19004 -3.83804 0
M  V30 7048 H 647.701 5.73331 -5.84153 0
M  V30 7049 N 650.364 0.662433 1.43002 0
M  V30 7050 C 651.327 -0.0142016 2.29196 0
M  V30 7051 C 652.327 -0.741394 1.42688 0
M  V30 7052 O 653.517 -0.581257 1.64216 0
M  V30 7053 C 650.649 -1.03084 3.24941 0
M  V30 7054 H 651.842 0.7443 2.90517 0
M  V30 7055 H 649.395 0.424133 1.50435 0
M  V30 7056 H 650.13 -1.81826 2.68533 0
M  V30 7057 H 649.915 -0.512946 3.8873 0
M  V30 7058 H 651.405 -1.50308 3.89612 0
M  V30 7059 N 651.842 -1.52309 0.404946 0
M  V30 7060 C 653.072 -2.05886 -0.171569 0
M  V30 7061 C 653.48 -1.27527 -1.39762 0
M  V30 7062 O 652.823 -0.319215 -1.80905 0
M  V30 7063 C 652.885 -3.54609 -0.590983 0
M  V30 7064 C 652.549 -4.53989 0.523757 0
M  V30 7065 C 653.546 -5.01084 1.38604 0
M  V30 7066 C 651.231 -4.97465 0.695255 0
M  V30 7067 C 653.225 -5.90295 2.4048 0
M  V30 7068 C 650.912 -5.86473 1.71733 0
M  V30 7069 C 651.91 -6.32782 2.57051 0
M  V30 7070 O 651.598 -7.20029 3.57509 0
M  V30 7071 H 651.33 -0.675508 -0.0257763 0
M  V30 7072 H 653.884 -1.97238 0.573278 0
M  V30 7073 H 652.114 -3.60929 -1.38805 0
M  V30 7074 H 653.803 -3.90853 -1.09494 0
M  V30 7075 H 654.569 -4.68214 1.26492 0
M  V30 7076 H 650.448 -4.60982 0.0408447 0
M  V30 7077 H 653.992 -6.26363 3.07108 0
M  V30 7078 H 649.889 -6.18756 1.83877 0
M  V30 7079 H 650.657 -7.3813 3.53703 0
M  V30 7080 N 653.32 -0.135238 -1.57019 0
M  V30 7081 C 654.569 0.518694 -1.94917 0
M  V30 7082 C 654.882 1.66783 -1.0219 0
M  V30 7083 O 656.088 2.38561 -1.29619 0
M  V30 7084 C 654.544 0.974123 -3.46466 0
M  V30 7085 C 654.152 -0.147439 -4.47757 0
M  V30 7086 C 655.896 1.59851 -3.93253 0
M  V30 7087 C 653.803 0.325599 -5.90503 0
M  V30 7088 H 652.733 0.19754 -0.727663 0
M  V30 7089 H 655.384 -0.217698 -1.82204 0
M  V30 7090 H 653.766 1.76542 -3.5447 0
M  V30 7091 H 654.94 -0.924122 -4.51438 0
M  V30 7092 H 653.255 -0.679496 -4.10818 0
M  V30 7093 H 655.852 1.96385 -4.9733 0
M  V30 7094 H 656.195 2.48306 -3.3414 0
M  V30 7095 H 656.728 0.872323 -3.88118 0
M  V30 7096 H 653.467 -0.523295 -6.53408 0
M  V30 7097 H 652.987 1.06841 -5.90208 0
M  V30 7098 H 654.666 0.781498 -6.42263 0
M  V30 7099 N 654.798 1.5699 0.138552 0
M  V30 7100 C 656.028 1.87704 0.863184 0
M  V30 7101 C 656.436 0.722411 1.74865 0
M  V30 7102 O 655.779 -0.316636 1.80951 0
M  V30 7103 C 655.841 3.13219 1.76449 0
M  V30 7104 C 655.505 4.44648 1.05532 0
M  V30 7105 C 656.502 5.18318 0.405252 0
M  V30 7106 C 654.187 4.91367 1.04231 0
M  V30 7107 C 656.181 6.36916 -0.24835 0
M  V30 7108 C 653.868 6.09887 0.384904 0
M  V30 7109 C 654.866 6.82508 -0.259292 0
M  V30 7110 O 654.554 7.98775 -0.906258 0
M  V30 7111 H 654.286 0.626255 0.254521 0
M  V30 7112 H 656.84 2.04966 0.133472 0
M  V30 7113 H 655.07 2.91988 2.53535 0
M  V30 7114 H 656.759 3.30111 2.36181 0
M  V30 7115 H 657.525 4.83289 0.407053 0
M  V30 7116 H 653.404 4.34759 1.53315 0
M  V30 7117 H 656.948 6.93538 -0.751755 0
M  V30 7118 H 652.845 6.44376 0.380799 0
M  V30 7119 H 653.613 8.14494 -0.80877 0
M  V30 7120 N 656.276 -0.40816 1.52223 0
M  V30 7121 C 657.224 -1.51788 1.76248 0
M  V30 7122 C 658.218 -1.57264 0.629638 0
M  V30 7123 O 659.424 -1.60659 0.811704 0
M  V30 7124 H 655.799 -0.504823 0.557367 0
M  V30 7125 H 657.77 -1.2871 2.69214 0
M  V30 7126 C 656.519 -2.89145 1.93107 0
M  V30 7127 H 655.842 -2.85674 2.79697 0
M  V30 7128 H 657.282 -3.66082 2.13916 0
M  V30 7129 C 655.741 -3.29581 0.698431 0
M  V30 7130 O 656.271 -4.01479 -0.133238 0
M  V30 7131 N 654.477 -2.85651 0.53405 0
M  V30 7132 H 654.024 -2.2731 1.21194 0
M  V30 7133 H 653.982 -3.13065 -0.289387 0
M  V30 7134 N 657.755 -1.42862 -0.66545 0
M  V30 7135 C 658.665 -1.49491 -1.80803 0
M  V30 7136 C 659.681 -0.382914 -1.69734 0
M  V30 7137 O 660.857 -0.635223 -1.9112 0
M  V30 7138 C 657.922 -1.40383 -3.17007 0
M  V30 7139 C 656.983 -2.62152 -3.39963 0
M  V30 7140 C 656.216 -2.53469 -4.69669 0
M  V30 7141 O 656.439 -1.57568 -5.48205 0
M  V30 7142 O 655.373 -3.43763 -4.94075 0
M  V30 7143 H 659.199 -2.45949 -1.78165 0
M  V30 7144 H 656.784 -1.24728 -0.822387 0
M  V30 7145 H 658.666 -1.377 -3.98267 0
M  V30 7146 H 657.341 -0.470546 -3.20262 0
M  V30 7147 H 656.248 -2.70409 -2.58515 0
M  V30 7148 H 657.581 -3.54411 -3.41546 0
M  V30 7149 N 659.233 0.902656 -1.29189 0
M  V30 7150 C 660.163 2.02294 -1.16616 0
M  V30 7151 C 661.144 1.6999 -0.0611175 0
M  V30 7152 O 662.329 1.9271 -0.240072 0
M  V30 7153 C 659.459 3.37018 -0.83882 0
M  V30 7154 C 658.413 3.83522 -1.89986 0
M  V30 7155 C 657.739 5.15337 -1.42589 0
M  V30 7156 C 659.039 4.04169 -3.30824 0
M  V30 7157 H 660.733 2.13071 -2.10336 0
M  V30 7158 H 658.279 1.02378 -1.01266 0
M  V30 7159 H 660.232 4.14895 -0.737584 0
M  V30 7160 H 658.956 3.26325 0.134071 0
M  V30 7161 H 657.615 3.07859 -1.99043 0
M  V30 7162 H 657.263 5.01056 -0.441759 0
M  V30 7163 H 656.963 5.47423 -2.13547 0
M  V30 7164 H 658.487 5.95758 -1.3381 0
M  V30 7165 H 659.901 4.72537 -3.24626 0
M  V30 7166 H 658.298 4.47604 -3.99713 0
M  V30 7167 H 659.368 3.08604 -3.74021 0
M  V30 7168 N 660.711 1.11618 1.11262 0
M  V30 7169 C 661.957 0.867463 1.83311 0
M  V30 7170 C 662.29 -0.605366 1.84524 0
M  V30 7171 O 661.565 -1.44704 1.29965 0
M  V30 7172 C 661.848 1.43207 3.30399 0
M  V30 7173 C 661.701 2.97265 3.3757 0
M  V30 7174 C 663.02 1.08454 4.26528 0
M  V30 7175 H 660.139 0.316578 0.665543 0
M  V30 7176 H 662.781 1.38137 1.30454 0
M  V30 7177 H 660.931 0.994982 3.75543 0
M  V30 7178 H 662.603 3.49591 3.00971 0
M  V30 7179 H 660.846 3.33237 2.77733 0
M  V30 7180 H 661.517 3.31859 4.41105 0
M  V30 7181 H 663.993 1.4619 3.89574 0
M  V30 7182 H 662.869 1.50633 5.27826 0
M  V30 7183 H 663.13 -0.00444568 4.421 0
M  V30 7184 N 662.189 -1.289 0.906776 0
M  V30 7185 C 663.435 -1.95919 0.546551 0
M  V30 7186 C 663.79 -1.70126 -0.8986 0
M  V30 7187 O 663.083 -1.00775 -1.62957 0
M  V30 7188 C 663.277 -3.48704 0.783617 0
M  V30 7189 C 663.106 -3.8935 2.25026 0
M  V30 7190 C 661.876 -4.13864 2.89905 0
M  V30 7191 C 664.074 -4.00535 3.22608 0
M  V30 7192 N 662.056 -4.41131 4.26939 0
M  V30 7193 C 663.427 -4.31936 4.44783 0
M  V30 7194 C 665.482 -3.83035 3.18102 0
M  V30 7195 C 664.185 -4.47659 5.63022 0
M  V30 7196 C 666.211 -3.99971 4.35634 0
M  V30 7197 C 665.573 -4.31738 5.5658 0
M  V30 7198 H 661.672 -0.74105 0.249737 0
M  V30 7199 H 664.256 -1.55696 1.16906 0
M  V30 7200 H 662.427 -3.87933 0.190437 0
M  V30 7201 H 664.159 -4.02835 0.38812 0
M  V30 7202 H 660.914 -4.07893 2.40666 0
M  V30 7203 H 661.338 -4.5886 4.97771 0
M  V30 7204 H 665.98 -3.57533 2.25677 0
M  V30 7205 H 663.698 -4.71995 6.55932 0
M  V30 7206 H 667.284 -3.87874 4.33641 0
M  V30 7207 H 666.164 -4.44568 6.4601 0
M  V30 7208 N 663.667 -0.670007 -1.42649 0
M  V30 7209 C 664.615 0.0230106 -2.32589 0
M  V30 7210 C 665.609 0.795585 -1.49555 0
M  V30 7211 O 666.815 0.70409 -1.65658 0
M  V30 7212 H 663.19 0.0262342 -0.751542 0
M  V30 7213 H 665.161 -0.753009 -2.88743 0
M  V30 7214 C 663.91 0.963872 -3.34073 0
M  V30 7215 H 663.233 0.378813 -3.98001 0
M  V30 7216 H 664.673 1.41755 -3.99602 0
M  V30 7217 C 663.132 2.06797 -2.65964 0
M  V30 7218 O 663.662 3.15383 -2.48789 0
M  V30 7219 N 661.868 1.83831 -2.25066 0
M  V30 7220 H 661.415 0.955235 -2.39234 0
M  V30 7221 H 661.373 2.57895 -1.79827 0
M  V30 7222 N 665.145 1.52092 -0.413018 0
M  V30 7223 C 666.391 2.02154 0.161737 0
M  V30 7224 C 666.724 1.29789 1.44459 0
M  V30 7225 O 665.999 0.405378 1.90229 0
M  V30 7226 C 666.282 3.5781 0.405463 0
M  V30 7227 C 666.135 4.40819 -0.894335 0
M  V30 7228 C 667.454 4.23821 1.18591 0
M  V30 7229 H 664.573 0.734769 0.0573077 0
M  V30 7230 H 667.215 1.81948 -0.547247 0
M  V30 7231 H 665.365 3.75158 1.0094 0
M  V30 7232 H 667.037 4.35175 -1.53039 0
M  V30 7233 H 665.28 4.06877 -1.50444 0
M  V30 7234 H 665.951 5.47819 -0.678144 0
M  V30 7235 H 668.427 4.10596 0.674573 0
M  V30 7236 H 667.303 5.32663 1.3252 0
M  V30 7237 H 667.564 3.83038 2.20758 0
M  V30 7238 N 666.623 0.143563 1.56945 0
M  V30 7239 C 667.553 -0.7936 2.196 0
M  V30 7240 C 668.534 -1.25955 1.14321 0
M  V30 7241 O 669.719 -1.31773 1.42651 0
M  V30 7242 C 666.849 -2.03424 2.81489 0
M  V30 7243 C 665.803 -1.70519 3.92565 0
M  V30 7244 C 665.129 -3.01817 4.41373 0
M  V30 7245 C 666.429 -0.95449 5.13504 0
M  V30 7246 H 668.123 -0.271423 2.98167 0
M  V30 7247 H 665.669 -0.12911 1.4342 0
M  V30 7248 H 667.622 -2.69463 3.23987 0
M  V30 7249 H 666.346 -2.58008 2.00248 0
M  V30 7250 H 665.005 -1.06859 3.5068 0
M  V30 7251 H 664.653 -3.54386 3.56959 0
M  V30 7252 H 664.353 -2.80565 5.16292 0
M  V30 7253 H 665.877 -3.68934 4.86539 0
M  V30 7254 H 667.291 -1.5169 5.52868 0
M  V30 7255 H 665.688 -0.842035 5.94163 0
M  V30 7256 H 666.758 0.0544033 4.84869 0
M  V30 7257 N 668.101 -1.57061 -0.130224 0
M  V30 7258 C 669.048 -1.99517 -1.16024 0
M  V30 7259 C 670.018 -0.865452 -1.41771 0
M  V30 7260 O 671.203 -1.12882 -1.53826 0
M  V30 7261 C 668.343 -2.3951 -2.48453 0
M  V30 7262 C 667.456 -3.65848 -2.29737 0
M  V30 7263 C 666.591 -3.9487 -3.55318 0
M  V30 7264 C 665.63 -5.14426 -3.31711 0
M  V30 7265 N 664.767 -5.39375 -4.49466 0
M  V30 7266 H 669.607 -2.87305 -0.791194 0
M  V30 7267 H 667.144 -1.42129 -0.379195 0
M  V30 7268 H 669.102 -2.60731 -3.25692 0
M  V30 7269 H 667.732 -1.54779 -2.83272 0
M  V30 7270 H 666.784 -3.52307 -1.4347 0
M  V30 7271 H 668.096 -4.53241 -2.08263 0
M  V30 7272 H 667.25 -4.16679 -4.4098 0
M  V30 7273 H 665.989 -3.05931 -3.79813 0
M  V30 7274 H 664.994 -4.92473 -2.44439 0
M  V30 7275 H 666.219 -6.04933 -3.08598 0
M  V30 7276 H 664.165 -4.53391 -4.74102 0
M  V30 7277 H 664.082 -6.21069 -4.31055 0
M  V30 7278 H 665.35 -5.65694 -5.36293 0
M  V30 7279 N 669.579 0.400081 -1.52437 0
M  V30 7280 C 670.856 1.15973 -1.57511 0
M  V30 7281 C 671.236 2.0798 -0.361572 0
M  V30 7282 O 670.584 2.19032 0.650929 0
M  V30 7283 C 670.794 1.92912 -2.90837 0
M  V30 7284 C 672.142 2.48662 -3.44169 0
M  V30 7285 O 673.166 2.03081 -2.92637 0
M  V30 7286 O 672.025 3.31894 -4.34176 0
M  V30 7287 H 669.119 0.530023 -0.634827 0
M  V30 7288 H 671.665 0.40613 -1.64769 0
M  V30 7289 H 670.437 1.25564 -3.70607 0
M  V30 7290 H 670.06 2.75257 -2.86913 0
M  V30 7291 N 671.057 1.43213 0.657864 0
M  V30 7292 C 672.285 1.48015 1.44566 0
M  V30 7293 C 672.7 0.0965951 1.88553 0
M  V30 7294 O 672.057 -0.892221 1.59203 0
M  V30 7295 C 672.108 2.42199 2.68369 0
M  V30 7296 O 671.829 3.75173 2.26223 0
M  V30 7297 C 673.33 2.56195 3.61772 0
M  V30 7298 H 670.55 0.502861 0.444266 0
M  V30 7299 H 673.094 1.87907 0.806917 0
M  V30 7300 H 671.249 2.05514 3.28394 0
M  V30 7301 H 671.663 4.25776 3.06293 0
M  V30 7302 H 673.137 3.26182 4.4532 0
M  V30 7303 H 673.614 1.60534 4.0881 0
M  V30 7304 H 674.22 2.93671 3.07632 0
M  V30 7305 N 672.536 -0.895792 1.29666 0
M  V30 7306 C 673.782 -1.64908 1.18039 0
M  V30 7307 C 674.115 -1.9236 -0.266682 0
M  V30 7308 O 673.39 -1.53682 -1.19214 0
M  V30 7309 C 673.673 -2.99574 1.99819 0
M  V30 7310 C 673.526 -2.79163 3.52687 0
M  V30 7311 C 674.845 -4.00358 1.82761 0
M  V30 7312 H 671.964 -0.598437 0.430165 0
M  V30 7313 H 674.606 -1.03736 1.59182 0
M  V30 7314 H 672.756 -3.51786 1.64859 0
M  V30 7315 H 674.428 -2.33821 3.9765 0
M  V30 7316 H 672.671 -2.13871 3.77414 0
M  V30 7317 H 673.342 -3.74871 4.05186 0
M  V30 7318 H 675.818 -3.57268 2.13304 0
M  V30 7319 H 674.694 -4.92514 2.42325 0
M  V30 7320 H 674.955 -4.35096 0.783839 0
M  V30 7321 N 674.014 -1.12206 -1.10668 0
M  V30 7322 C 675.262 -0.874144 -1.82217 0
M  V30 7323 C 675.583 0.601736 -1.85484 0
M  V30 7324 O 674.853 1.43725 -1.33116 0
M  V30 7325 H 673.433 -0.320404 -0.674797 0
M  V30 7326 H 676.095 -1.41606 -1.33917 0
M  V30 7327 H 675.191 -1.25349 -2.85822 0
M  V30 7328 N 675.492 1.28418 -0.913599 0
M  V30 7329 C 676.402 2.31043 -0.406965 0
M  V30 7330 C 677.418 1.66501 0.505298 0
M  V30 7331 O 678.594 1.97558 0.391522 0
M  V30 7332 C 675.659 3.4498 0.344901 0
M  V30 7333 C 674.72 4.25078 -0.600563 0
M  V30 7334 C 673.953 5.33575 0.115516 0
M  V30 7335 O 674.176 5.54503 1.33727 0
M  V30 7336 O 673.11 5.9939 -0.549095 0
M  V30 7337 H 676.936 2.76387 -1.25873 0
M  V30 7338 H 674.521 1.33109 -0.678415 0
M  V30 7339 H 676.403 4.14314 0.769542 0
M  V30 7340 H 675.078 3.01719 1.1725 0
M  V30 7341 H 673.985 3.58334 -1.0746 0
M  V30 7342 H 675.318 4.72018 -1.39497 0
M  V30 7343 N 676.97 0.677563 1.42291 0
M  V30 7344 C 677.88 0.000962654 2.346 0
M  V30 7345 C 678.896 -0.785833 1.55244 0
M  V30 7346 O 680.072 -0.727523 1.87801 0
M  V30 7347 C 677.137 -0.936746 3.33805 0
M  V30 7348 C 676.198 -0.144173 4.29058 0
M  V30 7349 C 675.431 -1.03722 5.23524 0
M  V30 7350 O 675.654 -2.27675 5.22992 0
M  V30 7351 O 674.588 -0.496542 5.99848 0
M  V30 7352 H 678.414 0.761397 2.94001 0
M  V30 7353 H 675.999 0.43781 1.42841 0
M  V30 7354 H 677.881 -1.47497 3.94744 0
M  V30 7355 H 676.556 -1.67698 2.76874 0
M  V30 7356 H 675.463 0.438224 3.71524 0
M  V30 7357 H 676.796 0.55701 4.89038 0
M  V30 7358 N 678.448 -1.51871 0.421078 0
M  V30 7359 C 679.358 -2.31077 -0.405069 0
M  V30 7360 C 680.374 -1.39301 -1.04265 0
M  V30 7361 O 681.55 -1.72376 -1.04157 0
M  V30 7362 C 678.615 -3.12556 -1.50032 0
M  V30 7363 C 677.676 -4.20088 -0.884559 0
M  V30 7364 C 676.909 -4.97673 -1.92762 0
M  V30 7365 O 677.132 -4.75696 -3.14753 0
M  V30 7366 O 676.066 -5.82203 -1.52719 0
M  V30 7367 H 679.892 -3.02742 0.241086 0
M  V30 7368 H 677.477 -1.48263 0.183991 0
M  V30 7369 H 679.359 -3.6326 -2.13589 0
M  V30 7370 H 678.034 -2.43672 -2.13086 0
M  V30 7371 H 676.941 -3.73502 -0.211379 0
M  V30 7372 H 678.274 -4.91298 -0.297763 0
M  V30 7373 N 679.926 -0.151884 -1.56866 0
M  V30 7374 C 680.889 0.771861 -2.15812 0
M  V30 7375 C 681.889 1.17181 -1.10115 0
M  V30 7376 O 683.079 1.09194 -1.35729 0
M  V30 7377 C 680.211 2.04806 -2.7252 0
M  V30 7378 H 681.404 0.259021 -2.98779 0
M  V30 7379 H 678.957 0.097588 -1.55995 0
M  V30 7380 H 679.692 2.60445 -1.93233 0
M  V30 7381 H 679.477 1.77044 -3.49854 0
M  V30 7382 H 680.967 2.70771 -3.1792 0
M  V30 7383 N 681.404 1.57128 0.121893 0
M  V30 7384 C 682.65 1.84974 0.831418 0
M  V30 7385 C 682.983 0.737204 1.79663 0
M  V30 7386 O 682.258 -0.257199 1.92792 0
M  V30 7387 C 682.541 3.23397 1.58386 0
M  V30 7388 C 682.394 4.45246 0.638445 0
M  V30 7389 C 683.713 3.59355 2.54071 0
M  V30 7390 H 680.832 0.67282 0.300803 0
M  V30 7391 H 683.474 1.89759 0.0957587 0
M  V30 7392 H 681.624 3.19449 2.21098 0
M  V30 7393 H 683.296 4.61295 0.0203925 0
M  V30 7394 H 681.539 4.33771 -0.05023 0
M  V30 7395 H 682.21 5.38765 1.20151 0
M  V30 7396 H 684.686 3.64075 2.01465 0
M  V30 7397 H 683.562 4.57193 3.03752 0
M  V30 7398 H 683.823 2.86622 3.36601 0
M  V30 7399 N 682.882 -0.391992 1.52647 0
M  V30 7400 C 683.812 -1.48517 1.8018 0
M  V30 7401 C 684.793 -1.57039 0.653667 0
M  V30 7402 O 685.978 -1.72036 0.900962 0
M  V30 7403 C 683.108 -2.86161 1.96797 0
M  V30 7404 C 682.062 -2.92481 3.12472 0
M  V30 7405 C 681.388 -4.32546 3.14338 0
M  V30 7406 C 682.688 -2.624 4.51601 0
M  V30 7407 H 684.382 -1.25726 2.71723 0
M  V30 7408 H 681.928 -0.603387 1.30749 0
M  V30 7409 H 683.881 -3.62639 2.14641 0
M  V30 7410 H 682.605 -3.10283 1.01941 0
M  V30 7411 H 681.264 -2.18451 2.94406 0
M  V30 7412 H 680.912 -4.53703 2.1717 0
M  V30 7413 H 680.612 -4.37695 3.92042 0
M  V30 7414 H 682.136 -5.10934 3.34333 0
M  V30 7415 H 683.55 -3.28596 4.69785 0
M  V30 7416 H 681.947 -2.78903 5.3135 0
M  V30 7417 H 683.017 -1.57754 4.58521 0
M  V30 7418 N 684.36 -1.4356 -0.65026 0
M  V30 7419 C 685.607 -1.45333 -1.41012 0
M  V30 7420 C 685.935 -0.0787282 -1.94341 0
M  V30 7421 O 685.19 0.916715 -1.72901 0
M  V30 7422 C 685.489 -2.44528 -2.60654 0
M  V30 7423 C 685.155 -3.90331 -2.25727 0
M  V30 7424 C 683.817 -4.3004 -2.15914 0
M  V30 7425 C 686.169 -4.822 -1.97821 0
M  V30 7426 C 683.497 -5.59568 -1.76354 0
M  V30 7427 C 685.849 -6.12095 -1.59759 0
M  V30 7428 C 684.513 -6.50778 -1.48473 0
M  V30 7429 H 683.783 -0.531813 -0.516 0
M  V30 7430 H 686.43 -1.76657 -0.739219 0
M  V30 7431 H 684.735 -2.06619 -3.3289 0
M  V30 7432 H 686.432 -2.43155 -3.18868 0
M  V30 7433 H 683.022 -3.58905 -2.34276 0
M  V30 7434 H 687.206 -4.5229 -2.04322 0
M  V30 7435 H 682.462 -5.88376 -1.66205 0
M  V30 7436 H 686.636 -6.82751 -1.37198 0
M  V30 7437 H 684.263 -7.5105 -1.17591 0
M  V30 7438 N 685.838 0.888903 -1.30139 0
M  V30 7439 C 686.801 1.97576 -1.16174 0
M  V30 7440 C 687.801 1.60525 -0.094086 0
M  V30 7441 O 688.991 1.70812 -0.341889 0
M  V30 7442 C 686.123 3.3188 -0.778983 0
M  V30 7443 H 687.316 2.11393 -2.12728 0
M  V30 7444 H 684.869 1.0748 -1.1348 0
M  V30 7445 H 685.604 3.23765 0.186225 0
M  V30 7446 H 685.389 3.60141 -1.55051 0
M  V30 7447 H 686.879 4.11612 -0.704631 0
M  V30 7448 N 687.317 1.12792 1.10072 0
M  V30 7449 C 688.733 0.864745 1.34143 0
M  V30 7450 C 688.933 -0.503201 1.95116 0
M  V30 7451 O 687.989 -1.25111 2.19325 0
M  V30 7452 C 689.302 1.98413 2.25949 0
M  V30 7453 C 690.85 2.01545 2.39476 0
M  V30 7454 C 691.325 3.12727 3.34613 0
M  V30 7455 N 692.816 3.12194 3.42183 0
M  V30 7456 C 693.551 3.94862 4.15779 0
M  V30 7457 N 693.047 4.87528 4.92228 0
M  V30 7458 N 694.84 3.82985 4.11435 0
M  V30 7459 H 686.991 2.00926 0.68866 0
M  V30 7460 H 689.254 0.874564 0.365844 0
M  V30 7461 H 688.96 2.97005 1.88364 0
M  V30 7462 H 688.834 1.89254 3.26287 0
M  V30 7463 H 691.221 1.0357 2.76328 0
M  V30 7464 H 691.302 2.14777 1.3894 0
M  V30 7465 H 690.946 4.10936 2.98486 0
M  V30 7466 H 690.876 2.96732 4.35037 0
M  V30 7467 H 693.367 2.45065 2.87666 0
M  V30 7468 H 693.68 5.47109 5.45794 0
M  V30 7469 H 692.025 4.91539 4.9134 0
M  V30 7470 H 695.216 3.09923 3.50807 0
M  V30 7471 H 695.389 4.47641 4.68531 0
M  V30 7472 N 688.795 -1.27931 0.920396 0
M  V30 7473 C 690.02 -1.99343 0.572478 0
M  V30 7474 C 690.445 -1.68267 -0.840696 0
M  V30 7475 O 689.803 -0.918805 -1.56294 0
M  V30 7476 C 689.851 -3.51698 0.796284 0
M  V30 7477 O 688.955 -4.12157 -0.141602 0
M  V30 7478 H 688.296 -0.626065 0.221221 0
M  V30 7479 H 690.826 -1.62921 1.23765 0
M  V30 7480 H 690.836 -4.01793 0.708984 0
M  V30 7481 H 689.511 -3.73649 1.82644 0
M  V30 7482 H 688.088 -3.729 -0.005007 0
M  V30 7483 N 690.273 -0.685099 -1.4193 0
M  V30 7484 C 691.236 -0.0222632 -2.29189 0
M  V30 7485 C 692.236 0.7186 -1.4385 0
M  V30 7486 O 693.426 0.555058 -1.6512 0
M  V30 7487 C 690.558 0.979013 -3.2654 0
M  V30 7488 H 691.751 -0.790424 -2.89296 0
M  V30 7489 H 689.304 -0.448012 -1.49742 0
M  V30 7490 H 690.039 1.77531 -2.71392 0
M  V30 7491 H 689.824 0.451037 -3.89497 0
M  V30 7492 H 691.314 1.44091 -3.91954 0
M  V30 7493 N 691.751 1.51645 -0.429126 0
M  V30 7494 C 692.976 2.06917 0.141399 0
M  V30 7495 C 693.401 1.29527 1.36398 0
M  V30 7496 O 692.759 0.33094 1.78254 0
M  V30 7497 C 692.807 3.57776 0.4504 0
M  V30 7498 O 691.911 3.82639 1.53821 0
M  V30 7499 H 691.252 0.663978 0.0054647 0
M  V30 7500 H 693.782 1.95355 -0.608093 0
M  V30 7501 H 693.792 4.01894 0.703249 0
M  V30 7502 H 692.467 4.13532 -0.443213 0
M  V30 7503 H 691.044 3.5039 1.27597 0
M  V30 7504 N 693.229 0.160201 1.56784 0
M  V30 7505 C 694.475 -0.48831 1.96833 0
M  V30 7506 C 694.808 -1.63641 1.04571 0
M  V30 7507 O 694.083 -1.94289 0.0906481 0
M  V30 7508 C 694.366 -0.981908 3.46454 0
M  V30 7509 C 694.219 0.165607 4.49495 0
M  V30 7510 C 695.538 -1.85931 3.98896 0
M  V30 7511 H 692.657 -0.176027 0.71567 0
M  V30 7512 H 695.299 0.244093 1.88426 0
M  V30 7513 H 693.449 -1.60602 3.5375 0
M  V30 7514 H 695.121 0.802372 4.54268 0
M  V30 7515 H 693.364 0.822789 4.25926 0
M  V30 7516 H 694.035 -0.221699 5.51555 0
M  V30 7517 H 696.511 -1.33327 3.94161 0
M  V30 7518 H 695.387 -2.17373 5.04024 0
M  V30 7519 H 695.648 -2.80106 3.42042 0
M  V30 7520 N 694.707 -1.5719 -0.113559 0
M  V30 7521 C 695.955 -1.84772 -0.818761 0
M  V30 7522 C 696.276 -0.746196 -1.80158 0
M  V30 7523 O 695.546 0.229305 -1.94553 0
M  V30 7524 H 694.126 -0.681737 -0.305359 0
M  V30 7525 H 696.788 -1.94645 -0.0995845 0
M  V30 7526 H 695.884 -2.80878 -1.36067 0
M  V30 7527 N 696.185 0.383891 -1.52853 0
M  V30 7528 C 697.148 1.45197 -1.77343 0
M  V30 7529 C 698.148 1.47362 -0.643522 0
M  V30 7530 O 699.338 1.48443 -0.911613 0
M  V30 7531 C 696.47 2.8445 -1.87885 0
M  V30 7532 H 697.663 1.24764 -2.72716 0
M  V30 7533 H 695.216 0.615939 -1.43652 0
M  V30 7534 H 695.951 3.10222 -0.94515 0
M  V30 7535 H 695.736 2.8428 -2.70051 0
M  V30 7536 H 697.226 3.61832 -2.08488 0
M  V30 7537 N 697.663 1.43903 0.642637 0
M  V30 7538 C 698.595 1.45857 1.768 0
M  V30 7539 C 699.608 0.353358 1.58919 0
M  V30 7540 O 700.797 0.618426 1.67445 0
M  V30 7541 C 697.897 1.26583 3.14372 0
M  V30 7542 C 697.07 2.50139 3.58817 0
M  V30 7543 C 696.129 2.25933 4.75227 0
M  V30 7544 O 695.155 2.99351 4.84125 0
M  V30 7545 N 696.357 1.28263 5.66153 0
M  V30 7546 H 699.122 2.42869 1.75598 0
M  V30 7547 H 696.683 1.39194 0.826832 0
M  V30 7548 H 698.675 1.08255 3.89953 0
M  V30 7549 H 697.245 0.37978 3.10284 0
M  V30 7550 H 696.465 2.83821 2.73568 0
M  V30 7551 H 697.753 3.32344 3.8526 0
M  V30 7552 H 697.151 0.676041 5.61646 0
M  V30 7553 H 695.708 1.15916 6.4141 0
M  V30 7554 N 699.141 -0.881989 1.30609 0
M  V30 7555 C 700.088 -1.98803 1.17244 0
M  V30 7556 C 701.058 -1.65987 0.0611905 0
M  V30 7557 O 702.243 -1.89385 0.231911 0
M  V30 7558 C 699.383 -3.33867 0.87333 0
M  V30 7559 C 698.496 -3.79354 2.06675 0
M  V30 7560 C 697.631 -5.03078 1.70547 0
M  V30 7561 C 696.67 -5.40981 2.86366 0
M  V30 7562 N 695.807 -6.55886 2.50514 0
M  V30 7563 H 700.647 -2.09566 2.11863 0
M  V30 7564 H 698.184 -1.02607 1.05405 0
M  V30 7565 H 700.142 -4.11612 0.680519 0
M  V30 7566 H 698.772 -3.2278 -0.0359983 0
M  V30 7567 H 697.824 -2.97492 2.37071 0
M  V30 7568 H 699.136 -4.03382 2.93401 0
M  V30 7569 H 698.29 -5.88457 1.47658 0
M  V30 7570 H 697.029 -4.80927 0.809947 0
M  V30 7571 H 696.034 -4.54127 3.09917 0
M  V30 7572 H 697.259 -5.65104 3.76609 0
M  V30 7573 H 695.205 -6.35306 1.63471 0
M  V30 7574 H 695.122 -6.79799 3.30771 0
M  V30 7575 H 696.39 -7.44489 2.30989 0
M  V30 7576 N 700.619 -1.13374 -1.09472 0
M  V30 7577 C 701.866 -0.89519 -1.81639 0
M  V30 7578 C 702.194 0.57868 -1.85692 0
M  V30 7579 O 701.449 1.44426 -1.32059 0
M  V30 7580 C 701.748 -1.42759 -3.2765 0
M  V30 7581 C 701.414 -2.91822 -3.43731 0
M  V30 7582 C 700.076 -3.32521 -3.47827 0
M  V30 7583 C 702.428 -3.87727 -3.48307 0
M  V30 7584 C 699.756 -4.6781 -3.54078 0
M  V30 7585 C 702.108 -5.22859 -3.56091 0
M  V30 7586 C 700.772 -5.63086 -3.58456 0
M  V30 7587 H 700.042 -0.327573 -0.664663 0
M  V30 7588 H 702.689 -1.4156 -1.28969 0
M  V30 7589 H 700.994 -0.827871 -3.82954 0
M  V30 7590 H 702.691 -1.2191 -3.8202 0
M  V30 7591 H 699.281 -2.5935 -3.41226 0
M  V30 7592 H 703.465 -3.57371 -3.44383 0
M  V30 7593 H 698.721 -4.98353 -3.54195 0
M  V30 7594 H 702.895 -5.96989 -3.58577 0
M  V30 7595 H 700.522 -6.67905 -3.63052 0
M  V30 7596 N 702.098 1.27442 -0.927168 0
M  V30 7597 C 703.509 1.76385 -0.611979 0
M  V30 7598 C 703.86 1.75715 0.872853 0
M  V30 7599 O 702.985 1.3603 1.683 0
M  V30 7600 C 703.58 3.20303 -1.10414 0
M  V30 7601 C 702.139 3.66916 -0.839628 0
M  V30 7602 C 701.286 2.46859 -1.26317 0
M  V30 7603 H 704.237 1.13716 -1.107 0
M  V30 7604 H 704.258 3.77811 -0.451578 0
M  V30 7605 H 703.77 3.20759 -2.18484 0
M  V30 7606 H 701.871 3.71906 0.227292 0
M  V30 7607 H 701.984 4.56415 -1.45679 0
M  V30 7608 H 700.348 2.45407 -0.681723 0
M  V30 7609 H 701.131 2.50025 -2.3525 0
M  V30 7610 N 703.576 0.692616 1.41565 0
M  V30 7611 C 704.822 0.222664 2.01574 0
M  V30 7612 C 705.155 -1.1737 1.54719 0
M  V30 7613 O 704.43 -1.79161 0.757084 0
M  V30 7614 C 704.713 0.277064 3.59033 0
M  V30 7615 C 704.566 1.71016 4.16021 0
M  V30 7616 C 705.885 -0.36479 4.38586 0
M  V30 7617 H 703.004 0.0823839 0.732381 0
M  V30 7618 H 705.646 0.880778 1.68352 0
M  V30 7619 H 703.796 -0.283288 3.87466 0
M  V30 7620 H 705.468 2.32413 3.98475 0
M  V30 7621 H 703.711 2.24525 3.71175 0
M  V30 7622 H 704.382 1.69978 5.25178 0
M  V30 7623 H 706.858 0.112404 4.15948 0
M  V30 7624 H 705.734 -0.296169 5.481 0
M  V30 7625 H 705.995 -1.44506 4.17816 0
M  V30 7626 N 705.054 -1.51416 0.437162 0
M  V30 7627 C 706.004 -2.24599 -0.392311 0
M  V30 7628 C 706.988 -1.2682 -0.990221 0
M  V30 7629 O 708.18 -1.51912 -0.908391 0
M  V30 7630 C 705.309 -3.09134 -1.49301 0
M  V30 7631 C 704.395 -4.14342 -0.904503 0
M  V30 7632 N 704.786 -5.0578 -0.0451511 0
M  V30 7633 C 703.084 -4.30323 -1.1721 0
M  V30 7634 C 703.785 -5.81 0.285344 0
M  V30 7635 N 702.761 -5.42591 -0.330993 0
M  V30 7636 H 706.563 -2.92655 0.270221 0
M  V30 7637 H 704.077 -1.60476 0.249226 0
M  V30 7638 H 706.074 -3.6014 -2.10011 0
M  V30 7639 H 704.734 -2.42622 -2.15788 0
M  V30 7640 H 705.745 -5.16903 0.321271 0
M  V30 7641 H 702.422 -3.75037 -1.83448 0
M  V30 7642 H 703.812 -6.64646 0.984626 0
M  V30 7643 N 706.532 -0.168513 -1.56696 0
M  V30 7644 C 707.778 0.471368 -1.97863 0
M  V30 7645 C 708.133 1.61049 -1.05267 0
M  V30 7646 O 707.426 1.9138 -0.0917908 0
M  V30 7647 C 707.62 1.00441 -3.42996 0
M  V30 7648 C 707.449 -0.081524 -4.49626 0
M  V30 7649 C 706.219 -0.530242 -5.0251 0
M  V30 7650 C 708.417 -0.880897 -5.067 0
M  V30 7651 N 706.399 -1.59678 -5.9277 0
M  V30 7652 C 707.77 -1.79742 -5.93374 0
M  V30 7653 C 709.825 -0.92629 -4.89208 0
M  V30 7654 C 708.528 -2.7555 -6.64428 0
M  V30 7655 C 710.554 -1.8723 -5.6098 0
M  V30 7656 C 709.916 -2.77631 -6.4738 0
M  V30 7657 H 706.015 0.140671 -0.769244 0
M  V30 7658 H 708.599 -0.268084 -1.92846 0
M  V30 7659 H 706.77 1.71339 -3.48565 0
M  V30 7660 H 708.502 1.61269 -3.7118 0
M  V30 7661 H 705.257 -0.12847 -4.73426 0
M  V30 7662 H 705.681 -2.13045 -6.42605 0
M  V30 7663 H 710.323 -0.241412 -4.2211 0
M  V30 7664 H 708.041 -3.45027 -7.30741 0
M  V30 7665 H 711.627 -1.91349 -5.49433 0
M  V30 7666 H 710.507 -3.4964 -7.01941 0
M  V30 7667 N 708.01 1.57248 0.105221 0
M  V30 7668 C 709.258 1.85204 0.808951 0
M  V30 7669 C 709.579 0.75574 1.7976 0
M  V30 7670 O 708.849 -0.218984 1.94672 0
M  V30 7671 H 707.429 0.683346 0.301739 0
M  V30 7672 H 710.091 1.94695 0.0892605 0
M  V30 7673 H 709.187 2.81595 1.34575 0
M  V30 7674 N 709.488 -0.375779 1.53054 0
M  V30 7675 C 710.736 -1.11727 1.68409 0
M  V30 7676 C 711.057 -1.90127 0.43323 0
M  V30 7677 O 710.327 -1.87945 -0.552595 0
M  V30 7678 H 708.907 -0.415451 0.620813 0
M  V30 7679 H 711.569 -0.424869 1.90213 0
M  V30 7680 H 710.665 -1.8128 2.54055 0
M  V30 7681 N 710.966 -1.44241 -0.634997 0
M  V30 7682 C 712.243 -1.37296 -1.39317 0
M  V30 7683 C 712.623 -0.0297532 -2.11079 0
M  V30 7684 O 711.971 0.987524 -2.06059 0
M  V30 7685 C 712.181 -2.56853 -2.36279 0
M  V30 7686 C 713.529 -3.00747 -2.99728 0
M  V30 7687 O 714.553 -2.5703 -2.46605 0
M  V30 7688 O 713.412 -3.76533 -3.96087 0
M  V30 7689 H 710.506 -0.543503 -0.623325 0
M  V30 7690 H 713.052 -1.56324 -0.660376 0
M  V30 7691 H 711.824 -3.46228 -1.82324 0
M  V30 7692 H 711.447 -2.40019 -3.16981 0
M  V30 7693 N 712.444 0.87505 -1.31075 0
M  V30 7694 C 713.684 1.64174 -1.21763 0
M  V30 7695 C 714.048 1.90713 0.221933 0
M  V30 7696 O 715.249 2.652 0.438458 0
M  V30 7697 C 713.52 2.93932 -2.0332 0
M  V30 7698 S 715.079 3.84841 -2.10815 0
M  V30 7699 H 711.897 0.563358 -0.433761 0
M  V30 7700 H 714.499 1.03788 -1.65675 0
M  V30 7701 H 713.203 2.72349 -3.07009 0
M  V30 7702 H 712.734 3.59345 -1.60108 0
M  V30 7703 H 714.749 4.80385 -1.24276 0
M  V30 7704 N 713.922 1.13953 1.08869 0
M  V30 7705 C 715.152 0.926825 1.84644 0
M  V30 7706 C 715.56 -0.527941 1.81685 0
M  V30 7707 O 714.903 -1.37742 1.21543 0
M  V30 7708 C 714.965 1.34416 3.33426 0
M  V30 7709 C 714.629 2.81351 3.60126 0
M  V30 7710 C 715.626 3.79486 3.55368 0
M  V30 7711 C 713.311 3.1865 3.88288 0
M  V30 7712 C 715.305 5.1293 3.78393 0
M  V30 7713 C 712.992 4.5227 4.10968 0
M  V30 7714 C 713.99 5.4922 4.06013 0
M  V30 7715 O 713.678 6.80429 4.28102 0
M  V30 7716 H 713.41 0.33013 0.589907 0
M  V30 7717 H 715.964 1.51738 1.38436 0
M  V30 7718 H 714.194 0.696901 3.80368 0
M  V30 7719 H 715.883 1.10302 3.90626 0
M  V30 7720 H 716.649 3.52017 3.3363 0
M  V30 7721 H 712.528 2.43785 3.91267 0
M  V30 7722 H 716.072 5.88591 3.74442 0
M  V30 7723 H 711.969 4.79462 4.32188 0
M  V30 7724 H 712.737 6.86617 4.45533 0
M  V30 7725 N 715.4 -1.26948 0.933913 0
M  V30 7726 C 716.363 -2.24889 0.442457 0
M  V30 7727 C 717.363 -1.54594 -0.442426 0
M  V30 7728 O 718.553 -1.72502 -0.242629 0
M  V30 7729 C 715.685 -3.3896 -0.363173 0
M  V30 7730 H 716.878 -2.69879 1.30787 0
M  V30 7731 H 714.431 -1.38978 0.715187 0
M  V30 7732 H 715.166 -2.99361 -1.24714 0
M  V30 7733 H 714.951 -3.9116 0.271366 0
M  V30 7734 H 716.441 -4.11739 -0.697186 0
M  V30 7735 N 716.879 -0.700114 -1.41195 0
M  V30 7736 C 717.827 -0.0263301 -2.32585 0
M  V30 7737 C 718.821 0.763683 -1.51209 0
M  V30 7738 O 720.027 0.668793 -1.67114 0
M  V30 7739 H 716.402 0.0102869 -0.75193 0
M  V30 7740 H 718.373 -0.814087 -2.8708 0
M  V30 7741 C 717.122 0.892793 -3.36042 0
M  V30 7742 H 716.445 0.294306 -3.98715 0
M  V30 7743 H 717.885 1.33247 -4.02518 0
M  V30 7744 C 716.344 2.01109 -2.7029 0
M  V30 7745 O 716.874 3.10035 -2.55423 0
M  V30 7746 N 715.08 1.79015 -2.28915 0
M  V30 7747 H 714.627 0.904275 -2.41207 0
M  V30 7748 H 714.585 2.54022 -1.85257 0
M  V30 7749 N 718.357 1.51182 -0.445186 0
M  V30 7750 C 719.587 2.06269 0.116922 0
M  V30 7751 C 719.995 1.31188 1.36332 0
M  V30 7752 O 719.338 0.367067 1.79995 0
M  V30 7753 C 719.4 3.56051 0.496757 0
M  V30 7754 C 719.064 4.52441 -0.64394 0
M  V30 7755 C 720.061 4.97233 -1.5184 0
M  V30 7756 C 717.746 4.95447 -0.826905 0
M  V30 7757 C 719.74 5.83712 -2.56046 0
M  V30 7758 C 717.427 5.81714 -1.87222 0
M  V30 7759 C 718.425 6.25745 -2.73738 0
M  V30 7760 O 718.113 7.10298 -3.76474 0
M  V30 7761 H 717.845 0.675954 0.00785733 0
M  V30 7762 H 720.399 1.95648 -0.625371 0
M  V30 7763 H 718.629 3.64483 1.29187 0
M  V30 7764 H 720.318 3.93618 0.990928 0
M  V30 7765 H 721.084 4.64696 -1.38862 0
M  V30 7766 H 716.963 4.60712 -0.163052 0
M  V30 7767 H 720.507 6.18 -3.23607 0
M  V30 7768 H 716.404 6.13664 -2.00218 0
M  V30 7769 H 717.172 7.28493 -3.73149 0
M  V30 7770 N 719.835 0.176821 1.56605 0
M  V30 7771 C 720.745 -0.763682 2.21822 0
M  V30 7772 C 721.761 -1.24889 1.21156 0
M  V30 7773 O 722.937 -1.29987 1.53836 0
M  V30 7774 C 720.002 -1.97352 2.8505 0
M  V30 7775 C 719.063 -1.53466 4.00932 0
M  V30 7776 C 718.296 -2.68682 4.61135 0
M  V30 7777 O 718.519 -3.85694 4.20234 0
M  V30 7778 O 717.453 -2.42442 5.50913 0
M  V30 7779 H 721.279 -0.238363 3.02763 0
M  V30 7780 H 718.864 -0.0516331 1.49311 0
M  V30 7781 H 720.746 -2.68096 3.25119 0
M  V30 7782 H 719.421 -2.48779 2.07101 0
M  V30 7783 H 718.328 -0.796551 3.65521 0
M  V30 7784 H 719.661 -1.06724 4.8049 0
M  V30 7785 N 721.313 -1.57302 -0.09688 0
M  V30 7786 C 722.538 -1.9058 -0.818169 0
M  V30 7787 C 722.963 -0.770921 -1.71576 0
M  V30 7788 O 722.321 0.277588 -1.79162 0
M  V30 7789 C 722.369 -3.22714 -1.60898 0
M  V30 7790 O 721.473 -3.10178 -2.71779 0
M  V30 7791 H 720.814 -0.624759 -0.224882 0
M  V30 7792 H 723.344 -2.04471 -0.07264 0
M  V30 7793 H 723.354 -3.55978 -1.99358 0
M  V30 7794 H 722.029 -4.04899 -0.950227 0
M  V30 7795 H 720.606 -2.88424 -2.3636 0
M  V30 7796 N 722.791 0.367657 -1.53252 0
M  V30 7797 C 723.724 1.47264 -1.74323 0
M  V30 7798 C 724.702 1.51458 -0.591535 0
M  V30 7799 O 725.886 1.69542 -0.823883 0
M  V30 7800 C 723.013 2.85637 -1.82015 0
M  V30 7801 C 722.059 2.99176 -3.03967 0
M  V30 7802 S 722.892 2.68147 -4.63527 0
M  V30 7803 C 724.048 4.08673 -4.74065 0
M  V30 7804 H 724.281 1.29169 -2.67773 0
M  V30 7805 H 721.814 0.561866 -1.43814 0
M  V30 7806 H 723.772 3.65365 -1.87132 0
M  V30 7807 H 722.433 3.01043 -0.896195 0
M  V30 7808 H 721.626 4.00511 -3.05953 0
M  V30 7809 H 721.228 2.27367 -2.96952 0
M  V30 7810 H 723.52 5.02889 -4.53992 0
M  V30 7811 H 724.463 4.11693 -5.7612 0
M  V30 7812 H 724.871 3.95576 -4.02716 0
M  V30 7813 N 724.269 1.44576 0.627338 0
M  V30 7814 C 725.232 1.51372 1.72102 0
M  V30 7815 C 726.232 0.395329 1.55865 0
M  V30 7816 O 727.422 0.658094 1.61291 0
M  V30 7817 C 724.554 1.39129 3.11217 0
M  V30 7818 H 725.747 2.48798 1.6745 0
M  V30 7819 H 723.3 1.31724 0.841336 0
M  V30 7820 H 724.035 0.428114 3.21462 0
M  V30 7821 H 723.82 2.20229 3.24409 0
M  V30 7822 H 725.31 1.46874 3.90919 0
M  V30 7823 N 725.747 -0.868086 1.31537 0
M  V30 7824 C 726.657 -2.00801 1.21311 0
M  V30 7825 C 727.673 -1.73518 0.129431 0
M  V30 7826 O 728.849 -1.98378 0.347588 0
M  V30 7827 C 725.914 -3.3419 0.922935 0
M  V30 7828 C 724.975 -3.74783 2.0937 0
M  V30 7829 C 724.208 -5.01807 1.81728 0
M  V30 7830 O 724.431 -5.65404 0.753313 0
M  V30 7831 O 723.365 -5.39213 2.67457 0
M  V30 7832 H 727.191 -2.12361 2.17109 0
M  V30 7833 H 724.776 -0.996684 1.11295 0
M  V30 7834 H 726.658 -4.14174 0.777033 0
M  V30 7835 H 725.333 -3.237 -0.00500301 0
M  V30 7836 H 724.24 -2.95432 2.29501 0
M  V30 7837 H 725.573 -3.89902 3.00396 0
M  V30 7838 N 727.225 -1.14528 -1.08264 0
M  V30 7839 C 728.45 -0.938381 -1.84957 0
M  V30 7840 C 728.875 0.508044 -1.81109 0
M  V30 7841 O 728.233 1.36146 -1.19724 0
M  V30 7842 C 728.281 -1.44568 -3.30352 0
M  V30 7843 O 727.385 -0.638745 -4.07423 0
M  V30 7844 H 726.726 -0.335394 -0.573068 0
M  V30 7845 H 729.256 -1.52287 -1.36637 0
M  V30 7846 H 729.266 -1.45449 -3.81194 0
M  V30 7847 H 727.941 -2.49876 -3.32468 0
M  V30 7848 H 726.518 -0.698801 -3.66294 0
M  V30 7849 N 728.703 1.26451 -0.940633 0
M  V30 7850 C 729.633 2.28773 -0.467479 0
M  V30 7851 C 730.614 1.63218 0.478955 0
M  V30 7852 O 731.799 1.90427 0.380929 0
M  V30 7853 C 728.929 3.46259 0.268656 0
M  V30 7854 C 727.883 4.23898 -0.591171 0
M  V30 7855 C 727.209 5.33993 0.274891 0
M  V30 7856 C 728.509 4.87974 -1.86223 0
M  V30 7857 H 730.203 2.68601 -1.32265 0
M  V30 7858 H 727.749 1.29123 -0.637436 0
M  V30 7859 H 729.702 4.16951 0.610696 0
M  V30 7860 H 728.426 3.05383 1.15796 0
M  V30 7861 H 727.085 3.54969 -0.916098 0
M  V30 7862 H 726.733 4.89358 1.16353 0
M  V30 7863 H 726.433 5.86849 -0.297006 0
M  V30 7864 H 727.957 6.07523 0.612213 0
M  V30 7865 H 729.371 5.50883 -1.58747 0
M  V30 7866 H 727.768 5.50945 -2.37866 0
M  V30 7867 H 728.838 4.10945 -2.57394 0
M  V30 7868 N 730.181 0.707592 1.40822 0
M  V30 7869 C 731.597 0.38034 1.55002 0
M  V30 7870 C 731.797 -1.11163 1.68062 0
M  V30 7871 O 730.853 -1.89761 1.66574 0
M  V30 7872 C 732.166 1.1394 2.78277 0
M  V30 7873 C 733.714 1.12492 2.92087 0
M  V30 7874 C 734.189 1.86597 4.18265 0
M  V30 7875 N 735.68 1.83626 4.25248 0
M  V30 7876 C 736.415 2.37794 5.21768 0
M  V30 7877 N 735.911 3.00485 6.24244 0
M  V30 7878 N 737.704 2.27982 5.13791 0
M  V30 7879 H 729.855 1.67511 1.3059 0
M  V30 7880 H 732.118 0.707579 0.630901 0
M  V30 7881 H 731.824 2.19398 2.74877 0
M  V30 7882 H 731.698 0.725793 3.70151 0
M  V30 7883 H 734.085 0.0785564 2.94995 0
M  V30 7884 H 734.166 1.57768 2.01353 0
M  V30 7885 H 733.81 2.91219 4.16118 0
M  V30 7886 H 733.74 1.38746 5.07993 0
M  V30 7887 H 736.231 1.3793 3.51829 0
M  V30 7888 H 736.544 3.39355 6.94304 0
M  V30 7889 H 734.889 3.04567 6.24711 0
M  V30 7890 H 738.08 1.78669 4.3266 0
M  V30 7891 H 738.253 2.70499 5.88841 0
M  V30 7892 N 731.66 -1.50943 0.453197 0
M  V30 7893 C 732.908 -2.01813 -0.107709 0
M  V30 7894 C 733.229 -1.33841 -1.41816 0
M  V30 7895 O 732.499 -0.477973 -1.8998 0
M  V30 7896 H 731.079 -0.745773 -0.0427948 0
M  V30 7897 H 733.741 -1.8545 0.599531 0
M  V30 7898 H 732.837 -3.10911 -0.27218 0
M  V30 7899 N 733.138 -0.185124 -1.56509 0
M  V30 7900 C 734.386 0.455357 -1.96903 0
M  V30 7901 C 734.707 1.62839 -1.07277 0
M  V30 7902 O 733.977 1.95385 -0.141966 0
M  V30 7903 H 732.557 0.171218 -0.727113 0
M  V30 7904 H 735.219 -0.26953 -1.93027 0
M  V30 7905 H 734.315 0.80616 -3.01509 0
M  V30 7906 N 734.616 1.57351 0.0885366 0
M  V30 7907 C 735.546 2.05561 1.10757 0
M  V30 7908 C 736.527 0.945789 1.41382 0
M  V30 7909 O 737.712 1.21747 1.51299 0
M  V30 7910 C 734.842 2.48554 2.42566 0
M  V30 7911 C 733.796 3.63259 2.26334 0
M  V30 7912 C 733.122 3.9225 3.63378 0
M  V30 7913 C 734.422 4.93913 1.69844 0
M  V30 7914 H 736.116 2.90946 0.706468 0
M  V30 7915 H 733.662 1.39968 0.338385 0
M  V30 7916 H 735.615 2.8089 3.14132 0
M  V30 7917 H 734.339 1.60176 2.84625 0
M  V30 7918 H 732.998 3.31179 1.57213 0
M  V30 7919 H 732.646 3.0103 4.02976 0
M  V30 7920 H 732.346 4.69478 3.53362 0
M  V30 7921 H 733.87 4.27067 4.36401 0
M  V30 7922 H 735.284 5.24588 2.31258 0
M  V30 7923 H 733.681 5.75349 1.70569 0
M  V30 7924 H 734.751 4.80409 0.65843 0
M  V30 7925 N 736.094 -0.359525 1.53444 0
M  V30 7926 C 737.319 -1.12644 1.74144 0
M  V30 7927 C 737.744 -1.82082 0.472007 0
M  V30 7928 O 737.102 -1.71962 -0.57436 0
M  V30 7929 C 737.15 -2.12781 2.9113 0
M  V30 7930 O 736.254 -3.19984 2.60162 0
M  V30 7931 H 735.595 -0.326553 0.578152 0
M  V30 7932 H 738.125 -0.414798 2.00351 0
M  V30 7933 H 738.135 -2.56278 3.17467 0
M  V30 7934 H 736.81 -1.61634 3.83207 0
M  V30 7935 H 735.387 -2.81417 2.44661 0
M  V30 7936 N 737.572 -1.44907 -0.619662 0
M  V30 7937 C 738.821 -1.47569 -1.37501 0
M  V30 7938 C 739.134 -0.116707 -1.95252 0
M  V30 7939 O 740.34 -0.020909 -2.71492 0
M  V30 7940 C 738.796 -2.59851 -2.49009 0
M  V30 7941 C 738.404 -4.02008 -1.97722 0
M  V30 7942 C 740.148 -2.71746 -3.2612 0
M  V30 7943 C 738.055 -5.05693 -3.0664 0
M  V30 7944 H 736.985 -0.549068 -0.51676 0
M  V30 7945 H 739.636 -1.71009 -0.665437 0
M  V30 7946 H 738.018 -2.29671 -3.22594 0
M  V30 7947 H 739.192 -4.41809 -1.30925 0
M  V30 7948 H 737.507 -3.94456 -1.33392 0
M  V30 7949 H 740.104 -3.46382 -4.07337 0
M  V30 7950 H 740.447 -1.77959 -3.76346 0
M  V30 7951 H 740.98 -3.01392 -2.5963 0
M  V30 7952 H 737.719 -6.01148 -2.61345 0
M  V30 7953 H 737.239 -4.70473 -3.72042 0
M  V30 7954 H 738.918 -5.29906 -3.71226 0
M  V30 7955 N 739.05 0.861098 -1.31996 0
M  V30 7956 C 740.298 1.61162 -1.21947 0
M  V30 7957 C 740.619 1.93751 0.220351 0
M  V30 7958 O 739.889 1.59069 1.14341 0
M  V30 7959 H 738.469 0.597485 -0.448353 0
M  V30 7960 H 741.131 1.03039 -1.65436 0
M  V30 7961 H 740.227 2.55138 -1.79752 0
M  V30 7962 N 740.528 1.15101 1.07655 0
M  V30 7963 C 741.458 0.867864 2.16773 0
M  V30 7964 C 742.439 -0.180283 1.69142 0
M  V30 7965 O 743.624 -0.0353152 1.94168 0
M  V30 7966 C 740.754 0.35299 3.45501 0
M  V30 7967 C 739.708 1.33746 4.06566 0
M  V30 7968 C 739.034 0.681562 5.30338 0
M  V30 7969 C 740.334 2.7024 4.46954 0
M  V30 7970 H 742.028 1.78034 2.40716 0
M  V30 7971 H 739.574 0.857435 1.15689 0
M  V30 7972 H 741.527 0.142465 4.21159 0
M  V30 7973 H 740.251 -0.594945 3.21135 0
M  V30 7974 H 738.91 1.53429 3.32949 0
M  V30 7975 H 738.558 -0.272422 5.02262 0
M  V30 7976 H 738.258 1.33853 5.72151 0
M  V30 7977 H 739.782 0.48074 6.08705 0
M  V30 7978 H 741.196 2.5442 5.13754 0
M  V30 7979 H 739.593 3.32282 4.99709 0
M  V30 7980 H 740.663 3.26537 3.58471 0
M  V30 7981 N 742.006 -1.2595 0.947325 0
M  V30 7982 C 743.231 -1.98083 0.614633 0
M  V30 7983 C 743.656 -1.70013 -0.804815 0
M  V30 7984 O 743.014 -0.95175 -1.54309 0
M  V30 7985 C 743.062 -3.4993 0.870706 0
M  V30 7986 O 742.166 -4.12364 -0.0541451 0
M  V30 7987 H 741.507 -0.621232 0.234451 0
M  V30 7988 H 744.037 -1.60259 1.27193 0
M  V30 7989 H 744.047 -4.00198 0.794051 0
M  V30 7990 H 742.722 -3.69691 1.90529 0
M  V30 7991 H 741.299 -3.72826 0.0740917 0
M  V30 7992 N 743.484 -0.715051 -1.40445 0
M  V30 7993 C 744.732 -0.253826 -2.005 0
M  V30 7994 C 745.053 1.15681 -1.5698 0
M  V30 7995 O 744.323 1.78414 -0.809027 0
M  V30 7996 H 742.903 -0.0908537 -0.741454 0
M  V30 7997 H 745.565 -0.920561 -1.7179 0
M  V30 7998 H 744.661 -0.286499 -3.10782 0
M  V30 7999 N 744.962 1.50701 -0.461195 0
M  V30 8000 C 746.209 2.02267 0.0971971 0
M  V30 8001 C 746.537 1.34387 1.40608 0
M  V30 8002 O 745.792 0.455254 1.90331 0
M  V30 8003 C 746.091 3.55788 0.33908 0
M  V30 8004 C 745.757 4.42092 -0.886885 0
M  V30 8005 C 744.419 4.65398 -1.22304 0
M  V30 8006 C 746.771 4.92571 -1.70361 0
M  V30 8007 C 744.099 5.36429 -2.37616 0
M  V30 8008 C 746.451 5.64868 -2.84793 0
M  V30 8009 C 745.115 5.86431 -3.18834 0
M  V30 8010 H 744.385 0.740146 0.0355669 0
M  V30 8011 H 747.032 1.81415 -0.61326 0
M  V30 8012 H 745.337 3.751 1.13168 0
M  V30 8013 H 747.034 3.93243 0.784937 0
M  V30 8014 H 743.624 4.24165 -0.614981 0
M  V30 8015 H 747.808 4.74428 -1.4571 0
M  V30 8016 H 743.064 5.51333 -2.64276 0
M  V30 8017 H 747.238 6.02966 -3.48432 0
M  V30 8018 H 744.865 6.41248 -4.08296 0
M  V30 8019 N 746.441 0.193421 1.56409 0
M  V30 8020 C 747.689 -0.444908 1.97142 0
M  V30 8021 C 748.01 -1.62268 1.08139 0
M  V30 8022 O 747.28 -1.95307 0.152326 0
M  V30 8023 H 745.86 -0.16736 0.728011 0
M  V30 8024 H 748.522 0.279763 1.92882 0
M  V30 8025 H 747.618 -0.790159 3.01932 0
M  V30 8026 N 747.919 -1.57396 -0.0801906 0
M  V30 8027 C 749.166 -1.86836 -0.780927 0
M  V30 8028 C 749.494 -0.784012 -1.77999 0
M  V30 8029 O 748.749 0.220881 -1.94449 0
M  V30 8030 C 749.048 -3.22915 -1.53169 0
M  V30 8031 C 748.714 -4.45843 -0.67339 0
M  V30 8032 C 747.376 -4.79213 -0.436829 0
M  V30 8033 C 749.728 -5.21142 -0.0776786 0
M  V30 8034 C 747.056 -5.853 0.405062 0
M  V30 8035 C 749.408 -6.28119 0.751619 0
M  V30 8036 C 748.072 -6.59995 0.998131 0
M  V30 8037 H 747.342 -0.683682 -0.285761 0
M  V30 8038 H 749.989 -1.91454 -0.0419435 0
M  V30 8039 H 748.294 -3.14049 -2.34265 0
M  V30 8040 H 749.991 -3.42926 -2.07853 0
M  V30 8041 H 746.581 -4.19721 -0.867891 0
M  V30 8042 H 750.765 -4.95682 -0.247572 0
M  V30 8043 H 746.021 -6.084 0.60488 0
M  V30 8044 H 750.195 -6.8563 1.22 0
M  V30 8045 H 747.822 -7.42027 1.65227 0
M  V30 8046 N 749.397 0.351382 -1.53633 0
M  V30 8047 C 750.643 1.09049 -1.71697 0
M  V30 8048 C 750.998 1.86563 -0.470314 0
M  V30 8049 O 750.291 1.83922 0.536954 0
M  V30 8050 C 750.485 2.06744 -2.91533 0
M  V30 8051 C 750.314 1.38832 -4.27733 0
M  V30 8052 C 749.084 1.13646 -4.92354 0
M  V30 8053 C 751.282 0.818602 -5.07743 0
M  V30 8054 N 749.264 0.422324 -6.12446 0
M  V30 8055 C 750.635 0.234602 -6.19556 0
M  V30 8056 C 752.69 0.718679 -4.92686 0
M  V30 8057 C 751.393 -0.439592 -7.17955 0
M  V30 8058 C 753.419 0.0582402 -5.91371 0
M  V30 8059 C 752.781 -0.514823 -7.02516 0
M  V30 8060 H 748.88 0.383697 -0.681396 0
M  V30 8061 H 751.464 0.375063 -1.91053 0
M  V30 8062 H 749.635 2.75586 -2.73691 0
M  V30 8063 H 751.367 2.73436 -2.98353 0
M  V30 8064 H 748.122 1.4215 -4.51764 0
M  V30 8065 H 748.546 0.0802092 -6.76952 0
M  V30 8066 H 753.188 1.14748 -4.06931 0
M  V30 8067 H 750.906 -0.880307 -8.03291 0
M  V30 8068 H 754.492 -0.0183382 -5.81797 0
M  V30 8069 H 753.372 -1.01777 -7.77567 0
M  V30 8070 N 750.875 1.45233 0.611969 0
M  V30 8071 C 752.1 1.52767 1.40274 0
M  V30 8072 C 752.525 0.159701 1.87421 0
M  V30 8073 O 751.883 -0.854837 1.59882 0
M  V30 8074 C 751.931 2.51286 2.58626 0
M  V30 8075 O 751.035 2.02764 3.59111 0
M  V30 8076 H 750.376 0.515141 0.418958 0
M  V30 8077 H 752.906 1.90547 0.745188 0
M  V30 8078 H 752.916 2.69949 3.05927 0
M  V30 8079 H 751.591 3.50641 2.23659 0
M  V30 8080 H 750.168 1.93957 3.18489 0
M  V30 8081 N 752.353 -0.854086 1.3245 0
M  V30 8082 C 753.303 -1.9508 1.18016 0
M  V30 8083 C 754.287 -1.60665 0.0869417 0
M  V30 8084 O 755.479 -1.74201 0.313505 0
M  V30 8085 C 752.608 -3.3113 0.905961 0
M  V30 8086 C 751.694 -3.71763 2.04091 0
M  V30 8087 N 752.085 -3.84218 3.28953 0
M  V30 8088 C 750.383 -4.01393 1.94421 0
M  V30 8089 C 751.084 -4.192 4.03294 0
M  V30 8090 N 750.06 -4.30749 3.31596 0
M  V30 8091 H 753.862 -2.02843 2.12678 0
M  V30 8092 H 751.376 -1.04588 1.24238 0
M  V30 8093 H 753.373 -4.09471 0.783508 0
M  V30 8094 H 752.033 -3.24684 -0.0322715 0
M  V30 8095 H 753.044 -3.68524 3.63883 0
M  V30 8096 H 749.721 -4.03246 1.08162 0
M  V30 8097 H 751.111 -4.36301 5.1097 0
M  V30 8098 N 753.831 -1.1567 -1.07043 0
M  V30 8099 C 755.108 -0.843948 -1.76456 0
M  V30 8100 C 755.488 0.659806 -2.00524 0
M  V30 8101 O 754.836 1.60518 -1.62623 0
M  V30 8102 C 755.046 -1.65822 -3.0709 0
M  V30 8103 C 756.394 -1.8664 -3.8138 0
M  V30 8104 O 757.418 -1.62624 -3.1691 0
M  V30 8105 O 756.277 -2.26884 -4.97178 0
M  V30 8106 H 753.371 -0.310677 -0.766426 0
M  V30 8107 H 755.917 -1.26266 -1.1338 0
M  V30 8108 H 754.689 -2.67902 -2.85209 0
M  V30 8109 H 754.312 -1.23605 -3.77899 0
M  V30 8110 N 755.309 1.25446 -0.953992 0
M  V30 8111 C 756.558 1.92441 -0.604101 0
M  V30 8112 C 756.871 1.75543 0.862796 0
M  V30 8113 O 758.077 2.37106 1.32262 0
M  V30 8114 C 756.533 3.44854 -1.02974 0
M  V30 8115 C 756.141 3.70464 -2.51914 0
M  V30 8116 C 757.885 4.1778 -0.752352 0
M  V30 8117 C 755.792 5.1638 -2.88281 0
M  V30 8118 H 754.722 0.720508 -0.222227 0
M  V30 8119 H 757.373 1.42318 -1.15836 0
M  V30 8120 H 755.755 3.93935 -0.403904 0
M  V30 8121 H 756.929 3.32038 -3.19511 0
M  V30 8122 H 755.244 3.10797 -2.77117 0
M  V30 8123 H 757.841 5.25261 -1.00024 0
M  V30 8124 H 758.184 4.15135 0.311212 0
M  V30 8125 H 758.717 3.74605 -1.33851 0
M  V30 8126 H 755.456 5.24135 -3.93653 0
M  V30 8127 H 754.976 5.55855 -2.25357 0
M  V30 8128 H 756.655 5.84497 -2.77439 0
M  V30 8129 N 756.787 0.722489 1.40064 0
M  V30 8130 C 758.035 0.264455 2.00362 0
M  V30 8131 C 758.356 -1.14847 1.57592 0
M  V30 8132 O 757.626 -1.77982 0.818477 0
M  V30 8133 H 756.206 0.0947846 0.740962 0
M  V30 8134 H 758.868 0.929659 1.71299 0
M  V30 8135 H 757.964 0.302977 3.10626 0
M  V30 8136 N 758.265 -1.50454 0.469181 0
M  V30 8137 C 759.513 -2.01916 -0.0862982 0
M  V30 8138 C 759.834 -1.35337 -1.40388 0
M  V30 8139 O 759.104 -0.498096 -1.89462 0
M  V30 8140 H 757.684 -0.746185 -0.0348825 0
M  V30 8141 H 760.346 -1.84804 0.619167 0
M  V30 8142 H 759.442 -3.11182 -0.239189 0
M  V30 8143 N 759.743 -0.201713 -1.56304 0
M  V30 8144 C 760.99 0.435307 -1.97766 0
M  V30 8145 C 761.318 1.61169 -1.0888 0
M  V30 8146 O 760.573 1.95272 -0.12934 0
M  V30 8147 C 760.872 0.931432 -3.45049 0
M  V30 8148 C 760.538 -0.132287 -4.50706 0
M  V30 8149 C 759.2 -0.424552 -4.79323 0
M  V30 8150 C 761.552 -0.852703 -5.14177 0
M  V30 8151 C 758.88 -1.4421 -5.68701 0
M  V30 8152 C 761.232 -1.85944 -6.04655 0
M  V30 8153 C 759.896 -2.15884 -6.31625 0
M  V30 8154 H 759.166 0.15929 -0.723676 0
M  V30 8155 H 761.813 -0.300069 -1.89134 0
M  V30 8156 H 760.118 1.7452 -3.50785 0
M  V30 8157 H 761.815 1.43383 -3.74489 0
M  V30 8158 H 758.405 0.105671 -4.2847 0
M  V30 8159 H 762.589 -0.640139 -4.92154 0
M  V30 8160 H 757.845 -1.6799 -5.87869 0
M  V30 8161 H 762.019 -2.42286 -6.52894 0
M  V30 8162 H 759.646 -2.94875 -7.0068 0
M  V30 8163 N 761.222 1.57436 0.0718424 0
M  V30 8164 C 762.132 2.07039 1.10326 0
M  V30 8165 C 763.148 0.999918 1.424 0
M  V30 8166 O 764.324 1.31462 1.52577 0
M  V30 8167 C 761.389 2.50439 2.39752 0
M  V30 8168 C 760.45 3.71784 2.14651 0
M  V30 8169 C 759.683 4.13104 3.37906 0
M  V30 8170 O 759.906 3.54298 4.47023 0
M  V30 8171 O 758.84 5.05894 3.26121 0
M  V30 8172 H 762.666 2.95239 0.711872 0
M  V30 8173 H 760.251 1.46638 0.28597 0
M  V30 8174 H 762.133 2.78876 3.15921 0
M  V30 8175 H 760.808 1.65368 2.78271 0
M  V30 8176 H 759.715 3.48431 1.36187 0
M  V30 8177 H 761.048 4.57707 1.81012 0
M  V30 8178 N 762.7 -0.34323 1.53817 0
M  V30 8179 C 763.648 -1.44176 1.82527 0
M  V30 8180 C 764.642 -1.54452 0.695772 0
M  V30 8181 O 765.848 -1.57072 0.879114 0
M  V30 8182 H 762.223 -0.480729 0.578277 0
M  V30 8183 H 764.194 -1.17176 2.74431 0
M  V30 8184 C 762.943 -2.80695 2.05197 0
M  V30 8185 H 762.266 -2.73554 2.91561 0
M  V30 8186 H 763.706 -3.56679 2.29251 0
M  V30 8187 C 762.165 -3.26322 0.837589 0
M  V30 8188 O 762.695 -4.01683 0.0371631 0
M  V30 8189 N 760.901 -2.83128 0.654724 0
M  V30 8190 H 760.448 -2.21965 1.30725 0
M  V30 8191 H 760.406 -3.14011 -0.156345 0
M  V30 8192 N 764.178 -1.45556 -0.604258 0
M  V30 8193 C 765.406 -1.53278 -1.38973 0
M  V30 8194 C 765.821 -0.166509 -1.88064 0
M  V30 8195 O 765.178 0.832519 -1.62405 0
M  V30 8196 C 765.229 -2.51992 -2.59195 0
M  V30 8197 O 764.95 -3.8331 -2.12143 0
M  V30 8198 C 766.451 -2.69445 -3.52015 0
M  V30 8199 H 763.671 -0.519003 -0.425297 0
M  V30 8200 H 766.215 -1.90773 -0.736621 0
M  V30 8201 H 764.37 -2.17561 -3.2054 0
M  V30 8202 H 764.784 -4.3685 -2.90279 0
M  V30 8203 H 766.258 -3.42485 -4.32907 0
M  V30 8204 H 766.735 -1.75596 -4.0257 0
M  V30 8205 H 767.341 -3.04886 -2.9652 0
M  V30 8206 N 765.656 0.84705 -1.32902 0
M  V30 8207 C 766.619 1.9378 -1.224 0
M  V30 8208 C 767.619 1.60144 -0.145108 0
M  V30 8209 O 768.809 1.69638 -0.396058 0
M  V30 8210 C 765.941 3.29234 -0.884174 0
M  V30 8211 H 767.134 2.04518 -2.19345 0
M  V30 8212 H 764.687 1.03816 -1.16842 0
M  V30 8213 H 765.422 3.24193 0.0831277 0
M  V30 8214 H 765.207 3.55026 -1.6643 0
M  V30 8215 H 766.697 4.09162 -0.835226 0
M  V30 8216 N 767.134 1.16236 1.06428 0
M  V30 8217 C 768.545 0.950942 1.60667 0
M  V30 8218 C 768.896 -0.505491 1.89576 0
M  V30 8219 O 768.021 -1.37843 1.66818 0
M  V30 8220 C 768.616 1.71982 2.91904 0
M  V30 8221 C 767.175 1.55342 3.4285 0
M  V30 8222 C 766.322 1.72942 2.16763 0
M  V30 8223 H 769.273 1.31126 0.893959 0
M  V30 8224 H 769.294 1.19483 3.61253 0
M  V30 8225 H 768.806 2.77978 2.70831 0
M  V30 8226 H 766.907 0.5178 3.68985 0
M  V30 8227 H 767.02 2.33643 4.18267 0
M  V30 8228 H 765.384 1.15673 2.26918 0
M  V30 8229 H 766.167 2.80324 1.98175 0
M  V30 8230 N 768.612 -1.24939 0.960631 0
M  V30 8231 C 769.575 -2.239 0.49006 0
M  V30 8232 C 770.575 -1.55497 -0.409535 0
M  V30 8233 O 771.765 -1.72978 -0.205984 0
M  V30 8234 C 768.897 -3.39654 -0.291193 0
M  V30 8235 H 770.09 -2.67044 1.36482 0
M  V30 8236 H 767.643 -1.37429 0.744505 0
M  V30 8237 H 768.378 -3.01939 -1.18336 0
M  V30 8238 H 768.163 -3.90496 0.354276 0
M  V30 8239 H 769.653 -4.13125 -0.609693 0
M  V30 8240 N 770.09 -0.729906 -1.39679 0
M  V30 8241 C 771.04 -0.0627678 -2.27914 0
M  V30 8242 C 772.024 0.717867 -1.43998 0
M  V30 8243 O 773.216 0.587713 -1.66958 0
M  V30 8244 C 770.345 0.847564 -3.32673 0
M  V30 8245 C 769.431 0.0613515 -4.24056 0
M  V30 8246 N 769.822 -0.962863 -4.96551 0
M  V30 8247 C 768.12 0.291773 -4.45045 0
M  V30 8248 C 768.821 -1.43652 -5.63683 0
M  V30 8249 N 767.797 -0.756044 -5.38317 0
M  V30 8250 H 771.599 -0.847545 -2.81414 0
M  V30 8251 H 769.113 -0.563776 -1.523 0
M  V30 8252 H 771.11 1.34094 -3.94746 0
M  V30 8253 H 769.77 1.63156 -2.80732 0
M  V30 8254 H 770.781 -1.34409 -5.00154 0
M  V30 8255 H 767.458 1.05097 -4.04056 0
M  V30 8256 H 768.848 -2.28835 -6.31731 0
M  V30 8257 N 771.568 1.50203 -0.477153 0
M  V30 8258 C 772.814 2.02658 0.0758507 0
M  V30 8259 C 773.147 1.358 1.38824 0
M  V30 8260 O 772.422 0.485696 1.88338 0
M  V30 8261 C 772.705 3.59208 0.253339 0
M  V30 8262 C 772.558 4.36629 -1.0805 0
M  V30 8263 C 773.877 4.28469 1.00509 0
M  V30 8264 H 770.996 0.736538 0.0260921 0
M  V30 8265 H 773.638 1.79464 -0.623925 0
M  V30 8266 H 771.788 3.79101 0.849378 0
M  V30 8267 H 773.46 4.28292 -1.71358 0
M  V30 8268 H 771.703 4.0013 -1.67566 0
M  V30 8269 H 772.374 5.44449 -0.909883 0
M  V30 8270 H 774.85 4.13087 0.499818 0
M  V30 8271 H 773.726 5.37804 1.09808 0
M  V30 8272 H 773.987 3.92057 2.04314 0
M  V30 8273 N 773.046 0.209999 1.56195 0
M  V30 8274 C 774.276 -0.429373 2.02089 0
M  V30 8275 C 774.684 -1.54703 1.0892 0
M  V30 8276 O 774.027 -1.83485 0.0889535 0
M  V30 8277 C 774.089 -1.03266 3.44349 0
M  V30 8278 C 773.753 -0.0518873 4.56971 0
M  V30 8279 C 774.75 0.744249 5.14545 0
M  V30 8280 C 772.435 0.0635185 5.0226 0
M  V30 8281 C 774.429 1.64261 6.15871 0
M  V30 8282 C 772.116 0.965423 6.03426 0
M  V30 8283 C 773.114 1.75352 6.60106 0
M  V30 8284 O 772.802 2.64029 7.59305 0
M  V30 8285 H 772.534 -0.110604 0.66689 0
M  V30 8286 H 775.088 0.320436 2.02885 0
M  V30 8287 H 773.318 -1.83134 3.40586 0
M  V30 8288 H 775.007 -1.57823 3.73961 0
M  V30 8289 H 775.773 0.665476 4.80413 0
M  V30 8290 H 771.652 -0.539762 4.57829 0
M  V30 8291 H 775.196 2.25819 6.60039 0
M  V30 8292 H 771.093 1.04526 6.36981 0
M  V30 8293 H 771.861 2.57974 7.76783 0
M  V30 8294 N 774.524 -1.57472 -0.0634922 0
M  V30 8295 C 775.471 -2.04258 -1.07457 0
M  V30 8296 C 776.441 -0.924804 -1.37973 0
M  V30 8297 O 777.626 -1.19305 -1.48899 0
M  V30 8298 C 774.766 -2.49832 -2.38071 0
M  V30 8299 C 773.879 -3.75263 -2.14014 0
M  V30 8300 C 773.014 -4.09585 -3.38251 0
M  V30 8301 C 772.053 -5.28032 -3.09594 0
M  V30 8302 N 771.19 -5.57953 -4.26185 0
M  V30 8303 H 776.03 -2.90402 -0.668626 0
M  V30 8304 H 773.567 -1.43609 -0.318572 0
M  V30 8305 H 775.525 -2.7431 -3.14341 0
M  V30 8306 H 774.155 -1.66654 -2.76453 0
M  V30 8307 H 773.207 -3.58075 -1.28399 0
M  V30 8308 H 774.519 -4.61667 -1.88852 0
M  V30 8309 H 773.673 -4.35008 -4.2291 0
M  V30 8310 H 772.412 -3.21765 -3.66495 0
M  V30 8311 H 771.417 -5.02397 -2.23332 0
M  V30 8312 H 772.642 -6.17477 -2.82663 0
M  V30 8313 H 770.588 -4.73092 -4.54445 0
M  V30 8314 H 770.505 -6.38793 -4.04326 0
M  V30 8315 H 771.773 -5.87931 -5.11817 0
M  V30 8316 N 776.003 0.335068 -1.53997 0
M  V30 8317 C 777.419 0.678704 -1.4445 0
M  V30 8318 C 777.619 1.92106 -0.608078 0
M  V30 8319 O 776.675 2.52292 -0.102373 0
M  V30 8320 C 777.988 0.863435 -2.88037 0
M  V30 8321 C 779.536 0.961513 -2.97866 0
M  V30 8322 C 780.011 1.1785 -4.42578 0
M  V30 8323 N 781.502 1.2455 -4.46141 0
M  V30 8324 C 782.237 1.43106 -5.55255 0
M  V30 8325 N 781.733 1.5878 -6.74359 0
M  V30 8326 N 783.526 1.45722 -5.42883 0
M  V30 8327 H 775.677 -0.481656 -2.06867 0
M  V30 8328 H 777.94 -0.153615 -0.935471 0
M  V30 8329 H 777.646 0.0219511 -3.51693 0
M  V30 8330 H 777.52 1.76268 -3.33481 0
M  V30 8331 H 779.907 1.79351 -2.34344 0
M  V30 8332 H 779.988 0.0389862 -2.5577 0
M  V30 8333 H 779.632 0.351397 -5.06683 0
M  V30 8334 H 779.562 2.11472 -4.82273 0
M  V30 8335 H 782.053 1.13928 -3.60318 0
M  V30 8336 H 782.366 1.72599 -7.53279 0
M  V30 8337 H 780.711 1.559 -6.77289 0
M  V30 8338 H 783.902 1.33065 -4.48789 0
M  V30 8339 H 784.075 1.59841 -6.27977 0
M  V30 8340 N 777.481 1.45874 0.596531 0
M  V30 8341 C 778.727 1.51679 1.35518 0
M  V30 8342 C 779.082 0.160681 1.91728 0
M  V30 8343 O 778.375 -0.828886 1.72743 0
M  V30 8344 C 778.569 2.54034 2.51399 0
M  V30 8345 C 778.398 3.99465 2.06538 0
M  V30 8346 C 777.168 4.67321 1.92196 0
M  V30 8347 C 779.366 4.87674 1.63336 0
M  V30 8348 N 777.348 5.97427 1.41261 0
M  V30 8349 C 778.719 6.07495 1.23895 0
M  V30 8350 C 780.774 4.74442 1.51028 0
M  V30 8351 C 779.477 7.15548 0.733739 0
M  V30 8352 C 781.503 5.82553 1.0191 0
M  V30 8353 C 780.865 7.01537 0.634403 0
M  V30 8354 H 776.964 0.609933 0.489393 0
M  V30 8355 H 779.548 1.82411 0.680746 0
M  V30 8356 H 777.719 2.25235 3.16424 0
M  V30 8357 H 779.451 2.49918 3.18313 0
M  V30 8358 H 776.206 4.22635 2.1372 0
M  V30 8359 H 776.63 6.66638 1.17995 0
M  V30 8360 H 781.272 3.82855 1.79393 0
M  V30 8361 H 778.99 8.06914 0.437656 0
M  V30 8362 H 782.576 5.74352 0.927977 0
M  V30 8363 H 781.456 7.83768 0.26019 0
M  V30 8364 N 778.959 -0.83999 1.33349 0
M  V30 8365 C 780.199 -1.60888 1.26073 0
M  V30 8366 C 780.563 -1.91234 -0.17129 0
M  V30 8367 O 781.764 -2.66269 -0.36799 0
M  V30 8368 C 780.035 -2.88438 2.11042 0
M  V30 8369 S 781.594 -3.79116 2.20944 0
M  V30 8370 H 778.412 -0.55166 0.448545 0
M  V30 8371 H 781.014 -0.99359 1.68369 0
M  V30 8372 H 779.718 -2.64113 3.14121 0
M  V30 8373 H 779.249 -3.54974 1.69579 0
M  V30 8374 H 781.264 -4.76921 1.36969 0
M  V30 8375 N 780.437 -1.16799 -1.0581 0
M  V30 8376 C 781.4 -0.881396 -2.11575 0
M  V30 8377 C 782.4 0.12574 -1.60308 0
M  V30 8378 O 783.59 -0.105716 -1.73879 0
M  V30 8379 C 780.722 -0.319037 -3.39404 0
M  V30 8380 H 781.915 -1.81907 -2.38432 0
M  V30 8381 H 779.468 -0.977597 -1.21954 0
M  V30 8382 H 780.203 0.626082 -3.18199 0
M  V30 8383 H 779.988 -1.04481 -3.77923 0
M  V30 8384 H 781.478 -0.13663 -4.17376 0
M  V30 8385 N 781.915 1.24427 -0.967243 0
M  V30 8386 C 783.162 1.92487 -0.62888 0
M  V30 8387 C 783.49 1.75623 0.835871 0
M  V30 8388 O 782.745 1.1027 1.61675 0
M  V30 8389 C 783.044 3.44568 -0.949096 0
M  V30 8390 C 782.71 3.816 -2.40192 0
M  V30 8391 C 781.372 3.9142 -2.799 0
M  V30 8392 C 783.724 3.99715 -3.34481 0
M  V30 8393 C 781.052 4.16771 -4.12939 0
M  V30 8394 C 783.404 4.26562 -4.67148 0
M  V30 8395 C 782.068 4.34601 -5.06634 0
M  V30 8396 H 781.338 0.704361 -0.230124 0
M  V30 8397 H 783.985 1.4772 -1.21864 0
M  V30 8398 H 782.29 3.90819 -0.277085 0
M  V30 8399 H 783.987 3.95436 -0.665692 0
M  V30 8400 H 780.577 3.74522 -2.08402 0
M  V30 8401 H 784.761 3.91531 -3.04987 0
M  V30 8402 H 780.017 4.21214 -4.43158 0
M  V30 8403 H 784.191 4.39523 -5.40178 0
M  V30 8404 H 781.818 4.53998 -6.09746 0
M  V30 8405 N 783.393 0.737304 1.3929 0
M  V30 8406 C 784.641 0.285691 2.00071 0
M  V30 8407 C 784.962 -1.13169 1.58801 0
M  V30 8408 O 784.232 -1.77104 0.837308 0
M  V30 8409 H 782.812 0.102638 0.739915 0
M  V30 8410 H 785.474 0.947775 1.70303 0
M  V30 8411 H 784.57 0.335906 3.10287 0
M  V30 8412 N 784.871 -1.49948 0.485112 0
M  V30 8413 C 785.801 -2.31675 -0.291364 0
M  V30 8414 C 786.782 -1.39216 -0.977383 0
M  V30 8415 O 787.967 -1.68133 -0.971855 0
M  V30 8416 C 785.097 -3.19326 -1.36558 0
M  V30 8417 C 784.051 -4.2045 -0.800359 0
M  V30 8418 C 783.377 -4.96931 -1.97391 0
M  V30 8419 C 784.677 -5.21925 0.197867 0
M  V30 8420 H 786.371 -2.96839 0.390775 0
M  V30 8421 H 783.917 -1.42749 0.189375 0
M  V30 8422 H 785.87 -3.75304 -1.91638 0
M  V30 8423 H 784.594 -2.52074 -2.07668 0
M  V30 8424 H 783.253 -3.65594 -0.271428 0
M  V30 8425 H 782.901 -4.26141 -2.67232 0
M  V30 8426 H 782.601 -5.65344 -1.60187 0
M  V30 8427 H 784.125 -5.55749 -2.52935 0
M  V30 8428 H 785.539 -5.72691 -0.264239 0
M  V30 8429 H 783.936 -5.98138 0.484908 0
M  V30 8430 H 785.006 -4.71809 1.11912 0
M  V30 8431 N 786.349 -0.21828 -1.56081 0
M  V30 8432 C 787.279 0.687922 -2.23136 0
M  V30 8433 C 788.26 1.20357 -1.202 0
M  V30 8434 O 789.445 1.24817 -1.48776 0
M  V30 8435 C 786.575 1.89762 -2.90874 0
M  V30 8436 C 785.529 1.51595 -4.00254 0
M  V30 8437 C 784.855 2.80415 -4.55271 0
M  V30 8438 C 786.155 0.708404 -5.17474 0
M  V30 8439 H 787.849 0.128854 -2.99123 0
M  V30 8440 H 785.395 0.0605354 -1.43873 0
M  V30 8441 H 787.348 2.53699 -3.36474 0
M  V30 8442 H 786.072 2.4816 -2.1233 0
M  V30 8443 H 784.731 0.900058 -3.55379 0
M  V30 8444 H 784.379 3.36951 -3.73461 0
M  V30 8445 H 784.079 2.55613 -5.2909 0
M  V30 8446 H 785.603 3.453 -5.03587 0
M  V30 8447 H 787.017 1.2514 -5.59476 0
M  V30 8448 H 785.414 0.557593 -5.97504 0
M  V30 8449 H 786.484 -0.285679 -4.84058 0
M  V30 8450 N 787.827 1.57504 0.0551401 0
M  V30 8451 C 789.052 1.92682 0.767352 0
M  V30 8452 C 789.477 0.81614 1.69472 0
M  V30 8453 O 788.835 -0.229989 1.79835 0
M  V30 8454 C 788.883 3.26866 1.52286 0
M  V30 8455 O 787.987 3.17274 2.63459 0
M  V30 8456 H 787.328 0.630502 0.208238 0
M  V30 8457 H 789.858 2.04592 0.0184026 0
M  V30 8458 H 789.868 3.61138 1.8985 0
M  V30 8459 H 788.543 4.07276 0.842541 0
M  V30 8460 H 787.12 2.94589 2.2863 0
M  V30 8461 N 789.305 -0.326896 1.54172 0
M  V30 8462 C 790.53 -1.08924 1.76494 0
M  V30 8463 C 790.955 -1.81039 0.510523 0
M  V30 8464 O 790.313 -1.73141 -0.537756 0
M  V30 8465 C 790.361 -2.06558 2.95578 0
M  V30 8466 O 789.465 -3.14394 2.6689 0
M  V30 8467 H 788.806 -0.314216 0.584948 0
M  V30 8468 H 791.336 -0.372207 2.01186 0
M  V30 8469 H 791.346 -2.49487 3.22832 0
M  V30 8470 H 790.021 -1.53469 3.86549 0
M  V30 8471 H 788.598 -2.76164 2.50576 0
M  V30 8472 N 790.784 -1.46188 -0.588786 0
M  V30 8473 C 791.734 -1.5271 -1.69303 0
M  V30 8474 C 792.718 -0.388578 -1.56137 0
M  V30 8475 O 793.91 -0.636616 -1.65155 0
M  V30 8476 C 791.039 -1.51457 -3.08084 0
M  V30 8477 C 790.125 -2.70581 -3.26568 0
M  V30 8478 N 790.516 -3.9555 -3.15236 0
M  V30 8479 C 788.814 -2.66676 -3.57491 0
M  V30 8480 C 789.515 -4.75157 -3.35561 0
M  V30 8481 N 788.491 -4.06927 -3.60432 0
M  V30 8482 H 792.293 -2.47136 -1.59063 0
M  V30 8483 H 789.807 -1.41743 -0.792632 0
M  V30 8484 H 791.804 -1.54216 -3.87328 0
M  V30 8485 H 790.464 -0.581036 -3.19459 0
M  V30 8486 H 791.475 -4.2689 -2.93232 0
M  V30 8487 H 788.152 -1.82317 -3.75588 0
M  V30 8488 H 789.542 -5.84126 -3.32034 0
M  V30 8489 N 792.262 0.832906 -1.33792 0
M  V30 8490 C 793.487 1.62568 -1.28788 0
M  V30 8491 C 793.912 1.87599 0.137246 0
M  V30 8492 O 793.27 1.44436 1.0958 0
M  V30 8493 C 793.318 2.9495 -2.07453 0
M  V30 8494 O 792.422 3.86546 -1.43722 0
M  V30 8495 H 791.763 0.494809 -0.442787 0
M  V30 8496 H 794.293 1.03578 -1.76445 0
M  V30 8497 H 794.303 3.44599 -2.1844 0
M  V30 8498 H 792.978 2.76055 -3.11073 0
M  V30 8499 H 791.555 3.45044 -1.41417 0
M  V30 8500 N 793.74 1.17359 1.05189 0
M  V30 8501 C 795.156 0.920861 1.30355 0
M  V30 8502 C 795.356 -0.419993 1.97074 0
M  V30 8503 O 794.412 -1.15696 2.24434 0
M  V30 8504 C 795.725 2.07818 2.1733 0
M  V30 8505 C 797.273 2.1152 2.30712 0
M  V30 8506 C 797.748 3.26637 3.21048 0
M  V30 8507 N 799.239 3.26426 3.28634 0
M  V30 8508 C 799.974 4.12141 3.98657 0
M  V30 8509 N 799.47 5.07966 4.71107 0
M  V30 8510 N 801.263 4.00091 3.94821 0
M  V30 8511 H 793.414 2.03666 0.602821 0
M  V30 8512 H 795.677 0.889294 0.328421 0
M  V30 8513 H 795.383 3.04727 1.75597 0
M  V30 8514 H 795.257 2.02922 3.17966 0
M  V30 8515 H 797.644 1.15196 2.71687 0
M  V30 8516 H 797.725 2.20477 1.29706 0
M  V30 8517 H 797.369 4.23227 2.80788 0
M  V30 8518 H 797.299 3.14917 4.2206 0
M  V30 8519 H 799.79 2.57045 2.77013 0
M  V30 8520 H 800.103 5.69766 5.22099 0
M  V30 8521 H 798.448 5.11936 4.7005 0
M  V30 8522 H 801.639 3.24523 3.37346 0
M  V30 8523 H 801.812 4.6711 4.49123 0
M  V30 8524 N 795.218 -1.23913 0.973828 0
M  V30 8525 C 796.148 -2.27453 0.527969 0
M  V30 8526 C 797.129 -1.6443 -0.435513 0
M  V30 8527 O 798.314 -1.9137 -0.330306 0
M  V30 8528 C 795.444 -3.4685 -0.176757 0
M  V30 8529 C 794.398 -4.22181 0.703352 0
M  V30 8530 C 793.724 -5.34534 -0.133215 0
M  V30 8531 C 795.024 -4.82865 1.99096 0
M  V30 8532 H 796.718 -2.65 1.3934 0
M  V30 8533 H 794.264 -1.27388 0.671446 0
M  V30 8534 H 796.217 -4.18424 -0.499934 0
M  V30 8535 H 794.941 -3.08346 -1.07659 0
M  V30 8536 H 793.6 -3.52416 1.00989 0
M  V30 8537 H 793.248 -4.92271 -1.03338 0
M  V30 8538 H 792.948 -5.85855 0.452494 0
M  V30 8539 H 794.472 -6.08933 -0.450924 0
M  V30 8540 H 795.886 -5.46481 1.73297 0
M  V30 8541 H 794.283 -5.44444 2.52389 0
M  V30 8542 H 795.353 -4.03977 2.68199 0
M  V30 8543 N 796.696 -0.74468 -1.38897 0
M  V30 8544 C 797.646 -0.0869375 -2.27834 0
M  V30 8545 C 798.63 0.702553 -1.44751 0
M  V30 8546 O 799.822 0.569972 -1.67572 0
M  V30 8547 C 796.951 0.812232 -3.33553 0
M  V30 8548 C 796.037 0.0163713 -4.24097 0
M  V30 8549 N 796.428 -1.01547 -4.95502 0
M  V30 8550 C 794.726 0.244554 -4.45329 0
M  V30 8551 C 795.427 -1.49622 -5.62128 0
M  V30 8552 N 794.403 -0.813097 -5.37485 0
M  V30 8553 H 798.205 -0.877345 -2.80499 0
M  V30 8554 H 795.719 -0.579898 -1.51694 0
M  V30 8555 H 797.716 1.299 -3.96146 0
M  V30 8556 H 796.376 1.60169 -2.82446 0
M  V30 8557 H 797.387 -1.39707 -4.98701 0
M  V30 8558 H 794.064 1.00806 -4.05147 0
M  V30 8559 H 795.454 -2.35523 -6.29268 0
M  V30 8560 N 798.174 1.49689 -0.493057 0
M  V30 8561 C 799.422 2.02027 0.0541642 0
M  V30 8562 C 799.743 1.37554 1.38217 0
M  V30 8563 O 799.013 0.528174 1.88646 0
M  V30 8564 H 797.593 0.746646 0.0230069 0
M  V30 8565 H 800.255 1.83795 -0.648489 0
M  V30 8566 H 799.351 3.11523 0.189652 0
M  V30 8567 N 799.652 0.226554 1.55963 0
M  V30 8568 C 800.877 -0.411527 2.03276 0
M  V30 8569 C 801.302 -1.52206 1.10521 0
M  V30 8570 O 800.66 -1.81054 0.0943217 0
M  V30 8571 C 800.708 -0.915694 3.4878 0
M  V30 8572 O 799.812 -2.02672 3.59163 0
M  V30 8573 H 799.153 -0.0924907 0.657527 0
M  V30 8574 H 801.683 0.346656 2.01642 0
M  V30 8575 H 801.693 -1.22421 3.892 0
M  V30 8576 H 800.368 -0.102915 4.15773 0
M  V30 8577 H 798.945 -1.72445 3.30632 0
M  V30 8578 N 801.13 -1.57531 -0.0467866 0
M  V30 8579 C 802.077 -2.05387 -1.05285 0
M  V30 8580 C 803.047 -0.939385 -1.36985 0
M  V30 8581 O 804.232 -1.20877 -1.47626 0
M  V30 8582 C 801.372 -2.52343 -2.35408 0
M  V30 8583 C 800.485 -3.77512 -2.10022 0
M  V30 8584 C 799.62 -4.1315 -3.33887 0
M  V30 8585 C 798.659 -5.31286 -3.03976 0
M  V30 8586 N 797.796 -5.62441 -4.20243 0
M  V30 8587 H 802.636 -2.91095 -0.637788 0
M  V30 8588 H 800.173 -1.43939 -0.303322 0
M  V30 8589 H 802.131 -2.77628 -3.11413 0
M  V30 8590 H 800.761 -1.69577 -2.7467 0
M  V30 8591 H 799.813 -3.59417 -1.24594 0
M  V30 8592 H 801.125 -4.63644 -1.83945 0
M  V30 8593 H 800.279 -4.39469 -4.18273 0
M  V30 8594 H 799.018 -3.25634 -3.63062 0
M  V30 8595 H 798.023 -5.04738 -2.17991 0
M  V30 8596 H 799.248 -6.20441 -2.76098 0
M  V30 8597 H 797.194 -4.77885 -4.49402 0
M  V30 8598 H 797.111 -6.43046 -3.97528 0
M  V30 8599 H 798.379 -5.93327 -5.05553 0
M  V30 8600 N 802.608 0.318715 -1.54344 0
M  V30 8601 C 803.833 1.07987 -1.77069 0
M  V30 8602 C 804.258 1.80766 -0.520117 0
M  V30 8603 O 803.616 1.73424 0.528566 0
M  V30 8604 C 803.664 2.04987 -2.96669 0
M  V30 8605 O 802.768 3.12974 -2.68554 0
M  V30 8606 H 802.109 0.311109 -0.586606 0
M  V30 8607 H 804.639 0.361533 -2.0138 0
M  V30 8608 H 804.649 2.47771 -3.2415 0
M  V30 8609 H 803.324 1.51417 -3.87357 0
M  V30 8610 H 801.901 2.74831 -2.52037 0
M  V30 8611 N 804.086 1.46499 0.581025 0
M  V30 8612 C 805.316 1.55244 1.36319 0
M  V30 8613 C 805.724 0.193059 1.88212 0
M  V30 8614 O 805.067 -0.820109 1.64377 0
M  V30 8615 C 805.129 2.498 2.58535 0
M  V30 8616 C 804.793 3.96007 2.28096 0
M  V30 8617 C 805.79 4.85171 1.8683 0
M  V30 8618 C 803.475 4.41152 2.40189 0
M  V30 8619 C 805.469 6.17493 1.58053 0
M  V30 8620 C 803.156 5.73508 2.11024 0
M  V30 8621 C 804.154 6.615 1.70021 0
M  V30 8622 O 803.842 7.914 1.41215 0
M  V30 8623 H 803.574 0.527513 0.422736 0
M  V30 8624 H 806.128 1.92623 0.713139 0
M  V30 8625 H 804.358 2.07443 3.2635 0
M  V30 8626 H 806.047 2.48934 3.20604 0
M  V30 8627 H 806.813 4.51548 1.77001 0
M  V30 8628 H 802.692 3.72886 2.71066 0
M  V30 8629 H 806.236 6.86131 1.25974 0
M  V30 8630 H 802.133 6.06679 2.20478 0
M  V30 8631 H 802.901 8.03681 1.55046 0
M  V30 8632 N 805.565 -0.825799 1.34232 0
M  V30 8633 C 806.981 -1.11848 1.13851 0
M  V30 8634 C 807.181 -2.01405 -0.0619031 0
M  V30 8635 O 806.237 -2.41465 -0.738287 0
M  V30 8636 C 807.55 -1.76797 2.43235 0
M  V30 8637 C 809.098 -1.89304 2.49265 0
M  V30 8638 C 809.573 -2.57669 3.78643 0
M  V30 8639 N 811.064 -2.65171 3.79788 0
M  V30 8640 C 811.799 -3.1879 4.76614 0
M  V30 8641 N 811.295 -3.72995 5.83821 0
M  V30 8642 N 813.088 -3.17164 4.64073 0
M  V30 8643 H 805.239 -0.230049 2.11151 0
M  V30 8644 H 807.502 -0.164609 0.9336 0
M  V30 8645 H 807.208 -1.18455 3.31152 0
M  V30 8646 H 807.082 -2.76693 2.56361 0
M  V30 8647 H 809.469 -2.46796 1.6179 0
M  V30 8648 H 809.55 -0.883191 2.4007 0
M  V30 8649 H 809.194 -2.00833 4.66507 0
M  V30 8650 H 809.124 -3.59152 3.8512 0
M  V30 8651 H 811.615 -2.26746 3.02315 0
M  V30 8652 H 811.928 -4.12151 6.53721 0
M  V30 8653 H 810.273 -3.71246 5.87538 0
M  V30 8654 H 813.464 -2.74082 3.79469 0
M  V30 8655 H 813.637 -3.58647 5.397 0
M  V30 8656 N 807.043 -1.17915 -1.04565 0
M  V30 8657 C 808.289 -0.972863 -1.77942 0
M  V30 8658 C 808.622 0.496753 -1.87739 0
M  V30 8659 O 807.897 1.3688 -1.38181 0
M  V30 8660 C 808.18 -1.62227 -3.21488 0
M  V30 8661 C 808.033 -3.16441 -3.19664 0
M  V30 8662 C 809.352 -1.33137 -4.19479 0
M  V30 8663 H 806.471 -0.354843 -0.645953 0
M  V30 8664 H 809.113 -1.45508 -1.22178 0
M  V30 8665 H 807.263 -1.21224 -3.69103 0
M  V30 8666 H 808.935 -3.66544 -2.80077 0
M  V30 8667 H 807.178 -3.48863 -2.57832 0
M  V30 8668 H 807.849 -3.57012 -4.21006 0
M  V30 8669 H 810.325 -1.68654 -3.80388 0
M  V30 8670 H 809.201 -1.81151 -5.18146 0
M  V30 8671 H 809.462 -0.253319 -4.41374 0
M  V30 8672 N 808.521 1.23394 -0.980386 0
M  V30 8673 C 809.932 1.73631 -0.686239 0
M  V30 8674 C 810.283 1.79259 0.797541 0
M  V30 8675 O 809.408 1.43046 1.62379 0
M  V30 8676 C 810.003 3.15332 -1.239 0
M  V30 8677 C 808.562 3.63024 -0.994494 0
M  V30 8678 C 807.709 2.41279 -1.36673 0
M  V30 8679 H 810.66 1.08918 -1.15423 0
M  V30 8680 H 810.681 3.75556 -0.611414 0
M  V30 8681 H 810.193 3.11204 -2.31892 0
M  V30 8682 H 808.294 3.72535 0.0693492 0
M  V30 8683 H 808.407 4.49825 -1.64906 0
M  V30 8684 H 806.771 2.42295 -0.785195 0
M  V30 8685 H 807.554 2.39822 -2.45642 0
M  V30 8686 N 809.999 0.752036 1.385 0
M  V30 8687 C 811.245 0.316909 2.00916 0
M  V30 8688 C 811.6 -1.08884 1.58625 0
M  V30 8689 O 810.893 -1.73494 0.813047 0
M  V30 8690 C 811.087 0.376155 3.55415 0
M  V30 8691 C 810.916 1.78612 4.12708 0
M  V30 8692 C 809.686 2.4023 4.44542 0
M  V30 8693 C 811.884 2.74253 4.35075 0
M  V30 8694 N 809.866 3.73204 4.87434 0
M  V30 8695 C 811.237 3.9199 4.80358 0
M  V30 8696 C 813.292 2.71795 4.17171 0
M  V30 8697 C 811.995 5.07627 5.09615 0
M  V30 8698 C 814.021 3.86589 4.47552 0
M  V30 8699 C 813.383 5.03064 4.93058 0
M  V30 8700 H 809.482 0.16259 0.764911 0
M  V30 8701 H 812.066 0.981657 1.68142 0
M  V30 8702 H 810.237 -0.258317 3.8754 0
M  V30 8703 H 811.969 -0.0791421 4.04623 0
M  V30 8704 H 808.724 1.92009 4.32931 0
M  V30 8705 H 809.148 4.41519 5.13215 0
M  V30 8706 H 813.79 1.82929 3.81178 0
M  V30 8707 H 811.508 5.97109 5.44506 0
M  V30 8708 H 815.094 3.86005 4.35306 0
M  V30 8709 H 813.974 5.90417 5.16118 0
M  V30 8710 N 811.477 -1.49425 0.500989 0
M  V30 8711 C 812.44 -2.27646 -0.266416 0
M  V30 8712 C 813.44 -1.3366 -0.893961 0
M  V30 8713 O 814.63 -1.5682 -0.758495 0
M  V30 8714 C 811.762 -3.11618 -1.38227 0
M  V30 8715 H 812.955 -2.96945 0.419973 0
M  V30 8716 H 810.508 -1.5419 0.255954 0
M  V30 8717 H 811.243 -2.46885 -2.10281 0
M  V30 8718 H 811.028 -3.80721 -0.937746 0
M  V30 8719 H 812.518 -3.70698 -1.92283 0
M  V30 8720 N 812.955 -0.234822 -1.55841 0
M  V30 8721 C 814.185 0.397168 -2.02746 0
M  V30 8722 C 814.593 1.52951 -1.11367 0
M  V30 8723 O 813.936 1.8332 -0.118133 0
M  V30 8724 C 813.998 0.977748 -3.45948 0
M  V30 8725 C 813.662 -0.0208193 -4.56995 0
M  V30 8726 C 814.659 -0.826015 -5.13296 0
M  V30 8727 C 812.344 -0.143416 -5.02095 0
M  V30 8728 C 814.338 -1.74038 -6.1318 0
M  V30 8729 C 812.025 -1.0613 -6.01814 0
M  V30 8730 C 813.023 -1.85832 -6.57233 0
M  V30 8731 O 812.711 -2.76075 -7.55008 0
M  V30 8732 H 812.443 0.0999802 -0.668566 0
M  V30 8733 H 814.997 -0.352673 -2.0235 0
M  V30 8734 H 813.227 1.77693 -3.43456 0
M  V30 8735 H 814.916 1.51854 -3.76424 0
M  V30 8736 H 815.682 -0.741822 -4.79293 0
M  V30 8737 H 811.561 0.466857 -4.5863 0
M  V30 8738 H 815.105 -2.36291 -6.56363 0
M  V30 8739 H 811.002 -1.14646 -6.35237 0
M  V30 8740 H 811.77 -2.703 -7.7258 0
M  V30 8741 N 814.433 1.57553 0.0384317 0
M  V30 8742 C 815.71 1.79977 0.766002 0
M  V30 8743 C 816.09 0.830625 1.94072 0
M  V30 8744 O 815.438 -0.129243 2.28134 0
M  V30 8745 C 815.648 3.27434 1.20781 0
M  V30 8746 C 816.996 3.92167 1.62758 0
M  V30 8747 O 818.02 3.31527 1.30263 0
M  V30 8748 O 816.879 4.98917 2.23035 0
M  V30 8749 H 813.973 0.739787 0.369654 0
M  V30 8750 H 816.519 1.69693 0.0159312 0
M  V30 8751 H 815.291 3.89558 0.368792 0
M  V30 8752 H 814.914 3.42571 2.01819 0
M  V30 8753 N 815.911 -0.310526 1.54511 0
M  V30 8754 C 817.188 -1.06593 1.64004 0
M  V30 8755 C 817.568 -2.05519 0.482216 0
M  V30 8756 O 816.916 -2.22455 -0.52212 0
M  V30 8757 C 817.126 -1.75627 3.01589 0
M  V30 8758 C 818.474 -2.28173 3.58081 0
M  V30 8759 O 819.498 -1.85674 3.03979 0
M  V30 8760 O 818.357 -3.06015 4.52788 0
M  V30 8761 H 815.451 -0.492109 0.664649 0
M  V30 8762 H 817.997 -0.309374 1.66856 0
M  V30 8763 H 816.769 -1.03743 3.77297 0
M  V30 8764 H 816.392 -2.58061 3.02473 0
M  V30 8765 N 817.389 -1.46805 -0.573248 0
M  V30 8766 C 818.299 -1.60687 -1.70929 0
M  V30 8767 C 819.315 -0.490084 -1.66956 0
M  V30 8768 O 820.491 -0.755482 -1.86693 0
M  V30 8769 C 817.556 -1.60259 -3.07438 0
M  V30 8770 C 816.617 -2.83242 -3.22603 0
M  V30 8771 C 815.85 -2.82825 -4.52599 0
M  V30 8772 O 816.073 -1.92113 -5.37074 0
M  V30 8773 O 815.007 -3.74489 -4.71213 0
M  V30 8774 H 818.833 -2.56782 -1.62163 0
M  V30 8775 H 816.418 -1.29706 -0.741399 0
M  V30 8776 H 818.3 -1.6275 -3.88704 0
M  V30 8777 H 816.975 -0.673268 -3.16621 0
M  V30 8778 H 815.882 -2.86302 -2.40794 0
M  V30 8779 H 817.215 -3.75415 -3.18315 0
M  V30 8780 N 818.867 0.818669 -1.34668 0
M  V30 8781 C 820.092 1.61193 -1.30505 0
M  V30 8782 C 820.517 1.87734 0.117341 0
M  V30 8783 O 819.875 1.45591 1.08042 0
M  V30 8784 C 819.923 2.92733 -2.1057 0
M  V30 8785 O 819.027 3.85 -1.47813 0
M  V30 8786 H 818.368 0.490085 -0.44801 0
M  V30 8787 H 820.898 1.01701 -1.77534 0
M  V30 8788 H 820.908 3.42262 -2.22082 0
M  V30 8789 H 819.583 2.7274 -3.13984 0
M  V30 8790 H 818.16 3.43525 -1.45069 0
M  V30 8791 N 820.346 1.18468 1.03938 0
M  V30 8792 C 821.586 0.991823 1.78724 0
M  V30 8793 C 821.95 -0.470115 1.86156 0
M  V30 8794 O 823.151 -0.782451 2.5716 0
M  V30 8795 C 821.422 1.63018 3.18056 0
M  V30 8796 S 822.981 1.58527 4.09163 0
M  V30 8797 H 819.799 0.356137 0.615376 0
M  V30 8798 H 822.401 1.50634 1.24618 0
M  V30 8799 H 821.105 2.68642 3.10258 0
M  V30 8800 H 820.636 1.11601 3.77238 0
M  V30 8801 H 822.651 0.602059 4.92534 0
M  V30 8802 N 821.824 -1.22873 0.986916 0
M  V30 8803 C 823.101 -1.86939 0.575589 0
M  V30 8804 C 823.481 -1.88656 -0.947205 0
M  V30 8805 O 822.829 -1.3728 -1.82665 0
M  V30 8806 C 823.039 -3.28117 1.18914 0
M  V30 8807 C 824.387 -4.04659 1.28593 0
M  V30 8808 O 825.411 -3.3736 1.14308 0
M  V30 8809 O 824.27 -5.25112 1.51391 0
M  V30 8810 H 821.364 -0.803748 0.194724 0
M  V30 8811 H 823.91 -1.30698 1.08241 0
M  V30 8812 H 822.682 -3.21468 2.231 0
M  V30 8813 H 822.305 -3.91956 0.667535 0
M  V30 8814 N 823.302 -0.75937 -1.38099 0
M  V30 8815 C 824.548 -0.318584 -2.00282 0
M  V30 8816 C 824.881 1.09854 -1.60143 0
M  V30 8817 O 824.156 1.75344 -0.841702 0
M  V30 8818 C 824.439 -0.448047 -3.57302 0
M  V30 8819 C 824.292 -1.9067 -4.07388 0
M  V30 8820 C 825.611 0.155119 -4.39827 0
M  V30 8821 H 822.73 -0.117233 -0.727616 0
M  V30 8822 H 825.372 -0.960097 -1.63958 0
M  V30 8823 H 823.522 0.0981003 -3.88376 0
M  V30 8824 H 825.194 -2.5116 -3.86932 0
M  V30 8825 H 823.437 -2.41979 -3.6004 0
M  V30 8826 H 824.108 -1.94841 -5.1647 0
M  V30 8827 H 826.584 -0.31073 -4.14938 0
M  V30 8828 H 825.46 0.0343264 -5.48889 0
M  V30 8829 H 825.721 1.24407 -4.24235 0
M  V30 8830 N 824.78 1.49157 -0.508906 0
M  V30 8831 C 826.026 2.02773 0.0328469 0
M  V30 8832 C 826.359 1.38714 1.35912 0
M  V30 8833 O 825.634 0.525536 1.87266 0
M  V30 8834 C 825.917 3.59664 0.177088 0
M  V30 8835 C 825.77 4.34239 -1.17287 0
M  V30 8836 C 827.089 4.30505 0.913977 0
M  V30 8837 H 824.208 0.736926 0.0104631 0
M  V30 8838 H 826.85 1.781 -0.661851 0
M  V30 8839 H 825 3.80818 0.768774 0
M  V30 8840 H 826.672 4.24561 -1.80404 0
M  V30 8841 H 824.915 3.96486 -1.76016 0
M  V30 8842 H 825.586 5.42397 -1.02516 0
M  V30 8843 H 828.062 4.14054 0.412084 0
M  V30 8844 H 826.938 5.40012 0.983759 0
M  V30 8845 H 827.199 3.96302 1.95951 0
M  V30 8846 N 826.258 0.243083 1.55714 0
M  V30 8847 C 827.674 -0.111853 1.59208 0
M  V30 8848 C 827.874 -1.5723 1.2602 0
M  V30 8849 O 826.93 -2.31608 1.00569 0
M  V30 8850 C 828.243 0.233885 2.99789 0
M  V30 8851 C 829.791 0.177873 3.12494 0
M  V30 8852 C 830.266 0.49759 4.55289 0
M  V30 8853 N 831.757 0.447949 4.61029 0
M  V30 8854 C 832.492 0.668545 5.69489 0
M  V30 8855 N 831.988 0.952064 6.86227 0
M  V30 8856 N 833.781 0.599512 5.58894 0
M  V30 8857 H 825.932 1.19554 1.75558 0
M  V30 8858 H 828.195 0.480765 0.817049 0
M  V30 8859 H 827.901 1.24835 3.28799 0
M  V30 8860 H 827.775 -0.440846 3.74615 0
M  V30 8861 H 830.162 -0.827263 2.83267 0
M  V30 8862 H 830.243 0.886399 2.39951 0
M  V30 8863 H 829.887 1.50026 4.85237 0
M  V30 8864 H 829.817 -0.232371 5.26087 0
M  V30 8865 H 832.308 0.237388 3.77154 0
M  V30 8866 H 832.621 1.10791 7.64817 0
M  V30 8867 H 830.966 0.989496 6.8792 0
M  V30 8868 H 834.157 0.378088 4.66571 0
M  V30 8869 H 834.33 0.774828 6.43351 0
M  V30 8870 N 827.736 -1.57571 -0.0300757 0
M  V30 8871 C 828.983 -1.89226 -0.721091 0
M  V30 8872 C 829.311 -0.840244 -1.75414 0
M  V30 8873 O 828.566 0.158906 -1.95054 0
M  V30 8874 C 828.865 -3.27624 -1.42818 0
M  V30 8875 C 828.531 -4.4776 -0.531208 0
M  V30 8876 C 827.193 -4.8036 -0.28415 0
M  V30 8877 C 829.545 -5.21125 0.0881582 0
M  V30 8878 C 826.873 -5.83715 0.591065 0
M  V30 8879 C 829.225 -6.2541 0.95107 0
M  V30 8880 C 827.889 -6.56486 1.2076 0
M  V30 8881 H 827.159 -0.692428 -0.263866 0
M  V30 8882 H 829.806 -1.91491 0.0189874 0
M  V30 8883 H 828.111 -3.21343 -2.24155 0
M  V30 8884 H 829.808 -3.49365 -1.96838 0
M  V30 8885 H 826.398 -4.2227 -0.73392 0
M  V30 8886 H 830.582 -4.96219 -0.0897496 0
M  V30 8887 H 825.838 -6.06168 0.798132 0
M  V30 8888 H 830.012 -6.81402 1.43751 0
M  V30 8889 H 827.639 -7.36395 1.88751 0
M  V30 8890 N 829.214 0.302327 -1.54673 0
M  V30 8891 C 830.461 1.0377 -1.73891 0
M  V30 8892 C 830.789 1.87309 -0.523979 0
M  V30 8893 O 830.044 1.8936 0.494084 0
M  V30 8894 C 830.343 1.97365 -2.97963 0
M  V30 8895 C 830.009 1.29812 -4.3181 0
M  V30 8896 C 828.671 1.11121 -4.68194 0
M  V30 8897 C 831.023 0.815073 -5.14787 0
M  V30 8898 C 828.351 0.428077 -5.85136 0
M  V30 8899 C 830.703 0.145665 -6.32432 0
M  V30 8900 C 829.367 -0.0532098 -6.67479 0
M  V30 8901 H 828.637 0.379721 -0.636312 0
M  V30 8902 H 831.284 0.312708 -1.8893 0
M  V30 8903 H 829.589 2.76387 -2.777 0
M  V30 8904 H 831.286 2.54331 -3.10027 0
M  V30 8905 H 827.876 1.45366 -4.03196 0
M  V30 8906 H 832.06 0.947191 -4.87178 0
M  V30 8907 H 827.316 0.262995 -6.10834 0
M  V30 8908 H 831.49 -0.236533 -6.95998 0
M  V30 8909 H 829.117 -0.58456 -7.57949 0
M  V30 8910 N 830.692 1.47107 0.565454 0
M  V30 8911 C 831.92 1.56909 1.3486 0
M  V30 8912 C 832.335 0.216312 1.87557 0
M  V30 8913 O 831.692 -0.789168 1.64555 0
M  V30 8914 C 831.743 2.58776 2.52423 0
M  V30 8915 O 831.464 3.888 2.01906 0
M  V30 8916 C 832.965 2.78683 3.44747 0
M  V30 8917 H 830.185 0.530096 0.411387 0
M  V30 8918 H 832.729 1.92658 0.685782 0
M  V30 8919 H 830.884 2.25983 3.1466 0
M  V30 8920 H 831.298 4.44393 2.78595 0
M  V30 8921 H 832.772 3.53842 4.23674 0
M  V30 8922 H 833.249 1.86208 3.97773 0
M  V30 8923 H 833.855 3.12641 2.88333 0
M  V30 8924 N 832.17 -0.811516 1.35101 0
M  V30 8925 C 833.102 -1.93102 1.23468 0
M  V30 8926 C 834.115 -1.62021 0.159095 0
M  V30 8927 O 835.304 -1.73682 0.411945 0
M  V30 8928 C 832.404 -3.27345 0.877404 0
M  V30 8929 C 831.577 -3.86368 2.05033 0
M  V30 8930 C 830.636 -4.99009 1.66963 0
M  V30 8931 O 829.662 -5.16698 2.38772 0
M  V30 8932 N 830.864 -5.7749 0.590394 0
M  V30 8933 H 833.629 -2.0361 2.19916 0
M  V30 8934 H 831.19 -0.988687 1.28205 0
M  V30 8935 H 833.182 -4.00163 0.604298 0
M  V30 8936 H 831.752 -3.126 0.00275267 0
M  V30 8937 H 830.972 -3.05804 2.48752 0
M  V30 8938 H 832.26 -4.22533 2.83449 0
M  V30 8939 H 831.658 -5.657 -0.00633259 0
M  V30 8940 H 830.215 -6.50708 0.377055 0
M  V30 8941 N 833.648 -1.19017 -1.03309 0
M  V30 8942 C 834.578 -0.94772 -2.13402 0
M  V30 8943 C 835.559 0.117383 -1.69694 0
M  V30 8944 O 836.744 -0.0367733 -1.94165 0
M  V30 8945 C 833.874 -0.480977 -3.43953 0
M  V30 8946 C 832.828 -1.48743 -4.01322 0
M  V30 8947 C 832.154 -0.877924 -5.27443 0
M  V30 8948 C 833.454 -2.86642 -4.36616 0
M  V30 8949 H 835.148 -1.86846 -2.33942 0
M  V30 8950 H 832.694 -0.899781 -1.12427 0
M  V30 8951 H 834.647 -0.298677 -4.2034 0
M  V30 8952 H 833.371 0.475348 -3.23122 0
M  V30 8953 H 832.03 -1.65681 -3.27025 0
M  V30 8954 H 831.678 0.0858232 -5.02927 0
M  V30 8955 H 831.378 -1.54996 -5.66789 0
M  V30 8956 H 832.902 -0.706326 -6.06501 0
M  V30 8957 H 834.316 -2.73312 -5.03958 0
M  V30 8958 H 832.713 -3.50599 -4.87032 0
M  V30 8959 H 833.783 -3.39617 -3.46105 0
M  V30 8960 N 835.127 1.22348 -0.993418 0
M  V30 8961 C 836.074 2.24294 -0.544118 0
M  V30 8962 C 837.044 1.60602 0.42381 0
M  V30 8963 O 838.229 1.87952 0.328453 0
M  V30 8964 C 835.369 3.44837 0.134578 0
M  V30 8965 C 834.482 4.23043 -0.875151 0
M  V30 8966 C 833.617 5.30928 -0.169919 0
M  V30 8967 C 832.656 6.00853 -1.16798 0
M  V30 8968 N 831.793 7.00381 -0.491021 0
M  V30 8969 H 836.633 2.6209 -1.4182 0
M  V30 8970 H 834.17 1.2881 -0.710384 0
M  V30 8971 H 836.128 4.13625 0.544998 0
M  V30 8972 H 834.758 3.07804 0.972446 0
M  V30 8973 H 833.81 3.53546 -1.40389 0
M  V30 8974 H 835.122 4.71237 -1.63516 0
M  V30 8975 H 834.276 6.05972 0.297205 0
M  V30 8976 H 833.015 4.8371 0.622586 0
M  V30 8977 H 832.02 5.24591 -1.64573 0
M  V30 8978 H 833.245 6.50159 -1.96137 0
M  V30 8979 H 831.191 6.55393 0.282037 0
M  V30 8980 H 831.108 7.46584 -1.18947 0
M  V30 8981 H 832.376 7.79486 -0.0467169 0
M  V30 8982 N 836.605 0.766683 1.37694 0
M  V30 8983 C 837.845 0.333815 2.01656 0
M  V30 8984 C 838.209 -1.06813 1.59546 0
M  V30 8985 O 839.41 -1.60084 2.15932 0
M  V30 8986 C 837.681 0.467032 3.54335 0
M  V30 8987 S 839.24 0.118679 4.38639 0
M  V30 8988 H 836.058 0.128723 0.699251 0
M  V30 8989 H 838.66 1.00018 1.67978 0
M  V30 8990 H 837.364 1.48808 3.82471 0
M  V30 8991 H 836.895 -0.216066 3.92806 0
M  V30 8992 H 838.91 -1.08746 4.84137 0
M  V30 8993 N 838.083 -1.48885 0.516809 0
M  V30 8994 C 839.499 -1.58651 0.173788 0
M  V30 8995 C 839.699 -1.52033 -1.32243 0
M  V30 8996 O 838.755 -1.40251 -2.09967 0
M  V30 8997 C 840.068 -2.90816 0.764628 0
M  V30 8998 C 841.616 -3.04316 0.732164 0
M  V30 8999 C 842.091 -4.39123 1.30135 0
M  V30 9000 N 843.582 -4.45656 1.26273 0
M  V30 9001 C 844.317 -5.48446 1.67317 0
M  V30 9002 N 843.813 -6.58258 2.16028 0
M  V30 9003 N 845.606 -5.39251 1.58635 0
M  V30 9004 H 837.757 -1.5143 1.48939 0
M  V30 9005 H 840.02 -0.718243 0.618733 0
M  V30 9006 H 839.726 -3.01275 1.81456 0
M  V30 9007 H 839.6 -3.76473 0.234113 0
M  V30 9008 H 841.987 -2.93478 -0.308975 0
M  V30 9009 H 842.068 -2.20303 1.3 0
M  V30 9010 H 841.712 -4.50714 2.34135 0
M  V30 9011 H 841.642 -5.21801 0.709305 0
M  V30 9012 H 844.133 -3.66879 0.906006 0
M  V30 9013 H 844.446 -7.32811 2.45374 0
M  V30 9014 H 842.791 -6.59257 2.20013 0
M  V30 9015 H 845.982 -4.52354 1.20387 0
M  V30 9016 H 846.155 -6.19229 1.90944 0
M  V30 9017 N 839.561 -0.251338 -1.55583 0
M  V30 9018 C 840.494 0.687092 -2.1761 0
M  V30 9019 C 841.472 1.16963 -1.12953 0
M  V30 9020 O 842.656 1.24696 -1.41362 0
M  V30 9021 C 839.783 1.93429 -2.78034 0
M  V30 9022 C 838.829 1.58925 -3.95784 0
M  V30 9023 S 839.662 0.688019 -5.31062 0
M  V30 9024 C 840.818 1.94413 -5.94941 0
M  V30 9025 H 841.051 0.159982 -2.96869 0
M  V30 9026 H 838.584 -0.0357593 -1.54359 0
M  V30 9027 H 840.542 2.65028 -3.13481 0
M  V30 9028 H 839.203 2.43253 -1.98713 0
M  V30 9029 H 838.396 2.51668 -4.36668 0
M  V30 9030 H 837.998 0.953664 -3.61637 0
M  V30 9031 H 840.29 2.89087 -6.12727 0
M  V30 9032 H 841.233 1.5787 -6.90277 0
M  V30 9033 H 841.641 2.09824 -5.24056 0
M  V30 9034 N 841.039 1.57585 0.0217189 0
M  V30 9035 C 841.972 2.02435 1.05334 0
M  V30 9036 C 842.95 0.91006 1.34747 0
M  V30 9037 O 844.134 1.17648 1.47279 0
M  V30 9038 C 841.261 2.40362 2.38629 0
M  V30 9039 C 840.307 3.62307 2.25025 0
M  V30 9040 S 841.14 5.11141 1.59673 0
M  V30 9041 C 842.296 5.52316 2.94444 0
M  V30 9042 H 842.529 2.89621 0.671354 0
M  V30 9043 H 840.062 1.52648 0.231925 0
M  V30 9044 H 842.02 2.62883 3.15282 0
M  V30 9045 H 840.681 1.53615 2.73973 0
M  V30 9046 H 839.874 3.86523 3.23443 0
M  V30 9047 H 839.476 3.39675 1.56515 0
M  V30 9048 H 841.768 5.53449 3.90768 0
M  V30 9049 H 842.711 6.52539 2.74952 0
M  V30 9050 H 843.119 4.79834 2.97355 0
M  V30 9051 N 842.517 -0.29412 1.54831 0
M  V30 9052 C 843.928 -0.866651 1.65366 0
M  V30 9053 C 844.279 -1.87834 0.56681 0
M  V30 9054 O 843.404 -2.14374 -0.295389 0
M  V30 9055 C 843.999 -1.57869 2.99771 0
M  V30 9056 C 842.558 -2.09954 3.12404 0
M  V30 9057 C 841.705 -0.934492 2.6108 0
M  V30 9058 H 844.656 -0.0709551 1.58541 0
M  V30 9059 H 844.677 -2.44462 2.91579 0
M  V30 9060 H 844.189 -0.84212 3.78853 0
M  V30 9061 H 842.29 -2.86637 2.38055 0
M  V30 9062 H 842.403 -2.32934 4.18663 0
M  V30 9063 H 840.767 -1.32199 2.17705 0
M  V30 9064 H 841.55 -0.211768 3.42646 0
M  V30 9065 N 843.995 -1.47404 -0.557645 0
M  V30 9066 C 845.225 -1.57393 -1.33832 0
M  V30 9067 C 845.633 -0.222978 -1.87881 0
M  V30 9068 O 844.976 0.793854 -1.65661 0
M  V30 9069 C 845.038 -2.53882 -2.54528 0
M  V30 9070 C 844.702 -3.99585 -2.21767 0
M  V30 9071 C 845.699 -4.88082 -1.79087 0
M  V30 9072 C 843.384 -4.44917 -2.3314 0
M  V30 9073 C 845.378 -6.1993 -1.48209 0
M  V30 9074 C 843.065 -5.76793 -2.01874 0
M  V30 9075 C 844.063 -6.64121 -1.59476 0
M  V30 9076 O 843.751 -7.93546 -1.28607 0
M  V30 9077 H 843.483 -0.534172 -0.41429 0
M  V30 9078 H 846.037 -1.93733 -0.682404 0
M  V30 9079 H 844.267 -2.12609 -3.23009 0
M  V30 9080 H 845.956 -2.54003 -3.16603 0
M  V30 9081 H 846.722 -4.54307 -1.69794 0
M  V30 9082 H 842.601 -3.77152 -2.65099 0
M  V30 9083 H 846.145 -6.88049 -1.15043 0
M  V30 9084 H 842.042 -6.1011 -2.10799 0
M  V30 9085 H 842.81 -8.06046 -1.42241 0
M  V30 9086 N 845.473 0.80434 -1.35529 0
M  V30 9087 C 846.403 1.93086 -1.31301 0
M  V30 9088 C 847.384 1.69068 -0.187044 0
M  V30 9089 O 848.569 1.90399 -0.382359 0
M  V30 9090 C 845.699 3.29867 -1.0865 0
M  V30 9091 C 844.653 3.68373 -2.17911 0
M  V30 9092 C 843.979 5.0334 -1.80423 0
M  V30 9093 C 845.279 3.78516 -3.59893 0
M  V30 9094 H 846.973 1.96882 -2.25561 0
M  V30 9095 H 844.519 0.945841 -1.08581 0
M  V30 9096 H 846.472 4.08281 -1.04331 0
M  V30 9097 H 845.196 3.2642 -0.108359 0
M  V30 9098 H 843.855 2.92247 -2.21331 0
M  V30 9099 H 843.503 4.96399 -0.812213 0
M  V30 9100 H 843.203 5.30074 -2.53565 0
M  V30 9101 H 844.727 5.84191 -1.77633 0
M  V30 9102 H 846.141 4.47155 -3.58783 0
M  V30 9103 H 844.538 4.16721 -4.31814 0
M  V30 9104 H 845.608 2.8001 -3.95882 0
M  V30 9105 N 846.951 1.19563 1.02676 0
M  V30 9106 C 848.181 1.0234 1.79472 0
M  V30 9107 C 848.589 -0.430891 1.84228 0
M  V30 9108 O 847.932 -1.31106 1.28674 0
M  V30 9109 C 847.994 1.51901 3.25832 0
M  V30 9110 C 847.658 3.00045 3.44706 0
M  V30 9111 C 848.655 3.9779 3.34752 0
M  V30 9112 C 846.34 3.38784 3.70851 0
M  V30 9113 C 848.334 5.32267 3.50672 0
M  V30 9114 C 846.021 4.73419 3.86416 0
M  V30 9115 C 847.019 5.69969 3.7633 0
M  V30 9116 O 846.707 7.02165 3.91432 0
M  V30 9117 H 846.439 0.360936 0.571578 0
M  V30 9118 H 848.993 1.58863 1.30198 0
M  V30 9119 H 847.223 0.897546 3.7614 0
M  V30 9120 H 848.912 1.30853 3.84229 0
M  V30 9121 H 849.678 3.69207 3.14502 0
M  V30 9122 H 845.557 2.64183 3.77794 0
M  V30 9123 H 849.101 6.07612 3.42715 0
M  V30 9124 H 844.998 5.01697 4.06165 0
M  V30 9125 H 845.766 7.09268 4.08511 0
M  V30 9126 N 848.429 -1.21819 0.999893 0
M  V30 9127 C 849.845 -1.42847 0.711824 0
M  V30 9128 C 850.045 -1.88391 -0.714928 0
M  V30 9129 O 849.101 -2.0422 -1.48494 0
M  V30 9130 C 850.414 -2.46417 1.72334 0
M  V30 9131 C 851.962 -2.60207 1.73958 0
M  V30 9132 C 852.437 -3.67005 2.73992 0
M  V30 9133 N 853.928 -3.7447 2.72628 0
M  V30 9134 C 854.663 -4.56718 3.46693 0
M  V30 9135 N 854.159 -5.42904 4.3038 0
M  V30 9136 N 855.952 -4.51094 3.35366 0
M  V30 9137 H 848.103 -0.905656 1.92124 0
M  V30 9138 H 850.366 -0.459893 0.828977 0
M  V30 9139 H 850.072 -2.19914 2.74465 0
M  V30 9140 H 849.946 -3.45137 1.52186 0
M  V30 9141 H 852.333 -2.8605 0.725217 0
M  V30 9142 H 852.414 -1.61739 1.98177 0
M  V30 9143 H 852.058 -3.41908 3.75582 0
M  V30 9144 H 851.988 -4.65058 2.4704 0
M  V30 9145 H 854.479 -3.12895 2.11909 0
M  V30 9146 H 854.792 -6.02704 4.83702 0
M  V30 9147 H 853.137 -5.42463 4.34464 0
M  V30 9148 H 856.328 -3.82791 2.69423 0
M  V30 9149 H 856.501 -5.1496 3.93344 0
M  V30 9150 N 849.908 -0.773975 -1.37286 0
M  V30 9151 C 850.818 -0.162571 -2.34036 0
M  V30 9152 C 851.834 0.677022 -1.60289 0
M  V30 9153 O 853.01 0.596423 -1.92366 0
M  V30 9154 C 850.075 0.70457 -3.39465 0
M  V30 9155 C 849.136 -0.151738 -4.29032 0
M  V30 9156 C 848.369 0.674111 -5.29426 0
M  V30 9157 O 848.592 1.91107 -5.37433 0
M  V30 9158 O 847.526 0.0821398 -6.01844 0
M  V30 9159 H 851.352 -0.962119 -2.88057 0
M  V30 9160 H 848.937 -0.53517 -1.39486 0
M  V30 9161 H 850.819 1.19954 -4.03967 0
M  V30 9162 H 849.494 1.48227 -2.87768 0
M  V30 9163 H 848.401 -0.693118 -3.67623 0
M  V30 9164 H 849.734 -0.892575 -4.84039 0
M  V30 9165 N 851.386 1.48609 -0.524698 0
M  V30 9166 C 852.349 2.28041 0.230166 0
M  V30 9167 C 853.349 1.35065 0.872584 0
M  V30 9168 O 854.539 1.58007 0.73345 0
M  V30 9169 C 851.671 3.13778 1.33252 0
M  V30 9170 H 852.864 2.96239 -0.467161 0
M  V30 9171 H 850.417 1.53763 -0.280452 0
M  V30 9172 H 851.152 2.502 2.06327 0
M  V30 9173 H 850.937 3.82165 0.877058 0
M  V30 9174 H 852.427 3.7371 1.86362 0
M  V30 9175 N 852.864 0.259585 1.55447 0
M  V30 9176 C 853.827 -0.621359 2.20617 0
M  V30 9177 C 854.827 -1.09317 1.17925 0
M  V30 9178 O 856.017 -0.995842 1.42929 0
M  V30 9179 C 853.149 -1.85546 2.85982 0
M  V30 9180 H 854.342 -0.0525833 2.99854 0
M  V30 9181 H 851.895 0.0101055 1.56297 0
M  V30 9182 H 852.63 -2.46515 2.10715 0
M  V30 9183 H 852.415 -1.52523 3.61219 0
M  V30 9184 H 853.905 -2.48227 3.35817 0
M  V30 9185 N 854.342 -1.57594 -0.0133615 0
M  V30 9186 C 855.758 -1.5527 -0.369255 0
M  V30 9187 C 855.958 -0.987751 -1.7563 0
M  V30 9188 O 855.014 -0.615683 -2.44879 0
M  V30 9189 C 856.327 -2.99602 -0.25672 0
M  V30 9190 C 857.875 -3.11227 -0.332647 0
M  V30 9191 C 858.35 -4.57321 -0.249387 0
M  V30 9192 N 859.841 -4.62177 -0.3077 0
M  V30 9193 C 860.576 -5.72781 -0.26641 0
M  V30 9194 N 860.072 -6.92575 -0.176494 0
M  V30 9195 N 861.865 -5.61204 -0.317295 0
M  V30 9196 H 854.016 -1.92662 0.894154 0
M  V30 9197 H 856.279 -0.884352 0.341505 0
M  V30 9198 H 855.985 -3.44723 0.697072 0
M  V30 9199 H 855.859 -3.6246 -1.04415 0
M  V30 9200 H 858.246 -2.66045 -1.27688 0
M  V30 9201 H 858.327 -2.51171 0.484412 0
M  V30 9202 H 857.971 -5.03174 0.691242 0
M  V30 9203 H 857.901 -5.15306 -1.08476 0
M  V30 9204 H 860.392 -3.75994 -0.379069 0
M  V30 9205 H 860.705 -7.72653 -0.150518 0
M  V30 9206 H 859.05 -6.94854 -0.142314 0
M  V30 9207 H 862.241 -4.66509 -0.385643 0
M  V30 9208 H 862.414 -6.47388 -0.28165 0
M  V30 9209 N 855.82 0.285905 -1.54985 0
M  V30 9210 C 856.783 1.33625 -1.86218 0
M  V30 9211 C 857.783 1.42971 -0.735936 0
M  V30 9212 O 858.973 1.42345 -1.00417 0
M  V30 9213 C 856.105 2.71926 -2.05595 0
M  V30 9214 H 857.298 1.07167 -2.80099 0
M  V30 9215 H 854.851 0.523335 -1.47278 0
M  V30 9216 H 855.586 3.03583 -1.14053 0
M  V30 9217 H 855.371 2.6653 -2.87583 0
M  V30 9218 H 856.861 3.47841 -2.31077 0
M  V30 9219 N 857.298 1.47698 0.54982 0
M  V30 9220 C 858.246 1.61156 1.67724 0
M  V30 9221 C 859.24 0.478606 1.62498 0
M  V30 9222 O 860.446 0.656661 1.67595 0
M  V30 9223 H 856.821 0.507304 0.55511 0
M  V30 9224 H 858.792 2.55884 1.53512 0
M  V30 9225 C 857.541 1.64994 3.06059 0
M  V30 9226 H 856.864 2.51525 3.10765 0
M  V30 9227 H 858.304 1.78459 3.84615 0
M  V30 9228 C 856.763 0.384677 3.34697 0
M  V30 9229 O 857.293 -0.511057 3.98436 0
M  V30 9230 N 855.499 0.262434 2.89413 0
M  V30 9231 H 855.046 0.99229 2.37721 0
M  V30 9232 H 855.004 -0.583177 3.08944 0
M  V30 9233 N 858.776 -0.797141 1.35954 0
M  V30 9234 C 859.739 -1.89104 1.29508 0
M  V30 9235 C 860.739 -1.59495 0.204444 0
M  V30 9236 O 861.929 -1.68051 0.458746 0
M  V30 9237 C 859.061 -3.25726 1.00576 0
M  V30 9238 H 860.254 -1.96237 2.26785 0
M  V30 9239 H 857.807 -0.994075 1.20614 0
M  V30 9240 H 858.542 -3.24279 0.0372519 0
M  V30 9241 H 858.327 -3.48604 1.79492 0
M  V30 9242 H 859.817 -4.0578 0.986508 0
M  V30 9243 N 860.254 -1.20106 -1.0204 0
M  V30 9244 C 861.67 -0.955099 -1.27867 0
M  V30 9245 C 861.87 0.367595 -1.98119 0
M  V30 9246 O 860.926 1.09705 -2.27423 0
M  V30 9247 C 862.239 -2.13507 -2.11744 0
M  V30 9248 C 863.787 -2.17563 -2.25023 0
M  V30 9249 C 864.262 -3.35035 -3.12275 0
M  V30 9250 N 865.753 -3.35024 -3.19864 0
M  V30 9251 C 866.488 -4.22566 -3.8759 0
M  V30 9252 N 865.984 -5.20278 -4.57474 0
M  V30 9253 N 867.777 -4.10418 -3.84075 0
M  V30 9254 H 859.928 -2.05193 -0.54861 0
M  V30 9255 H 862.191 -0.897689 -0.304728 0
M  V30 9256 H 861.897 -3.09275 -1.67456 0
M  V30 9257 H 861.771 -2.11281 -3.12474 0
M  V30 9258 H 864.158 -1.22359 -2.68537 0
M  V30 9259 H 864.239 -2.23838 -1.23815 0
M  V30 9260 H 863.883 -4.30522 -2.69468 0
M  V30 9261 H 863.813 -3.25996 -4.13563 0
M  V30 9262 H 866.304 -2.64299 -2.701 0
M  V30 9263 H 866.617 -5.83408 -5.06809 0
M  V30 9264 H 864.962 -5.24219 -4.56311 0
M  V30 9265 H 868.153 -3.33353 -3.28623 0
M  V30 9266 H 868.326 -4.78854 -4.36581 0
M  V30 9267 N 861.732 1.21287 -1.00634 0
M  V30 9268 C 862.98 1.90013 -0.688438 0
M  V30 9269 C 863.301 1.78573 0.783365 0
M  V30 9270 O 862.571 1.1815 1.56261 0
M  V30 9271 H 861.151 0.703336 -0.251648 0
M  V30 9272 H 863.813 1.47346 -1.27574 0
M  V30 9273 H 862.909 2.96879 -0.962781 0
M  V30 9274 N 863.21 0.781244 1.36873 0
M  V30 9275 C 864.438 0.361566 2.03716 0
M  V30 9276 C 864.853 -1.01937 1.58916 0
M  V30 9277 O 864.21 -1.65237 0.774783 0
M  V30 9278 C 864.261 0.406391 3.59208 0
M  V30 9279 O 863.982 1.73286 4.02372 0
M  V30 9280 C 865.483 -0.0236894 4.43294 0
M  V30 9281 H 862.703 0.150133 0.653988 0
M  V30 9282 H 865.247 1.05781 1.75016 0
M  V30 9283 H 863.402 -0.241364 3.86647 0
M  V30 9284 H 863.816 1.67804 4.96933 0
M  V30 9285 H 865.29 0.0588205 5.51969 0
M  V30 9286 H 865.767 -1.07529 4.25833 0
M  V30 9287 H 866.373 0.59624 4.211 0
M  V30 9288 N 864.689 -1.48329 0.532571 0
M  V30 9289 C 866.1 -1.86469 0.0927749 0
M  V30 9290 C 866.451 -1.44186 -1.3306 0
M  V30 9291 O 865.576 -0.833741 -1.99694 0
M  V30 9292 C 866.171 -3.38414 0.161588 0
M  V30 9293 C 864.73 -3.75739 -0.223028 0
M  V30 9294 C 863.877 -2.72377 0.520199 0
M  V30 9295 H 866.828 -1.40197 0.743678 0
M  V30 9296 H 866.849 -3.75314 -0.626059 0
M  V30 9297 H 866.361 -3.69159 1.19765 0
M  V30 9298 H 864.462 -3.50608 -1.26113 0
M  V30 9299 H 864.575 -4.78954 0.118385 0
M  V30 9300 H 862.939 -2.54678 -0.0338425 0
M  V30 9301 H 863.722 -3.05965 1.55694 0
M  V30 9302 N 866.167 -0.267825 -1.55308 0
M  V30 9303 C 867.1 0.663973 -2.18327 0
M  V30 9304 C 868.078 1.15759 -1.14187 0
M  V30 9305 O 869.262 1.23189 -1.42677 0
M  V30 9306 C 866.389 1.9047 -2.8007 0
M  V30 9307 C 865.435 1.54718 -3.97447 0
M  V30 9308 S 866.268 0.631654 -5.31762 0
M  V30 9309 C 867.424 1.88092 -5.96969 0
M  V30 9310 H 867.657 0.128486 -2.97022 0
M  V30 9311 H 865.19 -0.052129 -1.54312 0
M  V30 9312 H 867.148 2.61688 -3.16275 0
M  V30 9313 H 865.809 2.41132 -2.01281 0
M  V30 9314 H 865.002 2.47022 -4.39313 0
M  V30 9315 H 864.604 0.915254 -3.62628 0
M  V30 9316 H 866.896 2.82572 -6.15759 0
M  V30 9317 H 867.839 1.50539 -6.91913 0
M  V30 9318 H 868.247 2.04254 -5.26252 0
M  V30 9319 N 867.645 1.57599 0.00500368 0
M  V30 9320 C 868.578 2.03541 1.03181 0
M  V30 9321 C 869.556 0.924301 1.33774 0
M  V30 9322 O 870.74 1.19204 1.46023 0
M  V30 9323 C 867.867 2.42879 2.36067 0
M  V30 9324 C 866.913 3.64673 2.21169 0
M  V30 9325 S 867.746 5.12805 1.54243 0
M  V30 9326 C 868.902 5.55408 2.88569 0
M  V30 9327 H 869.135 2.90316 0.640598 0
M  V30 9328 H 866.668 1.52886 0.215722 0
M  V30 9329 H 868.626 2.66212 3.12476 0
M  V30 9330 H 867.287 1.56512 2.72329 0
M  V30 9331 H 866.48 3.89932 3.19326 0
M  V30 9332 H 866.082 3.41316 1.52904 0
M  V30 9333 H 868.374 5.57563 3.84876 0
M  V30 9334 H 869.317 6.55418 2.68016 0
M  V30 9335 H 869.725 4.82961 2.92249 0
M  V30 9336 N 869.123 -0.277682 1.55134 0
M  V30 9337 C 870.539 -0.624625 1.46869 0
M  V30 9338 C 870.739 -1.89717 0.678958 0
M  V30 9339 O 869.795 -2.51739 0.195939 0
M  V30 9340 C 871.108 -0.755937 2.91043 0
M  V30 9341 C 872.656 -0.850299 3.01229 0
M  V30 9342 C 873.131 -1.01343 4.46647 0
M  V30 9343 N 874.622 -1.07906 4.50456 0
M  V30 9344 C 875.357 -1.224 5.60184 0
M  V30 9345 N 874.853 -1.33642 6.79788 0
M  V30 9346 N 876.646 -1.25473 5.47917 0
M  V30 9347 H 868.797 0.558102 2.04937 0
M  V30 9348 H 871.06 0.188228 0.929125 0
M  V30 9349 H 870.766 0.108593 3.51532 0
M  V30 9350 H 870.64 -1.6377 3.39793 0
M  V30 9351 H 873.027 -1.7053 2.40839 0
M  V30 9352 H 873.108 0.0559681 2.55739 0
M  V30 9353 H 872.752 -0.163102 5.07638 0
M  V30 9354 H 872.682 -1.93427 4.89789 0
M  V30 9355 H 875.173 -1.00477 3.64298 0
M  V30 9356 H 875.486 -1.44522 7.59166 0
M  V30 9357 H 873.831 -1.30655 6.82608 0
M  V30 9358 H 877.022 -1.16317 4.53418 0
M  V30 9359 H 877.195 -1.36424 6.33476 0
M  V30 9360 N 870.601 -1.47988 -0.541979 0
M  V30 9361 C 871.564 -1.61148 -1.62984 0
M  V30 9362 C 872.564 -0.48553 -1.53295 0
M  V30 9363 O 873.754 -0.751012 -1.5718 0
M  V30 9364 C 870.886 -1.57038 -3.02576 0
M  V30 9365 H 872.079 -2.58138 -1.52659 0
M  V30 9366 H 869.632 -1.36405 -0.763106 0
M  V30 9367 H 870.367 -0.614807 -3.18419 0
M  V30 9368 H 870.152 -2.38769 -3.11018 0
M  V30 9369 H 871.642 -1.69416 -3.81691 0
M  V30 9370 N 872.079 0.78992 -1.36375 0
M  V30 9371 C 873.012 1.90907 -1.25019 0
M  V30 9372 C 873.99 1.62043 -0.134463 0
M  V30 9373 O 875.174 1.86008 -0.305506 0
M  V30 9374 C 872.301 3.25716 -0.928822 0
M  V30 9375 C 871.347 3.73511 -2.05892 0
M  V30 9376 S 872.18 3.89332 -3.6767 0
M  V30 9377 C 873.336 5.27017 -3.37645 0
M  V30 9378 H 873.569 2.00247 -2.19746 0
M  V30 9379 H 871.102 0.949097 -1.21785 0
M  V30 9380 H 873.06 4.03586 -0.750219 0
M  V30 9381 H 871.721 3.141 0.000658424 0
M  V30 9382 H 870.914 4.71195 -1.78862 0
M  V30 9383 H 870.516 3.02688 -2.19672 0
M  V30 9384 H 872.808 6.1158 -2.91507 0
M  V30 9385 H 873.751 5.5905 -4.3459 0
M  V30 9386 H 874.159 4.94093 -2.73006 0
M  V30 9387 N 873.557 1.20646 1.01402 0
M  V30 9388 C 874.49 0.900926 2.09663 0
M  V30 9389 C 875.468 -0.14801 1.61925 0
M  V30 9390 O 876.652 -0.0210235 1.88488 0
M  V30 9391 C 873.779 0.351097 3.36875 0
M  V30 9392 C 872.825 1.38142 4.03508 0
M  V30 9393 S 873.658 2.94741 4.47089 0
M  V30 9394 C 874.814 2.41341 5.77499 0
M  V30 9395 H 875.047 1.81773 2.35257 0
M  V30 9396 H 872.58 1.03521 1.14555 0
M  V30 9397 H 874.538 0.0404201 4.1048 0
M  V30 9398 H 873.199 -0.544255 3.09349 0
M  V30 9399 H 872.392 0.94614 4.9504 0
M  V30 9400 H 871.994 1.63971 3.36139 0
M  V30 9401 H 874.286 1.81263 6.52802 0
M  V30 9402 H 875.229 3.31278 6.25828 0
M  V30 9403 H 875.637 1.83374 5.33886 0
M  V30 9404 N 875.035 -1.20752 1.01276 0
M  V30 9405 C 875.968 -2.22091 0.524472 0
M  V30 9406 C 876.946 -1.5692 -0.426017 0
M  V30 9407 O 878.13 -1.8528 -0.346919 0
M  V30 9408 C 875.257 -3.37868 -0.237224 0
M  V30 9409 C 874.303 -4.21327 0.662236 0
M  V30 9410 S 875.136 -4.91352 2.12916 0
M  V30 9411 C 876.292 -6.10553 1.37752 0
M  V30 9412 H 876.525 -2.63166 1.38315 0
M  V30 9413 H 874.058 -1.30742 0.821332 0
M  V30 9414 H 876.016 -4.04985 -0.670599 0
M  V30 9415 H 874.677 -2.95261 -1.07143 0
M  V30 9416 H 873.87 -5.03944 0.0751085 0
M  V30 9417 H 873.472 -3.59445 1.03322 0
M  V30 9418 H 875.764 -6.74322 0.655491 0
M  V30 9419 H 876.707 -6.73717 2.17969 0
M  V30 9420 H 877.115 -5.57566 0.882088 0
M  V30 9421 N 876.513 -0.788492 -1.36457 0
M  V30 9422 C 877.423 -0.187385 -2.3385 0
M  V30 9423 C 878.439 0.659984 -1.60998 0
M  V30 9424 O 879.615 0.575986 -1.92988 0
M  V30 9425 C 876.68 0.668525 -3.40194 0
M  V30 9426 C 875.741 -0.197234 -4.28847 0
M  V30 9427 C 874.974 0.61792 -5.30111 0
M  V30 9428 O 875.197 1.85396 -5.3943 0
M  V30 9429 O 874.131 0.0183016 -6.01897 0
M  V30 9430 H 877.957 -0.992617 -2.87021 0
M  V30 9431 H 875.542 -0.549934 -1.3891 0
M  V30 9432 H 877.424 1.15663 -4.05216 0
M  V30 9433 H 876.099 1.45166 -2.89324 0
M  V30 9434 H 875.006 -0.73207 -3.66867 0
M  V30 9435 H 876.339 -0.943863 -4.83065 0
M  V30 9436 N 877.991 1.48044 -0.54043 0
M  V30 9437 C 879.238 2.02497 -0.0101567 0
M  V30 9438 C 879.566 1.41651 1.33286 0
M  V30 9439 O 878.821 0.555504 1.8765 0
M  V30 9440 C 879.12 3.57085 0.150008 0
M  V30 9441 C 878.786 4.36769 -1.11998 0
M  V30 9442 C 877.448 4.58261 -1.46801 0
M  V30 9443 C 879.8 4.82848 -1.96232 0
M  V30 9444 C 877.128 5.23079 -2.65717 0
M  V30 9445 C 879.48 5.48977 -3.14335 0
M  V30 9446 C 878.144 5.68705 -3.49472 0
M  V30 9447 H 877.414 0.740991 -0.00371661 0
M  V30 9448 H 880.061 1.77909 -0.708562 0
M  V30 9449 H 878.366 3.80572 0.931259 0
M  V30 9450 H 880.063 3.96851 0.575384 0
M  V30 9451 H 876.653 4.20309 -0.838957 0
M  V30 9452 H 880.837 4.66038 -1.70654 0
M  V30 9453 H 876.093 5.36549 -2.93129 0
M  V30 9454 H 880.267 5.83649 -3.79904 0
M  V30 9455 H 877.894 6.18703 -4.41713 0
M  V30 9456 N 879.47 0.276058 1.55163 0
M  V30 9457 C 880.881 -0.221516 1.85381 0
M  V30 9458 C 881.232 -1.55372 1.19808 0
M  V30 9459 O 880.357 -2.10855 0.486742 0
M  V30 9460 C 880.952 -0.408706 3.36326 0
M  V30 9461 C 879.511 -0.850512 3.66665 0
M  V30 9462 C 878.658 0.055656 2.77244 0
M  V30 9463 H 881.609 0.497819 1.5069 0
M  V30 9464 H 881.63 -1.24711 3.59482 0
M  V30 9465 H 881.142 0.561052 3.84023 0
M  V30 9466 H 879.243 -1.83171 3.24468 0
M  V30 9467 H 879.356 -0.687181 4.74146 0
M  V30 9468 H 877.72 -0.460819 2.50497 0
M  V30 9469 H 878.503 1.02131 3.27756 0
M  V30 9470 N 880.948 -1.576 0.00335426 0
M  V30 9471 C 882.225 -1.81945 -0.718015 0
M  V30 9472 C 882.605 -0.881788 -1.91801 0
M  V30 9473 O 881.953 0.0687118 -2.28397 0
M  V30 9474 C 882.163 -3.30521 -1.12058 0
M  V30 9475 C 883.511 -3.96345 -1.52303 0
M  V30 9476 O 884.535 -3.34864 -1.21428 0
M  V30 9477 O 883.394 -5.04655 -2.09728 0
M  V30 9478 H 880.488 -0.749328 -0.34991 0
M  V30 9479 H 883.034 -1.69675 0.0290654 0
M  V30 9480 H 881.806 -3.90399 -0.265378 0
M  V30 9481 H 881.429 -3.47802 -1.92665 0
M  V30 9482 N 882.426 0.269451 -1.5528 0
M  V30 9483 C 883.703 1.02207 -1.66773 0
M  V30 9484 C 884.083 2.04168 -0.536536 0
M  V30 9485 O 883.431 2.23761 0.462956 0
M  V30 9486 C 883.641 1.67569 -3.0614 0
M  V30 9487 C 884.989 2.18599 -3.64005 0
M  V30 9488 O 886.013 1.7755 -3.08795 0
M  V30 9489 O 884.872 2.93903 -4.60742 0
M  V30 9490 H 881.966 0.474314 -0.677462 0
M  V30 9491 H 884.512 0.265026 -1.67618 0
M  V30 9492 H 883.284 0.937029 -3.79915 0
M  V30 9493 H 882.907 2.49951 -3.09209 0
M  V30 9494 N 883.904 1.48273 0.534124 0
M  V30 9495 C 885.315 1.49667 1.1161 0
M  V30 9496 C 885.666 0.264139 1.94414 0
M  V30 9497 O 884.791 -0.629084 2.07054 0
M  V30 9498 C 885.386 2.71191 2.03079 0
M  V30 9499 C 883.945 2.7547 2.56502 0
M  V30 9500 C 883.092 2.43119 1.33373 0
M  V30 9501 H 886.043 1.55449 0.319578 0
M  V30 9502 H 886.064 2.49473 2.87304 0
M  V30 9503 H 885.576 3.60879 1.42785 0
M  V30 9504 H 883.677 1.89979 3.20529 0
M  V30 9505 H 883.79 3.76787 2.95919 0
M  V30 9506 H 882.154 1.94187 1.64813 0
M  V30 9507 H 882.937 3.35044 0.748375 0
M  V30 9508 N 885.382 -0.782676 1.36792 0
M  V30 9509 C 886.345 -1.8772 1.31507 0
M  V30 9510 C 887.345 -1.59269 0.221349 0
M  V30 9511 O 888.535 -1.67555 0.476544 0
M  V30 9512 C 885.667 -3.24641 1.04025 0
M  V30 9513 H 886.86 -1.9382 2.28853 0
M  V30 9514 H 884.413 -0.981226 1.21662 0
M  V30 9515 H 885.148 -3.24221 0.0716439 0
M  V30 9516 H 884.933 -3.46681 1.8318 0
M  V30 9517 H 886.423 -4.04711 1.02949 0
M  V30 9518 N 886.86 -1.21182 -1.00761 0
M  V30 9519 C 888.1 -1.03886 -1.76031 0
M  V30 9520 C 888.464 0.420593 -1.87337 0
M  V30 9521 O 889.665 0.713994 -2.59144 0
M  V30 9522 C 887.936 -1.71394 -3.13622 0
M  V30 9523 S 889.495 -1.69319 -4.04816 0
M  V30 9524 H 886.313 -0.372327 -0.605717 0
M  V30 9525 H 888.915 -1.53885 -1.20581 0
M  V30 9526 H 887.619 -2.76773 -3.03026 0
M  V30 9527 H 887.15 -1.21564 -3.74147 0
M  V30 9528 H 889.165 -0.732434 -4.90765 0
M  V30 9529 N 888.338 1.20213 -1.01915 0
M  V30 9530 C 889.615 1.85348 -0.62495 0
M  V30 9531 C 889.995 1.91101 0.896854 0
M  V30 9532 O 889.343 1.42075 1.78961 0
M  V30 9533 C 889.553 3.24849 -1.27571 0
M  V30 9534 C 890.901 4.01107 -1.39277 0
M  V30 9535 O 891.925 3.34211 -1.23212 0
M  V30 9536 O 890.784 5.20914 -1.6526 0
M  V30 9537 H 887.878 0.798303 -0.215965 0
M  V30 9538 H 890.424 1.27782 -1.11669 0
M  V30 9539 H 889.196 3.1544 -2.31545 0
M  V30 9540 H 888.819 3.90049 -0.77122 0
M  V30 9541 N 889.816 0.795718 1.36037 0
M  V30 9542 C 891.046 0.382597 2.03026 0
M  V30 9543 C 891.454 -1.00779 1.60126 0
M  V30 9544 O 890.797 -1.65884 0.78919 0
M  V30 9545 C 890.859 0.374145 3.57548 0
M  V30 9546 C 890.523 1.71318 4.23673 0
M  V30 9547 C 891.52 2.6697 4.4612 0
M  V30 9548 C 889.205 1.99421 4.61017 0
M  V30 9549 C 891.199 3.88916 5.04998 0
M  V30 9550 C 888.886 3.21632 5.19611 0
M  V30 9551 C 889.884 4.16198 5.41542 0
M  V30 9552 O 889.572 5.36254 5.98905 0
M  V30 9553 H 889.304 0.154944 0.658003 0
M  V30 9554 H 891.858 1.07756 1.74865 0
M  V30 9555 H 890.088 -0.377349 3.84854 0
M  V30 9556 H 891.777 -0.01517 4.05897 0
M  V30 9557 H 892.543 2.46548 4.17659 0
M  V30 9558 H 888.422 1.2663 4.43267 0
M  V30 9559 H 891.966 4.6274 5.22032 0
M  V30 9560 H 887.863 3.4193 5.47498 0
M  V30 9561 H 888.631 5.37403 6.17366 0
M  V30 9562 N 891.294 -1.47756 0.548274 0
M  V30 9563 C 892.224 -2.32702 -0.19284 0
M  V30 9564 C 893.205 -1.43237 -0.917457 0
M  V30 9565 O 894.39 -1.72103 -0.89967 0
M  V30 9566 C 891.52 -3.24831 -1.22891 0
M  V30 9567 C 890.474 -4.23466 -0.621312 0
M  V30 9568 C 889.8 -5.04856 -1.76137 0
M  V30 9569 C 891.1 -5.20616 0.419055 0
M  V30 9570 H 892.794 -2.94914 0.516323 0
M  V30 9571 H 890.34 -1.41818 0.24975 0
M  V30 9572 H 892.293 -3.83094 -1.75547 0
M  V30 9573 H 891.017 -2.60656 -1.9679 0
M  V30 9574 H 889.676 -3.66416 -0.116123 0
M  V30 9575 H 889.324 -4.37091 -2.48918 0
M  V30 9576 H 889.024 -5.71629 -1.36065 0
M  V30 9577 H 890.548 -5.65976 -2.29136 0
M  V30 9578 H 891.962 -5.73296 -0.0211034 0
M  V30 9579 H 890.359 -5.95543 0.738163 0
M  V30 9580 H 891.429 -4.66638 1.31822 0
M  V30 9581 N 892.772 -0.284283 -1.55015 0
M  V30 9582 C 894.049 0.382125 -1.91831 0
M  V30 9583 C 894.429 1.73007 -1.20962 0
M  V30 9584 O 893.777 2.25962 -0.339594 0
M  V30 9585 C 893.987 0.513341 -3.45204 0
M  V30 9586 C 895.335 0.791989 -4.17148 0
M  V30 9587 O 896.359 0.597799 -3.51148 0
M  V30 9588 O 895.218 1.16394 -5.33961 0
M  V30 9589 H 892.312 0.210707 -0.799707 0
M  V30 9590 H 894.858 -0.331111 -1.66438 0
M  V30 9591 H 893.63 -0.434911 -3.88876 0
M  V30 9592 H 893.253 1.27569 -3.76579 0
M  V30 9593 N 894.251 1.57596 -0.0117121 0
M  V30 9594 C 895.667 1.55837 0.344506 0
M  V30 9595 C 895.867 1.01557 1.74036 0
M  V30 9596 O 894.923 0.654563 2.43868 0
M  V30 9597 C 896.236 2.99973 0.209023 0
M  V30 9598 C 897.784 3.11717 0.283092 0
M  V30 9599 C 898.259 4.57659 0.176599 0
M  V30 9600 N 899.75 4.62608 0.234133 0
M  V30 9601 C 900.485 5.73132 0.175252 0
M  V30 9602 N 899.981 6.92768 0.0662888 0
M  V30 9603 N 901.774 5.61638 0.227972 0
M  V30 9604 H 893.925 1.91215 -0.924692 0
M  V30 9605 H 896.188 0.878807 -0.355531 0
M  V30 9606 H 895.894 3.4357 -0.751826 0
M  V30 9607 H 895.768 3.64075 0.98635 0
M  V30 9608 H 898.155 2.68043 1.23439 0
M  V30 9609 H 898.236 2.50369 -0.52431 0
M  V30 9610 H 897.88 5.02011 -0.771205 0
M  V30 9611 H 897.81 5.16967 1.00264 0
M  V30 9612 H 900.301 3.76549 0.319203 0
M  V30 9613 H 900.614 7.72795 0.0275765 0
M  V30 9614 H 898.959 6.94993 0.0317502 0
M  V30 9615 H 902.15 4.67063 0.311377 0
M  V30 9616 H 902.323 6.47754 0.178621 0
M  V30 9617 N 895.729 -0.261212 1.5542 0
M  V30 9618 C 896.661 -1.34571 1.85535 0
M  V30 9619 C 897.674 -1.44979 0.740612 0
M  V30 9620 O 898.863 -1.46584 1.01859 0
M  V30 9621 C 895.963 -2.7258 2.01378 0
M  V30 9622 C 895.136 -2.84618 3.32131 0
M  V30 9623 C 894.195 -4.03379 3.37893 0
M  V30 9624 O 893.221 -3.93581 4.11197 0
M  V30 9625 N 894.423 -5.15893 2.66148 0
M  V30 9626 H 897.188 -1.09078 2.79145 0
M  V30 9627 H 894.749 -0.451327 1.55482 0
M  V30 9628 H 896.741 -3.50342 2.0259 0
M  V30 9629 H 895.311 -2.90844 1.14579 0
M  V30 9630 H 894.531 -1.93647 3.43358 0
M  V30 9631 H 895.819 -2.896 4.18341 0
M  V30 9632 H 895.217 -5.26743 2.06297 0
M  V30 9633 H 893.774 -5.91842 2.73069 0
M  V30 9634 N 897.207 -1.48554 -0.526253 0
M  V30 9635 C 898.437 -1.60197 -1.30463 0
M  V30 9636 C 898.845 -0.26278 -1.87366 0
M  V30 9637 O 898.188 0.758537 -1.67308 0
M  V30 9638 C 898.25 -2.59223 -2.49085 0
M  V30 9639 C 897.914 -4.04199 -2.13241 0
M  V30 9640 C 898.911 -4.91771 -1.68694 0
M  V30 9641 C 896.596 -4.49762 -2.2365 0
M  V30 9642 C 898.59 -6.22934 -1.35026 0
M  V30 9643 C 896.277 -5.80945 -1.89594 0
M  V30 9644 C 897.275 -6.67354 -1.45353 0
M  V30 9645 O 896.963 -7.96096 -1.11745 0
M  V30 9646 H 896.695 -0.54284 -0.402866 0
M  V30 9647 H 899.249 -1.95137 -0.641157 0
M  V30 9648 H 897.479 -2.19412 -3.18426 0
M  V30 9649 H 899.168 -2.60661 -3.11144 0
M  V30 9650 H 899.934 -4.57806 -1.6012 0
M  V30 9651 H 895.813 -3.8269 -2.5704 0
M  V30 9652 H 899.357 -6.90334 -1.00422 0
M  V30 9653 H 895.254 -6.14444 -1.9781 0
M  V30 9654 H 896.022 -8.08882 -1.25111 0
M  V30 9655 N 898.685 0.775411 -1.37205 0
M  V30 9656 C 899.618 1.8957 -1.27037 0
M  V30 9657 C 900.596 1.61891 -0.151643 0
M  V30 9658 O 901.78 1.85673 -0.325218 0
M  V30 9659 C 898.907 3.24712 -0.963316 0
M  V30 9660 C 897.953 3.71306 -2.09842 0
M  V30 9661 S 898.786 3.8541 -3.71778 0
M  V30 9662 C 899.942 5.23406 -3.43216 0
M  V30 9663 H 900.175 1.97905 -2.21857 0
M  V30 9664 H 897.708 0.936127 -1.22784 0
M  V30 9665 H 899.666 4.02768 -0.792983 0
M  V30 9666 H 898.327 3.14083 -0.0326561 0
M  V30 9667 H 897.52 4.69271 -1.83849 0
M  V30 9668 H 897.122 3.00341 -2.2287 0
M  V30 9669 H 899.414 6.08454 -2.97977 0
M  V30 9670 H 900.357 5.54409 -4.40495 0
M  V30 9671 H 900.765 4.9117 -2.78231 0
M  V30 9672 N 900.163 1.21714 1.00117 0
M  V30 9673 C 901.093 1.00397 2.10815 0
M  V30 9674 C 902.074 -0.0723502 1.69946 0
M  V30 9675 O 903.259 0.0882398 1.93999 0
M  V30 9676 C 900.389 0.572001 3.42557 0
M  V30 9677 C 899.343 1.59331 3.97237 0
M  V30 9678 C 898.669 1.01746 5.2493 0
M  V30 9679 C 899.969 2.98117 4.28863 0
M  V30 9680 H 901.663 1.92983 2.28906 0
M  V30 9681 H 899.209 0.929273 1.10002 0
M  V30 9682 H 901.162 0.410018 4.19401 0
M  V30 9683 H 899.886 -0.38951 3.24269 0
M  V30 9684 H 898.545 1.74293 3.22518 0
M  V30 9685 H 898.193 0.0475491 5.02978 0
M  V30 9686 H 897.893 1.69969 5.62481 0
M  V30 9687 H 899.417 0.866881 6.04415 0
M  V30 9688 H 900.831 2.86578 4.96534 0
M  V30 9689 H 899.228 3.63389 4.77565 0
M  V30 9690 H 900.298 3.48674 3.36979 0
M  V30 9691 N 901.641 -1.19671 1.02551 0
M  V30 9692 C 902.889 -1.88894 0.71858 0
M  V30 9693 C 903.21 -1.79797 -0.754856 0
M  V30 9694 O 902.48 -1.20621 -1.54362 0
M  V30 9695 H 901.06 -0.699244 0.262806 0
M  V30 9696 H 903.722 -1.45298 1.29902 0
M  V30 9697 H 902.818 -2.95309 1.00989 0
M  V30 9698 N 903.119 -0.802921 -1.35613 0
M  V30 9699 C 904.396 -0.304993 -1.93208 0
M  V30 9700 C 904.776 1.20488 -1.73337 0
M  V30 9701 O 904.124 2.00268 -1.10022 0
M  V30 9702 C 904.334 -0.712383 -3.41652 0
M  V30 9703 C 905.682 -0.699785 -4.18794 0
M  V30 9704 O 906.706 -0.653698 -3.5015 0
M  V30 9705 O 905.565 -0.754842 -5.41262 0
M  V30 9706 H 902.659 -0.0789127 -0.823226 0
M  V30 9707 H 905.205 -0.886372 -1.44712 0
M  V30 9708 H 903.977 -1.75316 -3.49829 0
M  V30 9709 H 903.6 -0.105614 -3.9746 0
M  V30 9710 N 904.597 1.47463 -0.556102 0
M  V30 9711 C 905.545 2.31692 0.205299 0
M  V30 9712 C 906.539 1.42857 0.910394 0
M  V30 9713 O 907.745 1.59628 0.831806 0
M  V30 9714 H 904.12 0.747172 0.0850775 0
M  V30 9715 H 906.091 2.93758 -0.524305 0
M  V30 9716 C 904.84 3.25487 1.22283 0
M  V30 9717 H 904.163 3.93806 0.689697 0
M  V30 9718 H 905.603 3.87257 1.7265 0
M  V30 9719 C 904.062 2.48931 2.27013 0
M  V30 9720 O 904.592 2.23296 3.33919 0
M  V30 9721 N 902.798 2.0996 2.00911 0
M  V30 9722 H 902.345 2.31008 1.13986 0
M  V30 9723 H 902.303 1.59053 2.712 0
M  V30 9724 N 906.075 0.2925 1.54862 0
M  V30 9725 C 907.321 -0.319736 2.00264 0
M  V30 9726 C 907.654 -1.5419 1.18064 0
M  V30 9727 O 906.929 -1.92821 0.254983 0
M  V30 9728 C 907.212 -0.684753 3.5353 0
M  V30 9729 C 907.065 0.545961 4.46474 0
M  V30 9730 C 908.384 -1.51456 4.13218 0
M  V30 9731 H 905.503 -0.11474 0.728014 0
M  V30 9732 H 908.145 0.402907 1.85679 0
M  V30 9733 H 906.295 -1.30044 3.66089 0
M  V30 9734 H 907.967 1.18448 4.45834 0
M  V30 9735 H 906.21 1.1808 4.1742 0
M  V30 9736 H 906.881 0.246544 5.51449 0
M  V30 9737 H 909.357 -0.994421 4.04043 0
M  V30 9738 H 908.233 -1.73875 5.20633 0
M  V30 9739 H 908.494 -2.5011 3.64551 0
M  V30 9740 N 907.553 -1.57587 0.0200696 0
M  V30 9741 C 908.486 -2.05157 -0.999295 0
M  V30 9742 C 909.464 -0.945466 -1.32286 0
M  V30 9743 O 910.648 -1.21512 -1.44108 0
M  V30 9744 C 907.775 -2.46604 -2.32173 0
M  V30 9745 C 906.821 -3.68146 -2.15339 0
M  V30 9746 S 907.654 -5.15194 -1.46065 0
M  V30 9747 C 908.81 -5.59929 -2.79697 0
M  V30 9748 H 909.043 -2.91299 -0.59433 0
M  V30 9749 H 906.576 -1.53209 -0.191372 0
M  V30 9750 H 908.534 -2.7115 -3.08201 0
M  V30 9751 H 907.195 -1.60825 -2.69804 0
M  V30 9752 H 906.388 -3.94963 -3.13082 0
M  V30 9753 H 905.99 -3.43705 -1.47454 0
M  V30 9754 H 908.282 -5.63615 -3.75957 0
M  V30 9755 H 909.225 -6.59599 -2.57555 0
M  V30 9756 H 909.633 -4.87549 -2.84528 0
M  V30 9757 N 909.032 0.252966 -1.55557 0
M  V30 9758 C 910.278 0.983306 -1.77367 0
M  V30 9759 C 910.611 1.85203 -0.584258 0
M  V30 9760 O 909.886 1.89963 0.417644 0
M  V30 9761 C 910.169 1.84896 -3.09007 0
M  V30 9762 C 910.022 1.00883 -4.38341 0
M  V30 9763 C 911.341 2.83254 -3.36831 0
M  V30 9764 H 908.46 0.356056 -0.645286 0
M  V30 9765 H 911.102 0.254232 -1.88291 0
M  V30 9766 H 909.252 2.47058 -2.99825 0
M  V30 9767 H 910.924 0.40638 -4.59507 0
M  V30 9768 H 909.167 0.31297 -4.3267 0
M  V30 9769 H 909.838 1.64818 -5.2682 0
M  V30 9770 H 912.314 2.31228 -3.45937 0
M  V30 9771 H 911.19 3.40949 -4.30169 0
M  V30 9772 H 911.451 3.59407 -2.57447 0
M  V30 9773 N 910.51 1.48831 0.518367 0
M  V30 9774 C 911.473 1.63721 1.604 0
M  V30 9775 C 912.473 0.509857 1.52503 0
M  V30 9776 O 913.663 0.775922 1.55965 0
M  V30 9777 C 910.795 1.61831 3.00039 0
M  V30 9778 H 911.988 2.60534 1.48533 0
M  V30 9779 H 909.541 1.37602 0.741309 0
M  V30 9780 H 910.276 0.665387 3.17401 0
M  V30 9781 H 910.061 2.43686 3.0718 0
M  V30 9782 H 911.551 1.75467 3.78947 0
M  V30 9783 N 911.988 -0.768124 1.37614 0
M  V30 9784 C 913.399 -1.34462 1.29525 0
M  V30 9785 C 913.75 -1.96121 -0.0555168 0
M  V30 9786 O 912.875 -1.94069 -0.957406 0
M  V30 9787 C 913.47 -2.44475 2.34558 0
M  V30 9788 C 912.029 -2.97883 2.30093 0
M  V30 9789 C 911.176 -1.71131 2.18196 0
M  V30 9790 H 914.127 -0.568103 1.48183 0
M  V30 9791 H 914.148 -3.24047 1.99434 0
M  V30 9792 H 913.66 -1.99568 3.32858 0
M  V30 9793 H 911.761 -3.47156 1.35328 0
M  V30 9794 H 911.874 -3.53251 3.23652 0
M  V30 9795 H 910.238 -1.94197 1.64802 0
M  V30 9796 H 911.021 -1.28323 3.18415 0
M  V30 9797 N 913.466 -1.22244 -0.994698 0
M  V30 9798 C 914.712 -1.04746 -1.73655 0
M  V30 9799 C 915.045 0.41668 -1.89677 0
M  V30 9800 O 914.32 1.30897 -1.43862 0
M  V30 9801 C 914.603 -1.75716 -3.14318 0
M  V30 9802 C 914.456 -3.29714 -3.05955 0
M  V30 9803 C 915.775 -1.50809 -4.13455 0
M  V30 9804 H 912.894 -0.381921 -0.630322 0
M  V30 9805 H 915.536 -1.50559 -1.15897 0
M  V30 9806 H 913.686 -1.3677 -3.63629 0
M  V30 9807 H 915.358 -3.78093 -2.64279 0
M  V30 9808 H 913.601 -3.59484 -2.42804 0
M  V30 9809 H 914.272 -3.74547 -4.05485 0
M  V30 9810 H 916.748 -1.84636 -3.72892 0
M  V30 9811 H 915.624 -2.02964 -5.09997 0
M  V30 9812 H 915.885 -0.440292 -4.39902 0
M  V30 9813 N 914.944 1.19125 -1.03184 0
M  V30 9814 C 916.191 1.88883 -0.730029 0
M  V30 9815 C 916.519 1.79807 0.741602 0
M  V30 9816 O 915.774 1.18686 1.55603 0
M  V30 9817 C 916.073 3.39052 -1.13041 0
M  V30 9818 C 915.739 3.68332 -2.60082 0
M  V30 9819 C 914.401 3.76033 -3.00254 0
M  V30 9820 C 916.753 3.81423 -3.55199 0
M  V30 9821 C 914.081 3.94296 -4.34451 0
M  V30 9822 C 916.433 4.012 -4.89103 0
M  V30 9823 C 915.097 4.07134 -5.28959 0
M  V30 9824 H 914.367 0.691172 -0.267137 0
M  V30 9825 H 917.014 1.41053 -1.29523 0
M  V30 9826 H 915.319 3.88801 -0.48386 0
M  V30 9827 H 917.016 3.91351 -0.874368 0
M  V30 9828 H 913.606 3.62948 -2.27961 0
M  V30 9829 H 917.79 3.74814 -3.25313 0
M  V30 9830 H 913.046 3.97131 -4.64863 0
M  V30 9831 H 917.22 4.10271 -5.62717 0
M  V30 9832 H 914.847 4.21038 -6.32954 0
M  V30 9833 N 916.422 0.810101 1.35185 0
M  V30 9834 C 917.65 0.404696 2.02903 0
M  V30 9835 C 918.065 -0.985434 1.61042 0
M  V30 9836 O 917.422 -1.63557 0.809658 0
M  V30 9837 C 917.473 0.482493 3.58266 0
M  V30 9838 O 917.194 1.81782 3.98606 0
M  V30 9839 C 918.695 0.070345 4.43244 0
M  V30 9840 H 915.915 0.163972 0.650657 0
M  V30 9841 H 918.459 1.0947 1.72733 0
M  V30 9842 H 916.614 -0.159296 3.87072 0
M  V30 9843 H 917.028 1.78306 4.93262 0
M  V30 9844 H 918.502 0.175888 5.5172 0
M  V30 9845 H 918.979 -0.984724 4.28018 0
M  V30 9846 H 919.585 0.685427 4.1974 0
M  V30 9847 N 917.9 -1.47166 0.563914 0
M  V30 9848 C 918.81 -2.33885 -0.182977 0
M  V30 9849 C 919.826 -1.48605 -0.905132 0
M  V30 9850 O 921.002 -1.81518 -0.872527 0
M  V30 9851 C 918.067 -3.25433 -1.19558 0
M  V30 9852 C 917.128 -4.26607 -0.480129 0
M  V30 9853 C 916.361 -5.1378 -1.44449 0
M  V30 9854 O 916.584 -5.03531 -2.67979 0
M  V30 9855 O 915.518 -5.94109 -0.965321 0
M  V30 9856 H 919.344 -2.99065 0.528544 0
M  V30 9857 H 916.929 -1.45834 0.324468 0
M  V30 9858 H 918.811 -3.81964 -1.77993 0
M  V30 9859 H 917.486 -2.62873 -1.8889 0
M  V30 9860 H 916.393 -3.73817 0.145583 0
M  V30 9861 H 917.726 -4.919 0.171868 0
M  V30 9862 N 919.378 -0.300708 -1.54705 0
M  V30 9863 C 920.341 0.562648 -2.22187 0
M  V30 9864 C 921.341 1.06152 -1.20782 0
M  V30 9865 O 922.531 0.957596 -1.45519 0
M  V30 9866 C 919.663 1.77899 -2.908 0
M  V30 9867 H 920.856 -0.0269361 -2.99888 0
M  V30 9868 H 918.409 -0.0515412 -1.56215 0
M  V30 9869 H 919.144 2.40841 -2.17177 0
M  V30 9870 H 918.929 1.42892 -3.65136 0
M  V30 9871 H 920.419 2.39236 -3.42281 0
M  V30 9872 N 920.856 1.57574 -0.0284266 0
M  V30 9873 C 922.104 1.91393 0.649079 0
M  V30 9874 C 922.425 0.905368 1.72708 0
M  V30 9875 O 921.695 -0.0532107 1.95828 0
M  V30 9876 H 920.275 0.70646 0.24274 0
M  V30 9877 H 922.937 1.94752 -0.076066 0
M  V30 9878 H 922.033 2.91988 1.10226 0
M  V30 9879 N 922.334 -0.244713 1.55689 0
M  V30 9880 C 923.611 -0.995407 1.68378 0
M  V30 9881 C 923.991 -2.03288 0.568949 0
M  V30 9882 O 923.339 -2.24469 -0.427299 0
M  V30 9883 C 923.549 -1.62678 3.08767 0
M  V30 9884 C 924.897 -2.1278 3.67437 0
M  V30 9885 O 925.921 -1.72614 3.11581 0
M  V30 9886 O 924.78 -2.86536 4.65359 0
M  V30 9887 H 921.874 -0.463476 0.684923 0
M  V30 9888 H 924.42 -0.238326 1.68018 0
M  V30 9889 H 923.192 -0.876469 3.81358 0
M  V30 9890 H 922.815 -2.45 3.13146 0
M  V30 9891 N 923.813 -1.49104 -0.510467 0
M  V30 9892 C 925.059 -1.58346 -1.26705 0
M  V30 9893 C 925.392 -0.265121 -1.92382 0
M  V30 9894 O 924.667 0.730558 -1.80258 0
M  V30 9895 C 924.95 -2.7359 -2.34137 0
M  V30 9896 C 924.803 -4.1519 -1.73024 0
M  V30 9897 C 926.122 -2.84511 -3.3577 0
M  V30 9898 H 923.241 -0.57637 -0.459311 0
M  V30 9899 H 925.883 -1.81353 -0.566658 0
M  V30 9900 H 924.033 -2.54105 -2.93876 0
M  V30 9901 H 925.705 -4.46167 -1.17186 0
M  V30 9902 H 923.948 -4.21279 -1.03473 0
M  V30 9903 H 924.619 -4.91683 -2.50903 0
M  V30 9904 H 927.095 -3.0222 -2.86011 0
M  V30 9905 H 925.971 -3.6684 -4.08313 0
M  V30 9906 H 926.232 -1.93471 -3.97519 0
M  V30 9907 N 925.291 0.760815 -1.38019 0
M  V30 9908 C 926.223 1.88387 -1.30549 0
M  V30 9909 C 927.236 1.61319 -0.219119 0
M  V30 9910 O 928.425 1.72033 -0.476122 0
M  V30 9911 C 925.525 3.23863 -0.998291 0
M  V30 9912 C 924.698 3.78492 -2.19232 0
M  V30 9913 C 923.757 4.92468 -1.85368 0
M  V30 9914 O 922.783 5.0748 -2.57785 0
M  V30 9915 N 923.985 5.74901 -0.804319 0
M  V30 9916 H 926.75 1.95308 -2.27322 0
M  V30 9917 H 924.311 0.940423 -1.31786 0
M  V30 9918 H 926.303 3.97644 -0.7524 0
M  V30 9919 H 924.873 3.12374 -0.11877 0
M  V30 9920 H 924.093 2.96361 -2.5993 0
M  V30 9921 H 925.381 4.11722 -2.98935 0
M  V30 9922 H 924.779 5.65333 -0.203628 0
M  V30 9923 H 923.336 6.48861 -0.618301 0
M  V30 9924 N 926.769 1.22769 0.988202 0
M  V30 9925 C 928.016 1.05509 1.72841 0
M  V30 9926 C 928.344 -0.409145 1.90148 0
M  V30 9927 O 927.599 -1.3195 1.44526 0
M  V30 9928 C 927.898 1.71679 3.13466 0
M  V30 9929 C 927.564 3.21584 3.16061 0
M  V30 9930 C 926.226 3.62486 3.16476 0
M  V30 9931 C 928.578 4.17511 3.11984 0
M  V30 9932 C 925.906 4.97789 3.10521 0
M  V30 9933 C 928.258 5.52796 3.0757 0
M  V30 9934 C 926.922 5.93072 3.06304 0
M  V30 9935 H 926.192 0.386085 0.632471 0
M  V30 9936 H 928.839 1.52596 1.157 0
M  V30 9937 H 927.144 1.1693 3.73945 0
M  V30 9938 H 928.841 1.55809 3.69492 0
M  V30 9939 H 925.431 2.89019 3.1649 0
M  V30 9940 H 929.615 3.86926 3.10809 0
M  V30 9941 H 924.871 5.28218 3.07888 0
M  V30 9942 H 929.045 6.26848 3.03372 0
M  V30 9943 H 926.672 6.97879 3.01444 0
M  V30 9944 N 928.247 -1.18576 1.03814 0
M  V30 9945 C 929.477 -1.92158 0.758864 0
M  V30 9946 C 929.885 -1.76267 -0.687498 0
M  V30 9947 O 929.228 -1.08806 -1.4801 0
M  V30 9948 C 929.29 -3.44063 1.04217 0
M  V30 9949 C 928.954 -3.8373 2.48193 0
M  V30 9950 C 929.951 -3.87722 3.46363 0
M  V30 9951 C 927.636 -4.151 2.82838 0
M  V30 9952 C 929.63 -4.2253 4.77229 0
M  V30 9953 C 927.317 -4.49578 4.13911 0
M  V30 9954 C 928.315 -4.53269 5.10917 0
M  V30 9955 O 928.003 -4.86945 6.39641 0
M  V30 9956 H 927.735 -0.61694 0.276335 0
M  V30 9957 H 930.289 -1.51388 1.38819 0
M  V30 9958 H 928.519 -3.85061 0.355709 0
M  V30 9959 H 930.208 -3.9889 0.751091 0
M  V30 9960 H 930.974 -3.63627 3.20936 0
M  V30 9961 H 926.853 -4.11406 2.08006 0
M  V30 9962 H 930.397 -4.25326 5.52941 0
M  V30 9963 H 926.294 -4.73133 4.39107 0
M  V30 9964 H 927.062 -5.04857 6.44253 0
M  V30 9965 N 929.725 -0.817259 -1.34754 0
M  V30 9966 C 930.655 -0.249769 -2.3216 0
M  V30 9967 C 931.636 0.630663 -1.57977 0
M  V30 9968 O 932.821 0.558719 -1.85989 0
M  V30 9969 C 929.951 0.593825 -3.42186 0
M  V30 9970 C 928.905 -0.188997 -4.27583 0
M  V30 9971 C 928.231 0.776979 -5.29025 0
M  V30 9972 C 929.531 -1.39401 -5.03354 0
M  V30 9973 H 931.225 -1.06359 -2.79872 0
M  V30 9974 H 928.771 -0.512894 -1.34556 0
M  V30 9975 H 930.724 1.00097 -4.09339 0
M  V30 9976 H 929.448 1.44064 -2.93109 0
M  V30 9977 H 928.107 -0.577445 -3.62024 0
M  V30 9978 H 927.755 1.61959 -4.76212 0
M  V30 9979 H 927.455 0.257448 -5.87036 0
M  V30 9980 H 928.979 1.18211 -5.99048 0
M  V30 9981 H 930.393 -1.06117 -5.63393 0
M  V30 9982 H 928.79 -1.84878 -5.70912 0
M  V30 9983 H 929.86 -2.17515 -4.33377 0
M  V30 9984 N 931.203 1.46865 -0.571711 0
M  V30 9985 C 932.614 1.86158 -0.142181 0
M  V30 9986 C 932.965 1.47663 1.2919 0
M  V30 9987 O 932.09 0.886393 1.97413 0
M  V30 9988 C 932.685 3.37867 -0.251256 0
M  V30 9989 C 931.244 3.76198 0.123329 0
M  V30 9990 C 930.391 2.70902 -0.592232 0
M  V30 9991 H 933.342 1.38176 -0.780587 0
M  V30 9992 H 933.363 3.76842 0.526331 0
M  V30 9993 H 932.875 3.65853 -1.2951 0
M  V30 9994 H 930.976 3.53829 1.16773 0
M  V30 9995 H 931.089 4.78471 -0.24533 0
M  V30 9996 H 929.453 2.54678 -0.0336927 0
M  V30 9997 H 930.236 3.01729 -1.63751 0
M  V30 9998 N 932.681 0.308908 1.54543 0
M  V30 9999 C 933.591 -0.572939 2.27496 0
M  V30 10000 C 934.607 -1.14171 1.31305 0
M  V30 10001 O 935.783 -1.16481 1.64299 0
M  V30 10002 C 932.848 -1.72483 3.0075 0
M  V30 10003 C 931.909 -1.18934 4.12496 0
M  V30 10004 C 931.142 -2.28634 4.82247 0
M  V30 10005 O 931.365 -3.48691 4.5141 0
M  V30 10006 O 930.299 -1.94879 5.69478 0
M  V30 10007 H 934.125 0.0190877 3.03694 0
M  V30 10008 H 931.71 0.0750943 1.49211 0
M  V30 10009 H 933.592 -2.39578 3.46671 0
M  V30 10010 H 932.267 -2.30332 2.2744 0
M  V30 10011 H 931.174 -0.483904 3.70957 0
M  V30 10012 H 932.507 -0.656185 4.87806 0
M  V30 10013 N 934.159 -1.57557 0.0367827 0
M  V30 10014 C 935.407 -1.91735 -0.63892 0
M  V30 10015 C 935.728 -0.914515 -1.72226 0
M  V30 10016 O 934.998 0.0428248 -1.95853 0
M  V30 10017 H 933.578 -0.707738 -0.23899 0
M  V30 10018 H 936.24 -1.94708 0.0863931 0
M  V30 10019 H 935.336 -2.92568 -1.08676 0
M  V30 10020 N 935.637 0.236453 -1.55816 0
M  V30 10021 C 937.053 0.585465 -1.48474 0
M  V30 10022 C 937.253 1.8785 -0.72902 0
M  V30 10023 O 936.309 2.51131 -0.262614 0
M  V30 10024 C 937.622 0.678506 -2.92945 0
M  V30 10025 C 939.17 0.770135 -3.03378 0
M  V30 10026 C 939.645 0.894649 -4.49177 0
M  V30 10027 N 941.136 0.959253 -4.53158 0
M  V30 10028 C 941.871 1.07505 -5.63232 0
M  V30 10029 N 941.367 1.15572 -6.83092 0
M  V30 10030 N 943.16 1.10902 -5.51051 0
M  V30 10031 H 935.311 -0.612241 -2.03385 0
M  V30 10032 H 937.574 -0.212796 -0.923808 0
M  V30 10033 H 937.28 -0.201757 -3.51121 0
M  V30 10034 H 937.154 1.54703 -3.44016 0
M  V30 10035 H 939.541 1.64085 -2.45276 0
M  V30 10036 H 939.622 -0.123753 -2.555 0
M  V30 10037 H 939.266 0.0284537 -5.07892 0
M  V30 10038 H 939.196 1.80373 -4.94745 0
M  V30 10039 H 941.687 0.907827 -3.66834 0
M  V30 10040 H 942 1.24343 -7.62731 0
M  V30 10041 H 940.345 1.12511 -6.85833 0
M  V30 10042 H 943.536 1.04255 -4.56343 0
M  V30 10043 H 943.709 1.19581 -6.36871 0
M  V30 10044 N 937.115 1.49373 0.502552 0
M  V30 10045 C 938.361 1.5999 1.25597 0
M  V30 10046 C 938.716 0.282287 1.90318 0
M  V30 10047 O 938.009 -0.71735 1.77664 0
M  V30 10048 C 938.203 2.69508 2.34735 0
M  V30 10049 C 938.032 4.11791 1.80716 0
M  V30 10050 C 936.802 4.78598 1.62087 0
M  V30 10051 C 939 4.97074 1.31991 0
M  V30 10052 N 936.982 6.05201 1.02981 0
M  V30 10053 C 938.353 6.14144 0.850098 0
M  V30 10054 C 940.408 4.83086 1.20549 0
M  V30 10055 C 939.111 7.18766 0.277192 0
M  V30 10056 C 941.137 5.87855 0.64656 0
M  V30 10057 C 940.499 7.04152 0.186968 0
M  V30 10058 H 936.598 0.639822 0.449613 0
M  V30 10059 H 939.182 1.86371 0.563361 0
M  V30 10060 H 937.353 2.44902 3.01459 0
M  V30 10061 H 939.085 2.69656 3.01774 0
M  V30 10062 H 935.84 4.35372 1.8641 0
M  V30 10063 H 936.264 6.72793 0.753601 0
M  V30 10064 H 940.906 3.93489 1.54681 0
M  V30 10065 H 938.624 8.08064 -0.0763971 0
M  V30 10066 H 942.21 5.79091 0.560832 0
M  V30 10067 H 941.09 7.83836 -0.238784 0
M  V30 10068 N 938.594 -0.753485 1.38421 0
M  V30 10069 C 939.822 -1.54272 1.37868 0
M  V30 10070 C 940.237 -1.88774 -0.0315155 0
M  V30 10071 O 939.594 -1.52785 -0.998148 0
M  V30 10072 C 939.645 -2.84179 2.23438 0
M  V30 10073 O 939.366 -2.51149 3.58965 0
M  V30 10074 C 940.867 -3.78316 2.31067 0
M  V30 10075 H 938.087 -0.47735 0.47157 0
M  V30 10076 H 940.631 -0.932509 1.82001 0
M  V30 10077 H 938.786 -3.41577 1.82767 0
M  V30 10078 H 939.2 -3.34466 4.04021 0
M  V30 10079 H 940.674 -4.66418 2.95226 0
M  V30 10080 H 941.151 -4.18757 1.32436 0
M  V30 10081 H 941.757 -3.26842 2.72129 0
M  V30 10082 N 940.072 -1.23292 -0.981677 0
M  V30 10083 C 941.022 -0.980133 -2.05858 0
M  V30 10084 C 942.006 0.0734044 -1.60732 0
M  V30 10085 O 943.198 -0.138561 -1.76457 0
M  V30 10086 C 940.327 -0.571879 -3.38503 0
M  V30 10087 C 939.413 -1.66075 -3.90231 0
M  V30 10088 N 939.804 -2.89077 -4.15052 0
M  V30 10089 C 938.102 -1.53503 -4.18751 0
M  V30 10090 C 938.803 -3.59567 -4.5726 0
M  V30 10091 N 937.779 -2.87076 -4.61615 0
M  V30 10092 H 941.581 -1.91432 -2.23005 0
M  V30 10093 H 939.095 -1.13211 -1.16434 0
M  V30 10094 H 941.092 -0.372059 -4.15236 0
M  V30 10095 H 939.752 0.355278 -3.2275 0
M  V30 10096 H 940.763 -3.25395 -4.02912 0
M  V30 10097 H 937.44 -0.674891 -4.12009 0
M  V30 10098 H 938.83 -4.65007 -4.84993 0
M  V30 10099 N 941.55 1.18024 -1.04442 0
M  V30 10100 C 942.48 2.23988 -0.659683 0
M  V30 10101 C 943.461 1.6669 0.338904 0
M  V30 10102 O 944.646 1.92971 0.21817 0
M  V30 10103 C 941.776 3.4729 -0.0257672 0
M  V30 10104 C 940.73 4.17362 -0.948299 0
M  V30 10105 C 940.056 5.34401 -0.17866 0
M  V30 10106 C 941.356 4.70435 -2.26909 0
M  V30 10107 H 943.05 2.56425 -1.54553 0
M  V30 10108 H 940.596 1.23256 -0.744575 0
M  V30 10109 H 942.549 4.20627 0.255131 0
M  V30 10110 H 941.273 3.14098 0.894981 0
M  V30 10111 H 939.932 3.45928 -1.21364 0
M  V30 10112 H 939.58 4.97458 0.744614 0
M  V30 10113 H 939.28 5.8222 -0.793294 0
M  V30 10114 H 940.804 6.10526 0.0951315 0
M  V30 10115 H 942.218 5.35447 -2.04864 0
M  V30 10116 H 940.615 5.28803 -2.83703 0
M  V30 10117 H 941.685 3.87653 -2.91296 0
M  V30 10118 N 943.028 0.824394 1.34319 0
M  V30 10119 C 944.274 0.422964 1.98954 0
M  V30 10120 C 944.629 -1.00323 1.64174 0
M  V30 10121 O 943.922 -1.6894 0.903869 0
M  V30 10122 C 944.116 0.564024 3.52921 0
M  V30 10123 C 943.945 2.00238 4.0266 0
M  V30 10124 C 942.715 2.63457 4.31183 0
M  V30 10125 C 944.913 2.9693 4.19925 0
M  V30 10126 N 942.895 3.98518 4.66966 0
M  V30 10127 C 944.266 4.16901 4.58904 0
M  V30 10128 C 946.321 2.93527 4.02177 0
M  V30 10129 C 945.024 5.33926 4.81991 0
M  V30 10130 C 947.05 4.09769 4.26431 0
M  V30 10131 C 946.412 5.28493 4.65698 0
M  V30 10132 H 942.511 0.202907 0.755217 0
M  V30 10133 H 945.095 1.0694 1.62702 0
M  V30 10134 H 943.266 -0.0525268 3.88364 0
M  V30 10135 H 944.998 0.135451 4.04473 0
M  V30 10136 H 941.753 2.14688 4.22145 0
M  V30 10137 H 942.177 4.68103 4.8909 0
M  V30 10138 H 946.819 2.02878 3.70945 0
M  V30 10139 H 944.537 6.25132 5.12089 0
M  V30 10140 H 948.123 4.08537 4.14233 0
M  V30 10141 H 947.003 6.16945 4.84096 0
M  V30 10142 N 944.506 -1.46559 0.579492 0
M  V30 10143 C 945.456 -2.27316 -0.17645 0
M  V30 10144 C 946.44 -1.35681 -0.864835 0
M  V30 10145 O 947.632 -1.59879 -0.759462 0
M  V30 10146 C 944.761 -3.21957 -1.19157 0
M  V30 10147 C 943.847 -4.21077 -0.505459 0
M  V30 10148 N 944.238 -5.03908 0.437133 0
M  V30 10149 C 942.536 -4.39535 -0.75661 0
M  V30 10150 C 943.237 -5.75635 0.837819 0
M  V30 10151 N 942.213 -5.43276 0.187679 0
M  V30 10152 H 946.015 -2.88747 0.547932 0
M  V30 10153 H 943.529 -1.5737 0.401048 0
M  V30 10154 H 945.526 -3.78518 -1.74728 0
M  V30 10155 H 944.186 -2.62085 -1.9168 0
M  V30 10156 H 945.197 -5.11487 0.812488 0
M  V30 10157 H 941.874 -3.90815 -1.46867 0
M  V30 10158 H 943.264 -6.52235 1.61364 0
M  V30 10159 N 945.984 -0.3171 -1.54377 0
M  V30 10160 C 946.932 0.567371 -2.25574 0
M  V30 10161 C 947.926 1.12387 -1.2675 0
M  V30 10162 O 949.132 1.07266 -1.44548 0
M  V30 10163 H 945.507 0.201605 -0.724472 0
M  V30 10164 H 947.478 -0.0554644 -2.98348 0
M  V30 10165 C 946.227 1.71984 -3.02187 0
M  V30 10166 H 945.55 1.30086 -3.78044 0
M  V30 10167 H 946.99 2.31443 -3.5526 0
M  V30 10168 C 945.449 2.6336 -2.10103 0
M  V30 10169 O 945.979 3.64899 -1.67962 0
M  V30 10170 N 944.185 2.3145 -1.75725 0
M  V30 10171 H 943.732 1.48921 -2.10191 0
M  V30 10172 H 943.69 2.92852 -1.14391 0
M  V30 10173 N 947.462 1.57535 -0.0451378 0
M  V30 10174 C 948.739 1.83785 0.669523 0
M  V30 10175 C 949.119 0.932331 1.89396 0
M  V30 10176 O 948.467 -0.00813229 2.28499 0
M  V30 10177 C 948.677 3.33376 1.03255 0
M  V30 10178 C 950.025 4.00243 1.41741 0
M  V30 10179 O 951.049 3.37965 1.12507 0
M  V30 10180 O 949.908 5.10038 1.96275 0
M  V30 10181 H 947.002 0.758342 0.329919 0
M  V30 10182 H 949.548 1.69538 -0.0740415 0
M  V30 10183 H 948.32 3.90965 0.161777 0
M  V30 10184 H 947.943 3.52787 1.83376 0
M  V30 10185 N 948.94 -0.228186 1.55939 0
M  V30 10186 C 949.85 -1.30386 1.9503 0
M  V30 10187 C 950.866 -1.51645 0.853218 0
M  V30 10188 O 952.042 -1.64904 1.15623 0
M  V30 10189 C 949.107 -2.63489 2.25332 0
M  V30 10190 C 948.168 -2.5059 3.48573 0
M  V30 10191 C 947.401 -3.77345 3.7742 0
M  V30 10192 O 947.624 -4.80067 3.08045 0
M  V30 10193 O 946.558 -3.74855 4.70922 0
M  V30 10194 H 950.384 -1.0022 2.86687 0
M  V30 10195 H 947.969 -0.430503 1.43063 0
M  V30 10196 H 949.851 -3.4211 2.46046 0
M  V30 10197 H 948.526 -2.93349 1.3685 0
M  V30 10198 H 947.433 -1.70191 3.33145 0
M  V30 10199 H 948.766 -2.2567 4.37417 0
M  V30 10200 N 950.418 -1.49637 -0.494624 0
M  V30 10201 C 951.348 -1.69692 -1.60396 0
M  V30 10202 C 952.329 -0.545648 -1.61111 0
M  V30 10203 O 953.514 -0.782202 -1.77751 0
M  V30 10204 C 950.644 -1.76934 -2.9885 0
M  V30 10205 C 949.598 -2.91915 -3.13001 0
M  V30 10206 C 948.924 -2.84276 -4.5287 0
M  V30 10207 C 950.224 -4.32764 -2.92426 0
M  V30 10208 H 951.918 -2.6257 -1.43866 0
M  V30 10209 H 949.464 -1.26355 -0.690679 0
M  V30 10210 H 951.417 -1.8955 -3.76362 0
M  V30 10211 H 950.141 -0.806609 -3.16483 0
M  V30 10212 H 948.8 -2.78911 -2.37916 0
M  V30 10213 H 948.448 -1.85897 -4.67388 0
M  V30 10214 H 948.148 -3.61452 -4.63278 0
M  V30 10215 H 949.672 -2.98909 -5.32434 0
M  V30 10216 H 951.086 -4.46415 -3.59703 0
M  V30 10217 H 949.483 -5.1121 -3.143 0
M  V30 10218 H 950.553 -4.46765 -1.88491 0
M  V30 10219 N 951.896 0.746133 -1.38819 0
M  V30 10220 C 953.173 1.49652 -1.25951 0
M  V30 10221 C 953.553 2.10663 0.135833 0
M  V30 10222 O 952.901 1.97682 1.14604 0
M  V30 10223 C 953.111 2.5569 -2.37537 0
M  V30 10224 C 954.459 3.22385 -2.76321 0
M  V30 10225 O 955.483 2.65998 -2.36904 0
M  V30 10226 O 954.342 4.2439 -3.44319 0
M  V30 10227 H 951.436 0.664019 -0.492958 0
M  V30 10228 H 953.982 0.780908 -1.50665 0
M  V30 10229 H 952.754 2.08908 -3.30867 0
M  V30 10230 H 952.377 3.34823 -2.14427 0
M  V30 10231 N 953.375 1.23811 0.975125 0
M  V30 10232 C 954.623 1.07124 1.71373 0
M  V30 10233 C 954.944 -0.391864 1.91022 0
M  V30 10234 O 954.214 -1.28041 1.48265 0
M  V30 10235 H 952.794 0.393415 0.635007 0
M  V30 10236 H 955.456 1.55612 1.17349 0
M  V30 10237 H 954.552 1.56338 2.7012 0
M  V30 10238 N 954.853 -1.17469 1.05066 0
M  V30 10239 C 956.078 -1.92162 0.780298 0
M  V30 10240 C 956.503 -1.76222 -0.657832 0
M  V30 10241 O 955.861 -1.0791 -1.45688 0
M  V30 10242 C 955.909 -3.41292 1.16414 0
M  V30 10243 O 955.013 -4.1134 0.295531 0
M  V30 10244 H 954.354 -0.599127 0.286257 0
M  V30 10245 H 956.884 -1.48903 1.40318 0
M  V30 10246 H 956.894 -3.92029 1.13036 0
M  V30 10247 H 955.569 -3.52214 2.21175 0
M  V30 10248 H 954.146 -3.70857 0.389797 0
M  V30 10249 N 956.331 -0.831506 -1.3388 0
M  V30 10250 C 957.747 -0.518349 -1.50948 0
M  V30 10251 C 957.947 0.955807 -1.77388 0
M  V30 10252 O 957.003 1.73993 -1.82983 0
M  V30 10253 C 958.316 -1.38531 -2.66889 0
M  V30 10254 C 959.864 -1.38332 -2.80772 0
M  V30 10255 C 960.339 -2.23497 -3.99766 0
M  V30 10256 N 961.83 -2.21167 -4.06988 0
M  V30 10257 C 962.565 -2.83805 -4.98239 0
M  V30 10258 N 962.061 -3.55468 -5.94655 0
M  V30 10259 N 963.854 -2.73314 -4.91178 0
M  V30 10260 H 956.005 -1.78588 -1.14978 0
M  V30 10261 H 958.268 -0.761508 -0.564633 0
M  V30 10262 H 957.974 -2.43255 -2.54007 0
M  V30 10263 H 957.848 -1.05611 -3.62114 0
M  V30 10264 H 960.235 -0.343832 -2.9309 0
M  V30 10265 H 960.316 -1.75256 -1.86331 0
M  V30 10266 H 959.96 -3.27501 -3.88208 0
M  V30 10267 H 959.89 -1.83919 -4.93438 0
M  V30 10268 H 962.381 -1.69046 -3.37982 0
M  V30 10269 H 962.694 -4.00487 -6.60931 0
M  V30 10270 H 961.039 -3.59575 -5.94753 0
M  V30 10271 H 964.23 -2.16897 -4.14817 0
M  V30 10272 H 964.403 -3.22416 -5.62096 0
M  V30 10273 N 957.809 1.4625 -0.587256 0
M  V30 10274 C 959.055 2.0323 -0.0830359 0
M  V30 10275 C 959.41 1.45007 1.26455 0
M  V30 10276 O 958.703 0.607494 1.81714 0
M  V30 10277 C 958.897 3.57382 0.036328 0
M  V30 10278 C 958.726 4.30556 -1.29814 0
M  V30 10279 C 957.496 4.69285 -1.87349 0
M  V30 10280 C 959.694 4.63806 -2.22236 0
M  V30 10281 N 957.676 5.27229 -3.14488 0
M  V30 10282 C 959.047 5.22368 -3.33964 0
M  V30 10283 C 961.102 4.45738 -2.2186 0
M  V30 10284 C 959.805 5.64769 -4.45454 0
M  V30 10285 C 961.831 4.89158 -3.32383 0
M  V30 10286 C 961.193 5.47795 -4.42832 0
M  V30 10287 H 957.292 0.77856 -0.0732716 0
M  V30 10288 H 959.876 1.78343 -0.781152 0
M  V30 10289 H 958.047 3.81973 0.703621 0
M  V30 10290 H 959.779 4.01009 0.545347 0
M  V30 10291 H 956.534 4.5219 -1.40789 0
M  V30 10292 H 956.958 5.60719 -3.79372 0
M  V30 10293 H 961.6 3.99735 -1.37739 0
M  V30 10294 H 959.318 6.09748 -5.30314 0
M  V30 10295 H 962.904 4.76926 -3.33216 0
M  V30 10296 H 961.784 5.80778 -5.26941 0
M  V30 10297 N 959.287 0.325282 1.54207 0
M  V30 10298 C 960.237 -0.55548 2.2113 0
M  V30 10299 C 961.221 -1.0803 1.19241 0
M  V30 10300 O 962.413 -1.01703 1.44864 0
M  V30 10301 C 959.542 -1.71504 2.97391 0
M  V30 10302 C 958.628 -1.20503 4.0662 0
M  V30 10303 N 959.019 -0.414838 5.04096 0
M  V30 10304 C 957.317 -1.4836 4.20601 0
M  V30 10305 C 958.018 -0.140225 5.81531 0
M  V30 10306 N 956.994 -0.72683 5.38719 0
M  V30 10307 H 960.796 0.0555192 2.93848 0
M  V30 10308 H 958.31 0.131225 1.61869 0
M  V30 10309 H 960.307 -2.35781 3.43821 0
M  V30 10310 H 958.967 -2.3295 2.26195 0
M  V30 10311 H 959.978 -0.0575291 5.17868 0
M  V30 10312 H 956.655 -2.10378 3.60621 0
M  V30 10313 H 958.045 0.496026 6.70067 0
M  V30 10314 N 960.765 -1.57509 0.0534917 0
M  V30 10315 C 961.712 -2.11667 -0.920101 0
M  V30 10316 C 962.682 -1.0246 -1.30733 0
M  V30 10317 O 963.867 -1.30021 -1.39639 0
M  V30 10318 C 961.007 -2.66803 -2.18883 0
M  V30 10319 C 960.12 -3.90104 -1.85588 0
M  V30 10320 C 959.255 -4.33547 -3.06937 0
M  V30 10321 C 958.294 -5.49542 -2.69573 0
M  V30 10322 N 957.431 -5.88029 -3.83623 0
M  V30 10323 H 962.271 -2.94562 -0.451371 0
M  V30 10324 H 959.808 -1.45576 -0.211168 0
M  V30 10325 H 961.766 -2.96871 -2.93127 0
M  V30 10326 H 960.396 -1.86702 -2.63329 0
M  V30 10327 H 959.448 -3.66613 -1.01484 0
M  V30 10328 H 960.76 -4.74404 -1.54087 0
M  V30 10329 H 959.914 -4.6518 -3.89477 0
M  V30 10330 H 958.653 -3.48064 -3.41618 0
M  V30 10331 H 957.658 -5.17579 -1.8545 0
M  V30 10332 H 958.883 -6.36743 -2.36082 0
M  V30 10333 H 956.829 -5.05498 -4.181 0
M  V30 10334 H 956.746 -6.67025 -3.55828 0
M  V30 10335 H 958.014 -6.24277 -4.66796 0
M  V30 10336 N 962.243 0.219913 -1.56058 0
M  V30 10337 C 963.175 1.29604 -1.89038 0
M  V30 10338 C 964.188 1.42964 -0.778791 0
M  V30 10339 O 965.377 1.43832 -1.0571 0
M  V30 10340 C 962.477 2.67145 -2.08534 0
M  V30 10341 C 961.65 2.75712 -3.39561 0
M  V30 10342 C 960.709 3.94279 -3.48469 0
M  V30 10343 O 959.735 3.8254 -4.21487 0
M  V30 10344 N 960.937 5.08655 -2.79732 0
M  V30 10345 H 963.702 1.01638 -2.81939 0
M  V30 10346 H 961.263 0.409945 -1.56624 0
M  V30 10347 H 963.255 3.44847 -2.11808 0
M  V30 10348 H 961.825 2.87704 -1.2225 0
M  V30 10349 H 961.045 1.84475 -3.48371 0
M  V30 10350 H 962.333 2.78407 -4.25872 0
M  V30 10351 H 961.731 5.21088 -2.2019 0
M  V30 10352 H 960.288 5.84394 -2.88665 0
M  V30 10353 N 963.721 1.49897 0.486681 0
M  V30 10354 C 964.653 1.63755 1.60365 0
M  V30 10355 C 965.666 0.519614 1.54285 0
M  V30 10356 O 966.855 0.792219 1.59957 0
M  V30 10357 C 963.955 1.59153 2.99205 0
M  V30 10358 C 963.128 2.8672 3.30319 0
M  V30 10359 C 962.187 2.74974 4.48638 0
M  V30 10360 O 961.213 3.48922 4.49714 0
M  V30 10361 N 962.415 1.87479 5.49392 0
M  V30 10362 H 965.18 2.60094 1.48899 0
M  V30 10363 H 962.741 1.47166 0.674825 0
M  V30 10364 H 964.733 1.4893 3.76301 0
M  V30 10365 H 963.303 0.706133 3.0452 0
M  V30 10366 H 962.523 3.11188 2.41983 0
M  V30 10367 H 963.811 3.71262 3.47911 0
M  V30 10368 H 963.209 1.26684 5.51333 0
M  V30 10369 H 961.766 1.83169 6.25534 0
M  V30 10370 N 965.199 -0.738761 1.39212 0
M  V30 10371 C 966.149 -1.84376 1.34125 0
M  V30 10372 C 967.133 -1.5935 0.222793 0
M  V30 10373 O 968.325 -1.70918 0.460014 0
M  V30 10374 C 965.454 -3.22261 1.18334 0
M  V30 10375 C 964.54 -3.53129 2.34864 0
M  V30 10376 N 964.931 -3.54957 3.60332 0
M  V30 10377 C 963.229 -3.83472 2.27739 0
M  V30 10378 C 963.93 -3.83513 4.3737 0
M  V30 10379 N 962.906 -4.01097 3.66909 0
M  V30 10380 H 966.708 -1.84089 2.29104 0
M  V30 10381 H 964.222 -0.936826 1.32655 0
M  V30 10382 H 966.219 -4.01358 1.12772 0
M  V30 10383 H 964.879 -3.23789 0.243016 0
M  V30 10384 H 965.89 -3.36359 3.93806 0
M  V30 10385 H 962.567 -3.92628 1.41949 0
M  V30 10386 H 963.957 -3.91427 5.46109 0
M  V30 10387 N 966.677 -1.24326 -0.968545 0
M  V30 10388 C 967.925 -1.08032 -1.70803 0
M  V30 10389 C 968.246 0.381728 -1.91227 0
M  V30 10390 O 967.516 1.27253 -1.48942 0
M  V30 10391 H 966.096 -0.396777 -0.632912 0
M  V30 10392 H 968.758 -1.56232 -1.16523 0
M  V30 10393 H 967.854 -1.57769 -2.69287 0
M  V30 10394 N 968.156 1.1691 -1.05688 0
M  V30 10395 C 969.403 1.87292 -0.76993 0
M  V30 10396 C 969.731 1.81339 0.703295 0
M  V30 10397 O 968.986 1.21959 1.5305 0
M  V30 10398 C 969.285 3.36578 -1.20207 0
M  V30 10399 C 968.951 3.62732 -2.67836 0
M  V30 10400 C 967.613 3.69579 -3.08163 0
M  V30 10401 C 969.965 3.73803 -3.63209 0
M  V30 10402 C 967.293 3.84992 -4.42717 0
M  V30 10403 C 969.645 3.90735 -4.97503 0
M  V30 10404 C 968.309 3.95823 -5.37476 0
M  V30 10405 H 967.579 0.68535 -0.281737 0
M  V30 10406 H 970.226 1.38274 -1.32486 0
M  V30 10407 H 968.531 3.87687 -0.566222 0
M  V30 10408 H 970.228 3.89409 -0.957183 0
M  V30 10409 H 966.818 3.58031 -2.35609 0
M  V30 10410 H 971.002 3.67829 -3.3319 0
M  V30 10411 H 966.258 3.87181 -4.73182 0
M  V30 10412 H 970.432 3.98243 -5.71293 0
M  V30 10413 H 968.059 4.07518 -6.41742 0
M  V30 10414 N 969.634 0.838594 1.33437 0
M  V30 10415 C 970.564 0.286672 2.31734 0
M  V30 10416 C 971.545 -0.605451 1.5896 0
M  V30 10417 O 972.73 -0.529059 1.86854 0
M  V30 10418 C 969.86 -0.539311 3.43087 0
M  V30 10419 C 968.814 0.256997 4.27228 0
M  V30 10420 C 968.14 -0.692718 5.30194 0
M  V30 10421 C 969.44 1.47391 5.01072 0
M  V30 10422 H 971.134 1.10798 2.78144 0
M  V30 10423 H 968.68 0.534235 1.33723 0
M  V30 10424 H 970.633 -0.935724 4.1088 0
M  V30 10425 H 969.357 -1.39383 2.95364 0
M  V30 10426 H 968.016 0.634967 3.61059 0
M  V30 10427 H 967.664 -1.54363 4.78729 0
M  V30 10428 H 967.364 -0.164023 5.87371 0
M  V30 10429 H 968.888 -1.08665 6.00853 0
M  V30 10430 H 970.302 1.15067 5.61634 0
M  V30 10431 H 968.699 1.93937 5.67898 0
M  V30 10432 H 969.769 2.24382 4.29861 0
M  V30 10433 N 971.112 -1.45937 0.595003 0
M  V30 10434 C 972.337 -2.07207 0.0894416 0
M  V30 10435 C 972.762 -1.43884 -1.21157 0
M  V30 10436 O 972.12 -0.526998 -1.73472 0
M  V30 10437 C 972.168 -3.60565 -0.0499828 0
M  V30 10438 O 971.272 -3.97364 -1.10342 0
M  V30 10439 H 970.613 -0.660471 0.0683627 0
M  V30 10440 H 973.143 -1.87386 0.82144 0
M  V30 10441 H 973.153 -4.0722 -0.252234 0
M  V30 10442 H 971.828 -4.06044 0.90006 0
M  V30 10443 H 970.405 -3.62401 -0.878645 0
M  V30 10444 N 972.59 -0.333456 -1.54032 0
M  V30 10445 C 973.52 0.52051 -2.27625 0
M  V30 10446 C 974.501 1.1111 -1.28797 0
M  V30 10447 O 975.686 1.13438 -1.57625 0
M  V30 10448 C 972.816 1.67663 -3.04149 0
M  V30 10449 C 971.77 1.21487 -4.10396 0
M  V30 10450 C 971.096 2.45872 -4.74817 0
M  V30 10451 C 972.396 0.322603 -5.21303 0
M  V30 10452 H 974.09 -0.0933823 -2.99254 0
M  V30 10453 H 971.636 -0.0463526 -1.43925 0
M  V30 10454 H 973.589 2.28041 -3.54366 0
M  V30 10455 H 972.313 2.31727 -2.30153 0
M  V30 10456 H 970.972 0.633966 -3.61077 0
M  V30 10457 H 970.62 3.0832 -3.97426 0
M  V30 10458 H 970.32 2.15662 -5.46593 0
M  V30 10459 H 971.844 3.06994 -5.27814 0
M  V30 10460 H 973.258 0.832942 -5.67217 0
M  V30 10461 H 971.655 0.112843 -5.99994 0
M  V30 10462 H 972.725 -0.643954 -4.80605 0
M  V30 10463 N 974.068 1.57479 -0.061844 0
M  V30 10464 C 975.479 1.80627 0.472295 0
M  V30 10465 C 975.83 0.97496 1.70261 0
M  V30 10466 O 974.955 0.1946 2.15523 0
M  V30 10467 C 975.55 3.27608 0.863616 0
M  V30 10468 C 974.109 3.51638 1.34267 0
M  V30 10469 C 973.256 2.75412 0.323009 0
M  V30 10470 H 976.207 1.56072 -0.287634 0
M  V30 10471 H 976.228 3.39113 1.72577 0
M  V30 10472 H 975.74 3.88087 -0.0320226 0
M  V30 10473 H 973.841 2.96452 2.25714 0
M  V30 10474 H 973.954 4.60342 1.32747 0
M  V30 10475 H 972.318 2.4187 0.798175 0
M  V30 10476 H 973.101 3.38623 -0.564729 0
M  V30 10477 N 975.546 -0.211634 1.56173 0
M  V30 10478 C 976.792 -0.935935 1.79911 0
M  V30 10479 C 977.125 -1.83589 0.633155 0
M  V30 10480 O 976.4 -1.91004 -0.367132 0
M  V30 10481 C 976.683 -1.76638 3.13801 0
M  V30 10482 C 976.536 -0.892259 4.40861 0
M  V30 10483 C 977.855 -2.74224 3.44223 0
M  V30 10484 H 974.974 -0.338822 0.654499 0
M  V30 10485 H 977.616 -0.20422 1.88899 0
M  V30 10486 H 975.766 -2.39021 3.0627 0
M  V30 10487 H 977.438 -0.284407 4.60422 0
M  V30 10488 H 975.681 -0.198145 4.33347 0
M  V30 10489 H 976.352 -1.50793 5.31004 0
M  V30 10490 H 978.828 -2.21975 3.51946 0
M  V30 10491 H 977.704 -3.29424 4.39057 0
M  V30 10492 H 977.965 -3.52455 2.66885 0
M  V30 10493 N 977.024 -1.50153 -0.478725 0
M  V30 10494 C 978.254 -1.64266 -1.253 0
M  V30 10495 C 978.662 -0.322256 -1.86435 0
M  V30 10496 O 978.005 0.704925 -1.69636 0
M  V30 10497 C 978.067 -2.67017 -2.40712 0
M  V30 10498 C 977.731 -4.10779 -2.00274 0
M  V30 10499 C 978.728 -4.96889 -1.52963 0
M  V30 10500 C 976.413 -4.5665 -2.09228 0
M  V30 10501 C 978.407 -6.26914 -1.15139 0
M  V30 10502 C 976.094 -5.86683 -1.71015 0
M  V30 10503 C 977.092 -6.71641 -1.24048 0
M  V30 10504 O 976.78 -7.99248 -0.863617 0
M  V30 10505 H 976.512 -0.555382 -0.385392 0
M  V30 10506 H 979.066 -1.97078 -0.578751 0
M  V30 10507 H 977.296 -2.29432 -3.11284 0
M  V30 10508 H 978.985 -2.70428 -3.02694 0
M  V30 10509 H 979.751 -4.62669 -1.45474 0
M  V30 10510 H 975.63 -3.90674 -2.44735 0
M  V30 10511 H 979.174 -6.93179 -0.784089 0
M  V30 10512 H 975.071 -6.20426 -1.78162 0
M  V30 10513 H 975.839 -8.12452 -0.993139 0
M  V30 10514 N 978.502 0.731368 -1.39602 0
M  V30 10515 C 979.748 1.49321 -1.37227 0
M  V30 10516 C 980.081 1.94176 0.0306502 0
M  V30 10517 O 979.356 1.67046 0.996294 0
M  V30 10518 C 979.639 2.73035 -2.34784 0
M  V30 10519 C 979.492 2.34176 -3.84033 0
M  V30 10520 C 980.811 3.75146 -2.30116 0
M  V30 10521 H 977.93 0.541652 -0.499783 0
M  V30 10522 H 980.572 0.835968 -1.70621 0
M  V30 10523 H 978.722 3.29114 -2.06437 0
M  V30 10524 H 980.394 1.83701 -4.23145 0
M  V30 10525 H 978.637 1.66361 -4.00633 0
M  V30 10526 H 979.308 3.22786 -4.47787 0
M  V30 10527 H 981.784 3.28661 -2.55189 0
M  V30 10528 H 980.66 4.5937 -3.00451 0
M  V30 10529 H 980.921 4.22326 -1.30741 0
M  V30 10530 N 979.98 1.24838 0.961938 0
M  V30 10531 C 981.396 1.01502 1.23165 0
M  V30 10532 C 981.596 -0.272651 1.99647 0
M  V30 10533 O 980.652 -0.987297 2.32398 0
M  V30 10534 C 981.965 2.23366 2.01316 0
M  V30 10535 C 983.513 2.28051 2.14387 0
M  V30 10536 C 983.988 3.49552 2.95935 0
M  V30 10537 N 985.479 3.49904 3.03515 0
M  V30 10538 C 986.214 4.40577 3.66987 0
M  V30 10539 N 985.71 5.41512 4.3213 0
M  V30 10540 N 987.503 4.28275 3.64056 0
M  V30 10541 H 979.654 2.07576 0.450086 0
M  V30 10542 H 981.917 0.911205 0.261551 0
M  V30 10543 H 981.623 3.16913 1.5251 0
M  V30 10544 H 981.497 2.25949 3.02038 0
M  V30 10545 H 983.884 1.35032 2.62393 0
M  V30 10546 H 983.965 2.29491 1.12994 0
M  V30 10547 H 983.609 4.42889 2.4862 0
M  V30 10548 H 983.539 3.45357 3.97538 0
M  V30 10549 H 986.03 2.76885 2.57183 0
M  V30 10550 H 986.343 6.06924 4.78396 0
M  V30 10551 H 984.688 5.45393 4.3078 0
M  V30 10552 H 987.879 3.48653 3.12344 0
M  V30 10553 H 988.052 4.99138 4.13237 0
M  V30 10554 N 981.458 -1.16348 1.06306 0
M  V30 10555 C 982.735 -1.829 0.69331 0
M  V30 10556 C 983.115 -1.94298 -0.82531 0
M  V30 10557 O 982.463 -1.48619 -1.73565 0
M  V30 10558 C 982.673 -3.1989 1.3954 0
M  V30 10559 C 984.021 -3.95662 1.54068 0
M  V30 10560 O 985.045 -3.29408 1.35532 0
M  V30 10561 O 983.904 -5.14422 1.84479 0
M  V30 10562 H 980.998 -0.789738 0.245445 0
M  V30 10563 H 983.544 -1.23549 1.16334 0
M  V30 10564 H 982.316 -3.06629 2.43093 0
M  V30 10565 H 981.939 -3.86918 0.915453 0
M  V30 10566 N 982.937 -0.845659 -1.3299 0
M  V30 10567 C 983.885 -0.272412 -2.30999 0
M  V30 10568 C 984.879 0.599311 -1.58444 0
M  V30 10569 O 986.085 0.488117 -1.73255 0
M  V30 10570 H 982.46 -0.0693751 -0.748793 0
M  V30 10571 H 984.431 -1.11343 -2.76849 0
M  V30 10572 C 983.18 0.532019 -3.43606 0
M  V30 10573 H 982.503 -0.129455 -3.9959 0
M  V30 10574 H 983.943 0.898853 -4.14363 0
M  V30 10575 C 982.402 1.71364 -2.90062 0
M  V30 10576 O 982.932 2.81252 -2.8681 0
M  V30 10577 N 981.138 1.53775 -2.4658 0
M  V30 10578 H 980.685 0.643836 -2.49424 0
M  V30 10579 H 980.643 2.32982 -2.11108 0
M  V30 10580 N 984.415 1.45619 -0.602734 0
M  V30 10581 C 985.643 2.06647 -0.102253 0
M  V30 10582 C 986.058 1.4482 1.21131 0
M  V30 10583 O 985.415 0.560621 1.73676 0
M  V30 10584 C 985.466 3.61467 0.0490113 0
M  V30 10585 O 985.187 4.20985 -1.21257 0
M  V30 10586 C 986.688 4.39469 0.581517 0
M  V30 10587 H 983.908 0.667685 -0.0666155 0
M  V30 10588 H 986.452 1.86939 -0.829091 0
M  V30 10589 H 984.607 3.80534 0.726153 0
M  V30 10590 H 985.021 5.14103 -1.03915 0
M  V30 10591 H 986.495 5.48318 0.636462 0
M  V30 10592 H 986.972 4.0891 1.60277 0
M  V30 10593 H 987.578 4.25256 -0.061419 0
M  V30 10594 N 985.893 0.34162 1.53853 0
M  V30 10595 C 986.823 -0.508431 2.27897 0
M  V30 10596 C 987.804 -1.10425 1.29384 0
M  V30 10597 O 988.989 -1.126 1.58224 0
M  V30 10598 C 986.119 -1.66048 3.05034 0
M  V30 10599 C 985.073 -1.19309 4.11035 0
M  V30 10600 C 984.399 -2.4335 4.76114 0
M  V30 10601 C 985.699 -0.294952 5.21467 0
M  V30 10602 H 987.393 0.109251 2.99201 0
M  V30 10603 H 984.939 0.0539847 1.43899 0
M  V30 10604 H 986.892 -2.26158 3.5557 0
M  V30 10605 H 985.616 -2.30503 2.31379 0
M  V30 10606 H 984.275 -0.614809 3.61408 0
M  V30 10607 H 983.923 -3.06208 3.99056 0
M  V30 10608 H 983.623 -2.1276 5.47729 0
M  V30 10609 H 985.147 -3.0419 5.29434 0
M  V30 10610 H 986.561 -0.80285 5.67651 0
M  V30 10611 H 984.958 -0.0810221 6.00045 0
M  V30 10612 H 986.028 0.669433 4.80257 0
M  V30 10613 N 987.371 -1.57444 0.0701946 0
M  V30 10614 C 988.301 -2.15659 -0.895176 0
M  V30 10615 C 989.282 -1.08321 -1.31151 0
M  V30 10616 O 990.467 -1.36349 -1.38284 0
M  V30 10617 C 987.597 -2.71693 -2.16334 0
M  V30 10618 C 986.551 -3.84183 -1.88645 0
M  V30 10619 C 985.877 -4.26814 -3.22078 0
M  V30 10620 C 987.177 -5.08493 -1.19299 0
M  V30 10621 H 988.871 -2.96576 -0.410217 0
M  V30 10622 H 986.417 -1.42662 -0.195872 0
M  V30 10623 H 988.37 -3.11064 -2.84284 0
M  V30 10624 H 987.094 -1.87994 -2.67069 0
M  V30 10625 H 985.753 -3.45314 -1.23101 0
M  V30 10626 H 985.401 -3.40039 -3.70651 0
M  V30 10627 H 985.101 -5.02642 -3.04344 0
M  V30 10628 H 986.625 -4.68799 -3.91228 0
M  V30 10629 H 988.039 -5.4519 -1.77316 0
M  V30 10630 H 986.436 -5.89588 -1.11828 0
M  V30 10631 H 987.506 -4.84595 -0.171839 0
M  V30 10632 N 988.849 0.203349 -1.56283 0
M  V30 10633 C 989.812 1.23566 -1.93039 0
M  V30 10634 C 990.812 1.38869 -0.810687 0
M  V30 10635 O 992.002 1.36822 -1.07821 0
M  V30 10636 C 989.134 2.60645 -2.1972 0
M  V30 10637 H 990.327 0.921692 -2.85385 0
M  V30 10638 H 987.88 0.44453 -1.49845 0
M  V30 10639 H 988.615 2.9711 -1.29985 0
M  V30 10640 H 988.4 2.50911 -3.01307 0
M  V30 10641 H 989.89 3.35103 -2.4919 0
M  V30 10642 N 990.327 1.50405 0.470755 0
M  V30 10643 C 991.257 1.72222 1.57676 0
M  V30 10644 C 992.238 0.57121 1.60222 0
M  V30 10645 O 993.423 0.810381 1.76484 0
M  V30 10646 C 990.553 1.81666 2.95998 0
M  V30 10647 C 989.507 2.96857 3.08318 0
M  V30 10648 C 988.833 2.91445 4.4829 0
M  V30 10649 C 990.133 4.37361 2.85504 0
M  V30 10650 H 991.827 2.64825 1.39671 0
M  V30 10651 H 989.373 1.27438 0.67049 0
M  V30 10652 H 991.326 1.95514 3.73299 0
M  V30 10653 H 990.05 0.856856 3.1516 0
M  V30 10654 H 988.709 2.82661 2.33449 0
M  V30 10655 H 988.357 1.93309 4.64371 0
M  V30 10656 H 988.057 3.68776 4.57469 0
M  V30 10657 H 989.581 3.07341 5.27611 0
M  V30 10658 H 990.995 4.52081 3.52555 0
M  V30 10659 H 989.392 5.16145 3.06127 0
M  V30 10660 H 990.462 4.49708 1.81359 0
M  V30 10661 N 991.805 -0.723954 1.39988 0
M  V30 10662 C 993.053 -1.48078 1.3754 0
M  V30 10663 C 993.374 -1.94985 -0.0243358 0
M  V30 10664 O 992.644 -1.69764 -0.977602 0
M  V30 10665 H 991.224 -0.549354 0.506181 0
M  V30 10666 H 993.886 -0.858746 1.74962 0
M  V30 10667 H 992.982 -2.35763 2.04505 0
M  V30 10668 N 993.283 -1.25346 -0.955304 0
M  V30 10669 C 994.231 -1.05461 -2.07318 0
M  V30 10670 C 995.225 0.0142699 -1.69394 0
M  V30 10671 O 996.431 -0.141292 -1.79445 0
M  V30 10672 H 992.806 -0.324095 -0.678577 0
M  V30 10673 H 994.777 -2.00231 -2.21247 0
M  V30 10674 C 993.526 -0.689329 -3.40798 0
M  V30 10675 H 992.849 -1.50362 -3.70447 0
M  V30 10676 H 994.289 -0.589883 -4.19877 0
M  V30 10677 C 992.748 0.604556 -3.31431 0
M  V30 10678 O 993.278 1.64686 -3.6639 0
M  V30 10679 N 991.484 0.589927 -2.84549 0
M  V30 10680 H 991.031 -0.258647 -2.56298 0
M  V30 10681 H 990.989 1.4558 -2.78664 0
M  V30 10682 N 994.761 1.15782 -1.06922 0
M  V30 10683 C 995.709 2.22441 -0.679893 0
M  V30 10684 C 996.703 1.66591 0.307221 0
M  V30 10685 O 997.909 1.79182 0.171402 0
M  V30 10686 H 994.284 0.724427 -0.201765 0
M  V30 10687 H 996.255 2.52562 -1.58918 0
M  V30 10688 C 995.004 3.47586 -0.0891142 0
M  V30 10689 H 994.327 3.9088 -0.839805 0
M  V30 10690 H 995.767 4.2375 0.14569 0
M  V30 10691 C 994.226 3.15967 1.16903 0
M  V30 10692 O 994.756 3.32359 2.25611 0
M  V30 10693 N 992.962 2.70046 1.07349 0
M  V30 10694 H 992.509 2.56907 0.188825 0
M  V30 10695 H 992.467 2.49264 1.91611 0
M  V30 10696 N 996.239 0.8527 1.3254 0
M  V30 10697 C 997.516 0.376491 1.91942 0
M  V30 10698 C 997.896 -1.13972 1.7769 0
M  V30 10699 O 997.244 -1.96047 1.17379 0
M  V30 10700 C 997.454 0.838694 3.38773 0
M  V30 10701 C 998.802 0.854736 4.15908 0
M  V30 10702 O 999.826 0.783203 3.47483 0
M  V30 10703 O 998.685 0.955207 5.38087 0
M  V30 10704 H 995.779 0.109412 0.81973 0
M  V30 10705 H 998.325 0.93947 1.41322 0
M  V30 10706 H 997.097 1.88179 3.43081 0
M  V30 10707 H 996.72 0.253055 3.96794 0
M  V30 10708 N 997.718 -1.45297 0.610449 0
M  V30 10709 C 998.65 -2.28742 -0.144884 0
M  V30 10710 C 999.663 -1.40114 -0.828977 0
M  V30 10711 O 1000.85 -1.64461 -0.693887 0
M  V30 10712 C 997.952 -3.15934 -1.22632 0
M  V30 10713 C 997.125 -4.32857 -0.628785 0
M  V30 10714 C 996.184 -5.01237 -1.60148 0
M  V30 10715 O 995.21 -5.57938 -1.12667 0
M  V30 10716 N 996.412 -5.00785 -2.9359 0
M  V30 10717 H 999.177 -2.94207 0.571145 0
M  V30 10718 H 996.738 -1.55517 0.450134 0
M  V30 10719 H 998.73 -3.58545 -1.87691 0
M  V30 10720 H 997.3 -2.52358 -1.84483 0
M  V30 10721 H 996.52 -3.93693 0.199951 0
M  V30 10722 H 997.808 -5.08367 -0.209845 0
M  V30 10723 H 997.206 -4.56014 -3.34765 0
M  V30 10724 H 995.763 -5.4725 -3.54064 0
M  V30 10725 N 999.196 -0.349774 -1.5367 0
M  V30 10726 C 1000.61 0.00191293 -1.596 0
M  V30 10727 C 1000.81 1.48175 -1.36552 0
M  V30 10728 O 999.868 2.24129 -1.16285 0
M  V30 10729 C 1001.18 -0.439848 -2.97466 0
M  V30 10730 C 1002.73 -0.392721 -3.10526 0
M  V30 10731 C 1003.2 -0.810047 -4.5078 0
M  V30 10732 N 1004.69 -0.764478 -4.56848 0
M  V30 10733 C 1005.43 -1.05927 -5.63531 0
M  V30 10734 N 1004.93 -1.42253 -6.78038 0
M  V30 10735 N 1006.72 -0.983098 -5.53436 0
M  V30 10736 H 998.87 -1.31364 -1.66905 0
M  V30 10737 H 1001.13 -0.535908 -0.781989 0
M  V30 10738 H 1000.84 -1.47189 -3.19419 0
M  V30 10739 H 1000.71 0.181735 -3.76762 0
M  V30 10740 H 1003.1 0.630161 -2.88293 0
M  V30 10741 H 1003.18 -1.04959 -2.33275 0
M  V30 10742 H 1002.82 -1.83097 -4.73749 0
M  V30 10743 H 1002.75 -0.130591 -5.26438 0
M  V30 10744 H 1005.25 -0.496637 -3.74622 0
M  V30 10745 H 1005.56 -1.63215 -7.55368 0
M  V30 10746 H 1003.9 -1.46104 -6.79469 0
M  V30 10747 H 1007.09 -0.698601 -4.62858 0
M  V30 10748 H 1007.27 -1.21618 -6.36485 0
M  V30 10749 N 1000.67 1.57404 -0.0785433 0
M  V30 10750 C 1002.08 1.81118 0.45311 0
M  V30 10751 C 1002.44 0.992963 1.69218 0
M  V30 10752 O 1001.56 0.217448 2.15305 0
M  V30 10753 C 1002.16 3.28506 0.82882 0
M  V30 10754 C 1000.71 3.53042 1.3053 0
M  V30 10755 C 999.862 2.75739 0.29378 0
M  V30 10756 H 1002.81 1.55758 -0.304171 0
M  V30 10757 H 1002.83 3.40924 1.68971 0
M  V30 10758 H 1002.35 3.88031 -0.0731826 0
M  V30 10759 H 1000.45 2.98829 2.22558 0
M  V30 10760 H 1000.56 4.61724 1.27857 0
M  V30 10761 H 998.924 2.42703 0.772477 0
M  V30 10762 H 999.707 3.38005 -0.600613 0
M  V30 10763 N 1002.15 -0.195058 1.56388 0
M  V30 10764 C 1003.43 -0.941335 1.71459 0
M  V30 10765 C 1003.81 -2.01375 0.633336 0
M  V30 10766 O 1003.16 -2.25715 -0.35567 0
M  V30 10767 C 1003.37 -1.52772 3.13786 0
M  V30 10768 C 1004.71 -2.00983 3.7402 0
M  V30 10769 O 1005.74 -1.62614 3.16915 0
M  V30 10770 O 1004.6 -2.71586 4.7424 0
M  V30 10771 H 1001.69 -0.441451 0.699321 0
M  V30 10772 H 1004.24 -0.184752 1.68691 0
M  V30 10773 H 1003.01 -0.754699 3.83953 0
M  V30 10774 H 1002.63 -2.34914 3.20782 0
M  V30 10775 N 1003.63 -1.50653 -0.462772 0
M  V30 10776 C 1004.86 -1.65586 -1.23551 0
M  V30 10777 C 1005.27 -0.342012 -1.86083 0
M  V30 10778 O 1004.61 0.686893 -1.70374 0
M  V30 10779 C 1004.67 -2.69555 -2.37867 0
M  V30 10780 C 1004.34 -4.1288 -1.95906 0
M  V30 10781 C 1005.33 -4.98483 -1.47685 0
M  V30 10782 C 1003.02 -4.58843 -2.04373 0
M  V30 10783 C 1005.01 -6.281 -1.08484 0
M  V30 10784 C 1002.7 -5.88464 -1.64783 0
M  V30 10785 C 1003.7 -6.72918 -1.16918 0
M  V30 10786 O 1003.39 -8.00119 -0.778798 0
M  V30 10787 H 1003.12 -0.559438 -0.37948 0
M  V30 10788 H 1005.67 -1.9768 -0.557816 0
M  V30 10789 H 1003.9 -2.3272 -3.08834 0
M  V30 10790 H 1005.59 -2.73624 -2.99808 0
M  V30 10791 H 1006.36 -4.64186 -1.40558 0
M  V30 10792 H 1002.24 -3.93247 -2.40577 0
M  V30 10793 H 1005.78 -6.93972 -0.710524 0
M  V30 10794 H 1001.68 -6.22281 -1.71571 0
M  V30 10795 H 1002.44 -8.1346 -0.906911 0
M  V30 10796 N 1005.11 0.71652 -1.4037 0
M  V30 10797 C 1006.35 1.47857 -1.38803 0
M  V30 10798 C 1006.69 1.94197 0.0100536 0
M  V30 10799 O 1005.96 1.68093 0.978521 0
M  V30 10800 C 1006.25 2.7053 -2.37667 0
M  V30 10801 C 1006.1 2.3009 -3.86496 0
M  V30 10802 C 1007.42 3.72684 -2.34082 0
M  V30 10803 H 1004.54 0.53632 -0.505499 0
M  V30 10804 H 1007.18 0.817824 -1.71498 0
M  V30 10805 H 1005.33 3.26906 -2.09916 0
M  V30 10806 H 1007 1.79202 -4.2507 0
M  V30 10807 H 1005.24 1.62102 -4.02375 0
M  V30 10808 H 1005.91 3.18018 -4.51186 0
M  V30 10809 H 1008.39 3.25935 -2.58661 0
M  V30 10810 H 1007.27 4.56157 -3.05306 0
M  V30 10811 H 1007.53 4.20916 -1.35213 0
M  V30 10812 N 1006.59 1.25851 0.948643 0
M  V30 10813 C 1007.83 1.12127 1.69703 0
M  V30 10814 C 1008.19 -0.333318 1.89491 0
M  V30 10815 O 1007.48 -1.24181 1.4591 0
M  V30 10816 C 1007.67 1.81565 3.07846 0
M  V30 10817 C 1007.5 3.33626 3.01535 0
M  V30 10818 C 1006.27 4.02897 3.04962 0
M  V30 10819 C 1008.47 4.29934 2.82243 0
M  V30 10820 N 1006.45 5.41688 2.88872 0
M  V30 10821 C 1007.82 5.5585 2.74646 0
M  V30 10822 C 1009.88 4.20276 2.66969 0
M  V30 10823 C 1008.58 6.73212 2.53335 0
M  V30 10824 C 1010.61 5.37336 2.4703 0
M  V30 10825 C 1009.97 6.62196 2.40158 0
M  V30 10826 H 1006.07 0.465047 0.628693 0
M  V30 10827 H 1008.65 1.59035 1.12321 0
M  V30 10828 H 1006.82 1.37143 3.63382 0
M  V30 10829 H 1008.56 1.6053 3.715 0
M  V30 10830 H 1005.31 3.54201 3.14386 0
M  V30 10831 H 1005.74 6.14544 2.84015 0
M  V30 10832 H 1010.38 3.24485 2.71053 0
M  V30 10833 H 1008.1 7.69107 2.47993 0
M  V30 10834 H 1011.68 5.31728 2.36128 0
M  V30 10835 H 1010.56 7.51249 2.24933 0
M  V30 10836 N 1008.06 -1.15214 1.07534 0
M  V30 10837 C 1009.01 -2.18022 0.667108 0
M  V30 10838 C 1010 -1.57911 -0.308714 0
M  V30 10839 O 1011.19 -1.76578 -0.122147 0
M  V30 10840 C 1008.32 -3.43232 0.0684348 0
M  V30 10841 C 1007.41 -4.10393 1.06951 0
M  V30 10842 N 1007.8 -4.53013 2.24973 0
M  V30 10843 C 1006.09 -4.36758 0.903262 0
M  V30 10844 C 1006.8 -5.05118 2.88498 0
M  V30 10845 N 1005.77 -4.98777 2.16153 0
M  V30 10846 H 1009.57 -2.48706 1.56597 0
M  V30 10847 H 1007.09 -1.31801 0.948796 0
M  V30 10848 H 1009.08 -4.16197 -0.241934 0
M  V30 10849 H 1007.74 -3.14031 -0.825525 0
M  V30 10850 H 1008.76 -4.4634 2.6268 0
M  V30 10851 H 1005.43 -4.17453 0.0623543 0
M  V30 10852 H 1006.82 -5.48039 3.8872 0
M  V30 10853 N 1009.54 -0.859717 -1.32086 0
M  V30 10854 C 1010.45 -0.31108 -2.32528 0
M  V30 10855 C 1011.47 0.573714 -1.6427 0
M  V30 10856 O 1012.64 0.472878 -1.9577 0
M  V30 10857 C 1009.71 0.487256 -3.43259 0
M  V30 10858 C 1008.77 -0.424279 -4.27198 0
M  V30 10859 C 1008 0.336051 -5.32641 0
M  V30 10860 O 1008.23 1.56541 -5.48499 0
M  V30 10861 O 1007.16 -0.300777 -6.01148 0
M  V30 10862 H 1010.99 -1.14336 -2.81355 0
M  V30 10863 H 1008.57 -0.622794 -1.358 0
M  V30 10864 H 1010.45 0.940203 -4.10777 0
M  V30 10865 H 1009.13 1.29626 -2.96612 0
M  V30 10866 H 1008.04 -0.925509 -3.62471 0
M  V30 10867 H 1009.37 -1.1986 -4.77383 0
M  V30 10868 N 1011.02 1.44971 -0.618145 0
M  V30 10869 C 1012.27 2.0176 -0.11725 0
M  V30 10870 C 1012.59 1.48773 1.26062 0
M  V30 10871 O 1011.86 0.686152 1.83491 0
M  V30 10872 H 1010.44 0.745909 -0.0403545 0
M  V30 10873 H 1013.1 1.77638 -0.801923 0
M  V30 10874 H 1012.2 3.1201 -0.0750477 0
M  V30 10875 N 1012.5 0.357919 1.53482 0
M  V30 10876 C 1013.73 -0.23514 2.05559 0
M  V30 10877 C 1014.14 -1.43068 1.23195 0
M  V30 10878 O 1013.5 -1.80481 0.270741 0
M  V30 10879 C 1013.55 -0.636147 3.55859 0
M  V30 10880 O 1013.27 0.511864 4.35099 0
M  V30 10881 C 1014.77 -1.28841 4.24164 0
M  V30 10882 H 1011.99 -0.0428446 0.669631 0
M  V30 10883 H 1014.54 0.51407 1.97933 0
M  V30 10884 H 1012.69 -1.33528 3.63661 0
M  V30 10885 H 1013.1 0.189328 5.24158 0
M  V30 10886 H 1014.58 -1.51962 5.30671 0
M  V30 10887 H 1015.06 -2.24638 3.77405 0
M  V30 10888 H 1015.66 -0.630914 4.20594 0
M  V30 10889 N 1013.98 -1.5736 0.0868897 0
M  V30 10890 C 1014.94 -2.12436 -0.860439 0
M  V30 10891 C 1015.94 -1.05175 -1.21634 0
M  V30 10892 O 1017.13 -1.31098 -1.14713 0
M  V30 10893 C 1014.26 -2.63818 -2.159 0
M  V30 10894 H 1015.45 -2.97453 -0.382346 0
M  V30 10895 H 1013.01 -1.55458 -0.162009 0
M  V30 10896 H 1013.74 -1.82298 -2.68212 0
M  V30 10897 H 1013.53 -3.42234 -1.91359 0
M  V30 10898 H 1015.02 -3.06452 -2.83685 0
M  V30 10899 N 1015.45 0.186762 -1.56489 0
M  V30 10900 C 1016.7 0.905852 -1.81109 0
M  V30 10901 C 1017.03 1.82906 -0.661477 0
M  V30 10902 O 1016.28 1.92504 0.35226 0
M  V30 10903 C 1016.58 1.74719 -3.11782 0
M  V30 10904 C 1016.25 0.974238 -4.40249 0
M  V30 10905 C 1014.91 0.760856 -4.75147 0
M  V30 10906 C 1017.26 0.430971 -5.19415 0
M  V30 10907 C 1014.59 -0.00714216 -5.867 0
M  V30 10908 C 1016.94 -0.323859 -6.3177 0
M  V30 10909 C 1015.61 -0.548183 -6.65245 0
M  V30 10910 H 1014.88 0.331475 -0.662726 0
M  V30 10911 H 1017.52 0.171703 -1.90729 0
M  V30 10912 H 1015.83 2.55027 -2.97437 0
M  V30 10913 H 1017.53 2.30634 -3.28038 0
M  V30 10914 H 1014.12 1.15057 -4.12868 0
M  V30 10915 H 1018.3 0.583205 -4.92861 0
M  V30 10916 H 1013.56 -0.190832 -6.11102 0
M  V30 10917 H 1017.73 -0.752155 -6.92326 0
M  V30 10918 H 1015.36 -1.14518 -7.51525 0
M  V30 10919 N 1016.93 1.50896 0.454776 0
M  V30 10920 C 1017.88 1.67333 1.54867 0
M  V30 10921 C 1018.87 0.527576 1.52005 0
M  V30 10922 O 1020.06 0.782726 1.58753 0
M  V30 10923 C 1017.19 1.7858 2.93196 0
M  V30 10924 C 1016.27 2.98884 3.0088 0
M  V30 10925 N 1016.66 4.22326 2.78343 0
M  V30 10926 C 1014.96 2.97779 3.32029 0
M  V30 10927 C 1015.66 5.03439 2.91418 0
M  V30 10928 N 1014.64 4.37725 3.22332 0
M  V30 10929 H 1018.44 2.60453 1.36167 0
M  V30 10930 H 1015.96 1.48304 0.661797 0
M  V30 10931 H 1017.95 1.88463 3.7187 0
M  V30 10932 H 1016.61 0.866296 3.1293 0
M  V30 10933 H 1017.62 4.51557 2.53607 0
M  V30 10934 H 1014.3 2.15393 3.57648 0
M  V30 10935 H 1015.69 6.11648 2.78095 0
M  V30 10936 N 1018.41 -0.709066 1.40748 0
M  V30 10937 C 1019.34 -1.83583 1.4429 0
M  V30 10938 C 1020.32 -1.67378 0.303067 0
M  V30 10939 O 1021.51 -1.87312 0.512612 0
M  V30 10940 C 1018.64 -3.21599 1.31116 0
M  V30 10941 C 1017.59 -3.52486 2.4277 0
M  V30 10942 C 1016.92 -4.89716 2.14668 0
M  V30 10943 C 1018.22 -3.52824 3.85113 0
M  V30 10944 H 1019.91 -1.80876 2.38588 0
M  V30 10945 H 1017.46 -0.868795 1.14839 0
M  V30 10946 H 1019.41 -4.00123 1.32209 0
M  V30 10947 H 1018.13 -3.24898 0.332965 0
M  V30 10948 H 1016.79 -2.76305 2.40937 0
M  V30 10949 H 1016.44 -4.89625 1.15224 0
M  V30 10950 H 1016.14 -5.11347 2.89478 0
M  V30 10951 H 1017.66 -5.70566 2.17455 0
M  V30 10952 H 1019.08 -4.21377 3.88734 0
M  V30 10953 H 1017.48 -3.85984 4.59496 0
M  V30 10954 H 1018.55 -2.52073 4.14231 0
M  V30 10955 N 1019.89 -1.26353 -0.941956 0
M  V30 10956 C 1021.14 -1.11851 -1.68806 0
M  V30 10957 C 1021.46 0.33829 -1.91535 0
M  V30 10958 O 1020.72 1.26495 -1.49324 0
M  V30 10959 C 1021.02 -1.83195 -3.06879 0
M  V30 10960 C 1020.68 -3.33093 -3.03908 0
M  V30 10961 C 1019.35 -3.73982 -3.02805 0
M  V30 10962 C 1021.7 -4.28803 -2.96273 0
M  V30 10963 C 1019.03 -5.08971 -2.91832 0
M  V30 10964 C 1021.38 -5.6383 -2.86842 0
M  V30 10965 C 1020.04 -6.04032 -2.84081 0
M  V30 10966 H 1019.31 -0.409293 -0.617706 0
M  V30 10967 H 1021.96 -1.56785 -1.09957 0
M  V30 10968 H 1020.26 -1.30728 -3.69347 0
M  V30 10969 H 1021.96 -1.69416 -3.63455 0
M  V30 10970 H 1018.55 -3.00566 -3.05546 0
M  V30 10971 H 1022.74 -3.98195 -2.96234 0
M  V30 10972 H 1017.99 -5.39282 -2.88072 0
M  V30 10973 H 1022.17 -6.37676 -2.79898 0
M  V30 10974 H 1019.79 -7.08586 -2.75335 0
M  V30 10975 N 1021.37 1.14642 -1.08144 0
M  V30 10976 C 1022.32 2.21708 -0.703448 0
M  V30 10977 C 1023.31 1.66907 0.289535 0
M  V30 10978 O 1024.52 1.79354 0.152387 0
M  V30 10979 H 1020.89 0.722247 -0.209437 0
M  V30 10980 H 1022.86 2.50862 -1.61588 0
M  V30 10981 C 1021.61 3.47472 -0.125975 0
M  V30 10982 H 1020.93 3.89967 -0.881216 0
M  V30 10983 H 1022.37 4.2388 0.100737 0
M  V30 10984 C 1020.83 3.17189 1.13546 0
M  V30 10985 O 1021.36 3.34733 2.22073 0
M  V30 10986 N 1019.57 2.71169 1.04479 0
M  V30 10987 H 1019.12 2.57093 0.161566 0
M  V30 10988 H 1019.07 2.51282 1.88957 0
M  V30 10989 N 1022.85 0.866709 1.31628 0
M  V30 10990 C 1023.78 0.335762 2.31073 0
M  V30 10991 C 1024.76 -0.571597 1.60209 0
M  V30 10992 O 1025.94 -0.489306 1.87935 0
M  V30 10993 C 1023.07 -0.466416 3.44154 0
M  V30 10994 C 1022.03 0.347561 4.26586 0
M  V30 10995 C 1021.35 -0.5801 5.31544 0
M  V30 10996 C 1022.65 1.57986 4.97833 0
M  V30 10997 H 1024.35 1.16673 2.75731 0
M  V30 10998 H 1021.89 0.56248 1.3256 0
M  V30 10999 H 1023.84 -0.84836 4.12772 0
M  V30 11000 H 1022.57 -1.33086 2.98254 0
M  V30 11001 H 1021.23 0.71141 3.59631 0
M  V30 11002 H 1020.88 -1.44174 4.81895 0
M  V30 11003 H 1020.58 -0.0393965 5.87587 0
M  V30 11004 H 1022.1 -0.958958 6.03023 0
M  V30 11005 H 1023.51 1.26954 5.59067 0
M  V30 11006 H 1021.91 2.05939 5.63657 0
M  V30 11007 H 1022.98 2.3345 4.25005 0
M  V30 11008 N 1024.32 -1.44642 0.625825 0
M  V30 11009 C 1025.26 -2.28882 -0.120614 0
M  V30 11010 C 1026.27 -1.40985 -0.81407 0
M  V30 11011 O 1027.46 -1.65188 -0.676404 0
M  V30 11012 C 1024.56 -3.17217 -1.19274 0
M  V30 11013 C 1023.73 -4.33499 -0.582839 0
M  V30 11014 C 1022.79 -5.02908 -1.54823 0
M  V30 11015 O 1021.82 -5.59102 -1.06743 0
M  V30 11016 N 1023.02 -5.0387 -2.88262 0
M  V30 11017 H 1025.78 -2.93585 0.602318 0
M  V30 11018 H 1023.34 -1.5503 0.466604 0
M  V30 11019 H 1025.34 -3.60515 -1.83878 0
M  V30 11020 H 1023.91 -2.54301 -1.81797 0
M  V30 11021 H 1023.13 -3.93458 0.241696 0
M  V30 11022 H 1024.41 -5.08561 -0.155914 0
M  V30 11023 H 1023.81 -4.59539 -3.2991 0
M  V30 11024 H 1022.37 -5.50974 -3.4824 0
M  V30 11025 N 1025.8 -0.366053 -1.5329 0
M  V30 11026 C 1027.08 0.279902 -1.93587 0
M  V30 11027 C 1027.46 1.66352 -1.29963 0
M  V30 11028 O 1026.81 2.23845 -0.458895 0
M  V30 11029 C 1027.02 0.329634 -3.4744 0
M  V30 11030 C 1028.36 0.569754 -4.2076 0
M  V30 11031 O 1029.39 0.410823 -3.53823 0
M  V30 11032 O 1028.25 0.879262 -5.3938 0
M  V30 11033 H 1025.34 0.16802 -0.809752 0
M  V30 11034 H 1027.89 -0.418871 -1.64449 0
M  V30 11035 H 1026.66 -0.640434 -3.86023 0
M  V30 11036 H 1026.28 1.07428 -3.82812 0
M  V30 11037 N 1027.28 1.57312 -0.0952337 0
M  V30 11038 C 1028.53 1.93974 0.567319 0
M  V30 11039 C 1028.85 0.977805 1.68713 0
M  V30 11040 O 1028.12 0.0298944 1.95877 0
M  V30 11041 H 1026.7 0.71612 0.212558 0
M  V30 11042 H 1029.36 1.94254 -0.158598 0
M  V30 11043 H 1028.46 2.964 0.977423 0
M  V30 11044 N 1028.76 -0.17846 1.56586 0
M  V30 11045 C 1029.71 -1.22552 1.92263 0
M  V30 11046 C 1030.69 -1.40163 0.790131 0
M  V30 11047 O 1031.88 -1.42254 1.05322 0
M  V30 11048 C 1029.01 -2.5666 2.27993 0
M  V30 11049 C 1028.1 -2.42772 3.47739 0
M  V30 11050 N 1028.49 -1.98588 4.65185 0
M  V30 11051 C 1026.79 -2.73619 3.52205 0
M  V30 11052 C 1027.49 -1.96991 5.47329 0
M  V30 11053 N 1026.46 -2.39126 4.8818 0
M  V30 11054 H 1030.27 -0.875493 2.80557 0
M  V30 11055 H 1027.78 -0.386785 1.57727 0
M  V30 11056 H 1029.78 -3.32312 2.51743 0
M  V30 11057 H 1028.44 -2.92472 1.41034 0
M  V30 11058 H 1029.45 -1.69036 4.89538 0
M  V30 11059 H 1026.13 -3.13516 2.75706 0
M  V30 11060 H 1027.52 -1.64589 6.51429 0
M  V30 11061 N 1030.24 -1.51135 -0.446768 0
M  V30 11062 C 1031.15 -1.74595 -1.56696 0
M  V30 11063 C 1032.16 -0.629816 -1.62201 0
M  V30 11064 O 1033.34 -0.910987 -1.79619 0
M  V30 11065 C 1030.4 -1.85738 -2.9275 0
M  V30 11066 C 1029.46 -3.09564 -2.97437 0
M  V30 11067 C 1028.7 -3.20165 -4.27001 0
M  V30 11068 O 1028.92 -2.36939 -5.1886 0
M  V30 11069 O 1027.85 -4.13077 -4.3778 0
M  V30 11070 H 1031.68 -2.69601 -1.39817 0
M  V30 11071 H 1029.26 -1.35523 -0.628805 0
M  V30 11072 H 1031.15 -1.95107 -3.73512 0
M  V30 11073 H 1029.82 -0.939184 -3.09776 0
M  V30 11074 H 1028.73 -3.05679 -2.15664 0
M  V30 11075 H 1030.06 -4.01041 -2.85353 0
M  V30 11076 N 1031.71 0.701592 -1.41122 0
M  V30 11077 C 1032.68 1.79733 -1.42227 0
M  V30 11078 C 1033.68 1.57708 -0.313831 0
M  V30 11079 O 1034.87 1.64492 -0.573423 0
M  V30 11080 C 1032 3.18024 -1.22775 0
M  V30 11081 H 1033.19 1.80148 -2.39764 0
M  V30 11082 H 1030.74 0.908624 -1.27176 0
M  V30 11083 H 1031.48 3.23252 -0.260552 0
M  V30 11084 H 1031.26 3.35411 -2.0308 0
M  V30 11085 H 1032.75 3.98021 -1.2637 0
M  V30 11086 N 1033.19 1.2685 0.935242 0
M  V30 11087 C 1034.44 1.12912 1.6846 0
M  V30 11088 C 1034.77 -0.325708 1.91449 0
M  V30 11089 O 1034.05 -1.23884 1.49944 0
M  V30 11090 C 1034.33 1.90513 3.05576 0
M  V30 11091 C 1034.18 3.43936 2.89876 0
M  V30 11092 C 1035.5 1.70363 4.05789 0
M  V30 11093 H 1032.62 0.411559 0.611382 0
M  V30 11094 H 1035.26 1.55917 1.08582 0
M  V30 11095 H 1033.41 1.53963 3.5669 0
M  V30 11096 H 1035.08 3.90272 2.45939 0
M  V30 11097 H 1033.33 3.70659 2.25376 0
M  V30 11098 H 1034 3.93467 3.87153 0
M  V30 11099 H 1036.47 2.02217 3.63659 0
M  V30 11100 H 1035.35 2.27066 4.99732 0
M  V30 11101 H 1035.61 0.649674 4.373 0
M  V30 11102 N 1034.67 -1.14067 1.0875 0
M  V30 11103 C 1035.91 -1.8684 0.828873 0
M  V30 11104 C 1036.27 -1.81235 -0.633879 0
M  V30 11105 O 1037.48 -2.49178 -1.00815 0
M  V30 11106 C 1035.75 -3.31299 1.34073 0
M  V30 11107 S 1037.31 -4.21645 1.21494 0
M  V30 11108 H 1034.12 -0.644622 0.299972 0
M  V30 11109 H 1036.73 -1.37526 1.38949 0
M  V30 11110 H 1035.43 -3.32929 2.39972 0
M  V30 11111 H 1034.96 -3.85672 0.775944 0
M  V30 11112 H 1036.98 -4.95937 0.161446 0
M  V30 11113 N 1036.15 -0.873678 -1.31166 0
M  V30 11114 C 1037.06 -0.335726 -2.32185 0
M  V30 11115 C 1038.07 0.556259 -1.64869 0
M  V30 11116 O 1039.25 0.452087 -1.9626 0
M  V30 11117 C 1036.32 0.450822 -3.43756 0
M  V30 11118 C 1035.38 -0.469565 -4.26724 0
M  V30 11119 C 1034.61 0.279538 -5.32967 0
M  V30 11120 O 1034.83 1.50715 -5.50128 0
M  V30 11121 O 1033.77 -0.36452 -6.00795 0
M  V30 11122 H 1037.59 -1.17314 -2.80127 0
M  V30 11123 H 1035.18 -0.637163 -1.35132 0
M  V30 11124 H 1037.06 0.896582 -4.11752 0
M  V30 11125 H 1035.73 1.26472 -2.9797 0
M  V30 11126 H 1034.64 -0.963902 -3.61469 0
M  V30 11127 H 1035.97 -1.24916 -4.76085 0
M  V30 11128 N 1037.63 1.44308 -0.633487 0
M  V30 11129 C 1038.87 2.02322 -0.139123 0
M  V30 11130 C 1039.21 1.49733 1.23667 0
M  V30 11131 O 1038.48 0.682353 1.82138 0
M  V30 11132 C 1038.76 3.59871 -0.128366 0
M  V30 11133 C 1038.62 4.22737 -1.53667 0
M  V30 11134 C 1039.94 4.36702 0.545834 0
M  V30 11135 H 1037.05 0.735161 -0.0520293 0
M  V30 11136 H 1039.7 1.7185 -0.810411 0
M  V30 11137 H 1037.85 3.85963 0.443263 0
M  V30 11138 H 1039.52 4.07744 -2.15737 0
M  V30 11139 H 1037.76 3.80142 -2.08985 0
M  V30 11140 H 1038.43 5.31757 -1.48116 0
M  V30 11141 H 1040.91 4.16057 0.0596879 0
M  V30 11142 H 1039.78 5.46407 0.522557 0
M  V30 11143 H 1040.05 4.11483 1.6166 0
M  V30 11144 N 1039.1 0.374177 1.53094 0
M  V30 11145 C 1040.52 -0.103172 1.86415 0
M  V30 11146 C 1040.87 -1.47439 1.29446 0
M  V30 11147 O 1039.99 -2.07333 0.619853 0
M  V30 11148 C 1040.59 -0.193988 3.38244 0
M  V30 11149 C 1039.15 -0.615605 3.71332 0
M  V30 11150 C 1038.29 0.23186 2.76329 0
M  V30 11151 H 1041.24 0.592644 1.47219 0
M  V30 11152 H 1041.26 -1.01597 3.66686 0
M  V30 11153 H 1040.78 0.80414 3.79678 0
M  V30 11154 H 1038.88 -1.62165 3.3546 0
M  V30 11155 H 1038.99 -0.38425 4.77557 0
M  V30 11156 H 1037.35 -0.300579 2.5292 0
M  V30 11157 H 1038.14 1.22769 3.20597 0
M  V30 11158 N 1040.58 -1.57259 0.103575 0
M  V30 11159 C 1041.55 -2.13337 -0.837859 0
M  V30 11160 C 1042.55 -1.06459 -1.20512 0
M  V30 11161 O 1043.74 -1.32307 -1.13316 0
M  V30 11162 C 1040.87 -2.66093 -2.13089 0
M  V30 11163 H 1042.06 -2.97842 -0.350775 0
M  V30 11164 H 1039.61 -1.55621 -0.145511 0
M  V30 11165 H 1040.35 -1.85133 -2.66264 0
M  V30 11166 H 1040.13 -3.44244 -1.87719 0
M  V30 11167 H 1041.62 -3.09443 -2.80419 0
M  V30 11168 N 1042.06 0.170153 -1.56679 0
M  V30 11169 C 1043.02 1.19443 -1.95617 0
M  V30 11170 C 1044.02 1.37118 -0.83996 0
M  V30 11171 O 1045.21 1.34504 -1.10699 0
M  V30 11172 C 1042.35 2.55926 -2.25199 0
M  V30 11173 H 1043.54 0.86095 -2.87276 0
M  V30 11174 H 1041.09 0.412646 -1.50755 0
M  V30 11175 H 1041.83 2.94286 -1.36257 0
M  V30 11176 H 1041.61 2.44464 -3.06562 0
M  V30 11177 H 1043.1 3.29742 -2.56242 0
M  V30 11178 N 1043.54 1.5137 0.438746 0
M  V30 11179 C 1044.82 1.54508 1.19944 0
M  V30 11180 C 1045.2 0.308525 2.08833 0
M  V30 11181 O 1044.54 -0.706461 2.17305 0
M  V30 11182 C 1044.75 2.85833 2.00251 0
M  V30 11183 C 1046.1 3.37729 2.5734 0
M  V30 11184 O 1047.13 2.87374 2.10463 0
M  V30 11185 O 1045.98 4.25589 3.42836 0
M  V30 11186 H 1043.08 0.621132 0.546007 0
M  V30 11187 H 1045.62 1.63682 0.447931 0
M  V30 11188 H 1044.4 3.67291 1.34955 0
M  V30 11189 H 1044.02 2.79815 2.8247 0
M  V30 11190 N 1045.02 -0.694098 1.41492 0
M  V30 11191 C 1046.26 -1.45127 1.4065 0
M  V30 11192 C 1046.59 -1.94993 0.0170289 0
M  V30 11193 O 1045.86 -1.71799 -0.941372 0
M  V30 11194 H 1044.44 -0.538493 0.51772 0
M  V30 11195 H 1047.1 -0.821441 1.76744 0
M  V30 11196 H 1046.19 -2.31372 2.0946 0
M  V30 11197 N 1046.49 -1.27344 -0.928501 0
M  V30 11198 C 1047.72 -1.16557 -1.7155 0
M  V30 11199 C 1048.14 0.274044 -1.86093 0
M  V30 11200 O 1047.5 1.19847 -1.36038 0
M  V30 11201 C 1047.55 -1.85332 -3.09329 0
M  V30 11202 O 1046.65 -1.15074 -3.9602 0
M  V30 11203 H 1046 -0.405423 -0.525859 0
M  V30 11204 H 1048.53 -1.68399 -1.16202 0
M  V30 11205 H 1048.54 -1.92659 -3.59648 0
M  V30 11206 H 1047.21 -2.90056 -2.98061 0
M  V30 11207 H 1045.79 -1.1581 -3.54461 0
M  V30 11208 N 1047.97 1.13488 -1.09353 0
M  V30 11209 C 1049.22 1.85022 -0.830354 0
M  V30 11210 C 1049.55 1.83266 0.64242 0
M  V30 11211 O 1048.83 1.27024 1.47293 0
M  V30 11212 C 1049.11 3.33218 -1.36521 0
M  V30 11213 C 1048.96 3.43491 -2.90404 0
M  V30 11214 C 1050.28 4.28626 -0.998381 0
M  V30 11215 H 1047.4 0.671786 -0.303105 0
M  V30 11216 H 1050.04 1.33211 -1.3548 0
M  V30 11217 H 1048.19 3.77471 -0.919117 0
M  V30 11218 H 1049.86 3.07954 -3.43456 0
M  V30 11219 H 1048.11 2.84391 -3.27573 0
M  V30 11220 H 1048.78 4.47702 -3.22905 0
M  V30 11221 H 1051.25 3.9244 -1.38311 0
M  V30 11222 H 1050.13 5.30754 -1.39968 0
M  V30 11223 H 1050.39 4.42001 0.093517 0
M  V30 11224 N 1049.45 0.880621 1.30701 0
M  V30 11225 C 1050.7 0.492957 1.95583 0
M  V30 11226 C 1051.01 -0.961863 1.70316 0
M  V30 11227 O 1052.22 -1.45617 2.29146 0
M  V30 11228 C 1050.68 0.830656 3.50183 0
M  V30 11229 C 1050.28 2.30295 3.84276 0
M  V30 11230 C 1052.03 0.511979 4.21401 0
M  V30 11231 C 1049.93 2.58251 5.32034 0
M  V30 11232 H 1048.86 0.18062 0.732047 0
M  V30 11233 H 1051.52 1.075 1.48715 0
M  V30 11234 H 1049.9 0.177752 3.95601 0
M  V30 11235 H 1051.07 2.99981 3.49783 0
M  V30 11236 H 1049.39 2.58873 3.2615 0
M  V30 11237 H 1051.98 0.697935 5.30125 0
M  V30 11238 H 1052.33 -0.548327 4.12673 0
M  V30 11239 H 1052.86 1.12189 3.81652 0
M  V30 11240 H 1049.6 3.63005 5.45809 0
M  V30 11241 H 1049.12 1.9317 5.67843 0
M  V30 11242 H 1050.8 2.43527 5.99419 0
M  V30 11243 N 1050.93 -1.4397 0.641131 0
M  V30 11244 C 1052.18 -2.01946 0.149629 0
M  V30 11245 C 1052.5 -1.50496 -1.23212 0
M  V30 11246 O 1051.76 -0.683453 -1.83378 0
M  V30 11247 C 1052.06 -3.5727 0.0963368 0
M  V30 11248 C 1051.72 -4.28016 1.4182 0
M  V30 11249 C 1050.39 -4.47059 1.78021 0
M  V30 11250 C 1052.74 -4.68183 2.29028 0
M  V30 11251 C 1050.07 -5.03532 3.01119 0
M  V30 11252 C 1052.42 -5.26019 3.51406 0
M  V30 11253 C 1051.08 -5.4328 3.87818 0
M  V30 11254 H 1050.35 -0.738974 0.0547531 0
M  V30 11255 H 1053 -1.72605 0.829436 0
M  V30 11256 H 1051.3 -3.86083 -0.666879 0
M  V30 11257 H 1053 -3.99871 -0.300635 0
M  V30 11258 H 1049.59 -4.13531 1.12651 0
M  V30 11259 H 1053.78 -4.53175 2.02353 0
M  V30 11260 H 1049.03 -5.15082 3.29395 0
M  V30 11261 H 1053.21 -5.56092 4.19208 0
M  V30 11262 H 1050.83 -5.86805 4.83284 0
M  V30 11263 N 1052.41 -0.382291 -1.52893 0
M  V30 11264 C 1053.64 0.202408 -2.05908 0
M  V30 11265 C 1054.05 1.4109 -1.25456 0
M  V30 11266 O 1053.41 1.80027 -0.29942 0
M  V30 11267 C 1053.46 0.579452 -3.56826 0
M  V30 11268 O 1053.18 -0.58102 -4.3423 0
M  V30 11269 C 1054.68 1.22076 -4.2616 0
M  V30 11270 H 1051.9 0.0321859 -0.670228 0
M  V30 11271 H 1054.44 -0.545494 -1.9709 0
M  V30 11272 H 1052.6 1.27726 -3.65739 0
M  V30 11273 H 1053.01 -0.272693 -5.23791 0
M  V30 11274 H 1054.49 1.435 -5.33021 0
M  V30 11275 H 1054.96 2.18605 -3.80931 0
M  V30 11276 H 1055.57 0.563922 -4.21545 0
M  V30 11277 N 1053.89 1.57202 -0.111913 0
M  V30 11278 C 1054.82 2.17957 0.837683 0
M  V30 11279 C 1055.8 1.1176 1.28233 0
M  V30 11280 O 1056.98 1.39967 1.34621 0
M  V30 11281 C 1054.11 2.77333 2.09054 0
M  V30 11282 C 1053.07 3.8905 1.78393 0
M  V30 11283 C 1052.39 4.35203 3.10649 0
M  V30 11284 C 1053.69 5.11477 1.05775 0
M  V30 11285 H 1055.39 2.9756 0.331441 0
M  V30 11286 H 1052.93 1.43131 0.157979 0
M  V30 11287 H 1054.88 3.18492 2.75936 0
M  V30 11288 H 1053.61 1.95009 2.6199 0
M  V30 11289 H 1052.27 3.48456 1.13903 0
M  V30 11290 H 1051.92 3.49747 3.61506 0
M  V30 11291 H 1051.62 5.10534 2.9091 0
M  V30 11292 H 1053.14 4.79007 3.78661 0
M  V30 11293 H 1054.55 5.497 1.62798 0
M  V30 11294 H 1052.95 5.92346 0.961573 0
M  V30 11295 H 1054.02 4.84881 0.043297 0
M  V30 11296 N 1055.36 -0.161842 1.56767 0
M  V30 11297 C 1056.31 -1.2002 1.97139 0
M  V30 11298 C 1057.28 -1.43486 0.836713 0
M  V30 11299 O 1058.47 -1.56069 1.0976 0
M  V30 11300 C 1055.61 -2.53228 2.34456 0
M  V30 11301 C 1054.72 -2.37062 3.61145 0
M  V30 11302 C 1053.85 -3.63202 3.87631 0
M  V30 11303 C 1052.89 -3.42008 5.07638 0
M  V30 11304 N 1052.03 -4.60242 5.30209 0
M  V30 11305 H 1056.87 -0.848918 2.85653 0
M  V30 11306 H 1054.41 -0.407753 1.41336 0
M  V30 11307 H 1056.36 -3.30879 2.54116 0
M  V30 11308 H 1054.99 -2.86333 1.4904 0
M  V30 11309 H 1054.05 -1.50539 3.49345 0
M  V30 11310 H 1055.36 -2.17353 4.48953 0
M  V30 11311 H 1054.51 -4.49285 4.0771 0
M  V30 11312 H 1053.25 -3.85899 2.98216 0
M  V30 11313 H 1052.26 -2.54312 4.87448 0
M  V30 11314 H 1053.48 -3.20724 5.98593 0
M  V30 11315 H 1051.43 -4.8314 4.43747 0
M  V30 11316 H 1051.34 -4.43481 6.12259 0
M  V30 11317 H 1052.61 -5.47581 5.54775 0
M  V30 11318 N 1056.84 -1.516 -0.430713 0
M  V30 11319 C 1057.8 -1.72794 -1.50582 0
M  V30 11320 C 1058.8 -0.597903 -1.49271 0
M  V30 11321 O 1059.99 -0.865535 -1.51176 0
M  V30 11322 C 1057.13 -1.79049 -2.90093 0
M  V30 11323 H 1058.32 -2.68751 -1.33091 0
M  V30 11324 H 1055.87 -1.4169 -0.659822 0
M  V30 11325 H 1056.61 -0.849309 -3.12981 0
M  V30 11326 H 1056.39 -2.61181 -2.92449 0
M  V30 11327 H 1057.88 -1.97262 -3.68072 0
M  V30 11328 N 1058.32 0.686584 -1.41858 0
M  V30 11329 C 1059.28 1.78214 -1.44126 0
M  V30 11330 C 1060.28 1.57366 -0.330541 0
M  V30 11331 O 1061.47 1.63874 -0.590837 0
M  V30 11332 C 1058.6 3.16704 -1.26142 0
M  V30 11333 H 1059.8 1.77594 -2.41661 0
M  V30 11334 H 1057.35 0.895085 -1.28132 0
M  V30 11335 H 1058.09 3.22957 -0.294823 0
M  V30 11336 H 1057.87 3.33238 -2.06627 0
M  V30 11337 H 1059.36 3.96658 -1.30584 0
M  V30 11338 N 1059.8 1.27835 0.921735 0
M  V30 11339 C 1061.21 1.05369 1.19873 0
M  V30 11340 C 1061.41 -0.208997 2.00413 0
M  V30 11341 O 1060.47 -0.912861 2.35421 0
M  V30 11342 C 1061.78 2.29658 1.94108 0
M  V30 11343 C 1063.33 2.34756 2.07023 0
M  V30 11344 C 1063.81 3.5879 2.84664 0
M  V30 11345 N 1065.3 3.59383 2.9223 0
M  V30 11346 C 1066.03 4.52029 3.52785 0
M  V30 11347 N 1065.53 5.54986 4.14683 0
M  V30 11348 N 1067.32 4.39641 3.50246 0
M  V30 11349 H 1059.47 2.08903 0.383819 0
M  V30 11350 H 1061.73 0.919065 0.232429 0
M  V30 11351 H 1061.44 3.21604 1.4235 0
M  V30 11352 H 1061.31 2.35444 2.94696 0
M  V30 11353 H 1063.7 1.43312 2.57965 0
M  V30 11354 H 1063.78 2.32969 1.05636 0
M  V30 11355 H 1063.43 4.50574 2.34404 0
M  V30 11356 H 1063.36 3.57829 3.86349 0
M  V30 11357 H 1065.85 2.84927 2.48244 0
M  V30 11358 H 1066.16 6.21837 4.58845 0
M  V30 11359 H 1064.51 5.58822 4.13211 0
M  V30 11360 H 1067.7 3.58413 3.01094 0
M  V30 11361 H 1067.87 5.12033 3.97148 0
M  V30 11362 N 1061.28 -1.12907 1.09954 0
M  V30 11363 C 1062.5 -1.88138 0.860905 0
M  V30 11364 C 1062.92 -1.79402 -0.588256 0
M  V30 11365 O 1062.28 -1.16442 -1.40526 0
M  V30 11366 C 1062.33 -3.37537 1.29425 0
M  V30 11367 O 1062.05 -3.46056 2.68658 0
M  V30 11368 C 1063.55 -4.29721 1.08879 0
M  V30 11369 H 1060.77 -0.595437 0.309347 0
M  V30 11370 H 1063.31 -1.42894 1.46292 0
M  V30 11371 H 1061.47 -3.80344 0.736009 0
M  V30 11372 H 1061.88 -4.38969 2.87065 0
M  V30 11373 H 1063.36 -5.32854 1.4412 0
M  V30 11374 H 1063.83 -4.39192 0.0270053 0
M  V30 11375 H 1064.44 -3.9269 1.63325 0
M  V30 11376 N 1062.75 -0.88754 -1.30232 0
M  V30 11377 C 1064 -0.506277 -1.95656 0
M  V30 11378 C 1064.32 0.948191 -1.70395 0
M  V30 11379 O 1063.59 1.66701 -1.02895 0
M  V30 11380 H 1062.17 -0.184235 -0.723924 0
M  V30 11381 H 1064.83 -1.13118 -1.58715 0
M  V30 11382 H 1063.93 -0.678673 -3.04632 0
M  V30 11383 N 1064.23 1.43628 -0.648757 0
M  V30 11384 C 1065.18 2.32529 0.057536 0
M  V30 11385 C 1066.17 1.48358 0.817699 0
M  V30 11386 O 1067.38 1.64595 0.728605 0
M  V30 11387 H 1063.76 0.75107 0.037388 0
M  V30 11388 H 1065.73 2.89829 -0.710062 0
M  V30 11389 C 1064.48 3.32605 1.01336 0
M  V30 11390 H 1063.8 3.97395 0.437855 0
M  V30 11391 H 1065.24 3.97453 1.47672 0
M  V30 11392 C 1063.7 2.62865 2.10722 0
M  V30 11393 O 1064.23 2.4408 3.19042 0
M  V30 11394 N 1062.43 2.22312 1.87152 0
M  V30 11395 H 1061.98 2.3779 0.990644 0
M  V30 11396 H 1061.94 1.75979 2.60536 0
M  V30 11397 N 1065.71 0.390394 1.52688 0
M  V30 11398 C 1066.94 -0.191485 2.06012 0
M  V30 11399 C 1067.35 -1.40422 1.26202 0
M  V30 11400 O 1066.71 -1.79866 0.308963 0
M  V30 11401 C 1066.76 -0.560521 3.57128 0
M  V30 11402 O 1066.48 0.60404 4.33916 0
M  V30 11403 C 1067.98 -1.19814 4.26801 0
M  V30 11404 H 1065.2 -0.0286311 0.670389 0
M  V30 11405 H 1067.75 0.555939 1.96798 0
M  V30 11406 H 1065.9 -1.25784 3.66411 0
M  V30 11407 H 1066.32 0.300467 5.23639 0
M  V30 11408 H 1067.79 -1.40672 5.33775 0
M  V30 11409 H 1068.27 -2.16582 3.82085 0
M  V30 11410 H 1068.87 -0.541558 4.21838 0
M  V30 11411 N 1067.19 -1.57141 0.120249 0
M  V30 11412 C 1068.44 -1.94413 -0.53727 0
M  V30 11413 C 1068.75 -1.00594 -1.67751 0
M  V30 11414 O 1069.96 -1.27336 -2.39787 0
M  V30 11415 C 1068.41 -3.45521 -1.00714 0
M  V30 11416 C 1068.02 -4.47878 0.104706 0
M  V30 11417 C 1069.76 -3.9171 -1.63596 0
M  V30 11418 C 1067.67 -5.90165 -0.381932 0
M  V30 11419 H 1066.6 -0.725745 -0.204475 0
M  V30 11420 H 1069.25 -1.82404 0.200302 0
M  V30 11421 H 1067.63 -3.52769 -1.79917 0
M  V30 11422 H 1068.81 -4.523 0.881002 0
M  V30 11423 H 1067.12 -4.11448 0.640264 0
M  V30 11424 H 1069.72 -4.95433 -2.01122 0
M  V30 11425 H 1070.06 -3.31756 -2.51483 0
M  V30 11426 H 1070.6 -3.87268 -0.909319 0
M  V30 11427 H 1067.34 -6.53877 0.460921 0
M  V30 11428 H 1066.86 -5.89161 -1.12468 0
M  V30 11429 H 1068.53 -6.41488 -0.842748 0
M  V30 11430 N 1068.67 0.153526 -1.5685 0
M  V30 11431 C 1069.89 0.882335 -1.87143 0
M  V30 11432 C 1070.31 1.75034 -0.707702 0
M  V30 11433 O 1069.67 1.79624 0.32273 0
M  V30 11434 C 1069.72 1.74444 -3.16625 0
M  V30 11435 O 1069.44 0.911419 -4.28515 0
M  V30 11436 C 1070.94 2.58139 -3.60388 0
M  V30 11437 H 1068.16 0.25546 -0.620469 0
M  V30 11438 H 1070.7 0.148275 -2.03962 0
M  V30 11439 H 1068.86 2.43163 -3.0158 0
M  V30 11440 H 1069.27 1.50268 -5.02513 0
M  V30 11441 H 1070.75 3.14215 -4.53842 0
M  V30 11442 H 1071.22 3.33865 -2.85361 0
M  V30 11443 H 1071.83 1.94721 -3.78105 0
M  V30 11444 N 1070.14 1.51827 0.422667 0
M  V30 11445 C 1071.39 1.65464 1.17258 0
M  V30 11446 C 1071.72 0.376834 1.90509 0
M  V30 11447 O 1071 -0.624219 1.84211 0
M  V30 11448 C 1071.28 2.86776 2.17788 0
M  V30 11449 C 1071.13 4.24571 1.48523 0
M  V30 11450 C 1072.45 3.03603 3.18611 0
M  V30 11451 H 1069.57 0.602169 0.424925 0
M  V30 11452 H 1072.21 1.84349 0.45996 0
M  V30 11453 H 1070.36 2.70806 2.78561 0
M  V30 11454 H 1072.04 4.5224 0.909739 0
M  V30 11455 H 1070.28 4.26595 0.787354 0
M  V30 11456 H 1070.95 5.05475 2.2181 0
M  V30 11457 H 1073.43 3.18381 2.67904 0
M  V30 11458 H 1072.3 3.90022 3.8623 0
M  V30 11459 H 1072.56 2.16318 3.85563 0
M  V30 11460 N 1071.62 -0.679052 1.4222 0
M  V30 11461 C 1072.85 -1.46747 1.45852 0
M  V30 11462 C 1073.27 -1.88675 0.0685937 0
M  V30 11463 O 1072.62 -1.57861 -0.915757 0
M  V30 11464 C 1072.67 -2.71935 2.38188 0
M  V30 11465 O 1072.39 -2.31768 3.71773 0
M  V30 11466 C 1073.9 -3.65536 2.50796 0
M  V30 11467 H 1071.12 -0.451682 0.49621 0
M  V30 11468 H 1073.66 -0.834723 1.86689 0
M  V30 11469 H 1071.81 -3.31409 2.00616 0
M  V30 11470 H 1072.23 -3.12579 4.21182 0
M  V30 11471 H 1073.7 -4.50113 3.19535 0
M  V30 11472 H 1074.18 -4.11148 1.54447 0
M  V30 11473 H 1074.79 -3.11957 2.89072 0
M  V30 11474 N 1073.1 -1.28322 -0.914942 0
M  V30 11475 C 1074.35 -1.15179 -1.66067 0
M  V30 11476 C 1074.67 0.300279 -1.92674 0
M  V30 11477 O 1073.94 1.20821 -1.54205 0
M  V30 11478 H 1072.52 -0.423264 -0.615513 0
M  V30 11479 H 1075.18 -1.61034 -1.09791 0
M  V30 11480 H 1074.28 -1.69048 -2.62353 0
M  V30 11481 N 1074.58 1.12322 -1.10551 0
M  V30 11482 C 1075.54 2.16273 -0.758844 0
M  V30 11483 C 1076.54 1.59325 0.217294 0
M  V30 11484 O 1077.73 1.74199 -0.00601346 0
M  V30 11485 C 1074.86 3.40674 -0.124238 0
M  V30 11486 H 1076.06 2.48454 -1.6796 0
M  V30 11487 H 1073.61 1.2735 -0.906188 0
M  V30 11488 H 1074.34 3.14094 0.807194 0
M  V30 11489 H 1074.13 3.83284 -0.826772 0
M  V30 11490 H 1075.62 4.17474 0.102502 0
M  V30 11491 N 1076.06 0.894434 1.2976 0
M  V30 11492 C 1077.3 0.516646 1.95385 0
M  V30 11493 C 1077.63 -0.939141 1.70895 0
M  V30 11494 O 1076.9 -1.66153 1.03778 0
M  V30 11495 H 1075.48 0.188072 0.722937 0
M  V30 11496 H 1078.14 1.13958 1.58113 0
M  V30 11497 H 1077.23 0.694819 3.04267 0
M  V30 11498 N 1077.53 -1.43282 0.656365 0
M  V30 11499 C 1078.44 -2.34576 -0.033864 0
M  V30 11500 C 1079.46 -1.5406 -0.808793 0
M  V30 11501 O 1080.64 -1.867 -0.755322 0
M  V30 11502 C 1077.7 -3.32378 -0.986197 0
M  V30 11503 C 1076.76 -4.28797 -0.207851 0
M  V30 11504 C 1076 -5.21927 -1.11482 0
M  V30 11505 O 1076.22 -5.19554 -2.35414 0
M  V30 11506 O 1075.15 -5.99045 -0.585536 0
M  V30 11507 H 1078.98 -2.95099 0.717668 0
M  V30 11508 H 1076.56 -1.43475 0.416556 0
M  V30 11509 H 1078.45 -3.9251 -1.53341 0
M  V30 11510 H 1077.12 -2.74354 -1.7179 0
M  V30 11511 H 1076.03 -3.72134 0.383022 0
M  V30 11512 H 1077.36 -4.89811 0.48435 0
M  V30 11513 N 1079.01 -0.398486 -1.52479 0
M  V30 11514 C 1079.98 0.420206 -2.25315 0
M  V30 11515 C 1080.98 0.982559 -1.27289 0
M  V30 11516 O 1082.17 0.863113 -1.51314 0
M  V30 11517 C 1079.3 1.59045 -3.01525 0
M  V30 11518 H 1080.49 -0.217599 -2.9911 0
M  V30 11519 H 1078.04 -0.150784 -1.55571 0
M  V30 11520 H 1078.78 2.26542 -2.32054 0
M  V30 11521 H 1078.56 1.19382 -3.73484 0
M  V30 11522 H 1080.05 2.16984 -3.56802 0
M  V30 11523 N 1080.49 1.57075 -0.12858 0
M  V30 11524 C 1081.44 2.15816 0.818064 0
M  V30 11525 C 1082.41 1.08581 1.25696 0
M  V30 11526 O 1083.59 1.36535 1.33277 0
M  V30 11527 C 1080.73 2.76943 2.05905 0
M  V30 11528 C 1079.85 3.98514 1.66764 0
M  V30 11529 C 1078.98 4.47698 2.85902 0
M  V30 11530 C 1078.02 5.61778 2.43047 0
M  V30 11531 N 1077.16 6.05662 3.5513 0
M  V30 11532 H 1082 2.9638 0.310318 0
M  V30 11533 H 1079.53 1.46418 0.141472 0
M  V30 11534 H 1081.49 3.10519 2.78629 0
M  V30 11535 H 1080.12 1.99053 2.54122 0
M  V30 11536 H 1079.17 3.71038 0.838766 0
M  V30 11537 H 1080.49 4.81215 1.31277 0
M  V30 11538 H 1079.64 4.83233 3.66839 0
M  V30 11539 H 1078.38 3.63967 3.24622 0
M  V30 11540 H 1077.38 5.25838 1.60544 0
M  V30 11541 H 1078.61 6.47282 2.05433 0
M  V30 11542 H 1076.56 5.2487 3.93506 0
M  V30 11543 H 1076.47 6.83242 3.23598 0
M  V30 11544 H 1077.74 6.45838 4.36479 0
M  V30 11545 N 1081.97 -0.145205 1.5693 0
M  V30 11546 C 1082.92 -1.19841 1.99351 0
M  V30 11547 C 1083.91 -1.44371 0.886197 0
M  V30 11548 O 1085.12 -1.44642 1.07138 0
M  V30 11549 H 1081.49 -0.403437 0.63462 0
M  V30 11550 H 1083.46 -0.813932 2.87085 0
M  V30 11551 C 1082.21 -2.52377 2.39167 0
M  V30 11552 H 1081.54 -2.34332 3.23927 0
M  V30 11553 H 1082.98 -3.24694 2.72671 0
M  V30 11554 C 1081.43 -3.1305 1.24503 0
M  V30 11555 O 1081.96 -3.97962 0.546739 0
M  V30 11556 N 1080.17 -2.72528 1.00882 0
M  V30 11557 H 1079.72 -2.03576 1.57843 0
M  V30 11558 H 1079.68 -3.13456 0.24351 0
M  V30 11559 N 1083.45 -1.52049 -0.414609 0
M  V30 11560 C 1084.69 -1.67041 -1.16056 0
M  V30 11561 C 1085.05 -0.392768 -1.88348 0
M  V30 11562 O 1084.34 0.612547 -1.81545 0
M  V30 11563 C 1084.54 -2.82735 -2.18622 0
M  V30 11564 C 1084.36 -4.21627 -1.564 0
M  V30 11565 C 1083.13 -4.87234 -1.33907 0
M  V30 11566 C 1085.33 -5.03924 -1.02785 0
M  V30 11567 N 1083.31 -6.10175 -0.67521 0
M  V30 11568 C 1084.69 -6.18056 -0.490589 0
M  V30 11569 C 1086.74 -4.89293 -0.921791 0
M  V30 11570 C 1085.44 -7.19159 0.14234 0
M  V30 11571 C 1087.47 -5.90625 -0.302724 0
M  V30 11572 C 1086.83 -7.04044 0.223891 0
M  V30 11573 H 1082.93 -0.664947 -0.411544 0
M  V30 11574 H 1085.51 -1.89339 -0.453743 0
M  V30 11575 H 1083.69 -2.62062 -2.86668 0
M  V30 11576 H 1085.42 -2.86792 -2.85539 0
M  V30 11577 H 1082.17 -4.45499 -1.60709 0
M  V30 11578 H 1082.6 -6.76042 -0.360062 0
M  V30 11579 H 1087.24 -4.01838 -1.31477 0
M  V30 11580 H 1084.96 -8.06244 0.547392 0
M  V30 11581 H 1088.54 -5.81375 -0.222252 0
M  V30 11582 H 1087.42 -7.81111 0.695377 0
M  V30 11583 N 1084.93 0.6715 -1.42579 0
M  V30 11584 C 1086.15 1.45972 -1.46628 0
M  V30 11585 C 1086.57 1.88636 -0.0785986 0
M  V30 11586 O 1085.93 1.58345 0.907372 0
M  V30 11587 C 1085.98 2.70668 -2.39627 0
M  V30 11588 O 1085.7 2.29793 -3.72997 0
M  V30 11589 C 1087.2 3.64201 -2.52731 0
M  V30 11590 H 1084.42 0.449044 -0.498598 0
M  V30 11591 H 1086.96 0.824811 -1.87129 0
M  V30 11592 H 1085.12 3.3034 -2.02371 0
M  V30 11593 H 1085.53 3.10341 -4.22834 0
M  V30 11594 H 1087.01 4.48412 -3.21918 0
M  V30 11595 H 1087.48 4.10323 -1.56626 0
M  V30 11596 H 1088.09 3.1042 -2.90722 0
M  V30 11597 N 1086.4 1.28806 0.908124 0
M  V30 11598 C 1087.33 1.15758 2.02787 0
M  V30 11599 C 1088.31 0.053911 1.70015 0
M  V30 11600 O 1089.5 0.231901 1.9281 0
M  V30 11601 C 1086.63 0.824526 3.37371 0
M  V30 11602 C 1085.58 1.88359 3.84324 0
M  V30 11603 C 1084.91 1.40404 5.15937 0
M  V30 11604 C 1086.21 3.29108 4.05568 0
M  V30 11605 H 1087.9 2.09431 2.13961 0
M  V30 11606 H 1085.45 1.00831 1.02806 0
M  V30 11607 H 1087.4 0.71999 4.15204 0
M  V30 11608 H 1086.13 -0.147902 3.26265 0
M  V30 11609 H 1084.79 1.97736 3.087 0
M  V30 11610 H 1084.43 0.420515 5.01239 0
M  V30 11611 H 1084.13 2.11224 5.48323 0
M  V30 11612 H 1085.66 1.31283 5.9632 0
M  V30 11613 H 1087.07 3.2262 4.73909 0
M  V30 11614 H 1085.47 3.97812 4.49294 0
M  V30 11615 H 1086.54 3.72709 3.10187 0
M  V30 11616 N 1087.88 -1.11734 1.11145 0
M  V30 11617 C 1089.12 -1.85039 0.868318 0
M  V30 11618 C 1089.49 -1.82538 -0.595294 0
M  V30 11619 O 1090.69 -2.5126 -0.955071 0
M  V30 11620 C 1088.96 -3.28381 1.4107 0
M  V30 11621 S 1090.52 -4.18973 1.3041 0
M  V30 11622 H 1087.33 -0.638114 0.313578 0
M  V30 11623 H 1089.94 -1.34548 1.41835 0
M  V30 11624 H 1088.64 -3.27764 2.46979 0
M  V30 11625 H 1088.17 -3.83939 0.857576 0
M  V30 11626 H 1090.19 -4.95483 0.266605 0
M  V30 11627 N 1089.36 -0.901303 -1.29284 0
M  V30 11628 C 1090.29 -0.396909 -2.30102 0
M  V30 11629 C 1091.27 0.528919 -1.61668 0
M  V30 11630 O 1092.46 0.439306 -1.89166 0
M  V30 11631 C 1089.59 0.375006 -3.45269 0
M  V30 11632 C 1088.54 -0.46054 -4.25515 0
M  V30 11633 C 1087.87 0.438967 -5.32895 0
M  V30 11634 C 1089.17 -1.7113 -4.93469 0
M  V30 11635 H 1090.86 -1.23943 -2.72541 0
M  V30 11636 H 1088.41 -0.597428 -1.31022 0
M  V30 11637 H 1090.36 0.738622 -4.14876 0
M  V30 11638 H 1089.08 1.25132 -3.01678 0
M  V30 11639 H 1087.74 -0.80651 -3.57618 0
M  V30 11640 H 1087.39 1.31346 -4.85548 0
M  V30 11641 H 1087.09 -0.116406 -5.87485 0
M  V30 11642 H 1088.61 0.79874 -6.05353 0
M  V30 11643 H 1090.03 -1.41732 -5.55504 0
M  V30 11644 H 1088.42 -2.20811 -5.57999 0
M  V30 11645 H 1089.49 -2.44636 -4.18666 0
M  V30 11646 N 1090.84 1.42931 -0.663954 0
M  V30 11647 C 1092.25 1.56098 -0.332496 0
M  V30 11648 C 1092.45 1.64564 1.16279 0
M  V30 11649 O 1091.51 1.6066 1.94794 0
M  V30 11650 C 1092.82 2.81649 -1.05329 0
M  V30 11651 C 1094.37 2.95408 -1.03457 0
M  V30 11652 C 1094.85 4.23805 -1.73647 0
M  V30 11653 N 1096.34 4.30693 -1.70462 0
M  V30 11654 C 1097.07 5.28833 -2.21637 0
M  V30 11655 N 1096.57 6.33189 -2.81147 0
M  V30 11656 N 1098.36 5.20558 -2.12075 0
M  V30 11657 H 1090.51 1.3568 -1.63416 0
M  V30 11658 H 1092.77 0.652361 -0.687844 0
M  V30 11659 H 1092.48 2.81494 -2.10842 0
M  V30 11660 H 1092.35 3.72208 -0.611626 0
M  V30 11661 H 1094.74 2.95097 0.0121936 0
M  V30 11662 H 1094.82 2.06109 -1.51502 0
M  V30 11663 H 1094.47 4.24876 -2.78285 0
M  V30 11664 H 1094.4 5.12019 -1.2306 0
M  V30 11665 H 1096.89 3.55904 -1.27046 0
M  V30 11666 H 1097.2 7.04411 -3.17844 0
M  V30 11667 H 1095.55 6.33781 -2.85212 0
M  V30 11668 H 1098.74 4.3795 -1.6528 0
M  V30 11669 H 1098.91 5.96881 -2.52264 0
M  V30 11670 N 1092.32 0.406567 1.52266 0
M  V30 11671 C 1093.26 -0.43489 2.28498 0
M  V30 11672 C 1094.26 -1.04806 1.33086 0
M  V30 11673 O 1095.46 -0.986557 1.50556 0
M  V30 11674 H 1091.84 -0.159023 0.734994 0
M  V30 11675 H 1093.81 0.229316 2.97518 0
M  V30 11676 C 1092.56 -1.54073 3.117 0
M  V30 11677 H 1091.88 -1.07824 3.84986 0
M  V30 11678 H 1093.32 -2.10337 3.6815 0
M  V30 11679 C 1091.78 -2.50662 2.251 0
M  V30 11680 O 1092.31 -3.54486 1.88951 0
M  V30 11681 N 1090.52 -2.20811 1.8892 0
M  V30 11682 H 1090.06 -1.36413 2.18516 0
M  V30 11683 H 1090.02 -2.85684 1.3127 0
M  V30 11684 N 1093.79 -1.57004 0.136909 0
M  V30 11685 C 1095.04 -1.96087 -0.517477 0
M  V30 11686 C 1095.37 -1.0213 -1.65176 0
M  V30 11687 O 1094.65 -0.0617958 -1.94402 0
M  V30 11688 C 1094.93 -3.44958 -1.03323 0
M  V30 11689 C 1094.78 -4.49691 0.0988609 0
M  V30 11690 C 1096.1 -3.96091 -1.91832 0
M  V30 11691 H 1093.22 -0.712978 -0.186632 0
M  V30 11692 H 1095.86 -1.88767 0.216095 0
M  V30 11693 H 1094.01 -3.51327 -1.65836 0
M  V30 11694 H 1095.69 -4.55409 0.734847 0
M  V30 11695 H 1093.93 -4.271 0.75947 0
M  V30 11696 H 1094.6 -5.51165 -0.303554 0
M  V30 11697 H 1097.08 -3.92139 -1.39164 0
M  V30 11698 H 1095.95 -5.00742 -2.24831 0
M  V30 11699 H 1096.21 -3.37846 -2.85153 0
M  V30 11700 N 1095.27 0.136881 -1.57004 0
M  V30 11701 C 1096.52 0.849031 -1.84172 0
M  V30 11702 C 1096.85 1.80359 -0.720027 0
M  V30 11703 O 1096.13 1.92538 0.275584 0
M  V30 11704 C 1096.41 1.61465 -3.21871 0
M  V30 11705 C 1096.26 0.680902 -4.44616 0
M  V30 11706 C 1097.58 2.57488 -3.56914 0
M  V30 11707 H 1094.7 0.307209 -0.669919 0
M  V30 11708 H 1097.34 0.113862 -1.89659 0
M  V30 11709 H 1095.49 2.24137 -3.17325 0
M  V30 11710 H 1097.16 0.0644094 -4.61255 0
M  V30 11711 H 1095.41 -0.00883629 -4.33799 0
M  V30 11712 H 1096.08 1.25286 -5.37594 0
M  V30 11713 H 1098.55 2.0493 -3.62136 0
M  V30 11714 H 1097.43 3.08101 -4.54274 0
M  V30 11715 H 1097.69 3.39321 -2.83397 0
M  V30 11716 N 1096.75 1.52266 0.40654 0
M  V30 11717 C 1097.7 1.75794 1.4955 0
M  V30 11718 C 1098.67 0.600472 1.54866 0
M  V30 11719 O 1099.85 0.838305 1.71397 0
M  V30 11720 C 1096.99 1.91682 2.86971 0
M  V30 11721 C 1096.11 3.19337 2.90943 0
M  V30 11722 C 1095.24 3.25641 4.1968 0
M  V30 11723 C 1094.28 4.47488 4.17637 0
M  V30 11724 N 1093.42 4.51171 5.37949 0
M  V30 11725 H 1098.26 2.68733 1.28789 0
M  V30 11726 H 1095.79 1.33157 0.625102 0
M  V30 11727 H 1097.75 1.98877 3.66748 0
M  V30 11728 H 1096.38 1.02121 3.06221 0
M  V30 11729 H 1095.43 3.21301 2.03642 0
M  V30 11730 H 1096.75 4.09153 2.85299 0
M  V30 11731 H 1095.9 3.31922 5.07851 0
M  V30 11732 H 1094.64 2.33769 4.28023 0
M  V30 11733 H 1093.64 4.41351 3.27856 0
M  V30 11734 H 1094.87 5.40659 4.10932 0
M  V30 11735 H 1092.81 3.62182 5.46955 0
M  V30 11736 H 1092.73 5.34835 5.3431 0
M  V30 11737 H 1094 4.61685 6.28066 0
M  V30 11738 N 1098.23 -0.663929 1.42933 0
M  V30 11739 C 1099.47 -1.42603 1.44195 0
M  V30 11740 C 1099.81 -1.94101 0.0620284 0
M  V30 11741 O 1099.08 -1.71609 -0.91546 0
M  V30 11742 C 1099.37 -2.61522 2.47544 0
M  V30 11743 C 1099.22 -2.15587 3.94769 0
M  V30 11744 C 1100.54 -3.6374 2.47753 0
M  V30 11745 H 1097.66 -0.517189 0.525056 0
M  V30 11746 H 1100.3 -0.75361 1.74415 0
M  V30 11747 H 1098.45 -3.1889 2.21904 0
M  V30 11748 H 1100.12 -1.63303 4.31428 0
M  V30 11749 H 1098.36 -1.47057 4.08114 0
M  V30 11750 H 1099.03 -3.01053 4.62678 0
M  V30 11751 H 1101.51 -3.16111 2.70579 0
M  V30 11752 H 1100.39 -4.44512 3.22025 0
M  V30 11753 H 1100.65 -4.15607 1.50742 0
M  V30 11754 N 1099.71 -1.29285 -0.901281 0
M  V30 11755 C 1100.65 -1.14159 -2.02659 0
M  V30 11756 C 1101.65 -0.0575887 -1.69302 0
M  V30 11757 O 1102.85 -0.217273 -1.78684 0
M  V30 11758 H 1099.23 -0.352584 -0.66422 0
M  V30 11759 H 1101.2 -2.09434 -2.12555 0
M  V30 11760 C 1099.95 -0.833253 -3.37568 0
M  V30 11761 H 1099.27 -1.65939 -3.63737 0
M  V30 11762 H 1100.71 -0.767436 -4.16997 0
M  V30 11763 C 1099.17 0.46344 -3.33697 0
M  V30 11764 O 1099.7 1.48998 -3.73045 0
M  V30 11765 N 1097.91 0.468709 -2.86795 0
M  V30 11766 H 1097.45 -0.36712 -2.54971 0
M  V30 11767 H 1097.41 1.3363 -2.84588 0
M  V30 11768 N 1101.18 1.11143 -1.11736 0
M  V30 11769 C 1102.43 1.82586 -0.866412 0
M  V30 11770 C 1102.75 1.85227 0.609593 0
M  V30 11771 O 1102.02 1.32505 1.44288 0
M  V30 11772 H 1100.6 0.676149 -0.31754 0
M  V30 11773 H 1103.27 1.34516 -1.41037 0
M  V30 11774 H 1102.36 2.8635 -1.24136 0
M  V30 11775 N 1102.66 0.908147 1.28804 0
M  V30 11776 C 1103.59 0.409106 2.29888 0
M  V30 11777 C 1104.57 -0.520338 1.61946 0
M  V30 11778 O 1105.76 -0.429268 1.89396 0
M  V30 11779 C 1102.89 -0.35669 3.45463 0
M  V30 11780 C 1101.84 0.4831 4.25265 0
M  V30 11781 C 1101.17 -0.4107 5.3312 0
M  V30 11782 C 1102.47 1.73744 4.92555 0
M  V30 11783 H 1104.16 1.25386 2.7188 0
M  V30 11784 H 1101.71 0.604368 1.30703 0
M  V30 11785 H 1103.66 -0.71661 4.15262 0
M  V30 11786 H 1102.39 -1.2353 3.02337 0
M  V30 11787 H 1101.04 0.825464 3.57186 0
M  V30 11788 H 1100.69 -1.28769 4.86238 0
M  V30 11789 H 1100.39 0.14756 5.87415 0
M  V30 11790 H 1101.92 -0.766626 6.05768 0
M  V30 11791 H 1103.33 1.44676 5.54745 0
M  V30 11792 H 1101.73 2.23767 5.5682 0
M  V30 11793 H 1102.8 2.46853 4.17363 0
M  V30 11794 N 1104.14 -1.42577 0.671525 0
M  V30 11795 C 1105.07 -2.2915 -0.0477361 0
M  V30 11796 C 1106.09 -1.43503 -0.768805 0
M  V30 11797 O 1107.27 -1.67256 -0.623509 0
M  V30 11798 C 1104.37 -3.20851 -1.09122 0
M  V30 11799 C 1103.55 -4.35134 -0.44463 0
M  V30 11800 C 1102.61 -5.07579 -1.38745 0
M  V30 11801 O 1101.63 -5.62215 -0.889015 0
M  V30 11802 N 1102.83 -5.12786 -2.72086 0
M  V30 11803 H 1105.6 -2.9152 0.695415 0
M  V30 11804 H 1103.16 -1.53467 0.515689 0
M  V30 11805 H 1105.15 -3.66183 -1.72315 0
M  V30 11806 H 1103.72 -2.59956 -1.73614 0
M  V30 11807 H 1102.94 -3.9249 0.36675 0
M  V30 11808 H 1104.23 -5.088 0.00595927 0
M  V30 11809 H 1103.63 -4.69802 -3.15123 0
M  V30 11810 H 1102.19 -5.61774 -3.30535 0
M  V30 11811 N 1105.62 -0.414636 -1.52048 0
M  V30 11812 C 1106.9 0.218172 -1.94379 0
M  V30 11813 C 1107.28 1.62133 -1.35189 0
M  V30 11814 O 1106.62 2.22271 -0.529877 0
M  V30 11815 C 1106.83 0.218932 -3.48313 0
M  V30 11816 C 1108.18 0.435604 -4.2236 0
M  V30 11817 O 1109.21 0.298049 -3.54951 0
M  V30 11818 O 1108.06 0.707217 -5.41905 0
M  V30 11819 H 1105.16 0.142173 -0.814688 0
M  V30 11820 H 1107.7 -0.470977 -1.63033 0
M  V30 11821 H 1106.48 -0.76292 -3.83791 0
M  V30 11822 H 1106.1 0.951949 -3.86036 0
M  V30 11823 N 1107.1 1.56929 -0.145233 0
M  V30 11824 C 1108.34 1.95681 0.50532 0
M  V30 11825 C 1108.67 1.03098 1.65516 0
M  V30 11826 O 1107.94 0.0921961 1.95683 0
M  V30 11827 H 1106.52 0.72252 0.189668 0
M  V30 11828 H 1109.18 1.93651 -0.220318 0
M  V30 11829 H 1108.27 2.99359 0.882631 0
M  V30 11830 N 1108.58 -0.128553 1.57075 0
M  V30 11831 C 1109.8 -0.8564 1.88893 0
M  V30 11832 C 1110.23 -1.73095 0.736196 0
M  V30 11833 O 1109.58 -1.78567 -0.313629 0
M  V30 11834 C 1109.63 -1.67368 3.19406 0
M  V30 11835 O 1108.74 -2.77973 3.04639 0
M  V30 11836 H 1108.08 -0.237424 0.620102 0
M  V30 11837 H 1110.61 -0.113821 2.04283 0
M  V30 11838 H 1110.62 -2.0649 3.51889 0
M  V30 11839 H 1109.29 -1.03161 4.02903 0
M  V30 11840 H 1107.87 -2.42123 2.83603 0
M  V30 11841 N 1110.05 -1.5248 -0.398459 0
M  V30 11842 C 1110.99 -1.72826 -1.50545 0
M  V30 11843 C 1112 -0.608683 -1.50993 0
M  V30 11844 O 1113.19 -0.88413 -1.55066 0
M  V30 11845 C 1110.29 -1.76327 -2.89417 0
M  V30 11846 C 1109.46 -3.05491 -3.1304 0
M  V30 11847 C 1108.52 -3.00663 -4.31843 0
M  V30 11848 O 1107.55 -3.74548 -4.28605 0
M  V30 11849 N 1108.75 -2.19191 -5.37527 0
M  V30 11850 H 1111.51 -2.68333 -1.33482 0
M  V30 11851 H 1109.07 -1.5085 -0.587875 0
M  V30 11852 H 1111.07 -1.70616 -3.66977 0
M  V30 11853 H 1109.64 -0.882476 -2.99885 0
M  V30 11854 H 1108.86 -3.24767 -2.23428 0
M  V30 11855 H 1110.14 -3.90915 -3.25673 0
M  V30 11856 H 1109.54 -1.58613 -5.43009 0
M  V30 11857 H 1108.1 -2.19328 -6.1379 0
M  V30 11858 N 1111.53 0.65634 -1.43283 0
M  V30 11859 C 1112.49 1.75117 -1.47874 0
M  V30 11860 C 1113.49 1.56629 -0.363846 0
M  V30 11861 O 1114.68 1.62584 -0.625464 0
M  V30 11862 C 1111.82 3.13957 -1.32831 0
M  V30 11863 H 1113.01 1.72429 -2.45374 0
M  V30 11864 H 1110.56 0.867704 -1.30002 0
M  V30 11865 H 1111.3 3.22259 -0.36326 0
M  V30 11866 H 1111.08 3.28781 -2.13649 0
M  V30 11867 H 1112.57 3.93799 -1.38969 0
M  V30 11868 N 1113.01 1.29761 0.894412 0
M  V30 11869 C 1113.92 1.1724 2.03204 0
M  V30 11870 C 1114.94 0.0944452 1.73743 0
M  V30 11871 O 1116.11 0.307549 1.99038 0
M  V30 11872 C 1113.18 0.855416 3.35981 0
M  V30 11873 C 1112.24 2.01777 3.78926 0
M  V30 11874 C 1111.47 1.71581 5.05367 0
M  V30 11875 O 1111.69 0.639245 5.66807 0
M  V30 11876 O 1110.63 2.56539 5.44492 0
M  V30 11877 H 1114.45 2.12787 2.16692 0
M  V30 11878 H 1112.04 1.09264 1.0189 0
M  V30 11879 H 1113.92 0.693429 4.15656 0
M  V30 11880 H 1112.6 -0.0702195 3.23624 0
M  V30 11881 H 1111.5 2.23502 2.99996 0
M  V30 11882 H 1112.84 2.92479 3.95875 0
M  V30 11883 N 1114.49 -1.10549 1.12324 0
M  V30 11884 C 1115.71 -1.8681 0.900927 0
M  V30 11885 C 1116.14 -1.80049 -0.54443 0
M  V30 11886 O 1115.5 -1.16957 -1.38531 0
M  V30 11887 C 1115.54 -3.33197 1.37883 0
M  V30 11888 O 1114.65 -4.08628 0.556529 0
M  V30 11889 H 1113.99 -0.579709 0.32378 0
M  V30 11890 H 1116.52 -1.39678 1.49503 0
M  V30 11891 H 1116.53 -3.84047 1.37739 0
M  V30 11892 H 1115.2 -3.37435 2.43127 0
M  V30 11893 H 1113.78 -3.67627 0.62486 0
M  V30 11894 N 1115.97 -0.914965 -1.28321 0
M  V30 11895 C 1116.88 -0.409424 -2.31 0
M  V30 11896 C 1117.89 0.503526 -1.66555 0
M  V30 11897 O 1119.07 0.38942 -1.97599 0
M  V30 11898 C 1116.13 0.34123 -3.45017 0
M  V30 11899 C 1115.19 -0.605087 -4.25014 0
M  V30 11900 C 1114.43 0.109837 -5.33587 0
M  V30 11901 O 1114.65 1.33136 -5.54645 0
M  V30 11902 O 1113.58 -0.555474 -5.99331 0
M  V30 11903 H 1117.41 -1.26167 -2.76253 0
M  V30 11904 H 1114.99 -0.679831 -1.33036 0
M  V30 11905 H 1116.88 0.765132 -4.14396 0
M  V30 11906 H 1115.55 1.16929 -3.01843 0
M  V30 11907 H 1114.46 -1.07841 -3.58219 0
M  V30 11908 H 1115.79 -1.39999 -4.7187 0
M  V30 11909 N 1117.44 1.42219 -0.679077 0
M  V30 11910 C 1118.38 2.29172 0.035583 0
M  V30 11911 C 1119.39 1.43909 0.761183 0
M  V30 11912 O 1120.58 1.67584 0.61463 0
M  V30 11913 C 1117.68 3.21426 1.07419 0
M  V30 11914 C 1116.85 4.35364 0.421547 0
M  V30 11915 C 1115.91 5.08307 1.36051 0
M  V30 11916 O 1114.94 5.62678 0.859186 0
M  V30 11917 N 1116.14 5.14222 2.69362 0
M  V30 11918 H 1118.9 2.91147 -0.710865 0
M  V30 11919 H 1116.46 1.53192 -0.523821 0
M  V30 11920 H 1118.46 3.67091 1.70371 0
M  V30 11921 H 1117.03 2.60873 1.72233 0
M  V30 11922 H 1116.25 3.9229 -0.387559 0
M  V30 11923 H 1117.53 5.08789 -0.0329421 0
M  V30 11924 H 1116.93 4.71467 3.12627 0
M  V30 11925 H 1115.49 5.63519 3.27551 0
M  V30 11926 N 1118.92 0.422693 1.51826 0
M  V30 11927 C 1120.17 -0.148348 2.01555 0
M  V30 11928 C 1120.49 -1.44483 1.30956 0
M  V30 11929 O 1119.76 -1.90904 0.439599 0
M  V30 11930 H 1118.34 -0.0578116 0.74476 0
M  V30 11931 H 1121 0.562046 1.8662 0
M  V30 11932 H 1120.1 -0.334766 3.10299 0
M  V30 11933 N 1120.4 -1.5685 0.153553 0
M  V30 11934 C 1121.33 -2.20101 -0.779601 0
M  V30 11935 C 1122.31 -1.15121 -1.25225 0
M  V30 11936 O 1123.5 -1.43487 -1.30862 0
M  V30 11937 C 1120.63 -2.82778 -2.01628 0
M  V30 11938 C 1119.58 -3.93643 -1.68015 0
M  V30 11939 C 1118.91 -4.43286 -2.99001 0
M  V30 11940 C 1120.21 -5.14102 -0.921774 0
M  V30 11941 H 1121.9 -2.98334 -0.252432 0
M  V30 11942 H 1119.45 -1.43499 -0.119975 0
M  V30 11943 H 1121.4 -3.25696 -2.67395 0
M  V30 11944 H 1120.12 -2.01887 -2.56728 0
M  V30 11945 H 1118.78 -3.51354 -1.04624 0
M  V30 11946 H 1118.43 -3.59208 -3.52106 0
M  V30 11947 H 1118.13 -5.18068 -2.77272 0
M  V30 11948 H 1119.65 -4.88878 -3.65828 0
M  V30 11949 H 1121.07 -5.53823 -1.48167 0
M  V30 11950 H 1119.46 -5.94687 -0.804185 0
M  V30 11951 H 1120.53 -4.84825 0.0852757 0
M  V30 11952 N 1121.88 0.120221 -1.57141 0
M  V30 11953 C 1123.12 0.829449 -1.85062 0
M  V30 11954 C 1123.46 1.79585 -0.739116 0
M  V30 11955 O 1122.73 1.92819 0.255147 0
M  V30 11956 C 1123.01 1.58042 -3.23566 0
M  V30 11957 C 1122.87 0.633706 -4.45314 0
M  V30 11958 C 1124.19 2.53688 -3.59625 0
M  V30 11959 H 1121.31 0.300086 -0.67314 0
M  V30 11960 H 1123.95 0.0937393 -1.89769 0
M  V30 11961 H 1122.1 2.20758 -3.19684 0
M  V30 11962 H 1123.77 0.0154836 -4.61297 0
M  V30 11963 H 1122.01 -0.054846 -4.33765 0
M  V30 11964 H 1122.68 1.19577 -5.38893 0
M  V30 11965 H 1125.16 2.01078 -3.6429 0
M  V30 11966 H 1124.04 3.03265 -4.57516 0
M  V30 11967 H 1124.3 3.36296 -2.8698 0
M  V30 11968 N 1123.36 1.52689 0.390367 0
M  V30 11969 C 1124.6 1.67914 1.13722 0
M  V30 11970 C 1124.94 0.417159 1.89667 0
M  V30 11971 O 1124.21 -0.585005 1.85494 0
M  V30 11972 C 1124.49 2.91331 2.11656 0
M  V30 11973 C 1124.35 4.27626 1.39484 0
M  V30 11974 C 1125.67 3.10293 3.12099 0
M  V30 11975 H 1122.78 0.611047 0.412057 0
M  V30 11976 H 1125.43 1.85283 0.420753 0
M  V30 11977 H 1123.58 2.76654 2.72754 0
M  V30 11978 H 1125.25 4.54068 0.813607 0
M  V30 11979 H 1123.49 4.28169 0.69669 0
M  V30 11980 H 1124.16 5.10066 2.11038 0
M  V30 11981 H 1126.64 3.23992 2.6109 0
M  V30 11982 H 1125.51 3.98127 3.7787 0
M  V30 11983 H 1125.78 2.24448 3.80888 0
M  V30 11984 N 1124.83 -0.648732 1.43629 0
M  V30 11985 C 1125.78 -1.76145 1.49136 0
M  V30 11986 C 1126.75 -1.62569 0.340649 0
M  V30 11987 O 1127.94 -1.82748 0.548435 0
M  V30 11988 C 1125.08 -3.14321 1.42466 0
M  V30 11989 C 1124.19 -3.38999 2.67776 0
M  V30 11990 C 1123.32 -4.67047 2.53062 0
M  V30 11991 C 1122.36 -4.84845 3.7362 0
M  V30 11992 N 1121.5 -6.04155 3.57689 0
M  V30 11993 H 1126.34 -1.70774 2.44213 0
M  V30 11994 H 1123.88 -0.833311 1.2122 0
M  V30 11995 H 1125.84 -3.94206 1.36592 0
M  V30 11996 H 1124.47 -3.18751 0.509666 0
M  V30 11997 H 1123.52 -2.53179 2.83909 0
M  V30 11998 H 1124.83 -3.48035 3.57314 0
M  V30 11999 H 1123.98 -5.55066 2.44922 0
M  V30 12000 H 1122.72 -4.60339 1.61056 0
M  V30 12001 H 1121.73 -3.95261 3.82163 0
M  V30 12002 H 1122.95 -4.9338 4.6664 0
M  V30 12003 H 1120.9 -5.9857 2.6842 0
M  V30 12004 H 1120.82 -6.14169 4.40832 0
M  V30 12005 H 1122.08 -6.94782 3.53409 0
M  V30 12006 N 1126.31 -1.30234 -0.887518 0
M  V30 12007 C 1127.72 -1.17048 -1.45453 0
M  V30 12008 C 1128.07 0.229793 -1.9485 0
M  V30 12009 O 1127.2 1.12628 -1.84781 0
M  V30 12010 C 1127.79 -2.11876 -2.64375 0
M  V30 12011 C 1126.35 -2.02676 -3.17174 0
M  V30 12012 C 1125.5 -2.02104 -1.89866 0
M  V30 12013 H 1128.45 -1.42541 -0.697694 0
M  V30 12014 H 1128.47 -1.69811 -3.40506 0
M  V30 12015 H 1127.98 -3.13781 -2.28392 0
M  V30 12016 H 1126.09 -1.03904 -3.57819 0
M  V30 12017 H 1126.2 -2.90939 -3.80646 0
M  V30 12018 H 1124.56 -1.4687 -2.0809 0
M  V30 12019 H 1125.35 -3.05735 -1.56145 0
M  V30 12020 N 1127.79 1.09952 -1.12909 0
M  V30 12021 C 1128.72 2.16257 -0.759305 0
M  V30 12022 C 1129.74 1.61355 0.216427 0
M  V30 12023 O 1130.92 1.785 -0.00297224 0
M  V30 12024 C 1128.02 3.38741 -0.103908 0
M  V30 12025 C 1127.2 4.23072 -1.11037 0
M  V30 12026 C 1126.26 5.23991 -0.481667 0
M  V30 12027 O 1125.28 5.57665 -1.14011 0
M  V30 12028 N 1126.48 5.75652 0.748698 0
M  V30 12029 H 1129.25 2.48588 -1.67405 0
M  V30 12030 H 1126.81 1.25617 -1.02137 0
M  V30 12031 H 1128.8 4.03362 0.328799 0
M  V30 12032 H 1127.37 3.04344 0.713677 0
M  V30 12033 H 1126.59 3.5467 -1.72054 0
M  V30 12034 H 1127.88 4.76244 -1.79078 0
M  V30 12035 H 1127.28 5.505 1.30253 0
M  V30 12036 H 1125.84 6.42033 1.12415 0
M  V30 12037 N 1129.27 0.921757 1.27833 0
M  V30 12038 C 1130.52 0.557974 1.94245 0
M  V30 12039 C 1130.84 -0.90268 1.72849 0
M  V30 12040 O 1130.11 -1.63915 1.07279 0
M  V30 12041 H 1128.69 0.203364 0.718785 0
M  V30 12042 H 1131.35 1.17286 1.5566 0
M  V30 12043 H 1130.45 0.759202 3.02725 0
M  V30 12044 N 1130.75 -1.41857 0.686609 0
M  V30 12045 C 1131.69 -2.326 0.0041351 0
M  V30 12046 C 1132.69 -1.50474 -0.778077 0
M  V30 12047 O 1133.89 -1.66468 -0.684709 0
M  V30 12048 H 1130.27 -0.751797 -0.0174615 0
M  V30 12049 H 1132.24 -2.87844 0.786656 0
M  V30 12050 C 1130.99 -3.35175 -0.924819 0
M  V30 12051 H 1130.31 -3.98416 -0.332339 0
M  V30 12052 H 1131.75 -4.01229 -1.37082 0
M  V30 12053 C 1130.21 -2.68359 -2.03679 0
M  V30 12054 O 1130.74 -2.52453 -3.12459 0
M  V30 12055 N 1128.95 -2.27196 -1.81192 0
M  V30 12056 H 1128.49 -2.40333 -0.92725 0
M  V30 12057 H 1128.45 -1.82824 -2.55778 0
M  V30 12058 N 1132.22 -0.430739 -1.51599 0
M  V30 12059 C 1133.19 0.372319 -2.26156 0
M  V30 12060 C 1134.19 0.955338 -1.29344 0
M  V30 12061 O 1135.38 0.830823 -1.53111 0
M  V30 12062 C 1132.51 1.52613 -3.04831 0
M  V30 12063 H 1133.7 -0.280996 -2.98581 0
M  V30 12064 H 1131.26 -0.183749 -1.55216 0
M  V30 12065 H 1131.99 2.21569 -2.36807 0
M  V30 12066 H 1131.78 1.11433 -3.75932 0
M  V30 12067 H 1133.27 2.09366 -3.61325 0
M  V30 12068 N 1133.7 1.56767 -0.161869 0
M  V30 12069 C 1134.63 2.20511 0.767918 0
M  V30 12070 C 1135.61 1.15783 1.24612 0
M  V30 12071 O 1136.8 1.44179 1.301 0
M  V30 12072 C 1133.93 2.83844 2.00125 0
M  V30 12073 C 1132.88 3.94528 1.65926 0
M  V30 12074 C 1132.21 4.44866 2.96646 0
M  V30 12075 C 1133.51 5.14583 0.894497 0
M  V30 12076 H 1135.2 2.98464 0.236607 0
M  V30 12077 H 1132.75 1.43561 0.112363 0
M  V30 12078 H 1134.7 3.27109 2.65664 0
M  V30 12079 H 1133.43 2.03246 2.55654 0
M  V30 12080 H 1132.08 3.51904 1.02759 0
M  V30 12081 H 1131.73 3.61071 3.50196 0
M  V30 12082 H 1131.43 5.19531 2.74521 0
M  V30 12083 H 1132.96 4.90812 3.6323 0
M  V30 12084 H 1134.37 5.54601 1.45228 0
M  V30 12085 H 1132.77 5.95105 0.772636 0
M  V30 12086 H 1133.84 4.84773 -0.110986 0
M  V30 12087 N 1135.18 -0.111886 1.57202 0
M  V30 12088 C 1136.41 -0.832407 1.89416 0
M  V30 12089 C 1136.82 -1.73096 0.753861 0
M  V30 12090 O 1136.18 -1.80416 -0.274992 0
M  V30 12091 C 1136.23 -1.65988 3.21139 0
M  V30 12092 O 1135.95 -0.797485 4.3078 0
M  V30 12093 C 1137.45 -2.48493 3.67105 0
M  V30 12094 H 1134.67 -0.238919 0.627024 0
M  V30 12095 H 1137.22 -0.0941456 2.04283 0
M  V30 12096 H 1135.37 -2.35082 3.07921 0
M  V30 12097 H 1135.79 -1.36892 5.06321 0
M  V30 12098 H 1137.26 -3.02072 4.62014 0
M  V30 12099 H 1137.74 -3.26182 2.94112 0
M  V30 12100 H 1138.34 -1.84628 3.83135 0
M  V30 12101 N 1136.66 -1.52894 -0.382264 0
M  V30 12102 C 1137.91 -1.67489 -1.12385 0
M  V30 12103 C 1138.22 -0.424565 -1.90937 0
M  V30 12104 O 1139.43 -0.450763 -2.67732 0
M  V30 12105 C 1137.88 -2.96019 -2.04697 0
M  V30 12106 C 1137.49 -4.28255 -1.31535 0
M  V30 12107 C 1139.23 -3.19981 -2.78949 0
M  V30 12108 C 1137.14 -5.47887 -2.22652 0
M  V30 12109 H 1136.07 -0.624002 -0.423246 0
M  V30 12110 H 1138.72 -1.79392 -0.386107 0
M  V30 12111 H 1137.1 -2.77878 -2.82134 0
M  V30 12112 H 1138.28 -4.56971 -0.592771 0
M  V30 12113 H 1136.59 -4.10607 -0.692148 0
M  V30 12114 H 1139.19 -4.06541 -3.47316 0
M  V30 12115 H 1139.53 -2.35335 -3.43399 0
M  V30 12116 H 1140.07 -3.38718 -2.08602 0
M  V30 12117 H 1136.81 -6.3496 -1.62806 0
M  V30 12118 H 1136.33 -5.23473 -2.92807 0
M  V30 12119 H 1138 -5.82026 -2.82586 0
M  V30 12120 N 1138.14 0.641106 -1.43971 0
M  V30 12121 C 1139.37 1.42829 -1.49692 0
M  V30 12122 C 1139.78 1.88427 -0.118594 0
M  V30 12123 O 1139.14 1.60234 0.873581 0
M  V30 12124 C 1139.19 2.65524 -2.45314 0
M  V30 12125 O 1138.91 2.2183 -3.77787 0
M  V30 12126 C 1140.41 3.58758 -2.60399 0
M  V30 12127 H 1137.63 0.438367 -0.508011 0
M  V30 12128 H 1140.17 0.784933 -1.88836 0
M  V30 12129 H 1138.33 3.25973 -2.09332 0
M  V30 12130 H 1138.74 3.01303 -4.29321 0
M  V30 12131 H 1140.22 4.41483 -3.31357 0
M  V30 12132 H 1140.69 4.06909 -1.65294 0
M  V30 12133 H 1141.3 3.04184 -2.97241 0
M  V30 12134 N 1139.62 1.30703 0.880598 0
M  V30 12135 C 1140.55 1.20033 2.00286 0
M  V30 12136 C 1141.53 0.0899614 1.69862 0
M  V30 12137 O 1142.71 0.272747 1.92275 0
M  V30 12138 C 1139.84 0.895902 3.35546 0
M  V30 12139 C 1138.8 1.96468 3.80242 0
M  V30 12140 C 1138.12 1.51316 5.12843 0
M  V30 12141 C 1139.42 3.37637 3.98496 0
M  V30 12142 H 1141.12 2.13922 2.0947 0
M  V30 12143 H 1138.66 1.02989 1.00644 0
M  V30 12144 H 1140.61 0.807899 4.13583 0
M  V30 12145 H 1139.34 -0.0786636 3.26505 0
M  V30 12146 H 1138 2.0424 3.04437 0
M  V30 12147 H 1137.65 0.52674 5.00234 0
M  V30 12148 H 1137.35 2.22807 5.43719 0
M  V30 12149 H 1138.87 1.43903 5.93401 0
M  V30 12150 H 1140.28 3.326 4.66959 0
M  V30 12151 H 1138.68 4.07253 4.40755 0
M  V30 12152 H 1139.75 3.79205 3.02211 0
M  V30 12153 O 1141.13 -1.01687 1.25467 0
M  V30 12154 H 1141.82 -1.63523 1.03826 0
M  V30 END ATOM
M  V30 BEGIN BOND
M  V30 END BOND
M  V30 END CTAB
M  END
$$$$
