drugbank_target|Q15119 [Pyruvate dehydrogenase (acetyl-transferring)] kinase isozyme 2, mitochondrial (DB08608; DB08609; DB08610)
 OpenBabel12092120513D

  0  0  0     0  0            999 V3000
M  V30 BEGIN CTAB
M  V30 COUNTS 6459 6543 0 0 0
M  V30 BEGIN ATOM
M  V30 1 H -0.908 1.98254 -0.117106 0
M  V30 2 N 0 1.576 0 0
M  V30 3 C 0.933 2.03868 1.02534 0
M  V30 4 C 1.911 0.928543 1.3348 0
M  V30 5 O 3.095 1.19667 1.45644 0
M  V30 6 C 0.222 2.43627 2.35294 0
M  V30 7 C -0.732 3.65373 2.2001 0
M  V30 8 S 0.101 5.13292 1.52614 0
M  V30 9 C 1.257 5.56322 2.86805 0
M  V30 10 H 1.49 2.90518 0.631377 0
M  V30 11 H -0.977 1.52953 0.210867 0
M  V30 12 H 0.981 2.67203 3.11629 0
M  V30 13 H -0.358 1.57376 2.7183 0
M  V30 14 H -1.165 3.90944 3.18086 0
M  V30 15 H -1.563 3.418 1.51819 0
M  V30 16 H 0.729 5.58782 3.83104 0
M  V30 17 H 1.672 6.56266 2.65933 0
M  V30 18 H 2.08 4.83886 2.90714 0
M  V30 19 N 1.4781 -0.272755 1.55222 0
M  V30 20 C 2.8941 -0.619959 1.47067 0
M  V30 21 C 3.0941 -1.895 0.684978 0
M  V30 22 O 2.1501 -2.51675 0.203931 0
M  V30 23 C 3.4631 -0.746693 2.91282 0
M  V30 24 C 5.0111 -0.840731 3.01497 0
M  V30 25 C 5.4861 -0.99924 4.46967 0
M  V30 26 N 6.9771 -1.06476 4.50796 0
M  V30 27 C 7.7121 -1.20621 5.6057 0
M  V30 28 N 7.2081 -1.31483 6.80209 0
M  V30 29 N 9.0011 -1.23733 5.48312 0
M  V30 30 H 1.1521 0.564606 2.04758 0
M  V30 31 H 3.4151 0.191177 0.928523 0
M  V30 32 H 3.1211 0.119753 3.51496 0
M  V30 33 H 2.9951 -1.6269 3.40311 0
M  V30 34 H 5.3821 -1.69764 2.41379 0
M  V30 35 H 5.4631 0.0640874 2.5572 0
M  V30 36 H 5.1071 -0.146984 5.07687 0
M  V30 37 H 5.0371 -1.91871 4.90401 0
M  V30 38 H 7.5281 -0.993196 3.64615 0
M  V30 39 H 7.8411 -1.42111 7.59621 0
M  V30 40 H 6.1861 -1.28487 6.8302 0
M  V30 41 H 9.3771 -1.14877 4.53785 0
M  V30 42 H 9.5501 -1.34412 6.33906 0
M  V30 43 N 2.9562 -1.48159 -0.537278 0
M  V30 44 C 4.2022 -1.57015 -1.29297 0
M  V30 45 C 4.5572 -0.237791 -1.90925 0
M  V30 46 O 3.8502 0.758621 -1.75942 0
M  V30 47 C 4.0442 -2.63956 -2.40961 0
M  V30 48 C 3.8732 -4.07461 -1.90278 0
M  V30 49 C 2.6432 -4.74685 -1.73213 0
M  V30 50 C 4.8412 -4.93858 -1.43556 0
M  V30 51 N 2.8232 -6.02633 -1.17078 0
M  V30 52 C 4.1942 -6.11993 -0.993204 0
M  V30 53 C 6.2492 -4.80141 -1.31792 0
M  V30 54 C 4.9522 -7.17923 -0.444872 0
M  V30 55 C 6.9782 -5.86186 -0.783585 0
M  V30 56 C 6.3402 -7.03524 -0.351261 0
M  V30 57 H 2.4392 -0.629154 -0.464423 0
M  V30 58 H 5.0232 -1.85006 -0.606705 0
M  V30 59 H 3.1942 -2.378 -3.07093 0
M  V30 60 H 4.9262 -2.62539 -3.07986 0
M  V30 61 H 1.6812 -4.30902 -1.9652 0
M  V30 62 H 2.1052 -6.7085 -0.910421 0
M  V30 63 H 6.7472 -3.89772 -1.63823 0
M  V30 64 H 4.4652 -8.08022 -0.11222 0
M  V30 65 H 8.0512 -5.77624 -0.695835 0
M  V30 66 H 6.9312 -7.8418 0.055777 0
M  V30 67 N 4.4343 0.785586 -1.36625 0
M  V30 68 C 5.6803 1.54591 -1.31261 0
M  V30 69 C 6.0133 1.93906 0.106823 0
M  V30 70 O 5.2883 1.63007 1.06108 0
M  V30 71 C 5.5713 2.82038 -2.23889 0
M  V30 72 C 5.4243 2.49066 -3.74548 0
M  V30 73 C 6.7433 3.83887 -2.15217 0
M  V30 74 H 3.8623 0.560846 -0.478143 0
M  V30 75 H 6.5043 0.902278 -1.67209 0
M  V30 76 H 4.6543 3.36961 -1.93363 0
M  V30 77 H 6.3263 2.00164 -4.15611 0
M  V30 78 H 4.5693 1.81954 -3.93796 0
M  V30 79 H 5.2403 3.40109 -4.34776 0
M  V30 80 H 7.7163 3.38421 -2.42096 0
M  V30 81 H 6.5923 4.70806 -2.82193 0
M  V30 82 H 6.8533 4.27131 -1.14068 0
M  V30 83 N 5.9124 1.20967 1.01018 0
M  V30 84 C 7.1584 1.0353 1.7508 0
M  V30 85 C 7.5134 -0.42734 1.87594 0
M  V30 86 O 6.8064 -1.31298 1.3954 0
M  V30 87 C 7.0004 1.65997 3.16512 0
M  V30 88 C 6.8294 3.18184 3.17788 0
M  V30 89 C 5.5994 3.87198 3.24662 0
M  V30 90 C 7.7974 4.15334 3.03319 0
M  V30 91 N 5.7794 5.26618 3.15509 0
M  V30 92 C 7.1504 5.41472 3.02007 0
M  V30 93 C 9.2054 4.06449 2.87583 0
M  V30 94 C 7.9084 6.5975 2.86571 0
M  V30 95 C 9.9344 5.24357 2.73503 0
M  V30 96 C 9.2964 6.49404 2.72862 0
M  V30 97 H 5.3954 0.433137 0.651089 0
M  V30 98 H 7.9794 1.5324 1.20107 0
M  V30 99 H 6.1504 1.18863 3.69765 0
M  V30 100 H 7.8824 1.41816 3.79039 0
M  V30 101 H 4.6374 3.38093 3.31648 0
M  V30 102 H 5.0614 5.99626 3.14289 0
M  V30 103 H 9.7034 3.10573 2.86887 0
M  V30 104 H 7.4214 7.55792 2.86015 0
M  V30 105 H 11.0074 5.19299 2.62334 0
M  V30 106 H 9.8874 7.39105 2.62093 0
M  V30 107 N 7.3905 -1.2043 1.01659 0
M  V30 108 C 8.3535 -2.21433 0.591616 0
M  V30 109 C 9.3535 -1.57203 -0.338226 0
M  V30 110 O 10.5435 -1.73737 -0.126918 0
M  V30 111 C 7.6755 -3.40628 -0.136058 0
M  V30 112 H 8.8685 -2.60545 1.48514 0
M  V30 113 H 6.4215 -1.33893 0.806379 0
M  V30 114 H 7.1565 -3.07019 -1.04449 0
M  V30 115 H 6.9415 -3.88475 0.531917 0
M  V30 116 H 8.4315 -4.15475 -0.420735 0
M  V30 117 N 8.8686 -0.792821 -1.36206 0
M  V30 118 C 9.7986 -0.207853 -2.32573 0
M  V30 119 C 10.7796 0.659055 -1.56813 0
M  V30 120 O 11.9646 0.592176 -1.84951 0
M  V30 121 C 9.0946 0.655449 -3.41059 0
M  V30 122 C 8.0486 -0.111842 -4.27854 0
M  V30 123 C 7.3746 0.872274 -5.27537 0
M  V30 124 C 8.6746 -1.30299 -5.05786 0
M  V30 125 H 10.3686 -1.01294 -2.81744 0
M  V30 126 H 7.9146 -0.48854 -1.3546 0
M  V30 127 H 9.8676 1.07464 -4.07467 0
M  V30 128 H 8.5916 1.49328 -2.90463 0
M  V30 129 H 7.2506 -0.512053 -3.63006 0
M  V30 130 H 6.8986 1.70523 -4.73214 0
M  V30 131 H 6.5986 0.363291 -5.86476 0
M  V30 132 H 8.1226 1.28996 -5.96818 0
M  V30 133 H 9.5366 -0.959379 -5.65216 0
M  V30 134 H 7.9336 -1.7455 -5.74154 0
M  V30 135 H 9.0036 -2.09663 -4.37229 0
M  V30 136 N 10.3467 1.47872 -0.545128 0
M  V30 137 C 11.2767 2.32661 0.197793 0
M  V30 138 C 12.2577 1.43041 0.920504 0
M  V30 139 O 13.4427 1.71912 0.90333 0
M  V30 140 C 10.5727 3.24569 1.23582 0
M  V30 141 C 9.5267 4.23333 0.630323 0
M  V30 142 C 8.8527 5.0448 1.77211 0
M  V30 143 C 10.1527 5.20704 -0.407974 0
M  V30 144 H 11.8467 2.95024 -0.510045 0
M  V30 145 H 9.3927 1.4187 -0.246731 0
M  V30 146 H 11.3457 3.8272 1.76362 0
M  V30 147 H 10.0697 2.60236 1.97344 0
M  V30 148 H 8.7287 3.6639 0.123922 0
M  V30 149 H 8.3767 4.36561 2.49847 0
M  V30 150 H 8.0767 5.71339 1.37281 0
M  V30 151 H 9.6007 5.65487 2.3034 0
M  V30 152 H 11.0147 5.7329 0.033305 0
M  V30 153 H 9.4117 5.95699 -0.725486 0
M  V30 154 H 10.4817 4.66917 -1.30828 0
M  V30 155 N 11.8248 0.280983 1.55075 0
M  V30 156 C 12.7718 -0.603937 2.22758 0
M  V30 157 C 13.7418 -1.1452 1.20309 0
M  V30 158 O 14.9268 -1.19343 1.48869 0
M  V30 159 C 12.0668 -1.77947 2.95684 0
M  V30 160 C 11.1798 -1.2715 4.12864 0
M  V30 161 C 10.3148 -2.4093 4.7342 0
M  V30 162 C 9.3538 -1.87165 5.82783 0
M  V30 163 N 8.4908 -2.94441 6.37377 0
M  V30 164 H 13.3308 -0.020124 2.97993 0
M  V30 165 H 10.8678 0.00183425 1.471 0
M  V30 166 H 12.8258 -2.47055 3.36184 0
M  V30 167 H 11.4558 -2.33522 2.22861 0
M  V30 168 H 10.5078 -0.473331 3.77444 0
M  V30 169 H 11.8198 -0.837751 4.91715 0
M  V30 170 H 10.9738 -3.18021 5.1667 0
M  V30 171 H 9.7128 -2.87623 3.93859 0
M  V30 172 H 8.7178 -1.08556 5.38976 0
M  V30 173 H 9.9428 -1.41401 6.64216 0
M  V30 174 H 7.8888 -3.40505 5.60707 0
M  V30 175 H 7.8058 -2.55501 7.11516 0
M  V30 176 H 9.0738 -3.71489 6.85285 0
M  V30 177 N 13.3029 -1.57598 0.00835791 0
M  V30 178 C 14.2509 -2.10078 -0.998508 0
M  V30 179 C 15.2449 -1.02262 -1.35051 0
M  V30 180 O 16.4509 -1.20719 -1.33518 0
M  V30 181 H 12.8259 -0.670903 -0.339696 0
M  V30 182 H 14.7969 -2.93648 -0.530398 0
M  V30 183 C 13.5459 -2.62615 -2.27879 0
M  V30 184 H 12.8689 -3.45213 -2.01662 0
M  V30 185 H 14.3089 -3.03004 -2.96588 0
M  V30 186 C 12.7679 -1.54407 -2.99433 0
M  V30 187 O 13.2979 -0.931812 -3.90743 0
M  V30 188 N 11.5039 -1.2695 -2.61404 0
M  V30 189 H 11.0509 -1.76924 -1.87232 0
M  V30 190 H 11.0089 -0.547704 -3.09593 0
M  V30 191 N 14.781 0.264519 -1.55364 0
M  V30 192 C 15.744 1.31046 -1.88042 0
M  V30 193 C 16.744 1.41943 -0.755569 0
M  V30 194 O 17.934 1.40947 -1.02369 0
M  V30 195 C 15.066 2.69067 -2.09323 0
M  V30 196 H 16.259 1.03297 -2.81549 0
M  V30 197 H 13.812 0.502989 -1.47986 0
M  V30 198 H 14.547 3.01982 -1.18226 0
M  V30 199 H 14.332 2.62542 -2.91229 0
M  V30 200 H 15.822 3.44623 -2.35848 0
M  V30 201 N 16.2591 1.48442 0.529413 0
M  V30 202 C 17.4841 1.60406 1.31471 0
M  V30 203 C 17.9091 0.264738 1.86228 0
M  V30 204 O 17.2671 -0.763668 1.64432 0
M  V30 205 C 17.3151 2.65419 2.44101 0
M  V30 206 O 16.4191 2.22618 3.47153 0
M  V30 207 H 15.7601 0.537863 0.389357 0
M  V30 208 H 18.2901 1.94432 0.636965 0
M  V30 209 H 18.3001 2.86709 2.90279 0
M  V30 210 H 16.9751 3.62652 2.03608 0
M  V30 211 H 15.5521 2.11543 3.0709 0
M  V30 212 N 17.7372 -0.778329 1.37039 0
M  V30 213 C 18.6672 -1.90546 1.34962 0
M  V30 214 C 19.6482 -1.68681 0.219274 0
M  V30 215 O 20.8332 -1.89634 0.418624 0
M  V30 216 C 17.9632 -3.27734 1.14925 0
M  V30 217 C 16.9172 -3.64147 2.24902 0
M  V30 218 C 16.2432 -4.99806 1.89996 0
M  V30 219 C 17.5432 -3.71579 3.67051 0
M  V30 220 H 19.2372 -1.92541 2.29277 0
M  V30 221 H 16.7832 -0.924948 1.10366 0
M  V30 222 H 18.7362 -4.06215 1.12104 0
M  V30 223 H 17.4602 -3.26154 0.170631 0
M  V30 224 H 16.1192 -2.8797 2.26868 0
M  V30 225 H 15.7672 -4.94759 0.906796 0
M  V30 226 H 15.4672 -5.25139 2.63634 0
M  V30 227 H 16.9912 -5.80694 1.88749 0
M  V30 228 H 18.4052 -4.40227 3.67251 0
M  V30 229 H 16.8022 -4.08405 4.39688 0
M  V30 230 H 17.8722 -2.72404 4.01154 0
M  V30 231 N 19.2153 -1.21501 -1.00376 0
M  V30 232 C 20.1783 -0.976927 -2.07337 0
M  V30 233 C 21.1783 0.0525322 -1.60714 0
M  V30 234 O 22.3683 -0.184869 -1.73216 0
M  V30 235 C 19.5003 -0.473423 -3.37597 0
M  V30 236 H 20.6933 -1.92587 -2.29892 0
M  V30 237 H 18.2463 -1.03217 -1.17371 0
M  V30 238 H 18.9813 0.480379 -3.20722 0
M  V30 239 H 18.7663 -1.216 -3.72768 0
M  V30 240 H 20.2563 -0.32675 -4.1632 0
M  V30 241 N 20.6934 1.19889 -1.02296 0
M  V30 242 C 21.9414 1.89046 -0.714558 0
M  V30 243 C 22.2624 1.79636 0.758681 0
M  V30 244 O 21.5324 1.20292 1.54618 0
M  V30 245 H 20.1124 0.699802 -0.261317 0
M  V30 246 H 22.7744 1.45574 -1.29592 0
M  V30 247 H 21.8704 2.95524 -1.0036 0
M  V30 248 N 22.1715 0.800033 1.35784 0
M  V30 249 C 23.1345 0.211565 2.28221 0
M  V30 250 C 24.1345 -0.59728 1.49296 0
M  V30 251 O 25.3245 -0.416721 1.69142 0
M  V30 252 C 22.4565 -0.705846 3.33513 0
M  V30 253 H 23.6495 1.02677 2.81776 0
M  V30 254 H 21.2025 0.570211 1.45528 0
M  V30 255 H 21.9375 -1.54498 2.85133 0
M  V30 256 H 21.7225 -0.127655 3.91892 0
M  V30 257 H 23.2125 -1.11211 4.02519 0
M  V30 258 N 23.6496 -1.47581 0.552962 0
M  V30 259 C 25.0606 -1.86324 0.118463 0
M  V30 260 C 25.4116 -1.46006 -1.3106 0
M  V30 261 O 24.5366 -0.861182 -1.98526 0
M  V30 262 C 25.1316 -3.3816 0.20821 0
M  V30 263 C 23.6906 -3.7601 -0.171226 0
M  V30 264 C 22.8376 -2.71634 0.557686 0
M  V30 265 H 25.7886 -1.39159 0.762928 0
M  V30 266 H 25.8096 -3.76141 -0.574278 0
M  V30 267 H 25.3216 -3.67473 1.24841 0
M  V30 268 H 23.4226 -3.52313 -1.21269 0
M  V30 269 H 23.5356 -4.78745 0.184379 0
M  V30 270 H 21.8996 -2.547 0.00125792 0
M  V30 271 H 22.6826 -3.0379 1.59896 0
M  V30 272 N 25.1277 -0.289203 -1.54924 0
M  V30 273 C 26.0747 0.592115 -2.23075 0
M  V30 274 C 27.0447 1.13881 -1.20915 0
M  V30 275 O 28.2297 1.18551 -1.495 0
M  V30 276 C 25.3697 1.76376 -2.96623 0
M  V30 277 C 24.4827 1.24959 -4.13533 0
M  V30 278 C 23.6177 2.38416 -4.74691 0
M  V30 279 C 22.6567 1.84072 -5.83767 0
M  V30 280 N 21.7937 2.91057 -6.38929 0
M  V30 281 H 26.6337 0.00432038 -2.98 0
M  V30 282 H 24.1707 -0.00963529 -1.47097 0
M  V30 283 H 26.1287 2.45268 -3.3749 0
M  V30 284 H 24.7587 2.32337 -2.24097 0
M  V30 285 H 23.8107 0.453307 -3.77689 0
M  V30 286 H 25.1227 0.811662 -4.92152 0
M  V30 287 H 24.2767 3.15276 -5.18349 0
M  V30 288 H 23.0157 2.8553 -3.95378 0
M  V30 289 H 22.0207 1.05697 -5.39545 0
M  V30 290 H 23.2457 1.37877 -6.64956 0
M  V30 291 H 21.1917 3.37526 -5.62505 0
M  V30 292 H 21.1087 2.51724 -7.12861 0
M  V30 293 H 22.3767 3.6785 -6.87246 0
M  V30 294 N 26.6058 1.57591 -0.0167156 0
M  V30 295 C 27.8358 1.95292 0.674149 0
M  V30 296 C 28.2438 0.891097 1.66901 0
M  V30 297 O 27.5868 -0.136908 1.83189 0
M  V30 298 C 27.6488 3.29072 1.44747 0
M  V30 299 C 27.3128 4.52879 0.612331 0
M  V30 300 C 28.3098 5.1979 -0.107126 0
M  V30 301 C 25.9948 4.99242 0.553381 0
M  V30 302 C 27.9888 6.31375 -0.874339 0
M  V30 303 C 25.6758 6.10713 -0.217546 0
M  V30 304 C 26.6738 6.76637 -0.930123 0
M  V30 305 O 26.3618 7.85969 -1.68844 0
M  V30 306 H 26.0938 0.648275 0.191615 0
M  V30 307 H 28.6478 2.05284 -0.0690148 0
M  V30 308 H 26.8778 3.15535 2.2355 0
M  V30 309 H 28.5668 3.51764 2.02526 0
M  V30 310 H 29.3328 4.84948 -0.0708392 0
M  V30 311 H 25.2118 4.47744 1.09757 0
M  V30 312 H 28.7558 6.82764 -1.43106 0
M  V30 313 H 24.6528 6.44994 -0.255593 0
M  V30 314 H 25.4208 8.02571 -1.6069 0
M  V30 315 N 28.0839 -0.256276 1.55502 0
M  V30 316 C 29.3329 -0.983486 1.76098 0
M  V30 317 C 29.6459 -1.86837 0.578896 0
M  V30 318 O 30.8519 -2.63163 0.667648 0
M  V30 319 C 29.3079 -1.79868 3.1173 0
M  V30 320 C 28.9159 -0.961648 4.37557 0
M  V30 321 C 30.6599 -2.51919 3.41668 0
M  V30 322 C 28.5669 -1.77219 5.64223 0
M  V30 323 H 27.4969 -0.370936 0.656447 0
M  V30 324 H 30.1479 -0.238492 1.81944 0
M  V30 325 H 28.5299 -2.58527 2.99966 0
M  V30 326 H 29.7039 -0.218048 4.60284 0
M  V30 327 H 28.0189 -0.354913 4.14885 0
M  V30 328 H 30.6159 -3.12998 4.33516 0
M  V30 329 H 30.9589 -3.23059 2.62562 0
M  V30 330 H 31.4919 -1.80278 3.54605 0
M  V30 331 H 28.2309 -1.10471 6.46124 0
M  V30 332 H 27.7509 -2.49132 5.45613 0
M  V30 333 H 29.4299 -2.34169 6.03137 0
M  V30 334 N 29.562 -1.4872 -0.521534 0
M  V30 335 C 30.472 -1.66569 -1.65203 0
M  V30 336 C 31.488 -0.548197 -1.65139 0
M  V30 337 O 32.664 -0.820339 -1.83936 0
M  V30 338 C 29.729 -1.70917 -3.01642 0
M  V30 339 C 28.79 -2.94356 -3.12495 0
M  V30 340 C 28.023 -2.98487 -4.42426 0
M  V30 341 O 28.246 -2.10786 -5.30024 0
M  V30 342 O 27.18 -3.90746 -4.57822 0
M  V30 343 H 31.006 -2.62298 -1.5308 0
M  V30 344 H 28.591 -1.3222 -0.695565 0
M  V30 345 H 30.473 -1.7625 -3.82771 0
M  V30 346 H 29.148 -0.783633 -3.14071 0
M  V30 347 H 28.055 -2.94552 -2.3063 0
M  V30 348 H 29.388 -3.86322 -3.04986 0
M  V30 349 N 31.0401 0.771051 -1.3745 0
M  V30 350 C 31.9901 1.87456 -1.29785 0
M  V30 351 C 32.9741 1.59827 -0.185541 0
M  V30 352 O 34.1661 1.71945 -0.419997 0
M  V30 353 C 31.2951 3.24935 -1.1078 0
M  V30 354 C 30.3811 3.58514 -2.26558 0
M  V30 355 N 30.7721 3.6327 -3.5195 0
M  V30 356 C 29.0701 3.88683 -2.18727 0
M  V30 357 C 29.7711 3.93616 -4.283 0
M  V30 358 N 28.7471 4.09551 -3.57448 0
M  V30 359 H 32.5491 1.89386 -2.24745 0
M  V30 360 H 30.0631 0.967531 -1.30432 0
M  V30 361 H 32.0601 4.03881 -1.03374 0
M  V30 362 H 30.7201 3.24268 -0.16738 0
M  V30 363 H 31.7311 3.45458 -3.85848 0
M  V30 364 H 28.4081 3.95834 -1.32746 0
M  V30 365 H 29.7981 4.04066 -5.36824 0
M  V30 366 N 32.5182 1.22032 0.997298 0
M  V30 367 C 33.7652 1.04222 1.73621 0
M  V30 368 C 34.0932 -0.423264 1.89839 0
M  V30 369 O 33.3482 -1.3302 1.43542 0
M  V30 370 C 33.6472 1.69345 3.14733 0
M  V30 371 C 33.3132 3.19226 3.18442 0
M  V30 372 C 31.9752 3.60124 3.19161 0
M  V30 373 C 34.3272 4.15181 3.15078 0
M  V30 374 C 31.6552 4.95467 3.14212 0
M  V30 375 C 34.0072 5.50495 3.1167 0
M  V30 376 C 32.6712 5.90779 3.10703 0
M  V30 377 H 31.9412 0.381374 0.635323 0
M  V30 378 H 34.5882 1.51732 1.16831 0
M  V30 379 H 32.8932 1.14147 3.74803 0
M  V30 380 H 34.5902 1.53059 3.7064 0
M  V30 381 H 31.1802 2.86659 3.18629 0
M  V30 382 H 35.3642 3.84605 3.13676 0
M  V30 383 H 30.6202 5.25916 3.11805 0
M  V30 384 H 34.7942 6.24576 3.08022 0
M  V30 385 H 32.4212 6.9562 3.06622 0
M  V30 386 N 33.9963 -1.19345 1.0293 0
M  V30 387 C 35.2213 -1.93538 0.745511 0
M  V30 388 C 35.6463 -1.75007 -0.689511 0
M  V30 389 O 35.0043 -1.05265 -1.47611 0
M  V30 390 C 35.0523 -3.43336 1.10239 0
M  V30 391 O 34.1563 -4.11806 0.221289 0
M  V30 392 H 33.4973 -0.604193 0.275404 0
M  V30 393 H 36.0273 -1.5141 1.37609 0
M  V30 394 H 36.0373 -3.94004 1.05947 0
M  V30 395 H 34.7123 -3.56146 2.14786 0
M  V30 396 H 33.2893 -3.715 0.322842 0
M  V30 397 N 35.4744 -0.807222 -1.35358 0
M  V30 398 C 36.4214 -0.216037 -2.29787 0
M  V30 399 C 37.3914 0.650278 -1.52842 0
M  V30 400 O 38.5764 0.595227 -1.81278 0
M  V30 401 C 35.7164 0.628893 -3.39321 0
M  V30 402 C 34.8294 -0.257927 -4.31229 0
M  V30 403 C 33.9644 0.595069 -5.27856 0
M  V30 404 C 33.0034 -0.292111 -6.11403 0
M  V30 405 N 32.1404 0.520895 -7.00165 0
M  V30 406 H 36.9804 -1.02671 -2.79755 0
M  V30 407 H 34.5174 -0.517839 -1.37684 0
M  V30 408 H 36.4754 1.13393 -4.01494 0
M  V30 409 H 35.1054 1.40482 -2.90628 0
M  V30 410 H 34.1574 -0.881076 -3.70056 0
M  V30 411 H 35.4694 -0.940759 -4.89848 0
M  V30 412 H 34.6234 1.16522 -5.95405 0
M  V30 413 H 33.3624 1.31146 -4.69736 0
M  V30 414 H 32.3674 -0.874525 -5.428 0
M  V30 415 H 33.5924 -1.00638 -6.71602 0
M  V30 416 H 31.5384 1.22125 -6.44532 0
M  V30 417 H 31.4554 -0.103877 -7.55929 0
M  V30 418 H 32.7234 1.0743 -7.72062 0
M  V30 419 N 36.9525 1.47285 -0.560781 0
M  V30 420 C 38.1995 2.02464 -0.038062 0
M  V30 421 C 38.5275 1.43474 1.31322 0
M  V30 422 O 37.7825 0.581311 1.86867 0
M  V30 423 C 38.0815 3.57258 0.100784 0
M  V30 424 C 37.7475 4.35184 -1.18007 0
M  V30 425 C 36.4095 4.56194 -1.53103 0
M  V30 426 C 38.7615 4.80098 -2.02867 0
M  V30 427 C 36.0895 5.19367 -2.729 0
M  V30 428 C 38.4415 5.44593 -3.21871 0
M  V30 429 C 37.1055 5.63835 -3.57276 0
M  V30 430 H 36.3755 0.740869 -0.0139279 0
M  V30 431 H 39.0225 1.76916 -0.733012 0
M  V30 432 H 37.3275 3.81819 0.878724 0
M  V30 433 H 39.0245 3.97606 0.520639 0
M  V30 434 H 35.6145 4.19113 -0.8968 0
M  V30 435 H 39.7985 4.63642 -1.7706 0
M  V30 436 H 35.0545 5.32459 -3.00496 0
M  V30 437 H 39.2285 5.78358 -3.87911 0
M  V30 438 H 36.8555 6.12557 -4.50197 0
M  V30 439 N 38.4306 0.297415 1.54768 0
M  V30 440 C 39.6556 -0.318435 2.04941 0
M  V30 441 C 40.0806 -1.4701 1.17345 0
M  V30 442 O 39.4386 -1.80436 0.176758 0
M  V30 443 C 39.4866 -0.755749 3.52592 0
M  V30 444 O 38.5906 -1.86088 3.68028 0
M  V30 445 H 37.9316 -0.062421 0.661059 0
M  V30 446 H 40.4616 0.438215 1.99852 0
M  V30 447 H 40.4716 -1.04552 3.94376 0
M  V30 448 H 39.1466 0.0867233 4.1581 0
M  V30 449 H 37.7236 -1.57193 3.38149 0
M  V30 450 N 39.9087 -1.5758 0.0250728 0
M  V30 451 C 41.3197 -1.79476 -0.514323 0
M  V30 452 C 41.6707 -0.934956 -1.72491 0
M  V30 453 O 40.7957 -0.144245 -2.15919 0
M  V30 454 C 41.3907 -3.25503 -0.939842 0
M  V30 455 C 39.9497 -3.48408 -1.42438 0
M  V30 456 C 39.0967 -2.74583 -0.387201 0
M  V30 457 H 42.0477 -1.567 0.25113 0
M  V30 458 H 42.0687 -3.34992 -1.80445 0
M  V30 459 H 41.5807 -3.88056 -0.0585628 0
M  V30 460 H 39.6817 -2.91103 -2.32572 0
M  V30 461 H 39.7947 -4.57119 -1.43455 0
M  V30 462 H 38.1587 -2.39942 -0.854409 0
M  V30 463 H 38.9417 -3.39849 0.485543 0
M  V30 464 N 41.3868 0.248026 -1.55636 0
M  V30 465 C 42.6118 0.998028 -1.81808 0
M  V30 466 C 43.0368 1.78207 -0.601979 0
M  V30 467 O 42.3948 1.75653 0.448961 0
M  V30 468 C 42.4428 1.9125 -3.05705 0
M  V30 469 O 41.5468 3.00406 -2.82542 0
M  V30 470 H 40.8878 0.284045 -0.600179 0
M  V30 471 H 43.4178 0.269357 -2.02819 0
M  V30 472 H 43.4278 2.32737 -3.35108 0
M  V30 473 H 42.1028 1.33602 -3.93857 0
M  V30 474 H 40.6798 2.63056 -2.64303 0
M  V30 475 N 42.8649 1.48995 0.513639 0
M  V30 476 C 44.2759 1.5119 1.09537 0
M  V30 477 C 44.6269 0.290906 1.94031 0
M  V30 478 O 43.7519 -0.60049 2.07902 0
M  V30 479 C 44.3469 2.73964 1.99322 0
M  V30 480 C 42.9059 2.78978 2.52682 0
M  V30 481 C 42.0529 2.44934 1.30009 0
M  V30 482 H 45.0039 1.55875 0.298125 0
M  V30 483 H 45.0249 2.53409 2.83838 0
M  V30 484 H 44.5369 3.62813 1.37799 0
M  V30 485 H 42.6379 1.94378 3.1788 0
M  V30 486 H 42.7509 3.8083 2.90698 0
M  V30 487 H 41.1149 1.9644 1.62122 0
M  V30 488 H 41.8979 3.36043 0.702131 0
M  V30 489 N 44.343 -0.763751 1.37857 0
M  V30 490 C 45.273 -1.89103 1.36975 0
M  V30 491 C 46.254 -1.68439 0.237152 0
M  V30 492 O 47.439 -1.8918 0.438713 0
M  V30 493 C 44.569 -3.26496 1.18395 0
M  V30 494 C 43.523 -3.61741 2.28751 0
M  V30 495 C 42.849 -4.97762 1.95286 0
M  V30 496 C 44.149 -3.67665 3.70972 0
M  V30 497 H 45.843 -1.90099 2.31307 0
M  V30 498 H 43.389 -0.91319 1.11341 0
M  V30 499 H 45.342 -4.05003 1.16406 0
M  V30 500 H 44.066 -3.25955 0.205215 0
M  V30 501 H 42.725 -2.85547 2.29909 0
M  V30 502 H 42.373 -4.93769 0.959221 0
M  V30 503 H 42.073 -5.22313 2.69189 0
M  V30 504 H 43.597 -5.7866 1.94898 0
M  V30 505 H 45.011 -4.36307 3.719 0
M  V30 506 H 43.408 -4.03718 4.43995 0
M  V30 507 H 44.478 -2.68134 4.0402 0
M  V30 508 N 45.8211 -1.22559 -0.990812 0
M  V30 509 C 47.0461 -1.07862 -1.77145 0
M  V30 510 C 47.4711 0.366447 -1.84496 0
M  V30 511 O 46.8291 1.26478 -1.29896 0
M  V30 512 C 46.8771 -1.69686 -3.18181 0
M  V30 513 O 45.9811 -0.951946 -4.01263 0
M  V30 514 H 45.3221 -0.378712 -0.545411 0
M  V30 515 H 47.8521 -1.62399 -1.2445 0
M  V30 516 H 47.8621 -1.74496 -3.68802 0
M  V30 517 H 46.5371 -2.74841 -3.12146 0
M  V30 518 H 45.1141 -0.980011 -3.59792 0
M  V30 519 N 47.2992 1.18797 -1.03562 0
M  V30 520 C 48.2322 2.2105 -0.56676 0
M  V30 521 C 49.2102 1.57704 0.395993 0
M  V30 522 O 50.3942 1.85908 0.311498 0
M  V30 523 C 47.5212 3.38259 0.172704 0
M  V30 524 C 46.5672 4.19987 -0.74252 0
M  V30 525 S 47.4002 4.87199 -2.22254 0
M  V30 526 C 48.5562 6.07813 -1.49379 0
M  V30 527 H 48.7892 2.60478 -1.43312 0
M  V30 528 H 46.3222 1.29151 -0.846133 0
M  V30 529 H 48.2802 4.06191 0.593191 0
M  V30 530 H 46.9412 2.97252 1.01488 0
M  V30 531 H 46.1342 5.03709 -0.171265 0
M  V30 532 H 45.7362 3.57408 -1.10163 0
M  V30 533 H 48.0282 6.72948 -0.784056 0
M  V30 534 H 48.9712 6.69435 -2.30786 0
M  V30 535 H 49.3792 5.55781 -0.988331 0
M  V30 536 N 48.7773 0.814389 1.34928 0
M  V30 537 C 49.7243 0.22822 2.29669 0
M  V30 538 C 50.6943 -0.642164 1.53184 0
M  V30 539 O 51.8793 -0.585605 1.81591 0
M  V30 540 C 49.0193 -0.61089 3.3965 0
M  V30 541 C 48.1323 0.280792 4.31086 0
M  V30 542 C 47.2673 -0.567067 5.28165 0
M  V30 543 C 46.3063 0.324531 6.11239 0
M  V30 544 N 45.4433 -0.483756 7.00431 0
M  V30 545 H 50.2833 1.04153 2.79206 0
M  V30 546 H 47.8203 0.525133 1.37407 0
M  V30 547 H 49.7783 -1.11263 4.0209 0
M  V30 548 H 48.4083 -1.38939 2.91369 0
M  V30 549 H 47.4603 0.900688 3.69583 0
M  V30 550 H 48.7723 0.966723 4.89342 0
M  V30 551 H 47.9263 -1.13363 5.96015 0
M  V30 552 H 46.6653 -1.28654 4.70425 0
M  V30 553 H 45.6703 0.903298 5.42329 0
M  V30 554 H 46.8953 1.04198 6.71059 0
M  V30 555 H 44.8413 -1.18706 6.45171 0
M  V30 556 H 44.7583 0.143965 7.55863 0
M  V30 557 H 46.0263 -1.03334 7.7262 0
M  V30 558 N 50.2554 -1.46986 0.568584 0
M  V30 559 C 51.1874 -2.28233 -0.210337 0
M  V30 560 C 52.2004 -1.37682 -0.868767 0
M  V30 561 O 53.3894 -1.62406 -0.740705 0
M  V30 562 C 50.4894 -3.12293 -1.3163 0
M  V30 563 C 49.6624 -4.30878 -0.7525 0
M  V30 564 C 48.7214 -4.96445 -1.74439 0
M  V30 565 O 47.7474 -5.54482 -1.286 0
M  V30 566 N 48.9494 -4.92171 -3.07812 0
M  V30 567 H 51.7144 -2.95723 0.486648 0
M  V30 568 H 49.2754 -1.56742 0.405409 0
M  V30 569 H 51.2674 -3.53022 -1.97883 0
M  V30 570 H 49.8374 -2.46971 -1.91636 0
M  V30 571 H 49.0574 -3.94104 0.0871128 0
M  V30 572 H 50.3454 -5.07558 -0.35536 0
M  V30 573 H 49.7434 -4.46239 -3.47688 0
M  V30 574 H 48.3004 -5.36884 -3.69592 0
M  V30 575 N 51.7335 -0.305618 -1.54608 0
M  V30 576 C 52.9805 0.302298 -2.00231 0
M  V30 577 C 53.3085 1.5354 -1.19398 0
M  V30 578 O 52.5635 1.93973 -0.259423 0
M  V30 579 C 52.8625 0.698983 -3.50498 0
M  V30 580 C 52.5285 -0.432903 -4.48817 0
M  V30 581 C 51.1905 -0.743622 -4.75419 0
M  V30 582 C 53.5425 -1.19409 -5.07337 0
M  V30 583 C 50.8705 -1.81857 -5.57804 0
M  V30 584 C 53.2225 -2.25899 -5.90891 0
M  V30 585 C 51.8865 -2.57572 -6.15803 0
M  V30 586 H 51.1565 0.110619 -0.732697 0
M  V30 587 H 53.8035 -0.425674 -1.86709 0
M  V30 588 H 52.1085 1.50711 -3.61654 0
M  V30 589 H 53.8055 1.1806 -3.83227 0
M  V30 590 H 50.3955 -0.18063 -4.28219 0
M  V30 591 H 54.5795 -0.967295 -4.86782 0
M  V30 592 H 49.8355 -2.06864 -5.75341 0
M  V30 593 H 54.0095 -2.85335 -6.35261 0
M  V30 594 H 51.6365 -3.40998 -6.7943 0
M  V30 595 N 53.2116 1.57565 -0.0334293 0
M  V30 596 C 54.1416 2.13511 0.945265 0
M  V30 597 C 55.1226 1.05231 1.33643 0
M  V30 598 O 56.3076 1.33084 1.41429 0
M  V30 599 C 53.4376 2.6657 2.22616 0
M  V30 600 C 52.3916 3.79676 1.97561 0
M  V30 601 C 51.7176 4.1918 3.31952 0
M  V30 602 C 53.0176 5.0557 1.31135 0
M  V30 603 H 54.7116 2.95538 0.479325 0
M  V30 604 H 52.2576 1.42166 0.229115 0
M  V30 605 H 54.2106 3.04344 2.91466 0
M  V30 606 H 52.9346 1.8171 2.71384 0
M  V30 607 H 51.5936 3.42347 1.31127 0
M  V30 608 H 51.2416 3.31296 3.78487 0
M  V30 609 H 50.9416 4.95402 3.15992 0
M  V30 610 H 52.4656 4.59541 4.02063 0
M  V30 611 H 53.8796 5.40903 1.89992 0
M  V30 612 H 52.2766 5.86818 1.25559 0
M  V30 613 H 53.3466 4.84062 0.284894 0
M  V30 614 N 54.6897 -0.239769 1.55765 0
M  V30 615 C 55.9667 -0.990056 1.68693 0
M  V30 616 C 56.3467 -2.03107 0.5754 0
M  V30 617 O 55.6947 -2.24604 -0.42017 0
M  V30 618 C 55.9047 -1.61696 3.09282 0
M  V30 619 C 57.2527 -2.11613 3.6811 0
M  V30 620 O 58.2767 -1.71624 3.12127 0
M  V30 621 O 57.1357 -2.85057 4.66267 0
M  V30 622 H 54.2297 -0.461299 0.686391 0
M  V30 623 H 56.7757 -0.232991 1.68093 0
M  V30 624 H 55.5477 -0.864357 3.81634 0
M  V30 625 H 55.1707 -2.44005 3.13923 0
M  V30 626 N 56.1678 -1.49265 -0.50573 0
M  V30 627 C 57.4148 -1.58513 -1.26015 0
M  V30 628 C 57.7428 -0.26972 -1.92621 0
M  V30 629 O 56.9978 0.741997 -1.81088 0
M  V30 630 C 57.2968 -2.69008 -2.35308 0
M  V30 631 C 56.9628 -4.10662 -1.86192 0
M  V30 632 C 55.6248 -4.49212 -1.72516 0
M  V30 633 C 57.9768 -4.99336 -1.49375 0
M  V30 634 C 55.3048 -5.74214 -1.20394 0
M  V30 635 C 57.6568 -6.24852 -0.987072 0
M  V30 636 C 56.3208 -6.62236 -0.836669 0
M  V30 637 H 55.5908 -0.580041 -0.461122 0
M  V30 638 H 58.2378 -1.83078 -0.561665 0
M  V30 639 H 56.5428 -2.38396 -3.10926 0
M  V30 640 H 58.2398 -2.73373 -2.93374 0
M  V30 641 H 54.8298 -3.8023 -1.97795 0
M  V30 642 H 59.0138 -4.70212 -1.5879 0
M  V30 643 H 54.2698 -6.01883 -1.07458 0
M  V30 644 H 58.4438 -6.92944 -0.692983 0
M  V30 645 H 56.0708 -7.58979 -0.430607 0
M  V30 646 N 57.6459 0.756429 -1.3826 0
M  V30 647 C 58.8939 1.51248 -1.34047 0
M  V30 648 C 59.2149 1.94875 0.0698372 0
M  V30 649 O 58.4849 1.67436 1.01696 0
M  V30 650 H 57.0649 0.561018 -0.493222 0
M  V30 651 H 59.7269 0.899347 -1.7291 0
M  V30 652 H 58.8229 2.40472 -1.98947 0
M  V30 653 N 59.124 1.23083 0.984299 0
M  V30 654 C 60.349 1.088 1.76571 0
M  V30 655 C 60.774 -0.356657 1.84688 0
M  V30 656 O 60.132 -1.25788 1.30565 0
M  V30 657 C 60.18 1.71371 3.17277 0
M  V30 658 O 59.284 0.973213 4.00752 0
M  V30 659 H 58.625 0.381599 0.543395 0
M  V30 660 H 61.155 1.63057 1.23587 0
M  V30 661 H 61.165 1.76449 3.67872 0
M  V30 662 H 59.84 2.76493 3.10684 0
M  V30 663 H 58.417 0.999078 3.59267 0
M  V30 664 N 60.6021 -1.18246 1.0419 0
M  V30 665 C 61.8271 -1.92736 0.765996 0
M  V30 666 C 62.2521 -1.75728 -0.67091 0
M  V30 667 O 61.6101 -1.06825 -1.46486 0
M  V30 668 C 61.6581 -3.42148 1.13875 0
M  V30 669 O 60.7621 -4.11548 0.264954 0
M  V30 670 H 60.1031 -0.601238 0.281797 0
M  V30 671 H 62.6331 -1.49942 1.39207 0
M  V30 672 H 62.6431 -3.92858 1.1012 0
M  V30 673 H 61.3181 -3.53848 2.18551 0
M  V30 674 H 59.8951 -3.71137 0.362226 0
M  V30 675 N 62.0802 -0.821533 -1.34494 0
M  V30 676 C 63.0282 -0.230702 -2.31453 0
M  V30 677 C 64.0222 0.627793 -1.57338 0
M  V30 678 O 65.2282 0.519288 -1.72347 0
M  V30 679 H 61.6032 -0.0558577 -0.749923 0
M  V30 680 H 63.5742 -1.06332 -2.78812 0
M  V30 681 C 62.3232 0.59391 -3.4259 0
M  V30 682 H 61.6462 -0.0573588 -3.99759 0
M  V30 683 H 63.0862 0.973446 -4.12674 0
M  V30 684 C 61.5452 1.76568 -2.86924 0
M  V30 685 O 62.0752 2.8638 -2.81691 0
M  V30 686 N 60.2812 1.58198 -2.43766 0
M  V30 687 H 59.8282 0.68872 -2.48222 0
M  V30 688 H 59.7862 2.36752 -2.06871 0
M  V30 689 N 63.5583 1.46682 -0.576371 0
M  V30 690 C 64.5213 2.28707 0.150239 0
M  V30 691 C 65.5213 1.38035 0.824794 0
M  V30 692 O 66.7113 1.60476 0.677719 0
M  V30 693 C 63.8433 3.18248 1.22192 0
M  V30 694 H 65.0363 2.94423 -0.570521 0
M  V30 695 H 62.5893 1.52688 -0.334078 0
M  V30 696 H 63.3243 2.57265 1.97447 0
M  V30 697 H 63.1093 3.85 0.742812 0
M  V30 698 H 64.5993 3.80001 1.73172 0
M  V30 699 N 65.0364 0.313813 1.54444 0
M  V30 700 C 66.2764 -0.292389 2.02298 0
M  V30 701 C 66.6404 -1.50105 1.19719 0
M  V30 702 O 67.8414 -2.17947 1.5733 0
M  V30 703 C 66.1124 -0.627682 3.51845 0
M  V30 704 S 67.6714 -1.21493 4.21646 0
M  V30 705 H 64.4894 -0.0890247 0.705405 0
M  V30 706 H 67.0914 0.444668 1.90376 0
M  V30 707 H 65.7954 0.260265 4.09574 0
M  V30 708 H 65.3264 -1.39519 3.67829 0
M  V30 709 H 67.3414 -2.5022 4.28491 0
M  V30 710 N 66.5145 -1.57545 0.0417849 0
M  V30 711 C 67.4245 -2.14451 -0.951213 0
M  V30 712 C 68.4405 -1.09992 -1.34825 0
M  V30 713 O 69.6165 -1.42114 -1.42708 0
M  V30 714 C 66.6815 -2.67063 -2.21084 0
M  V30 715 C 65.7425 -3.86284 -1.87304 0
M  V30 716 C 64.9755 -4.36378 -3.07261 0
M  V30 717 O 65.1985 -3.85587 -4.20332 0
M  V30 718 O 64.1325 -5.28077 -2.88822 0
M  V30 719 H 67.9585 -2.99601 -0.497287 0
M  V30 720 H 65.5435 -1.48317 -0.179567 0
M  V30 721 H 67.4255 -3.00914 -2.95006 0
M  V30 722 H 66.1005 -1.84989 -2.65633 0
M  V30 723 H 65.0075 -3.57338 -1.10727 0
M  V30 724 H 66.3405 -4.6956 -1.47562 0
M  V30 725 N 67.9926 0.231505 -1.5589 0
M  V30 726 C 68.9396 1.28682 -1.91598 0
M  V30 727 C 69.9096 1.47071 -0.771974 0
M  V30 728 O 71.0946 1.60802 -1.027 0
M  V30 729 C 68.2346 2.6342 -2.22944 0
M  V30 730 C 67.3476 2.52912 -3.50228 0
M  V30 731 C 66.4826 3.80106 -3.7107 0
M  V30 732 C 65.5216 3.64279 -4.91902 0
M  V30 733 N 64.6586 4.834 -5.09184 0
M  V30 734 H 69.4986 0.975305 -2.81588 0
M  V30 735 H 67.0356 0.470299 -1.39379 0
M  V30 736 H 68.9936 3.41869 -2.39126 0
M  V30 737 H 67.6236 2.92687 -1.36139 0
M  V30 738 H 66.6756 1.6595 -3.42294 0
M  V30 739 H 67.9876 2.37133 -4.38827 0
M  V30 740 H 67.1416 4.66999 -3.87295 0
M  V30 741 H 65.8806 3.98799 -2.80733 0
M  V30 742 H 64.8856 2.7577 -4.75637 0
M  V30 743 H 66.1106 3.47067 -5.83714 0
M  V30 744 H 64.0566 5.02425 -4.21788 0
M  V30 745 H 63.9736 4.70311 -5.91898 0
M  V30 746 H 65.2416 5.71747 -5.29835 0
M  V30 747 N 69.4707 1.49531 0.497807 0
M  V30 748 C 70.6987 1.62893 1.27567 0
M  V30 749 C 71.1137 0.301585 1.86376 0
M  V30 750 O 70.4707 -0.713335 1.67982 0
M  V30 751 C 70.5217 2.70013 2.40364 0
M  V30 752 O 70.2427 3.976 1.83972 0
M  V30 753 C 71.7437 2.94109 3.31685 0
M  V30 754 H 68.9637 0.548298 0.386794 0
M  V30 755 H 71.5077 1.95584 0.597245 0
M  V30 756 H 69.6627 2.40092 3.04031 0
M  V30 757 H 70.0767 4.56631 2.58047 0
M  V30 758 H 71.5507 3.72788 4.07104 0
M  V30 759 H 72.0277 2.04147 3.88871 0
M  V30 760 H 72.6337 3.2546 2.73781 0
M  V30 761 N 70.9488 -0.749086 1.3866 0
M  V30 762 C 72.1738 -1.54344 1.38538 0
M  V30 763 C 72.5988 -1.88088 -0.0216655 0
M  V30 764 O 71.9568 -1.50899 -1.00494 0
M  V30 765 C 72.0048 -2.8164 2.25192 0
M  V30 766 O 71.1088 -3.7698 1.67212 0
M  V30 767 H 70.4498 -0.466654 0.472367 0
M  V30 768 H 72.9798 -0.925355 1.82478 0
M  V30 769 H 72.9898 -3.30519 2.3921 0
M  V30 770 H 71.6648 -2.56411 3.27454 0
M  V30 771 H 70.2418 -3.35699 1.6236 0
M  V30 772 N 72.4269 -1.23603 -0.977757 0
M  V30 773 C 73.6739 -1.06971 -1.71941 0
M  V30 774 C 74.0019 0.393009 -1.90488 0
M  V30 775 O 73.2569 1.30719 -1.4564 0
M  V30 776 C 73.5559 -1.7433 -3.11999 0
M  V30 777 C 73.2219 -3.24252 -3.13323 0
M  V30 778 C 71.8839 -3.65156 -3.13392 0
M  V30 779 C 74.2359 -4.20141 -3.08433 0
M  V30 780 C 71.5639 -5.00403 -3.0629 0
M  V30 781 C 73.9159 -5.55384 -3.02873 0
M  V30 782 C 72.5799 -5.95647 -3.01265 0
M  V30 783 H 71.8499 -0.391433 -0.629175 0
M  V30 784 H 74.4969 -1.53572 -1.14403 0
M  V30 785 H 72.8019 -1.20096 -3.7294 0
M  V30 786 H 74.4989 -1.58936 -3.68158 0
M  V30 787 H 71.0889 -2.91692 -3.14029 0
M  V30 788 H 75.2729 -3.89547 -3.07517 0
M  V30 789 H 70.5289 -5.3081 -3.03399 0
M  V30 790 H 74.7029 -6.29398 -2.98046 0
M  V30 791 H 72.3299 -7.0041 -2.95516 0
M  V30 792 N 73.905 1.17692 -1.04816 0
M  V30 793 C 75.133 1.91786 -0.776254 0
M  V30 794 C 75.548 1.76604 0.667577 0
M  V30 795 O 74.905 1.10067 1.45573 0
M  V30 796 C 74.956 3.42967 -1.14263 0
M  V30 797 O 74.677 3.57678 -2.52978 0
M  V30 798 C 76.178 4.34144 -0.896311 0
M  V30 799 H 73.398 0.608624 -0.282519 0
M  V30 800 H 75.942 1.49268 -1.39783 0
M  V30 801 H 74.097 3.83245 -0.565874 0
M  V30 802 H 74.511 4.51319 -2.67229 0
M  V30 803 H 75.985 5.38744 -1.20244 0
M  V30 804 H 76.462 4.38876 0.168636 0
M  V30 805 H 77.068 3.99574 -1.45672 0
M  V30 806 N 75.3831 0.828654 1.34056 0
M  V30 807 C 76.6301 0.419458 1.98108 0
M  V30 808 C 76.9581 -1.01886 1.65679 0
M  V30 809 O 76.2131 -1.72539 0.923512 0
M  V30 810 C 76.5121 0.575226 3.52741 0
M  V30 811 C 76.1781 1.98012 4.05095 0
M  V30 812 C 74.8401 2.36442 4.19104 0
M  V30 813 C 77.1921 2.89824 4.33188 0
M  V30 814 C 74.5201 3.66009 4.58535 0
M  V30 815 C 76.8721 4.1886 4.74066 0
M  V30 816 C 75.5361 4.5726 4.86281 0
M  V30 817 H 74.8061 0.153491 0.724929 0
M  V30 818 H 77.4531 1.05371 1.59904 0
M  V30 819 H 75.7581 -0.142385 3.91541 0
M  V30 820 H 77.4551 0.239057 4.00287 0
M  V30 821 H 74.0451 1.67162 3.94658 0
M  V30 822 H 78.2291 2.61375 4.21897 0
M  V30 823 H 73.4851 3.95579 4.66184 0
M  V30 824 H 77.6591 4.90086 4.94761 0
M  V30 825 H 75.2861 5.57707 5.16592 0
M  V30 826 N 76.8612 -1.46375 0.584142 0
M  V30 827 C 77.7912 -2.33103 -0.136037 0
M  V30 828 C 78.7722 -1.45431 -0.882255 0
M  V30 829 O 79.9572 -1.74246 -0.857434 0
M  V30 830 C 77.0872 -3.27731 -1.14933 0
M  V30 831 C 76.0412 -4.24855 -0.517862 0
M  V30 832 C 75.3672 -5.09001 -1.63773 0
M  V30 833 C 76.6672 -5.19439 0.545886 0
M  V30 834 H 78.3612 -2.93568 0.588086 0
M  V30 835 H 75.9072 -1.41166 0.284259 0
M  V30 836 H 77.8602 -3.87261 -1.66153 0
M  V30 837 H 76.5842 -2.65377 -1.90375 0
M  V30 838 H 75.2432 -3.6659 -0.0267361 0
M  V30 839 H 74.8912 -4.43031 -2.38185 0
M  V30 840 H 74.5912 -5.74777 -1.22085 0
M  V30 841 H 76.1152 -5.71396 -2.15266 0
M  V30 842 H 77.5292 -5.73177 0.118704 0
M  V30 843 H 75.9262 -5.93566 0.88317 0
M  V30 844 H 76.9962 -4.63285 1.43162 0
M  V30 845 N 78.3393 -0.321999 -1.54275 0
M  V30 846 C 79.7553 0.0306999 -1.5957 0
M  V30 847 C 79.9553 1.50614 -1.33857 0
M  V30 848 O 79.0113 2.2619 -1.12223 0
M  V30 849 C 80.3243 -0.386122 -2.98211 0
M  V30 850 C 81.8723 -0.336647 -3.11184 0
M  V30 851 C 82.3473 -0.728607 -4.52167 0
M  V30 852 N 83.8383 -0.681952 -4.58152 0
M  V30 853 C 84.5733 -0.957449 -5.6535 0
M  V30 854 N 84.0693 -1.3 -6.80494 0
M  V30 855 N 85.8623 -0.883113 -5.55119 0
M  V30 856 H 78.0133 -1.28332 -1.69247 0
M  V30 857 H 80.2763 -0.521716 -0.791528 0
M  V30 858 H 79.9823 -1.41404 -3.22022 0
M  V30 859 H 79.8563 0.249662 -3.76373 0
M  V30 860 H 82.2433 0.682058 -2.8711 0
M  V30 861 H 82.3243 -1.00734 -2.3513 0
M  V30 862 H 81.9683 -1.74522 -4.76974 0
M  V30 863 H 81.8983 -0.0356152 -5.26588 0
M  V30 864 H 84.3893 -0.428985 -3.75457 0
M  V30 865 H 84.7023 -1.49563 -7.58189 0
M  V30 866 H 83.0473 -1.33824 -6.81994 0
M  V30 867 H 86.2383 -0.615001 -4.64042 0
M  V30 868 H 86.4113 -1.10118 -6.38575 0
M  V30 869 N 79.8174 1.5752 -0.0501392 0
M  V30 870 C 80.7494 2.08413 0.95376 0
M  V30 871 C 81.7624 1.01175 1.27544 0
M  V30 872 O 82.9514 1.28744 1.23641 0
M  V30 873 C 80.0514 2.51138 2.27559 0
M  V30 874 C 79.2244 3.817 2.13598 0
M  V30 875 C 78.2834 4.10749 3.28895 0
M  V30 876 O 77.3094 4.80685 3.04845 0
M  V30 877 N 78.5114 3.62579 4.5334 0
M  V30 878 H 81.2764 2.95165 0.519383 0
M  V30 879 H 78.8374 1.61327 0.136127 0
M  V30 880 H 80.8294 2.67648 3.03557 0
M  V30 881 H 79.3994 1.6964 2.62567 0
M  V30 882 H 78.6194 3.74782 1.22197 0
M  V30 883 H 79.9074 4.67201 2.01496 0
M  V30 884 H 79.3054 3.06039 4.75769 0
M  V30 885 H 77.8624 3.84329 5.26436 0
M  V30 886 N 81.2955 -0.223234 1.56011 0
M  V30 887 C 82.2055 -1.29766 1.95443 0
M  V30 888 C 83.2215 -1.51373 0.858028 0
M  V30 889 O 84.3975 -1.64536 1.16146 0
M  V30 890 C 81.4625 -2.62772 2.26167 0
M  V30 891 C 80.5235 -2.49482 3.49367 0
M  V30 892 C 79.7565 -3.76145 3.78616 0
M  V30 893 O 79.9795 -4.79087 3.09568 0
M  V30 894 O 78.9135 -3.73358 4.72109 0
M  V30 895 H 82.7395 -0.99309 2.87004 0
M  V30 896 H 80.3245 -0.425958 1.43199 0
M  V30 897 H 82.2065 -3.41327 2.47131 0
M  V30 898 H 80.8815 -2.92913 1.37781 0
M  V30 899 H 79.7885 -1.69133 3.33684 0
M  V30 900 H 81.1215 -2.2428 4.38131 0
M  V30 901 N 82.7736 -1.49793 -0.48987 0
M  V30 902 C 83.7036 -1.70201 -1.59856 0
M  V30 903 C 84.6846 -0.55076 -1.60937 0
M  V30 904 O 85.8696 -0.787841 -1.77501 0
M  V30 905 C 82.9996 -1.77882 -2.98287 0
M  V30 906 C 81.9536 -2.92907 -3.12073 0
M  V30 907 C 81.2796 -2.85712 -4.51965 0
M  V30 908 C 82.5796 -4.3369 -2.91051 0
M  V30 909 H 84.2736 -2.63025 -1.43032 0
M  V30 910 H 81.8196 -1.26574 -0.686664 0
M  V30 911 H 83.7726 -1.90744 -3.75759 0
M  V30 912 H 82.4966 -0.816653 -3.16225 0
M  V30 913 H 81.1556 -2.79665 -2.37029 0
M  V30 914 H 80.8036 -1.8738 -4.66795 0
M  V30 915 H 80.5036 -3.62921 -4.62128 0
M  V30 916 H 82.0276 -3.00598 -5.31482 0
M  V30 917 H 83.4416 -4.47555 -3.58284 0
M  V30 918 H 81.8386 -5.12205 -3.12675 0
M  V30 919 H 82.9086 -4.47362 -1.87071 0
M  V30 920 N 84.2517 0.741722 -1.39055 0
M  V30 921 C 85.6627 1.31966 -1.32068 0
M  V30 922 C 86.0137 1.96192 0.0180797 0
M  V30 923 O 85.1387 1.95861 0.920196 0
M  V30 924 C 85.7337 2.39954 -2.39181 0
M  V30 925 C 84.2927 2.93438 -2.35735 0
M  V30 926 C 83.4397 1.66936 -2.21422 0
M  V30 927 H 86.3907 0.539721 -1.4924 0
M  V30 928 H 86.4117 3.20182 -2.05581 0
M  V30 929 H 85.9237 1.9318 -3.36605 0
M  V30 930 H 84.0247 3.4451 -1.41929 0
M  V30 931 H 84.1377 3.4701 -3.30335 0
M  V30 932 H 82.5017 1.91016 -1.68478 0
M  V30 933 H 83.2847 1.22224 -3.20806 0
M  V30 934 N 85.7298 1.2412 0.971189 0
M  V30 935 C 86.9758 1.08041 1.71625 0
M  V30 936 C 87.3088 -0.380407 1.90438 0
M  V30 937 O 86.5838 -1.28127 1.46334 0
M  V30 938 C 86.8668 1.81682 3.10908 0
M  V30 939 C 86.7198 3.35493 2.99608 0
M  V30 940 C 88.0388 1.58671 4.10501 0
M  V30 941 H 85.1578 0.39388 0.622919 0
M  V30 942 H 87.7998 1.52743 1.13003 0
M  V30 943 H 85.9498 1.43684 3.60953 0
M  V30 944 H 87.6218 3.83068 2.57015 0
M  V30 945 H 85.8648 3.64052 2.35899 0
M  V30 946 H 86.5358 3.82217 3.98264 0
M  V30 947 H 89.0118 1.91719 3.69301 0
M  V30 948 H 87.8878 2.1266 5.06031 0
M  V30 949 H 88.1488 0.524161 4.38982 0
M  V30 950 N 87.2079 -1.17134 1.05439 0
M  V30 951 C 88.6239 -1.39454 0.776201 0
M  V30 952 C 88.8239 -1.91454 -0.628307 0
M  V30 953 O 87.8799 -2.10777 -1.39031 0
M  V30 954 C 89.1929 -2.38305 1.83388 0
M  V30 955 C 90.7409 -2.52006 1.85639 0
M  V30 956 C 91.2159 -3.54133 2.90437 0
M  V30 957 N 92.7069 -3.61653 2.89415 0
M  V30 958 C 93.4419 -4.4044 3.67152 0
M  V30 959 N 92.9379 -5.22721 4.54681 0
M  V30 960 N 94.7309 -4.35337 3.55581 0
M  V30 961 H 86.8819 -0.817134 1.96053 0
M  V30 962 H 89.1449 -0.421626 0.849079 0
M  V30 963 H 88.8509 -2.07173 2.84204 0
M  V30 964 H 88.7249 -3.37841 1.67761 0
M  V30 965 H 91.1119 -2.82447 0.85486 0
M  V30 966 H 91.1929 -1.52537 2.05344 0
M  V30 967 H 90.8369 -3.24431 3.90777 0
M  V30 968 H 90.7669 -4.53313 2.67983 0
M  V30 969 H 93.2579 -3.02909 2.25952 0
M  V30 970 H 93.5709 -5.80027 5.10674 0
M  V30 971 H 91.9159 -5.22093 4.58741 0
M  V30 972 H 95.1069 -3.70112 2.86592 0
M  V30 973 H 95.2799 -4.96494 4.1641 0
M  V30 974 N 88.686 -0.835752 -1.33615 0
M  V30 975 C 89.616 -0.281739 -2.31794 0
M  V30 976 C 90.597 0.608833 -1.58831 0
M  V30 977 O 91.782 0.533035 -1.86741 0
M  V30 978 C 88.912 0.546612 -3.42971 0
M  V30 979 C 87.866 -0.247904 -4.27281 0
M  V30 980 C 87.192 0.704001 -5.30045 0
M  V30 981 C 88.492 -1.46324 -5.01385 0
M  V30 982 H 90.186 -1.10206 -2.78379 0
M  V30 983 H 87.732 -0.531388 -1.33837 0
M  V30 984 H 89.685 0.944467 -4.1068 0
M  V30 985 H 88.409 1.40011 -2.95067 0
M  V30 986 H 87.068 -0.627281 -3.61194 0
M  V30 987 H 86.716 1.55381 -4.78399 0
M  V30 988 H 86.416 0.176524 -5.87335 0
M  V30 989 H 87.94 1.09944 -6.0062 0
M  V30 990 H 89.354 -1.13871 -5.61877 0
M  V30 991 H 87.751 -1.92728 -5.6831 0
M  V30 992 H 88.821 -2.23467 -4.30338 0
M  V30 993 N 90.1641 1.46063 -0.591896 0
M  V30 994 C 91.1271 2.28854 0.125973 0
M  V30 995 C 92.1271 1.38903 0.810107 0
M  V30 996 O 93.3171 1.61186 0.66066 0
M  V30 997 C 90.4491 3.19526 1.1881 0
M  V30 998 H 91.6421 2.93802 -0.601717 0
M  V30 999 H 89.1951 1.52325 -0.350254 0
M  V30 1000 H 89.9301 2.59345 1.94707 0
M  V30 1001 H 89.7151 3.85766 0.701936 0
M  V30 1002 H 91.2051 3.81817 1.69132 0
M  V30 1003 N 91.6422 0.330177 1.54103 0
M  V30 1004 C 92.5902 -0.548226 2.26047 0
M  V30 1005 C 93.5842 -1.11309 1.27698 0
M  V30 1006 O 94.7902 -1.06036 1.45452 0
M  V30 1007 H 91.1652 -0.195456 0.726155 0
M  V30 1008 H 93.1362 0.0807567 2.98291 0
M  V30 1009 C 91.8852 -1.69415 3.03634 0
M  V30 1010 H 91.2082 -1.26876 3.79134 0
M  V30 1011 H 92.6482 -2.28423 3.5721 0
M  V30 1012 C 91.1072 -2.61569 2.12328 0
M  V30 1013 O 91.6372 -3.63462 1.7105 0
M  V30 1014 N 89.8432 -2.29952 1.77681 0
M  V30 1015 H 89.3902 -1.47134 2.11446 0
M  V30 1016 H 89.3482 -2.91871 1.16869 0
M  V30 1017 N 93.1203 -1.57491 0.0584922 0
M  V30 1018 C 94.3693 -1.92155 -0.613146 0
M  V30 1019 C 94.6823 -0.939334 -1.71569 0
M  V30 1020 O 95.8883 -1.17829 -2.44599 0
M  V30 1021 C 94.3443 -3.41303 -1.14195 0
M  V30 1022 C 93.9523 -4.47944 -0.0711265 0
M  V30 1023 C 95.6963 -3.84988 -1.78841 0
M  V30 1024 C 93.6033 -5.88212 -0.613225 0
M  V30 1025 H 92.5333 -0.717162 -0.232796 0
M  V30 1026 H 95.1843 -1.83049 0.12857 0
M  V30 1027 H 93.5663 -3.45437 -1.93621 0
M  V30 1028 H 94.7403 -4.55408 0.702836 0
M  V30 1029 H 93.0553 -4.13644 0.478313 0
M  V30 1030 H 95.6523 -4.87159 -2.20408 0
M  V30 1031 H 95.9953 -3.21632 -2.64308 0
M  V30 1032 H 96.5283 -3.83401 -1.06059 0
M  V30 1033 H 93.2673 -6.55183 0.203978 0
M  V30 1034 H 92.7873 -5.84294 -1.35501 0
M  V30 1035 H 94.4663 -6.37687 -1.09383 0
M  V30 1036 N 94.5984 0.214957 -1.56127 0
M  V30 1037 C 95.5314 1.29382 -1.87977 0
M  V30 1038 C 96.5094 1.44897 -0.737807 0
M  V30 1039 O 97.6934 1.60605 -0.986833 0
M  V30 1040 C 94.8204 2.66325 -2.09258 0
M  V30 1041 C 93.8664 2.67789 -3.31951 0
M  V30 1042 S 94.6994 2.21198 -4.8768 0
M  V30 1043 C 95.8554 3.60003 -5.12004 0
M  V30 1044 H 96.0884 1.02173 -2.79192 0
M  V30 1045 H 93.6214 0.417516 -1.48648 0
M  V30 1046 H 95.5794 3.45162 -2.22201 0
M  V30 1047 H 94.2404 2.90755 -1.18829 0
M  V30 1048 H 93.4334 3.68436 -3.43906 0
M  V30 1049 H 93.0354 1.9702 -3.17898 0
M  V30 1050 H 95.3274 4.55739 -5.01307 0
M  V30 1051 H 96.2704 3.52959 -6.13861 0
M  V30 1052 H 96.6784 3.53996 -4.39712 0
M  V30 1053 N 96.0765 1.50051 0.48192 0
M  V30 1054 C 97.0235 1.68122 1.58125 0
M  V30 1055 C 97.9935 0.522545 1.57666 0
M  V30 1056 O 99.1785 0.751844 1.75362 0
M  V30 1057 C 96.3185 1.77142 2.96167 0
M  V30 1058 C 95.4315 3.0444 3.06497 0
M  V30 1059 C 94.5665 3.04321 4.35387 0
M  V30 1060 C 93.6055 4.26118 4.3942 0
M  V30 1061 N 92.7425 4.238 5.59766 0
M  V30 1062 H 97.5825 2.6198 1.42022 0
M  V30 1063 H 95.1195 1.29877 0.690687 0
M  V30 1064 H 97.0775 1.80352 3.76203 0
M  V30 1065 H 95.7075 0.867329 3.1093 0
M  V30 1066 H 94.7595 3.10752 2.19402 0
M  V30 1067 H 96.0715 3.94426 3.05336 0
M  V30 1068 H 95.2255 3.062 5.23762 0
M  V30 1069 H 93.9645 2.12147 4.39141 0
M  V30 1070 H 92.9695 4.24463 3.49444 0
M  V30 1071 H 94.1945 5.19507 4.37366 0
M  V30 1072 H 92.1405 3.34474 5.64326 0
M  V30 1073 H 92.0575 5.07542 5.60301 0
M  V30 1074 H 93.3255 4.2981 6.50295 0
M  V30 1075 N 97.5546 -0.734337 1.39446 0
M  V30 1076 C 98.4646 -1.87879 1.40495 0
M  V30 1077 C 99.4806 -1.714 0.299672 0
M  V30 1078 O 100.657 -1.93991 0.541249 0
M  V30 1079 C 97.7216 -3.23477 1.24754 0
M  V30 1080 C 96.7826 -3.52344 2.45259 0
M  V30 1081 C 96.0156 -4.81473 2.30259 0
M  V30 1082 O 96.2386 -5.55237 1.30643 0
M  V30 1083 O 95.1726 -5.10254 3.19256 0
M  V30 1084 H 98.9986 -1.89949 2.36966 0
M  V30 1085 H 96.5836 -0.882243 1.20569 0
M  V30 1086 H 98.4656 -4.04509 1.18111 0
M  V30 1087 H 97.1406 -3.22176 0.313781 0
M  V30 1088 H 96.0476 -2.71396 2.57478 0
M  V30 1089 H 97.3806 -3.58426 3.37331 0
M  V30 1090 N 99.0327 -1.24633 -0.964593 0
M  V30 1091 C 100.282 -1.08188 -1.7023 0
M  V30 1092 C 100.595 0.37873 -1.91898 0
M  V30 1093 O 101.801 0.663427 -2.6327 0
M  V30 1094 C 100.257 -1.88773 -3.06419 0
M  V30 1095 C 99.8647 -3.39263 -2.92582 0
M  V30 1096 C 101.609 -1.80867 -3.84041 0
M  V30 1097 C 99.5157 -4.1218 -4.24101 0
M  V30 1098 H 98.4457 -0.401245 -0.638372 0
M  V30 1099 H 101.097 -1.48742 -1.07462 0
M  V30 1100 H 99.4787 -1.41035 -3.70034 0
M  V30 1101 H 100.653 -3.94603 -2.37961 0
M  V30 1102 H 98.9677 -3.48154 -2.28424 0
M  V30 1103 H 101.565 -2.32646 -4.81435 0
M  V30 1104 H 101.908 -0.774543 -4.09031 0
M  V30 1105 H 102.441 -2.26301 -3.27159 0
M  V30 1106 H 99.1797 -5.15965 -4.04303 0
M  V30 1107 H 98.6997 -3.61626 -4.78526 0
M  V30 1108 H 100.379 -4.19349 -4.92702 0
M  V30 1109 N 100.511 1.16574 -1.06058 0
M  V30 1110 C 101.459 2.22941 -0.663343 0
M  V30 1111 C 102.453 1.66358 0.319593 0
M  V30 1112 O 103.659 1.7905 0.184713 0
M  V30 1113 H 100.034 0.725907 -0.196376 0
M  V30 1114 H 102.005 2.53736 -1.57037 0
M  V30 1115 C 100.754 3.47642 -0.0632808 0
M  V30 1116 H 100.077 3.91493 -0.810733 0
M  V30 1117 H 101.517 4.2363 0.177177 0
M  V30 1118 C 99.9758 3.1509 1.19248 0
M  V30 1119 O 100.506 3.30673 2.28075 0
M  V30 1120 N 98.7118 2.6924 1.09353 0
M  V30 1121 H 98.2588 2.5676 0.207912 0
M  V30 1122 H 98.2168 2.47833 1.93458 0
M  V30 1123 N 101.989 0.842826 1.3317 0
M  V30 1124 C 102.919 0.294028 2.31641 0
M  V30 1125 C 103.9 -0.600401 1.59151 0
M  V30 1126 O 105.085 -0.523124 1.87022 0
M  V30 1127 C 102.215 -0.528416 3.43257 0
M  V30 1128 C 101.169 0.27056 4.27144 0
M  V30 1129 C 100.495 -0.675881 5.30411 0
M  V30 1130 C 101.795 1.48981 5.00602 0
M  V30 1131 H 103.489 1.11681 2.77791 0
M  V30 1132 H 101.035 0.538478 1.33553 0
M  V30 1133 H 102.988 -0.922674 4.11175 0
M  V30 1134 H 101.712 -1.38445 2.95805 0
M  V30 1135 H 100.371 0.646427 3.60856 0
M  V30 1136 H 100.019 -1.52842 4.79216 0
M  V30 1137 H 99.7189 -0.145374 5.8742 0
M  V30 1138 H 101.243 -1.06757 6.01195 0
M  V30 1139 H 102.657 1.16849 5.61266 0
M  V30 1140 H 101.054 1.95739 5.6728 0
M  V30 1141 H 102.124 2.25746 4.29147 0
M  V30 1142 N 103.467 -1.45747 0.599634 0
M  V30 1143 C 104.397 -2.33235 -0.111306 0
M  V30 1144 C 105.378 -1.46359 -0.866781 0
M  V30 1145 O 106.563 -1.75146 -0.838904 0
M  V30 1146 C 103.693 -3.28932 -1.11451 0
M  V30 1147 C 102.647 -4.25381 -0.472772 0
M  V30 1148 C 101.973 -5.1071 -1.58365 0
M  V30 1149 C 103.273 -5.18831 0.600948 0
M  V30 1150 H 104.967 -2.92927 0.61919 0
M  V30 1151 H 102.513 -1.40857 0.299215 0
M  V30 1152 H 104.466 -3.89002 -1.62036 0
M  V30 1153 H 103.19 -2.67381 -1.8755 0
M  V30 1154 H 101.849 -3.66598 0.0121472 0
M  V30 1155 H 101.497 -4.45533 -2.33473 0
M  V30 1156 H 101.197 -5.7604 -1.15982 0
M  V30 1157 H 102.721 -5.73647 -2.09194 0
M  V30 1158 H 104.135 -5.73019 0.179491 0
M  V30 1159 H 102.532 -5.92595 0.946076 0
M  V30 1160 H 103.602 -4.6174 1.48068 0
M  V30 1161 N 104.945 -0.338344 -1.53925 0
M  V30 1162 C 106.356 0.146651 -1.86123 0
M  V30 1163 C 106.707 1.5042 -1.2597 0
M  V30 1164 O 105.832 2.08723 -0.571294 0
M  V30 1165 C 106.427 0.272879 -3.37699 0
M  V30 1166 C 104.986 0.702103 -3.69794 0
M  V30 1167 C 104.133 -0.167304 -2.76795 0
M  V30 1168 H 107.084 -0.558123 -1.48562 0
M  V30 1169 H 107.105 1.10128 -3.64214 0
M  V30 1170 H 106.617 -0.715307 -3.81451 0
M  V30 1171 H 104.718 1.6995 -3.31584 0
M  V30 1172 H 104.831 0.495604 -4.7653 0
M  V30 1173 H 103.195 0.359527 -2.5215 0
M  V30 1174 H 103.978 -1.15253 -3.23375 0
M  V30 1175 N 106.423 1.57458 -0.0668435 0
M  V30 1176 C 107.7 1.8469 0.644132 0
M  V30 1177 C 108.08 0.958343 1.88093 0
M  V30 1178 O 107.428 0.0233579 2.28488 0
M  V30 1179 C 107.638 3.34767 0.986509 0
M  V30 1180 C 108.986 4.02159 1.36212 0
M  V30 1181 O 110.01 3.39484 1.07839 0
M  V30 1182 O 108.869 5.12694 1.89227 0
M  V30 1183 H 105.963 0.762816 0.319437 0
M  V30 1184 H 108.509 1.6942 -0.0973986 0
M  V30 1185 H 107.281 3.91151 0.107883 0
M  V30 1186 H 106.904 3.55281 1.78497 0
M  V30 1187 N 107.901 -0.206675 1.56239 0
M  V30 1188 C 109.317 -0.557025 1.49564 0
M  V30 1189 C 109.517 -1.86424 0.764735 0
M  V30 1190 O 108.573 -2.50584 0.310491 0
M  V30 1191 C 109.886 -0.622478 2.94186 0
M  V30 1192 C 111.434 -0.712099 3.04792 0
M  V30 1193 C 111.909 -0.808767 4.50803 0
M  V30 1194 N 113.4 -0.8726 4.54907 0
M  V30 1195 C 114.135 -0.967365 5.65181 0
M  V30 1196 N 113.631 -1.02515 6.85173 0
M  V30 1197 N 115.424 -1.00366 5.53067 0
M  V30 1198 H 107.575 0.650943 2.02179 0
M  V30 1199 H 109.838 0.230387 0.919579 0
M  V30 1200 H 109.544 0.268727 3.50672 0
M  V30 1201 H 109.418 -1.4811 3.46905 0
M  V30 1202 H 111.805 -1.59374 2.48363 0
M  V30 1203 H 111.886 0.172489 2.55218 0
M  V30 1204 H 111.53 0.0684754 5.07854 0
M  V30 1205 H 111.46 -1.70899 4.98098 0
M  V30 1206 H 113.951 -0.837657 3.68499 0
M  V30 1207 H 114.264 -1.09765 7.64965 0
M  V30 1208 H 112.609 -0.994026 6.87855 0
M  V30 1209 H 115.8 -0.95527 4.58249 0
M  V30 1210 H 115.973 -1.07405 6.39037 0
M  V30 1211 N 109.379 -1.50304 -0.473955 0
M  V30 1212 C 110.625 -1.61389 -1.22806 0
M  V30 1213 C 110.958 -0.311955 -1.91678 0
M  V30 1214 O 110.233 0.686384 -1.81986 0
M  V30 1215 C 110.516 -2.79219 -2.27396 0
M  V30 1216 C 110.369 -4.19286 -1.62848 0
M  V30 1217 C 111.688 -2.92614 -3.28732 0
M  V30 1218 H 108.807 -0.587399 -0.445119 0
M  V30 1219 H 111.449 -1.82681 -0.522265 0
M  V30 1220 H 109.599 -2.61195 -2.87592 0
M  V30 1221 H 111.271 -4.48892 -1.06271 0
M  V30 1222 H 109.514 -4.23677 -0.931693 0
M  V30 1223 H 110.185 -4.97655 -2.38838 0
M  V30 1224 H 112.661 -3.09105 -2.78556 0
M  V30 1225 H 111.537 -3.76688 -3.99246 0
M  V30 1226 H 111.798 -2.03107 -3.92683 0
M  V30 1227 N 110.857 0.726932 -1.39834 0
M  V30 1228 C 111.787 1.85405 -1.41941 0
M  V30 1229 C 112.768 1.67751 -0.281728 0
M  V30 1230 O 113.953 1.8795 -0.488717 0
M  V30 1231 C 111.083 3.23243 -1.2701 0
M  V30 1232 C 110.037 3.55549 -2.38262 0
M  V30 1233 C 109.363 4.9241 -2.08415 0
M  V30 1234 C 110.663 3.577 -3.80589 0
M  V30 1235 H 112.357 1.83899 -2.36266 0
M  V30 1236 H 109.903 0.883349 -1.13723 0
M  V30 1237 H 111.856 4.01775 -1.27103 0
M  V30 1238 H 110.58 3.25296 -0.291564 0
M  V30 1239 H 109.239 2.79351 -2.37399 0
M  V30 1240 H 108.887 4.91052 -1.0898 0
M  V30 1241 H 108.587 5.14992 -2.82943 0
M  V30 1242 H 110.111 5.73289 -2.10171 0
M  V30 1243 H 111.525 4.26293 -3.83337 0
M  V30 1244 H 109.922 3.91804 -4.54543 0
M  V30 1245 H 110.992 2.57328 -4.10987 0
M  V30 1246 N 112.336 1.25143 0.95797 0
M  V30 1247 C 113.561 1.12521 1.74223 0
M  V30 1248 C 113.986 -0.317402 1.85403 0
M  V30 1249 O 113.344 -1.2299 1.33204 0
M  V30 1250 C 113.392 1.78062 3.1357 0
M  V30 1251 O 112.496 1.058 3.98598 0
M  V30 1252 H 111.837 0.39304 0.535178 0
M  V30 1253 H 114.367 1.65641 1.201 0
M  V30 1254 H 114.377 1.84213 3.64046 0
M  V30 1255 H 113.052 2.83021 3.04749 0
M  V30 1256 H 111.629 1.07506 3.57067 0
M  V30 1257 N 113.814 -1.1601 1.06675 0
M  V30 1258 C 115.042 -1.90527 0.806667 0
M  V30 1259 C 115.457 -1.77643 -0.639396 0
M  V30 1260 O 114.814 -1.12369 -1.43803 0
M  V30 1261 C 114.865 -3.41106 1.19705 0
M  V30 1262 O 114.586 -3.53608 2.58636 0
M  V30 1263 C 116.087 -4.32663 0.965266 0
M  V30 1264 H 113.307 -0.604053 0.292166 0
M  V30 1265 H 115.851 -1.47026 1.4214 0
M  V30 1266 H 114.006 -3.82296 0.626774 0
M  V30 1267 H 114.42 -4.47011 2.74375 0
M  V30 1268 H 115.894 -5.36763 1.288 0
M  V30 1269 H 116.371 -4.39089 -0.0987936 0
M  V30 1270 H 116.977 -3.97206 1.52011 0
M  V30 1271 N 115.292 -0.849877 -1.32721 0
M  V30 1272 C 116.703 -0.506188 -1.79707 0
M  V30 1273 C 117.054 0.975627 -1.70223 0
M  V30 1274 O 116.179 1.76078 -1.25799 0
M  V30 1275 C 116.774 -0.912044 -3.26293 0
M  V30 1276 C 115.333 -0.620326 -3.71253 0
M  V30 1277 C 114.48 -1.11439 -2.53922 0
M  V30 1278 H 117.431 -1.03754 -1.20087 0
M  V30 1279 H 117.452 -0.226493 -3.79825 0
M  V30 1280 H 116.964 -1.99057 -3.33164 0
M  V30 1281 H 115.065 0.447674 -3.69901 0
M  V30 1282 H 115.178 -1.18327 -4.64258 0
M  V30 1283 H 113.542 -0.534834 -2.49021 0
M  V30 1284 H 114.325 -2.19992 -2.6355 0
M  V30 1285 N 116.77 1.45427 -0.607355 0
M  V30 1286 C 117.995 2.07124 -0.107006 0
M  V30 1287 C 118.42 1.44906 1.19933 0
M  V30 1288 O 117.778 0.541687 1.73019 0
M  V30 1289 C 117.826 3.60595 0.0194119 0
M  V30 1290 O 116.93 3.98285 1.0697 0
M  V30 1291 H 116.271 0.659868 -0.0739597 0
M  V30 1292 H 118.801 1.86683 -0.837297 0
M  V30 1293 H 118.811 4.07419 0.2177 0
M  V30 1294 H 117.486 4.05266 -0.934453 0
M  V30 1295 H 116.063 3.63133 0.847889 0
M  V30 1296 N 118.248 0.346503 1.53744 0
M  V30 1297 C 119.494 -0.249473 2.0126 0
M  V30 1298 C 119.827 -1.49965 1.23386 0
M  V30 1299 O 119.102 -1.91811 0.32229 0
M  V30 1300 C 119.385 -0.560643 3.55709 0
M  V30 1301 C 119.238 0.701836 4.44291 0
M  V30 1302 C 120.557 -1.36905 4.18264 0
M  V30 1303 H 117.676 -0.0891987 0.731582 0
M  V30 1304 H 120.318 0.467624 1.84156 0
M  V30 1305 H 118.468 -1.17156 3.70414 0
M  V30 1306 H 120.14 1.33974 4.41417 0
M  V30 1307 H 118.383 1.32612 4.13033 0
M  V30 1308 H 119.054 0.43933 5.50249 0
M  V30 1309 H 121.53 -0.852448 4.07275 0
M  V30 1310 H 120.406 -1.55553 5.26398 0
M  V30 1311 H 120.667 -2.37203 3.73078 0
M  V30 1312 N 119.726 -1.57421 0.075193 0
M  V30 1313 C 120.658 -2.09904 -0.920483 0
M  V30 1314 C 121.671 -1.03191 -1.25918 0
M  V30 1315 O 122.86 -1.30695 -1.21577 0
M  V30 1316 C 119.96 -2.54726 -2.23534 0
M  V30 1317 C 119.133 -3.8505 -2.07498 0
M  V30 1318 C 118.192 -4.15929 -3.22319 0
M  V30 1319 O 117.218 -4.85474 -2.9716 0
M  V30 1320 N 118.42 -3.69745 -4.47514 0
M  V30 1321 H 121.185 -2.95954 -0.472359 0
M  V30 1322 H 118.746 -1.61523 -0.110444 0
M  V30 1323 H 120.738 -2.72443 -2.9926 0
M  V30 1324 H 119.308 -1.73795 -2.59835 0
M  V30 1325 H 118.528 -3.76679 -1.16219 0
M  V30 1326 H 119.816 -4.70348 -1.94038 0
M  V30 1327 H 119.214 -3.13569 -4.7084 0
M  V30 1328 H 117.771 -3.92655 -5.20255 0
M  V30 1329 N 121.204 0.198386 -1.56346 0
M  V30 1330 C 122.134 1.24865 -1.9731 0
M  V30 1331 C 123.115 1.47651 -0.844576 0
M  V30 1332 O 124.3 1.59444 -1.10866 0
M  V30 1333 C 121.43 2.59358 -2.30977 0
M  V30 1334 C 120.384 2.5119 -3.46537 0
M  V30 1335 C 119.71 3.89926 -3.65871 0
M  V30 1336 C 121.01 2.03977 -4.80823 0
M  V30 1337 H 122.704 0.908252 -2.85291 0
M  V30 1338 H 120.25 0.435462 -1.37258 0
M  V30 1339 H 122.203 3.33011 -2.58228 0
M  V30 1340 H 120.927 2.95132 -1.39874 0
M  V30 1341 H 119.586 1.79993 -3.19371 0
M  V30 1342 H 119.234 4.23046 -2.72105 0
M  V30 1343 H 118.934 3.85336 -4.4361 0
M  V30 1344 H 120.458 4.65205 -3.95495 0
M  V30 1345 H 121.872 2.67386 -5.07127 0
M  V30 1346 H 120.269 2.10397 -5.62008 0
M  V30 1347 H 121.339 0.992861 -4.74626 0
M  V30 1348 N 122.682 1.50554 0.465978 0
M  V30 1349 C 123.928 1.62038 1.21949 0
M  V30 1350 C 124.261 0.322116 1.9151 0
M  V30 1351 O 123.536 -0.676723 1.82348 0
M  V30 1352 C 123.819 2.80421 2.25912 0
M  V30 1353 C 123.672 4.20144 1.60622 0
M  V30 1354 C 124.991 2.94354 3.27176 0
M  V30 1355 H 122.11 0.589752 0.441998 0
M  V30 1356 H 124.752 1.82956 0.51257 0
M  V30 1357 H 122.902 2.62717 2.86203 0
M  V30 1358 H 124.574 4.49449 1.03889 0
M  V30 1359 H 122.817 4.24165 0.909211 0
M  V30 1360 H 123.488 4.98914 2.36196 0
M  V30 1361 H 125.964 3.10578 2.76913 0
M  V30 1362 H 124.84 3.788 3.97242 0
M  V30 1363 H 125.101 2.05186 3.916 0
M  V30 1364 N 124.16 -0.719506 1.40217 0
M  V30 1365 C 125.092 -1.84428 1.36084 0
M  V30 1366 C 126.105 -1.60597 0.266913 0
M  V30 1367 O 127.294 -1.70544 0.526983 0
M  V30 1368 C 124.394 -3.20757 1.094 0
M  V30 1369 C 123.567 -3.71817 2.30372 0
M  V30 1370 C 122.626 -4.86748 1.99907 0
M  V30 1371 O 121.652 -4.99603 2.72737 0
M  V30 1372 N 122.854 -5.7226 0.974635 0
M  V30 1373 H 125.619 -1.88473 2.33019 0
M  V30 1374 H 123.18 -0.900885 1.3452 0
M  V30 1375 H 125.172 -3.95235 0.870116 0
M  V30 1376 H 123.742 -3.11884 0.211452 0
M  V30 1377 H 122.962 -2.88514 2.68614 0
M  V30 1378 H 124.25 -4.02666 3.11026 0
M  V30 1379 H 123.648 -5.6448 0.371368 0
M  V30 1380 H 122.205 -6.46739 0.810656 0
M  V30 1381 N 125.638 -1.25649 -0.95132 0
M  V30 1382 C 126.863 -1.13443 -1.73624 0
M  V30 1383 C 127.288 0.307565 -1.85568 0
M  V30 1384 O 126.646 1.22282 -1.33854 0
M  V30 1385 C 126.694 -1.79723 -3.12621 0
M  V30 1386 O 125.798 -1.07912 -3.98031 0
M  V30 1387 H 125.139 -0.395872 -0.533086 0
M  V30 1388 H 127.669 -1.66276 -1.1922 0
M  V30 1389 H 127.679 -1.86141 -3.63064 0
M  V30 1390 H 126.354 -2.84633 -3.03244 0
M  V30 1391 H 124.931 -1.09398 -3.56492 0
M  V30 1392 N 127.117 1.15442 -1.07289 0
M  V30 1393 C 128.363 1.8672 -0.806679 0
M  V30 1394 C 128.718 1.80723 0.660084 0
M  V30 1395 O 128.011 1.21902 1.47819 0
M  V30 1396 C 128.205 3.3489 -1.24834 0
M  V30 1397 C 128.034 3.55313 -2.7565 0
M  V30 1398 C 126.804 3.7082 -3.4325 0
M  V30 1399 C 129.002 3.53188 -3.73848 0
M  V30 1400 N 126.984 3.7929 -4.82713 0
M  V30 1401 C 128.355 3.67765 -4.99149 0
M  V30 1402 C 130.41 3.36459 -3.67015 0
M  V30 1403 C 129.113 3.6734 -6.18428 0
M  V30 1404 C 131.139 3.37333 -4.85758 0
M  V30 1405 C 130.501 3.52438 -6.09891 0
M  V30 1406 H 126.6 0.700433 -0.347733 0
M  V30 1407 H 129.184 1.38441 -1.36902 0
M  V30 1408 H 127.355 3.81786 -0.713713 0
M  V30 1409 H 129.087 3.93875 -0.929745 0
M  V30 1410 H 125.842 3.71568 -2.93656 0
M  V30 1411 H 126.266 3.8727 -5.55294 0
M  V30 1412 H 130.908 3.237 -2.71989 0
M  V30 1413 H 128.626 3.78878 -7.13777 0
M  V30 1414 H 132.212 3.25617 -4.82146 0
M  V30 1415 H 131.092 3.53047 -7.00234 0
M  V30 1416 N 128.595 0.856903 1.32268 0
M  V30 1417 C 129.825 0.47475 2.01071 0
M  V30 1418 C 130.233 -0.933746 1.64553 0
M  V30 1419 O 129.576 -1.62114 0.863989 0
M  V30 1420 C 129.638 0.536746 3.55471 0
M  V30 1421 C 129.302 1.90453 4.15423 0
M  V30 1422 C 130.299 2.87029 4.33486 0
M  V30 1423 C 127.984 2.20229 4.51447 0
M  V30 1424 C 129.978 4.11532 4.86744 0
M  V30 1425 C 127.665 3.44984 5.0441 0
M  V30 1426 C 128.663 4.40452 5.22007 0
M  V30 1427 O 128.351 5.62998 5.73837 0
M  V30 1428 H 128.083 0.184778 0.650256 0
M  V30 1429 H 130.637 1.15615 1.69771 0
M  V30 1430 H 128.867 -0.20152 3.86175 0
M  V30 1431 H 130.556 0.169875 4.05544 0
M  V30 1432 H 131.322 2.6533 4.05986 0
M  V30 1433 H 127.201 1.46705 4.37034 0
M  V30 1434 H 130.745 4.86056 5.00395 0
M  V30 1435 H 126.642 3.66532 5.31342 0
M  V30 1436 H 127.41 5.64987 5.92226 0
M  V30 1437 N 130.073 -1.45103 0.615059 0
M  V30 1438 C 131.319 -2.02483 0.113347 0
M  V30 1439 C 131.652 -1.48146 -1.25564 0
M  V30 1440 O 130.927 -0.659104 -1.82992 0
M  V30 1441 C 131.21 -3.60005 0.0825278 0
M  V30 1442 C 131.063 -4.2466 1.48271 0
M  V30 1443 C 132.382 -4.35972 -0.601401 0
M  V30 1444 H 129.501 -0.735764 0.0426632 0
M  V30 1445 H 132.143 -1.72868 0.788461 0
M  V30 1446 H 130.293 -3.85367 -0.492378 0
M  V30 1447 H 131.965 -4.10458 2.10527 0
M  V30 1448 H 130.208 -3.82772 2.04127 0
M  V30 1449 H 130.879 -5.336 1.41332 0
M  V30 1450 H 133.355 -4.15947 -0.112666 0
M  V30 1451 H 132.231 -5.45697 -0.592097 0
M  V30 1452 H 132.492 -4.09391 -1.66887 0
M  V30 1453 N 131.551 -0.354651 -1.53558 0
M  V30 1454 C 132.483 0.5315 -2.22952 0
M  V30 1455 C 133.496 1.05503 -1.23988 0
M  V30 1456 O 134.685 0.963279 -1.50277 0
M  V30 1457 C 131.785 1.74538 -2.90499 0
M  V30 1458 C 130.958 1.35524 -4.15875 0
M  V30 1459 C 130.017 2.42999 -4.66731 0
M  V30 1460 O 129.043 2.05844 -5.30676 0
M  V30 1461 N 130.245 3.74423 -4.43608 0
M  V30 1462 H 133.01 -0.0628615 -2.99634 0
M  V30 1463 H 130.571 -0.179302 -1.60904 0
M  V30 1464 H 132.563 2.45892 -3.21433 0
M  V30 1465 H 131.133 2.24686 -2.17336 0
M  V30 1466 H 130.353 0.471998 -3.91364 0
M  V30 1467 H 131.641 1.07071 -4.97406 0
M  V30 1468 H 131.039 4.07391 -3.92491 0
M  V30 1469 H 129.596 4.41913 -4.7912 0
M  V30 1470 N 133.029 1.57378 -0.0835403 0
M  V30 1471 C 134.254 1.98682 0.594987 0
M  V30 1472 C 134.679 0.961969 1.61641 0
M  V30 1473 O 134.037 -0.0709989 1.81161 0
M  V30 1474 C 134.085 3.38988 1.2296 0
M  V30 1475 O 133.189 3.39208 2.34546 0
M  V30 1476 H 132.53 0.646368 0.152002 0
M  V30 1477 H 135.06 2.03961 -0.161533 0
M  V30 1478 H 135.07 3.76431 1.57366 0
M  V30 1479 H 133.745 4.13107 0.481228 0
M  V30 1480 H 132.322 3.13548 2.01846 0
M  V30 1481 N 134.507 -0.190092 1.56449 0
M  V30 1482 C 135.437 -1.23816 1.97969 0
M  V30 1483 C 136.418 -1.47201 0.852395 0
M  V30 1484 O 137.603 -1.58854 1.1171 0
M  V30 1485 C 134.733 -2.5813 2.3235 0
M  V30 1486 C 133.687 -2.49348 3.47864 0
M  V30 1487 C 133.013 -3.8798 3.67934 0
M  V30 1488 C 134.313 -2.01424 4.81898 0
M  V30 1489 H 136.007 -0.89311 2.85769 0
M  V30 1490 H 133.553 -0.428177 1.37487 0
M  V30 1491 H 135.506 -3.31637 2.59991 0
M  V30 1492 H 134.23 -2.94386 1.41438 0
M  V30 1493 H 132.889 -1.78297 3.20321 0
M  V30 1494 H 132.537 -4.21597 2.74344 0
M  V30 1495 H 132.237 -3.82978 4.45648 0
M  V30 1496 H 133.761 -4.63101 3.97957 0
M  V30 1497 H 135.175 -2.64693 5.08538 0
M  V30 1498 H 133.572 -2.07413 5.63116 0
M  V30 1499 H 134.642 -0.967677 4.75146 0
M  V30 1500 N 135.985 -1.50799 -0.457987 0
M  V30 1501 C 136.915 -1.73553 -1.5621 0
M  V30 1502 C 137.896 -0.584774 -1.59732 0
M  V30 1503 O 139.081 -0.825314 -1.7579 0
M  V30 1504 C 136.211 -1.84169 -2.94447 0
M  V30 1505 C 135.165 -2.99461 -3.0579 0
M  V30 1506 C 134.491 -2.95235 -4.45803 0
M  V30 1507 C 135.791 -4.39766 -2.81786 0
M  V30 1508 H 137.485 -2.66 -1.37421 0
M  V30 1509 H 135.031 -1.28002 -0.659662 0
M  V30 1510 H 136.984 -1.98672 -3.71628 0
M  V30 1511 H 135.708 -0.883545 -3.14422 0
M  V30 1512 H 134.367 -2.8463 -2.31044 0
M  V30 1513 H 134.015 -1.97239 -4.62715 0
M  V30 1514 H 133.715 -3.72642 -4.54326 0
M  V30 1515 H 135.239 -3.11803 -5.24987 0
M  V30 1516 H 136.653 -4.55054 -3.4871 0
M  V30 1517 H 135.05 -5.18722 -3.0174 0
M  V30 1518 H 136.12 -4.51229 -1.7754 0
M  V30 1519 N 137.463 0.71206 -1.40597 0
M  V30 1520 C 138.74 1.46536 -1.29563 0
M  V30 1521 C 139.12 2.10931 0.0844217 0
M  V30 1522 O 138.468 2.00418 1.0975 0
M  V30 1523 C 138.678 2.49821 -2.43701 0
M  V30 1524 C 140.026 3.15551 -2.841 0
M  V30 1525 O 141.05 2.60142 -2.4332 0
M  V30 1526 O 139.909 4.15867 -3.54566 0
M  V30 1527 H 137.003 0.651801 -0.509004 0
M  V30 1528 H 139.549 0.743935 -1.52524 0
M  V30 1529 H 138.321 2.00778 -3.35863 0
M  V30 1530 H 137.944 3.29495 -2.22528 0
M  V30 1531 N 138.941 1.26152 0.944643 0
M  V30 1532 C 140.19 1.10883 1.68487 0
M  V30 1533 C 140.503 -0.348153 1.92477 0
M  V30 1534 O 141.709 -0.621459 2.64292 0
M  V30 1535 C 140.165 1.93624 3.03377 0
M  V30 1536 C 139.773 3.43875 2.87148 0
M  V30 1537 C 141.517 1.86954 3.81115 0
M  V30 1538 C 139.424 4.18875 4.1749 0
M  V30 1539 H 138.354 0.41135 0.631907 0
M  V30 1540 H 141.005 1.50433 1.05082 0
M  V30 1541 H 139.387 1.46904 3.67743 0
M  V30 1542 H 140.561 3.98338 2.31653 0
M  V30 1543 H 138.876 3.51744 2.22856 0
M  V30 1544 H 141.473 2.40275 4.77673 0
M  V30 1545 H 141.816 0.839518 4.07747 0
M  V30 1546 H 142.349 2.31477 3.23517 0
M  V30 1547 H 139.088 5.22332 3.96043 0
M  V30 1548 H 138.608 3.69193 4.72712 0
M  V30 1549 H 140.287 4.27134 4.85968 0
M  V30 1550 N 140.419 -1.14872 1.07899 0
M  V30 1551 C 141.352 -2.18794 0.64841 0
M  V30 1552 C 142.33 -1.59065 -0.337189 0
M  V30 1553 O 143.514 -1.86936 -0.242284 0
M  V30 1554 C 140.641 -3.38667 -0.0470417 0
M  V30 1555 C 139.687 -4.16942 0.897884 0
M  V30 1556 S 140.52 -4.78615 2.40183 0
M  V30 1557 C 141.676 -6.0185 1.71834 0
M  V30 1558 H 141.909 -2.5498 1.52881 0
M  V30 1559 H 139.442 -1.25922 0.893484 0
M  V30 1560 H 141.4 -4.08113 -0.442027 0
M  V30 1561 H 140.061 -3.00814 -0.903861 0
M  V30 1562 H 139.254 -5.02726 0.358096 0
M  V30 1563 H 138.856 -3.53073 1.23352 0
M  V30 1564 H 141.148 -6.69574 1.03328 0
M  V30 1565 H 142.091 -6.60408 2.55473 0
M  V30 1566 H 142.499 -5.5173 1.19392 0
M  V30 1567 N 141.898 -0.863906 -1.31812 0
M  V30 1568 C 142.808 -0.318461 -2.32428 0
M  V30 1569 C 143.824 0.568496 -1.64451 0
M  V30 1570 O 145 0.46666 -1.95919 0
M  V30 1571 C 142.065 0.476355 -3.43412 0
M  V30 1572 C 141.126 -0.43784 -4.27061 0
M  V30 1573 C 140.359 0.319138 -5.32745 0
M  V30 1574 O 140.582 1.54799 -5.48993 0
M  V30 1575 O 139.516 -0.319861 -6.01049 0
M  V30 1576 H 143.342 -1.15229 -2.80991 0
M  V30 1577 H 140.927 -0.627103 -1.35602 0
M  V30 1578 H 142.809 0.927156 -4.11074 0
M  V30 1579 H 141.484 1.28683 -2.97022 0
M  V30 1580 H 140.391 -0.937013 -3.62175 0
M  V30 1581 H 141.724 -1.21375 -4.77 0
M  V30 1582 N 143.376 1.44774 -0.622745 0
M  V30 1583 C 144.623 2.02121 -0.1239 0
M  V30 1584 C 144.951 1.48915 1.25118 0
M  V30 1585 O 144.206 0.660045 1.84233 0
M  V30 1586 C 144.505 3.57364 -0.0508323 0
M  V30 1587 C 144.171 4.29787 -1.36358 0
M  V30 1588 C 142.833 4.4929 -1.72314 0
M  V30 1589 C 145.185 4.71062 -2.23048 0
M  V30 1590 C 142.513 5.07325 -2.94682 0
M  V30 1591 C 144.865 5.30452 -3.44679 0
M  V30 1592 C 143.529 5.48175 -3.80868 0
M  V30 1593 H 142.799 0.739612 -0.0453381 0
M  V30 1594 H 145.446 1.73648 -0.807389 0
M  V30 1595 H 143.751 3.85202 0.715991 0
M  V30 1596 H 145.448 3.99456 0.351533 0
M  V30 1597 H 142.038 4.14932 -1.07375 0
M  V30 1598 H 146.222 4.55715 -1.96565 0
M  V30 1599 H 141.478 5.19235 -3.22809 0
M  V30 1600 H 145.652 5.61385 -4.12092 0
M  V30 1601 H 143.279 5.92912 -4.75773 0
M  V30 1602 N 144.854 0.36279 1.53368 0
M  V30 1603 C 145.784 -0.476976 2.28576 0
M  V30 1604 C 146.765 -1.08631 1.30894 0
M  V30 1605 O 147.95 -1.10409 1.59761 0
M  V30 1606 C 145.08 -1.61828 3.07293 0
M  V30 1607 C 144.034 -1.13633 4.1264 0
M  V30 1608 C 143.36 -2.36766 4.79423 0
M  V30 1609 C 144.66 -0.223061 5.21823 0
M  V30 1610 H 146.354 0.150474 2.99022 0
M  V30 1611 H 143.9 0.0738103 1.43811 0
M  V30 1612 H 145.853 -2.21237 3.58653 0
M  V30 1613 H 144.577 -2.27292 2.34533 0
M  V30 1614 H 143.236 -0.564945 3.62221 0
M  V30 1615 H 142.884 -3.0068 4.03238 0
M  V30 1616 H 142.584 -2.05192 5.50609 0
M  V30 1617 H 144.108 -2.96865 5.33576 0
M  V30 1618 H 145.522 -0.724545 5.68703 0
M  V30 1619 H 143.919 0.001678 6.001 0
M  V30 1620 H 144.989 0.735553 4.79289 0
M  V30 1621 N 146.332 -1.57332 0.0918853 0
M  V30 1622 C 147.609 -1.85691 -0.614668 0
M  V30 1623 C 147.989 -0.988146 -1.86545 0
M  V30 1624 O 147.337 -0.0597055 -2.28422 0
M  V30 1625 C 147.547 -3.36294 -0.933126 0
M  V30 1626 C 148.895 -4.04275 -1.29796 0
M  V30 1627 O 149.919 -3.41157 -1.02424 0
M  V30 1628 O 148.778 -5.1564 -1.81047 0
M  V30 1629 H 145.872 -0.767802 -0.307261 0
M  V30 1630 H 148.418 -1.69244 0.12434 0
M  V30 1631 H 147.19 -3.91273 -0.0456404 0
M  V30 1632 H 146.813 -3.58076 -1.72822 0
M  V30 1633 N 147.81 0.181792 -1.56548 0
M  V30 1634 C 148.757 1.22521 -1.95595 0
M  V30 1635 C 149.727 1.4454 -0.818373 0
M  V30 1636 O 150.912 1.57454 -1.07763 0
M  V30 1637 C 148.052 2.56193 -2.31212 0
M  V30 1638 C 147.165 2.41641 -3.58097 0
M  V30 1639 C 146.3 3.68108 -3.82975 0
M  V30 1640 C 145.339 3.48445 -5.03242 0
M  V30 1641 N 144.476 4.66956 -5.24306 0
M  V30 1642 H 149.316 0.885226 -2.84548 0
M  V30 1643 H 146.853 0.425718 -1.40805 0
M  V30 1644 H 148.811 3.34088 -2.49882 0
M  V30 1645 H 147.441 2.88208 -1.45382 0
M  V30 1646 H 146.493 1.54976 -3.474 0
M  V30 1647 H 147.805 2.23052 -4.46149 0
M  V30 1648 H 146.959 4.54441 -4.01956 0
M  V30 1649 H 145.698 3.89666 -2.93278 0
M  V30 1650 H 144.703 2.60499 -4.8417 0
M  V30 1651 H 145.928 3.2832 -5.9446 0
M  V30 1652 H 143.874 4.88752 -4.37559 0
M  V30 1653 H 143.791 4.51242 -6.06561 0
M  V30 1654 H 145.059 5.54602 -5.47756 0
M  V30 1655 N 149.288 1.51039 0.449983 0
M  V30 1656 C 150.565 1.53612 1.21089 0
M  V30 1657 C 150.945 0.292997 2.09057 0
M  V30 1658 O 150.293 -0.72259 2.16774 0
M  V30 1659 C 150.503 2.84337 2.0237 0
M  V30 1660 C 151.851 3.35807 2.59843 0
M  V30 1661 O 152.875 2.85802 2.12593 0
M  V30 1662 O 151.734 4.23029 3.45989 0
M  V30 1663 H 148.828 0.617057 0.550608 0
M  V30 1664 H 151.374 1.63344 0.460082 0
M  V30 1665 H 150.146 3.66278 1.37681 0
M  V30 1666 H 149.769 2.77708 2.84542 0
M  V30 1667 N 150.766 -0.704594 1.40972 0
M  V30 1668 C 152.177 -1.28418 1.3552 0
M  V30 1669 C 152.528 -1.96171 0.0339434 0
M  V30 1670 O 151.653 -1.98231 -0.867944 0
M  V30 1671 C 152.248 -2.33528 2.45459 0
M  V30 1672 C 150.807 -2.87085 2.43433 0
M  V30 1673 C 149.954 -1.61007 2.2577 0
M  V30 1674 H 152.905 -0.499963 1.50619 0
M  V30 1675 H 152.926 -3.14619 2.13998 0
M  V30 1676 H 152.438 -1.84187 3.41609 0
M  V30 1677 H 150.539 -3.40626 1.51013 0
M  V30 1678 H 150.652 -3.3813 3.39419 0
M  V30 1679 H 149.016 -1.86482 1.73483 0
M  V30 1680 H 149.799 -1.13675 3.23933 0
M  V30 1681 N 152.244 -1.26651 -0.937939 0
M  V30 1682 C 153.154 -1.10276 -2.07066 0
M  V30 1683 C 154.17 -0.0354197 -1.73964 0
M  V30 1684 O 155.346 -0.239816 -1.99967 0
M  V30 1685 C 152.411 -0.740887 -3.38691 0
M  V30 1686 C 151.472 -1.88799 -3.85556 0
M  V30 1687 C 150.705 -1.54329 -5.10899 0
M  V30 1688 O 150.928 -0.446494 -5.6865 0
M  V30 1689 O 149.862 -2.37911 -5.52885 0
M  V30 1690 H 153.688 -2.05309 -2.23789 0
M  V30 1691 H 151.273 -1.05743 -1.0554 0
M  V30 1692 H 153.155 -0.55195 -4.1777 0
M  V30 1693 H 151.83 0.180022 -3.23199 0
M  V30 1694 H 150.737 -2.13191 -3.07409 0
M  V30 1695 H 152.07 -2.78874 -4.05574 0
M  V30 1696 N 153.722 1.14298 -1.08507 0
M  V30 1697 C 154.999 1.81544 -0.728088 0
M  V30 1698 C 155.379 1.95838 0.78808 0
M  V30 1699 O 154.727 1.51904 1.70697 0
M  V30 1700 C 154.937 3.17169 -1.45619 0
M  V30 1701 C 156.285 3.9265 -1.61591 0
M  V30 1702 O 157.309 3.26762 -1.41793 0
M  V30 1703 O 156.168 5.10807 -1.94263 0
M  V30 1704 H 153.262 0.78491 -0.260471 0
M  V30 1705 H 155.808 1.21307 -1.18671 0
M  V30 1706 H 154.58 3.01934 -2.489 0
M  V30 1707 H 154.203 3.851 -0.989124 0
M  V30 1708 N 155.201 0.870884 1.31352 0
M  V30 1709 C 156.151 0.298889 2.26032 0
M  V30 1710 C 157.135 -0.564595 1.50669 0
M  V30 1711 O 158.327 -0.411323 1.72154 0
M  V30 1712 C 155.456 -0.497842 3.39671 0
M  V30 1713 C 154.542 0.378937 4.22404 0
M  V30 1714 N 154.933 1.47284 4.83881 0
M  V30 1715 C 153.231 0.171535 4.4567 0
M  V30 1716 C 153.932 2.01359 5.45738 0
M  V30 1717 N 152.908 1.31047 5.27568 0
M  V30 1718 H 156.71 1.13494 2.71102 0
M  V30 1719 H 154.224 0.718745 1.45629 0
M  V30 1720 H 156.221 -0.924155 4.06528 0
M  V30 1721 H 154.881 -1.33149 2.96144 0
M  V30 1722 H 155.892 1.85575 4.8351 0
M  V30 1723 H 152.569 -0.626091 4.12779 0
M  V30 1724 H 153.959 2.93143 6.0458 0
M  V30 1725 N 156.679 -1.44442 0.630414 0
M  V30 1726 C 158.095 -1.56832 0.295973 0
M  V30 1727 C 158.295 -1.61806 -1.20088 0
M  V30 1728 O 157.351 -1.5607 -1.9849 0
M  V30 1729 C 158.664 -2.84031 0.987264 0
M  V30 1730 C 160.212 -2.97742 0.96534 0
M  V30 1731 C 160.687 -4.27743 1.63708 0
M  V30 1732 N 162.178 -4.34555 1.60364 0
M  V30 1733 C 162.913 -5.33862 2.09234 0
M  V30 1734 N 162.409 -6.39578 2.66292 0
M  V30 1735 N 164.202 -5.25366 1.99867 0
M  V30 1736 H 156.353 -1.39457 1.60205 0
M  V30 1737 H 158.616 -0.668237 0.672431 0
M  V30 1738 H 158.322 -2.86338 2.04215 0
M  V30 1739 H 158.196 -3.73534 0.524588 0
M  V30 1740 H 160.583 -2.94989 -0.0810639 0
M  V30 1741 H 160.664 -2.09589 1.4665 0
M  V30 1742 H 160.308 -4.31255 2.68293 0
M  V30 1743 H 160.238 -5.14752 1.11076 0
M  V30 1744 H 162.729 -3.58772 1.18705 0
M  V30 1745 H 163.042 -7.11637 3.01317 0
M  V30 1746 H 161.387 -6.40265 2.70343 0
M  V30 1747 H 164.578 -4.41688 1.55013 0
M  V30 1748 H 164.751 -6.02606 2.38265 0
M  V30 1749 N 158.157 -0.370918 -1.53173 0
M  V30 1750 C 159.385 0.217704 -2.05751 0
M  V30 1751 C 159.8 1.42018 -1.24404 0
M  V30 1752 O 159.157 1.80245 -0.286033 0
M  V30 1753 C 159.208 0.605954 -3.56385 0
M  V30 1754 O 158.929 -0.548734 -4.3465 0
M  V30 1755 C 160.43 1.2524 -4.25241 0
M  V30 1756 H 157.65 0.0371659 -0.66997 0
M  V30 1757 H 160.194 -0.530832 -1.9749 0
M  V30 1758 H 158.349 1.3044 -3.6478 0
M  V30 1759 H 158.763 -0.23376 -5.23979 0
M  V30 1760 H 160.237 1.47458 -5.3194 0
M  V30 1761 H 160.714 2.2143 -3.79296 0
M  V30 1762 H 161.32 0.595233 -4.21114 0
M  V30 1763 N 159.635 1.57281 -0.100228 0
M  V30 1764 C 160.565 2.17328 0.853857 0
M  V30 1765 C 161.546 1.10804 1.2906 0
M  V30 1766 O 162.731 1.38963 1.35657 0
M  V30 1767 C 159.861 2.75772 2.11109 0
M  V30 1768 C 158.815 3.87713 1.81279 0
M  V30 1769 C 158.141 4.32882 3.13874 0
M  V30 1770 C 159.441 5.10677 1.09574 0
M  V30 1771 H 161.135 2.97305 0.353545 0
M  V30 1772 H 158.681 1.43009 0.168612 0
M  V30 1773 H 160.634 3.16433 2.78296 0
M  V30 1774 H 159.358 1.93057 2.63432 0
M  V30 1775 H 158.017 3.476 1.16489 0
M  V30 1776 H 157.665 3.47051 3.64095 0
M  V30 1777 H 157.365 5.08358 2.94696 0
M  V30 1778 H 158.889 4.7618 3.82211 0
M  V30 1779 H 160.303 5.48474 1.66879 0
M  V30 1780 H 158.7 5.91615 1.00557 0
M  V30 1781 H 159.77 4.84835 0.0793299 0
M  V30 1782 N 161.113 -0.173488 1.56642 0
M  V30 1783 C 162.338 -0.910149 1.86363 0
M  V30 1784 C 162.763 -1.75132 0.686318 0
M  V30 1785 O 162.121 -1.77595 -0.364643 0
M  V30 1786 C 162.169 -1.76447 3.14482 0
M  V30 1787 O 161.273 -2.86584 2.96553 0
M  V30 1788 H 160.614 -0.255086 0.613047 0
M  V30 1789 H 163.144 -0.172283 2.03873 0
M  V30 1790 H 163.154 -2.16483 3.45831 0
M  V30 1791 H 161.829 -1.14658 3.99783 0
M  V30 1792 H 160.406 -2.50146 2.76553 0
M  V30 1793 N 162.591 -1.51276 -0.441967 0
M  V30 1794 C 163.523 -1.68444 -1.55433 0
M  V30 1795 C 164.536 -0.565187 -1.52674 0
M  V30 1796 O 165.725 -0.839356 -1.57534 0
M  V30 1797 C 162.825 -1.67966 -2.94348 0
M  V30 1798 C 161.998 -2.964 -3.21661 0
M  V30 1799 C 161.057 -2.88171 -4.40277 0
M  V30 1800 O 160.083 -3.62119 -4.39157 0
M  V30 1801 N 161.285 -2.03706 -5.43584 0
M  V30 1802 H 164.05 -2.644 -1.41112 0
M  V30 1803 H 161.611 -1.49104 -0.630838 0
M  V30 1804 H 163.603 -1.60035 -3.71713 0
M  V30 1805 H 162.173 -0.796225 -3.0229 0
M  V30 1806 H 161.393 -3.18234 -2.32638 0
M  V30 1807 H 162.681 -3.81427 -3.36736 0
M  V30 1808 H 162.079 -1.42995 -5.47329 0
M  V30 1809 H 160.636 -2.01658 -6.1982 0
M  V30 1810 N 164.069 0.697108 -1.41344 0
M  V30 1811 C 165.316 1.45714 -1.40619 0
M  V30 1812 C 165.644 1.94494 -0.0147907 0
M  V30 1813 O 164.899 1.69794 0.973066 0
M  V30 1814 C 165.198 2.68553 -2.35826 0
M  V30 1815 C 164.864 2.38438 -3.82698 0
M  V30 1816 C 163.526 2.29936 -4.22709 0
M  V30 1817 C 165.878 2.13567 -4.75435 0
M  V30 1818 C 163.206 1.94656 -5.53467 0
M  V30 1819 C 165.558 1.79797 -6.06511 0
M  V30 1820 C 164.222 1.69789 -6.45545 0
M  V30 1821 H 163.492 0.533206 -0.51456 0
M  V30 1822 H 166.139 0.796901 -1.74131 0
M  V30 1823 H 164.444 3.39503 -1.95563 0
M  V30 1824 H 166.141 3.2669 -2.32539 0
M  V30 1825 H 162.731 2.4595 -3.51008 0
M  V30 1826 H 166.915 2.19082 -4.45328 0
M  V30 1827 H 162.171 1.8546 -5.82593 0
M  V30 1828 H 166.345 1.59572 -6.77872 0
M  V30 1829 H 163.972 1.4222 -7.46778 0
M  V30 1830 N 165.547 1.27147 0.931209 0
M  V30 1831 C 166.775 1.16082 1.71267 0
M  V30 1832 C 167.19 -0.282772 1.8667 0
M  V30 1833 O 166.547 -1.19283 1.38122 0
M  V30 1834 C 166.598 1.8358 3.11417 0
M  V30 1835 O 166.319 3.22299 2.96741 0
M  V30 1836 C 167.82 1.78597 4.05732 0
M  V30 1837 H 165.04 0.403758 0.535929 0
M  V30 1838 H 167.584 1.67953 1.16671 0
M  V30 1839 H 165.739 1.35623 3.62885 0
M  V30 1840 H 166.153 3.55851 3.85319 0
M  V30 1841 H 167.627 2.30444 5.01597 0
M  V30 1842 H 168.104 0.754564 4.3267 0
M  V30 1843 H 168.71 2.26152 3.60188 0
M  V30 1844 N 167.025 -1.13721 1.09112 0
M  V30 1845 C 168.302 -1.81155 0.737706 0
M  V30 1846 C 168.682 -1.96253 -0.777683 0
M  V30 1847 O 168.03 -1.52807 -1.69889 0
M  V30 1848 C 168.24 -3.16392 1.47299 0
M  V30 1849 C 169.588 -3.91787 1.63671 0
M  V30 1850 O 170.612 -3.26005 1.43524 0
M  V30 1851 O 169.471 -5.0977 1.96969 0
M  V30 1852 H 166.565 -0.783518 0.26463 0
M  V30 1853 H 169.111 -1.20676 1.19312 0
M  V30 1854 H 167.883 -3.0061 2.50498 0
M  V30 1855 H 167.506 -3.8457 1.00953 0
M  V30 1856 N 168.503 -0.877838 -1.30888 0
M  V30 1857 C 169.466 -0.344265 -2.266 0
M  V30 1858 C 170.466 0.50922 -1.52524 0
M  V30 1859 O 171.656 0.317398 -1.71284 0
M  V30 1860 C 168.788 0.510198 -3.37061 0
M  V30 1861 H 169.981 -1.1893 -2.7531 0
M  V30 1862 H 167.534 -0.654088 -1.41956 0
M  V30 1863 H 168.269 1.37612 -2.93655 0
M  V30 1864 H 168.054 -0.101047 -3.9197 0
M  V30 1865 H 169.544 0.875537 -4.08319 0
M  V30 1866 N 169.982 1.44106 -0.638065 0
M  V30 1867 C 170.912 2.33448 0.0494287 0
M  V30 1868 C 171.893 1.48606 0.827672 0
M  V30 1869 O 173.078 1.77308 0.792173 0
M  V30 1870 C 170.208 3.31771 1.02691 0
M  V30 1871 C 169.162 4.26485 0.359823 0
M  V30 1872 C 168.488 5.14729 1.44769 0
M  V30 1873 C 169.788 5.17056 -0.738296 0
M  V30 1874 H 171.482 2.91183 -0.696636 0
M  V30 1875 H 169.028 1.40014 -0.336456 0
M  V30 1876 H 170.981 3.93161 1.51666 0
M  V30 1877 H 169.705 2.7226 1.80395 0
M  V30 1878 H 168.364 3.66437 -0.10934 0
M  V30 1879 H 168.012 4.51566 2.21578 0
M  V30 1880 H 167.712 5.78913 1.00668 0
M  V30 1881 H 169.236 5.78991 1.93911 0
M  V30 1882 H 170.65 5.72342 -0.331354 0
M  V30 1883 H 169.047 5.89879 -1.10286 0
M  V30 1884 H 170.117 4.57652 -1.60258 0
M  V30 1885 N 171.46 0.379036 1.52974 0
M  V30 1886 C 172.706 -0.206727 2.01744 0
M  V30 1887 C 173.039 -1.47314 1.26539 0
M  V30 1888 O 172.314 -1.91084 0.362903 0
M  V30 1889 C 172.597 -0.485066 3.56818 0
M  V30 1890 C 172.45 0.795919 4.42702 0
M  V30 1891 C 173.769 -1.28003 4.21074 0
M  V30 1892 H 170.888 -0.0736607 0.73331 0
M  V30 1893 H 173.53 0.506581 1.83122 0
M  V30 1894 H 171.68 -1.09272 3.72816 0
M  V30 1895 H 173.352 1.43307 4.38476 0
M  V30 1896 H 171.595 1.41344 4.10127 0
M  V30 1897 H 172.266 0.555947 5.49193 0
M  V30 1898 H 174.742 -0.765867 4.08991 0
M  V30 1899 H 173.618 -1.44352 5.29579 0
M  V30 1900 H 173.879 -2.29236 3.78026 0
M  V30 1901 N 172.938 -1.57226 0.108567 0
M  V30 1902 C 174.166 -1.99179 -0.559954 0
M  V30 1903 C 174.581 -0.988022 -1.60884 0
M  V30 1904 O 173.938 0.0205512 -1.82488 0
M  V30 1905 C 173.989 -3.41159 -1.19552 0
M  V30 1906 O 173.71 -4.37694 -0.188577 0
M  V30 1907 C 175.211 -3.98188 -1.94837 0
M  V30 1908 H 172.431 -0.654228 -0.149088 0
M  V30 1909 H 174.975 -2.03598 0.19183 0
M  V30 1910 H 173.13 -3.37711 -1.89815 0
M  V30 1911 H 173.544 -5.20469 -0.649014 0
M  V30 1912 H 175.018 -4.99644 -2.34648 0
M  V30 1913 H 175.495 -3.3675 -2.81951 0
M  V30 1914 H 176.101 -4.0515 -1.2936 0
M  V30 1915 N 174.416 0.165178 -1.56732 0
M  V30 1916 C 175.665 0.879143 -1.81532 0
M  V30 1917 C 175.978 1.83144 -0.686842 0
M  V30 1918 O 177.184 2.58823 -0.819944 0
M  V30 1919 C 175.64 1.61388 -3.21686 0
M  V30 1920 C 175.248 0.704904 -4.4242 0
M  V30 1921 C 176.992 2.3157 -3.55774 0
M  V30 1922 C 174.899 1.44022 -5.73595 0
M  V30 1923 H 173.829 0.332033 -0.676957 0
M  V30 1924 H 176.48 0.132008 -1.83025 0
M  V30 1925 H 174.862 2.40599 -3.14529 0
M  V30 1926 H 176.036 -0.0506815 -4.60772 0
M  V30 1927 H 174.351 0.112419 -4.16248 0
M  V30 1928 H 176.948 2.8719 -4.51028 0
M  V30 1929 H 177.291 3.07201 -2.8095 0
M  V30 1930 H 177.824 1.59297 -3.64513 0
M  V30 1931 H 174.563 0.72612 -6.51466 0
M  V30 1932 H 174.083 2.16898 -5.5921 0
M  V30 1933 H 175.762 1.98606 -6.15764 0
M  V30 1934 N 175.894 1.51508 0.433938 0
M  V30 1935 C 177.31 1.39759 0.770682 0
M  V30 1936 C 177.51 0.482594 1.95636 0
M  V30 1937 O 176.566 -0.0609691 2.52426 0
M  V30 1938 C 177.879 2.81851 1.04787 0
M  V30 1939 C 179.427 2.91025 1.1521 0
M  V30 1940 C 179.902 4.34032 1.46219 0
M  V30 1941 N 181.393 4.37154 1.53136 0
M  V30 1942 C 182.128 5.4484 1.78709 0
M  V30 1943 N 181.624 6.62682 2.02051 0
M  V30 1944 N 183.417 5.32324 1.80519 0
M  V30 1945 H 175.568 2.09548 -0.346892 0
M  V30 1946 H 177.831 0.943446 -0.0928074 0
M  V30 1947 H 177.537 3.50815 0.249304 0
M  V30 1948 H 177.411 3.21386 1.97461 0
M  V30 1949 H 179.798 2.22257 1.94128 0
M  V30 1950 H 179.879 2.54983 0.204281 0
M  V30 1951 H 179.523 5.03351 0.678274 0
M  V30 1952 H 179.453 4.6759 2.42212 0
M  V30 1953 H 181.944 3.52197 1.36987 0
M  V30 1954 H 182.257 7.40543 2.20943 0
M  V30 1955 H 180.602 6.65791 1.99366 0
M  V30 1956 H 183.793 4.39246 1.61805 0
M  V30 1957 H 183.966 6.16328 2.00111 0
M  V30 1958 N 177.372 -0.689602 1.41712 0
M  V30 1959 C 178.32 -1.82475 1.44242 0
M  V30 1960 C 179.314 -1.66354 0.319774 0
M  V30 1961 O 180.52 -1.73143 0.492089 0
M  V30 1962 H 176.895 -0.601416 0.451445 0
M  V30 1963 H 178.866 -1.77458 2.39899 0
M  V30 1964 C 177.615 -3.20535 1.3473 0
M  V30 1965 H 176.938 -3.33559 2.20405 0
M  V30 1966 H 178.378 -4.00023 1.40562 0
M  V30 1967 C 176.837 -3.36846 0.0603281 0
M  V30 1968 O 177.367 -3.91656 -0.892663 0
M  V30 1969 N 175.573 -2.90595 -0.0177039 0
M  V30 1970 H 175.12 -2.46178 0.758572 0
M  V30 1971 H 175.078 -3.01886 -0.878201 0
M  V30 1972 N 178.85 -1.27639 -0.924453 0
M  V30 1973 C 180.266 -1.05113 -1.20097 0
M  V30 1974 C 180.466 0.213262 -2.00368 0
M  V30 1975 O 179.522 0.91787 -2.35226 0
M  V30 1976 C 180.835 -2.29244 -1.94596 0
M  V30 1977 C 182.383 -2.34315 -2.07522 0
M  V30 1978 C 182.858 -3.58183 -2.85427 0
M  V30 1979 N 184.349 -3.5876 -2.92994 0
M  V30 1980 C 185.084 -4.51277 -3.53746 0
M  V30 1981 N 184.58 -5.54102 -4.15863 0
M  V30 1982 N 186.373 -4.38894 -3.51181 0
M  V30 1983 H 178.524 -2.08821 -0.388264 0
M  V30 1984 H 180.787 -0.918568 -0.234385 0
M  V30 1985 H 180.493 -3.21301 -1.43034 0
M  V30 1986 H 180.367 -2.34816 -2.95197 0
M  V30 1987 H 182.754 -1.42762 -2.58269 0
M  V30 1988 H 182.835 -2.32744 -1.06131 0
M  V30 1989 H 182.479 -4.50074 -2.35363 0
M  V30 1990 H 182.409 -3.57006 -3.8711 0
M  V30 1991 H 184.9 -2.84398 -2.4885 0
M  V30 1992 H 185.213 -6.20859 -4.60168 0
M  V30 1993 H 183.558 -5.57941 -4.144 0
M  V30 1994 H 186.749 -3.57772 -3.01856 0
M  V30 1995 H 186.922 -5.11186 -3.98237 0
M  V30 1996 N 180.328 1.1314 -1.09713 0
M  V30 1997 C 181.278 2.16709 -0.708593 0
M  V30 1998 C 182.262 1.58471 0.278523 0
M  V30 1999 O 183.454 1.76779 0.088427 0
M  V30 2000 C 180.583 3.43039 -0.133923 0
M  V30 2001 C 179.669 4.08277 -1.14763 0
M  V30 2002 N 180.06 4.48637 -2.33577 0
M  V30 2003 C 178.358 4.34954 -0.986446 0
M  V30 2004 C 179.059 4.9952 -2.98085 0
M  V30 2005 N 178.035 4.94561 -2.25632 0
M  V30 2006 H 181.837 2.45672 -1.61315 0
M  V30 2007 H 179.351 1.29967 -0.973775 0
M  V30 2008 H 181.348 4.16583 0.162465 0
M  V30 2009 H 180.008 3.15549 0.765447 0
M  V30 2010 H 181.019 4.41246 -2.7115 0
M  V30 2011 H 177.696 4.17258 -0.142008 0
M  V30 2012 H 179.086 5.40521 -3.99108 0
M  V30 2013 N 181.806 0.884767 1.30421 0
M  V30 2014 C 182.754 0.340869 2.30089 0
M  V30 2015 C 183.748 -0.55201 1.60154 0
M  V30 2016 O 184.954 -0.436467 1.74628 0
M  V30 2017 H 181.329 0.0915739 0.746404 0
M  V30 2018 H 183.3 1.19513 2.73421 0
M  V30 2019 C 182.049 -0.429779 3.45034 0
M  V30 2020 H 181.372 0.248024 3.9903 0
M  V30 2021 H 182.812 -0.775445 4.16849 0
M  V30 2022 C 181.271 -1.62677 2.95022 0
M  V30 2023 O 181.801 -2.72614 2.95033 0
M  V30 2024 N 180.007 -1.46387 2.51036 0
M  V30 2025 H 179.554 -0.569506 2.51226 0
M  V30 2026 H 179.512 -2.26612 2.17932 0
M  V30 2027 N 183.284 -1.43765 0.645699 0
M  V30 2028 C 184.561 -1.9541 0.0862963 0
M  V30 2029 C 184.941 -1.58725 -1.39175 0
M  V30 2030 O 184.289 -0.868581 -2.11348 0
M  V30 2031 C 184.499 -3.47488 0.324565 0
M  V30 2032 C 185.847 -4.24001 0.225497 0
M  V30 2033 O 186.871 -3.55274 0.256715 0
M  V30 2034 O 185.73 -5.46313 0.142801 0
M  V30 2035 H 182.824 -0.826882 -0.0139483 0
M  V30 2036 H 185.37 -1.53743 0.718415 0
M  V30 2037 H 184.142 -3.67289 1.3496 0
M  V30 2038 H 183.765 -3.96135 -0.340987 0
M  V30 2039 N 184.763 -0.387143 -1.52771 0
M  V30 2040 C 186.009 0.196025 -2.0185 0
M  V30 2041 C 186.342 1.46641 -1.27319 0
M  V30 2042 O 185.617 1.90889 -0.373032 0
M  V30 2043 C 185.9 0.466136 -3.5707 0
M  V30 2044 C 185.753 -0.819385 -4.42274 0
M  V30 2045 C 187.072 1.25768 -4.21747 0
M  V30 2046 H 184.191 0.0697708 -0.73369 0
M  V30 2047 H 186.833 -0.516286 -1.82851 0
M  V30 2048 H 184.983 1.07293 -3.7339 0
M  V30 2049 H 186.655 -1.4563 -4.37709 0
M  V30 2050 H 184.898 -1.43517 -4.09372 0
M  V30 2051 H 185.569 -0.585065 -5.48891 0
M  V30 2052 H 188.045 0.744167 -4.09391 0
M  V30 2053 H 186.921 1.41541 -5.30337 0
M  V30 2054 H 187.182 2.27228 -3.79236 0
M  V30 2055 N 186.241 1.57166 -0.116904 0
M  V30 2056 C 187.487 1.95412 0.542405 0
M  V30 2057 C 187.82 1.00019 1.66463 0
M  V30 2058 O 187.095 0.0370346 1.94465 0
M  V30 2059 C 187.378 3.43615 1.07708 0
M  V30 2060 C 187.231 4.49781 -0.0415868 0
M  V30 2061 C 188.55 3.93616 1.96861 0
M  V30 2062 H 185.669 0.710543 0.195696 0
M  V30 2063 H 188.311 1.89027 -0.192038 0
M  V30 2064 H 186.461 3.49187 1.70296 0
M  V30 2065 H 188.133 4.56308 -0.676793 0
M  V30 2066 H 186.376 4.28033 -0.705019 0
M  V30 2067 H 187.047 5.50733 0.373717 0
M  V30 2068 H 189.523 3.90335 1.44146 0
M  V30 2069 H 188.399 4.97838 2.3119 0
M  V30 2070 H 188.66 3.34188 2.89432 0
M  V30 2071 N 187.719 -0.156864 1.56817 0
M  V30 2072 C 189.13 -0.717916 1.72345 0
M  V30 2073 C 189.481 -1.82124 0.729747 0
M  V30 2074 O 188.606 -2.16141 -0.105781 0
M  V30 2075 C 189.201 -1.30904 3.12489 0
M  V30 2076 C 187.76 -1.81676 3.29653 0
M  V30 2077 C 186.907 -0.701349 2.68284 0
M  V30 2078 H 189.858 0.0686989 1.58551 0
M  V30 2079 H 189.879 -2.17882 3.11942 0
M  V30 2080 H 189.391 -0.505796 3.8479 0
M  V30 2081 H 187.492 -2.64598 2.62333 0
M  V30 2082 H 187.605 -1.95226 4.3752 0
M  V30 2083 H 185.969 -1.12548 2.28484 0
M  V30 2084 H 186.752 0.0902846 3.43181 0
M  V30 2085 N 189.197 -1.51736 -0.425897 0
M  V30 2086 C 190.425 -1.68794 -1.1965 0
M  V30 2087 C 190.84 -0.390164 -1.84725 0
M  V30 2088 O 190.197 0.632376 -1.71194 0
M  V30 2089 C 190.248 -2.81174 -2.27208 0
M  V30 2090 O 189.969 -4.05925 -1.64793 0
M  V30 2091 C 191.47 -3.09599 -3.17275 0
M  V30 2092 H 188.69 -0.566128 -0.360194 0
M  V30 2093 H 191.234 -1.98211 -0.503249 0
M  V30 2094 H 189.389 -2.54324 -2.9223 0
M  V30 2095 H 189.803 -4.68423 -2.35967 0
M  V30 2096 H 191.277 -3.91786 -3.88854 0
M  V30 2097 H 191.754 -2.22468 -3.78688 0
M  V30 2098 H 192.36 -3.38151 -2.57941 0
M  V30 2099 N 190.675 0.682077 -1.42076 0
M  V30 2100 C 191.608 1.80666 -1.3941 0
M  V30 2101 C 192.586 1.60518 -0.25939 0
M  V30 2102 O 193.77 1.83088 -0.448456 0
M  V30 2103 C 190.897 3.17556 -1.17796 0
M  V30 2104 C 189.943 3.56468 -2.34164 0
M  V30 2105 S 190.776 3.59729 -3.96681 0
M  V30 2106 C 191.932 4.99323 -3.77395 0
M  V30 2107 H 192.165 1.82652 -2.34575 0
M  V30 2108 H 189.698 0.852062 -1.2876 0
M  V30 2109 H 191.656 3.96575 -1.06012 0
M  V30 2110 H 190.317 3.13164 -0.242279 0
M  V30 2111 H 189.51 4.5595 -2.1477 0
M  V30 2112 H 189.112 2.84792 -2.42425 0
M  V30 2113 H 191.404 5.87202 -3.37935 0
M  V30 2114 H 192.347 5.23763 -4.76527 0
M  V30 2115 H 192.755 4.71498 -3.10403 0
M  V30 2116 N 192.153 1.28127 0.917671 0
M  V30 2117 C 193.116 1.11744 2.00115 0
M  V30 2118 C 194.116 0.0583052 1.60694 0
M  V30 2119 O 195.306 0.303755 1.71531 0
M  V30 2120 C 192.438 0.704862 3.33533 0
M  V30 2121 H 193.631 2.07966 2.16079 0
M  V30 2122 H 191.184 1.11058 1.09981 0
M  V30 2123 H 191.919 -0.258299 3.2327 0
M  V30 2124 H 191.704 1.4699 3.63505 0
M  V30 2125 H 193.194 0.612768 4.1308 0
M  V30 2126 N 193.631 -1.12557 1.10312 0
M  V30 2127 C 194.563 -2.17971 0.708625 0
M  V30 2128 C 195.576 -1.60806 -0.254027 0
M  V30 2129 O 196.765 -1.78458 -0.0386891 0
M  V30 2130 C 193.865 -3.38891 0.0248198 0
M  V30 2131 C 193.038 -4.25548 1.01132 0
M  V30 2132 C 192.097 -5.24972 0.35924 0
M  V30 2133 O 191.123 -5.60174 1.00965 0
M  V30 2134 N 192.325 -5.73747 -0.882847 0
M  V30 2135 H 195.09 -2.52427 1.61557 0
M  V30 2136 H 192.651 -1.27967 0.991771 0
M  V30 2137 H 194.643 -4.02485 -0.422852 0
M  V30 2138 H 193.213 -3.02596 -0.784514 0
M  V30 2139 H 192.433 -3.58589 1.6373 0
M  V30 2140 H 193.721 -4.80294 1.67914 0
M  V30 2141 H 193.119 -5.4731 -1.43065 0
M  V30 2142 H 191.676 -6.39234 -1.27369 0
M  V30 2143 N 195.109 -0.891671 -1.2995 0
M  V30 2144 C 196.357 -0.512486 -1.95494 0
M  V30 2145 C 196.678 0.942776 -1.70695 0
M  V30 2146 O 195.948 1.66374 -1.03424 0
M  V30 2147 H 194.528 -0.186533 -0.723336 0
M  V30 2148 H 197.19 -1.13621 -1.58355 0
M  V30 2149 H 196.286 -0.688342 -3.04415 0
M  V30 2150 N 196.587 1.43421 -0.653314 0
M  V30 2151 C 197.833 2.02111 -0.166992 0
M  V30 2152 C 198.166 1.51423 1.21592 0
M  V30 2153 O 197.441 0.707389 1.8118 0
M  V30 2154 C 197.724 3.5966 -0.177948 0
M  V30 2155 C 197.577 4.20579 -1.59478 0
M  V30 2156 C 198.896 4.37413 0.4856 0
M  V30 2157 H 196.015 0.734374 -0.0621557 0
M  V30 2158 H 198.657 1.70717 -0.834016 0
M  V30 2159 H 196.807 3.86537 0.390032 0
M  V30 2160 H 198.479 4.04732 -2.21336 0
M  V30 2161 H 196.722 3.77226 -2.14204 0
M  V30 2162 H 197.393 5.29665 -1.5543 0
M  V30 2163 H 199.869 4.161 0.00234528 0
M  V30 2164 H 198.745 5.47075 0.447207 0
M  V30 2165 H 199.006 4.13672 1.55974 0
M  V30 2166 N 198.065 0.39524 1.52563 0
M  V30 2167 C 198.995 -0.428384 2.29537 0
M  V30 2168 C 199.976 -1.05831 1.33169 0
M  V30 2169 O 201.161 -1.06995 1.62067 0
M  V30 2170 C 198.291 -1.55274 3.10656 0
M  V30 2171 C 197.245 -1.04855 4.14957 0
M  V30 2172 C 196.571 -2.26543 4.84337 0
M  V30 2173 C 197.871 -0.112324 5.22179 0
M  V30 2174 H 199.565 0.213867 2.98635 0
M  V30 2175 H 197.111 0.104298 1.43622 0
M  V30 2176 H 199.064 -2.1358 3.63265 0
M  V30 2177 H 197.788 -2.22266 2.39302 0
M  V30 2178 H 196.447 -0.487985 3.63338 0
M  V30 2179 H 196.095 -2.92059 4.09525 0
M  V30 2180 H 195.795 -1.93466 5.54837 0
M  V30 2181 H 197.319 -2.85481 5.39753 0
M  V30 2182 H 198.733 -0.603752 5.70112 0
M  V30 2183 H 197.13 0.128968 5.99961 0
M  V30 2184 H 198.2 0.837052 4.77621 0
M  V30 2185 N 199.544 -1.57102 0.125237 0
M  V30 2186 C 200.454 -2.19191 -0.8362 0
M  V30 2187 C 201.47 -1.16985 -1.28805 0
M  V30 2188 O 202.646 -1.49479 -1.34974 0
M  V30 2189 C 199.711 -2.78407 -2.06617 0
M  V30 2190 C 198.772 -3.9567 -1.66565 0
M  V30 2191 C 198.005 -4.52052 -2.83698 0
M  V30 2192 O 198.228 -4.07326 -3.99302 0
M  V30 2193 O 197.162 -5.42645 -2.60423 0
M  V30 2194 H 200.988 -3.01816 -0.337776 0
M  V30 2195 H 198.573 -1.4906 -0.100695 0
M  V30 2196 H 200.455 -3.16129 -2.7864 0
M  V30 2197 H 199.13 -1.9881 -2.55453 0
M  V30 2198 H 198.037 -3.62705 -0.916296 0
M  V30 2199 H 199.37 -4.76722 -1.22464 0
M  V30 2200 N 201.022 0.148545 -1.56898 0
M  V30 2201 C 202.252 0.875118 -1.8715 0
M  V30 2202 C 202.66 1.75322 -0.711262 0
M  V30 2203 O 202.003 1.80745 0.328151 0
M  V30 2204 C 202.065 1.7844 -3.12089 0
M  V30 2205 C 201.729 1.08361 -4.43967 0
M  V30 2206 C 202.726 0.438247 -5.1805 0
M  V30 2207 C 200.411 1.07358 -4.90693 0
M  V30 2208 C 202.405 -0.20779 -6.37061 0
M  V30 2209 C 200.092 0.42373 -6.09629 0
M  V30 2210 C 201.09 -0.215829 -6.82659 0
M  V30 2211 O 200.778 -0.855378 -7.99336 0
M  V30 2212 H 200.51 0.258504 -0.624621 0
M  V30 2213 H 203.064 0.14652 -2.04877 0
M  V30 2214 H 201.294 2.55389 -2.90367 0
M  V30 2215 H 202.983 2.38279 -3.286 0
M  V30 2216 H 203.749 0.437817 -4.8302 0
M  V30 2217 H 199.628 1.5608 -4.33774 0
M  V30 2218 H 203.172 -0.70758 -6.94002 0
M  V30 2219 H 199.069 0.421822 -6.4412 0
M  V30 2220 H 199.837 -0.756892 -8.14993 0
M  V30 2221 N 202.5 1.5196 0.417844 0
M  V30 2222 C 203.447 1.74678 1.50852 0
M  V30 2223 C 204.417 0.588947 1.55308 0
M  V30 2224 O 205.602 0.825544 1.72016 0
M  V30 2225 C 202.742 1.89544 2.88387 0
M  V30 2226 C 201.855 3.17166 2.93309 0
M  V30 2227 C 200.99 3.22513 4.22088 0
M  V30 2228 C 200.029 4.44372 4.20951 0
M  V30 2229 N 199.166 4.47161 5.41287 0
M  V30 2230 H 204.006 2.67768 1.30783 0
M  V30 2231 H 201.543 1.32689 0.63498 0
M  V30 2232 H 203.501 1.96146 3.68216 0
M  V30 2233 H 202.131 0.998424 3.06971 0
M  V30 2234 H 201.183 3.19778 2.06024 0
M  V30 2235 H 202.495 4.07021 2.88332 0
M  V30 2236 H 201.649 3.28139 5.10303 0
M  V30 2237 H 200.388 2.30581 4.29748 0
M  V30 2238 H 199.393 4.38902 3.31127 0
M  V30 2239 H 200.618 5.3759 4.14938 0
M  V30 2240 H 198.564 3.58108 5.49632 0
M  V30 2241 H 198.481 5.3085 5.3827 0
M  V30 2242 H 199.749 4.57005 6.3148 0
M  V30 2243 N 203.978 -0.674533 1.42435 0
M  V30 2244 C 205.255 -1.4305 1.33402 0
M  V30 2245 C 205.635 -2.11081 -0.0284674 0
M  V30 2246 O 204.983 -2.03257 -1.04397 0
M  V30 2247 C 205.193 -2.43272 2.50239 0
M  V30 2248 C 206.541 -3.07907 2.92367 0
M  V30 2249 O 207.565 -2.53599 2.50132 0
M  V30 2250 O 206.424 -4.0632 3.65467 0
M  V30 2251 H 203.518 -0.638076 0.526106 0
M  V30 2252 H 206.064 -0.703235 1.54443 0
M  V30 2253 H 204.836 -1.91803 3.41068 0
M  V30 2254 H 204.459 -3.23479 2.31186 0
M  V30 2255 N 205.456 -1.28612 -0.910864 0
M  V30 2256 C 206.684 -1.18792 -1.69399 0
M  V30 2257 C 207.099 0.253039 -1.87097 0
M  V30 2258 O 206.456 1.17071 -1.40003 0
M  V30 2259 C 206.507 -1.88511 -3.08457 0
M  V30 2260 O 206.228 -3.26979 -2.91576 0
M  V30 2261 C 207.729 -1.85029 -4.02839 0
M  V30 2262 H 204.949 -0.412233 -0.529438 0
M  V30 2263 H 207.493 -1.69788 -1.13984 0
M  V30 2264 H 205.648 -1.41379 -3.60681 0
M  V30 2265 H 206.062 -3.61936 -3.79608 0
M  V30 2266 H 207.536 -2.38395 -4.97867 0
M  V30 2267 H 208.013 -0.823303 -4.31414 0
M  V30 2268 H 208.619 -2.31853 -3.56545 0
M  V30 2269 N 206.934 1.1197 -1.10907 0
M  V30 2270 C 208.164 1.8713 -0.875553 0
M  V30 2271 C 208.572 1.8016 0.577843 0
M  V30 2272 O 207.915 1.17699 1.41042 0
M  V30 2273 C 207.977 3.37005 -1.2517 0
M  V30 2274 C 207.641 3.67748 -2.71313 0
M  V30 2275 C 208.638 3.65698 -3.69542 0
M  V30 2276 C 206.323 3.96928 -3.07821 0
M  V30 2277 C 208.317 3.92395 -5.023 0
M  V30 2278 C 206.004 4.23284 -4.40765 0
M  V30 2279 C 207.002 4.21005 -5.37814 0
M  V30 2280 O 206.69 4.46704 -6.68364 0
M  V30 2281 H 206.422 0.598786 -0.313737 0
M  V30 2282 H 208.976 1.42568 -1.47863 0
M  V30 2283 H 207.206 3.82146 -0.591741 0
M  V30 2284 H 208.895 3.93519 -0.994877 0
M  V30 2285 H 209.661 3.43211 -3.42682 0
M  V30 2286 H 205.54 3.97841 -2.32902 0
M  V30 2287 H 209.084 3.90531 -5.78041 0
M  V30 2288 H 204.981 4.45246 -4.67361 0
M  V30 2289 H 205.749 4.64299 -6.74069 0
M  V30 2290 N 208.412 0.89855 1.29475 0
M  V30 2291 C 209.66 0.522847 1.9522 0
M  V30 2292 C 209.981 -0.93371 1.71192 0
M  V30 2293 O 209.251 -1.65823 1.04305 0
M  V30 2294 H 207.831 0.190366 0.722336 0
M  V30 2295 H 210.493 1.14459 1.5775 0
M  V30 2296 H 209.589 0.704476 3.04045 0
M  V30 2297 N 209.89 -1.43072 0.660911 0
M  V30 2298 C 211.167 -1.95307 0.107017 0
M  V30 2299 C 211.547 -1.60192 -1.37484 0
M  V30 2300 O 210.895 -0.890949 -2.10415 0
M  V30 2301 C 211.105 -3.47124 0.361402 0
M  V30 2302 C 212.453 -4.23738 0.270455 0
M  V30 2303 O 213.477 -3.54981 0.294382 0
M  V30 2304 O 212.336 -5.46131 0.200737 0
M  V30 2305 H 209.43 -0.826984 -0.00517729 0
M  V30 2306 H 211.976 -1.52972 0.734681 0
M  V30 2307 H 210.748 -3.65837 1.38848 0
M  V30 2308 H 210.371 -3.96475 -0.298953 0
M  V30 2309 N 211.368 -0.403325 -1.52352 0
M  V30 2310 C 212.645 0.232611 -1.94212 0
M  V30 2311 C 213.025 1.63133 -1.33981 0
M  V30 2312 O 212.373 2.22659 -0.513344 0
M  V30 2313 C 212.583 0.244811 -3.4814 0
M  V30 2314 C 213.931 0.46698 -4.22024 0
M  V30 2315 O 214.955 0.324419 -3.5472 0
M  V30 2316 O 213.814 0.74747 -5.41364 0
M  V30 2317 H 210.908 0.148223 -0.813609 0
M  V30 2318 H 213.454 -0.458848 -1.63379 0
M  V30 2319 H 212.226 -0.734378 -3.84347 0
M  V30 2320 H 211.849 0.980611 -3.85318 0
M  V30 2321 N 212.846 1.57033 -0.133567 0
M  V30 2322 C 214.257 1.82593 0.389464 0
M  V30 2323 C 214.608 1.05156 1.6564 0
M  V30 2324 O 213.733 0.292644 2.14412 0
M  V30 2325 C 214.328 3.31204 0.713377 0
M  V30 2326 C 212.887 3.57393 1.18098 0
M  V30 2327 C 212.034 2.76598 0.197126 0
M  V30 2328 H 214.985 1.54598 -0.358481 0
M  V30 2329 H 215.006 3.46627 1.56939 0
M  V30 2330 H 214.518 3.87537 -0.2089 0
M  V30 2331 H 212.619 3.06433 2.11966 0
M  V30 2332 H 212.732 4.65915 1.11624 0
M  V30 2333 H 211.096 2.45257 0.687088 0
M  V30 2334 H 211.879 3.35697 -0.718504 0
M  V30 2335 N 214.325 -0.140222 1.56975 0
M  V30 2336 C 215.571 -0.852949 1.83991 0
M  V30 2337 C 215.904 -1.80512 0.716187 0
M  V30 2338 O 215.179 -1.92479 -0.279681 0
M  V30 2339 C 215.462 -1.6215 3.21527 0
M  V30 2340 C 215.315 -0.690363 4.4447 0
M  V30 2341 C 216.634 -2.58247 3.56366 0
M  V30 2342 H 213.753 -0.308634 0.669264 0
M  V30 2343 H 216.395 -0.117898 1.89634 0
M  V30 2344 H 214.545 -2.24812 3.16847 0
M  V30 2345 H 216.217 -0.0742264 4.6124 0
M  V30 2346 H 214.46 -0.000396433 4.338 0
M  V30 2347 H 215.131 -1.2643 5.37326 0
M  V30 2348 H 217.607 -2.05701 3.61699 0
M  V30 2349 H 216.483 -3.09067 4.53617 0
M  V30 2350 H 216.744 -3.39923 2.82674 0
M  V30 2351 N 215.803 -1.52179 -0.40978 0
M  V30 2352 C 217.028 -1.70347 -1.18308 0
M  V30 2353 C 217.453 -0.411887 -1.83535 0
M  V30 2354 O 216.811 0.630587 -1.6998 0
M  V30 2355 C 216.859 -2.83977 -2.22238 0
M  V30 2356 O 215.963 -2.495 -3.28365 0
M  V30 2357 H 215.304 -0.567103 -0.345384 0
M  V30 2358 H 217.834 -1.98879 -0.480445 0
M  V30 2359 H 217.844 -3.0887 -2.66577 0
M  V30 2360 H 216.519 -3.77685 -1.74146 0
M  V30 2361 H 215.096 -2.35277 -2.89308 0
M  V30 2362 N 217.281 0.66697 -1.42791 0
M  V30 2363 C 218.229 1.80157 -1.47127 0
M  V30 2364 C 219.223 1.65825 -0.346199 0
M  V30 2365 O 220.429 1.72338 -0.519572 0
M  V30 2366 H 216.804 0.594158 -0.460956 0
M  V30 2367 H 218.775 1.73619 -2.42692 0
M  V30 2368 C 217.524 3.18351 -1.39813 0
M  V30 2369 H 216.847 3.3001 -2.25684 0
M  V30 2370 H 218.287 3.97736 -1.46908 0
M  V30 2371 C 216.746 3.36707 -0.11391 0
M  V30 2372 O 217.276 3.93027 0.830241 0
M  V30 2373 N 215.482 2.90586 -0.0285295 0
M  V30 2374 H 215.029 2.4494 -0.79764 0
M  V30 2375 H 214.987 3.03245 0.830063 0
M  V30 2376 N 218.759 1.29093 0.90403 0
M  V30 2377 C 219.691 1.09658 2.01266 0
M  V30 2378 C 220.704 0.0453729 1.62737 0
M  V30 2379 O 221.893 0.289446 1.76138 0
M  V30 2380 C 218.993 0.646278 3.32681 0
M  V30 2381 C 218.166 1.77505 3.99763 0
M  V30 2382 C 217.225 1.31649 5.09465 0
M  V30 2383 O 216.251 2.02045 5.32134 0
M  V30 2384 N 217.453 0.184997 5.80205 0
M  V30 2385 H 220.218 2.05135 2.18494 0
M  V30 2386 H 217.779 1.20975 1.07594 0
M  V30 2387 H 219.771 0.322906 4.0341 0
M  V30 2388 H 218.341 -0.215916 3.11853 0
M  V30 2389 H 217.561 2.26752 3.22455 0
M  V30 2390 H 218.849 2.53198 4.41325 0
M  V30 2391 H 218.247 -0.402021 5.6427 0
M  V30 2392 H 216.804 -0.0790358 6.51752 0
M  V30 2393 N 220.237 -1.11381 1.11499 0
M  V30 2394 C 221.185 -2.19522 0.768956 0
M  V30 2395 C 222.179 -1.67693 -0.239857 0
M  V30 2396 O 223.385 -1.79727 -0.0990755 0
M  V30 2397 H 219.76 -0.715711 0.230786 0
M  V30 2398 H 221.731 -2.45954 1.68964 0
M  V30 2399 C 220.48 -3.46945 0.229073 0
M  V30 2400 H 219.803 -3.8718 0.996596 0
M  V30 2401 H 221.243 -4.23993 0.0251441 0
M  V30 2402 C 219.702 -3.2042 -1.04079 0
M  V30 2403 O 220.232 -3.41178 -2.12038 0
M  V30 2404 N 218.438 -2.74151 -0.963823 0
M  V30 2405 H 217.985 -2.57459 -0.0851722 0
M  V30 2406 H 217.943 -2.56781 -1.81414 0
M  V30 2407 N 221.715 -0.905404 -1.28997 0
M  V30 2408 C 222.964 -0.530191 -1.94607 0
M  V30 2409 C 223.277 0.929185 -1.72121 0
M  V30 2410 O 224.483 1.41218 -2.31883 0
M  V30 2411 C 222.939 -0.897333 -3.48534 0
M  V30 2412 C 222.547 -2.37587 -3.79811 0
M  V30 2413 C 224.291 -0.592304 -4.20347 0
M  V30 2414 C 222.198 -2.68357 -5.27009 0
M  V30 2415 H 221.128 -0.194558 -0.728466 0
M  V30 2416 H 223.779 -1.10318 -1.46636 0
M  V30 2417 H 222.161 -0.253214 -3.9519 0
M  V30 2418 H 223.335 -3.06602 -3.43994 0
M  V30 2419 H 221.65 -2.6505 -3.2115 0
M  V30 2420 H 224.247 -0.798975 -5.28697 0
M  V30 2421 H 224.59 0.469474 -4.13644 0
M  V30 2422 H 225.123 -1.19452 -3.79442 0
M  V30 2423 H 221.862 -3.73355 -5.38782 0
M  V30 2424 H 221.382 -2.03971 -5.64053 0
M  V30 2425 H 223.061 -2.54922 -5.94663 0
M  V30 2426 N 223.193 1.4272 -0.668489 0
M  V30 2427 C 224.125 2.2914 0.052613 0
M  V30 2428 C 225.138 1.43339 0.771857 0
M  V30 2429 O 226.327 1.67123 0.627067 0
M  V30 2430 C 223.427 3.20618 1.09804 0
M  V30 2431 C 222.6 4.35039 0.45389 0
M  V30 2432 C 221.659 5.07282 1.39825 0
M  V30 2433 O 220.685 5.62024 0.900978 0
M  V30 2434 N 221.887 5.12206 2.73176 0
M  V30 2435 H 224.652 2.91668 -0.689209 0
M  V30 2436 H 222.213 1.53577 -0.512422 0
M  V30 2437 H 224.205 3.65815 1.73094 0
M  V30 2438 H 222.775 2.59585 1.74167 0
M  V30 2439 H 221.995 3.92567 -0.358396 0
M  V30 2440 H 223.283 5.088 0.00486972 0
M  V30 2441 H 222.681 4.6913 3.16122 0
M  V30 2442 H 221.238 5.61069 3.31729 0
M  V30 2443 N 224.671 0.411399 1.52136 0
M  V30 2444 C 225.901 -0.16284 2.05957 0
M  V30 2445 C 226.309 -1.3922 1.28119 0
M  V30 2446 O 225.652 -1.80768 0.326881 0
M  V30 2447 C 225.714 -0.575946 3.54856 0
M  V30 2448 C 225.378 0.542998 4.53763 0
M  V30 2449 C 226.375 1.40726 5.00492 0
M  V30 2450 C 224.06 0.716337 4.97166 0
M  V30 2451 C 226.054 2.4298 5.8927 0
M  V30 2452 C 223.741 1.74218 5.8574 0
M  V30 2453 C 224.739 2.59731 6.31687 0
M  V30 2454 O 224.427 3.60558 7.18507 0
M  V30 2455 H 224.159 -0.0229125 0.675612 0
M  V30 2456 H 226.713 0.581634 1.96993 0
M  V30 2457 H 224.943 -1.37274 3.61515 0
M  V30 2458 H 226.632 -1.07836 3.91313 0
M  V30 2459 H 227.398 1.28476 4.67674 0
M  V30 2460 H 223.277 0.0603857 4.6096 0
M  V30 2461 H 226.821 3.0976 6.25055 0
M  V30 2462 H 222.718 1.86498 6.17971 0
M  V30 2463 H 223.486 3.56829 7.36624 0
M  V30 2464 N 226.149 -1.5696 0.141893 0
M  V30 2465 C 227.396 -1.9596 -0.510492 0
M  V30 2466 C 227.724 -1.02648 -1.65208 0
M  V30 2467 O 226.979 -0.0546947 -1.95624 0
M  V30 2468 C 227.278 -3.41242 -1.06249 0
M  V30 2469 C 226.944 -4.50882 -0.0398791 0
M  V30 2470 C 225.606 -4.80595 0.241247 0
M  V30 2471 C 227.958 -5.17058 0.65578 0
M  V30 2472 C 225.286 -5.73792 1.22393 0
M  V30 2473 C 227.638 -6.11313 1.62724 0
M  V30 2474 C 226.302 -6.39407 1.91612 0
M  V30 2475 H 225.572 -0.717068 -0.186802 0
M  V30 2476 H 228.219 -1.90142 0.227643 0
M  V30 2477 H 226.524 -3.43866 -1.87785 0
M  V30 2478 H 228.221 -3.68742 -1.57576 0
M  V30 2479 H 224.811 -4.27754 -0.269174 0
M  V30 2480 H 228.995 -4.94239 0.451779 0
M  V30 2481 H 224.251 -5.93853 1.45424 0
M  V30 2482 H 228.425 -6.61668 2.17183 0
M  V30 2483 H 226.052 -7.11427 2.6791 0
M  V30 2484 N 227.627 0.131896 -1.57047 0
M  V30 2485 C 228.557 1.16384 -2.02428 0
M  V30 2486 C 229.538 1.43936 -0.90644 0
M  V30 2487 O 230.723 1.54599 -1.17528 0
M  V30 2488 C 227.853 2.49328 -2.4177 0
M  V30 2489 C 226.807 2.36266 -3.56879 0
M  V30 2490 C 226.133 3.74057 -3.8208 0
M  V30 2491 C 227.433 1.834 -4.89042 0
M  V30 2492 H 229.127 0.786433 -2.88887 0
M  V30 2493 H 226.673 0.376855 -1.38981 0
M  V30 2494 H 228.626 3.21759 -2.7212 0
M  V30 2495 H 227.35 2.88934 -1.52266 0
M  V30 2496 H 226.009 1.66286 -3.26718 0
M  V30 2497 H 225.657 4.11125 -2.89803 0
M  V30 2498 H 225.357 3.66174 -4.59554 0
M  V30 2499 H 226.881 4.48012 -4.1487 0
M  V30 2500 H 228.295 2.45636 -5.18011 0
M  V30 2501 H 226.692 1.8637 -5.70426 0
M  V30 2502 H 227.762 0.790662 -4.7841 0
M  V30 2503 N 229.106 1.52395 0.401703 0
M  V30 2504 C 230.383 1.57387 1.16141 0
M  V30 2505 C 230.763 0.359359 2.08019 0
M  V30 2506 O 230.111 -0.65326 2.18963 0
M  V30 2507 C 230.321 2.90631 1.93221 0
M  V30 2508 C 231.669 3.43904 2.49028 0
M  V30 2509 O 232.693 2.92421 2.03393 0
M  V30 2510 O 231.552 4.33823 3.32356 0
M  V30 2511 H 228.646 0.634262 0.530698 0
M  V30 2512 H 231.192 1.64725 0.407883 0
M  V30 2513 H 229.964 3.70473 1.25958 0
M  V30 2514 H 229.587 2.8662 2.75563 0
M  V30 2515 N 230.584 -0.659388 1.43143 0
M  V30 2516 C 232 -0.974337 1.26407 0
M  V30 2517 C 232.2 -2.007 0.179341 0
M  V30 2518 O 231.256 -2.4856 -0.444295 0
M  V30 2519 C 232.569 -1.46447 2.62628 0
M  V30 2520 C 234.117 -1.58144 2.7011 0
M  V30 2521 C 234.592 -2.1055 4.06734 0
M  V30 2522 N 236.083 -2.17861 4.08767 0
M  V30 2523 C 236.818 -2.59519 5.1131 0
M  V30 2524 N 236.314 -3.00518 6.24228 0
M  V30 2525 N 238.107 -2.59404 4.98664 0
M  V30 2526 H 230.258 0.0240528 2.12386 0
M  V30 2527 H 232.521 -0.0518065 0.946583 0
M  V30 2528 H 232.227 -0.780123 3.42939 0
M  V30 2529 H 232.101 -2.44058 2.87603 0
M  V30 2530 H 234.488 -2.25682 1.90136 0
M  V30 2531 H 234.569 -0.589828 2.48907 0
M  V30 2532 H 234.213 -1.43616 4.87172 0
M  V30 2533 H 234.143 -3.10531 4.25298 0
M  V30 2534 H 236.634 -1.88975 3.27257 0
M  V30 2535 H 236.947 -3.31036 6.98309 0
M  V30 2536 H 235.292 -2.98337 6.2771 0
M  V30 2537 H 238.483 -2.26747 4.09516 0
M  V30 2538 H 238.656 -2.91548 5.78709 0
M  V30 2539 N 232.062 -1.29571 -0.897171 0
M  V30 2540 C 233.309 -1.17689 -1.6479 0
M  V30 2541 C 233.637 0.27107 -1.92602 0
M  V30 2542 O 232.892 1.21193 -1.53658 0
M  V30 2543 C 233.191 -1.9382 -3.00281 0
M  V30 2544 C 232.857 -3.43522 -2.92068 0
M  V30 2545 C 231.519 -3.84348 -2.89535 0
M  V30 2546 C 233.871 -4.38906 -2.81089 0
M  V30 2547 C 231.199 -5.18869 -2.73846 0
M  V30 2548 C 233.551 -5.73521 -2.66939 0
M  V30 2549 C 232.215 -6.13601 -2.62774 0
M  V30 2550 H 231.485 -0.430654 -0.603008 0
M  V30 2551 H 234.132 -1.60536 -1.04404 0
M  V30 2552 H 232.437 -1.4357 -3.64547 0
M  V30 2553 H 234.134 -1.82028 -3.57305 0
M  V30 2554 H 230.724 -3.11072 -2.94842 0
M  V30 2555 H 234.908 -4.08315 -2.82121 0
M  V30 2556 H 230.164 -5.4903 -2.69027 0
M  V30 2557 H 234.338 -6.47078 -2.57416 0
M  V30 2558 H 231.965 -7.17786 -2.50375 0
M  V30 2559 N 233.54 1.10788 -1.12088 0
M  V30 2560 C 234.77 1.86191 -0.895351 0
M  V30 2561 C 235.178 1.80763 0.558702 0
M  V30 2562 O 234.521 1.19188 1.39785 0
M  V30 2563 C 234.583 3.35659 -1.28737 0
M  V30 2564 C 234.247 3.64849 -2.75198 0
M  V30 2565 C 235.244 3.61757 -3.734 0
M  V30 2566 C 232.929 3.93641 -3.12013 0
M  V30 2567 C 234.923 3.87045 -5.06434 0
M  V30 2568 C 232.61 4.18585 -4.4523 0
M  V30 2569 C 233.608 4.15277 -5.42249 0
M  V30 2570 O 233.296 4.3959 -6.73065 0
M  V30 2571 H 233.028 0.595425 -0.32007 0
M  V30 2572 H 235.582 1.40992 -1.49367 0
M  V30 2573 H 233.812 3.81497 -0.63224 0
M  V30 2574 H 235.501 3.92441 -1.03656 0
M  V30 2575 H 236.267 3.39557 -3.46303 0
M  V30 2576 H 232.146 3.95348 -2.37109 0
M  V30 2577 H 235.69 3.84378 -5.82151 0
M  V30 2578 H 231.587 4.40264 -4.72057 0
M  V30 2579 H 232.355 4.57123 -6.78956 0
M  V30 2580 N 235.018 0.912232 1.28515 0
M  V30 2581 C 235.948 0.416403 2.29757 0
M  V30 2582 C 236.929 -0.515194 1.6211 0
M  V30 2583 O 238.114 -0.423253 1.89532 0
M  V30 2584 C 235.244 -0.34572 3.45575 0
M  V30 2585 C 234.198 0.496599 4.25109 0
M  V30 2586 C 233.524 -0.393771 5.33248 0
M  V30 2587 C 234.824 1.75307 4.92001 0
M  V30 2588 H 236.518 1.26249 2.7148 0
M  V30 2589 H 234.064 0.608515 1.30511 0
M  V30 2590 H 236.017 -0.703422 4.15488 0
M  V30 2591 H 234.741 -1.2257 3.02728 0
M  V30 2592 H 233.4 0.8368 3.56922 0
M  V30 2593 H 233.048 -1.27225 4.86644 0
M  V30 2594 H 232.748 0.166209 5.87365 0
M  V30 2595 H 234.272 -0.747389 6.06009 0
M  V30 2596 H 235.686 1.46437 5.54283 0
M  V30 2597 H 234.083 2.25534 5.56106 0
M  V30 2598 H 235.153 2.48176 4.16577 0
M  V30 2599 N 236.496 -1.42363 0.676048 0
M  V30 2600 C 237.721 -2.06377 0.205705 0
M  V30 2601 C 238.146 -1.50463 -1.12883 0
M  V30 2602 O 237.504 -0.623619 -1.70237 0
M  V30 2603 C 237.552 -3.60277 0.152655 0
M  V30 2604 O 236.656 -4.02935 -0.87845 0
M  V30 2605 H 235.997 -0.655588 0.105359 0
M  V30 2606 H 238.527 -1.82475 0.925412 0
M  V30 2607 H 238.537 -4.07993 -0.0230675 0
M  V30 2608 H 237.212 -4.00346 1.12675 0
M  V30 2609 H 235.789 -3.66764 -0.673668 0
M  V30 2610 N 237.974 -0.419461 -1.51915 0
M  V30 2611 C 239.39 -0.0708431 -1.59443 0
M  V30 2612 C 239.59 1.41796 -1.43164 0
M  V30 2613 O 238.646 2.18596 -1.26381 0
M  V30 2614 C 239.959 -0.574991 -2.95151 0
M  V30 2615 C 241.507 -0.533867 -3.08413 0
M  V30 2616 C 241.982 -1.01469 -4.46618 0
M  V30 2617 N 243.473 -0.971939 -4.52888 0
M  V30 2618 C 244.208 -1.31505 -5.58116 0
M  V30 2619 N 243.704 -1.73014 -6.70849 0
M  V30 2620 N 245.497 -1.23436 -5.48379 0
M  V30 2621 H 237.648 -1.38836 -1.60743 0
M  V30 2622 H 239.911 -0.570998 -0.756747 0
M  V30 2623 H 239.617 -1.61597 -3.12377 0
M  V30 2624 H 239.491 0.00979777 -3.77199 0
M  V30 2625 H 241.878 0.498086 -2.90866 0
M  V30 2626 H 241.959 -1.15484 -2.28248 0
M  V30 2627 H 241.603 -2.04502 -4.6491 0
M  V30 2628 H 241.533 -0.370433 -5.25295 0
M  V30 2629 H 244.024 -0.666893 -3.71969 0
M  V30 2630 H 244.337 -1.97479 -7.47143 0
M  V30 2631 H 242.682 -1.76926 -6.72103 0
M  V30 2632 H 245.873 -0.908869 -4.59192 0
M  V30 2633 H 246.046 -1.50506 -6.30279 0
M  V30 2634 N 239.452 1.56882 -0.150215 0
M  V30 2635 C 240.701 1.95403 0.500071 0
M  V30 2636 C 241.014 1.03777 1.658 0
M  V30 2637 O 242.22 1.31889 2.37313 0
M  V30 2638 C 240.676 3.4738 0.941018 0
M  V30 2639 C 240.284 4.47596 -0.190158 0
M  V30 2640 C 242.028 3.9476 1.56091 0
M  V30 2641 C 239.935 5.90787 0.269237 0
M  V30 2642 H 238.865 0.729515 0.190588 0
M  V30 2643 H 241.516 1.81988 -0.235074 0
M  V30 2644 H 239.898 3.56138 1.73152 0
M  V30 2645 H 241.072 4.50536 -0.967157 0
M  V30 2646 H 239.387 4.10151 -0.718666 0
M  V30 2647 H 241.984 4.99181 1.9163 0
M  V30 2648 H 242.327 3.36494 2.45107 0
M  V30 2649 H 242.86 3.88932 0.835249 0
M  V30 2650 H 239.599 6.52879 -0.585621 0
M  V30 2651 H 239.119 5.912 1.01204 0
M  V30 2652 H 240.798 6.42979 0.720176 0
M  V30 2653 N 240.93 -0.123565 1.57115 0
M  V30 2654 C 242.155 -0.850398 1.89164 0
M  V30 2655 C 242.58 -1.7286 0.741688 0
M  V30 2656 O 241.938 -1.78665 -0.307958 0
M  V30 2657 C 241.986 -1.66353 3.19936 0
M  V30 2658 O 241.09 -2.77004 3.0552 0
M  V30 2659 H 240.431 -0.235454 0.620852 0
M  V30 2660 H 242.961 -0.107335 2.04318 0
M  V30 2661 H 242.971 -2.05372 3.52543 0
M  V30 2662 H 241.646 -1.01881 4.03228 0
M  V30 2663 H 240.223 -2.41221 2.84371 0
M  V30 2664 N 242.408 -1.52605 -0.393616 0
M  V30 2665 C 243.657 -1.66649 -1.13627 0
M  V30 2666 C 243.97 -0.410364 -1.91247 0
M  V30 2667 O 245.176 -0.430854 -2.68059 0
M  V30 2668 C 243.632 -2.9449 -2.06891 0
M  V30 2669 C 243.24 -4.27266 -1.34714 0
M  V30 2670 C 244.984 -3.17899 -2.81319 0
M  V30 2671 C 242.891 -5.46217 -2.26717 0
M  V30 2672 H 241.821 -0.62084 -0.427871 0
M  V30 2673 H 244.472 -1.791 -0.399428 0
M  V30 2674 H 242.854 -2.75774 -2.84191 0
M  V30 2675 H 244.028 -4.56518 -0.626714 0
M  V30 2676 H 242.343 -4.10081 -0.722643 0
M  V30 2677 H 244.94 -4.03949 -3.50328 0
M  V30 2678 H 245.283 -2.32777 -3.45139 0
M  V30 2679 H 245.816 -3.37159 -2.11113 0
M  V30 2680 H 242.555 -6.33733 -1.67521 0
M  V30 2681 H 242.075 -5.21283 -2.96689 0
M  V30 2682 H 243.754 -5.7991 -2.86903 0
M  V30 2683 N 243.887 0.651787 -1.4349 0
M  V30 2684 C 245.303 0.96762 -1.26922 0
M  V30 2685 C 245.503 2.00602 -0.189982 0
M  V30 2686 O 244.559 2.48793 0.431107 0
M  V30 2687 C 245.872 1.45052 -2.63401 0
M  V30 2688 C 247.42 1.5671 -2.70945 0
M  V30 2689 C 247.895 2.0839 -4.07845 0
M  V30 2690 N 249.386 2.1569 -4.09917 0
M  V30 2691 C 250.121 2.56804 -5.12679 0
M  V30 2692 N 249.617 2.97203 -6.25813 0
M  V30 2693 N 251.41 2.56756 -5.00033 0
M  V30 2694 H 243.561 -0.0353158 -2.12371 0
M  V30 2695 H 245.824 0.0467858 -0.946845 0
M  V30 2696 H 245.53 0.761926 -3.43348 0
M  V30 2697 H 245.404 2.42529 -2.88894 0
M  V30 2698 H 247.791 2.2467 -1.9133 0
M  V30 2699 H 247.872 0.57662 -2.49216 0
M  V30 2700 H 247.516 1.41031 -4.87927 0
M  V30 2701 H 247.446 3.08271 -4.26938 0
M  V30 2702 H 249.937 1.87237 -3.28254 0
M  V30 2703 H 250.25 3.27328 -7.00055 0
M  V30 2704 H 248.595 2.95004 -6.29283 0
M  V30 2705 H 251.786 2.24572 -4.10713 0
M  V30 2706 H 251.959 2.88475 -5.80247 0
M  V30 2707 N 245.365 1.30045 0.890287 0
M  V30 2708 C 246.298 1.10301 1.99772 0
M  V30 2709 C 247.276 0.0121631 1.62595 0
M  V30 2710 O 248.46 0.16469 1.87779 0
M  V30 2711 C 245.587 0.681125 3.31781 0
M  V30 2712 C 244.633 1.77206 3.87944 0
M  V30 2713 S 245.466 3.37335 4.15891 0
M  V30 2714 C 246.622 2.97036 5.50927 0
M  V30 2715 H 246.855 2.04057 2.16213 0
M  V30 2716 H 244.388 1.14299 1.03804 0
M  V30 2717 H 246.346 0.444439 4.08087 0
M  V30 2718 H 245.007 -0.236981 3.13205 0
M  V30 2719 H 244.2 1.42903 4.83316 0
M  V30 2720 H 243.802 1.96275 3.18358 0
M  V30 2721 H 246.094 2.44666 6.31779 0
M  V30 2722 H 247.037 3.91296 5.90164 0
M  V30 2723 H 247.445 2.35057 5.13233 0
M  V30 2724 N 246.843 -1.10192 1.12674 0
M  V30 2725 C 247.773 -2.18652 0.819362 0
M  V30 2726 C 248.754 -1.68698 -0.217915 0
M  V30 2727 O 249.939 -1.94041 -0.0785581 0
M  V30 2728 C 247.069 -3.46202 0.27594 0
M  V30 2729 C 246.023 -4.09444 1.24656 0
M  V30 2730 C 245.349 -5.31725 0.563258 0
M  V30 2731 C 246.649 -4.52863 2.60217 0
M  V30 2732 H 248.343 -2.44622 1.72628 0
M  V30 2733 H 245.889 -1.17571 0.831451 0
M  V30 2734 H 247.842 -4.21372 0.0486149 0
M  V30 2735 H 246.566 -3.1973 -0.666331 0
M  V30 2736 H 245.225 -3.36284 1.45974 0
M  V30 2737 H 244.873 -5.0153 -0.384235 0
M  V30 2738 H 244.573 -5.74991 1.21075 0
M  V30 2739 H 246.097 -6.09624 0.34503 0
M  V30 2740 H 247.511 -5.19294 2.42913 0
M  V30 2741 H 245.908 -5.06986 3.21068 0
M  V30 2742 H 246.978 -3.65656 3.18471 0
M  V30 2743 N 248.321 -0.919034 -1.28029 0
M  V30 2744 C 249.57 -0.550802 -1.94034 0
M  V30 2745 C 249.883 0.910877 -1.73096 0
M  V30 2746 O 251.089 1.3875 -2.33368 0
M  V30 2747 C 249.545 -0.934249 -3.47563 0
M  V30 2748 C 249.153 -2.41602 -3.7727 0
M  V30 2749 C 250.897 -0.636854 -4.19696 0
M  V30 2750 C 248.804 -2.73932 -5.24133 0
M  V30 2751 H 247.734 -0.202273 -0.726362 0
M  V30 2752 H 250.385 -1.11867 -1.45458 0
M  V30 2753 H 248.767 -0.295115 -3.94899 0
M  V30 2754 H 249.941 -3.10233 -3.40723 0
M  V30 2755 H 248.256 -2.68441 -3.18321 0
M  V30 2756 H 250.853 -0.855005 -5.2782 0
M  V30 2757 H 251.196 0.425575 -4.14119 0
M  V30 2758 H 251.729 -1.23469 -3.78154 0
M  V30 2759 H 248.468 -3.79049 -5.34792 0
M  V30 2760 H 247.988 -2.09942 -5.61858 0
M  V30 2761 H 249.667 -2.61215 -5.91925 0
M  V30 2762 N 249.799 1.42003 -0.683588 0
M  V30 2763 C 250.747 2.326 0.000815408 0
M  V30 2764 C 251.741 1.50308 0.781278 0
M  V30 2765 O 252.947 1.66322 0.688251 0
M  V30 2766 H 249.322 0.751758 0.0190616 0
M  V30 2767 H 251.293 2.88011 -0.780528 0
M  V30 2768 C 250.042 3.34978 0.93195 0
M  V30 2769 H 249.365 3.98345 0.340817 0
M  V30 2770 H 250.805 4.00936 1.37936 0
M  V30 2771 C 249.264 2.67925 2.04249 0
M  V30 2772 O 249.794 2.51788 3.12995 0
M  V30 2773 N 248 2.2681 1.81675 0
M  V30 2774 H 247.547 2.40135 0.932363 0
M  V30 2775 H 247.505 1.8228 2.56167 0
M  V30 2776 N 251.277 0.427512 1.51691 0
M  V30 2777 C 252.209 -0.424521 2.25234 0
M  V30 2778 C 253.222 -0.994671 1.2888 0
M  V30 2779 O 254.411 -0.890483 1.54702 0
M  V30 2780 C 251.511 -1.60479 2.98496 0
M  V30 2781 C 250.684 -1.15527 4.21868 0
M  V30 2782 C 249.743 -2.20454 4.77793 0
M  V30 2783 O 248.769 -1.8029 5.39893 0
M  V30 2784 N 249.971 -3.52831 4.60967 0
M  V30 2785 H 252.736 0.205749 2.98993 0
M  V30 2786 H 250.297 0.255867 1.59865 0
M  V30 2787 H 252.289 -2.30276 3.32799 0
M  V30 2788 H 250.859 -2.14061 2.27809 0
M  V30 2789 H 250.079 -0.284736 3.9317 0
M  V30 2790 H 251.367 -0.832173 5.01949 0
M  V30 2791 H 250.765 -3.88201 4.11481 0
M  V30 2792 H 249.322 -4.18551 4.99658 0
M  V30 2793 N 252.755 -1.56801 0.158532 0
M  V30 2794 C 253.705 -2.13923 -0.788738 0
M  V30 2795 C 254.689 -1.07006 -1.2016 0
M  V30 2796 O 255.881 -1.33159 -1.1661 0
M  V30 2797 C 253.01 -2.77348 -2.02319 0
M  V30 2798 C 252.096 -3.91404 -1.6329 0
M  V30 2799 N 252.487 -4.9677 -0.951463 0
M  V30 2800 C 250.785 -4.02326 -1.92482 0
M  V30 2801 C 251.486 -5.76698 -0.761221 0
M  V30 2802 N 250.462 -5.27859 -1.29869 0
M  V30 2803 H 254.264 -2.92757 -0.258995 0
M  V30 2804 H 251.778 -1.62344 -0.0426055 0
M  V30 2805 H 253.775 -3.16639 -2.71192 0
M  V30 2806 H 252.435 -1.99991 -2.558 0
M  V30 2807 H 253.446 -5.14284 -0.610928 0
M  V30 2808 H 250.123 -3.36059 -2.47732 0
M  V30 2809 H 251.513 -6.71529 -0.223284 0
M  V30 2810 N 254.233 0.115231 -1.57178 0
M  V30 2811 C 255.461 0.836437 -1.89239 0
M  V30 2812 C 255.876 1.73256 -0.750175 0
M  V30 2813 O 255.233 1.80357 0.278832 0
M  V30 2814 C 255.284 1.66671 -3.20785 0
M  V30 2815 O 255.005 0.806652 -4.3061 0
M  V30 2816 C 256.506 2.49274 -3.66575 0
M  V30 2817 H 253.726 0.240253 -0.626514 0
M  V30 2818 H 256.27 0.0984932 -2.04263 0
M  V30 2819 H 254.425 2.35737 -3.0742 0
M  V30 2820 H 254.839 1.37969 -5.06028 0
M  V30 2821 H 256.313 3.03055 -4.6137 0
M  V30 2822 H 256.79 3.26807 -2.93417 0
M  V30 2823 H 257.396 1.85443 -3.82741 0
M  V30 2824 N 255.711 1.52812 0.385517 0
M  V30 2825 C 256.641 1.80808 1.47752 0
M  V30 2826 C 257.622 0.660318 1.5676 0
M  V30 2827 O 258.807 0.908246 1.71652 0
M  V30 2828 C 255.937 1.98008 2.85324 0
M  V30 2829 C 254.891 3.13709 2.91154 0
M  V30 2830 C 254.217 3.16169 4.31209 0
M  V30 2831 C 255.517 4.52709 2.60483 0
M  V30 2832 H 257.211 2.72253 1.24573 0
M  V30 2833 H 254.757 1.31003 0.597839 0
M  V30 2834 H 256.71 2.16176 3.61726 0
M  V30 2835 H 255.434 1.03255 3.09848 0
M  V30 2836 H 254.093 2.95329 2.17201 0
M  V30 2837 H 253.741 2.19092 4.52778 0
M  V30 2838 H 253.441 3.93894 4.36029 0
M  V30 2839 H 254.965 3.36496 5.09512 0
M  V30 2840 H 256.379 4.71173 3.26602 0
M  V30 2841 H 254.776 5.32528 2.76648 0
M  V30 2842 H 255.846 4.59186 1.55809 0
M  V30 2843 N 257.189 -0.644168 1.43834 0
M  V30 2844 C 258.438 -1.39985 1.45214 0
M  V30 2845 C 258.751 -1.95421 0.0835494 0
M  V30 2846 O 259.957 -2.71488 -0.0251748 0
M  V30 2847 C 258.413 -2.53384 2.55587 0
M  V30 2848 C 258.021 -2.04517 3.98594 0
M  V30 2849 C 259.765 -3.30685 2.66172 0
M  V30 2850 C 257.672 -3.1518 5.00416 0
M  V30 2851 H 256.602 -0.526005 0.540218 0
M  V30 2852 H 259.253 -0.694367 1.69855 0
M  V30 2853 H 257.635 -3.26446 2.24163 0
M  V30 2854 H 258.809 -1.38405 4.39523 0
M  V30 2855 H 257.124 -1.40068 3.92135 0
M  V30 2856 H 259.721 -4.13158 3.39418 0
M  V30 2857 H 260.064 -3.79312 1.71546 0
M  V30 2858 H 260.597 -2.64708 2.96942 0
M  V30 2859 H 257.336 -2.71511 5.96625 0
M  V30 2860 H 256.856 -3.79974 4.64091 0
M  V30 2861 H 258.535 -3.80166 5.23529 0
M  V30 2862 N 258.668 -1.30515 -0.883378 0
M  V30 2863 C 259.915 -1.1943 -1.63532 0
M  V30 2864 C 260.243 0.250627 -1.92878 0
M  V30 2865 O 259.498 1.19556 -1.54935 0
M  V30 2866 C 259.797 -1.96994 -2.98209 0
M  V30 2867 C 259.463 -3.466 -2.88408 0
M  V30 2868 C 258.125 -3.87397 -2.85442 0
M  V30 2869 C 260.477 -4.41863 -2.76418 0
M  V30 2870 C 257.805 -5.21745 -2.68327 0
M  V30 2871 C 260.157 -5.7632 -2.60841 0
M  V30 2872 C 258.821 -6.16354 -2.56251 0
M  V30 2873 H 258.091 -0.437025 -0.598406 0
M  V30 2874 H 260.738 -1.61635 -1.02696 0
M  V30 2875 H 259.043 -1.47429 -3.63004 0
M  V30 2876 H 260.74 -1.85808 -3.55354 0
M  V30 2877 H 257.33 -3.14182 -2.91527 0
M  V30 2878 H 261.514 -4.11285 -2.77775 0
M  V30 2879 H 256.77 -5.51853 -2.63189 0
M  V30 2880 H 260.944 -6.49772 -2.50538 0
M  V30 2881 H 258.571 -7.20401 -2.42748 0
M  V30 2882 N 260.146 1.09593 -1.13257 0
M  V30 2883 C 261.423 1.78293 -0.804432 0
M  V30 2884 C 261.803 1.99004 0.70431 0
M  V30 2885 O 261.151 1.59007 1.641 0
M  V30 2886 C 261.361 3.10707 -1.5894 0
M  V30 2887 C 262.709 3.85443 -1.78099 0
M  V30 2888 O 263.733 3.20454 -1.55525 0
M  V30 2889 O 262.592 5.02108 -2.15753 0
M  V30 2890 H 259.686 0.773156 -0.293528 0
M  V30 2891 H 262.232 1.16164 -1.23709 0
M  V30 2892 H 261.004 2.91106 -2.61482 0
M  V30 2893 H 260.627 3.80558 -1.15157 0
M  V30 2894 N 261.624 0.925811 1.2754 0
M  V30 2895 C 262.872 0.564138 1.94067 0
M  V30 2896 C 263.193 -0.897188 1.73134 0
M  V30 2897 O 262.463 -1.63573 1.07799 0
M  V30 2898 H 261.043 0.205645 0.718136 0
M  V30 2899 H 263.705 1.1778 1.55287 0
M  V30 2900 H 262.801 0.76881 3.02483 0
M  V30 2901 N 263.102 -1.41638 0.69111 0
M  V30 2902 C 264.327 -2.06148 0.227583 0
M  V30 2903 C 264.752 -1.51652 -1.11281 0
M  V30 2904 O 264.11 -0.64164 -1.69566 0
M  V30 2905 C 264.158 -3.60095 0.190858 0
M  V30 2906 O 263.262 -4.03845 -0.835664 0
M  V30 2907 H 262.603 -0.654434 0.112306 0
M  V30 2908 H 265.133 -1.81484 0.944714 0
M  V30 2909 H 265.143 -4.07995 0.020207 0
M  V30 2910 H 263.818 -3.99129 1.16915 0
M  V30 2911 H 262.395 -3.67458 -0.63473 0
M  V30 2912 N 264.58 -0.43555 -1.51462 0
M  V30 2913 C 265.808 0.130242 -2.0649 0
M  V30 2914 C 266.223 1.36614 -1.30315 0
M  V30 2915 O 265.58 1.78869 -0.362223 0
M  V30 2916 C 265.631 0.454253 -3.58635 0
M  V30 2917 O 265.352 -0.73259 -4.31931 0
M  V30 2918 C 266.853 1.07091 -4.3017 0
M  V30 2919 H 264.073 0.00871669 -0.670943 0
M  V30 2920 H 266.617 -0.614117 -1.95061 0
M  V30 2921 H 264.772 1.14851 -3.69984 0
M  V30 2922 H 265.186 -0.455787 -5.22516 0
M  V30 2923 H 266.66 1.24764 -5.37716 0
M  V30 2924 H 267.137 2.05144 -3.88346 0
M  V30 2925 H 267.743 0.416089 -4.2326 0
M  V30 2926 N 266.058 1.56714 -0.166846 0
M  V30 2927 C 267.006 2.19056 0.782123 0
M  V30 2928 C 268 1.15328 1.24079 0
M  V30 2929 O 269.206 1.33537 1.20697 0
M  V30 2930 H 265.581 0.70167 0.270486 0
M  V30 2931 H 267.552 2.97494 0.232322 0
M  V30 2932 C 266.301 2.84206 2.00306 0
M  V30 2933 H 265.624 3.63748 1.65914 0
M  V30 2934 H 267.064 3.31302 2.64604 0
M  V30 2935 C 265.523 1.83744 2.82382 0
M  V30 2936 O 266.053 1.32014 3.79388 0
M  V30 2937 N 264.259 1.52601 2.47308 0
M  V30 2938 H 263.806 1.9486 1.68485 0
M  V30 2939 H 263.764 0.856351 3.02513 0
M  V30 2940 N 267.536 -0.106894 1.57237 0
M  V30 2941 C 268.947 -0.662723 1.74542 0
M  V30 2942 C 269.298 -1.7971 0.787319 0
M  V30 2943 O 268.423 -2.16368 -0.0369636 0
M  V30 2944 C 269.018 -1.20896 3.16496 0
M  V30 2945 C 267.577 -1.71096 3.35266 0
M  V30 2946 C 266.724 -0.615642 2.7038 0
M  V30 2947 H 269.675 0.119106 1.58252 0
M  V30 2948 H 269.696 -2.07847 3.18716 0
M  V30 2949 H 269.208 -0.383122 3.86204 0
M  V30 2950 H 267.309 -2.56119 2.70618 0
M  V30 2951 H 267.422 -1.81208 4.43509 0
M  V30 2952 H 265.786 -1.05222 2.31949 0
M  V30 2953 H 266.569 0.199419 3.4272 0
M  V30 2954 N 269.014 -1.53014 -0.377408 0
M  V30 2955 C 269.977 -1.77957 -1.44444 0
M  V30 2956 C 270.977 -0.649763 -1.47087 0
M  V30 2957 O 272.167 -0.917897 -1.48055 0
M  V30 2958 C 269.299 -1.89089 -2.83651 0
M  V30 2959 H 270.492 -2.73243 -1.23606 0
M  V30 2960 H 268.045 -1.43912 -0.609844 0
M  V30 2961 H 268.78 -0.958293 -3.09818 0
M  V30 2962 H 268.565 -2.71254 -2.83132 0
M  V30 2963 H 270.055 -2.1002 -3.60945 0
M  V30 2964 N 270.492 0.636531 -1.44174 0
M  V30 2965 C 271.442 1.74233 -1.47061 0
M  V30 2966 C 272.426 1.57331 -0.337034 0
M  V30 2967 O 273.618 1.67159 -0.581973 0
M  V30 2968 C 270.747 3.12897 -1.41246 0
M  V30 2969 C 269.833 3.35288 -2.59698 0
M  V30 2970 N 270.224 3.2807 -3.84972 0
M  V30 2971 C 268.522 3.66065 -2.54778 0
M  V30 2972 C 269.223 3.51001 -4.63867 0
M  V30 2973 N 268.199 3.73616 -3.94857 0
M  V30 2974 H 272.001 1.67103 -2.41773 0
M  V30 2975 H 269.515 0.838806 -1.3906 0
M  V30 2976 H 271.512 3.92189 -1.41398 0
M  V30 2977 H 270.172 3.21197 -0.47569 0
M  V30 2978 H 271.183 3.07109 -4.17019 0
M  V30 2979 H 267.86 3.81379 -1.6987 0
M  V30 2980 H 269.25 3.51059 -5.72894 0
M  V30 2981 N 271.97 1.30982 0.876444 0
M  V30 2982 C 273.381 1.18277 1.44456 0
M  V30 2983 C 273.732 -0.213265 1.95037 0
M  V30 2984 O 272.857 -1.11057 1.85729 0
M  V30 2985 C 273.452 2.1411 2.62569 0
M  V30 2986 C 272.011 2.05358 3.15444 0
M  V30 2987 C 271.158 2.03706 1.88146 0
M  V30 2988 H 274.109 1.43127 0.685584 0
M  V30 2989 H 274.13 1.72692 3.39054 0
M  V30 2990 H 273.642 3.15706 2.25724 0
M  V30 2991 H 271.743 1.06934 3.56926 0
M  V30 2992 H 271.856 2.94156 3.78166 0
M  V30 2993 H 270.22 1.48629 2.06837 0
M  V30 2994 H 271.003 3.07047 1.53547 0
M  V30 2995 N 273.449 -1.08991 1.13837 0
M  V30 2996 C 274.396 -2.15748 0.819835 0
M  V30 2997 C 275.366 -1.64636 -0.220026 0
M  V30 2998 O 276.551 -1.90582 -0.0912757 0
M  V30 2999 C 273.691 -3.4382 0.296913 0
M  V30 3000 C 272.804 -4.0881 1.39636 0
M  V30 3001 C 271.939 -5.24655 0.831314 0
M  V30 3002 C 270.978 -5.81575 1.90886 0
M  V30 3003 N 270.115 -6.88774 1.36142 0
M  V30 3004 H 274.955 -2.42338 1.73426 0
M  V30 3005 H 272.492 -1.18935 0.865613 0
M  V30 3006 H 274.45 -4.17193 -0.0244339 0
M  V30 3007 H 273.08 -3.17535 -0.580628 0
M  V30 3008 H 272.132 -3.33258 1.83422 0
M  V30 3009 H 273.444 -4.47141 2.21058 0
M  V30 3010 H 272.598 -6.04942 0.461515 0
M  V30 3011 H 271.337 -4.87698 -0.013932 0
M  V30 3012 H 270.342 -4.99946 2.28767 0
M  V30 3013 H 271.567 -6.20592 2.75758 0
M  V30 3014 H 269.513 -6.53788 0.538254 0
M  V30 3015 H 269.43 -7.25898 2.11208 0
M  V30 3016 H 270.698 -7.72806 1.01933 0
M  V30 3017 N 274.927 -0.932562 -1.27047 0
M  V30 3018 C 275.877 -0.406392 -2.24349 0
M  V30 3019 C 276.861 0.492066 -1.53191 0
M  V30 3020 O 278.053 0.328717 -1.73921 0
M  V30 3021 C 275.182 0.335214 -3.41659 0
M  V30 3022 C 274.268 -0.58004 -4.20115 0
M  V30 3023 N 274.659 -1.70203 -4.76303 0
M  V30 3024 C 272.957 -0.383974 -4.44344 0
M  V30 3025 C 273.658 -2.27167 -5.35509 0
M  V30 3026 N 272.634 -1.56068 -5.20715 0
M  V30 3027 H 276.436 -1.26299 -2.65378 0
M  V30 3028 H 273.95 -0.787408 -1.42034 0
M  V30 3029 H 275.947 0.729142 -4.10474 0
M  V30 3030 H 274.607 1.18868 -3.0216 0
M  V30 3031 H 275.618 -2.08433 -4.74106 0
M  V30 3032 H 272.295 0.428436 -4.15296 0
M  V30 3033 H 273.685 -3.21654 -5.89905 0
M  V30 3034 N 276.405 1.4127 -0.698611 0
M  V30 3035 C 277.654 2.00408 -0.227949 0
M  V30 3036 C 277.967 1.55981 1.18023 0
M  V30 3037 O 279.173 2.07699 1.74852 0
M  V30 3038 C 277.629 3.58129 -0.356636 0
M  V30 3039 C 277.237 4.11536 -1.77037 0
M  V30 3040 C 278.981 4.24466 0.0540969 0
M  V30 3041 C 276.888 5.61701 -1.85055 0
M  V30 3042 H 275.818 0.749586 -0.0814657 0
M  V30 3043 H 278.469 1.61713 -0.867249 0
M  V30 3044 H 276.851 3.94442 0.350965 0
M  V30 3045 H 278.025 3.86636 -2.50698 0
M  V30 3046 H 276.34 3.57736 -2.13105 0
M  V30 3047 H 278.937 5.34698 0.0146723 0
M  V30 3048 H 279.28 4.01687 1.09332 0
M  V30 3049 H 279.813 3.93198 -0.603337 0
M  V30 3050 H 276.552 5.89312 -2.8704 0
M  V30 3051 H 276.072 5.88519 -1.15783 0
M  V30 3052 H 277.751 6.26524 -1.61484 0
M  V30 3053 N 277.883 0.443576 1.51229 0
M  V30 3054 C 279.131 -0.120557 2.0174 0
M  V30 3055 C 279.452 -1.42665 1.32935 0
M  V30 3056 O 278.722 -1.9028 0.465866 0
M  V30 3057 H 277.302 -0.0475426 0.745486 0
M  V30 3058 H 279.964 0.587711 1.85828 0
M  V30 3059 H 279.06 -0.291972 3.10731 0
M  V30 3060 N 279.361 -1.56624 0.175154 0
M  V30 3061 C 280.586 -2.01813 -0.478137 0
M  V30 3062 C 281.011 -1.05457 -1.55757 0
M  V30 3063 O 280.369 -0.0347439 -1.81267 0
M  V30 3064 C 280.417 -3.45581 -1.02987 0
M  V30 3065 O 279.521 -3.52305 -2.14371 0
M  V30 3066 H 278.862 -0.65413 -0.114059 0
M  V30 3067 H 281.392 -2.02673 0.280173 0
M  V30 3068 H 281.402 -3.84965 -1.35151 0
M  V30 3069 H 280.077 -4.1521 -0.239556 0
M  V30 3070 H 278.654 -3.24783 -1.83222 0
M  V30 3071 N 280.839 0.0985539 -1.57292 0
M  V30 3072 C 282.088 0.801358 -1.85098 0
M  V30 3073 C 282.401 1.80066 -0.763902 0
M  V30 3074 O 283.607 2.55112 -0.928981 0
M  V30 3075 C 282.063 1.47599 -3.28242 0
M  V30 3076 C 281.671 0.516624 -4.45011 0
M  V30 3077 C 283.415 2.16272 -3.65276 0
M  V30 3078 C 281.322 1.19564 -5.79188 0
M  V30 3079 H 280.252 0.303022 -0.69043 0
M  V30 3080 H 282.903 0.0542623 -1.8342 0
M  V30 3081 H 281.285 2.27042 -3.2445 0
M  V30 3082 H 282.459 -0.246065 -4.60143 0
M  V30 3083 H 280.774 -0.064227 -4.1635 0
M  V30 3084 H 283.371 2.67802 -4.62803 0
M  V30 3085 H 283.714 2.95009 -2.93727 0
M  V30 3086 H 284.247 1.43693 -3.70941 0
M  V30 3087 H 280.986 0.449157 -6.53959 0
M  V30 3088 H 280.506 1.92984 -5.67906 0
M  V30 3089 H 282.185 1.7231 -6.23633 0
M  V30 3090 N 282.317 1.53212 0.369288 0
M  V30 3091 C 283.594 1.59815 1.12776 0
M  V30 3092 C 283.974 0.403402 2.0721 0
M  V30 3093 O 283.322 -0.606667 2.20299 0
M  V30 3094 C 283.532 2.94664 1.87013 0
M  V30 3095 C 284.88 3.49109 2.41677 0
M  V30 3096 O 285.904 2.96669 1.97144 0
M  V30 3097 O 284.763 4.40775 3.23079 0
M  V30 3098 H 281.857 0.645376 0.517125 0
M  V30 3099 H 284.403 1.65553 0.37285 0
M  V30 3100 H 283.175 3.73061 1.18071 0
M  V30 3101 H 282.798 2.92401 2.69421 0
M  V30 3102 N 283.795 -0.628877 1.44509 0
M  V30 3103 C 285.206 -1.21054 1.42137 0
M  V30 3104 C 285.557 -1.95715 0.137881 0
M  V30 3105 O 284.682 -2.02554 -0.761645 0
M  V30 3106 C 285.277 -2.20189 2.57493 0
M  V30 3107 C 283.836 -2.73777 2.58308 0
M  V30 3108 C 282.983 -1.48813 2.33987 0
M  V30 3109 H 285.934 -0.41942 1.53057 0
M  V30 3110 H 285.955 -3.02833 2.30375 0
M  V30 3111 H 285.467 -1.6582 3.50892 0
M  V30 3112 H 283.568 -3.32142 1.68856 0
M  V30 3113 H 283.681 -3.19662 3.56865 0
M  V30 3114 H 282.045 -1.77024 1.83124 0
M  V30 3115 H 282.828 -0.963442 3.29504 0
M  V30 3116 N 285.273 -1.31445 -0.869486 0
M  V30 3117 C 286.221 -1.19067 -1.99814 0
M  V30 3118 C 287.215 -0.0988569 -1.69111 0
M  V30 3119 O 288.421 -0.260781 -1.78101 0
M  V30 3120 H 284.796 -0.368677 -0.655425 0
M  V30 3121 H 286.767 -2.14555 -2.07385 0
M  V30 3122 C 285.516 -0.915323 -3.35436 0
M  V30 3123 H 284.839 -1.74759 -3.59582 0
M  V30 3124 H 286.279 -0.868895 -4.15001 0
M  V30 3125 C 284.738 0.381928 -3.34728 0
M  V30 3126 O 285.268 1.39857 -3.76567 0
M  V30 3127 N 283.474 0.398633 -2.87853 0
M  V30 3128 H 283.021 -0.429186 -2.54 0
M  V30 3129 H 282.979 1.26651 -2.87762 0
M  V30 3130 N 286.751 1.08385 -1.14413 0
M  V30 3131 C 287.991 1.8238 -0.922868 0
M  V30 3132 C 288.355 1.84225 0.540842 0
M  V30 3133 O 289.556 2.53985 0.880058 0
M  V30 3134 C 287.827 3.24048 -1.50757 0
M  V30 3135 S 289.386 4.14917 -1.4279 0
M  V30 3136 H 286.204 0.628524 -0.332384 0
M  V30 3137 H 288.806 1.30278 -1.45766 0
M  V30 3138 H 287.51 3.20288 -2.56601 0
M  V30 3139 H 287.041 3.81224 -0.971178 0
M  V30 3140 H 289.056 4.94473 -0.413582 0
M  V30 3141 N 288.23 0.939286 1.26551 0
M  V30 3142 C 289.178 0.43815 2.28436 0
M  V30 3143 C 290.172 -0.483587 1.62351 0
M  V30 3144 O 291.378 -0.362009 1.76322 0
M  V30 3145 H 287.753 0.123149 0.741848 0
M  V30 3146 H 289.724 1.31002 2.68106 0
M  V30 3147 C 288.473 -0.283052 3.46546 0
M  V30 3148 H 287.796 0.417043 3.97619 0
M  V30 3149 H 289.236 -0.597948 4.19763 0
M  V30 3150 C 287.695 -1.50018 3.01656 0
M  V30 3151 O 288.225 -2.59855 3.0633 0
M  V30 3152 N 286.431 -1.35608 2.57019 0
M  V30 3153 H 285.978 -0.46244 2.53415 0
M  V30 3154 H 285.936 -2.17165 2.27347 0
M  V30 3155 N 289.708 -1.40897 0.706093 0
M  V30 3156 C 290.954 -2.01352 0.241889 0
M  V30 3157 C 291.287 -1.55832 -1.15888 0
M  V30 3158 O 290.562 -0.774145 -1.7843 0
M  V30 3159 C 290.845 -3.58752 0.311311 0
M  V30 3160 C 290.698 -4.1437 1.74978 0
M  V30 3161 C 292.017 -4.38914 -0.322922 0
M  V30 3162 H 289.136 -0.731562 0.0893687 0
M  V30 3163 H 291.778 -1.67504 0.896802 0
M  V30 3164 H 289.928 -3.87718 -0.246302 0
M  V30 3165 H 291.6 -3.96239 2.36205 0
M  V30 3166 H 289.843 -3.69016 2.28057 0
M  V30 3167 H 290.514 -5.23532 1.74981 0
M  V30 3168 H 292.99 -4.15822 0.152089 0
M  V30 3169 H 291.866 -5.48358 -0.243855 0
M  V30 3170 H 292.127 -4.19176 -1.40513 0
M  V30 3171 N 291.186 -0.45159 -1.50991 0
M  V30 3172 C 292.411 0.110667 -2.07105 0
M  V30 3173 C 292.836 1.3446 -1.31538 0
M  V30 3174 O 292.194 1.77743 -0.357365 0
M  V30 3175 C 292.242 0.397238 -3.58405 0
M  V30 3176 O 291.346 1.48124 -3.84881 0
M  V30 3177 H 290.687 -0.00439271 -0.663985 0
M  V30 3178 H 293.217 -0.637026 -1.9443 0
M  V30 3179 H 293.227 0.64351 -4.02893 0
M  V30 3180 H 291.902 -0.504553 -4.12828 0
M  V30 3181 H 290.479 1.22381 -3.52246 0
M  V30 3182 N 292.664 1.56529 -0.183458 0
M  V30 3183 C 293.574 2.22144 0.754272 0
M  V30 3184 C 294.59 1.21684 1.24374 0
M  V30 3185 O 295.766 1.54385 1.29333 0
M  V30 3186 C 292.831 2.85884 1.96141 0
M  V30 3187 C 291.892 4.01579 1.51765 0
M  V30 3188 C 291.125 4.6227 2.66725 0
M  V30 3189 O 291.348 4.21865 3.83909 0
M  V30 3190 O 290.282 5.51936 2.40104 0
M  V30 3191 H 294.108 3.02861 0.225527 0
M  V30 3192 H 291.693 1.49331 0.0453032 0
M  V30 3193 H 293.575 3.26253 2.66715 0
M  V30 3194 H 292.25 2.08154 2.47899 0
M  V30 3195 H 291.157 3.65856 0.781049 0
M  V30 3196 H 292.49 4.80938 1.04686 0
M  V30 3197 N 294.142 -0.090211 1.57342 0
M  V30 3198 C 295.388 -0.793982 1.86611 0
M  V30 3199 C 295.721 -1.78142 0.773252 0
M  V30 3200 O 294.996 -1.93271 -0.218304 0
M  V30 3201 C 295.279 -1.51839 3.26523 0
M  V30 3202 C 295.132 -0.548609 4.46442 0
M  V30 3203 C 296.451 -2.46779 3.64401 0
M  V30 3204 H 293.57 -0.287186 0.678744 0
M  V30 3205 H 296.212 -0.0575076 1.89913 0
M  V30 3206 H 294.362 -2.14617 3.23839 0
M  V30 3207 H 296.034 0.0725513 4.61243 0
M  V30 3208 H 294.277 0.137614 4.33582 0
M  V30 3209 H 294.948 -1.09271 5.41076 0
M  V30 3210 H 297.424 -1.94089 3.68061 0
M  V30 3211 H 296.3 -2.94479 4.63221 0
M  V30 3212 H 296.561 -3.30758 2.93346 0
M  V30 3213 N 295.62 -1.53406 -0.361157 0
M  V30 3214 C 296.866 -1.70054 -1.10496 0
M  V30 3215 C 297.199 -0.453278 -1.88836 0
M  V30 3216 O 296.474 0.5495 -1.86576 0
M  V30 3217 C 296.757 -2.95317 -2.06058 0
M  V30 3218 C 296.61 -4.3021 -1.31298 0
M  V30 3219 C 297.929 -3.16193 -3.06121 0
M  V30 3220 H 295.048 -0.618799 -0.400321 0
M  V30 3221 H 297.69 -1.86052 -0.385318 0
M  V30 3222 H 295.84 -2.81809 -2.67425 0
M  V30 3223 H 297.512 -4.55538 -0.726807 0
M  V30 3224 H 295.755 -4.29421 -0.614853 0
M  V30 3225 H 296.426 -5.14 -2.01265 0
M  V30 3226 H 298.902 -3.28916 -2.5486 0
M  V30 3227 H 297.778 -4.05266 -3.70204 0
M  V30 3228 H 298.039 -2.31676 -3.76535 0
M  V30 3229 N 297.098 0.621204 -1.44841 0
M  V30 3230 C 298.045 1.73267 -1.5247 0
M  V30 3231 C 299.015 1.6189 -0.371611 0
M  V30 3232 O 300.2 1.81668 -0.58321 0
M  V30 3233 C 297.34 3.11545 -1.48438 0
M  V30 3234 C 296.453 3.33827 -2.74196 0
M  V30 3235 C 295.588 4.62133 -2.61929 0
M  V30 3236 C 294.627 4.77627 -3.82804 0
M  V30 3237 N 293.764 5.97219 -3.69153 0
M  V30 3238 H 298.604 1.66082 -2.47428 0
M  V30 3239 H 296.141 0.810026 -1.22788 0
M  V30 3240 H 298.099 3.91528 -1.4409 0
M  V30 3241 H 296.729 3.1772 -0.570402 0
M  V30 3242 H 295.781 2.47715 -2.88689 0
M  V30 3243 H 297.093 3.41153 -3.6389 0
M  V30 3244 H 296.247 5.50291 -2.5547 0
M  V30 3245 H 294.986 4.57182 -1.69811 0
M  V30 3246 H 293.991 3.87896 -3.89637 0
M  V30 3247 H 295.216 4.84385 -4.75971 0
M  V30 3248 H 293.162 5.93339 -2.79794 0
M  V30 3249 H 293.079 6.05644 -4.52472 0
M  V30 3250 H 294.347 6.87912 -3.66603 0
M  V30 3251 N 298.576 1.31904 0.862503 0
M  V30 3252 C 299.853 1.12644 1.59908 0
M  V30 3253 C 300.233 -0.316104 2.0872 0
M  V30 3254 O 299.581 -1.31145 1.87118 0
M  V30 3255 C 299.791 2.1472 2.7513 0
M  V30 3256 C 301.139 2.47637 3.44907 0
M  V30 3257 O 302.163 2.13205 2.85346 0
M  V30 3258 O 301.022 3.06632 4.52371 0
M  V30 3259 H 298.116 0.43416 0.703871 0
M  V30 3260 H 300.662 1.43408 0.907314 0
M  V30 3261 H 299.434 3.1172 2.3653 0
M  V30 3262 H 299.057 1.84905 3.51989 0
M  V30 3263 N 300.054 -1.07777 1.14986 0
M  V30 3264 C 301.017 -2.13041 0.845358 0
M  V30 3265 C 302.017 -1.60071 -0.152931 0
M  V30 3266 O 303.207 -1.74033 0.0761879 0
M  V30 3267 C 300.339 -3.39896 0.261383 0
M  V30 3268 H 301.532 -2.41485 1.77834 0
M  V30 3269 H 299.085 -1.23595 0.956757 0
M  V30 3270 H 299.82 -3.17091 -0.68 0
M  V30 3271 H 299.605 -3.79642 0.980514 0
M  V30 3272 H 301.095 -4.17548 0.0657687 0
M  V30 3273 N 301.532 -0.945985 -1.26051 0
M  V30 3274 C 302.762 -0.612136 -1.97323 0
M  V30 3275 C 303.17 0.818171 -1.70595 0
M  V30 3276 O 302.513 1.55777 -0.973613 0
M  V30 3277 C 302.575 -0.780347 -3.50929 0
M  V30 3278 C 302.239 -2.18619 -4.01317 0
M  V30 3279 C 303.236 -3.16209 -4.12683 0
M  V30 3280 C 300.921 -2.50805 -4.35203 0
M  V30 3281 C 302.915 -4.44085 -4.57238 0
M  V30 3282 C 300.602 -3.78912 -4.79446 0
M  V30 3283 C 301.6 -4.75365 -4.90425 0
M  V30 3284 O 301.288 -6.01191 -5.3369 0
M  V30 3285 H 301.02 -0.229134 -0.635982 0
M  V30 3286 H 303.574 -1.27036 -1.61404 0
M  V30 3287 H 301.804 -0.0649864 -3.86645 0
M  V30 3288 H 303.493 -0.448842 -4.03411 0
M  V30 3289 H 304.259 -2.92668 -3.86744 0
M  V30 3290 H 300.138 -1.76463 -4.2589 0
M  V30 3291 H 303.682 -5.19373 -4.65723 0
M  V30 3292 H 299.579 -4.02265 -5.0483 0
M  V30 3293 H 300.347 -6.04442 -5.51899 0
M  V30 3294 N 303.011 1.40521 -0.713556 0
M  V30 3295 C 304.288 1.94775 -0.17943 0
M  V30 3296 C 304.668 1.65184 1.31444 0
M  V30 3297 O 304.016 0.968429 2.06963 0
M  V30 3298 C 304.226 3.45543 -0.489986 0
M  V30 3299 C 305.574 4.22442 -0.427536 0
M  V30 3300 O 306.598 3.53644 -0.425929 0
M  V30 3301 O 305.457 5.4501 -0.403292 0
M  V30 3302 H 302.551 0.826606 -0.0255192 0
M  V30 3303 H 305.097 1.5014 -0.790949 0
M  V30 3304 H 303.869 3.60432 -1.5233 0
M  V30 3305 H 303.492 3.97311 0.151598 0
M  V30 3306 N 304.489 0.459591 1.5075 0
M  V30 3307 C 305.422 -0.386257 2.24907 0
M  V30 3308 C 306.4 -1.006 1.27744 0
M  V30 3309 O 307.584 -1.04416 1.56938 0
M  V30 3310 C 304.711 -1.54021 3.01654 0
M  V30 3311 C 303.757 -1.03898 4.13651 0
M  V30 3312 S 304.59 0.0370501 5.35487 0
M  V30 3313 C 305.746 -1.12105 6.15779 0
M  V30 3314 H 305.979 0.243272 2.96303 0
M  V30 3315 H 303.512 0.244339 1.52454 0
M  V30 3316 H 305.47 -2.20163 3.46466 0
M  V30 3317 H 304.131 -2.14121 2.29806 0
M  V30 3318 H 303.324 -1.90254 4.66711 0
M  V30 3319 H 302.926 -0.45545 3.71216 0
M  V30 3320 H 305.218 -2.03501 6.46215 0
M  V30 3321 H 306.161 -0.62995 7.05292 0
M  V30 3322 H 306.569 -1.36967 5.47631 0
M  V30 3323 N 305.967 -1.56429 0.191757 0
M  V30 3324 C 306.93 -2.17707 -0.716688 0
M  V30 3325 C 307.93 -1.13061 -1.14341 0
M  V30 3326 O 309.12 -1.38464 -1.05704 0
M  V30 3327 C 306.252 -2.77644 -1.97804 0
M  V30 3328 H 307.445 -2.99342 -0.1829 0
M  V30 3329 H 304.998 -1.56193 -0.0578566 0
M  V30 3330 H 305.733 -1.99799 -2.55443 0
M  V30 3331 H 305.518 -3.54246 -1.68083 0
M  V30 3332 H 307.008 -3.24708 -2.62592 0
M  V30 3333 N 307.445 0.0818655 -1.57387 0
M  V30 3334 C 308.392 1.09834 -2.0299 0
M  V30 3335 C 309.362 1.39043 -0.908639 0
M  V30 3336 O 310.547 1.50282 -1.17559 0
M  V30 3337 C 307.687 2.40971 -2.47037 0
M  V30 3338 C 306.8 2.18379 -3.7274 0
M  V30 3339 C 305.935 3.43008 -4.0561 0
M  V30 3340 C 304.974 3.15736 -5.24383 0
M  V30 3341 N 304.111 4.32667 -5.52941 0
M  V30 3342 H 308.951 0.702472 -2.89602 0
M  V30 3343 H 306.488 0.33531 -1.43227 0
M  V30 3344 H 308.446 3.1752 -2.70623 0
M  V30 3345 H 307.076 2.78379 -1.63417 0
M  V30 3346 H 306.128 1.32569 -3.56552 0
M  V30 3347 H 307.44 1.94227 -4.59431 0
M  V30 3348 H 306.594 4.27958 -4.30043 0
M  V30 3349 H 305.333 3.70225 -3.17466 0
M  V30 3350 H 304.338 2.2918 -4.99757 0
M  V30 3351 H 305.563 2.8985 -6.14136 0
M  V30 3352 H 303.509 4.59935 -4.67756 0
M  V30 3353 H 303.426 4.11753 -6.34031 0
M  V30 3354 H 304.694 5.18644 -5.81918 0
M  V30 3355 N 308.923 1.53595 0.353017 0
M  V30 3356 C 309.853 1.83902 1.43883 0
M  V30 3357 C 310.834 0.693421 1.55324 0
M  V30 3358 O 312.019 0.944452 1.69687 0
M  V30 3359 C 309.149 2.04016 2.8106 0
M  V30 3360 C 308.103 3.19814 2.84434 0
M  V30 3361 C 307.429 3.25244 4.24406 0
M  V30 3362 C 308.729 4.58133 2.50822 0
M  V30 3363 H 310.423 2.74835 1.1877 0
M  V30 3364 H 307.969 1.32242 0.569917 0
M  V30 3365 H 309.922 2.238 3.57059 0
M  V30 3366 H 308.646 1.09804 3.07588 0
M  V30 3367 H 307.305 2.9987 2.10887 0
M  V30 3368 H 306.953 2.28646 4.48029 0
M  V30 3369 H 306.653 4.03054 4.27576 0
M  V30 3370 H 308.177 3.47228 5.0226 0
M  V30 3371 H 309.591 4.77995 3.16534 0
M  V30 3372 H 307.988 5.38276 2.6529 0
M  V30 3373 H 309.058 4.62387 1.46034 0
M  V30 3374 N 310.401 -0.613514 1.45168 0
M  V30 3375 C 311.331 -1.7354 1.56225 0
M  V30 3376 C 312.312 -1.64981 0.41414 0
M  V30 3377 O 313.497 -1.83472 0.636526 0
M  V30 3378 C 310.627 -3.12128 1.52295 0
M  V30 3379 C 309.581 -3.35491 2.65762 0
M  V30 3380 C 308.907 -4.74291 2.46885 0
M  V30 3381 C 310.207 -3.26325 4.0781 0
M  V30 3382 H 311.901 -1.64543 2.50132 0
M  V30 3383 H 309.447 -0.790185 1.20383 0
M  V30 3384 H 311.4 -3.90404 1.58628 0
M  V30 3385 H 310.124 -3.2195 0.549139 0
M  V30 3386 H 308.783 -2.59603 2.58847 0
M  V30 3387 H 308.431 -4.80839 1.47657 0
M  V30 3388 H 308.131 -4.9088 3.22972 0
M  V30 3389 H 309.655 -5.54775 2.55063 0
M  V30 3390 H 311.069 -3.94483 4.16 0
M  V30 3391 H 309.466 -3.54445 4.8424 0
M  V30 3392 H 310.536 -2.23855 4.30136 0
M  V30 3393 N 311.879 -1.3236 -0.855495 0
M  V30 3394 C 313.119 -1.24187 -1.62348 0
M  V30 3395 C 313.483 0.193597 -1.91021 0
M  V30 3396 O 314.684 0.39904 -2.65822 0
M  V30 3397 C 312.955 -2.07661 -2.90881 0
M  V30 3398 S 314.514 -2.16505 -3.81669 0
M  V30 3399 H 311.332 -0.442076 -0.556857 0
M  V30 3400 H 313.934 -1.67198 -1.01317 0
M  V30 3401 H 312.638 -3.11018 -2.67761 0
M  V30 3402 H 312.169 -1.65425 -3.56929 0
M  V30 3403 H 314.184 -1.31394 -4.78487 0
M  V30 3404 N 313.357 1.07166 -1.15556 0
M  V30 3405 C 314.634 1.76546 -0.842069 0
M  V30 3406 C 315.014 2.00453 0.661939 0
M  V30 3407 O 314.362 1.62452 1.60691 0
M  V30 3408 C 314.572 3.07266 -1.65495 0
M  V30 3409 C 315.92 3.81578 -1.86234 0
M  V30 3410 O 316.944 3.17083 -1.62287 0
M  V30 3411 O 315.803 4.97419 -2.26355 0
M  V30 3412 H 312.897 0.766756 -0.309862 0
M  V30 3413 H 315.443 1.13514 -1.26145 0
M  V30 3414 H 314.215 2.85494 -2.67598 0
M  V30 3415 H 313.838 3.7803 -1.23203 0
M  V30 3416 N 314.835 0.952656 1.25548 0
M  V30 3417 C 315.782 0.47008 2.25962 0
M  V30 3418 C 316.752 -0.476384 1.59122 0
M  V30 3419 O 317.937 -0.39007 1.8677 0
M  V30 3420 C 315.077 -0.247881 3.44209 0
M  V30 3421 C 314.19 0.735591 4.25691 0
M  V30 3422 C 313.325 -0.0047306 5.312 0
M  V30 3423 C 312.364 0.969805 6.04368 0
M  V30 3424 N 311.501 0.260486 7.01617 0
M  V30 3425 H 316.341 1.33126 2.66611 0
M  V30 3426 H 313.878 0.66765 1.31076 0
M  V30 3427 H 315.836 -0.680695 4.1161 0
M  V30 3428 H 314.466 -1.07312 3.0444 0
M  V30 3429 H 313.518 1.28689 3.57971 0
M  V30 3430 H 314.83 1.47934 4.76358 0
M  V30 3431 H 313.984 -0.496275 6.04667 0
M  V30 3432 H 312.723 -0.781282 4.81401 0
M  V30 3433 H 311.728 1.47237 5.29718 0
M  V30 3434 H 312.953 1.74655 6.56256 0
M  V30 3435 H 310.899 -0.497364 6.54112 0
M  V30 3436 H 310.816 0.943362 7.50091 0
M  V30 3437 H 312.084 -0.209587 7.79218 0
M  V30 3438 N 316.313 -1.40141 0.720998 0
M  V30 3439 C 317.543 -2.04798 0.27226 0
M  V30 3440 C 317.951 -1.54442 -1.09289 0
M  V30 3441 O 317.294 -0.698342 -1.69908 0
M  V30 3442 C 317.356 -3.59048 0.18027 0
M  V30 3443 C 317.02 -4.32317 1.48159 0
M  V30 3444 C 318.017 -4.59902 2.42458 0
M  V30 3445 C 315.702 -4.71125 1.74202 0
M  V30 3446 C 317.696 -5.25288 3.61042 0
M  V30 3447 C 315.383 -5.36242 2.93066 0
M  V30 3448 C 316.381 -5.63254 3.86308 0
M  V30 3449 O 316.069 -6.27024 5.03086 0
M  V30 3450 H 315.801 -0.665419 0.119139 0
M  V30 3451 H 318.355 -1.80436 0.981432 0
M  V30 3452 H 316.585 -3.82251 -0.58489 0
M  V30 3453 H 318.274 -4.05221 -0.234618 0
M  V30 3454 H 319.04 -4.30379 2.23604 0
M  V30 3455 H 314.919 -4.49466 1.02477 0
M  V30 3456 H 318.463 -5.46289 4.33837 0
M  V30 3457 H 314.36 -5.65185 3.11826 0
M  V30 3458 H 315.128 -6.4552 5.03235 0
M  V30 3459 N 317.792 -0.46758 -1.50504 0
M  V30 3460 C 319.022 0.086288 -2.0642 0
M  V30 3461 C 319.43 1.34369 -1.33197 0
M  V30 3462 O 318.773 1.79431 -0.393747 0
M  V30 3463 C 318.835 0.443846 -3.5675 0
M  V30 3464 C 318.499 -0.711035 -4.51435 0
M  V30 3465 C 319.496 -1.59205 -4.94924 0
M  V30 3466 C 317.181 -0.900363 -4.94165 0
M  V30 3467 C 319.175 -2.64683 -5.79846 0
M  V30 3468 C 316.862 -1.95837 -5.7887 0
M  V30 3469 C 317.86 -2.82997 -6.21612 0
M  V30 3470 O 317.548 -3.86977 -7.0463 0
M  V30 3471 H 317.28 -0.00217814 -0.675996 0
M  V30 3472 H 319.834 -0.654346 -1.94698 0
M  V30 3473 H 318.064 1.23762 -3.6636 0
M  V30 3474 H 319.753 0.932386 -3.95046 0
M  V30 3475 H 320.519 -1.45745 -4.62583 0
M  V30 3476 H 316.398 -0.231427 -4.60419 0
M  V30 3477 H 319.942 -3.32745 -6.13128 0
M  V30 3478 H 315.839 -2.09305 -6.10624 0
M  V30 3479 H 316.607 -3.83923 -7.22873 0
M  V30 3480 N 319.27 1.56325 -0.20005 0
M  V30 3481 C 320.203 2.15234 0.758267 0
M  V30 3482 C 321.181 1.09046 1.20614 0
M  V30 3483 O 322.365 1.37186 1.29276 0
M  V30 3484 C 319.492 2.71524 2.02466 0
M  V30 3485 C 318.538 3.90345 1.71852 0
M  V30 3486 S 319.371 5.28513 0.862249 0
M  V30 3487 C 320.527 5.88227 2.13868 0
M  V30 3488 H 320.76 2.96183 0.2575 0
M  V30 3489 H 318.293 1.54393 0.0150099 0
M  V30 3490 H 320.251 3.04598 2.75191 0
M  V30 3491 H 318.912 1.90607 2.49655 0
M  V30 3492 H 318.105 4.28158 2.65888 0
M  V30 3493 H 317.707 3.58306 1.07205 0
M  V30 3494 H 319.999 6.02891 3.09076 0
M  V30 3495 H 320.942 6.84714 1.80479 0
M  V30 3496 H 321.35 5.16874 2.2694 0
M  V30 3497 N 320.748 -0.0735177 1.57428 0
M  V30 3498 C 321.711 -1.07192 2.02589 0
M  V30 3499 C 322.711 -1.31695 0.922661 0
M  V30 3500 O 323.901 -1.27445 1.18758 0
M  V30 3501 C 321.033 -2.41599 2.40506 0
M  V30 3502 H 322.226 -0.682727 2.92025 0
M  V30 3503 H 319.779 -0.319193 1.53006 0
M  V30 3504 H 320.514 -2.85354 1.5409 0
M  V30 3505 H 320.299 -2.25156 3.21009 0
M  V30 3506 H 321.789 -3.13367 2.76027 0
M  V30 3507 N 322.226 -1.5378 -0.344866 0
M  V30 3508 C 323.451 -1.75211 -1.10977 0
M  V30 3509 C 323.876 -0.48936 -1.81623 0
M  V30 3510 O 323.234 0.557925 -1.72502 0
M  V30 3511 C 323.282 -2.93147 -2.09993 0
M  V30 3512 O 322.386 -2.63203 -3.17487 0
M  V30 3513 H 321.727 -0.581241 -0.321021 0
M  V30 3514 H 324.257 -2.00738 -0.395661 0
M  V30 3515 H 324.267 -3.19898 -2.53237 0
M  V30 3516 H 322.942 -3.84731 -1.5797 0
M  V30 3517 H 321.519 -2.47336 -2.79069 0
M  V30 3518 N 323.704 0.605807 -1.45491 0
M  V30 3519 C 325.115 1.18777 -1.44045 0
M  V30 3520 C 325.466 1.95471 -0.169001 0
M  V30 3521 O 324.591 2.0374 0.729324 0
M  V30 3522 C 325.186 2.16064 -2.60963 0
M  V30 3523 C 323.745 2.69633 -2.62631 0
M  V30 3524 C 322.892 1.45072 -2.36325 0
M  V30 3525 H 325.843 0.395017 -1.53705 0
M  V30 3526 H 325.864 2.9913 -2.35163 0
M  V30 3527 H 325.376 1.60217 -3.53486 0
M  V30 3528 H 323.477 3.29414 -1.74119 0
M  V30 3529 H 323.59 3.13944 -3.61906 0
M  V30 3530 H 321.954 1.74089 -1.85917 0
M  V30 3531 H 322.737 0.910899 -3.30995 0
M  V30 3532 N 325.182 1.32811 0.848464 0
M  V30 3533 C 326.459 1.14334 1.58704 0
M  V30 3534 C 326.839 -0.293948 2.09043 0
M  V30 3535 O 326.187 -1.29153 1.88499 0
M  V30 3536 C 326.397 2.17626 2.72837 0
M  V30 3537 C 327.745 2.51282 3.42261 0
M  V30 3538 O 328.769 2.16219 2.83068 0
M  V30 3539 O 327.628 3.11413 4.49093 0
M  V30 3540 H 324.722 0.441601 0.699226 0
M  V30 3541 H 327.268 1.44362 0.892053 0
M  V30 3542 H 326.04 3.14211 2.3321 0
M  V30 3543 H 325.663 1.88628 3.50008 0
M  V30 3544 N 326.66 -1.06551 1.16123 0
M  V30 3545 C 327.59 -2.15935 0.88851 0
M  V30 3546 C 328.571 -1.69306 -0.164135 0
M  V30 3547 O 329.756 -1.94193 -0.0167857 0
M  V30 3548 C 326.886 -3.45149 0.385942 0
M  V30 3549 C 325.84 -4.05271 1.3762 0
M  V30 3550 C 325.166 -5.29664 0.732137 0
M  V30 3551 C 326.466 -4.44355 2.74493 0
M  V30 3552 H 328.16 -2.39006 1.80323 0
M  V30 3553 H 325.706 -1.14866 0.868435 0
M  V30 3554 H 327.659 -4.21004 0.182647 0
M  V30 3555 H 326.383 -3.21689 -0.564274 0
M  V30 3556 H 325.042 -3.3147 1.56599 0
M  V30 3557 H 324.69 -5.02499 -0.224483 0
M  V30 3558 H 324.39 -5.70848 1.39307 0
M  V30 3559 H 325.914 -6.08218 0.538802 0
M  V30 3560 H 327.328 -5.11303 2.59311 0
M  V30 3561 H 325.725 -4.96515 3.37035 0
M  V30 3562 H 326.795 -3.55339 3.29943 0
M  V30 3563 N 328.138 -0.959301 -1.25041 0
M  V30 3564 C 329.048 -0.489994 -2.29426 0
M  V30 3565 C 330.064 0.444944 -1.68215 0
M  V30 3566 O 331.24 0.320046 -1.98841 0
M  V30 3567 C 328.305 0.220309 -3.45999 0
M  V30 3568 C 327.366 -0.753418 -4.22637 0
M  V30 3569 C 326.599 -0.076918 -5.33645 0
M  V30 3570 O 326.822 1.13649 -5.58963 0
M  V30 3571 O 325.756 -0.764824 -5.97021 0
M  V30 3572 H 329.582 -1.35755 -2.71669 0
M  V30 3573 H 327.167 -0.725961 -1.30576 0
M  V30 3574 H 329.049 0.619677 -4.16819 0
M  V30 3575 H 327.724 1.06296 -3.0575 0
M  V30 3576 H 326.631 -1.20308 -3.54227 0
M  V30 3577 H 327.964 -1.56423 -4.66683 0
M  V30 3578 N 329.616 1.39756 -0.72842 0
M  V30 3579 C 330.865 1.99879 -0.270407 0
M  V30 3580 C 331.178 1.58449 1.14688 0
M  V30 3581 O 332.384 2.11362 1.70407 0
M  V30 3582 C 330.84 3.57292 -0.43252 0
M  V30 3583 C 330.448 4.07688 -1.85727 0
M  V30 3584 C 332.192 4.24485 -0.0359507 0
M  V30 3585 C 330.099 5.5765 -1.96928 0
M  V30 3586 H 329.029 0.747689 -0.0973472 0
M  V30 3587 H 331.68 1.59837 -0.901355 0
M  V30 3588 H 330.062 3.95097 0.267219 0
M  V30 3589 H 331.236 3.81231 -2.58843 0
M  V30 3590 H 329.551 3.53135 -2.20646 0
M  V30 3591 H 332.148 5.34609 -0.0987484 0
M  V30 3592 H 332.491 4.03915 1.00787 0
M  V30 3593 H 333.024 3.9183 -0.686604 0
M  V30 3594 H 329.763 5.8309 -2.99476 0
M  V30 3595 H 329.283 5.8593 -1.28241 0
M  V30 3596 H 330.962 6.22957 -1.74737 0
M  V30 3597 N 331.094 0.475555 1.50254 0
M  V30 3598 C 332.026 -0.352649 2.26471 0
M  V30 3599 C 333.039 -0.953165 1.3198 0
M  V30 3600 O 334.228 -0.840815 1.57457 0
M  V30 3601 C 331.328 -1.50902 3.0345 0
M  V30 3602 C 330.501 -1.02047 4.25329 0
M  V30 3603 C 329.56 -2.05142 4.84565 0
M  V30 3604 O 328.586 -1.63023 5.45355 0
M  V30 3605 N 329.788 -3.37987 4.71959 0
M  V30 3606 H 332.553 0.300767 2.98187 0
M  V30 3607 H 330.114 0.306598 1.5897 0
M  V30 3608 H 332.106 -2.19572 3.39956 0
M  V30 3609 H 330.676 -2.06705 2.34504 0
M  V30 3610 H 329.896 -0.159507 3.93877 0
M  V30 3611 H 331.184 -0.672061 5.04342 0
M  V30 3612 H 330.582 -3.74913 4.23623 0
M  V30 3613 H 329.139 -4.02443 5.12721 0
M  V30 3614 N 332.573 -1.56217 0.208337 0
M  V30 3615 C 333.483 -2.23316 -0.718836 0
M  V30 3616 C 334.499 -1.23648 -1.22422 0
M  V30 3617 O 335.675 -1.56423 -1.26861 0
M  V30 3618 C 332.74 -2.88968 -1.91568 0
M  V30 3619 C 331.801 -4.03943 -1.45357 0
M  V30 3620 C 331.034 -4.66455 -2.59337 0
M  V30 3621 O 331.257 -4.27919 -3.77149 0
M  V30 3622 O 330.191 -5.55686 -2.31293 0
M  V30 3623 H 334.017 -3.03182 -0.177315 0
M  V30 3624 H 331.602 -1.49384 -0.0215402 0
M  V30 3625 H 333.484 -3.30455 -2.61491 0
M  V30 3626 H 332.159 -2.12071 -2.44556 0
M  V30 3627 H 331.066 -3.67052 -0.722746 0
M  V30 3628 H 332.399 -4.82543 -0.970219 0
M  V30 3629 N 334.051 0.0651679 -1.57465 0
M  V30 3630 C 335.3 0.761916 -1.86756 0
M  V30 3631 C 335.613 1.78406 -0.801925 0
M  V30 3632 O 336.819 2.53084 -0.982885 0
M  V30 3633 C 335.275 1.40603 -3.31299 0
M  V30 3634 C 334.883 0.422115 -4.46007 0
M  V30 3635 C 336.627 2.08476 -3.69781 0
M  V30 3636 C 334.534 1.07252 -5.81593 0
M  V30 3637 H 333.464 0.288308 -0.696702 0
M  V30 3638 H 336.115 0.015344 -1.83494 0
M  V30 3639 H 334.497 2.20109 -3.29193 0
M  V30 3640 H 335.671 -0.343613 -4.59517 0
M  V30 3641 H 333.986 -0.152527 -4.16121 0
M  V30 3642 H 336.583 2.57925 -4.68379 0
M  V30 3643 H 336.926 2.88712 -2.99919 0
M  V30 3644 H 337.459 1.35792 -3.73905 0
M  V30 3645 H 334.198 0.310342 -6.54765 0
M  V30 3646 H 333.718 1.80895 -5.71872 0
M  V30 3647 H 335.397 1.59043 -6.27148 0
M  V30 3648 N 335.529 1.53961 0.336706 0
M  V30 3649 C 336.477 1.83136 1.43401 0
M  V30 3650 C 337.471 0.702313 1.54156 0
M  V30 3651 O 338.677 0.885765 1.56698 0
M  V30 3652 H 335.052 0.580309 0.478273 0
M  V30 3653 H 337.023 2.74925 1.16012 0
M  V30 3654 C 335.772 2.06385 2.79822 0
M  V30 3655 H 335.095 2.92718 2.72316 0
M  V30 3656 H 336.535 2.30761 3.55704 0
M  V30 3657 C 334.994 0.851414 3.25964 0
M  V30 3658 O 335.524 0.0541904 4.01663 0
M  V30 3659 N 333.73 0.66672 2.82848 0
M  V30 3660 H 333.277 1.31665 2.21409 0
M  V30 3661 H 333.235 -0.143032 3.14074 0
M  V30 3662 N 337.007 -0.598083 1.45811 0
M  V30 3663 C 337.97 -1.69018 1.54808 0
M  V30 3664 C 338.97 -1.55037 0.426652 0
M  V30 3665 O 340.16 -1.59932 0.690456 0
M  V30 3666 C 337.292 -3.0835 1.45371 0
M  V30 3667 H 338.485 -1.62403 2.52121 0
M  V30 3668 H 336.038 -0.814626 1.33392 0
M  V30 3669 H 336.773 -3.20534 0.492793 0
M  V30 3670 H 336.558 -3.19907 2.26721 0
M  V30 3671 H 338.048 -3.8788 1.54721 0
M  V30 3672 N 338.485 -1.33259 -0.841409 0
M  V30 3673 C 339.448 -1.23221 -1.9326 0
M  V30 3674 C 340.448 -0.151895 -1.60081 0
M  V30 3675 O 341.638 -0.403246 -1.69468 0
M  V30 3676 C 338.77 -0.898123 -3.28856 0
M  V30 3677 H 339.963 -2.2021 -2.03587 0
M  V30 3678 H 337.516 -1.17281 -1.03319 0
M  V30 3679 H 338.251 0.0693841 -3.24226 0
M  V30 3680 H 338.036 -1.67934 -3.54317 0
M  V30 3681 H 339.526 -0.852563 -4.08805 0
M  V30 3682 N 339.963 1.05934 -1.16686 0
M  V30 3683 C 340.911 2.15603 -0.872817 0
M  V30 3684 C 341.905 1.68647 0.159576 0
M  V30 3685 O 343.111 1.79995 0.0132125 0
M  V30 3686 H 339.486 0.703885 -0.264671 0
M  V30 3687 H 341.457 2.37613 -1.80507 0
M  V30 3688 C 340.206 3.45457 -0.394344 0
M  V30 3689 H 339.529 3.81984 -1.18019 0
M  V30 3690 H 340.969 4.2339 -0.227408 0
M  V30 3691 C 339.428 3.25021 0.88673 0
M  V30 3692 O 339.958 3.50906 1.95519 0
M  V30 3693 N 338.164 2.78437 0.831925 0
M  V30 3694 H 337.711 2.57572 -0.0377619 0
M  V30 3695 H 337.669 2.65144 1.68956 0
M  V30 3696 N 341.441 0.965919 1.2453 0
M  V30 3697 C 342.666 0.643971 1.97149 0
M  V30 3698 C 343.091 -0.779487 1.71189 0
M  V30 3699 O 342.449 -1.5288 0.974553 0
M  V30 3700 C 342.497 0.922557 3.48599 0
M  V30 3701 O 341.601 0.00707672 4.12399 0
M  V30 3702 H 340.942 0.243647 0.617683 0
M  V30 3703 H 343.472 1.29558 1.58353 0
M  V30 3704 H 343.482 0.853373 3.98976 0
M  V30 3705 H 342.157 1.95996 3.66822 0
M  V30 3706 H 340.734 0.12943 3.72675 0
M  V30 3707 N 342.919 -1.39368 0.735821 0
M  V30 3708 C 343.866 -2.30599 0.0963825 0
M  V30 3709 C 344.836 -1.49257 -0.728794 0
M  V30 3710 O 346.021 -1.77941 -0.688588 0
M  V30 3711 C 343.161 -3.35596 -0.804305 0
M  V30 3712 C 342.274 -4.31987 0.0335761 0
M  V30 3713 C 341.409 -5.24053 -0.868461 0
M  V30 3714 C 340.448 -6.12095 -0.0258776 0
M  V30 3715 N 339.585 -6.96514 -0.883893 0
M  V30 3716 H 344.425 -2.8471 0.880002 0
M  V30 3717 H 341.962 -1.40188 0.445619 0
M  V30 3718 H 343.92 -3.95062 -1.34096 0
M  V30 3719 H 342.55 -2.82938 -1.55389 0
M  V30 3720 H 341.602 -3.74133 0.68766 0
M  V30 3721 H 342.914 -4.94074 0.685036 0
M  V30 3722 H 342.068 -5.88549 -1.47293 0
M  V30 3723 H 340.807 -4.62289 -1.5537 0
M  V30 3724 H 339.812 -5.4661 0.591386 0
M  V30 3725 H 341.037 -6.75923 0.656156 0
M  V30 3726 H 338.983 -6.37318 -1.55441 0
M  V30 3727 H 338.9 -7.55448 -0.288931 0
M  V30 3728 H 340.168 -7.65439 -1.4739 0
M  V30 3729 N 344.397 -0.483516 -1.5 0
M  V30 3730 C 345.329 0.340634 -2.26655 0
M  V30 3731 C 346.342 0.946152 -1.32483 0
M  V30 3732 O 347.531 0.832453 -1.579 0
M  V30 3733 C 344.631 1.4929 -3.04246 0
M  V30 3734 C 343.804 0.997903 -4.25865 0
M  V30 3735 C 342.863 2.02569 -4.85646 0
M  V30 3736 O 341.889 1.60128 -5.46212 0
M  V30 3737 N 343.091 3.3548 -4.73744 0
M  V30 3738 H 345.856 -0.316577 -2.98023 0
M  V30 3739 H 343.417 -0.315024 -1.58806 0
M  V30 3740 H 345.409 2.17766 -3.41116 0
M  V30 3741 H 343.979 2.05458 -2.35597 0
M  V30 3742 H 343.199 0.138617 -3.93956 0
M  V30 3743 H 344.487 0.645305 -5.04691 0
M  V30 3744 H 343.885 3.72661 -4.25605 0
M  V30 3745 H 342.442 3.99718 -5.14848 0
M  V30 3746 N 345.875 1.56104 -0.216619 0
M  V30 3747 C 347.286 1.844 0.292128 0
M  V30 3748 C 347.637 1.13788 1.59833 0
M  V30 3749 O 346.762 0.405888 2.12559 0
M  V30 3750 C 347.357 3.3452 0.53681 0
M  V30 3751 C 345.916 3.63151 0.989876 0
M  V30 3752 C 345.063 2.77255 0.0502302 0
M  V30 3753 H 348.014 1.52481 -0.439926 0
M  V30 3754 H 348.035 3.54459 1.38345 0
M  V30 3755 H 347.547 3.85885 -0.414031 0
M  V30 3756 H 345.648 3.17238 1.95425 0
M  V30 3757 H 345.761 4.71177 0.867698 0
M  V30 3758 H 344.125 2.48555 0.556117 0
M  V30 3759 H 344.908 3.31416 -0.89544 0
M  V30 3760 N 347.353 -0.0568162 1.57498 0
M  V30 3761 C 348.602 -0.752001 1.87157 0
M  V30 3762 C 348.915 -1.77978 0.811375 0
M  V30 3763 O 350.121 -2.52559 0.996293 0
M  V30 3764 C 348.577 -1.38844 3.3204 0
M  V30 3765 C 348.185 -0.398456 4.46225 0
M  V30 3766 C 349.929 -2.06512 3.70882 0
M  V30 3767 C 347.836 -1.04166 5.82154 0
M  V30 3768 H 346.766 -0.28461 0.698222 0
M  V30 3769 H 349.417 -0.00561272 1.83499 0
M  V30 3770 H 347.799 -2.1836 3.30356 0
M  V30 3771 H 348.973 0.367977 4.59328 0
M  V30 3772 H 347.288 0.174592 4.16034 0
M  V30 3773 H 349.885 -2.55437 4.6974 0
M  V30 3774 H 350.228 -2.87117 3.01445 0
M  V30 3775 H 350.761 -1.33808 3.7462 0
M  V30 3776 H 347.5 -0.275614 6.5492 0
M  V30 3777 H 347.02 -1.7786 5.72823 0
M  V30 3778 H 348.699 -1.55715 6.27982 0
M  V30 3779 N 348.832 -1.54138 -0.328536 0
M  V30 3780 C 349.782 -1.79557 -1.4051 0
M  V30 3781 C 350.766 -0.651373 -1.47126 0
M  V30 3782 O 351.958 -0.911226 -1.51742 0
M  V30 3783 C 349.087 -2.02196 -2.77438 0
M  V30 3784 C 348.173 -3.22724 -2.75155 0
M  V30 3785 N 348.564 -4.43881 -2.42494 0
M  V30 3786 C 346.862 -3.24196 -3.06289 0
M  V30 3787 C 347.563 -5.25797 -2.48822 0
M  V30 3788 N 346.539 -4.62862 -2.8506 0
M  V30 3789 H 350.341 -2.70814 -1.1418 0
M  V30 3790 H 347.855 -1.53265 -0.536991 0
M  V30 3791 H 349.852 -2.18546 -3.55026 0
M  V30 3792 H 348.512 -1.12191 -3.04702 0
M  V30 3793 H 349.523 -4.70969 -2.15428 0
M  V30 3794 H 346.2 -2.44208 -3.38627 0
M  V30 3795 H 347.59 -6.32535 -2.26603 0
M  V30 3796 N 350.31 0.590341 -1.46126 0
M  V30 3797 C 351.243 1.71434 -1.50617 0
M  V30 3798 C 352.221 1.58543 -0.360948 0
M  V30 3799 O 353.405 1.79865 -0.563985 0
M  V30 3800 C 350.532 3.09422 -1.37753 0
M  V30 3801 C 349.578 3.40854 -2.5636 0
M  V30 3802 S 350.411 3.33773 -4.18755 0
M  V30 3803 C 351.567 4.74312 -4.08386 0
M  V30 3804 H 351.8 1.67364 -2.45717 0
M  V30 3805 H 349.333 0.76845 -1.33919 0
M  V30 3806 H 351.291 3.8903 -1.31018 0
M  V30 3807 H 349.952 3.10989 -0.440949 0
M  V30 3808 H 349.145 4.41368 -2.43332 0
M  V30 3809 H 348.747 2.68798 -2.60046 0
M  V30 3810 H 351.039 5.64522 -3.74595 0
M  V30 3811 H 351.982 4.92397 -5.08872 0
M  V30 3812 H 352.39 4.50803 -3.3976 0
M  V30 3813 N 351.788 1.33704 0.83433 0
M  V30 3814 C 353.034 1.25603 1.59222 0
M  V30 3815 C 353.367 -0.176659 1.93395 0
M  V30 3816 O 352.642 -1.11915 1.59076 0
M  V30 3817 C 352.925 2.13576 2.89926 0
M  V30 3818 C 352.778 3.65326 2.62406 0
M  V30 3819 C 354.097 2.01238 3.91397 0
M  V30 3820 H 351.216 0.457613 0.577719 0
M  V30 3821 H 353.858 1.63848 0.961972 0
M  V30 3822 H 352.008 1.8109 3.43713 0
M  V30 3823 H 353.68 4.08124 2.15017 0
M  V30 3824 H 351.923 3.8698 1.96033 0
M  V30 3825 H 352.594 4.22232 3.55562 0
M  V30 3826 H 355.07 2.29738 3.46929 0
M  V30 3827 H 353.946 2.65036 4.80673 0
M  V30 3828 H 354.207 0.985951 4.30966 0
M  V30 3829 N 353.266 -1.05314 1.17247 0
M  V30 3830 C 354.496 -1.81707 0.983166 0
M  V30 3831 C 354.904 -1.83222 -0.471822 0
M  V30 3832 O 354.247 -1.25721 -1.3394 0
M  V30 3833 C 354.309 -3.29134 1.44606 0
M  V30 3834 C 353.973 -3.51304 2.92292 0
M  V30 3835 C 354.97 -3.4353 3.90235 0
M  V30 3836 C 352.655 -3.78306 3.30439 0
M  V30 3837 C 354.649 -3.62442 5.24323 0
M  V30 3838 C 352.336 -3.96866 4.64694 0
M  V30 3839 C 353.334 -3.88933 5.61445 0
M  V30 3840 O 353.022 -4.06976 6.93272 0
M  V30 3841 H 352.754 -0.579476 0.348114 0
M  V30 3842 H 355.308 -1.33705 1.55924 0
M  V30 3843 H 353.538 -3.78046 0.813537 0
M  V30 3844 H 355.227 -3.87049 1.22262 0
M  V30 3845 H 355.993 -3.22648 3.62109 0
M  V30 3846 H 351.872 -3.83585 2.55702 0
M  V30 3847 H 355.416 -3.56165 5.99827 0
M  V30 3848 H 351.313 -4.1724 4.92525 0
M  V30 3849 H 352.081 -4.24209 6.99992 0
M  V30 3850 N 354.744 -0.972509 -1.24016 0
M  V30 3851 C 355.99 -0.637978 -1.92504 0
M  V30 3852 C 356.323 0.825383 -1.75787 0
M  V30 3853 O 355.598 1.59442 -1.11393 0
M  V30 3854 C 355.881 -1.01942 -3.45369 0
M  V30 3855 C 355.734 -2.53983 -3.71231 0
M  V30 3856 C 357.053 -0.55751 -4.36555 0
M  V30 3857 H 354.172 -0.233248 -0.699117 0
M  V30 3858 H 356.814 -1.21238 -1.46292 0
M  V30 3859 H 354.964 -0.530656 -3.84859 0
M  V30 3860 H 356.636 -3.10374 -3.41271 0
M  V30 3861 H 354.879 -2.96968 -3.16216 0
M  V30 3862 H 355.55 -2.75723 -4.78206 0
M  V30 3863 H 358.026 -0.977029 -4.04467 0
M  V30 3864 H 356.902 -0.85292 -5.42233 0
M  V30 3865 H 357.163 0.542328 -4.38761 0
M  V30 3866 N 356.222 1.38976 -0.743202 0
M  V30 3867 C 357.633 1.83123 -0.363732 0
M  V30 3868 C 357.984 1.6205 1.10609 0
M  V30 3869 O 357.109 1.11606 1.854 0
M  V30 3870 C 357.704 3.32439 -0.653408 0
M  V30 3871 C 356.263 3.74974 -0.327338 0
M  V30 3872 C 355.41 2.61878 -0.911875 0
M  V30 3873 H 358.361 1.27852 -0.940191 0
M  V30 3874 H 358.382 3.80432 0.0720031 0
M  V30 3875 H 357.894 3.47745 -1.72323 0
M  V30 3876 H 355.995 3.65252 0.736314 0
M  V30 3877 H 356.108 4.72106 -0.815631 0
M  V30 3878 H 354.472 2.52448 -0.337944 0
M  V30 3879 H 355.255 2.79987 -1.98651 0
M  V30 3880 N 357.7 0.491464 1.49741 0
M  V30 3881 C 358.925 -0.0557177 2.07325 0
M  V30 3882 C 359.35 -1.30925 1.35056 0
M  V30 3883 O 358.708 -1.76733 0.404365 0
M  V30 3884 C 358.756 -0.302074 3.59333 0
M  V30 3885 O 357.86 -1.37868 3.88672 0
M  V30 3886 H 357.201 0.0219956 0.663636 0
M  V30 3887 H 359.731 0.688352 1.92673 0
M  V30 3888 H 359.741 -0.536464 4.04458 0
M  V30 3889 H 358.416 0.61383 4.11345 0
M  V30 3890 H 356.993 -1.12999 3.55367 0
M  V30 3891 N 359.178 -1.55987 0.224894 0
M  V30 3892 C 360.128 -2.17076 -0.697296 0
M  V30 3893 C 361.112 -1.12006 -1.15514 0
M  V30 3894 O 362.304 -1.37985 -1.10857 0
M  V30 3895 C 359.433 -2.85679 -1.90374 0
M  V30 3896 C 358.519 -3.97977 -1.46543 0
M  V30 3897 N 358.91 -5.00359 -0.739909 0
M  V30 3898 C 357.208 -4.10128 -1.75245 0
M  V30 3899 C 357.909 -5.79407 -0.515939 0
M  V30 3900 N 356.885 -5.32892 -1.07364 0
M  V30 3901 H 360.687 -2.93592 -0.134594 0
M  V30 3902 H 358.201 -1.62379 0.0262885 0
M  V30 3903 H 360.198 -3.27857 -2.57518 0
M  V30 3904 H 358.858 -2.1066 -2.47088 0
M  V30 3905 H 359.869 -5.16412 -0.392253 0
M  V30 3906 H 356.546 -3.46263 -2.33255 0
M  V30 3907 H 357.936 -6.71872 0.0617349 0
M  V30 3908 N 360.656 0.0484629 -1.57525 0
M  V30 3909 C 361.586 1.0549 -2.08313 0
M  V30 3910 C 362.567 1.38929 -0.981463 0
M  V30 3911 O 363.752 1.48151 -1.25558 0
M  V30 3912 C 360.882 2.36162 -2.54646 0
M  V30 3913 C 359.836 2.17016 -3.68901 0
M  V30 3914 C 359.162 3.53278 -4.01371 0
M  V30 3915 C 360.462 1.57219 -4.98076 0
M  V30 3916 H 362.156 0.632195 -2.92649 0
M  V30 3917 H 359.702 0.302654 -1.40784 0
M  V30 3918 H 361.655 3.06882 -2.88793 0
M  V30 3919 H 360.379 2.80456 -1.67368 0
M  V30 3920 H 359.038 1.48733 -3.35073 0
M  V30 3921 H 358.686 3.95185 -3.11188 0
M  V30 3922 H 358.386 3.41299 -4.78318 0
M  V30 3923 H 359.91 4.25391 -4.38035 0
M  V30 3924 H 361.324 2.17832 -5.30304 0
M  V30 3925 H 359.721 1.55871 -5.79503 0
M  V30 3926 H 360.791 0.535956 -4.81929 0
M  V30 3927 N 362.134 1.5431 0.320358 0
M  V30 3928 C 363.364 1.7638 1.07582 0
M  V30 3929 C 363.772 0.513944 1.82086 0
M  V30 3930 O 363.115 -0.525123 1.76035 0
M  V30 3931 C 363.177 2.9055 2.1171 0
M  V30 3932 C 362.841 4.2934 1.56575 0
M  V30 3933 C 363.838 5.10077 1.00586 0
M  V30 3934 C 361.523 4.75893 1.60722 0
M  V30 3935 C 363.517 6.35477 0.494756 0
M  V30 3936 C 361.204 6.0126 1.09224 0
M  V30 3937 C 362.202 6.80886 0.53696 0
M  V30 3938 O 361.89 8.03894 0.0297371 0
M  V30 3939 H 361.622 0.592369 0.325692 0
M  V30 3940 H 364.176 2.02019 0.37116 0
M  V30 3941 H 362.406 2.60489 2.85801 0
M  V30 3942 H 364.095 3.00373 2.73003 0
M  V30 3943 H 364.861 4.75265 0.966869 0
M  V30 3944 H 360.74 4.13957 2.02882 0
M  V30 3945 H 364.284 6.97574 0.0606842 0
M  V30 3946 H 360.181 6.35562 1.12831 0
M  V30 3947 H 360.949 8.18372 0.14486 0
M  V30 3948 N 363.613 -0.582584 1.46437 0
M  V30 3949 C 364.563 -1.68654 1.53426 0
M  V30 3950 C 365.547 -1.55971 0.395194 0
M  V30 3951 O 366.739 -1.64884 0.643612 0
M  V30 3952 C 363.868 -3.07439 1.52762 0
M  V30 3953 C 362.954 -3.25418 2.71963 0
M  V30 3954 N 363.345 -3.13556 3.96883 0
M  V30 3955 C 361.643 -3.56357 2.68189 0
M  V30 3956 C 362.344 -3.33543 4.76575 0
M  V30 3957 N 361.32 -3.58704 4.08451 0
M  V30 3958 H 365.122 -1.58014 2.47808 0
M  V30 3959 H 362.636 -0.786617 1.42078 0
M  V30 3960 H 364.633 -3.86671 1.55857 0
M  V30 3961 H 363.293 -3.1921 0.594573 0
M  V30 3962 H 364.304 -2.9142 4.28129 0
M  V30 3963 H 360.981 -3.74812 1.83908 0
M  V30 3964 H 362.371 -3.29555 5.85528 0
M  V30 3965 N 365.091 -1.34144 -0.827227 0
M  V30 3966 C 366.024 -1.19707 -1.94282 0
M  V30 3967 C 367.002 -0.0897256 -1.62352 0
M  V30 3968 O 368.186 -0.254095 -1.8678 0
M  V30 3969 C 365.313 -0.838646 -3.28153 0
M  V30 3970 C 364.359 -1.95514 -3.79047 0
M  V30 3971 S 365.192 -3.56793 -3.99323 0
M  V30 3972 C 366.348 -3.22983 -5.36127 0
M  V30 3973 H 366.581 -2.1414 -2.06231 0
M  V30 3974 H 364.114 -1.19121 -0.982321 0
M  V30 3975 H 366.072 -0.638637 -4.05502 0
M  V30 3976 H 364.733 0.0872776 -3.13979 0
M  V30 3977 H 363.926 -1.658 -4.75948 0
M  V30 3978 H 363.528 -2.11241 -3.08631 0
M  V30 3979 H 365.82 -2.74531 -6.19386 0
M  V30 3980 H 366.763 -4.19008 -5.70822 0
M  V30 3981 H 367.171 -2.59276 -5.01434 0
M  V30 3982 N 366.569 1.04691 -1.17803 0
M  V30 3983 C 367.499 2.14494 -0.92275 0
M  V30 3984 C 368.48 1.69546 0.137179 0
M  V30 3985 O 369.665 1.94195 -0.0141108 0
M  V30 3986 C 366.795 3.44491 -0.440803 0
M  V30 3987 C 365.749 4.03031 -1.4405 0
M  V30 3988 C 365.075 5.28432 -0.81631 0
M  V30 3989 C 366.375 4.39932 -2.81527 0
M  V30 3990 H 368.069 2.36107 -1.84103 0
M  V30 3991 H 365.615 1.1347 -0.886599 0
M  V30 3992 H 367.568 4.2066 -0.249602 0
M  V30 3993 H 366.292 3.22546 0.513025 0
M  V30 3994 H 364.951 3.28937 -1.61853 0
M  V30 3995 H 364.599 5.02792 0.144511 0
M  V30 3996 H 364.299 5.68559 -1.48371 0
M  V30 3997 H 365.823 6.07284 -0.635496 0
M  V30 3998 H 367.237 5.07113 -2.67412 0
M  V30 3999 H 365.634 4.9109 -3.44892 0
M  V30 4000 H 366.704 3.50045 -3.35554 0
M  V30 4001 N 368.047 0.979072 1.23499 0
M  V30 4002 C 369.294 0.647219 1.91878 0
M  V30 4003 C 369.622 -0.819074 1.76413 0
M  V30 4004 O 368.877 -1.60616 1.11808 0
M  V30 4005 C 369.176 0.981932 3.43646 0
M  V30 4006 C 368.842 2.43822 3.79291 0
M  V30 4007 C 367.504 2.83622 3.88731 0
M  V30 4008 C 369.856 3.3828 3.96505 0
M  V30 4009 C 367.184 4.16897 4.12812 0
M  V30 4010 C 369.536 4.71197 4.22085 0
M  V30 4011 C 368.2 5.10758 4.29747 0
M  V30 4012 H 367.47 0.236834 0.702133 0
M  V30 4013 H 370.117 1.23268 1.46551 0
M  V30 4014 H 368.422 0.314365 3.90537 0
M  V30 4015 H 370.119 0.703395 3.94783 0
M  V30 4016 H 366.709 2.11966 3.72516 0
M  V30 4017 H 370.893 3.0871 3.88603 0
M  V30 4018 H 366.149 4.47157 4.16966 0
M  V30 4019 H 370.323 5.44348 4.34348 0
M  V30 4020 H 367.95 6.1405 4.48159 0
M  V30 4021 N 369.525 -1.3858 0.750561 0
M  V30 4022 C 370.435 -2.34278 0.122825 0
M  V30 4023 C 371.451 -1.59116 -0.704131 0
M  V30 4024 O 372.627 -1.91326 -0.628987 0
M  V30 4025 C 369.692 -3.38221 -0.762086 0
M  V30 4026 C 368.753 -4.29227 0.078896 0
M  V30 4027 C 367.986 -5.28205 -0.763874 0
M  V30 4028 O 368.209 -5.34112 -2.00201 0
M  V30 4029 O 367.143 -6.01618 -0.18428 0
M  V30 4030 H 370.969 -2.89649 0.913088 0
M  V30 4031 H 368.554 -1.40374 0.511417 0
M  V30 4032 H 370.436 -4.01872 -1.26793 0
M  V30 4033 H 369.111 -2.85211 -1.5309 0
M  V30 4034 H 368.018 -3.68747 0.630621 0
M  V30 4035 H 369.351 -4.85484 0.810289 0
M  V30 4036 N 371.003 -0.499398 -1.49478 0
M  V30 4037 C 371.933 0.269244 -2.31943 0
M  V30 4038 C 372.914 0.964054 -1.40143 0
M  V30 4039 O 374.099 0.955767 -1.69052 0
M  V30 4040 C 371.229 1.33504 -3.20615 0
M  V30 4041 C 370.183 0.760202 -4.21195 0
M  V30 4042 C 369.509 1.9264 -4.98792 0
M  V30 4043 C 370.809 -0.247661 -5.21712 0
M  V30 4044 H 372.503 -0.419082 -2.96452 0
M  V30 4045 H 370.049 -0.202988 -1.42562 0
M  V30 4046 H 372.002 1.88048 -3.77115 0
M  V30 4047 H 370.726 2.05253 -2.54045 0
M  V30 4048 H 369.385 0.23653 -3.65836 0
M  V30 4049 H 369.033 2.63154 -4.28671 0
M  V30 4050 H 368.733 1.54785 -5.66847 0
M  V30 4051 H 370.257 2.4762 -5.58137 0
M  V30 4052 H 371.671 0.209579 -5.72917 0
M  V30 4053 H 370.068 -0.541962 -5.97648 0
M  V30 4054 H 371.138 -1.16409 -4.7072 0
M  V30 4055 N 372.481 1.55866 -0.233164 0
M  V30 4056 C 373.728 1.98603 0.395374 0
M  V30 4057 C 374.056 1.12105 1.58942 0
M  V30 4058 O 373.311 0.168656 1.94972 0
M  V30 4059 C 373.61 3.46856 0.861724 0
M  V30 4060 C 373.276 4.50348 -0.223066 0
M  V30 4061 C 371.938 4.78371 -0.521038 0
M  V30 4062 C 374.29 5.12355 -0.956124 0
M  V30 4063 C 371.618 5.6568 -1.55638 0
M  V30 4064 C 373.97 6.00786 -1.98089 0
M  V30 4065 C 372.634 6.27148 -2.28565 0
M  V30 4066 H 371.904 0.726739 0.144677 0
M  V30 4067 H 374.551 1.88491 -0.338114 0
M  V30 4068 H 372.856 3.5423 1.67418 0
M  V30 4069 H 374.553 3.77302 1.35809 0
M  V30 4070 H 371.143 4.28596 0.0193234 0
M  V30 4071 H 375.327 4.90765 -0.739166 0
M  V30 4072 H 370.583 5.84365 -1.798 0
M  V30 4073 H 374.757 6.4788 -2.55391 0
M  V30 4074 H 372.384 6.94597 -3.08932 0
M  V30 4075 N 373.959 -0.0401083 1.57549 0
M  V30 4076 C 374.906 -1.04413 2.05831 0
M  V30 4077 C 375.876 -1.36585 0.945184 0
M  V30 4078 O 377.061 -1.47112 1.21502 0
M  V30 4079 C 374.201 -2.34336 2.53339 0
M  V30 4080 C 373.314 -2.08419 3.78398 0
M  V30 4081 C 372.449 -3.32133 4.14561 0
M  V30 4082 C 371.488 -3.01721 5.3257 0
M  V30 4083 N 370.625 -4.17855 5.64218 0
M  V30 4084 H 375.465 -0.625442 2.91363 0
M  V30 4085 H 373.002 -0.297218 1.44066 0
M  V30 4086 H 374.96 -3.10234 2.78946 0
M  V30 4087 H 373.59 -2.73948 1.7074 0
M  V30 4088 H 372.642 -1.23069 3.59942 0
M  V30 4089 H 373.954 -1.81978 4.64419 0
M  V30 4090 H 373.108 -4.16406 4.41238 0
M  V30 4091 H 371.847 -3.61678 3.2717 0
M  V30 4092 H 370.852 -2.15849 5.05657 0
M  V30 4093 H 372.077 -2.73466 6.21605 0
M  V30 4094 H 370.023 -4.47372 4.79786 0
M  V30 4095 H 369.94 -3.94798 6.44725 0
M  V30 4096 H 371.208 -5.03033 5.95465 0
M  V30 4097 N 375.437 -1.54477 -0.31217 0
M  V30 4098 C 376.385 -1.85395 -1.40469 0
M  V30 4099 C 377.379 -0.726749 -1.53019 0
M  V30 4100 O 378.585 -0.910582 -1.55269 0
M  V30 4101 H 374.96 -0.587845 -0.46898 0
M  V30 4102 H 376.931 -2.76736 -1.11623 0
M  V30 4103 C 375.68 -2.10811 -2.76503 0
M  V30 4104 H 375.003 -2.97014 -2.67625 0
M  V30 4105 H 376.443 -2.3639 -3.51988 0
M  V30 4106 C 374.902 -0.903165 -3.24568 0
M  V30 4107 O 375.432 -0.118085 -4.01526 0
M  V30 4108 N 373.638 -0.711634 -2.81752 0
M  V30 4109 H 373.185 -1.35171 -2.19286 0
M  V30 4110 H 373.143 0.0930473 -3.14262 0
M  V30 4111 N 376.915 0.57481 -1.46744 0
M  V30 4112 C 377.878 1.66533 -1.57478 0
M  V30 4113 C 378.878 1.54338 -0.451263 0
M  V30 4114 O 380.068 1.58814 -0.715813 0
M  V30 4115 C 377.2 3.05999 -1.50259 0
M  V30 4116 H 378.393 1.58372 -2.54673 0
M  V30 4117 H 375.946 0.793301 -1.34672 0
M  V30 4118 H 376.681 3.19709 -0.543725 0
M  V30 4119 H 376.466 3.16259 -2.31781 0
M  V30 4120 H 377.956 3.8537 -1.60872 0
M  V30 4121 N 378.394 1.34581 0.820102 0
M  V30 4122 C 379.327 1.20735 1.93644 0
M  V30 4123 C 380.305 0.0983343 1.62302 0
M  V30 4124 O 381.489 0.263997 1.86642 0
M  V30 4125 C 378.616 0.856037 3.27704 0
M  V30 4126 C 377.662 1.97521 3.78005 0
M  V30 4127 S 378.495 3.58906 3.97425 0
M  V30 4128 C 379.651 3.25822 5.34407 0
M  V30 4129 H 379.884 2.15231 2.05093 0
M  V30 4130 H 377.417 1.1964 0.97599 0
M  V30 4131 H 379.375 0.660133 4.05157 0
M  V30 4132 H 378.036 -0.0706253 3.14021 0
M  V30 4133 H 377.229 1.68321 4.75062 0
M  V30 4134 H 376.831 2.12875 3.07507 0
M  V30 4135 H 379.123 2.77812 6.17922 0
M  V30 4136 H 380.066 4.22029 5.68592 0
M  V30 4137 H 380.474 2.61932 5.00052 0
M  V30 4138 N 379.872 -1.04064 1.18357 0
M  V30 4139 C 381.288 -1.2947 0.933258 0
M  V30 4140 C 381.488 -1.97466 -0.401169 0
M  V30 4141 O 380.544 -2.25528 -1.13549 0
M  V30 4142 C 381.857 -2.15337 2.09882 0
M  V30 4143 C 383.405 -2.28683 2.13712 0
M  V30 4144 C 383.88 -3.17917 3.29686 0
M  V30 4145 N 385.371 -3.25504 3.29547 0
M  V30 4146 C 386.106 -3.94706 4.15926 0
M  V30 4147 N 385.602 -4.66239 5.12439 0
M  V30 4148 N 387.395 -3.90986 4.0384 0
M  V30 4149 H 379.546 -0.583359 2.04232 0
M  V30 4150 H 381.809 -0.319921 0.892387 0
M  V30 4151 H 381.515 -1.72682 3.06389 0
M  V30 4152 H 381.389 -3.16015 2.05947 0
M  V30 4153 H 383.776 -2.70575 1.17784 0
M  V30 4154 H 383.857 -1.27596 2.21705 0
M  V30 4155 H 383.501 -2.76736 4.25887 0
M  V30 4156 H 383.431 -4.19036 3.1893 0
M  V30 4157 H 385.922 -2.74547 2.59677 0
M  V30 4158 H 386.235 -5.16638 5.74722 0
M  V30 4159 H 384.58 -4.65143 5.16398 0
M  V30 4160 H 387.771 -3.34234 3.27727 0
M  V30 4161 H 387.944 -4.44646 4.71375 0
M  V30 4162 N 381.35 -0.985608 -1.22978 0
M  V30 4163 C 382.313 -0.535071 -2.22867 0
M  V30 4164 C 383.313 0.378123 -1.56291 0
M  V30 4165 O 384.503 0.171092 -1.73358 0
M  V30 4166 C 381.635 0.222702 -3.40172 0
M  V30 4167 H 382.828 -1.41835 -2.6424 0
M  V30 4168 H 380.381 -0.772042 -1.35901 0
M  V30 4169 H 381.116 1.12229 -3.04262 0
M  V30 4170 H 380.901 -0.43288 -3.89703 0
M  V30 4171 H 382.391 0.526335 -4.1427 0
M  V30 4172 N 382.828 1.3818 -0.7579 0
M  V30 4173 C 384.056 2.04301 -0.326937 0
M  V30 4174 C 384.471 1.57163 1.0462 0
M  V30 4175 O 383.828 0.746626 1.66529 0
M  V30 4176 C 383.879 3.59846 -0.345363 0
M  V30 4177 O 383.6 4.05256 -1.66432 0
M  V30 4178 C 385.101 4.4319 0.098927 0
M  V30 4179 H 382.321 0.656443 -0.139012 0
M  V30 4180 H 384.865 1.76786 -1.02796 0
M  V30 4181 H 383.02 3.86182 0.306955 0
M  V30 4182 H 383.434 4.99709 -1.59345 0
M  V30 4183 H 384.908 5.51989 0.0348745 0
M  V30 4184 H 385.385 4.23947 1.14741 0
M  V30 4185 H 385.991 4.22051 -0.52468 0
M  V30 4186 N 384.306 0.507319 1.49211 0
M  V30 4187 C 385.552 -0.0350047 2.0277 0
M  V30 4188 C 385.885 -1.3606 1.38569 0
M  V30 4189 O 385.16 -1.87321 0.523542 0
M  V30 4190 C 385.443 -0.180916 3.59645 0
M  V30 4191 C 385.296 1.16825 4.34364 0
M  V30 4192 C 386.615 -0.918558 4.30407 0
M  V30 4193 H 383.734 -0.0112473 0.736914 0
M  V30 4194 H 386.376 0.659956 1.7817 0
M  V30 4195 H 384.526 -0.772826 3.80736 0
M  V30 4196 H 386.198 1.79952 4.24753 0
M  V30 4197 H 384.441 1.75594 3.96673 0
M  V30 4198 H 385.112 1.01939 5.42506 0
M  V30 4199 H 387.588 -0.41649 4.1401 0
M  V30 4200 H 386.464 -0.989505 5.39907 0
M  V30 4201 H 386.725 -1.96373 3.96093 0
M  V30 4202 N 385.784 -1.5574 0.241426 0
M  V30 4203 C 386.694 -2.2479 -0.671305 0
M  V30 4204 C 387.71 -1.26217 -1.19772 0
M  V30 4205 O 388.886 -1.59079 -1.23514 0
M  V30 4206 C 385.951 -2.92966 -1.85396 0
M  V30 4207 C 385.012 -4.06935 -1.36756 0
M  V30 4208 C 384.245 -4.71851 -2.49384 0
M  V30 4209 O 384.468 -4.35823 -3.67987 0
M  V30 4210 O 383.402 -5.60467 -2.19454 0
M  V30 4211 H 387.228 -3.0349 -0.112966 0
M  V30 4212 H 384.813 -1.49397 0.0101513 0
M  V30 4213 H 386.695 -3.35927 -2.54423 0
M  V30 4214 H 385.37 -2.17211 -2.40002 0
M  V30 4215 H 384.277 -3.68503 -0.644726 0
M  V30 4216 H 385.61 -4.84492 -0.867647 0
M  V30 4217 N 387.262 0.0317525 -1.57568 0
M  V30 4218 C 388.487 0.738664 -1.938 0
M  V30 4219 C 388.912 1.68242 -0.841208 0
M  V30 4220 O 388.27 1.80157 0.203267 0
M  V30 4221 C 388.318 1.47417 -3.29091 0
M  V30 4222 O 387.422 2.5872 -3.2115 0
M  V30 4223 H 386.763 0.198856 -0.633524 0
M  V30 4224 H 389.293 -0.0119713 -2.04596 0
M  V30 4225 H 389.303 1.84468 -3.63917 0
M  V30 4226 H 387.978 0.781988 -4.08482 0
M  V30 4227 H 386.555 2.24231 -2.97951 0
M  V30 4228 N 388.74 1.54641 0.303973 0
M  V30 4229 C 389.69 1.8177 1.37636 0
M  V30 4230 C 390.674 0.674697 1.46071 0
M  V30 4231 O 391.866 0.935251 1.50273 0
M  V30 4232 C 388.995 2.06584 2.74186 0
M  V30 4233 C 388.081 3.2706 2.69986 0
M  V30 4234 N 388.472 4.47682 2.35402 0
M  V30 4235 C 386.77 3.29028 3.01092 0
M  V30 4236 C 387.471 5.29689 2.40426 0
M  V30 4237 N 386.447 4.67339 2.7766 0
M  V30 4238 H 390.249 2.72596 1.09857 0
M  V30 4239 H 387.763 1.541 0.51254 0
M  V30 4240 H 389.76 2.24166 3.51504 0
M  V30 4241 H 388.42 1.17024 3.02879 0
M  V30 4242 H 389.431 4.74336 2.07908 0
M  V30 4243 H 386.108 2.49565 3.34699 0
M  V30 4244 H 387.498 6.3606 2.16512 0
M  V30 4245 N 390.218 -0.567019 1.47046 0
M  V30 4246 C 391.128 -1.70247 1.6141 0
M  V30 4247 C 392.144 -1.66746 0.497157 0
M  V30 4248 O 393.32 -1.86371 0.763389 0
M  V30 4249 C 390.385 -3.06756 1.61561 0
M  V30 4250 C 389.446 -3.21399 2.84607 0
M  V30 4251 C 388.679 -4.51396 2.84741 0
M  V30 4252 O 388.902 -5.36255 1.94388 0
M  V30 4253 O 387.836 -4.69621 3.76483 0
M  V30 4254 H 391.662 -1.61073 2.57467 0
M  V30 4255 H 389.247 -0.735894 1.30019 0
M  V30 4256 H 391.129 -3.8801 1.64396 0
M  V30 4257 H 389.804 -3.16333 0.686684 0
M  V30 4258 H 388.711 -2.39579 2.8732 0
M  V30 4259 H 390.044 -3.16721 3.76761 0
M  V30 4260 N 391.696 -1.35014 -0.812953 0
M  V30 4261 C 392.921 -1.31187 -1.60639 0
M  V30 4262 C 393.346 0.109382 -1.87782 0
M  V30 4263 O 392.704 1.07424 -1.46047 0
M  V30 4264 C 392.752 -2.11809 -2.91838 0
M  V30 4265 O 391.856 -1.49444 -3.8437 0
M  V30 4266 H 391.197 -0.450084 -0.488181 0
M  V30 4267 H 393.727 -1.77963 -1.00947 0
M  V30 4268 H 393.737 -2.23531 -3.41318 0
M  V30 4269 H 392.412 -3.15137 -2.71407 0
M  V30 4270 H 390.989 -1.46524 -3.42907 0
M  V30 4271 N 393.175 1.03435 -1.18907 0
M  V30 4272 C 394.4 1.80919 -1.01406 0
M  V30 4273 C 394.825 1.83055 0.432721 0
M  V30 4274 O 394.183 1.25252 1.31079 0
M  V30 4275 C 394.231 3.24091 -1.58105 0
M  V30 4276 O 393.335 4.04434 -0.806669 0
M  V30 4277 H 392.676 0.558709 -0.358803 0
M  V30 4278 H 395.206 1.30223 -1.57807 0
M  V30 4279 H 395.216 3.74853 -1.61087 0
M  V30 4280 H 393.891 3.21851 -2.6341 0
M  V30 4281 H 392.468 3.63091 -0.849666 0
M  V30 4282 N 394.653 0.992116 1.22453 0
M  V30 4283 C 395.583 0.561677 2.26644 0
M  V30 4284 C 396.564 -0.411055 1.65059 0
M  V30 4285 O 397.749 -0.301861 1.9184 0
M  V30 4286 C 394.879 -0.125247 3.47074 0
M  V30 4287 C 393.833 0.765948 4.21091 0
M  V30 4288 C 393.159 -0.0538484 5.34673 0
M  V30 4289 C 394.459 2.06242 4.79856 0
M  V30 4290 H 396.153 1.43259 2.62902 0
M  V30 4291 H 393.699 0.690283 1.26377 0
M  V30 4292 H 395.652 -0.437764 4.1912 0
M  V30 4293 H 394.376 -1.03069 3.0991 0
M  V30 4294 H 393.035 1.0621 3.50878 0
M  V30 4295 H 392.683 -0.960188 4.9375 0
M  V30 4296 H 392.383 0.539415 5.85119 0
M  V30 4297 H 393.907 -0.360477 6.09535 0
M  V30 4298 H 395.321 1.8139 5.43848 0
M  V30 4299 H 393.718 2.60444 5.40638 0
M  V30 4300 H 394.788 2.74167 3.99951 0
M  V30 4301 N 396.131 -1.37776 0.765217 0
M  V30 4302 C 397.38 -1.99092 0.323307 0
M  V30 4303 C 397.693 -1.61434 -1.10446 0
M  V30 4304 O 398.899 -2.15805 -1.64743 0
M  V30 4305 C 397.355 -3.56019 0.527098 0
M  V30 4306 C 396.963 -4.0262 1.96471 0
M  V30 4307 C 398.707 -4.2424 0.148483 0
M  V30 4308 C 396.614 -5.52233 2.11644 0
M  V30 4309 H 395.544 -0.744846 0.117137 0
M  V30 4310 H 398.195 -1.57391 0.943417 0
M  V30 4311 H 396.577 -3.95667 -0.162372 0
M  V30 4312 H 397.751 -3.74234 2.68859 0
M  V30 4313 H 396.066 -3.47161 2.29931 0
M  V30 4314 H 398.663 -5.34159 0.240456 0
M  V30 4315 H 399.006 -4.06446 -0.900422 0
M  V30 4316 H 399.539 -3.89872 0.79025 0
M  V30 4317 H 396.278 -5.74945 3.1483 0
M  V30 4318 H 395.798 -5.82324 1.4373 0
M  V30 4319 H 397.477 -6.18106 1.91193 0
M  V30 4320 N 397.609 -0.515225 -1.4894 0
M  V30 4321 C 398.539 0.244628 -2.32215 0
M  V30 4322 C 399.52 0.949136 -1.41157 0
M  V30 4323 O 400.705 0.937783 -1.70057 0
M  V30 4324 C 397.835 1.30096 -3.22013 0
M  V30 4325 C 396.789 0.715486 -4.21977 0
M  V30 4326 C 396.115 1.87339 -5.00808 0
M  V30 4327 C 397.415 -0.302982 -5.2142 0
M  V30 4328 H 399.109 -0.450501 -2.95991 0
M  V30 4329 H 396.655 -0.218098 -1.42339 0
M  V30 4330 H 398.608 1.84037 -3.79089 0
M  V30 4331 H 397.332 2.02547 -2.56207 0
M  V30 4332 H 395.991 0.197715 -3.66066 0
M  V30 4333 H 395.639 2.58592 -4.31438 0
M  V30 4334 H 395.339 1.48764 -5.68457 0
M  V30 4335 H 396.863 2.41686 -5.60732 0
M  V30 4336 H 398.277 0.148802 -5.73107 0
M  V30 4337 H 396.674 -0.60532 -5.97039 0
M  V30 4338 H 397.744 -1.21395 -4.69459 0
M  V30 4339 N 399.087 1.5561 -0.249682 0
M  V30 4340 C 400.498 1.84979 0.252949 0
M  V30 4341 C 400.849 1.17153 1.57384 0
M  V30 4342 O 399.974 0.450884 2.11651 0
M  V30 4343 C 400.569 3.35584 0.465732 0
M  V30 4344 C 399.128 3.65169 0.912624 0
M  V30 4345 C 398.275 2.77299 -0.00859085 0
M  V30 4346 H 401.226 1.51513 -0.47217 0
M  V30 4347 H 401.247 3.57313 1.30795 0
M  V30 4348 H 400.759 3.8492 -0.49579 0
M  V30 4349 H 398.86 3.21312 1.88652 0
M  V30 4350 H 398.973 4.72912 0.767559 0
M  V30 4351 H 397.337 2.49678 0.50327 0
M  V30 4352 H 398.12 3.29442 -0.965537 0
M  V30 4353 N 400.565 -0.0233959 1.57583 0
M  V30 4354 C 401.976 -0.56927 1.77809 0
M  V30 4355 C 402.327 -1.75284 0.881472 0
M  V30 4356 O 401.452 -2.1626 0.0777805 0
M  V30 4357 C 402.047 -1.03949 3.22459 0
M  V30 4358 C 400.606 -1.53084 3.43864 0
M  V30 4359 C 399.753 -0.471454 2.73263 0
M  V30 4360 H 402.704 0.202825 1.57399 0
M  V30 4361 H 402.725 -1.90661 3.29285 0
M  V30 4362 H 402.237 -0.177865 3.87692 0
M  V30 4363 H 400.338 -2.41414 2.83814 0
M  V30 4364 H 400.451 -1.57443 4.52491 0
M  V30 4365 H 398.815 -0.927788 2.37201 0
M  V30 4366 H 399.598 0.380808 3.41181 0
M  V30 4367 N 402.043 -1.548 -0.295768 0
M  V30 4368 C 403.292 -1.73538 -1.02798 0
M  V30 4369 C 403.605 -0.531159 -1.8825 0
M  V30 4370 O 404.811 -0.600458 -2.64777 0
M  V30 4371 C 403.267 -3.07051 -1.87744 0
M  V30 4372 C 402.875 -4.34968 -1.07269 0
M  V30 4373 C 404.619 -3.35146 -2.60533 0
M  V30 4374 C 402.526 -5.5953 -1.91521 0
M  V30 4375 H 401.456 -0.646794 -0.387522 0
M  V30 4376 H 404.107 -1.81278 -0.284718 0
M  V30 4377 H 402.489 -2.93289 -2.66078 0
M  V30 4378 H 403.663 -4.5958 -0.335117 0
M  V30 4379 H 401.978 -4.13847 -0.460384 0
M  V30 4380 H 404.575 -4.2541 -3.23929 0
M  V30 4381 H 404.918 -2.54255 -3.29636 0
M  V30 4382 H 405.451 -3.49902 -1.89244 0
M  V30 4383 H 402.19 -6.43103 -1.26878 0
M  V30 4384 H 401.71 -5.39096 -2.62937 0
M  V30 4385 H 403.389 -5.96982 -2.49442 0
M  V30 4386 N 403.521 0.559213 -1.47345 0
M  V30 4387 C 404.468 1.66645 -1.59682 0
M  V30 4388 C 405.438 1.60168 -0.43994 0
M  V30 4389 O 406.623 1.79031 -0.659736 0
M  V30 4390 C 403.763 3.04969 -1.61518 0
M  V30 4391 C 402.876 3.21897 -2.88108 0
M  V30 4392 C 402.011 4.50608 -2.81294 0
M  V30 4393 C 401.05 4.60961 -4.02717 0
M  V30 4394 N 400.187 5.81024 -3.94151 0
M  V30 4395 H 405.027 1.55439 -2.54249 0
M  V30 4396 H 402.564 0.757219 -1.26113 0
M  V30 4397 H 404.522 3.85064 -1.60566 0
M  V30 4398 H 403.152 3.15015 -0.704645 0
M  V30 4399 H 402.204 2.35248 -2.98936 0
M  V30 4400 H 403.516 3.25412 -3.78032 0
M  V30 4401 H 402.67 5.3896 -2.7858 0
M  V30 4402 H 401.409 4.49568 -1.89049 0
M  V30 4403 H 400.414 3.71021 -4.05738 0
M  V30 4404 H 401.639 4.63761 -4.96087 0
M  V30 4405 H 399.585 5.80938 -3.04708 0
M  V30 4406 H 399.502 5.85909 -4.77752 0
M  V30 4407 H 400.77 6.71744 -3.9545 0
M  V30 4408 N 404.999 1.35443 0.805782 0
M  V30 4409 C 406.245 1.28952 1.56522 0
M  V30 4410 C 406.578 -0.135597 1.93726 0
M  V30 4411 O 405.853 -1.08516 1.61414 0
M  V30 4412 C 406.136 2.19678 2.85331 0
M  V30 4413 C 405.989 3.7081 2.54598 0
M  V30 4414 C 407.308 2.09495 3.8704 0
M  V30 4415 H 404.427 0.469764 0.567883 0
M  V30 4416 H 407.069 1.65851 0.927001 0
M  V30 4417 H 405.219 1.8834 3.39795 0
M  V30 4418 H 406.891 4.12593 2.06312 0
M  V30 4419 H 405.134 3.91051 1.8778 0
M  V30 4420 H 405.805 4.29679 3.46525 0
M  V30 4421 H 408.281 2.37045 3.41978 0
M  V30 4422 H 407.157 2.75173 4.74943 0
M  V30 4423 H 407.418 1.07714 4.28777 0
M  V30 4424 N 406.477 -1.02803 1.19454 0
M  V30 4425 C 407.41 -2.107 0.876396 0
M  V30 4426 C 408.388 -1.61741 -0.166897 0
M  V30 4427 O 409.572 -1.88451 -0.0430195 0
M  V30 4428 C 406.699 -3.37262 0.311758 0
M  V30 4429 C 405.745 -4.05093 1.33424 0
M  V30 4430 S 406.578 -4.50498 2.89503 0
M  V30 4431 C 407.734 -5.80277 2.34584 0
M  V30 4432 H 407.967 -2.37362 1.79016 0
M  V30 4433 H 405.5 -1.15755 1.02177 0
M  V30 4434 H 407.458 -4.10499 -0.00748752 0
M  V30 4435 H 406.119 -3.08693 -0.58032 0
M  V30 4436 H 405.312 -4.9611 0.888302 0
M  V30 4437 H 404.914 -3.3803 1.60037 0
M  V30 4438 H 407.206 -6.54873 1.73633 0
M  V30 4439 H 408.149 -6.29651 3.23952 0
M  V30 4440 H 408.557 -5.3599 1.77131 0
M  V30 4441 N 407.956 -0.998596 -1.21925 0
M  V30 4442 C 409.202 -0.678667 -1.91107 0
M  V30 4443 C 409.535 0.78791 -1.77498 0
M  V30 4444 O 408.81 1.57043 -1.1475 0
M  V30 4445 C 409.093 -1.09245 -3.43129 0
M  V30 4446 C 408.946 -2.61801 -3.6576 0
M  V30 4447 C 410.265 -0.649984 -4.35274 0
M  V30 4448 H 407.384 -0.248025 -0.694012 0
M  V30 4449 H 410.026 -1.24314 -1.43688 0
M  V30 4450 H 408.176 -0.612171 -3.83647 0
M  V30 4451 H 409.848 -3.17543 -3.34611 0
M  V30 4452 H 408.091 -3.03609 -3.09845 0
M  V30 4453 H 408.762 -2.85804 -4.7225 0
M  V30 4454 H 411.238 -1.0626 -4.02303 0
M  V30 4455 H 410.114 -0.967743 -5.40302 0
M  V30 4456 H 410.375 0.449139 -4.39813 0
M  V30 4457 N 409.434 1.37368 -0.772513 0
M  V30 4458 C 410.397 2.28601 -0.165541 0
M  V30 4459 C 411.397 1.48062 0.627238 0
M  V30 4460 O 412.587 1.68268 0.450715 0
M  V30 4461 C 409.719 3.32023 0.772897 0
M  V30 4462 H 410.912 2.83787 -0.969787 0
M  V30 4463 H 408.465 1.46647 -0.540775 0
M  V30 4464 H 409.2 2.81962 1.60212 0
M  V30 4465 H 408.985 3.91555 0.206585 0
M  V30 4466 H 410.475 4.00197 1.19298 0
M  V30 4467 N 410.912 0.523116 1.48665 0
M  V30 4468 C 411.842 -0.23231 2.32342 0
M  V30 4469 C 412.823 -0.941637 1.41659 0
M  V30 4470 O 414.008 -0.928751 1.70552 0
M  V30 4471 C 411.138 -1.28387 3.22698 0
M  V30 4472 C 410.092 -0.693098 4.22351 0
M  V30 4473 C 409.418 -1.8468 5.01794 0
M  V30 4474 C 410.718 0.33063 5.21252 0
M  V30 4475 H 412.412 0.466192 2.95748 0
M  V30 4476 H 409.958 0.225643 1.42221 0
M  V30 4477 H 411.911 -1.82024 3.80059 0
M  V30 4478 H 410.635 -2.01186 2.57278 0
M  V30 4479 H 409.294 -0.178299 3.66166 0
M  V30 4480 H 408.942 -2.56301 4.32804 0
M  V30 4481 H 408.642 -1.45747 5.69238 0
M  V30 4482 H 410.166 -2.38709 5.62006 0
M  V30 4483 H 411.58 -0.118407 5.73178 0
M  V30 4484 H 409.977 0.636974 5.9671 0
M  V30 4485 H 411.047 1.23883 4.68808 0
M  V30 4486 N 412.39 -1.55475 0.257931 0
M  V30 4487 C 413.638 -1.98813 -0.363009 0
M  V30 4488 C 413.959 -1.14757 -1.57657 0
M  V30 4489 O 413.229 -0.232956 -1.9451 0
M  V30 4490 H 411.809 -0.734308 -0.137113 0
M  V30 4491 H 414.471 -1.9156 0.359281 0
M  V30 4492 H 413.567 -3.04941 -0.664634 0
M  V30 4493 N 413.868 0.0150385 -1.57593 0
M  V30 4494 C 414.778 1.02791 -2.10882 0
M  V30 4495 C 415.794 1.38702 -1.0506 0
M  V30 4496 O 416.97 1.47739 -1.36877 0
M  V30 4497 C 414.035 2.30568 -2.58919 0
M  V30 4498 C 413.096 2.01108 -3.79281 0
M  V30 4499 C 412.329 3.22794 -4.25018 0
M  V30 4500 O 412.552 4.33959 -3.70183 0
M  V30 4501 O 411.486 3.07672 -5.17322 0
M  V30 4502 H 415.312 0.604973 -2.97613 0
M  V30 4503 H 412.897 0.23292 -1.47573 0
M  V30 4504 H 414.779 3.05662 -2.90084 0
M  V30 4505 H 413.454 2.72129 -1.75293 0
M  V30 4506 H 412.361 1.23537 -3.53114 0
M  V30 4507 H 413.694 1.64394 -4.63935 0
M  V30 4508 N 415.346 1.54954 0.287554 0
M  V30 4509 C 416.256 1.8991 1.37736 0
M  V30 4510 C 417.272 0.794701 1.54792 0
M  V30 4511 O 418.448 1.09243 1.69198 0
M  V30 4512 C 415.513 2.15108 2.71899 0
M  V30 4513 C 414.574 3.38752 2.63715 0
M  V30 4514 C 413.807 3.62739 3.91479 0
M  V30 4515 O 414.03 2.89492 4.91478 0
M  V30 4516 O 412.964 4.56267 3.92561 0
M  V30 4517 H 416.79 2.82652 1.11092 0
M  V30 4518 H 414.375 1.41315 0.484807 0
M  V30 4519 H 416.257 2.32806 3.51254 0
M  V30 4520 H 414.932 1.25551 2.9836 0
M  V30 4521 H 413.839 3.26405 1.82786 0
M  V30 4522 H 415.172 4.28483 2.42205 0
M  V30 4523 N 416.824 -0.551391 1.4764 0
M  V30 4524 C 418.101 -1.31229 1.45046 0
M  V30 4525 C 418.481 -2.10563 0.150527 0
M  V30 4526 O 417.829 -2.11374 -0.867956 0
M  V30 4527 C 418.039 -2.21189 2.69956 0
M  V30 4528 C 419.387 -2.82021 3.1741 0
M  V30 4529 O 420.411 -2.31488 2.70724 0
M  V30 4530 O 419.27 -3.73885 3.98588 0
M  V30 4531 H 416.364 -0.591193 0.578291 0
M  V30 4532 H 418.91 -0.569813 1.59847 0
M  V30 4533 H 417.682 -1.62207 3.56096 0
M  V30 4534 H 417.305 -3.02722 2.57769 0
M  V30 4535 N 418.302 -1.35869 -0.798587 0
M  V30 4536 C 419.232 -1.32118 -1.92528 0
M  V30 4537 C 420.213 -0.194209 -1.68988 0
M  V30 4538 O 421.398 -0.390426 -1.90235 0
M  V30 4539 C 418.528 -1.10047 -3.29404 0
M  V30 4540 C 417.482 -2.19471 -3.67446 0
M  V30 4541 C 416.808 -1.82555 -5.02571 0
M  V30 4542 C 418.108 -3.61495 -3.76987 0
M  V30 4543 H 419.802 -2.26394 -1.95924 0
M  V30 4544 H 417.348 -1.08981 -0.94123 0
M  V30 4545 H 419.301 -1.06061 -4.07835 0
M  V30 4546 H 418.025 -0.122195 -3.26371 0
M  V30 4547 H 416.684 -2.22568 -2.91306 0
M  V30 4548 H 416.332 -0.833249 -4.9605 0
M  V30 4549 H 416.032 -2.5581 -5.28995 0
M  V30 4550 H 417.556 -1.80108 -5.83432 0
M  V30 4551 H 418.97 -3.60676 -4.4563 0
M  V30 4552 H 417.367 -4.33577 -4.14887 0
M  V30 4553 H 418.437 -3.97065 -2.78329 0
M  V30 4554 N 419.78 1.02168 -1.19998 0
M  V30 4555 C 421.005 1.79833 -1.03319 0
M  V30 4556 C 421.43 1.83504 0.413281 0
M  V30 4557 O 420.788 1.26635 1.29743 0
M  V30 4558 C 420.836 3.22396 -1.61533 0
M  V30 4559 O 419.94 4.03555 -0.849519 0
M  V30 4560 H 419.281 0.554872 -0.364709 0
M  V30 4561 H 421.811 1.28542 -1.59179 0
M  V30 4562 H 421.821 3.73124 -1.65054 0
M  V30 4563 H 420.496 3.19039 -2.66809 0
M  V30 4564 H 419.073 3.62169 -0.888129 0
M  V30 4565 N 421.258 1.00505 1.21394 0
M  V30 4566 C 422.507 0.683159 1.89778 0
M  V30 4567 C 422.82 -0.789471 1.7896 0
M  V30 4568 O 424.026 -1.22344 2.42372 0
M  V30 4569 C 422.482 1.17146 3.40301 0
M  V30 4570 C 422.09 2.67017 3.5973 0
M  V30 4571 C 423.834 0.924461 4.14311 0
M  V30 4572 C 421.741 3.09387 5.04017 0
M  V30 4573 H 420.671 0.25183 0.710702 0
M  V30 4574 H 423.322 1.21622 1.37406 0
M  V30 4575 H 421.704 0.566451 3.91928 0
M  V30 4576 H 422.878 3.32968 3.18542 0
M  V30 4577 H 421.193 2.89732 2.99073 0
M  V30 4578 H 423.79 1.21658 5.20676 0
M  V30 4579 H 424.133 -0.139286 4.16067 0
M  V30 4580 H 424.666 1.49226 3.6875 0
M  V30 4581 H 421.405 4.14989 5.07409 0
M  V30 4582 H 420.925 2.48149 5.46061 0
M  V30 4583 H 422.604 3.01371 5.72525 0
M  V30 4584 N 422.737 -1.36956 0.779787 0
M  V30 4585 C 423.684 -2.30175 0.169697 0
M  V30 4586 C 424.654 -1.51501 -0.68094 0
M  V30 4587 O 425.839 -1.80042 -0.631629 0
M  V30 4588 C 422.979 -3.37985 -0.697131 0
M  V30 4589 C 422.092 -4.31661 0.170992 0
M  V30 4590 C 421.227 -5.2655 -0.701298 0
M  V30 4591 C 420.266 -6.11867 0.168869 0
M  V30 4592 N 419.403 -6.98973 -0.661855 0
M  V30 4593 H 424.243 -2.81767 0.970135 0
M  V30 4594 H 421.78 -1.38699 0.489994 0
M  V30 4595 H 423.738 -3.99128 -1.2146 0
M  V30 4596 H 422.368 -2.87739 -1.46309 0
M  V30 4597 H 421.42 -3.71756 0.80634 0
M  V30 4598 H 422.732 -4.91644 0.841875 0
M  V30 4599 H 421.886 -5.92937 -1.28494 0
M  V30 4600 H 420.625 -4.66998 -1.40584 0
M  V30 4601 H 419.63 -5.44452 0.764986 0
M  V30 4602 H 420.855 -6.73493 0.870863 0
M  V30 4603 H 418.801 -6.41941 -1.35086 0
M  V30 4604 H 418.718 -7.55984 -0.0484447 0
M  V30 4605 H 419.986 -7.6974 -1.22963 0
M  V30 4606 N 424.215 -0.530993 -1.48385 0
M  V30 4607 C 425.148 0.278511 -2.26494 0
M  V30 4608 C 426.126 0.943905 -1.32398 0
M  V30 4609 O 427.31 0.968098 -1.61741 0
M  V30 4610 C 424.437 1.39453 -3.08659 0
M  V30 4611 C 423.483 0.840434 -4.18137 0
M  V30 4612 S 424.316 -0.292496 -5.34701 0
M  V30 4613 C 425.472 0.825973 -6.20426 0
M  V30 4614 H 425.705 -0.384365 -2.94805 0
M  V30 4615 H 423.238 -0.316799 -1.51115 0
M  V30 4616 H 425.196 2.03382 -3.56575 0
M  V30 4617 H 423.857 2.02913 -2.3976 0
M  V30 4618 H 423.05 1.67769 -4.75257 0
M  V30 4619 H 422.652 0.277819 -3.72967 0
M  V30 4620 H 424.944 1.72438 -6.55188 0
M  V30 4621 H 425.887 0.292728 -7.07495 0
M  V30 4622 H 426.295 1.10683 -5.53543 0
M  V30 4623 N 425.693 1.55336 -0.266172 0
M  V30 4624 C 426.918 2.04258 0.359661 0
M  V30 4625 C 427.343 1.14359 1.49344 0
M  V30 4626 O 426.701 0.140369 1.80756 0
M  V30 4627 C 426.749 3.50997 0.826635 0
M  V30 4628 O 425.853 3.64204 1.93466 0
M  V30 4629 H 425.194 0.659668 0.075727 0
M  V30 4630 H 427.724 2.00694 -0.39786 0
M  V30 4631 H 427.734 3.9219 1.12477 0
M  V30 4632 H 426.409 4.159 -0.00293032 0
M  V30 4633 H 424.986 3.34913 1.63974 0
M  V30 4634 N 427.171 -0.0066808 1.57599 0
M  V30 4635 C 428.448 -0.729586 1.81484 0
M  V30 4636 C 428.828 -1.92359 0.869558 0
M  V30 4637 O 428.176 -2.28348 -0.0832533 0
M  V30 4638 C 428.386 -1.1416 3.29801 0
M  V30 4639 C 429.734 -1.54823 3.95367 0
M  V30 4640 O 430.758 -1.23558 3.34084 0
M  V30 4641 O 429.617 -2.12937 5.03309 0
M  V30 4642 H 426.711 -0.354674 0.747085 0
M  V30 4643 H 429.257 0.0182609 1.6969 0
M  V30 4644 H 428.029 -0.290231 3.90222 0
M  V30 4645 H 427.652 -1.94876 3.46568 0
M  V30 4646 N 428.649 -1.55105 -0.279332 0
M  V30 4647 C 430.065 -1.46803 -0.626187 0
M  V30 4648 C 430.265 -0.676939 -1.89789 0
M  V30 4649 O 429.321 -0.19326 -2.51759 0
M  V30 4650 C 430.634 -2.90962 -0.759034 0
M  V30 4651 C 432.182 -3.01138 -0.853504 0
M  V30 4652 C 432.657 -4.46539 -1.01818 0
M  V30 4653 N 434.148 -4.50341 -1.08386 0
M  V30 4654 C 434.883 -5.60053 -1.22996 0
M  V30 4655 N 434.379 -6.79645 -1.34366 0
M  V30 4656 N 436.172 -5.47783 -1.26056 0
M  V30 4657 H 428.323 -2.04996 0.555921 0
M  V30 4658 H 430.586 -0.929325 0.187239 0
M  V30 4659 H 430.292 -3.51544 0.104852 0
M  V30 4660 H 430.166 -3.39619 -1.64131 0
M  V30 4661 H 432.553 -2.40658 -1.70786 0
M  V30 4662 H 432.634 -2.55745 0.0532466 0
M  V30 4663 H 432.278 -5.0762 -0.168504 0
M  V30 4664 H 432.208 -4.89583 -1.93948 0
M  V30 4665 H 434.699 -3.64191 -1.00864 0
M  V30 4666 H 435.012 -7.59012 -1.4533 0
M  V30 4667 H 433.357 -6.82469 -1.31382 0
M  V30 4668 H 436.548 -4.53294 -1.168 0
M  V30 4669 H 436.721 -6.33331 -1.37098 0
M  V30 4670 N 430.127 0.543554 -1.4793 0
M  V30 4671 C 431.375 1.29752 -1.54948 0
M  V30 4672 C 431.696 1.93764 -0.219242 0
M  V30 4673 O 430.966 1.80639 0.75805 0
M  V30 4674 H 429.546 0.481874 -0.570795 0
M  V30 4675 H 432.208 0.633636 -1.84312 0
M  V30 4676 H 431.304 2.08392 -2.32334 0
M  V30 4677 N 431.605 1.3629 0.791371 0
M  V30 4678 C 432.853 1.30154 1.5461 0
M  V30 4679 C 433.174 -0.119409 1.94634 0
M  V30 4680 O 432.444 -1.05924 1.64794 0
M  V30 4681 H 431.024 0.478784 0.573389 0
M  V30 4682 H 433.686 1.70565 0.94306 0
M  V30 4683 H 432.782 1.92762 2.45457 0
M  V30 4684 N 433.083 -1.0153 1.20538 0
M  V30 4685 C 434.331 -1.74803 1.01432 0
M  V30 4686 C 434.652 -1.8963 -0.454456 0
M  V30 4687 O 433.922 -1.43975 -1.32846 0
M  V30 4688 H 432.502 -0.647598 0.372324 0
M  V30 4689 H 435.164 -1.22402 1.5167 0
M  V30 4690 H 434.26 -2.75114 1.47373 0
M  V30 4691 N 434.561 -1.01147 -1.20859 0
M  V30 4692 C 435.807 -0.698899 -1.90377 0
M  V30 4693 C 436.14 0.76904 -1.78324 0
M  V30 4694 O 435.415 1.55817 -1.16409 0
M  V30 4695 C 435.698 -1.12878 -3.41951 0
M  V30 4696 C 435.551 -2.65665 -3.62963 0
M  V30 4697 C 436.87 -0.696114 -4.3456 0
M  V30 4698 H 433.989 -0.255372 -0.691342 0
M  V30 4699 H 436.631 -1.25831 -1.42361 0
M  V30 4700 H 434.781 -0.652827 -3.82976 0
M  V30 4701 H 436.453 -3.21074 -3.31224 0
M  V30 4702 H 434.696 -3.06878 -3.06608 0
M  V30 4703 H 435.367 -2.90797 -4.69192 0
M  V30 4704 H 437.843 -1.10521 -4.01154 0
M  V30 4705 H 436.719 -1.025 -5.39245 0
M  V30 4706 H 436.98 0.402465 -4.40264 0
M  V30 4707 N 436.039 1.36541 -0.78704 0
M  V30 4708 C 437.45 1.81873 -0.421807 0
M  V30 4709 C 437.801 1.65487 1.05397 0
M  V30 4710 O 436.926 1.17448 1.81755 0
M  V30 4711 C 437.521 3.30192 -0.758841 0
M  V30 4712 C 436.08 3.73743 -0.446468 0
M  V30 4713 C 435.227 2.58844 -0.994728 0
M  V30 4714 H 438.178 1.24796 -0.98039 0
M  V30 4715 H 438.199 3.80468 -0.0490648 0
M  V30 4716 H 437.711 3.42087 -1.83299 0
M  V30 4717 H 435.812 3.6741 0.619739 0
M  V30 4718 H 435.925 4.69272 -0.965415 0
M  V30 4719 H 434.289 2.51245 -0.418087 0
M  V30 4720 H 435.072 2.73525 -2.07458 0
M  V30 4721 N 437.518 0.538854 1.48102 0
M  V30 4722 C 438.448 -0.207654 2.32575 0
M  V30 4723 C 439.429 -0.926559 1.4265 0
M  V30 4724 O 440.614 -0.91061 1.71527 0
M  V30 4725 C 437.744 -1.24957 3.24042 0
M  V30 4726 C 436.698 -0.648263 4.23062 0
M  V30 4727 C 436.024 -1.79348 5.03725 0
M  V30 4728 C 437.324 0.385897 5.20872 0
M  V30 4729 H 439.018 0.497534 2.95237 0
M  V30 4730 H 436.564 0.240715 1.41974 0
M  V30 4731 H 438.517 -1.77983 3.81969 0
M  V30 4732 H 437.241 -1.98446 2.59397 0
M  V30 4733 H 435.9 -0.139452 3.66335 0
M  V30 4734 H 435.548 -2.51696 4.35498 0
M  V30 4735 H 435.248 -1.39702 5.70751 0
M  V30 4736 H 436.772 -2.32735 5.64506 0
M  V30 4737 H 438.186 -0.057607 5.73271 0
M  V30 4738 H 436.583 0.700227 5.96001 0
M  V30 4739 H 437.653 1.28848 4.67468 0
M  V30 4740 N 438.996 -1.55193 0.274407 0
M  V30 4741 C 440.412 -1.59401 -0.0797543 0
M  V30 4742 C 440.612 -1.29162 -1.54659 0
M  V30 4743 O 439.668 -1.05215 -2.29534 0
M  V30 4744 C 440.981 -2.99257 0.294238 0
M  V30 4745 C 442.529 -3.12072 0.240796 0
M  V30 4746 C 443.004 -4.54194 0.589218 0
M  V30 4747 N 444.495 -4.60033 0.540744 0
M  V30 4748 C 445.23 -5.68027 0.783147 0
M  V30 4749 N 444.726 -6.8417 1.09013 0
M  V30 4750 N 446.519 -5.57572 0.711993 0
M  V30 4751 H 438.67 -1.73113 1.23067 0
M  V30 4752 H 440.933 -0.807197 0.497129 0
M  V30 4753 H 440.639 -3.26217 1.31435 0
M  V30 4754 H 440.513 -3.75427 -0.365281 0
M  V30 4755 H 442.9 -2.84877 -0.770024 0
M  V30 4756 H 442.981 -2.38117 0.934563 0
M  V30 4757 H 442.625 -4.82115 1.59772 0
M  V30 4758 H 442.555 -5.26448 -0.126331 0
M  V30 4759 H 445.046 -3.76599 0.313327 0
M  V30 4760 H 445.359 -7.6243 1.26178 0
M  V30 4761 H 443.704 -6.85787 1.12789 0
M  V30 4762 H 446.895 -4.65714 0.472014 0
M  V30 4763 H 447.068 -6.41659 0.90429 0
M  V30 4764 N 440.474 -0.00167713 -1.576 0
M  V30 4765 C 441.421 0.989195 -2.08527 0
M  V30 4766 C 442.391 1.34031 -0.981065 0
M  V30 4767 O 443.576 1.43839 -1.2536 0
M  V30 4768 C 440.716 2.27537 -2.59463 0
M  V30 4769 C 439.829 1.98314 -3.83791 0
M  V30 4770 C 438.964 3.21025 -4.23222 0
M  V30 4771 C 438.003 2.87495 -5.40382 0
M  V30 4772 N 437.14 4.02749 -5.75098 0
M  V30 4773 H 441.98 0.547973 -2.92919 0
M  V30 4774 H 439.517 0.258917 -1.44803 0
M  V30 4775 H 441.475 3.02729 -2.87073 0
M  V30 4776 H 440.105 2.69325 -1.77943 0
M  V30 4777 H 439.157 1.13482 -3.63078 0
M  V30 4778 H 440.469 1.69601 -4.69081 0
M  V30 4779 H 439.623 4.04561 -4.52123 0
M  V30 4780 H 438.362 3.52877 -3.36644 0
M  V30 4781 H 437.367 2.02367 -5.11202 0
M  V30 4782 H 438.592 2.56889 -6.28637 0
M  V30 4783 H 436.538 4.34494 -4.91478 0
M  V30 4784 H 436.455 3.77566 -6.54966 0
M  V30 4785 H 437.723 4.87068 -6.08592 0
M  V30 4786 N 441.952 1.55251 0.271103 0
M  V30 4787 C 443.201 1.75151 1.00025 0
M  V30 4788 C 443.514 0.561041 1.87381 0
M  V30 4789 O 444.72 0.642506 2.63788 0
M  V30 4790 C 443.176 3.09999 1.82835 0
M  V30 4791 C 442.784 4.3662 1.00336 0
M  V30 4792 C 444.528 3.39249 2.55168 0
M  V30 4793 C 442.435 5.62506 1.82595 0
M  V30 4794 H 441.365 0.652877 0.377183 0
M  V30 4795 H 444.016 1.81708 0.255843 0
M  V30 4796 H 442.398 2.97485 2.61378 0
M  V30 4797 H 443.572 4.60055 0.261959 0
M  V30 4798 H 441.887 4.14527 0.394486 0
M  V30 4799 H 444.484 4.3051 3.1712 0
M  V30 4800 H 444.827 2.59467 3.2555 0
M  V30 4801 H 445.36 3.52869 1.83653 0
M  V30 4802 H 442.099 6.45041 1.16631 0
M  V30 4803 H 441.619 5.43211 2.54327 0
M  V30 4804 H 443.298 6.00875 2.39913 0
M  V30 4805 N 443.43 -0.535701 1.48216 0
M  V30 4806 C 444.34 -1.66785 1.64985 0
M  V30 4807 C 445.356 -1.65654 0.532414 0
M  V30 4808 O 446.532 -1.8471 0.80275 0
M  V30 4809 C 443.597 -3.0326 1.68031 0
M  V30 4810 C 442.658 -3.1529 2.9136 0
M  V30 4811 C 441.891 -4.45255 2.94252 0
M  V30 4812 O 442.114 -5.32011 2.05719 0
M  V30 4813 O 441.048 -4.6153 3.86359 0
M  V30 4814 H 444.874 -1.55576 2.60825 0
M  V30 4815 H 442.459 -0.70815 1.31551 0
M  V30 4816 H 444.341 -3.84436 1.72589 0
M  V30 4817 H 443.016 -3.14805 0.753628 0
M  V30 4818 H 441.923 -2.3343 2.92337 0
M  V30 4819 H 443.256 -3.08658 3.83394 0
M  V30 4820 N 444.908 -1.36708 -0.784132 0
M  V30 4821 C 446.324 -1.17237 -1.08294 0
M  V30 4822 C 446.524 -5.93947e-05 -2.015 0
M  V30 4823 O 445.58 0.663686 -2.43622 0
M  V30 4824 C 446.893 -2.48557 -1.69233 0
M  V30 4825 C 448.441 -2.54968 -1.8155 0
M  V30 4826 C 448.916 -3.86388 -2.45904 0
M  V30 4827 N 450.407 -3.87762 -2.53367 0
M  V30 4828 C 451.142 -4.86191 -3.03983 0
M  V30 4829 N 450.638 -5.95015 -3.54866 0
M  V30 4830 N 452.431 -4.73606 -3.02743 0
M  V30 4831 H 444.582 -2.11758 -0.16501 0
M  V30 4832 H 446.845 -0.93822 -0.135822 0
M  V30 4833 H 446.551 -3.34638 -1.08215 0
M  V30 4834 H 446.425 -2.64748 -2.68679 0
M  V30 4835 H 448.812 -1.69302 -2.41704 0
M  V30 4836 H 448.893 -2.42672 -0.80895 0
M  V30 4837 H 448.537 -4.72462 -1.86392 0
M  V30 4838 H 448.467 -3.95982 -3.4714 0
M  V30 4839 H 450.958 -3.09145 -2.17343 0
M  V30 4840 H 451.271 -6.66086 -3.91854 0
M  V30 4841 H 449.616 -5.98676 -3.53003 0
M  V30 4842 H 452.807 -3.87717 -2.62284 0
M  V30 4843 H 452.98 -5.50473 -3.41881 0
M  V30 4844 N 446.386 1.0089 -1.21074 0
M  V30 4845 C 447.316 2.1145 -0.990523 0
M  V30 4846 C 448.297 1.69897 0.0831699 0
M  V30 4847 O 449.482 1.94052 -0.0758853 0
M  V30 4848 C 446.612 3.42914 -0.550177 0
M  V30 4849 C 445.566 3.98244 -1.56799 0
M  V30 4850 C 444.892 5.25568 -0.984013 0
M  V30 4851 C 446.192 4.30752 -2.95381 0
M  V30 4852 H 447.886 2.3013 -1.91521 0
M  V30 4853 H 445.432 1.10592 -0.92225 0
M  V30 4854 H 447.385 4.19653 -0.383305 0
M  V30 4855 H 446.109 3.24014 0.41015 0
M  V30 4856 H 444.768 3.23621 -1.72236 0
M  V30 4857 H 444.416 5.02998 -0.0155216 0
M  V30 4858 H 444.116 5.63551 -1.66384 0
M  V30 4859 H 445.64 6.04955 -0.828378 0
M  V30 4860 H 447.054 4.98349 -2.8341 0
M  V30 4861 H 445.451 4.79869 -3.60341 0
M  V30 4862 H 446.521 3.39192 -3.46521 0
M  V30 4863 N 447.864 1.01787 1.20321 0
M  V30 4864 C 449.111 0.707936 1.89722 0
M  V30 4865 C 449.439 -0.762535 1.78929 0
M  V30 4866 O 448.694 -1.56977 1.16861 0
M  V30 4867 C 448.993 1.09076 3.40349 0
M  V30 4868 C 448.659 2.55765 3.71342 0
M  V30 4869 C 447.321 2.95845 3.79511 0
M  V30 4870 C 449.673 3.50723 3.85542 0
M  V30 4871 C 447.001 4.2982 3.99339 0
M  V30 4872 C 449.353 4.84387 4.06881 0
M  V30 4873 C 448.017 5.24172 4.1328 0
M  V30 4874 H 447.287 0.259052 0.694243 0
M  V30 4875 H 449.934 1.27868 1.42555 0
M  V30 4876 H 448.239 0.438453 3.89339 0
M  V30 4877 H 449.936 0.828636 3.92345 0
M  V30 4878 H 446.526 2.2371 3.65584 0
M  V30 4879 H 450.71 3.20916 3.78585 0
M  V30 4880 H 445.966 4.60196 4.02529 0
M  V30 4881 H 450.14 5.57891 4.1681 0
M  V30 4882 H 447.767 6.27997 4.28396 0
M  V30 4883 N 449.342 -1.36122 0.79427 0
M  V30 4884 C 450.567 -2.03891 0.379871 0
M  V30 4885 C 450.992 -1.59488 -0.997251 0
M  V30 4886 O 450.35 -0.765652 -1.64339 0
M  V30 4887 C 450.398 -3.57687 0.457442 0
M  V30 4888 O 449.502 -4.08931 -0.5338 0
M  V30 4889 H 448.843 -0.6443 0.160541 0
M  V30 4890 H 451.373 -1.73976 1.07673 0
M  V30 4891 H 451.383 -4.06721 0.322792 0
M  V30 4892 H 450.058 -3.89357 1.46199 0
M  V30 4893 H 448.635 -3.71154 -0.360409 0
M  V30 4894 N 450.82 -0.546701 -1.47814 0
M  V30 4895 C 452.05 -0.0232519 -2.06587 0
M  V30 4896 C 452.458 1.2712 -1.40133 0
M  V30 4897 O 451.801 1.77091 -0.488305 0
M  V30 4898 C 451.863 0.254117 -3.58601 0
M  V30 4899 C 451.527 -0.949331 -4.47031 0
M  V30 4900 C 452.524 -1.85216 -4.85789 0
M  V30 4901 C 450.209 -1.16104 -4.88697 0
M  V30 4902 C 452.203 -2.95047 -5.65001 0
M  V30 4903 C 449.89 -2.26247 -5.67676 0
M  V30 4904 C 450.888 -3.1555 -6.05737 0
M  V30 4905 O 450.576 -4.23784 -6.83127 0
M  V30 4906 H 450.308 -0.0380082 -0.674931 0
M  V30 4907 H 452.862 -0.756631 -1.90956 0
M  V30 4908 H 451.092 1.04168 -3.72406 0
M  V30 4909 H 452.781 0.72167 -3.99433 0
M  V30 4910 H 453.547 -1.70061 -4.54207 0
M  V30 4911 H 449.426 -0.475159 -4.58545 0
M  V30 4912 H 452.97 -3.64778 -5.94628 0
M  V30 4913 H 448.867 -2.41379 -5.98671 0
M  V30 4914 H 449.635 -4.21701 -7.01506 0
M  V30 4915 N 452.299 1.55045 -0.282633 0
M  V30 4916 C 453.232 2.18951 0.64311 0
M  V30 4917 C 454.21 1.15287 1.14664 0
M  V30 4918 O 455.394 1.43846 1.21822 0
M  V30 4919 C 452.521 2.81874 1.87789 0
M  V30 4920 C 451.567 3.98906 1.50919 0
M  V30 4921 S 452.4 5.3234 0.580884 0
M  V30 4922 C 453.556 5.98737 1.82387 0
M  V30 4923 H 453.789 2.97131 0.100138 0
M  V30 4924 H 451.322 1.54255 -0.0668514 0
M  V30 4925 H 453.28 3.18757 2.58658 0
M  V30 4926 H 451.941 2.03573 2.392 0
M  V30 4927 H 451.134 4.4165 2.42819 0
M  V30 4928 H 450.736 3.63485 0.88061 0
M  V30 4929 H 453.028 6.18427 2.76684 0
M  V30 4930 H 453.971 6.93318 1.4393 0
M  V30 4931 H 454.379 5.28177 1.99223 0
M  V30 4932 N 453.777 0.010035 1.57597 0
M  V30 4933 C 455.007 -0.682422 1.95004 0
M  V30 4934 C 455.415 -1.67278 0.884014 0
M  V30 4935 O 454.758 -1.83129 -0.144672 0
M  V30 4936 C 454.82 -1.46141 3.28456 0
M  V30 4937 C 454.484 -0.631523 4.52615 0
M  V30 4938 C 455.481 0.0850905 5.1983 0
M  V30 4939 C 453.166 -0.574539 4.99003 0
M  V30 4940 C 455.16 0.847566 6.3174 0
M  V30 4941 C 452.847 0.191655 6.10799 0
M  V30 4942 C 453.845 0.901432 6.77025 0
M  V30 4943 O 453.533 1.65511 7.86677 0
M  V30 4944 H 453.265 -0.194361 0.647456 0
M  V30 4945 H 455.819 0.060312 2.05311 0
M  V30 4946 H 454.049 -2.24885 3.14585 0
M  V30 4947 H 455.738 -2.04016 3.50902 0
M  V30 4948 H 456.504 0.0502812 4.84974 0
M  V30 4949 H 452.383 -1.11654 4.47274 0
M  V30 4950 H 455.927 1.4021 6.83364 0
M  V30 4951 H 451.824 0.228249 6.45096 0
M  V30 4952 H 452.592 1.57287 8.03245 0
M  V30 4953 N 455.255 -1.55392 -0.262866 0
M  V30 4954 C 456.48 -1.80847 -1.01533 0
M  V30 4955 C 456.905 -0.584946 -1.78774 0
M  V30 4956 O 456.263 0.465701 -1.75217 0
M  V30 4957 C 456.311 -3.03866 -1.94159 0
M  V30 4958 O 455.415 -2.79662 -3.03089 0
M  V30 4959 H 454.756 -0.597441 -0.289759 0
M  V30 4960 H 457.286 -2.02553 -0.288698 0
M  V30 4961 H 457.296 -3.32872 -2.35924 0
M  V30 4962 H 455.971 -3.92564 -1.37354 0
M  V30 4963 H 454.548 -2.61781 -2.65566 0
M  V30 4964 N 456.733 0.527833 -1.48498 0
M  V30 4965 C 457.961 1.30823 -1.6029 0
M  V30 4966 C 458.376 1.86945 -0.263974 0
M  V30 4967 O 457.733 1.6651 0.747034 0
M  V30 4968 C 457.784 2.45756 -2.65116 0
M  V30 4969 O 457.505 1.91946 -3.93813 0
M  V30 4970 C 459.006 3.37543 -2.87367 0
M  V30 4971 H 456.226 0.397763 -0.540394 0
M  V30 4972 H 458.77 0.636529 -1.94341 0
M  V30 4973 H 456.925 3.08806 -2.33917 0
M  V30 4974 H 457.339 2.67195 -4.51339 0
M  V30 4975 H 458.813 4.14532 -3.6451 0
M  V30 4976 H 459.29 3.92905 -1.9627 0
M  V30 4977 H 459.896 2.80283 -3.19878 0
M  V30 4978 N 458.211 1.37122 0.776871 0
M  V30 4979 C 459.174 1.32301 1.8716 0
M  V30 4980 C 460.174 0.228099 1.59174 0
M  V30 4981 O 461.364 0.483642 1.67352 0
M  V30 4982 C 458.496 1.054 3.24197 0
M  V30 4983 H 459.689 2.29673 1.92848 0
M  V30 4984 H 457.242 1.22077 0.97606 0
M  V30 4985 H 457.977 0.0853872 3.24188 0
M  V30 4986 H 457.762 1.84648 3.45901 0
M  V30 4987 H 459.252 1.04664 4.04271 0
M  V30 4988 N 459.689 -1.00246 1.21608 0
M  V30 4989 C 461.1 -1.55511 1.03312 0
M  V30 4990 C 461.451 -1.91946 -0.406332 0
M  V30 4991 O 460.576 -1.73753 -1.28992 0
M  V30 4992 C 461.171 -2.82576 1.86913 0
M  V30 4993 C 459.73 -3.34318 1.72941 0
M  V30 4994 C 458.877 -2.07487 1.83968 0
M  V30 4995 H 461.828 -0.824638 1.35593 0
M  V30 4996 H 461.849 -3.54559 1.38087 0
M  V30 4997 H 461.361 -2.56026 2.91672 0
M  V30 4998 H 459.462 -3.65797 0.70877 0
M  V30 4999 H 459.575 -4.05566 2.55055 0
M  V30 5000 H 457.939 -2.20603 1.27304 0
M  V30 5001 H 458.722 -1.83346 2.9024 0
M  V30 5002 N 461.167 -1.02423 -1.1978 0
M  V30 5003 C 462.395 -0.737456 -1.93311 0
M  V30 5004 C 462.81 0.703023 -1.75223 0
M  V30 5005 O 462.167 1.47761 -1.07112 0
M  V30 5006 C 462.218 -1.0733 -3.45199 0
M  V30 5007 O 461.939 -2.4572 -3.62702 0
M  V30 5008 C 463.44 -0.80866 -4.35862 0
M  V30 5009 H 460.66 -0.2702 -0.614193 0
M  V30 5010 H 463.204 -1.36747 -1.52054 0
M  V30 5011 H 461.359 -0.488545 -3.84307 0
M  V30 5012 H 461.773 -2.58081 -4.56612 0
M  V30 5013 H 463.247 -1.09365 -5.41057 0
M  V30 5014 H 463.724 0.257025 -4.38447 0
M  V30 5015 H 464.33 -1.37592 -4.02428 0
M  V30 5016 N 462.645 1.35699 -0.801477 0
M  V30 5017 C 464.056 1.81415 -0.441073 0
M  V30 5018 C 464.407 1.66595 1.03636 0
M  V30 5019 O 463.532 1.19369 1.80499 0
M  V30 5020 C 464.127 3.29369 -0.793819 0
M  V30 5021 C 462.686 3.73248 -0.486083 0
M  V30 5022 C 461.833 2.57775 -1.02213 0
M  V30 5023 H 464.784 1.23749 -0.993572 0
M  V30 5024 H 464.805 3.80395 -0.0894158 0
M  V30 5025 H 464.317 3.40123 -1.86917 0
M  V30 5026 H 462.418 3.68046 0.580735 0
M  V30 5027 H 462.531 4.68222 -1.01513 0
M  V30 5028 H 460.895 2.50788 -0.444712 0
M  V30 5029 H 461.678 2.71309 -2.10348 0
M  V30 5030 N 464.123 0.554532 1.47522 0
M  V30 5031 C 465.055 -0.232106 2.28022 0
M  V30 5032 C 466.068 -0.881865 1.36847 0
M  V30 5033 O 467.257 -0.756168 1.61692 0
M  V30 5034 C 464.357 -1.34604 3.11022 0
M  V30 5035 C 463.53 -0.793582 4.30141 0
M  V30 5036 C 462.589 -1.79168 4.94758 0
M  V30 5037 O 461.615 -1.33886 5.5323 0
M  V30 5038 N 462.817 -3.12495 4.89211 0
M  V30 5039 H 465.582 0.458407 2.96173 0
M  V30 5040 H 463.143 0.390433 1.57122 0
M  V30 5041 H 465.135 -2.01243 3.51118 0
M  V30 5042 H 463.705 -1.93983 2.45131 0
M  V30 5043 H 462.925 0.0495025 3.94169 0
M  V30 5044 H 464.213 -0.403776 5.07195 0
M  V30 5045 H 463.611 -3.51931 4.42901 0
M  V30 5046 H 462.168 -3.74698 5.33333 0
M  V30 5047 N 465.601 -1.54893 0.290851 0
M  V30 5048 C 467.012 -1.85584 -0.203816 0
M  V30 5049 C 467.363 -1.21285 -1.54222 0
M  V30 5050 O 466.488 -0.506841 -2.10381 0
M  V30 5051 C 467.083 -3.367 -0.376595 0
M  V30 5052 C 465.642 -3.6746 -0.815485 0
M  V30 5053 C 464.789 -2.77178 0.0821087 0
M  V30 5054 H 467.74 -1.50208 0.512175 0
M  V30 5055 H 467.761 -3.60656 -1.21275 0
M  V30 5056 H 467.273 -3.8347 0.59767 0
M  V30 5057 H 465.374 -3.26201 -1.80066 0
M  V30 5058 H 465.487 -4.7478 -0.641905 0
M  V30 5059 H 463.851 -2.50925 -0.436895 0
M  V30 5060 H 464.634 -3.26767 1.05254 0
M  V30 5061 N 467.08 -0.0183926 -1.57589 0
M  V30 5062 C 468.328 0.661253 -1.90976 0
M  V30 5063 C 468.649 1.73281 -0.894353 0
M  V30 5064 O 467.919 1.9579 0.0656788 0
M  V30 5065 H 466.499 0.247233 -0.704901 0
M  V30 5066 H 469.161 -0.0636639 -1.94796 0
M  V30 5067 H 468.257 1.12083 -2.9128 0
M  V30 5068 N 468.558 1.5553 0.254621 0
M  V30 5069 C 469.786 1.81046 1.00149 0
M  V30 5070 C 470.201 0.593047 1.79244 0
M  V30 5071 O 469.558 -0.438196 1.77161 0
M  V30 5072 C 469.609 3.04684 1.94551 0
M  V30 5073 O 469.33 4.21725 1.18658 0
M  V30 5074 C 470.831 3.42943 2.80901 0
M  V30 5075 H 468.051 0.602653 0.295044 0
M  V30 5076 H 470.595 2.02576 0.279842 0
M  V30 5077 H 468.75 2.85226 2.62154 0
M  V30 5078 H 469.164 4.91746 1.82445 0
M  V30 5079 H 470.638 4.32576 3.42902 0
M  V30 5080 H 471.115 2.63176 3.51617 0
M  V30 5081 H 471.721 3.64724 2.18762 0
M  V30 5082 N 470.036 -0.519951 1.48776 0
M  V30 5083 C 471.284 -1.2727 1.56993 0
M  V30 5084 C 471.605 -1.9339 0.25004 0
M  V30 5085 O 470.875 -1.81822 -0.729216 0
M  V30 5086 H 469.455 -0.472732 0.578389 0
M  V30 5087 H 472.117 -0.604234 1.85297 0
M  V30 5088 H 471.213 -2.04669 2.3562 0
M  V30 5089 N 471.514 -1.37532 -0.769588 0
M  V30 5090 C 472.762 -1.32597 -1.5252 0
M  V30 5091 C 473.083 0.0884294 -1.94799 0
M  V30 5092 O 472.353 1.03289 -1.66458 0
M  V30 5093 H 470.933 -0.487846 -0.565699 0
M  V30 5094 H 473.595 -1.72044 -0.915806 0
M  V30 5095 H 472.691 -1.96643 -2.42359 0
M  V30 5096 N 472.992 0.995999 -1.22138 0
M  V30 5097 C 474.22 1.77066 -1.07029 0
M  V30 5098 C 474.635 1.8495 0.379357 0
M  V30 5099 O 473.992 1.3174 1.26297 0
M  V30 5100 C 474.043 3.20533 -1.67155 0
M  V30 5101 O 473.764 3.13082 -3.06449 0
M  V30 5102 C 475.265 4.14461 -1.5728 0
M  V30 5103 H 472.485 0.556179 -0.375374 0
M  V30 5104 H 475.029 1.25238 -1.61666 0
M  V30 5105 H 473.184 3.6944 -1.16589 0
M  V30 5106 H 473.598 4.03283 -3.35355 0
M  V30 5107 H 475.072 5.1289 -2.04078 0
M  V30 5108 H 475.549 4.36005 -0.528795 0
M  V30 5109 H 476.155 3.71449 -2.07136 0
M  V30 5110 N 474.47 1.03057 1.19235 0
M  V30 5111 C 475.881 0.757449 1.70645 0
M  V30 5112 C 476.232 -0.722735 1.82403 0
M  V30 5113 O 475.357 -1.56325 1.49638 0
M  V30 5114 C 475.952 1.36833 3.09939 0
M  V30 5115 C 474.511 1.14375 3.58602 0
M  V30 5116 C 473.658 1.46533 2.35422 0
M  V30 5117 H 476.609 1.19828 1.04052 0
M  V30 5118 H 476.63 0.766184 3.72706 0
M  V30 5119 H 476.142 2.44562 3.01349 0
M  V30 5120 H 474.243 0.0847542 3.72504 0
M  V30 5121 H 474.356 1.83366 4.42622 0
M  V30 5122 H 472.72 0.884712 2.38841 0
M  V30 5123 H 473.503 2.55349 2.2946 0
M  V30 5124 N 475.948 -1.35272 0.808662 0
M  V30 5125 C 476.878 -2.32315 0.234981 0
M  V30 5126 C 477.859 -1.57572 -0.64071 0
M  V30 5127 O 479.044 -1.8563 -0.570551 0
M  V30 5128 C 476.174 -3.41801 -0.615601 0
M  V30 5129 C 475.128 -4.27694 0.161767 0
M  V30 5130 C 474.454 -5.28519 -0.810649 0
M  V30 5131 C 475.754 -5.04231 1.36193 0
M  V30 5132 H 477.448 -2.80543 1.04575 0
M  V30 5133 H 474.994 -1.3488 0.504315 0
M  V30 5134 H 476.947 -4.08693 -1.02702 0
M  V30 5135 H 475.671 -2.92186 -1.45928 0
M  V30 5136 H 474.33 -3.62384 0.554382 0
M  V30 5137 H 473.978 -4.75171 -1.64988 0
M  V30 5138 H 473.678 -5.8686 -0.294822 0
M  V30 5139 H 475.202 -5.98283 -1.22023 0
M  V30 5140 H 476.616 -5.64058 1.02528 0
M  V30 5141 H 475.013 -5.72077 1.81239 0
M  V30 5142 H 476.083 -4.34753 2.14751 0
M  V30 5143 N 477.426 -0.562348 -1.47226 0
M  V30 5144 C 478.389 0.172056 -2.28553 0
M  V30 5145 C 479.389 0.837928 -1.37242 0
M  V30 5146 O 480.579 0.693001 -1.59822 0
M  V30 5147 C 477.711 1.25223 -3.17068 0
M  V30 5148 H 478.904 -0.542401 -2.94954 0
M  V30 5149 H 476.457 -0.319493 -1.53 0
M  V30 5150 H 477.192 1.99892 -2.55369 0
M  V30 5151 H 476.977 0.779515 -3.84273 0
M  V30 5152 H 478.467 1.76791 -3.78332 0
M  V30 5153 N 478.904 1.54736 -0.299062 0
M  V30 5154 C 480.152 1.99706 0.31017 0
M  V30 5155 C 480.473 1.18896 1.54559 0
M  V30 5156 O 479.743 0.284445 1.93824 0
M  V30 5157 H 478.323 0.737686 0.117596 0
M  V30 5158 H 480.985 1.9054 -0.409943 0
M  V30 5159 H 480.081 3.06596 0.58355 0
M  V30 5160 N 480.382 0.0267497 1.57577 0
M  V30 5161 C 481.629 -0.652404 1.91703 0
M  V30 5162 C 481.957 -1.72271 0.902936 0
M  V30 5163 O 481.212 -1.955 -0.0884843 0
M  V30 5164 C 481.511 -1.30914 3.3256 0
M  V30 5165 C 481.177 -0.369441 4.49384 0
M  V30 5166 C 479.839 -0.110791 4.81072 0
M  V30 5167 C 482.191 0.275971 5.20469 0
M  V30 5168 C 479.519 0.801116 5.81205 0
M  V30 5169 C 481.871 1.17592 6.21575 0
M  V30 5170 C 480.535 1.44348 6.51705 0
M  V30 5171 H 479.805 -0.238732 0.70149 0
M  V30 5172 H 482.452 0.0880091 1.91298 0
M  V30 5173 H 480.757 -2.12425 3.29216 0
M  V30 5174 H 482.454 -1.84115 3.56234 0
M  V30 5175 H 479.044 -0.581211 4.24641 0
M  V30 5176 H 483.228 0.0892 4.9622 0
M  V30 5177 H 478.484 1.01614 6.02897 0
M  V30 5178 H 482.658 1.68223 6.75777 0
M  V30 5179 H 480.285 2.15176 7.29111 0
M  V30 5180 N 481.861 -1.55662 -0.24637 0
M  V30 5181 C 483.109 -1.77168 -0.972411 0
M  V30 5182 C 483.43 -0.590827 -1.85834 0
M  V30 5183 O 482.7 0.393365 -1.9191 0
M  V30 5184 H 481.28 -0.653405 -0.362038 0
M  V30 5185 H 483.942 -1.93101 -0.264189 0
M  V30 5186 H 483.038 -2.68335 -1.59382 0
M  V30 5187 N 483.339 0.512053 -1.4905 0
M  V30 5188 C 484.569 1.28928 -1.61434 0
M  V30 5189 C 484.977 1.87107 -0.280647 0
M  V30 5190 O 484.32 1.68024 0.742537 0
M  V30 5191 C 484.382 2.466 -2.61588 0
M  V30 5192 C 484.046 2.09375 -4.06216 0
M  V30 5193 C 485.043 1.63994 -4.93358 0
M  V30 5194 C 482.728 2.19348 -4.51876 0
M  V30 5195 C 484.722 1.29076 -6.24194 0
M  V30 5196 C 482.409 1.84041 -5.82728 0
M  V30 5197 C 483.407 1.38978 -6.68711 0
M  V30 5198 O 483.095 1.04144 -7.97126 0
M  V30 5199 H 482.827 0.397668 -0.546659 0
M  V30 5200 H 485.381 0.622507 -1.9574 0
M  V30 5201 H 483.611 3.16318 -2.22441 0
M  V30 5202 H 485.3 3.08642 -2.63619 0
M  V30 5203 H 486.066 1.55744 -4.59313 0
M  V30 5204 H 481.945 2.53376 -3.85125 0
M  V30 5205 H 485.489 0.938303 -6.91261 0
M  V30 5206 H 481.386 1.91938 -6.16304 0
M  V30 5207 H 482.154 1.17387 -8.10039 0
M  V30 5208 N 484.817 1.37938 0.762283 0
M  V30 5209 C 486.065 1.33404 1.51815 0
M  V30 5210 C 486.386 -0.0780975 1.94844 0
M  V30 5211 O 485.656 -1.02405 1.67003 0
M  V30 5212 H 484.236 0.490839 0.563104 0
M  V30 5213 H 486.898 1.72527 0.906669 0
M  V30 5214 H 485.994 1.97926 2.41313 0
M  V30 5215 N 486.295 -0.989507 1.22664 0
M  V30 5216 C 487.225 -2.09847 1.02404 0
M  V30 5217 C 488.206 -1.70007 -0.0561303 0
M  V30 5218 O 489.391 -1.93906 0.106748 0
M  V30 5219 C 486.521 -3.41996 0.604663 0
M  V30 5220 C 485.475 -3.95699 1.63115 0
M  V30 5221 C 484.801 -5.23936 1.0675 0
M  V30 5222 C 486.101 -4.25999 3.02196 0
M  V30 5223 H 487.795 -2.27054 1.95158 0
M  V30 5224 H 485.341 -1.09111 0.939727 0
M  V30 5225 H 487.294 -4.1899 0.45002 0
M  V30 5226 H 486.018 -3.24626 -0.35855 0
M  V30 5227 H 484.677 -3.2084 1.77362 0
M  V30 5228 H 484.325 -5.02909 0.0955422 0
M  V30 5229 H 484.025 -5.60833 1.75328 0
M  V30 5230 H 485.549 -6.0356 0.924516 0
M  V30 5231 H 486.963 -4.93777 2.91303 0
M  V30 5232 H 485.36 -4.74076 3.67929 0
M  V30 5233 H 486.43 -3.33636 3.51873 0
M  V30 5234 N 487.773 -1.03688 -1.18687 0
M  V30 5235 C 489.184 -0.766488 -1.70241 0
M  V30 5236 C 489.535 0.713052 -1.82784 0
M  V30 5237 O 488.66 1.55529 -1.50465 0
M  V30 5238 C 489.255 -1.38475 -3.09209 0
M  V30 5239 C 487.814 -1.16276 -3.5799 0
M  V30 5240 C 486.961 -1.4778 -2.34641 0
M  V30 5241 H 489.912 -1.20378 -1.03415 0
M  V30 5242 H 489.933 -0.785939 -3.72295 0
M  V30 5243 H 489.445 -2.46157 -3.00048 0
M  V30 5244 H 487.546 -0.104508 -3.72453 0
M  V30 5245 H 487.659 -1.8571 -4.41643 0
M  V30 5246 H 486.023 -0.897366 -2.38368 0
M  V30 5247 H 486.806 -2.56562 -2.28102 0
M  V30 5248 N 489.251 1.34841 -0.815825 0
M  V30 5249 C 490.5 1.97755 -0.396976 0
M  V30 5250 C 490.813 1.65422 1.04379 0
M  V30 5251 O 492.019 2.21771 1.5662 0
M  V30 5252 C 490.475 3.53818 -0.658869 0
M  V30 5253 C 490.083 3.95051 -2.11278 0
M  V30 5254 C 491.827 4.23397 -0.305834 0
M  V30 5255 C 489.734 5.43997 -2.31994 0
M  V30 5256 H 488.664 0.739985 -0.1447 0
M  V30 5257 H 491.315 1.53781 -1.00118 0
M  V30 5258 H 489.697 3.95997 0.0154112 0
M  V30 5259 H 490.871 3.63998 -2.82564 0
M  V30 5260 H 489.186 3.38388 -2.42657 0
M  V30 5261 H 491.783 5.32899 -0.43854 0
M  V30 5262 H 492.126 4.09508 0.748952 0
M  V30 5263 H 492.659 3.8667 -0.934403 0
M  V30 5264 H 489.398 5.62865 -3.35952 0
M  V30 5265 H 488.918 5.76589 -1.65244 0
M  V30 5266 H 490.597 6.10584 -2.14001 0
M  V30 5267 N 490.729 0.570148 1.46925 0
M  V30 5268 C 491.954 0.0542592 2.07329 0
M  V30 5269 C 492.379 -1.23582 1.41806 0
M  V30 5270 O 491.737 -1.74341 0.497479 0
M  V30 5271 C 491.785 -0.111175 3.60429 0
M  V30 5272 O 490.889 -1.17071 3.95434 0
M  V30 5273 H 490.23 0.0571425 0.661537 0
M  V30 5274 H 492.76 0.789516 1.88753 0
M  V30 5275 H 492.77 -0.321315 4.06733 0
M  V30 5276 H 491.445 0.831012 4.07513 0
M  V30 5277 H 490.022 -0.940029 3.60857 0
M  V30 5278 N 492.207 -1.54576 0.307264 0
M  V30 5279 C 493.623 -1.59534 -0.0459251 0
M  V30 5280 C 493.823 -1.32414 -1.51884 0
M  V30 5281 O 492.879 -1.1006 -2.27251 0
M  V30 5282 C 494.192 -2.98566 0.357649 0
M  V30 5283 C 495.74 -3.11491 0.306937 0
M  V30 5284 C 496.215 -4.52842 0.685427 0
M  V30 5285 N 497.706 -4.58782 0.638203 0
M  V30 5286 C 498.441 -5.66238 0.903458 0
M  V30 5287 N 497.937 -6.81703 1.23501 0
M  V30 5288 N 499.73 -5.55937 0.830102 0
M  V30 5289 H 491.881 -1.70464 1.26712 0
M  V30 5290 H 494.144 -0.79647 0.514139 0
M  V30 5291 H 493.85 -3.23356 1.38325 0
M  V30 5292 H 493.724 -3.76117 -0.285565 0
M  V30 5293 H 496.111 -2.86446 -0.709424 0
M  V30 5294 H 496.192 -2.36081 0.984861 0
M  V30 5295 H 495.836 -4.78618 1.69963 0
M  V30 5296 H 495.766 -5.26598 -0.0146346 0
M  V30 5297 H 498.257 -3.75849 0.393138 0
M  V30 5298 H 498.57 -7.59582 1.42322 0
M  V30 5299 H 496.915 -6.8324 1.27311 0
M  V30 5300 H 500.106 -4.64608 0.570693 0
M  V30 5301 H 500.279 -6.39597 1.04019 0
M  V30 5302 N 493.685 -0.035106 -1.57561 0
M  V30 5303 C 494.615 0.942993 -2.13612 0
M  V30 5304 C 495.596 1.33531 -1.05373 0
M  V30 5305 O 496.781 1.41287 -1.33235 0
M  V30 5306 C 493.911 2.22332 -2.66807 0
M  V30 5307 C 492.865 1.97156 -3.79886 0
M  V30 5308 C 492.191 3.31506 -4.19533 0
M  V30 5309 C 493.491 1.30596 -5.05709 0
M  V30 5310 H 495.185 0.476179 -2.95589 0
M  V30 5311 H 492.731 0.227602 -1.4219 0
M  V30 5312 H 494.684 2.91142 -3.04654 0
M  V30 5313 H 493.408 2.7119 -1.81999 0
M  V30 5314 H 492.067 1.30763 -3.42486 0
M  V30 5315 H 491.715 3.78134 -3.31698 0
M  V30 5316 H 491.415 3.15465 -4.95738 0
M  V30 5317 H 492.939 4.01574 -4.59968 0
M  V30 5318 H 494.353 1.89416 -5.41105 0
M  V30 5319 H 492.75 1.24934 -5.86951 0
M  V30 5320 H 493.82 0.279742 -4.84092 0
M  V30 5321 N 495.163 1.55791 0.238111 0
M  V30 5322 C 496.393 1.81834 0.980809 0
M  V30 5323 C 496.801 0.609741 1.79106 0
M  V30 5324 O 496.144 -0.431073 1.78571 0
M  V30 5325 C 496.206 3.01363 1.96011 0
M  V30 5326 C 495.87 4.37037 1.33597 0
M  V30 5327 C 496.867 5.14692 0.734063 0
M  V30 5328 C 494.552 4.83743 1.3527 0
M  V30 5329 C 496.546 6.37206 0.157208 0
M  V30 5330 C 494.233 6.06204 0.77199 0
M  V30 5331 C 495.231 6.82775 0.175282 0
M  V30 5332 O 494.919 8.02922 -0.396432 0
M  V30 5333 H 494.651 0.6088 0.293834 0
M  V30 5334 H 497.205 2.03702 0.263552 0
M  V30 5335 H 495.435 2.75273 2.71591 0
M  V30 5336 H 497.124 3.14422 2.56697 0
M  V30 5337 H 497.89 4.79722 0.713582 0
M  V30 5338 H 493.769 4.24129 1.80653 0
M  V30 5339 H 497.313 6.96915 -0.30917 0
M  V30 5340 H 493.21 6.4065 0.789828 0
M  V30 5341 H 493.978 8.17989 -0.289145 0
M  V30 5342 N 496.642 -0.504142 1.49319 0
M  V30 5343 C 497.605 -1.5883 1.65244 0
M  V30 5344 C 498.605 -1.52009 0.524386 0
M  V30 5345 O 499.795 -1.55218 0.79077 0
M  V30 5346 C 496.927 -2.98481 1.64687 0
M  V30 5347 H 498.12 -1.4604 2.61939 0
M  V30 5348 H 495.673 -0.728144 1.38303 0
M  V30 5349 H 496.408 -3.16751 0.695644 0
M  V30 5350 H 496.193 -3.0484 2.46607 0
M  V30 5351 H 497.683 -3.77256 1.79075 0
M  V30 5352 N 498.12 -1.38341 -0.754957 0
M  V30 5353 C 499.067 -1.3546 -1.86867 0
M  V30 5354 C 500.037 -0.217369 -1.64672 0
M  V30 5355 O 501.222 -0.409383 -1.86356 0
M  V30 5356 C 498.362 -1.18413 -3.24149 0
M  V30 5357 C 497.475 -2.41511 -3.58185 0
M  V30 5358 C 496.61 -2.17205 -4.84763 0
M  V30 5359 C 495.649 -3.36081 -5.11582 0
M  V30 5360 N 494.786 -3.11219 -6.29354 0
M  V30 5361 H 499.626 -2.30672 -1.88664 0
M  V30 5362 H 497.163 -1.14607 -0.922154 0
M  V30 5363 H 499.121 -1.06545 -4.03366 0
M  V30 5364 H 497.751 -0.268397 -3.21682 0
M  V30 5365 H 496.803 -2.64056 -2.73822 0
M  V30 5366 H 498.115 -3.30115 -3.73932 0
M  V30 5367 H 497.269 -2.02465 -5.7192 0
M  V30 5368 H 496.008 -1.25964 -4.71152 0
M  V30 5369 H 495.013 -3.51341 -4.22894 0
M  V30 5370 H 496.238 -4.28196 -5.27091 0
M  V30 5371 H 494.184 -2.22624 -6.17069 0
M  V30 5372 H 494.101 -3.93373 -6.45596 0
M  V30 5373 H 495.369 -3.00132 -7.19403 0
M  V30 5374 N 499.598 0.982988 -1.23187 0
M  V30 5375 C 500.828 1.75666 -1.08743 0
M  V30 5376 C 501.236 1.85662 0.364195 0
M  V30 5377 O 500.579 1.33317 1.26382 0
M  V30 5378 C 500.641 3.20144 -1.63549 0
M  V30 5379 C 500.305 3.33665 -3.12277 0
M  V30 5380 C 501.302 3.20194 -4.096 0
M  V30 5381 C 498.987 3.58397 -3.51933 0
M  V30 5382 C 500.981 3.31256 -5.44563 0
M  V30 5383 C 498.668 3.69098 -4.87042 0
M  V30 5384 C 499.666 3.55537 -5.83166 0
M  V30 5385 O 499.354 3.65864 -7.1582 0
M  V30 5386 H 499.086 0.558194 -0.381307 0
M  V30 5387 H 501.64 1.24387 -1.63454 0
M  V30 5388 H 499.87 3.72659 -1.03256 0
M  V30 5389 H 501.559 3.79262 -1.4462 0
M  V30 5390 H 502.325 3.00987 -3.80305 0
M  V30 5391 H 498.204 3.68025 -2.77631 0
M  V30 5392 H 501.748 3.20588 -6.19572 0
M  V30 5393 H 497.645 3.87814 -5.16014 0
M  V30 5394 H 498.413 3.82675 -7.23534 0
M  V30 5395 N 501.076 1.04316 1.18135 0
M  V30 5396 C 502.323 0.74802 1.88178 0
M  V30 5397 C 502.651 -0.72441 1.80506 0
M  V30 5398 O 501.906 -1.54463 1.20165 0
M  V30 5399 C 502.205 1.16271 3.37958 0
M  V30 5400 C 501.871 2.63585 3.65833 0
M  V30 5401 C 500.533 3.03829 3.73151 0
M  V30 5402 C 502.885 3.58822 3.78016 0
M  V30 5403 C 500.213 4.38194 3.90132 0
M  V30 5404 C 502.565 4.92909 3.96514 0
M  V30 5405 C 501.229 5.3282 4.02068 0
M  V30 5406 H 500.499 0.27372 0.688592 0
M  V30 5407 H 503.146 1.30863 1.39811 0
M  V30 5408 H 501.451 0.520938 3.88321 0
M  V30 5409 H 503.148 0.911672 3.90499 0
M  V30 5410 H 499.738 2.31414 3.60757 0
M  V30 5411 H 503.922 3.28875 3.71692 0
M  V30 5412 H 499.178 4.68631 3.92677 0
M  V30 5413 H 503.352 5.66606 4.04883 0
M  V30 5414 H 500.979 6.36943 4.14979 0
M  V30 5415 N 502.554 -1.34406 0.822964 0
M  V30 5416 C 503.486 -2.28305 0.202375 0
M  V30 5417 C 504.499 -1.5103 -0.60777 0
M  V30 5418 O 505.688 -1.73057 -0.437444 0
M  V30 5419 C 502.788 -3.30836 -0.734911 0
M  V30 5420 C 501.961 -4.37388 0.0324177 0
M  V30 5421 C 501.02 -5.1968 -0.825803 0
M  V30 5422 O 500.046 -5.68556 -0.270771 0
M  V30 5423 N 501.248 -5.39393 -2.14558 0
M  V30 5424 H 504.013 -2.82201 1.00909 0
M  V30 5425 H 501.574 -1.4693 0.67993 0
M  V30 5426 H 503.566 -3.82786 -1.31365 0
M  V30 5427 H 502.136 -2.77334 -1.44238 0
M  V30 5428 H 501.356 -3.86152 0.792469 0
M  V30 5429 H 502.644 -5.05702 0.560633 0
M  V30 5430 H 502.042 -5.01357 -2.62025 0
M  V30 5431 H 500.599 -5.94461 -2.67318 0
M  V30 5432 N 504.032 -0.577932 -1.46621 0
M  V30 5433 C 505.28 -0.061566 -2.02006 0
M  V30 5434 C 505.601 1.30117 -1.4524 0
M  V30 5435 O 504.871 1.85313 -0.63529 0
M  V30 5436 H 503.451 -0.0197692 -0.746738 0
M  V30 5437 H 506.113 -0.752631 -1.79782 0
M  V30 5438 H 505.209 0.0110238 -3.12098 0
M  V30 5439 N 505.51 1.54411 -0.315457 0
M  V30 5440 C 506.787 1.92562 0.343398 0
M  V30 5441 C 507.167 1.24423 1.70535 0
M  V30 5442 O 506.515 0.385051 2.25232 0
M  V30 5443 C 506.725 3.46168 0.443687 0
M  V30 5444 C 508.073 4.18659 0.707783 0
M  V30 5445 O 509.097 3.52281 0.52693 0
M  V30 5446 O 507.956 5.36198 1.05612 0
M  V30 5447 H 505.05 0.80379 0.194552 0
M  V30 5448 H 507.596 1.65738 -0.364577 0
M  V30 5449 H 506.368 3.8792 -0.513172 0
M  V30 5450 H 505.991 3.79073 1.19956 0
M  V30 5451 N 506.988 0.0434614 1.5754 0
M  V30 5452 C 507.918 -0.931651 2.14109 0
M  V30 5453 C 508.899 -1.32971 1.06079 0
M  V30 5454 O 510.084 -1.40579 1.33982 0
M  V30 5455 C 507.214 -2.20914 2.67982 0
M  V30 5456 C 506.168 -1.95139 3.80926 0
M  V30 5457 C 505.494 -3.29276 4.21285 0
M  V30 5458 C 506.794 -1.27913 5.06395 0
M  V30 5459 H 508.488 -0.460497 2.95837 0
M  V30 5460 H 506.034 -0.220058 1.42309 0
M  V30 5461 H 507.987 -2.89522 3.06194 0
M  V30 5462 H 506.711 -2.70221 1.83434 0
M  V30 5463 H 505.37 -1.28945 3.43175 0
M  V30 5464 H 505.018 -3.76369 3.33699 0
M  V30 5465 H 504.718 -3.12831 4.97404 0
M  V30 5466 H 506.242 -3.99129 4.62091 0
M  V30 5467 H 507.656 -1.86544 5.42102 0
M  V30 5468 H 506.053 -1.2182 5.87605 0
M  V30 5469 H 507.123 -0.254066 4.84234 0
M  V30 5470 N 508.466 -1.55915 -0.229846 0
M  V30 5471 C 509.398 -1.88209 -1.30805 0
M  V30 5472 C 510.411 -0.769672 -1.43457 0
M  V30 5473 O 511.6 -1.04792 -1.44502 0
M  V30 5474 C 508.7 -2.06829 -2.68468 0
M  V30 5475 C 507.873 -3.37798 -2.77869 0
M  V30 5476 C 506.932 -3.45952 -3.96489 0
M  V30 5477 O 505.958 -4.19043 -3.85216 0
M  V30 5478 N 507.16 -2.76488 -5.10426 0
M  V30 5479 H 509.925 -2.81286 -1.03431 0
M  V30 5480 H 507.486 -1.5636 -0.41991 0
M  V30 5481 H 509.478 -2.09608 -3.46189 0
M  V30 5482 H 508.048 -1.20416 -2.88477 0
M  V30 5483 H 507.268 -3.4719 -1.86689 0
M  V30 5484 H 508.556 -4.24091 -2.81113 0
M  V30 5485 H 507.954 -2.16868 -5.2248 0
M  V30 5486 H 506.511 -2.84938 -5.8622 0
M  V30 5487 N 509.944 0.496216 -1.49584 0
M  V30 5488 C 510.874 1.60576 -1.69521 0
M  V30 5489 C 511.855 1.61169 -0.543933 0
M  V30 5490 O 513.04 1.77834 -0.78031 0
M  V30 5491 C 510.17 2.99038 -1.76616 0
M  V30 5492 C 509.124 3.13312 -2.91581 0
M  V30 5493 C 508.45 4.53172 -2.83794 0
M  V30 5494 C 509.75 2.92886 -4.32452 0
M  V30 5495 H 511.444 1.44146 -2.62416 0
M  V30 5496 H 508.99 0.692024 -1.26282 0
M  V30 5497 H 510.943 3.76564 -1.8915 0
M  V30 5498 H 509.667 3.16568 -0.80324 0
M  V30 5499 H 508.326 2.38213 -2.78658 0
M  V30 5500 H 507.974 4.67585 -1.854 0
M  V30 5501 H 507.674 4.63662 -3.60958 0
M  V30 5502 H 509.198 5.32752 -2.98342 0
M  V30 5503 H 510.612 3.60178 -4.46032 0
M  V30 5504 H 509.009 3.14844 -5.10875 0
M  V30 5505 H 510.079 1.88966 -4.46565 0
M  V30 5506 N 511.423 1.38739 0.74761 0
M  V30 5507 C 512.67 1.35274 1.50689 0
M  V30 5508 C 512.998 -0.0553359 1.94421 0
M  V30 5509 O 512.253 -1.03365 1.66175 0
M  V30 5510 C 512.552 2.25992 2.7688 0
M  V30 5511 C 512.218 3.73854 2.5208 0
M  V30 5512 C 510.88 4.14145 2.45025 0
M  V30 5513 C 513.232 4.67427 2.30568 0
M  V30 5514 C 510.56 5.4609 2.14483 0
M  V30 5515 C 512.912 5.99635 2.01545 0
M  V30 5516 C 511.576 6.39004 1.92951 0
M  V30 5517 H 510.846 0.495003 0.55141 0
M  V30 5518 H 513.493 1.71145 0.859158 0
M  V30 5519 H 511.798 1.83196 3.46333 0
M  V30 5520 H 513.495 2.20611 3.34861 0
M  V30 5521 H 510.085 3.41913 2.58444 0
M  V30 5522 H 514.269 4.3714 2.34994 0
M  V30 5523 H 509.525 5.75528 2.06342 0
M  V30 5524 H 513.699 6.71678 1.83906 0
M  V30 5525 H 511.326 7.41165 1.6905 0
M  V30 5526 N 512.901 -0.976442 1.23707 0
M  V30 5527 C 514.126 -1.75875 1.09922 0
M  V30 5528 C 514.551 -1.84911 -0.34489 0
M  V30 5529 O 513.909 -1.31363 -1.24954 0
M  V30 5530 C 513.957 -3.16179 1.73388 0
M  V30 5531 O 513.061 -4.00124 0.99871 0
M  V30 5532 H 512.402 -0.540954 0.385052 0
M  V30 5533 H 514.932 -1.22546 1.6384 0
M  V30 5534 H 514.942 -3.66741 1.78788 0
M  V30 5535 H 513.617 -3.08917 2.78466 0
M  V30 5536 H 512.194 -3.58624 1.02193 0
M  V30 5537 N 514.379 -1.04941 -1.1758 0
M  V30 5538 C 515.312 -0.592518 -2.20373 0
M  V30 5539 C 516.29 0.377561 -1.58156 0
M  V30 5540 O 517.474 0.28978 -1.86259 0
M  V30 5541 C 514.601 0.133215 -3.38438 0
M  V30 5542 C 513.647 -0.791484 -4.19092 0
M  V30 5543 S 514.48 -2.27925 -4.84572 0
M  V30 5544 C 515.636 -1.56462 -6.06028 0
M  V30 5545 H 515.869 -1.46342 -2.58788 0
M  V30 5546 H 513.402 -0.861148 -1.28155 0
M  V30 5547 H 515.36 0.545746 -4.06856 0
M  V30 5548 H 514.021 0.980124 -2.98416 0
M  V30 5549 H 513.214 -0.230039 -5.03475 0
M  V30 5550 H 512.816 -1.14326 -3.56098 0
M  V30 5551 H 515.108 -0.862539 -6.71987 0
M  V30 5552 H 516.051 -2.38583 -6.66696 0
M  V30 5553 H 516.459 -1.05313 -5.5459 0
M  V30 5554 N 515.857 1.33968 -0.830081 0
M  V30 5555 C 516.767 2.33164 -0.259207 0
M  V30 5556 C 517.783 1.62951 0.610164 0
M  V30 5557 O 518.959 1.94668 0.516369 0
M  V30 5558 C 516.024 3.42088 0.563598 0
M  V30 5559 C 515.085 4.28037 -0.329014 0
M  V30 5560 C 514.318 5.3176 0.454616 0
M  V30 5561 O 514.541 5.44876 1.6872 0
M  V30 5562 O 513.475 6.01669 -0.166794 0
M  V30 5563 H 517.301 2.83832 -1.08041 0
M  V30 5564 H 514.886 1.37154 -0.59239 0
M  V30 5565 H 516.768 4.08581 1.03147 0
M  V30 5566 H 515.443 2.93651 1.36201 0
M  V30 5567 H 514.35 3.64443 -0.844538 0
M  V30 5568 H 515.683 4.79934 -1.09196 0
M  V30 5569 N 517.335 0.585699 1.46312 0
M  V30 5570 C 518.583 0.072278 2.01971 0
M  V30 5571 C 518.904 -1.29345 1.45928 0
M  V30 5572 O 518.174 -1.84973 0.645109 0
M  V30 5573 H 516.754 0.023729 0.746623 0
M  V30 5574 H 519.416 0.762155 1.7938 0
M  V30 5575 H 518.512 0.00552767 3.121 0
M  V30 5576 N 518.813 -1.54241 0.323641 0
M  V30 5577 C 520.06 -2.0057 -0.27891 0
M  V30 5578 C 520.388 -1.21181 -1.52136 0
M  V30 5579 O 519.643 -0.282043 -1.93657 0
M  V30 5580 C 519.942 -3.5129 -0.658031 0
M  V30 5581 C 519.608 -4.48281 0.485252 0
M  V30 5582 C 518.27 -4.74519 0.799055 0
M  V30 5583 C 520.622 -5.05909 1.25322 0
M  V30 5584 C 517.95 -5.55643 1.88354 0
M  V30 5585 C 520.302 -5.88215 2.32779 0
M  V30 5586 C 518.966 -6.12755 2.64741 0
M  V30 5587 H 518.236 -0.733938 -0.10206 0
M  V30 5588 H 520.883 -1.862 0.447435 0
M  V30 5589 H 519.188 -3.63388 -1.4648 0
M  V30 5590 H 520.885 -3.84578 -1.1358 0
M  V30 5591 H 517.475 -4.27979 0.230593 0
M  V30 5592 H 521.659 -4.8562 1.02404 0
M  V30 5593 H 516.915 -5.72888 2.13564 0
M  V30 5594 H 521.089 -6.31888 2.92729 0
M  V30 5595 H 518.716 -6.75404 3.48904 0
M  V30 5596 N 520.291 -0.0518155 -1.57515 0
M  V30 5597 C 521.539 0.620595 -1.92336 0
M  V30 5598 C 521.86 1.71345 -0.930907 0
M  V30 5599 O 521.13 1.95885 0.0241341 0
M  V30 5600 H 519.71 0.232226 -0.709986 0
M  V30 5601 H 522.372 -0.104969 -1.94617 0
M  V30 5602 H 521.468 1.05879 -2.93592 0
M  V30 5603 N 521.769 1.56035 0.221574 0
M  V30 5604 C 522.997 1.8313 0.962864 0
M  V30 5605 C 523.412 0.630934 1.77946 0
M  V30 5606 O 522.769 -0.400519 1.78051 0
M  V30 5607 C 522.82 3.08742 1.88045 0
M  V30 5608 O 522.541 4.24147 1.09686 0
M  V30 5609 C 524.042 3.48824 2.73563 0
M  V30 5610 H 521.262 0.608775 0.282194 0
M  V30 5611 H 523.806 2.03124 0.23681 0
M  V30 5612 H 521.961 2.90723 2.56045 0
M  V30 5613 H 522.375 4.95505 1.71974 0
M  V30 5614 H 523.849 4.39752 3.3365 0
M  V30 5615 H 524.326 2.70575 3.45956 0
M  V30 5616 H 524.932 3.69282 2.10976 0
M  V30 5617 N 523.247 -0.488276 1.49845 0
M  V30 5618 C 524.524 -1.24959 1.50481 0
M  V30 5619 C 524.904 -2.09735 0.239698 0
M  V30 5620 O 524.252 -2.14865 -0.777524 0
M  V30 5621 C 524.462 -2.0954 2.79095 0
M  V30 5622 C 525.81 -2.68305 3.29086 0
M  V30 5623 O 526.834 -2.19797 2.80299 0
M  V30 5624 O 525.693 -3.56643 4.14087 0
M  V30 5625 H 522.787 -0.566133 0.602845 0
M  V30 5626 H 525.333 -0.501504 1.6212 0
M  V30 5627 H 524.105 -1.46958 3.62656 0
M  V30 5628 H 523.728 -2.91517 2.70377 0
M  V30 5629 N 524.725 -1.39134 -0.740242 0
M  V30 5630 C 525.688 -1.37217 -1.83587 0
M  V30 5631 C 526.688 -0.270221 -1.58513 0
M  V30 5632 O 527.878 -0.527843 -1.6601 0
M  V30 5633 C 525.01 -1.13959 -3.21288 0
M  V30 5634 H 526.203 -2.34705 -1.86691 0
M  V30 5635 H 523.756 -1.24622 -0.94335 0
M  V30 5636 H 524.491 -0.17131 -3.23847 0
M  V30 5637 H 524.276 -1.93754 -3.40884 0
M  V30 5638 H 525.766 -1.15346 -4.01354 0
M  V30 5639 N 526.204 0.969867 -1.24223 0
M  V30 5640 C 527.45 1.7151 -1.08223 0
M  V30 5641 C 527.783 1.90478 0.37838 0
M  V30 5642 O 527.058 1.4647 1.27971 0
M  V30 5643 C 527.341 3.10714 -1.82013 0
M  V30 5644 C 527.194 2.9925 -3.35811 0
M  V30 5645 C 528.513 4.10332 -1.59108 0
M  V30 5646 H 525.632 0.622499 -0.394543 0
M  V30 5647 H 528.274 1.1284 -1.52863 0
M  V30 5648 H 526.424 3.608 -1.44068 0
M  V30 5649 H 528.096 2.56608 -3.83341 0
M  V30 5650 H 526.339 2.35512 -3.64303 0
M  V30 5651 H 527.01 3.97857 -3.82641 0
M  V30 5652 H 529.486 3.69097 -1.92111 0
M  V30 5653 H 528.362 5.05804 -2.13198 0
M  V30 5654 H 528.623 4.38926 -0.528832 0
M  V30 5655 N 527.682 1.05563 1.17022 0
M  V30 5656 C 528.931 0.763036 1.8671 0
M  V30 5657 C 529.244 -0.712857 1.82147 0
M  V30 5658 O 530.45 -1.11955 2.47343 0
M  V30 5659 C 528.906 1.31474 3.35026 0
M  V30 5660 C 528.514 2.82034 3.48081 0
M  V30 5661 C 530.258 1.09935 4.10018 0
M  V30 5662 C 528.165 3.30486 4.90442 0
M  V30 5663 H 527.095 0.281747 0.699382 0
M  V30 5664 H 529.746 1.2734 1.32124 0
M  V30 5665 H 528.128 0.732171 3.89173 0
M  V30 5666 H 529.302 3.46178 3.04133 0
M  V30 5667 H 527.617 3.02156 2.86515 0
M  V30 5668 H 530.214 1.43632 5.15048 0
M  V30 5669 H 530.557 0.0373072 4.16283 0
M  V30 5670 H 531.09 1.64732 3.62089 0
M  V30 5671 H 527.829 4.36137 4.89352 0
M  V30 5672 H 527.349 2.71086 5.35044 0
M  V30 5673 H 529.028 3.25382 5.59227 0
M  V30 5674 N 529.16 -1.33526 0.837174 0
M  V30 5675 C 530.39 -2.01754 0.444848 0
M  V30 5676 C 530.798 -1.63149 -0.958072 0
M  V30 5677 O 530.141 -0.839827 -1.63379 0
M  V30 5678 C 530.203 -3.56228 0.483917 0
M  V30 5679 C 529.867 -4.18205 1.84265 0
M  V30 5680 C 530.864 -4.37699 2.80563 0
M  V30 5681 C 528.549 -4.54667 2.13503 0
M  V30 5682 C 530.543 -4.928 4.04261 0
M  V30 5683 C 528.23 -5.09475 3.37458 0
M  V30 5684 C 529.228 -5.28488 4.32654 0
M  V30 5685 O 528.916 -5.82132 5.54417 0
M  V30 5686 H 528.648 -0.652928 0.175104 0
M  V30 5687 H 531.202 -1.71469 1.13082 0
M  V30 5688 H 529.432 -3.85833 -0.258826 0
M  V30 5689 H 531.121 -4.05752 0.109653 0
M  V30 5690 H 531.887 -4.0988 2.59274 0
M  V30 5691 H 527.766 -4.39164 1.40201 0
M  V30 5692 H 531.31 -5.07555 4.78574 0
M  V30 5693 H 527.207 -5.36725 3.58604 0
M  V30 5694 H 527.975 -6.00548 5.56133 0
M  V30 5695 N 530.638 -0.59345 -1.46 0
M  V30 5696 C 531.568 0.121192 -2.33185 0
M  V30 5697 C 532.549 0.872977 -1.4599 0
M  V30 5698 O 533.734 0.846321 -1.74789 0
M  V30 5699 C 530.864 1.12844 -3.28456 0
M  V30 5700 C 529.818 0.4908 -4.25177 0
M  V30 5701 C 529.144 1.60529 -5.10034 0
M  V30 5702 C 530.444 -0.578949 -5.19081 0
M  V30 5703 H 532.138 -0.606767 -2.93187 0
M  V30 5704 H 529.684 -0.293242 -1.40983 0
M  V30 5705 H 531.637 1.63684 -3.88311 0
M  V30 5706 H 530.361 1.88681 -2.66584 0
M  V30 5707 H 529.02 0.00339328 -3.666 0
M  V30 5708 H 528.668 2.35359 -4.44539 0
M  V30 5709 H 528.368 1.18422 -5.75543 0
M  V30 5710 H 529.892 2.11623 -5.72755 0
M  V30 5711 H 531.306 -0.155199 -5.7309 0
M  V30 5712 H 529.703 -0.920947 -5.92991 0
M  V30 5713 H 530.773 -1.46109 -4.62364 0
M  V30 5714 N 532.116 1.54067 -0.331816 0
M  V30 5715 C 533.063 2.24623 0.530372 0
M  V30 5716 C 534.033 1.24009 1.10503 0
M  V30 5717 O 535.218 1.52712 1.14384 0
M  V30 5718 C 532.358 3.01374 1.68129 0
M  V30 5719 C 531.471 4.16821 1.13507 0
M  V30 5720 C 530.606 4.81085 2.25234 0
M  V30 5721 C 529.645 5.88621 1.67903 0
M  V30 5722 N 528.782 6.46713 2.73326 0
M  V30 5723 H 533.622 2.97898 -0.0778607 0
M  V30 5724 H 531.159 1.47014 -0.0501965 0
M  V30 5725 H 533.117 3.44125 2.35868 0
M  V30 5726 H 531.747 2.30419 2.26069 0
M  V30 5727 H 530.799 3.78796 0.348979 0
M  V30 5728 H 532.111 4.94203 0.675633 0
M  V30 5729 H 531.265 5.26846 3.00862 0
M  V30 5730 H 530.004 4.03102 2.74518 0
M  V30 5731 H 529.009 5.42254 0.907773 0
M  V30 5732 H 530.234 6.68506 1.19487 0
M  V30 5733 H 528.18 5.71599 3.21886 0
M  V30 5734 H 528.097 7.19532 2.3197 0
M  V30 5735 H 529.365 6.97129 3.48758 0
M  V30 5736 N 533.594 0.0601682 1.57485 0
M  V30 5737 C 534.557 -0.896373 2.10945 0
M  V30 5738 C 535.557 -1.23402 1.03095 0
M  V30 5739 O 536.747 -1.16921 1.29132 0
M  V30 5740 C 533.879 -2.20346 2.60116 0
M  V30 5741 H 535.072 -0.432778 2.96761 0
M  V30 5742 H 532.625 -0.188372 1.55161 0
M  V30 5743 H 533.36 -2.71268 1.7772 0
M  V30 5744 H 533.145 -1.9714 3.38937 0
M  V30 5745 H 534.635 -2.88846 3.01592 0
M  V30 5746 N 535.072 -1.5615 -0.213296 0
M  V30 5747 C 536.002 -1.96109 -1.26742 0
M  V30 5748 C 536.983 -0.830448 -1.48451 0
M  V30 5749 O 538.168 -1.09339 -1.60495 0
M  V30 5750 C 535.298 -2.28492 -2.61551 0
M  V30 5751 C 534.252 -3.44124 -2.54485 0
M  V30 5752 C 533.578 -3.62134 -3.93399 0
M  V30 5753 C 534.878 -4.78855 -2.08556 0
M  V30 5754 H 536.572 -2.84412 -0.935434 0
M  V30 5755 H 534.118 -1.36836 -0.44854 0
M  V30 5756 H 536.071 -2.55039 -3.3546 0
M  V30 5757 H 534.795 -1.37052 -2.96453 0
M  V30 5758 H 533.454 -3.17639 -1.83033 0
M  V30 5759 H 533.102 -2.68055 -4.25623 0
M  V30 5760 H 532.802 -4.39913 -3.89551 0
M  V30 5761 H 534.326 -3.91038 -4.68958 0
M  V30 5762 H 535.74 -5.04552 -2.72213 0
M  V30 5763 H 534.137 -5.59975 -2.1575 0
M  V30 5764 H 535.207 -4.73657 -1.03811 0
M  V30 5765 N 536.55 0.480323 -1.50102 0
M  V30 5766 C 537.775 1.26126 -1.64642 0
M  V30 5767 C 538.2 1.85257 -0.325823 0
M  V30 5768 O 537.558 1.66854 0.709194 0
M  V30 5769 C 537.606 2.35243 -2.73301 0
M  V30 5770 O 536.71 3.39646 -2.33911 0
M  V30 5771 H 536.051 0.371463 -0.550374 0
M  V30 5772 H 538.581 0.572696 -1.96421 0
M  V30 5773 H 538.591 2.80695 -2.96098 0
M  V30 5774 H 537.266 1.91574 -3.6915 0
M  V30 5775 H 535.843 2.99969 -2.21525 0
M  V30 5776 N 538.028 1.39524 0.732853 0
M  V30 5777 C 539.256 1.40143 1.52209 0
M  V30 5778 C 539.671 -0.00348836 1.888 0
M  V30 5779 O 539.028 -0.975357 1.5425 0
M  V30 5780 C 539.079 2.27632 2.8083 0
M  V30 5781 O 538.8 3.62654 2.45792 0
M  V30 5782 C 540.301 2.36658 3.74844 0
M  V30 5783 H 537.521 0.478604 0.470297 0
M  V30 5784 H 540.065 1.83366 0.905388 0
M  V30 5785 H 538.22 1.87818 3.38826 0
M  V30 5786 H 538.634 4.08941 3.28431 0
M  V30 5787 H 540.108 3.02118 4.61984 0
M  V30 5788 H 540.585 1.38638 4.16745 0
M  V30 5789 H 541.191 2.76951 3.22766 0
M  V30 5790 N 539.506 -0.963266 1.24736 0
M  V30 5791 C 540.783 -1.68248 0.9976 0
M  V30 5792 C 541.163 -2.05599 -0.478776 0
M  V30 5793 O 540.511 -1.7626 -1.45412 0
M  V30 5794 C 540.721 -2.91118 1.92487 0
M  V30 5795 C 542.069 -3.63261 2.19833 0
M  V30 5796 O 543.093 -3.01184 1.90176 0
M  V30 5797 O 541.952 -4.75019 2.7022 0
M  V30 5798 H 539.046 -0.735744 0.377637 0
M  V30 5799 H 541.592 -1.01696 1.35853 0
M  V30 5800 H 540.364 -2.60242 2.92215 0
M  V30 5801 H 539.987 -3.65402 1.56738 0
M  V30 5802 N 540.985 -1.06182 -1.16461 0
M  V30 5803 C 542.21 -0.798599 -1.91408 0
M  V30 5804 C 542.635 0.640987 -1.76842 0
M  V30 5805 O 541.993 1.44652 -1.09296 0
M  V30 5806 C 542.041 -1.19665 -3.40165 0
M  V30 5807 O 541.145 -0.334768 -4.11039 0
M  V30 5808 H 540.486 -0.291961 -0.596368 0
M  V30 5809 H 543.016 -1.41732 -1.47557 0
M  V30 5810 H 543.026 -1.16772 -3.90933 0
M  V30 5811 H 541.701 -2.24526 -3.50087 0
M  V30 5812 H 540.278 -0.425168 -3.70468 0
M  V30 5813 N 542.463 1.3308 -0.844243 0
M  V30 5814 C 543.709 1.97898 -0.443206 0
M  V30 5815 C 544.042 1.66699 0.99625 0
M  V30 5816 O 543.317 0.949704 1.69738 0
M  V30 5817 C 543.6 3.53801 -0.670606 0
M  V30 5818 C 543.453 3.94667 -2.15772 0
M  V30 5819 C 544.772 4.39936 -0.120226 0
M  V30 5820 H 541.891 0.718861 -0.162504 0
M  V30 5821 H 544.533 1.57633 -1.06075 0
M  V30 5822 H 542.683 3.88229 -0.14496 0
M  V30 5823 H 544.355 3.70469 -2.74865 0
M  V30 5824 H 542.598 3.44203 -2.6402 0
M  V30 5825 H 543.269 5.03275 -2.26757 0
M  V30 5826 H 545.745 4.12183 -0.5696 0
M  V30 5827 H 544.621 5.4803 -0.308984 0
M  V30 5828 H 544.882 4.31184 0.976347 0
M  V30 5829 N 543.941 0.601185 1.45683 0
M  V30 5830 C 544.851 -0.123395 2.34275 0
M  V30 5831 C 545.867 -0.86702 1.5086 0
M  V30 5832 O 547.043 -0.826049 1.8368 0
M  V30 5833 C 544.108 -1.11237 3.2837 0
M  V30 5834 C 543.169 -0.371405 4.2769 0
M  V30 5835 C 542.402 -1.31327 5.1729 0
M  V30 5836 O 542.625 -2.55078 5.10188 0
M  V30 5837 O 541.559 -0.813811 5.96373 0
M  V30 5838 H 545.385 0.604483 2.97623 0
M  V30 5839 H 542.97 0.361477 1.44961 0
M  V30 5840 H 544.852 -1.68214 3.8637 0
M  V30 5841 H 543.527 -1.82139 2.67595 0
M  V30 5842 H 542.434 0.24067 3.73325 0
M  V30 5843 H 543.767 0.296998 4.91303 0
M  V30 5844 N 545.419 -1.53889 0.339982 0
M  V30 5845 C 546.835 -1.59595 -0.0120752 0
M  V30 5846 C 547.035 -1.35605 -1.49042 0
M  V30 5847 O 546.091 -1.14856 -2.24865 0
M  V30 5848 C 547.404 -2.9774 0.420898 0
M  V30 5849 C 548.952 -3.1077 0.37294 0
M  V30 5850 C 549.427 -4.51286 0.781327 0
M  V30 5851 N 550.918 -4.57325 0.735374 0
M  V30 5852 C 551.653 -5.64194 1.02336 0
M  V30 5853 N 551.149 -6.7893 1.37933 0
M  V30 5854 N 552.942 -5.54051 0.947838 0
M  V30 5855 H 545.093 -1.67738 1.30299 0
M  V30 5856 H 547.356 -0.785385 0.530918 0
M  V30 5857 H 547.062 -3.20349 1.45152 0
M  V30 5858 H 546.936 -3.76639 -0.205721 0
M  V30 5859 H 549.323 -2.87886 -0.648505 0
M  V30 5860 H 549.404 -2.33939 1.03472 0
M  V30 5861 H 549.048 -4.74905 1.80077 0
M  V30 5862 H 548.978 -5.26511 0.0970679 0
M  V30 5863 H 551.469 -3.74931 0.472773 0
M  V30 5864 H 551.782 -7.56392 1.58402 0
M  V30 5865 H 550.127 -6.80386 1.41774 0
M  V30 5866 H 553.318 -4.63293 0.669115 0
M  V30 5867 H 553.491 -6.37246 1.17563 0
M  V30 5868 N 546.897 -0.0685191 -1.57451 0
M  V30 5869 C 547.827 0.89747 -2.15564 0
M  V30 5870 C 548.808 1.31266 -1.08181 0
M  V30 5871 O 549.993 1.38429 -1.36202 0
M  V30 5872 C 547.123 2.16623 -2.71463 0
M  V30 5873 C 546.077 1.89054 -3.83982 0
M  V30 5874 C 545.403 3.22532 -4.26471 0
M  V30 5875 C 546.703 1.1984 -5.08366 0
M  V30 5876 H 548.397 0.413373 -2.96533 0
M  V30 5877 H 545.943 0.197391 -1.42641 0
M  V30 5878 H 547.896 2.84614 -3.10761 0
M  V30 5879 H 546.62 2.67269 -1.8771 0
M  V30 5880 H 545.279 1.23469 -3.45183 0
M  V30 5881 H 544.927 3.71013 -3.39644 0
M  V30 5882 H 544.627 3.04879 -5.02317 0
M  V30 5883 H 546.151 3.91727 -4.68383 0
M  V30 5884 H 547.565 1.77896 -5.45001 0
M  V30 5885 H 545.962 1.12456 -5.89469 0
M  V30 5886 H 547.032 0.176996 -4.84577 0
M  V30 5887 N 548.375 1.56261 0.205012 0
M  V30 5888 C 549.786 1.70056 0.770574 0
M  V30 5889 C 550.137 0.673398 1.84282 0
M  V30 5890 O 549.262 -0.172196 2.15714 0
M  V30 5891 C 549.857 3.08316 1.40451 0
M  V30 5892 C 548.416 3.2391 1.91727 0
M  V30 5893 C 547.563 2.66001 0.783516 0
M  V30 5894 H 550.514 1.58688 -0.019911 0
M  V30 5895 H 550.535 3.05094 2.27371 0
M  V30 5896 H 550.047 3.83053 0.623882 0
M  V30 5897 H 548.148 2.54072 2.7254 0
M  V30 5898 H 548.261 4.3131 2.08588 0
M  V30 5899 H 546.625 2.24915 1.19521 0
M  V30 5900 H 547.408 3.43297 0.0152883 0
M  V30 5901 N 549.853 -0.472356 1.50355 0
M  V30 5902 C 551.099 -1.22634 1.6152 0
M  V30 5903 C 551.432 -1.91645 0.313995 0
M  V30 5904 O 550.707 -1.82059 -0.684446 0
M  V30 5905 C 550.99 -2.27099 2.7946 0
M  V30 5906 C 550.843 -1.62402 4.19459 0
M  V30 5907 C 552.162 -3.28421 2.92964 0
M  V30 5908 H 549.281 -0.444494 0.587873 0
M  V30 5909 H 551.923 -0.520321 1.82737 0
M  V30 5910 H 550.073 -2.87314 2.61501 0
M  V30 5911 H 551.745 -1.05793 4.49005 0
M  V30 5912 H 549.988 -0.927184 4.23776 0
M  V30 5913 H 550.659 -2.38309 4.97909 0
M  V30 5914 H 553.135 -2.78227 3.09401 0
M  V30 5915 H 552.011 -3.98845 3.77113 0
M  V30 5916 H 552.272 -3.92467 2.03525 0
M  V30 5917 N 551.331 -1.39911 -0.725443 0
M  V30 5918 C 552.561 -1.40744 -1.51244 0
M  V30 5919 C 552.969 -0.00275403 -1.892 0
M  V30 5920 O 552.312 0.981299 -1.55294 0
M  V30 5921 C 552.374 -2.22527 -2.82351 0
M  V30 5922 C 552.038 -3.71053 -2.66774 0
M  V30 5923 C 553.035 -4.63916 -2.34686 0
M  V30 5924 C 550.72 -4.14753 -2.83347 0
M  V30 5925 C 552.714 -5.98463 -2.19366 0
M  V30 5926 C 550.401 -5.49372 -2.67644 0
M  V30 5927 C 551.399 -6.41042 -2.357 0
M  V30 5928 O 551.087 -7.73181 -2.20107 0
M  V30 5929 H 550.819 -0.482314 -0.473655 0
M  V30 5930 H 553.373 -1.84472 -0.903284 0
M  V30 5931 H 551.603 -1.73563 -3.45562 0
M  V30 5932 H 553.292 -2.15421 -3.44018 0
M  V30 5933 H 554.058 -4.31453 -2.21525 0
M  V30 5934 H 549.937 -3.43728 -3.072 0
M  V30 5935 H 553.481 -6.69979 -1.94354 0
M  V30 5936 H 549.378 -5.81424 -2.80387 0
M  V30 5937 H 550.146 -7.84008 -2.35103 0
M  V30 5938 N 552.809 0.956637 -1.25245 0
M  V30 5939 C 553.757 2.0743 -1.0524 0
M  V30 5940 C 554.751 1.69392 0.0160725 0
M  V30 5941 O 555.957 1.7946 -0.139382 0
M  V30 5942 H 552.332 0.678921 -0.323373 0
M  V30 5943 H 554.303 2.2146 -1.99995 0
M  V30 5944 C 553.052 3.40872 -0.685702 0
M  V30 5945 H 552.375 3.70607 -1.49968 0
M  V30 5946 H 553.815 4.19939 -0.585415 0
M  V30 5947 C 552.274 3.31367 0.608082 0
M  V30 5948 O 552.804 3.66214 1.65076 0
M  V30 5949 N 551.01 2.84486 0.592955 0
M  V30 5950 H 550.557 2.56326 -0.25592 0
M  V30 5951 H 550.515 2.78509 1.45877 0
M  V30 5952 N 554.287 1.06798 1.15896 0
M  V30 5953 C 555.234 0.683314 2.20453 0
M  V30 5954 C 556.204 -0.32255 1.62938 0
M  V30 5955 O 557.389 -0.210276 1.89638 0
M  V30 5956 C 554.529 0.0813266 3.45004 0
M  V30 5957 C 553.642 1.13799 4.16742 0
M  V30 5958 C 552.777 0.501598 5.28826 0
M  V30 5959 C 551.816 1.54144 5.92373 0
M  V30 5960 N 550.953 0.928038 6.9594 0
M  V30 5961 H 555.793 1.57932 2.52708 0
M  V30 5962 H 553.33 0.789544 1.24115 0
M  V30 5963 H 555.288 -0.285274 4.16224 0
M  V30 5964 H 553.918 -0.77806 3.13283 0
M  V30 5965 H 552.97 1.62223 3.44075 0
M  V30 5966 H 554.282 1.92664 4.60089 0
M  V30 5967 H 553.436 0.0823162 6.06644 0
M  V30 5968 H 552.175 -0.318883 4.86656 0
M  V30 5969 H 551.18 1.97056 5.13273 0
M  V30 5970 H 552.405 2.3641 6.36621 0
M  V30 5971 H 550.351 0.12836 6.55874 0
M  V30 5972 H 550.268 1.65401 7.37685 0
M  V30 5973 H 551.536 0.534071 7.77668 0
M  V30 5974 N 555.766 -1.3263 0.851289 0
M  V30 5975 C 556.991 -2.02097 0.466006 0
M  V30 5976 C 557.416 -1.63574 -0.928709 0
M  V30 5977 O 556.774 -0.834665 -1.60944 0
M  V30 5978 C 556.822 -3.55425 0.608737 0
M  V30 5979 O 555.926 -4.10827 -0.359878 0
M  V30 5980 H 555.267 -0.636911 0.187724 0
M  V30 5981 H 557.797 -1.69253 1.14955 0
M  V30 5982 H 557.807 -4.04986 0.495006 0
M  V30 5983 H 556.482 -3.82806 1.62581 0
M  V30 5984 H 555.059 -3.72349 -0.202666 0
M  V30 5985 N 557.244 -0.608902 -1.45362 0
M  V30 5986 C 558.207 0.0992563 -2.28985 0
M  V30 5987 C 559.207 0.793841 -1.39838 0
M  V30 5988 O 560.397 0.641804 -1.61946 0
M  V30 5989 C 557.529 1.15073 -3.20891 0
M  V30 5990 H 558.722 -0.635964 -2.93079 0
M  V30 5991 H 556.275 -0.368007 -1.51906 0
M  V30 5992 H 557.01 1.91667 -2.616 0
M  V30 5993 H 556.795 0.656867 -3.86559 0
M  V30 5994 H 558.285 1.64665 -3.83765 0
M  V30 5995 N 558.722 1.53707 -0.348139 0
M  V30 5996 C 559.968 2.01979 0.239986 0
M  V30 5997 C 560.323 1.23141 1.47831 0
M  V30 5998 O 559.616 0.311936 1.89044 0
M  V30 5999 C 559.81 3.52292 0.602061 0
M  V30 6000 C 559.639 4.45684 -0.599625 0
M  V30 6001 C 558.409 4.9304 -1.10635 0
M  V30 6002 C 560.607 4.93156 -1.4595 0
M  V30 6003 N 558.589 5.70394 -2.26988 0
M  V30 6004 C 559.96 5.6868 -2.46988 0
M  V30 6005 C 562.015 4.75257 -1.48441 0
M  V30 6006 C 560.718 6.28208 -3.50353 0
M  V30 6007 C 562.744 5.35639 -2.50689 0
M  V30 6008 C 562.106 6.11034 -3.50453 0
M  V30 6009 H 558.205 0.780335 0.0509992 0
M  V30 6010 H 560.789 1.88466 -0.488742 0
M  V30 6011 H 558.96 3.66002 1.29989 0
M  V30 6012 H 560.692 3.87304 1.17377 0
M  V30 6013 H 557.447 4.68784 -0.67371 0
M  V30 6014 H 557.871 6.13741 -2.85747 0
M  V30 6015 H 562.513 4.16508 -0.726707 0
M  V30 6016 H 560.231 6.86064 -4.27015 0
M  V30 6017 H 563.817 5.23693 -2.53449 0
M  V30 6018 H 562.697 6.56925 -4.28275 0
M  V30 6019 N 560.2 0.0768682 1.57412 0
M  V30 6020 C 561.616 -0.279772 1.57129 0
M  V30 6021 C 561.816 -1.69688 1.08666 0
M  V30 6022 O 560.872 -2.40953 0.754843 0
M  V30 6023 C 562.185 -0.0848055 3.0058 0
M  V30 6024 C 563.733 -0.153954 3.12621 0
M  V30 6025 C 564.208 0.0127946 4.57998 0
M  V30 6026 N 565.699 -0.0426435 4.6318 0
M  V30 6027 C 566.434 0.0618892 5.73367 0
M  V30 6028 N 565.93 0.220229 6.9245 0
M  V30 6029 N 567.723 0.00446072 5.621 0
M  V30 6030 H 559.874 1.00297 1.87228 0
M  V30 6031 H 562.137 0.391565 0.863354 0
M  V30 6032 H 561.843 0.89325 3.40168 0
M  V30 6033 H 561.717 -0.834961 3.67843 0
M  V30 6034 H 564.104 -1.1225 2.72917 0
M  V30 6035 H 564.185 0.627389 2.47987 0
M  V30 6036 H 563.829 0.978128 4.98392 0
M  V30 6037 H 563.759 -0.788016 5.20671 0
M  V30 6038 H 566.25 -0.163226 3.77547 0
M  V30 6039 H 566.563 0.291999 7.72248 0
M  V30 6040 H 564.908 0.255658 6.9453 0
M  V30 6041 H 568.099 -0.117979 4.67951 0
M  V30 6042 H 568.272 0.0893796 6.47938 0
M  V30 6043 N 561.678 -1.56367 -0.196722 0
M  V30 6044 C 562.628 -1.9082 -1.24787 0
M  V30 6045 C 563.612 -0.773719 -1.41076 0
M  V30 6046 O 564.804 -1.03655 -1.43474 0
M  V30 6047 C 561.933 -2.24982 -2.59303 0
M  V30 6048 C 561.019 -3.44882 -2.46814 0
M  V30 6049 N 561.41 -4.62835 -2.04003 0
M  V30 6050 C 559.708 -3.48988 -2.77711 0
M  V30 6051 C 560.409 -5.44993 -2.03366 0
M  V30 6052 N 559.385 -4.85356 -2.44807 0
M  V30 6053 H 563.187 -2.79516 -0.908175 0
M  V30 6054 H 560.701 -1.57265 -0.405166 0
M  V30 6055 H 562.698 -2.47848 -3.35227 0
M  V30 6056 H 561.358 -1.37611 -2.94098 0
M  V30 6057 H 562.369 -4.87532 -1.74738 0
M  V30 6058 H 559.046 -2.72029 -3.16712 0
M  V30 6059 H 560.436 -6.49464 -1.72181 0
M  V30 6060 N 563.156 0.464375 -1.50603 0
M  V30 6061 C 564.386 1.23727 -1.65454 0
M  V30 6062 C 564.794 1.86119 -0.340032 0
M  V30 6063 O 564.137 1.70301 0.688706 0
M  V30 6064 C 564.199 2.38153 -2.69301 0
M  V30 6065 C 563.863 1.96345 -4.12671 0
M  V30 6066 C 564.86 1.48215 -4.98326 0
M  V30 6067 C 562.545 2.04861 -4.58625 0
M  V30 6068 C 564.539 1.09152 -6.27985 0
M  V30 6069 C 562.226 1.65409 -5.88288 0
M  V30 6070 C 563.224 1.17634 -6.72794 0
M  V30 6071 O 562.912 0.787312 -8.00035 0
M  V30 6072 H 562.644 0.380075 -0.559034 0
M  V30 6073 H 565.198 0.559919 -1.97621 0
M  V30 6074 H 563.428 3.09081 -2.32392 0
M  V30 6075 H 565.117 3.00099 -2.73304 0
M  V30 6076 H 565.883 1.41052 -4.64036 0
M  V30 6077 H 561.762 2.40996 -3.92991 0
M  V30 6078 H 565.306 0.717909 -6.93896 0
M  V30 6079 H 561.203 1.72233 -6.22098 0
M  V30 6080 H 561.971 0.915567 -8.13363 0
M  V30 6081 N 564.634 1.40294 0.718013 0
M  V30 6082 C 565.566 1.36281 1.84283 0
M  V30 6083 C 566.579 0.268621 1.60569 0
M  V30 6084 O 567.768 0.528798 1.70487 0
M  V30 6085 C 564.868 1.09741 3.2064 0
M  V30 6086 C 564.041 2.30767 3.71571 0
M  V30 6087 C 563.1 2.00424 4.86535 0
M  V30 6088 O 562.126 2.73268 4.99313 0
M  V30 6089 N 563.328 0.980724 5.72156 0
M  V30 6090 H 566.093 2.3322 1.88225 0
M  V30 6091 H 563.654 1.34616 0.899453 0
M  V30 6092 H 565.646 0.874322 3.95143 0
M  V30 6093 H 564.216 0.214771 3.11861 0
M  V30 6094 H 563.436 2.68921 2.88228 0
M  V30 6095 H 564.724 3.11455 4.02335 0
M  V30 6096 H 564.122 0.377375 5.6444 0
M  V30 6097 H 562.679 0.817538 6.46653 0
M  V30 6098 N 566.112 -0.949982 1.2575 0
M  V30 6099 C 567.34 -1.72972 1.13527 0
M  V30 6100 C 567.755 -1.8623 -0.310453 0
M  V30 6101 O 567.112 -1.36336 -1.2132 0
M  V30 6102 C 567.163 -3.14108 1.78936 0
M  V30 6103 O 566.884 -3.01493 3.17858 0
M  V30 6104 C 568.385 -4.08338 1.72554 0
M  V30 6105 H 565.605 -0.541864 0.395758 0
M  V30 6106 H 568.149 -1.19151 1.66202 0
M  V30 6107 H 566.304 -3.64858 1.30221 0
M  V30 6108 H 566.718 -3.90559 3.50092 0
M  V30 6109 H 568.192 -5.04963 2.22973 0
M  V30 6110 H 568.669 -4.33742 0.690251 0
M  V30 6111 H 569.275 -3.63506 2.2078 0
M  V30 6112 N 567.59 -1.07411 -1.15328 0
M  V30 6113 C 568.839 -0.792643 -1.85473 0
M  V30 6114 C 569.152 0.683789 -1.83259 0
M  V30 6115 O 570.358 1.08005 -2.49093 0
M  V30 6116 C 568.814 -1.36787 -3.32892 0
M  V30 6117 C 568.422 -2.87536 -3.43551 0
M  V30 6118 C 570.166 -1.16444 -4.08217 0
M  V30 6119 C 568.073 -3.38247 -4.85122 0
M  V30 6120 H 567.003 -0.292838 -0.694811 0
M  V30 6121 H 569.654 -1.29426 -1.30082 0
M  V30 6122 H 568.036 -0.793993 -3.87958 0
M  V30 6123 H 569.21 -3.50973 -2.98588 0
M  V30 6124 H 567.525 -3.06676 -2.81672 0
M  V30 6125 H 570.122 -1.51808 -5.12697 0
M  V30 6126 H 570.465 -0.10353 -4.16171 0
M  V30 6127 H 570.998 -1.70472 -3.59422 0
M  V30 6128 H 567.737 -4.43866 -4.82351 0
M  V30 6129 H 567.257 -2.79564 -5.30664 0
M  V30 6130 H 568.936 -3.34238 -5.5398 0
M  V30 6131 N 569.068 1.32177 -0.85831 0
M  V30 6132 C 570 2.27688 -0.262835 0
M  V30 6133 C 571.013 1.52588 0.567513 0
M  V30 6134 O 572.202 1.74156 0.391407 0
M  V30 6135 C 569.302 3.32668 0.646937 0
M  V30 6136 C 568.475 4.37148 -0.148372 0
M  V30 6137 C 567.534 5.21686 0.687728 0
M  V30 6138 O 566.56 5.69074 0.119934 0
M  V30 6139 N 567.762 5.44892 2.00182 0
M  V30 6140 H 570.527 2.79426 -1.08356 0
M  V30 6141 H 568.088 1.45076 -0.718647 0
M  V30 6142 H 570.08 3.86134 1.2117 0
M  V30 6143 H 568.65 2.81061 1.36834 0
M  V30 6144 H 567.87 3.83915 -0.894572 0
M  V30 6145 H 569.158 5.04038 -0.694514 0
M  V30 6146 H 568.556 5.08128 2.4864 0
M  V30 6147 H 567.113 6.0134 2.51463 0
M  V30 6148 N 570.547 0.616602 1.45037 0
M  V30 6149 C 571.457 -0.0985401 2.34393 0
M  V30 6150 C 572.473 -0.850971 1.51771 0
M  V30 6151 O 573.649 -0.806521 1.84546 0
M  V30 6152 C 570.714 -1.07748 3.29532 0
M  V30 6153 C 569.775 -0.326022 4.2806 0
M  V30 6154 C 569.008 -1.25833 5.18654 0
M  V30 6155 O 569.231 -2.49652 5.12864 0
M  V30 6156 O 568.165 -0.750512 5.97203 0
M  V30 6157 H 571.991 0.636016 2.96966 0
M  V30 6158 H 569.576 0.376832 1.44569 0
M  V30 6159 H 571.458 -1.64107 3.88133 0
M  V30 6160 H 570.133 -1.79291 2.69512 0
M  V30 6161 H 569.04 0.280253 3.73049 0
M  V30 6162 H 570.373 0.349091 4.9096 0
M  V30 6163 N 572.025 -1.5352 0.356285 0
M  V30 6164 C 572.988 -2.24071 -0.482182 0
M  V30 6165 C 573.988 -1.24531 -1.01729 0
M  V30 6166 O 575.178 -1.48876 -0.904513 0
M  V30 6167 C 572.31 -2.97025 -1.67299 0
M  V30 6168 H 573.503 -2.99596 0.135031 0
M  V30 6169 H 571.056 -1.55928 0.107825 0
M  V30 6170 H 571.791 -2.25719 -2.32855 0
M  V30 6171 H 571.576 -3.7005 -1.29636 0
M  V30 6172 H 573.066 -3.50683 -2.26741 0
M  V30 6173 N 573.503 -0.0852151 -1.57369 0
M  V30 6174 C 574.751 0.579658 -1.93609 0
M  V30 6175 C 575.072 1.69332 -0.967043 0
M  V30 6176 O 574.342 1.95892 -0.0174215 0
M  V30 6177 H 572.922 0.217113 -0.714752 0
M  V30 6178 H 575.584 -0.146226 -1.94351 0
M  V30 6179 H 574.68 0.996276 -2.95771 0
M  V30 6180 N 574.981 1.5647 0.188427 0
M  V30 6181 C 576.258 1.71857 0.934058 0
M  V30 6182 C 576.638 0.641867 2.01105 0
M  V30 6183 O 575.986 -0.346098 2.25864 0
M  V30 6184 C 576.196 3.14431 1.5144 0
M  V30 6185 C 577.544 3.74869 1.99396 0
M  V30 6186 O 578.568 3.17601 1.61269 0
M  V30 6187 O 577.427 4.75387 2.69573 0
M  V30 6188 H 574.521 0.701186 0.438483 0
M  V30 6189 H 577.067 1.68768 0.177599 0
M  V30 6190 H 575.839 3.8427 0.738416 0
M  V30 6191 H 575.462 3.21775 2.33552 0
M  V30 6192 N 576.459 -0.456382 1.50847 0
M  V30 6193 C 577.705 -1.20618 1.63777 0
M  V30 6194 C 578.06 -1.8936 0.340677 0
M  V30 6195 O 577.353 -1.79786 -0.662378 0
M  V30 6196 C 577.547 -2.26336 2.76599 0
M  V30 6197 C 577.376 -1.67968 4.17153 0
M  V30 6198 C 576.146 -1.47293 4.83356 0
M  V30 6199 C 578.344 -1.16643 5.00898 0
M  V30 6200 N 576.326 -0.843222 6.08081 0
M  V30 6201 C 577.697 -0.660843 6.16468 0
M  V30 6202 C 579.752 -1.05637 4.86565 0
M  V30 6203 C 578.455 -0.0560365 7.19278 0
M  V30 6204 C 580.481 -0.465485 5.89565 0
M  V30 6205 C 579.843 0.0296516 7.04394 0
M  V30 6206 H 575.942 -0.429725 0.653345 0
M  V30 6207 H 578.526 -0.505784 1.88016 0
M  V30 6208 H 576.697 -2.93785 2.54056 0
M  V30 6209 H 578.429 -2.9334 2.78808 0
M  V30 6210 H 575.184 -1.72934 4.40898 0
M  V30 6211 H 575.608 -0.546357 6.74792 0
M  V30 6212 H 580.25 -1.42508 3.98059 0
M  V30 6213 H 577.968 0.324845 8.07447 0
M  V30 6214 H 581.554 -0.382493 5.80541 0
M  V30 6215 H 580.434 0.479705 7.82731 0
M  V30 6216 N 577.937 -1.40673 -0.710563 0
M  V30 6217 C 579.177 -1.40677 -1.48288 0
M  V30 6218 C 579.541 -0.0097193 -1.91998 0
M  V30 6219 O 580.742 0.115381 -2.68552 0
M  V30 6220 C 579.013 -2.37289 -2.67262 0
M  V30 6221 S 580.572 -2.55694 -3.56603 0
M  V30 6222 H 577.39 -0.498545 -0.506926 0
M  V30 6223 H 579.992 -1.76984 -0.830472 0
M  V30 6224 H 578.696 -3.37617 -2.3333 0
M  V30 6225 H 578.227 -2.02282 -3.3741 0
M  V30 6226 H 580.242 -1.81311 -4.61888 0
M  V30 6227 N 579.415 0.9433 -1.26252 0
M  V30 6228 C 580.661 1.69175 -1.11837 0
M  V30 6229 C 580.994 1.91238 0.337891 0
M  V30 6230 O 580.269 1.49152 1.24836 0
M  V30 6231 C 580.552 3.06783 -1.88563 0
M  V30 6232 C 580.405 2.9206 -3.42083 0
M  V30 6233 C 581.724 4.06865 -1.67776 0
M  V30 6234 H 578.843 0.61399 -0.407658 0
M  V30 6235 H 581.485 1.09572 -1.55222 0
M  V30 6236 H 579.635 3.57663 -1.51689 0
M  V30 6237 H 581.307 2.48419 -3.88698 0
M  V30 6238 H 579.55 2.27731 -3.69217 0
M  V30 6239 H 580.221 3.89651 -3.90994 0
M  V30 6240 H 582.697 3.64939 -1.99897 0
M  V30 6241 H 581.573 5.01168 -2.23879 0
M  V30 6242 H 581.834 4.37705 -0.621816 0
M  V30 6243 N 580.893 1.08022 1.14757 0
M  V30 6244 C 582.304 0.829144 1.67279 0
M  V30 6245 C 582.655 -0.644721 1.85305 0
M  V30 6246 O 581.78 -1.49838 1.56133 0
M  V30 6247 C 582.375 1.49855 3.03857 0
M  V30 6248 C 580.934 1.29482 3.53428 0
M  V30 6249 C 580.081 1.56386 2.28995 0
M  V30 6250 H 583.032 1.24134 0.988762 0
M  V30 6251 H 583.053 0.923572 3.69121 0
M  V30 6252 H 582.565 2.57123 2.90705 0
M  V30 6253 H 580.666 0.242669 3.71809 0
M  V30 6254 H 580.779 2.01974 4.34446 0
M  V30 6255 H 579.143 0.985217 2.34874 0
M  V30 6256 H 579.926 2.64851 2.18423 0
M  V30 6257 N 582.371 -1.3172 0.865308 0
M  V30 6258 C 583.596 -2.01591 0.487415 0
M  V30 6259 C 584.021 -1.6455 -0.911307 0
M  V30 6260 O 583.379 -0.851689 -1.6005 0
M  V30 6261 C 583.427 -3.54759 0.646401 0
M  V30 6262 O 582.531 -4.11185 -0.316284 0
M  V30 6263 H 581.872 -0.634884 0.194468 0
M  V30 6264 H 584.402 -1.68024 1.16744 0
M  V30 6265 H 584.412 -4.04438 0.537932 0
M  V30 6266 H 583.087 -3.8106 1.66632 0
M  V30 6267 H 581.664 -3.72543 -0.163162 0
M  V30 6268 N 583.85 -0.624285 -1.44708 0
M  V30 6269 C 585.077 -0.132919 -2.06473 0
M  V30 6270 C 585.493 1.18967 -1.46602 0
M  V30 6271 O 584.85 1.72824 -0.586341 0
M  V30 6272 C 584.901 -0.00465418 -3.615 0
M  V30 6273 O 584.622 -1.27494 -4.19138 0
M  V30 6274 C 586.123 0.516213 -4.40284 0
M  V30 6275 H 583.343 -0.0765201 -0.666623 0
M  V30 6276 H 585.887 -0.856751 -1.85688 0
M  V30 6277 H 584.042 0.669583 -3.8157 0
M  V30 6278 H 584.456 -1.11536 -5.12504 0
M  V30 6279 H 585.93 0.554994 -5.49203 0
M  V30 6280 H 586.407 1.5419 -4.11245 0
M  V30 6281 H 587.013 -0.124542 -4.25118 0
M  V30 6282 N 585.328 1.53329 -0.364422 0
M  V30 6283 C 586.238 2.29414 0.490552 0
M  V30 6284 C 587.254 1.35335 1.09363 0
M  V30 6285 O 588.43 1.68391 1.10483 0
M  V30 6286 C 585.495 3.06772 1.61529 0
M  V30 6287 C 584.556 4.16516 1.03986 0
M  V30 6288 C 583.789 4.90176 2.111 0
M  V30 6289 O 584.012 4.63687 3.32191 0
M  V30 6290 O 582.946 5.76134 1.74222 0
M  V30 6291 H 586.772 3.03428 -0.12856 0
M  V30 6292 H 584.357 1.48843 -0.128837 0
M  V30 6293 H 586.239 3.55082 2.26924 0
M  V30 6294 H 584.914 2.35596 2.21983 0
M  V30 6295 H 583.821 3.7246 0.349856 0
M  V30 6296 H 585.154 4.89855 0.4799 0
M  V30 6297 N 586.806 0.0935595 1.57322 0
M  V30 6298 C 588.217 -0.435807 1.81542 0
M  V30 6299 C 588.568 -1.68263 1.00907 0
M  V30 6300 O 587.693 -2.15087 0.237983 0
M  V30 6301 C 588.288 -0.797436 3.29282 0
M  V30 6302 C 586.847 -1.27155 3.54272 0
M  V30 6303 C 585.994 -0.267455 2.76007 0
M  V30 6304 H 588.945 0.31902 1.5546 0
M  V30 6305 H 588.966 -1.6571 3.42521 0
M  V30 6306 H 588.478 0.110206 3.87943 0
M  V30 6307 H 586.579 -2.19696 3.00939 0
M  V30 6308 H 586.692 -1.23445 4.62923 0
M  V30 6309 H 585.056 -0.749282 2.43429 0
M  V30 6310 H 585.839 0.632839 3.37417 0
M  V30 6311 N 588.284 -1.56567 -0.180126 0
M  V30 6312 C 589.231 -1.95725 -1.22313 0
M  V30 6313 C 590.201 -0.819911 -1.44453 0
M  V30 6314 O 591.386 -1.07931 -1.57339 0
M  V30 6315 C 588.526 -2.31484 -2.55947 0
M  V30 6316 C 587.639 -3.58354 -2.4126 0
M  V30 6317 C 586.774 -3.83366 -3.67701 0
M  V30 6318 C 585.813 -5.03612 -3.47909 0
M  V30 6319 N 584.95 -5.24802 -4.66398 0
M  V30 6320 H 589.79 -2.84642 -0.882198 0
M  V30 6321 H 587.327 -1.4085 -0.42422 0
M  V30 6322 H 589.285 -2.50237 -3.33822 0
M  V30 6323 H 587.915 -1.45689 -2.88053 0
M  V30 6324 H 586.967 -3.47565 -1.54606 0
M  V30 6325 H 588.279 -4.46386 -2.22577 0
M  V30 6326 H 587.433 -4.02439 -4.54013 0
M  V30 6327 H 586.172 -2.93692 -3.89353 0
M  V30 6328 H 585.177 -4.84447 -2.59983 0
M  V30 6329 H 586.402 -5.94809 -3.27688 0
M  V30 6330 H 584.348 -4.38079 -4.88286 0
M  V30 6331 H 584.265 -6.07041 -4.50596 0
M  V30 6332 H 585.533 -5.48346 -5.54019 0
M  V30 6333 N 589.762 0.448376 -1.51087 0
M  V30 6334 C 590.71 1.56407 -1.72161 0
M  V30 6335 C 591.704 1.58878 -0.587721 0
M  V30 6336 O 592.91 1.62755 -0.768822 0
M  V30 6337 H 589.285 0.519423 -0.543786 0
M  V30 6338 H 591.256 1.35803 -2.65707 0
M  V30 6339 C 590.005 2.94163 -1.85373 0
M  V30 6340 H 589.328 2.9299 -2.72024 0
M  V30 6341 H 590.768 3.71625 -2.04135 0
M  V30 6342 C 589.227 3.31317 -0.610803 0
M  V30 6343 O 589.757 4.00985 0.239636 0
M  V30 6344 N 587.963 2.86966 -0.458127 0
M  V30 6345 H 587.51 2.30443 -1.15124 0
M  V30 6346 H 587.468 3.12188 0.372289 0
M  V30 6347 N 591.24 1.41047 0.703093 0
M  V30 6348 C 592.468 1.4334 1.49202 0
M  V30 6349 C 592.883 0.0365596 1.88765 0
M  V30 6350 O 592.24 -0.942419 1.56284 0
M  V30 6351 C 592.291 2.33538 2.75939 0
M  V30 6352 O 592.012 3.67786 2.38045 0
M  V30 6353 C 593.513 2.44555 3.6974 0
M  V30 6354 H 590.733 0.488472 0.460039 0
M  V30 6355 H 593.277 1.85245 0.86629 0
M  V30 6356 H 591.432 1.94962 3.34766 0
M  V30 6357 H 591.846 4.15816 3.19683 0
M  V30 6358 H 593.32 3.11849 4.55471 0
M  V30 6359 H 593.797 1.47447 4.1371 0
M  V30 6360 H 594.403 2.83735 3.16819 0
M  V30 6361 N 592.718 -0.936591 1.26751 0
M  V30 6362 C 593.943 -1.72288 1.15462 0
M  V30 6363 C 594.368 -1.85915 -0.285887 0
M  V30 6364 O 593.726 -1.35272 -1.20711 0
M  V30 6365 C 593.774 -3.10503 1.83359 0
M  V30 6366 O 592.878 -3.96745 1.1255 0
M  V30 6367 H 592.219 -0.52843 0.402067 0
M  V30 6368 H 594.749 -1.17271 1.67656 0
M  V30 6369 H 594.759 -3.60867 1.90365 0
M  V30 6370 H 593.434 -2.99901 2.88153 0
M  V30 6371 H 592.011 -3.55191 1.13551 0
M  V30 6372 N 594.196 -1.08629 -1.14182 0
M  V30 6373 C 595.424 -0.838889 -1.8913 0
M  V30 6374 C 595.839 0.609153 -1.78703 0
M  V30 6375 O 595.196 1.41876 -1.14794 0
M  V30 6376 C 595.247 -1.25477 -3.39025 0
M  V30 6377 O 594.968 -2.64601 -3.49167 0
M  V30 6378 C 596.469 -1.03856 -4.30963 0
M  V30 6379 H 593.689 -0.302377 -0.599007 0
M  V30 6380 H 596.233 -1.44615 -1.44592 0
M  V30 6381 H 594.388 -0.691571 -3.81177 0
M  V30 6382 H 594.802 -2.81922 -4.42289 0
M  V30 6383 H 596.276 -1.37892 -5.345 0
M  V30 6384 H 596.753 0.0242522 -4.39193 0
M  V30 6385 H 597.359 -1.58731 -3.94569 0
M  V30 6386 N 595.674 1.31259 -0.872281 0
M  V30 6387 C 596.904 2.00504 -0.498183 0
M  V30 6388 C 597.312 1.65632 0.914479 0
M  V30 6389 O 596.655 0.882849 1.61095 0
M  V30 6390 C 596.717 3.5482 -0.578194 0
M  V30 6391 C 596.381 4.13172 -1.95289 0
M  V30 6392 C 597.378 4.30107 -2.92069 0
M  V30 6393 C 595.063 4.48846 -2.25483 0
M  V30 6394 C 597.057 4.81908 -4.17185 0
M  V30 6395 C 594.744 5.00349 -3.50847 0
M  V30 6396 C 595.742 5.16831 -4.46514 0
M  V30 6397 O 595.43 5.67228 -5.69656 0
M  V30 6398 H 595.162 0.648055 -0.192354 0
M  V30 6399 H 597.716 1.6841 -1.17589 0
M  V30 6400 H 595.946 3.86383 0.156438 0
M  V30 6401 H 597.635 4.05318 -0.217192 0
M  V30 6402 H 598.401 4.02862 -2.7005 0
M  V30 6403 H 594.28 4.35292 -1.51795 0
M  V30 6404 H 597.824 4.94688 -4.91863 0
M  V30 6405 H 593.721 5.27028 -3.72708 0
M  V30 6406 H 594.489 5.85592 -5.7186 0
M  V30 6407 N 597.152 0.631951 1.44375 0
M  V30 6408 C 598.568 0.297642 1.568 0
M  V30 6409 C 598.768 -1.19916 1.61934 0
M  V30 6410 O 597.824 -1.98324 1.56281 0
M  V30 6411 C 599.137 0.990286 2.83926 0
M  V30 6412 C 600.685 0.968507 2.97639 0
M  V30 6413 C 601.16 1.64163 4.27568 0
M  V30 6414 N 602.651 1.60826 4.34384 0
M  V30 6415 C 603.386 2.09802 5.33639 0
M  V30 6416 N 602.882 2.66973 6.39294 0
M  V30 6417 N 604.675 2.00426 5.25153 0
M  V30 6418 H 596.826 1.60353 1.39286 0
M  V30 6419 H 599.089 0.673142 0.667521 0
M  V30 6420 H 598.795 2.04519 2.8612 0
M  V30 6421 H 598.669 0.528563 3.73478 0
M  V30 6422 H 601.056 -0.0779247 2.94997 0
M  V30 6423 H 601.137 1.46873 2.09433 0
M  V30 6424 H 600.781 2.68752 4.3097 0
M  V30 6425 H 600.711 1.11624 5.14634 0
M  V30 6426 H 603.202 1.19087 3.58646 0
M  V30 6427 H 603.515 3.02074 7.11316 0
M  V30 6428 H 601.86 2.71024 6.39977 0
M  V30 6429 H 605.051 1.55483 4.41523 0
M  V30 6430 H 605.224 2.38906 6.02352 0
M  V30 6431 N 598.631 -1.53133 0.372548 0
M  V30 6432 C 599.877 -2.01654 -0.215277 0
M  V30 6433 C 600.21 -1.25914 -1.47849 0
M  V30 6434 O 599.485 -0.3548 -1.91237 0
M  V30 6435 C 599.768 -3.56609 -0.500187 0
M  V30 6436 C 599.621 -4.43036 0.777145 0
M  V30 6437 C 600.94 -4.20528 -1.29786 0
M  V30 6438 H 598.059 -0.732991 -0.0767686 0
M  V30 6439 H 600.701 -1.83335 0.498814 0
M  V30 6440 H 598.851 -3.7235 -1.10852 0
M  V30 6441 H 600.523 -4.39079 1.41447 0
M  V30 6442 H 598.766 -4.10723 1.39604 0
M  V30 6443 H 599.437 -5.49424 0.532662 0
M  V30 6444 H 601.913 -4.08663 -0.783198 0
M  V30 6445 H 600.789 -5.28962 -1.46596 0
M  V30 6446 H 601.05 -3.77051 -2.30836 0
M  V30 6447 N 600.109 -0.101901 -1.5727 0
M  V30 6448 C 601.334 0.571759 -1.99363 0
M  V30 6449 C 601.759 1.60507 -0.980768 0
M  V30 6450 O 601.117 1.81231 0.0498517 0
M  V30 6451 C 601.165 1.18996 -3.404 0
M  V30 6452 O 600.269 2.30572 -3.41922 0
M  V30 6453 H 599.61 0.144449 -0.648098 0
M  V30 6454 H 602.14 -0.185325 -2.03759 0
M  V30 6455 H 602.15 1.52962 -3.78241 0
M  V30 6456 H 600.825 0.432984 -4.1364 0
M  V30 6457 H 599.402 1.98173 -3.15883 0
M  V30 6458 O 601.626 1.61455 0.0379495 0
M  V30 6459 H 602.317 1.82122 0.659643 0
M  V30 END ATOM
M  V30 BEGIN BOND
M  V30 END BOND
M  V30 END CTAB
M  END
$$$$
