drugbank_target|P16444 Dipeptidase 1 (DB01597)
 OpenBabel12092119483D

  0  0  0     0  0            999 V3000
M  V30 BEGIN CTAB
M  V30 COUNTS 6371 6444 0 0 0
M  V30 BEGIN ATOM
M  V30 1 H -0.908 1.98254 -0.117106 0
M  V30 2 N 0 1.576 0 0
M  V30 3 C 0.933 2.03868 1.02534 0
M  V30 4 C 1.911 0.928543 1.3348 0
M  V30 5 O 3.095 1.19667 1.45644 0
M  V30 6 C 0.222 2.43627 2.35294 0
M  V30 7 C -0.732 3.65373 2.2001 0
M  V30 8 S 0.101 5.13292 1.52614 0
M  V30 9 C 1.257 5.56322 2.86805 0
M  V30 10 H 1.49 2.90518 0.631377 0
M  V30 11 H -0.977 1.52953 0.210867 0
M  V30 12 H 0.981 2.67203 3.11629 0
M  V30 13 H -0.358 1.57376 2.7183 0
M  V30 14 H -1.165 3.90944 3.18086 0
M  V30 15 H -1.563 3.418 1.51819 0
M  V30 16 H 0.729 5.58782 3.83104 0
M  V30 17 H 1.672 6.56266 2.65933 0
M  V30 18 H 2.08 4.83886 2.90714 0
M  V30 19 N 1.4781 -0.272755 1.55222 0
M  V30 20 C 2.7241 -1.00172 1.77023 0
M  V30 21 C 3.0791 -1.83928 0.564633 0
M  V30 22 O 2.3721 -1.86416 -0.442674 0
M  V30 23 C 2.5661 -1.91642 3.01675 0
M  V30 24 C 2.3951 -1.16888 4.34243 0
M  V30 25 C 1.1651 -0.884464 4.97499 0
M  V30 26 C 3.3631 -0.55919 5.11251 0
M  V30 27 N 1.3451 -0.11015 6.13801 0
M  V30 28 C 2.7161 0.0809469 6.19947 0
M  V30 29 C 4.7711 -0.467058 4.95705 0
M  V30 30 C 3.4741 0.804335 7.14789 0
M  V30 31 C 5.5001 0.242739 5.90902 0
M  V30 32 C 4.8621 0.871613 6.98987 0
M  V30 33 H 0.9611 -0.348529 0.700037 0
M  V30 34 H 3.5451 -0.277365 1.92714 0
M  V30 35 H 1.7161 -2.61303 2.87359 0
M  V30 36 H 3.4481 -2.57901 3.1188 0
M  V30 37 H 0.2031 -1.18979 4.58411 0
M  V30 38 H 0.6271 0.264344 6.76484 0
M  V30 39 H 5.2691 -0.93894 4.12242 0
M  V30 40 H 2.9871 1.2879 7.97771 0
M  V30 41 H 6.5731 0.314347 5.8095 0
M  V30 42 H 5.4531 1.4121 7.71381 0
M  V30 43 N 2.9562 -1.48159 -0.537278 0
M  V30 44 C 4.1812 -1.59707 -1.32319 0
M  V30 45 C 4.6062 -0.254859 -1.86365 0
M  V30 46 O 3.9642 0.772378 -1.64024 0
M  V30 47 C 4.0122 -2.6412 -2.45505 0
M  V30 48 O 3.1162 -2.20774 -3.48328 0
M  V30 49 H 2.4572 -0.535791 -0.392204 0
M  V30 50 H 4.9872 -1.94092 -0.647268 0
M  V30 51 H 4.9972 -2.85166 -2.91795 0
M  V30 52 H 3.6722 -3.61567 -2.05528 0
M  V30 53 H 2.2492 -2.09911 -3.08207 0
M  V30 54 N 4.4343 0.785586 -1.36625 0
M  V30 55 C 5.6823 1.54057 -1.30808 0
M  V30 56 C 6.0033 1.94683 0.111157 0
M  V30 57 O 5.2733 1.65241 1.05224 0
M  V30 58 H 3.8533 0.571354 -0.481211 0
M  V30 59 H 6.5153 0.935821 -1.70963 0
M  V30 60 H 5.6113 2.44637 -1.93801 0
M  V30 61 N 5.9124 1.20967 1.01018 0
M  V30 62 C 7.1584 1.0353 1.7508 0
M  V30 63 C 7.5134 -0.42734 1.87594 0
M  V30 64 O 6.8064 -1.31298 1.3954 0
M  V30 65 C 7.0004 1.65997 3.16512 0
M  V30 66 C 6.8294 3.18184 3.17788 0
M  V30 67 C 5.5994 3.87198 3.24662 0
M  V30 68 C 7.7974 4.15334 3.03319 0
M  V30 69 N 5.7794 5.26618 3.15509 0
M  V30 70 C 7.1504 5.41472 3.02007 0
M  V30 71 C 9.2054 4.06449 2.87583 0
M  V30 72 C 7.9084 6.5975 2.86571 0
M  V30 73 C 9.9344 5.24357 2.73503 0
M  V30 74 C 9.2964 6.49404 2.72862 0
M  V30 75 H 5.3954 0.433137 0.651089 0
M  V30 76 H 7.9794 1.5324 1.20107 0
M  V30 77 H 6.1504 1.18863 3.69765 0
M  V30 78 H 7.8824 1.41816 3.79039 0
M  V30 79 H 4.6374 3.38093 3.31648 0
M  V30 80 H 5.0614 5.99626 3.14289 0
M  V30 81 H 9.7034 3.10573 2.86887 0
M  V30 82 H 7.4214 7.55792 2.86015 0
M  V30 83 H 11.0074 5.19299 2.62334 0
M  V30 84 H 9.8874 7.39105 2.62093 0
M  V30 85 N 7.3905 -1.2043 1.01659 0
M  V30 86 C 8.6365 -1.90356 0.716674 0
M  V30 87 C 8.9915 -1.77367 -0.745557 0
M  V30 88 O 8.2845 -1.1471 -1.53467 0
M  V30 89 C 8.4785 -3.40464 1.08714 0
M  V30 90 C 8.3075 -3.6806 2.58384 0
M  V30 91 C 7.0775 -3.86775 3.25167 0
M  V30 92 C 9.2755 -3.70623 3.56572 0
M  V30 93 N 7.2575 -4.01889 4.64067 0
M  V30 94 C 8.6285 -3.91161 4.81034 0
M  V30 95 C 10.6835 -3.53586 3.50544 0
M  V30 96 C 9.3865 -3.96428 6.00198 0
M  V30 97 C 11.4125 -3.60125 4.6911 0
M  V30 98 C 10.7745 -3.81135 5.92381 0
M  V30 99 H 6.8735 -0.716226 0.313918 0
M  V30 100 H 9.4575 -1.44815 1.30141 0
M  V30 101 H 7.6285 -3.84757 0.530745 0
M  V30 102 H 9.3605 -3.97863 0.740763 0
M  V30 103 H 6.1155 -3.85156 2.75594 0
M  V30 104 H 6.5395 -4.13323 5.36184 0
M  V30 105 H 11.1815 -3.36308 2.56235 0
M  V30 106 H 8.8995 -4.12502 6.94887 0
M  V30 107 H 12.4855 -3.4825 4.66062 0
M  V30 108 H 11.3655 -3.86054 6.82592 0
M  V30 109 N 8.8686 -0.792821 -1.36206 0
M  V30 110 C 9.7986 -0.207853 -2.32573 0
M  V30 111 C 10.7796 0.659055 -1.56813 0
M  V30 112 O 11.9646 0.592176 -1.84951 0
M  V30 113 C 9.0946 0.655449 -3.41059 0
M  V30 114 C 8.0486 -0.111842 -4.27854 0
M  V30 115 C 7.3746 0.872274 -5.27537 0
M  V30 116 C 8.6746 -1.30299 -5.05786 0
M  V30 117 H 10.3686 -1.01294 -2.81744 0
M  V30 118 H 7.9146 -0.48854 -1.3546 0
M  V30 119 H 9.8676 1.07464 -4.07467 0
M  V30 120 H 8.5916 1.49328 -2.90463 0
M  V30 121 H 7.2506 -0.512053 -3.63006 0
M  V30 122 H 6.8986 1.70523 -4.73214 0
M  V30 123 H 6.5986 0.363291 -5.86476 0
M  V30 124 H 8.1226 1.28996 -5.96818 0
M  V30 125 H 9.5366 -0.959379 -5.65216 0
M  V30 126 H 7.9336 -1.7455 -5.74154 0
M  V30 127 H 9.0036 -2.09663 -4.37229 0
M  V30 128 N 10.3467 1.47872 -0.545128 0
M  V30 129 C 11.5927 2.03385 -0.0247951 0
M  V30 130 C 11.9477 1.41325 1.30556 0
M  V30 131 O 11.2407 0.5552 1.8338 0
M  V30 132 C 11.4347 3.57131 0.13867 0
M  V30 133 C 11.2637 4.34097 -1.17429 0
M  V30 134 C 10.0337 4.74458 -1.73831 0
M  V30 135 C 12.2317 4.6998 -2.08861 0
M  V30 136 N 10.2137 5.3602 -2.99258 0
M  V30 137 C 11.5847 5.31719 -3.18866 0
M  V30 138 C 13.6397 4.5191 -2.09003 0
M  V30 139 C 12.3427 5.77295 -4.29096 0
M  V30 140 C 14.3687 4.98477 -3.18237 0
M  V30 141 C 13.7307 5.60253 -4.26961 0
M  V30 142 H 9.8297 0.780339 -0.050943 0
M  V30 143 H 12.4137 1.80507 -0.729753 0
M  V30 144 H 10.5847 3.79802 0.812733 0
M  V30 145 H 12.3167 3.99282 0.659976 0
M  V30 146 H 9.0717 4.56037 -1.2778 0
M  V30 147 H 9.4957 5.71355 -3.63157 0
M  V30 148 H 14.1377 4.03516 -1.26234 0
M  V30 149 H 11.8557 6.24687 -5.12633 0
M  V30 150 H 15.4417 4.86274 -3.1942 0
M  V30 151 H 14.3217 5.95631 -5.10091 0
M  V30 152 N 11.8248 0.280983 1.55075 0
M  V30 153 C 13.2358 -0.215629 1.85451 0
M  V30 154 C 13.5868 -1.54991 1.203 0
M  V30 155 O 12.7118 -2.10699 0.493435 0
M  V30 156 C 13.3068 -0.398026 3.36454 0
M  V30 157 C 11.8658 -0.838866 3.66933 0
M  V30 158 C 11.0128 0.064458 2.77225 0
M  V30 159 H 13.9638 0.502601 1.50531 0
M  V30 160 H 13.9848 -1.23569 3.59876 0
M  V30 161 H 13.4968 0.573241 3.83843 0
M  V30 162 H 11.5978 -1.8214 3.25048 0
M  V30 163 H 11.7108 -0.672123 4.74362 0
M  V30 164 H 10.0748 -0.452863 2.50642 0
M  V30 165 H 10.8578 1.03172 3.2743 0
M  V30 166 N 13.3029 -1.57598 0.00835791 0
M  V30 167 C 14.2329 -2.1198 -0.979113 0
M  V30 168 C 15.2139 -1.03091 -1.35301 0
M  V30 169 O 16.3989 -1.30818 -1.43528 0
M  V30 170 C 13.5289 -2.62995 -2.26828 0
M  V30 171 C 12.4829 -3.76485 -2.03576 0
M  V30 172 C 11.8089 -4.13846 -3.38579 0
M  V30 173 C 13.1089 -5.0342 -1.39161 0
M  V30 174 H 14.8029 -2.94738 -0.526281 0
M  V30 175 H 12.3489 -1.41783 -0.251704 0
M  V30 176 H 14.3019 -2.99669 -2.96271 0
M  V30 177 H 13.0259 -1.7737 -2.7424 0
M  V30 178 H 11.6849 -3.40217 -1.36557 0
M  V30 179 H 11.3329 -3.25232 -3.83709 0
M  V30 180 H 11.0329 -4.90312 -3.23834 0
M  V30 181 H 12.5569 -4.53086 -4.09323 0
M  V30 182 H 13.9709 -5.37812 -1.98573 0
M  V30 183 H 12.3679 -5.84746 -1.34878 0
M  V30 184 H 13.4379 -4.83548 -0.361868 0
M  V30 185 N 14.781 0.264519 -1.55364 0
M  V30 186 C 16.027 0.99646 -1.76631 0
M  V30 187 C 16.36 1.85632 -0.570478 0
M  V30 188 O 15.635 1.89647 0.43175 0
M  V30 189 C 15.918 1.87187 -3.07625 0
M  V30 190 C 15.771 1.04138 -4.37579 0
M  V30 191 C 17.09 2.85749 -3.34717 0
M  V30 192 H 14.209 0.360841 -0.642622 0
M  V30 193 H 16.851 0.268218 -1.88097 0
M  V30 194 H 15.001 2.49279 -2.9798 0
M  V30 195 H 16.673 0.440517 -4.59192 0
M  V30 196 H 14.916 0.345115 -4.32425 0
M  V30 197 H 15.587 1.68729 -5.2558 0
M  V30 198 H 18.063 2.33793 -3.4421 0
M  V30 199 H 16.939 3.44136 -4.27623 0
M  V30 200 H 17.2 3.61311 -2.54768 0
M  V30 201 N 16.2591 1.48442 0.529413 0
M  V30 202 C 17.2221 1.62524 1.61612 0
M  V30 203 C 18.2221 0.498509 1.52877 0
M  V30 204 O 19.4121 0.76431 1.56537 0
M  V30 205 C 16.5441 1.59597 3.01233 0
M  V30 206 H 17.7371 2.59423 1.50465 0
M  V30 207 H 15.2901 1.37047 0.751514 0
M  V30 208 H 16.0251 0.641781 3.17886 0
M  V30 209 H 15.8101 2.41397 3.08982 0
M  V30 210 H 17.3001 1.72646 3.80241 0
M  V30 211 N 17.7372 -0.778329 1.37039 0
M  V30 212 C 18.9832 -1.53892 1.32079 0
M  V30 213 C 19.3162 -1.9396 -0.0965386 0
M  V30 214 O 18.5912 -1.63568 -1.05242 0
M  V30 215 C 18.8742 -2.80847 2.25382 0
M  V30 216 C 18.7272 -2.47076 3.75864 0
M  V30 217 C 20.0462 -3.82741 2.1725 0
M  V30 218 H 17.1652 -0.558303 0.48111 0
M  V30 219 H 19.8072 -0.893397 1.67685 0
M  V30 220 H 17.9572 -3.35931 1.95148 0
M  V30 221 H 19.6292 -1.97957 4.16666 0
M  V30 222 H 17.8722 -1.79863 3.94755 0
M  V30 223 H 18.5432 -3.37798 4.36574 0
M  V30 224 H 21.0192 -3.37133 2.43887 0
M  V30 225 H 19.8952 -4.69303 2.84686 0
M  V30 226 H 20.1562 -4.2652 1.16331 0
M  V30 227 N 19.2153 -1.21501 -1.00376 0
M  V30 228 C 20.4553 -1.04444 -1.75701 0
M  V30 229 C 20.8193 0.414644 -1.87469 0
M  V30 230 O 22.0203 0.705763 -2.59369 0
M  V30 231 C 20.2913 -1.72389 -3.13077 0
M  V30 232 S 21.8503 -1.70604 -4.04277 0
M  V30 233 H 18.6683 -0.374249 -0.604532 0
M  V30 234 H 21.2703 -1.54267 -1.20091 0
M  V30 235 H 19.9743 -2.77734 -3.02146 0
M  V30 236 H 19.5053 -1.22751 -3.73759 0
M  V30 237 H 21.5203 -0.748012 -4.9053 0
M  V30 238 N 20.6934 1.19889 -1.02296 0
M  V30 239 C 21.9214 1.9339 -0.735399 0
M  V30 240 C 22.3364 1.75148 0.704887 0
M  V30 241 O 21.6934 1.06954 1.47875 0
M  V30 242 C 21.7444 3.45313 -1.06962 0
M  V30 243 O 21.4654 3.62964 -2.45334 0
M  V30 244 C 22.9664 4.35948 -0.804021 0
M  V30 245 H 20.1864 0.61448 -0.269546 0
M  V30 246 H 22.7304 1.522 -1.36585 0
M  V30 247 H 20.8854 3.84359 -0.484455 0
M  V30 248 H 21.2994 4.56886 -2.57595 0
M  V30 249 H 22.7734 5.41174 -1.0879 0
M  V30 250 H 23.2504 4.3842 0.261691 0
M  V30 251 H 23.8564 4.02574 -1.37164 0
M  V30 252 N 22.1715 0.800033 1.35784 0
M  V30 253 C 23.1345 0.211565 2.28221 0
M  V30 254 C 24.1345 -0.59728 1.49296 0
M  V30 255 O 25.3245 -0.416721 1.69142 0
M  V30 256 C 22.4565 -0.705846 3.33513 0
M  V30 257 H 23.6495 1.02677 2.81776 0
M  V30 258 H 21.2025 0.570211 1.45528 0
M  V30 259 H 21.9375 -1.54498 2.85133 0
M  V30 260 H 21.7225 -0.127655 3.91892 0
M  V30 261 H 23.2125 -1.11211 4.02519 0
M  V30 262 N 23.6496 -1.47581 0.552962 0
M  V30 263 C 24.9266 -1.95563 -0.0381515 0
M  V30 264 C 25.3066 -1.49552 -1.48988 0
M  V30 265 O 24.6546 -0.732414 -2.16444 0
M  V30 266 C 24.8646 -3.48848 0.102919 0
M  V30 267 C 26.2126 -4.24577 -0.0446082 0
M  V30 268 O 27.2366 -3.56187 0.0302548 0
M  V30 269 O 26.0956 -5.46116 -0.204923 0
M  V30 270 H 23.1896 -0.824321 -0.0665067 0
M  V30 271 H 25.7356 -1.58001 0.619186 0
M  V30 272 H 24.5076 -3.75129 1.11328 0
M  V30 273 H 24.1306 -3.93165 -0.592224 0
M  V30 274 N 25.1277 -0.289203 -1.54924 0
M  V30 275 C 26.3747 0.323519 -1.99899 0
M  V30 276 C 26.7027 1.54797 -1.17762 0
M  V30 277 O 25.9577 1.94237 -0.238835 0
M  V30 278 C 26.2567 0.736119 -3.49737 0
M  V30 279 C 25.9227 -0.385276 -4.49251 0
M  V30 280 C 24.5847 -0.693156 -4.76181 0
M  V30 281 C 26.9367 -1.14021 -5.08575 0
M  V30 282 C 24.2647 -1.7593 -5.59701 0
M  V30 283 C 26.6167 -2.19619 -5.93254 0
M  V30 284 C 25.2807 -2.51026 -6.185 0
M  V30 285 H 24.5507 0.118384 -0.731482 0
M  V30 286 H 27.1977 -0.405847 -1.8715 0
M  V30 287 H 25.5027 1.54539 -3.60035 0
M  V30 288 H 27.1997 1.22118 -3.81953 0
M  V30 289 H 23.7897 -0.135202 -4.28387 0
M  V30 290 H 27.9737 -0.915611 -4.87781 0
M  V30 291 H 23.2297 -2.0075 -5.77503 0
M  V30 292 H 27.4037 -2.78581 -6.38252 0
M  V30 293 H 25.0307 -3.33772 -6.83008 0
M  V30 294 N 26.6058 1.57591 -0.0167156 0
M  V30 295 C 27.8528 1.91283 0.664597 0
M  V30 296 C 28.1808 0.891949 1.72842 0
M  V30 297 O 27.4358 -0.100931 1.9544 0
M  V30 298 C 27.7348 3.3172 1.33029 0
M  V30 299 C 27.4008 4.4914 0.398047 0
M  V30 300 C 26.0628 4.80992 0.141421 0
M  V30 301 C 28.4148 5.20634 -0.242825 0
M  V30 302 C 25.7428 5.81703 -0.764092 0
M  V30 303 C 28.0948 6.22311 -1.13632 0
M  V30 304 C 26.7588 6.52611 -1.40196 0
M  V30 305 H 26.0288 0.699956 0.243193 0
M  V30 306 H 28.6758 1.9135 -0.0758267 0
M  V30 307 H 26.9808 3.27856 2.14517 0
M  V30 308 H 28.6778 3.55055 1.86379 0
M  V30 309 H 25.2678 4.24262 0.608238 0
M  V30 310 H 29.4518 4.96267 -0.0576019 0
M  V30 311 H 24.7078 6.03532 -0.977732 0
M  V30 312 H 28.8818 6.76834 -1.63917 0
M  V30 313 H 26.5088 7.30467 -2.10529 0
M  V30 314 N 28.0839 -0.256276 1.55502 0
M  V30 315 C 29.4999 -0.604325 1.47716 0
M  V30 316 C 29.6999 -1.88763 0.705039 0
M  V30 317 O 28.7559 -2.51445 0.230613 0
M  V30 318 C 30.0689 -0.715756 2.92057 0
M  V30 319 C 31.6169 -0.808706 3.02372 0
M  V30 320 C 32.0919 -0.951777 4.48001 0
M  V30 321 N 33.5829 -1.01688 4.519 0
M  V30 322 C 34.3179 -1.14668 5.61817 0
M  V30 323 N 33.8139 -1.24261 6.81565 0
M  V30 324 N 35.6069 -1.1791 5.49594 0
M  V30 325 H 27.7579 0.586291 2.04148 0
M  V30 326 H 30.0209 0.201015 0.926443 0
M  V30 327 H 29.7269 0.157027 3.51349 0
M  V30 328 H 29.6009 -1.59071 3.42018 0
M  V30 329 H 31.9879 -1.67195 2.43166 0
M  V30 330 H 32.0689 0.0912063 2.55637 0
M  V30 331 H 31.7129 -0.0931291 5.07815 0
M  V30 332 H 31.6429 -1.86659 4.92408 0
M  V30 333 H 34.1339 -0.954468 3.65648 0
M  V30 334 H 34.4469 -1.34046 7.61086 0
M  V30 335 H 32.7919 -1.21236 6.84344 0
M  V30 336 H 35.9829 -1.10057 4.54978 0
M  V30 337 H 36.1559 -1.27681 6.35296 0
M  V30 338 N 29.562 -1.4872 -0.521534 0
M  V30 339 C 30.839 -1.4766 -1.2828 0
M  V30 340 C 31.219 -0.19292 -2.10217 0
M  V30 341 O 30.567 0.825193 -2.13079 0
M  V30 342 C 30.777 -2.74358 -2.15705 0
M  V30 343 C 32.125 -3.23028 -2.75569 0
M  V30 344 O 33.149 -2.75333 -2.25987 0
M  V30 345 O 32.008 -4.0604 -3.65778 0
M  V30 346 H 29.102 -0.590085 -0.579421 0
M  V30 347 H 31.648 -1.60963 -0.537492 0
M  V30 348 H 30.42 -3.59292 -1.54999 0
M  V30 349 H 30.043 -2.63816 -2.97467 0
M  V30 350 N 31.0401 0.771051 -1.3745 0
M  V30 351 C 31.9501 1.91538 -1.35464 0
M  V30 352 C 32.9661 1.72134 -0.254123 0
M  V30 353 O 34.1421 1.95358 -0.489626 0
M  V30 354 C 31.2071 3.26671 -1.16134 0
M  V30 355 C 30.2681 3.58723 -2.35831 0
M  V30 356 C 29.5011 4.87409 -2.17413 0
M  V30 357 O 29.7241 5.58506 -1.15876 0
M  V30 358 O 28.6581 5.18539 -3.05615 0
M  V30 359 H 32.4841 1.96165 -2.31847 0
M  V30 360 H 30.0691 0.9139 -1.18187 0
M  V30 361 H 31.9511 4.07499 -1.07345 0
M  V30 362 H 30.6261 3.22894 -0.228251 0
M  V30 363 H 29.5331 2.78127 -2.50192 0
M  V30 364 H 30.8661 3.67243 -3.27709 0
M  V30 365 N 32.5182 1.22032 0.997298 0
M  V30 366 C 33.4812 0.987909 2.06816 0
M  V30 367 C 34.4812 -0.0440084 1.6074 0
M  V30 368 O 35.6712 0.194053 1.73116 0
M  V30 369 C 32.8032 0.49132 3.37341 0
M  V30 370 H 33.9962 1.93803 2.28868 0
M  V30 371 H 31.5492 1.03838 1.16822 0
M  V30 372 H 32.2842 -0.463364 3.20973 0
M  V30 373 H 32.0692 1.23575 3.72118 0
M  V30 374 H 33.5592 0.348824 4.16141 0
M  V30 375 N 33.9963 -1.19345 1.0293 0
M  V30 376 C 34.9063 -2.26245 0.620515 0
M  V30 377 C 35.9223 -1.70486 -0.347928 0
M  V30 378 O 37.0983 -2.00347 -0.205704 0
M  V30 379 C 34.1633 -3.46693 -0.0218957 0
M  V30 380 C 33.2243 -4.17632 0.994102 0
M  V30 381 C 32.4573 -5.32329 0.382253 0
M  V30 382 O 32.6803 -5.64552 -0.814676 0
M  V30 383 O 31.6143 -5.91664 1.10531 0
M  V30 384 H 35.4403 -2.63453 1.51083 0
M  V30 385 H 33.0253 -1.26207 0.799513 0
M  V30 386 H 34.9073 -4.19683 -0.380072 0
M  V30 387 H 33.5823 -3.11333 -0.886209 0
M  V30 388 H 32.4893 -3.4676 1.40387 0
M  V30 389 H 33.8223 -4.56964 1.8288 0
M  V30 390 N 35.4744 -0.807222 -1.35358 0
M  V30 391 C 36.8904 -0.491038 -1.51858 0
M  V30 392 C 37.0904 0.987648 -1.75635 0
M  V30 393 O 36.1464 1.77265 -1.79815 0
M  V30 394 C 37.4594 -1.33695 -2.69344 0
M  V30 395 C 39.0074 -1.33246 -2.83222 0
M  V30 396 C 39.4824 -2.1625 -4.03733 0
M  V30 397 N 40.9734 -2.1379 -4.10911 0
M  V30 398 C 41.7084 -2.74772 -5.03277 0
M  V30 399 N 41.2044 -3.44684 -6.0097 0
M  V30 400 N 42.9974 -2.6441 -4.96028 0
M  V30 401 H 35.1484 -1.76485 -1.18181 0
M  V30 402 H 37.4114 -0.751199 -0.578276 0
M  V30 403 H 37.1174 -2.38634 -2.58354 0
M  V30 404 H 36.9914 -0.990618 -3.6396 0
M  V30 405 H 39.3784 -0.290911 -2.93663 0
M  V30 406 H 39.4594 -1.71866 -1.89461 0
M  V30 407 H 39.1034 -3.20445 -3.94052 0
M  V30 408 H 39.0334 -1.74989 -4.96675 0
M  V30 409 H 41.5244 -1.62923 -3.40976 0
M  V30 410 H 41.8374 -3.88501 -6.68047 0
M  V30 411 H 40.1824 -3.48788 -6.01142 0
M  V30 412 H 43.3734 -2.0938 -4.18662 0
M  V30 413 H 43.5464 -3.12225 -5.6782 0
M  V30 414 N 36.9525 1.47285 -0.560781 0
M  V30 415 C 38.2015 2.01668 -0.035895 0
M  V30 416 C 38.5145 1.44021 1.32353 0
M  V30 417 O 39.7205 1.90088 1.93853 0
M  V30 418 C 38.1765 3.59897 -0.0136659 0
M  V30 419 C 37.7845 4.26536 -1.37006 0
M  V30 420 C 39.5285 4.22017 0.458425 0
M  V30 421 C 37.4355 5.76782 -1.30675 0
M  V30 422 H 36.3655 0.753938 -0.00964879 0
M  V30 423 H 39.0165 1.69243 -0.709166 0
M  V30 424 H 37.3985 3.89301 0.725325 0
M  V30 425 H 38.5725 4.0877 -2.12705 0
M  V30 426 H 36.8875 3.76419 -1.78038 0
M  V30 427 H 39.4845 5.32124 0.524247 0
M  V30 428 H 39.8275 3.89437 1.4712 0
M  V30 429 H 40.3605 3.97159 -0.225818 0
M  V30 430 H 37.0995 6.13988 -2.29564 0
M  V30 431 H 36.6195 5.96875 -0.591622 0
M  V30 432 H 38.2985 6.39063 -1.01033 0
M  V30 433 N 38.4306 0.297415 1.54768 0
M  V30 434 C 39.3636 -0.622188 2.19554 0
M  V30 435 C 40.3416 -1.13558 1.16376 0
M  V30 436 O 41.5256 -1.20444 1.45002 0
M  V30 437 C 38.6526 -1.8509 2.83653 0
M  V30 438 C 37.6986 -1.47106 4.00328 0
M  V30 439 S 38.5316 -0.53006 5.3287 0
M  V30 440 C 39.6876 -1.76665 6.0045 0
M  V30 441 H 39.9206 -0.0717806 2.97213 0
M  V30 442 H 37.4536 0.0815678 1.54184 0
M  V30 443 H 39.4116 -2.55605 3.21211 0
M  V30 444 H 38.0726 -2.37247 2.05846 0
M  V30 445 H 37.2656 -2.38594 4.43947 0
M  V30 446 H 36.8676 -0.845885 3.64309 0
M  V30 447 H 39.1596 -2.7077 6.21039 0
M  V30 448 H 40.1026 -1.37308 6.9466 0
M  V30 449 H 40.5106 -1.94174 5.30054 0
M  V30 450 N 39.9087 -1.5758 0.0250728 0
M  V30 451 C 41.3247 -1.56124 -0.331282 0
M  V30 452 C 41.5247 -1.03029 -1.73169 0
M  V30 453 O 40.5807 -0.675215 -2.43305 0
M  V30 454 C 41.8937 -3.00139 -0.183584 0
M  V30 455 C 43.4417 -3.11946 -0.256654 0
M  V30 456 C 43.9167 -4.57793 -0.137792 0
M  V30 457 N 45.4077 -4.6279 -0.194904 0
M  V30 458 C 46.1427 -5.7326 -0.126655 0
M  V30 459 N 45.6387 -6.928 -0.00755288 0
M  V30 460 N 47.4317 -5.61811 -0.180348 0
M  V30 461 H 39.5827 -1.90424 0.94087 0
M  V30 462 H 41.8457 -0.875761 0.362968 0
M  V30 463 H 41.5517 -3.4292 0.780927 0
M  V30 464 H 41.4257 -3.64899 -0.955448 0
M  V30 465 H 43.8127 -2.69079 -1.21162 0
M  V30 466 H 43.8937 -2.49915 0.545517 0
M  V30 467 H 43.5377 -5.01339 0.813739 0
M  V30 468 H 43.4677 -5.17798 -0.958775 0
M  V30 469 H 45.9587 -3.76807 -0.287267 0
M  V30 470 H 46.2717 -7.72791 0.0379428 0
M  V30 471 H 44.6167 -6.94995 0.0271731 0
M  V30 472 H 47.8077 -4.6731 -0.271767 0
M  V30 473 H 47.9807 -6.47882 -0.123697 0
M  V30 474 N 41.3868 0.248026 -1.55636 0
M  V30 475 C 42.6638 0.998988 -1.68165 0
M  V30 476 C 43.0438 2.03409 -0.564621 0
M  V30 477 O 42.3918 2.24378 0.432076 0
M  V30 478 C 42.6018 1.63334 -3.0842 0
M  V30 479 C 43.9498 2.13562 -3.66983 0
M  V30 480 O 44.9738 1.73277 -3.11213 0
M  V30 481 O 43.8328 2.87526 -4.64749 0
M  V30 482 H 40.9268 0.464933 -0.683935 0
M  V30 483 H 43.4728 0.241902 -1.67967 0
M  V30 484 H 42.2448 0.884583 -3.8117 0
M  V30 485 H 41.8678 2.45666 -3.12624 0
M  V30 486 N 42.8649 1.48995 0.513639 0
M  V30 487 C 44.0899 1.61792 1.29762 0
M  V30 488 C 44.5149 0.284475 1.85936 0
M  V30 489 O 43.8729 -0.746185 1.65232 0
M  V30 490 C 43.9209 2.67993 2.41272 0
M  V30 491 O 43.0249 2.26287 3.44772 0
M  V30 492 H 42.3659 0.541963 0.38363 0
M  V30 493 H 44.8959 1.95097 0.616307 0
M  V30 494 H 44.9059 2.89772 2.87221 0
M  V30 495 H 43.5809 3.64791 1.9975 0
M  V30 496 H 42.1579 2.14788 3.04829 0
M  V30 497 N 44.343 -0.763751 1.37857 0
M  V30 498 C 45.754 -1.3405 1.29952 0
M  V30 499 C 46.105 -1.96138 -0.0492898 0
M  V30 500 O 45.23 -1.94372 -0.951239 0
M  V30 501 C 45.825 -2.43729 2.35333 0
M  V30 502 C 44.384 -2.97151 2.31037 0
M  V30 503 C 43.531 -1.70438 2.18738 0
M  V30 504 H 46.482 -0.563396 1.48363 0
M  V30 505 H 46.503 -3.23412 2.00462 0
M  V30 506 H 46.015 -1.9851 3.33489 0
M  V30 507 H 44.116 -3.46724 1.3643 0
M  V30 508 H 44.229 -3.52221 3.24772 0
M  V30 509 H 42.593 -1.93673 1.65418 0
M  V30 510 H 43.376 -1.27312 3.18821 0
M  V30 511 N 45.8211 -1.22559 -0.990812 0
M  V30 512 C 47.0671 -1.05297 -1.73322 0
M  V30 513 C 47.4001 0.410655 -1.89808 0
M  V30 514 O 46.6751 1.30439 -1.44277 0
M  V30 515 C 46.9581 -1.76713 -3.13759 0
M  V30 516 C 46.8111 -3.30684 -3.04907 0
M  V30 517 C 48.1301 -1.52121 -4.12974 0
M  V30 518 H 45.2491 -0.38392 -0.629106 0
M  V30 519 H 47.8911 -1.50926 -1.15418 0
M  V30 520 H 46.0411 -1.37924 -3.63193 0
M  V30 521 H 47.7131 -3.7893 -2.63077 0
M  V30 522 H 45.9561 -3.60253 -2.41661 0
M  V30 523 H 46.6271 -3.75833 -4.04294 0
M  V30 524 H 49.1031 -1.85819 -3.72304 0
M  V30 525 H 47.9791 -2.04582 -5.0935 0
M  V30 526 H 48.2401 -0.454257 -4.3976 0
M  V30 527 N 47.2992 1.18797 -1.03562 0
M  V30 528 C 48.5482 1.87978 -0.731235 0
M  V30 529 C 48.8612 1.80911 0.743671 0
M  V30 530 O 50.0672 2.45407 1.16137 0
M  V30 531 C 48.5232 3.3721 -1.25768 0
M  V30 532 C 48.1312 3.52818 -2.76085 0
M  V30 533 C 49.8752 4.11825 -1.0296 0
M  V30 534 C 47.7822 4.9598 -3.22114 0
M  V30 535 H 46.7122 0.704063 -0.269835 0
M  V30 536 H 49.3632 1.34266 -1.25079 0
M  V30 537 H 47.7452 3.90359 -0.666011 0
M  V30 538 H 48.9192 3.09965 -3.40966 0
M  V30 539 H 47.2342 2.91602 -2.97249 0
M  V30 540 H 49.8312 5.17411 -1.34869 0
M  V30 541 H 50.1742 4.16287 0.0333546 0
M  V30 542 H 50.7072 3.64833 -1.58562 0
M  V30 543 H 47.4462 4.96684 -4.27768 0
M  V30 544 H 46.9662 5.39569 -2.61965 0
M  V30 545 H 48.6452 5.6467 -3.15844 0
M  V30 546 N 48.7773 0.814389 1.34928 0
M  V30 547 C 50.0543 0.321363 1.92942 0
M  V30 548 C 50.4343 -1.19014 1.74353 0
M  V30 549 O 49.7823 -1.99328 1.11716 0
M  V30 550 C 49.9923 0.741323 3.41036 0
M  V30 551 C 51.3403 0.735266 4.18185 0
M  V30 552 O 52.3643 0.68336 3.49584 0
M  V30 553 O 51.2233 0.800703 5.40602 0
M  V30 554 H 48.3173 0.0858893 0.822528 0
M  V30 555 H 50.8633 0.898609 1.43955 0
M  V30 556 H 49.6353 1.78276 3.4833 0
M  V30 557 H 49.2583 0.139307 3.97356 0
M  V30 558 N 50.2554 -1.46986 0.568584 0
M  V30 559 C 51.5034 -2.02041 0.0487022 0
M  V30 560 C 51.8244 -1.44408 -1.31039 0
M  V30 561 O 51.0944 -0.623477 -1.85714 0
M  V30 562 H 49.6744 -0.746849 0.015014 0
M  V30 563 H 52.3364 -1.80257 0.741168 0
M  V30 564 H 51.4324 -3.12085 -0.0308961 0
M  V30 565 N 51.7335 -0.305618 -1.54608 0
M  V30 566 C 52.6835 0.583595 -2.20405 0
M  V30 567 C 53.6675 1.09539 -1.17856 0
M  V30 568 O 54.8595 1.0354 -1.43557 0
M  V30 569 C 51.9885 1.75277 -2.95183 0
M  V30 570 C 51.0745 1.25672 -4.05052 0
M  V30 571 N 51.4655 0.478998 -5.03527 0
M  V30 572 C 49.7635 1.53704 -4.18678 0
M  V30 573 C 50.4645 0.214269 -5.81305 0
M  V30 574 N 49.4405 0.795374 -5.3775 0
M  V30 575 H 53.2425 -0.0180946 -2.93894 0
M  V30 576 H 50.7565 -0.110601 -1.62023 0
M  V30 577 H 52.7535 2.4014 -3.40791 0
M  V30 578 H 51.4135 2.35812 -2.23211 0
M  V30 579 H 52.4245 0.123473 -5.17753 0
M  V30 580 H 49.1015 2.14954 -3.57912 0
M  V30 581 H 50.4915 -0.410656 -6.70644 0
M  V30 582 N 53.2116 1.57565 -0.0334293 0
M  V30 583 C 54.1596 2.1164 0.96496 0
M  V30 584 C 55.1536 1.04398 1.33407 0
M  V30 585 O 56.3596 1.22828 1.3158 0
M  V30 586 H 52.7346 0.676222 0.32898 0
M  V30 587 H 54.7056 2.94455 0.483614 0
M  V30 588 C 53.4546 2.66207 2.23672 0
M  V30 589 H 52.7776 3.48378 1.96145 0
M  V30 590 H 54.2176 3.07685 2.9173 0
M  V30 591 C 52.6766 1.59151 2.96939 0
M  V30 592 O 53.2066 0.993858 3.89211 0
M  V30 593 N 51.4126 1.31093 2.59351 0
M  V30 594 H 50.9596 1.7988 1.84393 0
M  V30 595 H 50.9176 0.596889 3.08682 0
M  V30 596 N 54.6897 -0.239769 1.55765 0
M  V30 597 C 55.9667 -0.990056 1.68693 0
M  V30 598 C 56.3467 -2.03107 0.5754 0
M  V30 599 O 55.6947 -2.24604 -0.42017 0
M  V30 600 C 55.9047 -1.61696 3.09282 0
M  V30 601 C 57.2527 -2.11613 3.6811 0
M  V30 602 O 58.2767 -1.71624 3.12127 0
M  V30 603 O 57.1357 -2.85057 4.66267 0
M  V30 604 H 54.2297 -0.461299 0.686391 0
M  V30 605 H 56.7757 -0.232991 1.68093 0
M  V30 606 H 55.5477 -0.864357 3.81634 0
M  V30 607 H 55.1707 -2.44005 3.13923 0
M  V30 608 N 56.1678 -1.49265 -0.50573 0
M  V30 609 C 57.0978 -1.68495 -1.61653 0
M  V30 610 C 58.0788 -0.53366 -1.61512 0
M  V30 611 O 59.2638 -0.76897 -1.78327 0
M  V30 612 C 56.3938 -1.74709 -3.00157 0
M  V30 613 C 55.3478 -2.89581 -3.15162 0
M  V30 614 C 54.6738 -2.80903 -4.5497 0
M  V30 615 C 55.9738 -4.30578 -2.95634 0
M  V30 616 H 57.6678 -2.61493 -1.45814 0
M  V30 617 H 55.2138 -1.25838 -0.70005 0
M  V30 618 H 57.1668 -1.86748 -3.77761 0
M  V30 619 H 55.8908 -0.783067 -3.17074 0
M  V30 620 H 54.5498 -2.77136 -2.39982 0
M  V30 621 H 54.1978 -1.82419 -4.68756 0
M  V30 622 H 53.8978 -3.57999 -4.65951 0
M  V30 623 H 55.4218 -2.94944 -5.34641 0
M  V30 624 H 56.8358 -4.4373 -3.63011 0
M  V30 625 H 55.2328 -5.0886 -3.18091 0
M  V30 626 H 56.3028 -4.45352 -1.91806 0
M  V30 627 N 57.6459 0.756429 -1.3826 0
M  V30 628 C 59.0569 1.33359 -1.30661 0
M  V30 629 C 59.4079 1.96161 0.0388875 0
M  V30 630 O 58.5329 1.94874 0.940918 0
M  V30 631 C 59.1279 2.42477 -2.36622 0
M  V30 632 C 57.6869 2.95922 -2.3261 0
M  V30 633 C 56.8339 1.69275 -2.19639 0
M  V30 634 H 59.7849 0.55552 -1.4866 0
M  V30 635 H 59.8059 3.22345 -2.02174 0
M  V30 636 H 59.3179 1.96739 -3.34538 0
M  V30 637 H 57.4189 3.45996 -1.38267 0
M  V30 638 H 57.5319 3.50494 -3.26636 0
M  V30 639 H 55.8959 1.92793 -1.66442 0
M  V30 640 H 56.6789 1.25619 -3.19491 0
M  V30 641 N 59.124 1.23083 0.984299 0
M  V30 642 C 60.37 1.07221 1.72845 0
M  V30 643 C 60.725 -0.387453 1.88458 0
M  V30 644 O 60.018 -1.28309 1.42293 0
M  V30 645 C 60.212 1.72673 3.1292 0
M  V30 646 C 60.041 3.24853 3.10967 0
M  V30 647 C 58.811 3.93998 3.16376 0
M  V30 648 C 61.009 4.21674 2.94441 0
M  V30 649 N 58.991 5.33192 3.04268 0
M  V30 650 C 60.362 5.47756 2.90453 0
M  V30 651 C 62.417 4.12457 2.78897 0
M  V30 652 C 61.12 6.6568 2.72512 0
M  V30 653 C 63.146 5.3004 2.62319 0
M  V30 654 C 62.508 6.55046 2.59026 0
M  V30 655 H 58.607 0.44685 0.641755 0
M  V30 656 H 61.191 1.55753 1.16829 0
M  V30 657 H 59.362 1.26679 3.67161 0
M  V30 658 H 61.094 1.49824 3.75945 0
M  V30 659 H 57.849 3.45052 3.24401 0
M  V30 660 H 58.273 6.06157 3.015 0
M  V30 661 H 62.915 3.16588 2.80235 0
M  V30 662 H 60.633 7.61689 2.69919 0
M  V30 663 H 64.219 5.24747 2.5126 0
M  V30 664 H 63.099 7.44498 2.46357 0
M  V30 665 N 60.6021 -1.18246 1.0419 0
M  V30 666 C 61.5341 -2.2142 0.592088 0
M  V30 667 C 62.5471 -1.59233 -0.338909 0
M  V30 668 O 63.7361 -1.78002 -0.133231 0
M  V30 669 C 60.8361 -3.38546 -0.154854 0
M  V30 670 C 60.0091 -4.3031 0.784328 0
M  V30 671 C 59.0681 -5.26138 0.0804583 0
M  V30 672 O 58.0941 -5.64738 0.711292 0
M  V30 673 N 59.2961 -5.68261 -1.18574 0
M  V30 674 H 62.0611 -2.60636 1.47949 0
M  V30 675 H 59.6221 -1.33044 0.922544 0
M  V30 676 H 61.6141 -3.99678 -0.635606 0
M  V30 677 H 60.1841 -2.98012 -0.943811 0
M  V30 678 H 59.4041 -3.66764 1.44491 0
M  V30 679 H 60.6921 -4.8852 1.42218 0
M  V30 680 H 60.0901 -5.38957 -1.71876 0
M  V30 681 H 58.6471 -6.31584 -1.61074 0
M  V30 682 N 62.0802 -0.821533 -1.34494 0
M  V30 683 C 63.0102 -0.257138 -2.3208 0
M  V30 684 C 63.9912 0.625645 -1.58176 0
M  V30 685 O 65.1762 0.552811 -1.86166 0
M  V30 686 C 62.3062 0.582958 -3.42372 0
M  V30 687 C 61.2602 -0.202571 -4.2752 0
M  V30 688 C 60.5862 0.760179 -5.29269 0
M  V30 689 C 61.8862 -1.40998 -5.02908 0
M  V30 690 H 63.5802 -1.07247 -2.79532 0
M  V30 691 H 61.1262 -0.517163 -1.34393 0
M  V30 692 H 63.0792 0.987972 -4.09655 0
M  V30 693 H 61.8032 1.43133 -2.93565 0
M  V30 694 H 60.4622 -0.588936 -3.61838 0
M  V30 695 H 60.1102 1.60447 -4.76724 0
M  V30 696 H 59.8102 0.238809 -5.87115 0
M  V30 697 H 61.3342 1.16308 -5.9942 0
M  V30 698 H 62.7482 -1.07905 -5.63054 0
M  V30 699 H 61.1452 -1.86689 -5.70322 0
M  V30 700 H 62.2152 -2.1889 -4.32684 0
M  V30 701 N 63.5583 1.46682 -0.576371 0
M  V30 702 C 64.4883 2.33028 0.148397 0
M  V30 703 C 65.4693 1.44961 0.889956 0
M  V30 704 O 66.6543 1.73789 0.866662 0
M  V30 705 C 63.7843 3.27117 1.1667 0
M  V30 706 C 62.7383 4.24575 0.540386 0
M  V30 707 C 62.0643 5.08126 1.6647 0
M  V30 708 C 63.3643 5.19722 -0.518331 0
M  V30 709 H 65.0583 2.93875 -0.572509 0
M  V30 710 H 62.6043 1.41315 -0.276768 0
M  V30 711 H 64.5573 3.86374 1.68204 0
M  V30 712 H 63.2813 2.64364 1.9178 0
M  V30 713 H 61.9403 3.66571 0.0461769 0
M  V30 714 H 61.5883 4.41762 2.40531 0
M  V30 715 H 61.2883 5.74122 1.25131 0
M  V30 716 H 62.8123 5.70246 2.18293 0
M  V30 717 H 64.2263 5.73232 -0.0883058 0
M  V30 718 H 62.6233 5.94026 -0.851679 0
M  V30 719 H 63.6933 4.64037 -1.40703 0
M  V30 720 N 65.0364 0.313813 1.54444 0
M  V30 721 C 66.3134 -0.345447 1.92525 0
M  V30 722 C 66.6934 -1.70667 1.24242 0
M  V30 723 O 66.0414 -2.25273 0.382654 0
M  V30 724 C 66.2514 -0.44737 3.46121 0
M  V30 725 C 67.5994 -0.712238 4.18584 0
M  V30 726 O 68.6234 -0.530678 3.52225 0
M  V30 727 O 67.4824 -1.06183 5.36085 0
M  V30 728 H 64.5764 -0.195407 0.803583 0
M  V30 729 H 67.1224 0.362813 1.65776 0
M  V30 730 H 65.8944 0.509043 3.87975 0
M  V30 731 H 65.5174 -1.20359 3.78945 0
M  V30 732 N 66.5145 -1.57545 0.0417849 0
M  V30 733 C 67.4475 -2.06514 -0.970928 0
M  V30 734 C 68.4255 -0.963607 -1.30971 0
M  V30 735 O 69.6095 -1.23486 -1.4242 0
M  V30 736 C 66.7365 -2.4978 -2.28752 0
M  V30 737 C 65.7825 -3.71078 -2.10246 0
M  V30 738 S 66.6155 -5.17158 -1.38952 0
M  V30 739 C 67.7715 -5.6373 -2.71954 0
M  V30 740 H 68.0045 -2.9209 -0.554129 0
M  V30 741 H 65.5375 -1.53459 -0.17024 0
M  V30 742 H 67.4955 -2.75371 -3.04435 0
M  V30 743 H 66.1565 -1.64527 -2.67562 0
M  V30 744 H 65.3495 -3.9924 -3.07609 0
M  V30 745 H 64.9515 -3.45705 -1.42704 0
M  V30 746 H 67.2435 -5.68743 -3.68154 0
M  V30 747 H 68.1865 -6.63086 -2.4844 0
M  V30 748 H 68.5945 -4.91424 -2.77782 0
M  V30 749 N 67.9926 0.231505 -1.5589 0
M  V30 750 C 69.2396 0.957352 -1.78441 0
M  V30 751 C 69.5676 1.84726 -0.60882 0
M  V30 752 O 68.8226 1.91416 0.40725 0
M  V30 753 C 69.1216 1.83577 -3.0665 0
M  V30 754 C 68.7876 1.09993 -4.37278 0
M  V30 755 C 67.4496 0.896629 -4.72773 0
M  V30 756 C 69.8016 0.579558 -5.17968 0
M  V30 757 C 67.1296 0.160896 -5.86479 0
M  V30 758 C 69.4816 -0.142783 -6.32439 0
M  V30 759 C 68.1456 -0.357427 -6.66542 0
M  V30 760 H 67.4156 0.35032 -0.65296 0
M  V30 761 H 70.0626 0.226259 -1.90159 0
M  V30 762 H 68.3676 2.63441 -2.90011 0
M  V30 763 H 70.0646 2.39934 -3.21298 0
M  V30 764 H 66.6546 1.26835 -4.09403 0
M  V30 765 H 70.8386 0.724125 -4.90989 0
M  V30 766 H 66.0946 -0.0157293 -6.11398 0
M  V30 767 H 70.2686 -0.553559 -6.94196 0
M  V30 768 H 67.8956 -0.929466 -7.54497 0
M  V30 769 N 69.4707 1.49531 0.497807 0
M  V30 770 C 70.4187 1.66926 1.61983 0
M  V30 771 C 71.4127 0.535167 1.60724 0
M  V30 772 O 72.6187 0.714896 1.65195 0
M  V30 773 H 68.9937 0.526415 0.537021 0
M  V30 774 H 70.9647 2.61098 1.44465 0
M  V30 775 C 69.7137 1.75602 3.00099 0
M  V30 776 H 69.0367 2.62244 3.01775 0
M  V30 777 H 70.4767 1.91807 3.78135 0
M  V30 778 C 68.9357 0.501543 3.33146 0
M  V30 779 O 69.4657 -0.371342 3.9998 0
M  V30 780 N 67.6717 0.363531 2.88317 0
M  V30 781 H 67.2187 1.07485 2.34104 0
M  V30 782 H 67.1767 -0.474728 3.10795 0
M  V30 783 N 70.9488 -0.749086 1.3866 0
M  V30 784 C 71.8968 -1.88428 1.36373 0
M  V30 785 C 72.8908 -1.67561 0.248929 0
M  V30 786 O 74.0968 -1.75074 0.41821 0
M  V30 787 H 70.4718 -0.620023 0.42553 0
M  V30 788 H 72.4428 -1.87473 2.32156 0
M  V30 789 C 71.1918 -3.25961 1.21014 0
M  V30 790 H 70.5148 -3.42607 2.06059 0
M  V30 791 H 71.9548 -4.05625 1.23469 0
M  V30 792 C 70.4138 -3.36799 -0.0825941 0
M  V30 793 O 70.9438 -3.87517 -1.05797 0
M  V30 794 N 69.1498 -2.90258 -0.140939 0
M  V30 795 H 68.6968 -2.49174 0.653477 0
M  V30 796 H 68.6548 -2.97889 -1.00545 0
M  V30 797 N 72.4269 -1.23603 -0.977757 0
M  V30 798 C 73.8429 -0.999251 -1.24447 0
M  V30 799 C 74.0429 0.298053 -1.99283 0
M  V30 800 O 73.0989 1.01681 -2.31122 0
M  V30 801 C 74.4119 -2.20784 -2.04144 0
M  V30 802 C 75.9599 -2.25303 -2.17273 0
M  V30 803 C 76.4349 -3.45755 -3.00362 0
M  V30 804 N 77.9259 -3.4601 -3.07947 0
M  V30 805 C 78.6609 -4.35868 -3.72568 0
M  V30 806 N 78.1569 -5.35966 -4.38991 0
M  V30 807 N 79.9499 -4.23605 -3.6948 0
M  V30 808 H 72.1009 -2.06986 -0.476483 0
M  V30 809 H 74.3639 -0.907801 -0.273134 0
M  V30 810 H 74.0699 -3.14945 -1.56533 0
M  V30 811 H 73.9439 -2.22085 -3.04891 0
M  V30 812 H 76.3309 -1.3168 -2.64092 0
M  V30 813 H 76.4119 -2.28033 -1.15907 0
M  V30 814 H 76.0559 -4.39687 -2.5424 0
M  V30 815 H 75.9859 -3.40266 -4.01904 0
M  V30 816 H 78.4769 -2.73588 -2.60688 0
M  V30 817 H 78.7899 -6.00783 -4.86086 0
M  V30 818 H 77.1349 -5.39863 -4.37691 0
M  V30 819 H 80.3259 -3.44647 -3.16759 0
M  V30 820 H 80.4989 -4.93836 -4.1956 0
M  V30 821 N 73.905 1.17692 -1.04816 0
M  V30 822 C 74.835 2.23777 -0.666791 0
M  V30 823 C 75.816 1.66796 0.33361 0
M  V30 824 O 77.001 1.93039 0.212042 0
M  V30 825 C 74.131 3.47281 -0.0367933 0
M  V30 826 C 73.085 4.17059 -0.961546 0
M  V30 827 C 72.411 5.34342 -0.195626 0
M  V30 828 C 73.711 4.69713 -2.28402 0
M  V30 829 H 75.405 2.55933 -1.55367 0
M  V30 830 H 72.951 1.23019 -0.748484 0
M  V30 831 H 74.904 4.20706 0.241775 0
M  V30 832 H 73.628 3.14381 0.885004 0
M  V30 833 H 72.287 3.45541 -1.22462 0
M  V30 834 H 71.935 4.97692 0.728816 0
M  V30 835 H 71.635 5.81966 -0.811775 0
M  V30 836 H 73.159 6.10553 0.0757473 0
M  V30 837 H 74.573 5.34794 -2.06563 0
M  V30 838 H 72.97 5.279 -2.8538 0
M  V30 839 H 74.04 3.86726 -2.92525 0
M  V30 840 N 75.3831 0.828654 1.34056 0
M  V30 841 C 76.3151 0.212052 2.28217 0
M  V30 842 C 77.3281 -0.601362 1.51286 0
M  V30 843 O 78.5171 -0.430104 1.73241 0
M  V30 844 C 75.6171 -0.72088 3.31144 0
M  V30 845 C 74.7901 0.0509587 4.3737 0
M  V30 846 C 73.8491 -0.803766 5.20025 0
M  V30 847 O 72.8751 -0.246667 5.68665 0
M  V30 848 N 74.0771 -2.1227 5.40298 0
M  V30 849 H 76.8421 1.02105 2.81771 0
M  V30 850 H 74.4031 0.686153 1.46641 0
M  V30 851 H 76.3951 -1.29742 3.8334 0
M  V30 852 H 74.9651 -1.43061 2.77943 0
M  V30 853 H 74.1851 0.808831 3.85813 0
M  V30 854 H 75.4731 0.582065 5.0546 0
M  V30 855 H 74.8711 -2.59898 5.02464 0
M  V30 856 H 73.4281 -2.64796 5.95589 0
M  V30 857 N 76.8612 -1.46375 0.584142 0
M  V30 858 C 78.1382 -1.956 0.0033388 0
M  V30 859 C 78.5182 -1.52679 -1.45782 0
M  V30 860 O 77.8662 -0.77816 -2.14842 0
M  V30 861 C 78.0762 -3.48551 0.176891 0
M  V30 862 C 79.4242 -4.24576 0.0454609 0
M  V30 863 O 80.4482 -3.56043 0.105801 0
M  V30 864 O 79.3072 -5.46427 -0.0890376 0
M  V30 865 H 76.4012 -0.825547 -0.0490066 0
M  V30 866 H 78.9472 -1.56652 0.65256 0
M  V30 867 H 77.7192 -3.72683 1.1926 0
M  V30 868 H 77.3422 -3.94332 -0.508695 0
M  V30 869 N 78.3393 -0.321999 -1.54275 0
M  V30 870 C 79.2493 0.553631 -2.27974 0
M  V30 871 C 80.2653 1.13054 -1.32268 0
M  V30 872 O 81.4413 1.15084 -1.6528 0
M  V30 873 C 78.5063 1.69927 -3.02201 0
M  V30 874 C 77.5673 1.15433 -4.1349 0
M  V30 875 C 76.8003 2.24537 -4.84168 0
M  V30 876 O 77.0233 3.44852 -4.5435 0
M  V30 877 O 75.9573 1.90044 -5.7111 0
M  V30 878 H 79.7833 -0.0448345 -3.03667 0
M  V30 879 H 77.3683 -0.0877418 -1.49142 0
M  V30 880 H 79.2503 2.3663 -3.48689 0
M  V30 881 H 77.9253 2.28395 -2.29385 0
M  V30 882 H 76.8323 0.452436 -3.71354 0
M  V30 883 H 78.1653 0.614805 -4.88345 0
M  V30 884 N 79.8174 1.5752 -0.0501392 0
M  V30 885 C 81.2334 1.56631 0.306402 0
M  V30 886 C 81.4334 1.0577 1.71508 0
M  V30 887 O 80.4894 0.713837 2.422 0
M  V30 888 C 81.8024 3.00393 0.135811 0
M  V30 889 C 83.3504 3.12315 0.206993 0
M  V30 890 C 83.8254 4.57954 0.064944 0
M  V30 891 N 85.3164 4.63041 0.121254 0
M  V30 892 C 86.0514 5.73389 0.0354381 0
M  V30 893 N 85.5474 6.92724 -0.102666 0
M  V30 894 N 87.3404 5.62026 0.090946 0
M  V30 895 H 79.4914 1.88903 -0.971046 0
M  V30 896 H 81.7544 0.869876 -0.376855 0
M  V30 897 H 81.4604 3.41635 -0.835384 0
M  V30 898 H 81.3344 3.66373 0.897275 0
M  V30 899 H 83.7214 2.70973 1.16866 0
M  V30 900 H 83.8024 2.49016 -0.585208 0
M  V30 901 H 83.4464 4.99981 -0.893394 0
M  V30 902 H 83.3764 5.19258 0.876277 0
M  V30 903 H 85.8674 3.77216 0.227284 0
M  V30 904 H 86.1804 7.72633 -0.160882 0
M  V30 905 H 84.5254 6.94864 -0.137737 0
M  V30 906 H 87.7164 4.67684 0.197388 0
M  V30 907 H 87.8894 6.47997 0.0206089 0
M  V30 908 N 81.2955 -0.223234 1.56011 0
M  V30 909 C 82.2585 -1.26014 1.9145 0
M  V30 910 C 83.2585 -1.3989 0.792937 0
M  V30 911 O 84.4485 -1.38184 1.0607 0
M  V30 912 C 81.5805 -2.63422 2.16383 0
M  V30 913 H 82.7735 -0.95796 2.84189 0
M  V30 914 H 80.3265 -0.463576 1.49267 0
M  V30 915 H 81.0615 -2.98741 1.2619 0
M  V30 916 H 80.8465 -2.54728 2.98088 0
M  V30 917 H 82.3365 -3.38249 2.44903 0
M  V30 918 N 82.7736 -1.49793 -0.48987 0
M  V30 919 C 83.7216 -1.67783 -1.61095 0
M  V30 920 C 84.7156 -0.543683 -1.60438 0
M  V30 921 O 85.9216 -0.723647 -1.64813 0
M  V30 922 H 82.2966 -0.529255 -0.534222 0
M  V30 923 H 84.2676 -2.61861 -1.43078 0
M  V30 924 C 83.0166 -1.77191 -2.99164 0
M  V30 925 H 82.3396 -2.63841 -3.0038 0
M  V30 926 H 83.7796 -1.93809 -3.77113 0
M  V30 927 C 82.2386 -0.519203 -3.32875 0
M  V30 928 O 82.7686 0.350124 -4.00171 0
M  V30 929 N 80.9746 -0.378816 -2.8812 0
M  V30 930 H 80.5216 -1.08725 -2.33531 0
M  V30 931 H 80.4796 0.458239 -3.11043 0
M  V30 932 N 84.2517 0.741722 -1.39055 0
M  V30 933 C 85.1817 1.869 -1.39966 0
M  V30 934 C 86.1627 1.6804 -0.26392 0
M  V30 935 O 87.3477 1.88458 -0.468755 0
M  V30 936 C 84.4777 3.24572 -1.23574 0
M  V30 937 C 83.4317 3.58056 -2.34477 0
M  V30 938 C 82.7577 4.94593 -2.0318 0
M  V30 939 C 84.0577 3.61716 -3.76774 0
M  V30 940 H 85.7517 1.86395 -2.34302 0
M  V30 941 H 83.2977 0.895361 -1.1278 0
M  V30 942 H 85.2507 4.031 -1.22834 0
M  V30 943 H 83.9747 3.25587 -0.257045 0
M  V30 944 H 82.6337 2.81854 -2.34423 0
M  V30 945 H 82.2817 4.92181 -1.03765 0
M  V30 946 H 81.9817 5.17964 -2.77465 0
M  V30 947 H 83.5057 5.75486 -2.04079 0
M  V30 948 H 84.9197 4.30335 -3.78794 0
M  V30 949 H 83.3167 3.96603 -4.50362 0
M  V30 950 H 84.3867 2.61672 -4.08235 0
M  V30 951 N 85.7298 1.2412 0.971189 0
M  V30 952 C 86.9578 1.10575 1.74874 0
M  V30 953 C 87.3728 -0.342017 1.85676 0
M  V30 954 O 86.7298 -1.23617 1.34258 0
M  V30 955 C 86.7808 1.73579 3.171 0
M  V30 956 O 86.5018 3.12695 3.06844 0
M  V30 957 C 88.0028 1.65598 4.11208 0
M  V30 958 H 85.2228 0.386504 0.548503 0
M  V30 959 H 87.7668 1.64156 1.21955 0
M  V30 960 H 85.9218 1.24009 3.67016 0
M  V30 961 H 86.3358 3.43412 3.96445 0
M  V30 962 H 87.8098 2.1437 5.08674 0
M  V30 963 H 88.2868 0.616532 4.34851 0
M  V30 964 H 88.8928 2.14578 3.67201 0
M  V30 965 N 87.2079 -1.17134 1.05439 0
M  V30 966 C 88.4359 -1.91372 0.786414 0
M  V30 967 C 88.8509 -1.76955 -0.658202 0
M  V30 968 O 88.2079 -1.10838 -1.44987 0
M  V30 969 C 88.2589 -3.42356 1.1608 0
M  V30 970 O 87.9799 -3.56332 2.54871 0
M  V30 971 C 89.4809 -4.33663 0.919322 0
M  V30 972 H 86.7009 -0.607118 0.285743 0
M  V30 973 H 89.2449 -1.48525 1.40572 0
M  V30 974 H 87.3999 -3.82939 0.586191 0
M  V30 975 H 87.8139 -4.49896 2.69618 0
M  V30 976 H 89.2879 -5.38099 1.231 0
M  V30 977 H 89.7649 -4.38959 -0.145359 0
M  V30 978 H 90.3709 -3.98796 1.47789 0
M  V30 979 N 88.686 -0.835752 -1.33615 0
M  V30 980 C 89.616 -0.281739 -2.31794 0
M  V30 981 C 90.597 0.608833 -1.58831 0
M  V30 982 O 91.782 0.533035 -1.86741 0
M  V30 983 C 88.912 0.546612 -3.42971 0
M  V30 984 C 87.866 -0.247904 -4.27281 0
M  V30 985 C 87.192 0.704001 -5.30045 0
M  V30 986 C 88.492 -1.46324 -5.01385 0
M  V30 987 H 90.186 -1.10206 -2.78379 0
M  V30 988 H 87.732 -0.531388 -1.33837 0
M  V30 989 H 89.685 0.944467 -4.1068 0
M  V30 990 H 88.409 1.40011 -2.95067 0
M  V30 991 H 87.068 -0.627281 -3.61194 0
M  V30 992 H 86.716 1.55381 -4.78399 0
M  V30 993 H 86.416 0.176524 -5.87335 0
M  V30 994 H 87.94 1.09944 -6.0062 0
M  V30 995 H 89.354 -1.13871 -5.61877 0
M  V30 996 H 87.751 -1.92728 -5.6831 0
M  V30 997 H 88.821 -2.23467 -4.30338 0
M  V30 998 N 90.1641 1.46063 -0.591896 0
M  V30 999 C 91.1271 2.28854 0.125973 0
M  V30 1000 C 92.1271 1.38903 0.810107 0
M  V30 1001 O 93.3171 1.61186 0.66066 0
M  V30 1002 C 90.4491 3.19526 1.1881 0
M  V30 1003 H 91.6421 2.93802 -0.601717 0
M  V30 1004 H 89.1951 1.52325 -0.350254 0
M  V30 1005 H 89.9301 2.59345 1.94707 0
M  V30 1006 H 89.7151 3.85766 0.701936 0
M  V30 1007 H 91.2051 3.81817 1.69132 0
M  V30 1008 N 91.6422 0.330177 1.54103 0
M  V30 1009 C 92.8902 -0.269871 2.0029 0
M  V30 1010 C 93.2112 -1.52133 1.21986 0
M  V30 1011 O 92.4812 -1.93212 0.323438 0
M  V30 1012 H 91.0612 -0.10271 0.739905 0
M  V30 1013 H 93.7232 0.448249 1.89675 0
M  V30 1014 H 92.8192 -0.52166 3.07709 0
M  V30 1015 N 93.1203 -1.57491 0.0584922 0
M  V30 1016 C 94.3483 -1.97296 -0.623037 0
M  V30 1017 C 94.7633 -0.936338 -1.63946 0
M  V30 1018 O 94.1203 0.0785981 -1.82331 0
M  V30 1019 C 94.1713 -3.37183 -1.30345 0
M  V30 1020 O 93.8923 -4.36872 -0.32773 0
M  V30 1021 C 95.3933 -3.91788 -2.07406 0
M  V30 1022 H 92.6133 -0.649153 -0.169826 0
M  V30 1023 H 95.1573 -2.04106 0.12696 0
M  V30 1024 H 93.3123 -3.31502 -2.00463 0
M  V30 1025 H 93.7263 -5.18141 -0.814269 0
M  V30 1026 H 95.2003 -4.91926 -2.50425 0
M  V30 1027 H 95.6773 -3.27609 -2.92521 0
M  V30 1028 H 96.2833 -4.00829 -1.42184 0
M  V30 1029 N 94.5984 0.214957 -1.56127 0
M  V30 1030 C 95.5484 1.27006 -1.8935 0
M  V30 1031 C 96.5324 1.41969 -0.757202 0
M  V30 1032 O 97.7244 1.44673 -1.01973 0
M  V30 1033 C 94.8534 2.61911 -2.2194 0
M  V30 1034 C 93.9394 2.50822 -3.41978 0
M  V30 1035 N 94.3304 2.09391 -4.60423 0
M  V30 1036 C 92.6284 2.81765 -3.45723 0
M  V30 1037 C 93.3294 2.09712 -5.42582 0
M  V30 1038 N 92.3054 2.50454 -4.82466 0
M  V30 1039 H 96.1074 0.940734 -2.78437 0
M  V30 1040 H 93.6214 0.423492 -1.56781 0
M  V30 1041 H 95.6184 3.38096 -2.43919 0
M  V30 1042 H 94.2784 2.95684 -1.34169 0
M  V30 1043 H 95.2894 1.80416 -4.85459 0
M  V30 1044 H 91.9664 3.19865 -2.68314 0
M  V30 1045 H 93.3564 1.79748 -6.4741 0
M  V30 1046 N 96.0765 1.50051 0.48192 0
M  V30 1047 C 97.3045 1.64237 1.25832 0
M  V30 1048 C 97.7195 0.321336 1.86045 0
M  V30 1049 O 97.0765 -0.695478 1.68729 0
M  V30 1050 C 97.1275 2.72548 2.37487 0
M  V30 1051 O 96.8485 3.99529 1.79745 0
M  V30 1052 C 98.3495 2.9761 3.28547 0
M  V30 1053 H 95.5695 0.55237 0.380957 0
M  V30 1054 H 98.1135 1.96207 0.576467 0
M  V30 1055 H 96.2685 2.43303 3.01467 0
M  V30 1056 H 96.6825 4.59342 2.5319 0
M  V30 1057 H 98.1565 3.77084 4.03127 0
M  V30 1058 H 98.6335 2.0826 3.86684 0
M  V30 1059 H 99.2395 3.28345 2.70314 0
M  V30 1060 N 97.5546 -0.734337 1.39446 0
M  V30 1061 C 98.5026 -1.86971 1.38364 0
M  V30 1062 C 99.4966 -1.67288 0.266687 0
M  V30 1063 O 100.703 -1.74621 0.436755 0
M  V30 1064 H 97.0776 -0.615474 0.432082 0
M  V30 1065 H 99.0486 -1.85 2.34132 0
M  V30 1066 C 97.7976 -3.2466 1.24465 0
M  V30 1067 H 97.1206 -3.40402 2.09682 0
M  V30 1068 H 98.5606 -4.04292 1.27764 0
M  V30 1069 C 97.0196 -3.36867 -0.0468674 0
M  V30 1070 O 97.5496 -3.88618 -1.01681 0
M  V30 1071 N 95.7556 -2.90391 -0.110145 0
M  V30 1072 H 95.3026 -2.48466 0.679868 0
M  V30 1073 H 95.2606 -2.98939 -0.973799 0
M  V30 1074 N 99.0327 -1.24633 -0.964593 0
M  V30 1075 C 100.282 -1.08188 -1.7023 0
M  V30 1076 C 100.595 0.37873 -1.91898 0
M  V30 1077 O 101.801 0.663427 -2.6327 0
M  V30 1078 C 100.257 -1.88773 -3.06419 0
M  V30 1079 C 99.8647 -3.39263 -2.92582 0
M  V30 1080 C 101.609 -1.80867 -3.84041 0
M  V30 1081 C 99.5157 -4.1218 -4.24101 0
M  V30 1082 H 98.4457 -0.401245 -0.638372 0
M  V30 1083 H 101.097 -1.48742 -1.07462 0
M  V30 1084 H 99.4787 -1.41035 -3.70034 0
M  V30 1085 H 100.653 -3.94603 -2.37961 0
M  V30 1086 H 98.9677 -3.48154 -2.28424 0
M  V30 1087 H 101.565 -2.32646 -4.81435 0
M  V30 1088 H 101.908 -0.774543 -4.09031 0
M  V30 1089 H 102.441 -2.26301 -3.27159 0
M  V30 1090 H 99.1797 -5.15965 -4.04303 0
M  V30 1091 H 98.6997 -3.61626 -4.78526 0
M  V30 1092 H 100.379 -4.19349 -4.92702 0
M  V30 1093 N 100.511 1.16574 -1.06058 0
M  V30 1094 C 101.922 1.68662 -0.800632 0
M  V30 1095 C 102.273 1.84184 0.67608 0
M  V30 1096 O 101.398 1.53568 1.52466 0
M  V30 1097 C 101.993 3.06356 -1.44676 0
M  V30 1098 C 100.552 3.55575 -1.23465 0
M  V30 1099 C 99.6988 2.31616 -1.52477 0
M  V30 1100 H 102.65 1.00969 -1.22438 0
M  V30 1101 H 102.671 3.70636 -0.860788 0
M  V30 1102 H 102.183 2.95027 -2.52152 0
M  V30 1103 H 100.284 3.72167 -0.179527 0
M  V30 1104 H 100.397 4.37812 -1.94571 0
M  V30 1105 H 98.7608 2.36512 -0.945209 0
M  V30 1106 H 99.5438 2.22887 -2.61106 0
M  V30 1107 N 101.989 0.842826 1.3317 0
M  V30 1108 C 102.936 0.276885 2.29133 0
M  V30 1109 C 103.906 -0.609527 1.54512 0
M  V30 1110 O 105.091 -0.546955 1.82792 0
M  V30 1111 C 102.231 -0.538707 3.40869 0
M  V30 1112 C 101.344 0.372169 4.30394 0
M  V30 1113 C 100.479 -0.454908 5.29249 0
M  V30 1114 C 99.5179 0.45411 6.10413 0
M  V30 1115 N 98.6549 -0.335075 7.013 0
M  V30 1116 H 103.495 1.10052 2.76934 0
M  V30 1117 H 101.032 0.554161 1.36262 0
M  V30 1118 H 102.99 -1.02709 4.0436 0
M  V30 1119 H 101.62 -1.32727 2.9425 0
M  V30 1120 H 100.672 0.97888 3.6759 0
M  V30 1121 H 101.984 1.0703 4.87182 0
M  V30 1122 H 101.138 -1.00695 5.98285 0
M  V30 1123 H 99.8769 -1.18646 4.73048 0
M  V30 1124 H 98.8819 1.01813 5.40291 0
M  V30 1125 H 100.107 1.18409 6.68697 0
M  V30 1126 H 98.0529 -1.04994 6.47543 0
M  V30 1127 H 97.9699 0.304262 7.55387 0
M  V30 1128 H 99.2379 -0.869224 7.74638 0
M  V30 1129 N 103.467 -1.45747 0.599634 0
M  V30 1130 C 104.397 -2.33235 -0.111306 0
M  V30 1131 C 105.378 -1.46359 -0.866781 0
M  V30 1132 O 106.563 -1.75146 -0.838904 0
M  V30 1133 C 103.693 -3.28932 -1.11451 0
M  V30 1134 C 102.647 -4.25381 -0.472772 0
M  V30 1135 C 101.973 -5.1071 -1.58365 0
M  V30 1136 C 103.273 -5.18831 0.600948 0
M  V30 1137 H 104.967 -2.92927 0.61919 0
M  V30 1138 H 102.513 -1.40857 0.299215 0
M  V30 1139 H 104.466 -3.89002 -1.62036 0
M  V30 1140 H 103.19 -2.67381 -1.8755 0
M  V30 1141 H 101.849 -3.66598 0.0121472 0
M  V30 1142 H 101.497 -4.45533 -2.33473 0
M  V30 1143 H 101.197 -5.7604 -1.15982 0
M  V30 1144 H 102.721 -5.73647 -2.09194 0
M  V30 1145 H 104.135 -5.73019 0.179491 0
M  V30 1146 H 102.532 -5.92595 0.946076 0
M  V30 1147 H 103.602 -4.6174 1.48068 0
M  V30 1148 N 104.945 -0.338344 -1.53925 0
M  V30 1149 C 106.361 0.0137736 -1.59594 0
M  V30 1150 C 106.561 1.49186 -1.35447 0
M  V30 1151 O 105.617 2.24987 -1.14616 0
M  V30 1152 C 106.93 -0.41773 -2.97784 0
M  V30 1153 C 108.478 -0.369633 -3.1081 0
M  V30 1154 C 108.953 -0.776524 -4.51369 0
M  V30 1155 N 110.444 -0.730506 -4.57403 0
M  V30 1156 C 111.179 -1.01736 -5.64303 0
M  V30 1157 N 110.675 -1.3721 -6.79077 0
M  V30 1158 N 112.468 -0.941942 -5.54151 0
M  V30 1159 H 104.619 -1.3012 -1.67876 0
M  V30 1160 H 106.882 -0.530082 -0.78595 0
M  V30 1161 H 106.588 -1.44811 -3.20504 0
M  V30 1162 H 106.462 0.209729 -3.76616 0
M  V30 1163 H 108.849 0.651568 -2.87817 0
M  V30 1164 H 108.93 -1.03223 -2.34049 0
M  V30 1165 H 108.574 -1.79571 -4.75096 0
M  V30 1166 H 108.504 -0.0914649 -5.26521 0
M  V30 1167 H 110.995 -0.468783 -3.74981 0
M  V30 1168 H 111.308 -1.57597 -7.5656 0
M  V30 1169 H 109.653 -1.4105 -6.80536 0
M  V30 1170 H 112.844 -0.664184 -4.63364 0
M  V30 1171 H 113.017 -1.16884 -6.37371 0
M  V30 1172 N 106.423 1.57458 -0.0668435 0
M  V30 1173 C 107.386 2.11323 0.887422 0
M  V30 1174 C 108.386 1.03618 1.22964 0
M  V30 1175 O 109.576 1.29626 1.16373 0
M  V30 1176 C 106.708 2.61048 2.19242 0
M  V30 1177 H 107.901 2.96942 0.420194 0
M  V30 1178 H 105.454 1.55239 0.181793 0
M  V30 1179 H 106.189 1.78868 2.70512 0
M  V30 1180 H 105.974 3.39769 1.95702 0
M  V30 1181 H 107.464 3.02814 2.87565 0
M  V30 1182 N 107.901 -0.206675 1.56239 0
M  V30 1183 C 109.149 -0.927007 1.79586 0
M  V30 1184 C 109.47 -1.8427 0.637929 0
M  V30 1185 O 108.74 -1.92849 -0.344398 0
M  V30 1186 H 107.32 -0.345292 0.662407 0
M  V30 1187 H 109.982 -0.21496 1.93711 0
M  V30 1188 H 109.078 -1.52501 2.72305 0
M  V30 1189 N 109.379 -1.50304 -0.473955 0
M  V30 1190 C 110.626 -1.6115 -1.22625 0
M  V30 1191 C 110.954 -0.310517 -1.92005 0
M  V30 1192 O 110.209 0.703419 -1.82621 0
M  V30 1193 C 110.508 -2.73938 -2.29549 0
M  V30 1194 C 110.174 -4.14519 -1.7744 0
M  V30 1195 C 108.836 -4.5277 -1.62949 0
M  V30 1196 C 111.188 -5.02392 -1.3875 0
M  V30 1197 C 108.516 -5.76639 -1.08187 0
M  V30 1198 C 110.868 -6.26805 -0.854309 0
M  V30 1199 C 109.532 -6.63861 -0.696011 0
M  V30 1200 H 108.802 -0.589691 -0.448715 0
M  V30 1201 H 111.449 -1.84228 -0.522705 0
M  V30 1202 H 109.754 -2.44937 -3.05799 0
M  V30 1203 H 111.451 -2.79534 -2.87509 0
M  V30 1204 H 108.041 -3.8434 -1.89685 0
M  V30 1205 H 112.225 -4.73474 -1.4878 0
M  V30 1206 H 107.481 -6.04027 -0.946666 0
M  V30 1207 H 111.655 -6.94258 -0.545843 0
M  V30 1208 H 109.282 -7.59722 -0.26952 0
M  V30 1209 N 110.857 0.726932 -1.39834 0
M  V30 1210 C 112.103 1.48884 -1.377 0
M  V30 1211 C 112.436 1.94185 0.0244852 0
M  V30 1212 O 111.711 1.67361 0.990986 0
M  V30 1213 C 111.994 2.72288 -2.3565 0
M  V30 1214 C 111.847 2.32956 -3.84775 0
M  V30 1215 C 113.166 3.74414 -2.31306 0
M  V30 1216 H 110.285 0.540062 -0.5015 0
M  V30 1217 H 112.927 0.830547 -1.70886 0
M  V30 1218 H 111.077 3.28457 -2.07481 0
M  V30 1219 H 112.749 1.82356 -4.23726 0
M  V30 1220 H 110.992 1.65088 -4.01159 0
M  V30 1221 H 111.663 3.21362 -4.4881 0
M  V30 1222 H 114.139 3.27849 -2.56231 0
M  V30 1223 H 113.015 4.58414 -3.01907 0
M  V30 1224 H 113.276 4.21909 -1.32081 0
M  V30 1225 N 112.336 1.25143 0.95797 0
M  V30 1226 C 113.584 1.09476 1.69881 0
M  V30 1227 C 113.905 -0.365502 1.91544 0
M  V30 1228 O 113.175 -1.25985 1.50015 0
M  V30 1229 H 111.755 0.402128 0.629525 0
M  V30 1230 H 114.417 1.57214 1.15194 0
M  V30 1231 H 113.513 1.60046 2.6794 0
M  V30 1232 N 113.814 -1.1601 1.06675 0
M  V30 1233 C 115.062 -1.86264 0.784229 0
M  V30 1234 C 115.383 -1.82328 -0.691488 0
M  V30 1235 O 114.653 -1.25947 -1.50047 0
M  V30 1236 H 113.233 -0.689621 0.28711 0
M  V30 1237 H 115.895 -1.40664 1.34906 0
M  V30 1238 H 114.991 -2.91595 1.11259 0
M  V30 1239 N 115.292 -0.849877 -1.32721 0
M  V30 1240 C 116.224 -0.248332 -2.27851 0
M  V30 1241 C 117.237 0.577218 -1.52224 0
M  V30 1242 O 118.426 0.402489 -1.73903 0
M  V30 1243 C 115.526 0.668107 -3.32249 0
M  V30 1244 C 114.699 -0.120534 -4.37234 0
M  V30 1245 C 113.758 0.720932 -5.21238 0
M  V30 1246 O 112.784 0.156166 -5.68986 0
M  V30 1247 N 113.986 2.03647 -5.43607 0
M  V30 1248 H 116.751 -1.06575 -2.80111 0
M  V30 1249 H 114.312 -0.709395 -1.45531 0
M  V30 1250 H 116.304 1.23627 -3.85355 0
M  V30 1251 H 114.874 1.38621 -2.80184 0
M  V30 1252 H 114.094 -0.870108 -3.84477 0
M  V30 1253 H 115.382 -0.662406 -5.0447 0
M  V30 1254 H 114.78 2.51871 -5.06535 0
M  V30 1255 H 113.337 2.55287 -5.99727 0
M  V30 1256 N 116.77 1.45427 -0.607355 0
M  V30 1257 C 118.017 2.02241 -0.102455 0
M  V30 1258 C 118.345 1.4758 1.26691 0
M  V30 1259 O 117.6 0.640468 1.84923 0
M  V30 1260 C 117.899 3.57398 -0.0129263 0
M  V30 1261 C 117.565 4.3121 -1.31792 0
M  V30 1262 C 116.227 4.51092 -1.67539 0
M  V30 1263 C 118.579 4.73401 -2.18039 0
M  V30 1264 C 115.907 5.10422 -2.89285 0
M  V30 1265 C 118.259 5.34078 -3.39034 0
M  V30 1266 C 116.923 5.52184 -3.75033 0
M  V30 1267 H 116.193 0.740051 -0.037491 0
M  V30 1268 H 118.84 1.74494 -0.788926 0
M  V30 1269 H 117.145 3.84421 0.756806 0
M  V30 1270 H 118.842 3.99061 0.393881 0
M  V30 1271 H 115.432 4.16047 -1.02968 0
M  V30 1272 H 119.616 4.57774 -1.91721 0
M  V30 1273 H 114.872 5.22629 -3.17283 0
M  V30 1274 H 119.046 5.65724 -4.06115 0
M  V30 1275 H 116.673 5.97925 -4.69457 0
M  V30 1276 N 118.248 0.346503 1.53744 0
M  V30 1277 C 119.494 -0.242135 2.01954 0
M  V30 1278 C 119.849 -1.47962 1.22984 0
M  V30 1279 O 119.142 -1.89077 0.309924 0
M  V30 1280 C 119.336 -0.605809 3.52228 0
M  V30 1281 C 119.165 0.594882 4.45748 0
M  V30 1282 C 117.935 1.1011 4.93157 0
M  V30 1283 C 120.133 1.45425 4.93311 0
M  V30 1284 N 118.115 2.26381 5.70636 0
M  V30 1285 C 119.486 2.46383 5.68942 0
M  V30 1286 C 121.541 1.47935 4.75415 0
M  V30 1287 C 120.244 3.49684 6.28581 0
M  V30 1288 C 122.27 2.50119 5.35905 0
M  V30 1289 C 121.632 3.49803 6.11406 0
M  V30 1290 H 117.731 -0.0518296 0.780281 0
M  V30 1291 H 120.315 0.486736 1.88518 0
M  V30 1292 H 118.486 -1.30378 3.65864 0
M  V30 1293 H 120.218 -1.17789 3.87179 0
M  V30 1294 H 116.973 0.668721 4.68855 0
M  V30 1295 H 117.397 2.85094 6.14044 0
M  V30 1296 H 122.039 0.722274 4.16585 0
M  V30 1297 H 119.757 4.26285 6.86518 0
M  V30 1298 H 123.343 2.52892 5.23963 0
M  V30 1299 H 122.223 4.27576 6.5738 0
M  V30 1300 N 119.726 -1.57421 0.075193 0
M  V30 1301 C 120.951 -1.98364 -0.605515 0
M  V30 1302 C 121.376 -0.953383 -1.62149 0
M  V30 1303 O 120.734 0.0806053 -1.81121 0
M  V30 1304 C 120.782 -3.38332 -1.24756 0
M  V30 1305 O 119.886 -3.37959 -2.36342 0
M  V30 1306 H 119.227 -0.645553 -0.155428 0
M  V30 1307 H 121.757 -2.04044 0.150714 0
M  V30 1308 H 121.767 -3.75591 -1.5936 0
M  V30 1309 H 120.442 -4.12846 -0.503129 0
M  V30 1310 H 119.019 -3.12474 -2.03506 0
M  V30 1311 N 121.204 0.198386 -1.56346 0
M  V30 1312 C 122.45 0.920648 -1.80698 0
M  V30 1313 C 122.783 1.83045 -0.648697 0
M  V30 1314 O 122.058 1.91308 0.350925 0
M  V30 1315 C 122.341 1.73971 -3.15287 0
M  V30 1316 C 122.194 0.85485 -4.41602 0
M  V30 1317 C 123.513 2.71296 -3.46535 0
M  V30 1318 H 120.632 0.333261 -0.657348 0
M  V30 1319 H 123.274 0.188198 -1.89066 0
M  V30 1320 H 121.424 2.36416 -3.08285 0
M  V30 1321 H 123.096 0.245362 -4.60647 0
M  V30 1322 H 121.339 0.161398 -4.335 0
M  V30 1323 H 122.01 1.46286 -5.32264 0
M  V30 1324 H 124.486 2.18983 -3.53816 0
M  V30 1325 H 123.362 3.2569 -4.41834 0
M  V30 1326 H 123.623 3.5018 -2.69864 0
M  V30 1327 N 122.682 1.50554 0.465978 0
M  V30 1328 C 123.912 1.65323 1.23903 0
M  V30 1329 C 124.32 0.338051 1.86155 0
M  V30 1330 O 123.663 -0.690518 1.70228 0
M  V30 1331 C 123.725 2.69048 2.3844 0
M  V30 1332 C 123.389 4.12462 1.96784 0
M  V30 1333 C 124.386 4.98168 1.48745 0
M  V30 1334 C 122.071 4.58407 2.05349 0
M  V30 1335 C 124.065 6.27868 1.0982 0
M  V30 1336 C 121.752 5.88112 1.66035 0
M  V30 1337 C 122.75 6.72668 1.18349 0
M  V30 1338 O 122.438 7.99951 0.795825 0
M  V30 1339 H 122.17 0.558629 0.38067 0
M  V30 1340 H 124.724 1.97561 0.562022 0
M  V30 1341 H 122.954 2.32062 3.09328 0
M  V30 1342 H 124.643 2.72985 3.0039 0
M  V30 1343 H 125.409 4.63885 1.41546 0
M  V30 1344 H 121.288 3.92735 2.41414 0
M  V30 1345 H 124.832 6.93819 0.725293 0
M  V30 1346 H 120.729 6.21914 1.72895 0
M  V30 1347 H 121.497 8.13265 0.924222 0
M  V30 1348 N 124.16 -0.719506 1.40217 0
M  V30 1349 C 125.388 -1.50864 1.41589 0
M  V30 1350 C 125.803 -1.88794 0.0145275 0
M  V30 1351 O 125.16 -1.55174 -0.960594 0
M  V30 1352 C 125.211 -2.78646 2.30302 0
M  V30 1353 O 124.932 -2.42321 3.64983 0
M  V30 1354 C 126.433 -3.72569 2.40224 0
M  V30 1355 H 123.653 -0.465709 0.48307 0
M  V30 1356 H 126.197 -0.88785 1.84221 0
M  V30 1357 H 124.352 -3.37019 1.91042 0
M  V30 1358 H 124.766 -3.24514 4.12057 0
M  V30 1359 H 126.24 -4.5908 3.06512 0
M  V30 1360 H 126.717 -4.15403 1.42608 0
M  V30 1361 H 127.323 -3.20109 2.80019 0
M  V30 1362 N 125.638 -1.25649 -0.95132 0
M  V30 1363 C 127.049 -1.09654 -1.51106 0
M  V30 1364 C 127.4 0.326615 -1.93462 0
M  V30 1365 O 126.525 1.21697 -1.78938 0
M  V30 1366 C 127.12 -1.98437 -2.74605 0
M  V30 1367 C 125.679 -1.86618 -3.2688 0
M  V30 1368 C 124.826 -1.9239 -1.99703 0
M  V30 1369 H 127.777 -1.38887 -0.767865 0
M  V30 1370 H 127.798 -1.5263 -3.48546 0
M  V30 1371 H 127.31 -3.02009 -2.43746 0
M  V30 1372 H 125.411 -0.859421 -3.62553 0
M  V30 1373 H 125.524 -2.71607 -3.94673 0
M  V30 1374 H 123.888 -1.36317 -2.15151 0
M  V30 1375 H 124.671 -2.97573 -1.71188 0
M  V30 1376 N 127.117 1.15442 -1.07289 0
M  V30 1377 C 128.357 1.8788 -0.805012 0
M  V30 1378 C 128.721 1.80413 0.656907 0
M  V30 1379 O 129.922 2.47874 1.0398 0
M  V30 1380 C 128.193 3.3298 -1.29843 0
M  V30 1381 S 129.752 4.23158 -1.16114 0
M  V30 1382 H 126.57 0.64839 -0.291739 0
M  V30 1383 H 129.172 1.39285 -1.37186 0
M  V30 1384 H 127.876 3.35958 -2.35712 0
M  V30 1385 H 127.407 3.86629 -0.726767 0
M  V30 1386 H 129.422 4.96103 -0.0982778 0
M  V30 1387 N 128.595 0.856903 1.32268 0
M  V30 1388 C 129.872 0.382583 1.91822 0
M  V30 1389 C 130.252 -1.13407 1.78051 0
M  V30 1390 O 129.6 -1.95673 1.18001 0
M  V30 1391 C 129.81 0.849446 3.38505 0
M  V30 1392 C 131.158 0.867936 4.15634 0
M  V30 1393 O 132.182 0.794232 3.47232 0
M  V30 1394 O 131.041 0.972286 5.37781 0
M  V30 1395 H 128.135 0.112014 0.819379 0
M  V30 1396 H 130.681 0.943952 1.41024 0
M  V30 1397 H 129.453 1.89267 3.42482 0
M  V30 1398 H 129.076 0.265652 3.96712 0
M  V30 1399 N 130.073 -1.45103 0.615059 0
M  V30 1400 C 131.301 -2.06553 0.11977 0
M  V30 1401 C 131.716 -1.45842 -1.19898 0
M  V30 1402 O 131.073 -0.575325 -1.73194 0
M  V30 1403 C 131.124 -3.61495 -0.018364 0
M  V30 1404 O 130.845 -4.19942 1.24822 0
M  V30 1405 C 132.346 -4.39947 -0.544237 0
M  V30 1406 H 129.566 -0.667096 0.0722739 0
M  V30 1407 H 132.11 -1.8623 0.84491 0
M  V30 1408 H 130.265 -3.81135 -0.693865 0
M  V30 1409 H 130.679 -5.13204 1.0827 0
M  V30 1410 H 132.153 -5.48838 -0.589953 0
M  V30 1411 H 132.63 -4.10255 -1.56805 0
M  V30 1412 H 133.236 -4.25188 0.0974703 0
M  V30 1413 N 131.551 -0.354651 -1.53558 0
M  V30 1414 C 132.483 0.5315 -2.22952 0
M  V30 1415 C 133.496 1.05503 -1.23988 0
M  V30 1416 O 134.685 0.963279 -1.50277 0
M  V30 1417 C 131.785 1.74538 -2.90499 0
M  V30 1418 C 130.958 1.35524 -4.15875 0
M  V30 1419 C 130.017 2.42999 -4.66731 0
M  V30 1420 O 129.043 2.05844 -5.30676 0
M  V30 1421 N 130.245 3.74423 -4.43608 0
M  V30 1422 H 133.01 -0.0628615 -2.99634 0
M  V30 1423 H 130.571 -0.179302 -1.60904 0
M  V30 1424 H 132.563 2.45892 -3.21433 0
M  V30 1425 H 131.133 2.24686 -2.17336 0
M  V30 1426 H 130.353 0.471998 -3.91364 0
M  V30 1427 H 131.641 1.07071 -4.97406 0
M  V30 1428 H 131.039 4.07391 -3.92491 0
M  V30 1429 H 129.596 4.41913 -4.7912 0
M  V30 1430 N 133.029 1.57378 -0.0835403 0
M  V30 1431 C 133.977 2.14602 0.89714 0
M  V30 1432 C 134.971 1.08589 1.30018 0
M  V30 1433 O 136.177 1.26952 1.27606 0
M  V30 1434 H 132.552 0.686346 0.3073 0
M  V30 1435 H 134.523 2.95845 0.38969 0
M  V30 1436 C 133.272 2.73188 2.15089 0
M  V30 1437 H 132.595 3.54442 1.84962 0
M  V30 1438 H 134.035 3.1681 2.81793 0
M  V30 1439 C 132.494 1.68517 2.91725 0
M  V30 1440 O 133.024 1.11718 3.85852 0
M  V30 1441 N 131.23 1.39277 2.55049 0
M  V30 1442 H 130.777 1.85655 1.78577 0
M  V30 1443 H 130.735 0.694791 3.06627 0
M  V30 1444 N 134.507 -0.190092 1.56449 0
M  V30 1445 C 135.454 -1.23557 1.94942 0
M  V30 1446 C 136.424 -1.44972 0.810696 0
M  V30 1447 O 137.609 -1.58023 1.06927 0
M  V30 1448 C 134.749 -2.57416 2.2985 0
M  V30 1449 C 133.862 -2.43537 3.5681 0
M  V30 1450 C 132.997 -3.70134 3.81017 0
M  V30 1451 C 132.036 -3.51109 5.01387 0
M  V30 1452 N 131.173 -4.6973 5.21822 0
M  V30 1453 H 136.013 -0.900304 2.84075 0
M  V30 1454 H 133.55 -0.43318 1.40577 0
M  V30 1455 H 135.508 -3.35409 2.48106 0
M  V30 1456 H 134.138 -2.88975 1.43852 0
M  V30 1457 H 133.19 -1.56816 3.46573 0
M  V30 1458 H 134.502 -2.25415 4.4496 0
M  V30 1459 H 133.656 -4.56566 3.9954 0
M  V30 1460 H 132.395 -3.91215 2.91207 0
M  V30 1461 H 131.4 -2.63063 4.82782 0
M  V30 1462 H 132.625 -3.31468 5.9271 0
M  V30 1463 H 130.571 -4.91065 4.34961 0
M  V30 1464 H 130.488 -4.54452 6.0416 0
M  V30 1465 H 131.756 -5.57499 5.44808 0
M  V30 1466 N 135.985 -1.50799 -0.457987 0
M  V30 1467 C 137.262 -1.52968 -1.21902 0
M  V30 1468 C 137.642 -0.281906 -2.09209 0
M  V30 1469 O 136.99 0.734076 -2.16388 0
M  V30 1470 C 137.2 -2.8326 -2.03875 0
M  V30 1471 C 138.548 -3.34425 -2.6162 0
M  V30 1472 O 139.572 -2.8467 -2.14106 0
M  V30 1473 O 138.431 -4.21188 -3.48228 0
M  V30 1474 H 135.525 -0.614129 -0.553873 0
M  V30 1475 H 138.071 -1.63098 -0.468739 0
M  V30 1476 H 136.843 -3.65543 -1.39621 0
M  V30 1477 H 136.466 -2.76195 -2.8601 0
M  V30 1478 N 137.463 0.71206 -1.40597 0
M  V30 1479 C 138.426 1.80785 -1.40888 0
M  V30 1480 C 139.426 1.57937 -0.302103 0
M  V30 1481 O 140.616 1.64913 -0.561182 0
M  V30 1482 C 137.748 3.18927 -1.20409 0
M  V30 1483 H 138.941 1.81924 -2.38419 0
M  V30 1484 H 136.494 0.91805 -1.26497 0
M  V30 1485 H 137.229 3.23436 -0.236522 0
M  V30 1486 H 137.014 3.36911 -2.00582 0
M  V30 1487 H 138.504 3.98949 -1.23408 0
M  V30 1488 N 138.941 1.26152 0.944643 0
M  V30 1489 C 140.187 1.11657 1.69294 0
M  V30 1490 C 140.52 -0.339926 1.91202 0
M  V30 1491 O 139.795 -1.24994 1.49019 0
M  V30 1492 C 140.078 1.88236 3.06984 0
M  V30 1493 C 139.931 3.41772 2.92424 0
M  V30 1494 C 141.25 1.67343 4.07043 0
M  V30 1495 H 138.369 0.407004 0.614424 0
M  V30 1496 H 141.011 1.55106 1.09737 0
M  V30 1497 H 139.161 1.51308 3.57824 0
M  V30 1498 H 140.833 3.88433 2.48832 0
M  V30 1499 H 139.076 3.68974 2.28124 0
M  V30 1500 H 139.747 3.90579 3.90067 0
M  V30 1501 H 142.223 1.99509 3.65151 0
M  V30 1502 H 141.099 2.23346 5.01406 0
M  V30 1503 H 141.36 0.617158 4.37771 0
M  V30 1504 N 140.419 -1.14872 1.07899 0
M  V30 1505 C 141.835 -1.37776 0.805606 0
M  V30 1506 C 142.035 -1.92743 -0.587555 0
M  V30 1507 O 141.091 -2.13678 -1.34528 0
M  V30 1508 C 142.404 -2.34361 1.88402 0
M  V30 1509 C 143.952 -2.48012 1.90942 0
M  V30 1510 C 144.427 -3.47893 2.97883 0
M  V30 1511 N 145.918 -3.55433 2.97021 0
M  V30 1512 C 146.653 -4.32553 3.76412 0
M  V30 1513 N 146.149 -5.12959 4.65666 0
M  V30 1514 N 147.942 -4.27697 3.64735 0
M  V30 1515 H 140.093 -0.775365 1.97742 0
M  V30 1516 H 142.356 -0.403521 0.857831 0
M  V30 1517 H 142.062 -2.01098 2.88535 0
M  V30 1518 H 141.936 -3.34206 1.74889 0
M  V30 1519 H 144.323 -2.8057 0.914579 0
M  V30 1520 H 144.404 -1.48147 2.08534 0
M  V30 1521 H 144.048 -3.16069 3.97571 0
M  V30 1522 H 143.978 -4.47527 2.77538 0
M  V30 1523 H 146.469 -2.98048 2.32326 0
M  V30 1524 H 146.782 -5.69065 5.22862 0
M  V30 1525 H 145.127 -5.12245 4.69712 0
M  V30 1526 H 148.318 -3.63949 2.94378 0
M  V30 1527 H 148.491 -4.8755 4.26848 0
M  V30 1528 N 141.898 -0.863906 -1.31812 0
M  V30 1529 C 143.314 -0.555004 -1.49639 0
M  V30 1530 C 143.514 0.912266 -1.79666 0
M  V30 1531 O 142.57 1.69479 -1.87171 0
M  V30 1532 C 143.883 -1.44998 -2.63431 0
M  V30 1533 C 145.431 -1.45138 -2.77316 0
M  V30 1534 C 145.906 -2.33179 -3.94197 0
M  V30 1535 N 147.397 -2.31025 -4.01474 0
M  V30 1536 C 148.132 -2.95871 -4.9117 0
M  V30 1537 N 147.628 -3.69863 -5.8581 0
M  V30 1538 N 149.421 -2.85211 -4.84367 0
M  V30 1539 H 141.572 -1.81339 -1.10589 0
M  V30 1540 H 143.835 -0.77505 -0.545895 0
M  V30 1541 H 143.541 -2.49377 -2.48 0
M  V30 1542 H 143.415 -1.14409 -3.59431 0
M  V30 1543 H 145.802 -0.415201 -2.92164 0
M  V30 1544 H 145.883 -1.79747 -1.82001 0
M  V30 1545 H 145.527 -3.3687 -3.80107 0
M  V30 1546 H 145.457 -1.95897 -4.88807 0
M  V30 1547 H 147.948 -1.77238 -3.33759 0
M  V30 1548 H 148.261 -4.16486 -6.50968 0
M  V30 1549 H 146.606 -3.73971 -5.85808 0
M  V30 1550 H 149.797 -2.26948 -4.09405 0
M  V30 1551 H 149.97 -3.36027 -5.54066 0
M  V30 1552 N 143.376 1.44774 -0.622745 0
M  V30 1553 C 144.604 2.06487 -0.130722 0
M  V30 1554 C 145.019 1.46476 1.19123 0
M  V30 1555 O 144.376 0.584502 1.72887 0
M  V30 1556 C 144.427 3.615 -0.000807207 0
M  V30 1557 O 144.148 4.19274 -1.27048 0
M  V30 1558 C 145.649 4.40229 0.520898 0
M  V30 1559 H 142.869 0.666704 -0.0758106 0
M  V30 1560 H 145.413 1.85779 -0.854774 0
M  V30 1561 H 143.568 3.81498 0.673643 0
M  V30 1562 H 143.982 5.12622 -1.1099 0
M  V30 1563 H 145.456 5.49144 0.560838 0
M  V30 1564 H 145.933 4.1108 1.54627 0
M  V30 1565 H 146.539 4.25131 -0.120018 0
M  V30 1566 N 144.854 0.36279 1.53368 0
M  V30 1567 C 145.784 -0.476976 2.28576 0
M  V30 1568 C 146.765 -1.08631 1.30894 0
M  V30 1569 O 147.95 -1.10409 1.59761 0
M  V30 1570 C 145.08 -1.61828 3.07293 0
M  V30 1571 C 144.034 -1.13633 4.1264 0
M  V30 1572 C 143.36 -2.36766 4.79423 0
M  V30 1573 C 144.66 -0.223061 5.21823 0
M  V30 1574 H 146.354 0.150474 2.99022 0
M  V30 1575 H 143.9 0.0738103 1.43811 0
M  V30 1576 H 145.853 -2.21237 3.58653 0
M  V30 1577 H 144.577 -2.27292 2.34533 0
M  V30 1578 H 143.236 -0.564945 3.62221 0
M  V30 1579 H 142.884 -3.0068 4.03238 0
M  V30 1580 H 142.584 -2.05192 5.50609 0
M  V30 1581 H 144.108 -2.96865 5.33576 0
M  V30 1582 H 145.522 -0.724545 5.68703 0
M  V30 1583 H 143.919 0.001678 6.001 0
M  V30 1584 H 144.989 0.735553 4.79289 0
M  V30 1585 N 146.332 -1.57332 0.0918853 0
M  V30 1586 C 147.242 -2.17368 -0.882505 0
M  V30 1587 C 148.258 -1.14226 -1.31257 0
M  V30 1588 O 149.434 -1.46582 -1.38115 0
M  V30 1589 C 146.499 -2.73962 -2.12476 0
M  V30 1590 C 145.56 -3.92048 -1.7492 0
M  V30 1591 C 144.793 -4.45933 -2.93223 0
M  V30 1592 O 145.016 -3.98764 -4.07852 0
M  V30 1593 O 143.95 -5.36999 -2.71875 0
M  V30 1594 H 147.776 -3.01031 -0.40172 0
M  V30 1595 H 145.361 -1.48813 -0.132291 0
M  V30 1596 H 147.243 -3.10147 -2.85283 0
M  V30 1597 H 145.918 -1.93347 -2.59613 0
M  V30 1598 H 144.825 -3.6068 -0.993025 0
M  V30 1599 H 146.158 -4.74017 -1.32548 0
M  V30 1600 N 147.81 0.181792 -1.56548 0
M  V30 1601 C 148.742 1.24956 -1.92142 0
M  V30 1602 C 149.755 1.41022 -0.813422 0
M  V30 1603 O 150.944 1.41212 -1.09186 0
M  V30 1604 C 148.044 2.61981 -2.14987 0
M  V30 1605 C 147.217 2.6735 -3.46183 0
M  V30 1606 C 146.276 3.85664 -3.5798 0
M  V30 1607 O 145.302 3.72148 -4.30691 0
M  V30 1608 N 146.504 5.01683 -2.92053 0
M  V30 1609 H 149.269 0.947329 -2.84334 0
M  V30 1610 H 146.83 0.371629 -1.57577 0
M  V30 1611 H 148.822 3.3958 -2.20154 0
M  V30 1612 H 147.392 2.84637 -1.2923 0
M  V30 1613 H 146.612 1.75925 -3.52766 0
M  V30 1614 H 147.9 2.67939 -4.32534 0
M  V30 1615 H 147.298 5.15564 -2.32832 0
M  V30 1616 H 145.855 5.77181 -3.0283 0
M  V30 1617 N 149.288 1.51039 0.449983 0
M  V30 1618 C 150.221 1.66105 1.56474 0
M  V30 1619 C 151.199 0.508776 1.54435 0
M  V30 1620 O 152.383 0.731005 1.73749 0
M  V30 1621 C 149.51 1.66304 2.9506 0
M  V30 1622 C 148.556 2.87346 3.15174 0
M  V30 1623 S 149.389 4.4835 2.92818 0
M  V30 1624 C 150.545 4.51274 4.33708 0
M  V30 1625 H 150.778 2.60397 1.43459 0
M  V30 1626 H 148.311 1.40565 0.638805 0
M  V30 1627 H 150.269 1.67103 3.74949 0
M  V30 1628 H 148.93 0.732108 3.05449 0
M  V30 1629 H 148.123 2.83849 4.16468 0
M  V30 1630 H 147.725 2.84223 2.43091 0
M  V30 1631 H 150.017 4.26136 5.26701 0
M  V30 1632 H 150.96 5.53017 4.42242 0
M  V30 1633 H 151.368 3.80738 4.16772 0
M  V30 1634 N 150.766 -0.704594 1.40972 0
M  V30 1635 C 152.043 -1.45847 1.30338 0
M  V30 1636 C 152.423 -2.10973 -0.0732344 0
M  V30 1637 O 151.771 -2.00997 -1.08685 0
M  V30 1638 C 151.981 -2.48525 2.45023 0
M  V30 1639 C 153.329 -3.1404 2.8577 0
M  V30 1640 O 154.353 -2.58848 2.44696 0
M  V30 1641 O 153.212 -4.13981 3.56766 0
M  V30 1642 H 150.306 -0.649092 0.512454 0
M  V30 1643 H 152.852 -0.735836 1.52917 0
M  V30 1644 H 151.624 -1.98994 3.36923 0
M  V30 1645 H 151.247 -3.2831 2.24272 0
M  V30 1646 N 152.244 -1.26651 -0.937939 0
M  V30 1647 C 153.49 -1.12553 -1.687 0
M  V30 1648 C 153.823 0.329782 -1.91379 0
M  V30 1649 O 153.098 1.24202 -1.4968 0
M  V30 1650 C 153.381 -1.89862 -3.05981 0
M  V30 1651 C 153.234 -3.43318 -2.90607 0
M  V30 1652 C 154.553 -1.69499 -4.0615 0
M  V30 1653 H 151.672 -0.410257 -0.612257 0
M  V30 1654 H 154.314 -1.55685 -1.08913 0
M  V30 1655 H 152.464 -1.53204 -3.57017 0
M  V30 1656 H 154.136 -3.89747 -2.46769 0
M  V30 1657 H 152.379 -3.70179 -2.26164 0
M  V30 1658 H 153.05 -3.92642 -3.8799 0
M  V30 1659 H 155.526 -2.01442 -3.64088 0
M  V30 1660 H 154.402 -2.26002 -5.00214 0
M  V30 1661 H 154.663 -0.640365 -4.37438 0
M  V30 1662 N 153.722 1.14298 -1.08507 0
M  V30 1663 C 154.968 1.85633 -0.816581 0
M  V30 1664 C 155.301 1.82784 0.656021 0
M  V30 1665 O 154.576 1.25926 1.48233 0
M  V30 1666 C 154.859 3.34223 -1.34041 0
M  V30 1667 C 154.712 3.45639 -2.87843 0
M  V30 1668 C 156.031 4.29356 -0.9665 0
M  V30 1669 H 153.15 0.67402 -0.298104 0
M  V30 1670 H 155.792 1.34214 -1.34487 0
M  V30 1671 H 153.942 3.78144 -0.89104 0
M  V30 1672 H 155.614 3.10498 -3.41158 0
M  V30 1673 H 153.857 2.86817 -3.25451 0
M  V30 1674 H 154.528 4.50089 -3.19569 0
M  V30 1675 H 157.004 3.93457 -1.35391 0
M  V30 1676 H 155.88 5.3178 -1.3602 0
M  V30 1677 H 156.141 4.41919 0.126362 0
M  V30 1678 N 155.201 0.870884 1.31352 0
M  V30 1679 C 156.151 0.298889 2.26032 0
M  V30 1680 C 157.135 -0.564595 1.50669 0
M  V30 1681 O 158.327 -0.411323 1.72154 0
M  V30 1682 C 155.456 -0.497842 3.39671 0
M  V30 1683 C 154.542 0.378937 4.22404 0
M  V30 1684 N 154.933 1.47284 4.83881 0
M  V30 1685 C 153.231 0.171535 4.4567 0
M  V30 1686 C 153.932 2.01359 5.45738 0
M  V30 1687 N 152.908 1.31047 5.27568 0
M  V30 1688 H 156.71 1.13494 2.71102 0
M  V30 1689 H 154.224 0.718745 1.45629 0
M  V30 1690 H 156.221 -0.924155 4.06528 0
M  V30 1691 H 154.881 -1.33149 2.96144 0
M  V30 1692 H 155.892 1.85575 4.8351 0
M  V30 1693 H 152.569 -0.626091 4.12779 0
M  V30 1694 H 153.959 2.93143 6.0458 0
M  V30 1695 N 156.679 -1.44442 0.630414 0
M  V30 1696 C 158.095 -1.56832 0.295973 0
M  V30 1697 C 158.295 -1.61806 -1.20088 0
M  V30 1698 O 157.351 -1.5607 -1.9849 0
M  V30 1699 C 158.664 -2.84031 0.987264 0
M  V30 1700 C 160.212 -2.97742 0.96534 0
M  V30 1701 C 160.687 -4.27743 1.63708 0
M  V30 1702 N 162.178 -4.34555 1.60364 0
M  V30 1703 C 162.913 -5.33862 2.09234 0
M  V30 1704 N 162.409 -6.39578 2.66292 0
M  V30 1705 N 164.202 -5.25366 1.99867 0
M  V30 1706 H 156.353 -1.39457 1.60205 0
M  V30 1707 H 158.616 -0.668237 0.672431 0
M  V30 1708 H 158.322 -2.86338 2.04215 0
M  V30 1709 H 158.196 -3.73534 0.524588 0
M  V30 1710 H 160.583 -2.94989 -0.0810639 0
M  V30 1711 H 160.664 -2.09589 1.4665 0
M  V30 1712 H 160.308 -4.31255 2.68293 0
M  V30 1713 H 160.238 -5.14752 1.11076 0
M  V30 1714 H 162.729 -3.58772 1.18705 0
M  V30 1715 H 163.042 -7.11637 3.01317 0
M  V30 1716 H 161.387 -6.40265 2.70343 0
M  V30 1717 H 164.578 -4.41688 1.55013 0
M  V30 1718 H 164.751 -6.02606 2.38265 0
M  V30 1719 N 158.157 -0.370918 -1.53173 0
M  V30 1720 C 159.09 0.516727 -2.22273 0
M  V30 1721 C 160.068 1.07877 -1.21661 0
M  V30 1722 O 161.252 1.13389 -1.50583 0
M  V30 1723 C 158.379 1.71346 -2.92161 0
M  V30 1724 C 157.425 1.27838 -4.0689 0
M  V30 1725 S 158.258 0.275217 -5.34792 0
M  V30 1726 C 159.414 1.47816 -6.08195 0
M  V30 1727 H 159.647 -0.0701054 -2.97217 0
M  V30 1728 H 157.18 -0.155038 -1.5362 0
M  V30 1729 H 159.138 2.39988 -3.3304 0
M  V30 1730 H 157.799 2.27156 -2.16931 0
M  V30 1731 H 156.992 2.17141 -4.54825 0
M  V30 1732 H 156.594 0.671105 -3.6793 0
M  V30 1733 H 158.886 2.40831 -6.33251 0
M  V30 1734 H 159.829 1.04008 -7.0042 0
M  V30 1735 H 160.237 1.68663 -5.38714 0
M  V30 1736 N 159.635 1.57281 -0.100228 0
M  V30 1737 C 160.875 1.96419 0.56558 0
M  V30 1738 C 161.239 0.981265 1.65031 0
M  V30 1739 O 162.44 1.26133 2.37369 0
M  V30 1740 C 160.711 3.39996 1.10171 0
M  V30 1741 S 162.27 4.01134 1.77867 0
M  V30 1742 H 159.088 0.68667 0.184406 0
M  V30 1743 H 161.69 1.94662 -0.180851 0
M  V30 1744 H 160.394 4.09296 0.300803 0
M  V30 1745 H 159.925 3.45361 1.88385 0
M  V30 1746 H 161.94 3.90358 3.06326 0
M  V30 1747 N 161.113 -0.173488 1.56642 0
M  V30 1748 C 162.529 -0.525174 1.50712 0
M  V30 1749 C 162.729 -1.8476 0.804107 0
M  V30 1750 O 161.785 -2.49869 0.363574 0
M  V30 1751 C 163.098 -0.559937 2.95441 0
M  V30 1752 C 164.646 -0.647288 3.06234 0
M  V30 1753 C 165.121 -0.712963 4.52417 0
M  V30 1754 N 166.612 -0.775911 4.56655 0
M  V30 1755 C 167.347 -0.847264 5.67106 0
M  V30 1756 N 166.843 -0.879585 6.87194 0
M  V30 1757 N 168.636 -0.886117 5.55071 0
M  V30 1758 H 160.787 0.693681 2.00753 0
M  V30 1759 H 163.05 0.249841 0.914485 0
M  V30 1760 H 162.756 0.343049 3.50023 0
M  V30 1761 H 162.63 -1.40718 3.49969 0
M  V30 1762 H 165.017 -1.5407 2.51687 0
M  V30 1763 H 165.098 0.226586 2.54794 0
M  V30 1764 H 164.742 0.176183 5.07594 0
M  V30 1765 H 164.672 -1.60295 5.0161 0
M  V30 1766 H 167.163 -0.759304 3.70193 0
M  V30 1767 H 167.476 -0.935144 7.67121 0
M  V30 1768 H 165.821 -0.847898 6.89808 0
M  V30 1769 H 169.012 -0.857853 4.60172 0
M  V30 1770 H 169.185 -0.938263 6.41171 0
M  V30 1771 N 162.591 -1.51276 -0.441967 0
M  V30 1772 C 163.524 -1.66933 -1.55591 0
M  V30 1773 C 164.502 -0.516958 -1.54163 0
M  V30 1774 O 165.686 -0.740209 -1.73358 0
M  V30 1775 C 162.813 -1.67866 -2.94174 0
M  V30 1776 C 161.859 -2.89013 -3.13646 0
M  V30 1777 S 162.692 -4.49897 -2.90436 0
M  V30 1778 C 163.848 -4.53568 -4.31308 0
M  V30 1779 H 164.081 -2.61155 -1.42076 0
M  V30 1780 H 161.614 -1.40902 -0.631341 0
M  V30 1781 H 163.572 -1.69089 -3.74058 0
M  V30 1782 H 162.233 -0.748296 -3.05056 0
M  V30 1783 H 161.426 -2.86054 -4.14957 0
M  V30 1784 H 161.028 -2.85509 -2.4158 0
M  V30 1785 H 163.32 -4.28924 -5.24434 0
M  V30 1786 H 164.263 -5.55355 -4.39303 0
M  V30 1787 H 164.671 -3.82943 -4.14747 0
M  V30 1788 N 164.069 0.697108 -1.41344 0
M  V30 1789 C 165.299 1.48377 -1.43763 0
M  V30 1790 C 165.707 1.89156 -0.0408726 0
M  V30 1791 O 165.05 1.57239 0.949812 0
M  V30 1792 C 165.112 2.7781 -2.2817 0
M  V30 1793 C 164.776 2.59244 -3.76353 0
M  V30 1794 C 165.773 2.25292 -4.68551 0
M  V30 1795 C 163.458 2.74933 -4.20378 0
M  V30 1796 C 165.452 2.07264 -6.02761 0
M  V30 1797 C 163.139 2.56521 -5.54653 0
M  V30 1798 C 164.137 2.22737 -6.4566 0
M  V30 1799 O 163.825 2.04485 -7.77458 0
M  V30 1800 H 163.557 0.463842 -0.491759 0
M  V30 1801 H 166.111 0.865934 -1.86255 0
M  V30 1802 H 164.341 3.41995 -1.8049 0
M  V30 1803 H 166.03 3.39608 -2.22309 0
M  V30 1804 H 166.796 2.12787 -4.35829 0
M  V30 1805 H 162.675 3.00213 -3.49848 0
M  V30 1806 H 166.219 1.80817 -6.73759 0
M  V30 1807 H 162.116 2.68616 -5.86955 0
M  V30 1808 H 162.884 2.1926 -7.88586 0
M  V30 1809 N 165.547 1.27147 0.931209 0
M  V30 1810 C 166.958 1.12044 1.49342 0
M  V30 1811 C 167.309 -0.295795 1.93957 0
M  V30 1812 O 166.434 -1.18835 1.80852 0
M  V30 1813 C 167.029 2.02781 2.71414 0
M  V30 1814 C 165.588 1.91794 3.2387 0
M  V30 1815 C 164.735 1.95543 1.96617 0
M  V30 1816 H 167.686 1.40091 0.745672 0
M  V30 1817 H 167.707 1.58156 3.46074 0
M  V30 1818 H 167.219 3.05848 2.38911 0
M  V30 1819 H 165.32 0.916992 3.6114 0
M  V30 1820 H 165.433 2.77852 3.90302 0
M  V30 1821 H 163.797 1.39722 2.12955 0
M  V30 1822 H 164.58 3.00259 1.66432 0
M  V30 1823 N 167.025 -1.13721 1.09112 0
M  V30 1824 C 167.935 -2.22638 0.73957 0
M  V30 1825 C 168.951 -1.72091 -0.257068 0
M  V30 1826 O 170.127 -2.01155 -0.0992154 0
M  V30 1827 C 167.192 -3.46322 0.16191 0
M  V30 1828 C 166.253 -4.11775 1.21408 0
M  V30 1829 C 165.486 -5.29555 0.663891 0
M  V30 1830 O 165.709 -5.68077 -0.514274 0
M  V30 1831 O 164.643 -5.84973 1.41738 0
M  V30 1832 H 168.469 -2.55074 1.64836 0
M  V30 1833 H 166.054 -1.21791 0.865289 0
M  V30 1834 H 167.936 -4.21107 -0.157073 0
M  V30 1835 H 166.611 -3.15593 -0.719932 0
M  V30 1836 H 165.518 -3.3883 1.58571 0
M  V30 1837 H 166.851 -4.46627 2.06845 0
M  V30 1838 N 168.503 -0.877838 -1.30888 0
M  V30 1839 C 169.731 -0.507414 -2.00581 0
M  V30 1840 C 170.146 0.902216 -1.65848 0
M  V30 1841 O 169.503 1.59225 -0.891831 0
M  V30 1842 C 169.554 -0.664162 -3.55347 0
M  V30 1843 O 169.275 -2.01829 -3.8884 0
M  V30 1844 C 170.776 -0.295787 -4.42312 0
M  V30 1845 H 167.996 -0.196866 -0.641471 0
M  V30 1846 H 170.54 -1.18117 -1.66939 0
M  V30 1847 H 168.695 -0.0378619 -3.87381 0
M  V30 1848 H 169.109 -2.03174 -4.8355 0
M  V30 1849 H 170.583 -0.456388 -5.5011 0
M  V30 1850 H 171.06 0.765663 -4.32475 0
M  V30 1851 H 171.666 -0.898113 -4.15709 0
M  V30 1852 N 169.982 1.44106 -0.638065 0
M  V30 1853 C 171.229 2.01978 -0.14533 0
M  V30 1854 C 171.557 1.50234 1.23532 0
M  V30 1855 O 170.812 0.679548 1.83523 0
M  V30 1856 C 171.111 3.5729 -0.0887327 0
M  V30 1857 C 170.777 4.28317 -1.40909 0
M  V30 1858 C 169.439 4.47437 -1.77069 0
M  V30 1859 C 171.791 4.6867 -2.28031 0
M  V30 1860 C 169.119 5.04171 -3.00047 0
M  V30 1861 C 171.471 5.26766 -3.50286 0
M  V30 1862 C 170.135 5.44104 -3.86661 0
M  V30 1863 H 169.405 0.739089 -0.0531801 0
M  V30 1864 H 172.052 1.72781 -0.825761 0
M  V30 1865 H 170.357 3.8594 0.675095 0
M  V30 1866 H 172.054 3.99807 0.309145 0
M  V30 1867 H 168.644 4.1377 -1.1177 0
M  V30 1868 H 172.828 4.53604 -2.01388 0
M  V30 1869 H 168.084 5.15782 -3.28298 0
M  V30 1870 H 172.258 5.56983 -4.18023 0
M  V30 1871 H 169.885 5.87832 -4.82034 0
M  V30 1872 N 171.46 0.379036 1.52974 0
M  V30 1873 C 172.39 -0.452706 2.29069 0
M  V30 1874 C 173.371 -1.07237 1.32039 0
M  V30 1875 O 174.556 -1.08708 1.60923 0
M  V30 1876 C 171.686 -1.5856 3.08992 0
M  V30 1877 C 170.64 -1.0925 4.13822 0
M  V30 1878 C 169.966 -2.31668 4.81907 0
M  V30 1879 C 171.266 -0.167702 5.22031 0
M  V30 1880 H 172.96 0.182181 2.98845 0
M  V30 1881 H 170.506 0.0890592 1.43724 0
M  V30 1882 H 172.459 -2.1742 3.6098 0
M  V30 1883 H 171.183 -2.24792 2.36931 0
M  V30 1884 H 169.842 -0.526494 3.628 0
M  V30 1885 H 169.49 -2.96386 4.06404 0
M  V30 1886 H 169.19 -1.9934 5.52754 0
M  V30 1887 H 170.714 -2.91189 5.36695 0
M  V30 1888 H 172.128 -0.664186 5.6944 0
M  V30 1889 H 170.525 0.0653265 6.00064 0
M  V30 1890 H 171.595 0.786347 4.78482 0
M  V30 1891 N 172.938 -1.57226 0.108567 0
M  V30 1892 C 174.168 -1.9889 -0.559142 0
M  V30 1893 C 174.576 -0.986889 -1.61422 0
M  V30 1894 O 173.919 0.0298705 -1.83676 0
M  V30 1895 C 173.981 -3.36952 -1.25315 0
M  V30 1896 C 173.645 -4.55679 -0.347248 0
M  V30 1897 C 174.642 -5.18281 0.409996 0
M  V30 1898 C 172.327 -5.0162 -0.261367 0
M  V30 1899 C 174.321 -6.25203 1.24096 0
M  V30 1900 C 172.008 -6.08405 0.573238 0
M  V30 1901 C 173.006 -6.70063 1.32304 0
M  V30 1902 O 172.694 -7.74788 2.14381 0
M  V30 1903 H 172.426 -0.658343 -0.153492 0
M  V30 1904 H 174.98 -2.04532 0.188584 0
M  V30 1905 H 173.21 -3.28032 -2.04773 0
M  V30 1906 H 174.899 -3.62974 -1.81673 0
M  V30 1907 H 175.665 -4.8371 0.353457 0
M  V30 1908 H 171.544 -4.53381 -0.834656 0
M  V30 1909 H 175.088 -6.73259 1.82669 0
M  V30 1910 H 170.985 -6.42406 0.631208 0
M  V30 1911 H 171.753 -7.91837 2.07209 0
M  V30 1912 N 174.416 0.165178 -1.56732 0
M  V30 1913 C 175.662 0.882112 -1.82611 0
M  V30 1914 C 175.995 1.81628 -0.687378 0
M  V30 1915 O 175.27 1.92009 0.310267 0
M  V30 1916 C 175.553 1.67245 -3.18906 0
M  V30 1917 C 175.406 0.760987 -4.43316 0
M  V30 1918 C 176.725 2.63884 -3.52212 0
M  V30 1919 H 173.844 0.319242 -0.664269 0
M  V30 1920 H 176.486 0.148052 -1.89422 0
M  V30 1921 H 174.636 2.29824 -3.1323 0
M  V30 1922 H 176.308 0.147596 -4.61064 0
M  V30 1923 H 174.551 0.0694102 -4.33744 0
M  V30 1924 H 175.222 1.34962 -5.35247 0
M  V30 1925 H 177.698 2.11429 -3.58381 0
M  V30 1926 H 176.574 3.16245 -4.48643 0
M  V30 1927 H 176.835 3.44377 -2.77231 0
M  V30 1928 N 175.894 1.51508 0.433938 0
M  V30 1929 C 177.122 1.68157 1.20543 0
M  V30 1930 C 177.537 0.380362 1.84929 0
M  V30 1931 O 176.894 -0.641446 1.70856 0
M  V30 1932 C 176.945 2.79965 2.28696 0
M  V30 1933 O 176.666 4.05045 1.66943 0
M  V30 1934 C 178.167 3.07912 3.18912 0
M  V30 1935 H 175.387 0.56421 0.363191 0
M  V30 1936 H 177.931 1.97941 0.513754 0
M  V30 1937 H 176.086 2.5277 2.93574 0
M  V30 1938 H 176.5 4.67165 2.38448 0
M  V30 1939 H 177.974 3.89719 3.90926 0
M  V30 1940 H 178.451 2.20456 3.79863 0
M  V30 1941 H 179.057 3.36779 2.59731 0
M  V30 1942 N 177.372 -0.689602 1.41712 0
M  V30 1943 C 178.597 -1.48329 1.44959 0
M  V30 1944 C 179.022 -1.8801 0.0581283 0
M  V30 1945 O 178.38 -1.55026 -0.940035 0
M  V30 1946 C 178.428 -2.71835 2.36935 0
M  V30 1947 O 177.532 -3.69549 1.8305 0
M  V30 1948 H 176.873 -0.446199 0.491734 0
M  V30 1949 H 179.403 -0.847127 1.86239 0
M  V30 1950 H 179.413 -3.20076 2.53013 0
M  V30 1951 H 178.088 -2.42291 3.38035 0
M  V30 1952 H 176.665 -3.2851 1.76452 0
M  V30 1953 N 178.85 -1.27639 -0.924453 0
M  V30 1954 C 180.075 -1.17101 -1.71179 0
M  V30 1955 C 180.5 0.268134 -1.86179 0
M  V30 1956 O 179.858 1.19415 -1.36418 0
M  V30 1957 C 179.906 -1.86313 -3.08739 0
M  V30 1958 O 179.01 -1.16331 -3.95652 0
M  V30 1959 H 178.351 -0.407091 -0.524569 0
M  V30 1960 H 180.881 -1.68767 -1.15666 0
M  V30 1961 H 180.891 -1.938 -3.59034 0
M  V30 1962 H 179.566 -2.91001 -2.97138 0
M  V30 1963 H 178.143 -1.16935 -3.54091 0
M  V30 1964 N 180.328 1.1314 -1.09713 0
M  V30 1965 C 181.291 2.16831 -0.742751 0
M  V30 1966 C 182.291 1.59159 0.229129 0
M  V30 1967 O 183.481 1.74199 0.00693237 0
M  V30 1968 C 180.613 3.40756 -0.0989168 0
M  V30 1969 H 181.806 2.49695 -1.66109 0
M  V30 1970 H 179.359 1.2802 -0.896699 0
M  V30 1971 H 180.094 3.13485 0.830514 0
M  V30 1972 H 179.879 3.83888 -0.798265 0
M  V30 1973 H 181.369 4.17386 0.133524 0
M  V30 1974 N 181.806 0.884767 1.30421 0
M  V30 1975 C 183.054 0.502112 1.95763 0
M  V30 1976 C 183.375 -0.951815 1.70192 0
M  V30 1977 O 182.645 -1.6692 1.0254 0
M  V30 1978 H 181.225 0.182694 0.724315 0
M  V30 1979 H 183.887 1.1278 1.58955 0
M  V30 1980 H 182.983 0.672188 3.04775 0
M  V30 1981 N 183.284 -1.43765 0.645699 0
M  V30 1982 C 184.533 -2.01116 0.153412 0
M  V30 1983 C 184.846 -1.51493 -1.23731 0
M  V30 1984 O 186.052 -2.01067 -1.8244 0
M  V30 1985 C 184.508 -3.59206 0.223473 0
M  V30 1986 C 184.116 -4.17823 1.61642 0
M  V30 1987 C 185.86 -4.23972 -0.211597 0
M  V30 1988 C 183.767 -5.68183 1.64081 0
M  V30 1989 H 182.697 -0.752093 0.0535891 0
M  V30 1990 H 185.348 -1.6482 0.806633 0
M  V30 1991 H 183.73 -3.92867 -0.497118 0
M  V30 1992 H 184.904 -3.95674 2.36176 0
M  V30 1993 H 183.219 -3.65399 1.99681 0
M  V30 1994 H 185.816 -5.34275 -0.213112 0
M  V30 1995 H 186.159 -3.97352 -1.24165 0
M  V30 1996 H 186.692 -3.95166 0.456988 0
M  V30 1997 H 183.431 -5.99559 2.64971 0
M  V30 1998 H 182.951 -5.9241 0.938611 0
M  V30 1999 H 184.63 -6.32085 1.3812 0
M  V30 2000 N 184.763 -0.387143 -1.52771 0
M  V30 2001 C 186.179 -0.037007 -1.59557 0
M  V30 2002 C 186.379 1.44801 -1.40124 0
M  V30 2003 O 185.435 2.21227 -1.21716 0
M  V30 2004 C 186.748 -0.512256 -2.96305 0
M  V30 2005 C 188.296 -0.468328 -3.09476 0
M  V30 2006 C 188.771 -0.919731 -4.4867 0
M  V30 2007 N 190.262 -0.875656 -4.54848 0
M  V30 2008 C 190.997 -1.19637 -5.6078 0
M  V30 2009 N 190.493 -1.58745 -6.74368 0
M  V30 2010 N 192.286 -1.11776 -5.50874 0
M  V30 2011 H 184.437 -1.35395 -1.63652 0
M  V30 2012 H 186.7 -0.554818 -0.768688 0
M  V30 2013 H 186.406 -1.54935 -3.15734 0
M  V30 2014 H 186.28 0.089805 -3.77093 0
M  V30 2015 H 188.667 0.559671 -2.89744 0
M  V30 2016 H 188.748 -1.10616 -2.30646 0
M  V30 2017 H 188.392 -1.94595 -4.69143 0
M  V30 2018 H 188.322 -0.258927 -5.25963 0
M  V30 2019 H 190.813 -0.587843 -3.733 0
M  V30 2020 H 191.126 -1.81586 -7.51163 0
M  V30 2021 H 189.471 -1.6263 -6.75705 0
M  V30 2022 H 192.662 -0.811264 -4.61016 0
M  V30 2023 H 192.835 -1.37103 -6.3333 0
M  V30 2024 N 186.241 1.57166 -0.116904 0
M  V30 2025 C 187.173 2.12271 0.864507 0
M  V30 2026 C 188.186 1.06494 1.23138 0
M  V30 2027 O 189.375 1.33873 1.18069 0
M  V30 2028 C 186.475 2.60564 2.16702 0
M  V30 2029 C 185.648 3.90416 1.97216 0
M  V30 2030 C 184.707 4.24329 3.11178 0
M  V30 2031 O 183.733 4.93182 2.84184 0
M  V30 2032 N 184.935 3.8148 4.37554 0
M  V30 2033 H 187.7 2.97102 0.393726 0
M  V30 2034 H 185.261 1.61759 0.0675805 0
M  V30 2035 H 187.253 2.80282 2.91932 0
M  V30 2036 H 185.823 1.80623 2.55135 0
M  V30 2037 H 185.043 3.79627 1.06192 0
M  V30 2038 H 186.331 4.75327 1.81499 0
M  V30 2039 H 185.729 3.25943 4.62361 0
M  V30 2040 H 184.286 4.06311 5.09661 0
M  V30 2041 N 187.719 -0.156864 1.56817 0
M  V30 2042 C 188.682 -1.17781 1.96622 0
M  V30 2043 C 189.682 -1.36401 0.851555 0
M  V30 2044 O 190.872 -1.33561 1.11836 0
M  V30 2045 C 188.004 -2.54008 2.27361 0
M  V30 2046 H 189.197 -0.836564 2.87996 0
M  V30 2047 H 186.75 -0.39985 1.51099 0
M  V30 2048 H 187.485 -2.9312 1.38748 0
M  V30 2049 H 187.27 -2.41856 3.08623 0
M  V30 2050 H 188.76 -3.27558 2.59029 0
M  V30 2051 N 189.197 -1.51736 -0.425897 0
M  V30 2052 C 190.444 -1.6497 -1.17436 0
M  V30 2053 C 190.772 -0.371445 -1.9092 0
M  V30 2054 O 190.027 0.644963 -1.84767 0
M  V30 2055 C 190.326 -2.81103 -2.20717 0
M  V30 2056 C 189.992 -4.19954 -1.64162 0
M  V30 2057 C 188.654 -4.57725 -1.48462 0
M  V30 2058 C 191.006 -5.06552 -1.22696 0
M  V30 2059 C 188.334 -5.79789 -0.897873 0
M  V30 2060 C 190.686 -6.29205 -0.654464 0
M  V30 2061 C 189.35 -6.6574 -0.484456 0
M  V30 2062 H 188.62 -0.603668 -0.429727 0
M  V30 2063 H 191.267 -1.85798 -0.463829 0
M  V30 2064 H 189.572 -2.54542 -2.97852 0
M  V30 2065 H 191.269 -2.8854 -2.78471 0
M  V30 2066 H 187.859 -3.90181 -1.77361 0
M  V30 2067 H 192.043 -4.77968 -1.33642 0
M  V30 2068 H 187.299 -6.06733 -0.75402 0
M  V30 2069 H 191.473 -6.95643 -0.324694 0
M  V30 2070 H 189.1 -7.60195 -0.0276833 0
M  V30 2071 N 190.675 0.682077 -1.42076 0
M  V30 2072 C 192.091 0.994324 -1.24841 0
M  V30 2073 C 192.291 2.0096 -0.147389 0
M  V30 2074 O 191.347 2.47822 0.483782 0
M  V30 2075 C 192.66 1.50607 -2.60265 0
M  V30 2076 C 194.208 1.62421 -2.6756 0
M  V30 2077 C 194.683 2.16994 -4.03333 0
M  V30 2078 N 196.174 2.24337 -4.0525 0
M  V30 2079 C 196.909 2.67621 -5.07116 0
M  V30 2080 N 196.405 3.1041 -6.19368 0
M  V30 2081 N 198.198 2.67305 -4.94474 0
M  V30 2082 H 190.349 0.00973908 -2.12398 0
M  V30 2083 H 192.612 0.0668593 -0.945639 0
M  V30 2084 H 192.318 0.834583 -3.41654 0
M  V30 2085 H 192.192 2.48602 -2.83684 0
M  V30 2086 H 194.579 2.28678 -1.86521 0
M  V30 2087 H 194.66 0.629352 -2.47937 0
M  V30 2088 H 194.304 1.51349 -4.84826 0
M  V30 2089 H 194.234 3.17258 -4.20304 0
M  V30 2090 H 196.725 1.94158 -3.24209 0
M  V30 2091 H 197.038 3.42103 -6.92954 0
M  V30 2092 H 195.383 3.08286 -6.22884 0
M  V30 2093 H 198.574 2.33233 -4.05857 0
M  V30 2094 H 198.747 3.00718 -5.73997 0
M  V30 2095 N 192.153 1.28127 0.917671 0
M  V30 2096 C 193.063 1.13556 2.05286 0
M  V30 2097 C 194.079 0.0630914 1.73886 0
M  V30 2098 O 195.255 0.271598 1.9956 0
M  V30 2099 C 192.32 0.794676 3.3747 0
M  V30 2100 C 191.381 1.94909 3.82504 0
M  V30 2101 C 190.614 1.62437 5.0838 0
M  V30 2102 O 190.837 0.536905 5.67867 0
M  V30 2103 O 189.771 2.46677 5.4903 0
M  V30 2104 H 193.597 2.08844 2.20495 0
M  V30 2105 H 191.182 1.07409 1.03845 0
M  V30 2106 H 193.064 0.618344 4.16839 0
M  V30 2107 H 191.739 -0.128581 3.23445 0
M  V30 2108 H 190.646 2.18055 3.03978 0
M  V30 2109 H 191.979 2.85291 4.01086 0
M  V30 2110 N 193.631 -1.12557 1.10312 0
M  V30 2111 C 194.879 -1.83675 0.843091 0
M  V30 2112 C 195.2 -1.84435 -0.633131 0
M  V30 2113 O 194.47 -1.30657 -1.45964 0
M  V30 2114 H 193.05 -0.680138 0.308904 0
M  V30 2115 H 195.712 -1.36301 1.39313 0
M  V30 2116 H 194.808 -2.87908 1.2048 0
M  V30 2117 N 195.109 -0.891671 -1.2995 0
M  V30 2118 C 196.056 -0.361736 -2.27948 0
M  V30 2119 C 197.026 0.551761 -1.56668 0
M  V30 2120 O 198.211 0.478736 -1.84696 0
M  V30 2121 C 195.351 0.411825 -3.42634 0
M  V30 2122 C 194.464 -0.531651 -4.28716 0
M  V30 2123 C 193.599 0.258167 -5.30572 0
M  V30 2124 C 192.638 -0.680349 -6.08307 0
M  V30 2125 N 191.775 0.0745613 -7.0206 0
M  V30 2126 H 196.615 -1.20254 -2.72659 0
M  V30 2127 H 194.152 -0.604352 -1.34112 0
M  V30 2128 H 196.11 0.876304 -4.07893 0
M  V30 2129 H 194.74 1.21715 -2.98974 0
M  V30 2130 H 193.792 -1.11463 -3.63703 0
M  V30 2131 H 195.104 -1.25038 -4.82874 0
M  V30 2132 H 194.258 0.784204 -6.0161 0
M  V30 2133 H 192.997 1.01008 -4.77126 0
M  V30 2134 H 192.002 -1.21796 -5.3614 0
M  V30 2135 H 193.227 -1.43145 -6.63842 0
M  V30 2136 H 191.173 0.808883 -6.50994 0
M  V30 2137 H 191.09 -0.584409 -7.53738 0
M  V30 2138 H 192.358 0.581123 -7.77331 0
M  V30 2139 N 196.587 1.43421 -0.653314 0
M  V30 2140 C 197.833 2.02111 -0.166992 0
M  V30 2141 C 198.166 1.51423 1.21592 0
M  V30 2142 O 197.441 0.707389 1.8118 0
M  V30 2143 C 197.724 3.5966 -0.177948 0
M  V30 2144 C 197.577 4.20579 -1.59478 0
M  V30 2145 C 198.896 4.37413 0.4856 0
M  V30 2146 H 196.015 0.734374 -0.0621557 0
M  V30 2147 H 198.657 1.70717 -0.834016 0
M  V30 2148 H 196.807 3.86537 0.390032 0
M  V30 2149 H 198.479 4.04732 -2.21336 0
M  V30 2150 H 196.722 3.77226 -2.14204 0
M  V30 2151 H 197.393 5.29665 -1.5543 0
M  V30 2152 H 199.869 4.161 0.00234528 0
M  V30 2153 H 198.745 5.47075 0.447207 0
M  V30 2154 H 199.006 4.13672 1.55974 0
M  V30 2155 N 198.065 0.39524 1.52563 0
M  V30 2156 C 199.028 -0.425001 2.25225 0
M  V30 2157 C 200.028 -0.985266 1.27079 0
M  V30 2158 O 201.218 -0.866332 1.5113 0
M  V30 2159 C 198.35 -1.59686 3.01186 0
M  V30 2160 H 199.543 0.211233 2.99155 0
M  V30 2161 H 197.096 0.147472 1.55603 0
M  V30 2162 H 197.831 -2.27035 2.31572 0
M  V30 2163 H 197.616 -1.20176 3.73229 0
M  V30 2164 H 199.106 -2.17743 3.5634 0
M  V30 2165 N 199.544 -1.57102 0.125237 0
M  V30 2166 C 200.769 -2.0019 -0.542101 0
M  V30 2167 C 201.194 -1.00449 -1.59034 0
M  V30 2168 O 200.552 0.0229423 -1.81285 0
M  V30 2169 C 200.6 -3.42129 -1.13929 0
M  V30 2170 O 199.704 -3.45307 -2.2547 0
M  V30 2171 H 199.045 -0.650171 -0.134812 0
M  V30 2172 H 201.575 -2.03461 0.215553 0
M  V30 2173 H 201.585 -3.80471 -1.4733 0
M  V30 2174 H 200.26 -4.14237 -0.371531 0
M  V30 2175 H 198.837 -3.1879 -1.93462 0
M  V30 2176 N 201.022 0.148545 -1.56898 0
M  V30 2177 C 201.952 1.18524 -2.01182 0
M  V30 2178 C 202.933 1.4489 -0.891123 0
M  V30 2179 O 204.118 1.55836 -1.15882 0
M  V30 2180 C 201.248 2.51879 -2.39112 0
M  V30 2181 C 200.202 2.40038 -3.54353 0
M  V30 2182 C 199.528 3.78089 -3.78091 0
M  V30 2183 C 200.828 1.88577 -4.87069 0
M  V30 2184 H 202.522 0.817029 -2.88036 0
M  V30 2185 H 200.068 0.391575 -1.38574 0
M  V30 2186 H 202.021 3.24627 -2.68692 0
M  V30 2187 H 200.745 2.90532 -1.49193 0
M  V30 2188 H 199.404 1.69742 -3.24936 0
M  V30 2189 H 199.052 4.14175 -2.85426 0
M  V30 2190 H 198.752 3.71028 -4.55645 0
M  V30 2191 H 200.276 4.52387 -4.10095 0
M  V30 2192 H 201.69 2.51117 -5.15377 0
M  V30 2193 H 200.087 1.9241 -5.68417 0
M  V30 2194 H 201.157 0.84136 -4.77545 0
M  V30 2195 N 202.5 1.5196 0.417844 0
M  V30 2196 C 203.749 1.6482 1.16264 0
M  V30 2197 C 204.062 0.379886 1.91876 0
M  V30 2198 O 205.268 0.388154 2.68711 0
M  V30 2199 C 203.724 2.91161 2.1155 0
M  V30 2200 C 203.332 4.25068 1.41495 0
M  V30 2201 C 205.076 3.13383 2.86341 0
M  V30 2202 C 202.983 5.42541 2.35379 0
M  V30 2203 H 201.913 0.613954 0.437694 0
M  V30 2204 H 204.564 1.78442 0.427871 0
M  V30 2205 H 202.946 2.71218 2.88543 0
M  V30 2206 H 204.12 4.55463 0.699263 0
M  V30 2207 H 202.435 4.0888 0.787792 0
M  V30 2208 H 205.032 3.98324 3.5671 0
M  V30 2209 H 205.375 2.27256 3.48798 0
M  V30 2210 H 205.908 3.33757 2.1645 0
M  V30 2211 H 202.647 6.30987 1.77582 0
M  V30 2212 H 202.167 5.16497 3.04945 0
M  V30 2213 H 203.846 5.75272 2.96093 0
M  V30 2214 N 203.978 -0.674533 1.42435 0
M  V30 2215 C 205.226 -1.43175 1.42637 0
M  V30 2216 C 205.547 -1.94951 0.0438992 0
M  V30 2217 O 204.817 -1.7308 -0.917607 0
M  V30 2218 H 203.397 -0.531307 0.525092 0
M  V30 2219 H 206.059 -0.797006 1.77859 0
M  V30 2220 H 205.155 -2.28463 2.12629 0
M  V30 2221 N 205.456 -1.28612 -0.910864 0
M  V30 2222 C 206.702 -1.16106 -1.66274 0
M  V30 2223 C 207.035 0.289113 -1.92036 0
M  V30 2224 O 206.31 1.21 -1.52281 0
M  V30 2225 C 206.593 -1.96309 -3.01885 0
M  V30 2226 C 206.446 -3.49405 -2.8326 0
M  V30 2227 C 207.765 -1.78076 -4.02463 0
M  V30 2228 H 204.884 -0.423152 -0.603417 0
M  V30 2229 H 207.526 -1.57961 -1.05586 0
M  V30 2230 H 205.676 -1.60742 -3.53687 0
M  V30 2231 H 207.348 -3.94894 -2.38446 0
M  V30 2232 H 205.591 -3.74893 -2.18261 0
M  V30 2233 H 206.262 -4.00784 -3.79574 0
M  V30 2234 H 208.738 -2.0912 -3.59733 0
M  V30 2235 H 207.614 -2.36561 -4.95308 0
M  V30 2236 H 207.875 -0.733008 -4.35981 0
M  V30 2237 N 206.934 1.1197 -1.10907 0
M  V30 2238 C 207.844 2.21433 -0.774896 0
M  V30 2239 C 208.86 1.72478 0.229657 0
M  V30 2240 O 210.036 2.01288 0.0672008 0
M  V30 2241 C 207.101 3.4602 -0.216986 0
M  V30 2242 C 206.162 4.09791 -1.27944 0
M  V30 2243 C 205.395 5.28431 -0.748055 0
M  V30 2244 O 205.618 5.68823 0.423833 0
M  V30 2245 O 204.552 5.82644 -1.51027 0
M  V30 2246 H 208.378 2.5242 -1.68873 0
M  V30 2247 H 205.963 1.20399 -0.884555 0
M  V30 2248 H 207.845 4.21304 0.090059 0
M  V30 2249 H 206.52 3.16698 0.669633 0
M  V30 2250 H 205.427 3.36265 -1.63941 0
M  V30 2251 H 206.76 4.4328 -2.13925 0
M  V30 2252 N 208.412 0.89855 1.29475 0
M  V30 2253 C 209.66 0.522847 1.9522 0
M  V30 2254 C 209.981 -0.93371 1.71192 0
M  V30 2255 O 209.251 -1.65823 1.04305 0
M  V30 2256 H 207.831 0.190366 0.722336 0
M  V30 2257 H 210.493 1.14459 1.5775 0
M  V30 2258 H 209.589 0.704476 3.04045 0
M  V30 2259 N 209.89 -1.43072 0.660911 0
M  V30 2260 C 211.138 -2.01323 0.177094 0
M  V30 2261 C 211.459 -1.5245 -1.2159 0
M  V30 2262 O 210.729 -0.740322 -1.81373 0
M  V30 2263 H 209.309 -0.744382 0.0624804 0
M  V30 2264 H 211.971 -1.75179 0.854305 0
M  V30 2265 H 211.067 -3.11649 0.167641 0
M  V30 2266 N 211.368 -0.403325 -1.52352 0
M  V30 2267 C 212.318 0.442244 -2.2367 0
M  V30 2268 C 213.302 1.01823 -1.24583 0
M  V30 2269 O 214.494 0.942005 -1.49851 0
M  V30 2270 C 211.623 1.5615 -3.05732 0
M  V30 2271 C 210.709 0.996575 -4.12225 0
M  V30 2272 N 211.1 0.157804 -5.05554 0
M  V30 2273 C 209.398 1.26767 -4.27605 0
M  V30 2274 C 210.099 -0.155853 -5.81491 0
M  V30 2275 N 209.075 0.451775 -5.41719 0
M  V30 2276 H 212.877 -0.204964 -2.93184 0
M  V30 2277 H 210.391 -0.213418 -1.60992 0
M  V30 2278 H 212.388 2.17981 -3.55373 0
M  V30 2279 H 211.048 2.21139 -2.37755 0
M  V30 2280 H 212.059 -0.206049 -5.1749 0
M  V30 2281 H 208.736 1.91757 -3.70858 0
M  V30 2282 H 210.126 -0.836329 -6.66675 0
M  V30 2283 N 212.846 1.57033 -0.133567 0
M  V30 2284 C 214.071 2.00475 0.531477 0
M  V30 2285 C 214.496 1.01291 1.58499 0
M  V30 2286 O 213.854 -0.0133279 1.81295 0
M  V30 2287 C 213.902 3.42729 1.12113 0
M  V30 2288 O 213.006 3.46498 2.23636 0
M  V30 2289 H 212.347 0.650876 0.131362 0
M  V30 2290 H 214.877 2.03344 -0.22634 0
M  V30 2291 H 214.887 3.81246 1.4531 0
M  V30 2292 H 213.562 4.14428 0.349557 0
M  V30 2293 H 212.139 3.19811 1.91769 0
M  V30 2294 N 214.325 -0.140222 1.56975 0
M  V30 2295 C 215.574 -0.850152 1.82908 0
M  V30 2296 C 215.887 -1.82028 0.715892 0
M  V30 2297 O 217.093 -2.57485 0.861016 0
M  V30 2298 C 215.549 -1.5625 3.24213 0
M  V30 2299 C 215.157 -0.63443 4.43485 0
M  V30 2300 C 216.901 -2.25881 3.59413 0
M  V30 2301 C 214.808 -1.34879 5.75814 0
M  V30 2302 H 213.738 -0.321221 0.682153 0
M  V30 2303 H 216.389 -0.102874 1.83211 0
M  V30 2304 H 214.771 -2.35565 3.18316 0
M  V30 2305 H 215.945 0.12398 4.60633 0
M  V30 2306 H 214.26 -0.0461836 4.16374 0
M  V30 2307 H 216.857 -2.79978 4.5554 0
M  V30 2308 H 217.2 -3.02693 2.85802 0
M  V30 2309 H 217.733 -1.53477 3.67001 0
M  V30 2310 H 214.472 -0.622385 6.52539 0
M  V30 2311 H 213.992 -2.07974 5.6259 0
M  V30 2312 H 215.671 -1.88784 6.18845 0
M  V30 2313 N 215.803 -1.52179 -0.40978 0
M  V30 2314 C 217.08 -1.56769 -1.16974 0
M  V30 2315 C 217.46 -0.348322 -2.08206 0
M  V30 2316 O 216.808 0.664862 -2.18613 0
M  V30 2317 C 217.018 -2.89603 -1.9476 0
M  V30 2318 C 218.366 -3.42579 -2.50849 0
M  V30 2319 O 219.39 -2.91338 -2.04941 0
M  V30 2320 O 218.249 -4.32054 -3.34652 0
M  V30 2321 H 215.343 -0.631439 -0.534054 0
M  V30 2322 H 217.889 -1.64507 -0.416613 0
M  V30 2323 H 216.661 -3.698 -1.27921 0
M  V30 2324 H 216.284 -2.85155 -2.77079 0
M  V30 2325 N 217.281 0.66697 -1.42791 0
M  V30 2326 C 218.506 1.46004 -1.47301 0
M  V30 2327 C 218.931 1.87894 -0.0880317 0
M  V30 2328 O 218.289 1.56502 0.915253 0
M  V30 2329 C 218.337 2.68031 -2.41229 0
M  V30 2330 O 217.441 3.6659 -1.88906 0
M  V30 2331 H 216.782 0.43832 -0.49877 0
M  V30 2332 H 219.312 0.817391 -1.87563 0
M  V30 2333 H 219.322 3.1601 -2.58073 0
M  V30 2334 H 217.997 2.36883 -3.41847 0
M  V30 2335 H 216.574 3.25661 -1.81656 0
M  V30 2336 N 218.759 1.29093 0.90403 0
M  V30 2337 C 219.984 1.19809 1.69294 0
M  V30 2338 C 220.409 -0.238481 1.86582 0
M  V30 2339 O 219.767 -1.1723 1.383 0
M  V30 2340 C 219.815 1.91202 3.05736 0
M  V30 2341 O 218.919 1.22611 3.93752 0
M  V30 2342 H 218.26 0.415385 0.518027 0
M  V30 2343 H 220.79 1.70586 1.12967 0
M  V30 2344 H 220.8 1.99487 3.55906 0
M  V30 2345 H 219.475 2.95692 2.92471 0
M  V30 2346 H 218.052 1.22554 3.52186 0
M  V30 2347 N 220.237 -1.11381 1.11499 0
M  V30 2348 C 221.167 -2.19509 0.796125 0
M  V30 2349 C 222.148 -1.68458 -0.235796 0
M  V30 2350 O 223.333 -1.93947 -0.0991344 0
M  V30 2351 C 220.463 -3.46475 0.239205 0
M  V30 2352 C 219.417 -4.10744 1.20307 0
M  V30 2353 C 218.743 -5.32293 0.50683 0
M  V30 2354 C 220.043 -4.55597 2.55399 0
M  V30 2355 H 221.737 -2.46439 1.70024 0
M  V30 2356 H 219.283 -1.18446 0.818935 0
M  V30 2357 H 221.236 -4.214 0.00392006 0
M  V30 2358 H 219.96 -3.19006 -0.700206 0
M  V30 2359 H 218.619 -3.37813 1.42399 0
M  V30 2360 H 218.267 -5.01095 -0.437408 0
M  V30 2361 H 217.967 -5.76243 1.1497 0
M  V30 2362 H 219.491 -6.09956 0.280351 0
M  V30 2363 H 220.905 -5.21841 2.37391 0
M  V30 2364 H 219.302 -5.10363 3.15673 0
M  V30 2365 H 220.372 -3.69013 3.14575 0
M  V30 2366 N 221.715 -0.905404 -1.28997 0
M  V30 2367 C 222.963 -0.533192 -1.9494 0
M  V30 2368 C 223.284 0.924618 -1.71685 0
M  V30 2369 O 222.554 1.65268 -1.05183 0
M  V30 2370 H 221.134 -0.194194 -0.721317 0
M  V30 2371 H 223.796 -1.15294 -1.57141 0
M  V30 2372 H 222.892 -0.72059 -3.03667 0
M  V30 2373 N 223.193 1.4272 -0.668489 0
M  V30 2374 C 224.439 2.01923 -0.188419 0
M  V30 2375 C 224.772 1.52704 1.19979 0
M  V30 2376 O 224.047 0.726566 1.8042 0
M  V30 2377 C 224.33 3.59451 -0.216085 0
M  V30 2378 C 224.183 4.18864 -1.6393 0
M  V30 2379 C 225.502 4.37903 0.439179 0
M  V30 2380 H 222.621 0.733674 -0.0699412 0
M  V30 2381 H 225.263 1.69822 -0.852076 0
M  V30 2382 H 223.413 3.86929 0.349012 0
M  V30 2383 H 225.085 4.02362 -2.25616 0
M  V30 2384 H 223.328 3.74933 -2.18193 0
M  V30 2385 H 223.999 5.27987 -1.61039 0
M  V30 2386 H 226.475 4.16079 -0.0417878 0
M  V30 2387 H 225.351 5.47519 0.389157 0
M  V30 2388 H 225.612 4.15303 1.51577 0
M  V30 2389 N 224.671 0.411399 1.52136 0
M  V30 2390 C 225.601 -0.404015 2.29978 0
M  V30 2391 C 226.582 -1.04412 1.34284 0
M  V30 2392 O 227.767 -1.0527 1.63192 0
M  V30 2393 C 224.897 -1.5197 3.12286 0
M  V30 2394 C 223.851 -1.00448 4.16046 0
M  V30 2395 C 223.177 -2.21393 4.86712 0
M  V30 2396 C 224.477 -0.0569336 5.22269 0
M  V30 2397 H 226.171 0.245529 2.98392 0
M  V30 2398 H 223.717 0.119525 1.43503 0
M  V30 2399 H 225.67 -2.09715 3.6551 0
M  V30 2400 H 224.394 -2.19716 2.41646 0
M  V30 2401 H 223.053 -0.449421 3.63835 0
M  V30 2402 H 222.701 -2.87699 4.12599 0
M  V30 2403 H 222.401 -1.87571 5.56858 0
M  V30 2404 H 223.925 -2.7974 5.4275 0
M  V30 2405 H 225.339 -0.54325 5.7072 0
M  V30 2406 H 223.736 0.192594 5.99791 0
M  V30 2407 H 224.806 0.887663 4.76706 0
M  V30 2408 N 226.149 -1.5696 0.141893 0
M  V30 2409 C 227.565 -1.58151 -0.21456 0
M  V30 2410 C 227.765 -1.1559 -1.65049 0
M  V30 2411 O 226.821 -0.853832 -2.37626 0
M  V30 2412 C 228.134 -3.00674 0.0395576 0
M  V30 2413 C 229.682 -3.1299 -0.0245529 0
M  V30 2414 C 230.157 -4.57554 0.202167 0
M  V30 2415 N 231.648 -4.62961 0.148919 0
M  V30 2416 C 232.383 -5.7262 0.298924 0
M  V30 2417 N 231.879 -6.90947 0.50637 0
M  V30 2418 N 233.672 -5.61601 0.236886 0
M  V30 2419 H 225.823 -1.8292 1.07953 0
M  V30 2420 H 228.086 -0.846425 0.42693 0
M  V30 2421 H 227.792 -3.36183 1.03315 0
M  V30 2422 H 227.666 -3.70981 -0.682143 0
M  V30 2423 H 230.053 -2.77326 -1.00869 0
M  V30 2424 H 230.134 -2.4518 0.729396 0
M  V30 2425 H 229.778 -4.93922 1.18338 0
M  V30 2426 H 229.708 -5.23484 -0.572044 0
M  V30 2427 H 232.199 -3.77899 -0.00697015 0
M  V30 2428 H 232.512 -7.7038 0.611076 0
M  V30 2429 H 230.857 -6.92878 0.542628 0
M  V30 2430 H 234.048 -4.68039 0.0756209 0
M  V30 2431 H 234.221 -6.47015 0.357227 0
M  V30 2432 N 227.627 0.131896 -1.57047 0
M  V30 2433 C 228.59 1.14638 -1.98471 0
M  V30 2434 C 229.59 1.35029 -0.873148 0
M  V30 2435 O 230.78 1.31764 -1.13946 0
M  V30 2436 C 227.912 2.50358 -2.31373 0
M  V30 2437 H 229.105 0.79064 -2.8929 0
M  V30 2438 H 226.658 0.375761 -1.51716 0
M  V30 2439 H 227.393 2.90876 -1.43393 0
M  V30 2440 H 227.178 2.36915 -3.12432 0
M  V30 2441 H 228.668 3.23395 -2.64207 0
M  V30 2442 N 229.106 1.52395 0.401703 0
M  V30 2443 C 230.036 1.79231 1.49661 0
M  V30 2444 C 231.017 0.643654 1.57452 0
M  V30 2445 O 232.202 0.889989 1.72606 0
M  V30 2446 C 229.332 1.94971 2.87409 0
M  V30 2447 C 228.286 3.10604 2.94465 0
M  V30 2448 C 227.612 3.11577 4.34538 0
M  V30 2449 C 228.912 4.49921 2.6527 0
M  V30 2450 H 230.606 2.70917 1.27454 0
M  V30 2451 H 228.152 1.30362 0.6117 0
M  V30 2452 H 230.105 2.12328 3.63999 0
M  V30 2453 H 228.829 0.999632 3.10926 0
M  V30 2454 H 227.488 2.93009 2.20321 0
M  V30 2455 H 227.136 2.14277 4.55076 0
M  V30 2456 H 226.836 3.89247 4.40183 0
M  V30 2457 H 228.36 3.31073 5.13053 0
M  V30 2458 H 229.774 4.67683 3.31581 0
M  V30 2459 H 228.171 5.29564 2.82281 0
M  V30 2460 H 229.241 4.57507 1.60671 0
M  V30 2461 N 230.584 -0.659388 1.43143 0
M  V30 2462 C 231.814 -1.44513 1.47646 0
M  V30 2463 C 232.222 -1.88981 0.0910095 0
M  V30 2464 O 231.565 -1.59702 -0.907789 0
M  V30 2465 C 231.627 -2.71663 2.35456 0
M  V30 2466 C 231.291 -2.49175 3.83094 0
M  V30 2467 C 232.288 -2.1279 4.74359 0
M  V30 2468 C 229.973 -2.63691 4.27519 0
M  V30 2469 C 231.967 -1.9121 6.08044 0
M  V30 2470 C 229.654 -2.41726 5.61259 0
M  V30 2471 C 230.652 -2.0554 6.51339 0
M  V30 2472 O 230.34 -1.838 7.82606 0
M  V30 2473 H 230.072 -0.45064 0.503884 0
M  V30 2474 H 232.626 -0.816248 1.88485 0
M  V30 2475 H 230.856 -3.37089 1.89493 0
M  V30 2476 H 232.545 -3.33595 2.31235 0
M  V30 2477 H 233.311 -2.01157 4.41317 0
M  V30 2478 H 229.19 -2.90832 3.57684 0
M  V30 2479 H 232.734 -1.62889 6.78316 0
M  V30 2480 H 228.631 -2.52959 5.9387 0
M  V30 2481 H 229.399 -1.98275 7.94122 0
M  V30 2482 N 232.062 -1.29571 -0.897171 0
M  V30 2483 C 232.994 -1.10724 -2.00681 0
M  V30 2484 C 234.007 -0.0540026 -1.6271 0
M  V30 2485 O 235.196 -0.298783 -1.75982 0
M  V30 2486 C 232.296 -0.663912 -3.32333 0
M  V30 2487 C 231.469 -1.79622 -3.98816 0
M  V30 2488 C 230.528 -1.34349 -5.0876 0
M  V30 2489 O 229.554 -2.04864 -5.31055 0
M  V30 2490 N 230.756 -0.215764 -5.80099 0
M  V30 2491 H 233.521 -2.06291 -2.17403 0
M  V30 2492 H 231.082 -1.21544 -1.06951 0
M  V30 2493 H 233.074 -0.344295 -4.03233 0
M  V30 2494 H 231.644 0.199375 -3.11964 0
M  V30 2495 H 230.864 -2.28459 -3.21248 0
M  V30 2496 H 232.152 -2.55535 -4.39976 0
M  V30 2497 H 231.55 0.372091 -5.64475 0
M  V30 2498 H 230.107 0.0444707 -6.51785 0
M  V30 2499 N 233.54 1.10788 -1.12088 0
M  V30 2500 C 234.47 2.19083 -0.807755 0
M  V30 2501 C 235.451 1.6858 0.226859 0
M  V30 2502 O 236.636 1.93997 0.0888475 0
M  V30 2503 C 233.766 3.46344 -0.257576 0
M  V30 2504 C 232.72 4.101 -1.22483 0
M  V30 2505 C 232.046 5.32016 -0.535052 0
M  V30 2506 C 233.346 4.54236 -2.57811 0
M  V30 2507 H 235.04 2.45534 -1.71328 0
M  V30 2508 H 232.586 1.1801 -0.825205 0
M  V30 2509 H 234.539 4.21392 -0.0262679 0
M  V30 2510 H 233.263 3.19373 0.683278 0
M  V30 2511 H 231.922 3.37054 -1.44189 0
M  V30 2512 H 231.57 5.01319 0.410827 0
M  V30 2513 H 231.27 5.75625 -1.18024 0
M  V30 2514 H 232.794 6.09799 -0.312695 0
M  V30 2515 H 234.208 5.20575 -2.40155 0
M  V30 2516 H 232.605 5.08682 -3.18375 0
M  V30 2517 H 233.675 3.6734 -3.16528 0
M  V30 2518 N 235.018 0.912232 1.28515 0
M  V30 2519 C 236.266 0.543523 1.94654 0
M  V30 2520 C 236.587 -0.9155 1.72173 0
M  V30 2521 O 235.857 -1.64708 1.06058 0
M  V30 2522 H 234.437 0.198017 0.720277 0
M  V30 2523 H 237.099 1.16126 1.56527 0
M  V30 2524 H 236.195 0.736684 3.03281 0
M  V30 2525 N 236.496 -1.42363 0.676048 0
M  V30 2526 C 237.429 -2.28141 -0.0516916 0
M  V30 2527 C 238.407 -1.41135 -0.807439 0
M  V30 2528 O 239.591 -1.70573 -0.802305 0
M  V30 2529 C 236.718 -3.21007 -1.08039 0
M  V30 2530 C 235.764 -4.24426 -0.420076 0
M  V30 2531 S 236.597 -5.29134 0.823246 0
M  V30 2532 C 237.753 -6.25566 -0.204344 0
M  V30 2533 H 237.986 -2.89515 0.675884 0
M  V30 2534 H 235.519 -1.47211 0.465635 0
M  V30 2535 H 237.477 -3.75048 -1.66881 0
M  V30 2536 H 236.138 -2.58766 -1.78042 0
M  V30 2537 H 235.331 -4.89596 -1.19633 0
M  V30 2538 H 234.933 -3.7388 0.0947845 0
M  V30 2539 H 237.225 -6.69098 -1.06369 0
M  V30 2540 H 238.168 -7.06895 0.412915 0
M  V30 2541 H 238.576 -5.61811 -0.55038 0
M  V30 2542 N 237.974 -0.419461 -1.51915 0
M  V30 2543 C 239.39 -0.0708431 -1.59443 0
M  V30 2544 C 239.59 1.41796 -1.43164 0
M  V30 2545 O 238.646 2.18596 -1.26381 0
M  V30 2546 C 239.959 -0.574991 -2.95151 0
M  V30 2547 C 241.507 -0.533867 -3.08413 0
M  V30 2548 C 241.982 -1.01469 -4.46618 0
M  V30 2549 N 243.473 -0.971939 -4.52888 0
M  V30 2550 C 244.208 -1.31505 -5.58116 0
M  V30 2551 N 243.704 -1.73014 -6.70849 0
M  V30 2552 N 245.497 -1.23436 -5.48379 0
M  V30 2553 H 237.648 -1.38836 -1.60743 0
M  V30 2554 H 239.911 -0.570998 -0.756747 0
M  V30 2555 H 239.617 -1.61597 -3.12377 0
M  V30 2556 H 239.491 0.00979777 -3.77199 0
M  V30 2557 H 241.878 0.498086 -2.90866 0
M  V30 2558 H 241.959 -1.15484 -2.28248 0
M  V30 2559 H 241.603 -2.04502 -4.6491 0
M  V30 2560 H 241.533 -0.370433 -5.25295 0
M  V30 2561 H 244.024 -0.666893 -3.71969 0
M  V30 2562 H 244.337 -1.97479 -7.47143 0
M  V30 2563 H 242.682 -1.76926 -6.72103 0
M  V30 2564 H 245.873 -0.908869 -4.59192 0
M  V30 2565 H 246.046 -1.50506 -6.30279 0
M  V30 2566 N 239.452 1.56882 -0.150215 0
M  V30 2567 C 240.682 2.00302 0.506213 0
M  V30 2568 C 241.09 1.02934 1.58749 0
M  V30 2569 O 240.433 0.0188384 1.8369 0
M  V30 2570 C 240.495 3.40156 1.16337 0
M  V30 2571 C 240.159 4.56439 0.226311 0
M  V30 2572 C 241.156 5.17012 -0.547265 0
M  V30 2573 C 238.841 5.02136 0.128279 0
M  V30 2574 C 240.835 6.21693 -1.40629 0
M  V30 2575 C 238.522 6.06672 -0.734345 0
M  V30 2576 C 239.52 6.6632 -1.50023 0
M  V30 2577 O 239.208 7.68831 -2.34848 0
M  V30 2578 H 238.94 0.662182 0.135984 0
M  V30 2579 H 241.494 2.03961 -0.242746 0
M  V30 2580 H 239.724 3.33346 1.96004 0
M  V30 2581 H 241.413 3.67663 1.71985 0
M  V30 2582 H 242.179 4.82603 -0.48158 0
M  V30 2583 H 238.058 4.55435 0.714157 0
M  V30 2584 H 241.602 6.68179 -2.00455 0
M  V30 2585 H 237.499 6.40507 -0.801309 0
M  V30 2586 H 238.267 7.86065 -2.28131 0
M  V30 2587 N 240.93 -0.123565 1.57115 0
M  V30 2588 C 241.86 -1.15309 2.03042 0
M  V30 2589 C 242.841 -1.43454 0.914061 0
M  V30 2590 O 244.026 -1.53973 1.18347 0
M  V30 2591 C 241.156 -2.48043 2.43089 0
M  V30 2592 C 240.11 -2.3437 3.58127 0
M  V30 2593 C 239.436 -3.72026 3.84059 0
M  V30 2594 C 240.736 -1.80804 4.90007 0
M  V30 2595 H 242.43 -0.771102 2.893 0
M  V30 2596 H 239.976 -0.369479 1.39179 0
M  V30 2597 H 241.929 -3.20311 2.73823 0
M  V30 2598 H 240.653 -2.88122 1.53796 0
M  V30 2599 H 239.312 -1.64551 3.27595 0
M  V30 2600 H 238.96 -4.09582 2.91979 0
M  V30 2601 H 238.66 -3.63732 4.6149 0
M  V30 2602 H 240.184 -4.45806 4.1724 0
M  V30 2603 H 241.598 -2.42886 5.19307 0
M  V30 2604 H 239.995 -1.83343 5.71407 0
M  V30 2605 H 241.065 -0.76528 4.78823 0
M  V30 2606 N 242.408 -1.52605 -0.393616 0
M  V30 2607 C 243.636 -1.71294 -1.16043 0
M  V30 2608 C 244.051 -0.429259 -1.83855 0
M  V30 2609 O 243.408 0.595921 -1.72496 0
M  V30 2610 C 243.459 -2.8593 -2.21193 0
M  V30 2611 O 243.18 -4.09329 -1.56146 0
M  V30 2612 C 244.681 -3.16259 -3.10636 0
M  V30 2613 H 241.901 -0.573641 -0.348104 0
M  V30 2614 H 244.445 -1.99234 -0.461092 0
M  V30 2615 H 242.6 -2.60465 -2.86769 0
M  V30 2616 H 243.014 -4.73323 -2.25978 0
M  V30 2617 H 244.488 -3.99946 -3.80456 0
M  V30 2618 H 244.965 -2.3045 -3.73884 0
M  V30 2619 H 245.571 -3.43547 -2.50711 0
M  V30 2620 N 243.887 0.651787 -1.4349 0
M  V30 2621 C 244.817 1.77621 -1.51569 0
M  V30 2622 C 245.798 1.66022 -0.370253 0
M  V30 2623 O 246.983 1.85095 -0.587658 0
M  V30 2624 C 244.113 3.16056 -1.43966 0
M  V30 2625 C 243.067 3.4242 -2.56774 0
M  V30 2626 C 242.393 4.8067 -2.34223 0
M  V30 2627 C 243.693 3.37023 -3.99015 0
M  V30 2628 H 245.387 1.71117 -2.45681 0
M  V30 2629 H 242.933 0.821825 -1.18246 0
M  V30 2630 H 244.886 3.94472 -1.48221 0
M  V30 2631 H 243.61 3.23293 -0.463586 0
M  V30 2632 H 242.269 2.66375 -2.51873 0
M  V30 2633 H 241.917 4.84585 -1.34856 0
M  V30 2634 H 241.617 4.9927 -3.09844 0
M  V30 2635 H 243.141 5.61342 -2.40265 0
M  V30 2636 H 244.555 4.05374 -4.05395 0
M  V30 2637 H 242.952 3.67159 -4.74673 0
M  V30 2638 H 244.022 2.3518 -4.2405 0
M  V30 2639 N 245.365 1.30045 0.890287 0
M  V30 2640 C 246.593 1.21472 1.67487 0
M  V30 2641 C 247.008 -0.223241 1.87476 0
M  V30 2642 O 246.365 -1.14828 1.41847 0
M  V30 2643 C 246.416 1.93394 3.05419 0
M  V30 2644 O 246.137 3.31576 2.86337 0
M  V30 2645 C 247.638 1.91414 3.99844 0
M  V30 2646 H 244.858 0.420604 0.522813 0
M  V30 2647 H 247.402 1.7158 1.11268 0
M  V30 2648 H 245.557 1.47099 3.58386 0
M  V30 2649 H 245.971 3.67929 3.73802 0
M  V30 2650 H 247.445 2.46285 4.94012 0
M  V30 2651 H 247.922 0.891833 4.3005 0
M  V30 2652 H 248.528 2.37496 3.52811 0
M  V30 2653 N 246.843 -1.10192 1.12674 0
M  V30 2654 C 247.793 -2.14754 0.765801 0
M  V30 2655 C 248.777 -1.59154 -0.236409 0
M  V30 2656 O 249.969 -1.76951 -0.0415261 0
M  V30 2657 C 247.098 -3.42563 0.224827 0
M  V30 2658 C 246.184 -4.05091 1.25548 0
M  V30 2659 N 246.575 -4.42287 2.4539 0
M  V30 2660 C 244.873 -4.32186 1.10142 0
M  V30 2661 C 245.574 -4.91441 3.11224 0
M  V30 2662 N 244.55 -4.88405 2.38666 0
M  V30 2663 H 248.352 -2.41309 1.67772 0
M  V30 2664 H 245.866 -1.27339 1.00789 0
M  V30 2665 H 247.863 -4.16868 -0.0519578 0
M  V30 2666 H 246.523 -3.17467 -0.681515 0
M  V30 2667 H 247.534 -4.33902 2.82754 0
M  V30 2668 H 244.211 -4.16735 0.252587 0
M  V30 2669 H 245.601 -5.29749 4.13298 0
M  V30 2670 N 248.321 -0.919034 -1.28029 0
M  V30 2671 C 249.546 -0.570357 -1.99403 0
M  V30 2672 C 249.971 0.842486 -1.68178 0
M  V30 2673 O 249.329 1.56391 -0.917141 0
M  V30 2674 C 249.377 -0.792541 -3.51783 0
M  V30 2675 O 248.481 0.145988 -4.12142 0
M  V30 2676 H 247.822 -0.220555 -0.6263 0
M  V30 2677 H 250.352 -1.23592 -1.63053 0
M  V30 2678 H 250.362 -0.704708 -4.01868 0
M  V30 2679 H 249.037 -1.82247 -3.73844 0
M  V30 2680 H 247.614 0.00897528 -3.72899 0
M  V30 2681 N 249.799 1.42003 -0.683588 0
M  V30 2682 C 251.039 2.03282 -0.213513 0
M  V30 2683 C 251.403 1.52924 1.16097 0
M  V30 2684 O 252.604 2.06048 1.7262 0
M  V30 2685 C 250.875 3.56483 -0.255856 0
M  V30 2686 S 252.434 4.3857 0.14193 0
M  V30 2687 H 249.252 0.705659 -0.0869853 0
M  V30 2688 H 251.854 1.73619 -0.8987 0
M  V30 2689 H 250.558 3.90631 -1.25841 0
M  V30 2690 H 250.089 3.90831 0.448875 0
M  V30 2691 H 252.104 4.76828 1.37295 0
M  V30 2692 N 251.277 0.427512 1.51691 0
M  V30 2693 C 252.225 -0.403359 2.29076 0
M  V30 2694 C 253.219 -1.02962 1.34518 0
M  V30 2695 O 254.425 -0.965715 1.51901 0
M  V30 2696 H 250.8 -0.148879 0.737115 0
M  V30 2697 H 252.771 0.270295 2.97173 0
M  V30 2698 C 251.52 -1.49763 3.13794 0
M  V30 2699 H 250.843 -1.02508 3.86435 0
M  V30 2700 H 252.283 -2.05244 3.71014 0
M  V30 2701 C 250.742 -2.47536 2.28533 0
M  V30 2702 O 251.272 -3.51848 1.93819 0
M  V30 2703 N 249.478 -2.18187 1.91945 0
M  V30 2704 H 249.025 -1.33389 2.20375 0
M  V30 2705 H 248.983 -2.83848 1.35195 0
M  V30 2706 N 252.755 -1.56801 0.158532 0
M  V30 2707 C 253.983 -2.00859 -0.496303 0
M  V30 2708 C 254.398 -1.03871 -1.57659 0
M  V30 2709 O 253.755 -0.0375165 -1.82461 0
M  V30 2710 C 253.806 -3.4479 -1.08638 0
M  V30 2711 O 253.527 -4.38072 -0.0492322 0
M  V30 2712 C 255.028 -4.04185 -1.8207 0
M  V30 2713 H 252.248 -0.65864 -0.128199 0
M  V30 2714 H 254.792 -2.02885 0.256506 0
M  V30 2715 H 252.947 -3.43579 -1.78975 0
M  V30 2716 H 253.361 -5.2227 -0.483102 0
M  V30 2717 H 254.835 -5.06857 -2.18633 0
M  V30 2718 H 255.312 -3.45549 -2.71095 0
M  V30 2719 H 255.918 -4.0906 -1.16405 0
M  V30 2720 N 254.233 0.115231 -1.57178 0
M  V30 2721 C 255.644 0.67197 -1.74188 0
M  V30 2722 C 255.995 1.80125 -0.777777 0
M  V30 2723 O 255.12 2.16346 0.0484376 0
M  V30 2724 C 255.715 1.22573 -3.1585 0
M  V30 2725 C 254.274 1.72872 -3.34353 0
M  V30 2726 C 253.421 0.629972 -2.70049 0
M  V30 2727 H 256.372 -0.110712 -1.58313 0
M  V30 2728 H 256.393 2.09535 -3.17609 0
M  V30 2729 H 255.905 0.403598 -3.85996 0
M  V30 2730 H 254.006 2.5755 -2.69256 0
M  V30 2731 H 254.119 1.83557 -4.42542 0
M  V30 2732 H 252.483 1.0645 -2.31388 0
M  V30 2733 H 253.266 -0.181241 -3.42821 0
M  V30 2734 N 255.711 1.52812 0.385517 0
M  V30 2735 C 256.957 1.69225 1.12847 0
M  V30 2736 C 257.312 0.42864 1.87564 0
M  V30 2737 O 256.605 -0.57779 1.8268 0
M  V30 2738 C 256.799 2.86856 2.13187 0
M  V30 2739 C 256.628 4.24535 1.48325 0
M  V30 2740 C 255.398 4.89701 1.24585 0
M  V30 2741 C 257.596 5.05794 0.931501 0
M  V30 2742 N 255.578 6.11353 0.558644 0
M  V30 2743 C 256.949 6.1888 0.372552 0
M  V30 2744 C 259.004 4.90963 0.828248 0
M  V30 2745 C 257.707 7.18757 -0.279556 0
M  V30 2746 C 259.733 5.91095 0.189956 0
M  V30 2747 C 259.095 7.03489 -0.358207 0
M  V30 2748 H 255.194 0.67268 0.39878 0
M  V30 2749 H 257.778 1.9017 0.417528 0
M  V30 2750 H 255.949 2.67484 2.81614 0
M  V30 2751 H 257.681 2.92188 2.80014 0
M  V30 2752 H 254.436 4.48485 1.52178 0
M  V30 2753 H 254.86 6.76606 0.230983 0
M  V30 2754 H 259.502 4.04274 1.23784 0
M  V30 2755 H 257.22 8.05052 -0.701152 0
M  V30 2756 H 260.806 5.81694 0.111264 0
M  V30 2757 H 259.686 7.79642 -0.844314 0
M  V30 2758 N 257.189 -0.644168 1.43834 0
M  V30 2759 C 258.152 -1.73857 1.49353 0
M  V30 2760 C 259.152 -1.56315 0.377112 0
M  V30 2761 O 260.342 -1.62048 0.639226 0
M  V30 2762 C 257.474 -3.12819 1.35488 0
M  V30 2763 H 258.667 -1.70342 2.46827 0
M  V30 2764 H 256.22 -0.856652 1.30733 0
M  V30 2765 H 256.955 -3.2194 0.390569 0
M  V30 2766 H 256.74 -3.26958 2.16428 0
M  V30 2767 H 258.23 -3.92606 1.42302 0
M  V30 2768 N 258.668 -1.30515 -0.883378 0
M  V30 2769 C 259.945 -1.10086 -1.6168 0
M  V30 2770 C 260.325 0.349269 -2.08191 0
M  V30 2771 O 259.673 1.34105 -1.85008 0
M  V30 2772 C 259.883 -2.10315 -2.78511 0
M  V30 2773 C 261.231 -2.42119 -3.48803 0
M  V30 2774 O 262.255 -2.08638 -2.88702 0
M  V30 2775 O 261.114 -2.99396 -4.57192 0
M  V30 2776 H 258.208 -0.422907 -0.710689 0
M  V30 2777 H 260.754 -1.41947 -0.930015 0
M  V30 2778 H 259.526 -3.07917 -2.41459 0
M  V30 2779 H 259.149 -1.79282 -3.54886 0
M  V30 2780 N 260.146 1.09593 -1.13257 0
M  V30 2781 C 261.094 2.18271 -0.803783 0
M  V30 2782 C 262.088 1.68054 0.213148 0
M  V30 2783 O 263.294 1.79862 0.0704699 0
M  V30 2784 H 259.669 0.711949 -0.242143 0
M  V30 2785 H 261.64 2.43235 -1.72856 0
M  V30 2786 C 260.389 3.46536 -0.28424 0
M  V30 2787 H 259.712 3.85545 -1.05807 0
M  V30 2788 H 261.152 4.23899 -0.0925945 0
M  V30 2789 C 259.611 3.22036 0.989684 0
M  V30 2790 O 260.141 3.44509 2.06584 0
M  V30 2791 N 258.347 2.7565 0.920086 0
M  V30 2792 H 257.894 2.57562 0.0442019 0
M  V30 2793 H 257.852 2.59635 1.77306 0
M  V30 2794 N 261.624 0.925811 1.2754 0
M  V30 2795 C 262.87 0.575575 1.95086 0
M  V30 2796 C 263.225 -0.873246 1.71441 0
M  V30 2797 O 262.518 -1.61443 1.03183 0
M  V30 2798 C 262.712 0.835296 3.47502 0
M  V30 2799 C 262.541 2.30781 3.85967 0
M  V30 2800 C 261.311 2.96017 4.09514 0
M  V30 2801 C 263.509 3.28519 3.95702 0
M  V30 2802 N 261.491 4.3344 4.34744 0
M  V30 2803 C 262.862 4.51146 4.25285 0
M  V30 2804 C 264.917 3.23753 3.7827 0
M  V30 2805 C 263.62 5.69606 4.39251 0
M  V30 2806 C 265.646 4.41523 3.9346 0
M  V30 2807 C 265.008 5.62928 4.23428 0
M  V30 2808 H 261.107 0.260711 0.737261 0
M  V30 2809 H 263.691 1.19204 1.53943 0
M  V30 2810 H 261.862 0.248005 3.87607 0
M  V30 2811 H 263.594 0.447878 4.02214 0
M  V30 2812 H 260.349 2.46695 4.04275 0
M  V30 2813 H 260.773 5.04528 4.5142 0
M  V30 2814 H 265.415 2.3096 3.54143 0
M  V30 2815 H 263.133 6.62866 4.62205 0
M  V30 2816 H 266.719 4.39351 3.81394 0
M  V30 2817 H 265.599 6.52538 4.34929 0
M  V30 2818 N 263.102 -1.41638 0.69111 0
M  V30 2819 C 264.032 -2.3347 0.037248 0
M  V30 2820 C 265.013 -1.51575 -0.771947 0
M  V30 2821 O 266.198 -1.80126 -0.72582 0
M  V30 2822 C 263.328 -3.35354 -0.903064 0
M  V30 2823 C 262.282 -4.27526 -0.201288 0
M  V30 2824 C 261.608 -5.19747 -1.25565 0
M  V30 2825 C 262.908 -5.13959 0.929689 0
M  V30 2826 H 264.602 -2.88397 0.804227 0
M  V30 2827 H 262.148 -1.38669 0.388189 0
M  V30 2828 H 264.101 -3.98519 -1.36969 0
M  V30 2829 H 262.825 -2.78767 -1.70166 0
M  V30 2830 H 261.484 -3.65779 0.245265 0
M  V30 2831 H 261.132 -4.59479 -2.04666 0
M  V30 2832 H 260.832 -5.8225 -0.791128 0
M  V30 2833 H 262.356 -5.85789 -1.72288 0
M  V30 2834 H 263.77 -5.70718 0.543546 0
M  V30 2835 H 262.167 -5.85379 1.32103 0
M  V30 2836 H 263.237 -4.51389 1.77133 0
M  V30 2837 N 264.58 -0.43555 -1.51462 0
M  V30 2838 C 265.826 0.131709 -2.02372 0
M  V30 2839 C 266.159 1.42516 -1.3192 0
M  V30 2840 O 265.434 1.89606 -0.433573 0
M  V30 2841 C 265.717 0.352301 -3.58373 0
M  V30 2842 C 265.57 -0.959676 -4.39443 0
M  V30 2843 C 266.889 1.12286 -4.25535 0
M  V30 2844 H 264.008 0.0463936 -0.735538 0
M  V30 2845 H 266.65 -0.574197 -1.81116 0
M  V30 2846 H 264.8 0.9536 -3.76615 0
M  V30 2847 H 266.472 -1.59482 -4.32855 0
M  V30 2848 H 264.715 -1.56468 -4.04599 0
M  V30 2849 H 265.386 -0.759394 -5.46752 0
M  V30 2850 H 267.862 0.613545 -4.11552 0
M  V30 2851 H 266.738 1.24598 -5.34571 0
M  V30 2852 H 266.999 2.15048 -3.86273 0
M  V30 2853 N 266.058 1.56714 -0.166846 0
M  V30 2854 C 267.335 1.88412 0.525373 0
M  V30 2855 C 267.715 1.07602 1.81618 0
M  V30 2856 O 267.063 0.168621 2.27877 0
M  V30 2857 C 267.273 3.40363 0.771613 0
M  V30 2858 C 268.621 4.10007 1.1036 0
M  V30 2859 O 269.645 3.45655 0.860304 0
M  V30 2860 O 268.504 5.2369 1.56239 0
M  V30 2861 H 265.598 0.781587 0.270278 0
M  V30 2862 H 268.144 1.68458 -0.204946 0
M  V30 2863 H 266.916 3.91046 -0.141093 0
M  V30 2864 H 266.539 3.65914 1.55541 0
M  V30 2865 N 267.536 -0.106894 1.57237 0
M  V30 2866 C 268.764 -0.826389 1.8968 0
M  V30 2867 C 269.179 -1.72856 0.759353 0
M  V30 2868 O 268.536 -1.80503 -0.269263 0
M  V30 2869 C 268.587 -1.64967 3.21665 0
M  V30 2870 O 268.308 -0.783804 4.31031 0
M  V30 2871 C 269.809 -2.47326 3.67892 0
M  V30 2872 H 267.029 -0.236927 0.627779 0
M  V30 2873 H 269.573 -0.0876593 2.04312 0
M  V30 2874 H 267.728 -2.34103 3.08666 0
M  V30 2875 H 268.142 -1.35284 5.06753 0
M  V30 2876 H 269.616 -3.00604 4.6297 0
M  V30 2877 H 270.093 -3.25247 2.95146 0
M  V30 2878 H 270.699 -1.83411 3.83719 0
M  V30 2879 N 269.014 -1.53014 -0.377408 0
M  V30 2880 C 270.262 -1.6829 -1.11906 0
M  V30 2881 C 270.583 -0.431206 -1.90173 0
M  V30 2882 O 269.853 0.554595 -1.87886 0
M  V30 2883 H 268.433 -0.620371 -0.416112 0
M  V30 2884 H 271.095 -1.90167 -0.426893 0
M  V30 2885 H 270.191 -2.53862 -1.8155 0
M  V30 2886 N 270.492 0.636531 -1.44174 0
M  V30 2887 C 271.769 1.39463 -1.37148 0
M  V30 2888 C 272.149 2.11082 -0.027507 0
M  V30 2889 O 271.497 2.05954 0.989716 0
M  V30 2890 C 271.707 2.36552 -2.56601 0
M  V30 2891 C 273.055 3.00048 -3.00427 0
M  V30 2892 O 274.079 2.46878 -2.56767 0
M  V30 2893 O 272.938 3.96488 -3.76111 0
M  V30 2894 H 270.032 0.623903 -0.542839 0
M  V30 2895 H 272.578 0.662039 -1.56253 0
M  V30 2896 H 271.35 1.82692 -3.46034 0
M  V30 2897 H 270.973 3.17236 -2.39681 0
M  V30 2898 N 271.97 1.30982 0.876444 0
M  V30 2899 C 273.195 1.23373 1.66715 0
M  V30 2900 C 273.62 -0.19885 1.87046 0
M  V30 2901 O 272.978 -1.1427 1.40756 0
M  V30 2902 C 273.026 1.97644 3.01611 0
M  V30 2903 O 272.13 1.30935 3.91062 0
M  V30 2904 H 271.471 0.426279 0.509099 0
M  V30 2905 H 274.001 1.72944 1.09323 0
M  V30 2906 H 274.011 2.06992 3.51594 0
M  V30 2907 H 272.686 3.01829 2.86133 0
M  V30 2908 H 271.263 1.29996 3.49507 0
M  V30 2909 N 273.449 -1.08991 1.13837 0
M  V30 2910 C 274.359 -2.19301 0.833333 0
M  V30 2911 C 275.375 -1.73026 -0.183847 0
M  V30 2912 O 276.551 -2.01395 -0.0138092 0
M  V30 2913 C 273.616 -3.45323 0.308651 0
M  V30 2914 C 272.677 -4.06255 1.38764 0
M  V30 2915 C 271.91 -5.26262 0.887896 0
M  V30 2916 O 272.133 -5.69747 -0.27287 0
M  V30 2917 O 271.067 -5.78435 1.66421 0
M  V30 2918 H 274.893 -2.47854 1.75506 0
M  V30 2919 H 272.478 -1.18012 0.916166 0
M  V30 2920 H 274.36 -4.21394 0.0216739 0
M  V30 2921 H 273.035 -3.18362 -0.585431 0
M  V30 2922 H 271.942 -3.318 1.72799 0
M  V30 2923 H 273.275 -4.37452 2.25602 0
M  V30 2924 N 274.927 -0.932562 -1.27047 0
M  V30 2925 C 276.338 -0.619451 -1.76124 0
M  V30 2926 C 276.689 0.865397 -1.76083 0
M  V30 2927 O 275.814 1.67722 -1.36742 0
M  V30 2928 C 276.409 -1.11771 -3.19832 0
M  V30 2929 C 274.968 -0.855174 -3.66557 0
M  V30 2930 C 274.115 -1.27362 -2.46321 0
M  V30 2931 H 277.066 -1.11181 -1.13245 0
M  V30 2932 H 277.087 -0.46759 -3.77616 0
M  V30 2933 H 276.599 -2.19842 -3.1983 0
M  V30 2934 H 274.7 0.211524 -3.71999 0
M  V30 2935 H 274.813 -1.47613 -4.55793 0
M  V30 2936 H 273.177 -0.692119 -2.45116 0
M  V30 2937 H 273.96 -2.36307 -2.49025 0
M  V30 2938 N 276.405 1.4127 -0.698611 0
M  V30 2939 C 277.337 2.292 0.00399731 0
M  V30 2940 C 278.35 1.44944 0.741279 0
M  V30 2941 O 279.539 1.68416 0.591477 0
M  V30 2942 C 276.639 3.22875 1.02979 0
M  V30 2943 C 275.812 4.35904 0.36151 0
M  V30 2944 C 274.871 5.10134 1.29033 0
M  V30 2945 O 273.897 5.63809 0.781562 0
M  V30 2946 N 275.099 5.17885 2.6225 0
M  V30 2947 H 277.864 2.9014 -0.750921 0
M  V30 2948 H 275.425 1.52455 -0.544882 0
M  V30 2949 H 277.417 3.69404 1.65296 0
M  V30 2950 H 275.987 2.63221 1.68622 0
M  V30 2951 H 275.207 3.91719 -0.441584 0
M  V30 2952 H 276.495 5.08696 -0.103055 0
M  V30 2953 H 275.893 4.7573 3.061 0
M  V30 2954 H 274.45 5.6798 3.19754 0
M  V30 2955 N 277.883 0.443576 1.51229 0
M  V30 2956 C 279.108 -0.121648 2.07043 0
M  V30 2957 C 279.533 -1.35156 1.30823 0
M  V30 2958 O 278.891 -1.7793 0.347934 0
M  V30 2959 C 278.939 -0.41624 3.5819 0
M  V30 2960 O 278.043 -1.50163 3.8409 0
M  V30 2961 H 277.384 0.000871367 0.663999 0
M  V30 2962 H 279.914 0.626706 1.94765 0
M  V30 2963 H 279.924 -0.664867 4.02546 0
M  V30 2964 H 278.599 0.482653 4.1309 0
M  V30 2965 H 277.176 -1.24248 3.51592 0
M  V30 2966 N 279.361 -1.56624 0.175154 0
M  V30 2967 C 280.293 -2.15333 -0.785128 0
M  V30 2968 C 281.306 -1.1099 -1.19101 0
M  V30 2969 O 282.495 -1.38162 -1.13019 0
M  V30 2970 C 279.595 -2.68427 -2.06882 0
M  V30 2971 C 278.768 -3.97466 -1.8259 0
M  V30 2972 C 277.827 -4.35585 -2.95215 0
M  V30 2973 O 276.853 -5.03389 -2.65684 0
M  V30 2974 N 278.055 -3.97457 -4.23094 0
M  V30 2975 H 280.82 -2.98359 -0.283187 0
M  V30 2976 H 278.381 -1.61898 -0.00749817 0
M  V30 2977 H 280.373 -2.90924 -2.81328 0
M  V30 2978 H 278.943 -1.89968 -2.48256 0
M  V30 2979 H 278.163 -3.83307 -0.920287 0
M  V30 2980 H 279.451 -4.81736 -1.63733 0
M  V30 2981 H 278.849 -3.42878 -4.49945 0
M  V30 2982 H 277.406 -4.24947 -4.9423 0
M  V30 2983 N 280.839 0.0985539 -1.57292 0
M  V30 2984 C 282.087 0.801092 -1.85545 0
M  V30 2985 C 282.408 1.79438 -0.763353 0
M  V30 2986 O 281.678 1.94763 0.21073 0
M  V30 2987 H 280.258 0.29884 -0.684619 0
M  V30 2988 H 282.92 0.0810064 -1.94732 0
M  V30 2989 H 282.016 1.3338 -2.82163 0
M  V30 2990 N 282.317 1.53212 0.369288 0
M  V30 2991 C 283.247 1.82365 1.45826 0
M  V30 2992 C 284.228 0.676907 1.56051 0
M  V30 2993 O 285.413 0.926401 1.70679 0
M  V30 2994 C 282.543 2.01023 2.83208 0
M  V30 2995 C 281.497 3.1678 2.8781 0
M  V30 2996 C 280.823 3.20724 4.27832 0
M  V30 2997 C 282.123 4.55447 2.55667 0
M  V30 2998 H 283.817 2.73559 1.21678 0
M  V30 2999 H 281.363 1.3163 0.583911 0
M  V30 3000 H 283.316 2.20001 3.59413 0
M  V30 3001 H 282.04 1.06536 3.08736 0
M  V30 3002 H 280.699 2.97616 2.14056 0
M  V30 3003 H 280.347 2.23882 4.50429 0
M  V30 3004 H 280.047 3.98496 4.31827 0
M  V30 3005 H 281.571 3.41881 5.05915 0
M  V30 3006 H 282.985 4.74611 3.21586 0
M  V30 3007 H 281.382 5.35432 2.70984 0
M  V30 3008 H 282.452 4.60812 1.5093 0
M  V30 3009 N 283.795 -0.628877 1.44509 0
M  V30 3010 C 285.02 -1.42048 1.5112 0
M  V30 3011 C 285.445 -1.87594 0.137818 0
M  V30 3012 O 284.803 -1.58873 -0.873437 0
M  V30 3013 C 284.851 -2.61541 2.48251 0
M  V30 3014 O 283.955 -3.61453 1.98559 0
M  V30 3015 H 283.296 -0.424942 0.510216 0
M  V30 3016 H 285.826 -0.767374 1.89664 0
M  V30 3017 H 285.836 -3.09057 2.66361 0
M  V30 3018 H 284.511 -2.27736 3.48007 0
M  V30 3019 H 283.088 -3.20731 1.90227 0
M  V30 3020 N 285.273 -1.31445 -0.869486 0
M  V30 3021 C 286.684 -1.19042 -1.43826 0
M  V30 3022 C 287.035 0.202919 -1.95148 0
M  V30 3023 O 286.16 1.10071 -1.86315 0
M  V30 3024 C 286.755 -2.15499 -2.6143 0
M  V30 3025 C 285.314 -2.07028 -3.14351 0
M  V30 3026 C 284.461 -2.04701 -1.87063 0
M  V30 3027 H 287.412 -1.43489 -0.677984 0
M  V30 3028 H 287.433 -1.74488 -3.38134 0
M  V30 3029 H 286.945 -3.16899 -2.24046 0
M  V30 3030 H 285.046 -1.08825 -3.56354 0
M  V30 3031 H 285.159 -2.96157 -3.766 0
M  V30 3032 H 283.523 -1.49724 -2.06046 0
M  V30 3033 H 284.306 -3.07857 -1.51917 0
M  V30 3034 N 286.751 1.08385 -1.14413 0
M  V30 3035 C 287.998 1.80776 -0.912482 0
M  V30 3036 C 288.326 1.86236 0.560934 0
M  V30 3037 O 287.581 1.33431 1.43159 0
M  V30 3038 C 287.88 3.26273 -1.45879 0
M  V30 3039 C 287.546 3.4093 -2.95089 0
M  V30 3040 C 286.208 3.44638 -3.35824 0
M  V30 3041 C 288.56 3.44591 -3.91033 0
M  V30 3042 C 285.888 3.49597 -4.71167 0
M  V30 3043 C 288.24 3.51086 -5.26233 0
M  V30 3044 C 286.904 3.53067 -5.6648 0
M  V30 3045 H 286.174 0.661507 -0.333901 0
M  V30 3046 H 288.821 1.27613 -1.42784 0
M  V30 3047 H 287.126 3.82146 -0.864376 0
M  V30 3048 H 288.823 3.80839 -1.2555 0
M  V30 3049 H 285.413 3.38736 -2.62594 0
M  V30 3050 H 289.597 3.40957 -3.60641 0
M  V30 3051 H 284.853 3.49424 -5.0171 0
M  V30 3052 H 289.027 3.52864 -6.00383 0
M  V30 3053 H 286.654 3.56662 -6.71339 0
M  V30 3054 N 288.23 0.939286 1.26551 0
M  V30 3055 C 289.478 0.58469 1.93457 0
M  V30 3056 C 289.799 -0.878774 1.74076 0
M  V30 3057 O 289.069 -1.62421 1.09528 0
M  V30 3058 H 287.649 0.21325 0.715914 0
M  V30 3059 H 290.311 1.1942 1.54029 0
M  V30 3060 H 289.407 0.800849 3.0165 0
M  V30 3061 N 289.708 -1.40897 0.706093 0
M  V30 3062 C 290.64 -2.29199 0.00815776 0
M  V30 3063 C 291.653 -1.45336 -0.733582 0
M  V30 3064 O 292.842 -1.68727 -0.582537 0
M  V30 3065 C 289.942 -3.23417 -1.01265 0
M  V30 3066 C 289.115 -4.36089 -0.338387 0
M  V30 3067 C 288.174 -5.10811 -1.26326 0
M  V30 3068 O 287.2 -5.64215 -0.751651 0
M  V30 3069 N 288.402 -5.19269 -2.595 0
M  V30 3070 H 291.167 -2.89738 0.766297 0
M  V30 3071 H 288.728 -1.52164 0.55296 0
M  V30 3072 H 290.72 -3.70276 -1.63334 0
M  V30 3073 H 289.29 -2.64112 -1.67223 0
M  V30 3074 H 288.51 -3.91479 0.462352 0
M  V30 3075 H 289.798 -5.08634 0.130031 0
M  V30 3076 H 289.196 -4.77347 -3.03573 0
M  V30 3077 H 287.753 -5.69667 -3.16737 0
M  V30 3078 N 291.186 -0.45159 -1.50991 0
M  V30 3079 C 292.602 -0.104647 -1.59257 0
M  V30 3080 C 292.802 1.38728 -1.4614 0
M  V30 3081 O 291.858 2.15866 -1.30989 0
M  V30 3082 C 293.171 -0.637468 -2.93865 0
M  V30 3083 C 294.719 -0.599166 -3.07212 0
M  V30 3084 C 295.194 -1.1092 -4.44366 0
M  V30 3085 N 296.685 -1.06778 -4.50725 0
M  V30 3086 C 297.42 -1.43314 -5.55201 0
M  V30 3087 N 296.916 -1.87204 -6.67028 0
M  V30 3088 N 298.709 -1.3504 -5.45638 0
M  V30 3089 H 290.86 -1.42214 -1.57762 0
M  V30 3090 H 293.123 -0.586921 -0.744465 0
M  V30 3091 H 292.829 -1.68187 -3.08879 0
M  V30 3092 H 292.703 -0.0702139 -3.77135 0
M  V30 3093 H 295.09 0.436277 -2.91857 0
M  V30 3094 H 295.171 -1.20299 -2.25747 0
M  V30 3095 H 294.815 -2.14318 -4.60467 0
M  V30 3096 H 294.745 -0.481773 -5.24392 0
M  V30 3097 H 297.236 -0.745643 -3.70471 0
M  V30 3098 H 297.549 -2.13282 -7.42786 0
M  V30 3099 H 295.894 -1.91142 -6.68199 0
M  V30 3100 H 299.085 -1.00607 -4.57161 0
M  V30 3101 H 299.258 -1.63841 -6.26945 0
M  V30 3102 N 292.664 1.56529 -0.183458 0
M  V30 3103 C 293.91 1.97537 0.459036 0
M  V30 3104 C 294.243 1.06989 1.62071 0
M  V30 3105 O 293.518 0.11948 1.94133 0
M  V30 3106 C 293.801 3.47874 0.930368 0
M  V30 3107 C 293.654 4.492 -0.232317 0
M  V30 3108 C 294.973 4.01612 1.79989 0
M  V30 3109 H 292.092 0.718204 0.165383 0
M  V30 3110 H 294.734 1.88042 -0.272038 0
M  V30 3111 H 292.884 3.56095 1.55333 0
M  V30 3112 H 294.556 4.53027 -0.86972 0
M  V30 3113 H 292.799 4.24657 -0.885928 0
M  V30 3114 H 293.47 5.51823 0.139796 0
M  V30 3115 H 295.946 3.96097 1.27461 0
M  V30 3116 H 294.822 5.07195 2.09867 0
M  V30 3117 H 295.083 3.46163 2.74998 0
M  V30 3118 N 294.142 -0.090211 1.57342 0
M  V30 3119 C 295.388 -0.793982 1.86611 0
M  V30 3120 C 295.721 -1.78142 0.773252 0
M  V30 3121 O 294.996 -1.93271 -0.218304 0
M  V30 3122 C 295.279 -1.51839 3.26523 0
M  V30 3123 C 295.132 -0.548609 4.46442 0
M  V30 3124 C 296.451 -2.46779 3.64401 0
M  V30 3125 H 293.57 -0.287186 0.678744 0
M  V30 3126 H 296.212 -0.0575076 1.89913 0
M  V30 3127 H 294.362 -2.14617 3.23839 0
M  V30 3128 H 296.034 0.0725513 4.61243 0
M  V30 3129 H 294.277 0.137614 4.33582 0
M  V30 3130 H 294.948 -1.09271 5.41076 0
M  V30 3131 H 297.424 -1.94089 3.68061 0
M  V30 3132 H 296.3 -2.94479 4.63221 0
M  V30 3133 H 296.561 -3.30758 2.93346 0
M  V30 3134 N 295.62 -1.53406 -0.361157 0
M  V30 3135 C 296.567 -1.80156 -1.44265 0
M  V30 3136 C 297.537 -0.646183 -1.53015 0
M  V30 3137 O 298.722 -0.888818 -1.68833 0
M  V30 3138 C 295.862 -2.00116 -2.81154 0
M  V30 3139 C 294.975 -3.27833 -2.81335 0
M  V30 3140 C 294.11 -3.37957 -4.09828 0
M  V30 3141 C 293.149 -4.59689 -4.04168 0
M  V30 3142 N 292.286 -4.66942 -5.24318 0
M  V30 3143 H 297.126 -2.72438 -1.20754 0
M  V30 3144 H 294.663 -1.34954 -0.585296 0
M  V30 3145 H 296.621 -2.09677 -3.60682 0
M  V30 3146 H 295.251 -1.11167 -3.03054 0
M  V30 3147 H 294.303 -3.27204 -1.94014 0
M  V30 3148 H 295.615 -4.17442 -2.73027 0
M  V30 3149 H 294.769 -3.46853 -4.97773 0
M  V30 3150 H 293.508 -2.46372 -4.20894 0
M  V30 3151 H 292.513 -4.50889 -3.14609 0
M  V30 3152 H 293.738 -5.5262 -3.947 0
M  V30 3153 H 291.684 -3.7826 -5.35962 0
M  V30 3154 H 291.601 -5.50462 -5.18197 0
M  V30 3155 H 292.869 -4.80127 -6.14084 0
M  V30 3156 N 297.098 0.621204 -1.44841 0
M  V30 3157 C 298.008 1.7612 -1.5498 0
M  V30 3158 C 299.024 1.68477 -0.434927 0
M  V30 3159 O 300.2 1.89076 -0.693693 0
M  V30 3160 C 297.265 3.1254 -1.50065 0
M  V30 3161 C 296.326 3.31741 -2.72482 0
M  V30 3162 C 295.559 4.61653 -2.67792 0
M  V30 3163 O 295.782 5.431 -1.74352 0
M  V30 3164 O 294.716 4.83271 -3.58794 0
M  V30 3165 H 298.542 1.70518 -2.51311 0
M  V30 3166 H 296.127 0.783643 -1.27198 0
M  V30 3167 H 298.009 3.93844 -1.49882 0
M  V30 3168 H 296.684 3.18663 -0.568806 0
M  V30 3169 H 295.591 2.50077 -2.7823 0
M  V30 3170 H 296.924 3.30486 -3.64746 0
M  V30 3171 N 298.576 1.31904 0.862503 0
M  V30 3172 C 299.506 1.22782 1.98612 0
M  V30 3173 C 300.487 0.113362 1.69722 0
M  V30 3174 O 301.672 0.299218 1.91881 0
M  V30 3175 C 298.802 0.942058 3.34279 0
M  V30 3176 C 297.756 2.0169 3.77499 0
M  V30 3177 C 297.082 1.58369 5.10709 0
M  V30 3178 C 298.382 3.43096 3.93805 0
M  V30 3179 H 300.076 2.16788 2.06502 0
M  V30 3180 H 297.622 1.04366 0.992154 0
M  V30 3181 H 299.575 0.864818 4.1243 0
M  V30 3182 H 298.299 -0.0336603 3.26583 0
M  V30 3183 H 296.958 2.08416 3.01593 0
M  V30 3184 H 296.606 0.595628 4.99461 0
M  V30 3185 H 296.306 2.30279 5.40597 0
M  V30 3186 H 297.83 1.52067 5.91361 0
M  V30 3187 H 299.244 3.39003 4.62331 0
M  V30 3188 H 297.641 4.13288 4.35101 0
M  V30 3189 H 298.711 3.83334 2.96957 0
M  V30 3190 N 300.054 -1.07777 1.14986 0
M  V30 3191 C 301.002 -2.16964 0.838406 0
M  V30 3192 C 301.996 -1.68372 -0.186386 0
M  V30 3193 O 303.202 -1.79951 -0.0418465 0
M  V30 3194 H 299.577 -0.708006 0.253439 0
M  V30 3195 H 301.548 -2.40454 1.76704 0
M  V30 3196 C 300.297 -3.4604 0.339335 0
M  V30 3197 H 299.62 -3.83813 1.11927 0
M  V30 3198 H 301.06 -4.23698 0.160021 0
M  V30 3199 C 299.519 -3.23569 -0.938325 0
M  V30 3200 O 300.049 -3.47752 -2.01077 0
M  V30 3201 N 298.255 -2.77079 -0.876117 0
M  V30 3202 H 297.802 -2.576 -0.00322037 0
M  V30 3203 H 297.76 -2.62422 -1.73153 0
M  V30 3204 N 301.532 -0.945985 -1.26051 0
M  V30 3205 C 302.948 -0.649045 -1.45807 0
M  V30 3206 C 303.148 0.796158 -1.85104 0
M  V30 3207 O 302.204 1.57233 -1.97571 0
M  V30 3208 C 303.517 -1.61458 -2.53677 0
M  V30 3209 C 305.065 -1.62481 -2.67524 0
M  V30 3210 C 305.54 -2.57776 -3.7857 0
M  V30 3211 N 307.031 -2.5609 -3.85969 0
M  V30 3212 C 307.766 -3.26508 -4.7136 0
M  V30 3213 N 307.262 -4.0637 -5.61102 0
M  V30 3214 N 309.055 -3.15437 -4.65248 0
M  V30 3215 H 301.206 -1.88005 -0.988328 0
M  V30 3216 H 303.469 -0.808198 -0.4955 0
M  V30 3217 H 303.175 -2.64644 -2.31638 0
M  V30 3218 H 303.049 -1.37036 -3.51427 0
M  V30 3219 H 305.436 -0.600167 -2.88933 0
M  V30 3220 H 305.517 -1.90958 -1.70202 0
M  V30 3221 H 305.161 -3.60361 -3.57913 0
M  V30 3222 H 305.091 -2.26587 -4.75359 0
M  V30 3223 H 307.582 -1.98105 -3.21812 0
M  V30 3224 H 307.895 -4.57042 -6.23164 0
M  V30 3225 H 306.24 -4.10469 -5.60839 0
M  V30 3226 H 309.431 -2.52525 -3.94143 0
M  V30 3227 H 309.604 -3.70584 -5.31575 0
M  V30 3228 N 303.011 1.40521 -0.713556 0
M  V30 3229 C 303.941 2.33381 -0.0743864 0
M  V30 3230 C 304.922 1.52784 0.747735 0
M  V30 3231 O 306.107 1.81258 0.697071 0
M  V30 3232 C 303.237 3.36748 0.849598 0
M  V30 3233 C 302.191 4.27793 0.133247 0
M  V30 3234 C 301.517 5.21679 1.17281 0
M  V30 3235 C 302.817 5.12415 -1.01134 0
M  V30 3236 H 304.511 2.87081 -0.850007 0
M  V30 3237 H 302.057 1.38034 -0.410201 0
M  V30 3238 H 304.01 4.00648 1.30612 0
M  V30 3239 H 302.734 2.81439 1.65709 0
M  V30 3240 H 301.393 3.65342 -0.303426 0
M  V30 3241 H 301.041 4.62677 1.9733 0
M  V30 3242 H 300.741 5.83435 0.698397 0
M  V30 3243 H 302.265 5.88456 1.62947 0
M  V30 3244 H 303.679 5.69781 -0.634274 0
M  V30 3245 H 302.076 5.83203 -1.41399 0
M  V30 3246 H 303.146 4.48514 -1.84292 0
M  V30 3247 N 304.489 0.459591 1.5075 0
M  V30 3248 C 305.737 -0.0991532 2.01857 0
M  V30 3249 C 306.058 -1.41247 1.34441 0
M  V30 3250 O 305.328 -1.89775 0.486022 0
M  V30 3251 H 303.908 -0.039633 0.745948 0
M  V30 3252 H 306.57 0.607387 1.85194 0
M  V30 3253 H 305.666 -0.258998 3.11023 0
M  V30 3254 N 305.967 -1.56429 0.191757 0
M  V30 3255 C 307.213 -1.97777 -0.448554 0
M  V30 3256 C 307.546 -1.07847 -1.61501 0
M  V30 3257 O 306.821 -0.129774 -1.94067 0
M  V30 3258 C 307.104 -3.48362 -0.911906 0
M  V30 3259 C 306.957 -4.4907 0.256136 0
M  V30 3260 C 308.276 -4.02561 -1.77857 0
M  V30 3261 H 305.395 -0.719071 -0.161572 0
M  V30 3262 H 308.037 -1.87896 0.282007 0
M  V30 3263 H 306.187 -3.56914 -1.53442 0
M  V30 3264 H 307.859 -4.5256 0.893733 0
M  V30 3265 H 306.102 -4.24181 0.908436 0
M  V30 3266 H 306.773 -5.51889 -0.11053 0
M  V30 3267 H 309.249 -3.96767 -1.25359 0
M  V30 3268 H 308.125 -5.08301 -2.07174 0
M  V30 3269 H 308.386 -3.47616 -2.73158 0
M  V30 3270 N 307.445 0.0818655 -1.57387 0
M  V30 3271 C 308.375 1.09885 -2.06028 0
M  V30 3272 C 309.356 1.4098 -0.951774 0
M  V30 3273 O 310.541 1.50781 -1.22387 0
M  V30 3274 C 307.671 2.4151 -2.4958 0
M  V30 3275 C 306.625 2.24792 -3.64215 0
M  V30 3276 C 305.951 3.61712 -3.93787 0
M  V30 3277 C 307.251 1.67749 -4.94629 0
M  V30 3278 H 308.945 0.694128 -2.91243 0
M  V30 3279 H 306.491 0.332448 -1.4011 0
M  V30 3280 H 308.444 3.12939 -2.82219 0
M  V30 3281 H 307.168 2.83943 -1.61381 0
M  V30 3282 H 305.827 1.55807 -3.31843 0
M  V30 3283 H 305.475 4.01697 -3.02735 0
M  V30 3284 H 305.175 3.51368 -4.70971 0
M  V30 3285 H 306.699 4.34587 -4.28913 0
M  V30 3286 H 308.113 2.29032 -5.25564 0
M  V30 3287 H 306.51 1.68128 -5.76067 0
M  V30 3288 H 307.58 0.638059 -4.80684 0
M  V30 3289 N 308.923 1.53595 0.353017 0
M  V30 3290 C 310.172 1.69603 1.09168 0
M  V30 3291 C 310.485 0.460925 1.90092 0
M  V30 3292 O 311.691 0.501774 2.66823 0
M  V30 3293 C 310.147 2.99872 1.9901 0
M  V30 3294 C 309.755 4.30687 1.23339 0
M  V30 3295 C 311.499 3.25246 2.72792 0
M  V30 3296 C 309.406 5.52036 2.12156 0
M  V30 3297 H 308.336 0.631966 0.411261 0
M  V30 3298 H 310.987 1.80096 0.351802 0
M  V30 3299 H 309.369 2.83212 2.7678 0
M  V30 3300 H 310.543 4.58019 0.505456 0
M  V30 3301 H 308.858 4.11853 0.613663 0
M  V30 3302 H 311.455 4.13095 3.39495 0
M  V30 3303 H 311.798 2.41846 3.38846 0
M  V30 3304 H 312.331 3.42638 2.021 0
M  V30 3305 H 309.07 6.37951 1.50659 0
M  V30 3306 H 308.59 5.28966 2.82764 0
M  V30 3307 H 310.269 5.87313 2.71427 0
M  V30 3308 N 310.401 -0.613514 1.45168 0
M  V30 3309 C 311.678 -1.37263 1.39349 0
M  V30 3310 C 312.058 -2.11012 0.0610848 0
M  V30 3311 O 311.406 -2.07502 -0.956825 0
M  V30 3312 C 311.616 -2.3244 2.60332 0
M  V30 3313 C 312.964 -2.9523 3.05163 0
M  V30 3314 O 313.988 -2.42762 2.60663 0
M  V30 3315 O 312.847 -3.90454 3.82372 0
M  V30 3316 H 309.941 -0.615188 0.552696 0
M  V30 3317 H 312.487 -0.637097 1.57287 0
M  V30 3318 H 311.259 -1.77164 3.48896 0
M  V30 3319 H 310.882 -3.13383 2.44698 0
M  V30 3320 N 311.879 -1.3236 -0.855495 0
M  V30 3321 C 312.809 -1.23833 -1.97958 0
M  V30 3322 C 313.79 -0.122361 -1.69659 0
M  V30 3323 O 314.975 -0.30939 -1.9172 0
M  V30 3324 C 312.105 -0.959772 -3.33775 0
M  V30 3325 C 311.059 -2.03689 -3.76424 0
M  V30 3326 C 310.385 -1.61075 -5.09862 0
M  V30 3327 C 311.685 -3.4518 -3.9198 0
M  V30 3328 H 313.379 -2.1788 -2.0535 0
M  V30 3329 H 310.925 -1.04891 -0.986605 0
M  V30 3330 H 312.878 -0.886678 -4.11966 0
M  V30 3331 H 311.602 0.0163404 -3.26596 0
M  V30 3332 H 310.261 -2.10012 -3.00484 0
M  V30 3333 H 309.909 -0.622107 -4.99138 0
M  V30 3334 H 309.609 -2.33143 -5.39368 0
M  V30 3335 H 311.133 -1.55201 -5.90546 0
M  V30 3336 H 312.547 -3.4145 -4.60526 0
M  V30 3337 H 310.944 -4.1559 -4.32903 0
M  V30 3338 H 312.014 -3.84903 -2.94919 0
M  V30 3339 N 313.357 1.07166 -1.15556 0
M  V30 3340 C 314.32 2.12589 -0.856644 0
M  V30 3341 C 315.32 1.6015 0.14444 0
M  V30 3342 O 316.51 1.7399 -0.0854163 0
M  V30 3343 C 313.642 3.39753 -0.279405 0
M  V30 3344 H 314.835 2.40539 -1.79112 0
M  V30 3345 H 312.388 1.23086 -0.963298 0
M  V30 3346 H 313.123 3.17447 0.663174 0
M  V30 3347 H 312.908 3.79117 -1.00063 0
M  V30 3348 H 314.398 4.17507 -0.0879113 0
M  V30 3349 N 314.835 0.952656 1.25548 0
M  V30 3350 C 315.785 0.442033 2.23674 0
M  V30 3351 C 316.769 -0.467632 1.53955 0
M  V30 3352 O 317.961 -0.301006 1.74422 0
M  V30 3353 C 315.09 -0.280816 3.4215 0
M  V30 3354 C 314.176 0.646803 4.19139 0
M  V30 3355 N 314.567 1.77759 4.73535 0
M  V30 3356 C 312.865 0.454617 4.43677 0
M  V30 3357 C 313.566 2.35658 5.31827 0
M  V30 3358 N 312.542 1.64333 5.18166 0
M  V30 3359 H 316.344 1.30505 2.63336 0
M  V30 3360 H 313.858 0.809904 1.40763 0
M  V30 3361 H 315.855 -0.663747 4.11582 0
M  V30 3362 H 314.515 -1.14046 3.04012 0
M  V30 3363 H 315.526 2.15949 4.7073 0
M  V30 3364 H 312.203 -0.362312 4.15925 0
M  V30 3365 H 313.593 3.30998 5.84713 0
M  V30 3366 N 316.313 -1.40141 0.720998 0
M  V30 3367 C 317.559 -2.01084 0.263231 0
M  V30 3368 C 317.892 -1.57052 -1.14229 0
M  V30 3369 O 317.167 -0.793027 -1.77599 0
M  V30 3370 C 317.45 -3.58401 0.349344 0
M  V30 3371 C 317.303 -4.12491 1.79363 0
M  V30 3372 C 318.622 -4.39231 -0.276351 0
M  V30 3373 H 315.741 -0.730572 0.0971228 0
M  V30 3374 H 318.383 -1.66543 0.914518 0
M  V30 3375 H 316.533 -3.87958 -0.205165 0
M  V30 3376 H 318.205 -3.93711 2.40394 0
M  V30 3377 H 316.448 -3.66576 2.31958 0
M  V30 3378 H 317.119 -5.21646 1.80524 0
M  V30 3379 H 319.595 -4.15637 0.196184 0
M  V30 3380 H 318.471 -5.48586 -0.185681 0
M  V30 3381 H 318.732 -4.20643 -1.36059 0
M  V30 3382 N 317.792 -0.46758 -1.50504 0
M  V30 3383 C 319.017 0.0886943 -2.0721 0
M  V30 3384 C 319.442 1.33057 -1.32956 0
M  V30 3385 O 318.8 1.77354 -0.376197 0
M  V30 3386 C 318.848 0.359202 -3.58806 0
M  V30 3387 O 317.952 1.44034 -3.8643 0
M  V30 3388 H 317.293 -0.0114349 -0.663902 0
M  V30 3389 H 319.823 -0.657613 -1.93744 0
M  V30 3390 H 319.833 0.600742 -4.03553 0
M  V30 3391 H 318.508 -0.548311 -4.1227 0
M  V30 3392 H 317.085 1.18638 -3.53524 0
M  V30 3393 N 319.27 1.56325 -0.20005 0
M  V30 3394 C 320.516 1.98012 0.438059 0
M  V30 3395 C 320.849 1.08702 1.60927 0
M  V30 3396 O 320.124 0.140064 1.93995 0
M  V30 3397 C 320.407 3.48841 0.893419 0
M  V30 3398 C 320.26 4.48928 -0.279947 0
M  V30 3399 C 321.579 4.03498 1.75719 0
M  V30 3400 H 318.698 0.719918 0.157757 0
M  V30 3401 H 321.34 1.87743 -0.291968 0
M  V30 3402 H 319.49 3.57723 1.51547 0
M  V30 3403 H 321.162 4.52079 -0.91772 0
M  V30 3404 H 319.405 4.23694 -0.930919 0
M  V30 3405 H 320.076 5.5194 0.0812601 0
M  V30 3406 H 322.552 3.97427 1.23253 0
M  V30 3407 H 321.428 5.09393 2.04476 0
M  V30 3408 H 321.689 3.4906 2.71311 0
M  V30 3409 N 320.748 -0.0735177 1.57428 0
M  V30 3410 C 321.711 -1.07192 2.02589 0
M  V30 3411 C 322.711 -1.31695 0.922661 0
M  V30 3412 O 323.901 -1.27445 1.18758 0
M  V30 3413 C 321.033 -2.41599 2.40506 0
M  V30 3414 H 322.226 -0.682727 2.92025 0
M  V30 3415 H 319.779 -0.319193 1.53006 0
M  V30 3416 H 320.514 -2.85354 1.5409 0
M  V30 3417 H 320.299 -2.25156 3.21009 0
M  V30 3418 H 321.789 -3.13367 2.76027 0
M  V30 3419 N 322.226 -1.5378 -0.344866 0
M  V30 3420 C 323.454 -1.74899 -1.10534 0
M  V30 3421 C 323.869 -0.487534 -1.82397 0
M  V30 3422 O 323.226 0.540741 -1.74305 0
M  V30 3423 C 323.277 -2.92822 -2.11984 0
M  V30 3424 O 322.998 -4.14089 -1.43044 0
M  V30 3425 C 324.499 -3.25982 -3.00417 0
M  V30 3426 H 321.719 -0.584426 -0.329678 0
M  V30 3427 H 324.263 -2.006 -0.397474 0
M  V30 3428 H 322.418 -2.69457 -2.78338 0
M  V30 3429 H 322.832 -4.80272 -2.10805 0
M  V30 3430 H 324.306 -4.11848 -3.67539 0
M  V30 3431 H 324.783 -2.42228 -3.66363 0
M  V30 3432 H 325.389 -3.51349 -2.39654 0
M  V30 3433 N 323.704 0.605807 -1.45491 0
M  V30 3434 C 324.637 1.73022 -1.48791 0
M  V30 3435 C 325.615 1.58917 -0.344112 0
M  V30 3436 O 326.799 1.80453 -0.544876 0
M  V30 3437 C 323.926 3.10865 -1.34463 0
M  V30 3438 C 322.972 3.43554 -2.5273 0
M  V30 3439 S 323.805 3.38196 -4.15191 0
M  V30 3440 C 324.961 4.78616 -4.03333 0
M  V30 3441 H 325.194 1.69961 -2.43928 0
M  V30 3442 H 322.727 0.782611 -1.33096 0
M  V30 3443 H 324.685 3.90398 -1.26884 0
M  V30 3444 H 323.346 3.1144 -0.40794 0
M  V30 3445 H 322.539 4.43924 -2.38637 0
M  V30 3446 H 322.141 2.71541 -2.5718 0
M  V30 3447 H 324.433 5.68463 -3.68587 0
M  V30 3448 H 325.376 4.97767 -5.03621 0
M  V30 3449 H 325.784 4.54381 -3.34959 0
M  V30 3450 N 325.182 1.32811 0.848464 0
M  V30 3451 C 326.129 1.22265 1.95755 0
M  V30 3452 C 327.099 0.103413 1.65778 0
M  V30 3453 O 328.284 0.280033 1.88734 0
M  V30 3454 C 325.424 0.958014 3.31536 0
M  V30 3455 C 324.537 2.16262 3.73971 0
M  V30 3456 C 323.672 1.83295 4.98575 0
M  V30 3457 C 322.711 3.00041 5.33518 0
M  V30 3458 N 321.848 2.67125 6.49299 0
M  V30 3459 H 326.688 2.17128 2.04107 0
M  V30 3460 H 324.225 1.07982 0.998913 0
M  V30 3461 H 326.183 0.785052 4.09747 0
M  V30 3462 H 324.813 0.046159 3.22767 0
M  V30 3463 H 323.865 2.44565 2.91362 0
M  V30 3464 H 325.177 3.03572 3.95785 0
M  V30 3465 H 324.331 1.62586 5.84509 0
M  V30 3466 H 323.07 0.932078 4.7871 0
M  V30 3467 H 322.075 3.21374 4.46093 0
M  V30 3468 H 323.3 3.90869 5.55336 0
M  V30 3469 H 321.246 1.79586 6.3094 0
M  V30 3470 H 321.163 3.47965 6.71161 0
M  V30 3471 H 322.431 2.49861 7.3837 0
M  V30 3472 N 326.66 -1.06551 1.16123 0
M  V30 3473 C 327.623 -2.12132 0.867906 0
M  V30 3474 C 328.623 -1.60224 -0.135944 0
M  V30 3475 O 329.813 -1.73943 0.0946422 0
M  V30 3476 C 326.945 -3.396 0.297419 0
M  V30 3477 H 328.138 -2.39586 1.80385 0
M  V30 3478 H 325.691 -1.22574 0.969812 0
M  V30 3479 H 326.426 -3.17794 -0.64633 0
M  V30 3480 H 326.211 -3.78581 1.02073 0
M  V30 3481 H 327.701 -4.17455 0.110052 0
M  V30 3482 N 328.138 -0.959301 -1.25041 0
M  V30 3483 C 329.366 -0.633949 -1.96948 0
M  V30 3484 C 329.781 0.794916 -1.7125 0
M  V30 3485 O 329.138 1.53231 -0.991287 0
M  V30 3486 C 329.189 -0.888805 -3.50403 0
M  V30 3487 O 328.91 -2.26149 -3.75218 0
M  V30 3488 C 330.411 -0.576482 -4.39536 0
M  V30 3489 H 327.631 -0.237263 -0.627652 0
M  V30 3490 H 330.175 -1.28495 -1.59089 0
M  V30 3491 H 328.33 -0.284145 -3.86357 0
M  V30 3492 H 328.744 -2.33514 -4.6965 0
M  V30 3493 H 330.218 -0.805314 -5.46094 0
M  V30 3494 H 330.695 0.489075 -4.36468 0
M  V30 3495 H 331.301 -1.16067 -4.09156 0
M  V30 3496 N 329.616 1.39756 -0.72842 0
M  V30 3497 C 330.546 2.33289 -0.0991354 0
M  V30 3498 C 331.527 1.53568 0.731489 0
M  V30 3499 O 332.712 1.81987 0.677807 0
M  V30 3500 C 329.842 3.3763 0.813834 0
M  V30 3501 C 328.796 4.2791 0.0878663 0
M  V30 3502 C 328.122 5.22894 1.11741 0
M  V30 3503 C 329.422 5.11314 -1.06563 0
M  V30 3504 H 331.116 2.86163 -0.880408 0
M  V30 3505 H 328.662 1.37591 -0.424819 0
M  V30 3506 H 330.615 4.0201 1.26355 0
M  V30 3507 H 329.339 2.83181 1.62715 0
M  V30 3508 H 327.998 3.65 -0.342159 0
M  V30 3509 H 327.646 4.64744 1.92412 0
M  V30 3510 H 327.346 5.84143 0.636477 0
M  V30 3511 H 328.87 5.90151 1.56697 0
M  V30 3512 H 330.284 5.69076 -0.694671 0
M  V30 3513 H 328.681 5.81671 -1.47577 0
M  V30 3514 H 329.751 4.46534 -1.89038 0
M  V30 3515 N 331.094 0.475555 1.50254 0
M  V30 3516 C 332.026 -0.352649 2.26471 0
M  V30 3517 C 333.039 -0.953165 1.3198 0
M  V30 3518 O 334.228 -0.840815 1.57457 0
M  V30 3519 C 331.328 -1.50902 3.0345 0
M  V30 3520 C 330.501 -1.02047 4.25329 0
M  V30 3521 C 329.56 -2.05142 4.84565 0
M  V30 3522 O 328.586 -1.63023 5.45355 0
M  V30 3523 N 329.788 -3.37987 4.71959 0
M  V30 3524 H 332.553 0.300767 2.98187 0
M  V30 3525 H 330.114 0.306598 1.5897 0
M  V30 3526 H 332.106 -2.19572 3.39956 0
M  V30 3527 H 330.676 -2.06705 2.34504 0
M  V30 3528 H 329.896 -0.159507 3.93877 0
M  V30 3529 H 331.184 -0.672061 5.04342 0
M  V30 3530 H 330.582 -3.74913 4.23623 0
M  V30 3531 H 329.139 -4.02443 5.12721 0
M  V30 3532 N 332.573 -1.56217 0.208337 0
M  V30 3533 C 333.503 -2.22694 -0.702116 0
M  V30 3534 C 334.484 -1.19432 -1.2112 0
M  V30 3535 O 335.669 -1.47978 -1.25762 0
M  V30 3536 C 332.799 -2.8966 -1.9161 0
M  V30 3537 C 331.753 -3.9928 -1.5414 0
M  V30 3538 C 331.079 -4.53476 -2.83308 0
M  V30 3539 C 332.379 -5.17012 -0.741339 0
M  V30 3540 H 334.073 -2.99034 -0.147898 0
M  V30 3541 H 331.619 -1.43831 -0.0696951 0
M  V30 3542 H 333.572 -3.34852 -2.55836 0
M  V30 3543 H 332.296 -2.10746 -2.49507 0
M  V30 3544 H 330.955 -3.54799 -0.922668 0
M  V30 3545 H 330.603 -3.71308 -3.39322 0
M  V30 3546 H 330.303 -5.27451 -2.58976 0
M  V30 3547 H 331.827 -5.01378 -3.485 0
M  V30 3548 H 333.241 -5.58667 -1.28699 0
M  V30 3549 H 331.638 -5.97137 -0.595627 0
M  V30 3550 H 332.708 -4.8423 0.254851 0
M  V30 3551 N 334.051 0.0651679 -1.57465 0
M  V30 3552 C 335.276 0.779605 -1.9219 0
M  V30 3553 C 335.701 1.69988 -0.805333 0
M  V30 3554 O 335.059 1.79685 0.241435 0
M  V30 3555 C 335.107 1.54364 -3.2589 0
M  V30 3556 O 334.211 2.65474 -3.1559 0
M  V30 3557 H 333.552 0.212249 -0.629163 0
M  V30 3558 H 336.082 0.0314294 -2.04576 0
M  V30 3559 H 336.092 1.92146 -3.59922 0
M  V30 3560 H 334.767 0.868457 -4.06732 0
M  V30 3561 H 333.344 2.30501 -2.93128 0
M  V30 3562 N 335.529 1.53961 0.336706 0
M  V30 3563 C 336.945 1.44378 0.680241 0
M  V30 3564 C 337.145 0.606034 1.9217 0
M  V30 3565 O 336.201 0.099688 2.52303 0
M  V30 3566 C 337.514 2.87945 0.8665 0
M  V30 3567 C 339.062 2.97763 0.964682 0
M  V30 3568 C 339.537 4.42453 1.18321 0
M  V30 3569 N 341.028 4.46008 1.25025 0
M  V30 3570 C 341.763 5.55102 1.43697 0
M  V30 3571 N 341.259 6.7419 1.59498 0
M  V30 3572 N 343.052 5.42727 1.463 0
M  V30 3573 H 335.203 2.06918 -0.479455 0
M  V30 3574 H 337.466 0.935634 -0.152619 0
M  V30 3575 H 337.172 3.51691 0.0256937 0
M  V30 3576 H 337.046 3.33293 1.76623 0
M  V30 3577 H 339.433 2.34153 1.796 0
M  V30 3578 H 339.514 2.55766 0.041708 0
M  V30 3579 H 339.158 5.06645 0.356788 0
M  V30 3580 H 339.088 4.82048 2.11985 0
M  V30 3581 H 341.579 3.60196 1.14312 0
M  V30 3582 H 341.892 7.53095 1.734 0
M  V30 3583 H 340.237 6.77123 1.56621 0
M  V30 3584 H 343.428 4.48647 1.33543 0
M  V30 3585 H 343.601 6.27806 1.6051 0
M  V30 3586 N 337.007 -0.598083 1.45811 0
M  V30 3587 C 337.97 -1.69018 1.54808 0
M  V30 3588 C 338.97 -1.55037 0.426652 0
M  V30 3589 O 340.16 -1.59932 0.690456 0
M  V30 3590 C 337.292 -3.0835 1.45371 0
M  V30 3591 H 338.485 -1.62403 2.52121 0
M  V30 3592 H 336.038 -0.814626 1.33392 0
M  V30 3593 H 336.773 -3.20534 0.492793 0
M  V30 3594 H 336.558 -3.19907 2.26721 0
M  V30 3595 H 338.048 -3.8788 1.54721 0
M  V30 3596 N 338.485 -1.33259 -0.841409 0
M  V30 3597 C 339.896 -1.22066 -1.41269 0
M  V30 3598 C 340.247 0.161479 -1.95534 0
M  V30 3599 O 339.372 1.06094 -1.88608 0
M  V30 3600 C 339.967 -2.20996 -2.568 0
M  V30 3601 C 338.526 -2.13649 -3.09888 0
M  V30 3602 C 337.673 -2.08623 -1.82679 0
M  V30 3603 H 340.624 -1.44895 -0.647395 0
M  V30 3604 H 340.645 -1.81621 -3.34356 0
M  V30 3605 H 340.157 -3.2158 -2.17274 0
M  V30 3606 H 338.258 -1.16359 -3.53965 0
M  V30 3607 H 338.371 -3.04079 -3.70234 0
M  V30 3608 H 336.735 -1.54061 -2.02824 0
M  V30 3609 H 337.518 -3.1101 -1.45353 0
M  V30 3610 N 339.963 1.05934 -1.16686 0
M  V30 3611 C 341.209 1.79065 -0.95203 0
M  V30 3612 C 341.542 1.87147 0.518629 0
M  V30 3613 O 340.817 1.36574 1.38484 0
M  V30 3614 C 341.1 3.23359 -1.58464 0
M  V30 3615 C 340.953 3.23336 -3.12689 0
M  V30 3616 C 342.272 4.21004 -1.28232 0
M  V30 3617 H 339.391 0.65005 -0.34728 0
M  V30 3618 H 342.033 1.23868 -1.44072 0
M  V30 3619 H 340.183 3.70493 -1.16908 0
M  V30 3620 H 341.855 2.84336 -3.6325 0
M  V30 3621 H 340.098 2.61886 -3.4583 0
M  V30 3622 H 340.769 4.25144 -3.52075 0
M  V30 3623 H 343.245 3.8233 -1.64203 0
M  V30 3624 H 342.121 5.20225 -1.75092 0
M  V30 3625 H 342.382 4.41639 -0.201791 0
M  V30 3626 N 341.441 0.965919 1.2453 0
M  V30 3627 C 342.69 0.622437 1.91856 0
M  V30 3628 C 343.003 -0.846006 1.76358 0
M  V30 3629 O 344.209 -1.29993 2.38357 0
M  V30 3630 C 342.665 1.0626 3.43856 0
M  V30 3631 C 342.273 2.55437 3.68043 0
M  V30 3632 C 344.017 0.792183 4.17043 0
M  V30 3633 C 341.924 2.93196 5.13605 0
M  V30 3634 H 340.854 0.229092 0.718354 0
M  V30 3635 H 343.505 1.17189 1.41206 0
M  V30 3636 H 341.887 0.441476 3.93531 0
M  V30 3637 H 343.061 3.22665 3.28974 0
M  V30 3638 H 341.376 2.8007 3.08139 0
M  V30 3639 H 343.973 1.05031 5.24283 0
M  V30 3640 H 344.316 -0.271584 4.15413 0
M  V30 3641 H 344.849 1.37419 3.73311 0
M  V30 3642 H 341.588 3.98636 5.20355 0
M  V30 3643 H 341.108 2.30651 5.53679 0
M  V30 3644 H 342.787 2.83004 5.81823 0
M  V30 3645 N 342.919 -1.39368 0.735821 0
M  V30 3646 C 344.166 -2.00497 0.284123 0
M  V30 3647 C 344.494 -1.58387 -1.12889 0
M  V30 3648 O 343.749 -0.804359 -1.78406 0
M  V30 3649 C 344.048 -3.5583 0.334651 0
M  V30 3650 C 343.714 -4.17593 1.7008 0
M  V30 3651 C 342.376 -4.34176 2.07472 0
M  V30 3652 C 344.728 -4.51848 2.59775 0
M  V30 3653 C 342.056 -4.82304 3.34065 0
M  V30 3654 C 344.408 -5.01384 3.85741 0
M  V30 3655 C 343.072 -5.16175 4.23225 0
M  V30 3656 H 342.342 -0.73367 0.103968 0
M  V30 3657 H 344.989 -1.66683 0.942825 0
M  V30 3658 H 343.294 -3.89674 -0.407625 0
M  V30 3659 H 344.991 -4.00986 -0.0329927 0
M  V30 3660 H 341.581 -4.05087 1.40008 0
M  V30 3661 H 345.765 -4.38653 2.32157 0
M  V30 3662 H 341.021 -4.91941 3.63049 0
M  V30 3663 H 345.195 -5.26863 4.55399 0
M  V30 3664 H 342.822 -5.5323 5.21384 0
M  V30 3665 N 344.397 -0.483516 -1.5 0
M  V30 3666 C 345.622 0.0667119 -2.07293 0
M  V30 3667 C 346.047 1.3164 -1.3436 0
M  V30 3668 O 345.405 1.76945 -0.394987 0
M  V30 3669 C 345.453 0.321126 -3.59167 0
M  V30 3670 O 344.557 1.39927 -3.87936 0
M  V30 3671 H 343.898 -0.0184758 -0.663743 0
M  V30 3672 H 346.428 -0.678125 -1.93035 0
M  V30 3673 H 346.438 0.557906 -4.04168 0
M  V30 3674 H 345.113 -0.592007 -4.11665 0
M  V30 3675 H 343.69 1.14882 -3.54763 0
M  V30 3676 N 345.875 1.56104 -0.216619 0
M  V30 3677 C 346.825 2.16703 0.708798 0
M  V30 3678 C 347.809 1.11392 1.16106 0
M  V30 3679 O 349.001 1.37395 1.11587 0
M  V30 3680 C 346.13 2.84666 1.91886 0
M  V30 3681 C 345.216 3.97195 1.48651 0
M  V30 3682 N 345.607 4.99959 0.766434 0
M  V30 3683 C 343.905 4.09193 1.77418 0
M  V30 3684 C 344.606 5.79126 0.546659 0
M  V30 3685 N 343.582 5.32315 1.10188 0
M  V30 3686 H 347.384 2.93516 0.150162 0
M  V30 3687 H 344.898 1.6239 -0.0176768 0
M  V30 3688 H 346.895 3.26486 2.59253 0
M  V30 3689 H 345.555 2.09347 2.48202 0
M  V30 3690 H 346.566 5.16197 0.419634 0
M  V30 3691 H 343.243 3.45021 2.35088 0
M  V30 3692 H 344.633 6.71895 -0.026103 0
M  V30 3693 N 347.353 -0.0568162 1.57498 0
M  V30 3694 C 348.578 -0.769402 1.92601 0
M  V30 3695 C 349.003 -1.69559 0.814336 0
M  V30 3696 O 348.361 -1.79811 -0.231903 0
M  V30 3697 C 348.409 -1.52634 3.26704 0
M  V30 3698 O 347.513 -2.63797 3.16994 0
M  V30 3699 H 346.854 -0.208909 0.63028 0
M  V30 3700 H 349.384 -0.0205798 2.0459 0
M  V30 3701 H 349.394 -1.90234 3.60936 0
M  V30 3702 H 348.069 -0.846875 4.07186 0
M  V30 3703 H 346.646 -2.28943 2.94346 0
M  V30 3704 N 348.832 -1.54138 -0.328536 0
M  V30 3705 C 350.057 -1.76378 -1.09112 0
M  V30 3706 C 350.482 -0.508596 -1.81094 0
M  V30 3707 O 349.84 0.539598 -1.73084 0
M  V30 3708 C 349.888 -2.95358 -2.06872 0
M  V30 3709 O 348.992 -2.66556 -3.14677 0
M  V30 3710 H 348.333 -0.584614 -0.314838 0
M  V30 3711 H 350.863 -2.01146 -0.374348 0
M  V30 3712 H 350.873 -3.22566 -2.4983 0
M  V30 3713 H 349.548 -3.86385 -1.5388 0
M  V30 3714 H 348.125 -2.50282 -2.7643 0
M  V30 3715 N 350.31 0.590341 -1.46126 0
M  V30 3716 C 351.273 1.68194 -1.55703 0
M  V30 3717 C 352.273 1.54808 -0.434868 0
M  V30 3718 O 353.463 1.59564 -0.698928 0
M  V30 3719 C 350.595 3.07575 -1.47005 0
M  V30 3720 H 351.788 1.61064 -2.52979 0
M  V30 3721 H 349.341 0.807541 -1.33823 0
M  V30 3722 H 350.076 3.20268 -0.509785 0
M  V30 3723 H 349.861 3.187 -2.28414 0
M  V30 3724 H 351.351 3.87055 -1.56776 0
M  V30 3725 N 351.788 1.33704 0.83433 0
M  V30 3726 C 353.018 1.28281 1.6195 0
M  V30 3727 C 353.426 -0.147603 1.88623 0
M  V30 3728 O 352.769 -1.1016 1.47005 0
M  V30 3729 C 352.831 1.99386 2.99141 0
M  V30 3730 C 352.495 3.48681 2.95416 0
M  V30 3731 C 353.492 4.438 2.70809 0
M  V30 3732 C 351.177 3.90925 3.15409 0
M  V30 3733 C 353.171 5.79138 2.66229 0
M  V30 3734 C 350.858 5.26366 3.10454 0
M  V30 3735 C 351.856 6.20284 2.85895 0
M  V30 3736 O 351.544 7.53245 2.80852 0
M  V30 3737 H 351.276 0.44315 0.510484 0
M  V30 3738 H 353.83 1.76711 1.04702 0
M  V30 3739 H 352.06 1.45554 3.58261 0
M  V30 3740 H 353.749 1.87403 3.60049 0
M  V30 3741 H 354.515 4.12485 2.5511 0
M  V30 3742 H 350.394 3.18229 3.33543 0
M  V30 3743 H 353.938 6.52416 2.4698 0
M  V30 3744 H 349.835 5.57304 3.25703 0
M  V30 3745 H 350.603 7.62846 2.96661 0
M  V30 3746 N 353.266 -1.05314 1.17247 0
M  V30 3747 C 354.491 -1.82509 0.985148 0
M  V30 3748 C 354.916 -1.82343 -0.461788 0
M  V30 3749 O 354.274 -1.23151 -1.33055 0
M  V30 3750 C 354.322 -3.26566 1.52929 0
M  V30 3751 O 353.426 -4.05666 0.742225 0
M  V30 3752 H 352.767 -0.564347 0.349869 0
M  V30 3753 H 355.297 -1.32718 1.55715 0
M  V30 3754 H 355.307 -3.77369 1.55103 0
M  V30 3755 H 353.982 -3.26001 2.58256 0
M  V30 3756 H 352.559 -3.64397 0.791794 0
M  V30 3757 N 354.744 -0.972509 -1.24016 0
M  V30 3758 C 355.99 -0.637978 -1.92504 0
M  V30 3759 C 356.323 0.825383 -1.75787 0
M  V30 3760 O 355.598 1.59442 -1.11393 0
M  V30 3761 C 355.881 -1.01942 -3.45369 0
M  V30 3762 C 355.734 -2.53983 -3.71231 0
M  V30 3763 C 357.053 -0.55751 -4.36555 0
M  V30 3764 H 354.172 -0.233248 -0.699117 0
M  V30 3765 H 356.814 -1.21238 -1.46292 0
M  V30 3766 H 354.964 -0.530656 -3.84859 0
M  V30 3767 H 356.636 -3.10374 -3.41271 0
M  V30 3768 H 354.879 -2.96968 -3.16216 0
M  V30 3769 H 355.55 -2.75723 -4.78206 0
M  V30 3770 H 358.026 -0.977029 -4.04467 0
M  V30 3771 H 356.902 -0.85292 -5.42233 0
M  V30 3772 H 357.163 0.542328 -4.38761 0
M  V30 3773 N 356.222 1.38976 -0.743202 0
M  V30 3774 C 357.462 2.02193 -0.29954 0
M  V30 3775 C 357.826 1.5771 1.09506 0
M  V30 3776 O 359.027 2.13184 1.63726 0
M  V30 3777 C 357.298 3.55077 -0.406822 0
M  V30 3778 S 358.857 4.38778 -0.0442109 0
M  V30 3779 H 355.675 0.701335 -0.116836 0
M  V30 3780 H 358.277 1.69651 -0.971529 0
M  V30 3781 H 356.981 3.84942 -1.42295 0
M  V30 3782 H 356.512 3.92383 0.282707 0
M  V30 3783 H 358.527 4.82222 1.16947 0
M  V30 3784 N 357.7 0.491464 1.49741 0
M  V30 3785 C 358.663 -0.280906 2.27472 0
M  V30 3786 C 359.663 -0.902454 1.33088 0
M  V30 3787 O 360.853 -0.768465 1.56334 0
M  V30 3788 C 357.985 -1.40209 3.10732 0
M  V30 3789 H 359.178 0.401056 2.97206 0
M  V30 3790 H 356.731 0.246131 1.5435 0
M  V30 3791 H 357.466 -2.11849 2.45541 0
M  V30 3792 H 357.251 -0.961969 3.80117 0
M  V30 3793 H 358.741 -1.9464 3.69466 0
M  V30 3794 N 359.178 -1.55987 0.224894 0
M  V30 3795 C 360.403 -2.03232 -0.41369 0
M  V30 3796 C 360.828 -1.10359 -1.52323 0
M  V30 3797 O 360.186 -0.092395 -1.81064 0
M  V30 3798 C 360.234 -3.48682 -0.919405 0
M  V30 3799 O 359.338 -3.58947 -2.03054 0
M  V30 3800 H 358.679 -0.657428 -0.0931903 0
M  V30 3801 H 361.209 -2.01679 0.34451 0
M  V30 3802 H 361.219 -3.8907 -1.22835 0
M  V30 3803 H 359.894 -4.15761 -0.107339 0
M  V30 3804 H 358.471 -3.30448 -1.72796 0
M  V30 3805 N 360.656 0.0484629 -1.57525 0
M  V30 3806 C 362.072 0.40375 -1.54409 0
M  V30 3807 C 362.272 1.77786 -0.948384 0
M  V30 3808 O 361.328 2.46189 -0.560983 0
M  V30 3809 C 362.641 0.323394 -2.98956 0
M  V30 3810 C 364.189 0.401892 -3.10409 0
M  V30 3811 C 364.664 0.351195 -4.56652 0
M  V30 3812 N 366.155 0.410576 -4.61377 0
M  V30 3813 C 366.89 0.393933 -5.72045 0
M  V30 3814 N 366.386 0.330724 -6.9201 0
M  V30 3815 N 368.179 0.442227 -5.60358 0
M  V30 3816 H 360.33 -0.851016 -1.94606 0
M  V30 3817 H 362.593 -0.321721 -0.89174 0
M  V30 3818 H 362.299 -0.62011 -3.4619 0
M  V30 3819 H 362.173 1.12463 -3.60044 0
M  V30 3820 H 364.56 1.33582 -2.63134 0
M  V30 3821 H 364.641 -0.428342 -2.52188 0
M  V30 3822 H 364.285 -0.578987 -5.04589 0
M  V30 3823 H 364.215 1.19928 -5.12762 0
M  V30 3824 H 366.706 0.462729 -3.75056 0
M  V30 3825 H 367.019 0.322592 -7.72126 0
M  V30 3826 H 365.364 0.29706 -6.94365 0
M  V30 3827 H 368.555 0.489464 -4.65534 0
M  V30 3828 H 368.728 0.425788 -6.466 0
M  V30 3829 N 362.134 1.5431 0.320358 0
M  V30 3830 C 363.55 1.45091 0.664889 0
M  V30 3831 C 363.75 0.626382 1.91517 0
M  V30 3832 O 362.806 0.126443 2.52183 0
M  V30 3833 C 364.119 2.88848 0.83591 0
M  V30 3834 C 365.667 2.9877 0.933046 0
M  V30 3835 C 366.142 4.43683 1.13621 0
M  V30 3836 N 367.633 4.47309 1.20287 0
M  V30 3837 C 368.368 5.56595 1.37801 0
M  V30 3838 N 367.864 6.75844 1.52338 0
M  V30 3839 N 369.657 5.44248 1.40535 0
M  V30 3840 H 361.808 2.06398 -0.501374 0
M  V30 3841 H 364.071 0.933963 -0.162534 0
M  V30 3842 H 363.777 3.51698 -0.0116092 0
M  V30 3843 H 363.651 3.35148 1.73078 0
M  V30 3844 H 366.038 2.36045 1.77107 0
M  V30 3845 H 366.119 2.55796 0.0145782 0
M  V30 3846 H 365.763 5.06995 0.303032 0
M  V30 3847 H 365.693 4.84269 2.0686 0
M  V30 3848 H 368.184 3.61388 1.10485 0
M  V30 3849 H 368.497 7.54892 1.65403 0
M  V30 3850 H 366.842 6.78746 1.4943 0
M  V30 3851 H 370.033 4.50038 1.28777 0
M  V30 3852 H 370.206 6.29473 1.53842 0
M  V30 3853 N 363.613 -0.582584 1.46437 0
M  V30 3854 C 364.561 -1.71272 1.5738 0
M  V30 3855 C 365.555 -1.63524 0.44229 0
M  V30 3856 O 366.761 -1.69016 0.619166 0
M  V30 3857 H 363.136 -0.566273 0.494813 0
M  V30 3858 H 365.107 -1.59174 2.52401 0
M  V30 3859 C 363.856 -3.09658 1.58136 0
M  V30 3860 H 363.179 -3.16291 2.44541 0
M  V30 3861 H 364.619 -3.88494 1.69847 0
M  V30 3862 C 363.078 -3.3547 0.310026 0
M  V30 3863 O 363.608 -3.97199 -0.599683 0
M  V30 3864 N 361.814 -2.89925 0.197901 0
M  V30 3865 H 361.361 -2.39873 0.93909 0
M  V30 3866 H 361.319 -3.07568 -0.65185 0
M  V30 3867 N 365.091 -1.34144 -0.827227 0
M  V30 3868 C 366.337 -1.26446 -1.58554 0
M  V30 3869 C 366.67 0.1664 -1.93486 0
M  V30 3870 O 365.945 1.1107 -1.59667 0
M  V30 3871 C 366.228 -2.15111 -2.8879 0
M  V30 3872 C 366.081 -3.66712 -2.60465 0
M  V30 3873 C 367.4 -2.03311 -3.90324 0
M  V30 3874 H 364.519 -0.46067 -0.575284 0
M  V30 3875 H 367.161 -1.64356 -0.953269 0
M  V30 3876 H 365.311 -1.8291 -3.42748 0
M  V30 3877 H 366.983 -4.09259 -2.1285 0
M  V30 3878 H 365.226 -3.88014 -1.93978 0
M  V30 3879 H 365.897 -4.24112 -3.53317 0
M  V30 3880 H 368.373 -2.31574 -3.45706 0
M  V30 3881 H 367.249 -2.67582 -4.79261 0
M  V30 3882 H 367.51 -1.00879 -4.30437 0
M  V30 3883 N 366.569 1.04691 -1.17803 0
M  V30 3884 C 367.98 1.59238 -0.974689 0
M  V30 3885 C 368.331 1.90306 0.477292 0
M  V30 3886 O 367.456 1.68846 1.35352 0
M  V30 3887 C 368.051 2.89318 -1.76296 0
M  V30 3888 C 366.61 3.40506 -1.60414 0
M  V30 3889 C 365.757 2.14172 -1.76141 0
M  V30 3890 H 368.708 0.874395 -1.32439 0
M  V30 3891 H 368.729 3.5944 -1.24833 0
M  V30 3892 H 368.241 2.66675 -2.81968 0
M  V30 3893 H 366.342 3.68175 -0.572519 0
M  V30 3894 H 366.455 4.14753 -2.39827 0
M  V30 3895 H 364.819 2.25176 -1.19028 0
M  V30 3896 H 365.602 1.93992 -2.83235 0
M  V30 3897 N 368.047 0.979072 1.23499 0
M  V30 3898 C 369.324 0.563674 1.87302 0
M  V30 3899 C 369.704 -0.959199 1.88049 0
M  V30 3900 O 369.052 -1.83535 1.36114 0
M  V30 3901 C 369.262 1.16822 3.28867 0
M  V30 3902 C 370.61 1.26014 4.0547 0
M  V30 3903 O 371.634 1.12158 3.38082 0
M  V30 3904 O 370.493 1.48044 5.26066 0
M  V30 3905 H 367.587 0.189602 0.804972 0
M  V30 3906 H 370.133 1.07407 1.31384 0
M  V30 3907 H 368.905 2.21049 3.22883 0
M  V30 3908 H 368.528 0.642564 3.92373 0
M  V30 3909 N 369.525 -1.3858 0.750561 0
M  V30 3910 C 370.802 -1.94231 0.231009 0
M  V30 3911 C 371.182 -1.68611 -1.27018 0
M  V30 3912 O 370.53 -1.02296 -2.04323 0
M  V30 3913 C 370.74 -3.44123 0.581428 0
M  V30 3914 C 372.088 -4.2116 0.539389 0
M  V30 3915 O 373.112 -3.52391 0.519541 0
M  V30 3916 O 371.971 -5.43749 0.54765 0
M  V30 3917 H 369.065 -0.825639 0.0474263 0
M  V30 3918 H 371.611 -1.4799 0.830478 0
M  V30 3919 H 370.383 -3.56267 1.61833 0
M  V30 3920 H 370.006 -3.97573 -0.0462047 0
M  V30 3921 N 371.003 -0.499398 -1.49478 0
M  V30 3922 C 372.249 0.0457576 -2.02748 0
M  V30 3923 C 372.582 1.36793 -1.37846 0
M  V30 3924 O 371.857 1.87596 -0.513601 0
M  V30 3925 C 372.14 0.199986 -3.59544 0
M  V30 3926 C 371.993 -1.1452 -4.34977 0
M  V30 3927 C 373.312 0.94137 -4.29914 0
M  V30 3928 H 370.431 0.0151552 -0.736844 0
M  V30 3929 H 373.073 -0.650498 -1.78518 0
M  V30 3930 H 371.223 0.793007 -3.8032 0
M  V30 3931 H 372.895 -1.77697 -4.25701 0
M  V30 3932 H 371.138 -1.73488 -3.97598 0
M  V30 3933 H 371.809 -0.990607 -5.43039 0
M  V30 3934 H 374.285 0.43844 -4.13784 0
M  V30 3935 H 373.161 1.01812 -5.39375 0
M  V30 3936 H 373.422 1.98471 -3.95046 0
M  V30 3937 N 372.481 1.55866 -0.233164 0
M  V30 3938 C 373.411 2.23783 0.666599 0
M  V30 3939 C 374.392 1.21343 1.19205 0
M  V30 3940 O 375.577 1.4996 1.23392 0
M  V30 3941 C 372.707 2.92671 1.86978 0
M  V30 3942 C 371.661 4.01682 1.47768 0
M  V30 3943 C 370.987 4.57926 2.76058 0
M  V30 3944 C 372.287 5.18126 0.658993 0
M  V30 3945 H 373.981 2.99232 0.100306 0
M  V30 3946 H 371.527 1.43924 0.046804 0
M  V30 3947 H 373.48 3.3888 2.50476 0
M  V30 3948 H 372.204 2.14688 2.46123 0
M  V30 3949 H 370.863 3.56222 0.866106 0
M  V30 3950 H 370.511 3.76659 3.33372 0
M  V30 3951 H 370.211 5.31505 2.50552 0
M  V30 3952 H 371.735 5.06859 3.40479 0
M  V30 3953 H 373.149 5.60644 1.19795 0
M  V30 3954 H 371.546 5.98009 0.500552 0
M  V30 3955 H 372.616 4.83763 -0.331856 0
M  V30 3956 N 373.959 -0.0401083 1.57549 0
M  V30 3957 C 375.375 -0.395556 1.54621 0
M  V30 3958 C 375.575 -1.77281 0.957799 0
M  V30 3959 O 374.631 -2.45888 0.574031 0
M  V30 3960 C 375.944 -0.307535 2.99123 0
M  V30 3961 C 377.492 -0.385425 3.10618 0
M  V30 3962 C 377.967 -0.326973 4.56831 0
M  V30 3963 N 379.458 -0.386102 4.61588 0
M  V30 3964 C 380.193 -0.363591 5.72246 0
M  V30 3965 N 379.689 -0.29402 6.92176 0
M  V30 3966 N 381.482 -0.412503 5.60584 0
M  V30 3967 H 373.633 0.861325 1.94152 0
M  V30 3968 H 375.896 0.326445 0.890021 0
M  V30 3969 H 375.602 0.638461 3.45856 0
M  V30 3970 H 375.476 -1.10552 3.60636 0
M  V30 3971 H 377.863 -1.32185 2.63839 0
M  V30 3972 H 377.944 0.44171 2.51957 0
M  V30 3973 H 377.588 0.605738 5.04275 0
M  V30 3974 H 377.518 -1.17207 5.13391 0
M  V30 3975 H 380.009 -0.442832 3.75296 0
M  V30 3976 H 380.322 -0.28164 7.72287 0
M  V30 3977 H 378.667 -0.260232 6.94513 0
M  V30 3978 H 381.858 -0.464769 4.65787 0
M  V30 3979 H 382.031 -0.391492 6.46816 0
M  V30 3980 N 375.437 -1.54477 -0.31217 0
M  V30 3981 C 376.367 -1.87652 -1.38957 0
M  V30 3982 C 377.348 -0.734358 -1.53431 0
M  V30 3983 O 378.533 -0.98911 -1.67123 0
M  V30 3984 C 375.663 -2.11396 -2.75552 0
M  V30 3985 C 374.617 -3.27243 -2.75855 0
M  V30 3986 C 373.943 -3.36382 -4.15633 0
M  V30 3987 C 375.243 -4.64622 -2.38587 0
M  V30 3988 H 376.937 -2.77887 -1.11442 0
M  V30 3989 H 374.483 -1.33707 -0.534655 0
M  V30 3990 H 376.436 -2.33189 -3.51 0
M  V30 3991 H 375.16 -1.17921 -3.04569 0
M  V30 3992 H 373.819 -3.05356 -2.02863 0
M  V30 3993 H 373.467 -2.40445 -4.41809 0
M  V30 3994 H 373.167 -4.14249 -4.1674 0
M  V30 3995 H 374.691 -3.60422 -4.92877 0
M  V30 3996 H 376.105 -4.86219 -3.03749 0
M  V30 3997 H 374.502 -5.45121 -2.50925 0
M  V30 3998 H 375.572 -4.66097 -1.33723 0
M  V30 3999 N 376.915 0.57481 -1.46744 0
M  V30 4000 C 378.161 1.3347 -1.52688 0
M  V30 4001 C 378.494 1.93353 -0.181229 0
M  V30 4002 O 377.769 1.76912 0.808237 0
M  V30 4003 C 378.052 2.45811 -2.63152 0
M  V30 4004 C 377.905 1.90912 -4.07275 0
M  V30 4005 C 379.224 3.47822 -2.69644 0
M  V30 4006 H 376.343 0.483935 -0.555856 0
M  V30 4007 H 378.985 0.644968 -1.78718 0
M  V30 4008 H 377.135 3.04646 -2.41088 0
M  V30 4009 H 378.807 1.36473 -4.4065 0
M  V30 4010 H 377.05 1.21691 -4.16382 0
M  V30 4011 H 377.721 2.72042 -4.80309 0
M  V30 4012 H 380.197 2.9888 -2.895 0
M  V30 4013 H 379.073 4.23876 -3.48742 0
M  V30 4014 H 379.334 4.05555 -1.76005 0
M  V30 4015 N 378.394 1.34581 0.820102 0
M  V30 4016 C 379.341 1.2639 1.93117 0
M  V30 4017 C 380.311 0.138554 1.65521 0
M  V30 4018 O 381.496 0.320004 1.88097 0
M  V30 4019 C 378.636 1.02812 3.29429 0
M  V30 4020 C 377.749 2.24146 3.693 0
M  V30 4021 C 376.884 1.93829 4.94574 0
M  V30 4022 C 375.923 3.1129 5.27034 0
M  V30 4023 N 375.06 2.80838 6.43486 0
M  V30 4024 H 379.9 2.21408 1.99455 0
M  V30 4025 H 377.437 1.10077 0.975784 0
M  V30 4026 H 379.395 0.871788 4.0799 0
M  V30 4027 H 378.025 0.114612 3.22596 0
M  V30 4028 H 377.077 2.50691 2.86109 0
M  V30 4029 H 378.389 3.11899 3.89257 0
M  V30 4030 H 377.543 1.74948 5.80929 0
M  V30 4031 H 376.282 1.03341 4.76626 0
M  V30 4032 H 375.287 3.30764 4.39175 0
M  V30 4033 H 376.512 4.02561 5.4692 0
M  V30 4034 H 374.458 1.92929 6.26988 0
M  V30 4035 H 374.375 3.62123 6.63629 0
M  V30 4036 H 375.643 2.65467 7.32903 0
M  V30 4037 N 379.872 -1.04064 1.18357 0
M  V30 4038 C 380.804 -2.12114 0.868358 0
M  V30 4039 C 381.817 -1.62247 -0.134045 0
M  V30 4040 O 383.006 -1.78253 0.0937933 0
M  V30 4041 C 380.106 -3.37773 0.276132 0
M  V30 4042 C 379.279 -4.16874 1.3242 0
M  V30 4043 C 378.338 -5.20861 0.747662 0
M  V30 4044 O 377.364 -5.51141 1.42239 0
M  V30 4045 N 378.566 -5.78715 -0.454823 0
M  V30 4046 H 381.331 -2.39748 1.79836 0
M  V30 4047 H 378.892 -1.20258 1.08396 0
M  V30 4048 H 380.884 -4.04513 -0.123133 0
M  V30 4049 H 379.454 -3.07581 -0.557895 0
M  V30 4050 H 378.674 -3.45456 1.89878 0
M  V30 4051 H 379.962 -4.66516 2.03078 0
M  V30 4052 H 379.36 -5.56415 -1.02073 0
M  V30 4053 H 377.917 -6.46921 -0.79601 0
M  V30 4054 N 381.35 -0.985608 -1.22978 0
M  V30 4055 C 382.578 -0.675582 -1.95559 0
M  V30 4056 C 382.993 0.758413 -1.72897 0
M  V30 4057 O 382.35 1.51094 -1.02357 0
M  V30 4058 C 382.401 -0.96293 -3.48439 0
M  V30 4059 O 382.122 -2.34057 -3.70336 0
M  V30 4060 C 383.623 -0.669585 -4.38214 0
M  V30 4061 H 380.843 -0.250523 -0.622478 0
M  V30 4062 H 383.387 -1.3184 -1.56328 0
M  V30 4063 H 381.542 -0.366033 -3.85667 0
M  V30 4064 H 381.956 -2.43424 -4.64591 0
M  V30 4065 H 383.43 -0.920967 -5.44263 0
M  V30 4066 H 383.907 0.396383 -4.37408 0
M  V30 4067 H 384.513 -1.2472 -4.06602 0
M  V30 4068 N 382.828 1.3818 -0.7579 0
M  V30 4069 C 384.105 1.94106 -0.241306 0
M  V30 4070 C 384.485 1.69282 1.26122 0
M  V30 4071 O 383.833 1.03378 2.03777 0
M  V30 4072 C 384.043 3.43809 -0.59967 0
M  V30 4073 C 385.391 4.20868 -0.561717 0
M  V30 4074 O 386.415 3.5211 -0.538222 0
M  V30 4075 O 385.274 5.43451 -0.576478 0
M  V30 4076 H 382.368 0.825376 -0.0518042 0
M  V30 4077 H 384.914 1.47548 -0.838315 0
M  V30 4078 H 383.686 3.55403 -1.6372 0
M  V30 4079 H 383.309 3.97592 0.0251197 0
M  V30 4080 N 384.306 0.507319 1.49211 0
M  V30 4081 C 385.531 -0.033725 2.07373 0
M  V30 4082 C 385.956 -1.29485 1.36437 0
M  V30 4083 O 385.314 -1.76294 0.423087 0
M  V30 4084 C 385.362 -0.263945 3.59633 0
M  V30 4085 O 384.466 -1.33737 3.90113 0
M  V30 4086 H 383.807 0.0290331 0.663365 0
M  V30 4087 H 386.337 0.708749 1.91932 0
M  V30 4088 H 386.347 -0.493536 4.05004 0
M  V30 4089 H 385.022 0.657424 4.10671 0
M  V30 4090 H 383.599 -1.09224 3.56545 0
M  V30 4091 N 385.784 -1.5574 0.241426 0
M  V30 4092 C 386.714 -2.24133 -0.654722 0
M  V30 4093 C 387.695 -1.21974 -1.1856 0
M  V30 4094 O 388.88 -1.50612 -1.22595 0
M  V30 4095 C 386.01 -2.93659 -1.85423 0
M  V30 4096 C 384.964 -4.0246 -1.45636 0
M  V30 4097 C 384.29 -4.59383 -2.73626 0
M  V30 4098 C 385.59 -5.18468 -0.631506 0
M  V30 4099 H 387.284 -2.99281 -0.0844353 0
M  V30 4100 H 384.83 -1.43947 -0.0391707 0
M  V30 4101 H 386.783 -3.40203 -2.48676 0
M  V30 4102 H 385.507 -2.15991 -2.44981 0
M  V30 4103 H 384.166 -3.56676 -0.847202 0
M  V30 4104 H 383.814 -3.78422 -3.3137 0
M  V30 4105 H 383.514 -5.32826 -2.4773 0
M  V30 4106 H 385.038 -5.08658 -3.37786 0
M  V30 4107 H 386.452 -5.61272 -1.1682 0
M  V30 4108 H 384.849 -5.98266 -0.468831 0
M  V30 4109 H 385.919 -4.8358 0.357506 0
M  V30 4110 N 387.262 0.0317525 -1.57568 0
M  V30 4111 C 388.508 0.724175 -1.8943 0
M  V30 4112 C 388.841 1.75149 -0.838836 0
M  V30 4113 O 388.116 1.93948 0.146422 0
M  V30 4114 C 388.399 1.39615 -3.31933 0
M  V30 4115 C 388.252 0.382537 -4.4817 0
M  V30 4116 C 389.571 2.33084 -3.73309 0
M  V30 4117 H 386.69 0.261797 -0.688935 0
M  V30 4118 H 389.332 -0.013017 -1.89996 0
M  V30 4119 H 387.482 2.02451 -3.31581 0
M  V30 4120 H 389.154 -0.243689 -4.60656 0
M  V30 4121 H 387.397 -0.29844 -4.32772 0
M  V30 4122 H 388.068 0.891145 -5.44759 0
M  V30 4123 H 390.544 1.80295 -3.7501 0
M  V30 4124 H 389.42 2.77084 -4.73831 0
M  V30 4125 H 389.681 3.19643 -3.05419 0
M  V30 4126 N 388.74 1.54641 0.303973 0
M  V30 4127 C 389.673 1.80263 1.3993 0
M  V30 4128 C 390.651 0.653657 1.48883 0
M  V30 4129 O 391.835 0.893284 1.6599 0
M  V30 4130 C 388.962 1.9367 2.77866 0
M  V30 4131 C 388.008 3.16078 2.86351 0
M  V30 4132 S 388.841 4.74219 2.4875 0
M  V30 4133 C 389.997 4.90558 3.88721 0
M  V30 4134 H 390.23 2.72886 1.17986 0
M  V30 4135 H 387.763 1.46014 0.501918 0
M  V30 4136 H 389.721 2.0208 3.57315 0
M  V30 4137 H 388.382 1.01991 2.9708 0
M  V30 4138 H 387.575 3.22252 3.87517 0
M  V30 4139 H 387.177 3.06099 2.14893 0
M  V30 4140 H 389.469 4.74398 4.83687 0
M  V30 4141 H 390.412 5.92651 3.87518 0
M  V30 4142 H 390.82 4.18728 3.78585 0
M  V30 4143 N 390.218 -0.567019 1.47046 0
M  V30 4144 C 391.464 -1.32658 1.53394 0
M  V30 4145 C 391.797 -1.93254 0.19148 0
M  V30 4146 O 391.072 -1.77338 -0.798844 0
M  V30 4147 C 391.355 -2.44412 2.64452 0
M  V30 4148 C 391.208 -1.88749 4.08282 0
M  V30 4149 C 392.527 -3.46387 2.71485 0
M  V30 4150 H 389.646 -0.48098 0.558415 0
M  V30 4151 H 392.288 -0.635481 1.79058 0
M  V30 4152 H 390.438 -3.03363 2.427 0
M  V30 4153 H 392.11 -1.34134 4.41368 0
M  V30 4154 H 390.353 -1.19481 4.17021 0
M  V30 4155 H 391.024 -2.69491 4.81745 0
M  V30 4156 H 393.5 -2.9734 2.91081 0
M  V30 4157 H 392.376 -4.2202 3.50985 0
M  V30 4158 H 392.637 -4.04616 1.78153 0
M  V30 4159 N 391.696 -1.35014 -0.812953 0
M  V30 4160 C 392.644 -1.27435 -1.94585 0
M  V30 4161 C 393.638 -0.170494 -1.6854 0
M  V30 4162 O 394.844 -0.336085 -1.76835 0
M  V30 4163 H 391.219 -0.396144 -0.639198 0
M  V30 4164 H 393.19 -2.23158 -1.98098 0
M  V30 4165 C 391.939 -1.05677 -3.31252 0
M  V30 4166 H 391.262 -1.89853 -3.51846 0
M  V30 4167 H 392.702 -1.04413 -4.10943 0
M  V30 4168 C 391.161 0.239615 -3.36047 0
M  V30 4169 O 391.691 1.23759 -3.8216 0
M  V30 4170 N 389.897 0.276186 -2.89285 0
M  V30 4171 H 389.444 -0.53653 -2.51951 0
M  V30 4172 H 389.402 1.14332 -2.92875 0
M  V30 4173 N 393.175 1.03435 -1.18907 0
M  V30 4174 C 394.422 1.76743 -0.988334 0
M  V30 4175 C 394.75 1.88447 0.481441 0
M  V30 4176 O 394.005 1.39383 1.37371 0
M  V30 4177 C 394.304 3.19792 -1.59586 0
M  V30 4178 C 393.97 3.28108 -3.09283 0
M  V30 4179 C 392.632 3.30084 -3.5014 0
M  V30 4180 C 394.984 3.27696 -4.05296 0
M  V30 4181 C 392.312 3.29299 -4.85571 0
M  V30 4182 C 394.664 3.28451 -5.4065 0
M  V30 4183 C 393.328 3.28723 -5.80946 0
M  V30 4184 H 392.598 0.64675 -0.361657 0
M  V30 4185 H 395.245 1.21442 -1.48068 0
M  V30 4186 H 393.55 3.78136 -1.02568 0
M  V30 4187 H 395.247 3.75171 -1.41589 0
M  V30 4188 H 391.837 3.27294 -2.76725 0
M  V30 4189 H 396.021 3.25354 -3.74778 0
M  V30 4190 H 391.277 3.2783 -5.16079 0
M  V30 4191 H 395.451 3.27082 -6.14809 0
M  V30 4192 H 393.078 3.27868 -6.85862 0
M  V30 4193 N 394.653 0.992116 1.22453 0
M  V30 4194 C 395.883 0.684949 1.94915 0
M  V30 4195 C 396.291 -0.754292 1.73514 0
M  V30 4196 O 395.634 -1.52056 1.03076 0
M  V30 4197 C 395.696 0.910054 3.47791 0
M  V30 4198 C 395.36 2.33363 3.92926 0
M  V30 4199 C 396.357 3.31308 4.00663 0
M  V30 4200 C 394.042 2.66785 4.25595 0
M  V30 4201 C 396.036 4.6075 4.40441 0
M  V30 4202 C 393.723 3.96446 4.65053 0
M  V30 4203 C 394.721 4.9324 4.72444 0
M  V30 4204 O 394.409 6.20584 5.1101 0
M  V30 4205 H 394.141 0.25258 0.62704 0
M  V30 4206 H 396.695 1.32939 1.56577 0
M  V30 4207 H 394.925 0.208443 3.86138 0
M  V30 4208 H 396.614 0.598257 4.01467 0
M  V30 4209 H 397.38 3.0682 3.75615 0
M  V30 4210 H 393.259 1.92148 4.19047 0
M  V30 4211 H 396.803 5.363 4.46126 0
M  V30 4212 H 392.7 4.20724 4.89552 0
M  V30 4213 H 393.468 6.24509 5.29085 0
M  V30 4214 N 396.131 -1.37776 0.765217 0
M  V30 4215 C 397.079 -2.32209 0.134798 0
M  V30 4216 C 398.073 -1.54607 -0.692315 0
M  V30 4217 O 399.279 -1.70052 -0.590109 0
M  V30 4218 H 395.654 -0.751591 0.0248005 0
M  V30 4219 H 397.625 -2.8297 0.947119 0
M  V30 4220 C 396.374 -3.39841 -0.735063 0
M  V30 4221 H 395.697 -3.99654 -0.107991 0
M  V30 4222 H 397.137 -4.08296 -1.14326 0
M  V30 4223 C 395.596 -2.79378 -1.88281 0
M  V30 4224 O 396.126 -2.69608 -2.97783 0
M  V30 4225 N 394.332 -2.37016 -1.68142 0
M  V30 4226 H 393.879 -2.45162 -0.790772 0
M  V30 4227 H 393.837 -1.96905 -2.45104 0
M  V30 4228 N 397.609 -0.515225 -1.4894 0
M  V30 4229 C 398.557 0.269115 -2.31038 0
M  V30 4230 C 399.551 0.949443 -1.40292 0
M  V30 4231 O 400.757 0.87551 -1.57273 0
M  V30 4232 H 397.132 0.10565 -0.744542 0
M  V30 4233 H 399.103 -0.443096 -2.95092 0
M  V30 4234 C 397.852 1.31213 -3.21991 0
M  V30 4235 H 397.175 0.798034 -3.91754 0
M  V30 4236 H 398.615 1.83263 -3.82349 0
M  V30 4237 C 397.074 2.33791 -2.42576 0
M  V30 4238 O 397.604 3.3995 -2.14003 0
M  V30 4239 N 395.81 2.06625 -2.0434 0
M  V30 4240 H 395.357 1.20314 -2.27777 0
M  V30 4241 H 395.315 2.75483 -1.51514 0
M  V30 4242 N 399.087 1.5561 -0.249682 0
M  V30 4243 C 400.317 2.03116 0.377803 0
M  V30 4244 C 400.725 1.12822 1.51881 0
M  V30 4245 O 400.068 0.13562 1.83199 0
M  V30 4246 C 400.13 3.46866 0.944693 0
M  V30 4247 C 399.794 4.56955 -0.0644259 0
M  V30 4248 C 400.791 5.12485 -0.874957 0
M  V30 4249 C 398.476 5.01936 -0.19132 0
M  V30 4250 C 400.47 6.11491 -1.79881 0
M  V30 4251 C 398.157 6.00773 -1.11868 0
M  V30 4252 C 399.155 6.5543 -1.92095 0
M  V30 4253 O 398.843 7.5234 -2.83267 0
M  V30 4254 H 398.575 0.669489 0.0935961 0
M  V30 4255 H 401.129 2.02004 -0.371966 0
M  V30 4256 H 399.359 3.45136 1.74407 0
M  V30 4257 H 401.048 3.77856 1.48255 0
M  V30 4258 H 401.814 4.78564 -0.787523 0
M  V30 4259 H 397.693 4.59055 0.423072 0
M  V30 4260 H 401.237 6.54078 -2.42543 0
M  V30 4261 H 397.134 6.34114 -1.20703 0
M  V30 4262 H 397.902 7.69966 -2.7766 0
M  V30 4263 N 400.565 -0.0233959 1.57583 0
M  V30 4264 C 401.814 -0.712133 1.8871 0
M  V30 4265 C 402.127 -1.76217 0.848944 0
M  V30 4266 O 403.333 -2.50389 1.04964 0
M  V30 4267 C 401.789 -1.3177 3.3491 0
M  V30 4268 C 401.397 -0.303715 4.46969 0
M  V30 4269 C 403.141 -1.98598 3.75179 0
M  V30 4270 C 401.048 -0.917945 5.84233 0
M  V30 4271 H 399.978 -0.269735 0.704101 0
M  V30 4272 H 402.629 0.0333114 1.8347 0
M  V30 4273 H 401.011 -2.11304 3.34913 0
M  V30 4274 H 402.185 0.465325 4.58445 0
M  V30 4275 H 400.5 0.2628 4.1557 0
M  V30 4276 H 403.097 -2.45416 4.75053 0
M  V30 4277 H 403.44 -2.80659 3.07468 0
M  V30 4278 H 403.973 -1.25831 3.77374 0
M  V30 4279 H 400.712 -0.136633 6.55358 0
M  V30 4280 H 400.232 -1.65669 5.76467 0
M  V30 4281 H 401.911 -1.4236 6.31144 0
M  V30 4282 N 402.043 -1.548 -0.295768 0
M  V30 4283 C 403.268 -1.78653 -1.05346 0
M  V30 4284 C 403.693 -0.546894 -1.79974 0
M  V30 4285 O 403.051 0.502763 -1.7419 0
M  V30 4286 C 403.099 -2.99679 -2.00561 0
M  V30 4287 O 402.203 -2.7317 -3.08953 0
M  V30 4288 H 401.544 -0.59116 -0.302367 0
M  V30 4289 H 404.074 -2.01895 -0.331598 0
M  V30 4290 H 404.084 -3.27793 -2.42932 0
M  V30 4291 H 402.759 -3.89562 -1.4565 0
M  V30 4292 H 401.336 -2.56089 -2.71059 0
M  V30 4293 N 403.521 0.559213 -1.47345 0
M  V30 4294 C 404.761 1.32728 -1.55444 0
M  V30 4295 C 405.125 1.90838 -0.210895 0
M  V30 4296 O 406.326 2.68282 -0.166719 0
M  V30 4297 C 404.597 2.4092 -2.63993 0
M  V30 4298 S 406.156 3.2784 -2.91661 0
M  V30 4299 H 402.974 0.451883 -0.548929 0
M  V30 4300 H 405.576 0.640404 -1.84714 0
M  V30 4301 H 404.28 1.9666 -3.60212 0
M  V30 4302 H 403.811 3.14351 -2.36531 0
M  V30 4303 H 405.826 4.40341 -2.28722 0
M  V30 4304 N 404.999 1.35443 0.805782 0
M  V30 4305 C 406.227 1.31878 1.59423 0
M  V30 4306 C 406.642 -0.103562 1.88516 0
M  V30 4307 O 405.999 -1.05575 1.48863 0
M  V30 4308 C 406.05 2.12426 2.92502 0
M  V30 4309 O 405.771 3.49115 2.6467 0
M  V30 4310 C 407.272 2.16455 3.86862 0
M  V30 4311 H 404.492 0.453002 0.495005 0
M  V30 4312 H 407.036 1.78309 1.00131 0
M  V30 4313 H 405.191 1.69593 3.48306 0
M  V30 4314 H 405.605 3.90957 3.49647 0
M  V30 4315 H 407.079 2.77204 4.77349 0
M  V30 4316 H 407.556 1.16352 4.23508 0
M  V30 4317 H 408.162 2.59453 3.36993 0
M  V30 4318 N 406.477 -1.02803 1.19454 0
M  V30 4319 C 407.425 -2.13213 0.929673 0
M  V30 4320 C 408.419 -1.69011 -0.114806 0
M  V30 4321 O 409.625 -1.79967 0.0345147 0
M  V30 4322 H 406 -0.69662 0.28324 0
M  V30 4323 H 407.971 -2.32744 1.86743 0
M  V30 4324 C 406.72 -3.4429 0.485797 0
M  V30 4325 H 406.043 -3.7872 1.28105 0
M  V30 4326 H 407.483 -4.22638 0.339582 0
M  V30 4327 C 405.942 -3.27258 -0.800244 0
M  V30 4328 O 406.472 -3.55967 -1.86146 0
M  V30 4329 N 404.678 -2.80545 -0.75781 0
M  V30 4330 H 404.225 -2.57382 0.106039 0
M  V30 4331 H 404.183 -2.6953 -1.61867 0
M  V30 4332 N 407.956 -0.998596 -1.21925 0
M  V30 4333 C 408.903 -0.553621 -2.24062 0
M  V30 4334 C 409.873 0.416999 -1.6078 0
M  V30 4335 O 411.058 0.320482 -1.88089 0
M  V30 4336 C 408.198 0.119959 -3.44891 0
M  V30 4337 C 407.311 -0.893077 -4.22668 0
M  V30 4338 C 406.446 -0.192424 -5.30851 0
M  V30 4339 C 405.485 -1.19344 -6.00353 0
M  V30 4340 N 404.622 -0.520707 -7.00166 0
M  V30 4341 H 409.462 -1.4293 -2.61486 0
M  V30 4342 H 406.999 -0.715838 -1.28507 0
M  V30 4343 H 408.957 0.527459 -4.13852 0
M  V30 4344 H 407.587 0.959389 -3.08214 0
M  V30 4345 H 406.639 -1.41886 -3.52948 0
M  V30 4346 H 407.951 -1.65512 -4.70539 0
M  V30 4347 H 407.105 0.271515 -6.06092 0
M  V30 4348 H 405.844 0.602075 -4.83969 0
M  V30 4349 H 404.849 -1.66795 -5.23889 0
M  V30 4350 H 406.074 -1.98891 -6.49322 0
M  V30 4351 H 404.02 0.254252 -6.55507 0
M  V30 4352 H 403.937 -1.2211 -7.46073 0
M  V30 4353 H 405.205 -0.0797596 -7.79459 0
M  V30 4354 N 409.434 1.37368 -0.772513 0
M  V30 4355 C 410.397 2.28601 -0.165541 0
M  V30 4356 C 411.397 1.48062 0.627238 0
M  V30 4357 O 412.587 1.68268 0.450715 0
M  V30 4358 C 409.719 3.32023 0.772897 0
M  V30 4359 H 410.912 2.83787 -0.969787 0
M  V30 4360 H 408.465 1.46647 -0.540775 0
M  V30 4361 H 409.2 2.81962 1.60212 0
M  V30 4362 H 408.985 3.91555 0.206585 0
M  V30 4363 H 410.475 4.00197 1.19298 0
M  V30 4364 N 410.912 0.523116 1.48665 0
M  V30 4365 C 411.86 -0.256859 2.31177 0
M  V30 4366 C 412.854 -0.94199 1.40794 0
M  V30 4367 O 414.06 -0.867157 1.57735 0
M  V30 4368 H 410.435 -0.1017 0.745091 0
M  V30 4369 H 412.406 0.458739 2.94853 0
M  V30 4370 C 411.155 -1.29503 3.22683 0
M  V30 4371 H 410.478 -0.777248 3.92172 0
M  V30 4372 H 411.918 -1.81233 3.83315 0
M  V30 4373 C 410.377 -2.32501 2.43813 0
M  V30 4374 O 410.907 -3.3881 2.15803 0
M  V30 4375 N 409.113 -2.05538 2.05432 0
M  V30 4376 H 408.66 -1.19104 2.28412 0
M  V30 4377 H 408.618 -2.74676 1.52973 0
M  V30 4378 N 412.39 -1.55475 0.257931 0
M  V30 4379 C 413.32 -2.24815 -0.630912 0
M  V30 4380 C 414.301 -1.23224 -1.17259 0
M  V30 4381 O 415.486 -1.51904 -1.20991 0
M  V30 4382 C 412.616 -2.95609 -1.82298 0
M  V30 4383 C 411.57 -4.03982 -1.41359 0
M  V30 4384 C 410.896 -4.6226 -2.68738 0
M  V30 4385 C 412.196 -5.19109 -0.57648 0
M  V30 4386 H 413.89 -2.99354 -0.0526878 0
M  V30 4387 H 411.436 -1.4398 -0.023901 0
M  V30 4388 H 413.389 -3.42822 -2.45054 0
M  V30 4389 H 412.113 -2.18577 -2.42676 0
M  V30 4390 H 410.772 -3.57555 -0.809324 0
M  V30 4391 H 410.42 -3.81915 -3.27338 0
M  V30 4392 H 410.12 -5.35424 -2.42065 0
M  V30 4393 H 411.644 -5.12212 -3.32372 0
M  V30 4394 H 413.058 -5.62479 -1.10861 0
M  V30 4395 H 411.455 -5.98729 -0.405351 0
M  V30 4396 H 412.525 -4.83174 0.408776 0
M  V30 4397 N 413.868 0.0150385 -1.57593 0
M  V30 4398 C 415.093 0.718067 -1.94573 0
M  V30 4399 C 415.518 1.6734 -0.859005 0
M  V30 4400 O 414.876 1.80362 0.184147 0
M  V30 4401 C 414.924 1.43918 -3.30636 0
M  V30 4402 O 414.028 2.55299 -3.23876 0
M  V30 4403 H 413.369 0.192125 -0.635597 0
M  V30 4404 H 415.899 -0.0336708 -2.04572 0
M  V30 4405 H 415.909 1.80598 -3.65853 0
M  V30 4406 H 414.584 0.738619 -4.09289 0
M  V30 4407 H 413.161 2.21058 -3.00312 0
M  V30 4408 N 415.346 1.54954 0.287554 0
M  V30 4409 C 416.278 1.83224 1.37701 0
M  V30 4410 C 417.291 0.715898 1.46215 0
M  V30 4411 O 418.48 0.993565 1.48292 0
M  V30 4412 C 415.58 1.96723 2.75959 0
M  V30 4413 C 414.753 3.27253 2.90215 0
M  V30 4414 C 413.812 3.30998 4.09056 0
M  V30 4415 O 412.838 4.04457 4.00503 0
M  V30 4416 N 414.04 2.57353 5.20336 0
M  V30 4417 H 416.805 2.77254 1.138 0
M  V30 4418 H 414.366 1.54694 0.477652 0
M  V30 4419 H 416.358 1.96615 3.5373 0
M  V30 4420 H 414.928 1.09626 2.92747 0
M  V30 4421 H 414.148 3.40022 1.99447 0
M  V30 4422 H 415.436 4.13365 2.96659 0
M  V30 4423 H 414.834 1.97327 5.30169 0
M  V30 4424 H 413.391 2.62984 5.96391 0
M  V30 4425 N 416.824 -0.551391 1.4764 0
M  V30 4426 C 418.07 -1.31024 1.54792 0
M  V30 4427 C 418.403 -1.9304 0.211967 0
M  V30 4428 O 417.678 -1.78175 -0.77999 0
M  V30 4429 C 417.961 -2.41593 2.67029 0
M  V30 4430 C 417.814 -1.84408 4.10261 0
M  V30 4431 C 419.133 -3.43488 2.75143 0
M  V30 4432 H 416.252 -0.475031 0.563485 0
M  V30 4433 H 418.894 -0.616454 1.79722 0
M  V30 4434 H 417.044 -3.00772 2.45904 0
M  V30 4435 H 418.716 -1.29445 4.42766 0
M  V30 4436 H 416.959 -1.15051 4.18265 0
M  V30 4437 H 417.63 -2.64367 4.84576 0
M  V30 4438 H 420.106 -2.94236 2.94218 0
M  V30 4439 H 418.982 -4.18274 3.55441 0
M  V30 4440 H 419.243 -4.02703 1.82435 0
M  V30 4441 N 418.302 -1.35869 -0.798587 0
M  V30 4442 C 419.265 -1.29307 -1.89242 0
M  V30 4443 C 420.265 -0.202747 -1.59517 0
M  V30 4444 O 421.455 -0.456957 -1.681 0
M  V30 4445 C 418.587 -1.00229 -3.25833 0
M  V30 4446 H 419.78 -2.26576 -1.96478 0
M  V30 4447 H 417.333 -1.20509 -0.995358 0
M  V30 4448 H 418.068 -0.033801 -3.24282 0
M  V30 4449 H 417.853 -1.79121 -3.48795 0
M  V30 4450 H 419.343 -0.98219 -4.05885 0
M  V30 4451 N 419.78 1.02168 -1.19998 0
M  V30 4452 C 421.057 1.72816 -0.916191 0
M  V30 4453 C 421.437 2.03081 0.576325 0
M  V30 4454 O 420.785 1.69122 1.53656 0
M  V30 4455 C 420.995 2.9997 -1.78378 0
M  V30 4456 C 422.343 3.73336 -2.02251 0
M  V30 4457 O 423.367 3.09914 -1.75589 0
M  V30 4458 O 422.226 4.87371 -2.47249 0
M  V30 4459 H 419.32 0.752924 -0.342103 0
M  V30 4460 H 421.866 1.08062 -1.30846 0
M  V30 4461 H 420.638 2.73888 -2.79466 0
M  V30 4462 H 420.261 3.72464 -1.39126 0
M  V30 4463 N 421.258 1.00505 1.21394 0
M  V30 4464 C 422.208 0.536503 2.21598 0
M  V30 4465 C 423.192 -0.401914 1.55799 0
M  V30 4466 O 424.384 -0.226757 1.75541 0
M  V30 4467 C 421.513 -0.135446 3.43033 0
M  V30 4468 C 420.599 0.823992 4.16018 0
M  V30 4469 N 420.99 1.97683 4.6557 0
M  V30 4470 C 419.288 0.642387 4.4135 0
M  V30 4471 C 419.989 2.58003 5.21354 0
M  V30 4472 N 418.965 1.86162 5.1073 0
M  V30 4473 H 422.767 1.41557 2.57563 0
M  V30 4474 H 420.281 0.868878 1.37202 0
M  V30 4475 H 422.278 -0.488584 4.14027 0
M  V30 4476 H 420.938 -1.01049 3.08576 0
M  V30 4477 H 421.949 2.3572 4.61147 0
M  V30 4478 H 418.626 -0.185578 4.17087 0
M  V30 4479 H 420.016 3.555 5.70149 0
M  V30 4480 N 422.737 -1.36956 0.779787 0
M  V30 4481 C 423.667 -2.32761 0.185651 0
M  V30 4482 C 424.648 -1.56177 -0.673989 0
M  V30 4483 O 425.833 -1.84378 -0.609797 0
M  V30 4484 C 422.963 -3.40418 -0.687964 0
M  V30 4485 C 421.917 -4.27941 0.0710102 0
M  V30 4486 C 421.243 -5.26681 -0.922573 0
M  V30 4487 C 422.543 -5.07006 1.25467 0
M  V30 4488 H 424.237 -2.82698 0.986008 0
M  V30 4489 H 421.783 -1.3592 0.475592 0
M  V30 4490 H 423.736 -4.06423 -1.11348 0
M  V30 4491 H 422.46 -2.89025 -1.52093 0
M  V30 4492 H 421.119 -3.63478 0.47739 0
M  V30 4493 H 420.767 -4.71565 -1.7503 0
M  V30 4494 H 420.467 -5.86103 -0.419237 0
M  V30 4495 H 421.991 -5.9556 -1.34686 0
M  V30 4496 H 423.405 -5.66105 0.905401 0
M  V30 4497 H 421.802 -5.75793 1.69063 0
M  V30 4498 H 422.872 -4.3921 2.05481 0
M  V30 4499 N 424.215 -0.530993 -1.48385 0
M  V30 4500 C 425.492 0.0671788 -1.95485 0
M  V30 4501 C 425.872 1.51191 -1.47324 0
M  V30 4502 O 425.22 2.17507 -0.700202 0
M  V30 4503 C 425.43 -0.0511206 -3.48963 0
M  V30 4504 C 426.778 0.107632 -4.24464 0
M  V30 4505 O 427.802 0.0226248 -3.56193 0
M  V30 4506 O 426.661 0.285972 -5.45751 0
M  V30 4507 H 423.755 0.0787365 -0.823243 0
M  V30 4508 H 426.301 -0.595662 -1.58902 0
M  V30 4509 H 425.073 -1.05747 -3.7674 0
M  V30 4510 H 424.696 0.650525 -3.92242 0
M  V30 4511 N 425.693 1.55336 -0.266172 0
M  V30 4512 C 426.643 2.18848 0.639497 0
M  V30 4513 C 427.627 1.1503 1.12503 0
M  V30 4514 O 428.819 1.40875 1.0716 0
M  V30 4515 C 425.948 2.90626 1.82733 0
M  V30 4516 C 425.034 4.01723 1.35939 0
M  V30 4517 N 425.425 5.02145 0.606988 0
M  V30 4518 C 423.723 4.1463 1.6431 0
M  V30 4519 C 424.424 5.80572 0.362138 0
M  V30 4520 N 423.4 5.35551 0.931971 0
M  V30 4521 H 427.202 2.93845 0.0567057 0
M  V30 4522 H 424.716 1.62252 -0.0693312 0
M  V30 4523 H 426.713 3.34569 2.48735 0
M  V30 4524 H 425.373 2.17137 2.41416 0
M  V30 4525 H 426.384 5.17271 0.255198 0
M  V30 4526 H 423.061 3.52326 2.23993 0
M  V30 4527 H 424.451 6.71472 -0.239848 0
M  V30 4528 N 427.171 -0.0066808 1.57599 0
M  V30 4529 C 428.42 -0.692078 1.89455 0
M  V30 4530 C 428.733 -1.75306 0.867586 0
M  V30 4531 O 429.939 -2.49262 1.07614 0
M  V30 4532 C 428.395 -1.2821 3.36289 0
M  V30 4533 C 428.003 -0.256291 4.47266 0
M  V30 4534 C 429.747 -1.94608 3.77264 0
M  V30 4535 C 427.654 -0.855927 5.85173 0
M  V30 4536 H 426.584 -0.262252 0.706923 0
M  V30 4537 H 429.235 0.052769 1.83424 0
M  V30 4538 H 427.617 -2.0774 3.37135 0
M  V30 4539 H 428.791 0.513923 4.57925 0
M  V30 4540 H 427.106 0.306862 4.15268 0
M  V30 4541 H 429.703 -2.40364 4.77629 0
M  V30 4542 H 430.046 -2.77382 3.10427 0
M  V30 4543 H 430.579 -1.21822 3.78688 0
M  V30 4544 H 427.318 -0.0671161 6.55466 0
M  V30 4545 H 426.838 -1.59546 5.78191 0
M  V30 4546 H 428.517 -1.35658 6.32618 0
M  V30 4547 N 428.649 -1.55105 -0.279332 0
M  V30 4548 C 429.596 -1.8755 -1.34513 0
M  V30 4549 C 430.566 -0.726384 -1.49375 0
M  V30 4550 O 431.751 -0.977063 -1.63884 0
M  V30 4551 C 428.891 -2.14738 -2.70151 0
M  V30 4552 C 428.004 -3.42285 -2.63562 0
M  V30 4553 C 427.139 -3.59206 -3.91337 0
M  V30 4554 C 426.178 -4.80467 -3.79233 0
M  V30 4555 N 425.315 -4.94079 -4.98829 0
M  V30 4556 H 430.155 -2.78456 -1.06143 0
M  V30 4557 H 427.692 -1.37867 -0.512936 0
M  V30 4558 H 429.65 -2.28501 -3.49061 0
M  V30 4559 H 428.28 -1.27075 -2.96735 0
M  V30 4560 H 427.332 -3.37029 -1.76397 0
M  V30 4561 H 428.644 -4.31328 -2.50515 0
M  V30 4562 H 427.798 -3.72751 -4.78687 0
M  V30 4563 H 426.537 -2.68337 -4.07243 0
M  V30 4564 H 425.542 -4.66932 -2.90266 0
M  V30 4565 H 426.767 -5.72765 -3.64852 0
M  V30 4566 H 424.713 -4.06139 -5.15158 0
M  V30 4567 H 424.63 -5.77156 -4.8829 0
M  V30 4568 H 425.898 -5.12003 -5.8777 0
M  V30 4569 N 430.127 0.543554 -1.4793 0
M  V30 4570 C 431.037 1.67657 -1.64098 0
M  V30 4571 C 432.053 1.65934 -0.523622 0
M  V30 4572 O 433.229 1.85133 -0.792943 0
M  V30 4573 C 430.294 3.04146 -1.66421 0
M  V30 4574 C 429.355 3.16831 -2.89684 0
M  V30 4575 C 428.588 4.46809 -2.91886 0
M  V30 4576 O 428.811 5.33095 -2.02895 0
M  V30 4577 O 427.745 4.63573 -3.83906 0
M  V30 4578 H 431.571 1.56957 -2.59997 0
M  V30 4579 H 429.156 0.715116 -1.31173 0
M  V30 4580 H 431.038 3.85346 -1.70548 0
M  V30 4581 H 429.713 3.152 -0.736923 0
M  V30 4582 H 428.62 2.34977 -2.91095 0
M  V30 4583 H 429.953 3.10687 -3.81752 0
M  V30 4584 N 431.605 1.3629 0.791371 0
M  V30 4585 C 432.851 1.30605 1.55146 0
M  V30 4586 C 433.184 -0.115042 1.93859 0
M  V30 4587 O 432.459 -1.06798 1.62556 0
M  V30 4588 C 432.742 2.22692 2.82985 0
M  V30 4589 C 432.595 3.73489 2.50651 0
M  V30 4590 C 433.914 2.13588 3.84796 0
M  V30 4591 H 431.033 0.475761 0.562868 0
M  V30 4592 H 433.675 1.66825 0.909358 0
M  V30 4593 H 431.825 1.91933 3.37778 0
M  V30 4594 H 433.497 4.14758 2.01924 0
M  V30 4595 H 431.74 3.93021 1.83622 0
M  V30 4596 H 432.411 4.3333 3.41949 0
M  V30 4597 H 434.887 2.40659 3.39445 0
M  V30 4598 H 433.763 2.80195 4.71998 0
M  V30 4599 H 434.024 1.12256 4.27611 0
M  V30 4600 N 433.083 -1.0153 1.20538 0
M  V30 4601 C 434.046 -2.0826 0.957098 0
M  V30 4602 C 435.046 -1.60657 -0.0678655 0
M  V30 4603 O 436.236 -1.73385 0.168332 0
M  V30 4604 C 433.368 -3.38033 0.441188 0
M  V30 4605 H 434.561 -2.31719 1.90384 0
M  V30 4606 H 432.114 -1.1835 1.02093 0
M  V30 4607 H 432.849 -3.20249 -0.510961 0
M  V30 4608 H 432.634 -3.73911 1.18038 0
M  V30 4609 H 434.124 -4.16613 0.287009 0
M  V30 4610 N 434.561 -1.01147 -1.20859 0
M  V30 4611 C 435.809 -0.696486 -1.89719 0
M  V30 4612 C 436.13 0.775788 -1.78904 0
M  V30 4613 O 435.4 1.55759 -1.18811 0
M  V30 4614 H 433.98 -0.254628 -0.702263 0
M  V30 4615 H 436.642 -1.28197 -1.46804 0
M  V30 4616 H 435.738 -0.975357 -2.96468 0
M  V30 4617 N 436.039 1.36541 -0.78704 0
M  V30 4618 C 437.002 2.28413 -0.189778 0
M  V30 4619 C 438.002 1.48719 0.611499 0
M  V30 4620 O 439.192 1.68737 0.432842 0
M  V30 4621 C 436.324 3.32824 0.737638 0
M  V30 4622 H 437.517 2.82743 -0.999831 0
M  V30 4623 H 435.07 1.46065 -0.556298 0
M  V30 4624 H 435.805 2.83646 1.57212 0
M  V30 4625 H 435.59 3.91752 0.165044 0
M  V30 4626 H 437.08 4.0144 1.15047 0
M  V30 4627 N 437.518 0.538854 1.48102 0
M  V30 4628 C 438.934 0.19732 1.58376 0
M  V30 4629 C 439.134 -1.29971 1.5398 0
M  V30 4630 O 438.19 -2.07861 1.43352 0
M  V30 4631 C 439.503 0.807716 2.89649 0
M  V30 4632 C 441.051 0.77726 3.03196 0
M  V30 4633 C 441.526 1.36639 4.37143 0
M  V30 4634 N 443.017 1.32875 4.43732 0
M  V30 4635 C 443.752 1.7544 5.45901 0
M  V30 4636 N 443.248 2.25776 6.54979 0
M  V30 4637 N 445.041 1.66623 5.36836 0
M  V30 4638 H 437.192 1.5117 1.49202 0
M  V30 4639 H 439.455 0.629327 0.708979 0
M  V30 4640 H 439.161 1.85909 2.98548 0
M  V30 4641 H 439.035 0.289975 3.76084 0
M  V30 4642 H 441.422 -0.265374 2.93904 0
M  V30 4643 H 441.503 1.33256 2.18349 0
M  V30 4644 H 441.147 2.408 4.47189 0
M  V30 4645 H 441.077 0.786689 5.20691 0
M  V30 4646 H 443.568 0.96037 3.65493 0
M  V30 4647 H 443.881 2.56226 7.29087 0
M  V30 4648 H 442.226 2.29775 6.55918 0
M  V30 4649 H 445.417 1.27089 4.50517 0
M  V30 4650 H 445.59 2.00115 6.16326 0
M  V30 4651 N 438.996 -1.55193 0.274407 0
M  V30 4652 C 439.959 -2.212 -0.600279 0
M  V30 4653 C 440.959 -1.18963 -1.08187 0
M  V30 4654 O 442.149 -1.43873 -0.982158 0
M  V30 4655 C 439.281 -2.87739 -1.82809 0
M  V30 4656 H 440.474 -2.9989 -0.0239682 0
M  V30 4657 H 438.027 -1.5628 0.0250192 0
M  V30 4658 H 438.762 -2.13058 -2.44493 0
M  V30 4659 H 438.547 -3.62658 -1.49069 0
M  V30 4660 H 440.037 -3.38171 -2.45011 0
M  V30 4661 N 440.474 -0.00167713 -1.576 0
M  V30 4662 C 441.72 0.683832 -1.90923 0
M  V30 4663 C 442.053 1.7333 -0.875799 0
M  V30 4664 O 441.328 1.94215 0.10525 0
M  V30 4665 C 441.611 1.32543 -3.3482 0
M  V30 4666 C 441.464 0.287387 -4.48881 0
M  V30 4667 C 442.783 2.25114 -3.78169 0
M  V30 4668 H 439.902 0.247125 -0.694333 0
M  V30 4669 H 442.544 -0.0533149 -1.89925 0
M  V30 4670 H 440.694 1.95372 -3.35801 0
M  V30 4671 H 442.366 -0.341346 -4.60035 0
M  V30 4672 H 440.609 -0.39017 -4.32042 0
M  V30 4673 H 441.28 0.775393 -5.46527 0
M  V30 4674 H 443.756 1.723 -3.7875 0
M  V30 4675 H 442.632 2.66971 -4.79602 0
M  V30 4676 H 442.893 3.13092 -3.12131 0
M  V30 4677 N 441.952 1.55251 0.271103 0
M  V30 4678 C 443.2 1.75599 1.00047 0
M  V30 4679 C 443.521 0.561188 1.8675 0
M  V30 4680 O 442.791 -0.423846 1.9126 0
M  V30 4681 H 441.371 0.647562 0.372387 0
M  V30 4682 H 444.033 1.92656 0.294876 0
M  V30 4683 H 443.129 2.65766 1.6363 0
M  V30 4684 N 443.43 -0.535701 1.48216 0
M  V30 4685 C 444.677 -1.29183 1.55942 0
M  V30 4686 C 445.005 -1.93125 0.230857 0
M  V30 4687 O 444.26 -1.79556 -0.778331 0
M  V30 4688 C 444.559 -2.4068 2.64212 0
M  V30 4689 C 444.225 -1.94428 4.06827 0
M  V30 4690 C 442.887 -1.81532 4.45645 0
M  V30 4691 C 445.239 -1.59405 4.96225 0
M  V30 4692 C 442.567 -1.31939 5.71672 0
M  V30 4693 C 444.919 -1.11276 6.22736 0
M  V30 4694 C 443.583 -0.969924 6.60416 0
M  V30 4695 H 442.853 -0.472715 0.570632 0
M  V30 4696 H 445.5 -0.598437 1.81909 0
M  V30 4697 H 443.805 -3.15666 2.32083 0
M  V30 4698 H 445.502 -2.98822 2.67407 0
M  V30 4699 H 442.092 -2.05415 3.76168 0
M  V30 4700 H 446.276 -1.68231 4.66917 0
M  V30 4701 H 441.532 -1.19562 5.99596 0
M  V30 4702 H 445.706 -0.832453 6.91407 0
M  V30 4703 H 443.333 -0.583436 7.57958 0
M  V30 4704 N 444.908 -1.36708 -0.784132 0
M  V30 4705 C 446.156 -1.30972 -1.53918 0
M  V30 4706 C 446.477 0.109086 -1.94695 0
M  V30 4707 O 445.747 1.05048 -1.65353 0
M  V30 4708 H 444.327 -0.481819 -0.570841 0
M  V30 4709 H 446.989 -1.71063 -0.934002 0
M  V30 4710 H 446.085 -1.94061 -2.44431 0
M  V30 4711 N 446.386 1.0089 -1.21074 0
M  V30 4712 C 447.634 1.74262 -1.02358 0
M  V30 4713 C 447.955 1.89869 0.444393 0
M  V30 4714 O 447.225 1.44677 1.32081 0
M  V30 4715 H 445.805 0.645615 -0.375754 0
M  V30 4716 H 448.467 1.21596 -1.52317 0
M  V30 4717 H 447.563 2.74328 -1.4883 0
M  V30 4718 N 447.864 1.01787 1.20321 0
M  V30 4719 C 449.141 0.622978 1.85414 0
M  V30 4720 C 449.521 -0.898887 1.91006 0
M  V30 4721 O 448.869 -1.79112 1.41884 0
M  V30 4722 C 449.079 1.27226 3.24984 0
M  V30 4723 C 450.427 1.3885 4.01255 0
M  V30 4724 O 451.451 1.22857 3.34342 0
M  V30 4725 O 450.31 1.64705 5.2109 0
M  V30 4726 H 447.404 0.215116 0.798533 0
M  V30 4727 H 449.95 1.11533 1.27901 0
M  V30 4728 H 448.722 2.31209 3.15687 0
M  V30 4729 H 448.345 0.767069 3.90131 0
M  V30 4730 N 449.342 -1.36122 0.79427 0
M  V30 4731 C 450.589 -1.99111 0.368905 0
M  V30 4732 C 450.917 -1.63032 -1.0607 0
M  V30 4733 O 450.172 -0.879303 -1.74833 0
M  V30 4734 C 450.471 -3.5409 0.48527 0
M  V30 4735 C 450.137 -4.10003 1.87638 0
M  V30 4736 C 448.799 -4.24986 2.257 0
M  V30 4737 C 451.151 -4.40423 2.78706 0
M  V30 4738 C 448.479 -4.67701 3.54221 0
M  V30 4739 C 450.831 -4.84573 4.0666 0
M  V30 4740 C 449.495 -4.97761 4.44737 0
M  V30 4741 H 448.765 -0.7286 0.134992 0
M  V30 4742 H 451.412 -1.62534 1.01267 0
M  V30 4743 H 449.717 -3.91052 -0.241984 0
M  V30 4744 H 451.414 -4.00766 0.137109 0
M  V30 4745 H 448.004 -3.98784 1.57064 0
M  V30 4746 H 452.188 -4.28412 2.50553 0
M  V30 4747 H 447.444 -4.761 3.83587 0
M  V30 4748 H 451.618 -5.07074 4.77336 0
M  V30 4749 H 449.245 -5.30618 5.44379 0
M  V30 4750 N 450.82 -0.546701 -1.47814 0
M  V30 4751 C 452.097 0.0464413 -1.95545 0
M  V30 4752 C 452.477 1.4962 -1.48919 0
M  V30 4753 O 451.825 2.16752 -0.723232 0
M  V30 4754 C 452.035 -0.0881298 -3.48889 0
M  V30 4755 C 453.383 0.0626059 -4.24554 0
M  V30 4756 O 454.407 -0.0151555 -3.56197 0
M  V30 4757 O 453.266 0.228071 -5.46024 0
M  V30 4758 H 450.36 0.0700004 -0.824032 0
M  V30 4759 H 452.906 -0.612482 -1.58262 0
M  V30 4760 H 451.678 -1.09737 -3.75597 0
M  V30 4761 H 451.301 0.608886 -3.9291 0
M  V30 4762 N 452.299 1.55045 -0.282633 0
M  V30 4763 C 453.547 1.99365 0.331334 0
M  V30 4764 C 453.868 1.1725 1.55812 0
M  V30 4765 O 453.138 0.263871 1.94115 0
M  V30 4766 H 451.718 0.736397 0.125414 0
M  V30 4767 H 454.38 1.90964 -0.389711 0
M  V30 4768 H 453.476 3.0596 0.616036 0
M  V30 4769 N 453.777 0.010035 1.57597 0
M  V30 4770 C 455.023 -0.673697 1.91283 0
M  V30 4771 C 455.356 -1.72863 0.884979 0
M  V30 4772 O 454.631 -1.94268 -0.0949487 0
M  V30 4773 C 454.914 -1.30766 3.35518 0
M  V30 4774 C 454.767 -0.263578 4.49027 0
M  V30 4775 C 456.086 -2.23105 3.79358 0
M  V30 4776 H 453.205 -0.243439 0.695634 0
M  V30 4777 H 455.847 0.0633864 1.89894 0
M  V30 4778 H 453.997 -1.93588 3.36832 0
M  V30 4779 H 455.669 0.365738 4.59848 0
M  V30 4780 H 453.912 0.413077 4.31829 0
M  V30 4781 H 454.583 -0.746398 5.4693 0
M  V30 4782 H 457.059 -1.70289 3.79659 0
M  V30 4783 H 455.935 -2.64424 4.81011 0
M  V30 4784 H 456.196 -3.11433 3.13787 0
M  V30 4785 N 455.255 -1.55392 -0.262866 0
M  V30 4786 C 456.666 -1.67079 -0.833158 0
M  V30 4787 C 457.017 -0.604539 -1.86654 0
M  V30 4788 O 456.142 0.252138 -2.14926 0
M  V30 4789 C 456.737 -3.02891 -1.51797 0
M  V30 4790 C 455.296 -3.16571 -2.03617 0
M  V30 4791 C 454.443 -2.62909 -0.881701 0
M  V30 4792 H 457.394 -1.58652 -0.0389986 0
M  V30 4793 H 457.415 -2.96445 -2.38538 0
M  V30 4794 H 456.927 -3.80473 -0.765619 0
M  V30 4795 H 455.028 -2.43782 -2.81782 0
M  V30 4796 H 455.141 -4.23271 -2.24452 0
M  V30 4797 H 453.505 -2.20324 -1.27786 0
M  V30 4798 H 454.288 -3.43003 -0.14269 0
M  V30 4799 N 456.733 0.527833 -1.48498 0
M  V30 4800 C 458.149 0.856571 -1.34666 0
M  V30 4801 C 458.349 1.98271 -0.35931 0
M  V30 4802 O 457.405 2.51551 0.218703 0
M  V30 4803 C 458.718 1.22207 -2.74747 0
M  V30 4804 C 460.266 1.33183 -2.83251 0
M  V30 4805 C 460.741 1.73075 -4.24039 0
M  V30 4806 N 462.232 1.80174 -4.26722 0
M  V30 4807 C 462.967 2.1243 -5.32598 0
M  V30 4808 N 462.463 2.43096 -6.4875 0
M  V30 4809 N 464.256 2.13454 -5.19994 0
M  V30 4810 H 456.407 -0.215174 -2.11307 0
M  V30 4811 H 458.67 -0.0336281 -0.947403 0
M  V30 4812 H 458.376 0.468195 -3.4857 0
M  V30 4813 H 458.25 2.17173 -3.08409 0
M  V30 4814 H 460.637 2.07647 -2.09683 0
M  V30 4815 H 460.718 0.363333 -2.53206 0
M  V30 4816 H 460.362 0.991712 -4.98124 0
M  V30 4817 H 460.292 2.70979 -4.51529 0
M  V30 4818 H 462.783 1.58744 -3.42942 0
M  V30 4819 H 463.096 2.6682 -7.25277 0
M  V30 4820 H 461.441 2.40611 -6.52021 0
M  V30 4821 H 464.632 1.88956 -4.28268 0
M  V30 4822 H 464.805 2.38261 -6.02608 0
M  V30 4823 N 458.211 1.37122 0.776871 0
M  V30 4824 C 459.457 1.32243 1.53752 0
M  V30 4825 C 459.79 -0.0944745 1.9397 0
M  V30 4826 O 459.065 -1.05068 1.6368 0
M  V30 4827 C 459.348 2.25681 2.80607 0
M  V30 4828 C 459.201 3.76127 2.46676 0
M  V30 4829 C 460.52 2.17657 3.82509 0
M  V30 4830 H 457.639 0.481704 0.557791 0
M  V30 4831 H 460.281 1.6778 0.891612 0
M  V30 4832 H 458.431 1.95505 3.35723 0
M  V30 4833 H 460.103 4.16877 1.97513 0
M  V30 4834 H 458.346 3.94946 1.79443 0
M  V30 4835 H 459.017 4.36933 3.37333 0
M  V30 4836 H 461.493 2.44245 3.36873 0
M  V30 4837 H 460.369 2.85185 4.69 0
M  V30 4838 H 460.63 1.16785 4.26396 0
M  V30 4839 N 459.689 -1.00246 1.21608 0
M  V30 4840 C 461.1 -1.55511 1.03312 0
M  V30 4841 C 461.451 -1.91946 -0.406332 0
M  V30 4842 O 460.576 -1.73753 -1.28992 0
M  V30 4843 C 461.171 -2.82576 1.86913 0
M  V30 4844 C 459.73 -3.34318 1.72941 0
M  V30 4845 C 458.877 -2.07487 1.83968 0
M  V30 4846 H 461.828 -0.824638 1.35593 0
M  V30 4847 H 461.849 -3.54559 1.38087 0
M  V30 4848 H 461.361 -2.56026 2.91672 0
M  V30 4849 H 459.462 -3.65797 0.70877 0
M  V30 4850 H 459.575 -4.05566 2.55055 0
M  V30 4851 H 457.939 -2.20603 1.27304 0
M  V30 4852 H 458.722 -1.83346 2.9024 0
M  V30 4853 N 461.167 -1.02423 -1.1978 0
M  V30 4854 C 462.077 -0.610919 -2.26506 0
M  V30 4855 C 463.093 0.355152 -1.70337 0
M  V30 4856 O 464.269 0.214195 -2.00258 0
M  V30 4857 C 461.334 0.0365921 -3.46681 0
M  V30 4858 C 460.395 -0.976389 -4.18049 0
M  V30 4859 C 459.628 -0.359683 -5.32487 0
M  V30 4860 O 459.851 0.838601 -5.64202 0
M  V30 4861 O 458.785 -1.08022 -5.92127 0
M  V30 4862 H 462.611 -1.49965 -2.64091 0
M  V30 4863 H 460.196 -0.794156 -1.26545 0
M  V30 4864 H 462.078 0.39786 -4.19518 0
M  V30 4865 H 460.753 0.899398 -3.10954 0
M  V30 4866 H 459.66 -1.38916 -3.47352 0
M  V30 4867 H 460.993 -1.80941 -4.57735 0
M  V30 4868 N 462.645 1.35699 -0.801477 0
M  V30 4869 C 463.893 1.9852 -0.37871 0
M  V30 4870 C 464.214 1.63907 1.05638 0
M  V30 4871 O 463.484 0.919013 1.73006 0
M  V30 4872 H 462.064 0.734322 -0.137042 0
M  V30 4873 H 464.726 1.65697 -1.02619 0
M  V30 4874 H 463.822 3.08382 -0.480284 0
M  V30 4875 N 464.123 0.554532 1.47522 0
M  V30 4876 C 465.053 -0.182974 2.32782 0
M  V30 4877 C 466.034 -0.911377 1.43624 0
M  V30 4878 O 467.219 -0.892366 1.72483 0
M  V30 4879 C 464.349 -1.21513 3.25349 0
M  V30 4880 C 463.303 -0.603355 4.23726 0
M  V30 4881 C 462.629 -1.73995 5.05598 0
M  V30 4882 C 463.929 0.441121 5.20434 0
M  V30 4883 H 465.623 0.52882 2.94693 0
M  V30 4884 H 463.169 0.255759 1.41711 0
M  V30 4885 H 465.122 -1.73922 3.83835 0
M  V30 4886 H 463.846 -1.95683 2.61487 0
M  V30 4887 H 462.505 -0.10059 3.66462 0
M  V30 4888 H 462.153 -2.47063 4.38143 0
M  V30 4889 H 461.853 -1.3364 5.72201 0
M  V30 4890 H 463.377 -2.26735 5.66942 0
M  V30 4891 H 464.791 0.00319931 5.733 0
M  V30 4892 H 463.188 0.763402 5.95224 0
M  V30 4893 H 464.258 1.33799 4.66075 0
M  V30 4894 N 465.601 -1.54893 0.290851 0
M  V30 4895 C 466.511 -2.26812 -0.59945 0
M  V30 4896 C 467.527 -1.29963 -1.15696 0
M  V30 4897 O 468.703 -1.62928 -1.18391 0
M  V30 4898 C 465.768 -2.98716 -1.75982 0
M  V30 4899 C 464.829 -4.1108 -1.2374 0
M  V30 4900 C 464.062 -4.79546 -2.34246 0
M  V30 4901 O 464.285 -4.47309 -3.53936 0
M  V30 4902 O 463.219 -5.67165 -2.01512 0
M  V30 4903 H 467.045 -3.03696 -0.0163561 0
M  V30 4904 H 464.63 -1.49289 0.0576755 0
M  V30 4905 H 466.512 -3.43851 -2.43607 0
M  V30 4906 H 465.187 -2.24737 -2.3297 0
M  V30 4907 H 464.094 -3.70367 -0.527163 0
M  V30 4908 H 465.427 -4.87007 -0.71307 0
M  V30 4909 N 467.08 -0.0183926 -1.57589 0
M  V30 4910 C 468.357 0.700621 -1.82622 0
M  V30 4911 C 468.737 1.90951 -0.90005 0
M  V30 4912 O 468.085 2.28452 0.0469145 0
M  V30 4913 C 468.295 1.08899 -3.31575 0
M  V30 4914 C 469.643 1.48514 -3.9778 0
M  V30 4915 O 470.667 1.18227 -3.36007 0
M  V30 4916 O 469.526 2.04903 -5.06633 0
M  V30 4917 H 466.62 0.342743 -0.752633 0
M  V30 4918 H 469.166 -0.0452548 -1.6964 0
M  V30 4919 H 467.938 0.228113 -3.90635 0
M  V30 4920 H 467.561 1.89338 -3.49624 0
M  V30 4921 N 468.558 1.5553 0.254621 0
M  V30 4922 C 469.804 1.77262 0.985193 0
M  V30 4923 C 470.137 0.582286 1.85265 0
M  V30 4924 O 469.412 -0.419666 1.89919 0
M  V30 4925 C 469.695 3.0881 1.85225 0
M  V30 4926 C 469.548 4.38233 1.0135 0
M  V30 4927 C 470.867 3.3653 2.83612 0
M  V30 4928 H 467.986 0.644906 0.356742 0
M  V30 4929 H 470.628 1.88264 0.256236 0
M  V30 4930 H 468.778 2.99562 2.47376 0
M  V30 4931 H 470.45 4.59463 0.411269 0
M  V30 4932 H 468.693 4.32636 0.317574 0
M  V30 4933 H 469.364 5.26644 1.65379 0
M  V30 4934 H 471.84 3.45691 2.31596 0
M  V30 4935 H 470.716 4.29805 3.41407 0
M  V30 4936 H 470.977 2.57064 3.59681 0
M  V30 4937 N 470.036 -0.519951 1.48776 0
M  V30 4938 C 471.261 -1.30447 1.6124 0
M  V30 4939 C 471.686 -1.86055 0.276591 0
M  V30 4940 O 471.044 -1.64915 -0.753183 0
M  V30 4941 C 471.092 -2.42406 2.66967 0
M  V30 4942 O 470.196 -3.45728 2.24824 0
M  V30 4943 H 469.537 -0.385924 0.540332 0
M  V30 4944 H 472.067 -0.624572 1.94834 0
M  V30 4945 H 472.077 -2.88447 2.88552 0
M  V30 4946 H 470.752 -2.01294 3.63941 0
M  V30 4947 H 469.329 -3.05737 2.13494 0
M  V30 4948 N 471.514 -1.37532 -0.769588 0
M  V30 4949 C 472.461 -1.3347 -1.88293 0
M  V30 4950 C 473.431 -0.199891 -1.64893 0
M  V30 4951 O 474.616 -0.389594 -1.8678 0
M  V30 4952 C 471.756 -1.14968 -3.25387 0
M  V30 4953 C 470.869 -2.37698 -3.60727 0
M  V30 4954 C 470.004 -2.12051 -4.8704 0
M  V30 4955 C 469.043 -3.30636 -5.15117 0
M  V30 4956 N 468.18 -3.04527 -6.3262 0
M  V30 4957 H 473.02 -2.28658 -1.911 0
M  V30 4958 H 470.557 -1.13622 -0.934257 0
M  V30 4959 H 472.515 -1.02261 -4.04473 0
M  V30 4960 H 471.145 -0.234263 -3.21949 0
M  V30 4961 H 470.197 -2.61137 -2.76608 0
M  V30 4962 H 471.509 -3.26131 -3.77413 0
M  V30 4963 H 470.663 -1.96388 -5.74035 0
M  V30 4964 H 469.402 -1.20959 -4.72462 0
M  V30 4965 H 468.407 -3.46836 -4.26597 0
M  V30 4966 H 469.632 -4.22582 -5.31603 0
M  V30 4967 H 467.578 -2.16067 -6.19396 0
M  V30 4968 H 467.495 -3.86503 -6.49732 0
M  V30 4969 H 468.763 -2.92485 -7.22546 0
M  V30 4970 N 472.992 0.995999 -1.22138 0
M  V30 4971 C 474.222 1.76809 -1.06874 0
M  V30 4972 C 474.63 1.85265 0.383866 0
M  V30 4973 O 473.973 1.31969 1.27789 0
M  V30 4974 C 474.035 3.2186 -1.60144 0
M  V30 4975 C 473.699 3.36958 -3.0872 0
M  V30 4976 C 474.696 3.2452 -4.0618 0
M  V30 4977 C 472.381 3.62109 -3.48112 0
M  V30 4978 C 474.375 3.37013 -5.41019 0
M  V30 4979 C 472.062 3.74243 -4.831 0
M  V30 4980 C 473.06 3.61702 -5.79362 0
M  V30 4981 O 472.748 3.73436 -7.119 0
M  V30 4982 H 472.48 0.562207 -0.375365 0
M  V30 4983 H 475.034 1.26113 -1.62125 0
M  V30 4984 H 473.264 3.73734 -0.992981 0
M  V30 4985 H 474.953 3.80775 -1.40589 0
M  V30 4986 H 475.719 3.05004 -3.77091 0
M  V30 4987 H 471.598 3.70949 -2.73712 0
M  V30 4988 H 475.142 3.27141 -6.16137 0
M  V30 4989 H 471.039 3.93266 -5.11872 0
M  V30 4990 H 471.807 3.90328 -7.19435 0
M  V30 4991 N 474.47 1.03057 1.19235 0
M  V30 4992 C 475.881 0.757449 1.70645 0
M  V30 4993 C 476.232 -0.722735 1.82403 0
M  V30 4994 O 475.357 -1.56325 1.49638 0
M  V30 4995 C 475.952 1.36833 3.09939 0
M  V30 4996 C 474.511 1.14375 3.58602 0
M  V30 4997 C 473.658 1.46533 2.35422 0
M  V30 4998 H 476.609 1.19828 1.04052 0
M  V30 4999 H 476.63 0.766184 3.72706 0
M  V30 5000 H 476.142 2.44562 3.01349 0
M  V30 5001 H 474.243 0.0847542 3.72504 0
M  V30 5002 H 474.356 1.83366 4.42622 0
M  V30 5003 H 472.72 0.884712 2.38841 0
M  V30 5004 H 473.503 2.55349 2.2946 0
M  V30 5005 N 475.948 -1.35272 0.808662 0
M  V30 5006 C 477.225 -1.93077 0.313181 0
M  V30 5007 C 477.605 -1.73847 -1.19752 0
M  V30 5008 O 476.953 -1.1087 -1.998 0
M  V30 5009 C 477.163 -3.41347 0.726859 0
M  V30 5010 C 478.511 -4.18493 0.717532 0
M  V30 5011 O 479.535 -3.4987 0.668535 0
M  V30 5012 O 478.394 -5.40937 0.777779 0
M  V30 5013 H 475.488 -0.822885 0.0824018 0
M  V30 5014 H 478.034 -1.44335 0.892499 0
M  V30 5015 H 476.806 -3.49082 1.76797 0
M  V30 5016 H 476.429 -3.97411 0.122461 0
M  V30 5017 N 477.426 -0.562348 -1.47226 0
M  V30 5018 C 478.356 0.170627 -2.32876 0
M  V30 5019 C 479.337 0.903748 -1.44106 0
M  V30 5020 O 480.522 0.883206 -1.72954 0
M  V30 5021 C 477.652 1.19786 -3.25989 0
M  V30 5022 C 476.606 0.580875 -4.2404 0
M  V30 5023 C 475.932 1.71311 -5.06514 0
M  V30 5024 C 477.232 -0.468714 -5.20193 0
M  V30 5025 H 478.926 -0.544441 -2.94408 0
M  V30 5026 H 476.472 -0.263271 -1.41573 0
M  V30 5027 H 478.425 1.71884 -3.84752 0
M  V30 5028 H 477.149 1.94294 -2.62521 0
M  V30 5029 H 475.808 0.0811538 -3.6651 0
M  V30 5030 H 475.456 2.44736 -4.39447 0
M  V30 5031 H 475.156 1.30604 -5.72902 0
M  V30 5032 H 476.68 2.23725 -5.68137 0
M  V30 5033 H 478.094 -0.0336028 -5.7329 0
M  V30 5034 H 476.491 -0.794957 -5.94811 0
M  V30 5035 H 477.561 -1.36269 -4.65359 0
M  V30 5036 N 478.904 1.54736 -0.299062 0
M  V30 5037 C 480.153 1.99279 0.311549 0
M  V30 5038 C 480.466 1.19107 1.55154 0
M  V30 5039 O 481.672 1.53908 2.23662 0
M  V30 5040 C 480.128 3.54768 0.605632 0
M  V30 5041 C 479.736 4.43746 -0.615914 0
M  V30 5042 C 481.48 4.07841 1.17754 0
M  V30 5043 C 479.387 5.90663 -0.29509 0
M  V30 5044 H 478.317 0.744359 0.120187 0
M  V30 5045 H 480.968 1.78919 -0.407464 0
M  V30 5046 H 479.35 3.71021 1.38419 0
M  V30 5047 H 480.524 4.39267 -1.39218 0
M  V30 5048 H 478.839 4.01434 -1.10633 0
M  V30 5049 H 481.436 5.15174 1.43179 0
M  V30 5050 H 481.779 3.58324 2.11918 0
M  V30 5051 H 482.312 3.95123 0.460739 0
M  V30 5052 H 479.051 6.44325 -1.20524 0
M  V30 5053 H 478.571 5.98155 0.44394 0
M  V30 5054 H 480.25 6.46916 0.104048 0
M  V30 5055 N 480.382 0.0267497 1.57577 0
M  V30 5056 C 481.345 -0.940916 2.08996 0
M  V30 5057 C 482.345 -1.25561 1.00455 0
M  V30 5058 O 483.535 -1.19634 1.26623 0
M  V30 5059 C 480.667 -2.25814 2.55384 0
M  V30 5060 H 481.86 -0.495628 2.95776 0
M  V30 5061 H 479.413 -0.221241 1.54726 0
M  V30 5062 H 480.148 -2.74976 1.71926 0
M  V30 5063 H 479.933 -2.04285 3.34679 0
M  V30 5064 H 481.423 -2.95178 2.95398 0
M  V30 5065 N 481.861 -1.55662 -0.24637 0
M  V30 5066 C 482.771 -1.93495 -1.32653 0
M  V30 5067 C 483.787 -0.835462 -1.5263 0
M  V30 5068 O 484.963 -1.1369 -1.66242 0
M  V30 5069 C 482.028 -2.22242 -2.66101 0
M  V30 5070 C 481.089 -3.45625 -2.54641 0
M  V30 5071 C 480.322 -3.72991 -3.81724 0
M  V30 5072 O 480.545 -3.02421 -4.8363 0
M  V30 5073 O 479.479 -4.66515 -3.80325 0
M  V30 5074 H 483.305 -2.85498 -1.03559 0
M  V30 5075 H 480.89 -1.42551 -0.44717 0
M  V30 5076 H 482.772 -2.42037 -3.44958 0
M  V30 5077 H 481.447 -1.33417 -2.94926 0
M  V30 5078 H 480.354 -3.31136 -1.74067 0
M  V30 5079 H 481.687 -4.34754 -2.3076 0
M  V30 5080 N 483.339 0.512053 -1.4905 0
M  V30 5081 C 484.269 1.62365 -1.67809 0
M  V30 5082 C 485.25 1.61737 -0.526809 0
M  V30 5083 O 486.435 1.78651 -0.761404 0
M  V30 5084 C 483.565 3.00895 -1.73435 0
M  V30 5085 C 482.519 3.16387 -2.88242 0
M  V30 5086 C 481.845 4.56157 -2.78971 0
M  V30 5087 C 483.145 2.97457 -4.29321 0
M  V30 5088 H 484.839 1.46921 -2.60873 0
M  V30 5089 H 482.385 0.705379 -1.2554 0
M  V30 5090 H 484.338 3.78549 -1.85145 0
M  V30 5091 H 483.062 3.17403 -0.769619 0
M  V30 5092 H 481.721 2.41155 -2.76116 0
M  V30 5093 H 481.369 4.69525 -1.8043 0
M  V30 5094 H 481.069 4.67465 -3.5602 0
M  V30 5095 H 482.593 5.35886 -2.92675 0
M  V30 5096 H 484.007 3.64888 -4.42187 0
M  V30 5097 H 482.404 3.20245 -5.07507 0
M  V30 5098 H 483.474 1.93692 -4.44535 0
M  V30 5099 N 484.817 1.37938 0.762283 0
M  V30 5100 C 485.747 1.37176 1.88958 0
M  V30 5101 C 486.728 0.238945 1.68413 0
M  V30 5102 O 487.913 0.440726 1.89133 0
M  V30 5103 C 485.043 1.18742 3.2637 0
M  V30 5104 C 483.997 2.29136 3.61498 0
M  V30 5105 C 483.323 1.95816 4.97554 0
M  V30 5106 C 484.623 3.71363 3.6727 0
M  V30 5107 H 486.317 2.31509 1.89853 0
M  V30 5108 H 483.863 1.11438 0.912005 0
M  V30 5109 H 485.816 1.16837 4.04879 0
M  V30 5110 H 484.54 0.208683 3.25933 0
M  V30 5111 H 483.199 2.30213 2.85303 0
M  V30 5112 H 482.847 0.964475 4.93667 0
M  V30 5113 H 482.547 2.69745 5.22026 0
M  V30 5114 H 484.071 1.95513 5.78452 0
M  V30 5115 H 485.485 3.72364 4.35911 0
M  V30 5116 H 483.882 4.44425 4.03245 0
M  V30 5117 H 484.952 4.04305 2.67704 0
M  V30 5118 N 486.295 -0.989507 1.22664 0
M  V30 5119 C 487.711 -1.25395 0.987331 0
M  V30 5120 C 487.911 -1.9899 -0.317056 0
M  V30 5121 O 486.967 -2.30141 -1.03882 0
M  V30 5122 C 488.28 -2.06242 2.18826 0
M  V30 5123 C 489.828 -2.19413 2.23219 0
M  V30 5124 C 490.303 -3.03648 3.42873 0
M  V30 5125 N 491.794 -3.11234 3.43056 0
M  V30 5126 C 492.529 -3.7671 4.32293 0
M  V30 5127 N 492.025 -4.44085 5.31752 0
M  V30 5128 N 493.818 -3.73505 4.2006 0
M  V30 5129 H 485.969 -0.496212 2.06522 0
M  V30 5130 H 488.232 -0.281784 0.905153 0
M  V30 5131 H 487.938 -1.59531 3.13437 0
M  V30 5132 H 487.812 -3.06996 2.19165 0
M  V30 5133 H 490.199 -2.65336 1.29154 0
M  V30 5134 H 490.28 -1.18078 2.26917 0
M  V30 5135 H 489.924 -2.58424 4.37241 0
M  V30 5136 H 489.854 -4.05132 3.36416 0
M  V30 5137 H 492.345 -2.63287 2.71088 0
M  V30 5138 H 492.658 -4.91797 5.96117 0
M  V30 5139 H 491.003 -4.42822 5.35662 0
M  V30 5140 H 494.194 -3.20033 3.41609 0
M  V30 5141 H 494.367 -4.24253 4.8981 0
M  V30 5142 N 487.773 -1.03688 -1.18687 0
M  V30 5143 C 489.189 -0.755413 -1.4059 0
M  V30 5144 C 489.389 0.656659 -1.905 0
M  V30 5145 O 488.445 1.42144 -2.08689 0
M  V30 5146 C 489.758 -1.7983 -2.41001 0
M  V30 5147 C 491.306 -1.81877 -2.54735 0
M  V30 5148 C 491.781 -2.85148 -3.58406 0
M  V30 5149 N 493.272 -2.84015 -3.6591 0
M  V30 5150 C 494.007 -3.60573 -4.45841 0
M  V30 5151 N 493.503 -4.46871 -5.29413 0
M  V30 5152 N 495.296 -3.49079 -4.40568 0
M  V30 5153 H 487.447 -1.94818 -0.846148 0
M  V30 5154 H 489.71 -0.842727 -0.434184 0
M  V30 5155 H 489.416 -2.81097 -2.1137 0
M  V30 5156 H 489.29 -1.62727 -3.40294 0
M  V30 5157 H 491.677 -0.812836 -2.83685 0
M  V30 5158 H 491.758 -2.03057 -1.55568 0
M  V30 5159 H 491.402 -3.85918 -3.30197 0
M  V30 5160 H 491.332 -2.61224 -4.57241 0
M  V30 5161 H 493.823 -2.21431 -3.0623 0
M  V30 5162 H 494.136 -5.02007 -5.87545 0
M  V30 5163 H 492.481 -4.5094 -5.28846 0
M  V30 5164 H 495.672 -2.81066 -3.74325 0
M  V30 5165 H 495.845 -4.08994 -5.02621 0
M  V30 5166 N 489.251 1.34841 -0.815825 0
M  V30 5167 C 490.199 2.31549 -0.220888 0
M  V30 5168 C 491.193 1.5707 0.634457 0
M  V30 5169 O 492.399 1.72125 0.526589 0
M  V30 5170 H 488.774 0.750153 -0.0526782 0
M  V30 5171 H 490.745 2.7926 -1.05149 0
M  V30 5172 C 489.494 3.42335 0.608427 0
M  V30 5173 H 488.817 3.9978 -0.0404121 0
M  V30 5174 H 490.257 4.12258 0.990931 0
M  V30 5175 C 488.716 2.86173 1.77782 0
M  V30 5176 O 489.246 2.80474 2.87571 0
M  V30 5177 N 487.452 2.43093 1.59229 0
M  V30 5178 H 486.999 2.47928 0.699237 0
M  V30 5179 H 486.957 2.05866 2.37627 0
M  V30 5180 N 490.729 0.570148 1.46925 0
M  V30 5181 C 491.975 0.0593124 2.03314 0
M  V30 5182 C 492.33 -1.28139 1.43521 0
M  V30 5183 O 491.623 -1.82411 0.586245 0
M  V30 5184 C 491.817 -0.0780336 3.57315 0
M  V30 5185 C 491.646 1.2478 4.32042 0
M  V30 5186 C 490.416 1.81859 4.7144 0
M  V30 5187 C 492.614 2.16808 4.66368 0
M  V30 5188 N 490.596 3.08313 5.30864 0
M  V30 5189 C 491.967 3.27845 5.2623 0
M  V30 5190 C 494.022 2.16643 4.48297 0
M  V30 5191 C 492.725 4.38832 5.69929 0
M  V30 5192 C 494.751 3.26652 4.93004 0
M  V30 5193 C 494.113 4.36408 5.52926 0
M  V30 5194 H 490.212 0.0641804 0.779362 0
M  V30 5195 H 492.796 0.760285 1.79242 0
M  V30 5196 H 490.967 -0.748151 3.81126 0
M  V30 5197 H 492.699 -0.59211 4.00345 0
M  V30 5198 H 489.454 1.35502 4.53802 0
M  V30 5199 H 489.878 3.72802 5.65108 0
M  V30 5200 H 494.52 1.33065 4.01315 0
M  V30 5201 H 492.238 5.23162 6.15896 0
M  V30 5202 H 495.824 3.27627 4.80782 0
M  V30 5203 H 494.704 5.20127 5.86888 0
M  V30 5204 N 492.207 -1.54576 0.307264 0
M  V30 5205 C 493.435 -2.04675 -0.302597 0
M  V30 5206 C 493.85 -1.18425 -1.47041 0
M  V30 5207 O 493.207 -0.211257 -1.81273 0
M  V30 5208 C 493.258 -3.53575 -0.752801 0
M  V30 5209 O 492.979 -4.36547 0.368536 0
M  V30 5210 C 494.48 -4.19699 -1.42717 0
M  V30 5211 H 491.7 -0.66786 -0.0648374 0
M  V30 5212 H 494.244 -1.99516 0.448716 0
M  V30 5213 H 492.399 -3.59074 -1.45412 0
M  V30 5214 H 492.813 -5.24497 0.0168937 0
M  V30 5215 H 494.287 -5.25388 -1.69327 0
M  V30 5216 H 494.764 -3.69815 -2.36925 0
M  V30 5217 H 495.37 -4.18293 -0.768856 0
M  V30 5218 N 493.685 -0.035106 -1.57561 0
M  V30 5219 C 494.595 0.960295 -2.14046 0
M  V30 5220 C 495.611 1.3529 -1.0942 0
M  V30 5221 O 496.787 1.43309 -1.41508 0
M  V30 5222 C 493.852 2.22214 -2.66124 0
M  V30 5223 C 492.913 1.8894 -3.85487 0
M  V30 5224 C 492.146 3.09109 -4.35072 0
M  V30 5225 O 492.369 4.21963 -3.83802 0
M  V30 5226 O 491.303 2.91058 -5.26848 0
M  V30 5227 H 495.129 0.509983 -2.99387 0
M  V30 5228 H 492.714 0.185853 -1.48239 0
M  V30 5229 H 494.596 2.96279 -2.99661 0
M  V30 5230 H 493.271 2.66414 -1.83862 0
M  V30 5231 H 492.178 1.12241 -3.56865 0
M  V30 5232 H 493.511 1.49551 -4.6893 0
M  V30 5233 N 495.163 1.55791 0.238111 0
M  V30 5234 C 496.126 1.90239 1.27835 0
M  V30 5235 C 497.126 0.779552 1.4064 0
M  V30 5236 O 498.316 1.04747 1.3919 0
M  V30 5237 C 495.448 2.13859 2.65475 0
M  V30 5238 H 496.641 2.83262 0.985034 0
M  V30 5239 H 494.194 1.48818 0.477799 0
M  V30 5240 H 494.929 1.23334 2.99932 0
M  V30 5241 H 494.714 2.95643 2.57561 0
M  V30 5242 H 496.204 2.41664 3.40571 0
M  V30 5243 N 496.642 -0.504142 1.49319 0
M  V30 5244 C 497.552 -1.63248 1.68486 0
M  V30 5245 C 498.568 -1.64488 0.567432 0
M  V30 5246 O 499.744 -1.82966 0.841749 0
M  V30 5247 C 496.809 -2.99627 1.74426 0
M  V30 5248 C 495.87 -3.09039 2.97982 0
M  V30 5249 C 495.103 -4.38913 3.0363 0
M  V30 5250 O 495.326 -5.27528 2.16958 0
M  V30 5251 O 494.26 -4.53231 3.96062 0
M  V30 5252 H 498.086 -1.50008 2.64067 0
M  V30 5253 H 495.671 -0.680086 1.33023 0
M  V30 5254 H 497.553 -3.80689 1.80705 0
M  V30 5255 H 496.228 -3.13136 0.820233 0
M  V30 5256 H 495.135 -2.27177 2.97223 0
M  V30 5257 H 496.468 -3.00456 3.89855 0
M  V30 5258 N 498.12 -1.38341 -0.754957 0
M  V30 5259 C 499.366 -1.34672 -1.51628 0
M  V30 5260 C 499.699 0.0636036 -1.94096 0
M  V30 5261 O 498.974 1.0245 -1.6533 0
M  V30 5262 C 499.257 -2.30116 -2.76981 0
M  V30 5263 C 499.11 -3.80003 -2.4066 0
M  V30 5264 C 500.429 -2.23715 -3.78998 0
M  V30 5265 H 497.548 -0.490517 -0.550056 0
M  V30 5266 H 500.19 -1.69178 -0.864807 0
M  V30 5267 H 498.34 -2.00821 -3.3257 0
M  V30 5268 H 500.012 -4.19966 -1.90856 0
M  V30 5269 H 498.255 -3.97751 -1.73137 0
M  V30 5270 H 498.926 -4.42244 -3.30339 0
M  V30 5271 H 501.402 -2.49574 -3.32945 0
M  V30 5272 H 500.278 -2.9261 -4.64403 0
M  V30 5273 H 500.539 -1.23554 -4.24484 0
M  V30 5274 N 499.598 0.982988 -1.23187 0
M  V30 5275 C 500.545 2.07491 -1.01075 0
M  V30 5276 C 501.515 1.65949 0.070905 0
M  V30 5277 O 502.7 1.90629 -0.0806822 0
M  V30 5278 C 499.84 3.39751 -0.605261 0
M  V30 5279 C 498.953 3.94578 -1.75876 0
M  V30 5280 C 498.088 5.15039 -1.3003 0
M  V30 5281 C 497.127 5.62027 -2.42472 0
M  V30 5282 N 496.264 6.73719 -1.97602 0
M  V30 5283 H 501.104 2.25739 -1.9454 0
M  V30 5284 H 498.641 1.10659 -0.969179 0
M  V30 5285 H 500.599 4.15719 -0.351279 0
M  V30 5286 H 499.229 3.21473 0.292382 0
M  V30 5287 H 498.281 3.1539 -2.12681 0
M  V30 5288 H 499.593 4.25422 -2.60418 0
M  V30 5289 H 498.747 5.9833 -1.00429 0
M  V30 5290 H 497.486 4.85843 -0.425216 0
M  V30 5291 H 496.491 4.77318 -2.7285 0
M  V30 5292 H 497.716 5.93244 -3.30512 0
M  V30 5293 H 495.662 6.46287 -1.1247 0
M  V30 5294 H 495.579 7.03934 -2.75705 0
M  V30 5295 H 496.847 7.6049 -1.71098 0
M  V30 5296 N 501.076 1.04316 1.18135 0
M  V30 5297 C 502.324 0.746542 1.87806 0
M  V30 5298 C 502.645 -0.728082 1.80898 0
M  V30 5299 O 501.915 -1.52554 1.22899 0
M  V30 5300 H 500.495 0.273157 0.695265 0
M  V30 5301 H 503.157 1.32044 1.43354 0
M  V30 5302 H 502.253 1.05362 2.93778 0
M  V30 5303 N 502.554 -1.34406 0.822964 0
M  V30 5304 C 503.517 -2.2783 0.250271 0
M  V30 5305 C 504.517 -1.50288 -0.571854 0
M  V30 5306 O 505.707 -1.69825 -0.387952 0
M  V30 5307 C 502.839 -3.34663 -0.649137 0
M  V30 5308 H 504.032 -2.79992 1.07444 0
M  V30 5309 H 501.585 -1.44539 0.594829 0
M  V30 5310 H 502.32 -2.87714 -1.49637 0
M  V30 5311 H 502.105 -3.92052 -0.0611199 0
M  V30 5312 H 503.595 -4.04349 -1.04363 0
M  V30 5313 N 504.032 -0.577932 -1.46621 0
M  V30 5314 C 504.962 0.145917 -2.33044 0
M  V30 5315 C 505.943 0.888412 -1.45056 0
M  V30 5316 O 507.128 0.864812 -1.73881 0
M  V30 5317 C 504.258 1.16322 -3.27241 0
M  V30 5318 C 503.212 0.535868 -4.24632 0
M  V30 5319 C 502.538 1.65929 -5.08303 0
M  V30 5320 C 503.838 -0.523861 -5.19666 0
M  V30 5321 H 505.532 -0.575636 -2.93814 0
M  V30 5322 H 503.078 -0.278272 -1.41286 0
M  V30 5323 H 505.031 1.67793 -3.86553 0
M  V30 5324 H 503.755 1.91498 -2.64567 0
M  V30 5325 H 502.414 0.0422759 -3.66576 0
M  V30 5326 H 502.062 2.40061 -4.42018 0
M  V30 5327 H 501.762 1.2452 -5.74255 0
M  V30 5328 H 503.286 2.17686 -5.70478 0
M  V30 5329 H 504.7 -0.0944059 -5.73222 0
M  V30 5330 H 503.097 -0.858 -5.93935 0
M  V30 5331 H 504.167 -1.41197 -4.63887 0
M  V30 5332 N 505.51 1.54411 -0.315457 0
M  V30 5333 C 506.473 2.22713 0.54142 0
M  V30 5334 C 507.473 1.2179 1.04995 0
M  V30 5335 O 508.663 1.46426 0.943667 0
M  V30 5336 C 505.795 2.92485 1.75116 0
M  V30 5337 H 506.988 2.99849 -0.0555508 0
M  V30 5338 H 504.541 1.56159 -0.0664453 0
M  V30 5339 H 505.276 2.19466 2.38758 0
M  V30 5340 H 505.061 3.66483 1.39401 0
M  V30 5341 H 506.551 3.44548 2.35959 0
M  V30 5342 N 506.988 0.0434614 1.5754 0
M  V30 5343 C 508.265 -0.671479 1.83713 0
M  V30 5344 C 508.645 -1.89495 0.930315 0
M  V30 5345 O 507.993 -2.28498 -0.0105639 0
M  V30 5346 C 508.203 -1.0361 3.33266 0
M  V30 5347 C 509.551 -1.42167 4.00092 0
M  V30 5348 O 510.575 -1.12866 3.37846 0
M  V30 5349 O 509.434 -1.96817 5.09829 0
M  V30 5350 H 506.528 -0.330726 0.75799 0
M  V30 5351 H 509.074 0.0722373 1.69546 0
M  V30 5352 H 507.846 -0.165938 3.90948 0
M  V30 5353 H 507.469 -1.83751 3.52592 0
M  V30 5354 N 508.466 -1.55915 -0.229846 0
M  V30 5355 C 509.414 -1.9258 -1.30444 0
M  V30 5356 C 510.408 -0.806839 -1.48951 0
M  V30 5357 O 511.614 -0.991606 -1.50224 0
M  V30 5358 H 507.989 -0.611878 -0.437161 0
M  V30 5359 H 509.96 -2.82264 -0.96797 0
M  V30 5360 C 508.709 -2.25171 -2.6494 0
M  V30 5361 H 508.032 -3.10782 -2.51504 0
M  V30 5362 H 509.472 -2.54716 -3.38963 0
M  V30 5363 C 507.931 -1.07394 -3.19324 0
M  V30 5364 O 508.461 -0.330759 -4.00336 0
M  V30 5365 N 506.667 -0.859984 -2.77584 0
M  V30 5366 H 506.214 -1.46605 -2.11813 0
M  V30 5367 H 506.172 -0.0736671 -3.14314 0
M  V30 5368 N 509.944 0.496216 -1.49584 0
M  V30 5369 C 510.874 1.60576 -1.69521 0
M  V30 5370 C 511.855 1.61169 -0.543933 0
M  V30 5371 O 513.04 1.77834 -0.78031 0
M  V30 5372 C 510.17 2.99038 -1.76616 0
M  V30 5373 C 509.124 3.13312 -2.91581 0
M  V30 5374 C 508.45 4.53172 -2.83794 0
M  V30 5375 C 509.75 2.92886 -4.32452 0
M  V30 5376 H 511.444 1.44146 -2.62416 0
M  V30 5377 H 508.99 0.692024 -1.26282 0
M  V30 5378 H 510.943 3.76564 -1.8915 0
M  V30 5379 H 509.667 3.16568 -0.80324 0
M  V30 5380 H 508.326 2.38213 -2.78658 0
M  V30 5381 H 507.974 4.67585 -1.854 0
M  V30 5382 H 507.674 4.63662 -3.60958 0
M  V30 5383 H 509.198 5.32752 -2.98342 0
M  V30 5384 H 510.612 3.60178 -4.46032 0
M  V30 5385 H 509.009 3.14844 -5.10875 0
M  V30 5386 H 510.079 1.88966 -4.46565 0
M  V30 5387 N 511.423 1.38739 0.74761 0
M  V30 5388 C 512.353 1.39173 1.87492 0
M  V30 5389 C 513.334 0.256794 1.6815 0
M  V30 5390 O 514.519 0.460762 1.88655 0
M  V30 5391 C 511.649 1.22197 3.25093 0
M  V30 5392 C 510.603 2.32957 3.59047 0
M  V30 5393 C 509.929 2.01082 4.95449 0
M  V30 5394 C 511.229 3.75237 3.6331 0
M  V30 5395 H 512.923 2.3351 1.87386 0
M  V30 5396 H 510.469 1.12399 0.900134 0
M  V30 5397 H 512.422 1.21124 4.03617 0
M  V30 5398 H 511.146 0.243241 3.25693 0
M  V30 5399 H 509.805 2.33226 2.82845 0
M  V30 5400 H 509.453 1.01678 4.92616 0
M  V30 5401 H 509.153 2.75267 5.19136 0
M  V30 5402 H 510.677 2.01638 5.76346 0
M  V30 5403 H 512.091 3.76966 4.31937 0
M  V30 5404 H 510.488 4.48677 3.98509 0
M  V30 5405 H 511.558 4.07122 2.634 0
M  V30 5406 N 512.901 -0.976442 1.23707 0
M  V30 5407 C 514.317 -1.24341 1.00058 0
M  V30 5408 C 514.517 -1.99315 -0.295932 0
M  V30 5409 O 513.573 -2.3123 -1.01435 0
M  V30 5410 C 514.886 -2.03909 2.21001 0
M  V30 5411 C 516.434 -2.17034 2.25534 0
M  V30 5412 C 516.909 -2.99994 3.46075 0
M  V30 5413 N 518.4 -3.07578 3.46338 0
M  V30 5414 C 519.135 -3.72104 4.36264 0
M  V30 5415 N 518.631 -4.3842 5.36432 0
M  V30 5416 N 520.424 -3.69029 4.23998 0
M  V30 5417 H 512.575 -0.47428 2.07037 0
M  V30 5418 H 514.838 -0.272167 0.908091 0
M  V30 5419 H 514.544 -1.56198 3.15111 0
M  V30 5420 H 514.418 -3.04654 2.22409 0
M  V30 5421 H 516.805 -2.63951 1.31961 0
M  V30 5422 H 516.886 -1.15664 2.28156 0
M  V30 5423 H 516.53 -2.53772 4.39957 0
M  V30 5424 H 516.46 -4.01541 3.40694 0
M  V30 5425 H 518.951 -2.60397 2.73865 0
M  V30 5426 H 519.264 -4.85447 6.013 0
M  V30 5427 H 517.609 -4.37116 5.40328 0
M  V30 5428 H 520.8 -3.16392 3.44984 0
M  V30 5429 H 520.973 -4.19034 4.94282 0
M  V30 5430 N 514.379 -1.04941 -1.1758 0
M  V30 5431 C 515.625 -0.759112 -1.88057 0
M  V30 5432 C 515.958 0.711918 -1.8068 0
M  V30 5433 O 515.233 1.52035 -1.21308 0
M  V30 5434 C 515.516 -1.237 -3.38187 0
M  V30 5435 C 515.369 -2.77078 -3.54327 0
M  V30 5436 C 516.688 -0.834014 -4.32125 0
M  V30 5437 H 513.807 -0.277237 -0.682868 0
M  V30 5438 H 516.449 -1.30296 -1.38286 0
M  V30 5439 H 514.599 -0.774337 -3.80705 0
M  V30 5440 H 516.271 -3.31449 -3.20842 0
M  V30 5441 H 514.514 -3.16477 -2.96689 0
M  V30 5442 H 515.185 -3.05577 -4.59703 0
M  V30 5443 H 517.661 -1.23228 -3.97434 0
M  V30 5444 H 516.537 -1.19603 -5.35711 0
M  V30 5445 H 516.798 0.262195 -4.41322 0
M  V30 5446 N 515.857 1.33968 -0.830081 0
M  V30 5447 C 517.104 1.98063 -0.421566 0
M  V30 5448 C 517.432 1.65787 1.0171 0
M  V30 5449 O 516.687 0.925348 1.72441 0
M  V30 5450 C 516.986 3.52679 -0.57898 0
M  V30 5451 C 516.652 4.04884 -1.98443 0
M  V30 5452 C 515.314 4.18852 -2.36888 0
M  V30 5453 C 517.666 4.32879 -2.90285 0
M  V30 5454 C 514.994 4.58145 -3.66497 0
M  V30 5455 C 517.346 4.7362 -4.19364 0
M  V30 5456 C 516.01 4.85794 -4.57778 0
M  V30 5457 H 515.28 0.724765 -0.154262 0
M  V30 5458 H 517.927 1.59792 -1.05541 0
M  V30 5459 H 516.232 3.91556 0.138219 0
M  V30 5460 H 517.929 4.00261 -0.243317 0
M  V30 5461 H 514.519 3.9448 -1.67581 0
M  V30 5462 H 518.703 4.21619 -2.61823 0
M  V30 5463 H 513.959 4.65762 -3.96075 0
M  V30 5464 H 518.133 4.9424 -4.90612 0
M  V30 5465 H 515.76 5.15998 -5.58256 0
M  V30 5466 N 517.335 0.585699 1.46312 0
M  V30 5467 C 518.245 -0.148236 2.34131 0
M  V30 5468 C 519.261 -0.882972 1.49932 0
M  V30 5469 O 520.437 -0.845484 1.82794 0
M  V30 5470 C 517.502 -1.14714 3.27172 0
M  V30 5471 C 516.563 -0.416746 4.27272 0
M  V30 5472 C 515.796 -1.36806 5.15868 0
M  V30 5473 O 516.019 -2.60475 5.07454 0
M  V30 5474 O 514.953 -0.877018 5.95476 0
M  V30 5475 H 518.779 0.572882 2.98248 0
M  V30 5476 H 516.364 0.346082 1.45336 0
M  V30 5477 H 518.246 -1.72303 3.84564 0
M  V30 5478 H 516.921 -1.84967 2.65648 0
M  V30 5479 H 515.828 0.201061 3.73559 0
M  V30 5480 H 517.161 0.244872 4.9159 0
M  V30 5481 N 518.813 -1.54241 0.323641 0
M  V30 5482 C 519.776 -2.22997 -0.529602 0
M  V30 5483 C 520.776 -1.22345 -1.04347 0
M  V30 5484 O 521.966 -1.46924 -0.935889 0
M  V30 5485 C 519.098 -2.93409 -1.73562 0
M  V30 5486 H 520.291 -2.99815 0.0714518 0
M  V30 5487 H 517.844 -1.56121 0.0747258 0
M  V30 5488 H 518.579 -2.20729 -2.37591 0
M  V30 5489 H 518.364 -3.67217 -1.37456 0
M  V30 5490 H 519.854 -3.45794 -2.34128 0
M  V30 5491 N 520.291 -0.0518155 -1.57515 0
M  V30 5492 C 521.537 0.622745 -1.93002 0
M  V30 5493 C 521.87 1.70456 -0.930499 0
M  V30 5494 O 521.145 1.94452 0.0434086 0
M  V30 5495 C 521.428 1.21824 -3.38867 0
M  V30 5496 C 521.281 0.144434 -4.49568 0
M  V30 5497 C 522.6 2.12968 -3.8514 0
M  V30 5498 H 519.719 0.22491 -0.701844 0
M  V30 5499 H 522.361 -0.113711 -1.89659 0
M  V30 5500 H 520.511 1.8459 -3.41846 0
M  V30 5501 H 522.183 -0.48753 -4.58717 0
M  V30 5502 H 520.426 -0.527424 -4.30582 0
M  V30 5503 H 521.097 0.601127 -5.48717 0
M  V30 5504 H 523.573 1.60163 -3.8404 0
M  V30 5505 H 522.449 2.51578 -4.87852 0
M  V30 5506 H 522.71 3.03004 -3.21934 0
M  V30 5507 N 521.769 1.56035 0.221574 0
M  V30 5508 C 522.679 1.95581 1.29558 0
M  V30 5509 C 523.695 0.859639 1.51282 0
M  V30 5510 O 524.871 1.16321 1.64413 0
M  V30 5511 C 521.936 2.26447 2.62531 0
M  V30 5512 C 520.997 3.49632 2.4911 0
M  V30 5513 C 520.23 3.79017 3.75742 0
M  V30 5514 O 520.453 3.10077 4.78757 0
M  V30 5515 O 519.387 4.72507 3.72855 0
M  V30 5516 H 523.213 2.8711 0.990035 0
M  V30 5517 H 520.798 1.43244 0.424434 0
M  V30 5518 H 522.68 2.47494 3.41064 0
M  V30 5519 H 521.355 1.38092 2.92766 0
M  V30 5520 H 520.262 3.33864 1.68777 0
M  V30 5521 H 521.595 4.3837 2.23814 0
M  V30 5522 N 523.247 -0.488276 1.49845 0
M  V30 5523 C 524.179 -1.60539 1.63584 0
M  V30 5524 C 525.192 -1.5434 0.517972 0
M  V30 5525 O 526.381 -1.60041 0.790516 0
M  V30 5526 C 523.481 -2.99374 1.58835 0
M  V30 5527 C 522.654 -3.30624 2.86368 0
M  V30 5528 C 521.713 -4.4893 2.74496 0
M  V30 5529 O 520.739 -4.50085 3.48443 0
M  V30 5530 N 521.941 -5.49591 1.86894 0
M  V30 5531 H 524.706 -1.49176 2.59936 0
M  V30 5532 H 522.267 -0.67639 1.47094 0
M  V30 5533 H 524.259 -3.76459 1.48529 0
M  V30 5534 H 522.829 -3.04595 0.702892 0
M  V30 5535 H 522.049 -2.42314 3.1093 0
M  V30 5536 H 523.337 -3.48305 3.70892 0
M  V30 5537 H 522.735 -5.51467 1.26097 0
M  V30 5538 H 521.292 -6.25728 1.82503 0
M  V30 5539 N 524.725 -1.39134 -0.740242 0
M  V30 5540 C 525.688 -1.37217 -1.83587 0
M  V30 5541 C 526.688 -0.270221 -1.58513 0
M  V30 5542 O 527.878 -0.527843 -1.6601 0
M  V30 5543 C 525.01 -1.13959 -3.21288 0
M  V30 5544 H 526.203 -2.34705 -1.86691 0
M  V30 5545 H 523.756 -1.24622 -0.94335 0
M  V30 5546 H 524.491 -0.17131 -3.23847 0
M  V30 5547 H 524.276 -1.93754 -3.40884 0
M  V30 5548 H 525.766 -1.15346 -4.01354 0
M  V30 5549 N 526.204 0.969867 -1.24223 0
M  V30 5550 C 527.429 1.75289 -1.10853 0
M  V30 5551 C 527.854 1.85091 0.335079 0
M  V30 5552 O 527.212 1.32024 1.24255 0
M  V30 5553 C 527.26 3.15255 -1.75062 0
M  V30 5554 O 526.364 3.99589 -1.01992 0
M  V30 5555 H 525.705 0.538904 -0.387915 0
M  V30 5556 H 528.235 1.21675 -1.64488 0
M  V30 5557 H 528.245 3.65787 -1.80731 0
M  V30 5558 H 526.92 3.07436 -2.801 0
M  V30 5559 H 525.497 3.58077 -1.04094 0
M  V30 5560 N 527.682 1.05563 1.17022 0
M  V30 5561 C 528.63 0.653887 2.2322 0
M  V30 5562 C 529.624 -0.326642 1.66221 0
M  V30 5563 O 530.83 -0.192301 1.7897 0
M  V30 5564 H 527.205 0.193297 0.726733 0
M  V30 5565 H 529.176 1.5596 2.54399 0
M  V30 5566 C 527.925 0.0485434 3.47666 0
M  V30 5567 H 527.248 0.79413 3.91834 0
M  V30 5568 H 528.688 -0.195133 4.23551 0
M  V30 5569 C 527.147 -1.20583 3.14581 0
M  V30 5570 O 527.677 -2.29475 3.29703 0
M  V30 5571 N 525.883 -1.10493 2.68774 0
M  V30 5572 H 525.43 -0.218795 2.56669 0
M  V30 5573 H 525.388 -1.94507 2.47011 0
M  V30 5574 N 529.16 -1.33526 0.837174 0
M  V30 5575 C 530.09 -2.31764 0.284206 0
M  V30 5576 C 531.071 -1.58896 -0.607142 0
M  V30 5577 O 532.256 -1.86798 -0.531047 0
M  V30 5578 C 529.386 -3.43029 -0.542962 0
M  V30 5579 C 528.34 -4.27255 0.252451 0
M  V30 5580 C 527.666 -5.3012 -0.69836 0
M  V30 5581 C 528.966 -5.01229 1.46858 0
M  V30 5582 H 530.66 -2.78262 1.10502 0
M  V30 5583 H 528.206 -1.3378 0.532812 0
M  V30 5584 H 530.159 -4.1078 -0.940096 0
M  V30 5585 H 528.883 -2.95216 -1.39697 0
M  V30 5586 H 527.542 -3.61127 0.631124 0
M  V30 5587 H 527.19 -4.78564 -1.54872 0
M  V30 5588 H 526.89 -5.87353 -0.170274 0
M  V30 5589 H 528.414 -6.00737 -1.09305 0
M  V30 5590 H 529.828 -5.61756 1.14469 0
M  V30 5591 H 528.225 -5.68104 1.93333 0
M  V30 5592 H 529.295 -4.301 2.23924 0
M  V30 5593 N 530.638 -0.59345 -1.46 0
M  V30 5594 C 531.866 -0.0890934 -2.06708 0
M  V30 5595 C 532.281 1.2205 -1.44046 0
M  V30 5596 O 531.638 1.74029 -0.549551 0
M  V30 5597 C 531.689 0.0720263 -3.61428 0
M  V30 5598 O 531.41 -1.18574 -4.21748 0
M  V30 5599 C 532.911 0.609487 -4.3909 0
M  V30 5600 H 530.131 -0.0623628 -0.668096 0
M  V30 5601 H 532.675 -0.817171 -1.87464 0
M  V30 5602 H 530.83 0.750369 -3.80063 0
M  V30 5603 H 531.244 -1.0064 -5.14754 0
M  V30 5604 H 532.718 0.671363 -5.47902 0
M  V30 5605 H 533.195 1.62878 -4.07882 0
M  V30 5606 H 533.801 -0.03434 -4.25286 0
M  V30 5607 N 532.116 1.54067 -0.331816 0
M  V30 5608 C 533.048 2.22139 0.564538 0
M  V30 5609 C 534.061 1.22408 1.07332 0
M  V30 5610 O 535.25 1.4883 0.985481 0
M  V30 5611 C 532.35 2.87876 1.78831 0
M  V30 5612 C 531.523 4.13817 1.41682 0
M  V30 5613 C 530.582 4.63072 2.49901 0
M  V30 5614 O 529.608 5.27562 2.13699 0
M  V30 5615 N 530.81 4.38001 3.80967 0
M  V30 5616 H 533.575 2.99694 -0.0183736 0
M  V30 5617 H 531.136 1.61153 -0.155396 0
M  V30 5618 H 533.128 3.17747 2.50637 0
M  V30 5619 H 531.698 2.13977 2.27887 0
M  V30 5620 H 530.918 3.9062 0.530044 0
M  V30 5621 H 532.206 4.95762 1.14443 0
M  V30 5622 H 531.604 3.864 4.13173 0
M  V30 5623 H 530.161 4.72507 4.48977 0
M  V30 5624 N 533.594 0.0601682 1.57485 0
M  V30 5625 C 534.557 -0.896373 2.10945 0
M  V30 5626 C 535.557 -1.23402 1.03095 0
M  V30 5627 O 536.747 -1.16921 1.29132 0
M  V30 5628 C 533.879 -2.20346 2.60116 0
M  V30 5629 H 535.072 -0.432778 2.96761 0
M  V30 5630 H 532.625 -0.188372 1.55161 0
M  V30 5631 H 533.36 -2.71268 1.7772 0
M  V30 5632 H 533.145 -1.9714 3.38937 0
M  V30 5633 H 534.635 -2.88846 3.01592 0
M  V30 5634 N 535.072 -1.5615 -0.213296 0
M  V30 5635 C 536.483 -1.69645 -0.779582 0
M  V30 5636 C 536.834 -0.663615 -1.84636 0
M  V30 5637 O 535.959 0.183633 -2.15619 0
M  V30 5638 C 536.554 -3.07567 -1.42084 0
M  V30 5639 C 535.113 -3.22889 -1.93442 0
M  V30 5640 C 534.26 -2.65581 -0.797612 0
M  V30 5641 H 537.211 -1.58696 0.0114951 0
M  V30 5642 H 537.232 -3.03884 -2.28986 0
M  V30 5643 H 536.744 -3.82716 -0.644187 0
M  V30 5644 H 534.845 -2.52623 -2.73884 0
M  V30 5645 H 534.958 -4.30197 -2.10872 0
M  V30 5646 H 533.322 -2.24278 -1.20712 0
M  V30 5647 H 534.105 -3.43284 -0.033494 0
M  V30 5648 N 536.55 0.480323 -1.50102 0
M  V30 5649 C 537.46 1.60547 -1.71061 0
M  V30 5650 C 538.476 1.63564 -0.593529 0
M  V30 5651 O 539.652 1.81604 -0.870751 0
M  V30 5652 C 536.717 2.96814 -1.79171 0
M  V30 5653 C 535.778 3.04259 -3.02861 0
M  V30 5654 C 535.011 4.34027 -3.10574 0
M  V30 5655 O 535.234 5.24009 -2.25323 0
M  V30 5656 O 534.168 4.46873 -4.03223 0
M  V30 5657 H 537.994 1.45788 -2.6642 0
M  V30 5658 H 535.579 0.658838 -1.34088 0
M  V30 5659 H 537.461 3.77765 -1.86738 0
M  V30 5660 H 536.136 3.11791 -0.869947 0
M  V30 5661 H 535.043 2.22419 -3.008 0
M  V30 5662 H 536.376 2.94216 -3.94586 0
M  V30 5663 N 538.028 1.39524 0.732853 0
M  V30 5664 C 538.938 1.40695 1.87729 0
M  V30 5665 C 539.954 0.301496 1.71368 0
M  V30 5666 O 541.13 0.543313 1.93933 0
M  V30 5667 C 538.195 1.25098 3.23344 0
M  V30 5668 C 537.256 2.45634 3.52083 0
M  V30 5669 C 536.489 2.30772 4.81228 0
M  V30 5670 O 536.712 1.31233 5.55098 0
M  V30 5671 O 535.646 3.19799 5.09914 0
M  V30 5672 H 539.472 2.37168 1.89697 0
M  V30 5673 H 537.057 1.20663 0.880959 0
M  V30 5674 H 538.939 1.18541 4.04383 0
M  V30 5675 H 537.614 0.317209 3.22142 0
M  V30 5676 H 536.521 2.57767 2.71122 0
M  V30 5677 H 537.854 3.37712 3.58066 0
M  V30 5678 N 539.506 -0.963266 1.24736 0
M  V30 5679 C 540.416 -2.09246 1.06082 0
M  V30 5680 C 541.432 -1.74 0.000363101 0
M  V30 5681 O 542.608 -2.0041 0.199479 0
M  V30 5682 C 539.673 -3.40115 0.672498 0
M  V30 5683 C 538.734 -3.89282 1.80993 0
M  V30 5684 C 537.967 -5.13905 1.44004 0
M  V30 5685 O 538.19 -5.69434 0.331835 0
M  V30 5686 O 537.124 -5.57566 2.26723 0
M  V30 5687 H 540.95 -2.27881 2.00759 0
M  V30 5688 H 538.535 -1.07649 1.03595 0
M  V30 5689 H 540.417 -4.18797 0.467668 0
M  V30 5690 H 539.092 -3.22771 -0.245102 0
M  V30 5691 H 537.999 -3.11642 2.06955 0
M  V30 5692 H 539.332 -4.1111 2.70646 0
M  V30 5693 N 540.985 -1.06182 -1.16461 0
M  V30 5694 C 542.396 -0.802426 -1.68576 0
M  V30 5695 C 542.747 0.67412 -1.84255 0
M  V30 5696 O 541.872 1.52303 -1.5373 0
M  V30 5697 C 542.467 -1.45002 -3.06202 0
M  V30 5698 C 541.026 -1.23843 -3.55443 0
M  V30 5699 C 540.173 -1.52724 -2.31454 0
M  V30 5700 H 543.124 -1.22545 -1.00839 0
M  V30 5701 H 543.145 -0.864731 -3.70544 0
M  V30 5702 H 542.657 -2.52466 -2.94759 0
M  V30 5703 H 540.758 -0.183487 -3.72148 0
M  V30 5704 H 540.871 -1.95036 -4.37604 0
M  V30 5705 H 539.235 -0.947726 -2.36411 0
M  V30 5706 H 540.018 -2.61343 -2.22609 0
M  V30 5707 N 542.463 1.3308 -0.844243 0
M  V30 5708 C 543.712 1.96868 -0.438833 0
M  V30 5709 C 544.025 1.67599 1.00846 0
M  V30 5710 O 545.231 2.25043 1.51881 0
M  V30 5711 C 543.687 3.5234 -0.73377 0
M  V30 5712 C 543.295 3.90481 -2.1961 0
M  V30 5713 C 545.039 4.22653 -0.395574 0
M  V30 5714 C 542.946 5.38954 -2.43481 0
M  V30 5715 H 541.876 0.736749 -0.160364 0
M  V30 5716 H 544.527 1.51623 -1.03358 0
M  V30 5717 H 542.909 3.95941 -0.068589 0
M  V30 5718 H 544.083 3.57922 -2.90221 0
M  V30 5719 H 542.398 3.33165 -2.4978 0
M  V30 5720 H 544.995 5.31848 -0.551477 0
M  V30 5721 H 545.338 4.11004 0.661921 0
M  V30 5722 H 545.871 3.84601 -1.01621 0
M  V30 5723 H 542.61 5.55612 -3.47816 0
M  V30 5724 H 542.13 5.72954 -1.77437 0
M  V30 5725 H 543.809 6.05907 -2.26905 0
M  V30 5726 N 543.941 0.601185 1.45683 0
M  V30 5727 C 545.352 0.179659 1.85834 0
M  V30 5728 C 545.703 -1.26189 1.50236 0
M  V30 5729 O 544.828 -1.95587 0.925987 0
M  V30 5730 C 545.423 0.319277 3.37292 0
M  V30 5731 C 543.982 -0.0475092 3.7637 0
M  V30 5732 C 543.129 0.646692 2.69654 0
M  V30 5733 H 546.08 0.808268 1.36575 0
M  V30 5734 H 546.101 -0.4503 3.77826 0
M  V30 5735 H 545.613 1.36855 3.6317 0
M  V30 5736 H 543.714 -1.0962 3.5611 0
M  V30 5737 H 543.827 0.34168 4.7788 0
M  V30 5738 H 542.191 0.0849971 2.54558 0
M  V30 5739 H 542.974 1.69797 2.98369 0
M  V30 5740 N 545.419 -1.53889 0.339982 0
M  V30 5741 C 546.349 -2.27843 -0.510856 0
M  V30 5742 C 547.33 -1.29267 -1.10563 0
M  V30 5743 O 548.515 -1.58104 -1.12768 0
M  V30 5744 C 545.645 -3.04857 -1.66372 0
M  V30 5745 C 544.599 -4.10907 -1.19746 0
M  V30 5746 C 543.925 -4.75855 -2.43857 0
M  V30 5747 C 545.225 -5.21435 -0.300501 0
M  V30 5748 H 546.919 -2.99212 0.106067 0
M  V30 5749 H 544.465 -1.43904 0.0524533 0
M  V30 5750 H 546.418 -3.5533 -2.26537 0
M  V30 5751 H 545.142 -2.31133 -2.30749 0
M  V30 5752 H 543.801 -3.61342 -0.618654 0
M  V30 5753 H 543.449 -3.9873 -3.06633 0
M  V30 5754 H 543.149 -5.47502 -2.13343 0
M  V30 5755 H 544.673 -5.2911 -3.04754 0
M  V30 5756 H 546.087 -5.67565 -0.80889 0
M  V30 5757 H 544.484 -6.00036 -0.0874076 0
M  V30 5758 H 545.554 -4.80328 0.664321 0
M  V30 5759 N 546.897 -0.0685191 -1.57451 0
M  V30 5760 C 548.174 0.642167 -1.84758 0
M  V30 5761 C 548.554 1.87991 -0.960344 0
M  V30 5762 O 547.902 2.28485 -0.0257894 0
M  V30 5763 C 548.112 0.982946 -3.34872 0
M  V30 5764 C 549.46 1.35784 -4.02303 0
M  V30 5765 O 550.484 1.07477 -3.39598 0
M  V30 5766 O 549.343 1.88681 -5.12895 0
M  V30 5767 H 546.437 0.318625 -0.763156 0
M  V30 5768 H 548.983 -0.0992015 -1.6941 0
M  V30 5769 H 547.755 0.10372 -3.91163 0
M  V30 5770 H 547.378 1.78119 -3.55471 0
M  V30 5771 N 548.375 1.56261 0.205012 0
M  V30 5772 C 549.307 1.90266 1.27795 0
M  V30 5773 C 550.32 0.792397 1.42214 0
M  V30 5774 O 551.509 1.07077 1.42817 0
M  V30 5775 C 548.609 2.11074 2.65143 0
M  V30 5776 C 547.782 3.42176 2.7246 0
M  V30 5777 C 546.841 3.52216 3.90936 0
M  V30 5778 O 545.867 4.25119 3.78501 0
M  V30 5779 N 547.069 2.84573 5.05963 0
M  V30 5780 H 549.834 2.82896 0.989434 0
M  V30 5781 H 547.395 1.57008 0.394981 0
M  V30 5782 H 549.387 2.15089 3.4281 0
M  V30 5783 H 547.957 1.2499 2.86524 0
M  V30 5784 H 547.177 3.50116 1.81142 0
M  V30 5785 H 548.465 4.28509 2.74331 0
M  V30 5786 H 547.863 2.25152 5.18963 0
M  V30 5787 H 546.42 2.94228 5.81613 0
M  V30 5788 N 549.853 -0.472356 1.50355 0
M  V30 5789 C 550.783 -1.57859 1.72055 0
M  V30 5790 C 551.764 -1.60283 0.569505 0
M  V30 5791 O 552.949 -1.7657 0.808503 0
M  V30 5792 C 550.079 -2.96191 1.81351 0
M  V30 5793 C 549.033 -3.08633 2.96529 0
M  V30 5794 C 548.359 -4.486 2.90968 0
M  V30 5795 C 549.659 -2.85969 4.37057 0
M  V30 5796 H 551.353 -1.39953 2.64676 0
M  V30 5797 H 548.899 -0.671846 1.27367 0
M  V30 5798 H 550.852 -3.73507 1.95117 0
M  V30 5799 H 549.576 -3.15251 0.853502 0
M  V30 5800 H 548.235 -2.33749 2.82413 0
M  V30 5801 H 547.883 -4.64577 1.92815 0
M  V30 5802 H 547.583 -4.57861 3.68289 0
M  V30 5803 H 549.107 -5.27938 3.0678 0
M  V30 5804 H 550.521 -3.53036 4.51706 0
M  V30 5805 H 548.918 -3.06677 5.15819 0
M  V30 5806 H 549.988 -1.81838 4.49514 0
M  V30 5807 N 551.331 -1.39911 -0.725443 0
M  V30 5808 C 552.579 -1.37382 -1.48224 0
M  V30 5809 C 552.9 0.0264107 -1.94982 0
M  V30 5810 O 552.17 0.979408 -1.6966 0
M  V30 5811 H 550.75 -0.505596 -0.549892 0
M  V30 5812 H 553.412 -1.7487 -0.860608 0
M  V30 5813 H 552.508 -2.04254 -2.3598 0
M  V30 5814 N 552.809 0.956637 -1.25245 0
M  V30 5815 C 554.057 1.69764 -1.09657 0
M  V30 5816 C 554.378 1.91583 0.363464 0
M  V30 5817 O 553.648 1.50149 1.25825 0
M  V30 5818 H 552.228 0.629097 -0.402798 0
M  V30 5819 H 554.89 1.15026 -1.57337 0
M  V30 5820 H 553.986 2.67769 -1.60331 0
M  V30 5821 N 554.287 1.06798 1.15896 0
M  V30 5822 C 555.512 0.808739 1.90982 0
M  V30 5823 C 555.937 -0.6316 1.77179 0
M  V30 5824 O 555.295 -1.4407 1.10061 0
M  V30 5825 C 555.343 1.21468 3.39526 0
M  V30 5826 O 554.447 0.356562 4.10856 0
M  V30 5827 H 553.788 0.29512 0.594811 0
M  V30 5828 H 556.318 1.42513 1.46804 0
M  V30 5829 H 556.328 1.18844 3.90308 0
M  V30 5830 H 555.003 2.26379 3.48891 0
M  V30 5831 H 553.58 0.444808 3.70238 0
M  V30 5832 N 555.766 -1.3263 0.851289 0
M  V30 5833 C 557.006 -1.99174 0.459266 0
M  V30 5834 C 557.37 -1.65913 -0.966273 0
M  V30 5835 O 558.571 -2.2552 -1.46267 0
M  V30 5836 C 556.842 -3.50721 0.687698 0
M  V30 5837 S 558.401 -4.37039 0.392746 0
M  V30 5838 H 555.219 -0.689832 0.172199 0
M  V30 5839 H 557.821 -1.61395 1.10327 0
M  V30 5840 H 556.525 -3.72417 1.72435 0
M  V30 5841 H 556.056 -3.93389 0.0299949 0
M  V30 5842 H 558.071 -4.8999 -0.782578 0
M  V30 5843 N 557.244 -0.608902 -1.45362 0
M  V30 5844 C 558.66 -0.272659 -1.57254 0
M  V30 5845 C 558.86 1.22477 -1.60005 0
M  V30 5846 O 557.916 2.00785 -1.53106 0
M  V30 5847 C 559.229 -0.944991 -2.85465 0
M  V30 5848 C 560.777 -0.921033 -2.99142 0
M  V30 5849 C 561.252 -1.5734 -4.30126 0
M  V30 5850 N 562.743 -1.53895 -4.36887 0
M  V30 5851 C 563.478 -2.01286 -5.36909 0
M  V30 5852 N 562.974 -2.56768 -6.43461 0
M  V30 5853 N 564.767 -1.92046 -5.28275 0
M  V30 5854 H 556.918 -1.58117 -1.4182 0
M  V30 5855 H 559.181 -0.662437 -0.678146 0
M  V30 5856 H 558.887 -1.99941 -2.89338 0
M  V30 5857 H 558.761 -0.469079 -3.74272 0
M  V30 5858 H 561.148 0.124846 -2.94836 0
M  V30 5859 H 561.229 -1.43522 -2.11743 0
M  V30 5860 H 560.873 -2.61862 -4.35191 0
M  V30 5861 H 560.803 -1.03422 -5.16344 0
M  V30 5862 H 563.294 -1.13366 -3.60495 0
M  V30 5863 H 563.607 -2.9072 -7.16032 0
M  V30 5864 H 561.952 -2.60808 -6.44208 0
M  V30 5865 H 565.143 -1.48439 -4.43941 0
M  V30 5866 H 565.316 -2.29293 -6.06077 0
M  V30 5867 N 558.722 1.53707 -0.348139 0
M  V30 5868 C 559.95 2.05406 0.248224 0
M  V30 5869 C 560.365 1.22282 1.43849 0
M  V30 5870 O 559.722 0.259244 1.80649 0
M  V30 5871 C 559.773 3.55446 0.658793 0
M  V30 5872 O 559.494 4.35417 -0.484149 0
M  V30 5873 C 560.995 4.23335 1.31539 0
M  V30 5874 H 558.215 0.669344 0.0471075 0
M  V30 5875 H 560.759 1.98257 -0.501456 0
M  V30 5876 H 558.914 3.62803 1.35841 0
M  V30 5877 H 559.328 5.24268 -0.155949 0
M  V30 5878 H 560.802 5.29692 1.55338 0
M  V30 5879 H 561.279 3.75967 2.27036 0
M  V30 5880 H 561.885 4.20184 0.657683 0
M  V30 5881 N 560.2 0.0768682 1.57412 0
M  V30 5882 C 561.15 -0.898795 2.09537 0
M  V30 5883 C 562.134 -1.25556 1.0062 0
M  V30 5884 O 563.326 -1.23369 1.26921 0
M  V30 5885 C 560.455 -2.16453 2.66464 0
M  V30 5886 C 559.541 -1.83401 3.82393 0
M  V30 5887 N 559.932 -1.20823 4.91157 0
M  V30 5888 C 558.23 -2.13121 3.91785 0
M  V30 5889 C 558.931 -1.05976 5.71965 0
M  V30 5890 N 557.907 -1.57113 5.204 0
M  V30 5891 H 561.709 -0.410718 2.91016 0
M  V30 5892 H 559.223 -0.126878 1.61904 0
M  V30 5893 H 561.22 -2.87274 3.02125 0
M  V30 5894 H 559.88 -2.65844 1.86433 0
M  V30 5895 H 560.891 -0.877249 5.10416 0
M  V30 5896 H 557.568 -2.64854 3.22736 0
M  V30 5897 H 558.958 -0.571809 6.69462 0
M  V30 5898 N 561.678 -1.56367 -0.196722 0
M  V30 5899 C 562.908 -1.84371 -0.932254 0
M  V30 5900 C 563.316 -0.657013 -1.77426 0
M  V30 5901 O 562.659 0.383576 -1.79651 0
M  V30 5902 C 562.721 -3.06454 -1.87952 0
M  V30 5903 C 562.385 -4.40425 -1.21962 0
M  V30 5904 C 563.382 -5.16457 -0.597343 0
M  V30 5905 C 561.067 -4.8716 -1.22396 0
M  V30 5906 C 563.061 -6.37399 0.0117913 0
M  V30 5907 C 560.748 -6.08038 -0.610995 0
M  V30 5908 C 561.746 -6.83 0.00580487 0
M  V30 5909 O 561.434 -8.01589 0.609173 0
M  V30 5910 H 561.166 -0.616377 -0.277589 0
M  V30 5911 H 563.72 -2.04329 -0.209452 0
M  V30 5912 H 561.95 -2.82377 -2.64197 0
M  V30 5913 H 563.639 -3.21118 -2.48271 0
M  V30 5914 H 564.405 -4.81445 -0.586142 0
M  V30 5915 H 560.284 -4.2877 -1.69345 0
M  V30 5916 H 563.828 -6.9585 0.493836 0
M  V30 5917 H 559.725 -6.42519 -0.619693 0
M  V30 5918 H 560.493 -8.16935 0.505919 0
M  V30 5919 N 563.156 0.464375 -1.50603 0
M  V30 5920 C 564.404 1.21356 -1.61608 0
M  V30 5921 C 564.725 1.92329 -0.321643 0
M  V30 5922 O 563.995 1.84403 0.661232 0
M  V30 5923 H 562.575 0.45094 -0.595535 0
M  V30 5924 H 565.237 0.535046 -1.87412 0
M  V30 5925 H 564.333 1.95783 -2.43054 0
M  V30 5926 N 564.634 1.40294 0.718013 0
M  V30 5927 C 565.864 1.41544 1.50495 0
M  V30 5928 C 566.272 0.0127877 1.89196 0
M  V30 5929 O 565.615 -0.97305 1.55812 0
M  V30 5930 C 565.677 2.24021 2.81167 0
M  V30 5931 C 565.341 3.72463 2.64803 0
M  V30 5932 C 566.338 4.65154 2.32223 0
M  V30 5933 C 564.023 4.1625 2.81143 0
M  V30 5934 C 566.017 5.99618 2.16189 0
M  V30 5935 C 563.704 5.50784 2.64727 0
M  V30 5936 C 564.702 6.42283 2.32297 0
M  V30 5937 O 564.39 7.74337 2.16004 0
M  V30 5938 H 564.122 0.484819 0.471091 0
M  V30 5939 H 566.676 1.84948 0.893488 0
M  V30 5940 H 564.906 1.75393 3.44636 0
M  V30 5941 H 566.595 2.17243 3.42871 0
M  V30 5942 H 567.361 4.32622 2.19234 0
M  V30 5943 H 563.24 3.45352 3.05373 0
M  V30 5944 H 566.784 6.71 1.90799 0
M  V30 5945 H 562.681 5.82902 2.773 0
M  V30 5946 H 563.449 7.85244 2.30942 0
M  V30 5947 N 566.112 -0.949982 1.2575 0
M  V30 5948 C 567.337 -1.73503 1.13628 0
M  V30 5949 C 567.762 -1.85601 -0.30559 0
M  V30 5950 O 567.12 -1.33984 -1.22139 0
M  V30 5951 C 567.168 -3.1243 1.80055 0
M  V30 5952 O 566.272 -3.97916 1.08336 0
M  V30 5953 H 565.613 -0.532665 0.396439 0
M  V30 5954 H 568.143 -1.19043 1.66403 0
M  V30 5955 H 568.153 -3.62866 1.86527 0
M  V30 5956 H 566.828 -3.02941 2.84956 0
M  V30 5957 H 565.405 -3.56375 1.09777 0
M  V30 5958 N 567.59 -1.07411 -1.15328 0
M  V30 5959 C 568.815 -0.818856 -1.90551 0
M  V30 5960 C 569.24 0.622194 -1.77512 0
M  V30 5961 O 568.598 1.43484 -1.10824 0
M  V30 5962 C 568.646 -1.23267 -3.38877 0
M  V30 5963 O 567.75 -0.378345 -4.10661 0
M  V30 5964 H 567.091 -0.29827 -0.593238 0
M  V30 5965 H 569.621 -1.43289 -1.46046 0
M  V30 5966 H 569.631 -1.20912 -3.89672 0
M  V30 5967 H 568.306 -2.28226 -3.47686 0
M  V30 5968 H 566.883 -0.464437 -3.69996 0
M  V30 5969 N 569.068 1.32177 -0.85831 0
M  V30 5970 C 570.316 1.96735 -0.462568 0
M  V30 5971 C 570.637 1.6824 0.985911 0
M  V30 5972 O 569.907 0.991564 1.68952 0
M  V30 5973 H 568.487 0.727849 -0.168064 0
M  V30 5974 H 571.149 1.61195 -1.09554 0
M  V30 5975 H 570.245 3.06068 -0.610647 0
M  V30 5976 N 570.547 0.616602 1.45037 0
M  V30 5977 C 571.51 -0.0871112 2.29034 0
M  V30 5978 C 572.51 -0.786414 1.40258 0
M  V30 5979 O 573.7 -0.633207 1.62284 0
M  V30 5980 C 570.832 -1.13369 3.21497 0
M  V30 5981 H 572.025 0.651497 2.92738 0
M  V30 5982 H 569.578 0.376058 1.51709 0
M  V30 5983 H 570.313 -1.90277 2.62612 0
M  V30 5984 H 570.098 -0.636358 3.86902 0
M  V30 5985 H 571.588 -1.62627 3.84633 0
M  V30 5986 N 572.025 -1.5352 0.356285 0
M  V30 5987 C 573.25 -2.06007 -0.239961 0
M  V30 5988 C 573.675 -1.22872 -1.42422 0
M  V30 5989 O 573.033 -0.245516 -1.7963 0
M  V30 5990 C 573.081 -3.5522 -0.620587 0
M  V30 5991 O 572.185 -3.74864 -1.71902 0
M  V30 5992 H 571.526 -0.662961 -0.0371377 0
M  V30 5993 H 574.056 -1.98033 0.514194 0
M  V30 5994 H 574.066 -3.98081 -0.894197 0
M  V30 5995 H 572.741 -4.15175 0.245407 0
M  V30 5996 H 571.318 -3.43904 -1.44169 0
M  V30 5997 N 573.503 -0.0852151 -1.57369 0
M  V30 5998 C 574.728 0.592872 -1.98746 0
M  V30 5999 C 575.153 1.61538 -0.963689 0
M  V30 6000 O 574.511 1.81168 0.069071 0
M  V30 6001 C 574.559 1.22599 -3.39119 0
M  V30 6002 O 573.663 2.34185 -3.39457 0
M  V30 6003 H 573.004 0.151314 -0.646529 0
M  V30 6004 H 575.534 -0.163703 -2.03944 0
M  V30 6005 H 575.544 1.56965 -3.76598 0
M  V30 6006 H 574.219 0.476831 -4.13158 0
M  V30 6007 H 572.796 2.01512 -3.13763 0
M  V30 6008 N 574.981 1.5647 0.188427 0
M  V30 6009 C 575.911 1.98101 1.23606 0
M  V30 6010 C 576.892 0.853961 1.47111 0
M  V30 6011 O 578.077 1.11879 1.58735 0
M  V30 6012 C 575.207 2.32624 2.57882 0
M  V30 6013 C 574.161 3.48129 2.48978 0
M  V30 6014 C 573.487 3.68347 3.87588 0
M  V30 6015 C 574.787 4.82112 2.00911 0
M  V30 6016 H 576.481 2.85864 0.890068 0
M  V30 6017 H 574.027 1.37532 0.426714 0
M  V30 6018 H 575.98 2.60343 3.3136 0
M  V30 6019 H 574.704 1.41751 2.94235 0
M  V30 6020 H 573.363 3.20511 1.77956 0
M  V30 6021 H 573.011 2.74793 4.21305 0
M  V30 6022 H 572.711 4.46055 3.82503 0
M  V30 6023 H 574.235 3.98449 4.62678 0
M  V30 6024 H 575.649 5.08819 2.64151 0
M  V30 6025 H 574.046 5.63337 2.06814 0
M  V30 6026 H 575.116 4.75249 0.96262 0
M  V30 6027 N 576.459 -0.456382 1.50847 0
M  V30 6028 C 577.409 -1.55045 1.67168 0
M  V30 6029 C 578.393 -1.52061 0.525958 0
M  V30 6030 O 579.585 -1.58836 0.781036 0
M  V30 6031 C 576.714 -2.93386 1.78268 0
M  V30 6032 C 575.8 -3.01198 2.98564 0
M  V30 6033 N 576.191 -2.78792 4.22029 0
M  V30 6034 C 574.489 -3.32346 2.97426 0
M  V30 6035 C 575.19 -2.91953 5.03128 0
M  V30 6036 N 574.166 -3.22797 4.37382 0
M  V30 6037 H 577.968 -1.36444 2.60308 0
M  V30 6038 H 575.482 -0.663375 1.48233 0
M  V30 6039 H 577.479 -3.72071 1.88067 0
M  V30 6040 H 576.139 -3.13022 0.862965 0
M  V30 6041 H 577.15 -2.54087 4.51287 0
M  V30 6042 H 573.827 -3.57877 2.15012 0
M  V30 6043 H 575.217 -2.78745 6.11351 0
M  V30 6044 N 577.937 -1.40673 -0.710563 0
M  V30 6045 C 579.353 -1.22813 -1.01928 0
M  V30 6046 C 579.553 -0.10687 -2.01216 0
M  V30 6047 O 578.609 0.533614 -2.46797 0
M  V30 6048 C 579.922 -2.57178 -1.5582 0
M  V30 6049 C 581.47 -2.64233 -1.67779 0
M  V30 6050 C 581.945 -3.98879 -2.25076 0
M  V30 6051 N 583.436 -4.00647 -2.32456 0
M  V30 6052 C 584.171 -5.01621 -2.77784 0
M  V30 6053 N 583.667 -6.12989 -3.22826 0
M  V30 6054 N 585.46 -4.88988 -2.77213 0
M  V30 6055 H 577.611 -2.12335 -0.05253 0
M  V30 6056 H 579.874 -0.9441 -0.085898 0
M  V30 6057 H 579.58 -3.39903 -0.903249 0
M  V30 6058 H 579.454 -2.78618 -2.54267 0
M  V30 6059 H 581.841 -1.81876 -2.3239 0
M  V30 6060 H 581.922 -2.46619 -0.679178 0
M  V30 6061 H 581.566 -4.81678 -1.61086 0
M  V30 6062 H 581.496 -4.13826 -3.25661 0
M  V30 6063 H 583.987 -3.20231 -2.0065 0
M  V30 6064 H 584.3 -6.85921 -3.55995 0
M  V30 6065 H 582.645 -6.16547 -3.20773 0
M  V30 6066 H 585.836 -4.01075 -2.41363 0
M  V30 6067 H 586.009 -5.67822 -3.12221 0
M  V30 6068 N 579.415 0.9433 -1.26252 0
M  V30 6069 C 580.365 2.02746 -1.04297 0
M  V30 6070 C 581.349 1.60882 0.0239435 0
M  V30 6071 O 582.541 1.75947 -0.192757 0
M  V30 6072 C 579.67 3.36585 -0.6757 0
M  V30 6073 C 578.756 3.84939 -1.77996 0
M  V30 6074 N 579.147 4.05966 -3.01704 0
M  V30 6075 C 577.445 4.13833 -1.66308 0
M  V30 6076 C 578.146 4.45987 -3.73458 0
M  V30 6077 N 577.122 4.52569 -3.01135 0
M  V30 6078 H 580.924 2.17012 -1.98199 0
M  V30 6079 H 578.438 1.12898 -1.16738 0
M  V30 6080 H 580.435 4.13896 -0.499571 0
M  V30 6081 H 579.095 3.2369 0.255863 0
M  V30 6082 H 580.106 3.92716 -3.37631 0
M  V30 6083 H 576.783 4.09739 -0.801267 0
M  V30 6084 H 578.173 4.70465 -4.79701 0
M  V30 6085 N 580.893 1.08022 1.14757 0
M  V30 6086 C 582.139 0.818552 1.86202 0
M  V30 6087 C 582.494 -0.648563 1.81139 0
M  V30 6088 O 581.787 -1.4704 1.22841 0
M  V30 6089 C 581.981 1.26964 3.34088 0
M  V30 6090 C 581.81 2.77907 3.5355 0
M  V30 6091 C 580.58 3.45604 3.68627 0
M  V30 6092 C 582.778 3.7609 3.50801 0
M  V30 6093 N 580.76 4.85119 3.76209 0
M  V30 6094 C 582.131 5.0148 3.64579 0
M  V30 6095 C 584.186 3.6915 3.34115 0
M  V30 6096 C 582.889 6.20755 3.63395 0
M  V30 6097 C 584.915 4.87896 3.34233 0
M  V30 6098 C 584.277 6.12123 3.48547 0
M  V30 6099 H 580.376 0.352186 0.698204 0
M  V30 6100 H 582.96 1.37781 1.37567 0
M  V30 6101 H 581.131 0.738008 3.81324 0
M  V30 6102 H 582.863 0.954806 3.93275 0
M  V30 6103 H 579.618 2.96016 3.69691 0
M  V30 6104 H 580.042 5.57748 3.83726 0
M  V30 6105 H 584.684 2.74045 3.21961 0
M  V30 6106 H 582.402 7.16175 3.74326 0
M  V30 6107 H 585.988 4.8421 3.2254 0
M  V30 6108 H 584.868 7.02468 3.48581 0
M  V30 6109 N 582.371 -1.3172 0.865308 0
M  V30 6110 C 583.619 -1.96487 0.472995 0
M  V30 6111 C 583.94 -1.68761 -0.976975 0
M  V30 6112 O 583.21 -1.00051 -1.68424 0
M  V30 6113 H 581.79 -0.726947 0.171922 0
M  V30 6114 H 584.452 -1.60612 1.10407 0
M  V30 6115 H 583.548 -3.0574 0.62687 0
M  V30 6116 N 583.85 -0.624285 -1.44708 0
M  V30 6117 C 584.779 0.0717025 -2.3339 0
M  V30 6118 C 585.76 0.841814 -1.47809 0
M  V30 6119 O 586.946 0.809056 -1.76544 0
M  V30 6120 C 584.076 1.05852 -3.30776 0
M  V30 6121 C 583.029 0.400503 -4.26122 0
M  V30 6122 C 582.356 1.49674 -5.13324 0
M  V30 6123 C 583.656 -0.688924 -5.17737 0
M  V30 6124 H 585.35 -0.668819 -2.91834 0
M  V30 6125 H 582.896 -0.32308 -1.40329 0
M  V30 6126 H 584.849 1.5541 -3.91696 0
M  V30 6127 H 583.572 1.82984 -2.70526 0
M  V30 6128 H 582.231 -0.0743687 -3.66525 0
M  V30 6129 H 581.88 2.25877 -4.49431 0
M  V30 6130 H 581.58 1.06188 -5.77926 0
M  V30 6131 H 583.104 1.99427 -5.77115 0
M  V30 6132 H 584.518 -0.276724 -5.72632 0
M  V30 6133 H 582.915 -1.04652 -5.90904 0
M  V30 6134 H 583.985 -1.55884 -4.5916 0
M  V30 6135 N 585.328 1.53329 -0.364422 0
M  V30 6136 C 586.258 2.28627 0.474543 0
M  V30 6137 C 587.239 1.31009 1.08492 0
M  V30 6138 O 588.424 1.59878 1.10239 0
M  V30 6139 C 585.554 3.07465 1.61501 0
M  V30 6140 C 584.508 4.1276 1.13194 0
M  V30 6141 C 583.834 4.79674 2.36255 0
M  V30 6142 C 585.134 5.21847 0.217507 0
M  V30 6143 H 586.828 2.99005 -0.153656 0
M  V30 6144 H 584.374 1.43803 -0.0753406 0
M  V30 6145 H 586.327 3.58889 2.20855 0
M  V30 6146 H 585.051 2.34775 2.27042 0
M  V30 6147 H 583.71 3.62281 0.56109 0
M  V30 6148 H 583.358 4.03557 3.00251 0
M  V30 6149 H 583.058 5.50827 2.04606 0
M  V30 6150 H 584.582 5.33892 2.96297 0
M  V30 6151 H 585.996 5.6878 0.718493 0
M  V30 6152 H 584.393 6.00099 -0.00806408 0
M  V30 6153 H 585.463 4.7921 -0.740653 0
M  V30 6154 N 586.806 0.0935595 1.57322 0
M  V30 6155 C 587.736 -0.863062 2.16964 0
M  V30 6156 C 588.717 -1.29528 1.10256 0
M  V30 6157 O 589.902 -1.36245 1.38387 0
M  V30 6158 C 587.032 -2.12276 2.74875 0
M  V30 6159 C 585.986 -1.82921 3.86942 0
M  V30 6160 C 585.312 -3.15707 4.31548 0
M  V30 6161 C 586.612 -1.11737 5.10208 0
M  V30 6162 H 588.306 -0.366145 2.97153 0
M  V30 6163 H 585.852 -0.174673 1.42937 0
M  V30 6164 H 587.805 -2.79634 3.1525 0
M  V30 6165 H 586.529 -2.64248 1.91938 0
M  V30 6166 H 585.188 -1.17961 3.47103 0
M  V30 6167 H 584.836 -3.65563 3.45504 0
M  V30 6168 H 584.536 -2.96849 5.07104 0
M  V30 6169 H 586.06 -3.84226 4.74555 0
M  V30 6170 H 587.474 -1.69203 5.47762 0
M  V30 6171 H 585.871 -1.03064 5.91183 0
M  V30 6172 H 586.941 -0.0998818 4.84797 0
M  V30 6173 N 588.284 -1.56567 -0.180126 0
M  V30 6174 C 589.247 -1.94852 -1.20686 0
M  V30 6175 C 590.247 -0.831212 -1.3765 0
M  V30 6176 O 591.437 -1.09841 -1.35206 0
M  V30 6177 C 588.569 -2.23565 -2.57355 0
M  V30 6178 H 589.762 -2.86722 -0.879225 0
M  V30 6179 H 587.315 -1.50489 -0.422237 0
M  V30 6180 H 588.05 -1.34381 -2.95148 0
M  V30 6181 H 587.835 -3.04999 -2.46411 0
M  V30 6182 H 589.325 -2.54137 -3.31367 0
M  V30 6183 N 589.762 0.448376 -1.51087 0
M  V30 6184 C 590.987 1.22605 -1.6728 0
M  V30 6185 C 591.412 1.84524 -0.365045 0
M  V30 6186 O 590.77 1.6832 0.673642 0
M  V30 6187 C 590.818 2.29393 -2.78229 0
M  V30 6188 O 589.922 3.34608 -2.41063 0
M  V30 6189 H 589.263 0.359705 -0.558129 0
M  V30 6190 H 591.793 0.530903 -1.97592 0
M  V30 6191 H 591.803 2.74352 -3.01986 0
M  V30 6192 H 590.478 1.83701 -3.73131 0
M  V30 6193 H 589.055 2.95202 -2.27838 0
M  V30 6194 N 591.24 1.41047 0.703093 0
M  V30 6195 C 592.17 1.45067 1.82969 0
M  V30 6196 C 593.151 0.31016 1.67248 0
M  V30 6197 O 594.336 0.520548 1.87093 0
M  V30 6198 C 591.466 1.32478 3.2104 0
M  V30 6199 C 590.42 2.44262 3.51454 0
M  V30 6200 C 589.746 2.16742 4.88801 0
M  V30 6201 C 591.046 3.86606 3.51189 0
M  V30 6202 H 592.74 2.39353 1.79863 0
M  V30 6203 H 590.286 1.15206 0.863919 0
M  V30 6204 H 592.239 1.33904 3.99559 0
M  V30 6205 H 590.963 0.346735 3.24754 0
M  V30 6206 H 589.622 2.42107 2.75282 0
M  V30 6207 H 589.27 1.17299 4.89132 0
M  V30 6208 H 588.97 2.91643 5.10116 0
M  V30 6209 H 590.494 2.19872 5.69639 0
M  V30 6210 H 591.908 3.90517 4.19725 0
M  V30 6211 H 590.305 4.61128 3.84033 0
M  V30 6212 H 591.375 4.15296 2.50315 0
M  V30 6213 N 592.718 -0.936591 1.26751 0
M  V30 6214 C 593.681 -2.01752 1.08761 0
M  V30 6215 C 594.681 -1.60763 0.0344435 0
M  V30 6216 O 595.871 -1.71963 0.278258 0
M  V30 6217 C 593.003 -3.34543 0.655271 0
M  V30 6218 H 594.196 -2.19143 2.04735 0
M  V30 6219 H 591.749 -1.11618 1.09413 0
M  V30 6220 H 592.484 -3.22851 -0.30626 0
M  V30 6221 H 592.269 -3.65647 1.41578 0
M  V30 6222 H 593.759 -4.13944 0.551378 0
M  V30 6223 N 594.196 -1.08629 -1.14182 0
M  V30 6224 C 595.607 -0.838003 -1.66836 0
M  V30 6225 C 595.958 0.634885 -1.85644 0
M  V30 6226 O 595.083 1.49008 -1.56926 0
M  V30 6227 C 595.678 -1.51465 -3.03058 0
M  V30 6228 C 594.237 -1.31355 -3.52736 0
M  V30 6229 C 593.384 -1.57599 -2.28162 0
M  V30 6230 H 596.335 -1.24656 -0.982165 0
M  V30 6231 H 596.356 -0.943134 -3.68626 0
M  V30 6232 H 595.868 -2.58661 -2.89337 0
M  V30 6233 H 593.969 -0.262384 -3.71675 0
M  V30 6234 H 594.082 -2.04275 -4.33369 0
M  V30 6235 H 592.446 -0.997659 -2.34348 0
M  V30 6236 H 593.229 -2.66006 -2.17015 0
M  V30 6237 N 595.674 1.31259 -0.872281 0
M  V30 6238 C 596.604 2.30929 -0.345554 0
M  V30 6239 C 597.585 1.60449 0.5648 0
M  V30 6240 O 598.77 1.8814 0.481335 0
M  V30 6241 C 595.9 3.44348 0.451823 0
M  V30 6242 C 594.854 4.26435 -0.365641 0
M  V30 6243 C 594.18 5.31785 0.557562 0
M  V30 6244 C 595.48 4.97159 -1.60095 0
M  V30 6245 H 597.174 2.75234 -1.17841 0
M  V30 6246 H 594.72 1.3232 -0.568094 0
M  V30 6247 H 596.673 4.13128 0.830854 0
M  V30 6248 H 595.397 2.98816 1.31821 0
M  V30 6249 H 594.056 3.59326 -0.726649 0
M  V30 6250 H 593.704 4.82502 1.4213 0
M  V30 6251 H 593.404 5.87598 0.0144878 0
M  V30 6252 H 594.928 6.03424 0.933387 0
M  V30 6253 H 596.342 5.58523 -1.29323 0
M  V30 6254 H 594.739 5.62779 -2.08327 0
M  V30 6255 H 595.809 4.24012 -2.35249 0
M  V30 6256 N 597.152 0.631951 1.44375 0
M  V30 6257 C 598.398 0.13697 2.02337 0
M  V30 6258 C 598.731 -1.23826 1.49602 0
M  V30 6259 O 598.006 -1.8221 0.680415 0
M  V30 6260 C 598.289 0.124536 3.59885 0
M  V30 6261 C 598.142 1.53217 4.229 0
M  V30 6262 C 599.461 -0.550481 4.36644 0
M  V30 6263 H 596.58 0.051247 0.735216 0
M  V30 6264 H 599.222 0.808581 1.71936 0
M  V30 6265 H 597.372 -0.44737 3.85916 0
M  V30 6266 H 599.044 2.15303 4.07973 0
M  V30 6267 H 597.287 2.0858 3.80364 0
M  V30 6268 H 597.958 1.4755 5.31914 0
M  V30 6269 H 600.434 -0.0641154 4.16051 0
M  V30 6270 H 599.31 -0.528371 5.46351 0
M  V30 6271 H 599.571 -1.62097 4.11311 0
M  V30 6272 N 598.631 -1.53133 0.372548 0
M  V30 6273 C 599.561 -2.28876 -0.462412 0
M  V30 6274 C 600.542 -1.31583 -1.07796 0
M  V30 6275 O 601.727 -1.60461 -1.09389 0
M  V30 6276 C 598.857 -3.08317 -1.59868 0
M  V30 6277 C 597.811 -4.13355 -1.11003 0
M  V30 6278 C 597.137 -4.8092 -2.33708 0
M  V30 6279 C 598.437 -5.21955 -0.18983 0
M  V30 6280 H 600.131 -2.9892 0.169511 0
M  V30 6281 H 597.677 -1.43761 0.0829658 0
M  V30 6282 H 599.63 -3.60055 -2.18949 0
M  V30 6283 H 598.354 -2.35976 -2.25794 0
M  V30 6284 H 597.013 -3.62573 -0.541869 0
M  V30 6285 H 596.661 -4.05144 -2.98106 0
M  V30 6286 H 596.361 -5.51904 -2.01682 0
M  V30 6287 H 597.885 -5.35455 -2.93462 0
M  V30 6288 H 599.299 -5.69153 -0.688319 0
M  V30 6289 H 597.696 -6.00087 0.0398887 0
M  V30 6290 H 598.766 -4.78811 0.766057 0
M  V30 6291 N 600.109 -0.101901 -1.5727 0
M  V30 6292 C 601.349 0.563489 -1.96479 0
M  V30 6293 C 601.713 1.64926 -0.983021 0
M  V30 6294 O 602.914 2.37234 -1.26386 0
M  V30 6295 C 601.185 1.09809 -3.40113 0
M  V30 6296 S 602.744 1.7744 -4.01323 0
M  V30 6297 H 599.562 0.183675 -0.686866 0
M  V30 6298 H 602.164 -0.182922 -1.94642 0
M  V30 6299 H 600.868 0.296447 -4.09328 0
M  V30 6300 H 600.399 1.88018 -3.45562 0
M  V30 6301 H 602.414 3.0591 -3.90683 0
M  V30 6302 N 601.587 1.56661 0.17182 0
M  V30 6303 C 602.517 1.99401 1.21498 0
M  V30 6304 C 603.498 0.869516 1.46197 0
M  V30 6305 O 604.683 1.13556 1.57539 0
M  V30 6306 C 601.813 2.35346 2.55401 0
M  V30 6307 C 600.767 3.5075 2.45272 0
M  V30 6308 C 600.093 3.72437 3.8366 0
M  V30 6309 C 601.393 4.84216 1.95787 0
M  V30 6310 H 603.087 2.86792 0.859699 0
M  V30 6311 H 600.633 1.37977 0.412103 0
M  V30 6312 H 602.586 2.63843 3.2858 0
M  V30 6313 H 601.31 1.44864 2.92715 0
M  V30 6314 H 599.969 3.2238 1.74547 0
M  V30 6315 H 599.617 2.79246 4.18367 0
M  V30 6316 H 599.317 4.50087 3.77751 0
M  V30 6317 H 600.841 4.03334 4.58426 0
M  V30 6318 H 602.255 5.11592 2.5874 0
M  V30 6319 H 600.652 5.65498 2.00827 0
M  V30 6320 H 601.722 4.76243 0.912159 0
M  V30 6321 N 603.065 -0.440357 1.51323 0
M  V30 6322 C 604.29 -1.21716 1.67928 0
M  V30 6323 C 604.715 -1.84328 0.374826 0
M  V30 6324 O 604.073 -1.68675 -0.664706 0
M  V30 6325 C 604.121 -2.27914 2.79442 0
M  V30 6326 O 603.225 -3.33325 2.42834 0
M  V30 6327 H 602.566 -0.35674 0.560029 0
M  V30 6328 H 605.096 -0.520417 1.97871 0
M  V30 6329 H 605.106 -2.72746 3.03436 0
M  V30 6330 H 603.781 -1.8172 3.741 0
M  V30 6331 H 602.358 -2.9399 2.294 0
M  V30 6332 N 604.543 -1.41418 -0.695603 0
M  V30 6333 C 605.473 -1.46035 -1.82197 0
M  V30 6334 C 606.454 -0.319025 -1.67082 0
M  V30 6335 O 607.639 -0.530462 -1.86815 0
M  V30 6336 C 604.769 -1.34179 -3.20333 0
M  V30 6337 C 603.723 -2.46123 -3.50154 0
M  V30 6338 C 603.049 -2.19332 -4.87645 0
M  V30 6339 C 604.349 -3.88463 -3.49133 0
M  V30 6340 H 606.043 -2.40303 -1.78591 0
M  V30 6341 H 603.589 -1.15663 -0.857797 0
M  V30 6342 H 605.542 -1.36021 -3.98844 0
M  V30 6343 H 604.266 -0.363952 -3.24566 0
M  V30 6344 H 602.925 -2.43563 -2.73994 0
M  V30 6345 H 602.573 -1.19891 -4.88503 0
M  V30 6346 H 602.273 -2.94344 -5.08562 0
M  V30 6347 H 603.797 -2.22889 -5.68465 0
M  V30 6348 H 605.211 -3.92738 -4.17648 0
M  V30 6349 H 603.608 -4.63158 -3.81582 0
M  V30 6350 H 604.678 -4.16617 -2.48109 0
M  V30 6351 N 606.021 0.929856 -1.27246 0
M  V30 6352 C 606.951 2.04722 -1.12299 0
M  V30 6353 C 607.932 1.70082 -0.0250464 0
M  V30 6354 O 609.117 1.93176 -0.199141 0
M  V30 6355 C 606.247 3.38721 -0.767145 0
M  V30 6356 C 605.201 3.87466 -1.81808 0
M  V30 6357 C 604.527 5.18246 -1.31626 0
M  V30 6358 C 605.827 4.11095 -3.22177 0
M  V30 6359 H 607.521 2.17485 -2.05769 0
M  V30 6360 H 605.067 1.04503 -0.990715 0
M  V30 6361 H 607.02 4.16366 -0.649413 0
M  V30 6362 H 605.744 3.25967 0.203259 0
M  V30 6363 H 604.403 3.12012 -1.92468 0
M  V30 6364 H 604.051 5.01881 -0.335378 0
M  V30 6365 H 603.751 5.51829 -2.01887 0
M  V30 6366 H 605.275 5.98462 -1.21143 0
M  V30 6367 H 606.689 4.79316 -3.1453 0
M  V30 6368 H 605.086 4.55982 -3.90129 0
M  V30 6369 H 606.156 3.16468 -3.67391 0
M  V30 6370 O 607.538 1.21494 1.06403 0
M  V30 6371 H 608.229 0.975073 1.67368 0
M  V30 END ATOM
M  V30 BEGIN BOND
M  V30 END BOND
M  V30 END CTAB
M  END
$$$$
