drugbank_target|P24182 Biotin carboxylase (DB08074; DB08075; DB08076; DB08144; DB08145; DB08146; DB08314; DB08315; DB08316; DB08317; DB08318)
 OpenBabel12092120473D

  0  0  0     0  0            999 V3000
M  V30 BEGIN CTAB
M  V30 COUNTS 6947 7010 0 0 0
M  V30 BEGIN ATOM
M  V30 1 H -0.908 1.98254 -0.117106 0
M  V30 2 N 0 1.576 0 0
M  V30 3 C 0.933 2.03868 1.02534 0
M  V30 4 C 1.911 0.928543 1.3348 0
M  V30 5 O 3.095 1.19667 1.45644 0
M  V30 6 C 0.222 2.43627 2.35294 0
M  V30 7 C -0.732 3.65373 2.2001 0
M  V30 8 S 0.101 5.13292 1.52614 0
M  V30 9 C 1.257 5.56322 2.86805 0
M  V30 10 H 1.49 2.90518 0.631377 0
M  V30 11 H -0.977 1.52953 0.210867 0
M  V30 12 H 0.981 2.67203 3.11629 0
M  V30 13 H -0.358 1.57376 2.7183 0
M  V30 14 H -1.165 3.90944 3.18086 0
M  V30 15 H -1.563 3.418 1.51819 0
M  V30 16 H 0.729 5.58782 3.83104 0
M  V30 17 H 1.672 6.56266 2.65933 0
M  V30 18 H 2.08 4.83886 2.90714 0
M  V30 19 N 1.4781 -0.272755 1.55222 0
M  V30 20 C 2.4081 -1.34136 1.91127 0
M  V30 21 C 3.3891 -1.51513 0.773168 0
M  V30 22 O 4.5741 -1.64552 1.03132 0
M  V30 23 C 1.7041 -2.70083 2.1834 0
M  V30 24 C 0.6581 -2.67437 3.34158 0
M  V30 25 C -0.0159 -4.06938 3.46851 0
M  V30 26 C 1.2841 -2.26686 4.70543 0
M  V30 27 H 2.9781 -1.04333 2.80633 0
M  V30 28 H 0.5241 -0.500454 1.35024 0
M  V30 29 H 2.4771 -3.44952 2.42046 0
M  V30 30 H 1.2011 -3.01469 1.25634 0
M  V30 31 H -0.1399 -1.95026 3.1042 0
M  V30 32 H -0.4919 -4.35547 2.51611 0
M  V30 33 H -0.7919 -4.06062 4.2472 0
M  V30 34 H 0.7321 -4.83545 3.72849 0
M  V30 35 H 2.1461 -2.91277 4.93792 0
M  V30 36 H 0.5431 -2.36971 5.5133 0
M  V30 37 H 1.6131 -1.21818 4.69349 0
M  V30 38 N 2.9562 -1.48159 -0.537278 0
M  V30 39 C 4.2332 -1.46291 -1.29839 0
M  V30 40 C 4.6132 -0.170613 -2.10409 0
M  V30 41 O 3.9612 0.847746 -2.12192 0
M  V30 42 C 4.1712 -2.72055 -2.18603 0
M  V30 43 C 5.5192 -3.20087 -2.7898 0
M  V30 44 O 6.5432 -2.72921 -2.28894 0
M  V30 45 O 5.4022 -4.02138 -3.70064 0
M  V30 46 H 2.4962 -0.583906 -0.585647 0
M  V30 47 H 5.0422 -1.60384 -0.554534 0
M  V30 48 H 3.8142 -3.57628 -1.58801 0
M  V30 49 H 3.4372 -2.60646 -3.00249 0
M  V30 50 N 4.4343 0.785586 -1.36625 0
M  V30 51 C 5.3813 1.89838 -1.31264 0
M  V30 52 C 6.3513 1.65115 -0.180633 0
M  V30 53 O 7.5363 1.87222 -0.36777 0
M  V30 54 C 4.6763 3.26706 -1.11163 0
M  V30 55 C 3.7893 3.63476 -2.33472 0
M  V30 56 C 2.9243 4.89481 -2.06353 0
M  V30 57 C 1.9633 5.18941 -3.24602 0
M  V30 58 N 1.1003 6.36131 -2.97123 0
M  V30 59 H 5.9403 1.93756 -2.26413 0
M  V30 60 H 3.4773 0.947454 -1.12524 0
M  V30 61 H 5.4353 4.05639 -0.975337 0
M  V30 62 H 4.0653 3.222 -0.196674 0
M  V30 63 H 3.1173 2.79636 -2.57891 0
M  V30 64 H 4.4293 3.81193 -3.21704 0
M  V30 65 H 3.5833 5.76288 -1.89675 0
M  V30 66 H 2.3223 4.73841 -1.15437 0
M  V30 67 H 1.3273 4.30615 -3.41834 0
M  V30 68 H 2.5523 5.36498 -4.16349 0
M  V30 69 H 0.4983 6.21875 -2.08823 0
M  V30 70 H 0.4153 6.54198 -3.78894 0
M  V30 71 H 1.6833 7.2591 -2.84033 0
M  V30 72 N 5.9124 1.20967 1.01018 0
M  V30 73 C 7.1614 1.01796 1.74128 0
M  V30 74 C 7.4744 -0.449691 1.90361 0
M  V30 75 O 8.6804 -0.76068 2.60626 0
M  V30 76 C 7.1364 1.7727 3.13215 0
M  V30 77 C 6.7444 3.28171 3.04972 0
M  V30 78 C 8.4884 1.66489 3.90489 0
M  V30 79 C 6.3954 3.96156 4.39107 0
M  V30 80 H 5.3254 0.377276 0.652824 0
M  V30 81 H 7.9764 1.44651 1.12909 0
M  V30 82 H 6.3584 1.27205 3.75013 0
M  V30 83 H 7.5324 3.85499 2.52443 0
M  V30 84 H 5.8474 3.39437 2.41188 0
M  V30 85 H 8.4444 2.14617 4.89738 0
M  V30 86 H 8.7874 0.6222 4.11624 0
M  V30 87 H 9.3204 2.14003 3.35332 0
M  V30 88 H 6.0594 5.00604 4.23174 0
M  V30 89 H 5.5794 3.43617 4.91617 0
M  V30 90 H 7.2584 4.00774 5.07926 0
M  V30 91 N 7.3905 -1.2043 1.01659 0
M  V30 92 C 8.6365 -1.90079 0.706963 0
M  V30 93 C 8.9695 -1.78648 -0.761474 0
M  V30 94 O 8.2445 -1.17069 -1.55323 0
M  V30 95 C 8.5275 -3.41469 1.14327 0
M  V30 96 C 8.3805 -3.61833 2.67201 0
M  V30 97 C 9.6995 -4.34261 0.714529 0
M  V30 98 H 6.8185 -0.690254 0.2583 0
M  V30 99 H 9.4605 -1.41826 1.26433 0
M  V30 100 H 7.6105 -3.82696 0.669056 0
M  V30 101 H 9.2825 -3.2986 3.22475 0
M  V30 102 H 7.5255 -3.05304 3.08175 0
M  V30 103 H 8.1965 -4.67955 2.92783 0
M  V30 104 H 10.6725 -4.00682 1.12221 0
M  V30 105 H 9.5485 -5.38806 1.04784 0
M  V30 106 H 9.8095 -4.40431 -0.383799 0
M  V30 107 N 8.8686 -0.792821 -1.36206 0
M  V30 108 C 10.1176 -0.363353 -1.984 0
M  V30 109 C 10.4306 1.07172 -1.63626 0
M  V30 110 O 11.6366 1.60362 -2.19081 0
M  V30 111 C 10.0926 -0.59872 -3.54885 0
M  V30 112 C 9.7006 -2.04543 -3.9858 0
M  V30 113 C 11.4446 -0.233926 -4.23855 0
M  V30 114 C 9.3516 -2.22727 -5.47856 0
M  V30 115 H 8.2816 -0.13212 -0.742334 0
M  V30 116 H 10.9326 -0.974935 -1.55458 0
M  V30 117 H 9.3146 0.0826222 -3.95914 0
M  V30 118 H 10.4886 -2.76345 -3.68741 0
M  V30 119 H 8.8036 -2.36879 -3.42458 0
M  V30 120 H 11.4006 -0.348027 -5.33566 0
M  V30 121 H 11.7436 0.818351 -4.08177 0
M  V30 122 H 12.2766 -0.868639 -3.882 0
M  V30 123 H 9.0156 -3.2635 -5.68486 0
M  V30 124 H 8.5356 -1.55434 -5.7931 0
M  V30 125 H 10.2146 -2.03607 -6.14128 0
M  V30 126 N 10.3467 1.47872 -0.545128 0
M  V30 127 C 11.3097 2.28337 0.198717 0
M  V30 128 C 12.3097 1.36255 0.853888 0
M  V30 129 O 13.4997 1.59003 0.711606 0
M  V30 130 C 10.6317 3.15585 1.28915 0
M  V30 131 H 11.8247 2.95567 -0.507941 0
M  V30 132 H 9.3777 1.53362 -0.301616 0
M  V30 133 H 10.1127 2.53019 2.02859 0
M  V30 134 H 9.8977 3.83337 0.824309 0
M  V30 135 H 11.3877 3.76243 1.81194 0
M  V30 136 N 11.8248 0.280983 1.55075 0
M  V30 137 C 12.7728 -0.619864 2.24188 0
M  V30 138 C 13.7668 -1.15315 1.24092 0
M  V30 139 O 14.9728 -1.1061 1.42005 0
M  V30 140 H 11.3478 -0.218459 0.719569 0
M  V30 141 H 13.3188 -0.0141831 2.98397 0
M  V30 142 C 12.0678 -1.7899 2.98091 0
M  V30 143 H 11.3908 -1.38874 3.74905 0
M  V30 144 H 12.8308 -2.39672 3.49762 0
M  V30 145 C 11.2898 -2.68192 2.03899 0
M  V30 146 O 11.8198 -3.6872 1.594 0
M  V30 147 N 10.0258 -2.35488 1.70275 0
M  V30 148 H 9.5728 -1.53787 2.06658 0
M  V30 149 H 9.5308 -2.95442 1.07524 0
M  V30 150 N 13.3029 -1.57598 0.00835791 0
M  V30 151 C 14.7189 -1.55764 -0.347822 0
M  V30 152 C 14.9189 -1.01186 -1.74252 0
M  V30 153 O 13.9749 -0.649371 -2.44007 0
M  V30 154 C 15.2879 -2.99927 -0.215407 0
M  V30 155 C 16.8359 -3.11656 -0.289725 0
M  V30 156 C 17.3109 -4.57621 -0.18634 0
M  V30 157 N 18.8019 -4.62557 -0.243978 0
M  V30 158 C 19.5369 -5.73094 -0.18745 0
M  V30 159 N 19.0329 -6.92753 -0.0810331 0
M  V30 160 N 20.8259 -5.61588 -0.239925 0
M  V30 161 H 12.9769 -1.91411 0.92062 0
M  V30 162 H 15.2399 -0.879562 0.353659 0
M  V30 163 H 14.9459 -3.43729 0.744512 0
M  V30 164 H 14.8199 -3.63865 -0.994097 0
M  V30 165 H 17.2069 -2.67779 -1.24009 0
M  V30 166 H 17.2879 -2.5048 0.51898 0
M  V30 167 H 16.9319 -5.02174 0.760519 0
M  V30 168 H 16.8619 -5.16752 -1.01364 0
M  V30 169 H 19.3529 -3.76481 -0.327217 0
M  V30 170 H 19.6659 -7.72787 -0.0440241 0
M  V30 171 H 18.0109 -6.94984 -0.0465419 0
M  V30 172 H 21.2019 -4.66996 -0.321317 0
M  V30 173 H 21.3749 -6.47714 -0.192407 0
M  V30 174 N 14.781 0.264519 -1.55364 0
M  V30 175 C 16.029 0.993021 -1.76021 0
M  V30 176 C 16.35 1.86511 -0.569099 0
M  V30 177 O 15.62 1.91438 0.415735 0
M  V30 178 H 14.2 0.369639 -0.649135 0
M  V30 179 H 16.862 0.286707 -1.9278 0
M  V30 180 H 15.958 1.62502 -2.66457 0
M  V30 181 N 16.2591 1.48442 0.529413 0
M  V30 182 C 17.1691 1.6569 1.66084 0
M  V30 183 C 18.1851 0.539432 1.65427 0
M  V30 184 O 19.3611 0.810572 1.84368 0
M  V30 185 C 16.4261 1.69315 3.02545 0
M  V30 186 C 15.4871 2.92694 3.14052 0
M  V30 187 C 14.7201 2.96137 4.44003 0
M  V30 188 O 14.9431 2.07973 5.31134 0
M  V30 189 O 13.8771 3.88312 4.59888 0
M  V30 190 H 17.7031 2.61483 1.54469 0
M  V30 191 H 15.2881 1.3185 0.702567 0
M  V30 192 H 17.1701 1.74217 3.83701 0
M  V30 193 H 15.8451 0.766966 3.14483 0
M  V30 194 H 14.7521 2.93324 2.32189 0
M  V30 195 H 16.0851 3.84699 3.0703 0
M  V30 196 N 17.7372 -0.778329 1.37039 0
M  V30 197 C 18.9862 -1.53189 1.3121 0
M  V30 198 C 19.2992 -1.95328 -0.103095 0
M  V30 199 O 20.5052 -2.70012 -0.283826 0
M  V30 200 C 18.9612 -2.76591 2.30272 0
M  V30 201 C 18.5692 -2.41577 3.77286 0
M  V30 202 C 20.3132 -3.5455 2.33441 0
M  V30 203 C 18.2202 -3.61441 4.68096 0
M  V30 204 H 17.1502 -0.5751 0.487622 0
M  V30 205 H 19.8012 -0.853101 1.62464 0
M  V30 206 H 18.1832 -3.46326 1.92027 0
M  V30 207 H 19.3572 -1.79668 4.2433 0
M  V30 208 H 17.6722 -1.76806 3.76999 0
M  V30 209 H 20.2692 -4.43628 2.98493 0
M  V30 210 H 20.6122 -3.93936 1.34611 0
M  V30 211 H 21.1452 -2.91805 2.7036 0
M  V30 212 H 17.8842 -3.27142 5.6803 0
M  V30 213 H 17.4042 -4.22478 4.25761 0
M  V30 214 H 19.0832 -4.28335 4.8491 0
M  V30 215 N 19.2153 -1.21501 -1.00376 0
M  V30 216 C 20.1783 -0.976927 -2.07337 0
M  V30 217 C 21.1783 0.0525322 -1.60714 0
M  V30 218 O 22.3683 -0.184869 -1.73216 0
M  V30 219 C 19.5003 -0.473423 -3.37597 0
M  V30 220 H 20.6933 -1.92587 -2.29892 0
M  V30 221 H 18.2463 -1.03217 -1.17371 0
M  V30 222 H 18.9813 0.480379 -3.20722 0
M  V30 223 H 18.7663 -1.216 -3.72768 0
M  V30 224 H 20.2563 -0.32675 -4.1632 0
M  V30 225 N 20.6934 1.19889 -1.02296 0
M  V30 226 C 21.6234 2.25141 -0.619174 0
M  V30 227 C 22.6044 1.66051 0.368915 0
M  V30 228 O 23.7894 1.92546 0.252941 0
M  V30 229 C 20.9194 3.4728 0.0368783 0
M  V30 230 C 19.8734 4.19005 -0.872865 0
M  V30 231 C 19.1994 5.34637 -0.0822402 0
M  V30 232 C 20.4994 4.74452 -2.18387 0
M  V30 233 H 22.1934 2.59171 -1.49903 0
M  V30 234 H 19.7394 1.24579 -0.722222 0
M  V30 235 H 21.6924 4.20098 0.330958 0
M  V30 236 H 20.4164 3.12433 0.95149 0
M  V30 237 H 19.0754 3.48061 -1.15105 0
M  V30 238 H 18.7234 4.96034 0.83422 0
M  V30 239 H 18.4234 5.83557 -0.688149 0
M  V30 240 H 19.9474 6.10255 0.205238 0
M  V30 241 H 21.3614 5.39055 -1.95172 0
M  V30 242 H 19.7584 5.33834 -2.74119 0
M  V30 243 H 20.8284 3.92844 -2.84257 0
M  V30 244 N 22.1715 0.800033 1.35784 0
M  V30 245 C 23.5875 0.482977 1.52117 0
M  V30 246 C 23.7875 -0.996948 1.75109 0
M  V30 247 O 22.8435 -1.78216 1.78872 0
M  V30 248 C 24.1565 1.32264 2.70049 0
M  V30 249 C 25.7045 1.31742 2.83924 0
M  V30 250 C 26.1795 2.14106 4.04874 0
M  V30 251 N 27.6705 2.11607 4.12039 0
M  V30 252 C 28.4055 2.72099 5.04727 0
M  V30 253 N 27.9015 3.41492 6.02789 0
M  V30 254 N 29.6945 2.61776 4.97423 0
M  V30 255 H 21.8455 1.75856 1.19115 0
M  V30 256 H 24.1085 0.748122 0.582252 0
M  V30 257 H 23.8145 2.37261 2.59616 0
M  V30 258 H 23.6885 0.971303 3.6448 0
M  V30 259 H 26.0755 0.275333 2.93813 0
M  V30 260 H 26.1565 1.70859 1.9037 0
M  V30 261 H 25.8005 3.18351 3.95746 0
M  V30 262 H 25.7305 1.72353 4.97596 0
M  V30 263 H 28.2215 1.61112 3.41835 0
M  V30 264 H 28.5345 3.84953 6.70098 0
M  V30 265 H 26.8795 3.45596 6.02983 0
M  V30 266 H 30.0705 2.07157 4.19766 0
M  V30 267 H 30.2435 3.0921 5.69468 0
M  V30 268 N 23.6496 -1.47581 0.552962 0
M  V30 269 C 24.8986 -2.01684 0.0251995 0
M  V30 270 C 25.2116 -1.43317 -1.33115 0
M  V30 271 O 26.4176 -1.89057 -1.94858 0
M  V30 272 C 24.8736 -3.599 -0.00542052 0
M  V30 273 C 24.4816 -4.27257 1.34742 0
M  V30 274 C 26.2256 -4.21768 -0.4808 0
M  V30 275 C 24.1326 -5.77467 1.27614 0
M  V30 276 H 23.0626 -0.753979 0.00565033 0
M  V30 277 H 25.7136 -1.69616 0.70018 0
M  V30 278 H 24.0956 -3.88911 -0.745961 0
M  V30 279 H 25.2696 -4.09893 2.10534 0
M  V30 280 H 23.5846 -3.77358 1.76039 0
M  V30 281 H 26.1816 -5.31838 -0.55246 0
M  V30 282 H 26.5246 -3.88651 -1.49184 0
M  V30 283 H 27.0576 -3.97273 0.204752 0
M  V30 284 H 23.7966 -6.15196 2.26304 0
M  V30 285 H 23.3166 -5.9718 0.55996 0
M  V30 286 H 24.9956 -6.3959 0.976421 0
M  V30 287 N 25.1277 -0.289203 -1.54924 0
M  V30 288 C 26.0577 0.58549 -2.2604 0
M  V30 289 C 27.0387 1.14753 -1.25562 0
M  V30 290 O 28.2237 1.17906 -1.54311 0
M  V30 291 C 25.3537 1.76305 -2.99222 0
M  V30 292 C 24.3077 1.33191 -4.06748 0
M  V30 293 C 23.6337 2.5937 -4.6758 0
M  V30 294 C 24.9337 0.471775 -5.20165 0
M  V30 295 H 26.6277 -0.00763532 -2.99399 0
M  V30 296 H 24.1737 -0.00511229 -1.43999 0
M  V30 297 H 26.1267 2.38097 -3.47689 0
M  V30 298 H 24.8507 2.38223 -2.23422 0
M  V30 299 H 23.5097 0.737121 -3.59113 0
M  V30 300 H 23.1577 3.19576 -3.88433 0
M  V30 301 H 22.8577 2.31228 -5.40192 0
M  V30 302 H 24.3817 3.21985 -5.18804 0
M  V30 303 H 25.7957 0.995056 -5.64599 0
M  V30 304 H 24.1927 0.284639 -5.99425 0
M  V30 305 H 25.2627 -0.506041 -4.82252 0
M  V30 306 N 26.6058 1.57591 -0.0167156 0
M  V30 307 C 28.0218 1.55946 0.339557 0
M  V30 308 C 28.2218 1.02109 1.73713 0
M  V30 309 O 27.2778 0.662303 2.43659 0
M  V30 310 C 28.5908 3.00037 0.199499 0
M  V30 311 C 30.1388 3.11805 0.273193 0
M  V30 312 C 30.6138 4.57713 0.162068 0
M  V30 313 N 32.1048 4.6268 0.219444 0
M  V30 314 C 32.8398 5.73185 0.157054 0
M  V30 315 N 32.3358 6.92786 0.0442936 0
M  V30 316 N 34.1288 5.61707 0.21014 0
M  V30 317 H 26.2798 1.90921 -0.930758 0
M  V30 318 H 28.5428 0.877674 -0.358319 0
M  V30 319 H 28.2488 3.4333 -0.76273 0
M  V30 320 H 28.1228 3.64387 0.974786 0
M  V30 321 H 30.5098 2.68433 1.22587 0
M  V30 322 H 30.5908 2.50201 -0.532256 0
M  V30 323 H 30.2348 5.01763 -0.78714 0
M  V30 324 H 30.1648 5.17283 0.986222 0
M  V30 325 H 32.6558 3.76649 0.307246 0
M  V30 326 H 32.9688 7.728 0.00304069 0
M  V30 327 H 31.3138 6.94999 0.00968457 0
M  V30 328 H 34.5048 4.6716 0.296546 0
M  V30 329 H 34.6778 6.47807 0.158054 0
M  V30 330 N 28.0839 -0.256276 1.55502 0
M  V30 331 C 29.0469 -1.30047 1.88734 0
M  V30 332 C 30.0469 -1.4154 0.763086 0
M  V30 333 O 31.2369 -1.40403 1.03115 0
M  V30 334 C 28.3689 -2.67953 2.10747 0
M  V30 335 H 29.5619 -1.01802 2.82093 0
M  V30 336 H 27.1149 -0.495134 1.4825 0
M  V30 337 H 27.8499 -3.01351 1.19825 0
M  V30 338 H 27.6349 -2.60993 2.92617 0
M  V30 339 H 29.1249 -3.43368 2.37673 0
M  V30 340 N 29.562 -1.4872 -0.521534 0
M  V30 341 C 30.802 -1.58771 -1.28729 0
M  V30 342 C 31.166 -0.259394 -1.9024 0
M  V30 343 O 32.367 -0.234942 -2.67771 0
M  V30 344 C 30.638 -2.70039 -2.34124 0
M  V30 345 S 32.197 -2.9991 -3.20312 0
M  V30 346 H 29.015 -0.560251 -0.437767 0
M  V30 347 H 31.617 -1.86283 -0.593188 0
M  V30 348 H 30.321 -3.65101 -1.87429 0
M  V30 349 H 29.852 -2.44455 -3.08229 0
M  V30 350 H 31.867 -2.39855 -4.34378 0
M  V30 351 N 31.0401 0.771051 -1.3745 0
M  V30 352 C 31.9871 1.88435 -1.3327 0
M  V30 353 C 32.9571 1.64914 -0.198136 0
M  V30 354 O 34.1421 1.86821 -0.387606 0
M  V30 355 C 31.2821 3.25509 -1.14622 0
M  V30 356 C 30.3951 3.60979 -2.37314 0
M  V30 357 C 29.5301 4.87265 -2.11533 0
M  V30 358 C 28.5691 5.15469 -3.30088 0
M  V30 359 N 27.7061 6.32944 -3.03853 0
M  V30 360 H 32.5461 1.91344 -2.28455 0
M  V30 361 H 30.0831 0.935466 -1.13523 0
M  V30 362 H 32.0411 4.04582 -1.01831 0
M  V30 363 H 30.6711 3.21974 -0.230837 0
M  V30 364 H 29.7231 2.76885 -2.60842 0
M  V30 365 H 31.0351 3.77759 -3.25729 0
M  V30 366 H 30.1891 5.74244 -1.95777 0
M  V30 367 H 28.9281 4.7259 -1.20457 0
M  V30 368 H 27.9331 4.26966 -3.46382 0
M  V30 369 H 29.1581 5.32052 -4.22016 0
M  V30 370 H 27.1041 6.19625 -2.15407 0
M  V30 371 H 27.0211 6.50143 -3.85812 0
M  V30 372 H 28.2891 7.22857 -2.91716 0
M  V30 373 N 32.5182 1.22032 0.997298 0
M  V30 374 C 33.4282 1.00271 2.12092 0
M  V30 375 C 34.4442 -0.047621 1.73935 0
M  V30 376 O 35.6202 0.144136 2.00884 0
M  V30 377 C 32.6852 0.578449 3.4184 0
M  V30 378 C 31.7462 1.70189 3.94125 0
M  V30 379 C 30.9792 1.29778 5.17681 0
M  V30 380 O 31.2022 0.174676 5.70132 0
M  V30 381 O 30.1362 2.11261 5.63607 0
M  V30 382 H 33.9622 1.94398 2.3333 0
M  V30 383 H 31.5472 1.00587 1.10465 0
M  V30 384 H 33.4292 0.351998 4.19927 0
M  V30 385 H 32.1042 -0.334019 3.21972 0
M  V30 386 H 31.0112 1.98282 3.1723 0
M  V30 387 H 32.3442 2.59206 4.18417 0
M  V30 388 N 33.9963 -1.19345 1.0293 0
M  V30 389 C 34.9263 -2.2481 0.631105 0
M  V30 390 C 35.9073 -1.66245 -0.360104 0
M  V30 391 O 37.0923 -1.92677 -0.242726 0
M  V30 392 C 34.2223 -3.47295 -0.0184607 0
M  V30 393 C 33.1763 -4.18536 0.895073 0
M  V30 394 C 32.5023 -5.34586 0.110592 0
M  V30 395 C 33.8023 -4.73287 2.209 0
M  V30 396 H 35.4963 -2.58372 1.51275 0
M  V30 397 H 33.0423 -1.24194 0.728818 0
M  V30 398 H 34.9953 -4.20268 -0.308675 0
M  V30 399 H 33.7193 -3.12933 -0.934907 0
M  V30 400 H 32.3783 -3.47446 1.16949 0
M  V30 401 H 32.0263 -4.96469 -0.807902 0
M  V30 402 H 31.7263 -5.83183 0.719087 0
M  V30 403 H 33.2503 -6.10355 -0.172871 0
M  V30 404 H 34.6643 -5.38013 1.98028 0
M  V30 405 H 33.0613 -5.32373 2.76946 0
M  V30 406 H 34.1313 -3.91331 2.86336 0
M  V30 407 N 35.4744 -0.807222 -1.35358 0
M  V30 408 C 36.7224 -0.387122 -1.98358 0
M  V30 409 C 37.0434 1.04942 -1.64354 0
M  V30 410 O 36.3134 1.72615 -0.926339 0
M  V30 411 H 34.8934 -0.140154 -0.733734 0
M  V30 412 H 37.5554 -1.0332 -1.6526 0
M  V30 413 H 36.6514 -0.493352 -3.08176 0
M  V30 414 N 36.9525 1.47285 -0.560781 0
M  V30 415 C 38.2015 2.01668 -0.035895 0
M  V30 416 C 38.5145 1.44021 1.32353 0
M  V30 417 O 39.7205 1.90088 1.93853 0
M  V30 418 C 38.1765 3.59897 -0.0136659 0
M  V30 419 C 37.7845 4.26536 -1.37006 0
M  V30 420 C 39.5285 4.22017 0.458425 0
M  V30 421 C 37.4355 5.76782 -1.30675 0
M  V30 422 H 36.3655 0.753938 -0.00964879 0
M  V30 423 H 39.0165 1.69243 -0.709166 0
M  V30 424 H 37.3985 3.89301 0.725325 0
M  V30 425 H 38.5725 4.0877 -2.12705 0
M  V30 426 H 36.8875 3.76419 -1.78038 0
M  V30 427 H 39.4845 5.32124 0.524247 0
M  V30 428 H 39.8275 3.89437 1.4712 0
M  V30 429 H 40.3605 3.97159 -0.225818 0
M  V30 430 H 37.0995 6.13988 -2.29564 0
M  V30 431 H 36.6195 5.96875 -0.591622 0
M  V30 432 H 38.2985 6.39063 -1.01033 0
M  V30 433 N 38.4306 0.297415 1.54768 0
M  V30 434 C 39.3776 -0.580276 2.23386 0
M  V30 435 C 40.3476 -1.13238 1.21517 0
M  V30 436 O 41.5326 -1.17757 1.50126 0
M  V30 437 C 38.6726 -1.74801 2.97555 0
M  V30 438 C 37.7856 -1.22764 4.1419 0
M  V30 439 C 36.9206 -2.35895 4.75949 0
M  V30 440 C 35.9596 -1.80974 5.84735 0
M  V30 441 N 35.0966 -2.87664 6.40464 0
M  V30 442 H 39.9366 0.0114833 2.97998 0
M  V30 443 H 37.4736 0.0174361 1.4709 0
M  V30 444 H 39.4316 -2.43475 3.38786 0
M  V30 445 H 38.0616 -2.31145 2.25326 0
M  V30 446 H 37.1136 -0.433271 3.77924 0
M  V30 447 H 38.4256 -0.785551 4.92575 0
M  V30 448 H 37.5796 -3.12523 5.20014 0
M  V30 449 H 36.3186 -2.83429 3.96887 0
M  V30 450 H 35.3236 -1.02834 5.40097 0
M  V30 451 H 36.5486 -1.34348 6.65678 0
M  V30 452 H 34.4946 -3.34538 5.64287 0
M  V30 453 H 34.4116 -2.4794 7.14186 0
M  V30 454 H 35.6796 -3.642 6.89187 0
M  V30 455 N 39.9087 -1.5758 0.0250728 0
M  V30 456 C 41.1367 -1.9593 -0.664747 0
M  V30 457 C 41.5517 -0.901352 -1.65895 0
M  V30 458 O 40.9087 0.117255 -1.82123 0
M  V30 459 C 40.9597 -3.34342 -1.37468 0
M  V30 460 O 40.6807 -4.36079 -0.420324 0
M  V30 461 C 42.1817 -3.873 -2.1567 0
M  V30 462 H 39.4017 -0.645405 -0.183557 0
M  V30 463 H 41.9457 -2.04329 0.0836372 0
M  V30 464 H 40.1007 -3.27175 -2.0745 0
M  V30 465 H 40.5147 -5.16297 -0.923991 0
M  V30 466 H 41.9887 -4.86504 -2.60803 0
M  V30 467 H 42.4657 -3.21331 -2.99405 0
M  V30 468 H 43.0717 -3.97723 -1.50654 0
M  V30 469 N 41.3868 0.248026 -1.55636 0
M  V30 470 C 42.6328 0.97767 -1.77678 0
M  V30 471 C 42.9658 1.85016 -0.590135 0
M  V30 472 O 42.2408 1.90095 0.411611 0
M  V30 473 C 42.5238 1.83914 -3.09593 0
M  V30 474 C 42.3768 0.99491 -4.38659 0
M  V30 475 C 43.6958 2.82183 -3.37729 0
M  V30 476 H 40.8148 0.354005 -0.646413 0
M  V30 477 H 43.4568 0.248253 -1.88371 0
M  V30 478 H 41.6068 2.46104 -3.00608 0
M  V30 479 H 43.2788 0.391789 -4.59633 0
M  V30 480 H 41.5218 0.299231 -4.32767 0
M  V30 481 H 42.1928 1.63145 -5.2734 0
M  V30 482 H 44.6688 2.30129 -3.4667 0
M  V30 483 H 43.5448 3.39582 -4.31249 0
M  V30 484 H 43.8058 3.58588 -2.58586 0
M  V30 485 N 42.8649 1.48995 0.513639 0
M  V30 486 C 43.8279 1.64229 1.59879 0
M  V30 487 C 44.8279 0.514696 1.5234 0
M  V30 488 O 46.0179 0.78087 1.55718 0
M  V30 489 C 43.1499 1.62783 2.99524 0
M  V30 490 H 44.3429 2.61004 1.47705 0
M  V30 491 H 41.8959 1.37837 0.736936 0
M  V30 492 H 42.6309 0.675461 3.17188 0
M  V30 493 H 42.4159 2.4466 3.06404 0
M  V30 494 H 43.9059 1.76669 3.78388 0
M  V30 495 N 44.343 -0.763751 1.37857 0
M  V30 496 C 45.589 -1.52483 1.33704 0
M  V30 497 C 45.922 -1.94051 -0.0759612 0
M  V30 498 O 45.197 -1.64675 -1.03501 0
M  V30 499 C 45.48 -2.78441 2.28348 0
M  V30 500 C 45.333 -2.43075 3.78463 0
M  V30 501 C 46.652 -3.80415 2.21298 0
M  V30 502 H 43.771 -0.553169 0.487005 0
M  V30 503 H 46.413 -0.875562 1.68624 0
M  V30 504 H 44.563 -3.33842 1.987 0
M  V30 505 H 46.235 -1.93527 4.18742 0
M  V30 506 H 44.478 -1.75666 3.96641 0
M  V30 507 H 45.149 -3.33149 4.40132 0
M  V30 508 H 47.625 -3.34527 2.47449 0
M  V30 509 H 46.501 -4.66257 2.89647 0
M  V30 510 H 46.762 -4.25262 1.20849 0
M  V30 511 N 45.8211 -1.22559 -0.990812 0
M  V30 512 C 46.7711 -0.964807 -2.0658 0
M  V30 513 C 47.7551 0.0853472 -1.60673 0
M  V30 514 O 48.9471 -0.125443 -1.76555 0
M  V30 515 C 46.0761 -0.546707 -3.38919 0
M  V30 516 C 45.1621 -1.6317 -3.91454 0
M  V30 517 N 45.5531 -2.85985 -4.17189 0
M  V30 518 C 43.8511 -1.50387 -4.19881 0
M  V30 519 C 44.5521 -3.56159 -4.59919 0
M  V30 520 N 43.5281 -2.83637 -4.63736 0
M  V30 521 H 47.3301 -1.89769 -2.24421 0
M  V30 522 H 44.8441 -1.12343 -1.17273 0
M  V30 523 H 46.8411 -0.34119 -4.15502 0
M  V30 524 H 45.5011 0.379254 -3.22478 0
M  V30 525 H 46.5121 -3.22392 -4.05319 0
M  V30 526 H 43.1891 -0.644254 -4.12499 0
M  V30 527 H 44.5791 -4.6139 -4.88435 0
M  V30 528 N 47.2992 1.18797 -1.03562 0
M  V30 529 C 48.5242 1.9314 -0.755764 0
M  V30 530 C 48.9492 1.7537 0.68022 0
M  V30 531 O 48.3072 1.06046 1.47051 0
M  V30 532 C 48.3552 3.42747 -1.12058 0
M  V30 533 O 47.4592 4.11683 -0.243124 0
M  V30 534 H 46.8002 0.602724 -0.278604 0
M  V30 535 H 49.3302 1.50678 -1.3841 0
M  V30 536 H 49.3402 3.93437 -1.08035 0
M  V30 537 H 48.0152 3.55002 -2.16672 0
M  V30 538 H 46.5922 3.71323 -0.342539 0
M  V30 539 N 48.7773 0.814389 1.34928 0
M  V30 540 C 50.0023 0.410097 2.03305 0
M  V30 541 C 50.4273 -0.973464 1.60951 0
M  V30 542 O 49.7853 -1.63185 0.789964 0
M  V30 543 C 49.8333 0.51049 3.56968 0
M  V30 544 O 48.9373 -0.473035 4.09678 0
M  V30 545 H 48.2783 0.170088 0.641846 0
M  V30 546 H 50.8083 1.10244 1.72358 0
M  V30 547 H 50.8183 0.383135 4.06197 0
M  V30 548 H 49.4933 1.51963 3.87144 0
M  V30 549 H 48.0703 -0.305272 3.71648 0
M  V30 550 N 50.2554 -1.46986 0.568584 0
M  V30 551 C 51.2184 -2.28624 -0.162366 0
M  V30 552 C 52.2184 -1.37596 -0.832103 0
M  V30 553 O 53.4084 -1.60115 -0.68622 0
M  V30 554 C 50.5404 -3.17596 -1.23878 0
M  V30 555 H 51.7334 -2.94722 0.554899 0
M  V30 556 H 49.2864 -1.52863 0.325976 0
M  V30 557 H 50.0214 -2.56214 -1.98808 0
M  V30 558 H 49.8064 -3.846 -0.763219 0
M  V30 559 H 51.2964 -3.79078 -1.75185 0
M  V30 560 N 51.7335 -0.305618 -1.54608 0
M  V30 561 C 53.0105 0.355652 -1.92339 0
M  V30 562 C 53.3905 1.71324 -1.23335 0
M  V30 563 O 52.7385 2.25473 -0.370702 0
M  V30 564 C 52.9485 0.46572 -3.45879 0
M  V30 565 C 54.2965 0.734426 -4.182 0
M  V30 566 O 55.3205 0.54935 -3.51938 0
M  V30 567 O 54.1795 1.09024 -5.35515 0
M  V30 568 H 51.2735 0.199666 -0.802535 0
M  V30 569 H 53.8195 -0.354017 -1.65966 0
M  V30 570 H 52.5915 -0.488461 -3.88239 0
M  V30 571 H 52.2145 1.22367 -3.78301 0
M  V30 572 N 53.2116 1.57565 -0.0334293 0
M  V30 573 C 54.6276 1.56297 0.322997 0
M  V30 574 C 54.8276 1.03945 1.7262 0
M  V30 575 O 53.8836 0.688109 2.42943 0
M  V30 576 C 55.1966 3.00232 0.167664 0
M  V30 577 C 56.7446 3.12078 0.240107 0
M  V30 578 C 57.2196 4.57859 0.113513 0
M  V30 579 N 58.7106 4.62887 0.170359 0
M  V30 580 C 59.4456 5.73319 0.0962517 0
M  V30 581 N 58.9416 6.92794 -0.0291881 0
M  V30 582 N 60.7346 5.61898 0.150551 0
M  V30 583 H 52.8856 1.89923 -0.950956 0
M  V30 584 H 55.1486 0.873824 -0.367608 0
M  V30 585 H 54.8546 3.42501 -0.799102 0
M  V30 586 H 54.7286 3.654 0.936083 0
M  V30 587 H 57.1156 2.69718 1.19733 0
M  V30 588 H 57.1966 2.49623 -0.558763 0
M  V30 589 H 56.8406 5.009 -0.840314 0
M  V30 590 H 56.7706 5.18299 0.931302 0
M  V30 591 H 59.2616 3.76954 0.26728 0
M  V30 592 H 59.5746 7.7276 -0.0789252 0
M  V30 593 H 57.9196 6.94971 -0.0640299 0
M  V30 594 H 61.1106 4.67448 0.246981 0
M  V30 595 H 61.2836 6.47938 0.0893365 0
M  V30 596 N 54.6897 -0.239769 1.55765 0
M  V30 597 C 55.9667 -0.990056 1.68693 0
M  V30 598 C 56.3467 -2.03107 0.5754 0
M  V30 599 O 55.6947 -2.24604 -0.42017 0
M  V30 600 C 55.9047 -1.61696 3.09282 0
M  V30 601 C 57.2527 -2.11613 3.6811 0
M  V30 602 O 58.2767 -1.71624 3.12127 0
M  V30 603 O 57.1357 -2.85057 4.66267 0
M  V30 604 H 54.2297 -0.461299 0.686391 0
M  V30 605 H 56.7757 -0.232991 1.68093 0
M  V30 606 H 55.5477 -0.864357 3.81634 0
M  V30 607 H 55.1707 -2.44005 3.13923 0
M  V30 608 N 56.1678 -1.49265 -0.50573 0
M  V30 609 C 57.0978 -1.68495 -1.61653 0
M  V30 610 C 58.0788 -0.53366 -1.61512 0
M  V30 611 O 59.2638 -0.76897 -1.78327 0
M  V30 612 C 56.3938 -1.74709 -3.00157 0
M  V30 613 C 55.3478 -2.89581 -3.15162 0
M  V30 614 C 54.6738 -2.80903 -4.5497 0
M  V30 615 C 55.9738 -4.30578 -2.95634 0
M  V30 616 H 57.6678 -2.61493 -1.45814 0
M  V30 617 H 55.2138 -1.25838 -0.70005 0
M  V30 618 H 57.1668 -1.86748 -3.77761 0
M  V30 619 H 55.8908 -0.783067 -3.17074 0
M  V30 620 H 54.5498 -2.77136 -2.39982 0
M  V30 621 H 54.1978 -1.82419 -4.68756 0
M  V30 622 H 53.8978 -3.57999 -4.65951 0
M  V30 623 H 55.4218 -2.94944 -5.34641 0
M  V30 624 H 56.8358 -4.4373 -3.63011 0
M  V30 625 H 55.2328 -5.0886 -3.18091 0
M  V30 626 H 56.3028 -4.45352 -1.91806 0
M  V30 627 N 57.6459 0.756429 -1.3826 0
M  V30 628 C 58.5929 1.87011 -1.35261 0
M  V30 629 C 59.5629 1.64695 -0.215616 0
M  V30 630 O 60.7479 1.864 -0.407399 0
M  V30 631 C 57.8879 3.24275 -1.18068 0
M  V30 632 C 57.0009 3.58442 -2.41129 0
M  V30 633 C 56.1359 4.84994 -2.16689 0
M  V30 634 C 55.1749 5.11939 -3.35537 0
M  V30 635 N 54.3119 6.29685 -3.10549 0
M  V30 636 H 59.1519 1.8891 -2.30472 0
M  V30 637 H 56.6889 0.923373 -1.14509 0
M  V30 638 H 58.6469 4.03479 -1.06116 0
M  V30 639 H 57.2769 3.21711 -0.264973 0
M  V30 640 H 56.3289 2.74103 -2.63764 0
M  V30 641 H 57.6409 3.74283 -3.29717 0
M  V30 642 H 56.7949 5.72135 -2.01857 0
M  V30 643 H 55.5339 4.71286 -1.25462 0
M  V30 644 H 54.5389 4.23268 -3.50891 0
M  V30 645 H 55.7639 5.27546 -4.27635 0
M  V30 646 H 53.7099 6.17306 -2.21967 0
M  V30 647 H 53.6269 6.46014 -3.92686 0
M  V30 648 H 54.8949 7.19722 -2.99367 0
M  V30 649 N 59.124 1.23083 0.984299 0
M  V30 650 C 60.074 0.975749 2.06066 0
M  V30 651 C 61.058 -0.0768251 1.60716 0
M  V30 652 O 62.25 0.134805 1.76486 0
M  V30 653 C 59.379 0.564673 3.38624 0
M  V30 654 C 58.465 1.65244 3.90583 0
M  V30 655 N 58.856 2.88193 4.15666 0
M  V30 656 C 57.154 1.52612 4.19077 0
M  V30 657 C 57.855 3.58593 4.58024 0
M  V30 658 N 56.831 2.86093 4.62225 0
M  V30 659 H 60.633 1.90957 2.23411 0
M  V30 660 H 58.147 1.12963 1.16675 0
M  V30 661 H 60.144 0.36322 4.15315 0
M  V30 662 H 58.804 -0.362147 3.22674 0
M  V30 663 H 59.815 3.24537 4.03604 0
M  V30 664 H 56.492 0.666121 4.12152 0
M  V30 665 H 57.882 4.63974 4.85982 0
M  V30 666 N 60.6021 -1.18246 1.0419 0
M  V30 667 C 61.8481 -1.88536 0.747122 0
M  V30 668 C 62.1811 -1.80223 -0.723409 0
M  V30 669 O 61.4561 -1.20337 -1.52804 0
M  V30 670 C 61.7391 -3.38968 1.21544 0
M  V30 671 C 61.5921 -3.56084 2.74816 0
M  V30 672 C 62.9111 -4.32648 0.806482 0
M  V30 673 H 60.0301 -0.684619 0.272883 0
M  V30 674 H 62.6721 -1.39113 1.29413 0
M  V30 675 H 60.8221 -3.8119 0.750081 0
M  V30 676 H 62.4941 -3.22946 3.29399 0
M  V30 677 H 60.7371 -2.98699 3.14582 0
M  V30 678 H 61.4081 -4.61639 3.02644 0
M  V30 679 H 63.8841 -3.98211 1.20695 0
M  V30 680 H 62.7601 -5.36462 1.1619 0
M  V30 681 H 63.0211 -4.41146 -0.29029 0
M  V30 682 N 62.0802 -0.821533 -1.34494 0
M  V30 683 C 63.0102 -0.257138 -2.3208 0
M  V30 684 C 63.9912 0.625645 -1.58176 0
M  V30 685 O 65.1762 0.552811 -1.86166 0
M  V30 686 C 62.3062 0.582958 -3.42372 0
M  V30 687 C 61.2602 -0.202571 -4.2752 0
M  V30 688 C 60.5862 0.760179 -5.29269 0
M  V30 689 C 61.8862 -1.40998 -5.02908 0
M  V30 690 H 63.5802 -1.07247 -2.79532 0
M  V30 691 H 61.1262 -0.517163 -1.34393 0
M  V30 692 H 63.0792 0.987972 -4.09655 0
M  V30 693 H 61.8032 1.43133 -2.93565 0
M  V30 694 H 60.4622 -0.588936 -3.61838 0
M  V30 695 H 60.1102 1.60447 -4.76724 0
M  V30 696 H 59.8102 0.238809 -5.87115 0
M  V30 697 H 61.3342 1.16308 -5.9942 0
M  V30 698 H 62.7482 -1.07905 -5.63054 0
M  V30 699 H 61.1452 -1.86689 -5.70322 0
M  V30 700 H 62.2152 -2.1889 -4.32684 0
M  V30 701 N 63.5583 1.46682 -0.576371 0
M  V30 702 C 64.4883 2.33028 0.148397 0
M  V30 703 C 65.4693 1.44961 0.889956 0
M  V30 704 O 66.6543 1.73789 0.866662 0
M  V30 705 C 63.7843 3.27117 1.1667 0
M  V30 706 C 62.7383 4.24575 0.540386 0
M  V30 707 C 62.0643 5.08126 1.6647 0
M  V30 708 C 63.3643 5.19722 -0.518331 0
M  V30 709 H 65.0583 2.93875 -0.572509 0
M  V30 710 H 62.6043 1.41315 -0.276768 0
M  V30 711 H 64.5573 3.86374 1.68204 0
M  V30 712 H 63.2813 2.64364 1.9178 0
M  V30 713 H 61.9403 3.66571 0.0461769 0
M  V30 714 H 61.5883 4.41762 2.40531 0
M  V30 715 H 61.2883 5.74122 1.25131 0
M  V30 716 H 62.8123 5.70246 2.18293 0
M  V30 717 H 64.2263 5.73232 -0.0883058 0
M  V30 718 H 62.6233 5.94026 -0.851679 0
M  V30 719 H 63.6933 4.64037 -1.40703 0
M  V30 720 N 65.0364 0.313813 1.54444 0
M  V30 721 C 65.9994 -0.54379 2.22656 0
M  V30 722 C 66.9994 -1.05124 1.21678 0
M  V30 723 O 68.1894 -0.945225 1.46325 0
M  V30 724 C 65.3214 -1.75427 2.92298 0
M  V30 725 H 66.5144 0.0523599 2.99854 0
M  V30 726 H 64.0674 0.0647834 1.56166 0
M  V30 727 H 64.8024 -2.38991 2.19211 0
M  V30 728 H 64.5874 -1.39791 3.66334 0
M  V30 729 H 66.0774 -2.36325 3.44297 0
M  V30 730 N 66.5145 -1.57545 0.0417849 0
M  V30 731 C 67.7915 -1.83642 -0.673433 0
M  V30 732 C 68.1715 -0.928298 -1.89594 0
M  V30 733 O 67.5195 0.0129955 -2.28496 0
M  V30 734 C 67.7295 -3.33155 -1.03964 0
M  V30 735 C 69.0775 -3.99941 -1.42592 0
M  V30 736 O 70.1015 -3.37725 -1.13226 0
M  V30 737 O 68.9605 -5.09619 -1.9736 0
M  V30 738 H 66.0545 -0.757638 -0.331533 0
M  V30 739 H 68.6005 -1.69554 0.070433 0
M  V30 740 H 67.3725 -3.9093 -0.170098 0
M  V30 741 H 66.9955 -3.52396 -1.84126 0
M  V30 742 N 67.9926 0.231505 -1.5589 0
M  V30 743 C 68.9026 1.308 -1.94752 0
M  V30 744 C 69.9186 1.51826 -0.849989 0
M  V30 745 O 71.0946 1.6515 -1.15271 0
M  V30 746 C 68.1596 2.63968 -2.24771 0
M  V30 747 C 67.2206 2.51331 -3.48039 0
M  V30 748 C 66.4536 3.78148 -3.76616 0
M  V30 749 O 66.6766 4.80722 -3.07022 0
M  V30 750 O 65.6106 3.75857 -4.70123 0
M  V30 751 H 69.4366 1.0083 -2.86474 0
M  V30 752 H 67.0216 0.433547 -1.42971 0
M  V30 753 H 68.9036 3.42633 -2.45318 0
M  V30 754 H 67.5786 2.9364 -1.36225 0
M  V30 755 H 66.4856 1.709 -3.32782 0
M  V30 756 H 67.8186 2.26601 -4.36936 0
M  V30 757 N 69.4707 1.49531 0.497807 0
M  V30 758 C 70.6987 1.62893 1.27567 0
M  V30 759 C 71.1137 0.301585 1.86376 0
M  V30 760 O 70.4707 -0.713335 1.67982 0
M  V30 761 C 70.5217 2.70013 2.40364 0
M  V30 762 O 70.2427 3.976 1.83972 0
M  V30 763 C 71.7437 2.94109 3.31685 0
M  V30 764 H 68.9637 0.548298 0.386794 0
M  V30 765 H 71.5077 1.95584 0.597245 0
M  V30 766 H 69.6627 2.40092 3.04031 0
M  V30 767 H 70.0767 4.56631 2.58047 0
M  V30 768 H 71.5507 3.72788 4.07104 0
M  V30 769 H 72.0277 2.04147 3.88871 0
M  V30 770 H 72.6337 3.2546 2.73781 0
M  V30 771 N 70.9488 -0.749086 1.3866 0
M  V30 772 C 72.1948 -1.51056 1.35314 0
M  V30 773 C 72.5278 -1.94121 -0.0553751 0
M  V30 774 O 71.8028 -1.65763 -1.01749 0
M  V30 775 C 72.0858 -2.76003 2.31288 0
M  V30 776 C 71.9388 -2.39047 3.8102 0
M  V30 777 C 73.2578 -3.78046 2.2532 0
M  V30 778 H 70.3768 -0.547972 0.492844 0
M  V30 779 H 73.0188 -0.857628 1.69543 0
M  V30 780 H 71.1688 -3.31716 2.02229 0
M  V30 781 H 72.8408 -1.89074 4.20771 0
M  V30 782 H 71.0838 -1.71449 3.98482 0
M  V30 783 H 71.7548 -3.28462 4.4364 0
M  V30 784 H 74.2308 -3.31884 2.50983 0
M  V30 785 H 73.1068 -4.63159 2.94576 0
M  V30 786 H 73.3678 -4.23957 1.25352 0
M  V30 787 N 72.4269 -1.23603 -0.977757 0
M  V30 788 C 73.6669 -1.08148 -1.73446 0
M  V30 789 C 74.0309 0.374785 -1.88307 0
M  V30 790 O 75.2319 0.650588 -2.60808 0
M  V30 791 C 73.5029 -1.78991 -3.0935 0
M  V30 792 S 75.0619 -1.79141 -4.00567 0
M  V30 793 H 71.8799 -0.386987 -0.596458 0
M  V30 794 H 74.4819 -1.5678 -1.16792 0
M  V30 795 H 73.1859 -2.8408 -2.96187 0
M  V30 796 H 72.7169 -1.30651 -3.71071 0
M  V30 797 H 74.7319 -0.851892 -4.88833 0
M  V30 798 N 73.905 1.17692 -1.04816 0
M  V30 799 C 75.154 1.87192 -0.751132 0
M  V30 800 C 75.467 1.8169 0.724441 0
M  V30 801 O 76.673 2.46625 1.13527 0
M  V30 802 C 75.129 3.35857 -1.29338 0
M  V30 803 C 74.737 3.4987 -2.79812 0
M  V30 804 C 76.481 4.10709 -1.07322 0
M  V30 805 C 74.388 4.92536 -3.27356 0
M  V30 806 H 73.318 0.701162 -0.277288 0
M  V30 807 H 75.969 1.32932 -1.26496 0
M  V30 808 H 74.351 3.89631 -0.707376 0
M  V30 809 H 75.525 3.06332 -3.44235 0
M  V30 810 H 73.84 2.88433 -3.00325 0
M  V30 811 H 76.437 5.15952 -1.4035 0
M  V30 812 H 76.78 4.16299 -0.0108001 0
M  V30 813 H 77.313 3.6313 -1.62423 0
M  V30 814 H 74.052 4.92119 -4.33012 0
M  V30 815 H 73.572 5.3676 -2.67673 0
M  V30 816 H 75.251 5.61288 -3.21815 0
M  V30 817 N 75.3831 0.828654 1.34056 0
M  V30 818 C 76.6311 0.41863 1.97717 0
M  V30 819 C 76.9521 -1.02314 1.66002 0
M  V30 820 O 76.2221 -1.71119 0.953683 0
M  V30 821 H 74.8021 0.151809 0.731412 0
M  V30 822 H 77.4641 1.05936 1.63596 0
M  V30 823 H 76.5601 0.542318 3.07352 0
M  V30 824 N 76.8612 -1.46375 0.584142 0
M  V30 825 C 78.2722 -1.86031 0.157959 0
M  V30 826 C 78.6232 -1.48753 -1.27933 0
M  V30 827 O 77.7482 -0.903098 -1.96655 0
M  V30 828 C 78.3432 -3.37642 0.279892 0
M  V30 829 C 76.9022 -3.76289 -0.09143 0
M  V30 830 C 76.0492 -2.7039 0.615178 0
M  V30 831 H 79.0002 -1.37509 0.792274 0
M  V30 832 H 79.0212 -3.77275 -0.494364 0
M  V30 833 H 78.5332 -3.64742 1.32607 0
M  V30 834 H 76.6342 -3.54806 -1.13769 0
M  V30 835 H 76.7472 -4.78246 0.285886 0
M  V30 836 H 75.1112 -2.5464 0.0552833 0
M  V30 837 H 75.8942 -3.0033 1.66303 0
M  V30 838 N 78.3393 -0.321999 -1.54275 0
M  V30 839 C 79.3023 0.531975 -2.22941 0
M  V30 840 C 80.3023 1.04478 -1.22234 0
M  V30 841 O 81.4923 0.937452 -1.46825 0
M  V30 842 C 78.6243 1.73874 -2.93224 0
M  V30 843 H 79.8173 -0.0682612 -2.99822 0
M  V30 844 H 77.3703 -0.0730644 -1.56129 0
M  V30 845 H 78.1053 2.37825 -2.20476 0
M  V30 846 H 77.8903 1.37847 -3.6707 0
M  V30 847 H 79.3803 2.34496 -3.45545 0
M  V30 848 N 79.8174 1.5752 -0.0501392 0
M  V30 849 C 81.2284 1.80271 0.485705 0
M  V30 850 C 81.5794 0.96228 1.70981 0
M  V30 851 O 80.7044 0.178578 2.15662 0
M  V30 852 C 81.2994 3.26957 0.887938 0
M  V30 853 C 79.8584 3.5063 1.36877 0
M  V30 854 C 79.0054 2.75165 0.343468 0
M  V30 855 H 81.9564 1.56281 -0.276028 0
M  V30 856 H 81.9774 3.37821 1.75093 0
M  V30 857 H 81.4894 3.881 -0.0031809 0
M  V30 858 H 79.5904 2.94766 2.27911 0
M  V30 859 H 79.7034 4.59343 1.36164 0
M  V30 860 H 78.0674 2.4127 0.816128 0
M  V30 861 H 78.8504 3.39034 -0.539548 0
M  V30 862 N 81.2955 -0.223234 1.56011 0
M  V30 863 C 82.5205 -0.968978 1.83373 0
M  V30 864 C 82.9455 -1.77227 0.630254 0
M  V30 865 O 82.3035 -1.76345 -0.420959 0
M  V30 866 C 82.3515 -1.86363 3.08709 0
M  V30 867 O 81.4555 -2.95873 2.87285 0
M  V30 868 H 80.7965 -0.274461 0.604622 0
M  V30 869 H 83.3265 -0.237056 2.03222 0
M  V30 870 H 83.3365 -2.27376 3.38768 0
M  V30 871 H 82.0115 -1.27319 3.95933 0
M  V30 872 H 80.5885 -2.58818 2.68454 0
M  V30 873 N 82.7736 -1.49793 -0.48987 0
M  V30 874 C 84.0196 -1.60078 -1.24511 0
M  V30 875 C 84.3526 -0.291608 -1.91998 0
M  V30 876 O 83.6276 0.705647 -1.81248 0
M  V30 877 C 83.9106 -2.76791 -2.30345 0
M  V30 878 C 83.7636 -4.17535 -1.67286 0
M  V30 879 C 85.0826 -2.89111 -3.31817 0
M  V30 880 H 82.2016 -0.582645 -0.451324 0
M  V30 881 H 84.8436 -1.82117 -0.541612 0
M  V30 882 H 82.9936 -2.5813 -2.90346 0
M  V30 883 H 84.6656 -4.4774 -1.11026 0
M  V30 884 H 82.9086 -4.22665 -0.976577 0
M  V30 885 H 83.5796 -4.95094 -2.44103 0
M  V30 886 H 86.0556 -3.06133 -2.81819 0
M  V30 887 H 84.9316 -3.72433 -4.03219 0
M  V30 888 H 85.1926 -1.9893 -3.94815 0
M  V30 889 N 84.2517 0.741722 -1.39055 0
M  V30 890 C 85.1987 1.85566 -1.37237 0
M  V30 891 C 86.1687 1.64457 -0.233072 0
M  V30 892 O 87.3537 1.85957 -0.427147 0
M  V30 893 C 84.4937 3.23004 -1.215 0
M  V30 894 C 83.6067 3.55864 -2.44918 0
M  V30 895 C 82.7417 4.82669 -2.21821 0
M  V30 896 C 81.7807 5.08351 -3.40948 0
M  V30 897 N 80.9177 6.26356 -3.17211 0
M  V30 898 H 85.7577 1.86455 -2.32462 0
M  V30 899 H 83.2947 0.911176 -1.15482 0
M  V30 900 H 85.2527 4.02331 -1.10389 0
M  V30 901 H 83.8827 3.21411 -0.29908 0
M  V30 902 H 82.9347 2.7129 -2.66657 0
M  V30 903 H 84.2467 3.70765 -3.33668 0
M  V30 904 H 83.4007 5.69962 -2.07914 0
M  V30 905 H 82.1397 4.69929 -1.30454 0
M  V30 906 H 81.1447 4.19522 -3.55361 0
M  V30 907 H 82.3697 5.22981 -4.33207 0
M  V30 908 H 80.3157 6.14917 -2.28502 0
M  V30 909 H 80.2327 6.41813 -3.99515 0
M  V30 910 H 81.5007 7.16506 -3.06984 0
M  V30 911 N 85.7298 1.2412 0.971189 0
M  V30 912 C 86.9548 1.10667 1.75407 0
M  V30 913 C 87.3798 -0.337048 1.85056 0
M  V30 914 O 86.7378 -1.24396 1.31892 0
M  V30 915 C 86.7858 1.74726 3.15441 0
M  V30 916 O 85.8898 1.01566 3.99697 0
M  V30 917 H 85.2308 0.387341 0.539317 0
M  V30 918 H 87.7608 1.64358 1.2185 0
M  V30 919 H 87.7708 1.80341 3.6598 0
M  V30 920 H 86.4458 2.79773 3.07734 0
M  V30 921 H 85.0228 1.03713 3.58187 0
M  V30 922 N 87.2079 -1.17134 1.05439 0
M  V30 923 C 88.4379 -1.91094 0.785274 0
M  V30 924 C 88.8459 -1.77198 -0.663142 0
M  V30 925 O 88.1889 -1.10835 -1.46497 0
M  V30 926 C 88.2509 -3.42594 1.08949 0
M  V30 927 C 87.9149 -3.80274 2.53458 0
M  V30 928 C 88.9119 -3.82912 3.51673 0
M  V30 929 C 86.5969 -4.11162 2.88532 0
M  V30 930 C 88.5909 -4.15913 4.83006 0
M  V30 931 C 86.2779 -4.43831 4.20068 0
M  V30 932 C 87.2759 -4.46185 5.17115 0
M  V30 933 O 86.9639 -4.78083 6.46291 0
M  V30 934 H 86.6959 -0.613073 0.284811 0
M  V30 935 H 89.2499 -1.49461 1.40893 0
M  V30 936 H 87.4799 -3.84534 0.408741 0
M  V30 937 H 89.1689 -3.97817 0.805991 0
M  V30 938 H 89.9349 -3.5917 3.25917 0
M  V30 939 H 85.8139 -4.085 2.13656 0
M  V30 940 H 89.3579 -4.17665 5.5875 0
M  V30 941 H 85.2549 -4.67037 4.45586 0
M  V30 942 H 86.0229 -4.9593 6.51149 0
M  V30 943 N 88.686 -0.835752 -1.33615 0
M  V30 944 C 89.616 -0.281739 -2.31794 0
M  V30 945 C 90.597 0.608833 -1.58831 0
M  V30 946 O 91.782 0.533035 -1.86741 0
M  V30 947 C 88.912 0.546612 -3.42971 0
M  V30 948 C 87.866 -0.247904 -4.27281 0
M  V30 949 C 87.192 0.704001 -5.30045 0
M  V30 950 C 88.492 -1.46324 -5.01385 0
M  V30 951 H 90.186 -1.10206 -2.78379 0
M  V30 952 H 87.732 -0.531388 -1.33837 0
M  V30 953 H 89.685 0.944467 -4.1068 0
M  V30 954 H 88.409 1.40011 -2.95067 0
M  V30 955 H 87.068 -0.627281 -3.61194 0
M  V30 956 H 86.716 1.55381 -4.78399 0
M  V30 957 H 86.416 0.176524 -5.87335 0
M  V30 958 H 87.94 1.09944 -6.0062 0
M  V30 959 H 89.354 -1.13871 -5.61877 0
M  V30 960 H 87.751 -1.92728 -5.6831 0
M  V30 961 H 88.821 -2.23467 -4.30338 0
M  V30 962 N 90.1641 1.46063 -0.591896 0
M  V30 963 C 91.1121 2.32124 0.148739 0
M  V30 964 C 92.1061 1.45035 0.875286 0
M  V30 965 O 93.3121 1.61609 0.792632 0
M  V30 966 H 89.6871 0.749024 0.066832 0
M  V30 967 H 91.6581 2.92392 -0.595783 0
M  V30 968 C 90.4071 3.28373 1.1431 0
M  V30 969 H 89.7301 3.95371 0.59346 0
M  V30 970 H 91.1701 3.91352 1.63155 0
M  V30 971 C 89.6291 2.54393 2.20875 0
M  V30 972 O 90.1591 2.31373 3.28374 0
M  V30 973 N 88.3651 2.14797 1.95731 0
M  V30 974 H 87.9121 2.33719 1.08319 0
M  V30 975 H 87.8701 1.65619 2.67241 0
M  V30 976 N 91.6422 0.330177 1.54103 0
M  V30 977 C 92.8912 -0.271336 1.99867 0
M  V30 978 C 93.2042 -1.52723 1.22209 0
M  V30 979 O 94.4102 -2.20515 1.58383 0
M  V30 980 C 92.8662 -0.534032 3.55916 0
M  V30 981 C 92.4742 0.705193 4.42415 0
M  V30 982 C 94.2182 -1.09514 4.1013 0
M  V30 983 C 92.1252 0.414035 5.89949 0
M  V30 984 H 91.0552 -0.105166 0.74663 0
M  V30 985 H 93.7062 0.443429 1.78062 0
M  V30 986 H 92.0882 -1.30915 3.73734 0
M  V30 987 H 93.2622 1.4804 4.36372 0
M  V30 988 H 91.5772 1.18698 3.99124 0
M  V30 989 H 94.1742 -1.3277 5.17954 0
M  V30 990 H 94.5172 -2.04656 3.62521 0
M  V30 991 H 95.0502 -0.381038 3.95971 0
M  V30 992 H 91.7892 1.33481 6.41766 0
M  V30 993 H 91.3092 -0.323336 5.98928 0
M  V30 994 H 92.9882 0.0263105 6.46995 0
M  V30 995 N 93.1203 -1.57491 0.0584922 0
M  V30 996 C 94.5313 -1.80526 -0.476138 0
M  V30 997 C 94.8823 -0.971334 -1.70469 0
M  V30 998 O 94.0073 -0.190012 -2.15564 0
M  V30 999 C 94.6023 -3.27424 -0.870587 0
M  V30 1000 C 93.1613 -3.51351 -1.35015 0
M  V30 1001 C 92.3083 -2.75343 -0.32887 0
M  V30 1002 H 95.2593 -1.56133 0.284312 0
M  V30 1003 H 95.2803 -3.38745 -1.73299 0
M  V30 1004 H 94.7923 -3.88093 0.0237627 0
M  V30 1005 H 92.8933 -2.95971 -2.26345 0
M  V30 1006 H 93.0063 -4.60059 -1.33726 0
M  V30 1007 H 91.3703 -2.417 -0.803321 0
M  V30 1008 H 92.1533 -3.38743 0.557521 0
M  V30 1009 N 94.5984 0.214957 -1.56127 0
M  V30 1010 C 95.5614 1.24997 -1.92116 0
M  V30 1011 C 96.5614 1.39467 -0.800344 0
M  V30 1012 O 97.7514 1.37619 -1.06802 0
M  V30 1013 C 94.8834 2.62271 -2.17777 0
M  V30 1014 H 96.0764 0.942875 -2.84693 0
M  V30 1015 H 93.6294 0.455654 -1.49511 0
M  V30 1016 H 94.3644 2.98068 -1.27773 0
M  V30 1017 H 94.1494 2.53143 -2.99434 0
M  V30 1018 H 95.6394 3.36946 -2.46693 0
M  V30 1019 N 96.0765 1.50051 0.48192 0
M  V30 1020 C 97.3255 1.59741 1.23149 0
M  V30 1021 C 97.6385 0.298163 1.93314 0
M  V30 1022 O 98.8445 0.273835 2.70116 0
M  V30 1023 C 97.3005 2.81926 2.23708 0
M  V30 1024 C 96.9085 4.18685 1.59396 0
M  V30 1025 C 98.6525 3.00956 2.99375 0
M  V30 1026 C 96.5595 5.3207 2.58178 0
M  V30 1027 H 95.4895 0.594838 0.46334 0
M  V30 1028 H 98.1405 1.76467 0.503169 0
M  V30 1029 H 96.5225 2.58736 2.99786 0
M  V30 1030 H 97.6965 4.52088 0.891811 0
M  V30 1031 H 96.0115 4.05171 0.960503 0
M  V30 1032 H 98.6085 3.82836 3.73283 0
M  V30 1033 H 98.9515 2.12258 3.58123 0
M  V30 1034 H 99.4845 3.24277 2.30411 0
M  V30 1035 H 96.2235 6.22888 2.04184 0
M  V30 1036 H 95.7435 5.03098 3.26577 0
M  V30 1037 H 97.4225 5.62196 3.20225 0
M  V30 1038 N 97.5546 -0.734337 1.39446 0
M  V30 1039 C 98.8036 -1.48937 1.36017 0
M  V30 1040 C 99.1166 -1.95557 -0.0409005 0
M  V30 1041 O 100.323 -2.70779 -0.19778 0
M  V30 1042 C 98.7786 -2.69125 2.38955 0
M  V30 1043 C 98.3866 -2.29452 3.8478 0
M  V30 1044 C 100.131 -3.46944 2.44603 0
M  V30 1045 C 98.0376 -3.46366 4.79358 0
M  V30 1046 H 96.9676 -0.559296 0.505672 0
M  V30 1047 H 99.6186 -0.800983 1.65095 0
M  V30 1048 H 98.0006 -3.40041 2.02948 0
M  V30 1049 H 99.1746 -1.66077 4.29831 0
M  V30 1050 H 97.4896 -1.64723 3.82433 0
M  V30 1051 H 100.087 -4.33907 3.12456 0
M  V30 1052 H 100.43 -3.89454 1.47076 0
M  V30 1053 H 100.963 -2.83056 2.79507 0
M  V30 1054 H 97.7016 -3.08905 5.78151 0
M  V30 1055 H 97.2216 -4.08719 4.38986 0
M  V30 1056 H 98.9006 -4.12691 4.98292 0
M  V30 1057 N 99.0327 -1.24633 -0.964593 0
M  V30 1058 C 100.258 -1.11596 -1.74818 0
M  V30 1059 C 100.683 0.32723 -1.85232 0
M  V30 1060 O 100.041 1.23695 -1.32549 0
M  V30 1061 C 100.089 -1.76397 -3.1451 0
M  V30 1062 O 99.1927 -1.03685 -3.99153 0
M  V30 1063 H 98.5337 -0.390196 -0.537255 0
M  V30 1064 H 101.064 -1.65002 -1.20977 0
M  V30 1065 H 101.074 -1.8228 -3.65018 0
M  V30 1066 H 99.7487 -2.81401 -3.06246 0
M  V30 1067 H 98.3257 -1.05611 -3.57632 0
M  V30 1068 N 100.511 1.16574 -1.06058 0
M  V30 1069 C 101.474 2.19085 -0.673392 0
M  V30 1070 C 102.474 1.5835 0.279648 0
M  V30 1071 O 103.664 1.74088 0.0623488 0
M  V30 1072 C 100.796 3.40899 0.00954234 0
M  V30 1073 H 101.989 2.54853 -1.58081 0
M  V30 1074 H 99.5418 1.30808 -0.855516 0
M  V30 1075 H 100.277 3.10684 0.929826 0
M  V30 1076 H 100.062 3.86233 -0.67573 0
M  V30 1077 H 101.552 4.1675 0.266245 0
M  V30 1078 N 101.989 0.842826 1.3317 0
M  V30 1079 C 102.952 0.284065 2.27433 0
M  V30 1080 C 103.952 -0.54948 1.5112 0
M  V30 1081 O 105.142 -0.362699 1.70382 0
M  V30 1082 C 102.274 -0.599384 3.35589 0
M  V30 1083 H 103.467 1.11589 2.78366 0
M  V30 1084 H 101.02 0.616221 1.4364 0
M  V30 1085 H 101.755 -1.45349 2.89904 0
M  V30 1086 H 101.54 -0.00291266 3.921 0
M  V30 1087 H 103.03 -0.983488 4.05854 0
M  V30 1088 N 103.467 -1.45747 0.599634 0
M  V30 1089 C 104.377 -2.34262 -0.125888 0
M  V30 1090 C 105.393 -1.50768 -0.868625 0
M  V30 1091 O 106.569 -1.83592 -0.828003 0
M  V30 1092 C 103.634 -3.28252 -1.11587 0
M  V30 1093 C 102.695 -4.27651 -0.375956 0
M  V30 1094 C 101.928 -5.1715 -1.31877 0
M  V30 1095 O 102.151 -5.09916 -2.55621 0
M  V30 1096 O 101.085 -5.96286 -0.820157 0
M  V30 1097 H 104.911 -2.97688 0.601315 0
M  V30 1098 H 102.496 -1.44999 0.359934 0
M  V30 1099 H 104.378 -3.86191 -1.68626 0
M  V30 1100 H 103.053 -2.67401 -1.82424 0
M  V30 1101 H 101.96 -3.7335 0.236698 0
M  V30 1102 H 103.293 -4.91334 0.29177 0
M  V30 1103 N 104.945 -0.338344 -1.53925 0
M  V30 1104 C 106.194 0.260732 -2.00008 0
M  V30 1105 C 106.507 1.52073 -1.23017 0
M  V30 1106 O 107.713 2.19672 -1.5955 0
M  V30 1107 C 106.169 0.51515 -3.56194 0
M  V30 1108 C 105.777 -0.728645 -4.42035 0
M  V30 1109 C 107.521 1.07337 -4.10706 0
M  V30 1110 C 105.428 -0.445315 -5.89721 0
M  V30 1111 H 104.358 0.101205 -0.747177 0
M  V30 1112 H 107.009 -0.452866 -1.77824 0
M  V30 1113 H 105.391 1.28932 -3.74423 0
M  V30 1114 H 106.565 -1.50352 -4.35581 0
M  V30 1115 H 104.88 -1.20813 -3.98489 0
M  V30 1116 H 107.477 1.30022 -5.18651 0
M  V30 1117 H 107.82 2.0273 -3.63602 0
M  V30 1118 H 108.353 0.360034 -3.96167 0
M  V30 1119 H 105.092 -1.36883 -6.41049 0
M  V30 1120 H 104.612 0.291569 -5.99091 0
M  V30 1121 H 106.291 -0.0606218 -6.46972 0
M  V30 1122 N 106.423 1.57458 -0.0668435 0
M  V30 1123 C 107.651 1.97624 0.612565 0
M  V30 1124 C 108.066 0.94502 1.63447 0
M  V30 1125 O 107.423 -0.0689276 1.8237 0
M  V30 1126 C 107.474 3.37869 1.28555 0
M  V30 1127 O 107.195 4.3704 0.304557 0
M  V30 1128 C 108.696 3.92882 2.05325 0
M  V30 1129 H 105.916 0.650045 0.166381 0
M  V30 1130 H 108.46 2.04035 -0.137782 0
M  V30 1131 H 106.615 3.3256 1.98702 0
M  V30 1132 H 107.029 5.18565 0.786779 0
M  V30 1133 H 108.503 4.93247 2.47812 0
M  V30 1134 H 108.98 3.29156 2.9078 0
M  V30 1135 H 109.586 4.01577 1.40056 0
M  V30 1136 N 107.901 -0.206675 1.56239 0
M  V30 1137 C 109.149 -0.927007 1.79586 0
M  V30 1138 C 109.47 -1.8427 0.637929 0
M  V30 1139 O 108.74 -1.92849 -0.344398 0
M  V30 1140 H 107.32 -0.345292 0.662407 0
M  V30 1141 H 109.982 -0.21496 1.93711 0
M  V30 1142 H 109.078 -1.52501 2.72305 0
M  V30 1143 N 109.379 -1.50304 -0.473955 0
M  V30 1144 C 110.342 -1.6841 -1.55469 0
M  V30 1145 C 111.342 -0.554905 -1.50922 0
M  V30 1146 O 112.532 -0.821882 -1.53593 0
M  V30 1147 C 109.664 -1.70667 -2.95102 0
M  V30 1148 H 110.857 -2.64828 -1.40733 0
M  V30 1149 H 108.41 -1.39742 -0.700132 0
M  V30 1150 H 109.145 -0.75932 -3.15285 0
M  V30 1151 H 108.93 -2.52698 -2.9981 0
M  V30 1152 H 110.42 -1.8664 -3.73571 0
M  V30 1153 N 110.857 0.726932 -1.39834 0
M  V30 1154 C 112.103 1.48884 -1.377 0
M  V30 1155 C 112.436 1.94185 0.0244852 0
M  V30 1156 O 111.711 1.67361 0.990986 0
M  V30 1157 C 111.994 2.72288 -2.3565 0
M  V30 1158 C 111.847 2.32956 -3.84775 0
M  V30 1159 C 113.166 3.74414 -2.31306 0
M  V30 1160 H 110.285 0.540062 -0.5015 0
M  V30 1161 H 112.927 0.830547 -1.70886 0
M  V30 1162 H 111.077 3.28457 -2.07481 0
M  V30 1163 H 112.749 1.82356 -4.23726 0
M  V30 1164 H 110.992 1.65088 -4.01159 0
M  V30 1165 H 111.663 3.21362 -4.4881 0
M  V30 1166 H 114.139 3.27849 -2.56231 0
M  V30 1167 H 113.015 4.58414 -3.01907 0
M  V30 1168 H 113.276 4.21909 -1.32081 0
M  V30 1169 N 112.336 1.25143 0.95797 0
M  V30 1170 C 113.299 1.05321 2.03569 0
M  V30 1171 C 114.299 0.007152 1.60798 0
M  V30 1172 O 115.489 0.24903 1.72411 0
M  V30 1173 C 112.621 0.598394 3.35607 0
M  V30 1174 H 113.814 2.00986 2.22586 0
M  V30 1175 H 111.367 1.07502 1.13459 0
M  V30 1176 H 112.102 -0.361014 3.22284 0
M  V30 1177 H 111.887 1.35351 3.67998 0
M  V30 1178 H 113.377 0.48104 4.1482 0
M  V30 1179 N 113.814 -1.1601 1.06675 0
M  V30 1180 C 115.063 -1.85973 0.780818 0
M  V30 1181 C 115.376 -1.82819 -0.695444 0
M  V30 1182 O 116.582 -2.484 -1.09589 0
M  V30 1183 C 115.038 -3.33757 1.34665 0
M  V30 1184 C 114.646 -3.45374 2.85343 0
M  V30 1185 C 116.39 -4.0895 1.13843 0
M  V30 1186 C 114.297 -4.87266 3.35151 0
M  V30 1187 H 113.227 -0.696661 0.288407 0
M  V30 1188 H 115.878 -1.30903 1.28595 0
M  V30 1189 H 114.26 -3.88456 0.769274 0
M  V30 1190 H 115.434 -3.00816 3.49065 0
M  V30 1191 H 113.749 -2.83619 3.04876 0
M  V30 1192 H 116.346 -5.13654 1.4854 0
M  V30 1193 H 116.689 -4.16229 0.0770282 0
M  V30 1194 H 117.222 -3.605 1.68179 0
M  V30 1195 H 113.961 -4.85168 4.40786 0
M  V30 1196 H 113.481 -5.32433 2.76179 0
M  V30 1197 H 115.16 -5.56097 3.30704 0
M  V30 1198 N 115.292 -0.849877 -1.32721 0
M  V30 1199 C 116.242 -0.262892 -2.26479 0
M  V30 1200 C 117.226 0.588493 -1.49752 0
M  V30 1201 O 118.418 0.438659 -1.71478 0
M  V30 1202 C 115.547 0.551818 -3.38836 0
M  V30 1203 C 114.633 -0.311689 -4.22953 0
M  V30 1204 N 115.024 -1.39567 -4.86163 0
M  V30 1205 C 113.322 -0.100611 -4.45887 0
M  V30 1206 C 114.023 -1.92651 -5.48872 0
M  V30 1207 N 112.999 -1.22637 -5.29586 0
M  V30 1208 H 116.801 -1.09166 -2.72873 0
M  V30 1209 H 114.315 -0.695486 -1.46754 0
M  V30 1210 H 116.312 0.988713 -4.05006 0
M  V30 1211 H 114.972 1.37844 -2.93988 0
M  V30 1212 H 115.983 -1.77859 -4.86402 0
M  V30 1213 H 112.66 0.691681 -4.11731 0
M  V30 1214 H 114.05 -2.83487 -6.09167 0
M  V30 1215 N 116.77 1.45427 -0.607355 0
M  V30 1216 C 118.181 1.85756 -0.187535 0
M  V30 1217 C 118.532 1.5077 1.25551 0
M  V30 1218 O 117.657 0.93427 1.95193 0
M  V30 1219 C 118.252 3.37154 -0.333572 0
M  V30 1220 C 116.811 3.76387 0.0315542 0
M  V30 1221 C 115.958 2.69377 -0.658117 0
M  V30 1222 H 118.909 1.36231 -0.81405 0
M  V30 1223 H 118.93 3.78014 0.43428 0
M  V30 1224 H 118.442 3.62586 -1.38393 0
M  V30 1225 H 116.543 3.56571 1.0811 0
M  V30 1226 H 116.656 4.77731 -0.361935 0
M  V30 1227 H 115.02 2.5452 -0.0957873 0
M  V30 1228 H 115.803 2.97646 -1.7106 0
M  V30 1229 N 118.248 0.346503 1.53744 0
M  V30 1230 C 119.496 -0.248612 2.00565 0
M  V30 1231 C 119.817 -1.5083 1.23593 0
M  V30 1232 O 119.087 -1.92858 0.343912 0
M  V30 1233 H 117.667 -0.0948564 0.740953 0
M  V30 1234 H 120.329 0.468341 1.89189 0
M  V30 1235 H 119.425 -0.488994 3.08245 0
M  V30 1236 N 119.726 -1.57421 0.075193 0
M  V30 1237 C 120.956 -1.97659 -0.601203 0
M  V30 1238 C 121.364 -0.952427 -1.63479 0
M  V30 1239 O 120.707 0.0688241 -1.83571 0
M  V30 1240 C 120.769 -3.34218 -1.32434 0
M  V30 1241 C 120.433 -4.5484 -0.443826 0
M  V30 1242 C 121.43 -5.19034 0.299969 0
M  V30 1243 C 119.115 -5.00952 -0.367709 0
M  V30 1244 C 121.109 -6.27695 1.10807 0
M  V30 1245 C 118.796 -6.09484 0.444058 0
M  V30 1246 C 119.794 -6.72719 1.18061 0
M  V30 1247 O 119.482 -7.79161 1.97898 0
M  V30 1248 H 119.214 -0.65494 -0.167422 0
M  V30 1249 H 121.768 -2.04886 0.145157 0
M  V30 1250 H 119.998 -3.23615 -2.11685 0
M  V30 1251 H 121.687 -3.59038 -1.89331 0
M  V30 1252 H 122.453 -4.84351 0.250776 0
M  V30 1253 H 118.332 -4.51509 -0.930638 0
M  V30 1254 H 121.876 -6.76982 1.68347 0
M  V30 1255 H 117.773 -6.43601 0.494803 0
M  V30 1256 H 118.541 -7.96055 1.90367 0
M  V30 1257 N 121.204 0.198386 -1.56346 0
M  V30 1258 C 122.452 0.91747 -1.80075 0
M  V30 1259 C 122.773 1.83929 -0.647692 0
M  V30 1260 O 122.043 1.93029 0.334166 0
M  V30 1261 H 120.623 0.341774 -0.664228 0
M  V30 1262 H 123.285 0.204684 -1.93822 0
M  V30 1263 H 122.381 1.51055 -2.7311 0
M  V30 1264 N 122.682 1.50554 0.465978 0
M  V30 1265 C 123.929 1.61798 1.21768 0
M  V30 1266 C 124.257 0.320696 1.91838 0
M  V30 1267 O 123.512 -0.693724 1.82992 0
M  V30 1268 C 123.811 2.75152 2.28093 0
M  V30 1269 C 123.477 4.15454 1.75239 0
M  V30 1270 C 122.139 4.53628 1.60546 0
M  V30 1271 C 124.491 5.03121 1.36083 0
M  V30 1272 C 121.819 5.77204 1.05128 0
M  V30 1273 C 124.171 6.27249 0.821056 0
M  V30 1274 C 122.835 6.64221 0.660795 0
M  V30 1275 H 122.105 0.592063 0.445582 0
M  V30 1276 H 124.752 1.84503 0.512927 0
M  V30 1277 H 123.057 2.46556 3.04496 0
M  V30 1278 H 124.754 2.81055 2.86023 0
M  V30 1279 H 121.344 3.85341 1.87644 0
M  V30 1280 H 125.528 4.74257 1.46267 0
M  V30 1281 H 120.784 6.0452 0.91462 0
M  V30 1282 H 124.958 6.94537 0.509018 0
M  V30 1283 H 122.585 7.59854 0.229226 0
M  V30 1284 N 124.16 -0.719506 1.40217 0
M  V30 1285 C 125.09 -1.8465 1.42922 0
M  V30 1286 C 126.071 -1.67599 0.29062 0
M  V30 1287 O 127.256 -1.87688 0.498677 0
M  V30 1288 C 124.386 -3.22565 1.28722 0
M  V30 1289 C 123.34 -3.54281 2.40144 0
M  V30 1290 C 122.666 -4.91298 2.11023 0
M  V30 1291 C 123.966 -3.55676 3.82481 0
M  V30 1292 H 125.66 -1.82644 2.37237 0
M  V30 1293 H 123.206 -0.877305 1.1419 0
M  V30 1294 H 125.159 -4.01095 1.29232 0
M  V30 1295 H 123.883 -3.25137 0.308811 0
M  V30 1296 H 122.542 -2.78088 2.38877 0
M  V30 1297 H 122.19 -4.90468 1.11582 0
M  V30 1298 H 121.89 -5.13485 2.8567 0
M  V30 1299 H 123.414 -5.72166 2.13209 0
M  V30 1300 H 124.828 -4.24254 3.85592 0
M  V30 1301 H 123.225 -3.89388 4.56614 0
M  V30 1302 H 124.295 -2.55144 4.12346 0
M  V30 1303 N 125.638 -1.25649 -0.95132 0
M  V30 1304 C 126.863 -1.13443 -1.73624 0
M  V30 1305 C 127.288 0.307565 -1.85568 0
M  V30 1306 O 126.646 1.22282 -1.33854 0
M  V30 1307 C 126.694 -1.79723 -3.12621 0
M  V30 1308 O 125.798 -1.07912 -3.98031 0
M  V30 1309 H 125.139 -0.395872 -0.533086 0
M  V30 1310 H 127.669 -1.66276 -1.1922 0
M  V30 1311 H 127.679 -1.86141 -3.63064 0
M  V30 1312 H 126.354 -2.84633 -3.03244 0
M  V30 1313 H 124.931 -1.09398 -3.56492 0
M  V30 1314 N 127.117 1.15442 -1.07289 0
M  V30 1315 C 128.027 2.23786 -0.704057 0
M  V30 1316 C 129.043 1.7166 0.284413 0
M  V30 1317 O 130.219 2.00972 0.131205 0
M  V30 1318 C 127.284 3.46535 -0.106792 0
M  V30 1319 C 126.345 4.13654 -1.14842 0
M  V30 1320 C 125.578 5.30544 -0.57956 0
M  V30 1321 O 125.801 5.67187 0.604585 0
M  V30 1322 O 124.735 5.87154 -1.32414 0
M  V30 1323 H 128.561 2.57664 -1.60757 0
M  V30 1324 H 126.146 1.23152 -0.845803 0
M  V30 1325 H 128.028 4.20804 0.224048 0
M  V30 1326 H 126.703 3.14407 0.770049 0
M  V30 1327 H 125.61 3.4131 -1.5316 0
M  V30 1328 H 126.943 4.49861 -1.99714 0
M  V30 1329 N 128.595 0.856903 1.32268 0
M  V30 1330 C 129.543 0.291987 2.3076 0
M  V30 1331 C 130.537 -0.585857 1.58947 0
M  V30 1332 O 131.743 -0.47341 1.73663 0
M  V30 1333 H 128.118 0.075721 0.748178 0
M  V30 1334 H 130.089 1.13687 2.75895 0
M  V30 1335 C 128.838 -0.502869 3.44044 0
M  V30 1336 H 128.161 0.163328 3.99466 0
M  V30 1337 H 129.601 -0.863691 4.1511 0
M  V30 1338 C 128.06 -1.68898 2.91505 0
M  V30 1339 O 128.59 -2.78811 2.89184 0
M  V30 1340 N 126.796 -1.51679 2.47875 0
M  V30 1341 H 126.343 -0.622666 2.49961 0
M  V30 1342 H 126.301 -2.31184 2.13076 0
M  V30 1343 N 130.073 -1.45103 0.615059 0
M  V30 1344 C 131.036 -2.29025 -0.0895485 0
M  V30 1345 C 132.036 -1.40174 -0.787906 0
M  V30 1346 O 133.226 -1.62217 -0.634933 0
M  V30 1347 C 130.358 -3.21376 -1.13711 0
M  V30 1348 H 131.551 -2.92807 0.648382 0
M  V30 1349 H 129.104 -1.51749 0.374444 0
M  V30 1350 H 129.839 -2.6241 -1.90556 0
M  V30 1351 H 129.624 -3.86834 -0.640475 0
M  V30 1352 H 131.114 -3.84459 -1.63036 0
M  V30 1353 N 131.551 -0.354651 -1.53558 0
M  V30 1354 C 132.499 0.512195 -2.26891 0
M  V30 1355 C 133.493 1.09263 -1.29452 0
M  V30 1356 O 134.699 1.03709 -1.47121 0
M  V30 1357 H 131.074 0.183878 -0.729173 0
M  V30 1358 H 133.045 -0.128202 -2.98124 0
M  V30 1359 C 131.794 1.64563 -3.06291 0
M  V30 1360 H 131.117 1.20829 -3.81104 0
M  V30 1361 H 132.557 2.22711 -3.60799 0
M  V30 1362 C 131.016 2.58158 -2.16462 0
M  V30 1363 O 131.546 3.60695 -1.76811 0
M  V30 1364 N 129.752 2.27096 -1.81317 0
M  V30 1365 H 129.299 1.43751 -2.1376 0
M  V30 1366 H 129.257 2.89975 -1.21498 0
M  V30 1367 N 133.029 1.57378 -0.0835403 0
M  V30 1368 C 134.276 1.9393 0.58287 0
M  V30 1369 C 134.604 0.964455 1.68904 0
M  V30 1370 O 133.859 -0.0179474 1.95692 0
M  V30 1371 C 134.158 3.37063 1.1884 0
M  V30 1372 C 133.824 4.50424 0.207194 0
M  V30 1373 C 132.486 4.81159 -0.0627115 0
M  V30 1374 C 134.838 5.19136 -0.463426 0
M  V30 1375 C 132.166 5.77939 -1.01012 0
M  V30 1376 C 134.518 6.16931 -1.39924 0
M  V30 1377 C 133.182 6.46078 -1.67749 0
M  V30 1378 H 132.452 0.70964 0.213287 0
M  V30 1379 H 135.099 1.90856 -0.156916 0
M  V30 1380 H 133.404 3.3666 2.00418 0
M  V30 1381 H 135.101 3.6264 1.71153 0
M  V30 1382 H 131.691 4.2646 0.427747 0
M  V30 1383 H 135.875 4.95576 -0.268034 0
M  V30 1384 H 131.131 5.98842 -1.23283 0
M  V30 1385 H 135.305 6.69273 -1.92476 0
M  V30 1386 H 132.932 7.2088 -2.41321 0
M  V30 1387 N 134.507 -0.190092 1.56449 0
M  V30 1388 C 135.47 -1.21925 1.9408 0
M  V30 1389 C 136.47 -1.38176 0.822431 0
M  V30 1390 O 137.66 -1.35903 1.08977 0
M  V30 1391 C 134.792 -2.58773 2.21922 0
M  V30 1392 H 135.985 -0.897464 2.86157 0
M  V30 1393 H 133.538 -0.43181 1.50217 0
M  V30 1394 H 134.273 -2.95998 1.32499 0
M  V30 1395 H 134.058 -2.48348 3.03424 0
M  V30 1396 H 135.548 -3.32978 2.52022 0
M  V30 1397 N 135.985 -1.50799 -0.457987 0
M  V30 1398 C 136.895 -1.73426 -1.57989 0
M  V30 1399 C 137.911 -0.617745 -1.62665 0
M  V30 1400 O 139.087 -0.897614 -1.80291 0
M  V30 1401 C 136.152 -1.83557 -2.94122 0
M  V30 1402 C 135.213 -3.07345 -2.99729 0
M  V30 1403 C 134.446 -3.16983 -4.29368 0
M  V30 1404 O 134.669 -2.33077 -5.20607 0
M  V30 1405 O 133.603 -4.09812 -4.40837 0
M  V30 1406 H 137.429 -2.68555 -1.41817 0
M  V30 1407 H 135.014 -1.35052 -0.638859 0
M  V30 1408 H 136.896 -1.92326 -3.74952 0
M  V30 1409 H 135.571 -0.916137 -3.10465 0
M  V30 1410 H 134.478 -3.04068 -2.1793 0
M  V30 1411 H 135.811 -3.9891 -2.88326 0
M  V30 1412 N 137.463 0.71206 -1.40597 0
M  V30 1413 C 138.395 1.83704 -1.37061 0
M  V30 1414 C 139.408 1.60453 -0.275426 0
M  V30 1415 O 140.597 1.70262 -0.53602 0
M  V30 1416 C 137.697 3.20172 -1.11099 0
M  V30 1417 C 136.87 3.7059 -2.3234 0
M  V30 1418 C 135.929 4.85681 -2.02485 0
M  V30 1419 O 134.955 4.9815 -2.75382 0
M  V30 1420 N 136.157 5.71735 -1.00497 0
M  V30 1421 H 138.922 1.87235 -2.34016 0
M  V30 1422 H 136.483 0.893739 -1.34996 0
M  V30 1423 H 138.475 3.94768 -0.891064 0
M  V30 1424 H 137.045 3.11767 -0.227989 0
M  V30 1425 H 136.265 2.87085 -2.7014 0
M  V30 1426 H 137.553 4.01011 -3.13157 0
M  V30 1427 H 136.951 5.64275 -0.401298 0
M  V30 1428 H 135.508 6.463 -0.844942 0
M  V30 1429 N 138.941 1.26152 0.944643 0
M  V30 1430 C 140.187 1.11657 1.69294 0
M  V30 1431 C 140.52 -0.339926 1.91202 0
M  V30 1432 O 139.795 -1.24994 1.49019 0
M  V30 1433 C 140.078 1.88236 3.06984 0
M  V30 1434 C 139.931 3.41772 2.92424 0
M  V30 1435 C 141.25 1.67343 4.07043 0
M  V30 1436 H 138.369 0.407004 0.614424 0
M  V30 1437 H 141.011 1.55106 1.09737 0
M  V30 1438 H 139.161 1.51308 3.57824 0
M  V30 1439 H 140.833 3.88433 2.48832 0
M  V30 1440 H 139.076 3.68974 2.28124 0
M  V30 1441 H 139.747 3.90579 3.90067 0
M  V30 1442 H 142.223 1.99509 3.65151 0
M  V30 1443 H 141.099 2.23346 5.01406 0
M  V30 1444 H 141.36 0.617158 4.37771 0
M  V30 1445 N 140.419 -1.14872 1.07899 0
M  V30 1446 C 141.329 -2.2341 0.715915 0
M  V30 1447 C 142.345 -1.71808 -0.275306 0
M  V30 1448 O 143.521 -2.01039 -0.120545 0
M  V30 1449 C 140.586 -3.46474 0.125168 0
M  V30 1450 C 139.647 -4.13039 1.17034 0
M  V30 1451 C 138.88 -5.30229 0.607688 0
M  V30 1452 O 139.103 -5.675 -0.574497 0
M  V30 1453 O 138.037 -5.86444 1.35526 0
M  V30 1454 H 141.863 -2.56808 1.62121 0
M  V30 1455 H 139.448 -1.22702 0.852322 0
M  V30 1456 H 141.33 -4.20917 -0.201729 0
M  V30 1457 H 140.005 -3.14811 -0.753364 0
M  V30 1458 H 138.912 -3.40493 1.54968 0
M  V30 1459 H 140.245 -4.48796 2.02097 0
M  V30 1460 N 141.898 -0.863906 -1.31812 0
M  V30 1461 C 143.314 -0.555004 -1.49639 0
M  V30 1462 C 143.514 0.912266 -1.79666 0
M  V30 1463 O 142.57 1.69479 -1.87171 0
M  V30 1464 C 143.883 -1.44998 -2.63431 0
M  V30 1465 C 145.431 -1.45138 -2.77316 0
M  V30 1466 C 145.906 -2.33179 -3.94197 0
M  V30 1467 N 147.397 -2.31025 -4.01474 0
M  V30 1468 C 148.132 -2.95871 -4.9117 0
M  V30 1469 N 147.628 -3.69863 -5.8581 0
M  V30 1470 N 149.421 -2.85211 -4.84367 0
M  V30 1471 H 141.572 -1.81339 -1.10589 0
M  V30 1472 H 143.835 -0.77505 -0.545895 0
M  V30 1473 H 143.541 -2.49377 -2.48 0
M  V30 1474 H 143.415 -1.14409 -3.59431 0
M  V30 1475 H 145.802 -0.415201 -2.92164 0
M  V30 1476 H 145.883 -1.79747 -1.82001 0
M  V30 1477 H 145.527 -3.3687 -3.80107 0
M  V30 1478 H 145.457 -1.95897 -4.88807 0
M  V30 1479 H 147.948 -1.77238 -3.33759 0
M  V30 1480 H 148.261 -4.16486 -6.50968 0
M  V30 1481 H 146.606 -3.73971 -5.85808 0
M  V30 1482 H 149.797 -2.26948 -4.09405 0
M  V30 1483 H 149.97 -3.36027 -5.54066 0
M  V30 1484 N 143.376 1.44774 -0.622745 0
M  V30 1485 C 144.601 2.06999 -0.128968 0
M  V30 1486 C 145.026 1.4617 1.1839 0
M  V30 1487 O 144.384 0.560007 1.72434 0
M  V30 1488 C 144.432 3.60595 -0.0188351 0
M  V30 1489 O 143.536 3.99398 1.02739 0
M  V30 1490 H 142.877 0.659047 -0.0809544 0
M  V30 1491 H 145.407 1.85784 -0.85705 0
M  V30 1492 H 145.417 4.07627 0.174476 0
M  V30 1493 H 144.092 4.04252 -0.977384 0
M  V30 1494 H 142.669 3.64011 0.809326 0
M  V30 1495 N 144.854 0.36279 1.53368 0
M  V30 1496 C 146.102 -0.227326 2.00817 0
M  V30 1497 C 146.423 -1.49511 1.25186 0
M  V30 1498 O 145.693 -1.92482 0.364348 0
M  V30 1499 H 144.273 -0.0869923 0.741917 0
M  V30 1500 H 146.935 0.488381 1.88682 0
M  V30 1501 H 146.031 -0.456273 3.08747 0
M  V30 1502 N 146.332 -1.57332 0.0918853 0
M  V30 1503 C 147.579 -1.94236 -0.572577 0
M  V30 1504 C 147.907 -0.973398 -1.6839 0
M  V30 1505 O 147.162 0.00756912 -1.95699 0
M  V30 1506 C 147.461 -3.37689 -1.17051 0
M  V30 1507 C 147.127 -4.50527 -0.183304 0
M  V30 1508 C 145.789 -4.81119 0.0882276 0
M  V30 1509 C 148.141 -5.18883 0.49095 0
M  V30 1510 C 145.469 -5.77395 1.04076 0
M  V30 1511 C 147.821 -6.1618 1.43193 0
M  V30 1512 C 146.485 -6.45179 1.71173 0
M  V30 1513 H 145.755 -0.710762 -0.209521 0
M  V30 1514 H 148.402 -1.9077 0.167036 0
M  V30 1515 H 146.707 -3.37718 -1.9863 0
M  V30 1516 H 148.404 -3.63543 -1.69227 0
M  V30 1517 H 144.994 -4.26681 -0.405124 0
M  V30 1518 H 149.178 -4.95427 0.294312 0
M  V30 1519 H 144.434 -5.98179 1.26457 0
M  V30 1520 H 148.608 -6.68243 1.96023 0
M  V30 1521 H 146.235 -7.1959 2.4514 0
M  V30 1522 N 147.81 0.181792 -1.56548 0
M  V30 1523 C 149.059 0.898348 -1.8059 0
M  V30 1524 C 149.372 1.83862 -0.667379 0
M  V30 1525 O 150.578 2.59678 -0.792446 0
M  V30 1526 C 149.034 1.64791 -3.19956 0
M  V30 1527 C 148.642 0.751789 -4.41647 0
M  V30 1528 C 150.386 2.35331 -3.53298 0
M  V30 1529 C 148.293 1.50098 -5.72035 0
M  V30 1530 H 147.223 0.339194 -0.673397 0
M  V30 1531 H 149.874 0.151413 -1.82874 0
M  V30 1532 H 148.256 2.43921 -3.11959 0
M  V30 1533 H 149.43 -0.0018076 -4.608 0
M  V30 1534 H 147.745 0.156562 -4.16106 0
M  V30 1535 H 150.342 2.91958 -4.47956 0
M  V30 1536 H 150.685 3.10164 -2.77676 0
M  V30 1537 H 151.218 1.63154 -3.62803 0
M  V30 1538 H 147.957 0.795175 -6.50659 0
M  V30 1539 H 147.477 2.22817 -5.56878 0
M  V30 1540 H 149.156 2.05125 -6.13622 0
M  V30 1541 N 149.288 1.51039 0.449983 0
M  V30 1542 C 150.535 1.63081 1.20045 0
M  V30 1543 C 150.863 0.341024 1.91487 0
M  V30 1544 O 150.118 -0.674276 1.83717 0
M  V30 1545 C 150.417 2.77556 2.25161 0
M  V30 1546 C 150.083 4.17289 1.70823 0
M  V30 1547 C 148.745 4.55305 1.55725 0
M  V30 1548 C 151.097 5.04536 1.3074 0
M  V30 1549 C 148.425 5.78287 0.989999 0
M  V30 1550 C 150.777 6.28085 0.754482 0
M  V30 1551 C 149.441 6.64885 0.590308 0
M  V30 1552 H 148.711 0.596755 0.439277 0
M  V30 1553 H 151.358 1.85037 0.49333 0
M  V30 1554 H 149.663 2.49771 3.01863 0
M  V30 1555 H 151.36 2.84073 2.83026 0
M  V30 1556 H 147.95 3.8731 1.83546 0
M  V30 1557 H 152.134 4.75782 1.41229 0
M  V30 1558 H 147.39 6.05456 0.850451 0
M  V30 1559 H 151.564 6.95038 0.435324 0
M  V30 1560 H 149.191 7.60055 0.14862 0
M  V30 1561 N 150.766 -0.704594 1.40972 0
M  V30 1562 C 152.015 -1.46018 1.39146 0
M  V30 1563 C 152.328 -1.956 0.000589254 0
M  V30 1564 O 153.534 -2.71137 -0.1403 0
M  V30 1565 C 151.99 -2.63996 2.4461 0
M  V30 1566 C 151.598 -2.21238 3.89561 0
M  V30 1567 C 153.342 -3.41677 2.51907 0
M  V30 1568 C 151.249 -3.3612 4.86598 0
M  V30 1569 H 150.179 -0.548444 0.517422 0
M  V30 1570 H 152.83 -0.765784 1.66757 0
M  V30 1571 H 151.212 -3.3566 2.10115 0
M  V30 1572 H 152.386 -1.56923 4.33257 0
M  V30 1573 H 150.701 -1.56574 3.85841 0
M  V30 1574 H 153.298 -4.27182 3.2159 0
M  V30 1575 H 153.641 -3.86247 1.55303 0
M  V30 1576 H 154.174 -2.77064 2.85448 0
M  V30 1577 H 150.913 -2.96572 5.84573 0
M  V30 1578 H 150.433 -3.99315 4.47557 0
M  V30 1579 H 152.112 -4.02029 5.06934 0
M  V30 1580 N 152.244 -1.26651 -0.937939 0
M  V30 1581 C 153.492 -1.12165 -1.68118 0
M  V30 1582 C 153.813 0.334983 -1.92101 0
M  V30 1583 O 153.083 1.23583 -1.52 0
M  V30 1584 H 151.663 -0.412093 -0.623048 0
M  V30 1585 H 154.325 -1.59027 -1.12678 0
M  V30 1586 H 153.421 -1.64289 -2.6536 0
M  V30 1587 N 153.722 1.14298 -1.08507 0
M  V30 1588 C 155.133 1.66926 -0.836227 0
M  V30 1589 C 155.484 1.85576 0.63686 0
M  V30 1590 O 154.609 1.56767 1.49175 0
M  V30 1591 C 155.204 3.03219 -1.51142 0
M  V30 1592 C 153.763 3.52876 -1.30979 0
M  V30 1593 C 152.91 2.2833 -1.57356 0
M  V30 1594 H 155.861 0.983491 -1.24552 0
M  V30 1595 H 155.882 3.68726 -0.939211 0
M  V30 1596 H 155.394 2.89612 -2.58353 0
M  V30 1597 H 153.495 3.71703 -0.258429 0
M  V30 1598 H 153.608 4.33586 -2.03814 0
M  V30 1599 H 151.972 2.34454 -0.995164 0
M  V30 1600 H 152.755 2.17298 -2.65775 0
M  V30 1601 N 155.201 0.870884 1.31352 0
M  V30 1602 C 156.148 0.325425 2.28494 0
M  V30 1603 C 157.118 -0.576615 1.5577 0
M  V30 1604 O 158.303 -0.508059 1.83911 0
M  V30 1605 C 155.443 -0.466283 3.41935 0
M  V30 1606 C 154.556 0.463378 4.29508 0
M  V30 1607 C 153.691 -0.342544 5.30094 0
M  V30 1608 C 152.73 0.583486 6.09313 0
M  V30 1609 N 151.867 -0.186244 7.01853 0
M  V30 1610 H 156.707 1.15901 2.74538 0
M  V30 1611 H 154.244 0.58294 1.35056 0
M  V30 1612 H 156.202 -0.941085 4.06447 0
M  V30 1613 H 154.832 -1.26456 2.97 0
M  V30 1614 H 153.884 1.05663 3.65431 0
M  V30 1615 H 155.196 1.1734 4.84802 0
M  V30 1616 H 154.35 -0.879816 6.00287 0
M  V30 1617 H 153.089 -1.08585 4.75458 0
M  V30 1618 H 152.094 1.13251 5.3801 0
M  V30 1619 H 153.319 1.32566 6.66035 0
M  V30 1620 H 151.265 -0.912348 6.49625 0
M  V30 1621 H 151.182 0.464422 7.54572 0
M  V30 1622 H 152.45 -0.704716 7.76308 0
M  V30 1623 N 156.679 -1.44442 0.630414 0
M  V30 1624 C 157.642 -2.29107 -0.0652523 0
M  V30 1625 C 158.642 -1.41002 -0.772995 0
M  V30 1626 O 159.832 -1.62881 -0.617692 0
M  V30 1627 C 156.964 -3.22564 -1.10296 0
M  V30 1628 H 158.157 -2.92103 0.679401 0
M  V30 1629 H 155.71 -1.51343 0.390517 0
M  V30 1630 H 156.445 -2.64416 -1.87762 0
M  V30 1631 H 156.23 -3.87491 -0.59941 0
M  V30 1632 H 157.72 -3.86167 -1.5895 0
M  V30 1633 N 158.157 -0.370918 -1.53173 0
M  V30 1634 C 159.067 0.480823 -2.2962 0
M  V30 1635 C 160.083 1.08789 -1.35798 0
M  V30 1636 O 161.259 1.09768 -1.68858 0
M  V30 1637 C 158.324 1.60227 -3.07454 0
M  V30 1638 C 157.385 1.0222 -4.16953 0
M  V30 1639 C 156.618 2.0902 -4.91066 0
M  V30 1640 O 156.841 3.30222 -4.65091 0
M  V30 1641 O 155.775 1.71778 -5.76867 0
M  V30 1642 H 159.601 -0.141421 -3.03371 0
M  V30 1643 H 157.186 -0.135146 -1.48787 0
M  V30 1644 H 159.068 2.25417 -3.56041 0
M  V30 1645 H 157.743 2.20982 -2.36535 0
M  V30 1646 H 156.65 0.334064 -3.72605 0
M  V30 1647 H 157.983 0.459131 -4.90054 0
M  V30 1648 N 159.635 1.57281 -0.100228 0
M  V30 1649 C 160.863 1.98879 0.570509 0
M  V30 1650 C 161.278 0.979476 1.61405 0
M  V30 1651 O 160.635 -0.0302288 1.82475 0
M  V30 1652 C 160.686 3.4052 1.2136 0
M  V30 1653 O 160.407 4.37588 0.211786 0
M  V30 1654 C 161.908 3.97149 1.96945 0
M  V30 1655 H 159.128 0.653428 0.152555 0
M  V30 1656 H 161.672 2.03697 -0.18103 0
M  V30 1657 H 159.827 3.367 1.91603 0
M  V30 1658 H 160.241 5.20118 0.676607 0
M  V30 1659 H 161.715 4.98393 2.37294 0
M  V30 1660 H 162.192 3.3525 2.83733 0
M  V30 1661 H 162.798 4.04458 1.31506 0
M  V30 1662 N 161.113 -0.173488 1.56642 0
M  V30 1663 C 162.362 -0.888758 1.81063 0
M  V30 1664 C 162.675 -1.83506 0.67712 0
M  V30 1665 O 163.881 -2.59254 0.806206 0
M  V30 1666 C 162.337 -1.63091 3.20826 0
M  V30 1667 C 161.945 -0.728357 4.4204 0
M  V30 1668 C 163.689 -2.33454 3.54541 0
M  V30 1669 C 161.596 -1.47062 5.72823 0
M  V30 1670 H 160.526 -0.335618 0.675186 0
M  V30 1671 H 163.177 -0.141712 1.82952 0
M  V30 1672 H 161.559 -2.42263 3.13248 0
M  V30 1673 H 162.733 0.0262449 4.60793 0
M  V30 1674 H 161.048 -0.134492 4.16183 0
M  V30 1675 H 163.645 -2.89578 4.49498 0
M  V30 1676 H 163.988 -3.08687 2.79317 0
M  V30 1677 H 164.521 -1.61227 3.63663 0
M  V30 1678 H 161.26 -0.760658 6.51072 0
M  V30 1679 H 160.78 -2.1986 5.58052 0
M  V30 1680 H 162.459 -2.01868 6.14702 0
M  V30 1681 N 162.591 -1.51276 -0.441967 0
M  V30 1682 C 164.007 -1.39349 -0.778083 0
M  V30 1683 C 164.207 -0.472212 -1.95889 0
M  V30 1684 O 163.263 0.0743551 -2.5239 0
M  V30 1685 C 164.576 -2.81292 -1.0628 0
M  V30 1686 C 166.124 -2.9041 -1.16751 0
M  V30 1687 C 166.599 -4.33251 -1.48519 0
M  V30 1688 N 168.09 -4.36336 -1.55453 0
M  V30 1689 C 168.825 -5.43885 -1.81596 0
M  V30 1690 N 168.321 -6.61601 -2.05562 0
M  V30 1691 N 170.114 -5.3136 -1.8334 0
M  V30 1692 H 162.265 -2.09729 0.335774 0
M  V30 1693 H 164.528 -0.943925 0.0878028 0
M  V30 1694 H 164.234 -3.50678 -0.267905 0
M  V30 1695 H 164.108 -3.20334 -1.99163 0
M  V30 1696 H 166.495 -2.21225 -1.95304 0
M  V30 1697 H 166.576 -2.54871 -0.217801 0
M  V30 1698 H 166.22 -5.02984 -0.704958 0
M  V30 1699 H 166.15 -4.66299 -2.44689 0
M  V30 1700 H 168.641 -3.51466 -1.38853 0
M  V30 1701 H 168.954 -7.39361 -2.24867 0
M  V30 1702 H 167.299 -6.64725 -2.02894 0
M  V30 1703 H 170.49 -4.38382 -1.64132 0
M  V30 1704 H 170.663 -6.15258 -2.03377 0
M  V30 1705 N 164.069 0.697108 -1.41344 0
M  V30 1706 C 164.999 1.82353 -1.45841 0
M  V30 1707 C 165.98 1.67115 -0.317247 0
M  V30 1708 O 167.165 1.86871 -0.528474 0
M  V30 1709 C 164.295 3.20476 -1.33838 0
M  V30 1710 C 163.249 3.50415 -2.4575 0
M  V30 1711 C 162.575 4.87878 -2.18813 0
M  V30 1712 C 163.875 3.49546 -3.88091 0
M  V30 1713 H 165.569 1.78846 -2.40113 0
M  V30 1714 H 163.115 0.859028 -1.15571 0
M  V30 1715 H 165.068 3.98988 -1.35596 0
M  V30 1716 H 163.792 3.24604 -0.360498 0
M  V30 1717 H 162.451 2.74253 -2.43271 0
M  V30 1718 H 162.099 4.8863 -1.19371 0
M  V30 1719 H 161.799 5.08875 -2.93803 0
M  V30 1720 H 163.323 5.68702 -2.22284 0
M  V30 1721 H 164.737 4.18066 -3.92293 0
M  V30 1722 H 163.134 3.82075 -4.62751 0
M  V30 1723 H 164.204 2.48552 -4.16353 0
M  V30 1724 N 165.547 1.27147 0.931209 0
M  V30 1725 C 166.48 1.0389 2.0318 0
M  V30 1726 C 167.458 -0.0395716 1.62552 0
M  V30 1727 O 168.642 0.104867 1.88208 0
M  V30 1728 C 165.769 0.575227 3.3378 0
M  V30 1729 C 164.815 1.64774 3.93385 0
M  V30 1730 S 165.648 3.23933 4.26413 0
M  V30 1731 C 166.804 2.79358 5.60098 0
M  V30 1732 H 167.037 1.97075 2.22596 0
M  V30 1733 H 164.57 1.10938 1.07387 0
M  V30 1734 H 166.528 0.314385 4.09294 0
M  V30 1735 H 165.189 -0.336505 3.12292 0
M  V30 1736 H 164.382 1.27454 4.87618 0
M  V30 1737 H 163.984 1.86048 3.24441 0
M  V30 1738 H 166.276 2.24443 6.39243 0
M  V30 1739 H 167.219 3.72322 6.02314 0
M  V30 1740 H 167.627 2.1861 5.20452 0
M  V30 1741 N 167.025 -1.13721 1.09112 0
M  V30 1742 C 168.273 -1.84559 0.823562 0
M  V30 1743 C 168.594 -1.83754 -0.652658 0
M  V30 1744 O 167.864 -1.29102 -1.47342 0
M  V30 1745 H 166.444 -0.683376 0.301673 0
M  V30 1746 H 169.106 -1.37771 1.37859 0
M  V30 1747 H 168.202 -2.8917 1.17419 0
M  V30 1748 N 168.503 -0.877838 -1.30888 0
M  V30 1749 C 169.78 -0.413052 -1.91189 0
M  V30 1750 C 170.16 1.1056 -1.79832 0
M  V30 1751 O 169.508 1.93771 -1.21099 0
M  V30 1752 C 169.718 -0.903191 -3.3711 0
M  V30 1753 C 171.066 -0.93395 -4.14201 0
M  V30 1754 O 172.09 -0.849373 -3.45925 0
M  V30 1755 O 170.949 -1.05772 -5.36167 0
M  V30 1756 H 168.043 -0.125035 -0.817493 0
M  V30 1757 H 170.589 -0.966269 -1.39504 0
M  V30 1758 H 169.361 -1.94692 -3.39427 0
M  V30 1759 H 168.984 -0.328732 -3.96239 0
M  V30 1760 N 169.982 1.44106 -0.638065 0
M  V30 1761 C 170.929 2.30715 0.062701 0
M  V30 1762 C 171.899 1.43882 0.829883 0
M  V30 1763 O 173.084 1.72775 0.809532 0
M  V30 1764 C 170.224 3.29258 1.03358 0
M  V30 1765 C 169.337 4.31192 0.26409 0
M  V30 1766 C 168.472 5.16825 1.22741 0
M  V30 1767 C 167.511 6.10462 0.447475 0
M  V30 1768 N 166.648 6.8877 1.36161 0
M  V30 1769 H 171.488 2.90096 -0.681781 0
M  V30 1770 H 169.025 1.42925 -0.347988 0
M  V30 1771 H 170.983 3.84886 1.60992 0
M  V30 1772 H 169.613 2.71562 1.74511 0
M  V30 1773 H 168.665 3.77981 -0.428295 0
M  V30 1774 H 169.977 4.97619 -0.343052 0
M  V30 1775 H 169.131 5.77004 1.87487 0
M  V30 1776 H 167.87 4.50488 1.86847 0
M  V30 1777 H 166.875 5.49386 -0.213433 0
M  V30 1778 H 168.1 6.78837 -0.188968 0
M  V30 1779 H 166.046 6.25096 1.98975 0
M  V30 1780 H 165.963 7.51663 0.808656 0
M  V30 1781 H 167.231 7.53467 1.99769 0
M  V30 1782 N 171.46 0.379036 1.52974 0
M  V30 1783 C 172.706 -0.206727 2.01744 0
M  V30 1784 C 173.039 -1.47314 1.26539 0
M  V30 1785 O 172.314 -1.91084 0.362903 0
M  V30 1786 C 172.597 -0.485066 3.56818 0
M  V30 1787 C 172.45 0.795919 4.42702 0
M  V30 1788 C 173.769 -1.28003 4.21074 0
M  V30 1789 H 170.888 -0.0736607 0.73331 0
M  V30 1790 H 173.53 0.506581 1.83122 0
M  V30 1791 H 171.68 -1.09272 3.72816 0
M  V30 1792 H 173.352 1.43307 4.38476 0
M  V30 1793 H 171.595 1.41344 4.10127 0
M  V30 1794 H 172.266 0.555947 5.49193 0
M  V30 1795 H 174.742 -0.765867 4.08991 0
M  V30 1796 H 173.618 -1.44352 5.29579 0
M  V30 1797 H 173.879 -2.29236 3.78026 0
M  V30 1798 N 172.938 -1.57226 0.108567 0
M  V30 1799 C 174.163 -1.99604 -0.563303 0
M  V30 1800 C 174.588 -0.987563 -1.6009 0
M  V30 1801 O 173.946 0.0421687 -1.81251 0
M  V30 1802 C 173.994 -3.40902 -1.17552 0
M  V30 1803 O 173.098 -3.42896 -2.2912 0
M  V30 1804 H 172.439 -0.648704 -0.1417 0
M  V30 1805 H 174.969 -2.03679 0.193961 0
M  V30 1806 H 174.979 -3.78886 -1.51357 0
M  V30 1807 H 173.654 -4.1382 -0.415445 0
M  V30 1808 H 172.231 -3.1672 -1.96832 0
M  V30 1809 N 174.416 0.165178 -1.56732 0
M  V30 1810 C 175.379 1.18822 -1.95995 0
M  V30 1811 C 176.379 1.3685 -0.84431 0
M  V30 1812 O 177.569 1.34152 -1.11126 0
M  V30 1813 C 174.701 2.5521 -2.26011 0
M  V30 1814 H 175.894 0.851825 -2.87548 0
M  V30 1815 H 173.447 0.407857 -1.50885 0
M  V30 1816 H 174.182 2.93852 -1.37191 0
M  V30 1817 H 173.967 2.43489 -3.07336 0
M  V30 1818 H 175.457 3.28927 -2.57288 0
M  V30 1819 N 175.894 1.51508 0.433938 0
M  V30 1820 C 177.143 1.63578 1.18005 0
M  V30 1821 C 177.456 0.359514 1.92268 0
M  V30 1822 O 178.662 0.359632 2.69108 0
M  V30 1823 C 177.118 2.88901 2.14626 0
M  V30 1824 C 176.726 4.23544 1.45995 0
M  V30 1825 C 178.47 3.10328 2.89649 0
M  V30 1826 C 176.377 5.40014 2.4112 0
M  V30 1827 H 175.307 0.609277 0.444182 0
M  V30 1828 H 177.958 1.77978 0.446773 0
M  V30 1829 H 176.34 2.68142 2.91403 0
M  V30 1830 H 177.514 4.54696 0.747532 0
M  V30 1831 H 175.829 4.08021 0.831115 0
M  V30 1832 H 178.426 3.94518 3.60915 0
M  V30 1833 H 178.769 2.23544 3.51189 0
M  V30 1834 H 179.302 3.31443 2.19978 0
M  V30 1835 H 176.041 6.29068 1.84264 0
M  V30 1836 H 175.561 5.13233 3.10406 0
M  V30 1837 H 177.24 5.72099 3.02177 0
M  V30 1838 N 177.372 -0.689602 1.41712 0
M  V30 1839 C 178.335 -1.78521 1.43746 0
M  V30 1840 C 179.335 -1.57436 0.327191 0
M  V30 1841 O 180.525 -1.64 0.587348 0
M  V30 1842 C 177.657 -3.16971 1.25467 0
M  V30 1843 H 178.85 -1.78108 2.41283 0
M  V30 1844 H 176.403 -0.89781 1.27942 0
M  V30 1845 H 177.138 -3.23019 0.287948 0
M  V30 1846 H 176.923 -3.33678 2.05917 0
M  V30 1847 H 178.413 -3.96935 1.2974 0
M  V30 1848 N 178.85 -1.27639 -0.924453 0
M  V30 1849 C 179.813 -1.10681 -2.00705 0
M  V30 1850 C 180.813 -0.0497823 -1.60723 0
M  V30 1851 O 182.003 -0.294654 -1.7169 0
M  V30 1852 C 179.135 -0.687164 -3.33902 0
M  V30 1853 H 180.328 -2.06817 -2.17179 0
M  V30 1854 H 177.881 -1.10473 -1.10569 0
M  V30 1855 H 178.616 0.275439 -3.23128 0
M  V30 1856 H 178.401 -1.45061 -3.6428 0
M  V30 1857 H 179.891 -0.590853 -4.13399 0
M  V30 1858 N 180.328 1.1314 -1.09713 0
M  V30 1859 C 181.261 2.17735 -0.683137 0
M  V30 1860 C 182.239 1.59582 0.311841 0
M  V30 1861 O 183.423 1.87298 0.212514 0
M  V30 1862 C 180.55 3.38699 -0.00684324 0
M  V30 1863 C 179.596 4.1546 -0.964102 0
M  V30 1864 S 180.429 4.74733 -2.47767 0
M  V30 1865 C 181.585 5.9904 -1.81387 0
M  V30 1866 H 181.818 2.52515 -1.56918 0
M  V30 1867 H 179.351 1.24484 -0.913404 0
M  V30 1868 H 181.309 4.08765 0.377044 0
M  V30 1869 H 179.97 3.02214 0.85589 0
M  V30 1870 H 179.163 5.02093 -0.43803 0
M  V30 1871 H 178.765 3.51066 -1.28953 0
M  V30 1872 H 181.057 6.67846 -1.13967 0
M  V30 1873 H 182 6.56261 -2.65947 0
M  V30 1874 H 182.408 5.4976 -1.28155 0
M  V30 1875 N 181.806 0.884767 1.30421 0
M  V30 1876 C 182.753 0.349642 2.28136 0
M  V30 1877 C 183.723 -0.560061 1.56373 0
M  V30 1878 O 184.908 -0.488524 1.8444 0
M  V30 1879 C 182.048 -0.42999 3.42411 0
M  V30 1880 C 181.161 0.508907 4.28992 0
M  V30 1881 C 180.296 -0.286301 5.30428 0
M  V30 1882 C 179.335 0.648079 6.08659 0
M  V30 1883 N 178.472 -0.111792 7.02011 0
M  V30 1884 H 183.312 1.18807 2.73293 0
M  V30 1885 H 180.849 0.597231 1.3443 0
M  V30 1886 H 182.807 -0.897923 4.07423 0
M  V30 1887 H 181.437 -1.23299 2.98324 0
M  V30 1888 H 180.489 1.09533 3.64289 0
M  V30 1889 H 181.801 1.22475 4.8353 0
M  V30 1890 H 180.955 -0.816098 6.01186 0
M  V30 1891 H 179.694 -1.03536 4.76583 0
M  V30 1892 H 178.699 1.18951 5.36778 0
M  V30 1893 H 179.924 1.39623 6.64592 0
M  V30 1894 H 177.87 -0.843395 6.50556 0
M  V30 1895 H 177.787 0.544429 7.54037 0
M  V30 1896 H 179.055 -0.622339 7.77012 0
M  V30 1897 N 183.284 -1.43765 0.645699 0
M  V30 1898 C 184.231 -2.30745 -0.0504648 0
M  V30 1899 C 185.201 -1.4432 -0.822241 0
M  V30 1900 O 186.386 -1.73202 -0.800358 0
M  V30 1901 C 183.526 -3.29802 -1.0161 0
M  V30 1902 C 182.639 -4.31326 -0.241219 0
M  V30 1903 C 181.774 -5.17469 -1.19998 0
M  V30 1904 C 180.813 -6.10691 -0.415094 0
M  V30 1905 N 179.95 -6.89483 -1.32506 0
M  V30 1906 H 184.79 -2.8973 0.697155 0
M  V30 1907 H 182.327 -1.42738 0.355563 0
M  V30 1908 H 184.285 -3.85734 -1.58949 0
M  V30 1909 H 182.915 -2.72483 -1.73069 0
M  V30 1910 H 181.967 -3.77749 0.448334 0
M  V30 1911 H 183.279 -4.9743 0.369437 0
M  V30 1912 H 182.433 -5.7799 -1.84424 0
M  V30 1913 H 181.172 -4.51473 -1.84455 0
M  V30 1914 H 180.177 -5.49265 0.242565 0
M  V30 1915 H 181.402 -6.78727 0.224966 0
M  V30 1916 H 179.348 -6.26142 -1.95657 0
M  V30 1917 H 179.265 -7.52081 -0.768783 0
M  V30 1918 H 180.533 -7.54516 -1.9577 0
M  V30 1919 N 184.763 -0.387143 -1.52771 0
M  V30 1920 C 185.726 0.436939 -2.24997 0
M  V30 1921 C 186.726 0.991991 -1.26555 0
M  V30 1922 O 187.916 0.874335 -1.50669 0
M  V30 1923 C 185.048 1.61281 -3.00335 0
M  V30 1924 H 186.241 -0.195365 -2.99263 0
M  V30 1925 H 183.794 -0.139218 -1.55679 0
M  V30 1926 H 184.529 2.2826 -2.30364 0
M  V30 1927 H 184.314 1.22154 -3.72587 0
M  V30 1928 H 185.804 2.19629 -3.5518 0
M  V30 1929 N 186.241 1.57166 -0.116904 0
M  V30 1930 C 187.489 1.94737 0.540533 0
M  V30 1931 C 187.81 1.00096 1.67349 0
M  V30 1932 O 187.08 0.0568854 1.95817 0
M  V30 1933 H 185.66 0.718981 0.202669 0
M  V30 1934 H 188.322 1.94017 -0.185353 0
M  V30 1935 H 187.418 2.97719 0.936483 0
M  V30 1936 N 187.719 -0.156864 1.56817 0
M  V30 1937 C 188.965 -0.872416 1.83076 0
M  V30 1938 C 189.298 -1.81261 0.697001 0
M  V30 1939 O 188.573 -1.92171 -0.30008 0
M  V30 1940 C 188.856 -1.65551 3.19789 0
M  V30 1941 C 188.709 -0.737467 4.43713 0
M  V30 1942 C 190.028 -2.62012 3.53606 0
M  V30 1943 H 187.147 -0.315715 0.665953 0
M  V30 1944 H 189.789 -0.138004 1.89498 0
M  V30 1945 H 187.939 -2.28159 3.14445 0
M  V30 1946 H 189.611 -0.123143 4.61136 0
M  V30 1947 H 187.854 -0.0464067 4.33775 0
M  V30 1948 H 188.525 -1.32122 5.35955 0
M  V30 1949 H 191.001 -2.09525 3.59497 0
M  V30 1950 H 189.877 -3.13861 4.50314 0
M  V30 1951 H 190.138 -3.42902 2.79053 0
M  V30 1952 N 189.197 -1.51736 -0.425897 0
M  V30 1953 C 190.608 -1.5732 -1.00536 0
M  V30 1954 C 190.959 -0.403537 -1.92005 0
M  V30 1955 O 190.084 0.478256 -2.11049 0
M  V30 1956 C 190.679 -2.85119 -1.8301 0
M  V30 1957 C 189.238 -2.93236 -2.35987 0
M  V30 1958 C 188.385 -2.52098 -1.15508 0
M  V30 1959 H 191.336 -1.57348 -0.206739 0
M  V30 1960 H 191.357 -2.69526 -2.68581 0
M  V30 1961 H 190.869 -3.7023 -1.16411 0
M  V30 1962 H 188.97 -2.12581 -3.06007 0
M  V30 1963 H 189.083 -3.9713 -2.68001 0
M  V30 1964 H 187.447 -2.05558 -1.50393 0
M  V30 1965 H 188.23 -3.39565 -0.505014 0
M  V30 1966 N 190.675 0.682077 -1.42076 0
M  V30 1967 C 191.915 1.45424 -1.43636 0
M  V30 1968 C 192.279 1.91939 -0.0484001 0
M  V30 1969 O 193.48 2.6873 0.0612514 0
M  V30 1970 C 191.751 2.62427 -2.42625 0
M  V30 1971 S 193.31 3.51379 -2.62827 0
M  V30 1972 H 190.128 0.496779 -0.508657 0
M  V30 1973 H 192.73 0.794645 -1.78621 0
M  V30 1974 H 191.434 2.26481 -3.42249 0
M  V30 1975 H 190.965 3.33266 -2.09039 0
M  V30 1976 H 192.98 4.58141 -1.9058 0
M  V30 1977 N 192.153 1.28127 0.917671 0
M  V30 1978 C 193.399 1.15223 1.66888 0
M  V30 1979 C 193.732 -0.299293 1.9188 0
M  V30 1980 O 193.007 -1.21805 1.51637 0
M  V30 1981 C 193.29 1.94706 3.02922 0
M  V30 1982 C 193.143 3.47898 2.85109 0
M  V30 1983 C 194.462 1.75939 4.03402 0
M  V30 1984 H 191.581 0.419946 0.605652 0
M  V30 1985 H 194.223 1.57398 1.06423 0
M  V30 1986 H 192.373 1.58864 3.54534 0
M  V30 1987 H 194.045 3.93624 2.40537 0
M  V30 1988 H 192.288 3.7373 2.20246 0
M  V30 1989 H 192.959 3.98765 3.81694 0
M  V30 1990 H 195.435 2.07209 3.60837 0
M  V30 1991 H 194.311 2.33931 4.96556 0
M  V30 1992 H 194.572 0.709877 4.36364 0
M  V30 1993 N 193.631 -1.12557 1.10312 0
M  V30 1994 C 195.042 -1.65574 0.862678 0
M  V30 1995 C 195.393 -1.86566 -0.607256 0
M  V30 1996 O 194.518 -1.59121 -1.46662 0
M  V30 1997 C 195.113 -3.00776 1.55947 0
M  V30 1998 C 193.672 -3.50748 1.36576 0
M  V30 1999 C 192.819 -2.25797 1.60968 0
M  V30 2000 H 195.77 -0.963552 1.26101 0
M  V30 2001 H 195.791 -3.67185 0.997753 0
M  V30 2002 H 195.303 -2.85465 2.62928 0
M  V30 2003 H 193.404 -3.71245 0.317531 0
M  V30 2004 H 193.517 -4.30289 2.10686 0
M  V30 2005 H 191.881 -2.32841 1.03234 0
M  V30 2006 H 192.664 -2.13043 2.69198 0
M  V30 2007 N 195.109 -0.891671 -1.2995 0
M  V30 2008 C 196.357 -0.512486 -1.95494 0
M  V30 2009 C 196.678 0.942776 -1.70695 0
M  V30 2010 O 195.948 1.66374 -1.03424 0
M  V30 2011 H 194.528 -0.186533 -0.723336 0
M  V30 2012 H 197.19 -1.13621 -1.58355 0
M  V30 2013 H 196.286 -0.688342 -3.04415 0
M  V30 2014 N 196.587 1.43421 -0.653314 0
M  V30 2015 C 197.812 2.06678 -0.172846 0
M  V30 2016 C 198.237 1.48648 1.15262 0
M  V30 2017 O 197.595 0.596457 1.71208 0
M  V30 2018 C 197.643 3.60474 -0.0953184 0
M  V30 2019 O 196.747 4.01487 0.942442 0
M  V30 2020 H 196.088 0.657181 -0.0949155 0
M  V30 2021 H 198.618 1.83925 -0.896265 0
M  V30 2022 H 198.628 4.07905 0.0879728 0
M  V30 2023 H 197.303 4.02088 -1.06291 0
M  V30 2024 H 195.88 3.65646 0.731932 0
M  V30 2025 N 198.065 0.39524 1.52563 0
M  V30 2026 C 199.342 -0.242908 1.94086 0
M  V30 2027 C 199.722 -1.63841 1.33114 0
M  V30 2028 O 199.07 -2.22928 0.501529 0
M  V30 2029 C 199.28 -0.26327 3.48006 0
M  V30 2030 C 200.628 -0.489354 4.21771 0
M  V30 2031 O 201.652 -0.343226 3.54543 0
M  V30 2032 O 200.511 -0.776169 5.4096 0
M  V30 2033 H 197.605 -0.152536 0.812811 0
M  V30 2034 H 200.151 0.450178 1.6362 0
M  V30 2035 H 198.923 0.713985 3.84731 0
M  V30 2036 H 198.546 -1.00103 3.84792 0
M  V30 2037 N 199.544 -1.57102 0.125237 0
M  V30 2038 C 200.792 -1.95021 -0.530198 0
M  V30 2039 C 201.113 -1.00982 -1.66816 0
M  V30 2040 O 200.383 -0.0672693 -1.95784 0
M  V30 2041 H 198.963 -0.720046 -0.198853 0
M  V30 2042 H 201.625 -1.93916 0.19564 0
M  V30 2043 H 200.721 -2.98211 -0.920681 0
M  V30 2044 N 201.022 0.148545 -1.56898 0
M  V30 2045 C 202.433 0.708766 -1.72723 0
M  V30 2046 C 202.784 1.81734 -0.739395 0
M  V30 2047 O 201.909 2.16194 0.0943169 0
M  V30 2048 C 202.504 1.29245 -3.13179 0
M  V30 2049 C 201.063 1.79925 -3.30611 0
M  V30 2050 C 200.21 0.687111 -2.68652 0
M  V30 2051 H 203.161 -0.0771063 -1.58513 0
M  V30 2052 H 203.182 2.16224 -3.13093 0
M  V30 2053 H 202.694 0.485382 -3.85053 0
M  V30 2054 H 200.795 2.63203 -2.63732 0
M  V30 2055 H 200.908 1.92903 -4.38549 0
M  V30 2056 H 199.272 1.11335 -2.29078 0
M  V30 2057 H 200.055 -0.108483 -3.43129 0
M  V30 2058 N 202.5 1.5196 0.417844 0
M  V30 2059 C 203.43 1.77634 1.51554 0
M  V30 2060 C 204.411 0.626918 1.58126 0
M  V30 2061 O 205.596 0.871632 1.7354 0
M  V30 2062 C 202.726 1.91911 2.8946 0
M  V30 2063 C 201.68 3.07463 2.97743 0
M  V30 2064 C 201.006 3.06951 4.37819 0
M  V30 2065 C 202.306 4.47082 2.70027 0
M  V30 2066 H 204 2.6955 1.3032 0
M  V30 2067 H 201.546 1.29706 0.625492 0
M  V30 2068 H 203.499 2.08455 3.6623 0
M  V30 2069 H 202.223 0.966598 3.11969 0
M  V30 2070 H 200.882 2.90656 2.23416 0
M  V30 2071 H 200.53 2.09438 4.57323 0
M  V30 2072 H 200.23 3.84556 4.44286 0
M  V30 2073 H 201.754 3.25613 5.16535 0
M  V30 2074 H 203.168 4.6414 3.36522 0
M  V30 2075 H 201.565 5.2654 2.87881 0
M  V30 2076 H 202.635 4.55777 1.65514 0
M  V30 2077 N 203.978 -0.674533 1.42435 0
M  V30 2078 C 205.226 -1.43175 1.42637 0
M  V30 2079 C 205.547 -1.94951 0.0438992 0
M  V30 2080 O 204.817 -1.7308 -0.917607 0
M  V30 2081 H 203.397 -0.531307 0.525092 0
M  V30 2082 H 206.059 -0.797006 1.77859 0
M  V30 2083 H 205.155 -2.28463 2.12629 0
M  V30 2084 N 205.456 -1.28612 -0.910864 0
M  V30 2085 C 206.733 -1.06632 -1.63979 0
M  V30 2086 C 207.113 0.393351 -2.07403 0
M  V30 2087 O 206.461 1.37999 -1.82122 0
M  V30 2088 C 206.671 -2.0436 -2.8291 0
M  V30 2089 C 208.019 -2.34666 -3.5386 0
M  V30 2090 O 209.043 -2.02467 -2.93062 0
M  V30 2091 O 207.902 -2.89631 -4.63439 0
M  V30 2092 H 204.996 -0.407737 -0.7195 0
M  V30 2093 H 207.542 -1.39942 -0.959914 0
M  V30 2094 H 206.314 -3.02727 -2.47936 0
M  V30 2095 H 205.937 -1.71714 -3.58609 0
M  V30 2096 N 206.934 1.1197 -1.10907 0
M  V30 2097 C 208.211 1.79959 -0.766432 0
M  V30 2098 C 208.591 1.97466 0.746363 0
M  V30 2099 O 207.939 1.55491 1.67436 0
M  V30 2100 C 208.149 3.14009 -1.52314 0
M  V30 2101 C 209.497 3.89134 -1.69883 0
M  V30 2102 O 210.521 3.2368 -1.48692 0
M  V30 2103 O 209.38 5.06572 -2.05054 0
M  V30 2104 H 206.474 0.779208 -0.277062 0
M  V30 2105 H 209.02 1.18762 -1.21217 0
M  V30 2106 H 207.792 2.96587 -2.55249 0
M  V30 2107 H 207.415 3.82915 -1.07059 0
M  V30 2108 N 208.412 0.89855 1.29475 0
M  V30 2109 C 209.345 0.319981 2.25945 0
M  V30 2110 C 210.323 -0.567189 1.52387 0
M  V30 2111 O 211.507 -0.514254 1.8135 0
M  V30 2112 C 208.634 -0.544013 3.34303 0
M  V30 2113 C 207.68 0.275682 4.25608 0
M  V30 2114 S 208.513 1.67272 5.08704 0
M  V30 2115 C 209.669 0.815621 6.20563 0
M  V30 2116 H 209.902 1.13767 2.74671 0
M  V30 2117 H 207.435 0.69882 1.3768 0
M  V30 2118 H 209.393 -1.03673 3.97193 0
M  V30 2119 H 208.054 -1.33593 2.84274 0
M  V30 2120 H 207.247 -0.384263 5.02533 0
M  V30 2121 H 206.849 0.701496 3.67362 0
M  V30 2122 H 209.141 0.0385042 6.77489 0
M  V30 2123 H 210.084 1.55691 6.90772 0
M  V30 2124 H 210.492 0.370516 5.63283 0
M  V30 2125 N 209.89 -1.43072 0.660911 0
M  V30 2126 C 211.167 -1.95307 0.107017 0
M  V30 2127 C 211.547 -1.60192 -1.37484 0
M  V30 2128 O 210.895 -0.890949 -2.10415 0
M  V30 2129 C 211.105 -3.47124 0.361402 0
M  V30 2130 C 212.453 -4.23738 0.270455 0
M  V30 2131 O 213.477 -3.54981 0.294382 0
M  V30 2132 O 212.336 -5.46131 0.200737 0
M  V30 2133 H 209.43 -0.826984 -0.00517729 0
M  V30 2134 H 211.976 -1.52972 0.734681 0
M  V30 2135 H 210.748 -3.65837 1.38848 0
M  V30 2136 H 210.371 -3.96475 -0.298953 0
M  V30 2137 N 211.368 -0.403325 -1.52352 0
M  V30 2138 C 212.315 0.425011 -2.26853 0
M  V30 2139 C 213.285 1.04598 -1.29029 0
M  V30 2140 O 214.47 1.07135 -1.57882 0
M  V30 2141 C 211.61 1.53888 -3.08889 0
M  V30 2142 C 210.723 0.939396 -4.21663 0
M  V30 2143 C 209.858 2.02547 -4.91068 0
M  V30 2144 C 208.897 1.40263 -5.95813 0
M  V30 2145 N 208.034 2.4286 -6.58759 0
M  V30 2146 H 212.874 -0.21674 -2.97211 0
M  V30 2147 H 210.411 -0.118722 -1.4662 0
M  V30 2148 H 212.369 2.19558 -3.54753 0
M  V30 2149 H 210.999 2.15074 -2.40714 0
M  V30 2150 H 210.051 0.171898 -3.80011 0
M  V30 2151 H 211.363 0.44436 -4.96817 0
M  V30 2152 H 210.517 2.75958 -5.40308 0
M  V30 2153 H 209.256 2.55415 -4.15469 0
M  V30 2154 H 208.261 0.653833 -5.45898 0
M  V30 2155 H 209.486 0.881719 -6.73352 0
M  V30 2156 H 207.432 2.94871 -5.85992 0
M  V30 2157 H 207.349 1.98152 -7.2957 0
M  V30 2158 H 208.617 3.15858 -7.12639 0
M  V30 2159 N 212.846 1.57033 -0.133567 0
M  V30 2160 C 213.794 2.17348 0.828412 0
M  V30 2161 C 214.788 1.12671 1.26498 0
M  V30 2162 O 215.994 1.30947 1.23502 0
M  V30 2163 H 212.369 0.695775 0.285309 0
M  V30 2164 H 214.34 2.96935 0.295372 0
M  V30 2165 C 213.089 2.79893 2.06289 0
M  V30 2166 H 212.412 3.60147 1.73592 0
M  V30 2167 H 213.852 3.25615 2.71572 0
M  V30 2168 C 212.311 1.77713 2.86216 0
M  V30 2169 O 212.841 1.23937 3.82103 0
M  V30 2170 N 211.047 1.47321 2.50489 0
M  V30 2171 H 210.594 1.91243 1.7258 0
M  V30 2172 H 210.552 0.79199 3.04261 0
M  V30 2173 N 214.325 -0.140222 1.56975 0
M  V30 2174 C 215.741 -0.493088 1.51792 0
M  V30 2175 C 215.941 -1.83013 0.843116 0
M  V30 2176 O 214.997 -2.49041 0.416493 0
M  V30 2177 C 216.31 -0.497144 2.96562 0
M  V30 2178 C 217.858 -0.582186 3.07538 0
M  V30 2179 C 218.333 -0.616838 4.53827 0
M  V30 2180 N 219.824 -0.678873 4.58198 0
M  V30 2181 C 220.559 -0.726782 5.68775 0
M  V30 2182 N 220.055 -0.733623 6.88905 0
M  V30 2183 N 221.848 -0.768179 5.56826 0
M  V30 2184 H 213.999 0.736108 1.99237 0
M  V30 2185 H 216.262 0.269182 0.90898 0
M  V30 2186 H 215.968 0.417217 3.49217 0
M  V30 2187 H 215.842 -1.33263 3.52875 0
M  V30 2188 H 218.229 -1.48697 2.54899 0
M  V30 2189 H 218.31 0.280581 2.54257 0
M  V30 2190 H 217.954 0.283812 5.07106 0
M  V30 2191 H 217.884 -1.49619 5.04898 0
M  V30 2192 H 220.375 -0.68061 3.7172 0
M  V30 2193 H 220.688 -0.772215 7.68932 0
M  V30 2194 H 219.033 -0.701389 6.91452 0
M  V30 2195 H 222.224 -0.760051 4.61888 0
M  V30 2196 H 222.397 -0.80205 6.43017 0
M  V30 2197 N 215.803 -1.52179 -0.40978 0
M  V30 2198 C 216.766 -1.74853 -1.48186 0
M  V30 2199 C 217.766 -0.618417 -1.48433 0
M  V30 2200 O 218.956 -0.886286 -1.49969 0
M  V30 2201 C 216.088 -1.8303 -2.87598 0
M  V30 2202 H 217.281 -2.70559 -1.29374 0
M  V30 2203 H 214.834 -1.42586 -0.640233 0
M  V30 2204 H 215.569 -0.89236 -3.11781 0
M  V30 2205 H 215.354 -2.65187 -2.88822 0
M  V30 2206 H 216.844 -2.02316 -3.65319 0
M  V30 2207 N 217.281 0.66697 -1.42791 0
M  V30 2208 C 218.53 1.42278 -1.42968 0
M  V30 2209 C 218.843 1.9553 -0.0524489 0
M  V30 2210 O 220.049 2.71414 0.068363 0
M  V30 2211 C 218.505 2.57418 -2.51524 0
M  V30 2212 C 218.113 2.10832 -3.9529 0
M  V30 2213 C 219.857 3.34878 -2.60877 0
M  V30 2214 C 217.764 3.23101 -4.95338 0
M  V30 2215 H 216.694 0.534533 -0.531781 0
M  V30 2216 H 219.345 0.721302 -1.68729 0
M  V30 2217 H 217.727 3.29971 -2.18941 0
M  V30 2218 H 218.901 1.4538 -4.37266 0
M  V30 2219 H 217.216 1.46289 -3.89857 0
M  V30 2220 H 219.813 4.18505 -3.32802 0
M  V30 2221 H 220.156 3.81993 -1.6549 0
M  V30 2222 H 220.689 2.69398 -2.92693 0
M  V30 2223 H 217.428 2.80969 -5.9223 0
M  V30 2224 H 216.948 3.87309 -4.57987 0
M  V30 2225 H 218.627 3.88447 -5.17415 0
M  V30 2226 N 218.759 1.29093 0.90403 0
M  V30 2227 C 219.722 1.1386 1.98919 0
M  V30 2228 C 220.722 0.0753457 1.60623 0
M  V30 2229 O 221.912 0.321931 1.71199 0
M  V30 2230 C 219.044 0.740198 3.32767 0
M  V30 2231 H 220.237 2.10246 2.13861 0
M  V30 2232 H 217.79 1.12218 1.08797 0
M  V30 2233 H 218.525 -0.223997 3.23525 0
M  V30 2234 H 218.31 1.50838 3.61926 0
M  V30 2235 H 219.8 0.656546 4.12407 0
M  V30 2236 N 220.237 -1.11381 1.11499 0
M  V30 2237 C 221.184 -2.17439 0.773887 0
M  V30 2238 C 222.154 -1.64132 -0.254899 0
M  V30 2239 O 223.339 -1.90345 -0.13168 0
M  V30 2240 C 220.479 -3.44373 0.223917 0
M  V30 2241 C 219.592 -4.1168 1.30934 0
M  V30 2242 C 218.727 -5.263 0.71984 0
M  V30 2243 C 217.766 -5.85493 1.78507 0
M  V30 2244 N 216.903 -6.91507 1.21502 0
M  V30 2245 H 221.743 -2.45962 1.68246 0
M  V30 2246 H 219.28 -1.20744 0.840191 0
M  V30 2247 H 221.238 -4.17047 -0.112921 0
M  V30 2248 H 219.868 -3.16232 -0.647851 0
M  V30 2249 H 218.92 -3.37073 1.76312 0
M  V30 2250 H 220.232 -4.51729 2.11524 0
M  V30 2251 H 219.386 -6.05785 0.333094 0
M  V30 2252 H 218.125 -4.87559 -0.117377 0
M  V30 2253 H 217.13 -5.04686 2.18111 0
M  V30 2254 H 218.355 -6.26301 2.62533 0
M  V30 2255 H 216.301 -6.54783 0.399455 0
M  V30 2256 H 216.218 -7.30214 1.95763 0
M  V30 2257 H 217.486 -7.74795 0.855181 0
M  V30 2258 N 221.715 -0.905404 -1.28997 0
M  V30 2259 C 223.131 -0.60233 -1.47798 0
M  V30 2260 C 223.331 0.854645 -1.82478 0
M  V30 2261 O 222.387 1.63439 -1.92468 0
M  V30 2262 C 223.7 -1.53306 -2.58685 0
M  V30 2263 C 225.248 -1.53887 -2.72558 0
M  V30 2264 C 225.723 -2.45602 -3.86579 0
M  V30 2265 N 227.214 -2.43681 -3.93921 0
M  V30 2266 C 227.949 -3.11347 -4.81509 0
M  V30 2267 N 227.445 -3.88313 -5.73746 0
M  V30 2268 N 229.238 -3.00476 -4.75048 0
M  V30 2269 H 221.389 -1.84765 -1.04764 0
M  V30 2270 H 223.652 -0.792025 -0.520961 0
M  V30 2271 H 223.358 -2.57141 -2.39941 0
M  V30 2272 H 223.232 -1.25787 -3.55609 0
M  V30 2273 H 225.619 -0.507941 -2.90696 0
M  V30 2274 H 225.7 -1.85447 -1.76191 0
M  V30 2275 H 225.344 -3.48792 -3.69197 0
M  V30 2276 H 225.274 -2.11349 -4.82327 0
M  V30 2277 H 227.765 -1.87767 -3.27951 0
M  V30 2278 H 228.078 -4.36985 -6.37389 0
M  V30 2279 H 226.423 -3.92419 -5.73614 0
M  V30 2280 H 229.614 -2.39858 -4.01977 0
M  V30 2281 H 229.787 -3.53485 -5.43095 0
M  V30 2282 N 223.193 1.4272 -0.668489 0
M  V30 2283 C 224.442 2.00846 -0.185389 0
M  V30 2284 C 224.755 1.53442 1.21305 0
M  V30 2285 O 225.961 2.03944 1.79218 0
M  V30 2286 C 224.417 3.58805 -0.280591 0
M  V30 2287 C 224.025 4.15198 -1.68268 0
M  V30 2288 C 225.769 4.24255 0.14412 0
M  V30 2289 C 223.676 5.655 -1.73099 0
M  V30 2290 H 222.606 0.751145 -0.0655475 0
M  V30 2291 H 225.257 1.63516 -0.832752 0
M  V30 2292 H 223.639 3.93608 0.434553 0
M  V30 2293 H 224.813 3.91866 -2.42441 0
M  V30 2294 H 223.128 3.62176 -2.05469 0
M  V30 2295 H 225.725 5.34547 0.128086 0
M  V30 2296 H 226.068 3.99277 1.17827 0
M  V30 2297 H 226.601 3.94389 -0.519798 0
M  V30 2298 H 223.34 5.95268 -2.74475 0
M  V30 2299 H 222.86 5.90842 -1.03274 0
M  V30 2300 H 224.539 6.29808 -1.48158 0
M  V30 2301 N 224.671 0.411399 1.52136 0
M  V30 2302 C 225.919 -0.163322 2.01439 0
M  V30 2303 C 226.24 -1.45453 1.29879 0
M  V30 2304 O 225.51 -1.91225 0.4254 0
M  V30 2305 H 224.09 -0.0633447 0.744309 0
M  V30 2306 H 226.752 0.548161 1.87033 0
M  V30 2307 H 225.848 -0.357817 3.10042 0
M  V30 2308 N 226.149 -1.5696 0.141893 0
M  V30 2309 C 227.379 -2.00031 -0.516828 0
M  V30 2310 C 227.787 -1.02091 -1.59293 0
M  V30 2311 O 227.13 -0.00909657 -1.83698 0
M  V30 2312 C 227.192 -3.39534 -1.1814 0
M  V30 2313 C 226.856 -4.56313 -0.250513 0
M  V30 2314 C 227.853 -5.17295 0.519839 0
M  V30 2315 C 225.538 -5.02061 -0.154907 0
M  V30 2316 C 227.532 -6.2243 1.3733 0
M  V30 2317 C 225.219 -6.07053 0.702161 0
M  V30 2318 C 226.217 -6.67106 1.46487 0
M  V30 2319 O 225.905 -7.70066 2.30767 0
M  V30 2320 H 225.637 -0.661451 -0.139493 0
M  V30 2321 H 228.191 -2.04086 0.231926 0
M  V30 2322 H 226.421 -3.32302 -1.97769 0
M  V30 2323 H 228.11 -3.66745 -1.73933 0
M  V30 2324 H 228.876 -4.82852 0.45598 0
M  V30 2325 H 224.755 -4.5505 -0.7383 0
M  V30 2326 H 228.299 -6.69233 1.96909 0
M  V30 2327 H 224.196 -6.40923 0.76733 0
M  V30 2328 H 224.964 -7.87264 2.23959 0
M  V30 2329 N 227.627 0.131896 -1.57047 0
M  V30 2330 C 229.038 0.690407 -1.73465 0
M  V30 2331 C 229.389 1.8094 -0.758629 0
M  V30 2332 O 228.514 2.16282 0.0713813 0
M  V30 2333 C 229.109 1.25916 -3.14532 0
M  V30 2334 C 227.668 1.76409 -3.32501 0
M  V30 2335 C 226.815 0.658579 -2.69366 0
M  V30 2336 H 229.766 -0.0939144 -1.58422 0
M  V30 2337 H 229.787 2.12892 -3.15369 0
M  V30 2338 H 229.299 0.444515 -3.85546 0
M  V30 2339 H 227.4 2.60391 -2.66509 0
M  V30 2340 H 227.513 1.88241 -4.4057 0
M  V30 2341 H 225.877 1.08899 -2.30246 0
M  V30 2342 H 226.66 -0.14487 -3.42994 0
M  V30 2343 N 229.106 1.52395 0.401703 0
M  V30 2344 C 230.352 1.67065 1.14966 0
M  V30 2345 C 230.685 0.403052 1.89971 0
M  V30 2346 O 229.96 -0.598774 1.85054 0
M  V30 2347 C 230.243 2.8975 2.13815 0
M  V30 2348 C 230.096 4.26578 1.42658 0
M  V30 2349 C 231.415 3.07965 3.14397 0
M  V30 2350 H 228.534 0.607968 0.416587 0
M  V30 2351 H 231.176 1.84965 0.434511 0
M  V30 2352 H 229.326 2.74619 2.74803 0
M  V30 2353 H 230.998 4.53451 0.847329 0
M  V30 2354 H 229.241 4.27639 0.72849 0
M  V30 2355 H 229.912 5.08483 2.14823 0
M  V30 2356 H 232.388 3.22043 2.63491 0
M  V30 2357 H 231.264 3.95308 3.80819 0
M  V30 2358 H 231.525 2.21611 3.82545 0
M  V30 2359 N 230.584 -0.659388 1.43143 0
M  V30 2360 C 231.833 -1.41518 1.43721 0
M  V30 2361 C 232.146 -1.95499 0.0628176 0
M  V30 2362 O 233.352 -2.71446 -0.0539683 0
M  V30 2363 C 231.808 -2.5608 2.52885 0
M  V30 2364 C 231.416 -2.08733 3.96402 0
M  V30 2365 C 233.16 -3.3349 2.62649 0
M  V30 2366 C 231.067 -3.20469 4.97045 0
M  V30 2367 H 229.997 -0.531705 0.534608 0
M  V30 2368 H 232.648 -0.712343 1.69109 0
M  V30 2369 H 231.03 -3.28805 2.20688 0
M  V30 2370 H 232.204 -1.43059 4.3803 0
M  V30 2371 H 230.519 -1.44219 3.90627 0
M  V30 2372 H 233.116 -4.16734 3.35017 0
M  V30 2373 H 233.459 -3.8111 1.67513 0
M  V30 2374 H 233.992 -2.67842 2.94118 0
M  V30 2375 H 230.731 -2.77824 5.93712 0
M  V30 2376 H 230.251 -3.84874 4.60034 0
M  V30 2377 H 231.93 -3.85698 5.19467 0
M  V30 2378 N 232.062 -1.29571 -0.897171 0
M  V30 2379 C 233.311 -1.1706 -1.64256 0
M  V30 2380 C 233.624 0.276476 -1.93636 0
M  V30 2381 O 234.83 0.52294 -2.66416 0
M  V30 2382 C 233.286 -2.0475 -2.95982 0
M  V30 2383 C 232.894 -3.54295 -2.74187 0
M  V30 2384 C 234.638 -2.0097 -3.73914 0
M  V30 2385 C 232.545 -4.34081 -4.01656 0
M  V30 2386 H 231.475 -0.43452 -0.616205 0
M  V30 2387 H 234.126 -1.54229 -0.994268 0
M  V30 2388 H 232.508 -1.60452 -3.62038 0
M  V30 2389 H 233.682 -4.06662 -2.1671 0
M  V30 2390 H 231.997 -3.59773 -2.09648 0
M  V30 2391 H 234.594 -2.57838 -4.68427 0
M  V30 2392 H 234.937 -0.990273 -4.0435 0
M  V30 2393 H 235.47 -2.43325 -3.14703 0
M  V30 2394 H 232.209 -5.36671 -3.76384 0
M  V30 2395 H 231.729 -3.86483 -4.58684 0
M  V30 2396 H 233.408 -4.44877 -4.69781 0
M  V30 2397 N 233.54 1.10788 -1.12088 0
M  V30 2398 C 234.487 2.17025 -0.785407 0
M  V30 2399 C 235.457 1.64265 0.246191 0
M  V30 2400 O 236.642 1.90412 0.121584 0
M  V30 2401 C 233.782 3.44249 -0.242177 0
M  V30 2402 C 232.895 4.1098 -1.33115 0
M  V30 2403 C 232.03 5.25911 -0.747741 0
M  V30 2404 C 231.069 5.84538 -1.81609 0
M  V30 2405 N 230.206 6.90853 -1.25167 0
M  V30 2406 H 235.046 2.45066 -1.69548 0
M  V30 2407 H 232.583 1.20297 -0.846582 0
M  V30 2408 H 234.541 4.17101 0.0908026 0
M  V30 2409 H 233.171 3.16571 0.631072 0
M  V30 2410 H 232.223 3.36133 -1.78097 0
M  V30 2411 H 233.535 4.50601 -2.13917 0
M  V30 2412 H 232.689 6.056 -0.365216 0
M  V30 2413 H 231.428 4.87614 0.0915188 0
M  V30 2414 H 230.433 5.03522 -2.20785 0
M  V30 2415 H 231.658 6.249 -2.6585 0
M  V30 2416 H 229.604 6.54562 -0.434174 0
M  V30 2417 H 229.521 7.29166 -1.99633 0
M  V30 2418 H 230.789 7.7433 -0.896259 0
M  V30 2419 N 235.018 0.912232 1.28515 0
M  V30 2420 C 235.981 0.404223 2.25607 0
M  V30 2421 C 236.981 -0.468602 1.53821 0
M  V30 2422 O 238.171 -0.271873 1.72065 0
M  V30 2423 C 235.303 -0.420653 3.38295 0
M  V30 2424 H 236.496 1.26188 2.7206 0
M  V30 2425 H 234.049 0.691495 1.40171 0
M  V30 2426 H 234.784 -1.29777 2.97201 0
M  V30 2427 H 234.569 0.204935 3.91564 0
M  V30 2428 H 236.059 -0.766971 4.10496 0
M  V30 2429 N 236.496 -1.42363 0.676048 0
M  V30 2430 C 237.721 -2.06377 0.205705 0
M  V30 2431 C 238.146 -1.50463 -1.12883 0
M  V30 2432 O 237.504 -0.623619 -1.70237 0
M  V30 2433 C 237.552 -3.60277 0.152655 0
M  V30 2434 O 236.656 -4.02935 -0.87845 0
M  V30 2435 H 235.997 -0.655588 0.105359 0
M  V30 2436 H 238.527 -1.82475 0.925412 0
M  V30 2437 H 238.537 -4.07993 -0.0230675 0
M  V30 2438 H 237.212 -4.00346 1.12675 0
M  V30 2439 H 235.789 -3.66764 -0.673668 0
M  V30 2440 N 237.974 -0.419461 -1.51915 0
M  V30 2441 C 239.222 0.152637 -2.01523 0
M  V30 2442 C 239.543 1.44762 -1.30649 0
M  V30 2443 O 238.813 1.90997 -0.435535 0
M  V30 2444 H 237.393 0.0593966 -0.744635 0
M  V30 2445 H 240.055 -0.558073 -1.86739 0
M  V30 2446 H 239.151 0.341369 -3.10227 0
M  V30 2447 N 239.452 1.56882 -0.150215 0
M  V30 2448 C 240.7 1.9584 0.499105 0
M  V30 2449 C 241.021 1.03623 1.65188 0
M  V30 2450 O 240.291 0.0984084 1.95653 0
M  V30 2451 H 238.871 0.723119 0.187373 0
M  V30 2452 H 241.533 1.9358 -0.226466 0
M  V30 2453 H 240.629 2.99638 0.873122 0
M  V30 2454 N 240.93 -0.123565 1.57115 0
M  V30 2455 C 242.178 -0.83051 1.84247 0
M  V30 2456 C 242.499 -1.80629 0.73471 0
M  V30 2457 O 241.769 -1.94403 -0.241688 0
M  V30 2458 H 240.349 -0.309694 0.679778 0
M  V30 2459 H 243.011 -0.111976 1.94578 0
M  V30 2460 H 242.107 -1.37852 2.80006 0
M  V30 2461 N 242.408 -1.52605 -0.393616 0
M  V30 2462 C 243.656 -1.67093 -1.13685 0
M  V30 2463 C 243.977 -0.411011 -1.90619 0
M  V30 2464 O 243.247 0.574491 -1.87287 0
M  V30 2465 H 241.827 -0.615923 -0.422668 0
M  V30 2466 H 244.489 -1.89704 -0.447039 0
M  V30 2467 H 243.585 -2.51922 -1.84232 0
M  V30 2468 N 243.887 0.651787 -1.4349 0
M  V30 2469 C 245.135 1.40888 -1.44897 0
M  V30 2470 C 245.456 1.94856 -0.0749086 0
M  V30 2471 O 244.726 1.74518 0.889956 0
M  V30 2472 H 243.306 0.522887 -0.533478 0
M  V30 2473 H 245.968 0.768609 -1.79104 0
M  V30 2474 H 245.064 2.25052 -2.16236 0
M  V30 2475 N 245.365 1.30045 0.890287 0
M  V30 2476 C 246.781 1.08261 1.17268 0
M  V30 2477 C 246.981 -0.160063 2.00863 0
M  V30 2478 O 246.037 -0.855181 2.37577 0
M  V30 2479 C 247.35 2.34323 1.8845 0
M  V30 2480 C 248.898 2.39735 2.01237 0
M  V30 2481 C 249.373 3.65625 2.7583 0
M  V30 2482 N 250.864 3.66402 2.83379 0
M  V30 2483 C 251.599 4.60498 3.41657 0
M  V30 2484 N 251.095 5.64933 4.01026 0
M  V30 2485 N 252.888 4.48051 3.39421 0
M  V30 2486 H 245.039 2.09777 0.332762 0
M  V30 2487 H 247.302 0.92446 0.209948 0
M  V30 2488 H 247.008 3.2498 1.34465 0
M  V30 2489 H 246.882 2.4256 2.88867 0
M  V30 2490 H 249.269 1.4956 2.54393 0
M  V30 2491 H 249.35 2.35476 0.999232 0
M  V30 2492 H 248.994 4.56156 2.23347 0
M  V30 2493 H 248.924 3.67144 3.77509 0
M  V30 2494 H 251.415 2.90896 2.41222 0
M  V30 2495 H 251.728 6.32841 4.43545 0
M  V30 2496 H 250.073 5.68732 3.99461 0
M  V30 2497 H 253.264 3.65649 2.92264 0
M  V30 2498 H 253.437 5.21565 3.84544 0
M  V30 2499 N 246.843 -1.10192 1.12674 0
M  V30 2500 C 248.091 -1.81845 0.881861 0
M  V30 2501 C 248.412 -1.85737 -0.593867 0
M  V30 2502 O 247.682 -1.33724 -1.4316 0
M  V30 2503 H 246.262 -0.673432 0.323261 0
M  V30 2504 H 248.924 -1.33316 1.42172 0
M  V30 2505 H 248.02 -2.85288 1.2656 0
M  V30 2506 N 248.321 -0.919034 -1.28029 0
M  V30 2507 C 249.254 -0.355887 -2.25408 0
M  V30 2508 C 250.232 0.542874 -1.5327 0
M  V30 2509 O 251.416 0.485338 -1.82145 0
M  V30 2510 C 248.543 0.490759 -3.35126 0
M  V30 2511 C 247.589 -0.343358 -4.25116 0
M  V30 2512 S 248.422 -1.75344 -5.05979 0
M  V30 2513 C 249.578 -0.914244 -6.19187 0
M  V30 2514 H 249.811 -1.18123 -2.72826 0
M  V30 2515 H 247.344 -0.720636 -1.36551 0
M  V30 2516 H 249.302 0.973404 -3.98792 0
M  V30 2517 H 247.963 1.29054 -2.86363 0
M  V30 2518 H 247.156 0.304266 -5.03081 0
M  V30 2519 H 246.758 -0.759851 -3.662 0
M  V30 2520 H 249.05 -0.146282 -6.77342 0
M  V30 2521 H 249.993 -1.66661 -6.88208 0
M  V30 2522 H 250.401 -0.460082 -5.62622 0
M  V30 2523 N 249.799 1.42003 -0.683588 0
M  V30 2524 C 251.215 1.55625 -0.353976 0
M  V30 2525 C 251.415 1.66151 1.14 0
M  V30 2526 O 250.471 1.63329 1.92561 0
M  V30 2527 C 251.784 2.80171 -1.092 0
M  V30 2528 C 253.332 2.93954 -1.07518 0
M  V30 2529 C 253.807 4.21372 -1.79471 0
M  V30 2530 N 255.298 4.28303 -1.76381 0
M  V30 2531 C 256.033 5.25729 -2.28904 0
M  V30 2532 N 255.529 6.29254 -2.89846 0
M  V30 2533 N 257.322 5.17586 -2.19228 0
M  V30 2534 H 249.473 1.33415 -1.6527 0
M  V30 2535 H 251.736 0.64282 -0.696769 0
M  V30 2536 H 251.442 2.78561 -2.14701 0
M  V30 2537 H 251.316 3.7133 -0.662862 0
M  V30 2538 H 253.703 2.95086 -0.028475 0
M  V30 2539 H 253.784 2.04002 -1.54328 0
M  V30 2540 H 253.428 4.21001 -2.84114 0
M  V30 2541 H 253.358 5.10275 -1.30104 0
M  V30 2542 H 255.849 3.54119 -1.31939 0
M  V30 2543 H 256.162 6.99964 -3.27522 0
M  V30 2544 H 254.507 6.29791 -2.93919 0
M  V30 2545 H 257.698 4.35631 -1.71299 0
M  V30 2546 H 257.871 5.93348 -2.60466 0
M  V30 2547 N 251.277 0.427512 1.51691 0
M  V30 2548 C 252.523 -0.142439 2.02299 0
M  V30 2549 C 252.856 -1.43214 1.31162 0
M  V30 2550 O 252.131 -1.89833 0.423511 0
M  V30 2551 C 252.414 -0.371301 3.58181 0
M  V30 2552 C 252.267 0.936358 4.39946 0
M  V30 2553 C 253.586 -1.14542 4.24933 0
M  V30 2554 H 250.705 -0.0502937 0.735282 0
M  V30 2555 H 253.347 0.564584 1.81418 0
M  V30 2556 H 251.497 -0.973559 3.76104 0
M  V30 2557 H 253.169 1.57184 4.33694 0
M  V30 2558 H 251.412 1.5432 4.05423 0
M  V30 2559 H 252.083 0.730388 5.47147 0
M  V30 2560 H 254.559 -0.635362 4.11221 0
M  V30 2561 H 253.435 -1.27431 5.33903 0
M  V30 2562 H 253.696 -2.17093 3.85127 0
M  V30 2563 N 252.755 -1.56801 0.158532 0
M  V30 2564 C 254.001 -1.96781 -0.490405 0
M  V30 2565 C 254.334 -1.04397 -1.63753 0
M  V30 2566 O 253.609 -0.0885805 -1.94298 0
M  V30 2567 C 253.892 -3.4635 -0.985594 0
M  V30 2568 C 253.745 -4.49512 0.160824 0
M  V30 2569 C 255.064 -3.98697 -1.86355 0
M  V30 2570 H 252.183 -0.715482 -0.176788 0
M  V30 2571 H 254.825 -1.88451 0.242088 0
M  V30 2572 H 252.975 -3.53579 -1.60978 0
M  V30 2573 H 254.647 -4.54353 0.797537 0
M  V30 2574 H 252.89 -4.26013 0.818256 0
M  V30 2575 H 253.561 -5.51531 -0.227569 0
M  V30 2576 H 256.037 -3.94019 -1.33746 0
M  V30 2577 H 254.913 -5.03792 -2.17909 0
M  V30 2578 H 255.174 -3.41744 -2.8047 0
M  V30 2579 N 254.233 0.115231 -1.57178 0
M  V30 2580 C 255.649 0.468877 -1.52557 0
M  V30 2581 C 255.849 1.81649 -0.872125 0
M  V30 2582 O 254.905 2.48347 -0.45606 0
M  V30 2583 C 256.218 0.4499 -2.97315 0
M  V30 2584 C 257.766 0.533185 -3.08425 0
M  V30 2585 C 258.241 0.54456 -4.54751 0
M  V30 2586 N 259.732 0.605892 -4.5922 0
M  V30 2587 C 260.467 0.636203 -5.6986 0
M  V30 2588 N 259.963 0.623931 -6.89985 0
M  V30 2589 N 261.756 0.679496 -5.57978 0
M  V30 2590 H 253.907 -0.767712 -1.9804 0
M  V30 2591 H 256.17 -0.283609 -0.904583 0
M  V30 2592 H 255.876 -0.472721 -3.48509 0
M  V30 2593 H 255.75 1.27632 -3.5495 0
M  V30 2594 H 258.137 1.44623 -2.57232 0
M  V30 2595 H 258.218 -0.320995 -2.53778 0
M  V30 2596 H 257.862 -0.364452 -5.06591 0
M  V30 2597 H 257.792 1.41568 -5.07214 0
M  V30 2598 H 260.283 0.621386 -3.72756 0
M  V30 2599 H 260.596 0.649787 -7.70063 0
M  V30 2600 H 258.941 0.591296 -6.9248 0
M  V30 2601 H 262.132 0.686472 -4.63039 0
M  V30 2602 H 262.305 0.69965 -6.44212 0
M  V30 2603 N 255.711 1.52812 0.385517 0
M  V30 2604 C 256.959 1.67694 1.12797 0
M  V30 2605 C 257.28 0.421115 1.90399 0
M  V30 2606 O 256.55 -0.564551 1.87589 0
M  V30 2607 H 255.13 0.618155 0.419396 0
M  V30 2608 H 257.792 1.89938 0.436972 0
M  V30 2609 H 256.888 2.52896 1.82894 0
M  V30 2610 N 257.189 -0.644168 1.43834 0
M  V30 2611 C 258.466 -1.40188 1.36406 0
M  V30 2612 C 258.846 -2.11094 0.0163124 0
M  V30 2613 O 258.194 -2.05426 -1.00062 0
M  V30 2614 C 258.404 -2.3791 2.55343 0
M  V30 2615 C 259.752 -3.01637 2.98832 0
M  V30 2616 O 260.776 -2.48237 2.55455 0
M  V30 2617 O 259.635 -3.98477 3.74003 0
M  V30 2618 H 256.729 -0.626773 0.539523 0
M  V30 2619 H 259.275 -0.670317 1.559 0
M  V30 2620 H 258.047 -1.84525 3.4506 0
M  V30 2621 H 257.67 -3.18503 2.37995 0
M  V30 2622 N 258.668 -1.30515 -0.883378 0
M  V30 2623 C 259.631 -1.1701 -1.97082 0
M  V30 2624 C 260.631 -0.10089 -1.60483 0
M  V30 2625 O 261.821 -0.349127 -1.70666 0
M  V30 2626 C 258.953 -0.793045 -3.31547 0
M  V30 2627 H 260.146 -2.13622 -2.10489 0
M  V30 2628 H 257.699 -1.13935 -1.06998 0
M  V30 2629 H 258.434 0.172499 -3.23841 0
M  V30 2630 H 258.219 -1.56576 -3.5948 0
M  V30 2631 H 259.709 -0.722073 -4.1131 0
M  V30 2632 N 260.146 1.09593 -1.13257 0
M  V30 2633 C 261.056 2.19739 -0.821691 0
M  V30 2634 C 262.072 1.72926 0.19302 0
M  V30 2635 O 263.248 2.01385 0.0244895 0
M  V30 2636 C 260.313 3.45482 -0.290333 0
M  V30 2637 C 259.374 4.06985 -1.36607 0
M  V30 2638 C 258.607 5.26726 -0.859975 0
M  V30 2639 O 258.83 5.69594 0.303082 0
M  V30 2640 O 257.764 5.7931 -1.63351 0
M  V30 2641 H 261.59 2.48781 -1.74189 0
M  V30 2642 H 259.175 1.18496 -0.909894 0
M  V30 2643 H 261.057 4.214 0.000674022 0
M  V30 2644 H 259.732 3.18047 0.602306 0
M  V30 2645 H 258.639 3.32712 -1.71037 0
M  V30 2646 H 259.972 4.38643 -2.23279 0
M  V30 2647 N 261.624 0.925811 1.2754 0
M  V30 2648 C 262.554 0.440748 2.29303 0
M  V30 2649 C 263.535 -0.497971 1.62648 0
M  V30 2650 O 264.72 -0.403126 1.8997 0
M  V30 2651 C 261.85 -0.309048 3.45922 0
M  V30 2652 C 260.804 0.54166 4.24559 0
M  V30 2653 C 260.13 -0.337191 5.33636 0
M  V30 2654 C 261.43 1.80516 4.90114 0
M  V30 2655 H 263.124 1.29121 2.70126 0
M  V30 2656 H 260.67 0.622323 1.29858 0
M  V30 2657 H 262.623 -0.659315 4.1621 0
M  V30 2658 H 261.347 -1.19352 3.04011 0
M  V30 2659 H 260.006 0.874609 3.56014 0
M  V30 2660 H 259.654 -1.22056 4.87966 0
M  V30 2661 H 259.354 0.228497 5.87156 0
M  V30 2662 H 260.878 -0.683072 6.06767 0
M  V30 2663 H 262.292 1.52307 5.52698 0
M  V30 2664 H 260.689 2.3142 5.53683 0
M  V30 2665 H 261.759 2.52581 4.13921 0
M  V30 2666 N 263.102 -1.41638 0.69111 0
M  V30 2667 C 264.065 -2.29178 0.0319786 0
M  V30 2668 C 265.065 -1.44153 -0.712496 0
M  V30 2669 O 266.255 -1.65354 -0.548053 0
M  V30 2670 C 263.387 -3.26952 -0.965161 0
M  V30 2671 H 264.58 -2.88959 0.802681 0
M  V30 2672 H 262.133 -1.4955 0.454356 0
M  V30 2673 H 262.868 -2.72142 -1.76378 0
M  V30 2674 H 262.653 -3.89685 -0.434522 0
M  V30 2675 H 264.143 -3.92561 -1.42428 0
M  V30 2676 N 264.58 -0.43555 -1.51462 0
M  V30 2677 C 265.512 0.41257 -2.25456 0
M  V30 2678 C 266.525 0.987822 -1.29406 0
M  V30 2679 O 267.714 0.882266 -1.55172 0
M  V30 2680 C 264.814 1.58894 -2.99342 0
M  V30 2681 C 263.987 1.13288 -4.22474 0
M  V30 2682 C 263.046 2.17917 -4.78956 0
M  V30 2683 O 262.072 1.77425 -5.40841 0
M  V30 2684 N 263.274 3.50382 -4.62832 0
M  V30 2685 H 266.039 -0.221603 -2.9888 0
M  V30 2686 H 263.6 -0.264342 -1.59727 0
M  V30 2687 H 265.592 2.28508 -3.34015 0
M  V30 2688 H 264.162 2.12849 -2.28941 0
M  V30 2689 H 263.382 0.263881 -3.93316 0
M  V30 2690 H 264.67 0.805542 -5.02383 0
M  V30 2691 H 264.068 3.86013 -4.13534 0
M  V30 2692 H 262.625 4.15895 -5.01871 0
M  V30 2693 N 266.058 1.56714 -0.166846 0
M  V30 2694 C 267.283 2.01557 0.488833 0
M  V30 2695 C 267.708 1.0463 1.56314 0
M  V30 2696 O 267.066 0.0251304 1.81283 0
M  V30 2697 C 267.114 3.4503 1.04818 0
M  V30 2698 O 266.218 3.51163 2.16236 0
M  V30 2699 H 265.559 0.653516 0.117526 0
M  V30 2700 H 268.089 2.02818 -0.269421 0
M  V30 2701 H 268.099 3.84243 1.37191 0
M  V30 2702 H 266.774 4.15077 0.261572 0
M  V30 2703 H 265.351 3.23807 1.84942 0
M  V30 2704 N 267.536 -0.106894 1.57237 0
M  V30 2705 C 268.785 -0.811163 1.8467 0
M  V30 2706 C 269.098 -1.80469 0.754342 0
M  V30 2707 O 270.304 -2.55601 0.915439 0
M  V30 2708 C 268.76 -1.49337 3.27454 0
M  V30 2709 C 268.368 -0.540217 4.44731 0
M  V30 2710 C 270.112 -2.18206 3.64124 0
M  V30 2711 C 268.019 -1.22634 5.78545 0
M  V30 2712 H 266.949 -0.306679 0.688813 0
M  V30 2713 H 269.6 -0.0639887 1.83388 0
M  V30 2714 H 267.982 -2.2876 3.23241 0
M  V30 2715 H 269.156 0.221659 4.60267 0
M  V30 2716 H 267.471 0.042146 4.16379 0
M  V30 2717 H 270.068 -2.70253 4.61376 0
M  V30 2718 H 270.411 -2.96562 2.92158 0
M  V30 2719 H 270.944 -1.45658 3.70174 0
M  V30 2720 H 267.683 -0.483832 6.53712 0
M  V30 2721 H 267.203 -1.95993 5.66874 0
M  V30 2722 H 268.882 -1.75615 6.2271 0
M  V30 2723 N 269.014 -1.53014 -0.377408 0
M  V30 2724 C 270.239 -1.72818 -1.14668 0
M  V30 2725 C 270.664 -0.450725 -1.8262 0
M  V30 2726 O 270.022 0.59439 -1.7128 0
M  V30 2727 C 270.07 -2.88627 -2.16164 0
M  V30 2728 O 269.174 -2.56409 -3.22998 0
M  V30 2729 H 268.515 -0.574301 -0.333278 0
M  V30 2730 H 271.045 -1.99853 -0.438152 0
M  V30 2731 H 271.055 -3.14455 -2.59966 0
M  V30 2732 H 269.73 -3.81294 -1.66095 0
M  V30 2733 H 268.307 -2.4136 -2.84253 0
M  V30 2734 N 270.492 0.636531 -1.44174 0
M  V30 2735 C 271.425 1.76139 -1.45087 0
M  V30 2736 C 272.403 1.59611 -0.310326 0
M  V30 2737 O 273.587 1.81568 -0.506477 0
M  V30 2738 C 270.714 3.13648 -1.27839 0
M  V30 2739 C 269.76 3.48838 -2.45386 0
M  V30 2740 S 270.593 3.46927 -4.07924 0
M  V30 2741 C 271.749 4.87064 -3.9309 0
M  V30 2742 H 271.982 1.75096 -2.40268 0
M  V30 2743 H 269.515 0.810666 -1.31406 0
M  V30 2744 H 271.473 3.93002 -1.18575 0
M  V30 2745 H 270.134 3.12235 -0.341787 0
M  V30 2746 H 269.327 4.48886 -2.29167 0
M  V30 2747 H 268.929 2.76935 -2.51362 0
M  V30 2748 H 271.221 5.76153 -3.56446 0
M  V30 2749 H 272.164 5.08337 -4.92949 0
M  V30 2750 H 272.572 4.61384 -3.25246 0
M  V30 2751 N 271.97 1.30982 0.876444 0
M  V30 2752 C 273.198 1.23242 1.6619 0
M  V30 2753 C 273.613 -0.203345 1.87702 0
M  V30 2754 O 272.97 -1.13317 1.43057 0
M  V30 2755 C 273.021 1.96623 3.03351 0
M  V30 2756 O 272.742 3.34594 2.82804 0
M  V30 2757 C 274.243 1.95644 3.97792 0
M  V30 2758 H 271.463 0.426126 0.518322 0
M  V30 2759 H 274.007 1.7275 1.09442 0
M  V30 2760 H 272.162 1.50892 3.56806 0
M  V30 2761 H 272.576 3.71873 3.69879 0
M  V30 2762 H 274.05 2.51511 4.91372 0
M  V30 2763 H 274.527 0.937395 4.2908 0
M  V30 2764 H 275.133 2.41225 3.50272 0
M  V30 2765 N 273.449 -1.08991 1.13837 0
M  V30 2766 C 274.865 -1.33312 0.877506 0
M  V30 2767 C 275.065 -1.95587 -0.48456 0
M  V30 2768 O 274.121 -2.20509 -1.23013 0
M  V30 2769 C 275.434 -2.24045 2.0056 0
M  V30 2770 C 276.982 -2.37542 2.03821 0
M  V30 2771 C 277.457 -3.31614 3.15905 0
M  V30 2772 N 278.948 -3.39189 3.15445 0
M  V30 2773 C 279.683 -4.11992 3.98811 0
M  V30 2774 N 279.179 -4.87553 4.92203 0
M  V30 2775 N 280.972 -4.07762 3.86894 0
M  V30 2776 H 273.123 -0.669456 2.01574 0
M  V30 2777 H 275.386 -0.357482 0.878015 0
M  V30 2778 H 275.092 -1.85521 2.98789 0
M  V30 2779 H 274.966 -3.24466 1.92359 0
M  V30 2780 H 277.353 -2.75327 1.06202 0
M  V30 2781 H 277.434 -1.36884 2.16093 0
M  V30 2782 H 277.078 -2.94551 4.13766 0
M  V30 2783 H 277.008 -4.32186 3.0087 0
M  V30 2784 H 279.499 -2.85314 2.47799 0
M  V30 2785 H 279.812 -5.40549 5.52292 0
M  V30 2786 H 278.157 -4.86627 4.96205 0
M  V30 2787 H 281.348 -3.47833 3.13257 0
M  V30 2788 H 281.521 -4.64238 4.52092 0
M  V30 2789 N 274.927 -0.932562 -1.27047 0
M  V30 2790 C 275.89 -0.440064 -2.24936 0
M  V30 2791 C 276.89 0.444071 -1.54547 0
M  V30 2792 O 278.08 0.244465 -1.72476 0
M  V30 2793 C 275.212 0.36678 -3.38921 0
M  V30 2794 H 276.405 -1.305 -2.70018 0
M  V30 2795 H 273.958 -0.713707 -1.39054 0
M  V30 2796 H 274.693 1.25033 -2.99228 0
M  V30 2797 H 274.478 -0.267204 -3.91188 0
M  V30 2798 H 275.968 0.701567 -4.11665 0
M  V30 2799 N 276.405 1.4127 -0.698611 0
M  V30 2800 C 277.315 2.34573 -0.0357891 0
M  V30 2801 C 278.331 1.56393 0.762701 0
M  V30 2802 O 279.507 1.8886 0.699564 0
M  V30 2803 C 276.572 3.35159 0.887089 0
M  V30 2804 C 275.633 4.29225 0.0804634 0
M  V30 2805 C 274.866 5.25006 0.959387 0
M  V30 2806 O 275.089 5.26314 2.19886 0
M  V30 2807 O 274.023 6.00519 0.407439 0
M  V30 2808 H 277.849 2.92838 -0.804957 0
M  V30 2809 H 275.434 1.42175 -0.458966 0
M  V30 2810 H 277.316 3.9689 1.41621 0
M  V30 2811 H 275.991 2.79333 1.6357 0
M  V30 2812 H 274.898 3.70833 -0.493328 0
M  V30 2813 H 276.231 4.88157 -0.629547 0
M  V30 2814 N 277.883 0.443576 1.51229 0
M  V30 2815 C 278.846 -0.353132 2.26463 0
M  V30 2816 C 279.846 -0.944338 1.3015 0
M  V30 2817 O 281.036 -0.817813 1.5381 0
M  V30 2818 C 278.168 -1.50023 3.06114 0
M  V30 2819 H 279.361 0.3063 2.98332 0
M  V30 2820 H 276.914 0.196902 1.55055 0
M  V30 2821 H 277.649 -2.19553 2.38677 0
M  V30 2822 H 277.434 -1.08241 3.76864 0
M  V30 2823 H 278.924 -2.06296 3.63087 0
M  V30 2824 N 279.361 -1.56624 0.175154 0
M  V30 2825 C 280.308 -2.18149 -0.753634 0
M  V30 2826 C 281.278 -1.12265 -1.22417 0
M  V30 2827 O 282.463 -1.40432 -1.29165 0
M  V30 2828 C 279.603 -2.82933 -1.97592 0
M  V30 2829 C 278.716 -4.03289 -1.5486 0
M  V30 2830 C 277.851 -4.55988 -2.72485 0
M  V30 2831 C 276.89 -5.68746 -2.26262 0
M  V30 2832 N 276.027 -6.15938 -3.36994 0
M  V30 2833 H 280.867 -2.9717 -0.222195 0
M  V30 2834 H 278.404 -1.46774 -0.0979422 0
M  V30 2835 H 280.362 -3.18653 -2.69288 0
M  V30 2836 H 278.992 -2.06509 -2.481 0
M  V30 2837 H 278.044 -3.73364 -0.728246 0
M  V30 2838 H 279.356 -4.849 -1.16933 0
M  V30 2839 H 278.51 -4.9391 -3.52332 0
M  V30 2840 H 277.249 -3.73443 -3.13674 0
M  V30 2841 H 276.254 -5.30372 -1.44863 0
M  V30 2842 H 277.479 -6.53095 -1.86127 0
M  V30 2843 H 275.425 -5.36321 -3.77751 0
M  V30 2844 H 275.342 -6.92548 -3.03172 0
M  V30 2845 H 276.61 -6.58511 -4.17114 0
M  V30 2846 N 280.839 0.0985539 -1.57292 0
M  V30 2847 C 281.802 1.10402 -2.00858 0
M  V30 2848 C 282.802 1.33146 -0.901593 0
M  V30 2849 O 283.992 1.29318 -1.16716 0
M  V30 2850 C 281.124 2.45394 -2.36632 0
M  V30 2851 H 282.317 0.729099 -2.90902 0
M  V30 2852 H 279.87 0.343495 -1.52479 0
M  V30 2853 H 280.605 2.87769 -1.49531 0
M  V30 2854 H 280.39 2.30235 -3.17387 0
M  V30 2855 H 281.88 3.17718 -2.71007 0
M  V30 2856 N 282.317 1.53212 0.369288 0
M  V30 2857 C 283.28 1.7872 1.43498 0
M  V30 2858 C 284.28 0.657554 1.46741 0
M  V30 2859 O 285.47 0.925736 1.47566 0
M  V30 2860 C 282.602 1.90591 2.82645 0
M  V30 2861 H 283.795 2.73894 1.22156 0
M  V30 2862 H 281.348 1.44233 0.602203 0
M  V30 2863 H 282.083 0.974709 3.09306 0
M  V30 2864 H 281.868 2.72751 2.8169 0
M  V30 2865 H 283.358 2.11931 3.59826 0
M  V30 2866 N 283.795 -0.628877 1.44509 0
M  V30 2867 C 285.042 -1.38839 1.47411 0
M  V30 2868 C 285.37 -1.94202 0.10757 0
M  V30 2869 O 284.625 -1.74243 -0.890947 0
M  V30 2870 C 284.924 -2.56995 2.48371 0
M  V30 2871 C 284.59 -2.19908 3.93639 0
M  V30 2872 C 283.252 -2.09506 4.33198 0
M  V30 2873 C 285.604 -1.9064 4.85083 0
M  V30 2874 C 282.932 -1.68028 5.62124 0
M  V30 2875 C 285.284 -1.50655 6.14399 0
M  V30 2876 C 283.948 -1.38796 6.5291 0
M  V30 2877 H 283.218 -0.508048 0.539414 0
M  V30 2878 H 285.865 -0.712913 1.77735 0
M  V30 2879 H 284.17 -3.29786 2.11538 0
M  V30 2880 H 285.867 -3.15223 2.47861 0
M  V30 2881 H 282.457 -2.28922 3.62343 0
M  V30 2882 H 286.641 -1.97585 4.55273 0
M  V30 2883 H 281.897 -1.57452 5.90778 0
M  V30 2884 H 286.071 -1.27048 6.84713 0
M  V30 2885 H 283.698 -1.06429 7.52713 0
M  V30 2886 N 285.273 -1.31445 -0.869486 0
M  V30 2887 C 286.498 -1.24256 -1.66058 0
M  V30 2888 C 286.923 0.188928 -1.87149 0
M  V30 2889 O 286.281 1.13522 -1.4136 0
M  V30 2890 C 286.329 -1.9924 -3.00559 0
M  V30 2891 O 285.433 -1.33007 -3.90362 0
M  V30 2892 H 284.774 -0.428973 -0.506831 0
M  V30 2893 H 287.304 -1.73521 -1.08404 0
M  V30 2894 H 287.314 -2.08854 -3.50491 0
M  V30 2895 H 285.989 -3.03342 -2.84528 0
M  V30 2896 H 284.566 -1.31848 -3.48813 0
M  V30 2897 N 286.751 1.08385 -1.14413 0
M  V30 2898 C 287.699 2.17406 -0.826888 0
M  V30 2899 C 288.693 1.6827 0.195312 0
M  V30 2900 O 289.899 1.79927 0.0513892 0
M  V30 2901 H 286.274 0.70934 -0.249681 0
M  V30 2902 H 288.245 2.41388 -1.75426 0
M  V30 2903 C 286.994 3.46215 -0.320979 0
M  V30 2904 H 286.317 3.84401 -1.0989 0
M  V30 2905 H 287.757 4.23777 -0.137549 0
M  V30 2906 C 286.216 3.23067 0.955472 0
M  V30 2907 O 286.746 3.4668 2.02918 0
M  V30 2908 N 284.952 2.7661 0.890798 0
M  V30 2909 H 284.499 2.57594 0.0168815 0
M  V30 2910 H 284.457 2.61501 1.74542 0
M  V30 2911 N 288.23 0.939286 1.26551 0
M  V30 2912 C 289.507 0.5038 1.89001 0
M  V30 2913 C 289.887 -1.01854 1.84903 0
M  V30 2914 O 289.235 -1.87773 1.30206 0
M  V30 2915 C 289.445 1.063 3.32417 0
M  V30 2916 C 290.793 1.13051 4.09273 0
M  V30 2917 O 291.817 1.01345 3.41479 0
M  V30 2918 O 290.676 1.31233 5.30509 0
M  V30 2919 H 287.77 0.163897 0.810597 0
M  V30 2920 H 290.316 1.03173 1.34735 0
M  V30 2921 H 289.088 2.10665 3.29752 0
M  V30 2922 H 288.711 0.517408 3.94219 0
M  V30 2923 N 289.708 -1.40897 0.706093 0
M  V30 2924 C 290.641 -2.282 -0.00328781 0
M  V30 2925 C 291.619 -1.42816 -0.77732 0
M  V30 2926 O 292.803 -1.72237 -0.765944 0
M  V30 2927 C 289.93 -3.23226 -1.01205 0
M  V30 2928 C 288.976 -4.25222 -0.329955 0
M  V30 2929 S 289.809 -5.27269 0.935298 0
M  V30 2930 C 290.965 -6.25859 -0.0716061 0
M  V30 2931 H 291.198 -2.88016 0.737143 0
M  V30 2932 H 288.731 -1.46191 0.496756 0
M  V30 2933 H 290.689 -3.78503 -1.58888 0
M  V30 2934 H 289.35 -2.62485 -1.72513 0
M  V30 2935 H 288.543 -4.92023 -1.09221 0
M  V30 2936 H 288.145 -3.73595 0.174069 0
M  V30 2937 H 290.437 -6.71204 -0.921521 0
M  V30 2938 H 291.38 -7.0586 0.562765 0
M  V30 2939 H 291.788 -5.62852 -0.431088 0
M  V30 2940 N 291.186 -0.45159 -1.50991 0
M  V30 2941 C 292.432 0.110237 -2.025 0
M  V30 2942 C 292.765 1.41109 -1.33424 0
M  V30 2943 O 292.04 1.89135 -0.453659 0
M  V30 2944 C 292.323 0.314271 -3.58726 0
M  V30 2945 C 292.176 -1.00623 -4.38401 0
M  V30 2946 C 293.495 1.07767 -4.26702 0
M  V30 2947 H 290.614 0.0385897 -0.735989 0
M  V30 2948 H 293.256 -0.593374 -1.80497 0
M  V30 2949 H 291.406 0.913601 -3.77605 0
M  V30 2950 H 293.078 -1.64064 -4.31139 0
M  V30 2951 H 291.321 -1.6075 -4.02917 0
M  V30 2952 H 291.992 -0.817341 -5.45915 0
M  V30 2953 H 294.468 0.56986 -4.12179 0
M  V30 2954 H 293.344 1.18921 -5.35863 0
M  V30 2955 H 293.605 2.10939 -3.88532 0
M  V30 2956 N 292.664 1.56529 -0.183458 0
M  V30 2957 C 293.894 2.01331 0.463612 0
M  V30 2958 C 294.302 1.06278 1.5653 0
M  V30 2959 O 293.645 0.0577976 1.83609 0
M  V30 2960 C 293.707 3.42547 1.09096 0
M  V30 2961 C 293.371 4.56817 0.129442 0
M  V30 2962 C 294.368 5.15734 -0.656807 0
M  V30 2963 C 292.053 5.02295 0.02174 0
M  V30 2964 C 294.047 6.1857 -1.53784 0
M  V30 2965 C 291.734 6.04978 -0.862864 0
M  V30 2966 C 292.732 6.62988 -1.64123 0
M  V30 2967 O 292.42 7.63677 -2.51103 0
M  V30 2968 H 292.152 0.664917 0.121907 0
M  V30 2969 H 294.706 2.034 -0.285954 0
M  V30 2970 H 292.936 3.37428 1.88889 0
M  V30 2971 H 294.625 3.71228 1.64148 0
M  V30 2972 H 295.391 4.81473 -0.583839 0
M  V30 2973 H 291.27 4.56847 0.617392 0
M  V30 2974 H 294.814 6.63777 -2.14583 0
M  V30 2975 H 290.711 6.38663 -0.93699 0
M  V30 2976 H 291.479 7.81049 -2.44753 0
M  V30 2977 N 294.142 -0.090211 1.57342 0
M  V30 2978 C 295.075 -1.14035 1.97664 0
M  V30 2979 C 296.053 -1.38576 0.850616 0
M  V30 2980 O 297.237 -1.52255 1.11134 0
M  V30 2981 C 294.364 -2.48854 2.2976 0
M  V30 2982 C 293.41 -2.40564 3.52181 0
M  V30 2983 S 294.243 -1.81745 5.03715 0
M  V30 2984 C 295.399 -3.18178 5.38993 0
M  V30 2985 H 295.632 -0.796636 2.86428 0
M  V30 2986 H 293.165 -0.298072 1.51496 0
M  V30 2987 H 295.123 -3.26413 2.48927 0
M  V30 2988 H 293.784 -2.80393 1.41558 0
M  V30 2989 H 292.977 -3.39942 3.72096 0
M  V30 2990 H 292.579 -1.71135 3.32549 0
M  V30 2991 H 294.871 -4.14461 5.35937 0
M  V30 2992 H 295.814 -3.03062 6.39968 0
M  V30 2993 H 296.222 -3.17935 4.66452 0
M  V30 2994 N 295.62 -1.53406 -0.361157 0
M  V30 2995 C 296.53 -1.83122 -1.4664 0
M  V30 2996 C 297.546 -0.719943 -1.58407 0
M  V30 2997 O 298.722 -1.01046 -1.74218 0
M  V30 2998 C 295.787 -2.01891 -2.81853 0
M  V30 2999 C 294.848 -3.25784 -2.79577 0
M  V30 3000 C 294.081 -3.43648 -4.0834 0
M  V30 3001 O 294.304 -2.65714 -5.0473 0
M  V30 3002 O 293.238 -4.37018 -4.13883 0
M  V30 3003 H 297.064 -2.7703 -1.24451 0
M  V30 3004 H 294.649 -1.38841 -0.551678 0
M  V30 3005 H 296.531 -2.15782 -3.61962 0
M  V30 3006 H 295.206 -1.11173 -3.0401 0
M  V30 3007 H 294.113 -3.17312 -1.98151 0
M  V30 3008 H 295.446 -4.16439 -2.62373 0
M  V30 3009 N 297.098 0.621204 -1.44841 0
M  V30 3010 C 298.045 1.73267 -1.5247 0
M  V30 3011 C 299.015 1.6189 -0.371611 0
M  V30 3012 O 300.2 1.81668 -0.58321 0
M  V30 3013 C 297.34 3.11545 -1.48438 0
M  V30 3014 C 296.453 3.33827 -2.74196 0
M  V30 3015 C 295.588 4.62133 -2.61929 0
M  V30 3016 C 294.627 4.77627 -3.82804 0
M  V30 3017 N 293.764 5.97219 -3.69153 0
M  V30 3018 H 298.604 1.66082 -2.47428 0
M  V30 3019 H 296.141 0.810026 -1.22788 0
M  V30 3020 H 298.099 3.91528 -1.4409 0
M  V30 3021 H 296.729 3.1772 -0.570402 0
M  V30 3022 H 295.781 2.47715 -2.88689 0
M  V30 3023 H 297.093 3.41153 -3.6389 0
M  V30 3024 H 296.247 5.50291 -2.5547 0
M  V30 3025 H 294.986 4.57182 -1.69811 0
M  V30 3026 H 293.991 3.87896 -3.89637 0
M  V30 3027 H 295.216 4.84385 -4.75971 0
M  V30 3028 H 293.162 5.93339 -2.79794 0
M  V30 3029 H 293.079 6.05644 -4.52472 0
M  V30 3030 H 294.347 6.87912 -3.66603 0
M  V30 3031 N 298.576 1.31904 0.862503 0
M  V30 3032 C 299.806 1.24817 1.64634 0
M  V30 3033 C 300.214 -0.187579 1.88268 0
M  V30 3034 O 299.557 -1.13253 1.44635 0
M  V30 3035 C 299.619 1.92996 3.03303 0
M  V30 3036 C 299.283 3.42336 3.02746 0
M  V30 3037 C 300.28 4.37956 2.80162 0
M  V30 3038 C 297.965 3.84147 3.2363 0
M  V30 3039 C 299.959 5.73361 2.78453 0
M  V30 3040 C 297.646 5.19663 3.21549 0
M  V30 3041 C 298.644 6.14081 2.98988 0
M  V30 3042 O 298.332 7.47118 2.96766 0
M  V30 3043 H 298.064 0.432222 0.519769 0
M  V30 3044 H 300.618 1.7445 1.08427 0
M  V30 3045 H 298.848 1.37922 3.61268 0
M  V30 3046 H 300.537 1.79723 3.63943 0
M  V30 3047 H 301.303 4.06981 2.63802 0
M  V30 3048 H 297.182 3.11083 3.40218 0
M  V30 3049 H 300.726 6.4703 2.60763 0
M  V30 3050 H 296.623 5.5027 3.37451 0
M  V30 3051 H 297.391 7.56382 3.12775 0
M  V30 3052 N 300.054 -1.07777 1.14986 0
M  V30 3053 C 300.984 -2.16865 0.865557 0
M  V30 3054 C 301.965 -1.69123 -0.182083 0
M  V30 3055 O 303.15 -1.94164 -0.0373815 0
M  V30 3056 C 300.28 -3.45539 0.349313 0
M  V30 3057 C 299.234 -4.06708 1.33313 0
M  V30 3058 C 298.56 -5.30411 0.675918 0
M  V30 3059 C 299.86 -4.47241 2.69764 0
M  V30 3060 H 301.554 -2.40905 1.77778 0
M  V30 3061 H 299.1 -1.15781 0.856203 0
M  V30 3062 H 301.053 -4.21174 0.137983 0
M  V30 3063 H 299.777 -3.21072 -0.598362 0
M  V30 3064 H 298.436 -3.33112 1.53075 0
M  V30 3065 H 298.084 -5.02232 -0.277767 0
M  V30 3066 H 297.784 -5.72293 1.33244 0
M  V30 3067 H 299.308 -6.08755 0.474262 0
M  V30 3068 H 300.722 -5.14025 2.53873 0
M  V30 3069 H 299.119 -5.00062 3.3175 0
M  V30 3070 H 300.189 -3.58818 3.26156 0
M  V30 3071 N 301.532 -0.945985 -1.26051 0
M  V30 3072 C 302.442 -0.465633 -2.29933 0
M  V30 3073 C 303.458 0.462761 -1.67733 0
M  V30 3074 O 304.634 0.341118 -1.9849 0
M  V30 3075 C 301.699 0.256994 -3.45746 0
M  V30 3076 C 300.76 -0.708549 -4.23412 0
M  V30 3077 C 299.993 -0.0203135 -5.33696 0
M  V30 3078 O 300.216 1.19571 -5.57726 0
M  V30 3079 O 299.15 -0.701459 -5.97799 0
M  V30 3080 H 302.976 -1.32866 -2.73094 0
M  V30 3081 H 300.561 -0.712071 -1.31339 0
M  V30 3082 H 302.443 0.663852 -4.16138 0
M  V30 3083 H 301.118 1.09533 -3.04605 0
M  V30 3084 H 300.025 -1.16545 -3.55483 0
M  V30 3085 H 301.358 -1.51465 -4.68315 0
M  V30 3086 N 303.011 1.40521 -0.713556 0
M  V30 3087 C 303.959 2.32549 -0.0485227 0
M  V30 3088 C 304.953 1.51931 0.74922 0
M  V30 3089 O 306.159 1.67745 0.652816 0
M  V30 3090 H 302.534 0.751994 0.00311138 0
M  V30 3091 H 304.505 2.86291 -0.841443 0
M  V30 3092 C 303.254 3.36879 0.860687 0
M  V30 3093 H 302.577 3.98978 0.256246 0
M  V30 3094 H 304.017 4.03772 1.294 0
M  V30 3095 C 302.476 2.72197 1.9852 0
M  V30 3096 O 303.006 2.5837 3.07584 0
M  V30 3097 N 301.212 2.30612 1.76823 0
M  V30 3098 H 300.759 2.42059 0.881217 0
M  V30 3099 H 300.717 1.87672 2.52243 0
M  V30 3100 N 304.489 0.459591 1.5075 0
M  V30 3101 C 305.9 0.00171547 1.867 0
M  V30 3102 C 306.251 -1.39934 1.37525 0
M  V30 3103 O 305.376 -2.03523 0.735349 0
M  V30 3104 C 305.971 -0.00366298 3.388 0
M  V30 3105 C 304.53 -0.406026 3.74204 0
M  V30 3106 C 303.677 0.38673 2.7459 0
M  V30 3107 H 306.628 0.674413 1.43657 0
M  V30 3108 H 306.649 -0.808371 3.71814 0
M  V30 3109 H 306.161 1.01617 3.74561 0
M  V30 3110 H 304.262 -1.43063 3.4404 0
M  V30 3111 H 304.375 -0.115362 4.78961 0
M  V30 3112 H 302.739 -0.158019 2.54209 0
M  V30 3113 H 303.522 1.40585 3.13194 0
M  V30 3114 N 305.967 -1.56429 0.191757 0
M  V30 3115 C 307.383 -1.58754 -0.164137 0
M  V30 3116 C 307.583 -1.20782 -1.61288 0
M  V30 3117 O 306.639 -0.928999 -2.34789 0
M  V30 3118 C 307.952 -3.00396 0.135195 0
M  V30 3119 C 309.5 -3.1291 0.0750351 0
M  V30 3120 C 309.975 -4.56679 0.347632 0
M  V30 3121 N 311.466 -4.62252 0.296131 0
M  V30 3122 C 312.201 -5.71379 0.480948 0
M  V30 3123 N 311.697 -6.88986 0.725933 0
M  V30 3124 N 313.49 -5.60563 0.415435 0
M  V30 3125 H 305.641 -1.79393 1.13718 0
M  V30 3126 H 307.904 -0.832414 0.453643 0
M  V30 3127 H 307.61 -3.32726 1.13958 0
M  V30 3128 H 307.484 -3.72963 -0.563773 0
M  V30 3129 H 309.871 -2.80394 -0.919948 0
M  V30 3130 H 309.952 -2.42736 0.807029 0
M  V30 3131 H 309.596 -4.89907 1.33992 0
M  V30 3132 H 309.526 -5.25039 -0.405212 0
M  V30 3133 H 312.017 -3.7773 0.113259 0
M  V30 3134 H 312.33 -7.68046 0.855857 0
M  V30 3135 H 310.675 -6.90801 0.762788 0
M  V30 3136 H 313.866 -4.67561 0.224486 0
M  V30 3137 H 314.039 -6.45551 0.562889 0
M  V30 3138 N 307.445 0.0818655 -1.57387 0
M  V30 3139 C 308.395 1.10501 -1.99433 0
M  V30 3140 C 309.379 1.35041 -0.874798 0
M  V30 3141 O 310.571 1.35511 -1.13868 0
M  V30 3142 C 307.7 2.42159 -2.43339 0
M  V30 3143 C 306.786 2.20937 -3.62005 0
M  V30 3144 N 307.177 1.69616 -4.76512 0
M  V30 3145 C 305.475 2.51451 -3.68359 0
M  V30 3146 C 306.176 1.62973 -5.58404 0
M  V30 3147 N 305.152 2.08664 -5.01956 0
M  V30 3148 H 308.954 0.701373 -2.85408 0
M  V30 3149 H 306.468 0.289096 -1.59806 0
M  V30 3150 H 308.465 3.16208 -2.71695 0
M  V30 3151 H 307.125 2.83249 -1.58746 0
M  V30 3152 H 308.136 1.38624 -4.99003 0
M  V30 3153 H 304.813 2.95975 -2.94457 0
M  V30 3154 H 306.203 1.24233 -6.60315 0
M  V30 3155 N 308.923 1.53595 0.353017 0
M  V30 3156 C 310.169 1.70638 1.09593 0
M  V30 3157 C 310.502 0.463286 1.88593 0
M  V30 3158 O 309.777 -0.539597 1.86865 0
M  V30 3159 C 310.06 2.96406 2.04489 0
M  V30 3160 C 309.913 4.30901 1.29014 0
M  V30 3161 C 311.232 3.17812 3.0444 0
M  V30 3162 H 308.351 0.620913 0.397034 0
M  V30 3163 H 310.993 1.86254 0.375446 0
M  V30 3164 H 309.143 2.83223 2.65927 0
M  V30 3165 H 310.815 4.55917 0.702638 0
M  V30 3166 H 309.058 4.29741 0.592071 0
M  V30 3167 H 309.729 5.1506 1.98537 0
M  V30 3168 H 312.205 3.30263 2.53112 0
M  V30 3169 H 311.081 4.07223 3.6805 0
M  V30 3170 H 311.342 2.33669 3.75301 0
M  V30 3171 N 310.401 -0.613514 1.45168 0
M  V30 3172 C 311.311 -1.75296 1.55912 0
M  V30 3173 C 312.327 -1.68244 0.443856 0
M  V30 3174 O 313.503 -1.88706 0.70371 0
M  V30 3175 C 310.568 -3.1174 1.5172 0
M  V30 3176 C 309.629 -3.30291 2.74238 0
M  V30 3177 C 308.862 -4.60226 2.70236 0
M  V30 3178 O 309.085 -5.42168 1.77229 0
M  V30 3179 O 308.019 -4.81361 3.61352 0
M  V30 3180 H 311.845 -1.69183 2.52212 0
M  V30 3181 H 309.43 -0.776886 1.27612 0
M  V30 3182 H 311.312 -3.93044 1.51968 0
M  V30 3183 H 309.987 -3.18357 0.585697 0
M  V30 3184 H 308.894 -2.48598 2.79553 0
M  V30 3185 H 310.227 -3.28547 3.66494 0
M  V30 3186 N 311.879 -1.3236 -0.855495 0
M  V30 3187 C 313.128 -1.22226 -1.60448 0
M  V30 3188 C 313.441 0.214733 -1.94418 0
M  V30 3189 O 314.647 0.437917 -2.67945 0
M  V30 3190 C 313.103 -2.14063 -2.89318 0
M  V30 3191 C 312.711 -3.62839 -2.62777 0
M  V30 3192 C 314.455 -2.12764 -3.67331 0
M  V30 3193 C 312.362 -4.4664 -3.87643 0
M  V30 3194 H 311.292 -0.453904 -0.602069 0
M  V30 3195 H 313.943 -1.57314 -0.944698 0
M  V30 3196 H 312.325 -1.71889 -3.5675 0
M  V30 3197 H 313.499 -4.1335 -2.03662 0
M  V30 3198 H 311.814 -3.66261 -1.98096 0
M  V30 3199 H 314.411 -2.72611 -4.59987 0
M  V30 3200 H 314.754 -1.11841 -4.00995 0
M  V30 3201 H 315.287 -2.53214 -3.06802 0
M  V30 3202 H 312.026 -5.48373 -3.5912 0
M  V30 3203 H 311.546 -4.0088 -4.46156 0
M  V30 3204 H 313.225 -4.59597 -4.55389 0
M  V30 3205 N 313.357 1.07166 -1.15556 0
M  V30 3206 C 314.289 2.14341 -0.811815 0
M  V30 3207 C 315.302 1.61835 0.177015 0
M  V30 3208 O 316.491 1.78439 -0.0464996 0
M  V30 3209 C 313.591 3.38387 -0.186481 0
M  V30 3210 C 312.764 4.20238 -1.21321 0
M  V30 3211 C 311.823 5.2266 -0.609302 0
M  V30 3212 O 310.849 5.54719 -1.27576 0
M  V30 3213 N 312.051 5.77306 0.608099 0
M  V30 3214 H 314.816 2.44431 -1.73417 0
M  V30 3215 H 312.377 1.23089 -1.0517 0
M  V30 3216 H 314.369 4.04044 0.230339 0
M  V30 3217 H 312.939 3.05994 0.639249 0
M  V30 3218 H 312.159 3.50369 -1.80652 0
M  V30 3219 H 313.447 4.71736 -1.90638 0
M  V30 3220 H 312.845 5.53513 1.1679 0
M  V30 3221 H 311.402 6.44583 0.96725 0
M  V30 3222 N 314.835 0.952656 1.25548 0
M  V30 3223 C 316.081 0.607272 1.93494 0
M  V30 3224 C 316.414 -0.853245 1.74452 0
M  V30 3225 O 315.689 -1.61194 1.08843 0
M  V30 3226 C 315.972 0.96435 3.46947 0
M  V30 3227 C 315.825 2.48045 3.75225 0
M  V30 3228 C 317.144 0.487987 4.37386 0
M  V30 3229 H 314.263 0.222096 0.702739 0
M  V30 3230 H 316.905 1.18895 1.48203 0
M  V30 3231 H 315.055 0.469361 3.85654 0
M  V30 3232 H 316.727 3.04905 3.46166 0
M  V30 3233 H 314.97 2.919 3.209 0
M  V30 3234 H 315.641 2.6808 4.82532 0
M  V30 3235 H 318.117 0.912558 4.0597 0
M  V30 3236 H 316.993 0.766547 5.43521 0
M  V30 3237 H 317.254 -0.612063 4.37843 0
M  V30 3238 N 316.313 -1.40141 0.720998 0
M  V30 3239 C 317.243 -2.33339 0.0867621 0
M  V30 3240 C 318.224 -1.53178 -0.739622 0
M  V30 3241 O 319.409 -1.81625 -0.687449 0
M  V30 3242 C 316.539 -3.37194 -0.831728 0
M  V30 3243 C 315.493 -4.27857 -0.110558 0
M  V30 3244 C 314.819 -5.22294 -1.14513 0
M  V30 3245 C 316.119 -5.11872 1.0385 0
M  V30 3246 H 317.813 -2.86626 0.865219 0
M  V30 3247 H 315.359 -1.37814 0.417516 0
M  V30 3248 H 317.312 -4.01335 -1.28485 0
M  V30 3249 H 316.036 -2.82314 -1.64214 0
M  V30 3250 H 314.695 -3.65176 0.322797 0
M  V30 3251 H 314.343 -4.63717 -1.94874 0
M  V30 3252 H 314.043 -5.83797 -0.667446 0
M  V30 3253 H 315.567 -5.89312 -1.59824 0
M  V30 3254 H 316.981 -5.69436 0.664482 0
M  V30 3255 H 315.378 -5.82445 1.4449 0
M  V30 3256 H 316.448 -4.4753 1.86668 0
M  V30 3257 N 317.792 -0.46758 -1.50504 0
M  V30 3258 C 318.755 0.317059 -2.26996 0
M  V30 3259 C 319.755 0.923513 -1.31635 0
M  V30 3260 O 320.945 0.793239 -1.55091 0
M  V30 3261 C 318.077 1.45134 -3.08462 0
M  V30 3262 H 319.27 -0.353723 -2.97807 0
M  V30 3263 H 316.823 -0.221545 -1.54722 0
M  V30 3264 H 317.558 2.15728 -2.4214 0
M  V30 3265 H 317.343 1.02232 -3.78538 0
M  V30 3266 H 318.833 2.00493 -3.66323 0
M  V30 3267 N 319.27 1.56325 -0.20005 0
M  V30 3268 C 320.547 1.89484 0.48529 0
M  V30 3269 C 320.927 1.1143 1.79294 0
M  V30 3270 O 320.275 0.216919 2.27468 0
M  V30 3271 C 320.485 3.41923 0.699243 0
M  V30 3272 C 321.833 4.12256 1.01638 0
M  V30 3273 O 322.857 3.47402 0.786792 0
M  V30 3274 O 321.716 5.26887 1.45095 0
M  V30 3275 H 318.81 0.787144 0.253639 0
M  V30 3276 H 321.356 1.67985 -0.240633 0
M  V30 3277 H 320.128 3.90658 -0.224008 0
M  V30 3278 H 319.751 3.69131 1.47744 0
M  V30 3279 N 320.748 -0.0735177 1.57428 0
M  V30 3280 C 321.996 -0.771472 1.86796 0
M  V30 3281 C 322.317 -1.78201 0.791804 0
M  V30 3282 O 321.587 -1.95074 -0.179718 0
M  V30 3283 H 320.167 -0.28791 0.689287 0
M  V30 3284 H 322.829 -0.0500161 1.94836 0
M  V30 3285 H 321.925 -1.28874 2.8425 0
M  V30 3286 N 322.226 -1.5378 -0.344866 0
M  V30 3287 C 323.158 -1.77988 -1.44406 0
M  V30 3288 C 324.171 -0.661138 -1.48771 0
M  V30 3289 O 325.36 -0.937842 -1.51877 0
M  V30 3290 C 322.46 -1.86345 -2.8307 0
M  V30 3291 C 321.633 -3.16256 -3.0216 0
M  V30 3292 C 320.692 -3.15588 -4.21059 0
M  V30 3293 O 319.718 -3.89314 -4.15239 0
M  V30 3294 N 320.92 -2.37864 -5.29529 0
M  V30 3295 H 323.685 -2.72839 -1.24012 0
M  V30 3296 H 321.246 -1.52814 -0.534737 0
M  V30 3297 H 323.238 -1.83351 -3.60783 0
M  V30 3298 H 321.808 -0.986858 -2.96614 0
M  V30 3299 H 321.028 -3.32385 -2.11929 0
M  V30 3300 H 322.316 -4.0207 -3.11797 0
M  V30 3301 H 321.714 -1.77514 -5.37127 0
M  V30 3302 H 320.271 -2.40668 -6.05741 0
M  V30 3303 N 323.704 0.605807 -1.45491 0
M  V30 3304 C 324.952 1.36207 -1.49305 0
M  V30 3305 C 325.273 1.94519 -0.136863 0
M  V30 3306 O 324.543 1.77261 0.833983 0
M  V30 3307 H 323.123 0.50565 -0.549843 0
M  V30 3308 H 325.785 0.711239 -1.81459 0
M  V30 3309 H 324.881 2.18058 -2.23287 0
M  V30 3310 N 325.182 1.32811 0.848464 0
M  V30 3311 C 326.13 1.22231 1.97895 0
M  V30 3312 C 327.124 0.125749 1.68933 0
M  V30 3313 O 328.33 0.289083 1.77663 0
M  V30 3314 H 324.705 0.379058 0.649476 0
M  V30 3315 H 326.676 2.17828 2.03945 0
M  V30 3316 C 325.425 0.968572 3.33937 0
M  V30 3317 H 324.748 1.80458 3.56756 0
M  V30 3318 H 326.188 0.934808 4.13567 0
M  V30 3319 C 324.647 -0.328628 3.35293 0
M  V30 3320 O 325.177 -1.33848 3.78745 0
M  V30 3321 N 323.383 -0.352788 2.88451 0
M  V30 3322 H 322.93 0.469541 2.53285 0
M  V30 3323 H 322.888 -1.22057 2.89741 0
M  V30 3324 N 326.66 -1.06551 1.16123 0
M  V30 3325 C 327.623 -2.12132 0.867906 0
M  V30 3326 C 328.623 -1.60224 -0.135944 0
M  V30 3327 O 329.813 -1.73943 0.0946422 0
M  V30 3328 C 326.945 -3.396 0.297419 0
M  V30 3329 H 328.138 -2.39586 1.80385 0
M  V30 3330 H 325.691 -1.22574 0.969812 0
M  V30 3331 H 326.426 -3.17794 -0.64633 0
M  V30 3332 H 326.211 -3.78581 1.02073 0
M  V30 3333 H 327.701 -4.17455 0.110052 0
M  V30 3334 N 328.138 -0.959301 -1.25041 0
M  V30 3335 C 329.387 -0.612254 -1.92183 0
M  V30 3336 C 329.7 0.855347 -1.75907 0
M  V30 3337 O 330.906 1.31256 -2.37664 0
M  V30 3338 C 329.362 -1.04435 -3.44414 0
M  V30 3339 C 328.97 -2.53482 -3.69393 0
M  V30 3340 C 330.714 -0.770055 -4.17457 0
M  V30 3341 C 328.621 -2.90468 -5.15153 0
M  V30 3342 H 327.551 -0.225279 -0.719559 0
M  V30 3343 H 330.202 -1.16438 -1.41825 0
M  V30 3344 H 328.584 -0.4206 -3.9376 0
M  V30 3345 H 329.758 -3.20916 -3.30681 0
M  V30 3346 H 328.073 -2.78432 -3.0962 0
M  V30 3347 H 330.67 -1.02249 -5.24832 0
M  V30 3348 H 331.013 0.293611 -4.15263 0
M  V30 3349 H 331.546 -1.35437 -3.74034 0
M  V30 3350 H 328.285 -3.95871 -5.22462 0
M  V30 3351 H 327.805 -2.27711 -5.54894 0
M  V30 3352 H 329.484 -2.79914 -5.83315 0
M  V30 3353 N 329.616 1.39756 -0.72842 0
M  V30 3354 C 330.846 2.04651 -0.283117 0
M  V30 3355 C 331.254 1.5502 1.08469 0
M  V30 3356 O 330.597 0.707343 1.69536 0
M  V30 3357 C 330.659 3.58947 -0.199309 0
M  V30 3358 C 330.323 4.31525 -1.5045 0
M  V30 3359 C 331.32 4.5861 -2.44894 0
M  V30 3360 C 329.005 4.70195 -1.76698 0
M  V30 3361 C 330.999 5.23366 -3.63822 0
M  V30 3362 C 328.686 5.3468 -2.95906 0
M  V30 3363 C 329.684 5.61198 -3.89289 0
M  V30 3364 O 329.372 6.24347 -5.06404 0
M  V30 3365 H 329.104 0.664777 -0.122666 0
M  V30 3366 H 331.658 1.79913 -0.990987 0
M  V30 3367 H 329.888 3.82556 0.56461 0
M  V30 3368 H 331.577 4.0534 0.213125 0
M  V30 3369 H 332.343 4.29187 -2.25883 0
M  V30 3370 H 328.222 4.48916 -1.04859 0
M  V30 3371 H 331.766 5.4398 -4.36728 0
M  V30 3372 H 327.663 5.63524 -3.14819 0
M  V30 3373 H 328.431 6.42842 -5.06652 0
M  V30 3374 N 331.094 0.475555 1.50254 0
M  V30 3375 C 332.024 -0.30611 2.31485 0
M  V30 3376 C 333.005 -0.986228 1.38591 0
M  V30 3377 O 334.19 -0.982541 1.67511 0
M  V30 3378 C 331.32 -1.38588 3.1845 0
M  V30 3379 C 330.274 -0.827115 4.19932 0
M  V30 3380 C 329.6 -2.00551 4.95665 0
M  V30 3381 C 330.9 0.16463 5.2204 0
M  V30 3382 H 332.594 0.371866 2.97082 0
M  V30 3383 H 330.14 0.180282 1.42867 0
M  V30 3384 H 332.093 -1.94023 3.74076 0
M  V30 3385 H 330.817 -2.09269 2.50747 0
M  V30 3386 H 329.476 -0.294702 3.65414 0
M  V30 3387 H 329.124 -2.6994 4.2443 0
M  V30 3388 H 328.824 -1.63784 5.64313 0
M  V30 3389 H 330.348 -2.56468 5.54127 0
M  V30 3390 H 331.762 -0.300699 5.72511 0
M  V30 3391 H 330.159 0.446813 5.98434 0
M  V30 3392 H 331.229 1.08905 4.72512 0
M  V30 3393 N 332.573 -1.56217 0.208337 0
M  V30 3394 C 333.536 -2.18455 -0.693557 0
M  V30 3395 C 334.536 -1.14268 -1.13135 0
M  V30 3396 O 335.726 -1.39577 -1.0423 0
M  V30 3397 C 332.858 -2.79727 -1.94848 0
M  V30 3398 H 334.051 -2.99519 -0.15114 0
M  V30 3399 H 331.604 -1.56245 -0.041287 0
M  V30 3400 H 332.339 -2.02497 -2.53309 0
M  V30 3401 H 332.124 -3.56009 -1.64316 0
M  V30 3402 H 333.614 -3.27475 -2.59133 0
M  V30 3403 N 334.051 0.0651679 -1.57465 0
M  V30 3404 C 334.961 1.09448 -2.07505 0
M  V30 3405 C 335.977 1.41974 -1.00595 0
M  V30 3406 O 337.153 1.52018 -1.32107 0
M  V30 3407 C 334.218 2.38689 -2.51453 0
M  V30 3408 C 333.279 2.13073 -3.72691 0
M  V30 3409 C 332.512 3.36152 -4.14533 0
M  V30 3410 O 332.735 4.45517 -3.56189 0
M  V30 3411 O 331.669 3.23974 -5.07272 0
M  V30 3412 H 335.495 0.69935 -2.95538 0
M  V30 3413 H 333.08 0.279752 -1.46757 0
M  V30 3414 H 334.962 3.14736 -2.80212 0
M  V30 3415 H 333.637 2.77568 -1.66546 0
M  V30 3416 H 332.544 1.34709 -3.49005 0
M  V30 3417 H 333.877 1.79071 -4.5847 0
M  V30 3418 N 335.529 1.53961 0.336706 0
M  V30 3419 C 336.945 1.44378 0.680241 0
M  V30 3420 C 337.145 0.606034 1.9217 0
M  V30 3421 O 336.201 0.099688 2.52303 0
M  V30 3422 C 337.514 2.87945 0.8665 0
M  V30 3423 C 339.062 2.97763 0.964682 0
M  V30 3424 C 339.537 4.42453 1.18321 0
M  V30 3425 N 341.028 4.46008 1.25025 0
M  V30 3426 C 341.763 5.55102 1.43697 0
M  V30 3427 N 341.259 6.7419 1.59498 0
M  V30 3428 N 343.052 5.42727 1.463 0
M  V30 3429 H 335.203 2.06918 -0.479455 0
M  V30 3430 H 337.466 0.935634 -0.152619 0
M  V30 3431 H 337.172 3.51691 0.0256937 0
M  V30 3432 H 337.046 3.33293 1.76623 0
M  V30 3433 H 339.433 2.34153 1.796 0
M  V30 3434 H 339.514 2.55766 0.041708 0
M  V30 3435 H 339.158 5.06645 0.356788 0
M  V30 3436 H 339.088 4.82048 2.11985 0
M  V30 3437 H 341.579 3.60196 1.14312 0
M  V30 3438 H 341.892 7.53095 1.734 0
M  V30 3439 H 340.237 6.77123 1.56621 0
M  V30 3440 H 343.428 4.48647 1.33543 0
M  V30 3441 H 343.601 6.27806 1.6051 0
M  V30 3442 N 337.007 -0.598083 1.45811 0
M  V30 3443 C 338.284 -1.35777 1.40797 0
M  V30 3444 C 338.664 -2.10935 0.083462 0
M  V30 3445 O 338.012 -2.08505 -0.934763 0
M  V30 3446 C 338.222 -2.29666 2.62783 0
M  V30 3447 C 339.57 -2.91977 3.08277 0
M  V30 3448 O 340.594 -2.39984 2.63223 0
M  V30 3449 O 339.453 -3.86376 3.86491 0
M  V30 3450 H 336.547 -0.609291 0.55919 0
M  V30 3451 H 339.093 -0.620379 1.57954 0
M  V30 3452 H 337.865 -1.73454 3.50756 0
M  V30 3453 H 337.488 -3.1077 2.48008 0
M  V30 3454 N 338.485 -1.33259 -0.841409 0
M  V30 3455 C 339.725 -1.25902 -1.61022 0
M  V30 3456 C 340.089 0.173325 -1.91216 0
M  V30 3457 O 341.29 0.370824 -2.6623 0
M  V30 3458 C 339.561 -2.10735 -2.88662 0
M  V30 3459 S 341.12 -2.20541 -3.79351 0
M  V30 3460 H 337.938 -0.447958 -0.552137 0
M  V30 3461 H 340.54 -1.68263 -0.995382 0
M  V30 3462 H 339.244 -3.1384 -2.64448 0
M  V30 3463 H 338.775 -1.69201 -3.55154 0
M  V30 3464 H 340.79 -1.36462 -4.77067 0
M  V30 3465 N 339.963 1.05934 -1.16686 0
M  V30 3466 C 341.188 1.83029 -0.975455 0
M  V30 3467 C 341.613 1.82096 0.471452 0
M  V30 3468 O 340.971 1.22443 1.33706 0
M  V30 3469 C 341.019 3.27372 -1.51195 0
M  V30 3470 O 340.123 4.06054 -0.720701 0
M  V30 3471 H 339.464 0.566194 -0.346872 0
M  V30 3472 H 341.994 1.33541 -1.55009 0
M  V30 3473 H 342.004 3.78186 -1.53099 0
M  V30 3474 H 340.679 3.27366 -2.56523 0
M  V30 3475 H 339.256 3.64812 -0.772458 0
M  V30 3476 N 341.441 0.965919 1.2453 0
M  V30 3477 C 342.374 0.4393 2.23932 0
M  V30 3478 C 343.352 -0.485615 1.55179 0
M  V30 3479 O 344.536 -0.417402 1.83821 0
M  V30 3480 C 341.663 -0.366042 3.36716 0
M  V30 3481 C 340.709 0.5009 4.23548 0
M  V30 3482 S 341.542 1.94002 4.99123 0
M  V30 3483 C 342.698 1.14342 6.15367 0
M  V30 3484 H 342.931 1.28167 2.68254 0
M  V30 3485 H 340.464 0.770819 1.33782 0
M  V30 3486 H 342.422 -0.824724 4.0213 0
M  V30 3487 H 341.083 -1.18337 2.90956 0
M  V30 3488 H 340.276 -0.117341 5.03863 0
M  V30 3489 H 339.878 0.89524 3.63127 0
M  V30 3490 H 342.17 0.397572 6.76332 0
M  V30 3491 H 343.113 1.92089 6.81548 0
M  V30 3492 H 343.521 0.668579 5.60527 0
M  V30 3493 N 342.919 -1.39368 0.735821 0
M  V30 3494 C 343.851 -2.2913 0.0567723 0
M  V30 3495 C 344.864 -1.46859 -0.702589 0
M  V30 3496 O 346.053 -1.69925 -0.546616 0
M  V30 3497 C 343.153 -3.25492 -0.943823 0
M  V30 3498 C 342.326 -4.36709 -0.24581 0
M  V30 3499 C 341.385 -5.13376 -1.15463 0
M  V30 3500 O 340.411 -5.65683 -0.631803 0
M  V30 3501 N 341.613 -5.24656 -2.48427 0
M  V30 3502 H 344.378 -2.88047 0.827582 0
M  V30 3503 H 341.939 -1.50957 0.585112 0
M  V30 3504 H 343.931 -3.73657 -1.55443 0
M  V30 3505 H 342.501 -2.676 -1.61583 0
M  V30 3506 H 341.721 -3.9041 0.545286 0
M  V30 3507 H 343.009 -5.08244 0.237891 0
M  V30 3508 H 342.407 -4.83679 -2.93379 0
M  V30 3509 H 340.964 -5.76258 -3.04582 0
M  V30 3510 N 344.397 -0.483516 -1.5 0
M  V30 3511 C 345.813 -0.138404 -1.58999 0
M  V30 3512 C 346.013 1.35597 -1.4905 0
M  V30 3513 O 345.069 2.13039 -1.35539 0
M  V30 3514 C 346.382 -0.699658 -2.92447 0
M  V30 3515 C 347.93 -0.664195 -3.05872 0
M  V30 3516 C 348.405 -1.20321 -4.41913 0
M  V30 3517 N 349.896 -1.16315 -4.48358 0
M  V30 3518 C 350.631 -1.55058 -5.52037 0
M  V30 3519 N 350.127 -2.01311 -6.62907 0
M  V30 3520 N 351.92 -1.46584 -5.42651 0
M  V30 3521 H 344.071 -1.45529 -1.5471 0
M  V30 3522 H 346.334 -0.60258 -0.731848 0
M  V30 3523 H 346.04 -1.747 -3.05242 0
M  V30 3524 H 345.914 -0.150194 -3.76901 0
M  V30 3525 H 348.301 0.374272 -2.92717 0
M  V30 3526 H 348.382 -1.25061 -2.23144 0
M  V30 3527 H 348.026 -2.24037 -4.55818 0
M  V30 3528 H 347.956 -0.592896 -5.23252 0
M  V30 3529 H 350.447 -0.824058 -3.68806 0
M  V30 3530 H 350.76 -2.2899 -7.38095 0
M  V30 3531 H 349.105 -2.05273 -6.63994 0
M  V30 3532 H 352.296 -1.10281 -4.54924 0
M  V30 3533 H 352.469 -1.77103 -6.23329 0
M  V30 3534 N 345.875 1.56104 -0.216619 0
M  V30 3535 C 347.291 1.58995 0.13886 0
M  V30 3536 C 347.491 1.23333 1.59346 0
M  V30 3537 O 346.547 0.966234 2.33281 0
M  V30 3538 C 347.86 3.00143 -0.182968 0
M  V30 3539 C 349.408 3.12751 -0.124807 0
M  V30 3540 C 349.883 4.56068 -0.420241 0
M  V30 3541 N 351.374 4.61723 -0.369634 0
M  V30 3542 C 352.109 5.70542 -0.571789 0
M  V30 3543 N 351.605 6.87744 -0.835453 0
M  V30 3544 N 353.398 5.59831 -0.504563 0
M  V30 3545 H 345.549 1.77562 -1.16557 0
M  V30 3546 H 347.812 0.825091 -0.466828 0
M  V30 3547 H 347.518 3.30871 -1.19237 0
M  V30 3548 H 347.392 3.73813 0.504367 0
M  V30 3549 H 349.779 2.81822 0.875223 0
M  V30 3550 H 349.86 2.41421 -0.845544 0
M  V30 3551 H 349.504 4.87713 -1.41769 0
M  V30 3552 H 349.434 5.25617 0.321631 0
M  V30 3553 H 351.925 3.77502 -0.173338 0
M  V30 3554 H 352.238 7.66587 -0.977938 0
M  V30 3555 H 350.583 6.895 -0.872592 0
M  V30 3556 H 353.774 4.67145 -0.298842 0
M  V30 3557 H 353.947 6.44573 -0.665519 0
M  V30 3558 N 347.353 -0.0568162 1.57498 0
M  V30 3559 C 348.303 -1.07315 2.01166 0
M  V30 3560 C 349.287 -1.33632 0.896171 0
M  V30 3561 O 350.479 -1.33682 1.16009 0
M  V30 3562 C 347.608 -2.38257 2.47161 0
M  V30 3563 C 346.694 -2.1515 3.65474 0
M  V30 3564 N 347.085 -1.62014 4.7915 0
M  V30 3565 C 345.383 -2.45559 3.72313 0
M  V30 3566 C 346.084 -1.54069 5.60926 0
M  V30 3567 N 345.06 -2.00652 5.05213 0
M  V30 3568 H 348.862 -0.655878 2.86488 0
M  V30 3569 H 346.376 -0.263635 1.60246 0
M  V30 3570 H 348.373 -3.11845 2.76691 0
M  V30 3571 H 347.033 -2.80687 1.63232 0
M  V30 3572 H 348.044 -1.30667 5.01145 0
M  V30 3573 H 344.721 -2.91253 2.99129 0
M  V30 3574 H 346.111 -1.13712 6.62208 0
M  V30 3575 N 348.832 -1.54138 -0.328536 0
M  V30 3576 C 349.764 -1.79509 -1.4251 0
M  V30 3577 C 350.777 -0.67688 -1.48061 0
M  V30 3578 O 351.966 -0.953898 -1.50874 0
M  V30 3579 C 349.066 -1.89337 -2.81078 0
M  V30 3580 C 348.239 -3.19443 -2.98789 0
M  V30 3581 C 347.298 -3.20036 -4.17688 0
M  V30 3582 O 346.324 -3.93697 -4.11086 0
M  V30 3583 N 347.526 -2.43467 -5.26976 0
M  V30 3584 H 350.291 -2.74139 -1.21111 0
M  V30 3585 H 347.852 -1.53373 -0.518499 0
M  V30 3586 H 349.844 -1.87167 -3.58818 0
M  V30 3587 H 348.414 -1.01826 -2.95551 0
M  V30 3588 H 347.634 -3.34614 -2.08391 0
M  V30 3589 H 348.922 -4.05354 -3.07515 0
M  V30 3590 H 348.32 -1.83201 -5.35214 0
M  V30 3591 H 346.877 -2.4708 -6.03154 0
M  V30 3592 N 350.31 0.590341 -1.46126 0
M  V30 3593 C 351.257 1.69994 -1.56111 0
M  V30 3594 C 352.227 1.61065 -0.405867 0
M  V30 3595 O 353.412 1.8039 -0.621613 0
M  V30 3596 C 350.552 3.08326 -1.55013 0
M  V30 3597 C 349.665 3.27936 -2.81215 0
M  V30 3598 C 348.8 4.56473 -2.71673 0
M  V30 3599 C 347.839 4.694 -3.92849 0
M  V30 3600 N 346.976 5.89254 -3.81738 0
M  V30 3601 H 351.816 1.60797 -2.50895 0
M  V30 3602 H 349.353 0.783799 -1.24479 0
M  V30 3603 H 351.311 3.88383 -1.52362 0
M  V30 3604 H 349.941 3.16439 -0.637667 0
M  V30 3605 H 348.993 2.41536 -2.93879 0
M  V30 3606 H 350.305 3.33357 -3.71045 0
M  V30 3607 H 349.459 5.44748 -2.67085 0
M  V30 3608 H 348.198 4.53477 -1.7947 0
M  V30 3609 H 347.203 3.79544 -3.97777 0
M  V30 3610 H 348.428 4.7418 -4.86138 0
M  V30 3611 H 346.374 5.87271 -2.92317 0
M  V30 3612 H 346.291 5.95911 -4.65217 0
M  V30 3613 H 347.559 6.79981 -3.81112 0
M  V30 3614 N 351.788 1.33704 0.83433 0
M  V30 3615 C 353.034 1.25603 1.59222 0
M  V30 3616 C 353.367 -0.176659 1.93395 0
M  V30 3617 O 352.642 -1.11915 1.59076 0
M  V30 3618 C 352.925 2.13576 2.89926 0
M  V30 3619 C 352.778 3.65326 2.62406 0
M  V30 3620 C 354.097 2.01238 3.91397 0
M  V30 3621 H 351.216 0.457613 0.577719 0
M  V30 3622 H 353.858 1.63848 0.961972 0
M  V30 3623 H 352.008 1.8109 3.43713 0
M  V30 3624 H 353.68 4.08124 2.15017 0
M  V30 3625 H 351.923 3.8698 1.96033 0
M  V30 3626 H 352.594 4.22232 3.55562 0
M  V30 3627 H 355.07 2.29738 3.46929 0
M  V30 3628 H 353.946 2.65036 4.80673 0
M  V30 3629 H 354.207 0.985951 4.30966 0
M  V30 3630 N 353.266 -1.05314 1.17247 0
M  V30 3631 C 354.512 -1.78557 0.961513 0
M  V30 3632 C 354.845 -1.87419 -0.508697 0
M  V30 3633 O 354.12 -1.37307 -1.37757 0
M  V30 3634 C 354.403 -3.22514 1.60176 0
M  V30 3635 C 354.256 -3.21673 3.14399 0
M  V30 3636 C 355.575 -4.20318 1.30463 0
M  V30 3637 H 352.694 -0.6482 0.350723 0
M  V30 3638 H 355.336 -1.23102 1.44727 0
M  V30 3639 H 353.486 -3.69867 1.18871 0
M  V30 3640 H 355.158 -2.82405 3.64753 0
M  V30 3641 H 353.401 -2.60048 3.47214 0
M  V30 3642 H 354.072 -4.23271 3.54324 0
M  V30 3643 H 356.548 -3.81454 1.66229 0
M  V30 3644 H 355.424 -5.19289 1.77848 0
M  V30 3645 H 355.685 -4.41526 0.22521 0
M  V30 3646 N 354.744 -0.972509 -1.24016 0
M  V30 3647 C 355.654 -0.5143 -2.28893 0
M  V30 3648 C 356.67 0.427078 -1.68677 0
M  V30 3649 O 357.846 0.298939 -1.99169 0
M  V30 3650 C 354.911 0.183598 -3.46214 0
M  V30 3651 C 353.972 -0.798202 -4.21814 0
M  V30 3652 C 353.205 -0.133514 -5.33533 0
M  V30 3653 O 353.428 1.07714 -5.60137 0
M  V30 3654 O 352.362 -0.828103 -5.96176 0
M  V30 3655 H 356.188 -1.38629 -2.70214 0
M  V30 3656 H 353.773 -0.739769 -1.29799 0
M  V30 3657 H 355.655 0.575433 -4.17453 0
M  V30 3658 H 354.33 1.03048 -3.0686 0
M  V30 3659 H 353.237 -1.24059 -3.52931 0
M  V30 3660 H 354.57 -1.61364 -4.64997 0
M  V30 3661 N 356.222 1.38976 -0.743202 0
M  V30 3662 C 357.132 2.3434 -0.110399 0
M  V30 3663 C 358.148 1.58741 0.712559 0
M  V30 3664 O 359.324 1.9099 0.639125 0
M  V30 3665 C 356.389 3.37812 0.780012 0
M  V30 3666 C 355.45 4.29263 -0.0561319 0
M  V30 3667 C 354.683 5.27793 0.791875 0
M  V30 3668 O 354.906 5.33043 2.03031 0
M  V30 3669 O 353.84 6.01512 0.216183 0
M  V30 3670 H 357.666 2.90129 -0.897714 0
M  V30 3671 H 355.251 1.40643 -0.503966 0
M  V30 3672 H 357.133 4.01194 1.28923 0
M  V30 3673 H 355.808 2.84395 1.546 0
M  V30 3674 H 354.715 3.69076 -0.611056 0
M  V30 3675 H 356.048 4.85907 -0.784531 0
M  V30 3676 N 357.7 0.491464 1.49741 0
M  V30 3677 C 358.663 -0.280906 2.27472 0
M  V30 3678 C 359.663 -0.902454 1.33088 0
M  V30 3679 O 360.853 -0.768465 1.56334 0
M  V30 3680 C 357.985 -1.40209 3.10732 0
M  V30 3681 H 359.178 0.401056 2.97206 0
M  V30 3682 H 356.731 0.246131 1.5435 0
M  V30 3683 H 357.466 -2.11849 2.45541 0
M  V30 3684 H 357.251 -0.961969 3.80117 0
M  V30 3685 H 358.741 -1.9464 3.69466 0
M  V30 3686 N 359.178 -1.55987 0.224894 0
M  V30 3687 C 360.589 -1.84553 -0.282345 0
M  V30 3688 C 360.94 -1.14634 -1.59227 0
M  V30 3689 O 360.065 -0.417155 -2.12341 0
M  V30 3690 C 360.66 -3.348 -0.519062 0
M  V30 3691 C 359.219 -3.63671 -0.970604 0
M  V30 3692 C 358.366 -2.77277 -0.0355261 0
M  V30 3693 H 361.317 -1.52245 0.448006 0
M  V30 3694 H 361.338 -3.55187 -1.36463 0
M  V30 3695 H 360.85 -3.8566 0.43449 0
M  V30 3696 H 358.951 -3.1827 -1.9374 0
M  V30 3697 H 359.064 -4.71631 -0.842698 0
M  V30 3698 H 357.428 -2.48846 -0.542927 0
M  V30 3699 H 358.211 -3.30937 0.913003 0
M  V30 3700 N 360.656 0.0484629 -1.57525 0
M  V30 3701 C 361.619 1.03956 -2.04269 0
M  V30 3702 C 362.619 1.30211 -0.943496 0
M  V30 3703 O 363.809 1.25539 -1.20771 0
M  V30 3704 C 360.941 2.37742 -2.44319 0
M  V30 3705 H 362.134 0.636182 -2.93075 0
M  V30 3706 H 359.687 0.294811 -1.53494 0
M  V30 3707 H 360.422 2.82866 -1.5861 0
M  V30 3708 H 360.207 2.20021 -3.24551 0
M  V30 3709 H 361.697 3.08936 -2.80978 0
M  V30 3710 N 362.134 1.5431 0.320358 0
M  V30 3711 C 363.545 1.63872 0.894594 0
M  V30 3712 C 363.896 0.534847 1.88769 0
M  V30 3713 O 363.021 -0.331732 2.13842 0
M  V30 3714 C 363.616 2.97049 1.62934 0
M  V30 3715 C 362.175 3.08796 2.15226 0
M  V30 3716 C 361.322 2.59456 0.978671 0
M  V30 3717 H 364.273 1.58398 0.0978544 0
M  V30 3718 H 364.294 2.87388 2.49376 0
M  V30 3719 H 363.806 3.7737 0.906302 0
M  V30 3720 H 361.907 2.33156 2.90636 0
M  V30 3721 H 362.02 4.14649 2.40006 0
M  V30 3722 H 360.384 2.1543 1.35875 0
M  V30 3723 H 361.167 3.42237 0.269895 0
M  V30 3724 N 363.613 -0.582584 1.46437 0
M  V30 3725 C 364.861 -1.33814 1.51453 0
M  V30 3726 C 365.182 -1.94277 0.167792 0
M  V30 3727 O 364.452 -1.78566 -0.805677 0
M  V30 3728 H 363.032 -0.496838 0.557818 0
M  V30 3729 H 365.694 -0.682281 1.82568 0
M  V30 3730 H 364.79 -2.14479 2.26728 0
M  V30 3731 N 365.091 -1.34144 -0.827227 0
M  V30 3732 C 366.34 -1.25602 -1.5782 0
M  V30 3733 C 366.653 0.173445 -1.94829 0
M  V30 3734 O 367.859 0.380984 -2.68814 0
M  V30 3735 C 366.315 -2.20151 -2.84713 0
M  V30 3736 C 365.923 -3.68331 -2.55021 0
M  V30 3737 C 367.667 -2.20508 -3.62735 0
M  V30 3738 C 365.574 -4.54762 -3.78082 0
M  V30 3739 H 364.504 -0.466573 -0.592306 0
M  V30 3740 H 367.155 -1.59283 -0.911116 0
M  V30 3741 H 365.537 -1.79417 -3.53023 0
M  V30 3742 H 366.711 -4.17577 -1.94849 0
M  V30 3743 H 365.026 -3.7038 -1.90283 0
M  V30 3744 H 367.623 -2.82306 -4.54101 0
M  V30 3745 H 367.966 -1.20322 -3.98533 0
M  V30 3746 H 368.499 -2.59664 -3.01362 0
M  V30 3747 H 365.238 -5.55867 -3.47407 0
M  V30 3748 H 364.758 -4.10254 -4.37552 0
M  V30 3749 H 366.437 -4.69153 -4.45538 0
M  V30 3750 N 366.569 1.04691 -1.17803 0
M  V30 3751 C 367.797 1.81446 -0.99423 0
M  V30 3752 C 368.212 1.83174 0.457459 0
M  V30 3753 O 367.569 1.26265 1.31771 0
M  V30 3754 C 367.62 3.27334 -1.5341 0
M  V30 3755 O 367.341 3.25798 -2.92895 0
M  V30 3756 C 368.842 4.20759 -1.39559 0
M  V30 3757 H 366.062 0.571599 -0.351447 0
M  V30 3758 H 368.606 1.31982 -1.56208 0
M  V30 3759 H 366.761 3.74052 -1.00815 0
M  V30 3760 H 367.175 4.17144 -3.17949 0
M  V30 3761 H 368.649 5.21084 -1.82141 0
M  V30 3762 H 369.126 4.37856 -0.343394 0
M  V30 3763 H 369.732 3.79901 -1.91195 0
M  V30 3764 N 368.047 0.979072 1.23499 0
M  V30 3765 C 369.458 0.684391 1.73704 0
M  V30 3766 C 369.809 -0.799448 1.79174 0
M  V30 3767 O 368.934 -1.62531 1.42873 0
M  V30 3768 C 369.529 1.23564 3.15464 0
M  V30 3769 C 368.088 0.99063 3.6313 0
M  V30 3770 C 367.235 1.36416 2.41425 0
M  V30 3771 H 370.186 1.15307 1.09041 0
M  V30 3772 H 370.207 0.607417 3.7562 0
M  V30 3773 H 369.719 2.31561 3.1145 0
M  V30 3774 H 367.82 -0.0733136 3.72528 0
M  V30 3775 H 367.933 1.64427 4.5 0
M  V30 3776 H 366.297 0.782616 2.42378 0
M  V30 3777 H 367.08 2.45387 2.40083 0
M  V30 3778 N 369.525 -1.3858 0.750561 0
M  V30 3779 C 370.435 -2.34278 0.122825 0
M  V30 3780 C 371.451 -1.59116 -0.704131 0
M  V30 3781 O 372.627 -1.91326 -0.628987 0
M  V30 3782 C 369.692 -3.38221 -0.762086 0
M  V30 3783 C 368.753 -4.29227 0.078896 0
M  V30 3784 C 367.986 -5.28205 -0.763874 0
M  V30 3785 O 368.209 -5.34112 -2.00201 0
M  V30 3786 O 367.143 -6.01618 -0.18428 0
M  V30 3787 H 370.969 -2.89649 0.913088 0
M  V30 3788 H 368.554 -1.40374 0.511417 0
M  V30 3789 H 370.436 -4.01872 -1.26793 0
M  V30 3790 H 369.111 -2.85211 -1.5309 0
M  V30 3791 H 368.018 -3.68747 0.630621 0
M  V30 3792 H 369.351 -4.85484 0.810289 0
M  V30 3793 N 371.003 -0.499398 -1.49478 0
M  V30 3794 C 371.933 0.269244 -2.31943 0
M  V30 3795 C 372.914 0.964054 -1.40143 0
M  V30 3796 O 374.099 0.955767 -1.69052 0
M  V30 3797 C 371.229 1.33504 -3.20615 0
M  V30 3798 C 370.183 0.760202 -4.21195 0
M  V30 3799 C 369.509 1.9264 -4.98792 0
M  V30 3800 C 370.809 -0.247661 -5.21712 0
M  V30 3801 H 372.503 -0.419082 -2.96452 0
M  V30 3802 H 370.049 -0.202988 -1.42562 0
M  V30 3803 H 372.002 1.88048 -3.77115 0
M  V30 3804 H 370.726 2.05253 -2.54045 0
M  V30 3805 H 369.385 0.23653 -3.65836 0
M  V30 3806 H 369.033 2.63154 -4.28671 0
M  V30 3807 H 368.733 1.54785 -5.66847 0
M  V30 3808 H 370.257 2.4762 -5.58137 0
M  V30 3809 H 371.671 0.209579 -5.72917 0
M  V30 3810 H 370.068 -0.541962 -5.97648 0
M  V30 3811 H 371.138 -1.16409 -4.7072 0
M  V30 3812 N 372.481 1.55866 -0.233164 0
M  V30 3813 C 373.897 1.59133 0.121988 0
M  V30 3814 C 374.097 1.25016 1.58029 0
M  V30 3815 O 373.153 0.990922 2.32243 0
M  V30 3816 C 374.466 2.99932 -0.214792 0
M  V30 3817 C 376.014 3.12601 -0.157971 0
M  V30 3818 C 376.489 4.55597 -0.46859 0
M  V30 3819 N 377.98 4.61305 -0.418585 0
M  V30 3820 C 378.715 5.69903 -0.63227 0
M  V30 3821 N 378.211 6.86819 -0.90835 0
M  V30 3822 N 380.004 5.59264 -0.563913 0
M  V30 3823 H 372.155 1.76315 -1.18434 0
M  V30 3824 H 374.418 0.820093 -0.475553 0
M  V30 3825 H 374.124 3.29588 -1.22739 0
M  V30 3826 H 373.998 3.74327 0.464691 0
M  V30 3827 H 376.385 2.82735 0.845283 0
M  V30 3828 H 376.466 2.40511 -0.871102 0
M  V30 3829 H 376.11 4.86182 -1.46934 0
M  V30 3830 H 376.04 5.25928 0.265865 0
M  V30 3831 H 378.531 3.77297 -0.213368 0
M  V30 3832 H 378.844 7.65507 -1.05919 0
M  V30 3833 H 377.189 6.88536 -0.945673 0
M  V30 3834 H 380.38 4.66802 -0.348372 0
M  V30 3835 H 380.553 6.43831 -0.733847 0
M  V30 3836 N 373.959 -0.0401083 1.57549 0
M  V30 3837 C 375.375 -0.395556 1.54621 0
M  V30 3838 C 375.575 -1.77281 0.957799 0
M  V30 3839 O 374.631 -2.45888 0.574031 0
M  V30 3840 C 375.944 -0.307535 2.99123 0
M  V30 3841 C 377.492 -0.385425 3.10618 0
M  V30 3842 C 377.967 -0.326973 4.56831 0
M  V30 3843 N 379.458 -0.386102 4.61588 0
M  V30 3844 C 380.193 -0.363591 5.72246 0
M  V30 3845 N 379.689 -0.29402 6.92176 0
M  V30 3846 N 381.482 -0.412503 5.60584 0
M  V30 3847 H 373.633 0.861325 1.94152 0
M  V30 3848 H 375.896 0.326445 0.890021 0
M  V30 3849 H 375.602 0.638461 3.45856 0
M  V30 3850 H 375.476 -1.10552 3.60636 0
M  V30 3851 H 377.863 -1.32185 2.63839 0
M  V30 3852 H 377.944 0.44171 2.51957 0
M  V30 3853 H 377.588 0.605738 5.04275 0
M  V30 3854 H 377.518 -1.17207 5.13391 0
M  V30 3855 H 380.009 -0.442832 3.75296 0
M  V30 3856 H 380.322 -0.28164 7.72287 0
M  V30 3857 H 378.667 -0.260232 6.94513 0
M  V30 3858 H 381.858 -0.464769 4.65787 0
M  V30 3859 H 382.031 -0.391492 6.46816 0
M  V30 3860 N 375.437 -1.54477 -0.31217 0
M  V30 3861 C 376.667 -1.76948 -1.06645 0
M  V30 3862 C 377.075 -0.523593 -1.81811 0
M  V30 3863 O 376.418 0.51578 -1.76311 0
M  V30 3864 C 376.48 -2.91668 -2.10166 0
M  V30 3865 C 376.144 -4.30165 -1.54296 0
M  V30 3866 C 377.141 -5.10603 -0.978793 0
M  V30 3867 C 374.826 -4.76738 -1.58196 0
M  V30 3868 C 376.82 -6.3573 -0.461048 0
M  V30 3869 C 374.507 -6.01831 -1.06034 0
M  V30 3870 C 375.505 -6.81161 -0.500844 0
M  V30 3871 O 375.193 -8.03899 0.0128958 0
M  V30 3872 H 374.925 -0.594088 -0.322546 0
M  V30 3873 H 377.479 -2.02213 -0.360441 0
M  V30 3874 H 375.709 -2.62001 -2.84416 0
M  V30 3875 H 377.398 -3.01817 -2.71406 0
M  V30 3876 H 378.164 -4.75771 -0.941651 0
M  V30 3877 H 374.043 -4.15027 -2.00683 0
M  V30 3878 H 377.587 -6.97596 -0.0236894 0
M  V30 3879 H 373.484 -6.36152 -1.09459 0
M  V30 3880 H 374.252 -8.18437 -0.101457 0
M  V30 3881 N 376.915 0.57481 -1.46744 0
M  V30 3882 C 378.164 1.32898 -1.51727 0
M  V30 3883 C 378.477 1.948 -0.176692 0
M  V30 3884 O 379.683 2.71299 -0.104385 0
M  V30 3885 C 378.139 2.40901 -2.67385 0
M  V30 3886 C 377.747 1.85266 -4.07898 0
M  V30 3887 C 379.491 3.17609 -2.81646 0
M  V30 3888 C 377.398 2.90945 -5.14883 0
M  V30 3889 H 376.328 0.499631 -0.564699 0
M  V30 3890 H 378.979 0.612536 -1.72975 0
M  V30 3891 H 377.361 3.15379 -2.39483 0
M  V30 3892 H 378.535 1.17278 -4.45626 0
M  V30 3893 H 376.85 1.21199 -3.98371 0
M  V30 3894 H 379.447 3.96493 -3.58744 0
M  V30 3895 H 379.79 3.70696 -1.89448 0
M  V30 3896 H 380.323 2.50239 -3.09233 0
M  V30 3897 H 377.062 2.42736 -6.089 0
M  V30 3898 H 376.582 3.57398 -4.81691 0
M  V30 3899 H 378.261 3.54755 -5.41071 0
M  V30 3900 N 378.394 1.34581 0.820102 0
M  V30 3901 C 379.642 1.26845 1.57336 0
M  V30 3902 C 379.963 -0.160667 1.94337 0
M  V30 3903 O 379.233 -1.09396 1.6251 0
M  V30 3904 H 377.813 0.466514 0.583415 0
M  V30 3905 H 380.475 1.68526 0.979027 0
M  V30 3906 H 379.571 1.87513 2.4949 0
M  V30 3907 N 379.872 -1.04064 1.18357 0
M  V30 3908 C 380.782 -2.15569 0.925596 0
M  V30 3909 C 381.798 -1.7365 -0.110295 0
M  V30 3910 O 382.974 -2.01273 0.0716218 0
M  V30 3911 C 380.039 -3.43704 0.454836 0
M  V30 3912 C 379.1 -4.00004 1.55869 0
M  V30 3913 C 378.333 -5.22023 1.1103 0
M  V30 3914 O 378.556 -5.70392 -0.0309756 0
M  V30 3915 O 377.49 -5.70856 1.90805 0
M  V30 3916 H 381.316 -2.40187 1.8586 0
M  V30 3917 H 378.901 -1.1402 0.965394 0
M  V30 3918 H 380.783 -4.20923 0.200382 0
M  V30 3919 H 379.458 -3.20559 -0.449876 0
M  V30 3920 H 378.365 -3.24172 1.86716 0
M  V30 3921 H 379.698 -4.2749 2.43953 0
M  V30 3922 N 381.35 -0.985608 -1.22978 0
M  V30 3923 C 382.766 -0.695104 -1.43668 0
M  V30 3924 C 382.966 0.736866 -1.87543 0
M  V30 3925 O 382.022 1.50868 -2.02473 0
M  V30 3926 C 383.335 -1.69447 -2.48412 0
M  V30 3927 C 384.883 -1.70909 -2.62219 0
M  V30 3928 C 385.358 -2.6969 -3.70178 0
M  V30 3929 N 386.849 -2.6824 -3.77626 0
M  V30 3930 C 387.584 -3.41339 -4.60733 0
M  V30 3931 N 387.08 -4.24015 -5.4789 0
M  V30 3932 N 388.873 -3.30079 -4.54977 0
M  V30 3933 H 381.024 -1.91054 -0.928016 0
M  V30 3934 H 383.287 -0.823553 -0.469536 0
M  V30 3935 H 382.993 -2.7188 -2.23102 0
M  V30 3936 H 382.867 -1.48147 -3.46889 0
M  V30 3937 H 385.254 -0.691785 -2.86877 0
M  V30 3938 H 385.335 -1.96276 -1.6404 0
M  V30 3939 H 384.979 -3.71566 -3.46268 0
M  V30 3940 H 384.909 -2.41595 -4.67909 0
M  V30 3941 H 387.4 -2.08243 -3.15346 0
M  V30 3942 H 387.713 -4.76636 -6.08308 0
M  V30 3943 H 386.058 -4.28104 -5.47496 0
M  V30 3944 H 389.249 -2.64937 -3.85909 0
M  V30 3945 H 389.422 -3.87308 -5.19516 0
M  V30 3946 N 382.828 1.3818 -0.7579 0
M  V30 3947 C 384.068 2.01864 -0.320968 0
M  V30 3948 C 384.432 1.58863 1.07827 0
M  V30 3949 O 385.633 2.14908 1.61456 0
M  V30 3950 C 383.904 3.54626 -0.44446 0
M  V30 3951 S 385.463 4.38706 -0.0907467 0
M  V30 3952 H 382.281 0.700056 -0.124268 0
M  V30 3953 H 384.883 1.68611 -0.989468 0
M  V30 3954 H 383.587 3.83411 -1.4637 0
M  V30 3955 H 383.118 3.92661 0.241073 0
M  V30 3956 H 385.133 4.83435 1.11826 0
M  V30 3957 N 384.306 0.507319 1.49211 0
M  V30 3958 C 385.269 -0.256763 2.27757 0
M  V30 3959 C 386.269 -0.888287 1.34038 0
M  V30 3960 O 387.459 -0.751841 1.5714 0
M  V30 3961 C 384.591 -1.36905 3.12202 0
M  V30 3962 H 385.784 0.432557 2.96764 0
M  V30 3963 H 383.337 0.262488 1.5408 0
M  V30 3964 H 384.072 -2.09233 2.47775 0
M  V30 3965 H 383.857 -0.921599 3.81115 0
M  V30 3966 H 385.347 -1.9071 3.7151 0
M  V30 3967 N 385.784 -1.5574 0.241426 0
M  V30 3968 C 386.731 -2.21149 -0.660432 0
M  V30 3969 C 387.701 -1.17356 -1.17545 0
M  V30 3970 O 388.886 -1.45784 -1.23093 0
M  V30 3971 C 386.026 -2.91059 -1.85414 0
M  V30 3972 C 385.139 -4.09495 -1.37616 0
M  V30 3973 C 384.274 -4.67135 -2.529 0
M  V30 3974 C 383.313 -5.77831 -2.01936 0
M  V30 3975 N 382.45 -6.29677 -3.10566 0
M  V30 3976 H 387.29 -2.97845 -0.095955 0
M  V30 3977 H 384.827 -1.47057 -0.0356024 0
M  V30 3978 H 386.785 -3.29788 -2.5553 0
M  V30 3979 H 385.415 -2.16846 -2.39118 0
M  V30 3980 H 384.467 -3.76117 -0.569235 0
M  V30 3981 H 385.779 -4.89423 -0.962618 0
M  V30 3982 H 384.933 -5.08409 -3.31067 0
M  V30 3983 H 383.672 -3.86411 -2.97553 0
M  V30 3984 H 382.677 -5.36039 -1.22238 0
M  V30 3985 H 383.902 -6.60402 -1.58259 0
M  V30 3986 H 381.848 -5.5186 -3.54664 0
M  V30 3987 H 381.765 -7.04783 -2.73526 0
M  V30 3988 H 383.033 -6.75609 -3.88809 0
M  V30 3989 N 387.262 0.0317525 -1.57568 0
M  V30 3990 C 388.225 1.01783 -2.0536 0
M  V30 3991 C 389.225 1.29203 -0.957253 0
M  V30 3992 O 390.415 1.24251 -1.22095 0
M  V30 3993 C 387.547 2.35137 -2.46827 0
M  V30 3994 H 388.74 0.605062 -2.93733 0
M  V30 3995 H 386.293 0.278514 -1.53799 0
M  V30 3996 H 387.028 2.81168 -1.61602 0
M  V30 3997 H 386.813 2.16566 -3.26866 0
M  V30 3998 H 388.303 3.05938 -2.84239 0
M  V30 3999 N 388.74 1.54641 0.303973 0
M  V30 4000 C 389.98 1.75516 1.04755 0
M  V30 4001 C 390.344 0.528211 1.84591 0
M  V30 4002 O 391.545 0.614645 2.61678 0
M  V30 4003 C 389.816 3.00685 1.93193 0
M  V30 4004 S 391.375 3.42549 2.74237 0
M  V30 4005 H 388.193 0.616987 0.353339 0
M  V30 4006 H 390.795 1.92842 0.321292 0
M  V30 4007 H 389.499 3.8811 1.33411 0
M  V30 4008 H 389.03 2.85937 2.70191 0
M  V30 4009 H 391.045 2.99386 3.95705 0
M  V30 4010 N 390.218 -0.567019 1.47046 0
M  V30 4011 C 391.464 -1.32658 1.53394 0
M  V30 4012 C 391.797 -1.93254 0.19148 0
M  V30 4013 O 391.072 -1.77338 -0.798844 0
M  V30 4014 C 391.355 -2.44412 2.64452 0
M  V30 4015 C 391.208 -1.88749 4.08282 0
M  V30 4016 C 392.527 -3.46387 2.71485 0
M  V30 4017 H 389.646 -0.48098 0.558415 0
M  V30 4018 H 392.288 -0.635481 1.79058 0
M  V30 4019 H 390.438 -3.03363 2.427 0
M  V30 4020 H 392.11 -1.34134 4.41368 0
M  V30 4021 H 390.353 -1.19481 4.17021 0
M  V30 4022 H 391.024 -2.69491 4.81745 0
M  V30 4023 H 393.5 -2.9734 2.91081 0
M  V30 4024 H 392.376 -4.2202 3.50985 0
M  V30 4025 H 392.637 -4.04616 1.78153 0
M  V30 4026 N 391.696 -1.35014 -0.812953 0
M  V30 4027 C 392.973 -1.18502 -1.55617 0
M  V30 4028 C 393.353 0.238421 -2.09749 0
M  V30 4029 O 392.701 1.2411 -1.91857 0
M  V30 4030 C 392.911 -2.24783 -2.66971 0
M  V30 4031 C 394.259 -2.60268 -3.35478 0
M  V30 4032 O 395.283 -2.23648 -2.77236 0
M  V30 4033 O 394.142 -3.2321 -4.40678 0
M  V30 4034 H 391.236 -0.459984 -0.687272 0
M  V30 4035 H 393.782 -1.46677 -0.853464 0
M  V30 4036 H 392.554 -3.20284 -2.24798 0
M  V30 4037 H 392.177 -1.97841 -3.44884 0
M  V30 4038 N 393.175 1.03435 -1.18907 0
M  V30 4039 C 394.424 1.76143 -0.982669 0
M  V30 4040 C 394.737 1.89416 0.487953 0
M  V30 4041 O 395.943 2.59041 0.813036 0
M  V30 4042 C 394.399 3.16722 -1.70924 0
M  V30 4043 C 394.007 3.11522 -3.21959 0
M  V30 4044 C 395.751 3.93764 -1.58588 0
M  V30 4045 C 393.658 4.46999 -3.87228 0
M  V30 4046 H 392.588 0.660292 -0.364047 0
M  V30 4047 H 395.239 1.158 -1.42347 0
M  V30 4048 H 393.621 3.775 -1.19623 0
M  V30 4049 H 394.795 2.60158 -3.80335 0
M  V30 4050 H 393.11 2.47978 -3.34508 0
M  V30 4051 H 395.707 4.93963 -2.04707 0
M  V30 4052 H 396.05 4.12794 -0.539142 0
M  V30 4053 H 396.583 3.39576 -2.07203 0
M  V30 4054 H 393.322 4.33174 -4.91976 0
M  V30 4055 H 392.842 4.98441 -3.33642 0
M  V30 4056 H 394.521 5.15898 -3.90459 0
M  V30 4057 N 394.653 0.992116 1.22453 0
M  V30 4058 C 395.901 0.666215 1.90804 0
M  V30 4059 C 396.222 -0.804152 1.77647 0
M  V30 4060 O 395.492 -1.57629 1.16318 0
M  V30 4061 H 394.072 0.243423 0.706225 0
M  V30 4062 H 396.734 1.25845 1.48825 0
M  V30 4063 H 395.83 0.928069 2.97982 0
M  V30 4064 N 396.131 -1.37776 0.765217 0
M  V30 4065 C 397.361 -2.03828 0.337277 0
M  V30 4066 C 397.769 -1.57841 -1.04321 0
M  V30 4067 O 397.112 -0.752043 -1.67601 0
M  V30 4068 C 397.174 -3.58292 0.294407 0
M  V30 4069 C 396.838 -4.27384 1.61838 0
M  V30 4070 C 397.835 -4.51956 2.56967 0
M  V30 4071 C 395.52 -4.65345 1.89102 0
M  V30 4072 C 397.514 -5.13536 3.77571 0
M  V30 4073 C 395.201 -5.26647 3.09978 0
M  V30 4074 C 396.199 -5.50679 4.04032 0
M  V30 4075 O 395.887 -6.10702 5.2278 0
M  V30 4076 H 395.619 -0.661292 0.140248 0
M  V30 4077 H 398.173 -1.77222 1.03834 0
M  V30 4078 H 396.403 -3.83918 -0.462983 0
M  V30 4079 H 398.092 -4.05763 -0.105581 0
M  V30 4080 H 398.858 -4.23048 2.37183 0
M  V30 4081 H 394.737 -4.45978 1.16725 0
M  V30 4082 H 398.281 -5.3221 4.50997 0
M  V30 4083 H 394.178 -5.54979 3.29649 0
M  V30 4084 H 394.946 -6.29183 5.23517 0
M  V30 4085 N 397.609 -0.515225 -1.4894 0
M  V30 4086 C 399.025 -0.172099 -1.58669 0
M  V30 4087 C 399.225 1.32405 -1.51892 0
M  V30 4088 O 398.281 2.10116 -1.40027 0
M  V30 4089 C 399.594 -0.761533 -2.90897 0
M  V30 4090 C 401.142 -0.728926 -3.04394 0
M  V30 4091 C 401.617 -1.29667 -4.39261 0
M  V30 4092 N 403.108 -1.25799 -4.4579 0
M  V30 4093 C 403.843 -1.66733 -5.48623 0
M  V30 4094 N 403.339 -2.15327 -6.58488 0
M  V30 4095 N 405.132 -1.58061 -5.39419 0
M  V30 4096 H 397.283 -1.48778 -1.51588 0
M  V30 4097 H 399.546 -0.617968 -0.718901 0
M  V30 4098 H 399.252 -1.81136 -3.01468 0
M  V30 4099 H 399.126 -0.230106 -3.76497 0
M  V30 4100 H 401.513 0.312098 -2.93445 0
M  V30 4101 H 401.594 -1.29766 -2.20442 0
M  V30 4102 H 401.238 -2.33655 -4.50963 0
M  V30 4103 H 401.168 -0.703752 -5.21876 0
M  V30 4104 H 403.659 -0.902102 -3.66975 0
M  V30 4105 H 403.972 -2.44594 -7.33071 0
M  V30 4106 H 402.317 -2.19311 -6.59491 0
M  V30 4107 H 405.508 -1.19906 -4.52482 0
M  V30 4108 H 405.681 -1.90284 -6.19432 0
M  V30 4109 N 399.087 1.5561 -0.249682 0
M  V30 4110 C 400.335 1.98618 0.373548 0
M  V30 4111 C 400.656 1.13919 1.58264 0
M  V30 4112 O 399.926 0.222637 1.94631 0
M  V30 4113 H 398.506 0.733571 0.141006 0
M  V30 4114 H 401.168 1.91748 -0.349117 0
M  V30 4115 H 400.264 3.04584 0.680796 0
M  V30 4116 N 400.565 -0.0233959 1.57583 0
M  V30 4117 C 401.528 -1.00693 2.05897 0
M  V30 4118 C 402.528 -1.28693 0.964092 0
M  V30 4119 O 403.718 -1.23602 1.22753 0
M  V30 4120 C 400.85 -2.33825 2.4807 0
M  V30 4121 H 402.043 -0.589476 2.9405 0
M  V30 4122 H 399.596 -0.270354 1.53944 0
M  V30 4123 H 400.331 -2.80307 1.6309 0
M  V30 4124 H 400.116 -2.1483 3.2801 0
M  V30 4125 H 401.606 -3.04426 2.85857 0
M  V30 4126 N 402.043 -1.548 -0.295768 0
M  V30 4127 C 403.291 -1.73985 -1.02828 0
M  V30 4128 C 403.612 -0.531406 -1.87619 0
M  V30 4129 O 402.882 0.454221 -1.90561 0
M  V30 4130 H 401.462 -0.641556 -0.382642 0
M  V30 4131 H 404.124 -1.92163 -0.325489 0
M  V30 4132 H 403.22 -2.63129 -1.67838 0
M  V30 4133 N 403.521 0.559213 -1.47345 0
M  V30 4134 C 404.749 1.34194 -1.57479 0
M  V30 4135 C 405.164 1.87463 -0.224261 0
M  V30 4136 O 404.521 1.64888 0.782185 0
M  V30 4137 C 404.572 2.51324 -2.59843 0
M  V30 4138 O 404.293 2.00256 -3.89653 0
M  V30 4139 C 405.794 3.43563 -2.80142 0
M  V30 4140 H 403.014 0.409136 -0.531835 0
M  V30 4141 H 405.558 0.677609 -1.92947 0
M  V30 4142 H 403.713 3.13699 -2.27314 0
M  V30 4143 H 404.127 2.76708 -4.4557 0
M  V30 4144 H 405.601 4.2217 -3.55635 0
M  V30 4145 H 406.078 3.9698 -1.87892 0
M  V30 4146 H 406.684 2.87005 -3.1386 0
M  V30 4147 N 404.999 1.35443 0.805782 0
M  V30 4148 C 406.246 1.28761 1.56291 0
M  V30 4149 C 406.574 -0.137747 1.94012 0
M  V30 4150 O 405.829 -1.1032 1.61642 0
M  V30 4151 C 406.128 2.14045 2.86216 0
M  V30 4152 C 405.794 3.62826 2.67709 0
M  V30 4153 C 404.456 4.0338 2.6237 0
M  V30 4154 C 406.808 4.57227 2.50186 0
M  V30 4155 C 404.136 5.36501 2.37451 0
M  V30 4156 C 406.488 5.90547 2.26797 0
M  V30 4157 C 405.152 6.30245 2.1988 0
M  V30 4158 H 404.422 0.471171 0.571908 0
M  V30 4159 H 407.069 1.67347 0.930974 0
M  V30 4160 H 405.374 1.68342 3.53791 0
M  V30 4161 H 407.071 2.0621 3.43917 0
M  V30 4162 H 403.661 3.30644 2.72713 0
M  V30 4163 H 407.845 4.2678 2.53323 0
M  V30 4164 H 403.101 5.66259 2.30567 0
M  V30 4165 H 407.275 6.63274 2.12228 0
M  V30 4166 H 404.902 7.33328 2.00333 0
M  V30 4167 N 406.477 -1.02803 1.19454 0
M  V30 4168 C 407.387 -2.14575 0.948408 0
M  V30 4169 C 408.403 -1.73757 -0.091871 0
M  V30 4170 O 409.579 -2.01185 0.0929654 0
M  V30 4171 C 406.644 -3.43202 0.491265 0
M  V30 4172 C 405.705 -3.98328 1.60103 0
M  V30 4173 C 404.938 -5.20816 1.16561 0
M  V30 4174 O 405.161 -5.70392 0.0295238 0
M  V30 4175 O 404.095 -5.68801 1.96849 0
M  V30 4176 H 407.921 -2.38202 1.88397 0
M  V30 4177 H 405.506 -1.12989 0.977433 0
M  V30 4178 H 407.388 -4.20687 0.245015 0
M  V30 4179 H 406.063 -3.21018 -0.415851 0
M  V30 4180 H 404.97 -3.22174 1.90144 0
M  V30 4181 H 406.303 -4.24879 2.48473 0
M  V30 4182 N 407.956 -0.998596 -1.21925 0
M  V30 4183 C 409.203 -0.677663 -1.90824 0
M  V30 4184 C 409.531 0.790905 -1.77693 0
M  V30 4185 O 408.786 1.58817 -1.14349 0
M  V30 4186 C 409.085 -1.03648 -3.42041 0
M  V30 4187 C 408.751 -2.49825 -3.75364 0
M  V30 4188 C 407.413 -2.8977 -3.8417 0
M  V30 4189 C 409.765 -3.44545 -3.91073 0
M  V30 4190 C 407.093 -4.23412 -4.06127 0
M  V30 4191 C 409.445 -4.77853 -4.14535 0
M  V30 4192 C 408.109 -5.17531 -4.21566 0
M  V30 4193 H 407.379 -0.247975 -0.698276 0
M  V30 4194 H 410.026 -1.25584 -1.44571 0
M  V30 4195 H 408.331 -0.376457 -3.89987 0
M  V30 4196 H 410.028 -0.766113 -3.93614 0
M  V30 4197 H 406.618 -2.17866 -3.69097 0
M  V30 4198 H 410.802 -3.14853 -3.83642 0
M  V30 4199 H 406.058 -4.53734 -4.09799 0
M  V30 4200 H 410.232 -5.51189 -4.25633 0
M  V30 4201 H 407.859 -6.21102 -4.38333 0
M  V30 4202 N 409.434 1.37368 -0.772513 0
M  V30 4203 C 410.364 2.32856 -0.173304 0
M  V30 4204 C 411.345 1.55818 0.682262 0
M  V30 4205 O 412.53 1.84052 0.619566 0
M  V30 4206 C 409.66 3.40048 0.706007 0
M  V30 4207 C 408.614 4.27973 -0.0483144 0
M  V30 4208 C 407.94 5.26184 0.950491 0
M  V30 4209 C 409.24 5.07665 -1.22776 0
M  V30 4210 H 410.934 2.83217 -0.971002 0
M  V30 4211 H 408.48 1.3617 -0.468377 0
M  V30 4212 H 410.433 4.05827 1.13501 0
M  V30 4213 H 409.157 2.88214 1.53623 0
M  V30 4214 H 407.816 3.63726 -0.458107 0
M  V30 4215 H 407.464 4.7063 1.77529 0
M  V30 4216 H 407.164 5.85872 0.450314 0
M  V30 4217 H 408.688 5.94838 1.37842 0
M  V30 4218 H 410.102 5.66578 -0.875366 0
M  V30 4219 H 408.499 5.76681 -1.66007 0
M  V30 4220 H 409.569 4.40294 -2.03149 0
M  V30 4221 N 410.912 0.523116 1.48665 0
M  V30 4222 C 412.159 -0.0134763 2.02496 0
M  V30 4223 C 412.487 -1.3493 1.40086 0
M  V30 4224 O 411.742 -1.88286 0.533567 0
M  V30 4225 C 412.041 -0.191671 3.56886 0
M  V30 4226 C 411.707 1.06893 4.38046 0
M  V30 4227 C 410.369 1.41443 4.59943 0
M  V30 4228 C 412.721 1.90584 4.85106 0
M  V30 4229 C 410.049 2.59594 5.26144 0
M  V30 4230 C 412.401 3.07907 5.52609 0
M  V30 4231 C 411.065 3.42811 5.72745 0
M  V30 4232 H 410.335 -0.00493133 0.740984 0
M  V30 4233 H 412.982 0.687751 1.78724 0
M  V30 4234 H 411.287 -0.97561 3.79459 0
M  V30 4235 H 412.984 -0.621659 3.96152 0
M  V30 4236 H 409.574 0.789848 4.21259 0
M  V30 4237 H 413.758 1.65203 4.67997 0
M  V30 4238 H 409.014 2.86847 5.39934 0
M  V30 4239 H 413.188 3.73066 5.88043 0
M  V30 4240 H 410.815 4.34462 6.23816 0
M  V30 4241 N 412.39 -1.55475 0.257931 0
M  V30 4242 C 413.3 -2.2549 -0.647425 0
M  V30 4243 C 414.316 -1.2748 -1.18427 0
M  V30 4244 O 415.492 -1.6038 -1.2182 0
M  V30 4245 C 412.557 -2.94916 -1.82278 0
M  V30 4246 C 411.618 -4.08363 -1.32432 0
M  V30 4247 C 410.851 -4.74469 -2.44366 0
M  V30 4248 O 411.074 -4.39701 -3.63344 0
M  V30 4249 O 410.008 -5.62763 -2.13497 0
M  V30 4250 H 413.834 -3.03593 -0.0807707 0
M  V30 4251 H 411.419 -1.49377 0.0259962 0
M  V30 4252 H 413.301 -3.38606 -2.50846 0
M  V30 4253 H 411.976 -2.19744 -2.37685 0
M  V30 4254 H 410.883 -3.69166 -0.605605 0
M  V30 4255 H 412.216 -4.85385 -0.816211 0
M  V30 4256 N 413.868 0.0150385 -1.57593 0
M  V30 4257 C 414.816 1.02958 -2.08572 0
M  V30 4258 C 415.81 1.36554 -1.00246 0
M  V30 4259 O 417.016 1.35295 -1.18724 0
M  V30 4260 H 413.391 0.349619 -0.665786 0
M  V30 4261 H 415.362 0.573932 -2.92829 0
M  V30 4262 C 414.111 2.31752 -2.59203 0
M  V30 4263 H 413.434 2.06765 -3.42182 0
M  V30 4264 H 414.874 3.01053 -2.98568 0
M  V30 4265 C 413.333 3.01692 -1.49945 0
M  V30 4266 O 413.863 3.92083 -0.873704 0
M  V30 4267 N 412.069 2.6326 -1.23056 0
M  V30 4268 H 411.616 1.89838 -1.74125 0
M  V30 4269 H 411.574 3.10372 -0.501685 0
M  V30 4270 N 415.346 1.54954 0.287554 0
M  V30 4271 C 416.594 1.74528 1.01904 0
M  V30 4272 C 416.915 0.541349 1.87335 0
M  V30 4273 O 416.185 -0.444108 1.908 0
M  V30 4274 H 414.765 0.643576 0.379235 0
M  V30 4275 H 417.427 1.92333 0.315294 0
M  V30 4276 H 416.523 2.64015 1.6644 0
M  V30 4277 N 416.824 -0.551391 1.4764 0
M  V30 4278 C 417.734 -1.68525 1.63207 0
M  V30 4279 C 418.75 -1.6621 0.514815 0
M  V30 4280 O 419.926 -1.85551 0.783113 0
M  V30 4281 C 416.991 -3.05025 1.64805 0
M  V30 4282 C 416.052 -3.18362 2.88 0
M  V30 4283 C 415.285 -4.4835 2.89513 0
M  V30 4284 O 415.508 -5.34163 2.00065 0
M  V30 4285 O 414.442 -4.65602 3.81443 0
M  V30 4286 H 418.268 -1.58333 2.59161 0
M  V30 4287 H 415.853 -0.722063 1.30792 0
M  V30 4288 H 417.735 -3.86245 1.68502 0
M  V30 4289 H 416.41 -3.15587 0.720197 0
M  V30 4290 H 415.317 -2.36518 2.89845 0
M  V30 4291 H 416.65 -3.12707 3.80099 0
M  V30 4292 N 418.302 -1.35869 -0.798587 0
M  V30 4293 C 419.549 -1.29588 -1.55606 0
M  V30 4294 C 419.877 0.127456 -1.94082 0
M  V30 4295 O 419.132 1.09461 -1.62225 0
M  V30 4296 C 419.431 -2.1556 -2.85077 0
M  V30 4297 C 419.097 -3.6424 -2.65781 0
M  V30 4298 C 417.759 -4.04766 -2.60227 0
M  V30 4299 C 420.111 -4.58547 -2.47758 0
M  V30 4300 C 417.439 -5.37753 -2.34603 0
M  V30 4301 C 419.791 -5.91742 -2.23662 0
M  V30 4302 C 418.455 -6.31402 -2.16534 0
M  V30 4303 H 417.725 -0.474197 -0.569402 0
M  V30 4304 H 420.372 -1.67839 -0.922086 0
M  V30 4305 H 418.677 -1.70216 -3.52893 0
M  V30 4306 H 420.374 -2.08031 -3.42818 0
M  V30 4307 H 416.964 -3.32086 -2.70956 0
M  V30 4308 H 421.148 -4.28117 -2.51056 0
M  V30 4309 H 416.404 -5.67474 -2.2756 0
M  V30 4310 H 420.578 -6.6439 -2.08708 0
M  V30 4311 H 418.205 -7.34381 -1.96441 0
M  V30 4312 N 419.78 1.02168 -1.19998 0
M  V30 4313 C 421.01 1.79036 -1.031 0
M  V30 4314 C 421.418 1.84409 0.423078 0
M  V30 4315 O 420.761 1.29228 1.30559 0
M  V30 4316 C 420.823 3.25185 -1.53281 0
M  V30 4317 C 420.487 3.43431 -3.01503 0
M  V30 4318 C 421.484 3.33063 -3.99206 0
M  V30 4319 C 419.169 3.69412 -3.40353 0
M  V30 4320 C 421.163 3.48413 -5.33748 0
M  V30 4321 C 418.85 3.84406 -4.75053 0
M  V30 4322 C 419.848 3.7391 -5.71559 0
M  V30 4323 O 419.536 3.88452 -7.03818 0
M  V30 4324 H 419.268 0.570043 -0.363355 0
M  V30 4325 H 421.822 1.29524 -1.59414 0
M  V30 4326 H 420.052 3.75756 -0.913483 0
M  V30 4327 H 421.741 3.83671 -1.32481 0
M  V30 4328 H 422.507 3.12934 -3.70537 0
M  V30 4329 H 418.386 3.76671 -2.65782 0
M  V30 4330 H 421.93 3.40137 -6.09059 0
M  V30 4331 H 417.827 4.04035 -5.03415 0
M  V30 4332 H 418.595 4.055 -7.10993 0
M  V30 4333 N 421.258 1.00505 1.21394 0
M  V30 4334 C 422.505 0.687774 1.90462 0
M  V30 4335 C 422.833 -0.78147 1.7811 0
M  V30 4336 O 422.088 -1.58208 1.1519 0
M  V30 4337 C 422.387 1.0546 3.41486 0
M  V30 4338 C 422.053 2.51812 3.74034 0
M  V30 4339 C 420.715 2.91804 3.82628 0
M  V30 4340 C 423.067 3.46614 3.8924 0
M  V30 4341 C 420.395 4.2556 4.03876 0
M  V30 4342 C 422.747 4.80044 4.11995 0
M  V30 4343 C 421.411 5.19759 4.18816 0
M  V30 4344 H 420.681 0.251674 0.696951 0
M  V30 4345 H 423.328 1.26349 1.43903 0
M  V30 4346 H 421.633 0.397133 3.89782 0
M  V30 4347 H 423.33 0.786976 3.93202 0
M  V30 4348 H 419.92 2.1982 3.67936 0
M  V30 4349 H 424.104 3.16883 3.81967 0
M  V30 4350 H 419.36 4.55901 4.07387 0
M  V30 4351 H 423.534 5.53439 4.22704 0
M  V30 4352 H 421.161 6.23418 4.35033 0
M  V30 4353 N 422.737 -1.36956 0.779787 0
M  V30 4354 C 423.986 -1.98738 0.344405 0
M  V30 4355 C 424.299 -1.62596 -1.08728 0
M  V30 4356 O 425.505 -2.1754 -1.62445 0
M  V30 4357 C 423.961 -3.5544 0.564829 0
M  V30 4358 C 423.569 -4.00514 2.0073 0
M  V30 4359 C 425.313 -4.24059 0.193471 0
M  V30 4360 C 423.22 -5.49957 2.17489 0
M  V30 4361 H 422.15 -0.743561 0.12503 0
M  V30 4362 H 424.801 -1.56381 0.960057 0
M  V30 4363 H 423.183 -3.95817 -0.120397 0
M  V30 4364 H 424.357 -3.71362 2.72814 0
M  V30 4365 H 422.672 -3.44703 2.336 0
M  V30 4366 H 425.269 -5.33874 0.297097 0
M  V30 4367 H 425.612 -4.07378 -0.857263 0
M  V30 4368 H 426.145 -3.89012 0.831556 0
M  V30 4369 H 422.884 -5.71574 3.2091 0
M  V30 4370 H 422.404 -5.80767 1.49899 0
M  V30 4371 H 424.083 -6.16043 1.97738 0
M  V30 4372 N 424.215 -0.530993 -1.48385 0
M  V30 4373 C 425.125 0.23503 -2.3342 0
M  V30 4374 C 426.141 0.93801 -1.46552 0
M  V30 4375 O 427.317 0.912745 -1.7953 0
M  V30 4376 C 424.382 1.26778 -3.22689 0
M  V30 4377 C 423.443 0.575038 -4.25431 0
M  V30 4378 C 422.676 1.55858 -5.10435 0
M  V30 4379 O 422.899 2.79129 -4.97437 0
M  V30 4380 O 421.833 1.09742 -5.91811 0
M  V30 4381 H 425.659 -0.461794 -3.00169 0
M  V30 4382 H 423.244 -0.291903 -1.46521 0
M  V30 4383 H 425.126 1.86457 -3.77904 0
M  V30 4384 H 423.801 1.94699 -2.586 0
M  V30 4385 H 422.708 -0.0622782 -3.74048 0
M  V30 4386 H 424.041 -0.062253 -4.92161 0
M  V30 4387 N 425.693 1.55336 -0.266172 0
M  V30 4388 C 426.626 2.18256 0.666296 0
M  V30 4389 C 427.604 1.14064 1.1588 0
M  V30 4390 O 428.788 1.42546 1.23341 0
M  V30 4391 C 425.915 2.79867 1.90768 0
M  V30 4392 C 424.961 3.97283 1.55141 0
M  V30 4393 S 425.794 5.31694 0.637313 0
M  V30 4394 C 426.95 5.96769 1.88727 0
M  V30 4395 H 427.183 2.97008 0.131647 0
M  V30 4396 H 424.716 1.54317 -0.0504869 0
M  V30 4397 H 426.674 3.15996 2.62025 0
M  V30 4398 H 425.335 2.01025 2.41346 0
M  V30 4399 H 424.528 4.3905 2.4749 0
M  V30 4400 H 424.13 3.6253 0.919113 0
M  V30 4401 H 426.422 6.15458 2.83227 0
M  V30 4402 H 427.365 6.91752 1.51276 0
M  V30 4403 H 427.773 5.26034 2.04814 0
M  V30 4404 N 427.171 -0.0066808 1.57599 0
M  V30 4405 C 428.119 -1.01851 2.09115 0
M  V30 4406 C 429.113 -1.36021 1.00969 0
M  V30 4407 O 430.319 -1.34663 1.19439 0
M  V30 4408 H 426.694 -0.346083 0.667631 0
M  V30 4409 H 428.665 -0.558394 2.93129 0
M  V30 4410 C 427.414 -2.30374 2.60429 0
M  V30 4411 H 426.737 -2.04947 3.43273 0
M  V30 4412 H 428.177 -2.99466 3.00161 0
M  V30 4413 C 426.636 -3.00893 1.51542 0
M  V30 4414 O 427.166 -3.91614 0.894484 0
M  V30 4415 N 425.372 -2.62603 1.2445 0
M  V30 4416 H 424.919 -1.88911 1.75129 0
M  V30 4417 H 424.877 -3.10101 0.518137 0
M  V30 4418 N 428.649 -1.55105 -0.279332 0
M  V30 4419 C 429.877 -1.7943 -1.03017 0
M  V30 4420 C 430.292 -0.564456 -1.80165 0
M  V30 4421 O 429.649 0.466326 -1.76442 0
M  V30 4422 C 429.7 -3.0155 -1.99374 0
M  V30 4423 O 429.421 -4.19784 -1.25352 0
M  V30 4424 C 430.922 -3.3843 -2.86321 0
M  V30 4425 H 428.142 -0.597882 -0.304594 0
M  V30 4426 H 430.686 -2.02105 -0.312035 0
M  V30 4427 H 428.841 -2.81019 -2.66659 0
M  V30 4428 H 429.255 -4.88781 -1.90246 0
M  V30 4429 H 430.729 -4.27066 -3.49741 0
M  V30 4430 H 431.206 -2.57549 -3.5576 0
M  V30 4431 H 431.812 -3.61197 -2.24536 0
M  V30 4432 N 430.127 0.543554 -1.4793 0
M  V30 4433 C 431.543 0.870806 -1.3375 0
M  V30 4434 C 431.743 1.9864 -0.338261 0
M  V30 4435 O 430.799 2.51305 0.245371 0
M  V30 4436 C 432.112 1.25114 -2.73435 0
M  V30 4437 C 433.66 1.3618 -2.81823 0
M  V30 4438 C 434.135 1.77563 -4.22179 0
M  V30 4439 N 435.626 1.8469 -4.24787 0
M  V30 4440 C 436.361 2.18067 -5.30315 0
M  V30 4441 N 435.857 2.49963 -6.46135 0
M  V30 4442 N 437.65 2.18958 -5.17701 0
M  V30 4443 H 429.801 -0.19275 -2.11524 0
M  V30 4444 H 432.064 -0.0235777 -0.947707 0
M  V30 4445 H 431.77 0.50514 -3.48053 0
M  V30 4446 H 431.644 2.20431 -3.06088 0
M  V30 4447 H 434.031 2.09859 -2.07468 0
M  V30 4448 H 434.112 0.390169 -2.52807 0
M  V30 4449 H 433.756 1.04449 -4.97044 0
M  V30 4450 H 433.686 2.75753 -4.48629 0
M  V30 4451 H 436.177 1.62372 -3.41239 0
M  V30 4452 H 436.49 2.74497 -7.22406 0
M  V30 4453 H 434.835 2.47513 -6.49432 0
M  V30 4454 H 438.026 1.93488 -4.2624 0
M  V30 4455 H 438.199 2.44639 -6.00047 0
M  V30 4456 N 431.605 1.3629 0.791371 0
M  V30 4457 C 432.854 1.29742 1.54434 0
M  V30 4458 C 433.167 -0.121729 1.95221 0
M  V30 4459 O 434.373 -0.309579 2.69729 0
M  V30 4460 C 432.829 2.27623 2.78776 0
M  V30 4461 C 432.437 3.74963 2.45166 0
M  V30 4462 C 434.181 2.30047 3.56761 0
M  V30 4463 C 432.088 4.64626 3.65891 0
M  V30 4464 H 431.018 0.482113 0.579727 0
M  V30 4465 H 433.669 1.61642 0.868565 0
M  V30 4466 H 432.051 1.88714 3.48142 0
M  V30 4467 H 433.225 4.22596 1.83709 0
M  V30 4468 H 431.54 3.75295 1.80396 0
M  V30 4469 H 434.137 2.94247 4.46456 0
M  V30 4470 H 434.48 1.30846 3.95203 0
M  V30 4471 H 435.013 2.67563 2.94372 0
M  V30 4472 H 431.752 5.64883 3.32547 0
M  V30 4473 H 431.272 4.2171 4.26521 0
M  V30 4474 H 432.951 4.80801 4.32943 0
M  V30 4475 N 433.083 -1.0153 1.20538 0
M  V30 4476 C 434.015 -2.10224 0.913155 0
M  V30 4477 C 435.028 -1.62495 -0.0995998 0
M  V30 4478 O 436.217 -1.78014 0.131582 0
M  V30 4479 C 433.317 -3.37111 0.347717 0
M  V30 4480 C 432.49 -4.13971 1.41233 0
M  V30 4481 C 431.549 -5.19158 0.857976 0
M  V30 4482 O 430.575 -5.48 1.53897 0
M  V30 4483 N 431.777 -5.7955 -0.331966 0
M  V30 4484 H 434.542 -2.35879 1.84881 0
M  V30 4485 H 432.103 -1.17931 1.10923 0
M  V30 4486 H 434.095 -4.04683 -0.0373026 0
M  V30 4487 H 432.665 -3.08696 -0.492527 0
M  V30 4488 H 431.885 -3.41351 1.97163 0
M  V30 4489 H 433.173 -4.62103 2.12928 0
M  V30 4490 H 432.571 -5.58455 -0.902478 0
M  V30 4491 H 431.128 -6.48464 -0.65861 0
M  V30 4492 N 434.561 -1.01147 -1.20859 0
M  V30 4493 C 435.807 -0.698899 -1.90377 0
M  V30 4494 C 436.14 0.76904 -1.78324 0
M  V30 4495 O 435.415 1.55817 -1.16409 0
M  V30 4496 C 435.698 -1.12878 -3.41951 0
M  V30 4497 C 435.551 -2.65665 -3.62963 0
M  V30 4498 C 436.87 -0.696114 -4.3456 0
M  V30 4499 H 433.989 -0.255372 -0.691342 0
M  V30 4500 H 436.631 -1.25831 -1.42361 0
M  V30 4501 H 434.781 -0.652827 -3.82976 0
M  V30 4502 H 436.453 -3.21074 -3.31224 0
M  V30 4503 H 434.696 -3.06878 -3.06608 0
M  V30 4504 H 435.367 -2.90797 -4.69192 0
M  V30 4505 H 437.843 -1.10521 -4.01154 0
M  V30 4506 H 436.719 -1.025 -5.39245 0
M  V30 4507 H 436.98 0.402465 -4.40264 0
M  V30 4508 N 436.039 1.36541 -0.78704 0
M  V30 4509 C 436.949 2.3387 -0.184896 0
M  V30 4510 C 437.965 1.60927 0.661697 0
M  V30 4511 O 439.141 1.92927 0.57804 0
M  V30 4512 C 436.206 3.40122 0.672145 0
M  V30 4513 C 435.267 4.28867 -0.19267 0
M  V30 4514 C 434.5 5.30045 0.623561 0
M  V30 4515 O 434.723 5.39232 1.8597 0
M  V30 4516 O 433.657 6.01895 0.0247068 0
M  V30 4517 H 437.483 2.87126 -0.989562 0
M  V30 4518 H 435.068 1.38969 -0.548455 0
M  V30 4519 H 436.95 4.05093 1.16094 0
M  V30 4520 H 435.625 2.89169 1.45474 0
M  V30 4521 H 434.532 3.66945 -0.728166 0
M  V30 4522 H 435.865 4.83165 -0.938722 0
M  V30 4523 N 437.518 0.538854 1.48102 0
M  V30 4524 C 438.468 -0.23907 2.26743 0
M  V30 4525 C 439.452 -0.901923 1.33245 0
M  V30 4526 O 440.644 -0.803263 1.57723 0
M  V30 4527 C 437.773 -1.2799 3.18549 0
M  V30 4528 C 436.859 -0.621388 4.19523 0
M  V30 4529 N 437.25 0.298004 5.04921 0
M  V30 4530 C 435.548 -0.877533 4.37282 0
M  V30 4531 C 436.249 0.678757 5.77726 0
M  V30 4532 N 435.225 0.0377881 5.43587 0
M  V30 4533 H 439.027 0.468096 2.90148 0
M  V30 4534 H 436.541 0.357497 1.58416 0
M  V30 4535 H 438.538 -1.851 3.73555 0
M  V30 4536 H 437.198 -1.98835 2.567 0
M  V30 4537 H 438.209 0.671126 5.13533 0
M  V30 4538 H 434.886 -1.57588 3.86616 0
M  V30 4539 H 436.276 1.43316 6.56437 0
M  V30 4540 N 438.996 -1.55193 0.274407 0
M  V30 4541 C 440.407 -1.85358 -0.223488 0
M  V30 4542 C 440.758 -1.19642 -1.555 0
M  V30 4543 O 439.883 -0.484498 -2.10907 0
M  V30 4544 C 440.478 -3.36282 -0.412285 0
M  V30 4545 C 439.037 -3.66574 -0.854413 0
M  V30 4546 C 438.184 -2.7725 0.0527056 0
M  V30 4547 H 441.135 -1.50743 0.496215 0
M  V30 4548 H 441.156 -3.59349 -1.25094 0
M  V30 4549 H 440.668 -3.84083 0.556965 0
M  V30 4550 H 438.769 -3.24273 -1.83516 0
M  V30 4551 H 438.882 -4.74073 -0.692226 0
M  V30 4552 H 437.246 -2.50447 -0.463484 0
M  V30 4553 H 438.029 -3.27865 1.01783 0
M  V30 4554 N 440.474 -0.00167713 -1.576 0
M  V30 4555 C 441.72 0.683832 -1.90923 0
M  V30 4556 C 442.053 1.7333 -0.875799 0
M  V30 4557 O 441.328 1.94215 0.10525 0
M  V30 4558 C 441.611 1.32543 -3.3482 0
M  V30 4559 C 441.464 0.287387 -4.48881 0
M  V30 4560 C 442.783 2.25114 -3.78169 0
M  V30 4561 H 439.902 0.247125 -0.694333 0
M  V30 4562 H 442.544 -0.0533149 -1.89925 0
M  V30 4563 H 440.694 1.95372 -3.35801 0
M  V30 4564 H 442.366 -0.341346 -4.60035 0
M  V30 4565 H 440.609 -0.39017 -4.32042 0
M  V30 4566 H 441.28 0.775393 -5.46527 0
M  V30 4567 H 443.756 1.723 -3.7875 0
M  V30 4568 H 442.632 2.66971 -4.79602 0
M  V30 4569 H 442.893 3.13092 -3.12131 0
M  V30 4570 N 441.952 1.55251 0.271103 0
M  V30 4571 C 443.18 1.79974 1.02064 0
M  V30 4572 C 443.595 0.574003 1.79863 0
M  V30 4573 O 442.952 -0.456962 1.76686 0
M  V30 4574 C 443.003 3.02603 1.97772 0
M  V30 4575 O 442.724 4.20443 1.23124 0
M  V30 4576 C 444.225 3.39944 2.84522 0
M  V30 4577 H 441.445 0.599489 0.301419 0
M  V30 4578 H 443.989 2.02268 0.301313 0
M  V30 4579 H 442.144 2.8243 2.65165 0
M  V30 4580 H 442.558 4.89783 1.87651 0
M  V30 4581 H 444.032 4.28915 3.47471 0
M  V30 4582 H 444.509 2.59432 3.54389 0
M  V30 4583 H 445.115 3.62383 2.22618 0
M  V30 4584 N 443.43 -0.535701 1.48216 0
M  V30 4585 C 444.34 -1.66785 1.64985 0
M  V30 4586 C 445.356 -1.65654 0.532414 0
M  V30 4587 O 446.532 -1.8471 0.80275 0
M  V30 4588 C 443.597 -3.0326 1.68031 0
M  V30 4589 C 442.658 -3.1529 2.9136 0
M  V30 4590 C 441.891 -4.45255 2.94252 0
M  V30 4591 O 442.114 -5.32011 2.05719 0
M  V30 4592 O 441.048 -4.6153 3.86359 0
M  V30 4593 H 444.874 -1.55576 2.60825 0
M  V30 4594 H 442.459 -0.70815 1.31551 0
M  V30 4595 H 444.341 -3.84436 1.72589 0
M  V30 4596 H 443.016 -3.14805 0.753628 0
M  V30 4597 H 441.923 -2.3343 2.92337 0
M  V30 4598 H 443.256 -3.08658 3.83394 0
M  V30 4599 N 444.908 -1.36708 -0.784132 0
M  V30 4600 C 445.841 -1.25827 -1.90375 0
M  V30 4601 C 446.819 -0.141331 -1.61985 0
M  V30 4602 O 448.003 -0.313389 -1.85877 0
M  V30 4603 C 445.13 -0.942621 -3.25319 0
M  V30 4604 C 444.176 -2.07474 -3.72635 0
M  V30 4605 S 445.009 -3.69317 -3.8777 0
M  V30 4606 C 446.165 -3.39876 -5.25581 0
M  V30 4607 H 446.398 -2.20593 -1.99314 0
M  V30 4608 H 443.931 -1.22186 -0.943926 0
M  V30 4609 H 445.889 -0.767321 -4.03265 0
M  V30 4610 H 444.55 -0.0126566 -3.14097 0
M  V30 4611 H 443.743 -1.80858 -4.70432 0
M  V30 4612 H 443.345 -2.20953 -3.01754 0
M  V30 4613 H 445.637 -2.94097 -6.10339 0
M  V30 4614 H 446.58 -4.36956 -5.57203 0
M  V30 4615 H 446.988 -2.75098 -4.92931 0
M  V30 4616 N 446.386 1.0089 -1.21074 0
M  V30 4617 C 447.635 1.74019 -1.01981 0
M  V30 4618 C 447.948 1.90408 0.447665 0
M  V30 4619 O 449.154 2.60707 0.757906 0
M  V30 4620 C 447.61 3.13026 -1.77603 0
M  V30 4621 C 447.218 3.04623 -3.28495 0
M  V30 4622 C 448.962 3.90312 -1.66904 0
M  V30 4623 C 446.869 4.38685 -3.96623 0
M  V30 4624 H 445.799 0.652422 -0.377971 0
M  V30 4625 H 448.45 1.12755 -1.44771 0
M  V30 4626 H 446.832 3.74878 -1.27604 0
M  V30 4627 H 448.006 2.52032 -3.85767 0
M  V30 4628 H 446.321 2.40827 -3.39693 0
M  V30 4629 H 448.918 4.8951 -2.15138 0
M  V30 4630 H 449.261 4.11558 -0.62658 0
M  V30 4631 H 449.794 3.35104 -2.14359 0
M  V30 4632 H 446.533 4.22641 -5.01054 0
M  V30 4633 H 446.053 4.91252 -3.4414 0
M  V30 4634 H 447.732 5.075 -4.01314 0
M  V30 4635 N 447.864 1.01787 1.20321 0
M  V30 4636 C 449.092 0.727194 1.937 0
M  V30 4637 C 449.507 -0.712305 1.74848 0
M  V30 4638 O 448.864 -1.48327 1.06327 0
M  V30 4639 C 448.915 1.05497 3.45764 0
M  V30 4640 O 448.636 2.43794 3.64 0
M  V30 4641 C 450.137 0.785534 4.36285 0
M  V30 4642 H 447.357 0.266939 0.615617 0
M  V30 4643 H 449.901 1.35939 1.52777 0
M  V30 4644 H 448.056 0.468158 3.84561 0
M  V30 4645 H 448.47 2.55656 4.57974 0
M  V30 4646 H 449.944 1.06495 5.4163 0
M  V30 4647 H 450.421 -0.280273 4.38305 0
M  V30 4648 H 451.027 1.35456 4.03152 0
M  V30 4649 N 449.342 -1.36122 0.79427 0
M  V30 4650 C 450.59 -1.98718 0.368177 0
M  V30 4651 C 450.911 -1.63345 -1.06506 0
M  V30 4652 O 450.181 -0.909825 -1.73491 0
M  V30 4653 H 448.761 -0.735038 0.133146 0
M  V30 4654 H 451.423 -1.66239 1.01739 0
M  V30 4655 H 450.519 -3.08633 0.463923 0
M  V30 4656 N 450.82 -0.546701 -1.47814 0
M  V30 4657 C 452.066 -0.0187684 -2.02791 0
M  V30 4658 C 452.399 1.32338 -1.42128 0
M  V30 4659 O 451.674 1.85867 -0.573023 0
M  V30 4660 C 451.957 0.0854985 -3.59998 0
M  V30 4661 C 451.81 -1.283 -4.31114 0
M  V30 4662 C 453.129 0.80412 -4.32691 0
M  V30 4663 H 450.248 -0.0082946 -0.736953 0
M  V30 4664 H 452.89 -0.706962 -1.76358 0
M  V30 4665 H 451.04 0.671609 -3.82651 0
M  V30 4666 H 452.712 -1.91151 -4.19832 0
M  V30 4667 H 450.955 -1.86049 -3.91878 0
M  V30 4668 H 451.626 -1.16287 -5.39612 0
M  V30 4669 H 454.102 0.306576 -4.14969 0
M  V30 4670 H 452.978 0.846011 -5.42341 0
M  V30 4671 H 453.239 1.85802 -4.01161 0
M  V30 4672 N 452.299 1.55045 -0.282633 0
M  V30 4673 C 453.576 1.9179 0.384166 0
M  V30 4674 C 453.956 1.20778 1.73136 0
M  V30 4675 O 453.304 0.33719 2.25998 0
M  V30 4676 C 453.514 3.45149 0.517014 0
M  V30 4677 C 454.862 4.17064 0.796427 0
M  V30 4678 O 455.886 3.51084 0.601535 0
M  V30 4679 O 454.745 5.33837 1.16962 0
M  V30 4680 H 451.839 0.799483 0.211558 0
M  V30 4681 H 454.385 1.66474 -0.32934 0
M  V30 4682 H 453.157 3.88922 -0.430772 0
M  V30 4683 H 452.78 3.76443 1.2797 0
M  V30 4684 N 453.777 0.010035 1.57597 0
M  V30 4685 C 454.707 -0.976857 2.12084 0
M  V30 4686 C 455.688 -1.35191 1.03235 0
M  V30 4687 O 456.873 -1.43389 1.3097 0
M  V30 4688 C 454.003 -2.26548 2.63236 0
M  V30 4689 C 452.957 -2.03175 3.76701 0
M  V30 4690 C 452.283 -3.38138 4.14206 0
M  V30 4691 C 453.583 -1.38625 5.03568 0
M  V30 4692 H 455.277 -0.523145 2.94794 0
M  V30 4693 H 452.823 -0.250195 1.4181 0
M  V30 4694 H 454.776 -2.95952 2.99984 0
M  V30 4695 H 453.5 -2.74051 1.77661 0
M  V30 4696 H 452.159 -1.36195 3.40362 0
M  V30 4697 H 451.807 -3.83363 3.25641 0
M  V30 4698 H 451.507 -3.23312 4.90656 0
M  V30 4699 H 453.031 -4.08841 4.53521 0
M  V30 4700 H 454.445 -1.98 5.38023 0
M  V30 4701 H 452.842 -1.34256 5.84889 0
M  V30 4702 H 453.912 -0.356722 4.83586 0
M  V30 4703 N 455.255 -1.55392 -0.262866 0
M  V30 4704 C 456.504 -1.75679 -0.990943 0
M  V30 4705 C 456.817 -0.57097 -1.87081 0
M  V30 4706 O 458.023 -0.656486 -2.63444 0
M  V30 4707 C 456.479 -3.10964 -1.81188 0
M  V30 4708 C 456.087 -4.37146 -0.980188 0
M  V30 4709 C 457.831 -3.40597 -2.53365 0
M  V30 4710 C 455.738 -5.63466 -1.7961 0
M  V30 4711 H 454.668 -0.654868 -0.373716 0
M  V30 4712 H 457.319 -1.81841 -0.246203 0
M  V30 4713 H 455.701 -2.98867 -2.59797 0
M  V30 4714 H 456.875 -4.60187 -0.237558 0
M  V30 4715 H 455.19 -4.14731 -0.372497 0
M  V30 4716 H 457.787 -4.32186 -3.14833 0
M  V30 4717 H 458.13 -2.6119 -3.24169 0
M  V30 4718 H 458.663 -3.53838 -1.81779 0
M  V30 4719 H 455.402 -6.4565 -1.13209 0
M  V30 4720 H 454.922 -5.44552 -2.51443 0
M  V30 4721 H 456.601 -6.02139 -2.36723 0
M  V30 4722 N 456.733 0.527833 -1.48498 0
M  V30 4723 C 457.68 1.6322 -1.6318 0
M  V30 4724 C 458.65 1.59199 -0.473815 0
M  V30 4725 O 459.835 1.77591 -0.697563 0
M  V30 4726 C 456.975 3.01474 -1.67951 0
M  V30 4727 C 456.088 3.15713 -2.94871 0
M  V30 4728 C 455.223 4.44539 -2.90789 0
M  V30 4729 C 454.262 4.52315 -4.12404 0
M  V30 4730 N 453.399 5.72533 -4.06387 0
M  V30 4731 H 458.239 1.50011 -2.57489 0
M  V30 4732 H 455.776 0.730298 -1.27691 0
M  V30 4733 H 457.734 3.81572 -1.68698 0
M  V30 4734 H 456.364 3.1345 -0.771306 0
M  V30 4735 H 455.416 2.28854 -3.03859 0
M  V30 4736 H 456.728 3.1732 -3.8485 0
M  V30 4737 H 455.882 5.3293 -2.89949 0
M  V30 4738 H 454.621 4.45457 -1.98542 0
M  V30 4739 H 453.626 3.62331 -4.13517 0
M  V30 4740 H 454.851 4.53134 -5.05812 0
M  V30 4741 H 452.797 5.74344 -3.16962 0
M  V30 4742 H 452.714 5.75643 -4.90073 0
M  V30 4743 H 453.982 6.63204 -4.0961 0
M  V30 4744 N 458.211 1.37122 0.776871 0
M  V30 4745 C 459.121 1.34651 1.9211 0
M  V30 4746 C 460.137 0.246824 1.7224 0
M  V30 4747 O 461.313 0.48134 1.95563 0
M  V30 4748 C 458.378 1.14748 3.2716 0
M  V30 4749 C 457.439 2.34308 3.5972 0
M  V30 4750 C 456.672 2.15345 4.88326 0
M  V30 4751 O 456.895 1.13507 5.58992 0
M  V30 4752 O 455.829 3.03414 5.1983 0
M  V30 4753 H 459.655 2.31013 1.97146 0
M  V30 4754 H 457.24 1.17799 0.918901 0
M  V30 4755 H 459.122 1.05616 4.0795 0
M  V30 4756 H 457.797 0.214562 3.22988 0
M  V30 4757 H 456.704 2.49011 2.79185 0
M  V30 4758 H 458.037 3.26149 3.68629 0
M  V30 4759 N 459.689 -1.00246 1.21608 0
M  V30 4760 C 460.621 -2.09244 0.935401 0
M  V30 4761 C 461.634 -1.62592 -0.0823594 0
M  V30 4762 O 462.823 -1.77865 0.150456 0
M  V30 4763 C 459.923 -3.36724 0.383453 0
M  V30 4764 C 459.096 -4.1245 1.45615 0
M  V30 4765 C 458.155 -5.18219 0.912991 0
M  V30 4766 O 457.181 -5.46337 1.59701 0
M  V30 4767 N 458.383 -5.7987 -0.270478 0
M  V30 4768 H 461.148 -2.33905 1.87373 0
M  V30 4769 H 458.709 -1.16748 1.12167 0
M  V30 4770 H 460.701 -4.047 0.00562157 0
M  V30 4771 H 459.271 -3.09201 -0.459758 0
M  V30 4772 H 458.491 -3.39241 2.00772 0
M  V30 4773 H 459.779 -4.59819 2.17817 0
M  V30 4774 H 459.177 -5.59381 -0.843195 0
M  V30 4775 H 457.734 -6.49126 -0.589794 0
M  V30 4776 N 461.167 -1.02423 -1.1978 0
M  V30 4777 C 462.097 -0.62157 -2.25075 0
M  V30 4778 C 463.078 0.367148 -1.6609 0
M  V30 4779 O 464.263 0.250892 -1.92573 0
M  V30 4780 C 461.393 0.0331826 -3.47284 0
M  V30 4781 C 460.347 -0.877323 -4.18912 0
M  V30 4782 C 459.673 -0.0879296 -5.34628 0
M  V30 4783 C 460.973 -2.18892 -4.74219 0
M  V30 4784 H 462.667 -1.50179 -2.59011 0
M  V30 4785 H 460.213 -0.723547 -1.24502 0
M  V30 4786 H 462.166 0.326488 -4.20133 0
M  V30 4787 H 460.89 0.948164 -3.12534 0
M  V30 4788 H 459.549 -1.15475 -3.47938 0
M  V30 4789 H 459.197 0.828941 -4.96123 0
M  V30 4790 H 458.897 -0.694359 -5.83483 0
M  V30 4791 H 460.421 0.198743 -6.10276 0
M  V30 4792 H 461.835 -1.95746 -5.38847 0
M  V30 4793 H 460.232 -2.74686 -5.33542 0
M  V30 4794 H 461.302 -2.84674 -3.92541 0
M  V30 4795 N 462.645 1.35699 -0.801477 0
M  V30 4796 C 464.061 1.52065 -0.484596 0
M  V30 4797 C 464.261 1.75215 0.995084 0
M  V30 4798 O 463.317 1.79061 1.78026 0
M  V30 4799 C 464.63 2.69908 -1.32552 0
M  V30 4800 C 466.178 2.83784 -1.32044 0
M  V30 4801 C 466.653 4.04646 -2.14536 0
M  V30 4802 N 468.144 4.11814 -2.12046 0
M  V30 4803 C 468.879 5.04437 -2.72636 0
M  V30 4804 N 468.375 6.02426 -3.42133 0
M  V30 4805 N 470.168 4.97144 -2.62305 0
M  V30 4806 H 462.319 1.18928 -1.75983 0
M  V30 4807 H 464.582 0.581455 -0.748741 0
M  V30 4808 H 464.288 2.59363 -2.37537 0
M  V30 4809 H 464.162 3.64376 -0.975181 0
M  V30 4810 H 466.549 2.93783 -0.27846 0
M  V30 4811 H 466.63 1.90188 -1.71062 0
M  V30 4812 H 466.274 3.95407 -3.18772 0
M  V30 4813 H 466.204 4.97413 -1.72882 0
M  V30 4814 H 468.695 3.41664 -1.61476 0
M  V30 4815 H 469.008 6.69688 -3.85666 0
M  V30 4816 H 467.353 6.02615 -3.46237 0
M  V30 4817 H 470.544 4.19546 -2.07603 0
M  V30 4818 H 470.717 5.69138 -3.09815 0
M  V30 4819 N 464.123 0.554532 1.47522 0
M  V30 4820 C 465.372 0.0273458 2.01681 0
M  V30 4821 C 465.685 -1.32962 1.43459 0
M  V30 4822 O 466.891 -1.94657 1.89265 0
M  V30 4823 C 465.347 -0.00159057 3.599 0
M  V30 4824 C 464.955 1.35197 4.27113 0
M  V30 4825 C 466.699 -0.476311 4.21819 0
M  V30 4826 C 464.606 1.28229 5.77331 0
M  V30 4827 H 463.536 0.00645269 0.753972 0
M  V30 4828 H 466.187 0.701985 1.69542 0
M  V30 4829 H 464.569 -0.741821 3.8899 0
M  V30 4830 H 465.743 2.1097 4.09668 0
M  V30 4831 H 464.058 1.76441 3.77171 0
M  V30 4832 H 466.655 -0.5468 5.31897 0
M  V30 4833 H 466.998 -1.4877 3.8881 0
M  V30 4834 H 467.531 0.20898 3.97251 0
M  V30 4835 H 464.27 2.26959 6.14955 0
M  V30 4836 H 463.79 0.566314 5.97121 0
M  V30 4837 H 465.469 0.983226 6.39485 0
M  V30 4838 N 465.601 -1.54893 0.290851 0
M  V30 4839 C 466.564 -2.21824 -0.576784 0
M  V30 4840 C 467.564 -1.20104 -1.06919 0
M  V30 4841 O 468.754 -1.44906 -0.966843 0
M  V30 4842 C 465.886 -2.89662 -1.79747 0
M  V30 4843 H 467.079 -2.99899 0.00784051 0
M  V30 4844 H 464.632 -1.56245 0.0415934 0
M  V30 4845 H 465.367 -2.15639 -2.42219 0
M  V30 4846 H 465.152 -3.64219 -1.45214 0
M  V30 4847 H 466.642 -3.4075 -2.4141 0
M  V30 4848 N 467.08 -0.0183926 -1.57589 0
M  V30 4849 C 468.043 0.951986 -2.08494 0
M  V30 4850 C 469.043 1.26092 -0.997874 0
M  V30 4851 O 470.233 1.20304 -1.25987 0
M  V30 4852 C 467.365 2.27165 -2.54182 0
M  V30 4853 H 468.558 0.511307 -2.95509 0
M  V30 4854 H 466.111 0.229444 -1.54607 0
M  V30 4855 H 466.846 2.75884 -1.70465 0
M  V30 4856 H 466.631 2.06057 -3.33591 0
M  V30 4857 H 468.121 2.9674 -2.93828 0
M  V30 4858 N 468.558 1.5553 0.254621 0
M  V30 4859 C 469.806 1.7665 0.981793 0
M  V30 4860 C 470.127 0.580963 1.86145 0
M  V30 4861 O 469.397 -0.403537 1.91699 0
M  V30 4862 H 467.977 0.651475 0.365498 0
M  V30 4863 H 470.639 1.92958 0.274426 0
M  V30 4864 H 469.735 2.67486 1.60802 0
M  V30 4865 N 470.036 -0.519951 1.48776 0
M  V30 4866 C 470.968 -1.63973 1.60142 0
M  V30 4867 C 471.981 -1.55404 0.485117 0
M  V30 4868 O 473.17 -1.61682 0.756391 0
M  V30 4869 C 470.27 -3.02676 1.52449 0
M  V30 4870 C 469.443 -3.36624 2.79291 0
M  V30 4871 C 468.502 -4.54652 2.64912 0
M  V30 4872 O 467.528 -4.57374 3.38818 0
M  V30 4873 N 468.73 -5.53432 1.75195 0
M  V30 4874 H 471.495 -1.54656 2.56713 0
M  V30 4875 H 469.056 -0.707439 1.45626 0
M  V30 4876 H 471.048 -3.79525 1.4051 0
M  V30 4877 H 469.618 -3.06018 0.638125 0
M  V30 4878 H 468.838 -2.48855 3.0572 0
M  V30 4879 H 470.126 -3.56094 3.6342 0
M  V30 4880 H 469.524 -5.54018 1.14371 0
M  V30 4881 H 468.081 -6.29459 1.69189 0
M  V30 4882 N 471.514 -1.37532 -0.769588 0
M  V30 4883 C 472.925 -1.29382 -1.346 0
M  V30 4884 C 473.276 0.0576039 -1.96115 0
M  V30 4885 O 472.401 0.95947 -1.93967 0
M  V30 4886 C 472.996 -2.34298 -2.44724 0
M  V30 4887 C 471.555 -2.29776 -2.98128 0
M  V30 4888 C 470.702 -2.18013 -1.71364 0
M  V30 4889 H 473.653 -1.48123 -0.56968 0
M  V30 4890 H 473.674 -1.99089 -3.24259 0
M  V30 4891 H 473.186 -3.32645 -1.99922 0
M  V30 4892 H 471.287 -1.34959 -3.47299 0
M  V30 4893 H 471.4 -3.23276 -3.53595 0
M  V30 4894 H 469.764 -1.64595 -1.94372 0
M  V30 4895 H 470.547 -3.18278 -1.28662 0
M  V30 4896 N 472.992 0.995999 -1.22138 0
M  V30 4897 C 473.922 2.10387 -1.01289 0
M  V30 4898 C 474.903 1.69975 0.0651454 0
M  V30 4899 O 476.088 1.9396 -0.0964628 0
M  V30 4900 C 473.218 3.42312 -0.586517 0
M  V30 4901 C 472.172 3.96558 -1.61014 0
M  V30 4902 C 471.498 5.24494 -1.0397 0
M  V30 4903 C 472.798 4.27595 -2.99933 0
M  V30 4904 H 474.492 2.28086 -1.93951 0
M  V30 4905 H 472.038 1.09607 -0.933928 0
M  V30 4906 H 473.991 4.19223 -0.427793 0
M  V30 4907 H 472.715 3.24431 0.375761 0
M  V30 4908 H 471.374 3.21776 -1.75658 0
M  V30 4909 H 471.022 5.02953 -0.0688703 0
M  V30 4910 H 470.722 5.61755 -1.72352 0
M  V30 4911 H 472.246 6.04042 -0.892494 0
M  V30 4912 H 473.66 4.95315 -2.8868 0
M  V30 4913 H 472.057 4.76021 -3.6541 0
M  V30 4914 H 473.127 3.35498 -3.50099 0
M  V30 4915 N 474.47 1.03057 1.19235 0
M  V30 4916 C 475.695 0.74757 1.93458 0
M  V30 4917 C 476.12 -0.687648 1.7508 0
M  V30 4918 O 475.478 -1.47499 1.05422 0
M  V30 4919 C 475.526 1.10604 3.43219 0
M  V30 4920 O 474.63 0.225671 4.11782 0
M  V30 4921 H 473.971 0.276047 0.603899 0
M  V30 4922 H 476.501 1.3777 1.51263 0
M  V30 4923 H 476.511 1.06366 3.93891 0
M  V30 4924 H 475.186 2.15165 3.55917 0
M  V30 4925 H 473.763 0.326795 3.71465 0
M  V30 4926 N 475.948 -1.35272 0.808662 0
M  V30 4927 C 477.197 -1.97963 0.386483 0
M  V30 4928 C 477.51 -1.64866 -1.05255 0
M  V30 4929 O 478.716 -2.20937 -1.57794 0
M  V30 4930 C 477.172 -3.54162 0.640096 0
M  V30 4931 C 476.78 -3.96166 2.0918 0
M  V30 4932 C 478.524 -4.23553 0.283376 0
M  V30 4933 C 476.431 -5.4522 2.29106 0
M  V30 4934 H 475.361 -0.740742 0.140774 0
M  V30 4935 H 478.012 -1.5431 0.993012 0
M  V30 4936 H 476.394 -3.95983 -0.0364117 0
M  V30 4937 H 477.568 -3.65491 2.80629 0
M  V30 4938 H 475.883 -3.3967 2.40859 0
M  V30 4939 H 478.48 -5.33124 0.410273 0
M  V30 4940 H 478.823 -4.09105 -0.770659 0
M  V30 4941 H 479.356 -3.8716 0.913884 0
M  V30 4942 H 476.095 -5.64638 3.32962 0
M  V30 4943 H 475.615 -5.77457 1.62184 0
M  V30 4944 H 477.294 -6.1171 2.1076 0
M  V30 4945 N 477.426 -0.562348 -1.47226 0
M  V30 4946 C 478.373 0.182461 -2.30078 0
M  V30 4947 C 479.343 0.903503 -1.39377 0
M  V30 4948 O 480.528 0.898188 -1.68337 0
M  V30 4949 C 477.668 1.20322 -3.23445 0
M  V30 4950 C 476.781 0.487717 -4.29238 0
M  V30 4951 C 475.916 1.49422 -5.09752 0
M  V30 4952 C 474.955 0.763976 -6.07314 0
M  V30 4953 N 474.092 1.71755 -6.80768 0
M  V30 4954 H 478.932 -0.530169 -2.93246 0
M  V30 4955 H 476.469 -0.273276 -1.44539 0
M  V30 4956 H 478.427 1.80768 -3.76004 0
M  V30 4957 H 477.057 1.88382 -2.6213 0
M  V30 4958 H 476.109 -0.231374 -3.79696 0
M  V30 4959 H 477.421 -0.0841003 -4.98729 0
M  V30 4960 H 476.575 2.17206 -5.66486 0
M  V30 4961 H 475.314 2.09995 -4.40174 0
M  V30 4962 H 474.319 0.0722344 -5.49753 0
M  V30 4963 H 475.544 0.16391 -6.78902 0
M  V30 4964 H 473.49 2.31177 -6.13916 0
M  V30 4965 H 473.407 1.19802 -7.46447 0
M  V30 4966 H 474.675 2.38638 -7.42073 0
M  V30 4967 N 478.904 1.54736 -0.299062 0
M  V30 4968 C 479.836 2.20891 0.61153 0
M  V30 4969 C 480.849 1.20104 1.09904 0
M  V30 4970 O 482.038 1.46707 1.01683 0
M  V30 4971 C 479.138 2.84018 1.84897 0
M  V30 4972 C 478.311 4.10719 1.50428 0
M  V30 4973 C 477.37 4.57667 2.59667 0
M  V30 4974 O 476.396 5.2291 2.24842 0
M  V30 4975 N 477.598 4.29821 3.90172 0
M  V30 4976 H 480.363 2.99666 0.0452001 0
M  V30 4977 H 477.924 1.61446 -0.121178 0
M  V30 4978 H 479.916 3.1236 2.5732 0
M  V30 4979 H 478.486 2.09095 2.32375 0
M  V30 4980 H 477.706 3.89408 0.612781 0
M  V30 4981 H 478.994 4.93223 1.24934 0
M  V30 4982 H 478.392 3.77549 4.21276 0
M  V30 4983 H 476.949 4.62877 4.58899 0
M  V30 4984 N 480.382 0.0267497 1.57577 0
M  V30 4985 C 481.292 -0.971633 2.13533 0
M  V30 4986 C 482.308 -1.35868 1.08701 0
M  V30 4987 O 483.484 -1.44058 1.40746 0
M  V30 4988 C 480.549 -2.23622 2.64941 0
M  V30 4989 C 479.61 -1.90982 3.8448 0
M  V30 4990 C 478.843 -3.11411 4.33427 0
M  V30 4991 O 479.066 -4.23992 3.81558 0
M  V30 4992 O 478 -2.93848 5.25297 0
M  V30 4993 H 481.826 -0.525853 2.99113 0
M  V30 4994 H 479.411 -0.193712 1.48139 0
M  V30 4995 H 481.293 -2.97864 2.98086 0
M  V30 4996 H 479.968 -2.67386 1.82446 0
M  V30 4997 H 478.875 -1.14132 3.56265 0
M  V30 4998 H 480.208 -1.52036 4.6813 0
M  V30 4999 N 481.861 -1.55662 -0.24637 0
M  V30 5000 C 482.771 -1.93495 -1.32653 0
M  V30 5001 C 483.787 -0.835462 -1.5263 0
M  V30 5002 O 484.963 -1.1369 -1.66242 0
M  V30 5003 C 482.028 -2.22242 -2.66101 0
M  V30 5004 C 481.089 -3.45625 -2.54641 0
M  V30 5005 C 480.322 -3.72991 -3.81724 0
M  V30 5006 O 480.545 -3.02421 -4.8363 0
M  V30 5007 O 479.479 -4.66515 -3.80325 0
M  V30 5008 H 483.305 -2.85498 -1.03559 0
M  V30 5009 H 480.89 -1.42551 -0.44717 0
M  V30 5010 H 482.772 -2.42037 -3.44958 0
M  V30 5011 H 481.447 -1.33417 -2.94926 0
M  V30 5012 H 480.354 -3.31136 -1.74067 0
M  V30 5013 H 481.687 -4.34754 -2.3076 0
M  V30 5014 N 483.339 0.512053 -1.4905 0
M  V30 5015 C 484.585 1.26874 -1.58212 0
M  V30 5016 C 484.918 1.9241 -0.263073 0
M  V30 5017 O 484.193 1.80181 0.732476 0
M  V30 5018 C 484.476 2.34428 -2.73341 0
M  V30 5019 C 484.329 1.73466 -4.15006 0
M  V30 5020 C 485.648 3.36073 -2.84154 0
M  V30 5021 H 482.767 0.459924 -0.575881 0
M  V30 5022 H 485.409 0.568587 -1.81293 0
M  V30 5023 H 483.559 2.94146 -2.53792 0
M  V30 5024 H 485.231 1.17661 -4.46042 0
M  V30 5025 H 483.474 1.03921 -4.21168 0
M  V30 5026 H 484.145 2.51426 -4.91415 0
M  V30 5027 H 486.621 2.86332 -3.01916 0
M  V30 5028 H 485.497 4.08703 -3.66406 0
M  V30 5029 H 485.758 3.97725 -1.93048 0
M  V30 5030 N 484.817 1.37938 0.762283 0
M  V30 5031 C 485.767 1.30976 1.86626 0
M  V30 5032 C 486.751 0.195714 1.59705 0
M  V30 5033 O 487.943 0.430937 1.71674 0
M  V30 5034 C 485.072 1.12847 3.24223 0
M  V30 5035 C 484.158 2.28836 3.57064 0
M  V30 5036 N 484.549 3.54256 3.61022 0
M  V30 5037 C 482.847 2.21198 3.87282 0
M  V30 5038 C 483.548 4.30798 3.90881 0
M  V30 5039 N 482.524 3.60049 4.07266 0
M  V30 5040 H 486.326 2.25946 1.87951 0
M  V30 5041 H 483.84 1.31046 0.959206 0
M  V30 5042 H 485.837 1.05943 4.03214 0
M  V30 5043 H 484.497 0.188024 3.24155 0
M  V30 5044 H 485.508 3.8804 3.42995 0
M  V30 5045 H 482.185 1.35264 3.94981 0
M  V30 5046 H 483.575 5.39386 4.00639 0
M  V30 5047 N 486.295 -0.989507 1.22664 0
M  V30 5048 C 487.541 -1.7321 1.05481 0
M  V30 5049 C 487.874 -1.89852 -0.408635 0
M  V30 5050 O 487.149 -1.44416 -1.30285 0
M  V30 5051 C 487.432 -3.1357 1.77047 0
M  V30 5052 C 487.285 -3.04555 3.31008 0
M  V30 5053 C 488.604 -4.12812 1.5256 0
M  V30 5054 H 485.723 -0.628697 0.384589 0
M  V30 5055 H 488.365 -1.15258 1.51049 0
M  V30 5056 H 486.515 -3.63046 1.3831 0
M  V30 5057 H 488.187 -2.62674 3.7921 0
M  V30 5058 H 486.43 -2.41278 3.6051 0
M  V30 5059 H 487.101 -4.03894 3.76263 0
M  V30 5060 H 489.577 -3.72106 1.86215 0
M  V30 5061 H 488.453 -5.09132 2.05124 0
M  V30 5062 H 488.714 -4.39711 0.458936 0
M  V30 5063 N 487.773 -1.03688 -1.18687 0
M  V30 5064 C 489.189 -0.755413 -1.4059 0
M  V30 5065 C 489.389 0.656659 -1.905 0
M  V30 5066 O 488.445 1.42144 -2.08689 0
M  V30 5067 C 489.758 -1.7983 -2.41001 0
M  V30 5068 C 491.306 -1.81877 -2.54735 0
M  V30 5069 C 491.781 -2.85148 -3.58406 0
M  V30 5070 N 493.272 -2.84015 -3.6591 0
M  V30 5071 C 494.007 -3.60573 -4.45841 0
M  V30 5072 N 493.503 -4.46871 -5.29413 0
M  V30 5073 N 495.296 -3.49079 -4.40568 0
M  V30 5074 H 487.447 -1.94818 -0.846148 0
M  V30 5075 H 489.71 -0.842727 -0.434184 0
M  V30 5076 H 489.416 -2.81097 -2.1137 0
M  V30 5077 H 489.29 -1.62727 -3.40294 0
M  V30 5078 H 491.677 -0.812836 -2.83685 0
M  V30 5079 H 491.758 -2.03057 -1.55568 0
M  V30 5080 H 491.402 -3.85918 -3.30197 0
M  V30 5081 H 491.332 -2.61224 -4.57241 0
M  V30 5082 H 493.823 -2.21431 -3.0623 0
M  V30 5083 H 494.136 -5.02007 -5.87545 0
M  V30 5084 H 492.481 -4.5094 -5.28846 0
M  V30 5085 H 495.672 -2.81066 -3.74325 0
M  V30 5086 H 495.845 -4.08994 -5.02621 0
M  V30 5087 N 489.251 1.34841 -0.815825 0
M  V30 5088 C 490.499 1.98107 -0.399744 0
M  V30 5089 C 490.82 1.65019 1.03894 0
M  V30 5090 O 490.09 0.937311 1.72021 0
M  V30 5091 H 488.67 0.732827 -0.144823 0
M  V30 5092 H 491.332 1.64599 -1.0437 0
M  V30 5093 H 490.428 3.07856 -0.512965 0
M  V30 5094 N 490.729 0.570148 1.46925 0
M  V30 5095 C 491.679 -0.190921 2.27199 0
M  V30 5096 C 492.663 -0.873457 1.35128 0
M  V30 5097 O 493.855 -0.769627 1.59392 0
M  V30 5098 C 490.984 -1.21204 3.21192 0
M  V30 5099 C 490.07 -0.532261 4.20747 0
M  V30 5100 N 490.461 0.405038 5.04176 0
M  V30 5101 C 488.759 -0.784582 4.39045 0
M  V30 5102 C 489.46 0.801149 5.76157 0
M  V30 5103 N 488.436 0.153082 5.43384 0
M  V30 5104 H 492.238 0.529535 2.8909 0
M  V30 5105 H 489.752 0.391019 1.57622 0
M  V30 5106 H 491.749 -1.77135 3.77398 0
M  V30 5107 H 490.409 -1.93345 2.6086 0
M  V30 5108 H 491.42 0.779903 5.11994 0
M  V30 5109 H 488.097 -1.49352 3.89872 0
M  V30 5110 H 489.487 1.57208 6.5325 0
M  V30 5111 N 492.207 -1.54576 0.307264 0
M  V30 5112 C 493.17 -2.22423 -0.553224 0
M  V30 5113 C 494.17 -1.21231 -1.05639 0
M  V30 5114 O 495.36 -1.45923 -0.951419 0
M  V30 5115 C 492.492 -2.91552 -1.76664 0
M  V30 5116 H 493.685 -2.99874 0.0396484 0
M  V30 5117 H 491.238 -1.56192 0.0581629 0
M  V30 5118 H 491.973 -2.18196 -2.39918 0
M  V30 5119 H 491.758 -3.65738 -1.41343 0
M  V30 5120 H 493.248 -3.43292 -2.37783 0
M  V30 5121 N 493.685 -0.035106 -1.57561 0
M  V30 5122 C 494.931 0.64318 -1.92331 0
M  V30 5123 C 495.264 1.71434 -0.912368 0
M  V30 5124 O 494.539 1.94395 0.0640303 0
M  V30 5125 C 494.822 1.25411 -3.37556 0
M  V30 5126 C 494.675 0.192109 -4.4939 0
M  V30 5127 C 495.994 2.17041 -3.82859 0
M  V30 5128 H 493.113 0.232341 -0.699419 0
M  V30 5129 H 495.755 -0.0935889 -1.89769 0
M  V30 5130 H 493.905 1.88205 -3.39869 0
M  V30 5131 H 495.577 -0.438849 -4.59208 0
M  V30 5132 H 493.82 -0.481725 -4.31117 0
M  V30 5133 H 494.491 0.659292 -5.48049 0
M  V30 5134 H 496.967 1.64228 -3.8232 0
M  V30 5135 H 495.843 2.56738 -4.85157 0
M  V30 5136 H 496.104 3.06401 -3.18702 0
M  V30 5137 N 495.163 1.55791 0.238111 0
M  V30 5138 C 496.073 1.94196 1.31625 0
M  V30 5139 C 497.089 0.843545 1.52185 0
M  V30 5140 O 498.265 1.1457 1.65637 0
M  V30 5141 C 495.33 2.2365 2.64918 0
M  V30 5142 C 494.391 3.46971 2.52804 0
M  V30 5143 C 493.624 3.7501 3.79741 0
M  V30 5144 O 493.847 3.04982 4.82019 0
M  V30 5145 O 492.781 4.68525 3.77846 0
M  V30 5146 H 496.607 2.86044 1.02043 0
M  V30 5147 H 494.192 1.42786 0.439603 0
M  V30 5148 H 496.074 2.43863 3.4367 0
M  V30 5149 H 494.749 1.34979 2.94215 0
M  V30 5150 H 493.656 3.32055 1.72309 0
M  V30 5151 H 494.989 4.35971 2.28451 0
M  V30 5152 N 496.642 -0.504142 1.49319 0
M  V30 5153 C 497.882 -1.26867 1.60263 0
M  V30 5154 C 498.246 -1.89924 0.281578 0
M  V30 5155 O 499.447 -2.67479 0.266176 0
M  V30 5156 C 497.718 -2.30956 2.72753 0
M  V30 5157 S 499.277 -3.1679 3.03628 0
M  V30 5158 H 496.095 -0.431198 0.565322 0
M  V30 5159 H 498.697 -0.571407 1.86963 0
M  V30 5160 H 497.401 -1.83156 3.67263 0
M  V30 5161 H 496.932 -3.05356 2.48035 0
M  V30 5162 H 498.947 -4.31549 2.44908 0
M  V30 5163 N 498.12 -1.38341 -0.754957 0
M  V30 5164 C 499.536 -1.19508 -1.05783 0
M  V30 5165 C 499.736 -0.0428005 -2.01455 0
M  V30 5166 O 498.792 0.611861 -2.44975 0
M  V30 5167 C 500.105 -2.52091 -1.63923 0
M  V30 5168 C 501.653 -2.58762 -1.76101 0
M  V30 5169 C 502.128 -3.91517 -2.37652 0
M  V30 5170 N 503.619 -3.93049 -2.45085 0
M  V30 5171 C 504.354 -4.9253 -2.93602 0
M  V30 5172 N 503.85 -6.02408 -3.42165 0
M  V30 5173 N 505.643 -4.79921 -2.92629 0
M  V30 5174 H 497.794 -2.1206 -0.120056 0
M  V30 5175 H 500.057 -0.94089 -0.11589 0
M  V30 5176 H 499.763 -3.36858 -1.01093 0
M  V30 5177 H 499.637 -2.70388 -2.63003 0
M  V30 5178 H 502.024 -1.74391 -2.38058 0
M  V30 5179 H 502.105 -2.44333 -0.757294 0
M  V30 5180 H 501.749 -4.76309 -1.76329 0
M  V30 5181 H 501.679 -4.03256 -3.38662 0
M  V30 5182 H 504.17 -3.13685 -2.10736 0
M  V30 5183 H 504.483 -6.74248 -3.77637 0
M  V30 5184 H 502.828 -6.0603 -3.40225 0
M  V30 5185 H 506.019 -3.93194 -2.54001 0
M  V30 5186 H 506.192 -5.57601 -3.30128 0
M  V30 5187 N 499.598 0.982988 -1.23187 0
M  V30 5188 C 500.847 1.71817 -1.05649 0
M  V30 5189 C 501.16 1.91315 0.407176 0
M  V30 5190 O 502.366 2.62256 0.702436 0
M  V30 5191 C 500.822 3.09188 -1.84203 0
M  V30 5192 C 500.43 2.97586 -3.34882 0
M  V30 5193 C 502.174 3.86684 -1.75146 0
M  V30 5194 C 500.081 4.30173 -4.05839 0
M  V30 5195 H 499.011 0.644258 -0.391724 0
M  V30 5196 H 501.662 1.09659 -1.4713 0
M  V30 5197 H 500.044 3.72087 -1.35527 0
M  V30 5198 H 501.218 2.43793 -3.91026 0
M  V30 5199 H 499.533 2.33567 -3.44725 0
M  V30 5200 H 502.13 4.84836 -2.25473 0
M  V30 5201 H 502.473 4.10136 -0.713737 0
M  V30 5202 H 503.006 3.30482 -2.21419 0
M  V30 5203 H 499.745 4.11918 -5.09906 0
M  V30 5204 H 499.265 4.83841 -3.54482 0
M  V30 5205 H 500.944 4.98873 -4.11989 0
M  V30 5206 N 501.076 1.04316 1.18135 0
M  V30 5207 C 502.024 0.630175 2.23901 0
M  V30 5208 C 503.018 -0.344254 1.65865 0
M  V30 5209 O 504.224 -0.211273 1.78756 0
M  V30 5210 H 500.599 0.185578 0.728742 0
M  V30 5211 H 502.57 1.53253 2.56039 0
M  V30 5212 C 501.319 0.011666 3.47698 0
M  V30 5213 H 500.642 0.752526 3.92654 0
M  V30 5214 H 502.082 -0.240046 4.2332 0
M  V30 5215 C 500.541 -1.23913 3.13285 0
M  V30 5216 O 501.071 -2.32959 3.27251 0
M  V30 5217 N 499.277 -1.13338 2.67587 0
M  V30 5218 H 498.824 -0.246006 2.56423 0
M  V30 5219 H 498.782 -1.97116 2.44934 0
M  V30 5220 N 502.554 -1.34406 0.822964 0
M  V30 5221 C 503.517 -2.2783 0.250271 0
M  V30 5222 C 504.517 -1.50288 -0.571854 0
M  V30 5223 O 505.707 -1.69825 -0.387952 0
M  V30 5224 C 502.839 -3.34663 -0.649137 0
M  V30 5225 H 504.032 -2.79992 1.07444 0
M  V30 5226 H 501.585 -1.44539 0.594829 0
M  V30 5227 H 502.32 -2.87714 -1.49637 0
M  V30 5228 H 502.105 -3.92052 -0.0611199 0
M  V30 5229 H 503.595 -4.04349 -1.04363 0
M  V30 5230 N 504.032 -0.577932 -1.46621 0
M  V30 5231 C 504.942 0.160651 -2.34049 0
M  V30 5232 C 505.958 0.890911 -1.49462 0
M  V30 5233 O 507.134 0.855166 -1.82343 0
M  V30 5234 C 504.199 1.16447 -3.26559 0
M  V30 5235 C 503.26 0.4394 -4.27045 0
M  V30 5236 C 502.493 1.3954 -5.15135 0
M  V30 5237 O 502.716 2.63162 -5.06065 0
M  V30 5238 O 501.65 0.908585 -5.95003 0
M  V30 5239 H 505.476 -0.557057 -2.98547 0
M  V30 5240 H 503.061 -0.338369 -1.45518 0
M  V30 5241 H 504.943 1.7434 -3.83645 0
M  V30 5242 H 503.618 1.86373 -2.64663 0
M  V30 5243 H 502.525 -0.181247 -3.73661 0
M  V30 5244 H 503.858 -0.218799 -4.91713 0
M  V30 5245 N 505.51 1.54411 -0.315457 0
M  V30 5246 C 506.787 1.92562 0.343398 0
M  V30 5247 C 507.167 1.24423 1.70535 0
M  V30 5248 O 506.515 0.385051 2.25232 0
M  V30 5249 C 506.725 3.46168 0.443687 0
M  V30 5250 C 508.073 4.18659 0.707783 0
M  V30 5251 O 509.097 3.52281 0.52693 0
M  V30 5252 O 507.956 5.36198 1.05612 0
M  V30 5253 H 505.05 0.80379 0.194552 0
M  V30 5254 H 507.596 1.65738 -0.364577 0
M  V30 5255 H 506.368 3.8792 -0.513172 0
M  V30 5256 H 505.991 3.79073 1.19956 0
M  V30 5257 N 506.988 0.0434614 1.5754 0
M  V30 5258 C 508.399 -0.493343 1.80064 0
M  V30 5259 C 508.75 -1.71388 0.955023 0
M  V30 5260 O 507.875 -2.15736 0.169434 0
M  V30 5261 C 508.47 -0.90179 3.26578 0
M  V30 5262 C 507.029 -1.38362 3.50047 0
M  V30 5263 C 506.176 -0.355129 2.75017 0
M  V30 5264 H 509.127 0.2694 1.56397 0
M  V30 5265 H 509.148 -1.76523 3.37075 0
M  V30 5266 H 508.66 -0.013271 3.88098 0
M  V30 5267 H 506.761 -2.29159 2.93798 0
M  V30 5268 H 506.874 -1.3811 4.58762 0
M  V30 5269 H 505.238 -0.826348 2.40922 0
M  V30 5270 H 506.021 0.525172 3.39259 0
M  V30 5271 N 508.466 -1.55915 -0.229846 0
M  V30 5272 C 509.414 -1.9258 -1.30444 0
M  V30 5273 C 510.408 -0.806839 -1.48951 0
M  V30 5274 O 511.614 -0.991606 -1.50224 0
M  V30 5275 H 507.989 -0.611878 -0.437161 0
M  V30 5276 H 509.96 -2.82264 -0.96797 0
M  V30 5277 C 508.709 -2.25171 -2.6494 0
M  V30 5278 H 508.032 -3.10782 -2.51504 0
M  V30 5279 H 509.472 -2.54716 -3.38963 0
M  V30 5280 C 507.931 -1.07394 -3.19324 0
M  V30 5281 O 508.461 -0.330759 -4.00336 0
M  V30 5282 N 506.667 -0.859984 -2.77584 0
M  V30 5283 H 506.214 -1.46605 -2.11813 0
M  V30 5284 H 506.172 -0.0736671 -3.14314 0
M  V30 5285 N 509.944 0.496216 -1.49584 0
M  V30 5286 C 511.172 1.27394 -1.63029 0
M  V30 5287 C 511.587 1.86344 -0.303569 0
M  V30 5288 O 510.944 1.68057 0.711547 0
M  V30 5289 C 510.995 2.40077 -2.70269 0
M  V30 5290 O 510.716 1.83549 -3.97796 0
M  V30 5291 C 512.217 3.31372 -2.94462 0
M  V30 5292 H 509.437 0.386211 -0.54871 0
M  V30 5293 H 511.981 0.595163 -1.95648 0
M  V30 5294 H 510.136 3.03775 -2.40415 0
M  V30 5295 H 510.55 2.57561 -4.56905 0
M  V30 5296 H 512.024 4.06707 -3.73221 0
M  V30 5297 H 512.501 3.88654 -2.0456 0
M  V30 5298 H 513.107 2.73435 -3.25751 0
M  V30 5299 N 511.423 1.38739 0.74761 0
M  V30 5300 C 512.67 1.35274 1.50689 0
M  V30 5301 C 512.998 -0.0553359 1.94421 0
M  V30 5302 O 512.253 -1.03365 1.66175 0
M  V30 5303 C 512.552 2.25992 2.7688 0
M  V30 5304 C 512.218 3.73854 2.5208 0
M  V30 5305 C 510.88 4.14145 2.45025 0
M  V30 5306 C 513.232 4.67427 2.30568 0
M  V30 5307 C 510.56 5.4609 2.14483 0
M  V30 5308 C 512.912 5.99635 2.01545 0
M  V30 5309 C 511.576 6.39004 1.92951 0
M  V30 5310 H 510.846 0.495003 0.55141 0
M  V30 5311 H 513.493 1.71145 0.859158 0
M  V30 5312 H 511.798 1.83196 3.46333 0
M  V30 5313 H 513.495 2.20611 3.34861 0
M  V30 5314 H 510.085 3.41913 2.58444 0
M  V30 5315 H 514.269 4.3714 2.34994 0
M  V30 5316 H 509.525 5.75528 2.06342 0
M  V30 5317 H 513.699 6.71678 1.83906 0
M  V30 5318 H 511.326 7.41165 1.6905 0
M  V30 5319 N 512.901 -0.976442 1.23707 0
M  V30 5320 C 513.831 -2.08749 1.04624 0
M  V30 5321 C 514.812 -1.70057 -0.0380956 0
M  V30 5322 O 515.997 -1.93782 0.127308 0
M  V30 5323 C 513.127 -3.41335 0.640902 0
M  V30 5324 C 512.081 -3.93947 1.67302 0
M  V30 5325 C 511.407 -5.22774 1.12301 0
M  V30 5326 C 512.707 -4.22769 3.06697 0
M  V30 5327 H 514.401 -2.24972 1.97555 0
M  V30 5328 H 511.947 -1.08108 0.951247 0
M  V30 5329 H 513.9 -4.18489 0.494434 0
M  V30 5330 H 512.624 -3.24988 -0.324099 0
M  V30 5331 H 511.283 -3.18941 1.80755 0
M  V30 5332 H 510.931 -5.0278 0.148877 0
M  V30 5333 H 510.631 -5.58942 1.81267 0
M  V30 5334 H 512.155 -6.02546 0.988479 0
M  V30 5335 H 513.569 -4.90659 2.96524 0
M  V30 5336 H 511.966 -4.70147 3.72937 0
M  V30 5337 H 513.036 -3.29885 3.55392 0
M  V30 5338 N 514.379 -1.04941 -1.1758 0
M  V30 5339 C 515.79 -0.784501 -1.69418 0
M  V30 5340 C 516.141 0.693625 -1.8353 0
M  V30 5341 O 515.266 1.53925 -1.52106 0
M  V30 5342 C 515.861 -1.41746 -3.07723 0
M  V30 5343 C 514.42 -1.20066 -3.56737 0
M  V30 5344 C 513.567 -1.5026 -2.33061 0
M  V30 5345 H 516.518 -1.21469 -1.02133 0
M  V30 5346 H 516.539 -0.825381 -3.7144 0
M  V30 5347 H 516.051 -2.49325 -2.9742 0
M  V30 5348 H 514.152 -0.144006 -3.72322 0
M  V30 5349 H 514.265 -1.90384 -4.39648 0
M  V30 5350 H 512.629 -0.922598 -2.37403 0
M  V30 5351 H 513.412 -2.58967 -2.25368 0
M  V30 5352 N 515.857 1.33968 -0.830081 0
M  V30 5353 C 517.082 2.02813 -0.433796 0
M  V30 5354 C 517.507 1.62076 0.954614 0
M  V30 5355 O 516.865 0.808955 1.62252 0
M  V30 5356 C 516.913 3.56348 -0.552115 0
M  V30 5357 O 516.017 4.10202 0.425191 0
M  V30 5358 H 515.358 0.639817 -0.177567 0
M  V30 5359 H 517.888 1.7106 -1.12248 0
M  V30 5360 H 517.898 4.05722 -0.430513 0
M  V30 5361 H 516.573 3.85344 -1.56471 0
M  V30 5362 H 515.15 3.71979 0.261878 0
M  V30 5363 N 517.335 0.585699 1.46312 0
M  V30 5364 C 518.746 0.159938 1.86014 0
M  V30 5365 C 519.097 -1.27775 1.48889 0
M  V30 5366 O 518.222 -1.96559 0.90519 0
M  V30 5367 C 518.817 0.283485 3.37612 0
M  V30 5368 C 517.376 -0.0874256 3.76298 0
M  V30 5369 C 516.523 0.618055 2.70325 0
M  V30 5370 H 519.474 0.793737 1.37425 0
M  V30 5371 H 519.495 -0.490348 3.77327 0
M  V30 5372 H 519.007 1.32995 3.64601 0
M  V30 5373 H 517.108 -1.13391 3.54927 0
M  V30 5374 H 517.221 0.290975 4.78216 0
M  V30 5375 H 515.585 0.057993 2.54634 0
M  V30 5376 H 516.368 1.66623 3.00153 0
M  V30 5377 N 518.813 -1.54241 0.323641 0
M  V30 5378 C 520.061 -2.00174 -0.278359 0
M  V30 5379 C 520.382 -1.2134 -1.52648 0
M  V30 5380 O 519.652 -0.315244 -1.93347 0
M  V30 5381 H 518.232 -0.739463 -0.105845 0
M  V30 5382 H 520.894 -1.89864 0.440204 0
M  V30 5383 H 519.99 -3.07486 -0.5347 0
M  V30 5384 N 520.291 -0.0518155 -1.57515 0
M  V30 5385 C 521.238 0.922352 -2.11569 0
M  V30 5386 C 522.208 1.30842 -1.02321 0
M  V30 5387 O 523.393 1.39778 -1.29872 0
M  V30 5388 C 520.533 2.19167 -2.6657 0
M  V30 5389 C 519.646 1.86003 -3.89906 0
M  V30 5390 C 518.781 3.07398 -4.33221 0
M  V30 5391 C 517.82 2.70158 -5.49255 0
M  V30 5392 N 516.957 3.84248 -5.8762 0
M  V30 5393 H 521.797 0.454506 -2.94514 0
M  V30 5394 H 519.334 0.212718 -1.45554 0
M  V30 5395 H 521.292 2.93443 -2.96559 0
M  V30 5396 H 519.922 2.63528 -1.86421 0
M  V30 5397 H 518.974 1.01874 -3.66505 0
M  V30 5398 H 520.286 1.54592 -4.74239 0
M  V30 5399 H 519.44 3.89972 -4.64765 0
M  V30 5400 H 518.179 3.41988 -3.477 0
M  V30 5401 H 517.184 1.86001 -5.17382 0
M  V30 5402 H 518.409 2.36759 -6.36492 0
M  V30 5403 H 516.355 4.18638 -5.05053 0
M  V30 5404 H 516.272 3.56538 -6.66646 0
M  V30 5405 H 517.54 4.6746 -6.2378 0
M  V30 5406 N 521.769 1.56035 0.221574 0
M  V30 5407 C 523.018 1.78245 0.944016 0
M  V30 5408 C 523.331 0.620371 1.85501 0
M  V30 5409 O 524.537 0.726103 2.6161 0
M  V30 5410 C 522.993 3.15659 1.7288 0
M  V30 5411 C 522.601 4.39591 0.863942 0
M  V30 5412 C 524.345 3.47195 2.44246 0
M  V30 5413 C 522.252 5.6803 1.64607 0
M  V30 5414 H 521.182 0.664547 0.356222 0
M  V30 5415 H 523.833 1.8243 0.197904 0
M  V30 5416 H 522.215 3.0565 2.51781 0
M  V30 5417 H 523.389 4.60655 0.115464 0
M  V30 5418 H 521.704 4.15572 0.262407 0
M  V30 5419 H 524.301 4.40381 3.03263 0
M  V30 5420 H 524.644 2.69693 3.1713 0
M  V30 5421 H 525.177 3.58533 1.72334 0
M  V30 5422 H 521.916 6.48425 0.960507 0
M  V30 5423 H 521.436 5.51027 2.36917 0
M  V30 5424 H 523.115 6.08203 2.20675 0
M  V30 5425 N 523.247 -0.488276 1.49845 0
M  V30 5426 C 524.475 -1.26527 1.63702 0
M  V30 5427 C 524.89 -1.8618 0.313447 0
M  V30 5428 O 524.247 -1.68432 -0.702624 0
M  V30 5429 C 524.298 -2.3864 2.71538 0
M  V30 5430 O 524.019 -1.81437 3.98763 0
M  V30 5431 C 525.52 -3.29805 2.96215 0
M  V30 5432 H 522.74 -0.383295 0.55075 0
M  V30 5433 H 525.284 -0.584779 1.95961 0
M  V30 5434 H 523.439 -3.02496 2.42023 0
M  V30 5435 H 523.853 -2.55135 4.58265 0
M  V30 5436 H 525.327 -4.04722 3.75372 0
M  V30 5437 H 525.804 -3.87563 2.06619 0
M  V30 5438 H 526.41 -2.71703 3.27196 0
M  V30 5439 N 524.725 -1.39134 -0.740242 0
M  V30 5440 C 526.141 -1.20623 -1.0451 0
M  V30 5441 C 526.341 -0.0641651 -2.01398 0
M  V30 5442 O 525.397 0.585843 -2.4561 0
M  V30 5443 C 526.71 -2.53815 -1.6124 0
M  V30 5444 C 528.258 -2.60615 -1.73346 0
M  V30 5445 C 528.733 -3.94015 -2.33486 0
M  V30 5446 N 530.224 -3.95627 -2.40902 0
M  V30 5447 C 530.959 -4.95616 -2.88361 0
M  V30 5448 N 530.455 -6.06003 -3.35756 0
M  V30 5449 N 532.248 -4.82998 -2.87523 0
M  V30 5450 H 524.399 -2.12176 -0.0975576 0
M  V30 5451 H 526.662 -0.942066 -0.105904 0
M  V30 5452 H 526.368 -3.37911 -0.975144 0
M  V30 5453 H 526.242 -2.73162 -2.6012 0
M  V30 5454 H 528.629 -1.76906 -2.36195 0
M  V30 5455 H 528.71 -2.45123 -0.731336 0
M  V30 5456 H 528.354 -4.78153 -1.71267 0
M  V30 5457 H 528.284 -4.06825 -3.34366 0
M  V30 5458 H 530.775 -3.15903 -2.07398 0
M  V30 5459 H 531.088 -6.78215 -3.70464 0
M  V30 5460 H 529.433 -6.09604 -3.33778 0
M  V30 5461 H 532.624 -3.95866 -2.49816 0
M  V30 5462 H 532.797 -5.61072 -3.24196 0
M  V30 5463 N 526.204 0.969867 -1.24223 0
M  V30 5464 C 527.451 1.71256 -1.08063 0
M  V30 5465 C 527.779 1.90734 0.380872 0
M  V30 5466 O 527.034 1.46469 1.29789 0
M  V30 5467 C 527.333 3.10883 -1.76314 0
M  V30 5468 C 526.999 3.11252 -3.26241 0
M  V30 5469 C 525.661 3.1106 -3.67144 0
M  V30 5470 C 528.013 3.05751 -4.22097 0
M  V30 5471 C 525.341 3.03097 -5.02344 0
M  V30 5472 C 527.693 2.9933 -5.57301 0
M  V30 5473 C 526.357 2.97466 -5.97554 0
M  V30 5474 H 525.627 0.62667 -0.395431 0
M  V30 5475 H 528.274 1.13422 -1.54297 0
M  V30 5476 H 526.579 3.72168 -1.22468 0
M  V30 5477 H 528.276 3.67138 -1.61277 0
M  V30 5478 H 524.866 3.12165 -2.93685 0
M  V30 5479 H 529.05 3.05031 -3.91497 0
M  V30 5480 H 524.306 3.00013 -5.32731 0
M  V30 5481 H 528.48 2.94033 -6.31283 0
M  V30 5482 H 526.107 2.91051 -7.02277 0
M  V30 5483 N 527.682 1.05563 1.17022 0
M  V30 5484 C 528.632 0.630007 2.19123 0
M  V30 5485 C 529.616 -0.335472 1.57364 0
M  V30 5486 O 530.808 -0.1521 1.76345 0
M  V30 5487 C 527.937 0.0101676 3.43298 0
M  V30 5488 C 527.023 0.999698 4.12149 0
M  V30 5489 N 527.414 2.17251 4.56766 0
M  V30 5490 C 525.712 0.829 4.38228 0
M  V30 5491 C 526.413 2.79883 5.09942 0
M  V30 5492 N 525.389 2.07656 5.02374 0
M  V30 5493 H 529.191 1.52353 2.51328 0
M  V30 5494 H 526.705 0.926288 1.33393 0
M  V30 5495 H 528.702 -0.312541 4.15727 0
M  V30 5496 H 527.362 -0.878707 3.12584 0
M  V30 5497 H 528.373 2.55067 4.50734 0
M  V30 5498 H 525.05 -0.00850974 4.17499 0
M  V30 5499 H 526.44 3.79362 5.54558 0
M  V30 5500 N 529.16 -1.33526 0.837174 0
M  V30 5501 C 530.123 -2.27551 0.274421 0
M  V30 5502 C 531.123 -1.50886 -0.555881 0
M  V30 5503 O 532.313 -1.70227 -0.369918 0
M  V30 5504 C 529.445 -3.35332 -0.613605 0
M  V30 5505 H 530.638 -2.78837 1.10408 0
M  V30 5506 H 528.191 -1.439 0.610126 0
M  V30 5507 H 528.926 -2.89285 -1.46577 0
M  V30 5508 H 528.711 -3.92095 -0.0195341 0
M  V30 5509 H 530.201 -4.05433 -1.00068 0
M  V30 5510 N 530.638 -0.59345 -1.46 0
M  V30 5511 C 532.049 -0.169801 -1.85926 0
M  V30 5512 C 532.4 1.26984 -1.49565 0
M  V30 5513 O 531.525 1.96076 -0.915602 0
M  V30 5514 C 532.12 -0.301385 -3.37457 0
M  V30 5515 C 530.679 0.0674684 -3.7634 0
M  V30 5516 C 529.826 -0.632383 -2.69993 0
M  V30 5517 H 532.777 -0.801014 -1.37002 0
M  V30 5518 H 532.798 0.470331 -3.77582 0
M  V30 5519 H 532.31 -1.34927 -3.63891 0
M  V30 5520 H 530.411 1.11507 -3.55523 0
M  V30 5521 H 530.524 -0.316332 -4.78055 0
M  V30 5522 H 528.888 -0.0714961 -2.546 0
M  V30 5523 H 529.671 -1.68212 -2.99265 0
M  V30 5524 N 532.116 1.54067 -0.331816 0
M  V30 5525 C 533.364 2.00319 0.267739 0
M  V30 5526 C 533.685 1.22148 1.52003 0
M  V30 5527 O 532.955 0.325494 1.93177 0
M  V30 5528 H 531.535 0.740014 0.101922 0
M  V30 5529 H 534.197 1.89628 -0.450267 0
M  V30 5530 H 533.293 3.07765 0.518385 0
M  V30 5531 N 533.594 0.0601682 1.57485 0
M  V30 5532 C 534.842 -0.610386 1.92662 0
M  V30 5533 C 535.163 -1.70849 0.939981 0
M  V30 5534 O 534.433 -1.95895 -0.0137455 0
M  V30 5535 H 533.013 -0.228457 0.711208 0
M  V30 5536 H 535.675 0.115288 1.94559 0
M  V30 5537 H 534.771 -1.0432 2.94149 0
M  V30 5538 N 535.072 -1.5615 -0.213296 0
M  V30 5539 C 536.319 -1.79546 -0.936462 0
M  V30 5540 C 536.647 -0.630337 -1.84003 0
M  V30 5541 O 535.902 0.384883 -1.91878 0
M  V30 5542 C 536.201 -3.08772 -1.79985 0
M  V30 5543 C 535.867 -4.38532 -1.04882 0
M  V30 5544 C 534.529 -4.73787 -0.841393 0
M  V30 5545 C 536.881 -5.18609 -0.51907 0
M  V30 5546 C 534.209 -5.86627 -0.0924403 0
M  V30 5547 C 536.561 -6.32229 0.216581 0
M  V30 5548 C 535.225 -6.6608 0.435191 0
M  V30 5549 H 534.495 -0.657004 -0.342676 0
M  V30 5550 H 537.142 -1.9041 -0.204051 0
M  V30 5551 H 535.447 -2.93065 -2.60038 0
M  V30 5552 H 537.144 -3.24077 -2.36168 0
M  V30 5553 H 533.734 -4.10855 -1.22048 0
M  V30 5554 H 537.918 -4.91801 -0.666775 0
M  V30 5555 H 533.174 -6.11338 0.087081 0
M  V30 5556 H 537.348 -6.93503 0.634538 0
M  V30 5557 H 534.975 -7.5336 1.01746 0
M  V30 5558 N 536.55 0.480323 -1.50102 0
M  V30 5559 C 537.798 1.23063 -1.60312 0
M  V30 5560 C 538.119 1.92659 -0.301226 0
M  V30 5561 O 537.389 1.83691 0.680753 0
M  V30 5562 H 535.969 0.457231 -0.590719 0
M  V30 5563 H 538.631 0.554893 -1.86834 0
M  V30 5564 H 537.727 1.9835 -2.40964 0
M  V30 5565 N 538.028 1.39524 0.732853 0
M  V30 5566 C 539.274 1.37068 1.49467 0
M  V30 5567 C 539.607 -0.0327166 1.94172 0
M  V30 5568 O 538.882 -0.998071 1.66939 0
M  V30 5569 C 539.165 2.34494 2.73285 0
M  V30 5570 C 539.018 3.83784 2.34585 0
M  V30 5571 C 540.337 2.29717 3.75391 0
M  V30 5572 H 537.456 0.499206 0.542183 0
M  V30 5573 H 540.098 1.70532 0.837783 0
M  V30 5574 H 538.248 2.06087 3.29333 0
M  V30 5575 H 539.92 4.22949 1.84151 0
M  V30 5576 H 538.163 4.00455 1.66787 0
M  V30 5577 H 538.834 4.47444 3.23262 0
M  V30 5578 H 541.31 2.54839 3.28932 0
M  V30 5579 H 540.186 2.99962 4.59689 0
M  V30 5580 H 540.447 1.30291 4.22465 0
M  V30 5581 N 539.506 -0.963266 1.24736 0
M  V30 5582 C 540.922 -1.23273 1.01371 0
M  V30 5583 C 541.122 -1.99618 -0.274776 0
M  V30 5584 O 540.178 -2.32293 -0.989769 0
M  V30 5585 C 541.491 -2.01554 2.23152 0
M  V30 5586 C 543.039 -2.14629 2.27823 0
M  V30 5587 C 543.514 -2.96307 3.49237 0
M  V30 5588 N 545.005 -3.03887 3.49581 0
M  V30 5589 C 545.74 -3.67456 4.40186 0
M  V30 5590 N 545.236 -4.32706 5.41052 0
M  V30 5591 N 547.029 -3.64511 4.27888 0
M  V30 5592 H 539.18 -0.452294 2.07528 0
M  V30 5593 H 541.443 -0.262521 0.910926 0
M  V30 5594 H 541.149 -1.52847 3.1675 0
M  V30 5595 H 541.023 -3.02278 2.25628 0
M  V30 5596 H 543.41 -2.62537 1.34753 0
M  V30 5597 H 543.491 -1.13238 2.2937 0
M  V30 5598 H 543.135 -2.49091 4.42624 0
M  V30 5599 H 543.065 -3.97905 3.44933 0
M  V30 5600 H 545.556 -2.57477 2.76611 0
M  V30 5601 H 545.869 -4.79042 6.06415 0
M  V30 5602 H 544.214 -4.31361 5.44934 0
M  V30 5603 H 547.405 -3.12715 3.4832 0
M  V30 5604 H 547.578 -4.13768 4.98698 0
M  V30 5605 N 540.985 -1.06182 -1.16461 0
M  V30 5606 C 542.231 -0.788825 -1.87481 0
M  V30 5607 C 542.586 0.677298 -1.80085 0
M  V30 5608 O 541.879 1.48976 -1.20486 0
M  V30 5609 C 542.073 -1.21633 -3.36066 0
M  V30 5610 C 541.902 -2.72247 -3.57927 0
M  V30 5611 C 540.672 -3.39696 -3.74079 0
M  V30 5612 C 542.87 -3.70461 -3.56739 0
M  V30 5613 N 540.852 -4.79072 -3.83879 0
M  V30 5614 C 542.223 -4.95616 -3.72511 0
M  V30 5615 C 544.278 -3.63788 -3.39945 0
M  V30 5616 C 542.981 -6.14895 -3.73225 0
M  V30 5617 C 545.007 -4.82517 -3.41953 0
M  V30 5618 C 544.369 -6.065 -3.58242 0
M  V30 5619 H 540.468 -0.341034 -0.703719 0
M  V30 5620 H 543.052 -1.35575 -1.39741 0
M  V30 5621 H 541.223 -0.67725 -3.8245 0
M  V30 5622 H 542.955 -0.892119 -3.94745 0
M  V30 5623 H 539.71 -2.90097 -3.74354 0
M  V30 5624 H 540.134 -5.51573 -3.92551 0
M  V30 5625 H 544.776 -2.68888 -3.26281 0
M  V30 5626 H 542.494 -7.10129 -3.85672 0
M  V30 5627 H 546.08 -4.79017 -3.30203 0
M  V30 5628 H 544.96 -6.96833 -3.59712 0
M  V30 5629 N 542.463 1.3308 -0.844243 0
M  V30 5630 C 543.373 2.32876 -0.283922 0
M  V30 5631 C 544.389 1.63589 0.592846 0
M  V30 5632 O 545.565 1.95205 0.495693 0
M  V30 5633 C 542.63 3.42667 0.527283 0
M  V30 5634 C 541.691 4.27664 -0.374394 0
M  V30 5635 C 540.924 5.32212 0.39819 0
M  V30 5636 O 541.147 5.46635 1.62932 0
M  V30 5637 O 540.081 6.01458 -0.2306 0
M  V30 5638 H 543.907 2.82671 -1.11045 0
M  V30 5639 H 541.492 1.36518 -0.606903 0
M  V30 5640 H 543.374 4.09652 0.988078 0
M  V30 5641 H 542.049 2.95079 1.33078 0
M  V30 5642 H 540.956 3.63526 -0.883144 0
M  V30 5643 H 542.289 4.78749 -1.1428 0
M  V30 5644 N 543.941 0.601185 1.45683 0
M  V30 5645 C 545.166 0.0982245 2.07167 0
M  V30 5646 C 545.591 -1.20546 1.44396 0
M  V30 5647 O 544.949 -1.73247 0.534347 0
M  V30 5648 C 544.997 -0.0346976 3.60583 0
M  V30 5649 O 544.101 -1.08657 3.97828 0
M  V30 5650 H 543.442 0.0711618 0.660176 0
M  V30 5651 H 545.972 0.829376 1.87036 0
M  V30 5652 H 545.982 -0.234969 4.07323 0
M  V30 5653 H 544.657 0.917265 4.05659 0
M  V30 5654 H 543.234 -0.863275 3.6277 0
M  V30 5655 N 545.419 -1.53889 0.339982 0
M  V30 5656 C 546.369 -2.2165 -0.534354 0
M  V30 5657 C 547.353 -1.20266 -1.06887 0
M  V30 5658 O 548.545 -1.45827 -1.00316 0
M  V30 5659 C 545.674 -2.99014 -1.68659 0
M  V30 5660 C 544.76 -4.07751 -1.16618 0
M  V30 5661 N 545.151 -5.04469 -0.366717 0
M  V30 5662 C 543.449 -4.21998 -1.4434 0
M  V30 5663 C 544.15 -5.81638 -0.0847275 0
M  V30 5664 N 543.126 -5.39388 -0.675391 0
M  V30 5665 H 546.928 -2.93781 0.0835562 0
M  V30 5666 H 544.442 -1.61736 0.146665 0
M  V30 5667 H 546.439 -3.46056 -2.32489 0
M  V30 5668 H 545.099 -2.28408 -2.30781 0
M  V30 5669 H 546.11 -5.17899 -0.00811038 0
M  V30 5670 H 542.787 -3.62612 -2.06928 0
M  V30 5671 H 544.177 -6.69563 0.559943 0
M  V30 5672 N 546.897 -0.0685191 -1.57451 0
M  V30 5673 C 548.146 0.600898 -1.92541 0
M  V30 5674 C 548.459 1.70967 -0.950239 0
M  V30 5675 O 549.665 2.43844 -1.19384 0
M  V30 5676 C 548.121 1.12019 -3.42023 0
M  V30 5677 C 547.729 0.0426028 -4.4798 0
M  V30 5678 C 549.473 1.76386 -3.86119 0
M  V30 5679 C 547.38 0.575759 -5.88591 0
M  V30 5680 H 546.31 0.228225 -0.71863 0
M  V30 5681 H 548.961 -0.140223 -1.82963 0
M  V30 5682 H 547.343 1.91418 -3.46663 0
M  V30 5683 H 548.517 -0.73182 -4.54952 0
M  V30 5684 H 546.832 -0.504642 -4.13331 0
M  V30 5685 H 549.429 2.17302 -4.88553 0
M  V30 5686 H 549.772 2.62255 -3.23308 0
M  V30 5687 H 550.305 1.03615 -3.84069 0
M  V30 5688 H 547.044 -0.245691 -6.55039 0
M  V30 5689 H 546.564 1.31778 -5.85145 0
M  V30 5690 H 548.243 1.0532 -6.3837 0
M  V30 5691 N 548.375 1.56261 0.205012 0
M  V30 5692 C 549.605 1.83874 0.942018 0
M  V30 5693 C 550.013 0.647595 1.77772 0
M  V30 5694 O 549.356 -0.393098 1.79445 0
M  V30 5695 C 549.418 3.05453 1.89575 0
M  V30 5696 C 549.082 4.39772 1.24296 0
M  V30 5697 C 550.079 5.16133 0.624724 0
M  V30 5698 C 547.764 4.86504 1.24978 0
M  V30 5699 C 549.758 6.37396 0.0220117 0
M  V30 5700 C 547.445 6.07705 0.643232 0
M  V30 5701 C 548.443 6.82993 0.0304164 0
M  V30 5702 O 548.131 8.019 -0.566654 0
M  V30 5703 H 547.863 0.614896 0.280854 0
M  V30 5704 H 550.417 2.04215 0.220285 0
M  V30 5705 H 548.647 2.80972 2.65691 0
M  V30 5706 H 550.336 3.19797 2.4997 0
M  V30 5707 H 551.102 4.81127 0.611666 0
M  V30 5708 H 546.981 4.27865 1.71616 0
M  V30 5709 H 550.525 6.96102 -0.456926 0
M  V30 5710 H 546.422 6.42181 0.653759 0
M  V30 5711 H 547.19 8.17192 -0.462588 0
M  V30 5712 N 549.853 -0.472356 1.50355 0
M  V30 5713 C 550.816 -1.5529 1.68576 0
M  V30 5714 C 551.816 -1.50863 0.556511 0
M  V30 5715 O 553.006 -1.53505 0.823516 0
M  V30 5716 C 550.138 -2.94921 1.70981 0
M  V30 5717 H 551.331 -1.40451 2.64978 0
M  V30 5718 H 548.884 -0.698645 1.39816 0
M  V30 5719 H 549.619 -3.15204 0.762675 0
M  V30 5720 H 549.404 -2.99541 2.53017 0
M  V30 5721 H 550.894 -3.73372 1.87037 0
M  V30 5722 N 551.331 -1.39911 -0.725443 0
M  V30 5723 C 552.579 -1.37382 -1.48224 0
M  V30 5724 C 552.9 0.0264107 -1.94982 0
M  V30 5725 O 552.17 0.979408 -1.6966 0
M  V30 5726 H 550.75 -0.505596 -0.549892 0
M  V30 5727 H 553.412 -1.7487 -0.860608 0
M  V30 5728 H 552.508 -2.04254 -2.3598 0
M  V30 5729 N 552.809 0.956637 -1.25245 0
M  V30 5730 C 554.039 1.7332 -1.12445 0
M  V30 5731 C 554.447 1.86392 0.324732 0
M  V30 5732 O 553.79 1.35967 1.23526 0
M  V30 5733 C 553.852 3.16603 -1.70303 0
M  V30 5734 C 553.516 3.26966 -3.19284 0
M  V30 5735 C 554.513 3.11434 -4.16299 0
M  V30 5736 C 552.198 3.50851 -3.59456 0
M  V30 5737 C 554.192 3.1963 -5.51467 0
M  V30 5738 C 551.879 3.58684 -4.94761 0
M  V30 5739 C 552.877 3.43087 -5.90576 0
M  V30 5740 O 552.565 3.50598 -7.2342 0
M  V30 5741 H 552.297 0.549981 -0.393061 0
M  V30 5742 H 554.851 1.20892 -1.66055 0
M  V30 5743 H 553.081 3.70385 -1.11138 0
M  V30 5744 H 554.77 3.76109 -1.52632 0
M  V30 5745 H 555.536 2.92853 -3.86604 0
M  V30 5746 H 551.415 3.62053 -2.85375 0
M  V30 5747 H 554.959 3.07373 -6.26233 0
M  V30 5748 H 550.856 3.76782 -5.24124 0
M  V30 5749 H 551.624 3.67242 -7.31489 0
M  V30 5750 N 554.287 1.06798 1.15896 0
M  V30 5751 C 555.515 0.808694 1.90441 0
M  V30 5752 C 555.93 -0.637506 1.77711 0
M  V30 5753 O 555.287 -1.43684 1.12522 0
M  V30 5754 C 555.338 1.20068 3.40978 0
M  V30 5755 O 555.059 2.59013 3.53333 0
M  V30 5756 C 556.56 0.96987 4.3256 0
M  V30 5757 H 553.78 0.292809 0.603742 0
M  V30 5758 H 556.324 1.42296 1.46874 0
M  V30 5759 H 554.479 0.630842 3.82229 0
M  V30 5760 H 554.893 2.7485 4.46719 0
M  V30 5761 H 556.367 1.29371 5.36626 0
M  V30 5762 H 556.844 -0.0941209 4.39099 0
M  V30 5763 H 557.45 1.52433 3.97044 0
M  V30 5764 N 555.766 -1.3263 0.851289 0
M  V30 5765 C 557.012 -1.9766 0.453694 0
M  V30 5766 C 557.345 -1.67225 -0.987396 0
M  V30 5767 O 556.62 -0.958693 -1.69232 0
M  V30 5768 C 556.903 -3.5344 0.68936 0
M  V30 5769 C 556.756 -3.93517 2.17862 0
M  V30 5770 C 558.075 -4.39866 0.143555 0
M  V30 5771 H 555.194 -0.717989 0.166314 0
M  V30 5772 H 557.836 -1.57068 1.06909 0
M  V30 5773 H 555.986 -3.88147 0.165546 0
M  V30 5774 H 557.658 -3.69006 2.76826 0
M  V30 5775 H 555.901 -3.42798 2.65841 0
M  V30 5776 H 556.572 -5.02065 2.29422 0
M  V30 5777 H 559.048 -4.11875 0.591451 0
M  V30 5778 H 557.924 -5.47858 0.338043 0
M  V30 5779 H 558.185 -4.31696 -0.953466 0
M  V30 5780 N 557.244 -0.608902 -1.45362 0
M  V30 5781 C 558.655 -0.189511 -1.85736 0
M  V30 5782 C 559.006 1.2539 -1.50903 0
M  V30 5783 O 558.131 1.95094 -0.936347 0
M  V30 5784 C 558.726 -0.33716 -3.37118 0
M  V30 5785 C 557.285 0.0275487 -3.7639 0
M  V30 5786 C 556.432 -0.660983 -2.69307 0
M  V30 5787 H 559.383 -0.815499 -1.36144 0
M  V30 5788 H 559.404 0.430257 -3.7806 0
M  V30 5789 H 558.916 -1.38779 -3.62439 0
M  V30 5790 H 557.017 1.0773 -3.56686 0
M  V30 5791 H 557.13 -0.367018 -4.77692 0
M  V30 5792 H 555.494 -0.0984958 -2.54509 0
M  V30 5793 H 556.277 -1.71377 -2.97464 0
M  V30 5794 N 558.722 1.53707 -0.348139 0
M  V30 5795 C 560.133 1.86213 0.134797 0
M  V30 5796 C 560.484 1.26925 1.49614 0
M  V30 5797 O 559.609 0.584573 2.08355 0
M  V30 5798 C 560.204 3.37866 0.251371 0
M  V30 5799 C 558.763 3.70233 0.678543 0
M  V30 5800 C 557.91 2.76683 -0.184925 0
M  V30 5801 H 560.861 1.48204 -0.567571 0
M  V30 5802 H 560.882 3.64908 1.07806 0
M  V30 5803 H 560.394 3.80988 -0.739581 0
M  V30 5804 H 558.495 3.32659 1.67835 0
M  V30 5805 H 558.608 4.76836 0.465251 0
M  V30 5806 H 556.972 2.52374 0.343465 0
M  V30 5807 H 557.755 3.22635 -1.1731 0
M  V30 5808 N 560.2 0.0768682 1.57412 0
M  V30 5809 C 561.43 -0.5991 1.97723 0
M  V30 5810 C 561.838 -1.63378 0.954166 0
M  V30 5811 O 561.181 -1.83578 -0.0668706 0
M  V30 5812 C 561.243 -1.32078 3.34358 0
M  V30 5813 C 560.907 -0.438985 4.54887 0
M  V30 5814 C 561.904 0.305492 5.19002 0
M  V30 5815 C 559.589 -0.362378 5.00991 0
M  V30 5816 C 561.583 1.11475 6.27576 0
M  V30 5817 C 559.27 0.450543 6.09437 0
M  V30 5818 C 560.268 1.18777 6.72593 0
M  V30 5819 O 559.956 1.98727 7.7895 0
M  V30 5820 H 559.688 -0.166725 0.655117 0
M  V30 5821 H 562.242 0.147337 2.04871 0
M  V30 5822 H 560.472 -2.1134 3.2384 0
M  V30 5823 H 562.161 -1.88949 3.5924 0
M  V30 5824 H 562.927 0.25593 4.84324 0
M  V30 5825 H 558.806 -0.925832 4.51608 0
M  V30 5826 H 562.35 1.69068 6.76803 0
M  V30 5827 H 558.247 0.501651 6.43548 0
M  V30 5828 H 559.015 1.91214 7.95851 0
M  V30 5829 N 561.678 -1.56367 -0.196722 0
M  V30 5830 C 562.908 -1.84371 -0.932254 0
M  V30 5831 C 563.316 -0.657013 -1.77426 0
M  V30 5832 O 562.659 0.383576 -1.79651 0
M  V30 5833 C 562.721 -3.06454 -1.87952 0
M  V30 5834 C 562.385 -4.40425 -1.21962 0
M  V30 5835 C 563.382 -5.16457 -0.597343 0
M  V30 5836 C 561.067 -4.8716 -1.22396 0
M  V30 5837 C 563.061 -6.37399 0.0117913 0
M  V30 5838 C 560.748 -6.08038 -0.610995 0
M  V30 5839 C 561.746 -6.83 0.00580487 0
M  V30 5840 O 561.434 -8.01589 0.609173 0
M  V30 5841 H 561.166 -0.616377 -0.277589 0
M  V30 5842 H 563.72 -2.04329 -0.209452 0
M  V30 5843 H 561.95 -2.82377 -2.64197 0
M  V30 5844 H 563.639 -3.21118 -2.48271 0
M  V30 5845 H 564.405 -4.81445 -0.586142 0
M  V30 5846 H 560.284 -4.2877 -1.69345 0
M  V30 5847 H 563.828 -6.9585 0.493836 0
M  V30 5848 H 559.725 -6.42519 -0.619693 0
M  V30 5849 H 560.493 -8.16935 0.505919 0
M  V30 5850 N 563.156 0.464375 -1.50603 0
M  V30 5851 C 564.433 1.22549 -1.5245 0
M  V30 5852 C 564.813 2.09327 -0.273035 0
M  V30 5853 O 564.161 2.16074 0.743242 0
M  V30 5854 C 564.371 2.05074 -2.82393 0
M  V30 5855 C 565.719 2.63036 -3.33313 0
M  V30 5856 O 566.743 2.1531 -2.8376 0
M  V30 5857 O 565.602 3.5001 -4.19709 0
M  V30 5858 H 562.696 0.556471 -0.611775 0
M  V30 5859 H 565.242 0.475648 -1.62898 0
M  V30 5860 H 564.014 1.41169 -3.64948 0
M  V30 5861 H 563.637 2.87179 -2.7498 0
M  V30 5862 N 564.634 1.40294 0.718013 0
M  V30 5863 C 565.859 1.41941 1.5122 0
M  V30 5864 C 566.284 0.0202371 1.88089 0
M  V30 5865 O 565.642 -0.971078 1.53101 0
M  V30 5866 C 565.69 2.3141 2.76554 0
M  V30 5867 O 564.794 1.75567 3.73162 0
M  V30 5868 H 564.135 0.482644 0.456016 0
M  V30 5869 H 566.665 1.84494 0.884478 0
M  V30 5870 H 566.675 2.46513 3.25108 0
M  V30 5871 H 565.35 3.33085 2.49053 0
M  V30 5872 H 563.927 1.69798 3.31999 0
M  V30 5873 N 566.112 -0.949982 1.2575 0
M  V30 5874 C 567.045 -2.047 1.00862 0
M  V30 5875 C 568.023 -1.62475 -0.0636982 0
M  V30 5876 O 569.207 -1.88343 0.0769153 0
M  V30 5877 C 566.334 -3.34597 0.525613 0
M  V30 5878 C 565.38 -3.95788 1.58916 0
M  V30 5879 S 566.213 -4.31175 3.17567 0
M  V30 5880 C 567.369 -5.64183 2.71013 0
M  V30 5881 H 567.602 -2.25497 1.93749 0
M  V30 5882 H 565.135 -1.09022 1.09332 0
M  V30 5883 H 567.093 -4.09716 0.25359 0
M  V30 5884 H 565.754 -3.11758 -0.382828 0
M  V30 5885 H 564.947 -4.89457 1.20201 0
M  V30 5886 H 564.549 -3.27168 1.81211 0
M  V30 5887 H 566.841 -6.42504 2.14928 0
M  V30 5888 H 567.784 -6.07774 3.6334 0
M  V30 5889 H 568.192 -5.2364 2.1086 0
M  V30 5890 N 567.59 -1.07411 -1.15328 0
M  V30 5891 C 568.839 -0.792643 -1.85473 0
M  V30 5892 C 569.152 0.683789 -1.83259 0
M  V30 5893 O 570.358 1.08005 -2.49093 0
M  V30 5894 C 568.814 -1.36787 -3.32892 0
M  V30 5895 C 568.422 -2.87536 -3.43551 0
M  V30 5896 C 570.166 -1.16444 -4.08217 0
M  V30 5897 C 568.073 -3.38247 -4.85122 0
M  V30 5898 H 567.003 -0.292838 -0.694811 0
M  V30 5899 H 569.654 -1.29426 -1.30082 0
M  V30 5900 H 568.036 -0.793993 -3.87958 0
M  V30 5901 H 569.21 -3.50973 -2.98588 0
M  V30 5902 H 567.525 -3.06676 -2.81672 0
M  V30 5903 H 570.122 -1.51808 -5.12697 0
M  V30 5904 H 570.465 -0.10353 -4.16171 0
M  V30 5905 H 570.998 -1.70472 -3.59422 0
M  V30 5906 H 567.737 -4.43866 -4.82351 0
M  V30 5907 H 567.257 -2.79564 -5.30664 0
M  V30 5908 H 568.936 -3.34238 -5.5398 0
M  V30 5909 N 569.068 1.32177 -0.85831 0
M  V30 5910 C 570.316 1.96735 -0.462568 0
M  V30 5911 C 570.637 1.6824 0.985911 0
M  V30 5912 O 569.907 0.991564 1.68952 0
M  V30 5913 H 568.487 0.727849 -0.168064 0
M  V30 5914 H 571.149 1.61195 -1.09554 0
M  V30 5915 H 570.245 3.06068 -0.610647 0
M  V30 5916 N 570.547 0.616602 1.45037 0
M  V30 5917 C 571.494 -0.0969439 2.30596 0
M  V30 5918 C 572.464 -0.851151 1.42635 0
M  V30 5919 O 573.649 -0.835092 1.71554 0
M  V30 5920 C 570.789 -1.08234 3.27688 0
M  V30 5921 C 569.902 -0.328072 4.30752 0
M  V30 5922 C 569.037 -1.30399 5.14946 0
M  V30 5923 C 568.076 -0.538049 6.09731 0
M  V30 5924 N 567.213 -1.46371 6.86673 0
M  V30 5925 H 572.053 0.63864 2.91076 0
M  V30 5926 H 569.59 0.326733 1.43425 0
M  V30 5927 H 571.548 -1.66688 3.82454 0
M  V30 5928 H 570.178 -1.78523 2.68941 0
M  V30 5929 H 569.23 0.372136 3.78575 0
M  V30 5930 H 570.542 0.269142 4.98073 0
M  V30 5931 H 569.696 -1.96032 5.74157 0
M  V30 5932 H 568.435 -1.93514 4.47665 0
M  V30 5933 H 567.44 0.131852 5.49642 0
M  V30 5934 H 568.665 0.0881732 6.79043 0
M  V30 5935 H 566.611 -2.08233 6.22073 0
M  V30 5936 H 566.528 -0.920152 7.50379 0
M  V30 5937 H 567.796 -2.10932 7.50418 0
M  V30 5938 N 572.025 -1.5352 0.356285 0
M  V30 5939 C 572.955 -2.28372 -0.486661 0
M  V30 5940 C 573.936 -1.30432 -1.09185 0
M  V30 5941 O 575.121 -1.59291 -1.11085 0
M  V30 5942 C 572.251 -3.06604 -1.63129 0
M  V30 5943 C 571.205 -4.12154 -1.15381 0
M  V30 5944 C 570.531 -4.78415 -2.38796 0
M  V30 5945 C 571.831 -5.21724 -0.245179 0
M  V30 5946 H 573.525 -2.99083 0.137797 0
M  V30 5947 H 571.071 -1.43841 0.0677134 0
M  V30 5948 H 573.024 -3.57712 -2.22755 0
M  V30 5949 H 571.748 -2.33568 -2.28284 0
M  V30 5950 H 570.407 -3.61978 -0.580294 0
M  V30 5951 H 570.055 -4.01959 -3.02387 0
M  V30 5952 H 569.755 -5.49734 -2.07524 0
M  V30 5953 H 571.279 -5.32313 -2.99125 0
M  V30 5954 H 572.693 -5.68391 -0.748646 0
M  V30 5955 H 571.09 -6.00095 -0.0237608 0
M  V30 5956 H 572.16 -4.79596 0.715229 0
M  V30 5957 N 573.503 -0.0852151 -1.57369 0
M  V30 5958 C 574.752 0.580443 -1.93168 0
M  V30 5959 C 575.065 1.6995 -0.968319 0
M  V30 5960 O 576.271 2.42564 -1.21963 0
M  V30 5961 C 574.727 1.08386 -3.43192 0
M  V30 5962 C 574.335 -0.00491388 -4.48 0
M  V30 5963 C 576.079 1.72281 -3.87968 0
M  V30 5964 C 573.986 0.513299 -5.89168 0
M  V30 5965 H 572.916 0.22059 -0.72101 0
M  V30 5966 H 575.567 -0.159621 -1.82804 0
M  V30 5967 H 573.949 1.8773 -3.48674 0
M  V30 5968 H 575.123 -0.780032 -4.5415 0
M  V30 5969 H 573.438 -0.548453 -4.12772 0
M  V30 5970 H 576.035 2.12108 -4.9083 0
M  V30 5971 H 576.378 2.58811 -3.26071 0
M  V30 5972 H 576.911 0.995359 -3.85146 0
M  V30 5973 H 573.65 -0.315153 -6.54742 0
M  V30 5974 H 573.17 1.25564 -5.8651 0
M  V30 5975 H 574.849 0.985433 -6.39451 0
M  V30 5976 N 574.981 1.5647 0.188427 0
M  V30 5977 C 576.221 1.82803 0.914469 0
M  V30 5978 C 576.585 0.663681 1.80165 0
M  V30 5979 O 577.786 0.807059 2.56398 0
M  V30 5980 C 576.057 3.14187 1.70357 0
M  V30 5981 S 577.616 3.61947 2.48072 0
M  V30 5982 H 574.434 0.641497 0.306599 0
M  V30 5983 H 577.036 1.94694 0.177361 0
M  V30 5984 H 575.74 3.96937 1.04255 0
M  V30 5985 H 575.271 3.05192 2.48237 0
M  V30 5986 H 577.286 3.27913 3.72407 0
M  V30 5987 N 576.459 -0.456382 1.50847 0
M  V30 5988 C 577.689 -1.22848 1.66108 0
M  V30 5989 C 578.097 -1.85936 0.349897 0
M  V30 5990 O 577.44 -1.70664 -0.679665 0
M  V30 5991 C 577.502 -2.36722 2.70561 0
M  V30 5992 C 577.166 -1.94154 4.13707 0
M  V30 5993 C 578.163 -1.4557 4.99105 0
M  V30 5994 C 575.848 -2.02426 4.59705 0
M  V30 5995 C 577.842 -1.0582 6.28555 0
M  V30 5996 C 575.529 -1.62287 5.89157 0
M  V30 5997 C 576.527 -1.14064 6.73408 0
M  V30 5998 O 576.215 -0.744873 8.00442 0
M  V30 5999 H 575.947 -0.377105 0.561042 0
M  V30 6000 H 578.501 -0.549431 1.97915 0
M  V30 6001 H 576.731 -3.07844 2.34027 0
M  V30 6002 H 578.42 -2.98646 2.74892 0
M  V30 6003 H 579.186 -1.38589 4.64777 0
M  V30 6004 H 575.065 -2.38908 3.94264 0
M  V30 6005 H 578.609 -0.6811 6.94267 0
M  V30 6006 H 574.506 -1.68932 6.23003 0
M  V30 6007 H 575.274 -0.87242 8.13837 0
M  V30 6008 N 577.937 -1.40673 -0.710563 0
M  V30 6009 C 579.185 -1.38947 -1.46759 0
M  V30 6010 C 579.506 0.00572879 -1.94999 0
M  V30 6011 O 578.776 0.961358 -1.70689 0
M  V30 6012 H 577.356 -0.5114 -0.544499 0
M  V30 6013 H 580.018 -1.75773 -0.842012 0
M  V30 6014 H 579.114 -2.06745 -2.33801 0
M  V30 6015 N 579.415 0.9433 -1.26252 0
M  V30 6016 C 580.325 2.07532 -1.09397 0
M  V30 6017 C 581.341 1.73977 -0.0280449 0
M  V30 6018 O 582.517 2.00067 -0.231337 0
M  V30 6019 C 579.582 3.39002 -0.726523 0
M  V30 6020 C 578.643 3.86353 -1.87163 0
M  V30 6021 C 577.876 5.11549 -1.52162 0
M  V30 6022 O 578.099 5.68834 -0.422385 0
M  V30 6023 O 577.033 5.53889 -2.35565 0
M  V30 6024 H 580.859 2.24658 -2.04359 0
M  V30 6025 H 578.444 1.05988 -1.05295 0
M  V30 6026 H 580.326 4.18 -0.534236 0
M  V30 6027 H 579.001 3.2312 0.193721 0
M  V30 6028 H 577.908 3.0831 -2.11886 0
M  V30 6029 H 579.241 4.06752 -2.77152 0
M  V30 6030 N 580.893 1.08022 1.14757 0
M  V30 6031 C 581.841 0.701088 2.21783 0
M  V30 6032 C 582.835 -0.291311 1.66876 0
M  V30 6033 O 584.041 -0.154296 1.79337 0
M  V30 6034 H 580.416 0.208668 0.722469 0
M  V30 6035 H 582.387 1.61321 2.51034 0
M  V30 6036 C 581.136 0.122278 3.47485 0
M  V30 6037 H 580.459 0.877065 3.90061 0
M  V30 6038 H 581.899 -0.105248 4.23869 0
M  V30 6039 C 580.358 -1.13883 3.17068 0
M  V30 6040 O 580.888 -2.22429 3.34497 0
M  V30 6041 N 579.094 -1.04767 2.71058 0
M  V30 6042 H 578.641 -0.164302 2.57075 0
M  V30 6043 H 578.599 -1.89224 2.51081 0
M  V30 6044 N 582.371 -1.3172 0.865308 0
M  V30 6045 C 583.787 -1.4958 0.556596 0
M  V30 6046 C 583.987 -1.79763 -0.910353 0
M  V30 6047 O 583.043 -1.87351 -1.6928 0
M  V30 6048 C 584.356 -2.63277 1.45279 0
M  V30 6049 C 585.904 -2.77161 1.45433 0
M  V30 6050 C 586.379 -3.93949 2.33598 0
M  V30 6051 N 587.87 -4.01228 2.31453 0
M  V30 6052 C 588.605 -4.90855 2.96393 0
M  V30 6053 N 588.101 -5.85416 3.70486 0
M  V30 6054 N 589.894 -4.84063 2.85726 0
M  V30 6055 H 582.045 -1.10396 1.81456 0
M  V30 6056 H 584.308 -0.54507 0.775631 0
M  V30 6057 H 584.014 -2.47734 2.49641 0
M  V30 6058 H 583.888 -3.59309 1.14792 0
M  V30 6059 H 586.275 -2.9212 0.41831 0
M  V30 6060 H 586.356 -1.8181 1.79941 0
M  V30 6061 H 586 -3.79748 3.37274 0
M  V30 6062 H 585.93 -4.88598 1.96417 0
M  V30 6063 H 588.421 -3.3357 1.77593 0
M  V30 6064 H 588.734 -6.50525 4.17178 0
M  V30 6065 H 587.079 -5.85409 3.74594 0
M  V30 6066 H 590.27 -4.09163 2.27384 0
M  V30 6067 H 590.443 -5.53708 3.36617 0
M  V30 6068 N 583.85 -0.624285 -1.44708 0
M  V30 6069 C 585.127 -0.0572781 -1.95516 0
M  V30 6070 C 585.507 1.41516 -1.56641 0
M  V30 6071 O 584.855 2.12614 -0.837111 0
M  V30 6072 C 585.065 -0.272944 -3.47931 0
M  V30 6073 C 586.413 -0.162529 -4.24289 0
M  V30 6074 O 587.437 -0.203946 -3.55616 0
M  V30 6075 O 586.296 -0.0616847 -5.46465 0
M  V30 6076 H 583.389 0.0262219 -0.826584 0
M  V30 6077 H 585.936 -0.695512 -1.54793 0
M  V30 6078 H 584.707 -1.29492 -3.69253 0
M  V30 6079 H 584.331 0.399756 -3.95585 0
M  V30 6080 N 585.328 1.53329 -0.364422 0
M  V30 6081 C 586.574 2.01537 0.225969 0
M  V30 6082 C 586.907 1.25128 1.48515 0
M  V30 6083 O 586.182 0.344653 1.91422 0
M  V30 6084 C 586.465 3.56339 0.519092 0
M  V30 6085 C 586.318 4.43441 -0.753639 0
M  V30 6086 C 587.637 4.19833 1.32015 0
M  V30 6087 H 584.756 0.732573 0.0806548 0
M  V30 6088 H 587.398 1.83597 -0.489084 0
M  V30 6089 H 585.548 3.71756 1.12825 0
M  V30 6090 H 587.22 4.39823 -1.39116 0
M  V30 6091 H 585.463 4.11457 -1.37424 0
M  V30 6092 H 586.134 5.49699 -0.503517 0
M  V30 6093 H 588.61 4.08242 0.804859 0
M  V30 6094 H 587.486 5.28177 1.49399 0
M  V30 6095 H 587.747 3.75821 2.32832 0
M  V30 6096 N 586.806 0.0935595 1.57322 0
M  V30 6097 C 587.769 -0.851426 2.12799 0
M  V30 6098 C 588.769 -1.21187 1.0569 0
M  V30 6099 O 589.959 -1.14156 1.31583 0
M  V30 6100 C 587.091 -2.14779 2.64731 0
M  V30 6101 H 588.284 -0.369733 2.97612 0
M  V30 6102 H 585.837 -0.155417 1.55525 0
M  V30 6103 H 586.572 -2.67437 1.83434 0
M  V30 6104 H 586.357 -1.89907 3.43042 0
M  V30 6105 H 587.847 -2.82383 3.07651 0
M  V30 6106 N 588.284 -1.56567 -0.180126 0
M  V30 6107 C 589.533 -1.80685 -0.896426 0
M  V30 6108 C 589.846 -0.669335 -1.83791 0
M  V30 6109 O 591.052 -0.795209 -2.59593 0
M  V30 6110 C 589.508 -3.20132 -1.6445 0
M  V30 6111 C 589.116 -4.41727 -0.747088 0
M  V30 6112 C 590.86 -3.53549 -2.34955 0
M  V30 6113 C 588.767 -5.72195 -1.49489 0
M  V30 6114 H 587.697 -0.673758 -0.338477 0
M  V30 6115 H 590.348 -1.8289 -0.149467 0
M  V30 6116 H 588.73 -3.12218 -2.43589 0
M  V30 6117 H 589.904 -4.608 0.00671129 0
M  V30 6118 H 588.219 -4.16122 -0.152134 0
M  V30 6119 H 590.816 -4.48267 -2.91481 0
M  V30 6120 H 591.159 -2.78006 -3.09868 0
M  V30 6121 H 591.692 -3.62976 -1.62768 0
M  V30 6122 H 588.431 -6.50743 -0.788251 0
M  V30 6123 H 587.951 -5.57115 -2.22224 0
M  V30 6124 H 589.63 -6.1384 -2.04472 0
M  V30 6125 N 589.762 0.448376 -1.51087 0
M  V30 6126 C 590.725 1.52588 -1.71025 0
M  V30 6127 C 591.725 1.49958 -0.580442 0
M  V30 6128 O 592.915 1.52176 -0.847833 0
M  V30 6129 C 590.047 2.92163 -1.75652 0
M  V30 6130 H 591.24 1.36218 -2.67179 0
M  V30 6131 H 588.793 0.676313 -1.4091 0
M  V30 6132 H 589.528 3.13951 -0.812724 0
M  V30 6133 H 589.313 2.95478 -2.57751 0
M  V30 6134 H 590.803 3.70349 -1.92953 0
M  V30 6135 N 591.24 1.41047 0.703093 0
M  V30 6136 C 592.656 1.23351 1.01275 0
M  V30 6137 C 592.856 0.11754 2.01157 0
M  V30 6138 O 591.912 -0.520518 2.47077 0
M  V30 6139 C 593.225 2.58001 1.54454 0
M  V30 6140 C 594.773 2.65119 1.66376 0
M  V30 6141 C 595.248 4.00067 2.22958 0
M  V30 6142 N 596.739 4.01875 2.30328 0
M  V30 6143 C 597.474 5.03087 2.75119 0
M  V30 6144 N 596.97 6.14692 3.19571 0
M  V30 6145 N 598.763 4.90451 2.74616 0
M  V30 6146 H 590.914 2.1236 0.0412686 0
M  V30 6147 H 593.177 0.944543 0.08089 0
M  V30 6148 H 592.883 3.40378 0.88521 0
M  V30 6149 H 592.757 2.79962 2.52786 0
M  V30 6150 H 595.144 1.83106 2.31422 0
M  V30 6151 H 595.225 2.46975 0.666089 0
M  V30 6152 H 594.869 4.82526 1.58529 0
M  V30 6153 H 594.799 4.15547 3.23462 0
M  V30 6154 H 597.29 3.21291 1.98949 0
M  V30 6155 H 597.603 6.87799 3.52352 0
M  V30 6156 H 595.948 6.18239 3.17498 0
M  V30 6157 H 599.139 4.0235 2.39233 0
M  V30 6158 H 599.312 5.6947 3.09206 0
M  V30 6159 N 592.718 -0.936591 1.26751 0
M  V30 6160 C 593.651 -2.03619 1.03027 0
M  V30 6161 C 594.629 -1.62534 -0.0464619 0
M  V30 6162 O 595.813 -1.88251 0.0968873 0
M  V30 6163 C 592.94 -3.3402 0.561072 0
M  V30 6164 C 591.986 -3.9408 1.63105 0
M  V30 6165 S 592.819 -4.27782 3.22122 0
M  V30 6166 C 593.975 -5.61277 2.76982 0
M  V30 6167 H 594.208 -2.23429 1.96129 0
M  V30 6168 H 591.741 -1.07857 1.10482 0
M  V30 6169 H 593.699 -4.09424 0.297031 0
M  V30 6170 H 592.36 -3.12147 -0.349741 0
M  V30 6171 H 591.553 -4.88154 1.25386 0
M  V30 6172 H 591.155 -3.25227 1.84671 0
M  V30 6173 H 593.447 -6.40189 2.21731 0
M  V30 6174 H 594.39 -6.03887 3.69766 0
M  V30 6175 H 594.798 -5.21374 2.16402 0
M  V30 6176 N 594.196 -1.08629 -1.14182 0
M  V30 6177 C 595.143 -0.718299 -2.19338 0
M  V30 6178 C 596.113 0.296587 -1.63431 0
M  V30 6179 O 597.298 0.180079 -1.89948 0
M  V30 6180 C 594.438 -0.136203 -3.44831 0
M  V30 6181 C 593.551 -1.20414 -4.14879 0
M  V30 6182 C 592.686 -0.585666 -5.27962 0
M  V30 6183 C 591.725 -1.63548 -5.89846 0
M  V30 6184 N 590.862 -1.03864 -6.94375 0
M  V30 6185 H 595.702 -1.61932 -2.50164 0
M  V30 6186 H 593.239 -0.80919 -1.22844 0
M  V30 6187 H 595.197 0.219021 -4.16625 0
M  V30 6188 H 593.827 0.728121 -3.14481 0
M  V30 6189 H 592.879 -1.67676 -3.41451 0
M  V30 6190 H 594.191 -1.99959 -4.56966 0
M  V30 6191 H 593.345 -0.178818 -6.06436 0
M  V30 6192 H 592.084 0.24142 -4.87102 0
M  V30 6193 H 591.089 -2.05197 -5.10073 0
M  V30 6194 H 592.314 -2.46509 -6.3278 0
M  V30 6195 H 590.26 -0.232687 -6.55587 0
M  V30 6196 H 590.177 -1.77116 -7.3496 0
M  V30 6197 H 591.445 -0.657724 -7.7672 0
M  V30 6198 N 595.674 1.31259 -0.872281 0
M  V30 6199 C 596.622 2.30404 -0.318897 0
M  V30 6200 C 597.616 1.5962 0.567267 0
M  V30 6201 O 598.822 1.74204 0.453111 0
M  V30 6202 H 595.197 0.747243 -0.0844474 0
M  V30 6203 H 597.168 2.74549 -1.16899 0
M  V30 6204 C 595.917 3.44608 0.462683 0
M  V30 6205 H 595.24 3.99248 -0.209936 0
M  V30 6206 H 596.68 4.1609 0.815187 0
M  V30 6207 C 595.139 2.93456 1.65485 0
M  V30 6208 O 595.669 2.92418 2.75417 0
M  V30 6209 N 593.875 2.49628 1.48776 0
M  V30 6210 H 593.422 2.50671 0.593452 0
M  V30 6211 H 593.38 2.15759 2.28682 0
M  V30 6212 N 597.152 0.631951 1.44375 0
M  V30 6213 C 598.115 -0.0628142 2.29114 0
M  V30 6214 C 599.115 -0.771494 1.41084 0
M  V30 6215 O 600.305 -0.615959 1.62947 0
M  V30 6216 C 597.437 -1.09953 3.22681 0
M  V30 6217 H 598.63 0.682509 2.92031 0
M  V30 6218 H 596.183 0.392128 1.51301 0
M  V30 6219 H 596.918 -1.87481 2.64616 0
M  V30 6220 H 596.703 -0.595286 3.87555 0
M  V30 6221 H 598.193 -1.58538 3.86336 0
M  V30 6222 N 598.631 -1.53133 0.372548 0
M  V30 6223 C 599.561 -2.28876 -0.462412 0
M  V30 6224 C 600.542 -1.31583 -1.07796 0
M  V30 6225 O 601.727 -1.60461 -1.09389 0
M  V30 6226 C 598.857 -3.08317 -1.59868 0
M  V30 6227 C 597.811 -4.13355 -1.11003 0
M  V30 6228 C 597.137 -4.8092 -2.33708 0
M  V30 6229 C 598.437 -5.21955 -0.18983 0
M  V30 6230 H 600.131 -2.9892 0.169511 0
M  V30 6231 H 597.677 -1.43761 0.0829658 0
M  V30 6232 H 599.63 -3.60055 -2.18949 0
M  V30 6233 H 598.354 -2.35976 -2.25794 0
M  V30 6234 H 597.013 -3.62573 -0.541869 0
M  V30 6235 H 596.661 -4.05144 -2.98106 0
M  V30 6236 H 596.361 -5.51904 -2.01682 0
M  V30 6237 H 597.885 -5.35455 -2.93462 0
M  V30 6238 H 599.299 -5.69153 -0.688319 0
M  V30 6239 H 597.696 -6.00087 0.0398887 0
M  V30 6240 H 598.766 -4.78811 0.766057 0
M  V30 6241 N 600.109 -0.101901 -1.5727 0
M  V30 6242 C 601.041 0.884723 -2.11436 0
M  V30 6243 C 602.054 1.24149 -1.05314 0
M  V30 6244 O 603.243 1.19341 -1.3274 0
M  V30 6245 C 600.343 2.19179 -2.58484 0
M  V30 6246 C 599.516 2.00933 -3.88516 0
M  V30 6247 C 598.575 3.15213 -4.2134 0
M  V30 6248 O 597.601 2.88877 -4.90448 0
M  V30 6249 N 598.803 4.41174 -3.77288 0
M  V30 6250 H 601.568 0.422058 -2.96713 0
M  V30 6251 H 599.129 0.0830128 -1.61687 0
M  V30 6252 H 601.121 2.94593 -2.77484 0
M  V30 6253 H 599.691 2.56847 -1.7818 0
M  V30 6254 H 598.911 1.09809 -3.78597 0
M  V30 6255 H 600.199 1.86026 -4.73573 0
M  V30 6256 H 599.597 4.6545 -3.21516 0
M  V30 6257 H 598.154 5.13515 -4.01429 0
M  V30 6258 N 601.587 1.56661 0.17182 0
M  V30 6259 C 602.497 1.99604 1.2327 0
M  V30 6260 C 603.513 0.907333 1.4847 0
M  V30 6261 O 604.689 1.21492 1.60629 0
M  V30 6262 C 601.754 2.34685 2.55194 0
M  V30 6263 C 600.815 3.57381 2.3786 0
M  V30 6264 C 600.048 3.90779 3.63494 0
M  V30 6265 O 600.271 3.25152 4.6865 0
M  V30 6266 O 599.205 4.84129 3.57634 0
M  V30 6267 H 603.031 2.90114 0.898192 0
M  V30 6268 H 600.616 1.44522 0.378647 0
M  V30 6269 H 602.498 2.5822 3.33017 0
M  V30 6270 H 601.173 1.47336 2.88225 0
M  V30 6271 H 600.08 3.39064 1.5807 0
M  V30 6272 H 601.413 4.45268 2.09754 0
M  V30 6273 N 603.065 -0.440357 1.51323 0
M  V30 6274 C 603.995 -1.54174 1.75364 0
M  V30 6275 C 604.976 -1.59039 0.603375 0
M  V30 6276 O 606.161 -1.74815 0.845774 0
M  V30 6277 C 603.291 -2.92277 1.87593 0
M  V30 6278 C 602.245 -3.02274 3.03009 0
M  V30 6279 C 601.571 -4.42327 3.00418 0
M  V30 6280 C 602.871 -2.76634 4.43024 0
M  V30 6281 H 604.565 -1.34307 2.67585 0
M  V30 6282 H 602.111 -0.644678 1.28763 0
M  V30 6283 H 604.064 -3.69284 2.02995 0
M  V30 6284 H 602.788 -3.13369 0.920179 0
M  V30 6285 H 601.447 -2.27706 2.87307 0
M  V30 6286 H 601.095 -4.60382 2.02626 0
M  V30 6287 H 600.795 -4.49946 3.77918 0
M  V30 6288 H 602.319 -5.21312 3.17909 0
M  V30 6289 H 603.733 -3.43376 4.59093 0
M  V30 6290 H 602.13 -2.95666 5.22208 0
M  V30 6291 H 603.2 -1.72262 4.5327 0
M  V30 6292 N 604.543 -1.41418 -0.695603 0
M  V30 6293 C 605.792 -1.40073 -1.4513 0
M  V30 6294 C 606.105 -0.0130439 -1.95596 0
M  V30 6295 O 607.311 0.123032 -2.71221 0
M  V30 6296 C 605.767 -2.46286 -2.62433 0
M  V30 6297 C 605.375 -3.90962 -2.18753 0
M  V30 6298 C 607.119 -2.54077 -3.40066 0
M  V30 6299 C 605.026 -4.88728 -3.33015 0
M  V30 6300 H 603.956 -0.520903 -0.545138 0
M  V30 6301 H 606.607 -1.67242 -0.75515 0
M  V30 6302 H 604.989 -2.12248 -3.34315 0
M  V30 6303 H 606.163 -4.34248 -1.54161 0
M  V30 6304 H 604.478 -3.86831 -1.54114 0
M  V30 6305 H 607.075 -3.24303 -4.25125 0
M  V30 6306 H 607.418 -1.5776 -3.8525 0
M  V30 6307 H 607.951 -2.87206 -2.75241 0
M  V30 6308 H 604.69 -5.86449 -2.92844 0
M  V30 6309 H 604.21 -4.50091 -3.96457 0
M  V30 6310 H 605.889 -5.09483 -3.98793 0
M  V30 6311 N 606.021 0.929856 -1.27246 0
M  V30 6312 C 607.27 1.67182 -1.12842 0
M  V30 6313 C 607.583 1.9287 0.325666 0
M  V30 6314 O 608.789 2.64999 0.590572 0
M  V30 6315 C 607.245 3.01097 -1.97151 0
M  V30 6316 C 606.853 2.83115 -3.47203 0
M  V30 6317 C 608.597 3.78907 -1.91389 0
M  V30 6318 C 606.504 4.12573 -4.23719 0
M  V30 6319 H 605.434 0.627064 -0.418697 0
M  V30 6320 H 608.085 1.0332 -1.51649 0
M  V30 6321 H 606.467 3.66004 -1.51186 0
M  V30 6322 H 607.641 2.26989 -4.01015 0
M  V30 6323 H 605.956 2.18736 -3.54321 0
M  V30 6324 H 608.553 4.74837 -2.45834 0
M  V30 6325 H 608.896 4.0674 -0.887047 0
M  V30 6326 H 609.429 3.20794 -2.35237 0
M  V30 6327 H 606.168 3.8992 -5.26918 0
M  V30 6328 H 605.688 4.68371 -3.74685 0
M  V30 6329 H 607.367 4.8095 -4.32777 0
M  V30 6330 N 607.499 1.09233 1.13605 0
M  V30 6331 C 608.776 0.739633 1.81077 0
M  V30 6332 C 609.156 -0.775595 1.96336 0
M  V30 6333 O 608.504 -1.69726 1.52988 0
M  V30 6334 C 608.714 1.47636 3.16235 0
M  V30 6335 C 610.062 1.64087 3.91613 0
M  V30 6336 O 611.086 1.43871 3.25852 0
M  V30 6337 O 609.945 1.97511 5.0956 0
M  V30 6338 H 607.039 0.265464 0.783236 0
M  V30 6339 H 609.585 1.19441 1.20549 0
M  V30 6340 H 608.357 2.50818 3.00344 0
M  V30 6341 H 607.98 1.01362 3.84462 0
M  V30 6342 N 608.977 -1.30795 0.87923 0
M  V30 6343 C 610.225 -1.95974 0.493809 0
M  V30 6344 C 610.546 -1.69787 -0.959021 0
M  V30 6345 O 609.816 -1.01832 -1.67353 0
M  V30 6346 H 608.396 -0.725083 0.179622 0
M  V30 6347 H 611.058 -1.59432 1.12105 0
M  V30 6348 H 610.154 -3.05058 0.659263 0
M  V30 6349 N 610.455 -0.639598 -1.44038 0
M  V30 6350 C 611.704 -0.144885 -2.01179 0
M  V30 6351 C 612.017 1.24372 -1.50967 0
M  V30 6352 O 613.223 1.83291 -2.00292 0
M  V30 6353 C 611.679 -0.208244 -3.59297 0
M  V30 6354 C 611.287 -1.59869 -4.18504 0
M  V30 6355 C 613.031 0.229568 -4.23879 0
M  V30 6356 C 610.938 -1.61671 -5.68873 0
M  V30 6357 H 609.868 -0.0504005 -0.752314 0
M  V30 6358 H 612.519 -0.799639 -1.65161 0
M  V30 6359 H 610.901 0.513767 -3.92653 0
M  V30 6360 H 612.075 -2.34496 -3.96671 0
M  V30 6361 H 610.39 -1.98131 -3.66242 0
M  V30 6362 H 612.987 0.235758 -5.3418 0
M  V30 6363 H 613.33 1.25848 -3.96822 0
M  V30 6364 H 613.863 -0.440233 -3.95357 0
M  V30 6365 H 610.602 -2.62427 -6.00677 0
M  V30 6366 H 610.122 -0.913489 -5.92803 0
M  V30 6367 H 611.801 -1.35439 -6.32665 0
M  V30 6368 N 611.933 1.52934 -0.380664 0
M  V30 6369 C 612.88 2.26197 0.458641 0
M  V30 6370 C 613.85 1.27462 1.06502 0
M  V30 6371 O 615.035 1.56274 1.09467 0
M  V30 6372 C 612.175 3.06571 1.58456 0
M  V30 6373 C 611.288 4.20222 1.00189 0
M  V30 6374 C 610.423 4.88007 2.09815 0
M  V30 6375 C 609.462 5.93665 1.49092 0
M  V30 6376 N 608.599 6.55081 2.52613 0
M  V30 6377 H 613.439 2.975 -0.172595 0
M  V30 6378 H 610.976 1.4678 -0.0969426 0
M  V30 6379 H 612.934 3.51455 2.24801 0
M  V30 6380 H 611.564 2.37494 2.18624 0
M  V30 6381 H 610.616 3.79714 0.228292 0
M  V30 6382 H 611.928 4.96102 0.518064 0
M  V30 6383 H 611.082 5.36151 2.83948 0
M  V30 6384 H 609.821 4.11632 2.61555 0
M  V30 6385 H 608.826 5.44868 0.7348 0
M  V30 6386 H 610.051 6.71969 0.981582 0
M  V30 6387 H 607.997 5.8155 3.03538 0
M  V30 6388 H 607.914 7.26548 2.08961 0
M  V30 6389 H 609.182 7.07871 3.26402 0
M  V30 6390 N 613.412 0.11024 1.57214 0
M  V30 6391 C 614.64 -0.557834 1.99238 0
M  V30 6392 C 615.055 -1.60778 0.989734 0
M  V30 6393 O 614.412 -1.82491 -0.0186092 0
M  V30 6394 C 614.463 -1.19189 3.41286 0
M  V30 6395 O 614.184 -0.183919 4.37714 0
M  V30 6396 C 615.685 -1.94413 3.98395 0
M  V30 6397 H 612.905 -0.148392 0.654386 0
M  V30 6398 H 615.449 0.193996 2.03578 0
M  V30 6399 H 613.604 -1.89456 3.37913 0
M  V30 6400 H 614.018 -0.643475 5.20538 0
M  V30 6401 H 615.492 -2.34116 4.99894 0
M  V30 6402 H 615.969 -2.81592 3.3705 0
M  V30 6403 H 616.575 -1.28928 4.05287 0
M  V30 6404 N 614.89 -1.56749 -0.16351 0
M  V30 6405 C 615.838 -1.97939 -1.22159 0
M  V30 6406 C 616.832 -0.869288 -1.45395 0
M  V30 6407 O 618.038 -1.05443 -1.45883 0
M  V30 6408 H 614.413 -0.629869 -0.410815 0
M  V30 6409 H 616.384 -2.86115 -0.847381 0
M  V30 6410 C 615.133 -2.36206 -2.55151 0
M  V30 6411 H 614.456 -3.2117 -2.38097 0
M  V30 6412 H 615.896 -2.68863 -3.27854 0
M  V30 6413 C 614.355 -1.20841 -3.14482 0
M  V30 6414 O 614.885 -0.500258 -3.98573 0
M  V30 6415 N 613.091 -0.976943 -2.73686 0
M  V30 6416 H 612.638 -1.55457 -2.05404 0
M  V30 6417 H 612.596 -0.206912 -3.13718 0
M  V30 6418 N 616.368 0.432326 -1.51554 0
M  V30 6419 C 617.614 1.18309 -1.64714 0
M  V30 6420 C 617.947 1.90745 -0.364696 0
M  V30 6421 O 617.222 1.8381 0.635936 0
M  V30 6422 C 617.505 2.1961 -2.85383 0
M  V30 6423 C 617.358 1.51223 -4.23617 0
M  V30 6424 C 618.677 3.20538 -3.01569 0
M  V30 6425 H 615.796 0.428751 -0.599451 0
M  V30 6426 H 618.438 0.471689 -1.84052 0
M  V30 6427 H 616.588 2.8028 -2.69027 0
M  V30 6428 H 618.26 0.938516 -4.51652 0
M  V30 6429 H 616.503 0.814501 -4.26085 0
M  V30 6430 H 617.174 2.25024 -5.04052 0
M  V30 6431 H 619.65 2.69926 -3.16669 0
M  V30 6432 H 618.526 3.88706 -3.87555 0
M  V30 6433 H 618.787 3.86933 -2.13859 0
M  V30 6434 N 617.846 1.41785 0.688094 0
M  V30 6435 C 619.123 1.32031 1.44316 0
M  V30 6436 C 619.503 -0.0486079 2.11044 0
M  V30 6437 O 618.851 -1.06332 2.02252 0
M  V30 6438 C 619.061 2.47906 2.45649 0
M  V30 6439 C 620.409 2.89415 3.10683 0
M  V30 6440 O 621.433 2.477 2.55975 0
M  V30 6441 O 620.292 3.61573 4.09789 0
M  V30 6442 H 617.386 0.519994 0.643067 0
M  V30 6443 H 619.932 1.53765 0.71794 0
M  V30 6444 H 618.704 3.39222 1.95048 0
M  V30 6445 H 618.327 2.28089 3.25671 0
M  V30 6446 N 619.324 -0.923095 1.27737 0
M  V30 6447 C 620.254 -2.04124 1.13383 0
M  V30 6448 C 621.235 -1.70066 0.0340658 0
M  V30 6449 O 622.42 -1.93068 0.209383 0
M  V30 6450 C 619.55 -3.3831 0.785097 0
M  V30 6451 C 618.504 -3.86496 1.8386 0
M  V30 6452 C 617.83 -5.1754 1.34373 0
M  V30 6453 C 619.13 -4.09381 3.24353 0
M  V30 6454 H 620.824 -2.1639 2.06919 0
M  V30 6455 H 618.37 -1.03976 0.996243 0
M  V30 6456 H 620.323 -4.16016 0.671485 0
M  V30 6457 H 619.047 -3.2607 -0.185969 0
M  V30 6458 H 617.706 -3.10987 1.9412 0
M  V30 6459 H 617.354 -5.01696 0.361989 0
M  V30 6460 H 617.054 -5.50751 2.04811 0
M  V30 6461 H 618.578 -5.97811 1.24315 0
M  V30 6462 H 619.992 -4.77641 3.17067 0
M  V30 6463 H 618.389 -4.53906 3.92542 0
M  V30 6464 H 619.459 -3.14515 3.69064 0
M  V30 6465 N 620.802 -1.09834 -1.13024 0
M  V30 6466 C 621.734 -0.699379 -2.18269 0
M  V30 6467 C 622.747 0.260841 -1.60697 0
M  V30 6468 O 623.936 0.0462538 -1.7844 0
M  V30 6469 C 621.036 -0.0104537 -3.38898 0
M  V30 6470 C 620.209 -0.993275 -4.25973 0
M  V30 6471 C 619.268 -0.336982 -5.2512 0
M  V30 6472 O 618.294 -0.985892 -5.60597 0
M  V30 6473 N 619.496 0.90716 -5.73368 0
M  V30 6474 H 622.261 -1.60486 -2.5311 0
M  V30 6475 H 619.822 -0.986337 -1.28386 0
M  V30 6476 H 621.814 0.43991 -4.02302 0
M  V30 6477 H 620.384 0.797335 -3.0226 0
M  V30 6478 H 619.604 -1.62208 -3.5928 0
M  V30 6479 H 620.892 -1.65876 -4.81002 0
M  V30 6480 H 620.29 1.45384 -5.46699 0
M  V30 6481 H 618.847 1.30077 -6.38689 0
M  V30 6482 N 622.28 1.30327 -0.886154 0
M  V30 6483 C 623.529 1.95373 -0.501243 0
M  V30 6484 C 623.842 1.70722 0.954634 0
M  V30 6485 O 625.048 2.29761 1.44644 0
M  V30 6486 C 623.504 3.49828 -0.845493 0
M  V30 6487 C 623.112 3.83296 -2.31922 0
M  V30 6488 C 624.856 4.2118 -0.529838 0
M  V30 6489 C 622.763 5.30935 -2.60504 0
M  V30 6490 H 621.693 0.731274 -0.183722 0
M  V30 6491 H 624.344 1.48258 -1.08129 0
M  V30 6492 H 622.726 3.95522 -0.19452 0
M  V30 6493 H 623.9 3.48508 -3.01461 0
M  V30 6494 H 622.215 3.2505 -2.60253 0
M  V30 6495 H 624.812 5.29825 -0.720401 0
M  V30 6496 H 625.155 4.12902 0.530828 0
M  V30 6497 H 625.688 3.81173 -1.13806 0
M  V30 6498 H 622.427 5.44265 -3.65316 0
M  V30 6499 H 621.947 5.67019 -1.95575 0
M  V30 6500 H 623.626 5.98381 -2.46066 0
M  V30 6501 N 623.758 0.647228 1.43697 0
M  V30 6502 C 625.174 0.314256 1.56476 0
M  V30 6503 C 625.374 -1.18191 1.63196 0
M  V30 6504 O 624.43 -1.96655 1.58376 0
M  V30 6505 C 625.743 1.02034 2.82859 0
M  V30 6506 C 627.291 1.00002 2.96595 0
M  V30 6507 C 627.766 1.68689 4.25803 0
M  V30 6508 N 629.257 1.65424 4.32654 0
M  V30 6509 C 629.992 2.1545 5.31384 0
M  V30 6510 N 629.488 2.73738 6.36427 0
M  V30 6511 N 631.281 2.05985 5.22998 0
M  V30 6512 H 623.432 1.61821 1.37578 0
M  V30 6513 H 625.695 0.680184 0.660344 0
M  V30 6514 H 625.401 2.07542 2.83935 0
M  V30 6515 H 625.275 0.568146 3.72897 0
M  V30 6516 H 627.662 -0.0466319 2.95063 0
M  V30 6517 H 627.743 1.49086 2.07863 0
M  V30 6518 H 627.387 2.73308 4.28095 0
M  V30 6519 H 627.317 1.17076 5.13421 0
M  V30 6520 H 629.808 1.22884 3.57363 0
M  V30 6521 H 630.121 3.09602 7.08072 0
M  V30 6522 H 628.466 2.77796 6.37067 0
M  V30 6523 H 631.657 1.60157 4.39849 0
M  V30 6524 H 631.83 2.45281 5.99784 0
M  V30 6525 N 625.236 -1.5273 0.388769 0
M  V30 6526 C 626.485 -2.00757 -0.194833 0
M  V30 6527 C 626.798 -1.27951 -1.47946 0
M  V30 6528 O 628.004 -1.66686 -2.14308 0
M  V30 6529 C 626.46 -3.57695 -0.397762 0
M  V30 6530 C 626.068 -4.394 0.873583 0
M  V30 6531 C 627.812 -4.14012 -0.937759 0
M  V30 6532 C 625.719 -5.87938 0.638962 0
M  V30 6533 H 624.649 -0.750101 -0.0765845 0
M  V30 6534 H 627.3 -1.76239 0.511086 0
M  V30 6535 H 625.682 -3.7846 -1.16552 0
M  V30 6536 H 626.856 -4.30403 1.64591 0
M  V30 6537 H 625.171 -3.94301 1.33849 0
M  V30 6538 H 627.768 -5.22645 -1.12899 0
M  V30 6539 H 628.111 -3.7007 -1.90666 0
M  V30 6540 H 628.644 -3.97137 -0.229588 0
M  V30 6541 H 625.383 -6.36202 1.57885 0
M  V30 6542 H 624.903 -5.99726 -0.094443 0
M  V30 6543 H 626.582 -6.46423 0.273299 0
M  V30 6544 N 626.714 -0.118576 -1.57153 0
M  V30 6545 C 627.647 0.869046 -2.11004 0
M  V30 6546 C 628.625 1.26115 -1.02634 0
M  V30 6547 O 629.809 1.36228 -1.30285 0
M  V30 6548 C 626.936 2.16297 -2.6064 0
M  V30 6549 C 625.982 1.91896 -3.80891 0
M  V30 6550 S 626.815 1.13562 -5.2332 0
M  V30 6551 C 627.971 2.44135 -5.76324 0
M  V30 6552 H 628.204 0.411005 -2.94445 0
M  V30 6553 H 625.737 0.0951891 -1.54106 0
M  V30 6554 H 627.695 2.90642 -2.89892 0
M  V30 6555 H 626.356 2.59219 -1.77382 0
M  V30 6556 H 625.549 2.8777 -4.13768 0
M  V30 6557 H 625.151 1.25672 -3.52253 0
M  V30 6558 H 627.443 3.39976 -5.86022 0
M  V30 6559 H 628.386 2.15803 -6.74414 0
M  V30 6560 H 628.794 2.53483 -5.04387 0
M  V30 6561 N 628.193 1.56834 0.155195 0
M  V30 6562 C 629.141 1.98584 1.21107 0
M  V30 6563 C 630.135 0.876987 1.44932 0
M  V30 6564 O 631.341 1.06215 1.45322 0
M  V30 6565 H 627.716 0.632039 0.407469 0
M  V30 6566 H 629.687 2.86561 0.832195 0
M  V30 6567 C 628.436 2.37555 2.53895 0
M  V30 6568 H 627.759 3.22428 2.3639 0
M  V30 6569 H 629.199 2.70598 3.26424 0
M  V30 6570 C 627.658 1.22507 3.13837 0
M  V30 6571 O 628.188 0.521388 3.98302 0
M  V30 6572 N 626.394 0.991444 2.73164 0
M  V30 6573 H 625.941 1.56544 2.04577 0
M  V30 6574 H 625.899 0.223546 3.13604 0
M  V30 6575 N 629.671 -0.424282 1.51781 0
M  V30 6576 C 630.948 -1.18464 1.55646 0
M  V30 6577 C 631.328 -2.08529 0.328438 0
M  V30 6578 O 630.676 -2.17969 -0.685693 0
M  V30 6579 C 630.886 -1.97514 2.87731 0
M  V30 6580 C 632.234 -2.54106 3.40169 0
M  V30 6581 O 633.258 -2.07711 2.89369 0
M  V30 6582 O 632.117 -3.38759 4.28841 0
M  V30 6583 H 629.211 -0.540055 0.626314 0
M  V30 6584 H 631.757 -0.432291 1.64102 0
M  V30 6585 H 630.529 -1.31444 3.68562 0
M  V30 6586 H 630.152 -2.79787 2.82498 0
M  V30 6587 N 631.149 -1.42148 -0.680565 0
M  V30 6588 C 632.059 -1.47565 -1.82378 0
M  V30 6589 C 633.075 -0.36489 -1.70131 0
M  V30 6590 O 634.251 -0.614916 -1.91783 0
M  V30 6591 C 631.316 -1.37013 -3.18478 0
M  V30 6592 C 630.377 -2.58532 -3.42724 0
M  V30 6593 C 629.61 -2.48473 -4.72331 0
M  V30 6594 O 629.833 -1.51745 -5.49845 0
M  V30 6595 O 628.767 -3.38503 -4.97694 0
M  V30 6596 H 632.593 -2.44045 -1.80764 0
M  V30 6597 H 630.178 -1.23849 -0.835569 0
M  V30 6598 H 632.06 -1.33468 -3.99705 0
M  V30 6599 H 630.735 -0.436552 -3.20743 0
M  V30 6600 H 629.642 -2.67652 -2.61368 0
M  V30 6601 H 630.975 -3.50769 -3.45286 0
M  V30 6602 N 632.627 0.916307 -1.28225 0
M  V30 6603 C 633.575 2.03977 -1.11786 0
M  V30 6604 C 634.569 1.69358 -0.0378265 0
M  V30 6605 O 635.775 1.78925 -0.196405 0
M  V30 6606 H 632.15 0.66829 -0.344809 0
M  V30 6607 H 634.121 2.14985 -2.06939 0
M  V30 6608 C 632.87 3.38518 -0.7938 0
M  V30 6609 H 632.193 3.65649 -1.61682 0
M  V30 6610 H 633.633 4.17864 -0.718719 0
M  V30 6611 C 632.092 3.33134 0.502353 0
M  V30 6612 O 632.622 3.71281 1.53341 0
M  V30 6613 N 630.828 2.86229 0.502147 0
M  V30 6614 H 630.375 2.55382 -0.337338 0
M  V30 6615 H 630.333 2.83009 1.36942 0
M  V30 6616 N 634.105 1.10431 1.1244 0
M  V30 6617 C 635.352 0.846717 1.83948 0
M  V30 6618 C 635.68 -0.627709 1.84093 0
M  V30 6619 O 634.935 -1.47876 1.28184 0
M  V30 6620 C 635.234 1.34022 3.3132 0
M  V30 6621 C 634.9 2.82606 3.51347 0
M  V30 6622 C 633.562 3.23182 3.56521 0
M  V30 6623 C 635.914 3.78356 3.58464 0
M  V30 6624 C 633.242 4.58258 3.66356 0
M  V30 6625 C 635.594 5.13234 3.69829 0
M  V30 6626 C 634.258 5.53384 3.73259 0
M  V30 6627 H 633.528 0.309836 0.673114 0
M  V30 6628 H 636.175 1.38091 1.32677 0
M  V30 6629 H 634.48 0.726047 3.85014 0
M  V30 6630 H 636.177 1.11739 3.85118 0
M  V30 6631 H 632.767 2.50212 3.47983 0
M  V30 6632 H 636.951 3.48115 3.53737 0
M  V30 6633 H 632.207 4.88787 3.67284 0
M  V30 6634 H 636.381 5.87272 3.74279 0
M  V30 6635 H 634.008 6.58045 3.80633 0
M  V30 6636 N 635.583 -1.29855 0.893053 0
M  V30 6637 C 636.515 -2.26911 0.32311 0
M  V30 6638 C 637.528 -1.54039 -0.526858 0
M  V30 6639 O 638.717 -1.75132 -0.345095 0
M  V30 6640 C 635.817 -3.34266 -0.558509 0
M  V30 6641 C 634.99 -4.36601 0.264222 0
M  V30 6642 C 634.049 -5.23326 -0.549171 0
M  V30 6643 O 633.075 -5.69192 0.0309883 0
M  V30 6644 N 634.277 -5.50008 -1.85664 0
M  V30 6645 H 637.042 -2.76455 1.15726 0
M  V30 6646 H 634.603 -1.4312 0.756859 0
M  V30 6647 H 636.595 -3.89211 -1.1089 0
M  V30 6648 H 635.165 -2.8459 -1.29334 0
M  V30 6649 H 634.385 -3.81409 0.996046 0
M  V30 6650 H 635.673 -5.02019 0.827906 0
M  V30 6651 H 635.071 -5.14542 -2.35081 0
M  V30 6652 H 633.628 -6.07796 -2.35431 0
M  V30 6653 N 637.061 -0.65484 -1.43351 0
M  V30 6654 C 638.011 0.0581325 -2.27926 0
M  V30 6655 C 638.995 0.793188 -1.3999 0
M  V30 6656 O 640.187 0.675387 -1.63608 0
M  V30 6657 C 637.316 1.02272 -3.27712 0
M  V30 6658 C 636.402 0.286048 -4.23134 0
M  V30 6659 N 636.793 -0.698298 -5.00957 0
M  V30 6660 C 635.091 0.527272 -4.42872 0
M  V30 6661 C 635.792 -1.1357 -5.70506 0
M  V30 6662 N 634.768 -0.469631 -5.41568 0
M  V30 6663 H 638.57 -0.697182 -2.85511 0
M  V30 6664 H 636.084 -0.482252 -1.55074 0
M  V30 6665 H 638.081 1.5483 -3.87083 0
M  V30 6666 H 636.741 1.77807 -2.71688 0
M  V30 6667 H 637.752 -1.07708 -5.06576 0
M  V30 6668 H 634.429 1.26367 -3.97916 0
M  V30 6669 H 635.819 -1.95027 -6.42973 0
M  V30 6670 N 638.539 1.52521 -0.396863 0
M  V30 6671 C 639.787 2.01274 0.182536 0
M  V30 6672 C 640.108 1.28485 1.46685 0
M  V30 6673 O 639.378 0.407134 1.91623 0
M  V30 6674 H 637.958 0.743671 0.0704442 0
M  V30 6675 H 640.62 1.87547 -0.530289 0
M  V30 6676 H 639.716 3.09687 0.387385 0
M  V30 6677 N 640.017 0.126909 1.57088 0
M  V30 6678 C 641.265 -0.528123 1.95078 0
M  V30 6679 C 641.586 -1.66708 1.0116 0
M  V30 6680 O 640.856 -1.95777 0.0693527 0
M  V30 6681 H 639.436 -0.198087 0.720257 0
M  V30 6682 H 642.098 0.197703 1.93895 0
M  V30 6683 H 641.194 -0.917507 2.98309 0
M  V30 6684 N 641.495 -1.56914 -0.146875 0
M  V30 6685 C 642.723 -1.87515 -0.874394 0
M  V30 6686 C 643.138 -0.715116 -1.74733 0
M  V30 6687 O 642.495 0.315113 -1.79759 0
M  V30 6688 C 642.546 -3.17362 -1.731 0
M  V30 6689 O 642.267 -4.28897 -0.893245 0
M  V30 6690 C 643.768 -3.61479 -2.56609 0
M  V30 6691 H 640.988 -0.621546 -0.252827 0
M  V30 6692 H 643.532 -2.04023 -0.139627 0
M  V30 6693 H 641.687 -3.02608 -2.41883 0
M  V30 6694 H 642.101 -5.03146 -1.48137 0
M  V30 6695 H 643.575 -4.5517 -3.12289 0
M  V30 6696 H 644.052 -2.86773 -3.32653 0
M  V30 6697 H 644.658 -3.78927 -1.93117 0
M  V30 6698 N 642.974 0.416227 -1.52004 0
M  V30 6699 C 643.922 1.5272 -1.7544 0
M  V30 6700 C 644.916 1.57596 -0.621289 0
M  V30 6701 O 646.122 1.61087 -0.803172 0
M  V30 6702 H 642.497 0.507772 -0.554682 0
M  V30 6703 H 644.468 1.30136 -2.68528 0
M  V30 6704 C 643.217 2.90165 -1.91571 0
M  V30 6705 H 642.54 2.87154 -2.78178 0
M  V30 6706 H 643.98 3.67211 -2.11972 0
M  V30 6707 C 642.439 3.29947 -0.680942 0
M  V30 6708 O 642.969 4.01403 0.154527 0
M  V30 6709 N 641.175 2.8593 -0.518894 0
M  V30 6710 H 640.722 2.2795 -1.19986 0
M  V30 6711 H 640.68 3.12907 0.305985 0
M  V30 6712 N 644.452 1.42507 0.673017 0
M  V30 6713 C 645.701 1.42364 1.42883 0
M  V30 6714 C 646.014 0.0441598 1.9555 0
M  V30 6715 O 647.22 -0.0798679 2.71382 0
M  V30 6716 C 645.676 2.5043 2.58482 0
M  V30 6717 C 645.284 3.94392 2.12506 0
M  V30 6718 C 647.028 2.59455 3.35981 0
M  V30 6719 C 644.935 4.93964 3.25198 0
M  V30 6720 H 643.865 0.52951 0.536782 0
M  V30 6721 H 646.516 1.68422 0.728448 0
M  V30 6722 H 644.898 2.1754 3.30896 0
M  V30 6723 H 646.072 4.36645 1.47233 0
M  V30 6724 H 644.387 3.89233 1.4794 0
M  V30 6725 H 646.984 3.31025 4.19912 0
M  V30 6726 H 647.327 1.63869 3.82691 0
M  V30 6727 H 647.86 2.91549 2.70637 0
M  V30 6728 H 644.599 5.91034 2.83477 0
M  V30 6729 H 644.119 4.56341 3.89247 0
M  V30 6730 H 645.798 5.15763 3.90637 0
M  V30 6731 N 645.93 -0.909495 1.28709 0
M  V30 6732 C 646.88 -1.9991 1.09636 0
M  V30 6733 C 647.864 -1.60889 0.01872 0
M  V30 6734 O 649.056 -1.75374 0.239338 0
M  V30 6735 C 646.185 -3.34675 0.764702 0
M  V30 6736 C 645.271 -3.80085 1.8814 0
M  V30 6737 N 645.662 -3.97824 3.12361 0
M  V30 6738 C 643.96 -4.09278 1.77221 0
M  V30 6739 C 644.661 -4.35928 3.85151 0
M  V30 6740 N 643.637 -4.44426 3.13028 0
M  V30 6741 H 647.439 -2.11681 2.03883 0
M  V30 6742 H 644.953 -1.09763 1.1969 0
M  V30 6743 H 646.95 -4.12426 0.609132 0
M  V30 6744 H 645.61 -3.24255 -0.169952 0
M  V30 6745 H 646.621 -3.83626 3.47925 0
M  V30 6746 H 643.298 -4.0747 0.909621 0
M  V30 6747 H 644.688 -4.57581 4.92006 0
M  V30 6748 N 647.408 -1.11026 -1.11852 0
M  V30 6749 C 648.638 -0.877544 -1.87037 0
M  V30 6750 C 649.046 0.575925 -1.80221 0
M  V30 6751 O 648.389 1.40916 -1.17849 0
M  V30 6752 C 648.451 -1.25529 -3.36872 0
M  V30 6753 C 648.115 -2.71704 -3.67459 0
M  V30 6754 C 649.112 -3.69931 -3.65304 0
M  V30 6755 C 646.797 -3.08243 -3.966 0
M  V30 6756 C 648.791 -5.02717 -3.9186 0
M  V30 6757 C 646.478 -4.41215 -4.22815 0
M  V30 6758 C 647.476 -5.38262 -4.20432 0
M  V30 6759 O 647.164 -6.68839 -4.45992 0
M  V30 6760 H 646.896 -0.314374 -0.598452 0
M  V30 6761 H 649.45 -1.48015 -1.42411 0
M  V30 6762 H 647.68 -0.595808 -3.82082 0
M  V30 6763 H 649.369 -0.999064 -3.93413 0
M  V30 6764 H 650.135 -3.43047 -3.42846 0
M  V30 6765 H 646.014 -2.33326 -3.97593 0
M  V30 6766 H 649.558 -5.78456 -3.89916 0
M  V30 6767 H 645.455 -4.67835 -4.44748 0
M  V30 6768 H 646.223 -6.74563 -4.63581 0
M  V30 6769 N 648.886 1.2938 -0.899927 0
M  V30 6770 C 649.816 2.30144 -0.39446 0
M  V30 6771 C 650.797 1.61611 0.530639 0
M  V30 6772 O 651.982 1.89119 0.441319 0
M  V30 6773 C 649.112 3.45229 0.37868 0
M  V30 6774 C 648.066 4.25564 -0.456012 0
M  V30 6775 C 647.392 5.32848 0.444637 0
M  V30 6776 C 648.692 4.93651 -1.70605 0
M  V30 6777 H 650.386 2.72673 -1.23653 0
M  V30 6778 H 647.932 1.31086 -0.596034 0
M  V30 6779 H 649.885 4.14797 0.743037 0
M  V30 6780 H 648.609 3.01545 1.25453 0
M  V30 6781 H 647.268 3.57704 -0.802704 0
M  V30 6782 H 646.916 4.85408 1.31863 0
M  V30 6783 H 646.616 5.87497 -0.110154 0
M  V30 6784 H 648.14 6.05268 0.805182 0
M  V30 6785 H 649.554 5.55655 -1.41141 0
M  V30 6786 H 647.951 5.58233 -2.20217 0
M  V30 6787 H 649.021 4.18926 -2.4419 0
M  V30 6788 N 650.364 0.662433 1.43002 0
M  V30 6789 C 651.274 -0.0239199 2.34588 0
M  V30 6790 C 652.29 -0.802255 1.54402 0
M  V30 6791 O 653.466 -0.747401 1.87018 0
M  V30 6792 C 650.531 -0.972098 3.32793 0
M  V30 6793 C 649.592 -0.189673 4.28881 0
M  V30 6794 C 648.825 -1.09269 5.22395 0
M  V30 6795 O 649.048 -2.33209 5.20547 0
M  V30 6796 O 647.982 -0.560136 5.99288 0
M  V30 6797 H 651.808 0.730171 2.94792 0
M  V30 6798 H 649.393 0.422635 1.43297 0
M  V30 6799 H 651.275 -1.51676 3.93157 0
M  V30 6800 H 649.95 -1.70626 2.75079 0
M  V30 6801 H 648.857 0.398794 3.71968 0
M  V30 6802 H 650.19 0.50511 4.89601 0
M  V30 6803 N 651.842 -1.52309 0.404946 0
M  V30 6804 C 652.789 -2.26898 -0.422597 0
M  V30 6805 C 653.759 -1.2914 -1.04461 0
M  V30 6806 O 654.944 -1.57996 -1.06967 0
M  V30 6807 C 652.084 -3.09053 -1.53559 0
M  V30 6808 C 651.197 -4.21762 -0.934908 0
M  V30 6809 C 650.332 -4.91283 -2.02025 0
M  V30 6810 C 649.371 -5.95962 -1.39628 0
M  V30 6811 N 648.508 -6.59017 -2.42159 0
M  V30 6812 H 653.348 -2.97188 0.219903 0
M  V30 6813 H 650.885 -1.46607 0.120282 0
M  V30 6814 H 652.843 -3.54987 -2.19181 0
M  V30 6815 H 651.473 -2.40942 -2.14818 0
M  V30 6816 H 650.525 -3.80029 -0.167854 0
M  V30 6817 H 651.837 -4.96864 -0.439073 0
M  V30 6818 H 650.991 -5.40601 -2.75383 0
M  V30 6819 H 649.73 -4.15741 -2.54973 0
M  V30 6820 H 648.735 -5.45968 -0.648023 0
M  V30 6821 H 649.96 -6.73445 -0.874553 0
M  V30 6822 H 647.906 -5.86306 -2.94247 0
M  V30 6823 H 647.823 -7.2978 -1.97376 0
M  V30 6824 H 649.091 -7.12974 -3.15099 0
M  V30 6825 N 653.32 -0.135238 -1.57019 0
M  V30 6826 C 654.267 0.808908 -2.1616 0
M  V30 6827 C 655.237 1.25234 -1.09113 0
M  V30 6828 O 656.422 1.32697 -1.37099 0
M  V30 6829 C 653.562 2.04729 -2.77813 0
M  V30 6830 C 652.675 1.65074 -3.99218 0
M  V30 6831 C 651.81 2.84002 -4.48906 0
M  V30 6832 C 650.849 2.40663 -5.62803 0
M  V30 6833 N 649.986 3.5256 -6.07162 0
M  V30 6834 H 654.826 0.297751 -2.96509 0
M  V30 6835 H 652.363 0.135264 -1.46477 0
M  V30 6836 H 654.321 2.7731 -3.11697 0
M  V30 6837 H 652.951 2.53275 -2.00128 0
M  V30 6838 H 652.003 0.823029 -3.7139 0
M  V30 6839 H 653.315 1.29236 -4.81767 0
M  V30 6840 H 652.469 3.64788 -4.84783 0
M  V30 6841 H 651.208 3.23076 -3.65339 0
M  V30 6842 H 650.213 1.58314 -5.26514 0
M  V30 6843 H 651.438 2.02687 -6.48147 0
M  V30 6844 H 649.384 3.91278 -5.26534 0
M  V30 6845 H 649.301 3.20699 -6.84608 0
M  V30 6846 H 650.569 4.33738 -6.47682 0
M  V30 6847 N 654.798 1.5699 0.138552 0
M  V30 6848 C 655.728 2.01933 1.17241 0
M  V30 6849 C 656.709 0.90033 1.44319 0
M  V30 6850 O 657.894 1.16872 1.55095 0
M  V30 6851 C 655.024 2.40711 2.50351 0
M  V30 6852 C 653.978 3.55874 2.37776 0
M  V30 6853 C 653.304 3.80491 3.75674 0
M  V30 6854 C 654.604 4.8826 1.85472 0
M  V30 6855 H 656.298 2.88551 0.798672 0
M  V30 6856 H 653.844 1.3882 0.382743 0
M  V30 6857 H 655.797 2.70754 3.22909 0
M  V30 6858 H 654.521 1.5104 2.89576 0
M  V30 6859 H 653.18 3.2601 1.67669 0
M  V30 6860 H 652.828 2.88057 4.12349 0
M  V30 6861 H 652.528 4.57998 3.68119 0
M  V30 6862 H 654.052 4.12967 4.49767 0
M  V30 6863 H 655.466 5.16965 2.4783 0
M  V30 6864 H 653.863 5.69631 1.88787 0
M  V30 6865 H 654.933 4.78071 0.810935 0
M  V30 6866 N 656.276 -0.40816 1.52223 0
M  V30 6867 C 657.524 -1.15274 1.66001 0
M  V30 6868 C 657.845 -1.91003 0.392803 0
M  V30 6869 O 657.115 -1.8673 -0.592336 0
M  V30 6870 H 655.695 -0.428526 0.611861 0
M  V30 6871 H 658.357 -0.46512 1.89269 0
M  V30 6872 H 657.453 -1.86628 2.50153 0
M  V30 6873 N 657.755 -1.42862 -0.66545 0
M  V30 6874 C 658.685 -1.49867 -1.79059 0
M  V30 6875 C 659.666 -0.354394 -1.66367 0
M  V30 6876 O 660.851 -0.569969 -1.85647 0
M  V30 6877 C 657.981 -1.40943 -3.17415 0
M  V30 6878 C 656.935 -2.53495 -3.44854 0
M  V30 6879 C 656.261 -2.29626 -4.82883 0
M  V30 6880 C 657.561 -3.95781 -3.40815 0
M  V30 6881 H 659.255 -2.44037 -1.73453 0
M  V30 6882 H 656.801 -1.17456 -0.833071 0
M  V30 6883 H 658.754 -1.4445 -3.95869 0
M  V30 6884 H 657.478 -0.432716 -3.23721 0
M  V30 6885 H 656.137 -2.4932 -2.68766 0
M  V30 6886 H 655.785 -1.30226 -4.8585 0
M  V30 6887 H 655.485 -3.05065 -5.02204 0
M  V30 6888 H 657.009 -2.34897 -5.63609 0
M  V30 6889 H 658.423 -4.01508 -4.09224 0
M  V30 6890 H 656.82 -4.71148 -3.71672 0
M  V30 6891 H 657.89 -4.21786 -2.39216 0
M  V30 6892 N 659.233 0.902656 -1.29189 0
M  V30 6893 C 660.165 2.01149 -1.09872 0
M  V30 6894 C 661.178 1.62732 -0.0471046 0
M  V30 6895 O 662.367 1.76107 -0.29132 0
M  V30 6896 C 659.467 3.32612 -0.649818 0
M  V30 6897 C 658.64 3.99574 -1.7793 0
M  V30 6898 C 657.699 5.09325 -1.32191 0
M  V30 6899 O 656.725 5.31919 -2.02611 0
M  V30 6900 N 657.927 5.80185 -0.191171 0
M  V30 6901 H 660.692 2.18276 -2.05368 0
M  V30 6902 H 658.253 1.07466 -1.2109 0
M  V30 6903 H 660.245 4.03375 -0.327199 0
M  V30 6904 H 658.815 3.11876 0.212597 0
M  V30 6905 H 658.035 3.22213 -2.27095 0
M  V30 6906 H 659.323 4.41056 -2.53668 0
M  V30 6907 H 658.721 5.64312 0.396016 0
M  V30 6908 H 657.278 6.5176 0.0721001 0
M  V30 6909 N 660.711 1.11618 1.11262 0
M  V30 6910 C 661.621 0.78898 2.20935 0
M  V30 6911 C 662.637 -0.21867 1.7262 0
M  V30 6912 O 663.813 -0.0543826 2.01327 0
M  V30 6913 C 660.878 0.239014 3.45875 0
M  V30 6914 C 659.939 1.3055 4.08968 0
M  V30 6915 C 659.172 0.781687 5.27944 0
M  V30 6916 O 659.395 -0.387605 5.69082 0
M  V30 6917 O 658.329 1.54734 5.81671 0
M  V30 6918 H 662.155 1.70477 2.51339 0
M  V30 6919 H 659.74 0.892203 1.19834 0
M  V30 6920 H 661.622 -0.0632312 4.21353 0
M  V30 6921 H 660.297 -0.649454 3.17118 0
M  V30 6922 H 659.204 1.66079 3.35214 0
M  V30 6923 H 660.537 2.16743 4.41909 0
M  V30 6924 N 662.189 -1.289 0.906776 0
M  V30 6925 C 663.136 -2.2751 0.388313 0
M  V30 6926 C 664.106 -1.57301 -0.533439 0
M  V30 6927 O 665.291 -1.85243 -0.457148 0
M  V30 6928 C 662.431 -3.43091 -0.37181 0
M  V30 6929 C 661.544 -4.28066 0.581647 0
M  V30 6930 C 660.679 -5.30837 -0.19623 0
M  V30 6931 C 659.718 -6.07472 0.751294 0
M  V30 6932 N 658.855 -7.021 0.00737727 0
M  V30 6933 H 663.695 -2.71237 1.23428 0
M  V30 6934 H 661.232 -1.33397 0.619962 0
M  V30 6935 H 663.19 -4.08888 -0.828641 0
M  V30 6936 H 661.82 -3.00374 -1.18218 0
M  V30 6937 H 660.872 -3.62378 1.157 0
M  V30 6938 H 662.184 -4.81382 1.30665 0
M  V30 6939 H 661.338 -6.02485 -0.71394 0
M  V30 6940 H 660.077 -4.78272 -0.954324 0
M  V30 6941 H 659.082 -5.34682 1.28044 0
M  V30 6942 H 660.307 -6.62126 1.50883 0
M  V30 6943 H 658.253 -6.51894 -0.732854 0
M  V30 6944 H 658.17 -7.53004 0.672334 0
M  V30 6945 H 659.438 -7.77956 -0.490365 0
M  V30 6946 O 663.706 -0.809245 -1.39762 0
M  V30 6947 H 664.397 -0.38643 -1.89806 0
M  V30 END ATOM
M  V30 BEGIN BOND
M  V30 END BOND
M  V30 END CTAB
M  END
$$$$
