drugbank_target|P04118 Colipase (DB02451; DB04233; DB08222)
 OpenBabel12092120433D

  0  0  0     0  0            999 V3000
M  V30 BEGIN CTAB
M  V30 COUNTS 1659 1668 0 0 0
M  V30 BEGIN ATOM
M  V30 1 H -0.908 1.98254 -0.117106 0
M  V30 2 N 0 1.576 0 0
M  V30 3 C 0.933 2.03868 1.02534 0
M  V30 4 C 1.911 0.928543 1.3348 0
M  V30 5 O 3.095 1.19667 1.45644 0
M  V30 6 C 0.222 2.43627 2.35294 0
M  V30 7 C -0.732 3.65373 2.2001 0
M  V30 8 S 0.101 5.13292 1.52614 0
M  V30 9 C 1.257 5.56322 2.86805 0
M  V30 10 H 1.49 2.90518 0.631377 0
M  V30 11 H -0.977 1.52953 0.210867 0
M  V30 12 H 0.981 2.67203 3.11629 0
M  V30 13 H -0.358 1.57376 2.7183 0
M  V30 14 H -1.165 3.90944 3.18086 0
M  V30 15 H -1.563 3.418 1.51819 0
M  V30 16 H 0.729 5.58782 3.83104 0
M  V30 17 H 1.672 6.56266 2.65933 0
M  V30 18 H 2.08 4.83886 2.90714 0
M  V30 19 N 1.4781 -0.272755 1.55222 0
M  V30 20 C 2.3881 -1.35918 1.91216 0
M  V30 21 C 3.4041 -1.54026 0.809436 0
M  V30 22 O 4.5801 -1.68148 1.10852 0
M  V30 23 C 1.6451 -2.69834 2.17693 0
M  V30 24 C 0.7061 -2.6047 3.41253 0
M  V30 25 C -0.0609 -3.88 3.66458 0
M  V30 26 O 0.1621 -4.88693 2.94169 0
M  V30 27 O -0.9039 -3.88189 4.59992 0
M  V30 28 H 2.9221 -1.0839 2.83699 0
M  V30 29 H 0.5071 -0.471301 1.41771 0
M  V30 30 H 2.3891 -3.49017 2.36147 0
M  V30 31 H 1.0641 -2.97148 1.28392 0
M  V30 32 H -0.0289 -1.79663 3.28134 0
M  V30 33 H 1.3041 -2.38106 4.30774 0
M  V30 34 N 2.9562 -1.48159 -0.537278 0
M  V30 35 C 3.9032 -1.62138 -1.64256 0
M  V30 36 C 4.8732 -0.463668 -1.59497 0
M  V30 37 O 6.0582 -0.686241 -1.78032 0
M  V30 38 C 3.1982 -1.66028 -3.02537 0
M  V30 39 C 2.3112 -2.92855 -3.17585 0
M  V30 40 C 1.4462 -2.87952 -4.46382 0
M  V30 41 C 0.4852 -4.09516 -4.54932 0
M  V30 42 N -0.3778 -4.02733 -5.75109 0
M  V30 43 H 4.4622 -2.56529 -1.51647 0
M  V30 44 H 1.9992 -1.27224 -0.738414 0
M  V30 45 H 3.9572 -1.66265 -3.82638 0
M  V30 46 H 2.5872 -0.751331 -3.13934 0
M  V30 47 H 1.6392 -3.02395 -2.30784 0
M  V30 48 H 2.9512 -3.82822 -3.19764 0
M  V30 49 H 2.1052 -2.8655 -5.34765 0
M  V30 50 H 0.8442 -1.95702 -4.46712 0
M  V30 51 H -0.1508 -4.11201 -3.64957 0
M  V30 52 H 1.0742 -5.02917 -4.56346 0
M  V30 53 H -0.9798 -3.13299 -5.76351 0
M  V30 54 H -1.0628 -4.86397 -5.78752 0
M  V30 55 H 0.2052 -4.05379 -6.65799 0
M  V30 56 N 4.4343 0.785586 -1.36625 0
M  V30 57 C 5.6833 1.53883 -1.30396 0
M  V30 58 C 5.9963 1.95271 0.113452 0
M  V30 59 O 7.2023 2.69858 0.298142 0
M  V30 60 C 5.6583 2.77808 -2.28802 0
M  V30 61 C 5.2663 2.43574 -3.75999 0
M  V30 62 C 7.0103 3.55783 -2.31558 0
M  V30 63 C 4.9173 3.63919 -4.66173 0
M  V30 64 H 3.8473 0.577678 -0.484566 0
M  V30 65 H 6.4983 0.861705 -1.62009 0
M  V30 66 H 4.8803 3.47339 -1.90188 0
M  V30 67 H 6.0543 1.81916 -4.23371 0
M  V30 68 H 4.3693 1.78803 -3.76056 0
M  V30 69 H 6.9663 4.45205 -2.96137 0
M  V30 70 H 7.3093 3.94644 -1.3252 0
M  V30 71 H 7.8423 2.93235 -2.68809 0
M  V30 72 H 4.5813 3.3015 -5.66287 0
M  V30 73 H 4.1013 4.2473 -4.23515 0
M  V30 74 H 5.7803 4.30901 -4.82632 0
M  V30 75 N 5.9124 1.20967 1.01018 0
M  V30 76 C 6.8424 0.988272 2.11555 0
M  V30 77 C 7.8234 -0.0849778 1.69888 0
M  V30 78 O 9.0084 0.0738202 1.9406 0
M  V30 79 C 6.1384 0.546528 3.42973 0
M  V30 80 C 5.0924 1.56375 3.9841 0
M  V30 81 C 4.4184 0.97842 5.25672 0
M  V30 82 C 5.7184 2.94922 4.31066 0
M  V30 83 H 7.4124 1.91276 2.30334 0
M  V30 84 H 4.9584 0.921073 1.1069 0
M  V30 85 H 6.9114 0.378839 4.19694 0
M  V30 86 H 5.6354 -0.413598 3.23971 0
M  V30 87 H 4.2944 1.71891 3.23804 0
M  V30 88 H 3.9424 0.0101688 5.02999 0
M  V30 89 H 3.6424 1.65784 5.63728 0
M  V30 90 H 5.1664 0.821939 6.05043 0
M  V30 91 H 6.5804 2.8288 4.9865 0
M  V30 92 H 4.9774 3.5983 4.80253 0
M  V30 93 H 6.0474 3.4616 3.39561 0
M  V30 94 N 7.3905 -1.2043 1.01659 0
M  V30 95 C 8.6395 -1.89118 0.701237 0
M  V30 96 C 8.9525 -1.79705 -0.772358 0
M  V30 97 O 10.1585 -2.43528 -1.20026 0
M  V30 98 C 8.6145 -3.39168 1.20388 0
M  V30 99 C 8.2225 -3.57166 2.70438 0
M  V30 100 C 9.9665 -4.1341 0.963953 0
M  V30 101 C 7.8735 -5.01042 3.14183 0
M  V30 102 H 6.8035 -0.708267 0.2586 0
M  V30 103 H 9.4545 -1.36239 1.22927 0
M  V30 104 H 7.8365 -3.91369 0.603824 0
M  V30 105 H 9.0105 -3.15351 3.35992 0
M  V30 106 H 7.3255 -2.96294 2.92572 0
M  V30 107 H 9.9225 -5.19491 1.26621 0
M  V30 108 H 10.2655 -4.16181 -0.099578 0
M  V30 109 H 10.7985 -3.67309 1.52738 0
M  V30 110 H 7.5375 -5.03426 4.19812 0
M  V30 111 H 7.0575 -5.43668 2.53348 0
M  V30 112 H 8.7365 -5.69623 3.0682 0
M  V30 113 N 8.8686 -0.792821 -1.36206 0
M  V30 114 C 9.7986 -0.207853 -2.32573 0
M  V30 115 C 10.7796 0.659055 -1.56813 0
M  V30 116 O 11.9646 0.592176 -1.84951 0
M  V30 117 C 9.0946 0.655449 -3.41059 0
M  V30 118 C 8.0486 -0.111842 -4.27854 0
M  V30 119 C 7.3746 0.872274 -5.27537 0
M  V30 120 C 8.6746 -1.30299 -5.05786 0
M  V30 121 H 10.3686 -1.01294 -2.81744 0
M  V30 122 H 7.9146 -0.48854 -1.3546 0
M  V30 123 H 9.8676 1.07464 -4.07467 0
M  V30 124 H 8.5916 1.49328 -2.90463 0
M  V30 125 H 7.2506 -0.512053 -3.63006 0
M  V30 126 H 6.8986 1.70523 -4.73214 0
M  V30 127 H 6.5986 0.363291 -5.86476 0
M  V30 128 H 8.1226 1.28996 -5.96818 0
M  V30 129 H 9.5366 -0.959379 -5.65216 0
M  V30 130 H 7.9336 -1.7455 -5.74154 0
M  V30 131 H 9.0036 -2.09663 -4.37229 0
M  V30 132 N 10.3467 1.47872 -0.545128 0
M  V30 133 C 11.2767 2.32661 0.197793 0
M  V30 134 C 12.2577 1.43041 0.920504 0
M  V30 135 O 13.4427 1.71912 0.90333 0
M  V30 136 C 10.5727 3.24569 1.23582 0
M  V30 137 C 9.5267 4.23333 0.630323 0
M  V30 138 C 8.8527 5.0448 1.77211 0
M  V30 139 C 10.1527 5.20704 -0.407974 0
M  V30 140 H 11.8467 2.95024 -0.510045 0
M  V30 141 H 9.3927 1.4187 -0.246731 0
M  V30 142 H 11.3457 3.8272 1.76362 0
M  V30 143 H 10.0697 2.60236 1.97344 0
M  V30 144 H 8.7287 3.6639 0.123922 0
M  V30 145 H 8.3767 4.36561 2.49847 0
M  V30 146 H 8.0767 5.71339 1.37281 0
M  V30 147 H 9.6007 5.65487 2.3034 0
M  V30 148 H 11.0147 5.7329 0.033305 0
M  V30 149 H 9.4117 5.95699 -0.725486 0
M  V30 150 H 10.4817 4.66917 -1.30828 0
M  V30 151 N 11.8248 0.280983 1.55075 0
M  V30 152 C 12.7548 -0.597469 2.25727 0
M  V30 153 C 13.7358 -1.15417 1.24952 0
M  V30 154 O 14.9208 -1.18722 1.53684 0
M  V30 155 C 12.0508 -1.7789 2.98283 0
M  V30 156 C 11.0048 -1.35347 4.06036 0
M  V30 157 C 10.3308 -2.61846 4.66198 0
M  V30 158 C 11.6308 -0.499354 5.19907 0
M  V30 159 H 13.3248 -0.00824265 2.99399 0
M  V30 160 H 10.8708 -0.0025244 1.44 0
M  V30 161 H 12.8238 -2.39937 3.46422 0
M  V30 162 H 11.5478 -2.39405 2.22155 0
M  V30 163 H 10.2068 -0.756156 3.58717 0
M  V30 164 H 9.8548 -3.21632 3.86732 0
M  V30 165 H 9.5548 -2.3409 5.38958 0
M  V30 166 H 11.0788 -3.24732 5.1709 0
M  V30 167 H 12.4928 -1.02498 5.64063 0
M  V30 168 H 10.8898 -0.316424 5.99265 0
M  V30 169 H 11.9598 0.480459 4.82514 0
M  V30 170 N 13.3029 -1.57598 0.00835791 0
M  V30 171 C 14.5489 -1.91211 -0.675732 0
M  V30 172 C 14.8819 -0.883139 -1.72958 0
M  V30 173 O 14.1569 0.097016 -1.94258 0
M  V30 174 C 14.4399 -3.35379 -1.31123 0
M  V30 175 C 14.2929 -4.48999 -0.268356 0
M  V30 176 C 15.6119 -3.7912 -2.23508 0
M  V30 177 H 12.7309 -0.695374 -0.244179 0
M  V30 178 H 15.3729 -1.89901 0.0613655 0
M  V30 179 H 13.5229 -3.36626 -1.93946 0
M  V30 180 H 15.1949 -4.59887 0.360844 0
M  V30 181 H 13.4379 -4.31873 0.408482 0
M  V30 182 H 14.1089 -5.46851 -0.752218 0
M  V30 183 H 16.5849 -3.79477 -1.70693 0
M  V30 184 H 15.4609 -4.80729 -2.64936 0
M  V30 185 H 15.7219 -3.13455 -3.11766 0
M  V30 186 N 14.781 0.264519 -1.55364 0
M  V30 187 C 15.744 1.31046 -1.88042 0
M  V30 188 C 16.744 1.41943 -0.755569 0
M  V30 189 O 17.934 1.40947 -1.02369 0
M  V30 190 C 15.066 2.69067 -2.09323 0
M  V30 191 H 16.259 1.03297 -2.81549 0
M  V30 192 H 13.812 0.502989 -1.47986 0
M  V30 193 H 14.547 3.01982 -1.18226 0
M  V30 194 H 14.332 2.62542 -2.91229 0
M  V30 195 H 15.822 3.44623 -2.35848 0
M  V30 196 N 16.2591 1.48442 0.529413 0
M  V30 197 C 17.1891 1.65902 1.64313 0
M  V30 198 C 18.1701 0.507897 1.6234 0
M  V30 199 O 19.3551 0.740503 1.79528 0
M  V30 200 C 16.4851 1.69911 3.02898 0
M  V30 201 C 15.4391 2.8453 3.19729 0
M  V30 202 C 14.7651 2.73629 4.59381 0
M  V30 203 C 16.0651 4.25821 3.02447 0
M  V30 204 H 17.7591 2.5914 1.49955 0
M  V30 205 H 15.3051 1.24709 0.719982 0
M  V30 206 H 17.2581 1.80715 3.80684 0
M  V30 207 H 15.9821 0.732524 3.18279 0
M  V30 208 H 14.6411 2.73283 2.44361 0
M  V30 209 H 14.2891 1.74938 4.71599 0
M  V30 210 H 13.9891 3.50541 4.71588 0
M  V30 211 H 15.5131 2.86401 5.39265 0
M  V30 212 H 16.9271 4.37898 3.70024 0
M  V30 213 H 15.3241 5.03735 3.26146 0
M  V30 214 H 16.3941 4.42244 1.98867 0
M  V30 215 N 17.7372 -0.778329 1.37039 0
M  V30 216 C 18.9622 -1.57248 1.35233 0
M  V30 217 C 19.3872 -1.87999 -0.0615568 0
M  V30 218 O 18.7452 -1.48734 -1.03672 0
M  V30 219 C 18.7932 -2.86353 2.19167 0
M  V30 220 O 17.8972 -3.80442 1.59178 0
M  V30 221 H 17.2382 -0.476569 0.462362 0
M  V30 222 H 19.7682 -0.963853 1.80474 0
M  V30 223 H 19.7782 -3.35519 2.32145 0
M  V30 224 H 18.4532 -2.63299 3.21942 0
M  V30 225 H 17.0302 -3.39067 1.55203 0
M  V30 226 N 19.2153 -1.21501 -1.00376 0
M  V30 227 C 20.4613 -1.03452 -1.74429 0
M  V30 228 C 20.7943 0.430764 -1.89362 0
M  V30 229 O 20.0693 1.31962 -1.42886 0
M  V30 230 C 20.3523 -1.73375 -3.15615 0
M  V30 231 C 20.2053 -3.27431 -3.08397 0
M  V30 232 C 21.5243 -1.47732 -4.14564 0
M  V30 233 H 18.6433 -0.377226 -0.633143 0
M  V30 234 H 21.2853 -1.49693 -1.17013 0
M  V30 235 H 19.4353 -1.34064 -3.64636 0
M  V30 236 H 21.1073 -3.76119 -2.67081 0
M  V30 237 H 19.3503 -3.5767 -2.45468 0
M  V30 238 H 20.0213 -3.71524 -4.08258 0
M  V30 239 H 22.4973 -1.8186 -3.74254 0
M  V30 240 H 21.3733 -1.99169 -5.11491 0
M  V30 241 H 21.6343 -0.407589 -4.40217 0
M  V30 242 N 20.6934 1.19889 -1.02296 0
M  V30 243 C 21.6564 2.21116 -0.603351 0
M  V30 244 C 22.6564 1.5738 0.329884 0
M  V30 245 O 23.8464 1.73802 0.117702 0
M  V30 246 C 20.9784 3.40696 0.117992 0
M  V30 247 H 22.1714 2.59754 -1.49893 0
M  V30 248 H 19.7244 1.33463 -0.813468 0
M  V30 249 H 20.4594 3.07569 1.0282 0
M  V30 250 H 20.2444 3.88188 -0.552511 0
M  V30 251 H 21.7344 4.15692 0.398696 0
M  V30 252 N 22.1715 0.800033 1.35784 0
M  V30 253 C 23.4015 0.389041 2.02904 0
M  V30 254 C 23.8095 -1.0027 1.60445 0
M  V30 255 O 23.1525 -1.65633 0.794453 0
M  V30 256 C 23.2145 0.385495 3.57427 0
M  V30 257 C 22.8785 1.72662 4.23127 0
M  V30 258 C 23.8755 2.68385 4.4527 0
M  V30 259 C 21.5605 2.00883 4.60381 0
M  V30 260 C 23.5545 3.90517 5.03761 0
M  V30 261 C 21.2415 3.2328 5.18588 0
M  V30 262 C 22.2395 4.17915 5.40218 0
M  V30 263 O 21.9275 5.38153 5.97199 0
M  V30 264 H 21.6595 0.157032 0.657508 0
M  V30 265 H 24.2135 1.08311 1.74522 0
M  V30 266 H 22.4435 -0.365128 3.84972 0
M  V30 267 H 24.1325 -0.00228296 4.059 0
M  V30 268 H 24.8985 2.47872 4.16874 0
M  V30 269 H 20.7775 1.28037 4.42863 0
M  V30 270 H 24.3215 4.64395 5.2056 0
M  V30 271 H 20.2185 3.43667 5.4641 0
M  V30 272 H 20.9865 5.3936 6.15656 0
M  V30 273 N 23.6496 -1.47581 0.552962 0
M  V30 274 C 24.6126 -2.28439 -0.186605 0
M  V30 275 C 25.6126 -1.36706 -0.84665 0
M  V30 276 O 26.8026 -1.59378 -0.703164 0
M  V30 277 C 23.9346 -3.16264 -1.2724 0
M  V30 278 H 25.1276 -2.95294 0.523609 0
M  V30 279 H 22.6806 -1.532 0.309745 0
M  V30 280 H 23.4156 -2.54091 -2.01514 0
M  V30 281 H 23.2006 -3.83769 -0.803968 0
M  V30 282 H 24.6906 -3.77198 -1.79196 0
M  V30 283 N 25.1277 -0.289203 -1.54924 0
M  V30 284 C 26.0907 0.579144 -2.21762 0
M  V30 285 C 27.0907 1.07047 -1.1999 0
M  V30 286 O 28.2807 0.968384 -1.44803 0
M  V30 287 C 25.4127 1.80055 -2.8947 0
M  V30 288 H 26.6057 -0.00464908 -2.999 0
M  V30 289 H 24.1587 -0.0399306 -1.56249 0
M  V30 290 H 24.8937 2.42449 -2.15381 0
M  V30 291 H 24.6787 1.45602 -3.64064 0
M  V30 292 H 26.1687 2.41773 -3.40493 0
M  V30 293 N 26.6058 1.57591 -0.0167156 0
M  V30 294 C 28.0168 1.79201 0.523834 0
M  V30 295 C 28.3678 0.925796 1.72984 0
M  V30 296 O 27.4928 0.132792 2.15992 0
M  V30 297 C 28.0878 3.25 0.957091 0
M  V30 298 C 26.6468 3.47648 1.44283 0
M  V30 299 C 25.7938 2.74374 0.401757 0
M  V30 300 H 28.7448 1.56831 -0.242816 0
M  V30 301 H 28.7658 3.34031 1.82219 0
M  V30 302 H 28.2778 3.88019 0.0791415 0
M  V30 303 H 26.3788 2.89866 2.34113 0
M  V30 304 H 26.4918 4.56352 1.45877 0
M  V30 305 H 24.8558 2.39485 0.867121 0
M  V30 306 H 25.6388 3.40102 -0.467513 0
M  V30 307 N 28.0839 -0.256276 1.55502 0
M  V30 308 C 29.3319 -0.983672 1.76545 0
M  V30 309 C 29.6529 -1.86206 0.578982 0
M  V30 310 O 28.9229 -1.91656 -0.405577 0
M  V30 311 H 27.5029 -0.366191 0.651086 0
M  V30 312 H 30.1649 -0.276479 1.92929 0
M  V30 313 H 29.2609 -1.61087 2.67315 0
M  V30 314 N 29.562 -1.4872 -0.521534 0
M  V30 315 C 30.973 -1.50607 -1.10337 0
M  V30 316 C 31.324 -0.280612 -1.94183 0
M  V30 317 O 30.449 0.611507 -2.0758 0
M  V30 318 C 31.044 -2.72903 -2.00772 0
M  V30 319 C 29.603 -2.77634 -2.54158 0
M  V30 320 C 28.75 -2.44241 -1.31307 0
M  V30 321 H 31.701 -1.55714 -0.306388 0
M  V30 322 H 31.722 -2.519 -2.85178 0
M  V30 323 H 31.234 -3.62077 -1.39721 0
M  V30 324 H 29.335 -1.92689 -3.18907 0
M  V30 325 H 29.448 -3.79283 -2.92714 0
M  V30 326 H 27.812 -1.95577 -1.63161 0
M  V30 327 H 28.595 -3.35666 -0.719943 0
M  V30 328 N 31.0401 0.771051 -1.3745 0
M  V30 329 C 32.4561 1.07171 -1.18265 0
M  V30 330 C 32.6561 2.01491 -0.019287 0
M  V30 331 O 31.7121 2.44244 0.640408 0
M  V30 332 C 33.0251 1.66854 -2.50161 0
M  V30 333 C 34.5731 1.79109 -2.56689 0
M  V30 334 C 35.0481 2.42205 -3.88717 0
M  V30 335 N 36.5391 2.49655 -3.90162 0
M  V30 336 C 37.2741 2.9933 -4.8907 0
M  V30 337 N 36.7701 3.49172 -5.98374 0
M  V30 338 N 38.5631 2.9821 -4.76474 0
M  V30 339 H 30.7141 0.144796 -2.11906 0
M  V30 340 H 32.9771 0.126863 -0.939473 0
M  V30 341 H 32.6831 1.05017 -3.35655 0
M  V30 342 H 32.5571 2.6614 -2.673 0
M  V30 343 H 34.9441 2.40077 -1.71601 0
M  V30 344 H 35.0251 0.785757 -2.43433 0
M  V30 345 H 34.6691 1.81875 -4.74219 0
M  V30 346 H 34.5991 3.43345 -3.99276 0
M  V30 347 H 37.0901 2.14383 -3.11205 0
M  V30 348 H 37.4031 3.8548 -6.69795 0
M  V30 349 H 35.7481 3.47275 -6.02018 0
M  V30 350 H 38.9391 2.58572 -3.90203 0
M  V30 351 H 39.1121 3.36613 -5.53711 0
M  V30 352 N 32.5182 1.22032 0.997298 0
M  V30 353 C 33.7662 1.04016 1.73278 0
M  V30 354 C 34.0872 -0.426255 1.90284 0
M  V30 355 O 33.3572 -1.30694 1.45931 0
M  V30 356 H 31.9372 0.381897 0.642 0
M  V30 357 H 34.5992 1.5347 1.20137 0
M  V30 358 H 33.6952 1.51441 2.72896 0
M  V30 359 N 33.9963 -1.19345 1.0293 0
M  V30 360 C 35.2453 -1.88363 0.721256 0
M  V30 361 C 35.5583 -1.80514 -0.753254 0
M  V30 362 O 36.7643 -2.44788 -1.17436 0
M  V30 363 C 35.2203 -3.37872 1.23978 0
M  V30 364 C 34.8283 -3.54278 2.74211 0
M  V30 365 C 36.5723 -4.12365 1.00775 0
M  V30 366 C 34.4793 -4.97682 3.19479 0
M  V30 367 H 33.4093 -0.705484 0.266098 0
M  V30 368 H 36.0603 -1.34928 1.24365 0
M  V30 369 H 34.4423 -3.90707 0.6453 0
M  V30 370 H 35.6163 -3.11769 3.39318 0
M  V30 371 H 33.9313 -2.93174 2.95699 0
M  V30 372 H 36.5283 -5.18119 1.32123 0
M  V30 373 H 36.8713 -4.16263 -0.0554308 0
M  V30 374 H 37.4043 -3.65668 1.56625 0
M  V30 375 H 34.1433 -4.98945 4.25128 0
M  V30 376 H 33.6633 -5.4095 2.591 0
M  V30 377 H 35.3423 -5.66337 3.12845 0
M  V30 378 N 35.4744 -0.807222 -1.35358 0
M  V30 379 C 36.7234 -0.384376 -1.98004 0
M  V30 380 C 37.0364 1.0543 -1.64754 0
M  V30 381 O 38.2424 1.58029 -2.20769 0
M  V30 382 C 36.6984 -0.636326 -3.5423 0
M  V30 383 C 36.3064 -2.08759 -3.96388 0
M  V30 384 C 38.0504 -0.278869 -4.23583 0
M  V30 385 C 35.9574 -2.28525 -5.45463 0
M  V30 386 H 34.8874 -0.139986 -0.740891 0
M  V30 387 H 37.5384 -0.991369 -1.54415 0
M  V30 388 H 35.9204 0.0406256 -3.95979 0
M  V30 389 H 37.0944 -2.8024 -3.6579 0
M  V30 390 H 35.4094 -2.40497 -3.39926 0
M  V30 391 H 38.0064 -0.404599 -5.33167 0
M  V30 392 H 38.3494 0.775012 -4.09022 0
M  V30 393 H 38.8824 -0.909764 -3.87257 0
M  V30 394 H 35.6214 -3.32361 -5.64992 0
M  V30 395 H 35.1414 -1.61569 -5.77629 0
M  V30 396 H 36.8204 -2.10109 -6.11934 0
M  V30 397 N 36.9525 1.47285 -0.560781 0
M  V30 398 C 38.2015 2.01668 -0.035895 0
M  V30 399 C 38.5145 1.44021 1.32353 0
M  V30 400 O 39.7205 1.90088 1.93853 0
M  V30 401 C 38.1765 3.59897 -0.0136659 0
M  V30 402 C 37.7845 4.26536 -1.37006 0
M  V30 403 C 39.5285 4.22017 0.458425 0
M  V30 404 C 37.4355 5.76782 -1.30675 0
M  V30 405 H 36.3655 0.753938 -0.00964879 0
M  V30 406 H 39.0165 1.69243 -0.709166 0
M  V30 407 H 37.3985 3.89301 0.725325 0
M  V30 408 H 38.5725 4.0877 -2.12705 0
M  V30 409 H 36.8875 3.76419 -1.78038 0
M  V30 410 H 39.4845 5.32124 0.524247 0
M  V30 411 H 39.8275 3.89437 1.4712 0
M  V30 412 H 40.3605 3.97159 -0.225818 0
M  V30 413 H 37.0995 6.13988 -2.29564 0
M  V30 414 H 36.6195 5.96875 -0.591622 0
M  V30 415 H 38.2985 6.39063 -1.01033 0
M  V30 416 N 38.4306 0.297415 1.54768 0
M  V30 417 C 39.3786 -0.596051 2.24833 0
M  V30 418 C 40.3726 -1.13992 1.25308 0
M  V30 419 O 41.5786 -1.09098 1.4317 0
M  V30 420 H 37.9536 -0.210814 0.721846 0
M  V30 421 H 39.9246 0.0174667 2.98395 0
M  V30 422 C 38.6736 -1.75818 2.99972 0
M  V30 423 H 37.9966 -1.3489 3.76357 0
M  V30 424 H 39.4366 -2.35949 3.52284 0
M  V30 425 C 37.8956 -2.66014 2.06732 0
M  V30 426 O 38.4256 -3.67009 1.63302 0
M  V30 427 N 36.6316 -2.33669 1.72763 0
M  V30 428 H 36.1786 -1.51586 2.08277 0
M  V30 429 H 36.1366 -2.94285 1.10652 0
M  V30 430 N 39.9087 -1.5758 0.0250728 0
M  V30 431 C 40.8387 -2.13007 -0.956575 0
M  V30 432 C 41.8197 -1.0452 -1.342 0
M  V30 433 O 43.0047 -1.32332 -1.42133 0
M  V30 434 C 40.1347 -2.65386 -2.24026 0
M  V30 435 C 39.0887 -3.78623 -1.99571 0
M  V30 436 C 38.4147 -4.17414 -3.3417 0
M  V30 437 C 39.7147 -5.04867 -1.33814 0
M  V30 438 H 41.4087 -2.9528 -0.494991 0
M  V30 439 H 38.9547 -1.42042 -0.236651 0
M  V30 440 H 40.9077 -3.02794 -2.93076 0
M  V30 441 H 39.6317 -1.80268 -2.72343 0
M  V30 442 H 38.2907 -3.41646 -1.32941 0
M  V30 443 H 37.9387 -3.29284 -3.80238 0
M  V30 444 H 37.6387 -4.93719 -3.18615 0
M  V30 445 H 39.1627 -4.57402 -4.04495 0
M  V30 446 H 40.5767 -5.39888 -1.92857 0
M  V30 447 H 38.9737 -5.86144 -1.28669 0
M  V30 448 H 40.0437 -4.83904 -0.310561 0
M  V30 449 N 41.3868 0.248026 -1.55636 0
M  V30 450 C 42.2968 1.32859 -1.93354 0
M  V30 451 C 43.3128 1.52719 -0.833838 0
M  V30 452 O 44.4888 1.66363 -1.13513 0
M  V30 453 C 41.5538 2.66337 -2.21958 0
M  V30 454 C 40.6148 2.55008 -3.45354 0
M  V30 455 C 39.8478 3.82121 -3.72584 0
M  V30 456 O 40.0708 4.83951 -3.01907 0
M  V30 457 O 39.0048 3.80822 -4.6611 0
M  V30 458 H 42.8308 1.03862 -2.85388 0
M  V30 459 H 40.4158 0.448686 -1.42503 0
M  V30 460 H 42.2978 3.45216 -2.4167 0
M  V30 461 H 40.9728 2.95068 -1.33103 0
M  V30 462 H 39.8798 1.7442 -3.30951 0
M  V30 463 H 41.2128 2.31222 -4.34508 0
M  V30 464 N 42.8649 1.48995 0.513639 0
M  V30 465 C 43.8129 1.65199 1.63744 0
M  V30 466 C 44.8069 0.51809 1.61283 0
M  V30 467 O 46.0129 0.697335 1.65943 0
M  V30 468 H 42.3879 0.52069 0.542574 0
M  V30 469 H 44.3589 2.59552 1.47226 0
M  V30 470 C 43.1079 1.72409 3.01945 0
M  V30 471 H 42.4309 2.59029 3.04539 0
M  V30 472 H 43.8709 1.87785 3.80148 0
M  V30 473 C 42.3299 0.46618 3.33659 0
M  V30 474 O 42.8599 -0.413744 3.99564 0
M  V30 475 N 41.0659 0.332931 2.88687 0
M  V30 476 H 40.6129 1.04996 2.35231 0
M  V30 477 H 40.5709 -0.507665 3.10274 0
M  V30 478 N 44.343 -0.763751 1.37857 0
M  V30 479 C 45.591 -1.51957 1.33243 0
M  V30 480 C 45.912 -1.94835 -0.0801709 0
M  V30 481 O 45.182 -1.66894 -1.02582 0
M  V30 482 H 43.762 -0.563626 0.49024 0
M  V30 483 H 46.424 -0.908504 1.7243 0
M  V30 484 H 45.52 -2.41523 1.97669 0
M  V30 485 N 45.8211 -1.22559 -0.990812 0
M  V30 486 C 46.7311 -1.01394 -2.11557 0
M  V30 487 C 47.7471 0.0383962 -1.73958 0
M  V30 488 O 48.9231 -0.154787 -2.00804 0
M  V30 489 C 45.9881 -0.596569 -3.41529 0
M  V30 490 C 45.0491 -1.72276 -3.93217 0
M  V30 491 C 44.2821 -1.32521 -5.16985 0
M  V30 492 O 44.5051 -0.204909 -5.70032 0
M  V30 493 O 43.4391 -2.14247 -5.62478 0
M  V30 494 H 47.2651 -1.95633 -2.32296 0
M  V30 495 H 44.8501 -1.01172 -1.0993 0
M  V30 496 H 46.7321 -0.374263 -4.19735 0
M  V30 497 H 45.4071 0.316939 -3.22145 0
M  V30 498 H 44.3141 -1.99961 -3.16174 0
M  V30 499 H 45.6471 -2.61421 -4.17037 0
M  V30 500 N 47.2992 1.18797 -1.03562 0
M  V30 501 C 48.2292 2.24472 -0.643019 0
M  V30 502 C 49.2102 1.66433 0.351283 0
M  V30 503 O 50.3952 1.92803 0.232505 0
M  V30 504 C 47.5252 3.473 4.24935e-05 0
M  V30 505 C 46.4792 4.18055 -0.917257 0
M  V30 506 C 45.8052 5.34519 -0.138941 0
M  V30 507 C 47.1052 4.72109 -2.23407 0
M  V30 508 H 48.7992 2.57566 -1.52643 0
M  V30 509 H 46.3452 1.23806 -0.735394 0
M  V30 510 H 48.2982 4.20426 0.286383 0
M  V30 511 H 47.0222 3.13424 0.918299 0
M  V30 512 H 45.6812 3.46821 -1.1879 0
M  V30 513 H 45.3292 4.96891 0.781562 0
M  V30 514 H 45.0292 5.82794 -0.750005 0
M  V30 515 H 46.5532 6.10438 0.1405 0
M  V30 516 H 47.9672 5.36955 -2.00879 0
M  V30 517 H 46.3642 5.30897 -2.79765 0
M  V30 518 H 47.4342 3.89807 -2.88407 0
M  V30 519 N 48.7773 0.814389 1.34928 0
M  V30 520 C 50.0173 0.404165 2.00364 0
M  V30 521 C 50.3813 -1.01166 1.63185 0
M  V30 522 O 51.5823 -1.52431 2.21401 0
M  V30 523 C 49.8533 0.590718 3.52484 0
M  V30 524 S 51.4123 0.272075 4.37956 0
M  V30 525 H 48.2303 0.15311 0.694319 0
M  V30 526 H 50.8323 1.05834 1.64376 0
M  V30 527 H 49.5363 1.62099 3.77031 0
M  V30 528 H 49.0673 -0.0785013 3.93322 0
M  V30 529 H 51.0823 -0.917405 4.87645 0
M  V30 530 N 50.2554 -1.46986 0.568584 0
M  V30 531 C 51.1884 -2.27129 -0.220779 0
M  V30 532 C 52.1664 -1.34757 -0.909905 0
M  V30 533 O 53.3504 -1.64152 -0.926622 0
M  V30 534 C 50.4774 -3.12108 -1.31553 0
M  V30 535 C 49.5234 -4.20141 -0.733748 0
M  V30 536 S 50.3564 -5.33783 0.428479 0
M  V30 537 C 51.5124 -6.22327 -0.667811 0
M  V30 538 H 51.7454 -2.93731 0.459267 0
M  V30 539 H 49.2784 -1.5026 0.355154 0
M  V30 540 H 51.2364 -3.61636 -1.94241 0
M  V30 541 H 49.8974 -2.44847 -1.96746 0
M  V30 542 H 49.0904 -4.79373 -1.5562 0
M  V30 543 H 48.6924 -3.73553 -0.182812 0
M  V30 544 H 50.9844 -6.59364 -1.55708 0
M  V30 545 H 51.9274 -7.0801 -0.11258 0
M  V30 546 H 52.3354 -5.5618 -0.965601 0
M  V30 547 N 51.7335 -0.305618 -1.54608 0
M  V30 548 C 52.6815 0.584119 -2.25146 0
M  V30 549 C 53.6755 1.13326 -1.25911 0
M  V30 550 O 54.8815 1.08337 -1.43747 0
M  V30 551 H 51.2565 0.206983 -0.722954 0
M  V30 552 H 53.2275 -0.033291 -2.98381 0
M  V30 553 C 51.9765 1.74225 -3.009 0
M  V30 554 H 51.2995 1.32892 -3.77067 0
M  V30 555 H 52.7395 2.34077 -3.53531 0
M  V30 556 C 51.1985 2.64914 -2.0814 0
M  V30 557 O 51.7285 3.66137 -1.65246 0
M  V30 558 N 49.9345 2.3275 -1.74 0
M  V30 559 H 49.4815 1.50479 -2.09078 0
M  V30 560 H 49.4395 2.93694 -1.12211 0
M  V30 561 N 53.2116 1.57565 -0.0334293 0
M  V30 562 C 54.4366 1.96689 0.657895 0
M  V30 563 C 54.8616 0.910057 1.64619 0
M  V30 564 O 54.2196 -0.128598 1.80843 0
M  V30 565 C 54.2676 3.34905 1.33683 0
M  V30 566 O 53.3716 3.31574 2.45219 0
M  V30 567 H 52.7126 0.641205 0.172489 0
M  V30 568 H 55.2426 2.04372 -0.0965621 0
M  V30 569 H 55.2526 3.71234 1.69262 0
M  V30 570 H 53.9276 4.11366 0.612411 0
M  V30 571 H 52.5046 3.06968 2.11719 0
M  V30 572 N 54.6897 -0.239769 1.55765 0
M  V30 573 C 55.6527 -1.28038 1.90103 0
M  V30 574 C 56.6527 -1.40723 0.778055 0
M  V30 575 O 57.8427 -1.39301 1.04599 0
M  V30 576 C 54.9747 -2.65702 2.13577 0
M  V30 577 H 56.1677 -0.988048 2.83157 0
M  V30 578 H 53.7207 -0.479382 1.48767 0
M  V30 579 H 54.4557 -3.00063 1.23015 0
M  V30 580 H 54.2407 -2.57875 2.95369 0
M  V30 581 H 55.7307 -3.40828 2.41301 0
M  V30 582 N 56.1678 -1.49265 -0.50573 0
M  V30 583 C 57.0998 -1.617 -1.62437 0
M  V30 584 C 58.1128 -0.499924 -1.54934 0
M  V30 585 O 59.3018 -0.771785 -1.60953 0
M  V30 586 C 56.4018 -1.5533 -3.01207 0
M  V30 587 C 55.5748 -2.8249 -3.33943 0
M  V30 588 C 54.6338 -2.69238 -4.52103 0
M  V30 589 O 53.6598 -3.43167 -4.5412 0
M  V30 590 N 54.8618 -1.80468 -5.51735 0
M  V30 591 H 57.6268 -2.58177 -1.52199 0
M  V30 592 H 55.1878 -1.46294 -0.693511 0
M  V30 593 H 57.1798 -1.44125 -3.78167 0
M  V30 594 H 55.7498 -0.667297 -3.05395 0
M  V30 595 H 54.9698 -3.08081 -2.45926 0
M  V30 596 H 56.2578 -3.66802 -3.5261 0
M  V30 597 H 55.6558 -1.19653 -5.52901 0
M  V30 598 H 54.2128 -1.75188 -6.27816 0
M  V30 599 N 57.6459 0.756429 -1.3826 0
M  V30 600 C 58.8859 1.52833 -1.35725 0
M  V30 601 C 59.2499 1.91926 0.0534106 0
M  V30 602 O 60.4509 2.68028 0.203613 0
M  V30 603 C 58.7219 2.74919 -2.28373 0
M  V30 604 S 60.2809 3.64817 -2.43832 0
M  V30 605 H 57.0989 0.523043 -0.481608 0
M  V30 606 H 59.7009 0.888212 -1.74158 0
M  V30 607 H 58.4049 2.44304 -3.29763 0
M  V30 608 H 57.9359 3.43878 -1.91079 0
M  V30 609 H 59.9509 4.676 -1.66027 0
M  V30 610 N 59.124 1.23083 0.984299 0
M  V30 611 C 60.071 1.00854 2.07598 0
M  V30 612 C 61.041 -0.0726709 1.65941 0
M  V30 613 O 62.226 0.0786535 1.90638 0
M  V30 614 C 59.366 0.601645 3.39815 0
M  V30 615 C 58.479 1.75456 3.94765 0
M  V30 616 C 57.614 1.29482 5.15177 0
M  V30 617 C 56.653 2.41873 5.62284 0
M  V30 618 N 55.79 1.96885 6.73929 0
M  V30 619 H 60.63 1.943 2.25946 0
M  V30 620 H 58.167 0.968001 1.10762 0
M  V30 621 H 60.125 0.346854 4.15756 0
M  V30 622 H 58.755 -0.295803 3.21442 0
M  V30 623 H 57.807 2.12346 3.15616 0
M  V30 624 H 59.119 2.59965 4.25699 0
M  V30 625 H 58.273 0.997923 5.98437 0
M  V30 626 H 57.012 0.420046 4.85888 0
M  V30 627 H 56.017 2.72342 4.77608 0
M  V30 628 H 57.242 3.29881 5.93595 0
M  V30 629 H 55.188 1.11782 6.46406 0
M  V30 630 H 55.105 2.74956 7.04227 0
M  V30 631 H 56.373 1.70289 7.60672 0
M  V30 632 N 60.6021 -1.18246 1.0419 0
M  V30 633 C 61.8271 -1.92736 0.765996 0
M  V30 634 C 62.2521 -1.75728 -0.67091 0
M  V30 635 O 61.6101 -1.06825 -1.46486 0
M  V30 636 C 61.6581 -3.42148 1.13875 0
M  V30 637 O 60.7621 -4.11548 0.264954 0
M  V30 638 H 60.1031 -0.601238 0.281797 0
M  V30 639 H 62.6331 -1.49942 1.39207 0
M  V30 640 H 62.6431 -3.92858 1.1012 0
M  V30 641 H 61.3181 -3.53848 2.18551 0
M  V30 642 H 59.8951 -3.71137 0.362226 0
M  V30 643 N 62.0802 -0.821533 -1.34494 0
M  V30 644 C 63.0282 -0.230702 -2.31453 0
M  V30 645 C 64.0222 0.627793 -1.57338 0
M  V30 646 O 65.2282 0.519288 -1.72347 0
M  V30 647 H 61.6032 -0.0558577 -0.749923 0
M  V30 648 H 63.5742 -1.06332 -2.78812 0
M  V30 649 C 62.3232 0.59391 -3.4259 0
M  V30 650 H 61.6462 -0.0573588 -3.99759 0
M  V30 651 H 63.0862 0.973446 -4.12674 0
M  V30 652 C 61.5452 1.76568 -2.86924 0
M  V30 653 O 62.0752 2.8638 -2.81691 0
M  V30 654 N 60.2812 1.58198 -2.43766 0
M  V30 655 H 59.8282 0.68872 -2.48222 0
M  V30 656 H 59.7862 2.36752 -2.06871 0
M  V30 657 N 63.5583 1.46682 -0.576371 0
M  V30 658 C 64.7983 2.04306 -0.0621356 0
M  V30 659 C 65.1623 1.4389 1.2712 0
M  V30 660 O 66.3633 1.92675 1.87429 0
M  V30 661 C 64.6343 3.57399 0.00927922 0
M  V30 662 S 66.1933 4.36309 0.466859 0
M  V30 663 H 63.0113 0.710167 -0.0344016 0
M  V30 664 H 65.6133 1.79807 -0.767437 0
M  V30 665 H 64.3173 3.98889 -0.965178 0
M  V30 666 H 63.8483 3.86424 0.737547 0
M  V30 667 H 65.8633 4.6533 1.72287 0
M  V30 668 N 65.0364 0.313813 1.54444 0
M  V30 669 C 66.2764 -0.292389 2.02298 0
M  V30 670 C 66.6404 -1.50105 1.19719 0
M  V30 671 O 67.8414 -2.17947 1.5733 0
M  V30 672 C 66.1124 -0.627682 3.51845 0
M  V30 673 S 67.6714 -1.21493 4.21646 0
M  V30 674 H 64.4894 -0.0890247 0.705405 0
M  V30 675 H 67.0914 0.444668 1.90376 0
M  V30 676 H 65.7954 0.260265 4.09574 0
M  V30 677 H 65.3264 -1.39519 3.67829 0
M  V30 678 H 67.3414 -2.5022 4.28491 0
M  V30 679 N 66.5145 -1.57545 0.0417849 0
M  V30 680 C 67.4465 -2.07904 -0.964799 0
M  V30 681 C 68.4595 -1.00497 -1.28079 0
M  V30 682 O 69.6485 -1.28087 -1.24322 0
M  V30 683 C 66.7485 -2.49928 -2.28887 0
M  V30 684 C 65.9215 -3.80562 -2.15619 0
M  V30 685 C 64.9805 -4.08999 -3.31069 0
M  V30 686 O 64.0065 -4.79061 -3.0739 0
M  V30 687 N 65.2085 -3.6017 -4.55256 0
M  V30 688 H 67.9735 -2.94886 -0.535029 0
M  V30 689 H 65.5345 -1.61252 -0.144681 0
M  V30 690 H 67.5265 -2.66034 -3.04972 0
M  V30 691 H 66.0965 -1.68245 -2.63463 0
M  V30 692 H 65.3165 -3.74129 -1.24183 0
M  V30 693 H 66.6045 -4.66126 -2.03971 0
M  V30 694 H 66.0025 -3.03512 -4.77386 0
M  V30 695 H 64.5595 -3.81532 -5.28466 0
M  V30 696 N 67.9926 0.231505 -1.5589 0
M  V30 697 C 68.9426 1.29007 -1.87993 0
M  V30 698 C 69.9266 1.42764 -0.742102 0
M  V30 699 O 71.1186 1.45747 -1.00433 0
M  V30 700 C 68.2476 2.6425 -2.1915 0
M  V30 701 C 67.3336 2.54435 -3.39299 0
M  V30 702 N 67.7246 2.14262 -4.58176 0
M  V30 703 C 66.0226 2.85416 -3.42715 0
M  V30 704 C 66.7236 2.15455 -5.40328 0
M  V30 705 N 65.6996 2.55558 -4.79783 0
M  V30 706 H 69.5016 0.970213 -2.77424 0
M  V30 707 H 67.0156 0.440097 -1.56323 0
M  V30 708 H 69.0126 3.40665 -2.40319 0
M  V30 709 H 67.6726 2.9709 -1.31025 0
M  V30 710 H 68.6836 1.85554 -4.83518 0
M  V30 711 H 65.3606 3.22693 -2.64906 0
M  V30 712 H 66.7506 1.86605 -6.45467 0
M  V30 713 N 69.4707 1.49531 0.497807 0
M  V30 714 C 70.6957 1.63159 1.28039 0
M  V30 715 C 71.1207 0.30418 1.85624 0
M  V30 716 O 70.4787 -0.728618 1.66015 0
M  V30 717 C 70.5267 2.70537 2.38416 0
M  V30 718 O 69.6307 2.29931 3.42353 0
M  V30 719 H 68.9717 0.546001 0.377861 0
M  V30 720 H 71.5017 1.9574 0.59558 0
M  V30 721 H 71.5117 2.92802 2.84132 0
M  V30 722 H 70.1867 3.6689 1.95869 0
M  V30 723 H 68.7637 2.18009 3.02533 0
M  V30 724 N 70.9488 -0.749086 1.3866 0
M  V30 725 C 72.1738 -1.54344 1.38538 0
M  V30 726 C 72.5988 -1.88088 -0.0216655 0
M  V30 727 O 71.9568 -1.50899 -1.00494 0
M  V30 728 C 72.0048 -2.8164 2.25192 0
M  V30 729 O 71.1088 -3.7698 1.67212 0
M  V30 730 H 70.4498 -0.466654 0.472367 0
M  V30 731 H 72.9798 -0.925355 1.82478 0
M  V30 732 H 72.9898 -3.30519 2.3921 0
M  V30 733 H 71.6648 -2.56411 3.27454 0
M  V30 734 H 70.2418 -3.35699 1.6236 0
M  V30 735 N 72.4269 -1.23603 -0.977757 0
M  V30 736 C 73.3899 -1.02069 -2.05218 0
M  V30 737 C 74.3899 0.0184305 -1.60789 0
M  V30 738 O 75.5799 -0.221569 -1.72785 0
M  V30 739 C 72.7119 -0.544926 -3.36517 0
M  V30 740 H 73.9049 -1.9742 -2.25755 0
M  V30 741 H 71.4579 -1.05684 -1.15155 0
M  V30 742 H 72.1929 0.412241 -3.21669 0
M  V30 743 H 71.9779 -1.2948 -3.70105 0
M  V30 744 H 73.4679 -0.414985 -4.15533 0
M  V30 745 N 73.905 1.17692 -1.04816 0
M  V30 746 C 74.835 2.23777 -0.666791 0
M  V30 747 C 75.816 1.66796 0.33361 0
M  V30 748 O 77.001 1.93039 0.212042 0
M  V30 749 C 74.131 3.47281 -0.0367933 0
M  V30 750 C 73.085 4.17059 -0.961546 0
M  V30 751 C 72.411 5.34342 -0.195626 0
M  V30 752 C 73.711 4.69713 -2.28402 0
M  V30 753 H 75.405 2.55933 -1.55367 0
M  V30 754 H 72.951 1.23019 -0.748484 0
M  V30 755 H 74.904 4.20706 0.241775 0
M  V30 756 H 73.628 3.14381 0.885004 0
M  V30 757 H 72.287 3.45541 -1.22462 0
M  V30 758 H 71.935 4.97692 0.728816 0
M  V30 759 H 71.635 5.81966 -0.811775 0
M  V30 760 H 73.159 6.10553 0.0757473 0
M  V30 761 H 74.573 5.34794 -2.06563 0
M  V30 762 H 72.97 5.279 -2.8538 0
M  V30 763 H 74.04 3.86726 -2.92525 0
M  V30 764 N 75.3831 0.828654 1.34056 0
M  V30 765 C 76.6311 0.41863 1.97717 0
M  V30 766 C 76.9521 -1.02314 1.66002 0
M  V30 767 O 76.2221 -1.71119 0.953683 0
M  V30 768 H 74.8021 0.151809 0.731412 0
M  V30 769 H 77.4641 1.05936 1.63596 0
M  V30 770 H 76.5601 0.542318 3.07352 0
M  V30 771 N 76.8612 -1.46375 0.584142 0
M  V30 772 C 77.7912 -2.33103 -0.136037 0
M  V30 773 C 78.7722 -1.45431 -0.882255 0
M  V30 774 O 79.9572 -1.74246 -0.857434 0
M  V30 775 C 77.0872 -3.27731 -1.14933 0
M  V30 776 C 76.0412 -4.24855 -0.517862 0
M  V30 777 C 75.3672 -5.09001 -1.63773 0
M  V30 778 C 76.6672 -5.19439 0.545886 0
M  V30 779 H 78.3612 -2.93568 0.588086 0
M  V30 780 H 75.9072 -1.41166 0.284259 0
M  V30 781 H 77.8602 -3.87261 -1.66153 0
M  V30 782 H 76.5842 -2.65377 -1.90375 0
M  V30 783 H 75.2432 -3.6659 -0.0267361 0
M  V30 784 H 74.8912 -4.43031 -2.38185 0
M  V30 785 H 74.5912 -5.74777 -1.22085 0
M  V30 786 H 76.1152 -5.71396 -2.15266 0
M  V30 787 H 77.5292 -5.73177 0.118704 0
M  V30 788 H 75.9262 -5.93566 0.88317 0
M  V30 789 H 76.9962 -4.63285 1.43162 0
M  V30 790 N 78.3393 -0.321999 -1.54275 0
M  V30 791 C 79.3023 0.531975 -2.22941 0
M  V30 792 C 80.3023 1.04478 -1.22234 0
M  V30 793 O 81.4923 0.937452 -1.46825 0
M  V30 794 C 78.6243 1.73874 -2.93224 0
M  V30 795 H 79.8173 -0.0682612 -2.99822 0
M  V30 796 H 77.3703 -0.0730644 -1.56129 0
M  V30 797 H 78.1053 2.37825 -2.20476 0
M  V30 798 H 77.8903 1.37847 -3.6707 0
M  V30 799 H 79.3803 2.34496 -3.45545 0
M  V30 800 N 79.8174 1.5752 -0.0501392 0
M  V30 801 C 81.2334 1.56631 0.306402 0
M  V30 802 C 81.4334 1.0577 1.71508 0
M  V30 803 O 80.4894 0.713837 2.422 0
M  V30 804 C 81.8024 3.00393 0.135811 0
M  V30 805 C 83.3504 3.12315 0.206993 0
M  V30 806 C 83.8254 4.57954 0.064944 0
M  V30 807 N 85.3164 4.63041 0.121254 0
M  V30 808 C 86.0514 5.73389 0.0354381 0
M  V30 809 N 85.5474 6.92724 -0.102666 0
M  V30 810 N 87.3404 5.62026 0.090946 0
M  V30 811 H 79.4914 1.88903 -0.971046 0
M  V30 812 H 81.7544 0.869876 -0.376855 0
M  V30 813 H 81.4604 3.41635 -0.835384 0
M  V30 814 H 81.3344 3.66373 0.897275 0
M  V30 815 H 83.7214 2.70973 1.16866 0
M  V30 816 H 83.8024 2.49016 -0.585208 0
M  V30 817 H 83.4464 4.99981 -0.893394 0
M  V30 818 H 83.3764 5.19258 0.876277 0
M  V30 819 H 85.8674 3.77216 0.227284 0
M  V30 820 H 86.1804 7.72633 -0.160882 0
M  V30 821 H 84.5254 6.94864 -0.137737 0
M  V30 822 H 87.7164 4.67684 0.197388 0
M  V30 823 H 87.8894 6.47997 0.0206089 0
M  V30 824 N 81.2955 -0.223234 1.56011 0
M  V30 825 C 82.5355 -0.954962 1.8072 0
M  V30 826 C 82.8995 -1.81598 0.623384 0
M  V30 827 O 84.1005 -2.58132 0.749745 0
M  V30 828 C 82.3715 -1.77313 3.10314 0
M  V30 829 S 83.9305 -2.56073 3.56332 0
M  V30 830 H 80.7485 -0.320812 0.634508 0
M  V30 831 H 83.3505 -0.220686 1.9425 0
M  V30 832 H 82.0545 -1.13071 3.94516 0
M  V30 833 H 81.5855 -2.54974 2.99586 0
M  V30 834 H 83.6005 -3.79619 3.19536 0
M  V30 835 N 82.7736 -1.49793 -0.48987 0
M  V30 836 C 84.0016 -1.63568 -1.26701 0
M  V30 837 C 84.4166 -0.311465 -1.86213 0
M  V30 838 O 83.7736 0.704416 -1.68357 0
M  V30 839 C 83.8246 -2.71284 -2.38929 0
M  V30 840 O 83.5456 -3.9857 -1.81861 0
M  V30 841 C 85.0466 -2.95864 -3.3012 0
M  V30 842 H 82.2666 -0.550342 -0.383881 0
M  V30 843 H 84.8106 -1.95898 -0.586864 0
M  V30 844 H 82.9656 -2.417 -3.02753 0
M  V30 845 H 83.3796 -4.57993 -2.55622 0
M  V30 846 H 84.8536 -3.74941 -4.05121 0
M  V30 847 H 85.3306 -2.06206 -3.87783 0
M  V30 848 H 85.9366 -3.26907 -2.72051 0
M  V30 849 N 84.2517 0.741722 -1.39055 0
M  V30 850 C 85.4767 1.53607 -1.39354 0
M  V30 851 C 85.9017 1.88096 0.0116905 0
M  V30 852 O 85.2597 1.5143 0.996924 0
M  V30 853 C 85.3077 2.80441 -2.26682 0
M  V30 854 O 84.4117 3.76088 -1.69208 0
M  V30 855 H 83.7527 0.464142 -0.474835 0
M  V30 856 H 86.2827 0.915665 -1.82967 0
M  V30 857 H 86.2927 3.29246 -2.40959 0
M  V30 858 H 84.9677 2.5467 -3.2881 0
M  V30 859 H 83.5447 3.34833 -1.64138 0
M  V30 860 N 85.7298 1.2412 0.971189 0
M  V30 861 C 86.6628 0.97373 2.06382 0
M  V30 862 C 87.6408 -0.0912662 1.62344 0
M  V30 863 O 88.8248 0.0449365 1.88446 0
M  V30 864 C 85.9518 0.468746 3.35441 0
M  V30 865 C 84.9978 1.52176 3.98428 0
M  V30 866 S 85.8308 3.10203 4.36503 0
M  V30 867 C 86.9868 2.61398 5.68702 0
M  V30 868 H 87.2198 1.89893 2.28753 0
M  V30 869 H 84.7528 1.07466 1.10862 0
M  V30 870 H 86.7108 0.184012 4.10087 0
M  V30 871 H 85.3718 -0.435688 3.11064 0
M  V30 872 H 84.5648 1.11876 4.91426 0
M  V30 873 H 84.1668 1.75632 3.30196 0
M  V30 874 H 86.4588 2.03992 6.4606 0
M  V30 875 H 87.4018 3.52972 6.13854 0
M  V30 876 H 87.8098 2.01941 5.27143 0
M  V30 877 N 87.2079 -1.17134 1.05439 0
M  V30 878 C 88.1709 -2.19439 0.661764 0
M  V30 879 C 89.1709 -1.58199 -0.288042 0
M  V30 880 O 90.3609 -1.74053 -0.0715803 0
M  V30 881 C 87.4929 -3.40889 -0.0276209 0
M  V30 882 H 88.6859 -2.55688 1.56728 0
M  V30 883 H 86.2389 -1.31259 0.848567 0
M  V30 884 H 86.9739 -3.10187 -0.94629 0
M  V30 885 H 86.7589 -3.86586 0.655238 0
M  V30 886 H 88.2489 -4.16603 -0.288342 0
M  V30 887 N 88.686 -0.835752 -1.33615 0
M  V30 888 C 89.911 -0.442389 -2.02627 0
M  V30 889 C 90.336 0.947735 -1.62479 0
M  V30 890 O 89.694 1.61907 -0.815826 0
M  V30 891 C 89.742 -0.567216 -3.56111 0
M  V30 892 O 88.846 0.407799 -4.10379 0
M  V30 893 H 88.187 -0.180278 -0.639059 0
M  V30 894 H 90.717 -1.12972 -1.70583 0
M  V30 895 H 90.727 -0.447708 -4.05536 0
M  V30 896 H 89.402 -1.58103 -3.84677 0
M  V30 897 H 87.979 0.246107 -3.72087 0
M  V30 898 N 90.1641 1.46063 -0.591896 0
M  V30 899 C 91.0741 2.34192 0.13831 0
M  V30 900 C 92.0901 1.50305 0.876608 0
M  V30 901 O 93.2661 1.8315 0.837728 0
M  V30 902 C 90.3311 3.27656 1.13326 0
M  V30 903 C 89.3921 4.27445 0.39863 0
M  V30 904 C 88.6251 5.16443 1.34618 0
M  V30 905 O 88.8481 5.08553 2.58321 0
M  V30 906 O 87.7821 5.95843 0.851768 0
M  V30 907 H 91.6081 2.98002 -0.58552 0
M  V30 908 H 89.1931 1.45188 -0.352239 0
M  V30 909 H 91.0751 3.85291 1.70671 0
M  V30 910 H 89.7501 2.6643 1.83839 0
M  V30 911 H 88.6571 3.73471 -0.216895 0
M  V30 912 H 89.9901 4.91482 -0.265709 0
M  V30 913 N 91.6422 0.330177 1.54103 0
M  V30 914 C 92.5902 -0.548226 2.26047 0
M  V30 915 C 93.5842 -1.11309 1.27698 0
M  V30 916 O 94.7902 -1.06036 1.45452 0
M  V30 917 H 91.1652 -0.195456 0.726155 0
M  V30 918 H 93.1362 0.0807567 2.98291 0
M  V30 919 C 91.8852 -1.69415 3.03634 0
M  V30 920 H 91.2082 -1.26876 3.79134 0
M  V30 921 H 92.6482 -2.28423 3.5721 0
M  V30 922 C 91.1072 -2.61569 2.12328 0
M  V30 923 O 91.6372 -3.63462 1.7105 0
M  V30 924 N 89.8432 -2.29952 1.77681 0
M  V30 925 H 89.3902 -1.47134 2.11446 0
M  V30 926 H 89.3482 -2.91871 1.16869 0
M  V30 927 N 93.1203 -1.57491 0.0584922 0
M  V30 928 C 94.3453 -1.97711 -0.62652 0
M  V30 929 C 94.7703 -0.936132 -1.63151 0
M  V30 930 O 94.1283 0.099811 -1.81025 0
M  V30 931 C 94.1763 -3.36989 -1.28338 0
M  V30 932 O 93.2803 -3.35433 -2.39913 0
M  V30 933 H 92.6213 -0.643868 -0.162266 0
M  V30 934 H 95.1513 -2.04193 0.129064 0
M  V30 935 H 95.1613 -3.73879 -1.63335 0
M  V30 936 H 93.8363 -4.12289 -0.546889 0
M  V30 937 H 92.4133 -3.10298 -2.06809 0
M  V30 938 N 94.5984 0.214957 -1.56127 0
M  V30 939 C 95.5084 1.28727 -1.96129 0
M  V30 940 C 96.5244 1.50916 -0.866044 0
M  V30 941 O 97.7004 1.63918 -1.17016 0
M  V30 942 C 94.7654 2.61569 -2.27558 0
M  V30 943 C 93.8264 2.47625 -3.50685 0
M  V30 944 C 93.0594 3.74132 -3.80606 0
M  V30 945 O 93.2824 4.77438 -3.12104 0
M  V30 946 O 92.2164 3.70849 -4.74083 0
M  V30 947 H 96.0424 0.977855 -2.87527 0
M  V30 948 H 93.6274 0.418358 -1.43423 0
M  V30 949 H 95.5094 3.40012 -2.48938 0
M  V30 950 H 94.1844 2.92178 -1.39332 0
M  V30 951 H 93.0914 1.67361 -3.34576 0
M  V30 952 H 94.4244 2.21954 -4.39315 0
M  V30 953 N 96.0765 1.50051 0.48192 0
M  V30 954 C 97.3165 1.62128 1.24474 0
M  V30 955 C 97.6805 0.309742 1.89485 0
M  V30 956 O 98.8815 0.305854 2.67054 0
M  V30 957 C 97.1525 2.76151 2.26882 0
M  V30 958 S 98.7115 3.08297 3.12247 0
M  V30 959 H 95.5295 0.571661 0.422759 0
M  V30 960 H 98.1315 1.87791 0.54359 0
M  V30 961 H 96.8355 3.69942 1.77683 0
M  V30 962 H 96.3665 2.52541 3.0164 0
M  V30 963 H 98.3815 2.51287 4.27866 0
M  V30 964 N 97.5546 -0.734337 1.39446 0
M  V30 965 C 98.7796 -1.52866 1.40167 0
M  V30 966 C 99.2046 -1.881 -0.00171513 0
M  V30 967 O 98.5626 -1.51957 -0.988879 0
M  V30 968 C 98.6106 -2.79235 2.28167 0
M  V30 969 O 97.7146 -3.75185 1.71201 0
M  V30 970 H 97.0556 -0.461618 0.477289 0
M  V30 971 H 99.5856 -0.905949 1.8345 0
M  V30 972 H 99.5956 -3.27963 2.42702 0
M  V30 973 H 98.2706 -2.52923 3.30156 0
M  V30 974 H 96.8476 -3.33958 1.65912 0
M  V30 975 N 99.0327 -1.24633 -0.964593 0
M  V30 976 C 100.279 -1.08949 -1.71049 0
M  V30 977 C 100.612 0.370302 -1.90637 0
M  V30 978 O 99.8867 1.27349 -1.47011 0
M  V30 979 C 100.17 -1.83329 -3.0994 0
M  V30 980 C 100.023 -3.37077 -2.97824 0
M  V30 981 C 101.342 -1.60846 -4.09654 0
M  V30 982 H 98.4607 -0.397178 -0.620821 0
M  V30 983 H 101.103 -1.5334 -1.12191 0
M  V30 984 H 99.2527 -1.45597 -3.60186 0
M  V30 985 H 100.925 -3.84425 -2.5498 0
M  V30 986 H 99.1677 -3.65298 -2.33965 0
M  V30 987 H 99.8387 -3.84324 -3.96231 0
M  V30 988 H 102.315 -1.93674 -3.68279 0
M  V30 989 H 101.191 -2.1534 -5.04896 0
M  V30 990 H 101.452 -0.547434 -4.38698 0
M  V30 991 N 100.511 1.16574 -1.06058 0
M  V30 992 C 101.458 2.20883 -0.669263 0
M  V30 993 C 102.428 1.62729 0.332918 0
M  V30 994 O 103.613 1.895 0.222346 0
M  V30 995 C 100.753 3.45049 -0.0593572 0
M  V30 996 C 99.8658 4.17458 -1.11143 0
M  V30 997 C 99.0008 5.29135 -0.467916 0
M  V30 998 C 98.0398 5.93343 -1.50369 0
M  V30 999 N 97.1768 6.96516 -0.883706 0
M  V30 1000 H 102.017 2.53709 -1.5632 0
M  V30 1001 H 99.5538 1.24616 -0.781625 0
M  V30 1002 H 101.512 4.16033 0.311771 0
M  V30 1003 H 100.142 3.12781 0.797992 0
M  V30 1004 H 99.1938 3.45101 -1.60029 0
M  V30 1005 H 100.506 4.61307 -1.89731 0
M  V30 1006 H 99.6598 6.06684 -0.0436871 0
M  V30 1007 H 98.3988 4.86443 0.349864 0
M  V30 1008 H 97.4038 5.14517 -1.93784 0
M  V30 1009 H 98.6288 6.38114 -2.32352 0
M  V30 1010 H 96.5748 6.55943 -0.086595 0
M  V30 1011 H 96.4918 7.38723 -1.607 0
M  V30 1012 H 97.7598 7.77993 -0.484543 0
M  V30 1013 N 101.989 0.842826 1.3317 0
M  V30 1014 C 103.217 0.454055 2.01856 0
M  V30 1015 C 103.632 -0.94587 1.63397 0
M  V30 1016 O 102.989 -1.61534 0.849302 0
M  V30 1017 C 103.04 0.569715 3.56982 0
M  V30 1018 O 102.761 1.91448 3.94055 0
M  V30 1019 C 104.262 0.178412 4.42941 0
M  V30 1020 H 101.482 0.17979 0.646465 0
M  V30 1021 H 104.026 1.1365 1.70012 0
M  V30 1022 H 102.181 -0.0648587 3.87346 0
M  V30 1023 H 102.595 1.90282 4.88767 0
M  V30 1024 H 104.069 0.310376 5.51127 0
M  V30 1025 H 104.546 -0.880056 4.30293 0
M  V30 1026 H 105.152 0.787579 4.17944 0
M  V30 1027 N 103.467 -1.45747 0.599634 0
M  V30 1028 C 104.397 -2.33235 -0.111306 0
M  V30 1029 C 105.378 -1.46359 -0.866781 0
M  V30 1030 O 106.563 -1.75146 -0.838904 0
M  V30 1031 C 103.693 -3.28932 -1.11451 0
M  V30 1032 C 102.647 -4.25381 -0.472772 0
M  V30 1033 C 101.973 -5.1071 -1.58365 0
M  V30 1034 C 103.273 -5.18831 0.600948 0
M  V30 1035 H 104.967 -2.92927 0.61919 0
M  V30 1036 H 102.513 -1.40857 0.299215 0
M  V30 1037 H 104.466 -3.89002 -1.62036 0
M  V30 1038 H 103.19 -2.67381 -1.8755 0
M  V30 1039 H 101.849 -3.66598 0.0121472 0
M  V30 1040 H 101.497 -4.45533 -2.33473 0
M  V30 1041 H 101.197 -5.7604 -1.15982 0
M  V30 1042 H 102.721 -5.73647 -2.09194 0
M  V30 1043 H 104.135 -5.73019 0.179491 0
M  V30 1044 H 102.532 -5.92595 0.946076 0
M  V30 1045 H 103.602 -4.6174 1.48068 0
M  V30 1046 N 104.945 -0.338344 -1.53925 0
M  V30 1047 C 106.175 0.260919 -2.04946 0
M  V30 1048 C 106.583 1.45174 -1.2133 0
M  V30 1049 O 105.926 1.82122 -0.240262 0
M  V30 1050 C 105.988 0.744596 -3.51704 0
M  V30 1051 C 105.652 -0.325883 -4.55837 0
M  V30 1052 C 106.649 -1.16687 -5.06636 0
M  V30 1053 C 104.334 -0.478317 -5.00017 0
M  V30 1054 C 106.328 -2.14588 -6.00192 0
M  V30 1055 C 104.015 -1.46073 -5.93385 0
M  V30 1056 C 105.013 -2.29297 -6.4336 0
M  V30 1057 O 104.701 -3.25867 -7.34892 0
M  V30 1058 H 104.433 0.0551207 -0.673749 0
M  V30 1059 H 106.987 -0.486984 -1.99544 0
M  V30 1060 H 105.217 1.54366 -3.54553 0
M  V30 1061 H 106.906 1.26383 -3.85723 0
M  V30 1062 H 107.672 -1.06016 -4.73271 0
M  V30 1063 H 103.551 0.159613 -4.60724 0
M  V30 1064 H 107.095 -2.79585 -6.39123 0
M  V30 1065 H 102.992 -1.56802 -6.26166 0
M  V30 1066 H 103.76 -3.21278 -7.5281 0
M  V30 1067 N 106.423 1.57458 -0.0668435 0
M  V30 1068 C 107.671 1.92919 0.602214 0
M  V30 1069 C 107.992 0.947215 1.70449 0
M  V30 1070 O 107.262 -0.00544117 1.95899 0
M  V30 1071 H 105.842 0.71217 0.22544 0
M  V30 1072 H 108.504 1.94508 -0.123535 0
M  V30 1073 H 107.6 2.94589 1.03073 0
M  V30 1074 N 107.901 -0.206675 1.56239 0
M  V30 1075 C 109.15 -0.926964 1.79138 0
M  V30 1076 C 109.463 -1.84901 0.638043 0
M  V30 1077 O 110.669 -2.60906 0.751033 0
M  V30 1078 C 109.125 -1.6986 3.17294 0
M  V30 1079 C 108.733 -0.821956 4.40395 0
M  V30 1080 C 110.477 -2.40922 3.4951 0
M  V30 1081 C 108.384 -1.59179 5.69575 0
M  V30 1082 H 107.314 -0.349864 0.667915 0
M  V30 1083 H 109.965 -0.180487 1.8261 0
M  V30 1084 H 108.347 -2.48853 3.08039 0
M  V30 1085 H 109.521 -0.0715019 4.60745 0
M  V30 1086 H 107.836 -0.222741 4.15804 0
M  V30 1087 H 110.433 -2.99047 4.43255 0
M  V30 1088 H 110.776 -3.14542 2.72707 0
M  V30 1089 H 111.309 -1.68905 3.60161 0
M  V30 1090 H 108.048 -0.898589 6.49312 0
M  V30 1091 H 107.568 -2.31648 5.53262 0
M  V30 1092 H 109.247 -2.14862 6.10281 0
M  V30 1093 N 109.379 -1.50304 -0.473955 0
M  V30 1094 C 110.609 -1.64663 -1.24778 0
M  V30 1095 C 111.017 -0.328174 -1.86332 0
M  V30 1096 O 110.36 0.699536 -1.69859 0
M  V30 1097 C 110.422 -2.6778 -2.39863 0
M  V30 1098 C 110.086 -4.11413 -1.98969 0
M  V30 1099 C 111.083 -4.97372 -1.51385 0
M  V30 1100 C 108.768 -4.57312 -2.07777 0
M  V30 1101 C 110.762 -6.27277 -1.13148 0
M  V30 1102 C 108.449 -5.87223 -1.69152 0
M  V30 1103 C 109.447 -6.72031 -1.21915 0
M  V30 1104 O 109.135 -7.99518 -0.838237 0
M  V30 1105 H 108.867 -0.556602 -0.383627 0
M  V30 1106 H 111.421 -1.9726 -0.572491 0
M  V30 1107 H 109.651 -2.30419 -3.10554 0
M  V30 1108 H 111.34 -2.71388 -3.01833 0
M  V30 1109 H 112.106 -4.63128 -1.44004 0
M  V30 1110 H 107.985 -3.91449 -2.43493 0
M  V30 1111 H 111.529 -6.93425 -0.762077 0
M  V30 1112 H 107.426 -6.20989 -1.76191 0
M  V30 1113 H 108.194 -8.12764 -0.967339 0
M  V30 1114 N 110.857 0.726932 -1.39834 0
M  V30 1115 C 112.087 1.51393 -1.40583 0
M  V30 1116 C 112.495 1.892 -0.000740625 0
M  V30 1117 O 111.838 1.55189 0.982951 0
M  V30 1118 C 111.9 2.82588 -2.22226 0
M  V30 1119 C 111.564 2.67169 -3.70769 0
M  V30 1120 C 112.561 2.3518 -4.63666 0
M  V30 1121 C 110.246 2.83788 -4.14451 0
M  V30 1122 C 112.24 2.20002 -5.98229 0
M  V30 1123 C 109.927 2.68229 -5.49087 0
M  V30 1124 C 110.925 2.36382 -6.4079 0
M  V30 1125 O 110.613 2.2093 -7.72946 0
M  V30 1126 H 110.345 0.474168 -0.48181 0
M  V30 1127 H 112.899 0.905247 -1.84376 0
M  V30 1128 H 111.129 3.45746 -1.73195 0
M  V30 1129 H 112.818 3.44247 -2.15055 0
M  V30 1130 H 113.584 2.21984 -4.31217 0
M  V30 1131 H 109.463 3.07566 -3.43401 0
M  V30 1132 H 113.007 1.95067 -6.69772 0
M  V30 1133 H 108.904 2.81006 -5.81125 0
M  V30 1134 H 109.672 2.35937 -7.83757 0
M  V30 1135 N 112.336 1.25143 0.95797 0
M  V30 1136 C 113.283 1.05235 2.05412 0
M  V30 1137 C 114.253 -0.0374561 1.66058 0
M  V30 1138 O 115.438 0.119073 1.90428 0
M  V30 1139 C 112.578 0.673589 3.38462 0
M  V30 1140 C 111.691 1.8379 3.90954 0
M  V30 1141 C 110.826 1.40381 5.12315 0
M  V30 1142 C 109.865 2.53746 5.57027 0
M  V30 1143 N 109.002 2.11136 6.69601 0
M  V30 1144 H 113.842 1.99048 2.21774 0
M  V30 1145 H 111.379 0.991277 1.08683 0
M  V30 1146 H 113.337 0.434964 4.14926 0
M  V30 1147 H 111.967 -0.227554 3.21997 0
M  V30 1148 H 111.019 2.18992 3.11041 0
M  V30 1149 H 112.331 2.68937 4.20089 0
M  V30 1150 H 111.485 1.12464 5.96185 0
M  V30 1151 H 110.224 0.523015 4.84887 0
M  V30 1152 H 109.229 2.82412 4.71724 0
M  V30 1153 H 110.454 3.42398 5.86464 0
M  V30 1154 H 108.4 1.25468 6.4389 0
M  V30 1155 H 108.317 2.89832 6.98236 0
M  V30 1156 H 109.585 1.86385 7.56889 0
M  V30 1157 N 113.814 -1.1601 1.06675 0
M  V30 1158 C 115.054 -1.88304 0.795037 0
M  V30 1159 C 115.418 -1.80062 -0.666466 0
M  V30 1160 O 116.619 -2.47319 -1.05293 0
M  V30 1161 C 114.89 -3.33664 1.28076 0
M  V30 1162 S 116.449 -4.23768 1.13868 0
M  V30 1163 H 113.267 -0.649928 0.288296 0
M  V30 1164 H 115.869 -1.4001 1.36445 0
M  V30 1165 H 114.573 -3.37203 2.33927 0
M  V30 1166 H 114.104 -3.87009 0.706253 0
M  V30 1167 H 116.119 -4.96148 0.0719668 0
M  V30 1168 N 115.292 -0.849877 -1.32721 0
M  V30 1169 C 116.703 -0.506188 -1.79707 0
M  V30 1170 C 117.054 0.975627 -1.70223 0
M  V30 1171 O 116.179 1.76078 -1.25799 0
M  V30 1172 C 116.774 -0.912044 -3.26293 0
M  V30 1173 C 115.333 -0.620326 -3.71253 0
M  V30 1174 C 114.48 -1.11439 -2.53922 0
M  V30 1175 H 117.431 -1.03754 -1.20087 0
M  V30 1176 H 117.452 -0.226493 -3.79825 0
M  V30 1177 H 116.964 -1.99057 -3.33164 0
M  V30 1178 H 115.065 0.447674 -3.69901 0
M  V30 1179 H 115.178 -1.18327 -4.64258 0
M  V30 1180 H 113.542 -0.534834 -2.49021 0
M  V30 1181 H 114.325 -2.19992 -2.6355 0
M  V30 1182 N 116.77 1.45427 -0.607355 0
M  V30 1183 C 118.01 2.04128 -0.105458 0
M  V30 1184 C 118.374 1.46555 1.24039 0
M  V30 1185 O 119.575 1.96608 1.833 0
M  V30 1186 C 117.846 3.57338 -0.0665324 0
M  V30 1187 S 119.405 4.37201 0.374207 0
M  V30 1188 H 116.223 0.709278 -0.0494575 0
M  V30 1189 H 118.825 1.78139 -0.805404 0
M  V30 1190 H 117.529 3.96752 -1.04957 0
M  V30 1191 H 117.06 3.87902 0.655415 0
M  V30 1192 H 119.075 4.6888 1.62377 0
M  V30 1193 N 118.248 0.346503 1.53744 0
M  V30 1194 C 119.158 -0.517293 2.28826 0
M  V30 1195 C 120.174 -1.10935 1.3405 0
M  V30 1196 O 121.35 -1.1244 1.6709 0
M  V30 1197 C 118.415 -1.65098 3.04866 0
M  V30 1198 C 117.476 -1.0884 4.15274 0
M  V30 1199 C 116.709 -2.16806 4.87679 0
M  V30 1200 O 116.932 -3.3758 4.59778 0
M  V30 1201 O 115.866 -1.80934 5.74061 0
M  V30 1202 H 119.692 0.0931396 3.03557 0
M  V30 1203 H 117.277 0.111458 1.48984 0
M  V30 1204 H 119.159 -2.31053 3.5241 0
M  V30 1205 H 117.834 -2.24717 2.32989 0
M  V30 1206 H 116.741 -0.3933 3.72027 0
M  V30 1207 H 118.074 -0.537036 4.89261 0
M  V30 1208 N 119.726 -1.57421 0.075193 0
M  V30 1209 C 121.142 -1.57099 -0.281444 0
M  V30 1210 C 121.342 -1.08486 -1.69803 0
M  V30 1211 O 120.398 -0.752279 -2.41033 0
M  V30 1212 C 121.711 -3.00571 -0.0880041 0
M  V30 1213 C 123.259 -3.12605 -0.157281 0
M  V30 1214 C 123.734 -4.57999 0.0079207 0
M  V30 1215 N 125.225 -4.63176 -0.0475725 0
M  V30 1216 C 125.96 -5.73373 0.0557876 0
M  V30 1217 N 125.456 -6.92473 0.21286 0
M  V30 1218 N 127.249 -5.621 -0.00152098 0
M  V30 1219 H 119.4 -1.87335 1.00098 0
M  V30 1220 H 121.663 -0.86377 0.390646 0
M  V30 1221 H 121.369 -3.40262 0.889629 0
M  V30 1222 H 121.243 -3.67754 -0.838875 0
M  V30 1223 H 123.63 -2.72798 -1.1254 0
M  V30 1224 H 123.711 -2.48053 0.62475 0
M  V30 1225 H 123.355 -4.98496 0.972824 0
M  V30 1226 H 123.285 -5.20586 -0.793556 0
M  V30 1227 H 125.776 -3.7753 -0.167244 0
M  V30 1228 H 126.089 -7.72279 0.283781 0
M  V30 1229 H 124.434 -6.94556 0.248267 0
M  V30 1230 H 127.625 -4.67938 -0.122958 0
M  V30 1231 H 127.798 -6.47948 0.0824844 0
M  V30 1232 N 121.204 0.198386 -1.56346 0
M  V30 1233 C 122.452 0.91747 -1.80075 0
M  V30 1234 C 122.773 1.83929 -0.647692 0
M  V30 1235 O 122.043 1.93029 0.334166 0
M  V30 1236 H 120.623 0.341774 -0.664228 0
M  V30 1237 H 123.285 0.204684 -1.93822 0
M  V30 1238 H 122.381 1.51055 -2.7311 0
M  V30 1239 N 122.682 1.50554 0.465978 0
M  V30 1240 C 123.612 1.72722 1.57128 0
M  V30 1241 C 124.593 0.576294 1.6004 0
M  V30 1242 O 125.778 0.81598 1.76225 0
M  V30 1243 C 122.908 1.82605 2.95419 0
M  V30 1244 C 121.862 2.97835 3.07373 0
M  V30 1245 C 121.188 2.92867 4.47363 0
M  V30 1246 C 122.488 4.38265 2.84114 0
M  V30 1247 H 124.182 2.65267 1.38829 0
M  V30 1248 H 121.728 1.2765 0.666441 0
M  V30 1249 H 123.681 1.96698 3.72677 0
M  V30 1250 H 122.405 0.866858 3.14886 0
M  V30 1251 H 121.064 2.83401 2.3255 0
M  V30 1252 H 120.712 1.94783 4.63755 0
M  V30 1253 H 120.412 3.70227 4.56296 0
M  V30 1254 H 121.936 3.09015 5.26633 0
M  V30 1255 H 123.35 4.53198 3.51118 0
M  V30 1256 H 121.747 5.17115 3.04487 0
M  V30 1257 H 122.817 4.50281 1.7993 0
M  V30 1258 N 124.16 -0.719506 1.40217 0
M  V30 1259 C 125.388 -1.50864 1.41589 0
M  V30 1260 C 125.803 -1.88794 0.0145275 0
M  V30 1261 O 125.16 -1.55174 -0.960594 0
M  V30 1262 C 125.211 -2.78646 2.30302 0
M  V30 1263 O 124.932 -2.42321 3.64983 0
M  V30 1264 C 126.433 -3.72569 2.40224 0
M  V30 1265 H 123.653 -0.465709 0.48307 0
M  V30 1266 H 126.197 -0.88785 1.84221 0
M  V30 1267 H 124.352 -3.37019 1.91042 0
M  V30 1268 H 124.766 -3.24514 4.12057 0
M  V30 1269 H 126.24 -4.5908 3.06512 0
M  V30 1270 H 126.717 -4.15403 1.42608 0
M  V30 1271 H 127.323 -3.20109 2.80019 0
M  V30 1272 N 125.638 -1.25649 -0.95132 0
M  V30 1273 C 126.878 -1.11802 -1.71113 0
M  V30 1274 C 127.242 0.334758 -1.89059 0
M  V30 1275 O 128.443 0.595121 -2.62129 0
M  V30 1276 C 126.714 -1.85512 -3.05483 0
M  V30 1277 S 128.273 -1.87597 -3.96677 0
M  V30 1278 H 125.091 -0.399552 -0.588115 0
M  V30 1279 H 127.693 -1.59222 -1.1344 0
M  V30 1280 H 126.397 -2.90299 -2.90094 0
M  V30 1281 H 125.928 -1.38493 -3.68216 0
M  V30 1282 H 127.943 -0.955389 -4.86916 0
M  V30 1283 N 127.117 1.15442 -1.07289 0
M  V30 1284 C 128.027 2.23786 -0.704057 0
M  V30 1285 C 129.043 1.7166 0.284413 0
M  V30 1286 O 130.219 2.00972 0.131205 0
M  V30 1287 C 127.284 3.46535 -0.106792 0
M  V30 1288 C 126.345 4.13654 -1.14842 0
M  V30 1289 C 125.578 5.30544 -0.57956 0
M  V30 1290 O 125.801 5.67187 0.604585 0
M  V30 1291 O 124.735 5.87154 -1.32414 0
M  V30 1292 H 128.561 2.57664 -1.60757 0
M  V30 1293 H 126.146 1.23152 -0.845803 0
M  V30 1294 H 128.028 4.20804 0.224048 0
M  V30 1295 H 126.703 3.14407 0.770049 0
M  V30 1296 H 125.61 3.4131 -1.5316 0
M  V30 1297 H 126.943 4.49861 -1.99714 0
M  V30 1298 N 128.595 0.856903 1.32268 0
M  V30 1299 C 129.843 0.460474 1.96784 0
M  V30 1300 C 130.164 -0.987701 1.68135 0
M  V30 1301 O 129.434 -1.69058 0.989765 0
M  V30 1302 H 128.014 0.167289 0.728027 0
M  V30 1303 H 130.676 1.09383 1.61312 0
M  V30 1304 H 129.772 0.60739 3.06133 0
M  V30 1305 N 130.073 -1.45103 0.615059 0
M  V30 1306 C 131.35 -1.95549 0.0448276 0
M  V30 1307 C 131.73 -1.55737 -1.4251 0
M  V30 1308 O 131.078 -0.823556 -2.13143 0
M  V30 1309 C 131.288 -3.48098 0.250785 0
M  V30 1310 C 132.636 -4.24384 0.135509 0
M  V30 1311 O 133.66 -3.55738 0.181299 0
M  V30 1312 O 132.519 -5.46493 0.0268878 0
M  V30 1313 H 129.613 -0.8264 -0.0314845 0
M  V30 1314 H 132.159 -1.55232 0.685642 0
M  V30 1315 H 130.931 -3.7007 1.27139 0
M  V30 1316 H 130.554 -3.95323 -0.424937 0
M  V30 1317 N 131.551 -0.354651 -1.53558 0
M  V30 1318 C 132.498 0.496968 -2.25386 0
M  V30 1319 C 133.468 1.0865 -1.25636 0
M  V30 1320 O 134.653 1.12104 -1.54394 0
M  V30 1321 C 131.793 1.63637 -3.03837 0
M  V30 1322 C 130.906 1.07307 -4.18461 0
M  V30 1323 C 130.041 2.18068 -4.84376 0
M  V30 1324 C 129.08 1.59147 -5.91049 0
M  V30 1325 N 128.217 2.63695 -6.50699 0
M  V30 1326 H 133.057 -0.122075 -2.9775 0
M  V30 1327 H 130.594 -0.0720154 -1.46924 0
M  V30 1328 H 132.552 2.30734 -3.47589 0
M  V30 1329 H 131.182 2.22623 -2.33749 0
M  V30 1330 H 130.234 0.292708 -3.79272 0
M  V30 1331 H 131.546 0.602193 -4.95152 0
M  V30 1332 H 130.7 2.93007 -5.31255 0
M  V30 1333 H 129.439 2.68504 -4.07133 0
M  V30 1334 H 128.444 0.827175 -5.43542 0
M  V30 1335 H 129.669 1.09549 -6.70206 0
M  V30 1336 H 127.615 3.13365 -5.76315 0
M  V30 1337 H 127.532 2.21263 -7.22896 0
M  V30 1338 H 128.8 3.3837 -7.02229 0
M  V30 1339 N 133.029 1.57378 -0.0835403 0
M  V30 1340 C 134.257 1.98263 0.59157 0
M  V30 1341 C 134.672 0.962302 1.62435 0
M  V30 1342 O 134.029 -0.049581 1.82433 0
M  V30 1343 C 134.08 3.39214 1.24965 0
M  V30 1344 O 133.801 4.37339 0.258186 0
M  V30 1345 C 135.302 3.95038 2.01147 0
M  V30 1346 H 132.522 0.651773 0.159477 0
M  V30 1347 H 135.066 2.03878 -0.159415 0
M  V30 1348 H 133.221 3.34649 1.95164 0
M  V30 1349 H 133.635 5.19371 0.731734 0
M  V30 1350 H 135.109 4.95848 2.42567 0
M  V30 1351 H 135.586 3.32222 2.87272 0
M  V30 1352 H 136.192 4.0304 1.35789 0
M  V30 1353 N 134.507 -0.190092 1.56449 0
M  V30 1354 C 135.756 -0.907912 1.80111 0
M  V30 1355 C 136.069 -1.84214 0.657619 0
M  V30 1356 O 137.275 -2.60094 0.778663 0
M  V30 1357 C 135.731 -1.66485 3.19078 0
M  V30 1358 C 135.339 -0.7752 4.41242 0
M  V30 1359 C 137.083 -2.37201 3.52045 0
M  V30 1360 C 134.99 -1.53129 5.71231 0
M  V30 1361 H 133.92 -0.34276 0.671589 0
M  V30 1362 H 136.571 -0.161109 1.82791 0
M  V30 1363 H 134.953 -2.45572 3.10661 0
M  V30 1364 H 136.127 -0.0226298 4.60794 0
M  V30 1365 H 134.442 -0.178627 4.16017 0
M  V30 1366 H 137.039 -2.94329 4.46402 0
M  V30 1367 H 137.382 -3.11632 2.76028 0
M  V30 1368 H 137.915 -1.65075 3.61932 0
M  V30 1369 H 134.654 -0.82967 6.50228 0
M  V30 1370 H 134.174 -2.25767 5.55688 0
M  V30 1371 H 135.853 -2.08377 6.12526 0
M  V30 1372 N 135.985 -1.50799 -0.457987 0
M  V30 1373 C 137.231 -1.62683 -1.21088 0
M  V30 1374 C 137.564 -0.332268 -1.91336 0
M  V30 1375 O 136.839 0.667043 -1.82704 0
M  V30 1376 C 137.122 -2.81615 -2.24422 0
M  V30 1377 C 136.975 -4.20989 -1.58392 0
M  V30 1378 C 138.294 -2.96085 -3.2561 0
M  V30 1379 H 135.413 -0.592087 -0.438864 0
M  V30 1380 H 138.055 -1.83225 -0.50286 0
M  V30 1381 H 136.205 -2.64231 -2.84806 0
M  V30 1382 H 137.877 -4.49994 -1.01504 0
M  V30 1383 H 136.12 -4.24641 -0.886704 0
M  V30 1384 H 136.791 -5.0016 -2.33547 0
M  V30 1385 H 139.267 -3.12042 -2.75262 0
M  V30 1386 H 138.143 -3.80902 -3.95228 0
M  V30 1387 H 138.404 -2.0726 -3.90507 0
M  V30 1388 N 137.463 0.71206 -1.40597 0
M  V30 1389 C 138.711 1.46907 -1.38791 0
M  V30 1390 C 139.032 1.94998 0.00780391 0
M  V30 1391 O 138.302 1.70587 0.963174 0
M  V30 1392 H 136.882 0.545043 -0.51082 0
M  V30 1393 H 139.544 0.843882 -1.75683 0
M  V30 1394 H 138.64 2.34021 -2.06496 0
M  V30 1395 N 138.941 1.26152 0.944643 0
M  V30 1396 C 140.166 1.14363 1.7302 0
M  V30 1397 C 140.591 -0.29772 1.85729 0
M  V30 1398 O 139.949 -1.2157 1.34501 0
M  V30 1399 C 139.997 1.81378 3.11664 0
M  V30 1400 O 139.101 1.10022 3.97453 0
M  V30 1401 H 138.442 0.398694 0.53098 0
M  V30 1402 H 140.972 1.66906 1.18337 0
M  V30 1403 H 140.982 1.88064 3.62072 0
M  V30 1404 H 139.657 2.86237 3.0173 0
M  V30 1405 H 138.234 1.11287 3.55907 0
M  V30 1406 N 140.419 -1.14872 1.07899 0
M  V30 1407 C 141.668 -1.85135 0.800499 0
M  V30 1408 C 141.981 -1.83547 -0.676014 0
M  V30 1409 O 143.187 -2.49548 -1.06948 0
M  V30 1410 C 141.643 -3.3231 1.38197 0
M  V30 1411 C 141.251 -3.42329 2.8899 0
M  V30 1412 C 142.995 -4.0772 1.18174 0
M  V30 1413 C 140.902 -4.83684 3.403 0
M  V30 1414 H 139.832 -0.693563 0.29578 0
M  V30 1415 H 142.483 -1.29532 1.29976 0
M  V30 1416 H 140.865 -3.87618 0.810431 0
M  V30 1417 H 142.039 -2.97097 3.52236 0
M  V30 1418 H 140.354 -2.80369 3.07867 0
M  V30 1419 H 142.951 -5.12049 1.5398 0
M  V30 1420 H 143.294 -4.16124 0.12117 0
M  V30 1421 H 143.827 -3.58696 1.71994 0
M  V30 1422 H 140.566 -4.80465 4.45907 0
M  V30 1423 H 140.086 -5.29474 2.81811 0
M  V30 1424 H 141.765 -5.52558 3.36584 0
M  V30 1425 N 141.898 -0.863906 -1.31812 0
M  V30 1426 C 143.126 -0.486111 -2.01108 0
M  V30 1427 C 143.541 0.919755 -1.64882 0
M  V30 1428 O 142.898 1.60162 -0.874893 0
M  V30 1429 C 142.949 -0.626435 -3.56031 0
M  V30 1430 O 142.67 -1.97693 -3.90959 0
M  V30 1431 C 144.171 -0.248857 -4.42601 0
M  V30 1432 H 141.391 -0.190052 -0.643523 0
M  V30 1433 H 143.935 -1.1634 -1.68182 0
M  V30 1434 H 142.09 0.00322717 -3.874 0
M  V30 1435 H 142.504 -1.98034 -4.85678 0
M  V30 1436 H 143.978 -0.398016 -5.50563 0
M  V30 1437 H 144.455 0.811489 -4.31638 0
M  V30 1438 H 145.061 -0.853971 -4.16638 0
M  V30 1439 N 143.376 1.44774 -0.622745 0
M  V30 1440 C 144.324 2.32387 0.0994683 0
M  V30 1441 C 145.318 1.46859 0.844326 0
M  V30 1442 O 146.524 1.63254 0.758174 0
M  V30 1443 H 142.899 0.750273 0.0509291 0
M  V30 1444 H 144.87 2.91062 -0.65767 0
M  V30 1445 C 143.619 3.30723 1.07319 0
M  V30 1446 H 142.942 3.96541 0.509462 0
M  V30 1447 H 144.382 3.94725 1.54817 0
M  V30 1448 C 142.841 2.59021 2.15429 0
M  V30 1449 O 143.371 2.38286 3.23393 0
M  V30 1450 N 141.577 2.189 1.91131 0
M  V30 1451 H 141.124 2.35964 1.03337 0
M  V30 1452 H 141.082 1.71251 2.63668 0
M  V30 1453 N 144.854 0.36279 1.53368 0
M  V30 1454 C 146.082 -0.228613 2.05633 0
M  V30 1455 C 146.497 -1.42676 1.23649 0
M  V30 1456 O 145.854 -1.80394 0.27647 0
M  V30 1457 C 145.905 -0.624845 3.56059 0
M  V30 1458 O 145.626 0.525675 4.34935 0
M  V30 1459 C 147.127 -1.27493 4.24571 0
M  V30 1460 H 144.347 -0.0407183 0.669763 0
M  V30 1461 H 146.891 0.520352 1.97769 0
M  V30 1462 H 145.046 -1.32373 3.64083 0
M  V30 1463 H 145.46 0.205969 5.24095 0
M  V30 1464 H 146.934 -1.50277 5.31151 0
M  V30 1465 H 147.411 -2.23439 3.78116 0
M  V30 1466 H 148.017 -0.617558 4.20792 0
M  V30 1467 N 146.332 -1.57332 0.0918853 0
M  V30 1468 C 147.28 -2.15075 -0.885747 0
M  V30 1469 C 148.274 -1.09277 -1.29441 0
M  V30 1470 O 149.48 -1.27627 -1.26931 0
M  V30 1471 H 145.855 -0.687966 -0.303656 0
M  V30 1472 H 147.826 -2.96047 -0.373995 0
M  V30 1473 C 146.575 -2.74325 -2.13638 0
M  V30 1474 H 145.898 -3.55418 -1.8308 0
M  V30 1475 H 147.338 -3.183 -2.80109 0
M  V30 1476 C 145.797 -1.70062 -2.90827 0
M  V30 1477 O 146.327 -1.13763 -3.85254 0
M  V30 1478 N 144.533 -1.40628 -2.54307 0
M  V30 1479 H 144.08 -1.866 -1.7759 0
M  V30 1480 H 144.038 -0.711043 -3.06254 0
M  V30 1481 N 147.81 0.181792 -1.56548 0
M  V30 1482 C 149.057 0.900097 -1.81396 0
M  V30 1483 C 149.385 1.82695 -0.667281 0
M  V30 1484 O 148.64 1.92614 0.346146 0
M  V30 1485 C 148.939 1.73728 -3.12335 0
M  V30 1486 C 148.605 0.960255 -4.40556 0
M  V30 1487 C 147.267 0.745766 -4.75386 0
M  V30 1488 C 149.619 0.414477 -5.19549 0
M  V30 1489 C 146.947 -0.0257694 -5.86694 0
M  V30 1490 C 149.299 -0.343916 -6.31664 0
M  V30 1491 C 147.963 -0.569301 -6.65068 0
M  V30 1492 H 147.233 0.329369 -0.663775 0
M  V30 1493 H 149.88 0.165647 -1.90782 0
M  V30 1494 H 148.185 2.54081 -2.98245 0
M  V30 1495 H 149.882 2.29591 -3.28769 0
M  V30 1496 H 146.472 1.13746 -4.13231 0
M  V30 1497 H 150.656 0.567554 -4.93044 0
M  V30 1498 H 145.912 -0.210233 -6.11038 0
M  V30 1499 H 150.086 -0.774133 -6.92084 0
M  V30 1500 H 147.713 -1.16903 -7.51158 0
M  V30 1501 N 149.288 1.51039 0.449983 0
M  V30 1502 C 150.536 1.62759 1.19808 0
M  V30 1503 C 150.857 0.339981 1.92013 0
M  V30 1504 O 150.127 -0.643606 1.85026 0
M  V30 1505 H 148.707 0.599811 0.445237 0
M  V30 1506 H 151.369 1.87914 0.517138 0
M  V30 1507 H 150.465 2.44911 1.93455 0
M  V30 1508 N 150.766 -0.704594 1.40972 0
M  V30 1509 C 152.015 -1.46018 1.39146 0
M  V30 1510 C 152.328 -1.956 0.000589254 0
M  V30 1511 O 153.534 -2.71137 -0.1403 0
M  V30 1512 C 151.99 -2.63996 2.4461 0
M  V30 1513 C 151.598 -2.21238 3.89561 0
M  V30 1514 C 153.342 -3.41677 2.51907 0
M  V30 1515 C 151.249 -3.3612 4.86598 0
M  V30 1516 H 150.179 -0.548444 0.517422 0
M  V30 1517 H 152.83 -0.765784 1.66757 0
M  V30 1518 H 151.212 -3.3566 2.10115 0
M  V30 1519 H 152.386 -1.56923 4.33257 0
M  V30 1520 H 150.701 -1.56574 3.85841 0
M  V30 1521 H 153.298 -4.27182 3.2159 0
M  V30 1522 H 153.641 -3.86247 1.55303 0
M  V30 1523 H 154.174 -2.77064 2.85448 0
M  V30 1524 H 150.913 -2.96572 5.84573 0
M  V30 1525 H 150.433 -3.99315 4.47557 0
M  V30 1526 H 152.112 -4.02029 5.06934 0
M  V30 1527 N 152.244 -1.26651 -0.937939 0
M  V30 1528 C 153.484 -1.13611 -1.69917 0
M  V30 1529 C 153.848 0.314687 -1.89404 0
M  V30 1530 O 155.049 0.567285 -2.62746 0
M  V30 1531 C 153.32 -1.88742 -3.03498 0
M  V30 1532 S 154.879 -1.91794 -3.94665 0
M  V30 1533 H 151.697 -0.405767 -0.583844 0
M  V30 1534 H 154.299 -1.60416 -1.11745 0
M  V30 1535 H 153.003 -2.9336 -2.86999 0
M  V30 1536 H 152.534 -1.42391 -3.66727 0
M  V30 1537 H 154.549 -1.00698 -4.85875 0
M  V30 1538 N 153.722 1.14298 -1.08507 0
M  V30 1539 C 154.672 2.17449 -0.685569 0
M  V30 1540 C 155.656 1.58167 0.295315 0
M  V30 1541 O 156.848 1.76675 0.107172 0
M  V30 1542 C 153.977 3.43161 -0.0975318 0
M  V30 1543 C 153.063 4.09471 -1.10426 0
M  V30 1544 N 153.454 4.51089 -2.28806 0
M  V30 1545 C 151.752 4.35976 -0.940258 0
M  V30 1546 C 152.453 5.02654 -2.9277 0
M  V30 1547 N 151.429 4.96927 -2.20374 0
M  V30 1548 H 155.231 2.47369 -1.587 0
M  V30 1549 H 152.745 1.30992 -0.959936 0
M  V30 1550 H 154.742 4.16388 0.20664 0
M  V30 1551 H 153.402 3.14719 0.798872 0
M  V30 1552 H 154.413 4.44097 -2.66455 0
M  V30 1553 H 151.09 4.17386 -0.0977441 0
M  V30 1554 H 152.48 5.44723 -3.93352 0
M  V30 1555 N 155.201 0.870884 1.31352 0
M  V30 1556 C 156.478 0.402907 1.91405 0
M  V30 1557 C 156.858 -1.11512 1.79244 0
M  V30 1558 O 156.206 -1.94411 1.2007 0
M  V30 1559 C 156.416 0.885301 3.37585 0
M  V30 1560 C 157.764 0.911971 4.14691 0
M  V30 1561 O 158.788 0.831016 3.46371 0
M  V30 1562 O 157.647 1.02927 5.3672 0
M  V30 1563 H 154.741 0.120698 0.818145 0
M  V30 1564 H 157.287 0.958857 1.40014 0
M  V30 1565 H 156.059 1.92889 3.40455 0
M  V30 1566 H 155.682 0.307714 3.96407 0
M  V30 1567 N 156.679 -1.44442 0.630414 0
M  V30 1568 C 157.642 -2.29107 -0.0652523 0
M  V30 1569 C 158.642 -1.41002 -0.772995 0
M  V30 1570 O 159.832 -1.62881 -0.617692 0
M  V30 1571 C 156.964 -3.22564 -1.10296 0
M  V30 1572 H 158.157 -2.92103 0.679401 0
M  V30 1573 H 155.71 -1.51343 0.390517 0
M  V30 1574 H 156.445 -2.64416 -1.87762 0
M  V30 1575 H 156.23 -3.87491 -0.59941 0
M  V30 1576 H 157.72 -3.86167 -1.5895 0
M  V30 1577 N 158.157 -0.370918 -1.53173 0
M  V30 1578 C 159.405 0.216673 -2.00935 0
M  V30 1579 C 159.726 1.48845 -1.25977 0
M  V30 1580 O 158.996 1.92286 -0.374551 0
M  V30 1581 H 157.576 0.0830565 -0.742368 0
M  V30 1582 H 160.238 -0.49838 -1.8842 0
M  V30 1583 H 159.334 0.439893 -3.08984 0
M  V30 1584 N 159.635 1.57281 -0.100228 0
M  V30 1585 C 161.051 1.57527 0.256416 0
M  V30 1586 C 161.251 1.11173 1.68056 0
M  V30 1587 O 160.307 0.79053 2.39806 0
M  V30 1588 C 161.62 3.00673 0.0401747 0
M  V30 1589 C 163.168 3.12815 0.107528 0
M  V30 1590 C 163.643 4.57929 -0.0807834 0
M  V30 1591 N 165.134 4.63193 -0.0261207 0
M  V30 1592 C 165.869 5.73212 -0.146999 0
M  V30 1593 N 165.365 6.92047 -0.322999 0
M  V30 1594 N 167.158 5.62031 -0.0879044 0
M  V30 1595 H 159.309 1.85718 -1.03065 0
M  V30 1596 H 161.572 0.857446 -0.404339 0
M  V30 1597 H 161.278 3.38804 -0.943649 0
M  V30 1598 H 161.152 3.69042 0.780262 0
M  V30 1599 H 163.539 2.74554 1.08186 0
M  V30 1600 H 163.62 2.47028 -0.664134 0
M  V30 1601 H 163.264 4.96886 -1.05201 0
M  V30 1602 H 163.194 5.21783 0.710635 0
M  V30 1603 H 165.685 3.77748 0.107161 0
M  V30 1604 H 165.998 7.7173 -0.406608 0
M  V30 1605 H 164.343 6.94074 -0.358733 0
M  V30 1606 H 167.534 4.68075 0.048498 0
M  V30 1607 H 167.707 6.47734 -0.185557 0
M  V30 1608 N 161.113 -0.173488 1.56642 0
M  V30 1609 C 162.338 -0.910149 1.86363 0
M  V30 1610 C 162.763 -1.75132 0.686318 0
M  V30 1611 O 162.121 -1.77595 -0.364643 0
M  V30 1612 C 162.169 -1.76447 3.14482 0
M  V30 1613 O 161.273 -2.86584 2.96553 0
M  V30 1614 H 160.614 -0.255086 0.613047 0
M  V30 1615 H 163.144 -0.172283 2.03873 0
M  V30 1616 H 163.154 -2.16483 3.45831 0
M  V30 1617 H 161.829 -1.14658 3.99783 0
M  V30 1618 H 160.406 -2.50146 2.76553 0
M  V30 1619 N 162.591 -1.51276 -0.441967 0
M  V30 1620 C 163.538 -1.72256 -1.53612 0
M  V30 1621 C 164.508 -0.564164 -1.56225 0
M  V30 1622 O 165.693 -0.798074 -1.73307 0
M  V30 1623 C 162.833 -1.84932 -2.91366 0
M  V30 1624 C 161.946 -3.12459 -2.98317 0
M  V30 1625 C 161.081 -3.15758 -4.27166 0
M  V30 1626 C 160.12 -4.37619 -4.27967 0
M  V30 1627 N 159.257 -4.38493 -5.48333 0
M  V30 1628 H 164.097 -2.65654 -1.35026 0
M  V30 1629 H 161.634 -1.31662 -0.656009 0
M  V30 1630 H 163.592 -1.90263 -3.7129 0
M  V30 1631 H 162.222 -0.949461 -3.08521 0
M  V30 1632 H 161.274 -3.1646 -2.11086 0
M  V30 1633 H 162.586 -4.02382 -2.94771 0
M  V30 1634 H 161.74 -3.19979 -5.15459 0
M  V30 1635 H 160.479 -2.23715 -4.33362 0
M  V30 1636 H 159.484 -4.33579 -3.38067 0
M  V30 1637 H 160.709 -5.30921 -4.23438 0
M  V30 1638 H 158.655 -3.49318 -5.55259 0
M  V30 1639 H 158.572 -5.22219 -5.46647 0
M  V30 1640 H 159.84 -4.469 -6.38671 0
M  V30 1641 N 164.069 0.697108 -1.41344 0
M  V30 1642 C 165.001 1.8224 -1.39001 0
M  V30 1643 C 166.014 1.60152 -0.292428 0
M  V30 1644 O 167.203 1.69684 -0.554048 0
M  V30 1645 C 164.303 3.18976 -1.14489 0
M  V30 1646 C 163.476 3.68105 -2.36258 0
M  V30 1647 C 162.535 4.83506 -2.07625 0
M  V30 1648 O 161.561 4.95201 -2.8065 0
M  V30 1649 N 162.763 5.70637 -1.06555 0
M  V30 1650 H 165.528 1.84742 -2.35988 0
M  V30 1651 H 163.089 0.87937 -1.35936 0
M  V30 1652 H 165.081 3.93801 -0.932885 0
M  V30 1653 H 163.651 3.11508 -0.261043 0
M  V30 1654 H 162.871 2.84204 -2.7317 0
M  V30 1655 H 164.159 3.97667 -3.17393 0
M  V30 1656 H 163.557 5.63817 -0.461125 0
M  V30 1657 H 162.114 6.45368 -0.913444 0
M  V30 1658 O 165.586 1.37986 0.839172 0
M  V30 1659 H 166.277 1.24844 1.481 0
M  V30 END ATOM
M  V30 BEGIN BOND
M  V30 END BOND
M  V30 END CTAB
M  END
$$$$
