drugbank_target|Q81EW9 Nitroreductase family protein (DB03247)
 OpenBabel12092120273D

  0  0  0     0  0            999 V3000
M  V30 BEGIN CTAB
M  V30 COUNTS 3184 3223 0 0 0
M  V30 BEGIN ATOM
M  V30 1 H -0.908 1.98254 -0.117106 0
M  V30 2 N 0 1.576 0 0
M  V30 3 C 0.933 2.03868 1.02534 0
M  V30 4 C 1.911 0.928543 1.3348 0
M  V30 5 O 3.095 1.19667 1.45644 0
M  V30 6 C 0.222 2.43627 2.35294 0
M  V30 7 C -0.732 3.65373 2.2001 0
M  V30 8 S 0.101 5.13292 1.52614 0
M  V30 9 C 1.257 5.56322 2.86805 0
M  V30 10 H 1.49 2.90518 0.631377 0
M  V30 11 H -0.977 1.52953 0.210867 0
M  V30 12 H 0.981 2.67203 3.11629 0
M  V30 13 H -0.358 1.57376 2.7183 0
M  V30 14 H -1.165 3.90944 3.18086 0
M  V30 15 H -1.563 3.418 1.51819 0
M  V30 16 H 0.729 5.58782 3.83104 0
M  V30 17 H 1.672 6.56266 2.65933 0
M  V30 18 H 2.08 4.83886 2.90714 0
M  V30 19 N 1.4781 -0.272755 1.55222 0
M  V30 20 C 2.7031 -1.02683 1.80197 0
M  V30 21 C 3.1281 -1.79142 0.573551 0
M  V30 22 O 2.4861 -1.74917 -0.476849 0
M  V30 23 C 2.5341 -1.9609 3.02624 0
M  V30 24 O 1.6381 -3.04863 2.77727 0
M  V30 25 H 0.9791 -0.293557 0.595584 0
M  V30 26 H 3.5091 -0.30159 2.02365 0
M  V30 27 H 3.5191 -2.38039 3.31363 0
M  V30 28 H 2.1941 -1.39851 3.91682 0
M  V30 29 H 0.7711 -2.67228 2.60084 0
M  V30 30 N 2.9562 -1.48159 -0.537278 0
M  V30 31 C 3.9192 -1.61665 -1.62472 0
M  V30 32 C 4.9192 -0.490395 -1.5314 0
M  V30 33 O 6.1092 -0.755998 -1.5694 0
M  V30 34 C 3.2412 -1.57997 -3.02076 0
M  V30 35 H 4.4342 -2.58621 -1.51839 0
M  V30 36 H 1.9872 -1.36647 -0.758771 0
M  V30 37 H 2.7222 -0.624913 -3.18222 0
M  V30 38 H 2.5072 -2.39755 -3.10258 0
M  V30 39 H 3.9972 -1.70627 -3.81151 0
M  V30 40 N 4.4343 0.785586 -1.36625 0
M  V30 41 C 5.6623 1.57448 -1.3423 0
M  V30 42 C 6.0773 1.88649 0.0755653 0
M  V30 43 O 5.4343 1.50414 1.03354 0
M  V30 44 C 5.4853 2.89316 -2.16745 0
M  V30 45 O 5.2063 2.59459 -3.53005 0
M  V30 46 C 6.7073 3.83606 -2.22174 0
M  V30 47 H 3.9273 0.488226 -0.4603 0
M  V30 48 H 6.4713 0.974733 -1.79775 0
M  V30 49 H 4.6263 3.4575 -1.74745 0
M  V30 50 H 5.0403 3.43804 -3.96105 0
M  V30 51 H 6.5143 4.73181 -2.8426 0
M  V30 52 H 6.9913 4.21734 -1.22627 0
M  V30 53 H 7.5973 3.33104 -2.64427 0
M  V30 54 N 5.9124 1.20967 1.01018 0
M  V30 55 C 7.1404 1.04956 1.78303 0
M  V30 56 C 7.5554 -0.400915 1.84494 0
M  V30 57 O 6.9124 -1.27826 1.30257 0
M  V30 58 C 6.9634 1.63403 3.22462 0
M  V30 59 O 6.6844 3.02775 3.16637 0
M  V30 60 C 8.1854 1.52432 4.16268 0
M  V30 61 H 5.4054 0.368858 0.560522 0
M  V30 62 H 7.9494 1.60193 1.27116 0
M  V30 63 H 6.1044 1.1227 3.70775 0
M  V30 64 H 6.5184 3.30626 4.07169 0
M  V30 65 H 7.9924 1.98078 5.15237 0
M  V30 66 H 8.4694 0.477875 4.36592 0
M  V30 67 H 9.0754 2.02787 3.73841 0
M  V30 68 N 7.3905 -1.2043 1.01659 0
M  V30 69 C 8.6185 -1.93777 0.725132 0
M  V30 70 C 9.0335 -1.74772 -0.714166 0
M  V30 71 O 8.3905 -1.06169 -1.4844 0
M  V30 72 C 8.4415 -3.45876 1.05129 0
M  V30 73 O 8.1625 -3.6426 2.43406 0
M  V30 74 C 9.6635 -4.36368 0.780891 0
M  V30 75 H 6.8835 -0.615901 0.266284 0
M  V30 76 H 9.4275 -1.52922 1.35776 0
M  V30 77 H 7.5825 -3.8461 0.464065 0
M  V30 78 H 7.9965 -4.58246 2.55169 0
M  V30 79 H 9.4705 -5.41743 1.05918 0
M  V30 80 H 9.9475 -4.38275 -0.284937 0
M  V30 81 H 10.5535 -4.03296 1.35027 0
M  V30 82 N 8.8686 -0.792821 -1.36206 0
M  V30 83 C 9.8166 -0.181555 -2.3189 0
M  V30 84 C 10.8106 0.661025 -1.55971 0
M  V30 85 O 12.0166 0.555728 -1.71206 0
M  V30 86 H 8.3916 -0.0399382 -0.750939 0
M  V30 87 H 10.3626 -1.00394 -2.81005 0
M  V30 88 C 9.1116 0.666444 -3.41253 0
M  V30 89 H 8.4346 0.0274489 -3.99791 0
M  V30 90 H 9.8746 1.06076 -4.10517 0
M  V30 91 C 8.3336 1.82614 -2.83114 0
M  V30 92 O 8.8636 2.9229 -2.75553 0
M  V30 93 N 7.0696 1.63333 -2.40356 0
M  V30 94 H 6.6166 0.741217 -2.46706 0
M  V30 95 H 6.5746 2.41087 -2.01803 0
M  V30 96 N 10.3467 1.47872 -0.545128 0
M  V30 97 C 11.2767 2.32661 0.197793 0
M  V30 98 C 12.2577 1.43041 0.920504 0
M  V30 99 O 13.4427 1.71912 0.90333 0
M  V30 100 C 10.5727 3.24569 1.23582 0
M  V30 101 C 9.5267 4.23333 0.630323 0
M  V30 102 C 8.8527 5.0448 1.77211 0
M  V30 103 C 10.1527 5.20704 -0.407974 0
M  V30 104 H 11.8467 2.95024 -0.510045 0
M  V30 105 H 9.3927 1.4187 -0.246731 0
M  V30 106 H 11.3457 3.8272 1.76362 0
M  V30 107 H 10.0697 2.60236 1.97344 0
M  V30 108 H 8.7287 3.6639 0.123922 0
M  V30 109 H 8.3767 4.36561 2.49847 0
M  V30 110 H 8.0767 5.71339 1.37281 0
M  V30 111 H 9.6007 5.65487 2.3034 0
M  V30 112 H 11.0147 5.7329 0.033305 0
M  V30 113 H 9.4117 5.95699 -0.725486 0
M  V30 114 H 10.4817 4.66917 -1.30828 0
M  V30 115 N 11.8248 0.280983 1.55075 0
M  V30 116 C 12.7718 -0.603937 2.22758 0
M  V30 117 C 13.7418 -1.1452 1.20309 0
M  V30 118 O 14.9268 -1.19343 1.48869 0
M  V30 119 C 12.0668 -1.77947 2.95684 0
M  V30 120 C 11.1798 -1.2715 4.12864 0
M  V30 121 C 10.3148 -2.4093 4.7342 0
M  V30 122 C 9.3538 -1.87165 5.82783 0
M  V30 123 N 8.4908 -2.94441 6.37377 0
M  V30 124 H 13.3308 -0.020124 2.97993 0
M  V30 125 H 10.8678 0.00183425 1.471 0
M  V30 126 H 12.8258 -2.47055 3.36184 0
M  V30 127 H 11.4558 -2.33522 2.22861 0
M  V30 128 H 10.5078 -0.473331 3.77444 0
M  V30 129 H 11.8198 -0.837751 4.91715 0
M  V30 130 H 10.9738 -3.18021 5.1667 0
M  V30 131 H 9.7128 -2.87623 3.93859 0
M  V30 132 H 8.7178 -1.08556 5.38976 0
M  V30 133 H 9.9428 -1.41401 6.64216 0
M  V30 134 H 7.8888 -3.40505 5.60707 0
M  V30 135 H 7.8058 -2.55501 7.11516 0
M  V30 136 H 9.0738 -3.71489 6.85285 0
M  V30 137 N 13.3029 -1.57598 0.00835791 0
M  V30 138 C 14.2129 -2.12385 -0.996487 0
M  V30 139 C 15.2289 -1.07108 -1.37127 0
M  V30 140 O 16.4049 -1.39055 -1.4569 0
M  V30 141 C 13.4699 -2.62314 -2.26699 0
M  V30 142 C 12.5309 -3.82225 -1.95456 0
M  V30 143 C 11.7639 -4.29763 -3.16449 0
M  V30 144 O 11.9869 -3.76584 -4.28416 0
M  V30 145 O 10.9209 -5.21832 -2.99958 0
M  V30 146 H 14.7469 -2.98479 -0.560725 0
M  V30 147 H 12.3319 -1.47903 -0.210987 0
M  V30 148 H 14.2139 -2.94589 -3.01322 0
M  V30 149 H 12.8889 -1.79313 -2.69497 0
M  V30 150 H 11.7959 -3.54909 -1.18282 0
M  V30 151 H 13.1289 -4.66324 -1.57489 0
M  V30 152 N 14.781 0.264519 -1.55364 0
M  V30 153 C 15.744 1.31046 -1.88042 0
M  V30 154 C 16.744 1.41943 -0.755569 0
M  V30 155 O 17.934 1.40947 -1.02369 0
M  V30 156 C 15.066 2.69067 -2.09323 0
M  V30 157 H 16.259 1.03297 -2.81549 0
M  V30 158 H 13.812 0.502989 -1.47986 0
M  V30 159 H 14.547 3.01982 -1.18226 0
M  V30 160 H 14.332 2.62542 -2.91229 0
M  V30 161 H 15.822 3.44623 -2.35848 0
M  V30 162 N 16.2591 1.48442 0.529413 0
M  V30 163 C 17.5081 1.55742 1.28169 0
M  V30 164 C 17.8211 0.236511 1.94165 0
M  V30 165 O 19.0271 0.187761 2.7085 0
M  V30 166 C 17.4831 2.74667 2.32564 0
M  V30 167 C 17.0911 4.13402 1.72636 0
M  V30 168 C 18.8351 2.9128 3.08798 0
M  V30 169 C 16.7421 5.23587 2.74975 0
M  V30 170 H 15.6721 0.579796 0.48203 0
M  V30 171 H 18.3231 1.74776 0.559056 0
M  V30 172 H 16.7051 2.49067 3.07866 0
M  V30 173 H 17.8791 4.49022 1.03519 0
M  V30 174 H 16.1941 4.0191 1.08892 0
M  V30 175 H 18.7911 3.70767 3.85274 0
M  V30 176 H 19.1341 2.00757 3.64695 0
M  V30 177 H 19.6671 3.16782 2.40611 0
M  V30 178 H 16.4061 6.16076 2.23897 0
M  V30 179 H 15.9261 4.92454 3.42417 0
M  V30 180 H 17.6051 5.51724 3.37949 0
M  V30 181 N 17.7372 -0.778329 1.37039 0
M  V30 182 C 18.9832 -1.53892 1.32079 0
M  V30 183 C 19.3162 -1.9396 -0.0965386 0
M  V30 184 O 18.5912 -1.63568 -1.05242 0
M  V30 185 C 18.8742 -2.80847 2.25382 0
M  V30 186 C 18.7272 -2.47076 3.75864 0
M  V30 187 C 20.0462 -3.82741 2.1725 0
M  V30 188 H 17.1652 -0.558303 0.48111 0
M  V30 189 H 19.8072 -0.893397 1.67685 0
M  V30 190 H 17.9572 -3.35931 1.95148 0
M  V30 191 H 19.6292 -1.97957 4.16666 0
M  V30 192 H 17.8722 -1.79863 3.94755 0
M  V30 193 H 18.5432 -3.37798 4.36574 0
M  V30 194 H 21.0192 -3.37133 2.43887 0
M  V30 195 H 19.8952 -4.69303 2.84686 0
M  V30 196 H 20.1562 -4.2652 1.16331 0
M  V30 197 N 19.2153 -1.21501 -1.00376 0
M  V30 198 C 20.1633 -0.972442 -2.11297 0
M  V30 199 C 21.1573 0.080731 -1.69208 0
M  V30 200 O 22.3633 -0.0707666 -1.79861 0
M  V30 201 H 18.7383 -0.297218 -0.690772 0
M  V30 202 H 20.7093 -1.91394 -2.28934 0
M  V30 203 C 19.4583 -0.555065 -3.43241 0
M  V30 204 H 18.7813 -1.35709 -3.76062 0
M  V30 205 H 20.2213 -0.424664 -4.21868 0
M  V30 206 C 18.6803 0.734147 -3.28804 0
M  V30 207 O 19.2103 1.78937 -3.59645 0
M  V30 208 N 17.4163 0.701133 -2.82015 0
M  V30 209 H 16.9633 -0.157874 -2.57116 0
M  V30 210 H 16.9213 1.56403 -2.72737 0
M  V30 211 N 20.6934 1.19889 -1.02296 0
M  V30 212 C 22.1094 1.41462 -0.738954 0
M  V30 213 C 22.3094 1.89721 0.678846 0
M  V30 214 O 21.3654 2.07016 1.4457 0
M  V30 215 C 22.6784 2.43083 -1.77005 0
M  V30 216 C 24.2264 2.5684 -1.78892 0
M  V30 217 C 24.7014 3.61709 -2.80945 0
M  V30 218 N 26.1924 3.69199 -2.79725 0
M  V30 219 C 26.9274 4.50019 -3.55345 0
M  V30 220 N 26.4234 5.34592 -4.40662 0
M  V30 221 N 28.2164 4.44612 -3.43914 0
M  V30 222 H 20.3674 0.868827 -1.93817 0
M  V30 223 H 22.6304 0.44399 -0.837602 0
M  V30 224 H 22.3364 2.14636 -2.78612 0
M  V30 225 H 22.2104 3.4217 -1.58744 0
M  V30 226 H 24.5974 2.84614 -0.779674 0
M  V30 227 H 24.6784 1.57927 -2.01228 0
M  V30 228 H 24.3224 3.34678 -3.82038 0
M  V30 229 H 24.2524 4.60259 -2.5587 0
M  V30 230 H 26.7434 3.08794 -2.17842 0
M  V30 231 H 27.0564 5.93363 -4.95116 0
M  V30 232 H 25.4014 5.34073 -4.44737 0
M  V30 233 H 28.5924 3.7758 -2.76679 0
M  V30 234 H 28.7654 5.0736 -4.031 0
M  V30 235 N 22.1715 0.800033 1.35784 0
M  V30 236 C 23.5875 0.482977 1.52117 0
M  V30 237 C 23.7875 -0.996948 1.75109 0
M  V30 238 O 22.8435 -1.78216 1.78872 0
M  V30 239 C 24.1565 1.32264 2.70049 0
M  V30 240 C 25.7045 1.31742 2.83924 0
M  V30 241 C 26.1795 2.14106 4.04874 0
M  V30 242 N 27.6705 2.11607 4.12039 0
M  V30 243 C 28.4055 2.72099 5.04727 0
M  V30 244 N 27.9015 3.41492 6.02789 0
M  V30 245 N 29.6945 2.61776 4.97423 0
M  V30 246 H 21.8455 1.75856 1.19115 0
M  V30 247 H 24.1085 0.748122 0.582252 0
M  V30 248 H 23.8145 2.37261 2.59616 0
M  V30 249 H 23.6885 0.971303 3.6448 0
M  V30 250 H 26.0755 0.275333 2.93813 0
M  V30 251 H 26.1565 1.70859 1.9037 0
M  V30 252 H 25.8005 3.18351 3.95746 0
M  V30 253 H 25.7305 1.72353 4.97596 0
M  V30 254 H 28.2215 1.61112 3.41835 0
M  V30 255 H 28.5345 3.84953 6.70098 0
M  V30 256 H 26.8795 3.45596 6.02983 0
M  V30 257 H 30.0705 2.07157 4.19766 0
M  V30 258 H 30.2435 3.0921 5.69468 0
M  V30 259 N 23.6496 -1.47581 0.552962 0
M  V30 260 C 24.8746 -2.07378 0.0300593 0
M  V30 261 C 25.2996 -1.40355 -1.25229 0
M  V30 262 O 24.6576 -0.477099 -1.7491 0
M  V30 263 C 24.7056 -3.60274 -0.153231 0
M  V30 264 O 23.8096 -3.94041 -1.21678 0
M  V30 265 H 23.1506 -0.662158 0.0494182 0
M  V30 266 H 25.6806 -1.89662 0.767434 0
M  V30 267 H 25.6906 -4.0633 -0.368761 0
M  V30 268 H 24.3656 -4.08455 0.783397 0
M  V30 269 H 22.9426 -3.59735 -0.982079 0
M  V30 270 N 25.1277 -0.289203 -1.54924 0
M  V30 271 C 26.3767 0.324231 -1.99077 0
M  V30 272 C 26.6897 1.5591 -1.18117 0
M  V30 273 O 27.8957 2.24637 -1.52481 0
M  V30 274 C 26.3517 0.628209 -3.54375 0
M  V30 275 C 25.9597 -0.587647 -4.44129 0
M  V30 276 C 27.7037 1.20349 -4.07083 0
M  V30 277 C 25.6107 -0.257475 -5.90839 0
M  V30 278 H 24.5407 0.124924 -0.743579 0
M  V30 279 H 27.1917 -0.396063 -1.79175 0
M  V30 280 H 25.5737 1.40778 -3.70132 0
M  V30 281 H 26.7477 -1.36418 -4.40144 0
M  V30 282 H 25.0627 -1.08074 -4.0213 0
M  V30 283 H 27.6597 1.46456 -5.14252 0
M  V30 284 H 28.0027 2.14195 -3.56968 0
M  V30 285 H 28.5357 0.485889 -3.94821 0
M  V30 286 H 25.2747 -1.16419 -6.45079 0
M  V30 287 H 24.7947 0.482018 -5.9786 0
M  V30 288 H 26.4737 0.145238 -6.46837 0
M  V30 289 N 26.6058 1.57591 -0.0167156 0
M  V30 290 C 28.0218 1.55946 0.339557 0
M  V30 291 C 28.2218 1.02109 1.73713 0
M  V30 292 O 27.2778 0.662303 2.43659 0
M  V30 293 C 28.5908 3.00037 0.199499 0
M  V30 294 C 30.1388 3.11805 0.273193 0
M  V30 295 C 30.6138 4.57713 0.162068 0
M  V30 296 N 32.1048 4.6268 0.219444 0
M  V30 297 C 32.8398 5.73185 0.157054 0
M  V30 298 N 32.3358 6.92786 0.0442936 0
M  V30 299 N 34.1288 5.61707 0.21014 0
M  V30 300 H 26.2798 1.90921 -0.930758 0
M  V30 301 H 28.5428 0.877674 -0.358319 0
M  V30 302 H 28.2488 3.4333 -0.76273 0
M  V30 303 H 28.1228 3.64387 0.974786 0
M  V30 304 H 30.5098 2.68433 1.22587 0
M  V30 305 H 30.5908 2.50201 -0.532256 0
M  V30 306 H 30.2348 5.01763 -0.78714 0
M  V30 307 H 30.1648 5.17283 0.986222 0
M  V30 308 H 32.6558 3.76649 0.307246 0
M  V30 309 H 32.9688 7.728 0.00304069 0
M  V30 310 H 31.3138 6.94999 0.00968457 0
M  V30 311 H 34.5048 4.6716 0.296546 0
M  V30 312 H 34.6778 6.47807 0.158054 0
M  V30 313 N 28.0839 -0.256276 1.55502 0
M  V30 314 C 29.0309 -1.31714 1.89526 0
M  V30 315 C 30.0009 -1.4828 0.748479 0
M  V30 316 O 31.1859 -1.62416 1.00128 0
M  V30 317 C 28.3259 -2.66933 2.18725 0
M  V30 318 C 27.4389 -2.58452 3.4616 0
M  V30 319 C 26.5739 -3.85961 3.64976 0
M  V30 320 C 25.6129 -3.72059 4.86044 0
M  V30 321 N 24.7499 -4.9144 5.01429 0
M  V30 322 H 29.5899 -1.01998 2.80001 0
M  V30 323 H 27.1269 -0.492413 1.38613 0
M  V30 324 H 29.0849 -3.4563 2.33657 0
M  V30 325 H 27.7149 -2.94816 1.31466 0
M  V30 326 H 26.7669 -1.71374 3.3961 0
M  V30 327 H 28.0789 -2.44085 4.34999 0
M  V30 328 H 27.2329 -4.73101 3.79816 0
M  V30 329 H 25.9719 -4.03215 2.74353 0
M  V30 330 H 24.9769 -2.83302 4.7119 0
M  V30 331 H 26.2019 -3.56309 5.78118 0
M  V30 332 H 24.1479 -5.09072 4.13741 0
M  V30 333 H 24.0649 -4.79668 5.84341 0
M  V30 334 H 25.3329 -5.80104 5.20672 0
M  V30 335 N 29.562 -1.4872 -0.521534 0
M  V30 336 C 30.808 -1.574 -1.27879 0
M  V30 337 C 31.141 -0.250817 -1.92573 0
M  V30 338 O 30.416 0.743934 -1.79711 0
M  V30 339 C 30.699 -2.71843 -2.36164 0
M  V30 340 C 30.552 -4.13893 -1.76105 0
M  V30 341 C 31.871 -2.82008 -3.37875 0
M  V30 342 H 28.99 -0.572941 -0.463581 0
M  V30 343 H 31.632 -1.80927 -0.580119 0
M  V30 344 H 29.782 -2.51914 -2.95756 0
M  V30 345 H 31.454 -4.45284 -1.20499 0
M  V30 346 H 29.697 -4.20498 -1.06601 0
M  V30 347 H 30.368 -4.89804 -2.5455 0
M  V30 348 H 32.844 -3.00086 -2.88249 0
M  V30 349 H 31.72 -3.63796 -4.11028 0
M  V30 350 H 31.981 -1.90511 -3.98946 0
M  V30 351 N 31.0401 0.771051 -1.3745 0
M  V30 352 C 32.2681 1.56015 -1.35893 0
M  V30 353 C 32.6831 1.88718 0.0555523 0
M  V30 354 O 32.0401 1.51502 1.01752 0
M  V30 355 C 32.0911 2.87001 -2.19801 0
M  V30 356 O 31.8121 2.557 -3.55738 0
M  V30 357 C 33.3131 3.81228 -2.26231 0
M  V30 358 H 30.5331 0.483317 -0.465453 0
M  V30 359 H 33.0771 0.955611 -1.80799 0
M  V30 360 H 31.2321 3.43877 -1.78402 0
M  V30 361 H 31.6461 3.39584 -3.99729 0
M  V30 362 H 33.1201 4.70139 -2.89263 0
M  V30 363 H 33.5971 4.20409 -1.27093 0
M  V30 364 H 34.2031 3.30281 -2.67945 0
M  V30 365 N 32.5182 1.22032 0.997298 0
M  V30 366 C 33.4652 0.986467 2.08656 0
M  V30 367 C 34.4352 -0.0902671 1.65855 0
M  V30 368 O 35.6202 0.0584294 1.90711 0
M  V30 369 C 32.7602 0.565569 3.40434 0
M  V30 370 C 31.8732 1.71259 3.96604 0
M  V30 371 C 31.0082 1.24011 5.16522 0
M  V30 372 C 30.0472 2.35896 5.64818 0
M  V30 373 N 29.1842 1.89726 6.7598 0
M  V30 374 H 34.0242 1.91892 2.27994 0
M  V30 375 H 31.5612 0.956199 1.11782 0
M  V30 376 H 33.5192 0.302738 4.161 0
M  V30 377 H 32.1492 -0.329879 3.2111 0
M  V30 378 H 31.2012 2.08986 3.17851 0
M  V30 379 H 32.5132 2.55436 4.28432 0
M  V30 380 H 31.6672 0.934395 5.99461 0
M  V30 381 H 30.4062 0.368487 4.86306 0
M  V30 382 H 29.4112 2.67261 4.8047 0
M  V30 383 H 30.6362 3.23567 5.97061 0
M  V30 384 H 28.5822 1.0492 6.47555 0
M  V30 385 H 28.4992 2.67471 7.07103 0
M  V30 386 H 29.7672 1.62211 7.62435 0
M  V30 387 N 33.9963 -1.19345 1.0293 0
M  V30 388 C 34.9443 -2.24621 0.604001 0
M  V30 389 C 35.9383 -1.65452 -0.363587 0
M  V30 390 O 37.1443 -1.78497 -0.23212 0
M  V30 391 H 33.5193 -0.730858 0.177061 0
M  V30 392 H 35.4903 -2.5781 1.50255 0
M  V30 393 C 34.2393 -3.47688 -0.0289127 0
M  V30 394 H 33.5623 -3.93505 0.706651 0
M  V30 395 H 35.0023 -4.23011 -0.289432 0
M  V30 396 C 33.4613 -3.11817 -1.2756 0
M  V30 397 O 33.9913 -3.2451 -2.36762 0
M  V30 398 N 32.1973 -2.66246 -1.16453 0
M  V30 399 H 31.7443 -2.56118 -0.275914 0
M  V30 400 H 31.7023 -2.42617 -1.99961 0
M  V30 401 N 35.4744 -0.807222 -1.35358 0
M  V30 402 C 36.7514 -0.311126 -1.9311 0
M  V30 403 C 37.1314 1.19937 -1.73719 0
M  V30 404 O 36.4794 1.99918 -1.10657 0
M  V30 405 C 36.6894 -0.723226 -3.41424 0
M  V30 406 C 38.0374 -0.713078 -4.18569 0
M  V30 407 O 39.0614 -0.664811 -3.49941 0
M  V30 408 O 37.9204 -0.772022 -5.41019 0
M  V30 409 H 35.0144 -0.081526 -0.822972 0
M  V30 410 H 37.5604 -0.890962 -1.4443 0
M  V30 411 H 36.3324 -1.76426 -3.4927 0
M  V30 412 H 35.9554 -0.118232 -3.97424 0
M  V30 413 N 36.9525 1.47285 -0.560781 0
M  V30 414 C 37.9155 2.28535 0.174488 0
M  V30 415 C 38.9155 1.37153 0.839388 0
M  V30 416 O 40.1055 1.59748 0.694702 0
M  V30 417 C 37.2375 3.16934 1.25561 0
M  V30 418 H 38.4305 2.95012 -0.539262 0
M  V30 419 H 35.9835 1.53034 -0.317865 0
M  V30 420 H 36.7185 2.55157 2.00164 0
M  V30 421 H 36.5035 3.8419 0.783604 0
M  V30 422 H 37.9935 3.78143 1.77193 0
M  V30 423 N 38.4306 0.297415 1.54768 0
M  V30 424 C 39.6796 -0.313669 1.99246 0
M  V30 425 C 39.9926 -1.55281 1.18942 0
M  V30 426 O 41.1986 -2.23825 1.5367 0
M  V30 427 C 39.6546 -0.609407 3.54703 0
M  V30 428 C 39.2626 0.611192 4.43811 0
M  V30 429 C 41.0066 -1.18188 4.07715 0
M  V30 430 C 38.9136 0.288805 5.90694 0
M  V30 431 H 37.8436 -0.120979 0.744231 0
M  V30 432 H 40.4946 0.40556 1.78962 0
M  V30 433 H 38.8766 -1.38813 3.70873 0
M  V30 434 H 40.0506 1.3875 4.39414 0
M  V30 435 H 38.3656 1.10205 4.01552 0
M  V30 436 H 40.9626 -1.43727 5.15021 0
M  V30 437 H 41.3056 -2.12299 3.58099 0
M  V30 438 H 41.8386 -0.464944 3.95074 0
M  V30 439 H 38.5776 1.19838 6.44453 0
M  V30 440 H 38.0976 -0.450305 5.98107 0
M  V30 441 H 39.7766 -0.110933 6.46905 0
M  V30 442 N 39.9087 -1.5758 0.0250728 0
M  V30 443 C 41.1367 -1.9593 -0.664747 0
M  V30 444 C 41.5517 -0.901352 -1.65895 0
M  V30 445 O 40.9087 0.117255 -1.82123 0
M  V30 446 C 40.9597 -3.34342 -1.37468 0
M  V30 447 O 40.6807 -4.36079 -0.420324 0
M  V30 448 C 42.1817 -3.873 -2.1567 0
M  V30 449 H 39.4017 -0.645405 -0.183557 0
M  V30 450 H 41.9457 -2.04329 0.0836372 0
M  V30 451 H 40.1007 -3.27175 -2.0745 0
M  V30 452 H 40.5147 -5.16297 -0.923991 0
M  V30 453 H 41.9887 -4.86504 -2.60803 0
M  V30 454 H 42.4657 -3.21331 -2.99405 0
M  V30 455 H 43.0717 -3.97723 -1.50654 0
M  V30 456 N 41.3868 0.248026 -1.55636 0
M  V30 457 C 42.3338 1.30707 -1.90222 0
M  V30 458 C 43.3038 1.47881 -0.756332 0
M  V30 459 O 44.4888 1.61883 -1.00988 0
M  V30 460 C 41.6288 2.65769 -2.20138 0
M  V30 461 C 40.7418 2.56612 -3.47526 0
M  V30 462 C 39.8768 3.8402 -3.67017 0
M  V30 463 C 38.9158 3.69476 -4.8801 0
M  V30 464 N 38.0528 4.88774 -5.04029 0
M  V30 465 H 42.8928 1.00512 -2.80538 0
M  V30 466 H 40.4298 0.485055 -1.38873 0
M  V30 467 H 42.3878 3.44386 -2.35487 0
M  V30 468 H 41.0178 2.94115 -1.33027 0
M  V30 469 H 40.0698 1.69571 -3.40514 0
M  V30 470 H 41.3818 2.41774 -4.36287 0
M  V30 471 H 40.5358 4.7108 -3.8232 0
M  V30 472 H 39.2748 4.01754 -2.76487 0
M  V30 473 H 38.2798 2.80799 -4.72686 0
M  V30 474 H 39.5048 3.53238 -5.8 0
M  V30 475 H 37.4508 5.0687 -4.16435 0
M  V30 476 H 37.3678 4.76562 -5.86877 0
M  V30 477 H 38.6358 5.77335 -5.23741 0
M  V30 478 N 42.8649 1.48995 0.513639 0
M  V30 479 C 43.7749 1.67443 1.64317 0
M  V30 480 C 44.7909 0.556947 1.64846 0
M  V30 481 O 45.9669 0.830082 1.83498 0
M  V30 482 C 43.0319 1.72515 3.00732 0
M  V30 483 C 42.0929 2.96009 3.1093 0
M  V30 484 C 41.3259 3.00829 4.40837 0
M  V30 485 O 41.5489 2.13594 5.28898 0
M  V30 486 O 40.4829 3.93168 4.55744 0
M  V30 487 H 44.3089 2.63106 1.51687 0
M  V30 488 H 41.8939 1.32588 0.688543 0
M  V30 489 H 43.7759 1.78277 3.81831 0
M  V30 490 H 42.4509 0.800278 3.13651 0
M  V30 491 H 41.3579 2.9577 2.29065 0
M  V30 492 H 42.6909 3.87934 3.02933 0
M  V30 493 N 44.343 -0.763751 1.37857 0
M  V30 494 C 45.759 -1.06542 1.18832 0
M  V30 495 C 45.959 -2.01478 0.0299722 0
M  V30 496 O 45.015 -2.4458 -0.627447 0
M  V30 497 C 46.328 -1.65525 2.51042 0
M  V30 498 C 47.876 -1.77745 2.57635 0
M  V30 499 C 48.351 -2.4014 3.89996 0
M  V30 500 N 49.842 -2.47582 3.91481 0
M  V30 501 C 50.577 -2.96732 4.9065 0
M  V30 502 N 50.073 -3.45993 6.00217 0
M  V30 503 N 51.866 -2.95679 4.78048 0
M  V30 504 H 44.017 -0.133556 2.1198 0
M  V30 505 H 46.28 -0.121879 0.940133 0
M  V30 506 H 45.986 -1.03236 3.36207 0
M  V30 507 H 45.86 -2.64719 2.68707 0
M  V30 508 H 48.247 -2.39164 1.72872 0
M  V30 509 H 48.328 -0.772836 2.43846 0
M  V30 510 H 47.972 -1.79358 4.75177 0
M  V30 511 H 47.902 -3.41223 4.01092 0
M  V30 512 H 50.393 -2.1273 3.12337 0
M  V30 513 H 50.706 -3.81922 6.7183 0
M  V30 514 H 49.051 -3.44077 6.03851 0
M  V30 515 H 52.242 -2.56499 3.91568 0
M  V30 516 H 52.415 -3.33672 5.55488 0
M  V30 517 N 45.8211 -1.22559 -0.990812 0
M  V30 518 C 47.0701 -1.04553 -1.72486 0
M  V30 519 C 47.3831 0.419349 -1.91052 0
M  V30 520 O 48.5891 0.719121 -2.61803 0
M  V30 521 C 47.0451 -1.82231 -3.10355 0
M  V30 522 C 46.6531 -3.32981 -2.99713 0
M  V30 523 C 48.3971 -1.7268 -3.87791 0
M  V30 524 C 46.3041 -4.03091 -4.32748 0
M  V30 525 H 45.2341 -0.387614 -0.646739 0
M  V30 526 H 47.8851 -1.46429 -1.10593 0
M  V30 527 H 46.2671 -1.33155 -3.72942 0
M  V30 528 H 47.4411 -3.89466 -2.46278 0
M  V30 529 H 45.7561 -3.43231 -2.35758 0
M  V30 530 H 48.3531 -2.22381 -4.86262 0
M  V30 531 H 48.6961 -0.687607 -4.10582 0
M  V30 532 H 49.2291 -2.1931 -3.31885 0
M  V30 533 H 45.9681 -5.07273 -4.15156 0
M  V30 534 H 45.4881 -3.51394 -4.86089 0
M  V30 535 H 47.1671 -4.08804 -5.01486 0
M  V30 536 N 47.2992 1.18797 -1.03562 0
M  V30 537 C 48.2092 2.25913 -0.632505 0
M  V30 538 C 49.2252 1.70668 0.338882 0
M  V30 539 O 50.4012 2.00453 0.195076 0
M  V30 540 C 47.4662 3.467 0.00350942 0
M  V30 541 C 46.5272 4.17098 -1.01624 0
M  V30 542 C 45.7602 5.32119 -0.410478 0
M  V30 543 O 45.9832 5.64976 0.784725 0
M  V30 544 O 44.9172 5.9107 -1.13667 0
M  V30 545 H 48.7432 2.62648 -1.52478 0
M  V30 546 H 46.3282 1.25781 -0.806195 0
M  V30 547 H 48.2102 4.19878 0.35781 0
M  V30 548 H 46.8852 3.11798 0.869686 0
M  V30 549 H 45.7922 3.4601 -1.42224 0
M  V30 550 H 47.1252 4.55987 -1.85301 0
M  V30 551 N 48.7773 0.814389 1.34928 0
M  V30 552 C 49.6873 0.231978 2.3345 0
M  V30 553 C 50.7033 -0.629139 1.62228 0
M  V30 554 O 51.8793 -0.539052 1.94052 0
M  V30 555 C 48.9443 -0.603482 3.41407 0
M  V30 556 C 48.0053 0.279037 4.28392 0
M  V30 557 C 47.2383 -0.516643 5.31193 0
M  V30 558 O 47.4613 -1.75068 5.4287 0
M  V30 559 O 46.3953 0.0965652 6.01823 0
M  V30 560 H 50.2213 1.04721 2.85074 0
M  V30 561 H 47.8063 0.576343 1.37836 0
M  V30 562 H 49.6883 -1.07908 4.0735 0
M  V30 563 H 48.3633 -1.39618 2.92042 0
M  V30 564 H 47.2703 0.801948 3.65403 0
M  V30 565 H 48.6033 1.03588 4.81176 0
M  V30 566 N 50.2554 -1.46986 0.568584 0
M  V30 567 C 51.5014 -2.02741 0.0488709 0
M  V30 568 C 51.8344 -1.44077 -1.30214 0
M  V30 569 O 51.1094 -0.600552 -1.84996 0
M  V30 570 C 51.3924 -3.60086 -0.032047 0
M  V30 571 C 51.2454 -4.29162 1.34686 0
M  V30 572 C 52.5644 -4.33838 -0.739798 0
M  V30 573 H 49.6834 -0.736749 0.0192338 0
M  V30 574 H 52.3254 -1.75289 0.733065 0
M  V30 575 H 50.4754 -3.83606 -0.61473 0
M  V30 576 H 52.1474 -4.16948 1.97362 0
M  V30 577 H 50.3904 -3.89073 1.91846 0
M  V30 578 H 51.0614 -5.37826 1.24285 0
M  V30 579 H 53.5374 -4.15378 -0.244939 0
M  V30 580 H 52.4134 -5.43537 -0.765406 0
M  V30 581 H 52.6744 -4.03875 -1.79827 0
M  V30 582 N 51.7335 -0.305618 -1.54608 0
M  V30 583 C 52.6635 0.561482 -2.26649 0
M  V30 584 C 53.6445 1.13415 -1.26772 0
M  V30 585 O 54.8295 1.16262 -1.55553 0
M  V30 586 C 51.9595 1.73122 -3.01075 0
M  V30 587 C 50.9135 1.2887 -4.08138 0
M  V30 588 C 50.2395 2.54396 -4.70305 0
M  V30 589 C 51.5395 0.416578 -5.20636 0
M  V30 590 H 53.2335 -0.0393902 -2.99374 0
M  V30 591 H 50.7795 -0.020385 -1.43986 0
M  V30 592 H 52.7325 2.34396 -3.50195 0
M  V30 593 H 51.4565 2.3584 -2.25936 0
M  V30 594 H 50.1155 0.698991 -3.59875 0
M  V30 595 H 49.7635 3.15439 -3.918 0
M  V30 596 H 49.4635 2.25486 -5.42614 0
M  V30 597 H 50.9875 3.16464 -5.2219 0
M  V30 598 H 52.4015 0.935116 -5.65622 0
M  V30 599 H 50.7985 0.221046 -5.99693 0
M  V30 600 H 51.8685 -0.557162 -4.81688 0
M  V30 601 N 53.2116 1.57565 -0.0334293 0
M  V30 602 C 54.1586 2.10478 0.946981 0
M  V30 603 C 55.1286 1.00787 1.32027 0
M  V30 604 O 56.3136 1.28232 1.41284 0
M  V30 605 C 53.4536 2.63994 2.22263 0
M  V30 606 C 52.5666 3.87709 1.90541 0
M  V30 607 C 51.7016 4.29604 3.12433 0
M  V30 608 C 50.7406 5.46065 2.76549 0
M  V30 609 N 49.8776 5.83096 3.9108 0
M  V30 610 H 54.7176 2.93963 0.488846 0
M  V30 611 H 52.2546 1.45296 0.22969 0
M  V30 612 H 54.2126 2.93114 2.96884 0
M  V30 613 H 52.8426 1.83333 2.65685 0
M  V30 614 H 51.8946 3.65291 1.06144 0
M  V30 615 H 53.2066 4.72403 1.60116 0
M  V30 616 H 52.3606 4.60182 3.9537 0
M  V30 617 H 51.0996 3.43685 3.46023 0
M  V30 618 H 50.1046 5.15176 1.92026 0
M  V30 619 H 51.3296 6.33685 2.44171 0
M  V30 620 H 49.2756 5.00132 4.24504 0
M  V30 621 H 49.1926 6.6244 3.64293 0
M  V30 622 H 50.4606 6.18282 4.74708 0
M  V30 623 N 54.6897 -0.239769 1.55765 0
M  V30 624 C 55.9177 -0.98417 1.81994 0
M  V30 625 C 56.3327 -1.7867 0.610124 0
M  V30 626 O 55.6897 -1.77571 -0.421271 0
M  V30 627 C 55.7407 -1.91635 3.06526 0
M  V30 628 O 55.4617 -1.14629 4.22838 0
M  V30 629 C 56.9627 -2.77616 3.45607 0
M  V30 630 H 54.1827 -0.28928 0.605441 0
M  V30 631 H 56.7267 -0.260499 2.02834 0
M  V30 632 H 54.8817 -2.5942 2.87715 0
M  V30 633 H 55.2957 -1.77745 4.93464 0
M  V30 634 H 56.7697 -3.38759 4.35828 0
M  V30 635 H 57.2467 -3.4909 2.6652 0
M  V30 636 H 57.8527 -2.15271 3.66795 0
M  V30 637 N 56.1678 -1.49265 -0.50573 0
M  V30 638 C 57.1308 -1.65075 -1.59006 0
M  V30 639 C 58.1308 -0.522768 -1.52065 0
M  V30 640 O 59.3208 -0.789117 -1.55302 0
M  V30 641 C 56.4528 -1.64369 -2.98656 0
M  V30 642 H 57.6458 -2.61784 -1.46319 0
M  V30 643 H 55.1988 -1.38226 -0.729616 0
M  V30 644 H 55.9338 -0.692272 -3.16825 0
M  V30 645 H 55.7188 -2.46282 -3.05103 0
M  V30 646 H 57.2088 -1.78674 -3.77446 0
M  V30 647 N 57.6459 0.756429 -1.3826 0
M  V30 648 C 58.5759 1.88374 -1.37976 0
M  V30 649 C 59.5569 1.68311 -0.246082 0
M  V30 650 O 60.7419 1.88944 -0.44874 0
M  V30 651 C 57.8719 3.25864 -1.20125 0
M  V30 652 C 56.8259 3.60523 -2.30666 0
M  V30 653 C 56.1519 4.9672 -1.97923 0
M  V30 654 C 57.4519 3.65692 -3.72916 0
M  V30 655 H 59.1459 1.88869 -2.32312 0
M  V30 656 H 56.6919 0.907272 -1.11824 0
M  V30 657 H 58.6449 4.0438 -1.18552 0
M  V30 658 H 57.3689 3.25841 -0.222498 0
M  V30 659 H 56.0279 2.84324 -2.3142 0
M  V30 660 H 55.6759 4.93253 -0.985393 0
M  V30 661 H 55.3759 5.20878 -2.71955 0
M  V30 662 H 56.8999 5.77618 -1.97964 0
M  V30 663 H 58.3139 4.34328 -3.74208 0
M  V30 664 H 56.7109 4.01358 -4.4613 0
M  V30 665 H 57.7809 2.65987 -4.05436 0
M  V30 666 N 59.124 1.23083 0.984299 0
M  V30 667 C 60.074 0.975749 2.06066 0
M  V30 668 C 61.058 -0.0768251 1.60716 0
M  V30 669 O 62.25 0.134805 1.76486 0
M  V30 670 C 59.379 0.564673 3.38624 0
M  V30 671 C 58.465 1.65244 3.90583 0
M  V30 672 N 58.856 2.88193 4.15666 0
M  V30 673 C 57.154 1.52612 4.19077 0
M  V30 674 C 57.855 3.58593 4.58024 0
M  V30 675 N 56.831 2.86093 4.62225 0
M  V30 676 H 60.633 1.90957 2.23411 0
M  V30 677 H 58.147 1.12963 1.16675 0
M  V30 678 H 60.144 0.36322 4.15315 0
M  V30 679 H 58.804 -0.362147 3.22674 0
M  V30 680 H 59.815 3.24537 4.03604 0
M  V30 681 H 56.492 0.666121 4.12152 0
M  V30 682 H 57.882 4.63974 4.85982 0
M  V30 683 N 60.6021 -1.18246 1.0419 0
M  V30 684 C 61.5651 -2.20128 0.638452 0
M  V30 685 C 62.5651 -1.57885 -0.304805 0
M  V30 686 O 63.7551 -1.73967 -0.0900369 0
M  V30 687 C 60.8871 -3.4084 -0.0637751 0
M  V30 688 H 62.0801 -2.57336 1.54007 0
M  V30 689 H 59.6331 -1.32152 0.834598 0
M  V30 690 H 60.3681 -3.09166 -0.979136 0
M  V30 691 H 60.1531 -3.8726 0.614198 0
M  V30 692 H 61.6431 -4.16274 -0.332512 0
M  V30 693 N 62.0802 -0.821533 -1.34494 0
M  V30 694 C 63.4912 -0.467956 -1.8074 0
M  V30 695 C 63.8422 1.01151 -1.68116 0
M  V30 696 O 62.9672 1.78707 -1.22036 0
M  V30 697 C 63.5622 -0.842627 -3.28154 0
M  V30 698 C 62.1212 -0.541439 -3.72485 0
M  V30 699 C 61.2682 -1.06028 -2.56229 0
M  V30 700 H 64.2192 -1.01183 -1.22261 0
M  V30 701 H 64.2402 -0.145876 -3.8022 0
M  V30 702 H 63.7522 -1.91945 -3.37311 0
M  V30 703 H 61.8532 0.526034 -3.68868 0
M  V30 704 H 61.9662 -1.08453 -4.66663 0
M  V30 705 H 60.3302 -0.481892 -2.501 0
M  V30 706 H 61.1132 -2.14352 -2.68157 0
M  V30 707 N 63.5583 1.46682 -0.576371 0
M  V30 708 C 64.7863 2.06798 -0.0649635 0
M  V30 709 C 65.2013 1.42612 1.23723 0
M  V30 710 O 64.5583 0.529203 1.74659 0
M  V30 711 C 64.6093 3.6132 0.114202 0
M  V30 712 O 64.3303 4.23104 -1.13644 0
M  V30 713 C 65.8313 4.38349 0.66069 0
M  V30 714 H 63.0513 0.668778 -0.0545616 0
M  V30 715 H 65.5953 1.88404 -0.795237 0
M  V30 716 H 63.7503 3.79162 0.794673 0
M  V30 717 H 64.1643 5.15894 -0.946253 0
M  V30 718 H 65.6383 5.47081 0.73526 0
M  V30 719 H 66.1153 4.05953 1.67627 0
M  V30 720 H 66.7213 4.25297 0.0152951 0
M  V30 721 N 65.0364 0.313813 1.54444 0
M  V30 722 C 66.2614 -0.296681 2.05267 0
M  V30 723 C 66.6864 -1.45757 1.18897 0
M  V30 724 O 66.0444 -1.80239 0.195886 0
M  V30 725 C 66.0924 -0.71831 3.53373 0
M  V30 726 O 65.1964 -1.82175 3.69981 0
M  V30 727 H 64.5374 -0.0554061 0.661684 0
M  V30 728 H 67.0674 0.459387 1.99376 0
M  V30 729 H 67.0774 -1.00364 3.95463 0
M  V30 730 H 65.7524 0.130821 4.15694 0
M  V30 731 H 64.3294 -1.53598 3.39797 0
M  V30 732 N 66.5145 -1.57545 0.0417849 0
M  V30 733 C 67.7615 -1.92317 -0.634082 0
M  V30 734 C 68.0895 -0.919334 -1.71402 0
M  V30 735 O 67.3445 0.0698253 -1.95575 0
M  V30 736 C 67.6435 -3.33794 -1.27735 0
M  V30 737 C 67.3095 -4.49716 -0.326543 0
M  V30 738 C 65.9715 -4.81156 -0.0648814 0
M  V30 739 C 68.3235 -5.20182 0.325623 0
M  V30 740 C 65.6515 -5.80414 0.856539 0
M  V30 741 C 68.0035 -6.20424 1.23518 0
M  V30 742 C 66.6675 -6.50298 1.5056 0
M  V30 743 H 65.9375 -0.703736 -0.232027 0
M  V30 744 H 68.5845 -1.91205 0.106259 0
M  V30 745 H 66.8895 -3.31228 -2.09274 0
M  V30 746 H 68.5865 -3.57975 -1.80707 0
M  V30 747 H 65.1765 -4.25176 -0.540665 0
M  V30 748 H 69.3605 -4.96112 0.136546 0
M  V30 749 H 64.6165 -6.019 1.07363 0
M  V30 750 H 68.7905 -6.74141 1.74664 0
M  V30 751 H 66.4175 -7.27025 2.22123 0
M  V30 752 N 67.9926 0.231505 -1.5589 0
M  V30 753 C 68.9406 1.30649 -1.92441 0
M  V30 754 C 69.9346 1.49037 -0.805254 0
M  V30 755 O 71.1406 1.50329 -0.990007 0
M  V30 756 H 67.5156 0.437812 -0.611412 0
M  V30 757 H 69.4866 0.970973 -2.82161 0
M  V30 758 C 68.2356 2.65179 -2.24889 0
M  V30 759 H 67.5586 2.51835 -3.10514 0
M  V30 760 H 68.9986 3.39234 -2.54355 0
M  V30 761 C 67.4576 3.19439 -1.07054 0
M  V30 762 O 67.9876 4.00371 -0.326499 0
M  V30 763 N 66.1936 2.77675 -0.85703 0
M  V30 764 H 65.7406 2.11969 -1.46379 0
M  V30 765 H 65.6986 3.14321 -0.0703223 0
M  V30 766 N 69.4707 1.49531 0.497807 0
M  V30 767 C 70.4037 1.61043 1.6168 0
M  V30 768 C 71.3817 0.459386 1.55976 0
M  V30 769 O 72.5657 0.675358 1.75986 0
M  V30 770 C 69.6927 1.56833 3.00202 0
M  V30 771 C 68.7387 2.77173 3.24156 0
M  V30 772 S 69.5717 4.38808 3.06933 0
M  V30 773 C 70.7277 4.37248 4.47845 0
M  V30 774 H 70.9607 2.55702 1.51671 0
M  V30 775 H 68.4937 1.38462 0.683201 0
M  V30 776 H 70.4517 1.55089 3.80076 0
M  V30 777 H 69.1127 0.634561 3.07623 0
M  V30 778 H 68.3057 2.70456 4.25288 0
M  V30 779 H 67.9077 2.76346 2.5201 0
M  V30 780 H 70.1997 4.09164 5.39992 0
M  V30 781 H 71.1427 5.38668 4.59612 0
M  V30 782 H 71.5507 3.67286 4.28674 0
M  V30 783 N 70.9488 -0.749086 1.3866 0
M  V30 784 C 71.8808 -1.87273 1.32142 0
M  V30 785 C 72.8938 -1.61127 0.232787 0
M  V30 786 O 74.0828 -1.71623 0.49069 0
M  V30 787 C 71.1828 -3.23005 1.02571 0
M  V30 788 C 70.3558 -3.7662 2.22433 0
M  V30 789 C 69.4148 -4.90879 1.89537 0
M  V30 790 O 68.4408 -5.05276 2.62078 0
M  V30 791 N 69.6428 -5.74198 0.853031 0
M  V30 792 H 72.4078 -1.93373 2.28969 0
M  V30 793 H 69.9688 -0.929216 1.32579 0
M  V30 794 H 71.9608 -3.96992 0.786085 0
M  V30 795 H 70.5308 -3.12262 0.145249 0
M  V30 796 H 69.7508 -2.94147 2.62434 0
M  V30 797 H 71.0388 -4.09173 3.02415 0
M  V30 798 H 70.4368 -5.6514 0.25155 0
M  V30 799 H 68.9938 -6.48313 0.67329 0
M  V30 800 N 72.4269 -1.23603 -0.977757 0
M  V30 801 C 73.6519 -1.09735 -1.75991 0
M  V30 802 C 74.0769 0.346858 -1.84874 0
M  V30 803 O 73.4349 1.25093 -1.3123 0
M  V30 804 C 73.4829 -1.73051 -3.16363 0
M  V30 805 O 72.5869 -0.994452 -4.0023 0
M  V30 806 H 71.9279 -0.384476 -0.541364 0
M  V30 807 H 74.4579 -1.6371 -1.2272 0
M  V30 808 H 74.4679 -1.78398 -3.66931 0
M  V30 809 H 73.1429 -2.78137 -3.09213 0
M  V30 810 H 71.7199 -1.01812 -3.58732 0
M  V30 811 N 73.905 1.17692 -1.04816 0
M  V30 812 C 75.153 1.87488 -0.754497 0
M  V30 813 C 75.474 1.81205 0.720407 0
M  V30 814 O 74.744 1.23544 1.52032 0
M  V30 815 H 73.324 0.694101 -0.276102 0
M  V30 816 H 75.986 1.42793 -1.32651 0
M  V30 817 H 75.082 2.93328 -1.06606 0
M  V30 818 N 75.3831 0.828654 1.34056 0
M  V30 819 C 76.7991 0.515135 1.51058 0
M  V30 820 C 76.9991 -0.959581 1.77184 0
M  V30 821 O 76.0551 -1.74382 1.82612 0
M  V30 822 C 77.3681 1.37963 2.67183 0
M  V30 823 C 78.9161 1.37735 2.81066 0
M  V30 824 C 79.3911 2.22645 4.00241 0
M  V30 825 N 80.8821 2.203 4.07458 0
M  V30 826 C 81.6171 2.82744 4.98842 0
M  V30 827 N 81.1131 3.54201 5.9541 0
M  V30 828 N 82.9061 2.72268 4.91759 0
M  V30 829 H 75.0571 1.78343 1.15358 0
M  V30 830 H 77.3201 0.760304 0.566252 0
M  V30 831 H 77.0261 2.42714 2.54525 0
M  V30 832 H 76.9001 1.0484 3.62338 0
M  V30 833 H 79.2871 0.337593 2.93163 0
M  V30 834 H 79.3681 1.74859 1.86703 0
M  V30 835 H 79.0121 3.26674 3.88905 0
M  V30 836 H 78.9421 1.82869 4.93829 0
M  V30 837 H 81.4331 1.68327 3.38341 0
M  V30 838 H 81.7461 3.9908 6.61782 0
M  V30 839 H 80.0911 3.58308 5.95517 0
M  V30 840 H 83.2821 2.16014 4.15278 0
M  V30 841 H 83.4551 3.21219 5.62781 0
M  V30 842 N 76.8612 -1.46375 0.584142 0
M  V30 843 C 77.7942 -2.27351 -0.196676 0
M  V30 844 C 78.7722 -1.35715 -0.895561 0
M  V30 845 O 79.9562 -1.65126 -0.90916 0
M  V30 846 C 77.0832 -3.13486 -1.28235 0
M  V30 847 C 76.1292 -4.20896 -0.689145 0
M  V30 848 S 76.9622 -5.33299 0.48507 0
M  V30 849 C 78.1182 -6.23 -0.601767 0
M  V30 850 H 78.3512 -2.93228 0.490395 0
M  V30 851 H 75.8842 -1.49875 0.371071 0
M  V30 852 H 77.8422 -3.63676 -1.90395 0
M  V30 853 H 76.5032 -2.4692 -1.94138 0
M  V30 854 H 75.6962 -4.80997 -1.50527 0
M  V30 855 H 75.2982 -3.73726 -0.143181 0
M  V30 856 H 77.5902 -6.60979 -1.48705 0
M  V30 857 H 78.5332 -7.0809 -0.0374799 0
M  V30 858 H 78.9412 -5.57173 -0.906557 0
M  V30 859 N 78.3393 -0.321999 -1.54275 0
M  V30 860 C 79.5853 0.281461 -2.00837 0
M  V30 861 C 79.9183 1.51909 -1.20985 0
M  V30 862 O 79.1933 1.923 -0.291733 0
M  V30 863 C 79.4763 0.617162 -3.54772 0
M  V30 864 C 79.3293 -0.631064 -4.45351 0
M  V30 865 C 80.6483 1.43542 -4.16033 0
M  V30 866 H 77.7673 0.100826 -0.730071 0
M  V30 867 H 80.4093 -0.438268 -1.84876 0
M  V30 868 H 78.5593 1.23034 -3.68504 0
M  V30 869 H 80.2313 -1.26934 -4.43492 0
M  V30 870 H 78.4743 -1.26025 -4.15091 0
M  V30 871 H 79.1453 -0.351735 -5.50878 0
M  V30 872 H 81.6213 0.917134 -4.05867 0
M  V30 873 H 80.4973 1.63907 -5.23856 0
M  V30 874 H 80.7583 2.43108 -3.69257 0
M  V30 875 N 79.8174 1.5752 -0.0501392 0
M  V30 876 C 81.0634 1.92936 0.624798 0
M  V30 877 C 81.3964 0.928685 1.70555 0
M  V30 878 O 80.6714 -0.0454779 1.94447 0
M  V30 879 C 80.9544 3.38737 1.22185 0
M  V30 880 C 80.8074 4.49552 0.149218 0
M  V30 881 C 82.1264 3.84913 2.13378 0
M  V30 882 H 79.2454 0.701604 0.225657 0
M  V30 883 H 81.8874 1.89671 -0.111693 0
M  V30 884 H 80.0374 3.4165 1.84953 0
M  V30 885 H 81.7094 4.58768 -0.482648 0
M  V30 886 H 79.9524 4.30638 -0.522841 0
M  V30 887 H 80.6234 5.48653 0.606966 0
M  V30 888 H 83.0994 3.8387 1.60572 0
M  V30 889 H 81.9754 4.87584 2.52097 0
M  V30 890 H 82.2364 3.21611 3.03346 0
M  V30 891 N 81.2955 -0.223234 1.56011 0
M  V30 892 C 82.2255 -1.27988 1.95298 0
M  V30 893 C 83.2065 -1.48976 0.820979 0
M  V30 894 O 84.3915 -1.61188 1.08315 0
M  V30 895 C 81.5215 -2.63 2.26822 0
M  V30 896 C 80.4755 -2.56671 3.42497 0
M  V30 897 C 79.8015 -3.95697 3.59622 0
M  V30 898 C 81.1015 -2.11601 4.77517 0
M  V30 899 H 82.7955 -0.953525 2.8381 0
M  V30 900 H 80.3415 -0.457244 1.36548 0
M  V30 901 H 82.2945 -3.37077 2.52898 0
M  V30 902 H 81.0185 -2.9732 1.35161 0
M  V30 903 H 79.6775 -1.85051 3.16467 0
M  V30 904 H 79.3255 -4.27322 2.6534 0
M  V30 905 H 79.0255 -3.92345 4.37424 0
M  V30 906 H 80.5495 -4.71438 3.88044 0
M  V30 907 H 81.9635 -2.7542 5.02809 0
M  V30 908 H 80.3605 -2.19311 5.5859 0
M  V30 909 H 81.4305 -1.06824 4.72987 0
M  V30 910 N 82.7736 -1.49793 -0.48987 0
M  V30 911 C 83.7066 -1.61898 -1.60823 0
M  V30 912 C 84.6846 -0.467651 -1.5573 0
M  V30 913 O 85.8686 -0.684682 -1.75626 0
M  V30 914 C 82.9956 -1.58422 -2.99366 0
M  V30 915 C 82.0416 -2.78889 -3.22682 0
M  V30 916 S 82.8746 -4.40429 -3.04602 0
M  V30 917 C 84.0306 -4.39617 -4.4552 0
M  V30 918 H 84.2636 -2.56502 -1.50312 0
M  V30 919 H 81.7966 -1.38822 -0.675849 0
M  V30 920 H 83.7546 -1.57103 -3.79248 0
M  V30 921 H 82.4156 -0.650866 -3.07283 0
M  V30 922 H 81.6086 -2.72708 -4.23847 0
M  V30 923 H 81.2106 -2.77678 -2.50541 0
M  V30 924 H 83.5026 -4.12022 -5.37814 0
M  V30 925 H 84.4456 -5.41097 -4.56749 0
M  V30 926 H 84.8536 -3.69554 -4.2672 0
M  V30 927 N 84.2517 0.741722 -1.39055 0
M  V30 928 C 85.5287 1.49252 -1.26425 0
M  V30 929 C 85.9087 2.10705 0.129144 0
M  V30 930 O 85.2567 1.98045 1.13976 0
M  V30 931 C 85.4667 2.54934 -2.38347 0
M  V30 932 C 86.8147 3.21506 -2.77343 0
M  V30 933 O 87.8387 2.65245 -2.37747 0
M  V30 934 O 86.6977 4.23294 -3.45665 0
M  V30 935 H 83.7917 0.662451 -0.495064 0
M  V30 936 H 86.3377 0.776121 -1.50912 0
M  V30 937 H 85.1097 2.07857 -3.31529 0
M  V30 938 H 84.7327 3.34141 -2.15489 0
M  V30 939 N 85.7298 1.2412 0.971189 0
M  V30 940 C 86.9778 1.07668 1.71032 0
M  V30 941 C 87.2988 -0.385797 1.91146 0
M  V30 942 O 86.5688 -1.27569 1.4867 0
M  V30 943 H 85.1488 0.395429 0.633755 0
M  V30 944 H 87.8108 1.55984 1.16855 0
M  V30 945 H 86.9068 1.57195 2.69622 0
M  V30 946 N 87.2079 -1.17134 1.05439 0
M  V30 947 C 88.1179 -2.24878 0.668365 0
M  V30 948 C 89.1339 -1.71186 -0.311687 0
M  V30 949 O 90.3099 -2.00738 -0.163161 0
M  V30 950 C 87.3749 -3.46662 0.051648 0
M  V30 951 C 86.4359 -4.15429 1.08246 0
M  V30 952 C 85.6689 -5.31399 0.495082 0
M  V30 953 O 85.8919 -5.66153 -0.694743 0
M  V30 954 O 84.8259 -5.89187 1.23056 0
M  V30 955 H 88.6519 -2.60189 1.56637 0
M  V30 956 H 86.2369 -1.24482 0.826104 0
M  V30 957 H 88.1189 -4.20394 -0.290966 0
M  V30 958 H 86.7939 -3.13142 -0.819971 0
M  V30 959 H 85.7009 -3.43704 1.47711 0
M  V30 960 H 87.0339 -4.52982 1.92532 0
M  V30 961 N 88.686 -0.835752 -1.33615 0
M  V30 962 C 89.636 -0.238856 -2.26745 0
M  V30 963 C 90.62 0.604343 -1.49119 0
M  V30 964 O 91.812 0.456822 -1.71003 0
M  V30 965 C 88.941 0.587725 -3.38232 0
M  V30 966 C 88.027 -0.266811 -4.2326 0
M  V30 967 N 88.418 -1.34403 -4.87616 0
M  V30 968 C 86.716 -0.0533131 -4.45968 0
M  V30 969 C 87.417 -1.86819 -5.50884 0
M  V30 970 N 86.393 -1.17013 -5.30857 0
M  V30 971 H 90.195 -1.06266 -2.74016 0
M  V30 972 H 87.709 -0.679881 -1.47483 0
M  V30 973 H 89.706 1.03161 -4.03935 0
M  V30 974 H 88.366 1.40954 -2.9251 0
M  V30 975 H 89.377 -1.7269 -4.88261 0
M  V30 976 H 86.054 0.735312 -4.10974 0
M  V30 977 H 87.444 -2.7701 -6.1214 0
M  V30 978 N 90.1641 1.46063 -0.591896 0
M  V30 979 C 91.0741 2.34192 0.13831 0
M  V30 980 C 92.0901 1.50305 0.876608 0
M  V30 981 O 93.2661 1.8315 0.837728 0
M  V30 982 C 90.3311 3.27656 1.13326 0
M  V30 983 C 89.3921 4.27445 0.39863 0
M  V30 984 C 88.6251 5.16443 1.34618 0
M  V30 985 O 88.8481 5.08553 2.58321 0
M  V30 986 O 87.7821 5.95843 0.851768 0
M  V30 987 H 91.6081 2.98002 -0.58552 0
M  V30 988 H 89.1931 1.45188 -0.352239 0
M  V30 989 H 91.0751 3.85291 1.70671 0
M  V30 990 H 89.7501 2.6643 1.83839 0
M  V30 991 H 88.6571 3.73471 -0.216895 0
M  V30 992 H 89.9901 4.91482 -0.265709 0
M  V30 993 N 91.6422 0.330177 1.54103 0
M  V30 994 C 92.5892 -0.532762 2.24567 0
M  V30 995 C 93.5592 -1.10635 1.23892 0
M  V30 996 O 94.7442 -1.14546 1.5259 0
M  V30 997 C 91.8842 -1.6845 3.01195 0
M  V30 998 C 90.9972 -1.13951 4.167 0
M  V30 999 C 90.1322 -2.25746 4.80845 0
M  V30 1000 C 89.1712 -1.6853 5.88442 0
M  V30 1001 N 88.3082 -2.74014 6.46421 0
M  V30 1002 H 93.1482 0.0746905 2.97906 0
M  V30 1003 H 90.6852 0.048632 1.4702 0
M  V30 1004 H 92.6432 -2.36234 3.43874 0
M  V30 1005 H 91.2732 -2.26314 2.30178 0
M  V30 1006 H 90.3252 -0.35301 3.78758 0
M  V30 1007 H 91.6372 -0.680892 4.94131 0
M  V30 1008 H 90.7912 -3.01422 5.26526 0
M  V30 1009 H 89.5302 -2.74947 4.0281 0
M  V30 1010 H 88.5352 -0.913543 5.42157 0
M  V30 1011 H 89.7602 -1.20198 6.68378 0
M  V30 1012 H 87.7062 -3.22494 5.71256 0
M  V30 1013 H 87.6232 -2.32735 7.19285 0
M  V30 1014 H 88.8912 -3.49499 6.96757 0
M  V30 1015 N 93.1203 -1.57491 0.0584922 0
M  V30 1016 C 94.3673 -1.92978 -0.613648 0
M  V30 1017 C 94.6953 -0.937461 -1.70417 0
M  V30 1018 O 93.9503 0.049078 -1.95638 0
M  V30 1019 C 94.2493 -3.3513 -1.24188 0
M  V30 1020 C 93.9153 -4.50037 -0.278826 0
M  V30 1021 C 92.5773 -4.81198 -0.0138447 0
M  V30 1022 C 94.9293 -5.19807 0.380777 0
M  V30 1023 C 92.2573 -5.79473 0.918052 0
M  V30 1024 C 94.6093 -6.19079 1.30091 0
M  V30 1025 C 93.2733 -6.48665 1.57449 0
M  V30 1026 H 92.5433 -0.706157 -0.22455 0
M  V30 1027 H 95.1903 -1.91082 0.126533 0
M  V30 1028 H 93.4953 -3.33429 -2.05749 0
M  V30 1029 H 95.1923 -3.59871 -1.769 0
M  V30 1030 H 91.7823 -4.25726 -0.495539 0
M  V30 1031 H 95.9663 -4.95939 0.189158 0
M  V30 1032 H 91.2223 -6.00727 1.1374 0
M  V30 1033 H 95.3963 -6.7225 1.81804 0
M  V30 1034 H 93.0233 -7.24628 2.29822 0
M  V30 1035 N 94.5984 0.214957 -1.56127 0
M  V30 1036 C 95.8444 0.935325 -1.80619 0
M  V30 1037 C 96.1994 1.81706 -0.632507 0
M  V30 1038 O 95.4924 1.87931 0.373182 0
M  V30 1039 C 95.6864 1.80314 -3.0858 0
M  V30 1040 C 95.5154 1.00691 -4.38282 0
M  V30 1041 C 94.2854 0.699211 -5.00439 0
M  V30 1042 C 96.4834 0.369057 -5.12974 0
M  V30 1043 N 94.4654 -0.117734 -6.13787 0
M  V30 1044 C 95.8364 -0.310981 -6.1922 0
M  V30 1045 C 97.8914 0.282759 -4.97096 0
M  V30 1046 C 96.5944 -1.06907 -7.11311 0
M  V30 1047 C 98.6204 -0.461881 -5.89594 0
M  V30 1048 C 97.9824 -1.13044 -6.9527 0
M  V30 1049 H 94.0814 0.322307 -0.71249 0
M  V30 1050 H 96.6654 0.205649 -1.93611 0
M  V30 1051 H 94.8364 2.50458 -2.96859 0
M  V30 1052 H 96.5684 2.46148 -3.21237 0
M  V30 1053 H 93.3234 1.01884 -4.62511 0
M  V30 1054 H 93.7474 -0.515235 -6.75037 0
M  V30 1055 H 98.3894 0.785292 -4.15443 0
M  V30 1056 H 96.1074 -1.5831 -7.92442 0
M  V30 1057 H 99.6934 -0.529746 -5.79383 0
M  V30 1058 H 98.5734 -1.69742 -7.65609 0
M  V30 1059 N 96.0765 1.50051 0.48192 0
M  V30 1060 C 97.3535 1.51009 1.2432 0
M  V30 1061 C 97.7335 0.248587 2.09631 0
M  V30 1062 O 97.0815 -0.768409 2.15192 0
M  V30 1063 C 97.2915 2.79981 2.08355 0
M  V30 1064 C 98.6395 3.3022 2.66908 0
M  V30 1065 O 99.6635 2.81228 2.18607 0
M  V30 1066 O 98.5225 4.15595 3.54884 0
M  V30 1067 H 95.6165 0.605239 0.563573 0
M  V30 1068 H 98.1625 1.62332 0.494627 0
M  V30 1069 H 96.9345 3.63275 1.45419 0
M  V30 1070 H 96.5575 2.7161 2.90368 0
M  V30 1071 N 97.5546 -0.734337 1.39446 0
M  V30 1072 C 98.8036 -1.48937 1.36017 0
M  V30 1073 C 99.1166 -1.95557 -0.0409005 0
M  V30 1074 O 100.323 -2.70779 -0.19778 0
M  V30 1075 C 98.7786 -2.69125 2.38955 0
M  V30 1076 C 98.3866 -2.29452 3.8478 0
M  V30 1077 C 100.131 -3.46944 2.44603 0
M  V30 1078 C 98.0376 -3.46366 4.79358 0
M  V30 1079 H 96.9676 -0.559296 0.505672 0
M  V30 1080 H 99.6186 -0.800983 1.65095 0
M  V30 1081 H 98.0006 -3.40041 2.02948 0
M  V30 1082 H 99.1746 -1.66077 4.29831 0
M  V30 1083 H 97.4896 -1.64723 3.82433 0
M  V30 1084 H 100.087 -4.33907 3.12456 0
M  V30 1085 H 100.43 -3.89454 1.47076 0
M  V30 1086 H 100.963 -2.83056 2.79507 0
M  V30 1087 H 97.7016 -3.08905 5.78151 0
M  V30 1088 H 97.2216 -4.08719 4.38986 0
M  V30 1089 H 98.9006 -4.12691 4.98292 0
M  V30 1090 N 99.0327 -1.24633 -0.964593 0
M  V30 1091 C 100.279 -1.08949 -1.71049 0
M  V30 1092 C 100.612 0.370302 -1.90637 0
M  V30 1093 O 99.8867 1.27349 -1.47011 0
M  V30 1094 C 100.17 -1.83329 -3.0994 0
M  V30 1095 C 100.023 -3.37077 -2.97824 0
M  V30 1096 C 101.342 -1.60846 -4.09654 0
M  V30 1097 H 98.4607 -0.397178 -0.620821 0
M  V30 1098 H 101.103 -1.5334 -1.12191 0
M  V30 1099 H 99.2527 -1.45597 -3.60186 0
M  V30 1100 H 100.925 -3.84425 -2.5498 0
M  V30 1101 H 99.1677 -3.65298 -2.33965 0
M  V30 1102 H 99.8387 -3.84324 -3.96231 0
M  V30 1103 H 102.315 -1.93674 -3.68279 0
M  V30 1104 H 101.191 -2.1534 -5.04896 0
M  V30 1105 H 101.452 -0.547434 -4.38698 0
M  V30 1106 N 100.511 1.16574 -1.06058 0
M  V30 1107 C 101.458 2.20883 -0.669263 0
M  V30 1108 C 102.428 1.62729 0.332918 0
M  V30 1109 O 103.613 1.895 0.222346 0
M  V30 1110 C 100.753 3.45049 -0.0593572 0
M  V30 1111 C 99.8658 4.17458 -1.11143 0
M  V30 1112 C 99.0008 5.29135 -0.467916 0
M  V30 1113 C 98.0398 5.93343 -1.50369 0
M  V30 1114 N 97.1768 6.96516 -0.883706 0
M  V30 1115 H 102.017 2.53709 -1.5632 0
M  V30 1116 H 99.5538 1.24616 -0.781625 0
M  V30 1117 H 101.512 4.16033 0.311771 0
M  V30 1118 H 100.142 3.12781 0.797992 0
M  V30 1119 H 99.1938 3.45101 -1.60029 0
M  V30 1120 H 100.506 4.61307 -1.89731 0
M  V30 1121 H 99.6598 6.06684 -0.0436871 0
M  V30 1122 H 98.3988 4.86443 0.349864 0
M  V30 1123 H 97.4038 5.14517 -1.93784 0
M  V30 1124 H 98.6288 6.38114 -2.32352 0
M  V30 1125 H 96.5748 6.55943 -0.086595 0
M  V30 1126 H 96.4918 7.38723 -1.607 0
M  V30 1127 H 97.7598 7.77993 -0.484543 0
M  V30 1128 N 101.989 0.842826 1.3317 0
M  V30 1129 C 102.899 0.281444 2.32906 0
M  V30 1130 C 103.915 -0.594587 1.63526 0
M  V30 1131 O 105.091 -0.49777 1.95152 0
M  V30 1132 C 102.156 -0.530929 3.42611 0
M  V30 1133 C 101.217 0.369843 4.27704 0
M  V30 1134 C 100.45 -0.403853 5.3217 0
M  V30 1135 O 100.673 -1.63513 5.46461 0
M  V30 1136 O 99.6069 0.224199 6.01482 0
M  V30 1137 H 103.433 1.10744 2.82789 0
M  V30 1138 H 101.018 0.60545 1.36582 0
M  V30 1139 H 102.9 -0.992437 4.09547 0
M  V30 1140 H 101.575 -1.33392 2.94938 0
M  V30 1141 H 100.482 0.879275 3.6362 0
M  V30 1142 H 101.815 1.13771 4.78871 0
M  V30 1143 N 103.467 -1.45747 0.599634 0
M  V30 1144 C 104.695 -2.06668 0.0978551 0
M  V30 1145 C 105.11 -1.44562 -1.21439 0
M  V30 1146 O 104.467 -0.556923 -1.73795 0
M  V30 1147 C 104.518 -3.61456 -0.0567044 0
M  V30 1148 O 104.239 -4.21242 1.20361 0
M  V30 1149 C 105.74 -4.39345 -0.590869 0
M  V30 1150 H 102.96 -0.667825 0.0651943 0
M  V30 1151 H 105.504 -1.87115 0.82511 0
M  V30 1152 H 103.659 -3.80378 -0.734251 0
M  V30 1153 H 104.073 -5.14323 1.02821 0
M  V30 1154 H 105.547 -5.48182 -0.648131 0
M  V30 1155 H 106.024 -4.08568 -1.61147 0
M  V30 1156 H 106.63 -4.25268 0.0523679 0
M  V30 1157 N 104.945 -0.338344 -1.53925 0
M  V30 1158 C 105.875 0.51328 -2.27789 0
M  V30 1159 C 106.856 1.107 -1.29149 0
M  V30 1160 O 108.041 1.12937 -1.57984 0
M  V30 1161 C 105.171 1.66697 -3.04679 0
M  V30 1162 C 104.125 1.20183 -4.1078 0
M  V30 1163 C 103.451 2.44363 -4.75595 0
M  V30 1164 C 104.751 0.30605 -5.21403 0
M  V30 1165 H 106.445 -0.102883 -2.99223 0
M  V30 1166 H 103.991 -0.0509219 -1.4391 0
M  V30 1167 H 105.944 2.26915 -3.55088 0
M  V30 1168 H 104.668 2.30995 -2.30887 0
M  V30 1169 H 103.327 0.622499 -3.61276 0
M  V30 1170 H 102.975 3.07057 -3.98403 0
M  V30 1171 H 102.675 2.13925 -5.47275 0
M  V30 1172 H 104.199 3.05317 -5.28786 0
M  V30 1173 H 105.613 0.814929 -5.67478 0
M  V30 1174 H 104.01 0.0937929 -6.00027 0
M  V30 1175 H 105.08 -0.65921 -4.80398 0
M  V30 1176 N 106.423 1.57458 -0.0668435 0
M  V30 1177 C 107.839 1.56947 0.289772 0
M  V30 1178 C 108.039 1.07584 1.70376 0
M  V30 1179 O 107.095 0.739486 2.41429 0
M  V30 1180 C 108.408 3.0052 0.103943 0
M  V30 1181 C 109.956 3.12517 0.173857 0
M  V30 1182 C 110.431 4.57997 0.0163682 0
M  V30 1183 N 111.922 4.63144 0.0721352 0
M  V30 1184 C 112.657 5.73394 -0.0253794 0
M  V30 1185 N 112.153 6.92576 -0.176133 0
M  V30 1186 N 113.946 5.62091 0.0313305 0
M  V30 1187 H 106.097 1.87863 -0.991027 0
M  V30 1188 H 108.36 0.86583 -0.38606 0
M  V30 1189 H 108.066 3.40729 -0.871572 0
M  V30 1190 H 107.94 3.67304 0.858366 0
M  V30 1191 H 110.327 2.72197 1.13985 0
M  V30 1192 H 110.408 2.48381 -0.611586 0
M  V30 1193 H 110.052 4.99005 -0.946374 0
M  V30 1194 H 109.982 5.20158 0.821153 0
M  V30 1195 H 112.473 3.77436 0.187263 0
M  V30 1196 H 112.786 7.72418 -0.242821 0
M  V30 1197 H 111.131 6.94678 -0.211429 0
M  V30 1198 H 114.322 4.67867 0.147773 0
M  V30 1199 H 114.495 6.47982 -0.048121 0
M  V30 1200 N 107.901 -0.206675 1.56239 0
M  V30 1201 C 108.864 -1.23976 1.92776 0
M  V30 1202 C 109.864 -1.39041 0.807729 0
M  V30 1203 O 111.054 -1.37051 1.0753 0
M  V30 1204 C 108.186 -2.61112 2.19165 0
M  V30 1205 H 109.379 -0.927764 2.85189 0
M  V30 1206 H 106.932 -0.447718 1.4975 0
M  V30 1207 H 107.667 -2.97386 1.29352 0
M  V30 1208 H 107.452 -2.51552 3.00772 0
M  V30 1209 H 108.942 -3.35633 2.48476 0
M  V30 1210 N 109.379 -1.50304 -0.473955 0
M  V30 1211 C 110.795 -1.37667 -0.807466 0
M  V30 1212 C 110.995 -0.430555 -1.96846 0
M  V30 1213 O 110.051 0.127874 -2.52176 0
M  V30 1214 C 111.364 -2.78974 -1.12223 0
M  V30 1215 C 112.912 -2.87868 -1.22885 0
M  V30 1216 C 113.387 -4.30003 -1.57676 0
M  V30 1217 N 114.878 -4.3294 -1.64673 0
M  V30 1218 C 115.613 -5.3991 -1.93091 0
M  V30 1219 N 115.109 -6.57092 -2.1955 0
M  V30 1220 N 116.902 -5.27351 -1.94569 0
M  V30 1221 H 109.053 -2.10394 0.291212 0
M  V30 1222 H 111.316 -0.945575 0.0677609 0
M  V30 1223 H 111.022 -3.50031 -0.342229 0
M  V30 1224 H 110.896 -3.16038 -2.05913 0
M  V30 1225 H 113.283 -2.17032 -1.99953 0
M  V30 1226 H 113.364 -2.54352 -0.271814 0
M  V30 1227 H 113.008 -5.01375 -0.81149 0
M  V30 1228 H 112.938 -4.61004 -2.54525 0
M  V30 1229 H 115.429 -3.48441 -1.46277 0
M  V30 1230 H 115.742 -7.34425 -2.405 0
M  V30 1231 H 114.087 -6.60272 -2.16948 0
M  V30 1232 H 117.278 -4.34801 -1.73394 0
M  V30 1233 H 117.451 -6.10805 -2.16381 0
M  V30 1234 N 110.857 0.726932 -1.39834 0
M  V30 1235 C 112.103 1.48884 -1.377 0
M  V30 1236 C 112.436 1.94185 0.0244852 0
M  V30 1237 O 111.711 1.67361 0.990986 0
M  V30 1238 C 111.994 2.72288 -2.3565 0
M  V30 1239 C 111.847 2.32956 -3.84775 0
M  V30 1240 C 113.166 3.74414 -2.31306 0
M  V30 1241 H 110.285 0.540062 -0.5015 0
M  V30 1242 H 112.927 0.830547 -1.70886 0
M  V30 1243 H 111.077 3.28457 -2.07481 0
M  V30 1244 H 112.749 1.82356 -4.23726 0
M  V30 1245 H 110.992 1.65088 -4.01159 0
M  V30 1246 H 111.663 3.21362 -4.4881 0
M  V30 1247 H 114.139 3.27849 -2.56231 0
M  V30 1248 H 113.015 4.58414 -3.01907 0
M  V30 1249 H 113.276 4.21909 -1.32081 0
M  V30 1250 N 112.336 1.25143 0.95797 0
M  V30 1251 C 113.747 1.08851 1.51685 0
M  V30 1252 C 114.098 -0.33687 1.93286 0
M  V30 1253 O 113.223 -1.22644 1.7829 0
M  V30 1254 C 113.818 1.96978 2.75654 0
M  V30 1255 C 112.377 1.84881 3.27866 0
M  V30 1256 C 111.524 1.91329 2.0072 0
M  V30 1257 H 114.475 1.38478 0.77522 0
M  V30 1258 H 114.496 1.5078 3.4935 0
M  V30 1259 H 114.008 3.00712 2.45345 0
M  V30 1260 H 112.109 0.840182 3.63004 0
M  V30 1261 H 112.222 2.6951 3.96107 0
M  V30 1262 H 110.586 1.35174 2.15871 0
M  V30 1263 H 111.369 2.96661 1.72764 0
M  V30 1264 N 113.814 -1.1601 1.06675 0
M  V30 1265 C 114.777 -2.18724 0.685001 0
M  V30 1266 C 115.777 -1.58496 -0.271246 0
M  V30 1267 O 116.967 -1.74119 -0.0531156 0
M  V30 1268 C 114.099 -3.40899 0.00853648 0
M  V30 1269 H 115.292 -2.54011 1.59431 0
M  V30 1270 H 112.845 -1.30352 0.862441 0
M  V30 1271 H 113.58 -3.11173 -0.913337 0
M  V30 1272 H 113.365 -3.8587 0.696204 0
M  V30 1273 H 114.855 -4.16886 -0.24414 0
M  V30 1274 N 115.292 -0.849877 -1.32721 0
M  V30 1275 C 116.202 -0.293791 -2.32753 0
M  V30 1276 C 117.218 0.585906 -1.63839 0
M  V30 1277 O 118.394 0.487413 -1.95413 0
M  V30 1278 C 115.459 0.512752 -3.42887 0
M  V30 1279 C 114.52 -0.39252 -4.27502 0
M  V30 1280 C 113.753 0.375625 -5.32377 0
M  V30 1281 O 113.976 1.60613 -5.4732 0
M  V30 1282 O 112.91 -0.256094 -6.01355 0
M  V30 1283 H 116.736 -1.12242 -2.82197 0
M  V30 1284 H 114.321 -0.612685 -1.36259 0
M  V30 1285 H 116.203 0.970704 -4.10067 0
M  V30 1286 H 114.878 1.31826 -2.95641 0
M  V30 1287 H 113.785 -0.898547 -3.63149 0
M  V30 1288 H 115.118 -1.16309 -4.7826 0
M  V30 1289 N 116.77 1.45427 -0.607355 0
M  V30 1290 C 117.718 2.32269 0.12411 0
M  V30 1291 C 118.712 1.45955 0.859854 0
M  V30 1292 O 119.918 1.6244 0.775447 0
M  V30 1293 H 116.293 0.749691 0.0588839 0
M  V30 1294 H 118.264 2.91743 -0.626762 0
M  V30 1295 C 117.013 3.29567 1.1082 0
M  V30 1296 H 116.336 3.95978 0.551492 0
M  V30 1297 H 117.776 3.93061 1.58995 0
M  V30 1298 C 116.235 2.56722 2.18164 0
M  V30 1299 O 116.765 2.34842 3.25902 0
M  V30 1300 N 114.971 2.16861 1.93442 0
M  V30 1301 H 114.518 2.34855 1.05834 0
M  V30 1302 H 114.476 1.68444 2.65469 0
M  V30 1303 N 118.248 0.346503 1.53744 0
M  V30 1304 C 119.495 -0.249104 2.00962 0
M  V30 1305 C 119.823 -1.5032 1.23426 0
M  V30 1306 O 119.078 -1.93217 0.310761 0
M  V30 1307 C 119.377 -0.605809 3.52228 0
M  V30 1308 C 119.043 0.551747 4.47512 0
M  V30 1309 C 117.705 0.86941 4.73281 0
M  V30 1310 C 120.057 1.32818 5.03993 0
M  V30 1311 C 117.385 1.96582 5.52786 0
M  V30 1312 C 119.737 2.41486 5.84694 0
M  V30 1313 C 118.401 2.73808 6.08757 0
M  V30 1314 H 117.671 -0.0911538 0.735372 0
M  V30 1315 H 120.318 0.475027 1.85515 0
M  V30 1316 H 118.623 -1.4107 3.65522 0
M  V30 1317 H 120.32 -1.07858 3.86222 0
M  V30 1318 H 116.91 0.294102 4.2759 0
M  V30 1319 H 121.094 1.09602 4.84047 0
M  V30 1320 H 116.35 2.22045 5.69654 0
M  V30 1321 H 120.524 3.02078 6.27473 0
M  V30 1322 H 118.151 3.58892 6.7015 0
M  V30 1323 N 119.726 -1.57421 0.075193 0
M  V30 1324 C 120.636 -2.1642 -0.905511 0
M  V30 1325 C 121.652 -1.12828 -1.32461 0
M  V30 1326 O 122.828 -1.45109 -1.39661 0
M  V30 1327 C 119.893 -2.71693 -2.15369 0
M  V30 1328 C 118.954 -3.90171 -1.79068 0
M  V30 1329 C 118.187 -4.42798 -2.97936 0
M  V30 1330 O 118.41 -3.94416 -4.12058 0
M  V30 1331 O 117.344 -5.34085 -2.77555 0
M  V30 1332 H 121.17 -3.00588 -0.433626 0
M  V30 1333 H 118.755 -1.48664 -0.148067 0
M  V30 1334 H 120.637 -3.07104 -2.88557 0
M  V30 1335 H 119.312 -1.90582 -2.61649 0
M  V30 1336 H 118.219 -3.59606 -1.03122 0
M  V30 1337 H 119.552 -4.72584 -1.37569 0
M  V30 1338 N 121.204 0.198386 -1.56346 0
M  V30 1339 C 122.167 1.22952 -1.93431 0
M  V30 1340 C 123.167 1.38611 -0.815092 0
M  V30 1341 O 124.357 1.36479 -1.08255 0
M  V30 1342 C 121.489 2.59946 -2.20546 0
M  V30 1343 H 122.682 0.912626 -2.85677 0
M  V30 1344 H 120.235 0.43977 -1.49986 0
M  V30 1345 H 120.97 2.96696 -1.30927 0
M  V30 1346 H 120.755 2.49953 -3.02102 0
M  V30 1347 H 122.245 3.3431 -2.50253 0
M  V30 1348 N 122.682 1.50554 0.465978 0
M  V30 1349 C 123.91 1.65563 1.24083 0
M  V30 1350 C 124.325 0.341051 1.85694 0
M  V30 1351 O 123.682 -0.677543 1.69457 0
M  V30 1352 C 123.733 2.75051 2.34583 0
M  V30 1353 O 123.454 4.01413 1.75497 0
M  V30 1354 C 124.955 3.01078 3.25372 0
M  V30 1355 H 122.175 0.55638 0.375077 0
M  V30 1356 H 124.719 1.96807 0.555624 0
M  V30 1357 H 122.874 2.46486 2.9887 0
M  V30 1358 H 123.288 4.62002 2.48303 0
M  V30 1359 H 124.762 3.81339 3.99105 0
M  V30 1360 H 125.239 2.12349 3.84453 0
M  V30 1361 H 125.845 3.31194 2.66816 0
M  V30 1362 N 124.16 -0.719506 1.40217 0
M  V30 1363 C 125.406 -1.48152 1.38488 0
M  V30 1364 C 125.739 -1.94195 -0.0141867 0
M  V30 1365 O 125.014 -1.67884 -0.982096 0
M  V30 1366 C 125.297 -2.71035 2.37091 0
M  V30 1367 C 125.15 -2.30912 3.86005 0
M  V30 1368 C 126.469 -3.73182 2.33288 0
M  V30 1369 H 123.588 -0.537395 0.504357 0
M  V30 1370 H 126.23 -0.821472 1.71324 0
M  V30 1371 H 124.38 -3.27352 2.0922 0
M  V30 1372 H 126.052 -1.80107 4.24687 0
M  V30 1373 H 124.295 -1.62958 4.02029 0
M  V30 1374 H 124.966 -3.18978 4.50508 0
M  V30 1375 H 127.442 -3.26485 2.57966 0
M  V30 1376 H 126.318 -4.56806 3.04334 0
M  V30 1377 H 126.579 -4.21202 1.34317 0
M  V30 1378 N 125.638 -1.25649 -0.95132 0
M  V30 1379 C 126.548 -1.08073 -2.08224 0
M  V30 1380 C 127.564 -0.0169666 -1.73992 0
M  V30 1381 O 128.74 -0.218593 -2.0021 0
M  V30 1382 C 125.805 -0.704922 -3.39458 0
M  V30 1383 C 124.866 -1.84699 -3.87537 0
M  V30 1384 C 124.099 -1.48902 -5.12508 0
M  V30 1385 O 124.322 -0.386156 -5.69091 0
M  V30 1386 O 123.256 -2.32033 -5.55378 0
M  V30 1387 H 127.082 -2.02924 -2.25954 0
M  V30 1388 H 124.667 -1.04618 -1.06656 0
M  V30 1389 H 126.549 -0.507609 -4.18332 0
M  V30 1390 H 125.224 0.214291 -3.2299 0
M  V30 1391 H 124.131 -2.09919 -3.09653 0
M  V30 1392 H 125.464 -2.74557 -4.08509 0
M  V30 1393 N 127.117 1.15442 -1.07289 0
M  V30 1394 C 128.533 1.38201 -0.798288 0
M  V30 1395 C 128.733 1.92429 0.597769 0
M  V30 1396 O 127.789 2.12962 1.3566 0
M  V30 1397 C 129.102 2.35357 -1.87156 0
M  V30 1398 C 130.65 2.49021 -1.89624 0
M  V30 1399 C 131.125 3.49468 -2.96034 0
M  V30 1400 N 132.616 3.57003 -2.95132 0
M  V30 1401 C 133.351 4.34543 -3.74112 0
M  V30 1402 N 132.847 5.15421 -4.6294 0
M  V30 1403 N 134.64 4.29625 -3.62462 0
M  V30 1404 H 126.791 0.78584 -1.97328 0
M  V30 1405 H 129.054 0.408065 -0.855679 0
M  V30 1406 H 128.76 2.02626 -2.87464 0
M  V30 1407 H 128.634 3.35129 -1.73114 0
M  V30 1408 H 131.021 2.81051 -0.899687 0
M  V30 1409 H 131.102 1.4925 -2.07745 0
M  V30 1410 H 130.746 3.18173 -3.95889 0
M  V30 1411 H 130.676 4.48992 -2.75161 0
M  V30 1412 H 133.167 2.99276 -2.30743 0
M  V30 1413 H 133.48 5.7183 -5.19837 0
M  V30 1414 H 131.825 5.14729 -4.66989 0
M  V30 1415 H 135.016 3.65505 -2.92444 0
M  V30 1416 H 135.189 4.89807 -4.24256 0
M  V30 1417 N 128.595 0.856903 1.32268 0
M  V30 1418 C 129.525 0.31858 2.31316 0
M  V30 1419 C 130.506 -0.583487 1.59779 0
M  V30 1420 O 131.691 -0.503259 1.87566 0
M  V30 1421 C 128.821 -0.491979 3.43798 0
M  V30 1422 C 127.775 0.315849 4.26833 0
M  V30 1423 C 127.101 -0.619586 5.31098 0
M  V30 1424 C 128.401 1.54282 4.98993 0
M  V30 1425 H 130.095 1.14621 2.76591 0
M  V30 1426 H 127.641 0.552613 1.32974 0
M  V30 1427 H 129.594 -0.879012 4.1213 0
M  V30 1428 H 128.318 -1.35299 2.97257 0
M  V30 1429 H 126.977 0.684664 3.6015 0
M  V30 1430 H 126.625 -1.47751 4.8081 0
M  V30 1431 H 126.325 -0.0830621 5.87541 0
M  V30 1432 H 127.849 -1.00375 6.02293 0
M  V30 1433 H 129.263 1.22796 5.59995 0
M  V30 1434 H 127.66 2.01745 5.65172 0
M  V30 1435 H 128.73 2.30285 4.26728 0
M  V30 1436 N 130.073 -1.45103 0.615059 0
M  V30 1437 C 131.02 -2.30586 -0.0993978 0
M  V30 1438 C 131.99 -1.42544 -0.852669 0
M  V30 1439 O 133.175 -1.71465 -0.836917 0
M  V30 1440 C 130.315 -3.27572 -1.08583 0
M  V30 1441 C 129.428 -4.30717 -0.332656 0
M  V30 1442 C 128.563 -5.14807 -1.30947 0
M  V30 1443 C 127.602 -6.09673 -0.544538 0
M  V30 1444 N 126.739 -6.86517 -1.47101 0
M  V30 1445 H 131.579 -2.91144 0.635542 0
M  V30 1446 H 129.116 -1.4346 0.325206 0
M  V30 1447 H 131.074 -3.82276 -1.67095 0
M  V30 1448 H 129.704 -2.68751 -1.78809 0
M  V30 1449 H 128.756 -3.78615 0.368107 0
M  V30 1450 H 130.068 -4.98102 0.263842 0
M  V30 1451 H 129.222 -5.73948 -1.96643 0
M  V30 1452 H 127.961 -4.47458 -1.9399 0
M  V30 1453 H 126.966 -5.49656 0.126003 0
M  V30 1454 H 128.191 -6.79052 0.080947 0
M  V30 1455 H 126.137 -6.21851 -2.08895 0
M  V30 1456 H 126.054 -7.50281 -0.928137 0
M  V30 1457 H 127.322 -7.50194 -2.11731 0
M  V30 1458 N 131.551 -0.354651 -1.53558 0
M  V30 1459 C 132.799 0.237972 -2.00694 0
M  V30 1460 C 133.12 1.50173 -1.24391 0
M  V30 1461 O 132.39 1.92673 -0.354135 0
M  V30 1462 H 130.97 0.0909256 -0.741446 0
M  V30 1463 H 133.632 -0.478368 -1.88938 0
M  V30 1464 H 132.728 0.47264 -3.085 0
M  V30 1465 N 133.029 1.57378 -0.0835403 0
M  V30 1466 C 134.276 1.9393 0.58287 0
M  V30 1467 C 134.604 0.964455 1.68904 0
M  V30 1468 O 133.859 -0.0179474 1.95692 0
M  V30 1469 C 134.158 3.37063 1.1884 0
M  V30 1470 C 133.824 4.50424 0.207194 0
M  V30 1471 C 132.486 4.81159 -0.0627115 0
M  V30 1472 C 134.838 5.19136 -0.463426 0
M  V30 1473 C 132.166 5.77939 -1.01012 0
M  V30 1474 C 134.518 6.16931 -1.39924 0
M  V30 1475 C 133.182 6.46078 -1.67749 0
M  V30 1476 H 132.452 0.70964 0.213287 0
M  V30 1477 H 135.099 1.90856 -0.156916 0
M  V30 1478 H 133.404 3.3666 2.00418 0
M  V30 1479 H 135.101 3.6264 1.71153 0
M  V30 1480 H 131.691 4.2646 0.427747 0
M  V30 1481 H 135.875 4.95576 -0.268034 0
M  V30 1482 H 131.131 5.98842 -1.23283 0
M  V30 1483 H 135.305 6.69273 -1.92476 0
M  V30 1484 H 132.932 7.2088 -2.41321 0
M  V30 1485 N 134.507 -0.190092 1.56449 0
M  V30 1486 C 135.457 -1.23977 1.91347 0
M  V30 1487 C 136.441 -1.40747 0.779693 0
M  V30 1488 O 137.633 -1.43033 1.04262 0
M  V30 1489 C 134.762 -2.58347 2.26079 0
M  V30 1490 C 133.848 -2.4535 3.45925 0
M  V30 1491 N 134.239 -2.02039 4.63696 0
M  V30 1492 C 132.537 -2.76229 3.50162 0
M  V30 1493 C 133.238 -2.01053 5.4585 0
M  V30 1494 N 132.214 -2.42747 4.8639 0
M  V30 1495 H 136.016 -0.896318 2.79899 0
M  V30 1496 H 133.53 -0.398496 1.57435 0
M  V30 1497 H 135.527 -3.34173 2.49267 0
M  V30 1498 H 134.187 -2.93512 1.38856 0
M  V30 1499 H 135.198 -1.7267 4.88268 0
M  V30 1500 H 131.875 -3.15556 2.73369 0
M  V30 1501 H 133.265 -1.69426 6.50188 0
M  V30 1502 N 135.985 -1.50799 -0.457987 0
M  V30 1503 C 136.948 -1.7005 -1.53674 0
M  V30 1504 C 137.948 -0.570881 -1.50325 0
M  V30 1505 O 139.138 -0.838126 -1.52712 0
M  V30 1506 C 136.27 -1.73788 -2.93276 0
M  V30 1507 H 137.463 -2.66306 -1.37917 0
M  V30 1508 H 135.016 -1.40477 -0.685271 0
M  V30 1509 H 135.751 -0.792717 -3.14462 0
M  V30 1510 H 135.536 -2.55864 -2.97113 0
M  V30 1511 H 137.026 -1.90591 -3.71571 0
M  V30 1512 N 137.463 0.71206 -1.40597 0
M  V30 1513 C 138.711 1.46907 -1.38791 0
M  V30 1514 C 139.032 1.94998 0.00780391 0
M  V30 1515 O 138.302 1.70587 0.963174 0
M  V30 1516 H 136.882 0.545043 -0.51082 0
M  V30 1517 H 139.544 0.843882 -1.75683 0
M  V30 1518 H 138.64 2.34021 -2.06496 0
M  V30 1519 N 138.941 1.26152 0.944643 0
M  V30 1520 C 140.187 1.11657 1.69294 0
M  V30 1521 C 140.52 -0.339926 1.91202 0
M  V30 1522 O 139.795 -1.24994 1.49019 0
M  V30 1523 C 140.078 1.88236 3.06984 0
M  V30 1524 C 139.931 3.41772 2.92424 0
M  V30 1525 C 141.25 1.67343 4.07043 0
M  V30 1526 H 138.369 0.407004 0.614424 0
M  V30 1527 H 141.011 1.55106 1.09737 0
M  V30 1528 H 139.161 1.51308 3.57824 0
M  V30 1529 H 140.833 3.88433 2.48832 0
M  V30 1530 H 139.076 3.68974 2.28124 0
M  V30 1531 H 139.747 3.90579 3.90067 0
M  V30 1532 H 142.223 1.99509 3.65151 0
M  V30 1533 H 141.099 2.23346 5.01406 0
M  V30 1534 H 141.36 0.617158 4.37771 0
M  V30 1535 N 140.419 -1.14872 1.07899 0
M  V30 1536 C 141.667 -1.85422 0.803941 0
M  V30 1537 C 141.988 -1.83051 -0.67211 0
M  V30 1538 O 141.258 -1.27532 -1.48703 0
M  V30 1539 H 139.838 -0.686537 0.294408 0
M  V30 1540 H 142.5 -1.39226 1.3639 0
M  V30 1541 H 141.596 -2.90399 1.14346 0
M  V30 1542 N 141.898 -0.863906 -1.31812 0
M  V30 1543 C 143.126 -0.486111 -2.01108 0
M  V30 1544 C 143.541 0.919755 -1.64882 0
M  V30 1545 O 142.898 1.60162 -0.874893 0
M  V30 1546 C 142.949 -0.626435 -3.56031 0
M  V30 1547 O 142.67 -1.97693 -3.90959 0
M  V30 1548 C 144.171 -0.248857 -4.42601 0
M  V30 1549 H 141.391 -0.190052 -0.643523 0
M  V30 1550 H 143.935 -1.1634 -1.68182 0
M  V30 1551 H 142.09 0.00322717 -3.874 0
M  V30 1552 H 142.504 -1.98034 -4.85678 0
M  V30 1553 H 143.978 -0.398016 -5.50563 0
M  V30 1554 H 144.455 0.811489 -4.31638 0
M  V30 1555 H 145.061 -0.853971 -4.16638 0
M  V30 1556 N 143.376 1.44774 -0.622745 0
M  V30 1557 C 144.622 2.0242 -0.124083 0
M  V30 1558 C 144.955 1.4881 1.24777 0
M  V30 1559 O 144.23 0.668799 1.8264 0
M  V30 1560 C 144.513 3.59957 -0.101619 0
M  V30 1561 C 144.366 4.23867 -1.50521 0
M  V30 1562 C 145.685 4.36284 0.578272 0
M  V30 1563 H 142.804 0.735528 -0.0465645 0
M  V30 1564 H 145.446 1.72447 -0.797617 0
M  V30 1565 H 143.596 3.85623 0.471934 0
M  V30 1566 H 145.268 4.09336 -2.12701 0
M  V30 1567 H 143.511 3.81684 -2.06154 0
M  V30 1568 H 144.182 5.32843 -1.4416 0
M  V30 1569 H 146.658 4.16001 0.0906057 0
M  V30 1570 H 145.534 5.46004 0.563149 0
M  V30 1571 H 145.795 4.10271 1.64713 0
M  V30 1572 N 144.854 0.36279 1.53368 0
M  V30 1573 C 145.784 -0.476976 2.28576 0
M  V30 1574 C 146.765 -1.08631 1.30894 0
M  V30 1575 O 147.95 -1.10409 1.59761 0
M  V30 1576 C 145.08 -1.61828 3.07293 0
M  V30 1577 C 144.034 -1.13633 4.1264 0
M  V30 1578 C 143.36 -2.36766 4.79423 0
M  V30 1579 C 144.66 -0.223061 5.21823 0
M  V30 1580 H 146.354 0.150474 2.99022 0
M  V30 1581 H 143.9 0.0738103 1.43811 0
M  V30 1582 H 145.853 -2.21237 3.58653 0
M  V30 1583 H 144.577 -2.27292 2.34533 0
M  V30 1584 H 143.236 -0.564945 3.62221 0
M  V30 1585 H 142.884 -3.0068 4.03238 0
M  V30 1586 H 142.584 -2.05192 5.50609 0
M  V30 1587 H 144.108 -2.96865 5.33576 0
M  V30 1588 H 145.522 -0.724545 5.68703 0
M  V30 1589 H 143.919 0.001678 6.001 0
M  V30 1590 H 144.989 0.735553 4.79289 0
M  V30 1591 N 146.332 -1.57332 0.0918853 0
M  V30 1592 C 147.579 -1.94236 -0.572577 0
M  V30 1593 C 147.907 -0.973398 -1.6839 0
M  V30 1594 O 147.162 0.00756912 -1.95699 0
M  V30 1595 C 147.461 -3.37689 -1.17051 0
M  V30 1596 C 147.127 -4.50527 -0.183304 0
M  V30 1597 C 145.789 -4.81119 0.0882276 0
M  V30 1598 C 148.141 -5.18883 0.49095 0
M  V30 1599 C 145.469 -5.77395 1.04076 0
M  V30 1600 C 147.821 -6.1618 1.43193 0
M  V30 1601 C 146.485 -6.45179 1.71173 0
M  V30 1602 H 145.755 -0.710762 -0.209521 0
M  V30 1603 H 148.402 -1.9077 0.167036 0
M  V30 1604 H 146.707 -3.37718 -1.9863 0
M  V30 1605 H 148.404 -3.63543 -1.69227 0
M  V30 1606 H 144.994 -4.26681 -0.405124 0
M  V30 1607 H 149.178 -4.95427 0.294312 0
M  V30 1608 H 144.434 -5.98179 1.26457 0
M  V30 1609 H 148.608 -6.68243 1.96023 0
M  V30 1610 H 146.235 -7.1959 2.4514 0
M  V30 1611 N 147.81 0.181792 -1.56548 0
M  V30 1612 C 149.057 0.900097 -1.81396 0
M  V30 1613 C 149.385 1.82695 -0.667281 0
M  V30 1614 O 148.64 1.92614 0.346146 0
M  V30 1615 C 148.939 1.73728 -3.12335 0
M  V30 1616 C 148.605 0.960255 -4.40556 0
M  V30 1617 C 147.267 0.745766 -4.75386 0
M  V30 1618 C 149.619 0.414477 -5.19549 0
M  V30 1619 C 146.947 -0.0257694 -5.86694 0
M  V30 1620 C 149.299 -0.343916 -6.31664 0
M  V30 1621 C 147.963 -0.569301 -6.65068 0
M  V30 1622 H 147.233 0.329369 -0.663775 0
M  V30 1623 H 149.88 0.165647 -1.90782 0
M  V30 1624 H 148.185 2.54081 -2.98245 0
M  V30 1625 H 149.882 2.29591 -3.28769 0
M  V30 1626 H 146.472 1.13746 -4.13231 0
M  V30 1627 H 150.656 0.567554 -4.93044 0
M  V30 1628 H 145.912 -0.210233 -6.11038 0
M  V30 1629 H 150.086 -0.774133 -6.92084 0
M  V30 1630 H 147.713 -1.16903 -7.51158 0
M  V30 1631 N 149.288 1.51039 0.449983 0
M  V30 1632 C 150.198 1.74261 1.57067 0
M  V30 1633 C 151.214 0.626363 1.62335 0
M  V30 1634 O 152.39 0.907162 1.79812 0
M  V30 1635 C 149.455 1.85114 2.93144 0
M  V30 1636 C 148.516 3.0893 2.98095 0
M  V30 1637 C 147.749 3.19256 4.27681 0
M  V30 1638 O 147.972 2.35835 5.19363 0
M  V30 1639 O 146.906 4.12144 4.38658 0
M  V30 1640 H 150.732 2.69303 1.40391 0
M  V30 1641 H 148.317 1.35389 0.631688 0
M  V30 1642 H 150.199 1.94311 3.73926 0
M  V30 1643 H 148.874 0.932588 3.09975 0
M  V30 1644 H 147.781 3.0522 2.16314 0
M  V30 1645 H 149.114 4.00433 2.86206 0
M  V30 1646 N 150.766 -0.704594 1.40972 0
M  V30 1647 C 152.043 -1.45847 1.30338 0
M  V30 1648 C 152.423 -2.10973 -0.0732344 0
M  V30 1649 O 151.771 -2.00997 -1.08685 0
M  V30 1650 C 151.981 -2.48525 2.45023 0
M  V30 1651 C 153.329 -3.1404 2.8577 0
M  V30 1652 O 154.353 -2.58848 2.44696 0
M  V30 1653 O 153.212 -4.13981 3.56766 0
M  V30 1654 H 150.306 -0.649092 0.512454 0
M  V30 1655 H 152.852 -0.735836 1.52917 0
M  V30 1656 H 151.624 -1.98994 3.36923 0
M  V30 1657 H 151.247 -3.2831 2.24272 0
M  V30 1658 N 152.244 -1.26651 -0.937939 0
M  V30 1659 C 153.176 -1.04283 -2.04102 0
M  V30 1660 C 154.189 -0.00221014 -1.628 0
M  V30 1661 O 155.378 -0.242645 -1.76843 0
M  V30 1662 C 152.478 -0.557846 -3.34277 0
M  V30 1663 C 151.651 -1.66843 -4.04329 0
M  V30 1664 C 150.71 -1.18095 -5.12777 0
M  V30 1665 O 149.736 -1.87865 -5.37304 0
M  V30 1666 N 150.938 -0.0311006 -5.80492 0
M  V30 1667 H 153.703 -1.9927 -2.23856 0
M  V30 1668 H 151.264 -1.1808 -1.10764 0
M  V30 1669 H 153.256 -0.215836 -4.04124 0
M  V30 1670 H 151.826 0.298523 -3.11171 0
M  V30 1671 H 151.046 -2.18123 -3.28353 0
M  V30 1672 H 152.334 -2.41408 -4.47883 0
M  V30 1673 H 151.732 0.551486 -5.63005 0
M  V30 1674 H 150.289 0.251809 -6.51313 0
M  V30 1675 N 153.722 1.14298 -1.08507 0
M  V30 1676 C 154.685 2.17607 -0.719711 0
M  V30 1677 C 155.685 1.58907 0.245997 0
M  V30 1678 O 156.875 1.74181 0.0254081 0
M  V30 1679 C 154.007 3.40842 -0.0627695 0
M  V30 1680 H 155.2 2.51443 -1.63452 0
M  V30 1681 H 152.753 1.28963 -0.88307 0
M  V30 1682 H 153.488 3.12587 0.863716 0
M  V30 1683 H 153.273 3.84713 -0.757504 0
M  V30 1684 H 154.763 4.17221 0.177786 0
M  V30 1685 N 155.201 0.870884 1.31352 0
M  V30 1686 C 156.429 0.49677 2.00848 0
M  V30 1687 C 156.844 -0.910998 1.65367 0
M  V30 1688 O 156.201 -1.59696 0.883374 0
M  V30 1689 C 156.252 0.645308 3.55694 0
M  V30 1690 O 155.973 1.99764 3.89905 0
M  V30 1691 C 157.474 0.272326 4.42463 0
M  V30 1692 H 154.694 0.193462 0.642506 0
M  V30 1693 H 157.238 1.1723 1.67563 0
M  V30 1694 H 155.393 0.0173176 3.87396 0
M  V30 1695 H 155.807 2.00607 4.84621 0
M  V30 1696 H 157.281 0.427208 5.50344 0
M  V30 1697 H 157.758 -0.788587 4.32062 0
M  V30 1698 H 158.364 0.876054 4.1618 0
M  V30 1699 N 156.679 -1.44442 0.630414 0
M  V30 1700 C 157.925 -2.02351 0.134816 0
M  V30 1701 C 158.258 -1.4947 -1.23986 0
M  V30 1702 O 157.533 -0.678475 -1.82283 0
M  V30 1703 C 157.816 -3.59898 0.120707 0
M  V30 1704 C 157.669 -4.23063 1.52767 0
M  V30 1705 C 158.988 -4.36585 -0.555127 0
M  V30 1706 H 156.107 -0.73527 0.0504646 0
M  V30 1707 H 158.749 -1.72022 0.806751 0
M  V30 1708 H 156.899 -3.85868 -0.451477 0
M  V30 1709 H 158.571 -4.08202 2.14869 0
M  V30 1710 H 156.814 -3.80586 2.08175 0
M  V30 1711 H 157.485 -5.32071 1.46984 0
M  V30 1712 H 159.961 -4.16044 -0.0685429 0
M  V30 1713 H 158.837 -5.46294 -0.534185 0
M  V30 1714 H 159.098 -4.11138 -1.62535 0
M  V30 1715 N 158.157 -0.370918 -1.53173 0
M  V30 1716 C 159.067 0.480823 -2.2962 0
M  V30 1717 C 160.083 1.08789 -1.35798 0
M  V30 1718 O 161.259 1.09768 -1.68858 0
M  V30 1719 C 158.324 1.60227 -3.07454 0
M  V30 1720 C 157.385 1.0222 -4.16953 0
M  V30 1721 C 156.618 2.0902 -4.91066 0
M  V30 1722 O 156.841 3.30222 -4.65091 0
M  V30 1723 O 155.775 1.71778 -5.76867 0
M  V30 1724 H 159.601 -0.141421 -3.03371 0
M  V30 1725 H 157.186 -0.135146 -1.48787 0
M  V30 1726 H 159.068 2.25417 -3.56041 0
M  V30 1727 H 157.743 2.20982 -2.36535 0
M  V30 1728 H 156.65 0.334064 -3.72605 0
M  V30 1729 H 157.983 0.459131 -4.90054 0
M  V30 1730 N 159.635 1.57281 -0.100228 0
M  V30 1731 C 160.582 2.14305 0.856858 0
M  V30 1732 C 161.552 1.06296 1.27634 0
M  V30 1733 O 162.737 1.34109 1.35718 0
M  V30 1734 C 159.877 2.73184 2.10866 0
M  V30 1735 C 158.99 3.95442 1.73925 0
M  V30 1736 C 158.125 4.42468 2.93931 0
M  V30 1737 C 157.164 5.57303 2.5314 0
M  V30 1738 N 156.301 5.99158 3.65997 0
M  V30 1739 H 161.141 2.95772 0.363726 0
M  V30 1740 H 158.678 1.46139 0.167858 0
M  V30 1741 H 160.636 3.05442 2.84185 0
M  V30 1742 H 159.266 1.94437 2.57671 0
M  V30 1743 H 158.318 3.69464 0.905554 0
M  V30 1744 H 159.63 4.78769 1.39935 0
M  V30 1745 H 158.784 4.76537 3.75496 0
M  V30 1746 H 157.523 3.58052 3.31134 0
M  V30 1747 H 156.528 5.22857 1.70003 0
M  V30 1748 H 157.753 6.43471 2.17075 0
M  V30 1749 H 155.699 5.17687 4.02909 0
M  V30 1750 H 155.616 6.77295 3.35869 0
M  V30 1751 H 156.884 6.3786 4.48057 0
M  V30 1752 N 161.113 -0.173488 1.56642 0
M  V30 1753 C 162.046 -1.24353 1.91342 0
M  V30 1754 C 163.024 -1.4289 0.775965 0
M  V30 1755 O 164.208 -1.57932 1.02907 0
M  V30 1756 C 161.335 -2.60683 2.16245 0
M  V30 1757 C 160.381 -2.58894 3.38934 0
M  V30 1758 S 161.214 -2.0819 4.93373 0
M  V30 1759 C 162.37 -3.46302 5.21369 0
M  V30 1760 H 162.603 -0.947345 2.81803 0
M  V30 1761 H 160.136 -0.377958 1.49703 0
M  V30 1762 H 162.094 -3.39149 2.31275 0
M  V30 1763 H 160.755 -2.87502 1.26496 0
M  V30 1764 H 159.948 -3.59188 3.53553 0
M  V30 1765 H 159.55 -1.88522 3.2301 0
M  V30 1766 H 161.842 -4.42287 5.13214 0
M  V30 1767 H 162.785 -3.3656 6.23003 0
M  V30 1768 H 163.193 -3.42214 4.48943 0
M  V30 1769 N 162.591 -1.51276 -0.441967 0
M  V30 1770 C 163.523 -1.68444 -1.55433 0
M  V30 1771 C 164.536 -0.565187 -1.52674 0
M  V30 1772 O 165.725 -0.839356 -1.57534 0
M  V30 1773 C 162.825 -1.67966 -2.94348 0
M  V30 1774 C 161.998 -2.964 -3.21661 0
M  V30 1775 C 161.057 -2.88171 -4.40277 0
M  V30 1776 O 160.083 -3.62119 -4.39157 0
M  V30 1777 N 161.285 -2.03706 -5.43584 0
M  V30 1778 H 164.05 -2.644 -1.41112 0
M  V30 1779 H 161.611 -1.49104 -0.630838 0
M  V30 1780 H 163.603 -1.60035 -3.71713 0
M  V30 1781 H 162.173 -0.796225 -3.0229 0
M  V30 1782 H 161.393 -3.18234 -2.32638 0
M  V30 1783 H 162.681 -3.81427 -3.36736 0
M  V30 1784 H 162.079 -1.42995 -5.47329 0
M  V30 1785 H 160.636 -2.01658 -6.1982 0
M  V30 1786 N 164.069 0.697108 -1.41344 0
M  V30 1787 C 164.979 1.84088 -1.45427 0
M  V30 1788 C 165.995 1.70545 -0.34501 0
M  V30 1789 O 167.171 1.92488 -0.592492 0
M  V30 1790 C 164.236 3.20056 -1.33286 0
M  V30 1791 C 163.297 3.45718 -2.54514 0
M  V30 1792 C 162.53 4.75199 -2.42944 0
M  V30 1793 O 162.753 5.51579 -1.45318 0
M  V30 1794 O 161.687 5.0161 -3.32672 0
M  V30 1795 H 165.513 1.836 -2.41919 0
M  V30 1796 H 163.098 0.849966 -1.22866 0
M  V30 1797 H 164.98 4.01236 -1.28794 0
M  V30 1798 H 163.655 3.2123 -0.39909 0
M  V30 1799 H 162.562 2.64474 -2.64583 0
M  V30 1800 H 163.895 3.49356 -3.46715 0
M  V30 1801 N 165.547 1.27147 0.931209 0
M  V30 1802 C 166.495 1.09398 2.05268 0
M  V30 1803 C 167.489 0.0180591 1.6939 0
M  V30 1804 O 168.695 0.17551 1.79142 0
M  V30 1805 H 165.07 0.336986 0.672268 0
M  V30 1806 H 167.041 2.04416 2.17386 0
M  V30 1807 C 165.79 0.75424 3.39421 0
M  V30 1808 H 165.113 1.57404 3.67511 0
M  V30 1809 H 166.553 0.669903 4.18674 0
M  V30 1810 C 165.012 -0.541197 3.32525 0
M  V30 1811 O 165.542 -1.57664 3.69466 0
M  V30 1812 N 163.748 -0.535517 2.85623 0
M  V30 1813 H 163.295 0.307511 2.55758 0
M  V30 1814 H 163.253 -1.40236 2.81392 0
M  V30 1815 N 167.025 -1.13721 1.09112 0
M  V30 1816 C 167.988 -2.17222 0.731241 0
M  V30 1817 C 168.988 -1.59035 -0.237566 0
M  V30 1818 O 170.178 -1.74192 -0.0161704 0
M  V30 1819 C 167.31 -3.40804 0.0808443 0
M  V30 1820 H 168.503 -2.50573 1.64783 0
M  V30 1821 H 166.056 -1.28493 0.889897 0
M  V30 1822 H 166.791 -3.1304 -0.847127 0
M  V30 1823 H 166.576 -3.84306 0.777896 0
M  V30 1824 H 168.066 -4.1731 -0.155657 0
M  V30 1825 N 168.503 -0.877838 -1.30888 0
M  V30 1826 C 169.914 -0.544193 -1.78593 0
M  V30 1827 C 170.265 0.939301 -1.72254 0
M  V30 1828 O 169.39 1.7337 -1.29505 0
M  V30 1829 C 169.985 -0.98105 -3.24285 0
M  V30 1830 C 168.544 -0.698935 -3.69854 0
M  V30 1831 C 167.691 -1.168 -2.51502 0
M  V30 1832 H 170.642 -1.06278 -1.17859 0
M  V30 1833 H 170.663 -0.307009 -3.79259 0
M  V30 1834 H 170.175 -2.06079 -3.28866 0
M  V30 1835 H 168.276 0.369112 -3.70767 0
M  V30 1836 H 168.389 -1.28148 -4.61644 0
M  V30 1837 H 166.753 -0.587535 -2.47831 0
M  V30 1838 H 167.536 -2.25533 -2.58824 0
M  V30 1839 N 169.982 1.44106 -0.638065 0
M  V30 1840 C 170.912 2.33448 0.0494287 0
M  V30 1841 C 171.893 1.48606 0.827672 0
M  V30 1842 O 173.078 1.77308 0.792173 0
M  V30 1843 C 170.208 3.31771 1.02691 0
M  V30 1844 C 169.162 4.26485 0.359823 0
M  V30 1845 C 168.488 5.14729 1.44769 0
M  V30 1846 C 169.788 5.17056 -0.738296 0
M  V30 1847 H 171.482 2.91183 -0.696636 0
M  V30 1848 H 169.028 1.40014 -0.336456 0
M  V30 1849 H 170.981 3.93161 1.51666 0
M  V30 1850 H 169.705 2.7226 1.80395 0
M  V30 1851 H 168.364 3.66437 -0.10934 0
M  V30 1852 H 168.012 4.51566 2.21578 0
M  V30 1853 H 167.712 5.78913 1.00668 0
M  V30 1854 H 169.236 5.78991 1.93911 0
M  V30 1855 H 170.65 5.72342 -0.331354 0
M  V30 1856 H 169.047 5.89879 -1.10286 0
M  V30 1857 H 170.117 4.57652 -1.60258 0
M  V30 1858 N 171.46 0.379036 1.52974 0
M  V30 1859 C 172.69 -0.20649 2.05566 0
M  V30 1860 C 173.098 -1.41906 1.25137 0
M  V30 1861 O 172.441 -1.81421 0.288464 0
M  V30 1862 C 172.503 -0.651086 3.53555 0
M  V30 1863 C 172.167 0.446626 4.54812 0
M  V30 1864 C 173.164 1.30079 5.03364 0
M  V30 1865 C 170.849 0.610719 4.98573 0
M  V30 1866 C 172.843 2.30426 5.94292 0
M  V30 1867 C 170.53 1.61754 5.89304 0
M  V30 1868 C 171.528 2.46274 6.37054 0
M  V30 1869 O 171.216 3.45237 7.25994 0
M  V30 1870 H 170.948 -0.0372381 0.674974 0
M  V30 1871 H 173.502 0.539718 1.98182 0
M  V30 1872 H 171.732 -1.44911 3.58522 0
M  V30 1873 H 173.421 -1.16112 3.88938 0
M  V30 1874 H 174.187 1.18527 4.70294 0
M  V30 1875 H 170.066 -0.0374044 4.60985 0
M  V30 1876 H 173.61 2.96432 6.31485 0
M  V30 1877 H 169.507 1.73348 6.21788 0
M  V30 1878 H 170.275 3.41124 7.44027 0
M  V30 1879 N 172.938 -1.57226 0.108567 0
M  V30 1880 C 173.885 -2.14756 -0.845481 0
M  V30 1881 C 174.855 -1.06971 -1.27068 0
M  V30 1882 O 176.04 -1.34827 -1.35005 0
M  V30 1883 C 173.18 -2.74298 -2.09415 0
M  V30 1884 C 172.293 -3.96358 -1.71826 0
M  V30 1885 C 171.428 -4.44021 -2.9158 0
M  V30 1886 C 170.467 -5.58637 -2.50181 0
M  V30 1887 N 169.604 -6.01091 -3.62814 0
M  V30 1888 H 174.444 -2.95961 -0.348035 0
M  V30 1889 H 171.981 -1.46226 -0.160106 0
M  V30 1890 H 173.939 -3.06945 -2.82561 0
M  V30 1891 H 172.569 -1.95801 -2.56636 0
M  V30 1892 H 171.621 -3.69939 -0.885947 0
M  V30 1893 H 172.933 -4.79504 -1.37394 0
M  V30 1894 H 172.087 -4.78522 -3.72963 0
M  V30 1895 H 170.826 -3.59803 -3.29231 0
M  V30 1896 H 169.831 -5.23751 -1.67228 0
M  V30 1897 H 171.056 -6.44613 -2.13659 0
M  V30 1898 H 169.002 -5.19817 -4.00158 0
M  V30 1899 H 168.919 -6.79066 -3.32273 0
M  V30 1900 H 170.187 -6.40227 -4.44668 0
M  V30 1901 N 174.416 0.165178 -1.56732 0
M  V30 1902 C 175.693 0.908443 -1.73224 0
M  V30 1903 C 176.073 2.0013 -0.67165 0
M  V30 1904 O 175.421 2.26353 0.31253 0
M  V30 1905 C 175.631 1.46756 -3.16644 0
M  V30 1906 C 176.979 1.93809 -3.77787 0
M  V30 1907 O 178.003 1.56537 -3.1996 0
M  V30 1908 O 176.862 2.62486 -4.79336 0
M  V30 1909 H 173.956 0.428025 -0.707618 0
M  V30 1910 H 176.502 0.152526 -1.69013 0
M  V30 1911 H 175.274 0.68129 -3.85323 0
M  V30 1912 H 174.897 2.28749 -3.25207 0
M  V30 1913 N 175.894 1.51508 0.433938 0
M  V30 1914 C 176.826 1.69266 1.54537 0
M  V30 1915 C 177.839 0.573276 1.52373 0
M  V30 1916 O 179.028 0.847698 1.57087 0
M  V30 1917 C 176.128 1.69524 2.93453 0
M  V30 1918 C 175.301 2.98101 3.20085 0
M  V30 1919 C 174.36 2.90502 4.38742 0
M  V30 1920 O 173.386 3.64442 4.3723 0
M  V30 1921 N 174.588 2.06586 5.42496 0
M  V30 1922 H 177.353 2.65145 1.39708 0
M  V30 1923 H 174.914 1.49437 0.622922 0
M  V30 1924 H 176.906 1.62004 3.70859 0
M  V30 1925 H 175.476 0.812245 3.01863 0
M  V30 1926 H 174.696 3.19464 2.30947 0
M  V30 1927 H 175.984 3.83207 3.34708 0
M  V30 1928 H 175.382 1.45896 5.46563 0
M  V30 1929 H 173.939 2.04943 6.18742 0
M  V30 1930 N 177.372 -0.689602 1.41712 0
M  V30 1931 C 178.619 -1.44966 1.4139 0
M  V30 1932 C 178.947 -1.94484 0.025105 0
M  V30 1933 O 178.202 -1.70307 -0.964048 0
M  V30 1934 C 178.501 -2.67298 2.37247 0
M  V30 1935 C 178.167 -2.36405 3.83958 0
M  V30 1936 C 176.829 -2.27691 4.23923 0
M  V30 1937 C 179.181 -2.11043 4.76561 0
M  V30 1938 C 176.509 -1.91719 5.54492 0
M  V30 1939 C 178.861 -1.76578 6.07456 0
M  V30 1940 C 177.525 -1.66363 6.46436 0
M  V30 1941 H 176.795 -0.53047 0.517381 0
M  V30 1942 H 179.442 -0.787655 1.74552 0
M  V30 1943 H 177.747 -3.38461 1.9736 0
M  V30 1944 H 179.444 -3.25452 2.34269 0
M  V30 1945 H 176.034 -2.44085 3.52308 0
M  V30 1946 H 180.218 -2.16717 4.46483 0
M  V30 1947 H 175.474 -1.82367 5.83568 0
M  V30 1948 H 179.648 -1.55974 6.78708 0
M  V30 1949 H 177.275 -1.38258 7.47522 0
M  V30 1950 N 178.85 -1.27639 -0.924453 0
M  V30 1951 C 180.261 -1.12834 -1.48746 0
M  V30 1952 C 180.612 0.285505 -1.94112 0
M  V30 1953 O 179.737 1.17874 -1.81479 0
M  V30 1954 C 180.332 -2.04217 -2.70334 0
M  V30 1955 C 178.891 -1.93509 -3.22848 0
M  V30 1956 C 178.038 -1.96583 -1.95577 0
M  V30 1957 H 180.989 -1.40484 -0.738233 0
M  V30 1958 H 181.01 -1.59989 -3.4523 0
M  V30 1959 H 180.522 -3.07111 -2.37285 0
M  V30 1960 H 178.623 -0.936131 -3.60649 0
M  V30 1961 H 178.736 -2.79917 -3.88823 0
M  V30 1962 H 177.1 -1.4085 -2.12211 0
M  V30 1963 H 177.883 -3.01137 -1.64837 0
M  V30 1964 N 180.328 1.1314 -1.09713 0
M  V30 1965 C 181.575 1.84484 -0.834987 0
M  V30 1966 C 181.903 1.83689 0.639418 0
M  V30 1967 O 181.158 1.2724 1.4869 0
M  V30 1968 C 181.457 3.32167 -1.3191 0
M  V30 1969 C 181.123 3.53139 -2.80363 0
M  V30 1970 C 179.785 3.58571 -3.20905 0
M  V30 1971 C 182.137 3.60866 -3.76065 0
M  V30 1972 C 179.465 3.69267 -4.55916 0
M  V30 1973 C 181.817 3.73089 -5.10869 0
M  V30 1974 C 180.481 3.76775 -5.50996 0
M  V30 1975 H 179.751 0.675073 -0.305544 0
M  V30 1976 H 182.398 1.33554 -1.37243 0
M  V30 1977 H 180.703 3.85469 -0.701517 0
M  V30 1978 H 182.4 3.85821 -1.09284 0
M  V30 1979 H 178.99 3.49569 -2.47991 0
M  V30 1980 H 183.174 3.55946 -3.45855 0
M  V30 1981 H 178.43 3.70388 -4.86438 0
M  V30 1982 H 182.604 3.78011 -5.84877 0
M  V30 1983 H 180.231 3.84815 -6.55608 0
M  V30 1984 N 181.806 0.884767 1.30421 0
M  V30 1985 C 183.052 0.513218 1.96819 0
M  V30 1986 C 183.407 -0.927347 1.68577 0
M  V30 1987 O 182.7 -1.64644 0.979941 0
M  V30 1988 C 182.894 0.724318 3.49983 0
M  V30 1989 C 182.723 2.18385 3.93113 0
M  V30 1990 C 181.493 2.82839 4.18725 0
M  V30 1991 C 183.691 3.15763 4.05953 0
M  V30 1992 N 181.673 4.1939 4.48314 0
M  V30 1993 C 183.044 4.37387 4.39423 0
M  V30 1994 C 185.099 3.11555 3.88379 0
M  V30 1995 C 183.802 5.55343 4.5715 0
M  V30 1996 C 185.828 4.28782 4.07308 0
M  V30 1997 C 185.19 5.49172 4.41123 0
M  V30 1998 H 181.289 0.237123 0.745182 0
M  V30 1999 H 183.873 1.14246 1.57658 0
M  V30 2000 H 182.044 0.124565 3.882 0
M  V30 2001 H 183.776 0.31969 4.03435 0
M  V30 2002 H 180.531 2.33708 4.11919 0
M  V30 2003 H 180.955 4.89911 4.67243 0
M  V30 2004 H 185.597 2.19576 3.61312 0
M  V30 2005 H 183.315 6.47826 4.8306 0
M  V30 2006 H 186.901 4.26995 3.95179 0
M  V30 2007 H 185.781 6.38371 4.55469 0
M  V30 2008 N 183.284 -1.43765 0.645699 0
M  V30 2009 C 184.509 -2.06767 0.161883 0
M  V30 2010 C 184.934 -1.48034 -1.16049 0
M  V30 2011 O 184.292 -0.587369 -1.71522 0
M  V30 2012 C 184.34 -3.60519 0.0762003 0
M  V30 2013 O 183.444 -4.00982 -0.963721 0
M  V30 2014 H 182.785 -0.657675 0.091429 0
M  V30 2015 H 185.315 -1.84397 0.886499 0
M  V30 2016 H 185.325 -4.07853 -0.109604 0
M  V30 2017 H 184 -4.02646 1.04157 0
M  V30 2018 H 182.577 -3.65253 -0.751312 0
M  V30 2019 N 184.763 -0.387143 -1.52771 0
M  V30 2020 C 185.713 0.465942 -2.23188 0
M  V30 2021 C 186.697 1.03138 -1.23496 0
M  V30 2022 O 187.889 0.957845 -1.48843 0
M  V30 2023 C 185.018 1.59384 -3.04059 0
M  V30 2024 C 184.104 1.04024 -4.11144 0
M  V30 2025 N 184.495 0.211416 -5.05358 0
M  V30 2026 C 182.793 1.31295 -4.26237 0
M  V30 2027 C 183.494 -0.0941698 -5.81624 0
M  V30 2028 N 182.47 0.509207 -5.4121 0
M  V30 2029 H 186.272 -0.173856 -2.93385 0
M  V30 2030 H 183.786 -0.19633 -1.61209 0
M  V30 2031 H 185.783 2.21738 -3.53041 0
M  V30 2032 H 184.443 2.23648 -2.35397 0
M  V30 2033 H 185.454 -0.151151 -5.17679 0
M  V30 2034 H 182.131 1.95679 -3.68803 0
M  V30 2035 H 183.521 -0.765572 -6.67524 0
M  V30 2036 N 186.241 1.57166 -0.116904 0
M  V30 2037 C 187.173 2.12271 0.864507 0
M  V30 2038 C 188.186 1.06494 1.23138 0
M  V30 2039 O 189.375 1.33873 1.18069 0
M  V30 2040 C 186.475 2.60564 2.16702 0
M  V30 2041 C 185.648 3.90416 1.97216 0
M  V30 2042 C 184.707 4.24329 3.11178 0
M  V30 2043 O 183.733 4.93182 2.84184 0
M  V30 2044 N 184.935 3.8148 4.37554 0
M  V30 2045 H 187.7 2.97102 0.393726 0
M  V30 2046 H 185.261 1.61759 0.0675805 0
M  V30 2047 H 187.253 2.80282 2.91932 0
M  V30 2048 H 185.823 1.80623 2.55135 0
M  V30 2049 H 185.043 3.79627 1.06192 0
M  V30 2050 H 186.331 4.75327 1.81499 0
M  V30 2051 H 185.729 3.25943 4.62361 0
M  V30 2052 H 184.286 4.06311 5.09661 0
M  V30 2053 N 187.719 -0.156864 1.56817 0
M  V30 2054 C 188.967 -0.869404 1.82444 0
M  V30 2055 C 189.288 -1.82147 0.69623 0
M  V30 2056 O 188.558 -1.93847 -0.28287 0
M  V30 2057 H 187.138 -0.324043 0.673056 0
M  V30 2058 H 189.8 -0.153224 1.94297 0
M  V30 2059 H 188.896 -1.43761 2.77019 0
M  V30 2060 N 189.197 -1.51736 -0.425897 0
M  V30 2061 C 190.145 -1.74464 -1.53834 0
M  V30 2062 C 191.139 -0.611241 -1.57988 0
M  V30 2063 O 192.345 -0.792899 -1.61596 0
M  V30 2064 H 188.72 -0.551437 -0.511293 0
M  V30 2065 H 190.691 -2.67694 -1.31843 0
M  V30 2066 C 189.44 -1.8972 -2.91379 0
M  V30 2067 H 188.763 -2.76344 -2.88919 0
M  V30 2068 H 190.203 -2.09629 -3.68553 0
M  V30 2069 C 188.662 -0.65992 -3.30374 0
M  V30 2070 O 189.192 0.180083 -4.01296 0
M  V30 2071 N 187.398 -0.500677 -2.86254 0
M  V30 2072 H 186.945 -1.18532 -2.28709 0
M  V30 2073 H 186.903 0.325903 -3.12706 0
M  V30 2074 N 190.675 0.682077 -1.42076 0
M  V30 2075 C 191.638 1.77756 -1.44691 0
M  V30 2076 C 192.638 1.5726 -0.335535 0
M  V30 2077 O 193.828 1.63686 -0.596037 0
M  V30 2078 C 190.96 3.16301 -1.27146 0
M  V30 2079 H 192.153 1.76826 -2.42224 0
M  V30 2080 H 189.706 0.891012 -1.28416 0
M  V30 2081 H 190.441 3.22862 -0.305075 0
M  V30 2082 H 190.226 3.32581 -2.07683 0
M  V30 2083 H 191.716 3.96241 -1.31843 0
M  V30 2084 N 192.153 1.28127 0.917671 0
M  V30 2085 C 193.086 1.06039 2.02067 0
M  V30 2086 C 194.064 -0.0223285 1.62585 0
M  V30 2087 O 195.248 0.124823 1.88086 0
M  V30 2088 C 192.375 0.610596 3.33151 0
M  V30 2089 C 191.421 1.68937 3.91615 0
M  V30 2090 S 192.254 3.28437 4.22953 0
M  V30 2091 C 193.41 2.85283 5.57103 0
M  V30 2092 H 193.643 1.99425 2.20493 0
M  V30 2093 H 191.176 1.12071 1.06205 0
M  V30 2094 H 193.134 0.357778 4.08938 0
M  V30 2095 H 191.795 -0.303364 3.12632 0
M  V30 2096 H 190.988 1.32619 4.86239 0
M  V30 2097 H 190.59 1.89478 3.2245 0
M  V30 2098 H 192.882 2.3121 6.36827 0
M  V30 2099 H 193.825 3.7869 5.98331 0
M  V30 2100 H 194.233 2.24118 5.18104 0
M  V30 2101 N 193.631 -1.12557 1.10312 0
M  V30 2102 C 194.561 -2.20341 0.772798 0
M  V30 2103 C 195.542 -1.68198 -0.25365 0
M  V30 2104 O 196.727 -1.93831 -0.119699 0
M  V30 2105 C 193.857 -3.46709 0.202443 0
M  V30 2106 C 192.811 -4.11996 1.15943 0
M  V30 2107 C 192.137 -5.328 0.450345 0
M  V30 2108 C 193.437 -4.5828 2.50552 0
M  V30 2109 H 195.131 -2.48229 1.674 0
M  V30 2110 H 192.677 -1.19308 0.806326 0
M  V30 2111 H 194.63 -4.2138 -0.0407752 0
M  V30 2112 H 193.354 -3.18245 -0.734001 0
M  V30 2113 H 192.013 -3.39305 1.38808 0
M  V30 2114 H 191.661 -5.00602 -0.490531 0
M  V30 2115 H 191.361 -5.7743 1.08851 0
M  V30 2116 H 192.885 -6.10219 0.215642 0
M  V30 2117 H 194.299 -5.2433 2.31843 0
M  V30 2118 H 192.696 -5.13683 3.10242 0
M  V30 2119 H 193.766 -3.72329 3.10643 0
M  V30 2120 N 195.109 -0.891671 -1.2995 0
M  V30 2121 C 196.041 -0.320695 -2.26945 0
M  V30 2122 C 197.054 0.528497 -1.53983 0
M  V30 2123 O 198.243 0.346959 -1.75096 0
M  V30 2124 C 195.343 0.562066 -3.34207 0
M  V30 2125 C 194.516 -0.259576 -4.36629 0
M  V30 2126 C 193.575 0.554739 -5.23268 0
M  V30 2127 O 192.601 -0.0249311 -5.69195 0
M  V30 2128 N 193.803 1.8625 -5.4981 0
M  V30 2129 H 196.568 -1.15432 -2.76578 0
M  V30 2130 H 194.129 -0.755336 -1.432 0
M  V30 2131 H 196.121 1.11304 -3.89093 0
M  V30 2132 H 194.691 1.29637 -2.84452 0
M  V30 2133 H 193.911 -0.991986 -3.81514 0
M  V30 2134 H 195.199 -0.822564 -5.02107 0
M  V30 2135 H 194.597 2.35628 -5.14292 0
M  V30 2136 H 193.154 2.36078 -6.07545 0
M  V30 2137 N 196.587 1.43421 -0.653314 0
M  V30 2138 C 197.537 2.2792 0.060558 0
M  V30 2139 C 198.521 1.39906 0.794677 0
M  V30 2140 O 199.713 1.63536 0.677128 0
M  V30 2141 C 196.842 3.27603 1.0262 0
M  V30 2142 C 195.928 4.23104 0.290551 0
M  V30 2143 N 196.319 5.01031 -0.692967 0
M  V30 2144 C 194.617 4.42816 0.531984 0
M  V30 2145 C 195.318 5.70626 -1.12963 0
M  V30 2146 N 194.294 5.41617 -0.463867 0
M  V30 2147 H 198.096 2.85585 -0.694143 0
M  V30 2148 H 195.61 1.55126 -0.480602 0
M  V30 2149 H 197.607 3.86918 1.55242 0
M  V30 2150 H 196.267 2.71499 1.78096 0
M  V30 2151 H 197.278 5.0669 -1.07169 0
M  V30 2152 H 193.955 3.97782 1.26791 0
M  V30 2153 H 195.345 6.4318 -1.94343 0
M  V30 2154 N 198.065 0.39524 1.52563 0
M  V30 2155 C 199.293 -0.184943 2.06072 0
M  V30 2156 C 199.708 -1.40021 1.26647 0
M  V30 2157 O 199.065 -1.79767 0.314672 0
M  V30 2158 C 199.116 -0.549179 3.57304 0
M  V30 2159 O 198.837 0.617813 4.33722 0
M  V30 2160 C 200.338 -1.18459 4.2718 0
M  V30 2161 H 197.558 -0.0265025 0.670476 0
M  V30 2162 H 200.102 0.562184 1.96621 0
M  V30 2163 H 198.257 -1.2462 3.66809 0
M  V30 2164 H 198.671 0.317091 5.23541 0
M  V30 2165 H 200.145 -1.38976 5.34219 0
M  V30 2166 H 200.622 -2.15368 3.82771 0
M  V30 2167 H 201.228 -0.528163 4.22008 0
M  V30 2168 N 199.544 -1.57102 0.125237 0
M  V30 2169 C 200.79 -1.95697 -0.532035 0
M  V30 2170 C 201.123 -1.009 -1.6593 0
M  V30 2171 O 200.398 -0.047347 -1.94442 0
M  V30 2172 C 200.681 -3.44181 -1.05884 0
M  V30 2173 C 200.534 -4.49752 0.0654392 0
M  V30 2174 C 201.853 -3.94655 -1.9477 0
M  V30 2175 H 198.972 -0.711571 -0.191925 0
M  V30 2176 H 201.614 -1.88923 0.20206 0
M  V30 2177 H 199.764 -3.50085 -1.68442 0
M  V30 2178 H 201.436 -4.55943 0.700982 0
M  V30 2179 H 199.679 -4.27653 0.727709 0
M  V30 2180 H 200.35 -5.50924 -0.344505 0
M  V30 2181 H 202.826 -3.91094 -1.42074 0
M  V30 2182 H 201.702 -4.99057 -2.28546 0
M  V30 2183 H 201.963 -3.35718 -2.87656 0
M  V30 2184 N 201.022 0.148545 -1.56898 0
M  V30 2185 C 202.268 0.857877 -1.84424 0
M  V30 2186 C 202.623 1.7886 -0.709006 0
M  V30 2187 O 201.916 1.89344 0.293139 0
M  V30 2188 C 202.11 1.67064 -3.1595 0
M  V30 2189 C 201.939 0.82011 -4.42159 0
M  V30 2190 C 200.709 0.486328 -5.02954 0
M  V30 2191 C 202.907 0.151155 -5.14078 0
M  V30 2192 N 200.889 -0.377956 -6.12735 0
M  V30 2193 C 202.26 -0.573333 -6.17343 0
M  V30 2194 C 204.315 0.0716685 -4.97848 0
M  V30 2195 C 203.018 -1.3698 -7.06137 0
M  V30 2196 C 205.044 -0.711532 -5.87104 0
M  V30 2197 C 204.406 -1.42431 -6.8985 0
M  V30 2198 H 200.505 0.291798 -0.725519 0
M  V30 2199 H 203.089 0.123347 -1.94309 0
M  V30 2200 H 201.26 2.37642 -3.07215 0
M  V30 2201 H 202.992 2.32302 -3.31388 0
M  V30 2202 H 199.747 0.821753 -4.66416 0
M  V30 2203 H 200.171 -0.801077 -6.72244 0
M  V30 2204 H 204.813 0.608381 -4.184 0
M  V30 2205 H 202.531 -1.91778 -7.85014 0
M  V30 2206 H 206.117 -0.775005 -5.76615 0
M  V30 2207 H 204.997 -2.02061 -7.57721 0
M  V30 2208 N 202.5 1.5196 0.417844 0
M  V30 2209 C 203.433 1.69387 1.52916 0
M  V30 2210 C 204.411 0.541419 1.53321 0
M  V30 2211 O 205.595 0.767695 1.72159 0
M  V30 2212 C 202.722 1.72525 2.91467 0
M  V30 2213 C 201.768 2.93967 3.09008 0
M  V30 2214 S 202.601 4.54461 2.83242 0
M  V30 2215 C 203.757 4.60372 4.24038 0
M  V30 2216 H 203.99 2.63382 1.37903 0
M  V30 2217 H 201.523 1.41889 0.608845 0
M  V30 2218 H 203.481 1.75018 3.7132 0
M  V30 2219 H 202.142 0.796733 3.03827 0
M  V30 2220 H 201.335 2.92619 4.10353 0
M  V30 2221 H 200.937 2.89316 2.37007 0
M  V30 2222 H 203.229 4.37213 5.17544 0
M  V30 2223 H 204.172 5.62273 4.30412 0
M  V30 2224 H 204.58 3.89492 4.08602 0
M  V30 2225 N 203.978 -0.674533 1.42435 0
M  V30 2226 C 204.908 -1.80009 1.48724 0
M  V30 2227 C 205.889 -1.6659 0.343793 0
M  V30 2228 O 207.074 -1.86007 0.558137 0
M  V30 2229 C 204.204 -3.18306 1.38919 0
M  V30 2230 C 203.158 -3.46461 2.51294 0
M  V30 2231 C 202.484 -4.84335 2.26547 0
M  V30 2232 C 203.784 -3.43328 3.93603 0
M  V30 2233 H 205.478 -1.75004 2.42928 0
M  V30 2234 H 203.024 -0.840533 1.16923 0
M  V30 2235 H 204.977 -3.9678 1.41927 0
M  V30 2236 H 203.701 -3.2399 0.412094 0
M  V30 2237 H 202.36 -2.70348 2.47604 0
M  V30 2238 H 202.008 -4.86669 1.2713 0
M  V30 2239 H 201.708 -5.04136 3.01861 0
M  V30 2240 H 203.232 -5.65094 2.31304 0
M  V30 2241 H 204.646 -4.11772 3.98894 0
M  V30 2242 H 203.043 -3.74664 4.68771 0
M  V30 2243 H 204.113 -2.41897 4.20255 0
M  V30 2244 N 205.456 -1.28612 -0.910864 0
M  V30 2245 C 206.386 -1.15326 -2.03032 0
M  V30 2246 C 207.367 -0.0502924 -1.70026 0
M  V30 2247 O 208.552 -0.227797 -1.92859 0
M  V30 2248 C 205.682 -0.817343 -3.37545 0
M  V30 2249 C 204.636 -1.8754 -3.84724 0
M  V30 2250 C 203.962 -1.39305 -5.16235 0
M  V30 2251 C 205.262 -3.28244 -4.06267 0
M  V30 2252 H 206.956 -2.08975 -2.14406 0
M  V30 2253 H 204.502 -1.00612 -1.03021 0
M  V30 2254 H 206.455 -0.711151 -4.15356 0
M  V30 2255 H 205.179 0.154846 -3.26233 0
M  V30 2256 H 203.838 -1.97079 -3.09121 0
M  V30 2257 H 203.486 -0.409846 -5.01328 0
M  V30 2258 H 203.186 -2.10057 -5.48771 0
M  V30 2259 H 204.71 -1.30014 -5.96598 0
M  V30 2260 H 206.124 -3.21611 -4.74594 0
M  V30 2261 H 204.521 -3.96855 -4.5014 0
M  V30 2262 H 205.591 -3.72048 -3.10979 0
M  V30 2263 N 206.934 1.1197 -1.10907 0
M  V30 2264 C 208.159 1.87942 -0.877064 0
M  V30 2265 C 208.584 1.79341 0.567314 0
M  V30 2266 O 207.942 1.15184 1.40009 0
M  V30 2267 C 207.99 3.34926 -1.33629 0
M  V30 2268 O 207.094 4.09303 -0.504447 0
M  V30 2269 H 206.435 0.583785 -0.316371 0
M  V30 2270 H 208.965 1.4157 -1.47712 0
M  V30 2271 H 208.975 3.8577 -1.32837 0
M  V30 2272 H 207.65 3.40504 -2.3881 0
M  V30 2273 H 206.227 3.68393 -0.577993 0
M  V30 2274 N 208.412 0.89855 1.29475 0
M  V30 2275 C 209.375 0.380272 2.26023 0
M  V30 2276 C 210.375 -0.484891 1.53315 0
M  V30 2277 O 211.565 -0.290108 1.71767 0
M  V30 2278 C 208.697 -0.45651 3.3783 0
M  V30 2279 H 209.89 1.23295 2.73383 0
M  V30 2280 H 207.443 0.676589 1.40897 0
M  V30 2281 H 208.178 -1.32922 2.95808 0
M  V30 2282 H 207.963 0.163393 3.91759 0
M  V30 2283 H 209.453 -0.810466 4.0966 0
M  V30 2284 N 209.89 -1.43072 0.660911 0
M  V30 2285 C 210.8 -2.34585 -0.0264163 0
M  V30 2286 C 211.816 -1.54316 -0.803898 0
M  V30 2287 O 212.992 -1.86939 -0.749391 0
M  V30 2288 C 210.057 -3.32689 -0.975639 0
M  V30 2289 C 209.118 -4.2886 -0.194236 0
M  V30 2290 C 208.351 -5.22278 -1.09825 0
M  V30 2291 O 208.574 -5.20299 -2.33763 0
M  V30 2292 O 207.508 -5.99228 -0.566513 0
M  V30 2293 H 211.334 -2.94869 0.727034 0
M  V30 2294 H 208.919 -1.43342 0.42111 0
M  V30 2295 H 210.801 -3.92995 -1.52094 0
M  V30 2296 H 209.476 -2.74898 -1.70918 0
M  V30 2297 H 208.383 -3.72011 0.394835 0
M  V30 2298 H 209.716 -4.89655 0.499899 0
M  V30 2299 N 211.368 -0.403325 -1.52352 0
M  V30 2300 C 212.616 0.174003 -2.0135 0
M  V30 2301 C 212.937 1.46139 -1.29106 0
M  V30 2302 O 212.207 1.91448 -0.415253 0
M  V30 2303 H 210.787 0.0672911 -0.743963 0
M  V30 2304 H 213.449 -0.538235 -1.87321 0
M  V30 2305 H 212.545 0.374254 -3.09848 0
M  V30 2306 N 212.846 1.57033 -0.133567 0
M  V30 2307 C 214.095 1.94861 0.520768 0
M  V30 2308 C 214.408 1.02012 1.66892 0
M  V30 2309 O 215.614 1.29365 2.38699 0
M  V30 2310 C 214.07 3.46362 0.977809 0
M  V30 2311 C 213.678 4.47773 -0.142674 0
M  V30 2312 C 215.422 3.93083 1.60269 0
M  V30 2313 C 213.329 5.90468 0.331883 0
M  V30 2314 H 212.259 0.727453 0.198315 0
M  V30 2315 H 214.91 1.82227 -0.215759 0
M  V30 2316 H 213.292 3.54282 1.7692 0
M  V30 2317 H 214.466 4.51536 -0.919317 0
M  V30 2318 H 212.781 4.10891 -0.675124 0
M  V30 2319 H 215.378 4.97121 1.96914 0
M  V30 2320 H 215.721 3.33876 2.48662 0
M  V30 2321 H 216.254 3.88025 0.876453 0
M  V30 2322 H 212.993 6.53463 -0.516341 0
M  V30 2323 H 212.513 5.90094 1.07469 0
M  V30 2324 H 214.192 6.42179 0.788332 0
M  V30 2325 N 214.325 -0.140222 1.56975 0
M  V30 2326 C 215.573 -0.850005 1.83356 0
M  V30 2327 C 215.894 -1.81399 0.71551 0
M  V30 2328 O 215.164 -1.94136 -0.262294 0
M  V30 2329 H 213.744 -0.316886 0.676456 0
M  V30 2330 H 216.406 -0.132608 1.94448 0
M  V30 2331 H 215.502 -1.40814 2.78528 0
M  V30 2332 N 215.803 -1.52179 -0.40978 0
M  V30 2333 C 216.766 -1.74853 -1.48186 0
M  V30 2334 C 217.766 -0.618417 -1.48433 0
M  V30 2335 O 218.956 -0.886286 -1.49969 0
M  V30 2336 C 216.088 -1.8303 -2.87598 0
M  V30 2337 H 217.281 -2.70559 -1.29374 0
M  V30 2338 H 214.834 -1.42586 -0.640233 0
M  V30 2339 H 215.569 -0.89236 -3.11781 0
M  V30 2340 H 215.354 -2.65187 -2.88822 0
M  V30 2341 H 216.844 -2.02316 -3.65319 0
M  V30 2342 N 217.281 0.66697 -1.42791 0
M  V30 2343 C 218.506 1.46004 -1.47301 0
M  V30 2344 C 218.931 1.87894 -0.0880317 0
M  V30 2345 O 218.289 1.56502 0.915253 0
M  V30 2346 C 218.337 2.68031 -2.41229 0
M  V30 2347 O 217.441 3.6659 -1.88906 0
M  V30 2348 H 216.782 0.43832 -0.49877 0
M  V30 2349 H 219.312 0.817391 -1.87563 0
M  V30 2350 H 219.322 3.1601 -2.58073 0
M  V30 2351 H 217.997 2.36883 -3.41847 0
M  V30 2352 H 216.574 3.25661 -1.81656 0
M  V30 2353 N 218.759 1.29093 0.90403 0
M  V30 2354 C 219.689 1.16401 2.02418 0
M  V30 2355 C 220.67 0.0593085 1.69997 0
M  V30 2356 O 221.855 0.238021 1.92736 0
M  V30 2357 C 218.985 0.835233 3.37107 0
M  V30 2358 C 217.939 1.89578 3.83724 0
M  V30 2359 C 217.265 1.42041 5.15489 0
M  V30 2360 C 218.565 3.30394 4.04521 0
M  V30 2361 H 220.259 2.10109 2.13295 0
M  V30 2362 H 217.805 1.01157 1.02486 0
M  V30 2363 H 219.758 0.733169 4.14973 0
M  V30 2364 H 218.482 -0.137543 3.2631 0
M  V30 2365 H 217.141 1.98715 3.08071 0
M  V30 2366 H 216.789 0.436426 5.01103 0
M  V30 2367 H 216.489 2.12964 5.4765 0
M  V30 2368 H 218.013 1.33176 5.959 0
M  V30 2369 H 219.427 3.24123 4.72882 0
M  V30 2370 H 217.824 3.99237 4.48029 0
M  V30 2371 H 218.894 3.73692 3.09002 0
M  V30 2372 N 220.237 -1.11381 1.11499 0
M  V30 2373 C 221.169 -2.17207 0.731704 0
M  V30 2374 C 222.182 -1.61066 -0.236957 0
M  V30 2375 O 223.371 -1.78489 -0.0197591 0
M  V30 2376 C 220.471 -3.38846 0.0607624 0
M  V30 2377 C 219.644 -4.24451 1.0564 0
M  V30 2378 C 218.703 -5.24562 0.4149 0
M  V30 2379 O 217.729 -5.59071 1.069 0
M  V30 2380 N 218.931 -5.74651 -0.821943 0
M  V30 2381 H 221.696 -2.50699 1.64225 0
M  V30 2382 H 219.257 -1.26908 1.00529 0
M  V30 2383 H 221.249 -4.02911 -0.380139 0
M  V30 2384 H 219.819 -3.03411 -0.752376 0
M  V30 2385 H 219.039 -3.56833 1.67524 0
M  V30 2386 H 220.327 -4.78486 1.72998 0
M  V30 2387 H 219.725 -5.48797 -1.37252 0
M  V30 2388 H 218.282 -6.40549 -1.20582 0
M  V30 2389 N 221.715 -0.905404 -1.28997 0
M  V30 2390 C 222.665 -0.358713 -2.25161 0
M  V30 2391 C 223.649 0.524449 -1.52113 0
M  V30 2392 O 224.841 0.365534 -1.73184 0
M  V30 2393 C 221.97 0.407609 -3.40872 0
M  V30 2394 C 221.056 -0.490797 -4.21251 0
M  V30 2395 N 221.447 -1.60061 -4.79806 0
M  V30 2396 C 219.745 -0.289636 -4.45059 0
M  V30 2397 C 220.446 -2.15757 -5.40207 0
M  V30 2398 N 219.422 -1.44988 -5.23908 0
M  V30 2399 H 223.224 -1.20642 -2.67998 0
M  V30 2400 H 220.738 -0.757103 -1.43672 0
M  V30 2401 H 222.735 0.816046 -4.08835 0
M  V30 2402 H 221.395 1.25251 -2.9957 0
M  V30 2403 H 222.406 -1.98329 -4.7842 0
M  V30 2404 H 219.083 0.51643 -4.14294 0
M  V30 2405 H 220.473 -3.09069 -5.96595 0
M  V30 2406 N 223.193 1.4272 -0.668489 0
M  V30 2407 C 224.423 2.05668 -0.196063 0
M  V30 2408 C 224.831 1.5028 1.14946 0
M  V30 2409 O 224.174 0.6348 1.72383 0
M  V30 2410 C 224.236 3.59469 -0.0468879 0
M  V30 2411 C 223.9 4.37518 -1.32012 0
M  V30 2412 C 224.897 4.68584 -2.25222 0
M  V30 2413 C 222.582 4.77266 -1.56596 0
M  V30 2414 C 224.576 5.38326 -3.41297 0
M  V30 2415 C 222.263 5.4675 -2.72962 0
M  V30 2416 C 223.261 5.77204 -3.65137 0
M  V30 2417 O 222.949 6.45264 -4.79468 0
M  V30 2418 H 222.681 0.669382 -0.0943599 0
M  V30 2419 H 225.235 1.83954 -0.913788 0
M  V30 2420 H 223.465 3.79817 0.726357 0
M  V30 2421 H 225.154 4.04071 0.384852 0
M  V30 2422 H 225.92 4.38382 -2.07477 0
M  V30 2423 H 221.799 4.52959 -0.857249 0
M  V30 2424 H 225.343 5.62014 -4.13263 0
M  V30 2425 H 221.24 5.76369 -2.90635 0
M  V30 2426 H 222.008 6.63753 -4.78931 0
M  V30 2427 N 224.671 0.411399 1.52136 0
M  V30 2428 C 225.619 -0.427633 2.28635 0
M  V30 2429 C 226.613 -1.04383 1.33419 0
M  V30 2430 O 227.819 -0.981772 1.50868 0
M  V30 2431 H 224.194 -0.156689 0.735495 0
M  V30 2432 H 226.165 0.238761 2.97443 0
M  V30 2433 C 224.914 -1.53082 3.12188 0
M  V30 2434 H 224.237 -1.06601 3.85326 0
M  V30 2435 H 225.677 -2.09167 3.68816 0
M  V30 2436 C 224.136 -2.49946 2.25895 0
M  V30 2437 O 224.666 -3.53884 1.90076 0
M  V30 2438 N 222.872 -2.2021 1.8962 0
M  V30 2439 H 222.419 -1.35719 2.18948 0
M  V30 2440 H 222.377 -2.85266 1.32176 0
M  V30 2441 N 226.149 -1.5696 0.141893 0
M  V30 2442 C 227.56 -1.82797 -0.379776 0
M  V30 2443 C 227.911 -1.06033 -1.6508 0
M  V30 2444 O 227.036 -0.304011 -2.14254 0
M  V30 2445 C 227.631 -3.31578 -0.695802 0
M  V30 2446 C 226.19 -3.58014 -1.16201 0
M  V30 2447 C 225.337 -2.76699 -0.182455 0
M  V30 2448 H 228.288 -1.54406 0.366675 0
M  V30 2449 H 228.309 -3.47454 -1.55099 0
M  V30 2450 H 227.821 -3.87421 0.229449 0
M  V30 2451 H 225.922 -3.07553 -2.10338 0
M  V30 2452 H 226.035 -4.66501 -1.09151 0
M  V30 2453 H 224.399 -2.45618 -0.674072 0
M  V30 2454 H 225.182 -3.35311 0.736297 0
M  V30 2455 N 227.627 0.131896 -1.57047 0
M  V30 2456 C 228.876 0.84044 -1.83356 0
M  V30 2457 C 229.189 1.81646 -0.725535 0
M  V30 2458 O 230.395 2.57025 -0.874659 0
M  V30 2459 C 228.851 1.54528 -3.25037 0
M  V30 2460 C 228.459 0.610902 -4.43815 0
M  V30 2461 C 230.203 2.23972 -3.60606 0
M  V30 2462 C 228.11 1.31823 -5.76521 0
M  V30 2463 H 227.04 0.317599 -0.683847 0
M  V30 2464 H 229.691 0.0931561 -1.83263 0
M  V30 2465 H 228.073 2.33873 -3.19561 0
M  V30 2466 H 229.247 -0.148407 -4.60561 0
M  V30 2467 H 227.562 0.0241016 -4.16393 0
M  V30 2468 H 230.159 2.77558 -4.57018 0
M  V30 2469 H 230.502 3.01173 -2.87403 0
M  V30 2470 H 231.035 1.51529 -3.6781 0
M  V30 2471 H 227.774 0.587771 -6.52859 0
M  V30 2472 H 227.294 2.04987 -5.63685 0
M  V30 2473 H 228.973 1.855 -6.19838 0
M  V30 2474 N 229.106 1.52395 0.401703 0
M  V30 2475 C 230.352 1.67065 1.14966 0
M  V30 2476 C 230.685 0.403052 1.89971 0
M  V30 2477 O 229.96 -0.598774 1.85054 0
M  V30 2478 C 230.243 2.8975 2.13815 0
M  V30 2479 C 230.096 4.26578 1.42658 0
M  V30 2480 C 231.415 3.07965 3.14397 0
M  V30 2481 H 228.534 0.607968 0.416587 0
M  V30 2482 H 231.176 1.84965 0.434511 0
M  V30 2483 H 229.326 2.74619 2.74803 0
M  V30 2484 H 230.998 4.53451 0.847329 0
M  V30 2485 H 229.241 4.27639 0.72849 0
M  V30 2486 H 229.912 5.08483 2.14823 0
M  V30 2487 H 232.388 3.22043 2.63491 0
M  V30 2488 H 231.264 3.95308 3.80819 0
M  V30 2489 H 231.525 2.21611 3.82545 0
M  V30 2490 N 230.584 -0.659388 1.43143 0
M  V30 2491 C 231.861 -1.41627 1.34912 0
M  V30 2492 C 232.241 -2.11099 -0.00607785 0
M  V30 2493 O 231.589 -2.04353 -1.02236 0
M  V30 2494 C 231.799 -2.40604 2.52805 0
M  V30 2495 C 233.147 -3.04789 2.95616 0
M  V30 2496 O 234.171 -2.50932 2.52807 0
M  V30 2497 O 233.03 -4.02421 3.69756 0
M  V30 2498 H 230.124 -0.63246 0.532844 0
M  V30 2499 H 232.67 -0.686814 1.5518 0
M  V30 2500 H 231.442 -1.88174 3.43083 0
M  V30 2501 H 231.065 -3.21009 2.34604 0
M  V30 2502 N 232.062 -1.29571 -0.897171 0
M  V30 2503 C 233.025 -1.14913 -1.98312 0
M  V30 2504 C 234.025 -0.0838629 -1.60581 0
M  V30 2505 O 235.215 -0.331006 -1.71026 0
M  V30 2506 C 232.347 -0.757835 -3.3237 0
M  V30 2507 H 233.54 -2.11377 -2.12743 0
M  V30 2508 H 231.093 -1.12793 -1.08201 0
M  V30 2509 H 231.828 0.206837 -3.2364 0
M  V30 2510 H 231.613 -1.52755 -3.61121 0
M  V30 2511 H 233.103 -0.678408 -4.12053 0
M  V30 2512 N 233.54 1.10788 -1.12088 0
M  V30 2513 C 234.45 2.20599 -0.798338 0
M  V30 2514 C 235.466 1.72712 0.21135 0
M  V30 2515 O 236.642 2.01348 0.0458477 0
M  V30 2516 C 233.707 3.45771 -0.253674 0
M  V30 2517 C 232.768 4.08411 -1.32283 0
M  V30 2518 C 232.001 5.27608 -0.80406 0
M  V30 2519 O 232.224 5.69241 0.363478 0
M  V30 2520 O 231.158 5.8101 -1.57198 0
M  V30 2521 H 234.984 2.50614 -1.7154 0
M  V30 2522 H 232.569 1.19454 -0.897275 0
M  V30 2523 H 234.451 4.21376 0.0453691 0
M  V30 2524 H 233.126 3.1739 0.636005 0
M  V30 2525 H 232.033 3.34507 -1.67499 0
M  V30 2526 H 233.366 4.40986 -2.18614 0
M  V30 2527 N 235.018 0.912232 1.28515 0
M  V30 2528 C 236.264 0.545405 1.95328 0
M  V30 2529 C 236.597 -0.908313 1.71649 0
M  V30 2530 O 235.872 -1.64575 1.03659 0
M  V30 2531 C 236.155 0.853483 3.4984 0
M  V30 2532 C 236.008 2.35982 3.82926 0
M  V30 2533 C 237.327 0.348589 4.38717 0
M  V30 2534 H 234.446 0.199626 0.709449 0
M  V30 2535 H 237.088 1.1412 1.5191 0
M  V30 2536 H 235.238 0.34643 3.86952 0
M  V30 2537 H 236.91 2.93738 3.55691 0
M  V30 2538 H 235.153 2.81543 3.30024 0
M  V30 2539 H 235.824 2.52593 4.90816 0
M  V30 2540 H 238.3 0.78294 4.08668 0
M  V30 2541 H 237.176 0.593242 5.45685 0
M  V30 2542 H 237.437 -0.751049 4.35674 0
M  V30 2543 N 236.496 -1.42363 0.676048 0
M  V30 2544 C 237.443 -2.308 -0.00150904 0
M  V30 2545 C 238.413 -1.46032 -0.791444 0
M  V30 2546 O 239.598 -1.74861 -0.76344 0
M  V30 2547 C 236.738 -3.31883 -0.945919 0
M  V30 2548 C 235.851 -4.31741 -0.149675 0
M  V30 2549 C 234.986 -5.19898 -1.08995 0
M  V30 2550 C 234.025 -6.11434 -0.285465 0
M  V30 2551 N 233.162 -6.92138 -1.17851 0
M  V30 2552 H 238.002 -2.88187 0.758455 0
M  V30 2553 H 235.539 -1.41952 0.38576 0
M  V30 2554 H 237.497 -3.89019 -1.50731 0
M  V30 2555 H 236.127 -2.76093 -1.6725 0
M  V30 2556 H 235.179 -3.76713 0.528359 0
M  V30 2557 H 236.491 -4.96534 0.474866 0
M  V30 2558 H 235.645 -5.81772 -1.72123 0
M  V30 2559 H 234.384 -4.55284 -1.74837 0
M  V30 2560 H 233.389 -5.48627 0.359018 0
M  V30 2561 H 234.614 -6.78097 0.368883 0
M  V30 2562 H 232.56 -6.30152 -1.82332 0
M  V30 2563 H 232.477 -7.53542 -0.609082 0
M  V30 2564 H 233.745 -7.58499 -1.79722 0
M  V30 2565 N 237.974 -0.419461 -1.51915 0
M  V30 2566 C 238.884 0.407528 -2.31033 0
M  V30 2567 C 239.9 1.04413 -1.3919 0
M  V30 2568 O 241.076 1.0434 -1.72265 0
M  V30 2569 C 238.141 1.50365 -3.12396 0
M  V30 2570 C 237.202 0.889029 -4.19994 0
M  V30 2571 C 236.435 1.93291 -4.97468 0
M  V30 2572 O 236.658 3.15259 -4.75361 0
M  V30 2573 O 235.592 1.53339 -5.8204 0
M  V30 2574 H 239.418 -0.237865 -3.02767 0
M  V30 2575 H 237.003 -0.182413 -1.48282 0
M  V30 2576 H 238.885 2.13975 -3.63032 0
M  V30 2577 H 237.56 2.13345 -2.43445 0
M  V30 2578 H 236.467 0.215353 -3.7348 0
M  V30 2579 H 237.8 0.302991 -4.91267 0
M  V30 2580 N 239.452 1.56882 -0.150215 0
M  V30 2581 C 240.68 2.00593 0.506948 0
M  V30 2582 C 241.095 1.03033 1.58208 0
M  V30 2583 O 240.452 0.0278396 1.82479 0
M  V30 2584 C 240.503 3.44209 1.10465 0
M  V30 2585 O 240.224 4.3804 0.0724636 0
M  V30 2586 C 241.725 4.03214 1.84211 0
M  V30 2587 H 238.945 0.65795 0.13169 0
M  V30 2588 H 241.489 2.03018 -0.245743 0
M  V30 2589 H 239.644 3.42625 1.80795 0
M  V30 2590 H 240.058 5.22007 0.510793 0
M  V30 2591 H 241.532 5.0569 2.21318 0
M  V30 2592 H 242.009 3.44107 2.72923 0
M  V30 2593 H 242.615 4.08437 1.18572 0
M  V30 2594 N 240.93 -0.123565 1.57115 0
M  V30 2595 C 242.176 -0.828428 1.85765 0
M  V30 2596 C 242.531 -1.77709 0.737371 0
M  V30 2597 O 241.824 -1.89787 -0.262978 0
M  V30 2598 C 242.018 -1.62016 3.18568 0
M  V30 2599 C 241.847 -0.749663 4.43407 0
M  V30 2600 C 240.617 -0.406251 5.03664 0
M  V30 2601 C 242.815 -0.0693505 5.14253 0
M  V30 2602 N 240.797 0.475389 6.12057 0
M  V30 2603 C 242.168 0.671474 6.16353 0
M  V30 2604 C 244.223 0.00754393 4.97899 0
M  V30 2605 C 242.926 1.48197 7.03868 0
M  V30 2606 C 244.952 0.804845 5.85898 0
M  V30 2607 C 244.314 1.53388 6.87497 0
M  V30 2608 H 240.413 -0.280219 0.73007 0
M  V30 2609 H 242.997 -0.0924183 1.94481 0
M  V30 2610 H 241.168 -2.32724 3.10957 0
M  V30 2611 H 242.9 -2.27 3.35042 0
M  V30 2612 H 239.655 -0.747446 4.67665 0
M  V30 2613 H 240.079 0.907924 6.70884 0
M  V30 2614 H 244.721 -0.541741 4.19315 0
M  V30 2615 H 242.439 2.04242 7.81864 0
M  V30 2616 H 246.025 0.866642 5.75309 0
M  V30 2617 H 244.905 2.1409 7.5441 0
M  V30 2618 N 242.408 -1.52605 -0.393616 0
M  V30 2619 C 243.356 -1.77688 -1.50099 0
M  V30 2620 C 244.35 -0.644615 -1.56656 0
M  V30 2621 O 245.556 -0.826997 -1.59877 0
M  V30 2622 H 241.931 -0.562159 -0.499481 0
M  V30 2623 H 243.902 -2.7043 -1.26135 0
M  V30 2624 C 242.651 -1.95858 -2.87289 0
M  V30 2625 H 241.974 -2.8241 -2.82992 0
M  V30 2626 H 243.414 -2.174 -3.64024 0
M  V30 2627 C 241.873 -0.729848 -3.28899 0
M  V30 2628 O 242.403 0.0949217 -4.01588 0
M  V30 2629 N 240.609 -0.561283 -2.85128 0
M  V30 2630 H 240.156 -1.23357 -2.26143 0
M  V30 2631 H 240.114 0.2595 -3.13327 0
M  V30 2632 N 243.887 0.651787 -1.4349 0
M  V30 2633 C 245.136 1.40754 -1.44469 0
M  V30 2634 C 245.449 1.95463 -0.0731845 0
M  V30 2635 O 246.655 2.71471 0.0395721 0
M  V30 2636 C 245.111 2.54735 -2.5424 0
M  V30 2637 C 244.719 2.06628 -3.97504 0
M  V30 2638 C 246.463 3.32092 -2.64414 0
M  V30 2639 C 244.37 3.17829 -4.98737 0
M  V30 2640 H 243.3 0.528862 -0.53742 0
M  V30 2641 H 245.951 0.703365 -1.69485 0
M  V30 2642 H 244.333 3.2763 -2.22428 0
M  V30 2643 H 245.507 1.40734 -4.38783 0
M  V30 2644 H 243.822 1.42146 -3.91387 0
M  V30 2645 H 246.419 4.14952 -3.37223 0
M  V30 2646 H 246.762 3.80217 -1.69532 0
M  V30 2647 H 247.295 2.66279 -2.95534 0
M  V30 2648 H 244.034 2.74671 -5.95177 0
M  V30 2649 H 243.554 3.82429 -4.62069 0
M  V30 2650 H 245.233 3.82937 -5.21505 0
M  V30 2651 N 245.365 1.30045 0.890287 0
M  V30 2652 C 246.776 1.16738 1.45702 0
M  V30 2653 C 247.127 -0.233939 1.948 0
M  V30 2654 O 246.252 -1.13021 1.84541 0
M  V30 2655 C 246.847 2.11313 2.64825 0
M  V30 2656 C 245.406 2.02001 3.17604 0
M  V30 2657 C 244.553 2.01699 1.90296 0
M  V30 2658 H 247.504 1.42392 0.700726 0
M  V30 2659 H 247.525 1.69086 3.40867 0
M  V30 2660 H 247.037 3.13294 2.2906 0
M  V30 2661 H 245.138 1.03142 3.5804 0
M  V30 2662 H 245.251 2.90128 3.81264 0
M  V30 2663 H 243.615 1.46427 2.08402 0
M  V30 2664 H 244.398 3.05402 1.56795 0
M  V30 2665 N 246.843 -1.10192 1.12674 0
M  V30 2666 C 247.806 -2.14786 0.799979 0
M  V30 2667 C 248.806 -1.59711 -0.18685 0
M  V30 2668 O 249.996 -1.74156 0.0392558 0
M  V30 2669 C 247.128 -3.40374 0.189228 0
M  V30 2670 H 248.321 -2.45203 1.72671 0
M  V30 2671 H 245.874 -1.25597 0.930326 0
M  V30 2672 H 246.609 -3.15577 -0.747107 0
M  V30 2673 H 246.394 -3.81637 0.899766 0
M  V30 2674 H 247.884 -4.17594 -0.0228143 0
M  V30 2675 N 248.321 -0.919034 -1.28029 0
M  V30 2676 C 249.231 -0.416756 -2.30869 0
M  V30 2677 C 250.247 0.498235 -1.66714 0
M  V30 2678 O 251.423 0.383144 -1.97722 0
M  V30 2679 C 248.488 0.330274 -3.45123 0
M  V30 2680 C 247.549 -0.618578 -4.2482 0
M  V30 2681 C 246.782 0.0928959 -5.33619 0
M  V30 2682 O 247.005 1.31375 -5.55065 0
M  V30 2683 O 245.939 -0.574499 -5.99152 0
M  V30 2684 H 249.765 -1.27043 -2.75851 0
M  V30 2685 H 247.35 -0.684052 -1.3282 0
M  V30 2686 H 249.232 0.751972 -4.14636 0
M  V30 2687 H 247.907 1.1597 -3.02213 0
M  V30 2688 H 246.814 -1.08978 -3.57875 0
M  V30 2689 H 248.147 -1.41497 -4.71423 0
M  V30 2690 N 249.799 1.42003 -0.683588 0
M  V30 2691 C 251.045 2.02223 -0.218536 0
M  V30 2692 C 251.4 1.53126 1.16492 0
M  V30 2693 O 250.693 0.727459 1.77253 0
M  V30 2694 C 250.887 3.56827 -0.202357 0
M  V30 2695 C 250.716 4.20928 -1.5827 0
M  V30 2696 C 249.486 4.5573 -2.18262 0
M  V30 2697 C 251.684 4.47933 -2.52706 0
M  V30 2698 N 249.666 5.05056 -3.48986 0
M  V30 2699 C 251.037 4.98906 -3.68094 0
M  V30 2700 C 253.092 4.29931 -2.51125 0
M  V30 2701 C 251.795 5.33768 -4.82166 0
M  V30 2702 C 253.821 4.65875 -3.643 0
M  V30 2703 C 253.183 5.17008 -4.78417 0
M  V30 2704 H 249.282 0.771931 -0.125088 0
M  V30 2705 H 251.866 1.72729 -0.898479 0
M  V30 2706 H 250.037 3.85819 0.447029 0
M  V30 2707 H 251.769 4.03755 0.276399 0
M  V30 2708 H 248.524 4.41781 -1.70665 0
M  V30 2709 H 248.948 5.34139 -4.15962 0
M  V30 2710 H 253.59 3.89647 -1.6412 0
M  V30 2711 H 251.308 5.72981 -5.6984 0
M  V30 2712 H 254.894 4.53615 -3.64314 0
M  V30 2713 H 253.774 5.44301 -5.64541 0
M  V30 2714 N 251.277 0.427512 1.51691 0
M  V30 2715 C 252.502 -0.143601 2.06902 0
M  V30 2716 C 252.927 -1.36536 1.29382 0
M  V30 2717 O 252.285 -1.78289 0.329043 0
M  V30 2718 C 252.333 -0.454207 3.57728 0
M  V30 2719 O 251.437 -1.54228 3.82475 0
M  V30 2720 H 250.778 -0.00617128 0.663971 0
M  V30 2721 H 253.308 0.606014 1.95419 0
M  V30 2722 H 253.318 -0.707525 4.01818 0
M  V30 2723 H 251.993 0.438812 4.13579 0
M  V30 2724 H 250.57 -1.2797 3.50254 0
M  V30 2725 N 252.755 -1.56801 0.158532 0
M  V30 2726 C 253.685 -2.20347 -0.772609 0
M  V30 2727 C 254.666 -1.15518 -1.24859 0
M  V30 2728 O 255.851 -1.43902 -1.30406 0
M  V30 2729 C 252.981 -2.83417 -2.00729 0
M  V30 2730 C 251.935 -3.94174 -1.66765 0
M  V30 2731 C 251.261 -4.44233 -2.97592 0
M  V30 2732 C 252.561 -5.14392 -0.905447 0
M  V30 2733 H 254.255 -2.98413 -0.242959 0
M  V30 2734 H 251.801 -1.43537 -0.115419 0
M  V30 2735 H 253.754 -3.26543 -2.6636 0
M  V30 2736 H 252.478 -2.02701 -2.56086 0
M  V30 2737 H 251.137 -3.51684 -1.03508 0
M  V30 2738 H 250.785 -3.60325 -3.50963 0
M  V30 2739 H 250.485 -5.18945 -2.75626 0
M  V30 2740 H 252.009 -4.90037 -3.64274 0
M  V30 2741 H 253.423 -5.5429 -1.46408 0
M  V30 2742 H 251.82 -5.9494 -0.7853 0
M  V30 2743 H 252.89 -4.84795 0.100668 0
M  V30 2744 N 254.233 0.115231 -1.57178 0
M  V30 2745 C 255.479 0.82357 -1.85325 0
M  V30 2746 C 255.812 1.79349 -0.744814 0
M  V30 2747 O 255.087 1.92899 0.249024 0
M  V30 2748 C 255.37 1.57014 -3.24066 0
M  V30 2749 C 255.223 0.619565 -4.45513 0
M  V30 2750 C 256.542 2.52545 -3.60429 0
M  V30 2751 H 253.661 0.297948 -0.674089 0
M  V30 2752 H 256.303 0.0877138 -1.89797 0
M  V30 2753 H 254.453 2.19742 -3.20383 0
M  V30 2754 H 256.125 0.000837639 -4.613 0
M  V30 2755 H 254.368 -0.0686174 -4.33746 0
M  V30 2756 H 255.039 1.17866 -5.3927 0
M  V30 2757 H 257.515 1.9992 -3.64926 0
M  V30 2758 H 256.391 3.01811 -4.58477 0
M  V30 2759 H 256.652 3.35383 -2.88047 0
M  V30 2760 N 255.711 1.52812 0.385517 0
M  V30 2761 C 256.959 1.67694 1.12797 0
M  V30 2762 C 257.28 0.421115 1.90399 0
M  V30 2763 O 256.55 -0.564551 1.87589 0
M  V30 2764 H 255.13 0.618155 0.419396 0
M  V30 2765 H 257.792 1.89938 0.436972 0
M  V30 2766 H 256.888 2.52896 1.82894 0
M  V30 2767 N 257.189 -0.644168 1.43834 0
M  V30 2768 C 258.121 -1.76955 1.45669 0
M  V30 2769 C 259.134 -1.58956 0.351666 0
M  V30 2770 O 260.323 -1.6751 0.616644 0
M  V30 2771 C 257.423 -3.14507 1.26248 0
M  V30 2772 C 256.596 -3.59083 2.49757 0
M  V30 2773 C 255.655 -4.75467 2.25427 0
M  V30 2774 O 254.681 -4.84444 2.98836 0
M  V30 2775 N 255.883 -5.66289 1.27661 0
M  V30 2776 H 258.648 -1.75856 2.42682 0
M  V30 2777 H 256.209 -0.828312 1.39106 0
M  V30 2778 H 258.201 -3.90067 1.0784 0
M  V30 2779 H 256.771 -3.10325 0.376478 0
M  V30 2780 H 255.991 -2.7387 2.8353 0
M  V30 2781 H 257.279 -3.85613 3.31934 0
M  V30 2782 H 256.677 -5.61718 0.670064 0
M  V30 2783 H 255.234 -6.41533 1.15234 0
M  V30 2784 N 258.668 -1.30515 -0.883378 0
M  V30 2785 C 259.601 -1.11359 -1.99184 0
M  V30 2786 C 260.579 -0.0207858 -1.62587 0
M  V30 2787 O 261.763 -0.174646 -1.87689 0
M  V30 2788 C 258.89 -0.69871 -3.31415 0
M  V30 2789 C 257.936 -1.79261 -3.86998 0
M  V30 2790 S 258.769 -3.39536 -4.14096 0
M  V30 2791 C 259.925 -2.99954 -5.49344 0
M  V30 2792 H 260.158 -2.052 -2.15128 0
M  V30 2793 H 257.691 -1.14847 -1.03196 0
M  V30 2794 H 259.649 -0.466075 -4.07846 0
M  V30 2795 H 258.31 0.220368 -3.13326 0
M  V30 2796 H 257.503 -1.45464 -4.82552 0
M  V30 2797 H 257.105 -1.97961 -3.17313 0
M  V30 2798 H 259.397 -2.48013 -6.30473 0
M  V30 2799 H 260.34 -3.9442 -5.8808 0
M  V30 2800 H 260.748 -2.37775 -5.1198 0
M  V30 2801 N 260.146 1.09593 -1.13257 0
M  V30 2802 C 261.557 1.63229 -0.906274 0
M  V30 2803 C 261.908 1.8811 0.557578 0
M  V30 2804 O 261.033 1.62953 1.42391 0
M  V30 2805 C 261.628 2.96535 -1.63867 0
M  V30 2806 C 260.187 3.47003 -1.45828 0
M  V30 2807 C 259.334 2.2145 -1.66898 0
M  V30 2808 H 262.285 0.92978 -1.28611 0
M  V30 2809 H 262.306 3.64411 -1.09476 0
M  V30 2810 H 261.818 2.78394 -2.70404 0
M  V30 2811 H 259.919 3.70272 -0.415848 0
M  V30 2812 H 260.032 4.24551 -2.2202 0
M  V30 2813 H 258.396 2.30022 -1.09371 0
M  V30 2814 H 259.179 2.0583 -2.74752 0
M  V30 2815 N 261.624 0.925811 1.2754 0
M  V30 2816 C 262.871 0.565255 1.94451 0
M  V30 2817 C 263.199 -0.89316 1.7278 0
M  V30 2818 O 262.454 -1.65213 1.04895 0
M  V30 2819 C 262.753 0.835296 3.47502 0
M  V30 2820 C 262.419 2.27515 3.89291 0
M  V30 2821 C 261.081 2.66879 4.00411 0
M  V30 2822 C 263.433 3.21158 4.10496 0
M  V30 2823 C 260.761 3.99014 4.30122 0
M  V30 2824 C 263.113 4.52871 4.4169 0
M  V30 2825 C 261.777 4.92072 4.51023 0
M  V30 2826 H 261.047 0.206841 0.711546 0
M  V30 2827 H 263.694 1.16942 1.51647 0
M  V30 2828 H 261.999 0.148442 3.91519 0
M  V30 2829 H 263.696 0.535322 3.97411 0
M  V30 2830 H 260.286 1.95976 3.81171 0
M  V30 2831 H 264.47 2.9195 4.01346 0
M  V30 2832 H 259.726 4.2907 4.35556 0
M  V30 2833 H 263.9 5.25436 4.57045 0
M  V30 2834 H 261.527 5.9449 4.738 0
M  V30 2835 N 263.102 -1.41638 0.69111 0
M  V30 2836 C 264.35 -2.00902 0.219758 0
M  V30 2837 C 264.671 -1.54994 -1.18329 0
M  V30 2838 O 263.941 -0.778628 -1.79762 0
M  V30 2839 H 262.521 -0.74289 0.0782558 0
M  V30 2840 H 265.183 -1.73327 0.891271 0
M  V30 2841 H 264.279 -3.11224 0.233708 0
M  V30 2842 N 264.58 -0.43555 -1.51462 0
M  V30 2843 C 265.49 0.383001 -2.31453 0
M  V30 2844 C 266.506 1.02931 -1.4029 0
M  V30 2845 O 267.682 1.02507 -1.73362 0
M  V30 2846 C 264.747 1.47043 -3.13973 0
M  V30 2847 C 263.808 0.844433 -4.20913 0
M  V30 2848 C 263.041 1.88004 -4.9949 0
M  V30 2849 O 263.264 3.10199 -4.78678 0
M  V30 2850 O 262.198 1.47157 -5.83634 0
M  V30 2851 H 266.024 -0.269964 -3.02498 0
M  V30 2852 H 263.609 -0.19813 -1.4808 0
M  V30 2853 H 265.491 2.10113 -3.65281 0
M  V30 2854 H 264.166 2.10751 -2.45695 0
M  V30 2855 H 263.073 0.175729 -3.73687 0
M  V30 2856 H 264.406 0.250869 -4.9156 0
M  V30 2857 N 266.058 1.56714 -0.166846 0
M  V30 2858 C 267.469 1.83378 0.350646 0
M  V30 2859 C 267.82 1.08646 1.63372 0
M  V30 2860 O 266.945 0.338058 2.13743 0
M  V30 2861 C 267.54 3.32643 0.642963 0
M  V30 2862 C 266.099 3.59818 1.10491 0
M  V30 2863 C 265.246 2.76954 0.138411 0
M  V30 2864 H 268.197 1.53803 -0.391193 0
M  V30 2865 H 268.218 3.49878 1.49551 0
M  V30 2866 H 267.73 3.87007 -0.291055 0
M  V30 2867 H 265.831 3.1086 2.05418 0
M  V30 2868 H 265.944 4.68178 1.01716 0
M  V30 2869 H 264.308 2.4666 0.634911 0
M  V30 2870 H 265.091 3.34097 -0.789549 0
M  V30 2871 N 267.536 -0.106894 1.57237 0
M  V30 2872 C 268.484 -1.14944 2.02215 0
M  V30 2873 C 269.478 -1.42167 0.92114 0
M  V30 2874 O 270.684 -1.41987 1.10634 0
M  V30 2875 H 267.059 -0.387841 0.64427 0
M  V30 2876 H 269.03 -0.743683 2.88984 0
M  V30 2877 C 267.779 -2.4647 2.4525 0
M  V30 2878 H 267.102 -2.26363 3.29545 0
M  V30 2879 H 268.542 -3.17948 2.80508 0
M  V30 2880 C 267.001 -3.09921 1.321 0
M  V30 2881 O 267.531 -3.9651 0.643622 0
M  V30 2882 N 265.737 -2.69986 1.07497 0
M  V30 2883 H 265.284 -1.99667 1.62761 0
M  V30 2884 H 265.242 -3.12769 0.319876 0
M  V30 2885 N 269.014 -1.53014 -0.377408 0
M  V30 2886 C 269.924 -1.81557 -1.48574 0
M  V30 2887 C 270.94 -0.703102 -1.59162 0
M  V30 2888 O 272.116 -0.99192 -1.75279 0
M  V30 2889 C 269.181 -1.9889 -2.83978 0
M  V30 2890 C 268.242 -3.22801 -2.83016 0
M  V30 2891 C 267.475 -3.39298 -4.11962 0
M  V30 2892 O 267.698 -2.60345 -5.0752 0
M  V30 2893 O 266.632 -4.32604 -4.18494 0
M  V30 2894 H 270.458 -2.75695 -1.27382 0
M  V30 2895 H 268.043 -1.38248 -0.566373 0
M  V30 2896 H 269.925 -2.11931 -3.6423 0
M  V30 2897 H 268.6 -1.07942 -3.05172 0
M  V30 2898 H 267.507 -3.15193 -2.01505 0
M  V30 2899 H 268.84 -4.13632 -2.66775 0
M  V30 2900 N 270.492 0.636531 -1.44174 0
M  V30 2901 C 271.424 1.7618 -1.46606 0
M  V30 2902 C 272.437 1.58768 -0.360091 0
M  V30 2903 O 273.626 1.67181 -0.625518 0
M  V30 2904 C 270.726 3.13833 -1.27915 0
M  V30 2905 C 269.899 3.57753 -2.51658 0
M  V30 2906 C 268.958 4.74265 -2.27945 0
M  V30 2907 O 267.984 4.82852 -3.01401 0
M  V30 2908 N 269.186 5.65604 -1.30662 0
M  V30 2909 H 271.951 1.74567 -2.43612 0
M  V30 2910 H 269.512 0.820924 -1.39544 0
M  V30 2911 H 271.504 3.8949 -1.09907 0
M  V30 2912 H 270.074 3.10121 -0.39293 0
M  V30 2913 H 269.294 2.72362 -2.84978 0
M  V30 2914 H 270.582 3.83847 -3.33974 0
M  V30 2915 H 269.98 5.61354 -0.699844 0
M  V30 2916 H 268.537 6.40913 -1.18634 0
M  V30 2917 N 271.97 1.30982 0.876444 0
M  V30 2918 C 273.381 1.18277 1.44456 0
M  V30 2919 C 273.732 -0.213265 1.95037 0
M  V30 2920 O 272.857 -1.11057 1.85729 0
M  V30 2921 C 273.452 2.1411 2.62569 0
M  V30 2922 C 272.011 2.05358 3.15444 0
M  V30 2923 C 271.158 2.03706 1.88146 0
M  V30 2924 H 274.109 1.43127 0.685584 0
M  V30 2925 H 274.13 1.72692 3.39054 0
M  V30 2926 H 273.642 3.15706 2.25724 0
M  V30 2927 H 271.743 1.06934 3.56926 0
M  V30 2928 H 271.856 2.94156 3.78166 0
M  V30 2929 H 270.22 1.48629 2.06837 0
M  V30 2930 H 271.003 3.07047 1.53547 0
M  V30 2931 N 273.449 -1.08991 1.13837 0
M  V30 2932 C 274.412 -2.13925 0.822715 0
M  V30 2933 C 275.412 -1.599 -0.1699 0
M  V30 2934 O 276.602 -1.74104 0.0577251 0
M  V30 2935 C 273.734 -3.40155 0.225318 0
M  V30 2936 H 274.927 -2.43358 1.75262 0
M  V30 2937 H 272.48 -1.24603 0.943594 0
M  V30 2938 H 273.215 -3.16352 -0.713594 0
M  V30 2939 H 273 -3.80661 0.940193 0
M  V30 2940 H 274.49 -4.17594 0.0214784 0
M  V30 2941 N 274.927 -0.932562 -1.27047 0
M  V30 2942 C 275.837 -0.441219 -2.30414 0
M  V30 2943 C 276.853 0.480525 -1.67233 0
M  V30 2944 O 278.029 0.362151 -1.98117 0
M  V30 2945 C 275.094 0.293651 -3.45454 0
M  V30 2946 C 274.155 -0.663601 -4.2414 0
M  V30 2947 C 273.388 0.0362932 -5.33688 0
M  V30 2948 O 273.611 1.2548 -5.56427 0
M  V30 2949 O 272.545 -0.638015 -5.98509 0
M  V30 2950 H 276.371 -1.29962 -2.74488 0
M  V30 2951 H 273.956 -0.6981 -1.32087 0
M  V30 2952 H 275.838 0.707951 -4.15411 0
M  V30 2953 H 274.513 1.12758 -3.03426 0
M  V30 2954 H 273.42 -1.12768 -3.56699 0
M  V30 2955 H 274.753 -1.46489 -4.69896 0
M  V30 2956 N 276.405 1.4127 -0.698611 0
M  V30 2957 C 277.821 1.55241 -0.370462 0
M  V30 2958 C 278.021 1.67351 1.12231 0
M  V30 2959 O 277.077 1.65363 1.90818 0
M  V30 2960 C 278.39 2.78997 -1.12165 0
M  V30 2961 C 279.938 2.92797 -1.1063 0
M  V30 2962 C 280.413 4.19445 -1.8393 0
M  V30 2963 N 281.904 4.26409 -1.80914 0
M  V30 2964 C 282.639 5.23271 -2.34467 0
M  V30 2965 N 282.135 6.26145 -2.96504 0
M  V30 2966 N 283.928 5.15232 -2.24706 0
M  V30 2967 H 276.079 1.31654 -1.66676 0
M  V30 2968 H 278.342 0.635393 -0.703548 0
M  V30 2969 H 278.048 2.76268 -2.17644 0
M  V30 2970 H 277.922 3.70606 -0.702209 0
M  V30 2971 H 280.309 2.95039 -0.0597713 0
M  V30 2972 H 280.39 2.02353 -1.56483 0
M  V30 2973 H 280.034 4.17964 -2.88563 0
M  V30 2974 H 279.964 5.08866 -1.35509 0
M  V30 2975 H 282.455 3.527 -1.35687 0
M  V30 2976 H 282.768 6.96451 -3.34927 0
M  V30 2977 H 281.113 6.26638 -3.00583 0
M  V30 2978 H 284.304 4.33789 -1.7591 0
M  V30 2979 H 284.477 5.90552 -2.66745 0
M  V30 2980 N 277.883 0.443576 1.51229 0
M  V30 2981 C 279.111 -0.11929 2.06556 0
M  V30 2982 C 279.526 -1.35921 1.31038 0
M  V30 2983 O 278.883 -1.78675 0.371704 0
M  V30 2984 C 278.934 -0.435228 3.5887 0
M  V30 2985 O 278.655 0.755486 4.31537 0
M  V30 2986 C 280.156 -1.04808 4.30732 0
M  V30 2987 H 277.376 -0.0051584 0.67098 0
M  V30 2988 H 279.92 0.624453 1.94733 0
M  V30 2989 H 278.075 -1.12887 3.70588 0
M  V30 2990 H 278.489 0.483491 5.22267 0
M  V30 2991 H 279.963 -1.2191 5.3837 0
M  V30 2992 H 280.44 -2.03081 3.89429 0
M  V30 2993 H 281.046 -0.393637 4.23474 0
M  V30 2994 N 279.361 -1.56624 0.175154 0
M  V30 2995 C 280.608 -1.96999 -0.468811 0
M  V30 2996 C 280.936 -1.06129 -1.62994 0
M  V30 2997 O 280.191 -0.0961771 -1.95464 0
M  V30 2998 C 280.49 -3.43419 -0.989864 0
M  V30 2999 C 280.156 -4.50866 0.0557687 0
M  V30 3000 C 278.818 -4.79975 0.343134 0
M  V30 3001 C 281.17 -5.15551 0.765308 0
M  V30 3002 C 278.498 -5.71066 1.34536 0
M  V30 3003 C 280.85 -6.07724 1.75654 0
M  V30 3004 C 279.514 -6.35199 2.05132 0
M  V30 3005 H 278.784 -0.720869 -0.17155 0
M  V30 3006 H 281.431 -1.89616 0.267924 0
M  V30 3007 H 279.736 -3.47772 -1.80449 0
M  V30 3008 H 281.433 -3.72002 -1.49719 0
M  V30 3009 H 278.023 -4.28229 -0.178381 0
M  V30 3010 H 282.207 -4.9317 0.556513 0
M  V30 3011 H 277.463 -5.90635 1.57988 0
M  V30 3012 H 281.637 -6.56912 2.31169 0
M  V30 3013 H 279.264 -7.05584 2.8294 0
M  V30 3014 N 280.839 0.0985539 -1.57292 0
M  V30 3015 C 281.769 1.12064 -2.04851 0
M  V30 3016 C 282.75 1.41981 -0.936767 0
M  V30 3017 O 283.935 1.52071 -1.20781 0
M  V30 3018 C 281.065 2.44144 -2.47004 0
M  V30 3019 C 280.019 2.28643 -3.6181 0
M  V30 3020 C 279.345 3.65869 -3.89929 0
M  V30 3021 C 280.645 1.72986 -4.92822 0
M  V30 3022 H 282.339 0.724979 -2.9049 0
M  V30 3023 H 279.885 0.34729 -1.39749 0
M  V30 3024 H 281.838 3.15914 -2.78884 0
M  V30 3025 H 280.562 2.85639 -1.5836 0
M  V30 3026 H 279.221 1.59318 -3.30172 0
M  V30 3027 H 278.869 4.04885 -2.98458 0
M  V30 3028 H 278.569 3.56344 -4.67218 0
M  V30 3029 H 280.093 4.39112 -4.2428 0
M  V30 3030 H 281.507 2.34593 -5.23105 0
M  V30 3031 H 279.904 1.74229 -5.74251 0
M  V30 3032 H 280.974 0.689007 -4.7998 0
M  V30 3033 N 282.317 1.53212 0.369288 0
M  V30 3034 C 283.728 1.60943 0.946276 0
M  V30 3035 C 284.079 0.47452 1.90375 0
M  V30 3036 O 283.204 -0.399597 2.12679 0
M  V30 3037 C 283.799 2.91715 1.72302 0
M  V30 3038 C 282.358 3.01792 2.24941 0
M  V30 3039 C 281.505 2.56211 1.06072 0
M  V30 3040 H 284.456 1.58007 0.148198 0
M  V30 3041 H 284.477 2.79309 2.58393 0
M  V30 3042 H 283.989 3.74295 1.0259 0
M  V30 3043 H 282.09 2.23791 2.97906 0
M  V30 3044 H 282.203 4.06803 2.53077 0
M  V30 3045 H 280.567 2.10998 1.4266 0
M  V30 3046 H 281.35 3.41206 0.378639 0
M  V30 3047 N 283.795 -0.628877 1.44509 0
M  V30 3048 C 285.023 -1.41554 1.50897 0
M  V30 3049 C 285.438 -1.8832 0.134564 0
M  V30 3050 O 284.795 -1.60969 -0.859965 0
M  V30 3051 C 284.846 -2.63435 2.47556 0
M  V30 3052 O 284.567 -2.18619 3.79654 0
M  V30 3053 C 286.068 -3.56537 2.63431 0
M  V30 3054 H 283.288 -0.434044 0.511709 0
M  V30 3055 H 285.832 -0.768895 1.89495 0
M  V30 3056 H 283.987 -3.24187 2.12089 0
M  V30 3057 H 284.401 -2.97652 4.31861 0
M  V30 3058 H 285.875 -4.38657 3.35088 0
M  V30 3059 H 286.352 -4.05493 1.68738 0
M  V30 3060 H 286.958 -3.01653 2.9981 0
M  V30 3061 N 285.273 -1.31445 -0.869486 0
M  V30 3062 C 286.183 -1.21097 -2.0093 0
M  V30 3063 C 287.199 -0.127584 -1.73532 0
M  V30 3064 O 288.375 -0.345477 -1.98415 0
M  V30 3065 C 285.44 -0.919378 -3.34288 0
M  V30 3066 C 284.501 -2.08971 -3.75006 0
M  V30 3067 C 283.734 -1.81194 -5.02001 0
M  V30 3068 O 283.957 -0.747296 -5.65484 0
M  V30 3069 O 282.891 -2.66883 -5.39497 0
M  V30 3070 H 286.717 -2.16883 -2.12592 0
M  V30 3071 H 284.302 -1.11189 -0.997868 0
M  V30 3072 H 286.184 -0.772625 -4.14257 0
M  V30 3073 H 284.859 0.00844772 -3.23699 0
M  V30 3074 H 283.766 -2.29187 -2.95676 0
M  V30 3075 H 285.099 -2.9998 -3.90221 0
M  V30 3076 N 286.751 1.08385 -1.14413 0
M  V30 3077 C 288.028 1.77429 -0.823297 0
M  V30 3078 C 288.408 1.9974 0.683163 0
M  V30 3079 O 287.756 1.60739 1.62405 0
M  V30 3080 C 287.966 3.09004 -1.62227 0
M  V30 3081 C 289.314 3.83532 -1.82177 0
M  V30 3082 O 290.338 3.18786 -1.58915 0
M  V30 3083 O 289.197 4.99792 -2.21067 0
M  V30 3084 H 286.291 0.769999 -0.301712 0
M  V30 3085 H 288.837 1.14846 -1.24934 0
M  V30 3086 H 287.609 2.88316 -2.64555 0
M  V30 3087 H 287.232 3.79316 -1.19187 0
M  V30 3088 N 288.23 0.939286 1.26551 0
M  V30 3089 C 289.476 0.586715 1.94128 0
M  V30 3090 C 289.809 -0.8717 1.73537 0
M  V30 3091 O 289.084 -1.62339 1.07127 0
M  V30 3092 C 289.367 0.927497 3.4795 0
M  V30 3093 C 289.22 2.44052 3.77834 0
M  V30 3094 C 290.539 0.441569 4.37879 0
M  V30 3095 H 287.658 0.21463 0.705055 0
M  V30 3096 H 290.3 1.17316 1.49455 0
M  V30 3097 H 288.45 0.428431 3.8613 0
M  V30 3098 H 290.122 3.01216 3.4938 0
M  V30 3099 H 288.365 2.8848 3.23978 0
M  V30 3100 H 289.036 2.62947 4.85348 0
M  V30 3101 H 291.512 0.869448 4.06915 0
M  V30 3102 H 290.388 0.708856 5.44304 0
M  V30 3103 H 290.649 -0.658467 4.37169 0
M  V30 3104 N 289.708 -1.40897 0.706093 0
M  V30 3105 C 290.954 -2.01352 0.241889 0
M  V30 3106 C 291.287 -1.55832 -1.15888 0
M  V30 3107 O 290.562 -0.774145 -1.7843 0
M  V30 3108 C 290.845 -3.58752 0.311311 0
M  V30 3109 C 290.698 -4.1437 1.74978 0
M  V30 3110 C 292.017 -4.38914 -0.322922 0
M  V30 3111 H 289.136 -0.731562 0.0893687 0
M  V30 3112 H 291.778 -1.67504 0.896802 0
M  V30 3113 H 289.928 -3.87718 -0.246302 0
M  V30 3114 H 291.6 -3.96239 2.36205 0
M  V30 3115 H 289.843 -3.69016 2.28057 0
M  V30 3116 H 290.514 -5.23532 1.74981 0
M  V30 3117 H 292.99 -4.15822 0.152089 0
M  V30 3118 H 291.866 -5.48358 -0.243855 0
M  V30 3119 H 292.127 -4.19176 -1.40513 0
M  V30 3120 N 291.186 -0.45159 -1.50991 0
M  V30 3121 C 292.133 0.352625 -2.2809 0
M  V30 3122 C 293.103 1.0044 -1.32291 0
M  V30 3123 O 294.288 1.02058 -1.6121 0
M  V30 3124 C 291.428 1.43983 -3.13629 0
M  V30 3125 C 290.541 0.804772 -4.24438 0
M  V30 3126 C 289.676 1.86822 -4.97263 0
M  V30 3127 C 288.715 1.21236 -5.99973 0
M  V30 3128 N 287.852 2.2178 -6.66152 0
M  V30 3129 H 292.692 -0.311186 -2.96371 0
M  V30 3130 H 290.229 -0.165308 -1.46168 0
M  V30 3131 H 292.187 2.08161 -3.61559 0
M  V30 3132 H 290.817 2.07307 -2.47434 0
M  V30 3133 H 289.869 0.0509129 -3.80366 0
M  V30 3134 H 291.181 0.286076 -4.97979 0
M  V30 3135 H 290.335 2.58628 -5.48813 0
M  V30 3136 H 289.074 2.42068 -4.23385 0
M  V30 3137 H 288.079 0.479828 -5.47702 0
M  V30 3138 H 289.304 0.667051 -6.75816 0
M  V30 3139 H 287.25 2.76079 -5.95077 0
M  V30 3140 H 287.167 1.74841 -7.35504 0
M  V30 3141 H 288.435 2.93026 -7.22327 0
M  V30 3142 N 292.664 1.56529 -0.183458 0
M  V30 3143 C 293.911 1.97244 0.458357 0
M  V30 3144 C 294.239 1.06992 1.62428 0
M  V30 3145 O 293.494 0.106542 1.9541 0
M  V30 3146 C 293.793 3.43939 0.971637 0
M  V30 3147 C 293.459 4.5083 -0.0796784 0
M  V30 3148 C 292.121 4.79786 -0.368584 0
M  V30 3149 C 294.473 5.15138 -0.792638 0
M  V30 3150 C 291.801 5.70345 -1.37563 0
M  V30 3151 C 294.153 6.06784 -1.78875 0
M  V30 3152 C 292.817 6.34102 -2.08497 0
M  V30 3153 H 292.087 0.721768 0.167725 0
M  V30 3154 H 294.734 1.89472 -0.277976 0
M  V30 3155 H 293.039 3.48724 1.78602 0
M  V30 3156 H 294.736 3.72791 1.47744 0
M  V30 3157 H 291.326 4.28317 0.155668 0
M  V30 3158 H 295.51 4.92868 -0.582659 0
M  V30 3159 H 290.766 5.89789 -1.61118 0
M  V30 3160 H 294.94 6.55677 -2.3465 0
M  V30 3161 H 292.567 7.04074 -2.86678 0
M  V30 3162 N 294.142 -0.090211 1.57342 0
M  V30 3163 C 295.372 -0.805055 1.90269 0
M  V30 3164 C 295.78 -1.72561 0.775842 0
M  V30 3165 O 295.123 -1.81839 -0.260843 0
M  V30 3166 C 295.185 -1.66734 3.18497 0
M  V30 3167 C 294.849 -0.918092 4.47683 0
M  V30 3168 C 295.846 -0.245674 5.19319 0
M  V30 3169 C 293.531 -0.890724 4.94339 0
M  V30 3170 C 295.525 0.444088 6.35851 0
M  V30 3171 C 293.212 -0.197179 6.10782 0
M  V30 3172 C 294.21 0.469044 6.81388 0
M  V30 3173 O 293.898 1.15146 7.95611 0
M  V30 3174 H 293.63 -0.235143 0.633785 0
M  V30 3175 H 296.184 -0.0703805 2.05279 0
M  V30 3176 H 294.414 -2.44437 2.99646 0
M  V30 3177 H 296.103 -2.25919 3.37217 0
M  V30 3178 H 296.869 -0.258246 4.84312 0
M  V30 3179 H 292.748 -1.39873 4.39268 0
M  V30 3180 H 296.292 0.964667 6.90898 0
M  V30 3181 H 292.189 -0.18247 6.45242 0
M  V30 3182 H 292.957 1.05885 8.11622 0
M  V30 3183 O 295.659 -1.59794 -0.234115 0
M  V30 3184 H 296.35 -1.72743 -0.876335 0
M  V30 END ATOM
M  V30 BEGIN BOND
M  V30 END BOND
M  V30 END CTAB
M  END
$$$$
