drugbank_target|P00644 Thermonuclease (DB03654; DB04205)
 OpenBabel12092120033D

  0  0  0     0  0            999 V3000
M  V30 BEGIN CTAB
M  V30 COUNTS 3617 3646 0 0 0
M  V30 BEGIN ATOM
M  V30 1 H -0.908 1.98254 -0.117106 0
M  V30 2 N 0 1.576 0 0
M  V30 3 C 0.933 2.03868 1.02534 0
M  V30 4 C 1.911 0.928543 1.3348 0
M  V30 5 O 3.095 1.19667 1.45644 0
M  V30 6 C 0.222 2.43627 2.35294 0
M  V30 7 C -0.732 3.65373 2.2001 0
M  V30 8 S 0.101 5.13292 1.52614 0
M  V30 9 C 1.257 5.56322 2.86805 0
M  V30 10 H 1.49 2.90518 0.631377 0
M  V30 11 H -0.977 1.52953 0.210867 0
M  V30 12 H 0.981 2.67203 3.11629 0
M  V30 13 H -0.358 1.57376 2.7183 0
M  V30 14 H -1.165 3.90944 3.18086 0
M  V30 15 H -1.563 3.418 1.51819 0
M  V30 16 H 0.729 5.58782 3.83104 0
M  V30 17 H 1.672 6.56266 2.65933 0
M  V30 18 H 2.08 4.83886 2.90714 0
M  V30 19 N 1.4781 -0.272755 1.55222 0
M  V30 20 C 2.4081 -1.34136 1.91127 0
M  V30 21 C 3.3891 -1.51513 0.773168 0
M  V30 22 O 4.5741 -1.64552 1.03132 0
M  V30 23 C 1.7041 -2.70083 2.1834 0
M  V30 24 C 0.6581 -2.67437 3.34158 0
M  V30 25 C -0.0159 -4.06938 3.46851 0
M  V30 26 C 1.2841 -2.26686 4.70543 0
M  V30 27 H 2.9781 -1.04333 2.80633 0
M  V30 28 H 0.5241 -0.500454 1.35024 0
M  V30 29 H 2.4771 -3.44952 2.42046 0
M  V30 30 H 1.2011 -3.01469 1.25634 0
M  V30 31 H -0.1399 -1.95026 3.1042 0
M  V30 32 H -0.4919 -4.35547 2.51611 0
M  V30 33 H -0.7919 -4.06062 4.2472 0
M  V30 34 H 0.7321 -4.83545 3.72849 0
M  V30 35 H 2.1461 -2.91277 4.93792 0
M  V30 36 H 0.5431 -2.36971 5.5133 0
M  V30 37 H 1.6131 -1.21818 4.69349 0
M  V30 38 N 2.9562 -1.48159 -0.537278 0
M  V30 39 C 4.2022 -1.56035 -1.29541 0
M  V30 40 C 4.5352 -0.230377 -1.92829 0
M  V30 41 O 3.8102 0.762952 -1.78911 0
M  V30 42 C 4.0932 -2.69323 -2.39034 0
M  V30 43 C 3.9462 -4.12002 -1.80485 0
M  V30 44 C 5.2652 -2.78408 -3.40847 0
M  V30 45 H 2.3842 -0.567992 -0.469632 0
M  V30 46 H 5.0262 -1.80302 -0.599277 0
M  V30 47 H 3.1762 -2.48763 -2.98412 0
M  V30 48 H 4.8482 -4.43981 -1.25215 0
M  V30 49 H 3.0912 -4.19344 -1.11055 0
M  V30 50 H 3.7622 -4.87077 -2.59731 0
M  V30 51 H 6.2382 -2.97012 -2.91416 0
M  V30 52 H 5.1142 -3.59416 -4.14863 0
M  V30 53 H 5.3752 -1.86269 -4.00944 0
M  V30 54 N 4.4343 0.785586 -1.36625 0
M  V30 55 C 5.3673 1.90509 -1.25625 0
M  V30 56 C 6.3453 1.62 -0.139607 0
M  V30 57 O 7.5293 1.8591 -0.31141 0
M  V30 58 C 4.6563 3.25419 -0.939158 0
M  V30 59 C 3.7023 3.72856 -2.07077 0
M  V30 60 S 4.5353 3.88162 -3.68904 0
M  V30 61 C 5.6913 5.25942 -3.39317 0
M  V30 62 H 5.9243 1.99549 -2.20381 0
M  V30 63 H 3.4573 0.945226 -1.22085 0
M  V30 64 H 5.4153 4.03346 -0.763029 0
M  V30 65 H 4.0763 3.14099 -0.00931402 0
M  V30 66 H 3.2693 4.70624 -1.80357 0
M  V30 67 H 2.8713 3.01989 -2.20632 0
M  V30 68 H 5.1633 6.10651 -2.93447 0
M  V30 69 H 6.1063 5.57668 -4.36363 0
M  V30 70 H 6.5143 4.93224 -2.74573 0
M  V30 71 N 5.9124 1.20967 1.01018 0
M  V30 72 C 7.1404 1.04956 1.78303 0
M  V30 73 C 7.5554 -0.400915 1.84494 0
M  V30 74 O 6.9124 -1.27826 1.30257 0
M  V30 75 C 6.9634 1.63403 3.22462 0
M  V30 76 O 6.6844 3.02775 3.16637 0
M  V30 77 C 8.1854 1.52432 4.16268 0
M  V30 78 H 5.4054 0.368858 0.560522 0
M  V30 79 H 7.9494 1.60193 1.27116 0
M  V30 80 H 6.1044 1.1227 3.70775 0
M  V30 81 H 6.5184 3.30626 4.07169 0
M  V30 82 H 7.9924 1.98078 5.15237 0
M  V30 83 H 8.4694 0.477875 4.36592 0
M  V30 84 H 9.0754 2.02787 3.73841 0
M  V30 85 N 7.3905 -1.2043 1.01659 0
M  V30 86 C 8.3005 -2.2689 0.596484 0
M  V30 87 C 9.3165 -1.70107 -0.36599 0
M  V30 88 O 10.4925 -2.00117 -0.226942 0
M  V30 89 C 7.5575 -3.4665 -0.0586659 0
M  V30 90 C 6.6185 -4.18662 0.949751 0
M  V30 91 C 5.8515 -5.32705 0.32577 0
M  V30 92 O 6.0745 -5.63656 -0.874509 0
M  V30 93 O 5.0085 -5.92803 1.04249 0
M  V30 94 H 8.8345 -2.65041 1.4828 0
M  V30 95 H 6.4195 -1.27048 0.786082 0
M  V30 96 H 8.3015 -4.19256 -0.424564 0
M  V30 97 H 6.9765 -3.10375 -0.91918 0
M  V30 98 H 5.8835 -3.48229 1.36702 0
M  V30 99 H 7.2165 -4.58878 1.78023 0
M  V30 100 N 8.8686 -0.792821 -1.36206 0
M  V30 101 C 10.0986 -0.378275 -2.03107 0
M  V30 102 C 10.5066 1.01119 -1.59911 0
M  V30 103 O 9.8496 1.66052 -0.785658 0
M  V30 104 C 9.9116 -0.366535 -3.57627 0
M  V30 105 C 9.5756 -1.70416 -4.24037 0
M  V30 106 C 10.5726 -2.6602 -4.46687 0
M  V30 107 C 8.2576 -1.98439 -4.6144 0
M  V30 108 C 10.2516 -3.8784 -5.05825 0
M  V30 109 C 7.9386 -3.20525 -5.20295 0
M  V30 110 C 8.9366 -4.15044 -5.42427 0
M  V30 111 O 8.6246 -5.34978 -6.00045 0
M  V30 112 H 8.3566 -0.153543 -0.658332 0
M  V30 113 H 10.9106 -1.07383 -1.75094 0
M  V30 114 H 9.1406 0.385539 -3.84773 0
M  V30 115 H 10.8296 0.0238088 -4.05893 0
M  V30 116 H 11.5956 -2.45658 -4.18183 0
M  V30 117 H 7.4746 -1.25686 -4.43536 0
M  V30 118 H 11.0186 -4.61628 -5.23015 0
M  V30 119 H 6.9156 -3.40764 -5.48225 0
M  V30 120 H 7.6836 -5.36088 -6.18508 0
M  V30 121 N 10.3467 1.47872 -0.545128 0
M  V30 122 C 11.2767 2.32661 0.197793 0
M  V30 123 C 12.2577 1.43041 0.920504 0
M  V30 124 O 13.4427 1.71912 0.90333 0
M  V30 125 C 10.5727 3.24569 1.23582 0
M  V30 126 C 9.5267 4.23333 0.630323 0
M  V30 127 C 8.8527 5.0448 1.77211 0
M  V30 128 C 10.1527 5.20704 -0.407974 0
M  V30 129 H 11.8467 2.95024 -0.510045 0
M  V30 130 H 9.3927 1.4187 -0.246731 0
M  V30 131 H 11.3457 3.8272 1.76362 0
M  V30 132 H 10.0697 2.60236 1.97344 0
M  V30 133 H 8.7287 3.6639 0.123922 0
M  V30 134 H 8.3767 4.36561 2.49847 0
M  V30 135 H 8.0767 5.71339 1.37281 0
M  V30 136 H 9.6007 5.65487 2.3034 0
M  V30 137 H 11.0147 5.7329 0.033305 0
M  V30 138 H 9.4117 5.95699 -0.725486 0
M  V30 139 H 10.4817 4.66917 -1.30828 0
M  V30 140 N 11.8248 0.280983 1.55075 0
M  V30 141 C 12.7548 -0.597469 2.25727 0
M  V30 142 C 13.7358 -1.15417 1.24952 0
M  V30 143 O 14.9208 -1.18722 1.53684 0
M  V30 144 C 12.0508 -1.7789 2.98283 0
M  V30 145 C 11.0048 -1.35347 4.06036 0
M  V30 146 C 10.3308 -2.61846 4.66198 0
M  V30 147 C 11.6308 -0.499354 5.19907 0
M  V30 148 H 13.3248 -0.00824265 2.99399 0
M  V30 149 H 10.8708 -0.0025244 1.44 0
M  V30 150 H 12.8238 -2.39937 3.46422 0
M  V30 151 H 11.5478 -2.39405 2.22155 0
M  V30 152 H 10.2068 -0.756156 3.58717 0
M  V30 153 H 9.8548 -3.21632 3.86732 0
M  V30 154 H 9.5548 -2.3409 5.38958 0
M  V30 155 H 11.0788 -3.24732 5.1709 0
M  V30 156 H 12.4928 -1.02498 5.64063 0
M  V30 157 H 10.8898 -0.316424 5.99265 0
M  V30 158 H 11.9598 0.480459 4.82514 0
M  V30 159 N 13.3029 -1.57598 0.00835791 0
M  V30 160 C 14.5279 -1.95617 -0.689103 0
M  V30 161 C 14.9529 -0.883753 -1.66046 0
M  V30 162 O 14.3109 0.157352 -1.80616 0
M  V30 163 C 14.3589 -3.32736 -1.38994 0
M  V30 164 O 13.4629 -3.27631 -2.50463 0
M  V30 165 H 12.8039 -0.638379 -0.182668 0
M  V30 166 H 15.3339 -2.045 0.064036 0
M  V30 167 H 15.3439 -3.68494 -1.75147 0
M  V30 168 H 14.0189 -4.1034 -0.677778 0
M  V30 169 H 12.5959 -3.03561 -2.16576 0
M  V30 170 N 14.781 0.264519 -1.55364 0
M  V30 171 C 15.744 1.31046 -1.88042 0
M  V30 172 C 16.744 1.41943 -0.755569 0
M  V30 173 O 17.934 1.40947 -1.02369 0
M  V30 174 C 15.066 2.69067 -2.09323 0
M  V30 175 H 16.259 1.03297 -2.81549 0
M  V30 176 H 13.812 0.502989 -1.47986 0
M  V30 177 H 14.547 3.01982 -1.18226 0
M  V30 178 H 14.332 2.62542 -2.91229 0
M  V30 179 H 15.822 3.44623 -2.35848 0
M  V30 180 N 16.2591 1.48442 0.529413 0
M  V30 181 C 17.5071 1.56179 1.28267 0
M  V30 182 C 17.8281 0.237721 1.93546 0
M  V30 183 O 17.0981 -0.740779 1.81354 0
M  V30 184 H 15.6781 0.575367 0.476405 0
M  V30 185 H 18.3401 1.84909 0.61602 0
M  V30 186 H 17.4361 2.34312 2.06165 0
M  V30 187 N 17.7372 -0.778329 1.37039 0
M  V30 188 C 18.9862 -1.53189 1.3121 0
M  V30 189 C 19.2992 -1.95328 -0.103095 0
M  V30 190 O 20.5052 -2.70012 -0.283826 0
M  V30 191 C 18.9612 -2.76591 2.30272 0
M  V30 192 C 18.5692 -2.41577 3.77286 0
M  V30 193 C 20.3132 -3.5455 2.33441 0
M  V30 194 C 18.2202 -3.61441 4.68096 0
M  V30 195 H 17.1502 -0.5751 0.487622 0
M  V30 196 H 19.8012 -0.853101 1.62464 0
M  V30 197 H 18.1832 -3.46326 1.92027 0
M  V30 198 H 19.3572 -1.79668 4.2433 0
M  V30 199 H 17.6722 -1.76806 3.76999 0
M  V30 200 H 20.2692 -4.43628 2.98493 0
M  V30 201 H 20.6122 -3.93936 1.34611 0
M  V30 202 H 21.1452 -2.91805 2.7036 0
M  V30 203 H 17.8842 -3.27142 5.6803 0
M  V30 204 H 17.4042 -4.22478 4.25761 0
M  V30 205 H 19.0832 -4.28335 4.8491 0
M  V30 206 N 19.2153 -1.21501 -1.00376 0
M  V30 207 C 20.4553 -1.04444 -1.75701 0
M  V30 208 C 20.8193 0.414644 -1.87469 0
M  V30 209 O 22.0203 0.705763 -2.59369 0
M  V30 210 C 20.2913 -1.72389 -3.13077 0
M  V30 211 S 21.8503 -1.70604 -4.04277 0
M  V30 212 H 18.6683 -0.374249 -0.604532 0
M  V30 213 H 21.2703 -1.54267 -1.20091 0
M  V30 214 H 19.9743 -2.77734 -3.02146 0
M  V30 215 H 19.5053 -1.22751 -3.73759 0
M  V30 216 H 21.5203 -0.748012 -4.9053 0
M  V30 217 N 20.6934 1.19889 -1.02296 0
M  V30 218 C 21.6264 2.21639 -0.543282 0
M  V30 219 C 22.6044 1.57275 0.412698 0
M  V30 220 O 23.7884 1.85568 0.331198 0
M  V30 221 C 20.9154 3.38057 0.208571 0
M  V30 222 C 19.9614 4.20751 -0.697933 0
M  V30 223 S 20.7944 4.89529 -2.17075 0
M  V30 224 C 21.9504 6.09363 -1.42923 0
M  V30 225 H 22.1834 2.61984 -1.40541 0
M  V30 226 H 19.7164 1.30041 -0.832387 0
M  V30 227 H 21.6744 4.05539 0.63624 0
M  V30 228 H 20.3354 2.96159 1.04635 0
M  V30 229 H 19.5284 5.03862 -0.117831 0
M  V30 230 H 19.1304 3.58556 -1.06366 0
M  V30 231 H 21.4224 6.73742 -0.712637 0
M  V30 232 H 22.3654 6.71845 -2.23673 0
M  V30 233 H 22.7734 5.56798 -0.929327 0
M  V30 234 N 22.1715 0.800033 1.35784 0
M  V30 235 C 23.1345 0.211565 2.28221 0
M  V30 236 C 24.1345 -0.59728 1.49296 0
M  V30 237 O 25.3245 -0.416721 1.69142 0
M  V30 238 C 22.4565 -0.705846 3.33513 0
M  V30 239 H 23.6495 1.02677 2.81776 0
M  V30 240 H 21.2025 0.570211 1.45528 0
M  V30 241 H 21.9375 -1.54498 2.85133 0
M  V30 242 H 21.7225 -0.127655 3.91892 0
M  V30 243 H 23.2125 -1.11211 4.02519 0
M  V30 244 N 23.6496 -1.47581 0.552962 0
M  V30 245 C 24.8986 -2.01684 0.0251995 0
M  V30 246 C 25.2116 -1.43317 -1.33115 0
M  V30 247 O 26.4176 -1.89057 -1.94858 0
M  V30 248 C 24.8736 -3.599 -0.00542052 0
M  V30 249 C 24.4816 -4.27257 1.34742 0
M  V30 250 C 26.2256 -4.21768 -0.4808 0
M  V30 251 C 24.1326 -5.77467 1.27614 0
M  V30 252 H 23.0626 -0.753979 0.00565033 0
M  V30 253 H 25.7136 -1.69616 0.70018 0
M  V30 254 H 24.0956 -3.88911 -0.745961 0
M  V30 255 H 25.2696 -4.09893 2.10534 0
M  V30 256 H 23.5846 -3.77358 1.76039 0
M  V30 257 H 26.1816 -5.31838 -0.55246 0
M  V30 258 H 26.5246 -3.88651 -1.49184 0
M  V30 259 H 27.0576 -3.97273 0.204752 0
M  V30 260 H 23.7966 -6.15196 2.26304 0
M  V30 261 H 23.3166 -5.9718 0.55996 0
M  V30 262 H 24.9956 -6.3959 0.976421 0
M  V30 263 N 25.1277 -0.289203 -1.54924 0
M  V30 264 C 26.3737 0.323998 -2.00195 0
M  V30 265 C 26.7067 1.54441 -1.17735 0
M  V30 266 O 25.9817 1.92875 -0.250878 0
M  V30 267 C 26.2647 0.692276 -3.53383 0
M  V30 268 C 26.1177 -0.536457 -4.46589 0
M  V30 269 C 27.4367 1.52335 -4.12895 0
M  V30 270 H 24.5557 0.116289 -0.727768 0
M  V30 271 H 27.1977 -0.398954 -1.85764 0
M  V30 272 H 25.3477 1.30822 -3.65811 0
M  V30 273 H 27.0197 -1.17499 -4.46085 0
M  V30 274 H 25.2627 -1.17192 -4.1767 0
M  V30 275 H 25.9337 -0.234806 -5.515 0
M  V30 276 H 28.4097 1.00302 -4.0383 0
M  V30 277 H 27.2857 1.74982 -5.20262 0
M  V30 278 H 27.5467 2.50886 -3.64018 0
M  V30 279 N 26.6058 1.57591 -0.0167156 0
M  V30 280 C 27.8308 1.9598 0.67872 0
M  V30 281 C 28.2558 0.892546 1.65575 0
M  V30 282 O 27.6138 -0.147772 1.80697 0
M  V30 283 C 27.6618 3.33468 1.37227 0
M  V30 284 O 26.7658 3.28954 2.48722 0
M  V30 285 H 26.1068 0.639339 0.17928 0
M  V30 286 H 28.6368 2.04463 -0.0748802 0
M  V30 287 H 28.6468 3.69417 1.7319 0
M  V30 288 H 27.3218 4.10694 0.656007 0
M  V30 289 H 25.8988 3.04705 2.14963 0
M  V30 290 N 28.0839 -0.256276 1.55502 0
M  V30 291 C 29.3329 -0.983486 1.76098 0
M  V30 292 C 29.6459 -1.86837 0.578896 0
M  V30 293 O 30.8519 -2.63163 0.667648 0
M  V30 294 C 29.3079 -1.79868 3.1173 0
M  V30 295 C 28.9159 -0.961648 4.37557 0
M  V30 296 C 30.6599 -2.51919 3.41668 0
M  V30 297 C 28.5669 -1.77219 5.64223 0
M  V30 298 H 27.4969 -0.370936 0.656447 0
M  V30 299 H 30.1479 -0.238492 1.81944 0
M  V30 300 H 28.5299 -2.58527 2.99966 0
M  V30 301 H 29.7039 -0.218048 4.60284 0
M  V30 302 H 28.0189 -0.354913 4.14885 0
M  V30 303 H 30.6159 -3.12998 4.33516 0
M  V30 304 H 30.9589 -3.23059 2.62562 0
M  V30 305 H 31.4919 -1.80278 3.54605 0
M  V30 306 H 28.2309 -1.10471 6.46124 0
M  V30 307 H 27.7509 -2.49132 5.45613 0
M  V30 308 H 29.4299 -2.34169 6.03137 0
M  V30 309 N 29.562 -1.4872 -0.521534 0
M  V30 310 C 30.492 -1.66771 -1.63431 0
M  V30 311 C 31.473 -0.516499 -1.62069 0
M  V30 312 O 32.658 -0.750013 -1.79132 0
M  V30 313 C 29.788 -1.71515 -3.01993 0
M  V30 314 C 28.742 -2.86222 -3.18216 0
M  V30 315 C 28.068 -2.76061 -4.57924 0
M  V30 316 C 29.368 -4.27419 -3.00184 0
M  V30 317 H 31.062 -2.59932 -1.48579 0
M  V30 318 H 28.608 -1.25089 -0.713358 0
M  V30 319 H 30.561 -1.82731 -3.7972 0
M  V30 320 H 29.285 -0.749393 -3.17886 0
M  V30 321 H 27.944 -2.74575 -2.42908 0
M  V30 322 H 27.592 -1.77437 -4.70665 0
M  V30 323 H 27.292 -3.53037 -4.69722 0
M  V30 324 H 28.816 -2.89256 -5.37739 0
M  V30 325 H 30.23 -4.39855 -3.67697 0
M  V30 326 H 28.627 -5.05458 -3.2347 0
M  V30 327 H 29.697 -4.43293 -1.96518 0
M  V30 328 N 31.0401 0.771051 -1.3745 0
M  V30 329 C 31.9701 1.89827 -1.3597 0
M  V30 330 C 32.9511 1.68562 -0.228216 0
M  V30 331 O 34.1361 1.8941 -0.428675 0
M  V30 332 C 31.2661 3.2712 -1.16662 0
M  V30 333 C 30.2201 3.6295 -2.2683 0
M  V30 334 C 29.5461 4.98791 -1.92644 0
M  V30 335 C 30.8461 3.69627 -3.69017 0
M  V30 336 H 32.5401 1.91323 -2.30295 0
M  V30 337 H 30.0861 0.919082 -1.10855 0
M  V30 338 H 32.0391 4.05615 -1.14256 0
M  V30 339 H 30.7631 3.26059 -0.187926 0
M  V30 340 H 29.4221 2.86763 -2.28392 0
M  V30 341 H 29.0701 4.94271 -0.933021 0
M  V30 342 H 28.7701 5.23733 -2.66416 0
M  V30 343 H 30.2941 5.79685 -1.91826 0
M  V30 344 H 31.7081 4.38273 -3.69581 0
M  V30 345 H 30.1051 4.06067 -4.41848 0
M  V30 346 H 31.1751 2.70273 -4.02592 0
M  V30 347 N 32.5182 1.22032 0.997298 0
M  V30 348 C 33.7672 1.03637 1.73038 0
M  V30 349 C 34.0802 -0.429475 1.90827 0
M  V30 350 O 35.2862 -0.732995 2.61418 0
M  V30 351 C 33.7422 1.80582 3.11317 0
M  V30 352 C 33.3502 3.31387 3.01474 0
M  V30 353 C 35.0942 1.70621 3.88701 0
M  V30 354 C 33.0012 4.00791 4.3488 0
M  V30 355 H 31.9312 0.384179 0.648785 0
M  V30 356 H 34.5822 1.4584 1.11368 0
M  V30 357 H 32.9642 1.31175 3.73643 0
M  V30 358 H 34.1382 3.88155 2.4834 0
M  V30 359 H 32.4532 3.41976 2.37575 0
M  V30 360 H 35.0502 2.19799 4.87434 0
M  V30 361 H 35.3932 0.665823 4.10941 0
M  V30 362 H 35.9262 2.17547 3.33044 0
M  V30 363 H 32.6652 5.05064 4.1784 0
M  V30 364 H 32.1852 3.48811 4.87945 0
M  V30 365 H 33.8642 4.06139 5.03647 0
M  V30 366 N 33.9963 -1.19345 1.0293 0
M  V30 367 C 35.2443 -1.88665 0.724574 0
M  V30 368 C 35.5653 -1.80036 -0.749144 0
M  V30 369 O 34.8353 -1.2111 -1.53978 0
M  V30 370 H 33.4153 -0.698406 0.265025 0
M  V30 371 H 36.0773 -1.44885 1.30362 0
M  V30 372 H 35.1733 -2.94987 1.01926 0
M  V30 373 N 35.4744 -0.807222 -1.35358 0
M  V30 374 C 36.4074 -0.163572 -2.27613 0
M  V30 375 C 37.3854 0.670817 -1.48118 0
M  V30 376 O 38.5694 0.63796 -1.77376 0
M  V30 377 C 35.6964 0.773015 -3.29761 0
M  V30 378 C 34.7424 0.0181653 -4.26496 0
M  V30 379 S 35.5754 -1.31831 -5.19019 0
M  V30 380 C 36.7314 -0.38619 -6.24707 0
M  V30 381 H 36.9644 -0.945757 -2.81856 0
M  V30 382 H 34.4974 -0.602315 -1.42167 0
M  V30 383 H 36.4554 1.30788 -3.89108 0
M  V30 384 H 35.1164 1.52859 -2.74396 0
M  V30 385 H 34.3094 0.729534 -4.98692 0
M  V30 386 H 33.9114 -0.446761 -3.71322 0
M  V30 387 H 36.2034 0.428295 -6.76145 0
M  V30 388 H 37.1464 -1.07736 -6.99856 0
M  V30 389 H 37.5544 0.018398 -5.64497 0
M  V30 390 N 36.9525 1.47285 -0.560781 0
M  V30 391 C 37.9155 2.28535 0.174488 0
M  V30 392 C 38.9155 1.37153 0.839388 0
M  V30 393 O 40.1055 1.59748 0.694702 0
M  V30 394 C 37.2375 3.16934 1.25561 0
M  V30 395 H 38.4305 2.95012 -0.539262 0
M  V30 396 H 35.9835 1.53034 -0.317865 0
M  V30 397 H 36.7185 2.55157 2.00164 0
M  V30 398 H 36.5035 3.8419 0.783604 0
M  V30 399 H 37.9935 3.78143 1.77193 0
M  V30 400 N 38.4306 0.297415 1.54768 0
M  V30 401 C 39.6796 -0.313669 1.99246 0
M  V30 402 C 39.9926 -1.55281 1.18942 0
M  V30 403 O 41.1986 -2.23825 1.5367 0
M  V30 404 C 39.6546 -0.609407 3.54703 0
M  V30 405 C 39.2626 0.611192 4.43811 0
M  V30 406 C 41.0066 -1.18188 4.07715 0
M  V30 407 C 38.9136 0.288805 5.90694 0
M  V30 408 H 37.8436 -0.120979 0.744231 0
M  V30 409 H 40.4946 0.40556 1.78962 0
M  V30 410 H 38.8766 -1.38813 3.70873 0
M  V30 411 H 40.0506 1.3875 4.39414 0
M  V30 412 H 38.3656 1.10205 4.01552 0
M  V30 413 H 40.9626 -1.43727 5.15021 0
M  V30 414 H 41.3056 -2.12299 3.58099 0
M  V30 415 H 41.8386 -0.464944 3.95074 0
M  V30 416 H 38.5776 1.19838 6.44453 0
M  V30 417 H 38.0976 -0.450305 5.98107 0
M  V30 418 H 39.7766 -0.110933 6.46905 0
M  V30 419 N 39.9087 -1.5758 0.0250728 0
M  V30 420 C 41.1337 -1.96337 -0.668317 0
M  V30 421 C 41.5587 -0.901314 -1.651 0
M  V30 422 O 40.9167 0.138187 -1.80773 0
M  V30 423 C 40.9647 -3.34191 -1.35457 0
M  V30 424 O 40.0687 -3.30269 -2.46974 0
M  V30 425 H 39.4097 -0.640281 -0.175887 0
M  V30 426 H 41.9397 -2.0442 0.0857224 0
M  V30 427 H 41.9497 -3.70331 -1.71228 0
M  V30 428 H 40.6247 -4.11036 -0.634218 0
M  V30 429 H 39.2017 -3.05841 -2.13344 0
M  V30 430 N 41.3868 0.248026 -1.55636 0
M  V30 431 C 42.3348 1.32683 -1.91045 0
M  V30 432 C 43.3288 1.49883 -0.789401 0
M  V30 433 O 44.5348 1.51371 -0.974007 0
M  V30 434 H 40.9098 0.444272 -0.606734 0
M  V30 435 H 42.8808 1.00085 -2.81115 0
M  V30 436 C 41.6298 2.6755 -2.22064 0
M  V30 437 H 40.9528 2.55114 -3.07826 0
M  V30 438 H 42.3928 3.41912 -2.50743 0
M  V30 439 C 40.8518 3.20556 -1.0366 0
M  V30 440 O 41.3818 4.00695 -0.284016 0
M  V30 441 N 39.5878 2.78568 -0.82753 0
M  V30 442 H 39.1348 2.1351 -1.44123 0
M  V30 443 H 39.0928 3.14378 -0.0369803 0
M  V30 444 N 42.8649 1.48995 0.513639 0
M  V30 445 C 44.1109 1.58076 1.27042 0
M  V30 446 C 44.4439 0.261026 1.92438 0
M  V30 447 O 43.7189 -0.734393 1.80103 0
M  V30 448 C 44.0019 2.73091 2.34719 0
M  V30 449 C 43.8549 4.14821 1.73907 0
M  V30 450 C 45.1739 2.83796 3.36375 0
M  V30 451 H 42.2929 0.575391 0.460536 0
M  V30 452 H 44.9349 1.81232 0.570516 0
M  V30 453 H 43.0849 2.53479 2.94416 0
M  V30 454 H 44.7569 4.45917 1.18135 0
M  V30 455 H 42.9999 4.21058 1.0437 0
M  V30 456 H 43.6709 4.91147 2.51949 0
M  V30 457 H 46.1469 3.01611 2.86653 0
M  V30 458 H 45.0229 3.65971 4.09093 0
M  V30 459 H 45.2839 1.92624 3.9793 0
M  V30 460 N 44.343 -0.763751 1.37857 0
M  V30 461 C 45.568 -1.55805 1.36893 0
M  V30 462 C 45.993 -1.88054 -0.0416135 0
M  V30 463 O 45.351 -1.49825 -1.02089 0
M  V30 464 C 45.399 -2.84012 2.22192 0
M  V30 465 O 44.503 -3.78732 1.63204 0
M  V30 466 H 43.844 -0.471638 0.46739 0
M  V30 467 H 46.374 -0.944657 1.81487 0
M  V30 468 H 46.384 -3.33037 2.35691 0
M  V30 469 H 45.059 -2.59869 3.24716 0
M  V30 470 H 43.636 -3.37402 1.58791 0
M  V30 471 N 45.8211 -1.22559 -0.990812 0
M  V30 472 C 46.7681 -0.997519 -2.0813 0
M  V30 473 C 47.7381 0.0814702 -1.659 0
M  V30 474 O 48.9231 -0.0685424 -1.90677 0
M  V30 475 C 46.0631 -0.583615 -3.40129 0
M  V30 476 C 45.1761 -1.7336 -3.9569 0
M  V30 477 C 44.3111 -1.26748 -5.15857 0
M  V30 478 C 43.3501 -2.38888 -5.63559 0
M  V30 479 N 42.4871 -1.93308 -6.74964 0
M  V30 480 H 47.3271 -1.93099 -2.26973 0
M  V30 481 H 44.8641 -0.962114 -1.11273 0
M  V30 482 H 46.8221 -0.324801 -4.15934 0
M  V30 483 H 45.4521 0.312845 -3.2128 0
M  V30 484 H 44.5041 -2.10669 -3.16738 0
M  V30 485 H 45.8161 -2.57704 -4.27071 0
M  V30 486 H 44.9701 -0.966173 -5.98957 0
M  V30 487 H 43.7091 -0.394272 -4.86104 0
M  V30 488 H 42.7141 -2.69805 -4.79046 0
M  V30 489 H 43.9391 -3.26728 -5.95336 0
M  V30 490 H 41.8851 -1.08352 -6.4699 0
M  V30 491 H 41.8021 -2.71217 -7.05675 0
M  V30 492 H 43.0701 -1.66252 -7.61564 0
M  V30 493 N 47.2992 1.18797 -1.03562 0
M  V30 494 C 48.5472 1.88278 -0.734569 0
M  V30 495 C 48.8682 1.8043 0.739586 0
M  V30 496 O 48.1382 1.21925 1.53333 0
M  V30 497 H 46.7182 0.696991 -0.268725 0
M  V30 498 H 49.3802 1.44192 -1.31129 0
M  V30 499 H 48.4762 2.94443 -1.03489 0
M  V30 500 N 48.7773 0.814389 1.34928 0
M  V30 501 C 49.7093 0.187834 2.28429 0
M  V30 502 C 50.7223 -0.617374 1.5064 0
M  V30 503 O 51.9113 -0.448454 1.72775 0
M  V30 504 C 49.0113 -0.755962 3.30361 0
M  V30 505 C 48.1843 0.00456686 4.374 0
M  V30 506 C 47.2433 -0.858876 5.19143 0
M  V30 507 O 46.2693 -0.306968 5.68372 0
M  V30 508 N 47.4713 -2.17988 5.38016 0
M  V30 509 H 50.2363 0.991105 2.82838 0
M  V30 510 H 47.7973 0.670561 1.4736 0
M  V30 511 H 49.7893 -1.338 3.81942 0
M  V30 512 H 48.3593 -1.46001 2.7641 0
M  V30 513 H 47.5793 0.767865 3.86649 0
M  V30 514 H 48.8673 0.528422 5.06049 0
M  V30 515 H 48.2653 -2.65212 4.99679 0
M  V30 516 H 46.8223 -2.71098 5.92747 0
M  V30 517 N 50.2554 -1.46986 0.568584 0
M  V30 518 C 51.4854 -2.0653 0.0539173 0
M  V30 519 C 51.8934 -1.42004 -1.25026 0
M  V30 520 O 51.2364 -0.514541 -1.76347 0
M  V30 521 C 51.2984 -3.58938 -0.200854 0
M  V30 522 C 50.9624 -4.45572 1.01559 0
M  V30 523 C 51.9594 -4.82986 1.92407 0
M  V30 524 C 49.6444 -4.8692 1.23346 0
M  V30 525 C 51.6384 -5.60559 3.03402 0
M  V30 526 C 49.3254 -5.64255 2.34649 0
M  V30 527 C 50.3234 -6.00986 3.24507 0
M  V30 528 O 50.0114 -6.76761 4.33878 0
M  V30 529 H 49.7434 -0.674292 0.0480234 0
M  V30 530 H 52.2974 -1.89812 0.784896 0
M  V30 531 H 50.5274 -3.73911 -0.986279 0
M  V30 532 H 52.2164 -4.0046 -0.662294 0
M  V30 533 H 52.9824 -4.51633 1.76785 0
M  V30 534 H 48.8614 -4.57789 0.543178 0
M  V30 535 H 52.4054 -5.89147 3.73565 0
M  V30 536 H 48.3024 -5.95021 2.5024 0
M  V30 537 H 49.0704 -6.95168 4.32068 0
M  V30 538 N 51.7335 -0.305618 -1.54608 0
M  V30 539 C 52.6965 0.555591 -2.22364 0
M  V30 540 C 53.6965 1.05768 -1.21119 0
M  V30 541 O 54.8865 0.952972 -1.45822 0
M  V30 542 C 52.0185 1.76974 -2.91364 0
M  V30 543 H 53.2115 -0.0364572 -2.99878 0
M  V30 544 H 50.7645 -0.0565007 -1.56198 0
M  V30 545 H 51.4995 2.40151 -2.17941 0
M  V30 546 H 51.2845 1.41732 -3.65588 0
M  V30 547 H 52.7745 2.38148 -3.43038 0
M  V30 548 N 53.2116 1.57565 -0.0334293 0
M  V30 549 C 54.1586 2.10478 0.946981 0
M  V30 550 C 55.1286 1.00787 1.32027 0
M  V30 551 O 56.3136 1.28232 1.41284 0
M  V30 552 C 53.4536 2.63994 2.22263 0
M  V30 553 C 52.5666 3.87709 1.90541 0
M  V30 554 C 51.7016 4.29604 3.12433 0
M  V30 555 C 50.7406 5.46065 2.76549 0
M  V30 556 N 49.8776 5.83096 3.9108 0
M  V30 557 H 54.7176 2.93963 0.488846 0
M  V30 558 H 52.2546 1.45296 0.22969 0
M  V30 559 H 54.2126 2.93114 2.96884 0
M  V30 560 H 52.8426 1.83333 2.65685 0
M  V30 561 H 51.8946 3.65291 1.06144 0
M  V30 562 H 53.2066 4.72403 1.60116 0
M  V30 563 H 52.3606 4.60182 3.9537 0
M  V30 564 H 51.0996 3.43685 3.46023 0
M  V30 565 H 50.1046 5.15176 1.92026 0
M  V30 566 H 51.3296 6.33685 2.44171 0
M  V30 567 H 49.2756 5.00132 4.24504 0
M  V30 568 H 49.1926 6.6244 3.64293 0
M  V30 569 H 50.4606 6.18282 4.74708 0
M  V30 570 N 54.6897 -0.239769 1.55765 0
M  V30 571 C 56.1057 -0.588624 1.48349 0
M  V30 572 C 56.3057 -1.88005 0.72502 0
M  V30 573 O 55.3617 -2.51186 0.257269 0
M  V30 574 C 56.6747 -0.68474 2.928 0
M  V30 575 C 58.2227 -0.77659 3.03213 0
M  V30 576 C 58.6977 -0.904207 4.48986 0
M  V30 577 N 60.1887 -0.968896 4.52953 0
M  V30 578 C 60.9237 -1.08703 5.63002 0
M  V30 579 N 60.4197 -1.17026 6.82845 0
M  V30 580 N 62.2127 -1.12074 5.50814 0
M  V30 581 H 54.3637 0.607911 2.03515 0
M  V30 582 H 56.6267 0.21083 0.924259 0
M  V30 583 H 56.3327 0.194284 3.51163 0
M  V30 584 H 56.2067 -1.55435 3.43686 0
M  V30 585 H 58.5937 -1.64606 2.44926 0
M  V30 586 H 58.6747 0.118315 2.55526 0
M  V30 587 H 58.3187 -0.0392633 5.07885 0
M  V30 588 H 58.2487 -1.81426 4.9436 0
M  V30 589 H 60.7397 -0.915633 3.6664 0
M  V30 590 H 61.0527 -1.25966 7.62465 0
M  V30 591 H 59.3977 -1.13971 6.85591 0
M  V30 592 H 62.5887 -1.05226 4.5612 0
M  V30 593 H 62.7617 -1.20936 6.36615 0
M  V30 594 N 56.1678 -1.49265 -0.50573 0
M  V30 595 C 57.4148 -1.58513 -1.26015 0
M  V30 596 C 57.7428 -0.26972 -1.92621 0
M  V30 597 O 56.9978 0.741997 -1.81088 0
M  V30 598 C 57.2968 -2.69008 -2.35308 0
M  V30 599 C 56.9628 -4.10662 -1.86192 0
M  V30 600 C 55.6248 -4.49212 -1.72516 0
M  V30 601 C 57.9768 -4.99336 -1.49375 0
M  V30 602 C 55.3048 -5.74214 -1.20394 0
M  V30 603 C 57.6568 -6.24852 -0.987072 0
M  V30 604 C 56.3208 -6.62236 -0.836669 0
M  V30 605 H 55.5908 -0.580041 -0.461122 0
M  V30 606 H 58.2378 -1.83078 -0.561665 0
M  V30 607 H 56.5428 -2.38396 -3.10926 0
M  V30 608 H 58.2398 -2.73373 -2.93374 0
M  V30 609 H 54.8298 -3.8023 -1.97795 0
M  V30 610 H 59.0138 -4.70212 -1.5879 0
M  V30 611 H 54.2698 -6.01883 -1.07458 0
M  V30 612 H 58.4438 -6.92944 -0.692983 0
M  V30 613 H 56.0708 -7.58979 -0.430607 0
M  V30 614 N 57.6459 0.756429 -1.3826 0
M  V30 615 C 58.8929 1.51547 -1.34312 0
M  V30 616 C 59.2209 1.94382 0.0677144 0
M  V30 617 O 58.4759 1.65514 1.04421 0
M  V30 618 C 58.7749 2.78313 -2.24224 0
M  V30 619 C 58.4409 2.54455 -3.72241 0
M  V30 620 C 57.1029 2.47657 -4.12576 0
M  V30 621 C 59.4549 2.3354 -4.65949 0
M  V30 622 C 56.7829 2.17956 -5.44713 0
M  V30 623 C 59.1349 2.05359 -5.9834 0
M  V30 624 C 57.7989 1.97016 -6.37762 0
M  V30 625 H 57.0689 0.55455 -0.491482 0
M  V30 626 H 59.7159 0.870039 -1.70595 0
M  V30 627 H 58.0209 3.47492 -1.80987 0
M  V30 628 H 59.7179 3.36259 -2.18474 0
M  V30 629 H 56.3079 2.60616 -3.40261 0
M  V30 630 H 60.4919 2.37772 -4.35635 0
M  V30 631 H 55.7479 2.10003 -5.74203 0
M  V30 632 H 59.9219 1.88179 -6.70494 0
M  V30 633 H 57.5489 1.73766 -7.40074 0
M  V30 634 N 59.124 1.23083 0.984299 0
M  V30 635 C 60.371 1.06057 1.72505 0
M  V30 636 C 60.699 -0.403105 1.90277 0
M  V30 637 O 59.954 -1.3149 1.44944 0
M  V30 638 C 60.253 1.72673 3.1292 0
M  V30 639 C 59.919 3.22586 3.15038 0
M  V30 640 C 58.581 3.63489 3.15324 0
M  V30 641 C 60.933 4.185 3.10657 0
M  V30 642 C 58.261 4.98772 3.08939 0
M  V30 643 C 60.613 5.53769 3.05814 0
M  V30 644 C 59.277 5.94041 3.04419 0
M  V30 645 H 58.547 0.388091 0.631242 0
M  V30 646 H 61.194 1.52963 1.15215 0
M  V30 647 H 59.499 1.18116 3.73572 0
M  V30 648 H 61.196 1.56982 3.68996 0
M  V30 649 H 57.786 2.90022 3.15571 0
M  V30 650 H 61.97 3.87911 3.09579 0
M  V30 651 H 57.226 5.29193 3.0621 0
M  V30 652 H 61.4 6.27808 3.0138 0
M  V30 653 H 59.027 6.98833 2.99227 0
M  V30 654 N 60.6021 -1.18246 1.0419 0
M  V30 655 C 61.8491 -1.88257 0.746017 0
M  V30 656 C 62.1771 -1.80429 -0.726331 0
M  V30 657 O 61.4321 -1.2 -1.54591 0
M  V30 658 C 61.7311 -3.38082 1.15911 0
M  V30 659 C 61.3971 -3.66114 2.63195 0
M  V30 660 C 60.0591 -3.73474 3.03432 0
M  V30 661 C 62.4111 -3.78398 3.5842 0
M  V30 662 C 59.7391 -3.90599 4.37778 0
M  V30 663 C 62.0911 -3.97039 4.92487 0
M  V30 664 C 60.7551 -4.02635 5.32392 0
M  V30 665 H 60.0251 -0.688883 0.272987 0
M  V30 666 H 62.6721 -1.3995 1.30715 0
M  V30 667 H 60.9771 -3.88377 0.516806 0
M  V30 668 H 62.6741 -3.90596 0.907516 0
M  V30 669 H 59.2641 -3.61003 2.3103 0
M  V30 670 H 63.4481 -3.72042 3.28479 0
M  V30 671 H 58.7041 -3.93175 4.68213 0
M  V30 672 H 62.8781 -4.05486 5.66175 0
M  V30 673 H 60.5051 -4.15657 6.36501 0
M  V30 674 N 62.0802 -0.821533 -1.34494 0
M  V30 675 C 63.0432 -0.247847 -2.27856 0
M  V30 676 C 64.0432 0.573453 -1.50227 0
M  V30 677 O 65.2332 0.389759 -1.69784 0
M  V30 678 C 62.3652 0.652698 -3.34593 0
M  V30 679 H 63.5582 -1.07146 -2.80107 0
M  V30 680 H 61.1112 -0.593291 -1.44602 0
M  V30 681 H 61.8462 1.49943 -2.87555 0
M  V30 682 H 61.6312 0.065292 -3.92046 0
M  V30 683 H 63.1212 1.04793 -4.04238 0
M  V30 684 N 63.5583 1.46682 -0.576371 0
M  V30 685 C 64.7863 2.06798 -0.0649635 0
M  V30 686 C 65.2013 1.42612 1.23723 0
M  V30 687 O 64.5583 0.529203 1.74659 0
M  V30 688 C 64.6093 3.6132 0.114202 0
M  V30 689 O 64.3303 4.23104 -1.13644 0
M  V30 690 C 65.8313 4.38349 0.66069 0
M  V30 691 H 63.0513 0.668778 -0.0545616 0
M  V30 692 H 65.5953 1.88404 -0.795237 0
M  V30 693 H 63.7503 3.79162 0.794673 0
M  V30 694 H 64.1643 5.15894 -0.946253 0
M  V30 695 H 65.6383 5.47081 0.73526 0
M  V30 696 H 66.1153 4.05953 1.67627 0
M  V30 697 H 66.7213 4.25297 0.0152951 0
M  V30 698 N 65.0364 0.313813 1.54444 0
M  V30 699 C 66.2614 -0.296681 2.05267 0
M  V30 700 C 66.6864 -1.45757 1.18897 0
M  V30 701 O 66.0444 -1.80239 0.195886 0
M  V30 702 C 66.0924 -0.71831 3.53373 0
M  V30 703 O 65.1964 -1.82175 3.69981 0
M  V30 704 H 64.5374 -0.0554061 0.661684 0
M  V30 705 H 67.0674 0.459387 1.99376 0
M  V30 706 H 67.0774 -1.00364 3.95463 0
M  V30 707 H 65.7524 0.130821 4.15694 0
M  V30 708 H 64.3294 -1.53598 3.39797 0
M  V30 709 N 66.5145 -1.57545 0.0417849 0
M  V30 710 C 67.7545 -1.94185 -0.63809 0
M  V30 711 C 68.1185 -0.919339 -1.68559 0
M  V30 712 O 69.3195 -1.17236 -2.41886 0
M  V30 713 C 67.5905 -3.35672 -1.22714 0
M  V30 714 S 69.1495 -3.94256 -1.92633 0
M  V30 715 H 65.9675 -0.679353 -0.209764 0
M  V30 716 H 68.5695 -1.95199 0.108479 0
M  V30 717 H 67.2735 -4.07898 -0.452503 0
M  V30 718 H 66.8045 -3.38132 -2.01073 0
M  V30 719 H 68.8195 -3.7872 -3.20602 0
M  V30 720 N 67.9926 0.231505 -1.5589 0
M  V30 721 C 68.9226 1.29022 -1.94617 0
M  V30 722 C 69.9036 1.4941 -0.813067 0
M  V30 723 O 71.0886 1.6176 -1.07459 0
M  V30 724 C 68.2186 2.64199 -2.25424 0
M  V30 725 C 67.1726 2.58484 -3.41131 0
M  V30 726 C 66.4986 3.97599 -3.57518 0
M  V30 727 C 67.7986 2.1413 -4.76388 0
M  V30 728 H 69.4926 0.968563 -2.83301 0
M  V30 729 H 67.0386 0.464479 -1.36303 0
M  V30 730 H 68.9916 3.38413 -2.51107 0
M  V30 731 H 67.7156 2.98032 -1.33583 0
M  V30 732 H 66.3746 1.86727 -3.15481 0
M  V30 733 H 66.0226 4.28723 -2.6307 0
M  V30 734 H 65.7226 3.94659 -4.35337 0
M  V30 735 H 67.2466 4.7349 -3.85538 0
M  V30 736 H 68.6606 2.78083 -5.01341 0
M  V30 737 H 67.0576 2.2227 -5.57419 0
M  V30 738 H 68.1276 1.09331 -4.72414 0
M  V30 739 N 69.4707 1.49531 0.497807 0
M  V30 740 C 70.7167 1.59415 1.25358 0
M  V30 741 C 71.0497 0.281422 1.9215 0
M  V30 742 O 70.3247 -0.715249 1.80871 0
M  V30 743 C 70.6077 2.75566 2.3181 0
M  V30 744 C 70.4607 4.16642 1.69498 0
M  V30 745 C 71.7797 2.87347 3.33346 0
M  V30 746 H 68.8987 0.580244 0.454408 0
M  V30 747 H 71.5407 1.81827 0.551262 0
M  V30 748 H 69.6907 2.56587 2.91711 0
M  V30 749 H 71.3627 4.47145 1.13399 0
M  V30 750 H 69.6057 4.22141 0.998978 0
M  V30 751 H 70.2767 4.93792 2.46725 0
M  V30 752 H 72.7527 3.04634 2.83438 0
M  V30 753 H 71.6287 3.70289 4.05188 0
M  V30 754 H 71.8897 1.96834 3.95865 0
M  V30 755 N 70.9488 -0.749086 1.3866 0
M  V30 756 C 71.8788 -1.8764 1.38973 0
M  V30 757 C 72.8598 -1.68178 0.255004 0
M  V30 758 O 74.0448 -1.88704 0.458754 0
M  V30 759 C 71.1748 -3.25222 1.21851 0
M  V30 760 C 70.1288 -3.59295 2.32575 0
M  V30 761 C 69.4548 -4.95663 2.00555 0
M  V30 762 C 70.7548 -3.63709 3.7485 0
M  V30 763 H 72.4488 -1.87635 2.3331 0
M  V30 764 H 69.9948 -0.901329 1.12303 0
M  V30 765 H 71.9478 -4.03746 1.20695 0
M  V30 766 H 70.6718 -3.25719 0.239775 0
M  V30 767 H 69.3308 -2.83093 2.32925 0
M  V30 768 H 68.9788 -4.92724 1.01154 0
M  V30 769 H 68.6788 -5.19429 2.74714 0
M  V30 770 H 70.2028 -5.7656 2.01024 0
M  V30 771 H 71.6168 -4.32338 3.76506 0
M  V30 772 H 70.0138 -3.98986 4.48252 0
M  V30 773 H 71.0838 -2.63834 4.06841 0
M  V30 774 N 72.4269 -1.23603 -0.977757 0
M  V30 775 C 73.6549 -1.09646 -1.75458 0
M  V30 776 C 74.0699 0.351859 -1.85492 0
M  V30 777 O 73.4269 1.24327 -1.336 0
M  V30 778 C 73.4779 -1.71895 -3.18016 0
M  V30 779 O 73.1989 -3.11063 -3.08498 0
M  V30 780 C 74.6999 -1.63415 -4.12081 0
M  V30 781 H 71.9199 -0.38359 -0.550545 0
M  V30 782 H 74.4639 -1.63507 -1.22824 0
M  V30 783 H 72.6189 -1.22061 -3.67668 0
M  V30 784 H 73.0329 -3.41305 -3.9826 0
M  V30 785 H 74.5069 -2.11669 -5.09804 0
M  V30 786 H 74.9839 -0.593462 -4.35172 0
M  V30 787 H 75.5899 -2.12628 -3.68334 0
M  V30 788 N 73.905 1.17692 -1.04816 0
M  V30 789 C 74.835 2.23777 -0.666791 0
M  V30 790 C 75.816 1.66796 0.33361 0
M  V30 791 O 77.001 1.93039 0.212042 0
M  V30 792 C 74.131 3.47281 -0.0367933 0
M  V30 793 C 73.085 4.17059 -0.961546 0
M  V30 794 C 72.411 5.34342 -0.195626 0
M  V30 795 C 73.711 4.69713 -2.28402 0
M  V30 796 H 75.405 2.55933 -1.55367 0
M  V30 797 H 72.951 1.23019 -0.748484 0
M  V30 798 H 74.904 4.20706 0.241775 0
M  V30 799 H 73.628 3.14381 0.885004 0
M  V30 800 H 72.287 3.45541 -1.22462 0
M  V30 801 H 71.935 4.97692 0.728816 0
M  V30 802 H 71.635 5.81966 -0.811775 0
M  V30 803 H 73.159 6.10553 0.0757473 0
M  V30 804 H 74.573 5.34794 -2.06563 0
M  V30 805 H 72.97 5.279 -2.8538 0
M  V30 806 H 74.04 3.86726 -2.92525 0
M  V30 807 N 75.3831 0.828654 1.34056 0
M  V30 808 C 76.6291 0.42008 1.98402 0
M  V30 809 C 76.9621 -1.01564 1.65525 0
M  V30 810 O 76.2371 -1.70834 0.929831 0
M  V30 811 C 76.5201 0.62927 3.54559 0
M  V30 812 C 76.3731 2.11152 3.97159 0
M  V30 813 C 77.6921 0.0688756 4.40046 0
M  V30 814 H 74.8111 0.154104 0.720709 0
M  V30 815 H 77.4531 1.04228 1.5886 0
M  V30 816 H 75.6031 0.0996418 3.88372 0
M  V30 817 H 77.2751 2.70522 3.73651 0
M  V30 818 H 75.5181 2.59985 3.47261 0
M  V30 819 H 76.1891 2.20868 5.05887 0
M  V30 820 H 78.6651 0.521458 4.1282 0
M  V30 821 H 77.5411 0.245006 5.48353 0
M  V30 822 H 77.8021 -1.0266 4.30015 0
M  V30 823 N 76.8612 -1.46375 0.584142 0
M  V30 824 C 78.1072 -2.02678 0.0703716 0
M  V30 825 C 78.4402 -1.4545 -1.28678 0
M  V30 826 O 77.7152 -0.62014 -1.84349 0
M  V30 827 C 77.9982 -3.60099 0.00614674 0
M  V30 828 C 77.8512 -4.27709 1.3923 0
M  V30 829 C 79.1702 -4.34598 -0.693742 0
M  V30 830 H 76.2892 -0.736504 0.027047 0
M  V30 831 H 78.9312 -1.74501 0.751615 0
M  V30 832 H 77.0812 -3.84236 -0.574009 0
M  V30 833 H 78.7532 -4.14832 2.01773 0
M  V30 834 H 76.9962 -3.87016 1.95962 0
M  V30 835 H 77.6672 -5.36478 1.29982 0
M  V30 836 H 80.1432 -4.15615 -0.200869 0
M  V30 837 H 79.0192 -5.44318 -0.707714 0
M  V30 838 H 79.2802 -4.05759 -1.75533 0
M  V30 839 N 78.3393 -0.321999 -1.54275 0
M  V30 840 C 79.5853 0.281461 -2.00837 0
M  V30 841 C 79.9183 1.51909 -1.20985 0
M  V30 842 O 79.1933 1.923 -0.291733 0
M  V30 843 C 79.4763 0.617162 -3.54772 0
M  V30 844 C 79.3293 -0.631064 -4.45351 0
M  V30 845 C 80.6483 1.43542 -4.16033 0
M  V30 846 H 77.7673 0.100826 -0.730071 0
M  V30 847 H 80.4093 -0.438268 -1.84876 0
M  V30 848 H 78.5593 1.23034 -3.68504 0
M  V30 849 H 80.2313 -1.26934 -4.43492 0
M  V30 850 H 78.4743 -1.26025 -4.15091 0
M  V30 851 H 79.1453 -0.351735 -5.50878 0
M  V30 852 H 81.6213 0.917134 -4.05867 0
M  V30 853 H 80.4973 1.63907 -5.23856 0
M  V30 854 H 80.7583 2.43108 -3.69257 0
M  V30 855 N 79.8174 1.5752 -0.0501392 0
M  V30 856 C 81.0424 1.97376 0.636997 0
M  V30 857 C 81.4674 0.927466 1.63645 0
M  V30 858 O 80.8254 -0.10941 1.8097 0
M  V30 859 C 80.8734 3.36304 1.30123 0
M  V30 860 O 79.9774 3.34156 2.41689 0
M  V30 861 H 79.3184 0.642998 0.165679 0
M  V30 862 H 81.8484 2.04258 -0.118233 0
M  V30 863 H 81.8584 3.73008 1.65315 0
M  V30 864 H 80.5334 4.11993 0.568746 0
M  V30 865 H 79.1104 3.09196 2.08451 0
M  V30 866 N 81.2955 -0.223234 1.56011 0
M  V30 867 C 82.5205 -0.968978 1.83373 0
M  V30 868 C 82.9455 -1.77227 0.630254 0
M  V30 869 O 82.3035 -1.76345 -0.420959 0
M  V30 870 C 82.3515 -1.86363 3.08709 0
M  V30 871 O 81.4555 -2.95873 2.87285 0
M  V30 872 H 80.7965 -0.274461 0.604622 0
M  V30 873 H 83.3265 -0.237056 2.03222 0
M  V30 874 H 83.3365 -2.27376 3.38768 0
M  V30 875 H 82.0115 -1.27319 3.95933 0
M  V30 876 H 80.5885 -2.58818 2.68454 0
M  V30 877 N 82.7736 -1.49793 -0.48987 0
M  V30 878 C 83.7036 -1.70201 -1.59856 0
M  V30 879 C 84.6846 -0.55076 -1.60937 0
M  V30 880 O 85.8696 -0.787841 -1.77501 0
M  V30 881 C 82.9996 -1.77882 -2.98287 0
M  V30 882 C 81.9536 -2.92907 -3.12073 0
M  V30 883 C 81.2796 -2.85712 -4.51965 0
M  V30 884 C 82.5796 -4.3369 -2.91051 0
M  V30 885 H 84.2736 -2.63025 -1.43032 0
M  V30 886 H 81.8196 -1.26574 -0.686664 0
M  V30 887 H 83.7726 -1.90744 -3.75759 0
M  V30 888 H 82.4966 -0.816653 -3.16225 0
M  V30 889 H 81.1556 -2.79665 -2.37029 0
M  V30 890 H 80.8036 -1.8738 -4.66795 0
M  V30 891 H 80.5036 -3.62921 -4.62128 0
M  V30 892 H 82.0276 -3.00598 -5.31482 0
M  V30 893 H 83.4416 -4.47555 -3.58284 0
M  V30 894 H 81.8386 -5.12205 -3.12675 0
M  V30 895 H 82.9086 -4.47362 -1.87071 0
M  V30 896 N 84.2517 0.741722 -1.39055 0
M  V30 897 C 85.4767 1.53607 -1.39354 0
M  V30 898 C 85.9017 1.88096 0.0116905 0
M  V30 899 O 85.2597 1.5143 0.996924 0
M  V30 900 C 85.3077 2.80441 -2.26682 0
M  V30 901 O 84.4117 3.76088 -1.69208 0
M  V30 902 H 83.7527 0.464142 -0.474835 0
M  V30 903 H 86.2827 0.915665 -1.82967 0
M  V30 904 H 86.2927 3.29246 -2.40959 0
M  V30 905 H 84.9677 2.5467 -3.2881 0
M  V30 906 H 83.5447 3.34833 -1.64138 0
M  V30 907 N 85.7298 1.2412 0.971189 0
M  V30 908 C 86.9548 1.10667 1.75407 0
M  V30 909 C 87.3798 -0.337048 1.85056 0
M  V30 910 O 86.7378 -1.24396 1.31892 0
M  V30 911 C 86.7858 1.74726 3.15441 0
M  V30 912 O 85.8898 1.01566 3.99697 0
M  V30 913 H 85.2308 0.387341 0.539317 0
M  V30 914 H 87.7608 1.64358 1.2185 0
M  V30 915 H 87.7708 1.80341 3.6598 0
M  V30 916 H 86.4458 2.79773 3.07734 0
M  V30 917 H 85.0228 1.03713 3.58187 0
M  V30 918 N 87.2079 -1.17134 1.05439 0
M  V30 919 C 88.4329 -1.91913 0.786396 0
M  V30 920 C 88.8579 -1.7643 -0.652234 0
M  V30 921 O 88.2159 -1.08372 -1.45345 0
M  V30 922 C 88.2639 -3.40921 1.17497 0
M  V30 923 O 87.3679 -4.11244 0.308589 0
M  V30 924 H 86.7089 -0.598215 0.288158 0
M  V30 925 H 89.2389 -1.48457 1.4079 0
M  V30 926 H 89.2489 -3.91668 1.14281 0
M  V30 927 H 87.9239 -3.5151 2.22292 0
M  V30 928 H 86.5009 -3.70731 0.40157 0
M  V30 929 N 88.686 -0.835752 -1.33615 0
M  V30 930 C 89.649 -0.272 -2.2758 0
M  V30 931 C 90.649 0.557487 -1.50827 0
M  V30 932 O 91.839 0.37173 -1.70188 0
M  V30 933 C 88.971 0.617173 -3.35267 0
M  V30 934 H 90.164 -1.10111 -2.78954 0
M  V30 935 H 87.717 -0.608594 -1.43965 0
M  V30 936 H 88.452 1.46884 -2.89129 0
M  V30 937 H 88.237 0.0237066 -3.92093 0
M  V30 938 H 89.727 1.005 -4.05326 0
M  V30 939 N 90.1641 1.46063 -0.591896 0
M  V30 940 C 91.1121 2.32124 0.148739 0
M  V30 941 C 92.1061 1.45035 0.875286 0
M  V30 942 O 93.3121 1.61609 0.792632 0
M  V30 943 H 89.6871 0.749024 0.066832 0
M  V30 944 H 91.6581 2.92392 -0.595783 0
M  V30 945 C 90.4071 3.28373 1.1431 0
M  V30 946 H 89.7301 3.95371 0.59346 0
M  V30 947 H 91.1701 3.91352 1.63155 0
M  V30 948 C 89.6291 2.54393 2.20875 0
M  V30 949 O 90.1591 2.31373 3.28374 0
M  V30 950 N 88.3651 2.14797 1.95731 0
M  V30 951 H 87.9121 2.33719 1.08319 0
M  V30 952 H 87.8701 1.65619 2.67241 0
M  V30 953 N 91.6422 0.330177 1.54103 0
M  V30 954 C 92.6052 -0.520144 2.2322 0
M  V30 955 C 93.6052 -1.03828 1.22786 0
M  V30 956 O 94.7952 -0.929652 1.4732 0
M  V30 957 C 91.9272 -1.72317 2.94142 0
M  V30 958 H 93.1202 0.0841605 2.99782 0
M  V30 959 H 90.6732 0.0813433 1.56088 0
M  V30 960 H 91.4082 -2.36653 2.21734 0
M  V30 961 H 91.1932 -1.35898 3.67796 0
M  V30 962 H 92.6832 -2.3266 3.46784 0
M  V30 963 N 93.1203 -1.57491 0.0584922 0
M  V30 964 C 94.3453 -1.97711 -0.62652 0
M  V30 965 C 94.7703 -0.936132 -1.63151 0
M  V30 966 O 94.1283 0.099811 -1.81025 0
M  V30 967 C 94.1763 -3.36989 -1.28338 0
M  V30 968 O 93.2803 -3.35433 -2.39913 0
M  V30 969 H 92.6213 -0.643868 -0.162266 0
M  V30 970 H 95.1513 -2.04193 0.129064 0
M  V30 971 H 95.1613 -3.73879 -1.63335 0
M  V30 972 H 93.8363 -4.12289 -0.546889 0
M  V30 973 H 92.4133 -3.10298 -2.06809 0
M  V30 974 N 94.5984 0.214957 -1.56127 0
M  V30 975 C 95.5304 1.29004 -1.89448 0
M  V30 976 C 96.5434 1.42716 -0.783326 0
M  V30 977 O 97.7324 1.43496 -1.06166 0
M  V30 978 C 94.8324 2.66482 -2.09381 0
M  V30 979 C 94.0054 2.74633 -3.40434 0
M  V30 980 C 93.0644 3.9317 -3.49719 0
M  V30 981 O 92.0904 3.812 -4.227 0
M  V30 982 N 93.2924 5.07765 -2.81346 0
M  V30 983 H 96.0574 1.00743 -2.82261 0
M  V30 984 H 93.6184 0.40497 -1.56753 0
M  V30 985 H 95.6104 3.44173 -2.12901 0
M  V30 986 H 94.1804 2.87314 -1.23163 0
M  V30 987 H 93.4004 1.83368 -3.48955 0
M  V30 988 H 94.6884 2.77054 -4.26754 0
M  V30 989 H 94.0864 5.20386 -2.21843 0
M  V30 990 H 92.6434 5.83474 -2.90519 0
M  V30 991 N 96.0765 1.50051 0.48192 0
M  V30 992 C 97.3045 1.64237 1.25832 0
M  V30 993 C 97.7195 0.321336 1.86045 0
M  V30 994 O 97.0765 -0.695478 1.68729 0
M  V30 995 C 97.1275 2.72548 2.37487 0
M  V30 996 O 96.8485 3.99529 1.79745 0
M  V30 997 C 98.3495 2.9761 3.28547 0
M  V30 998 H 95.5695 0.55237 0.380957 0
M  V30 999 H 98.1135 1.96207 0.576467 0
M  V30 1000 H 96.2685 2.43303 3.01467 0
M  V30 1001 H 96.6825 4.59342 2.5319 0
M  V30 1002 H 98.1565 3.77084 4.03127 0
M  V30 1003 H 98.6335 2.0826 3.86684 0
M  V30 1004 H 99.2395 3.28345 2.70314 0
M  V30 1005 N 97.5546 -0.734337 1.39446 0
M  V30 1006 C 98.8316 -1.48579 1.27215 0
M  V30 1007 C 99.2116 -2.1077 -0.117968 0
M  V30 1008 O 98.5596 -1.98646 -1.12924 0
M  V30 1009 C 98.7696 -2.53667 2.39696 0
M  V30 1010 C 100.118 -3.20031 2.79044 0
M  V30 1011 O 101.142 -2.6398 2.39151 0
M  V30 1012 O 100.001 -4.21455 3.47905 0
M  V30 1013 H 97.0946 -0.659816 0.49857 0
M  V30 1014 H 99.6406 -0.768106 1.51322 0
M  V30 1015 H 98.4126 -2.06096 3.32626 0
M  V30 1016 H 98.0356 -3.32994 2.17258 0
M  V30 1017 N 99.0327 -1.24633 -0.964593 0
M  V30 1018 C 99.9807 -1.03917 -2.08096 0
M  V30 1019 C 100.975 0.0268581 -1.69379 0
M  V30 1020 O 102.181 -0.127952 -1.79545 0
M  V30 1021 H 98.5557 -0.319044 -0.680966 0
M  V30 1022 H 100.527 -1.98581 -2.22729 0
M  V30 1023 C 99.2757 -0.663983 -3.41301 0
M  V30 1024 H 98.5987 -1.47605 -3.71555 0
M  V30 1025 H 100.039 -0.558663 -4.20303 0
M  V30 1026 C 98.4977 0.629169 -3.30973 0
M  V30 1027 O 99.0277 1.67404 -3.65156 0
M  V30 1028 N 97.2337 0.611057 -2.84103 0
M  V30 1029 H 96.7807 -0.239593 -2.56483 0
M  V30 1030 H 96.7387 1.47647 -2.77575 0
M  V30 1031 N 100.511 1.16574 -1.06058 0
M  V30 1032 C 101.759 1.86677 -0.77434 0
M  V30 1033 C 102.08 1.81959 0.701147 0
M  V30 1034 O 101.35 1.2515 1.50713 0
M  V30 1035 H 99.9298 0.691134 -0.283449 0
M  V30 1036 H 102.592 1.41378 -1.34158 0
M  V30 1037 H 101.688 2.92181 -1.09711 0
M  V30 1038 N 101.989 0.842826 1.3317 0
M  V30 1039 C 103.235 0.441099 1.97945 0
M  V30 1040 C 103.568 -0.998024 1.66593 0
M  V30 1041 O 102.843 -1.69839 0.947898 0
M  V30 1042 C 103.126 0.666841 3.53872 0
M  V30 1043 C 102.979 2.15352 3.94897 0
M  V30 1044 C 104.298 0.115544 4.39948 0
M  V30 1045 H 101.417 0.161739 0.719034 0
M  V30 1046 H 104.059 1.05907 1.57746 0
M  V30 1047 H 102.209 0.140828 3.88245 0
M  V30 1048 H 103.881 2.7447 3.70761 0
M  V30 1049 H 102.124 2.63653 3.44484 0
M  V30 1050 H 102.795 2.26221 5.03516 0
M  V30 1051 H 105.271 0.565213 4.12243 0
M  V30 1052 H 104.147 0.303152 5.48062 0
M  V30 1053 H 104.408 -0.980935 4.3108 0
M  V30 1054 N 103.467 -1.45747 0.599634 0
M  V30 1055 C 104.415 -2.322 -0.136426 0
M  V30 1056 C 105.409 -1.45497 -0.867583 0
M  V30 1057 O 106.615 -1.62027 -0.78405 0
M  V30 1058 H 102.99 -0.749368 -0.0628588 0
M  V30 1059 H 104.961 -2.92072 0.611281 0
M  V30 1060 C 103.71 -3.28974 -1.12567 0
M  V30 1061 H 103.033 -3.9568 -0.572484 0
M  V30 1062 H 104.473 -3.92212 -1.61077 0
M  V30 1063 C 102.932 -2.55561 -2.19523 0
M  V30 1064 O 103.462 -2.33111 -3.27143 0
M  V30 1065 N 101.668 -2.15832 -1.94589 0
M  V30 1066 H 101.215 -2.3429 -1.07078 0
M  V30 1067 H 101.173 -1.67034 -2.66359 0
M  V30 1068 N 104.945 -0.338344 -1.53925 0
M  V30 1069 C 106.361 0.0137736 -1.59594 0
M  V30 1070 C 106.561 1.49186 -1.35447 0
M  V30 1071 O 105.617 2.24987 -1.14616 0
M  V30 1072 C 106.93 -0.41773 -2.97784 0
M  V30 1073 C 108.478 -0.369633 -3.1081 0
M  V30 1074 C 108.953 -0.776524 -4.51369 0
M  V30 1075 N 110.444 -0.730506 -4.57403 0
M  V30 1076 C 111.179 -1.01736 -5.64303 0
M  V30 1077 N 110.675 -1.3721 -6.79077 0
M  V30 1078 N 112.468 -0.941942 -5.54151 0
M  V30 1079 H 104.619 -1.3012 -1.67876 0
M  V30 1080 H 106.882 -0.530082 -0.78595 0
M  V30 1081 H 106.588 -1.44811 -3.20504 0
M  V30 1082 H 106.462 0.209729 -3.76616 0
M  V30 1083 H 108.849 0.651568 -2.87817 0
M  V30 1084 H 108.93 -1.03223 -2.34049 0
M  V30 1085 H 108.574 -1.79571 -4.75096 0
M  V30 1086 H 108.504 -0.0914649 -5.26521 0
M  V30 1087 H 110.995 -0.468783 -3.74981 0
M  V30 1088 H 111.308 -1.57597 -7.5656 0
M  V30 1089 H 109.653 -1.4105 -6.80536 0
M  V30 1090 H 112.844 -0.664184 -4.63364 0
M  V30 1091 H 113.017 -1.16884 -6.37371 0
M  V30 1092 N 106.423 1.57458 -0.0668435 0
M  V30 1093 C 107.648 1.9804 0.616027 0
M  V30 1094 C 108.073 0.944771 1.62652 0
M  V30 1095 O 107.431 -0.0902094 1.81075 0
M  V30 1096 C 107.479 3.37665 1.26549 0
M  V30 1097 O 106.583 3.36701 2.38131 0
M  V30 1098 H 105.924 0.644719 0.158849 0
M  V30 1099 H 108.454 2.04121 -0.139891 0
M  V30 1100 H 108.464 3.7474 1.6135 0
M  V30 1101 H 107.139 4.12573 0.525016 0
M  V30 1102 H 105.716 3.1139 2.0516 0
M  V30 1103 N 107.901 -0.206675 1.56239 0
M  V30 1104 C 109.149 -0.927007 1.79586 0
M  V30 1105 C 109.47 -1.8427 0.637929 0
M  V30 1106 O 108.74 -1.92849 -0.344398 0
M  V30 1107 H 107.32 -0.345292 0.662407 0
M  V30 1108 H 109.982 -0.21496 1.93711 0
M  V30 1109 H 109.078 -1.52501 2.72305 0
M  V30 1110 N 109.379 -1.50304 -0.473955 0
M  V30 1111 C 110.604 -1.65175 -1.25427 0
M  V30 1112 C 111.029 -0.333673 -1.85117 0
M  V30 1113 O 110.387 0.702114 -1.67153 0
M  V30 1114 C 110.435 -2.74295 -2.34082 0
M  V30 1115 O 109.539 -2.35349 -3.38651 0
M  V30 1116 H 108.88 -0.551944 -0.369126 0
M  V30 1117 H 111.41 -1.96662 -0.564364 0
M  V30 1118 H 111.42 -2.97285 -2.79438 0
M  V30 1119 H 110.095 -3.69959 -1.90008 0
M  V30 1120 H 108.672 -2.22794 -2.99027 0
M  V30 1121 N 110.857 0.726932 -1.39834 0
M  V30 1122 C 111.767 1.87131 -1.41489 0
M  V30 1123 C 112.783 1.71239 -0.308757 0
M  V30 1124 O 113.959 1.93701 -0.551529 0
M  V30 1125 C 111.024 3.22811 -1.26468 0
M  V30 1126 C 110.085 3.51039 -2.47124 0
M  V30 1127 C 109.318 4.80245 -2.3281 0
M  V30 1128 O 109.541 5.54537 -1.33585 0
M  V30 1129 O 108.475 5.08554 -3.21957 0
M  V30 1130 H 112.301 1.8869 -2.3797 0
M  V30 1131 H 109.886 0.875837 -1.21035 0
M  V30 1132 H 111.768 4.03877 -1.20255 0
M  V30 1133 H 110.443 3.22005 -0.330862 0
M  V30 1134 H 109.35 2.70027 -2.58914 0
M  V30 1135 H 110.683 3.56632 -3.39227 0
M  V30 1136 N 112.336 1.25143 0.95797 0
M  V30 1137 C 113.613 1.00472 1.67823 0
M  V30 1138 C 113.993 -0.470056 2.058 0
M  V30 1139 O 113.341 -1.44663 1.76875 0
M  V30 1140 C 113.551 1.9372 2.90299 0
M  V30 1141 C 114.899 2.21371 3.62326 0
M  V30 1142 O 115.923 1.91451 3.00375 0
M  V30 1143 O 114.782 2.72231 4.7387 0
M  V30 1144 H 111.876 0.380752 0.734137 0
M  V30 1145 H 114.422 1.36283 1.01119 0
M  V30 1146 H 113.194 2.93316 2.59001 0
M  V30 1147 H 112.817 1.58286 3.64735 0
M  V30 1148 N 113.814 -1.1601 1.06675 0
M  V30 1149 C 115.225 -1.68235 0.809565 0
M  V30 1150 C 115.576 -1.8454 -0.666303 0
M  V30 1151 O 114.701 -1.54374 -1.5165 0
M  V30 1152 C 115.296 -3.05585 1.46299 0
M  V30 1153 C 113.855 -3.54915 1.25349 0
M  V30 1154 C 113.002 -2.30804 1.53703 0
M  V30 1155 H 115.953 -1.00318 1.22971 0
M  V30 1156 H 115.974 -3.70174 0.880431 0
M  V30 1157 H 115.486 -2.93686 2.53713 0
M  V30 1158 H 113.587 -3.72067 0.199261 0
M  V30 1159 H 113.7 -4.36774 1.9689 0
M  V30 1160 H 112.064 -2.36007 0.957739 0
M  V30 1161 H 112.847 -2.21499 2.62284 0
M  V30 1162 N 115.292 -0.849877 -1.32721 0
M  V30 1163 C 116.52 -0.464754 -2.01613 0
M  V30 1164 C 116.935 0.937191 -1.63897 0
M  V30 1165 O 116.292 1.61081 -0.857856 0
M  V30 1166 C 116.343 -0.588638 -3.56675 0
M  V30 1167 O 116.064 -1.93535 -3.93034 0
M  V30 1168 C 117.565 -0.2019 -4.4284 0
M  V30 1169 H 114.785 -0.183215 -0.645502 0
M  V30 1170 H 117.329 -1.1455 -1.69407 0
M  V30 1171 H 115.484 0.0443159 -3.87375 0
M  V30 1172 H 115.898 -1.92871 -4.87751 0
M  V30 1173 H 117.372 -0.339599 -5.50954 0
M  V30 1174 H 117.849 0.857224 -4.30753 0
M  V30 1175 H 118.455 -0.809733 -4.17521 0
M  V30 1176 N 116.77 1.45427 -0.607355 0
M  V30 1177 C 118.016 2.0254 -0.102607 0
M  V30 1178 C 118.349 1.47478 1.26348 0
M  V30 1179 O 117.624 0.64939 1.83339 0
M  V30 1180 C 117.907 3.60044 -0.0634347 0
M  V30 1181 C 117.76 4.2544 -1.46017 0
M  V30 1182 C 119.079 4.35646 0.624514 0
M  V30 1183 H 116.198 0.73598 -0.0387607 0
M  V30 1184 H 118.84 1.73284 -0.779282 0
M  V30 1185 H 116.99 3.85101 0.512808 0
M  V30 1186 H 118.662 4.11569 -2.08347 0
M  V30 1187 H 116.905 3.83849 -2.02094 0
M  V30 1188 H 117.576 5.34342 -1.385 0
M  V30 1189 H 120.052 4.15882 0.134723 0
M  V30 1190 H 118.928 5.45376 0.621028 0
M  V30 1191 H 119.189 4.08501 1.69055 0
M  V30 1192 N 118.248 0.346503 1.53744 0
M  V30 1193 C 119.478 -0.250047 2.05081 0
M  V30 1194 C 119.886 -1.44529 1.22098 0
M  V30 1195 O 119.229 -1.81992 0.249917 0
M  V30 1196 C 119.291 -0.725934 3.52094 0
M  V30 1197 C 118.955 0.350053 4.55657 0
M  V30 1198 C 119.952 1.19372 5.0601 0
M  V30 1199 C 117.637 0.504827 4.99757 0
M  V30 1200 C 119.631 2.17768 5.99046 0
M  V30 1201 C 117.318 1.49218 5.92602 0
M  V30 1202 C 118.316 2.32706 6.42135 0
M  V30 1203 O 118.004 3.2976 7.33153 0
M  V30 1204 H 117.736 -0.0515469 0.674032 0
M  V30 1205 H 120.29 0.497559 1.99282 0
M  V30 1206 H 118.52 -1.52483 3.55367 0
M  V30 1207 H 120.209 -1.24336 3.86388 0
M  V30 1208 H 120.975 1.08525 4.72702 0
M  V30 1209 H 116.854 -0.135178 4.60802 0
M  V30 1210 H 120.398 2.82971 6.37631 0
M  V30 1211 H 116.295 1.6012 6.25325 0
M  V30 1212 H 117.063 3.25265 7.51096 0
M  V30 1213 N 119.726 -1.57421 0.075193 0
M  V30 1214 C 120.951 -1.98364 -0.605515 0
M  V30 1215 C 121.376 -0.953383 -1.62149 0
M  V30 1216 O 120.734 0.0806053 -1.81121 0
M  V30 1217 C 120.782 -3.38332 -1.24756 0
M  V30 1218 O 119.886 -3.37959 -2.36342 0
M  V30 1219 H 119.227 -0.645553 -0.155428 0
M  V30 1220 H 121.757 -2.04044 0.150714 0
M  V30 1221 H 121.767 -3.75591 -1.5936 0
M  V30 1222 H 120.442 -4.12846 -0.503129 0
M  V30 1223 H 119.019 -3.12474 -2.03506 0
M  V30 1224 N 121.204 0.198386 -1.56346 0
M  V30 1225 C 122.167 1.22952 -1.93431 0
M  V30 1226 C 123.167 1.38611 -0.815092 0
M  V30 1227 O 124.357 1.36479 -1.08255 0
M  V30 1228 C 121.489 2.59946 -2.20546 0
M  V30 1229 H 122.682 0.912626 -2.85677 0
M  V30 1230 H 120.235 0.43977 -1.49986 0
M  V30 1231 H 120.97 2.96696 -1.30927 0
M  V30 1232 H 120.755 2.49953 -3.02102 0
M  V30 1233 H 122.245 3.3431 -2.50253 0
M  V30 1234 N 122.682 1.50554 0.465978 0
M  V30 1235 C 123.91 1.65563 1.24083 0
M  V30 1236 C 124.325 0.341051 1.85694 0
M  V30 1237 O 123.682 -0.677543 1.69457 0
M  V30 1238 C 123.733 2.75051 2.34583 0
M  V30 1239 O 123.454 4.01413 1.75497 0
M  V30 1240 C 124.955 3.01078 3.25372 0
M  V30 1241 H 122.175 0.55638 0.375077 0
M  V30 1242 H 124.719 1.96807 0.555624 0
M  V30 1243 H 122.874 2.46486 2.9887 0
M  V30 1244 H 123.288 4.62002 2.48303 0
M  V30 1245 H 124.762 3.81339 3.99105 0
M  V30 1246 H 125.239 2.12349 3.84453 0
M  V30 1247 H 125.845 3.31194 2.66816 0
M  V30 1248 N 124.16 -0.719506 1.40217 0
M  V30 1249 C 125.385 -1.51371 1.4178 0
M  V30 1250 C 125.81 -1.88091 0.0182355 0
M  V30 1251 O 125.168 -1.52997 -0.972707 0
M  V30 1252 C 125.216 -2.768 2.31115 0
M  V30 1253 O 124.32 -3.73349 1.7517 0
M  V30 1254 H 123.661 -0.456529 0.482159 0
M  V30 1255 H 126.191 -0.88644 1.844 0
M  V30 1256 H 126.201 -3.25371 2.46167 0
M  V30 1257 H 124.876 -2.49407 3.3282 0
M  V30 1258 H 123.453 -3.32179 1.69444 0
M  V30 1259 N 125.638 -1.25649 -0.95132 0
M  V30 1260 C 126.866 -1.13343 -1.73092 0
M  V30 1261 C 127.281 0.312434 -1.86197 0
M  V30 1262 O 126.638 1.21465 -1.36207 0
M  V30 1263 C 126.689 -1.78602 -3.14299 0
M  V30 1264 O 126.41 -3.17537 -3.01831 0
M  V30 1265 C 127.911 -1.72119 -4.08522 0
M  V30 1266 H 125.131 -0.395181 -0.542285 0
M  V30 1267 H 127.675 -1.66076 -1.19328 0
M  V30 1268 H 125.83 -1.29832 -3.64996 0
M  V30 1269 H 126.244 -3.49676 -3.90931 0
M  V30 1270 H 127.718 -2.22435 -5.052 0
M  V30 1271 H 128.195 -0.685635 -4.33815 0
M  V30 1272 H 128.801 -2.20393 -3.63741 0
M  V30 1273 N 127.117 1.15442 -1.07289 0
M  V30 1274 C 128.064 2.20161 -0.692653 0
M  V30 1275 C 129.034 1.63073 0.31564 0
M  V30 1276 O 130.219 1.89725 0.202235 0
M  V30 1277 C 127.359 3.44967 -0.0959509 0
M  V30 1278 C 126.472 4.16256 -1.15564 0
M  V30 1279 C 125.607 5.28609 -0.524011 0
M  V30 1280 C 124.646 5.91715 -1.56653 0
M  V30 1281 N 123.783 6.9554 -0.957531 0
M  V30 1282 H 128.623 2.52037 -1.59002 0
M  V30 1283 H 126.16 1.2378 -0.794798 0
M  V30 1284 H 128.118 4.16341 0.267628 0
M  V30 1285 H 126.748 3.1361 0.764772 0
M  V30 1286 H 125.8 3.43385 -1.6368 0
M  V30 1287 H 127.112 4.59268 -1.94613 0
M  V30 1288 H 126.266 6.06604 -0.108032 0
M  V30 1289 H 125.005 4.86787 0.29825 0
M  V30 1290 H 124.01 5.12433 -1.9923 0
M  V30 1291 H 125.235 6.35614 -2.39107 0
M  V30 1292 H 123.181 6.55814 -0.156162 0
M  V30 1293 H 123.098 7.36977 -1.68526 0
M  V30 1294 H 124.366 7.77435 -0.567032 0
M  V30 1295 N 128.595 0.856903 1.32268 0
M  V30 1296 C 129.542 0.301172 2.28827 0
M  V30 1297 C 130.512 -0.593104 1.5515 0
M  V30 1298 O 131.697 -0.527537 1.83362 0
M  V30 1299 C 128.837 -0.502523 3.41422 0
M  V30 1300 C 127.95 0.417797 4.29975 0
M  V30 1301 C 127.085 -0.398749 5.29701 0
M  V30 1302 C 126.124 0.518827 6.09897 0
M  V30 1303 N 125.261 -0.260674 7.01616 0
M  V30 1304 H 130.101 1.12983 2.75751 0
M  V30 1305 H 127.638 0.568582 1.35667 0
M  V30 1306 H 129.596 -0.984141 4.05426 0
M  V30 1307 H 128.226 -1.29599 2.95642 0
M  V30 1308 H 127.278 1.01781 3.66531 0
M  V30 1309 H 128.59 1.12191 4.86019 0
M  V30 1310 H 127.744 -0.943435 5.9932 0
M  V30 1311 H 126.483 -1.13622 4.7428 0
M  V30 1312 H 125.488 1.07538 5.39181 0
M  V30 1313 H 126.713 1.25495 6.67404 0
M  V30 1314 H 124.659 -0.981198 6.4862 0
M  V30 1315 H 124.576 0.384364 7.55022 0
M  V30 1316 H 125.844 -0.787014 7.75517 0
M  V30 1317 N 130.073 -1.45103 0.615059 0
M  V30 1318 C 131.003 -2.33339 -0.0865619 0
M  V30 1319 C 131.984 -1.4727 -0.851209 0
M  V30 1320 O 133.169 -1.76026 -0.820281 0
M  V30 1321 C 130.299 -3.30095 -1.07956 0
M  V30 1322 C 129.253 -4.25858 -0.427628 0
M  V30 1323 C 128.579 -5.12361 -1.5294 0
M  V30 1324 C 129.879 -5.18165 0.655944 0
M  V30 1325 H 131.573 -2.92254 0.650224 0
M  V30 1326 H 129.119 -1.40532 0.314138 0
M  V30 1327 H 131.072 -3.90698 -1.57901 0
M  V30 1328 H 129.796 -2.69355 -1.84703 0
M  V30 1329 H 128.455 -3.66564 0.0510292 0
M  V30 1330 H 128.103 -4.47984 -2.28734 0
M  V30 1331 H 127.803 -5.77238 -1.09865 0
M  V30 1332 H 129.327 -5.75833 -2.03098 0
M  V30 1333 H 130.741 -5.72796 0.240257 0
M  V30 1334 H 129.138 -5.91559 1.00888 0
M  V30 1335 H 130.208 -4.60144 1.52957 0
M  V30 1336 N 131.551 -0.354651 -1.53558 0
M  V30 1337 C 132.501 0.513179 -2.2215 0
M  V30 1338 C 133.485 1.05734 -1.21281 0
M  V30 1339 O 134.677 0.989202 -1.46778 0
M  V30 1340 C 131.806 1.65798 -3.00609 0
M  V30 1341 C 130.892 1.12722 -4.08845 0
M  V30 1342 N 131.283 0.318563 -5.04796 0
M  V30 1343 C 129.581 1.40307 -4.23356 0
M  V30 1344 C 130.282 0.0292224 -5.81693 0
M  V30 1345 N 129.258 0.623891 -5.40008 0
M  V30 1346 H 133.06 -0.111586 -2.93688 0
M  V30 1347 H 130.574 -0.162091 -1.61589 0
M  V30 1348 H 132.571 2.29176 -3.48258 0
M  V30 1349 H 131.231 2.28591 -2.306 0
M  V30 1350 H 132.242 -0.0413091 -5.17884 0
M  V30 1351 H 128.919 2.03458 -3.6457 0
M  V30 1352 H 130.309 -0.623808 -6.68998 0
M  V30 1353 N 133.029 1.57378 -0.0835403 0
M  V30 1354 C 133.976 2.13384 0.879539 0
M  V30 1355 C 134.946 1.04936 1.28754 0
M  V30 1356 O 136.131 1.32662 1.37133 0
M  V30 1357 C 133.271 2.70932 2.13752 0
M  V30 1358 C 132.384 3.93575 1.7811 0
M  V30 1359 C 131.519 4.39326 2.98607 0
M  V30 1360 C 130.558 5.54587 2.59037 0
M  V30 1361 N 129.695 5.95243 3.72331 0
M  V30 1362 H 134.535 2.9537 0.395076 0
M  V30 1363 H 132.072 1.45953 0.183349 0
M  V30 1364 H 134.03 3.02411 2.87408 0
M  V30 1365 H 132.66 1.91693 2.59718 0
M  V30 1366 H 131.712 3.68483 0.94469 0
M  V30 1367 H 133.024 4.77258 1.45005 0
M  V30 1368 H 132.178 4.72528 3.80529 0
M  V30 1369 H 130.917 3.5452 3.34913 0
M  V30 1370 H 129.922 5.21024 1.75539 0
M  V30 1371 H 131.147 6.41133 2.23887 0
M  V30 1372 H 129.093 5.13385 4.08378 0
M  V30 1373 H 129.01 6.73694 3.43034 0
M  V30 1374 H 130.278 6.33072 4.54797 0
M  V30 1375 N 134.507 -0.190092 1.56449 0
M  V30 1376 C 135.417 -1.25591 1.98152 0
M  V30 1377 C 136.433 -1.49519 0.889944 0
M  V30 1378 O 137.609 -1.62036 1.19609 0
M  V30 1379 C 134.674 -2.57916 2.3169 0
M  V30 1380 C 133.735 -2.42015 3.5458 0
M  V30 1381 C 132.968 -3.6803 3.8651 0
M  V30 1382 O 133.191 -4.72413 3.1966 0
M  V30 1383 O 132.125 -3.6326 4.79923 0
M  V30 1384 H 135.951 -0.931988 2.89046 0
M  V30 1385 H 133.536 -0.395488 1.4407 0
M  V30 1386 H 135.418 -3.36008 2.54316 0
M  V30 1387 H 134.093 -2.89925 1.43963 0
M  V30 1388 H 133 -1.62017 3.37196 0
M  V30 1389 H 134.333 -2.14937 4.4279 0
M  V30 1390 N 135.985 -1.50799 -0.457987 0
M  V30 1391 C 137.396 -1.55152 -1.0385 0
M  V30 1392 C 137.747 -0.362719 -1.92818 0
M  V30 1393 O 136.872 0.522915 -2.09987 0
M  V30 1394 C 137.467 -2.81173 -1.89017 0
M  V30 1395 C 136.026 -2.88164 -2.42154 0
M  V30 1396 C 135.173 -2.49591 -1.20829 0
M  V30 1397 H 138.124 -1.56874 -0.240068 0
M  V30 1398 H 138.145 -2.63769 -2.74238 0
M  V30 1399 H 137.657 -3.67677 -1.24238 0
M  V30 1400 H 135.758 -2.06042 -3.10447 0
M  V30 1401 H 135.871 -3.91356 -2.76364 0
M  V30 1402 H 134.235 -2.02322 -1.54719 0
M  V30 1403 H 135.018 -3.38418 -0.576927 0
M  V30 1404 N 137.463 0.71206 -1.40597 0
M  V30 1405 C 138.426 1.80785 -1.40888 0
M  V30 1406 C 139.426 1.57937 -0.302103 0
M  V30 1407 O 140.616 1.64913 -0.561182 0
M  V30 1408 C 137.748 3.18927 -1.20409 0
M  V30 1409 H 138.941 1.81924 -2.38419 0
M  V30 1410 H 136.494 0.91805 -1.26497 0
M  V30 1411 H 137.229 3.23436 -0.236522 0
M  V30 1412 H 137.014 3.36911 -2.00582 0
M  V30 1413 H 138.504 3.98949 -1.23408 0
M  V30 1414 N 138.941 1.26152 0.944643 0
M  V30 1415 C 140.169 1.14259 1.72489 0
M  V30 1416 C 140.584 -0.302555 1.8636 0
M  V30 1417 O 139.941 -1.20741 1.36849 0
M  V30 1418 C 139.992 1.80266 3.13347 0
M  V30 1419 O 139.713 3.19133 3.00143 0
M  V30 1420 C 141.214 1.74283 4.07603 0
M  V30 1421 H 138.434 0.398051 0.540181 0
M  V30 1422 H 140.978 1.66706 1.18446 0
M  V30 1423 H 139.133 1.31766 3.64303 0
M  V30 1424 H 139.547 3.51744 3.89071 0
M  V30 1425 H 141.021 2.25111 5.04013 0
M  V30 1426 H 141.498 0.708631 4.33446 0
M  V30 1427 H 142.104 2.22319 3.62567 0
M  V30 1428 N 140.419 -1.14872 1.07899 0
M  V30 1429 C 141.349 -2.2193 0.725887 0
M  V30 1430 C 142.33 -1.67622 -0.28927 0
M  V30 1431 O 143.515 -1.93533 -0.160787 0
M  V30 1432 C 140.645 -3.47061 0.128856 0
M  V30 1433 C 139.599 -4.14363 1.07178 0
M  V30 1434 C 138.925 -5.33636 0.337229 0
M  V30 1435 C 140.225 -4.63492 2.40775 0
M  V30 1436 H 141.919 -2.51724 1.62097 0
M  V30 1437 H 139.465 -1.20991 0.780838 0
M  V30 1438 H 141.418 -4.21199 -0.130147 0
M  V30 1439 H 140.142 -3.16617 -0.80134 0
M  V30 1440 H 138.801 -3.42173 1.3158 0
M  V30 1441 H 138.449 -4.99449 -0.596606 0
M  V30 1442 H 138.149 -5.79609 0.965788 0
M  V30 1443 H 139.673 -6.10539 0.0861567 0
M  V30 1444 H 141.087 -5.2913 2.20669 0
M  V30 1445 H 139.484 -5.20148 2.99276 0
M  V30 1446 H 140.554 -3.78834 3.02676 0
M  V30 1447 N 141.898 -0.863906 -1.31812 0
M  V30 1448 C 143.147 -0.46801 -1.96195 0
M  V30 1449 C 143.46 0.983474 -1.69077 0
M  V30 1450 O 144.666 1.48523 -2.27273 0
M  V30 1451 C 143.122 -0.785995 -3.51212 0
M  V30 1452 C 142.73 -2.25383 -3.87178 0
M  V30 1453 C 144.474 -0.458274 -4.22019 0
M  V30 1454 C 142.381 -2.51455 -5.3528 0
M  V30 1455 H 141.311 -0.171283 -0.734287 0
M  V30 1456 H 143.962 -1.05597 -1.50072 0
M  V30 1457 H 142.344 -0.127359 -3.95795 0
M  V30 1458 H 143.518 -2.95502 -3.53575 0
M  V30 1459 H 141.833 -2.54698 -3.2942 0
M  V30 1460 H 144.43 -0.630369 -5.30971 0
M  V30 1461 H 144.773 0.600834 -4.11941 0
M  V30 1462 H 145.306 -1.07319 -3.8305 0
M  V30 1463 H 142.045 -3.56025 -5.50387 0
M  V30 1464 H 141.565 -1.85923 -5.70257 0
M  V30 1465 H 143.244 -2.35874 -6.02472 0
M  V30 1466 N 143.376 1.44774 -0.622745 0
M  V30 1467 C 144.323 2.30635 0.0871679 0
M  V30 1468 C 145.293 1.42994 0.845097 0
M  V30 1469 O 146.478 1.71907 0.827812 0
M  V30 1470 C 143.618 3.28144 1.06844 0
M  V30 1471 C 142.731 4.30888 0.309809 0
M  V30 1472 C 141.866 5.15494 1.28215 0
M  V30 1473 C 140.905 6.09953 0.512198 0
M  V30 1474 N 140.042 6.87287 1.43458 0
M  V30 1475 H 144.882 2.90803 -0.650974 0
M  V30 1476 H 142.419 1.43286 -0.33281 0
M  V30 1477 H 144.377 3.83157 1.65066 0
M  V30 1478 H 143.007 2.69695 1.77382 0
M  V30 1479 H 142.059 3.78414 -0.388181 0
M  V30 1480 H 143.371 4.97955 -0.290254 0
M  V30 1481 H 142.525 5.74983 1.93596 0
M  V30 1482 H 141.264 4.48481 1.91614 0
M  V30 1483 H 140.269 5.49581 -0.155151 0
M  V30 1484 H 141.494 6.78999 -0.116958 0
M  V30 1485 H 139.44 6.2295 2.05594 0
M  V30 1486 H 139.357 7.50763 0.888335 0
M  V30 1487 H 140.625 7.51306 2.07749 0
M  V30 1488 N 144.854 0.36279 1.53368 0
M  V30 1489 C 145.817 -0.472679 2.24273 0
M  V30 1490 C 146.817 -1.012 1.24961 0
M  V30 1491 O 148.007 -0.898194 1.49259 0
M  V30 1492 C 145.139 -1.66039 2.97731 0
M  V30 1493 H 146.332 0.14773 2.99536 0
M  V30 1494 H 143.885 0.114434 1.55881 0
M  V30 1495 H 144.62 -2.31896 2.26704 0
M  V30 1496 H 144.405 -1.28066 3.70596 0
M  V30 1497 H 145.895 -2.25252 3.51641 0
M  V30 1498 N 146.332 -1.57332 0.0918853 0
M  V30 1499 C 147.581 -1.93412 -0.572249 0
M  V30 1500 C 147.894 -0.975515 -1.69538 0
M  V30 1501 O 149.1 -1.22991 -2.42045 0
M  V30 1502 C 147.556 -3.43648 -1.0693 0
M  V30 1503 C 147.164 -4.47994 0.0239049 0
M  V30 1504 C 148.908 -3.88695 -1.70635 0
M  V30 1505 C 146.815 -5.89381 -0.488319 0
M  V30 1506 H 145.745 -0.721939 -0.217532 0
M  V30 1507 H 148.396 -1.82735 0.167369 0
M  V30 1508 H 146.778 -3.49466 -1.8625 0
M  V30 1509 H 147.952 -4.53815 0.799277 0
M  V30 1510 H 146.267 -4.12536 0.565946 0
M  V30 1511 H 148.864 -4.91725 -2.10025 0
M  V30 1512 H 149.207 -3.27166 -2.57426 0
M  V30 1513 H 149.74 -3.85564 -0.979023 0
M  V30 1514 H 146.479 -6.54602 0.342906 0
M  V30 1515 H 145.999 -5.87037 -1.23077 0
M  V30 1516 H 147.678 -6.39863 -0.958317 0
M  V30 1517 N 147.81 0.181792 -1.56548 0
M  V30 1518 C 149.087 0.926765 -1.72251 0
M  V30 1519 C 149.467 2.00831 -0.650386 0
M  V30 1520 O 148.815 2.26008 0.336521 0
M  V30 1521 C 149.025 1.50106 -3.1507 0
M  V30 1522 C 150.373 1.97805 -3.75711 0
M  V30 1523 O 151.397 1.59922 -3.18282 0
M  V30 1524 O 150.256 2.67555 -4.76525 0
M  V30 1525 H 147.35 0.435506 -0.703039 0
M  V30 1526 H 149.896 0.170443 -1.68842 0
M  V30 1527 H 148.668 0.72212 -3.84579 0
M  V30 1528 H 148.291 2.32186 -3.22763 0
M  V30 1529 N 149.288 1.51039 0.449983 0
M  V30 1530 C 150.536 1.62759 1.19808 0
M  V30 1531 C 150.857 0.339981 1.92013 0
M  V30 1532 O 150.127 -0.643606 1.85026 0
M  V30 1533 H 148.707 0.599811 0.445237 0
M  V30 1534 H 151.369 1.87914 0.517138 0
M  V30 1535 H 150.465 2.44911 1.93455 0
M  V30 1536 N 150.766 -0.704594 1.40972 0
M  V30 1537 C 152.043 -1.45847 1.30338 0
M  V30 1538 C 152.423 -2.10973 -0.0732344 0
M  V30 1539 O 151.771 -2.00997 -1.08685 0
M  V30 1540 C 151.981 -2.48525 2.45023 0
M  V30 1541 C 153.329 -3.1404 2.8577 0
M  V30 1542 O 154.353 -2.58848 2.44696 0
M  V30 1543 O 153.212 -4.13981 3.56766 0
M  V30 1544 H 150.306 -0.649092 0.512454 0
M  V30 1545 H 152.852 -0.735836 1.52917 0
M  V30 1546 H 151.624 -1.98994 3.36923 0
M  V30 1547 H 151.247 -3.2831 2.24272 0
M  V30 1548 N 152.244 -1.26651 -0.937939 0
M  V30 1549 C 153.472 -1.15173 -1.7188 0
M  V30 1550 C 153.887 0.292668 -1.86518 0
M  V30 1551 O 153.244 1.20014 -1.37488 0
M  V30 1552 C 153.295 -1.81925 -3.12387 0
M  V30 1553 O 153.016 -3.2072 -2.98446 0
M  V30 1554 C 154.517 -1.76442 -4.06673 0
M  V30 1555 H 151.737 -0.400911 -0.538063 0
M  V30 1556 H 154.281 -1.67332 -1.1756 0
M  V30 1557 H 152.436 -1.33696 -3.63599 0
M  V30 1558 H 152.85 -3.53802 -3.872 0
M  V30 1559 H 154.324 -2.27781 -5.02812 0
M  V30 1560 H 154.801 -0.731608 -4.33064 0
M  V30 1561 H 155.407 -2.24238 -3.61382 0
M  V30 1562 N 153.722 1.14298 -1.08507 0
M  V30 1563 C 154.968 1.85633 -0.816581 0
M  V30 1564 C 155.301 1.82784 0.656021 0
M  V30 1565 O 154.576 1.25926 1.48233 0
M  V30 1566 C 154.859 3.34223 -1.34041 0
M  V30 1567 C 154.712 3.45639 -2.87843 0
M  V30 1568 C 156.031 4.29356 -0.9665 0
M  V30 1569 H 153.15 0.67402 -0.298104 0
M  V30 1570 H 155.792 1.34214 -1.34487 0
M  V30 1571 H 153.942 3.78144 -0.89104 0
M  V30 1572 H 155.614 3.10498 -3.41158 0
M  V30 1573 H 153.857 2.86817 -3.25451 0
M  V30 1574 H 154.528 4.50089 -3.19569 0
M  V30 1575 H 157.004 3.93457 -1.35391 0
M  V30 1576 H 155.88 5.3178 -1.3602 0
M  V30 1577 H 156.141 4.41919 0.126362 0
M  V30 1578 N 155.201 0.870884 1.31352 0
M  V30 1579 C 156.148 0.325425 2.28494 0
M  V30 1580 C 157.118 -0.576615 1.5577 0
M  V30 1581 O 158.303 -0.508059 1.83911 0
M  V30 1582 C 155.443 -0.466283 3.41935 0
M  V30 1583 C 154.556 0.463378 4.29508 0
M  V30 1584 C 153.691 -0.342544 5.30094 0
M  V30 1585 C 152.73 0.583486 6.09313 0
M  V30 1586 N 151.867 -0.186244 7.01853 0
M  V30 1587 H 156.707 1.15901 2.74538 0
M  V30 1588 H 154.244 0.58294 1.35056 0
M  V30 1589 H 156.202 -0.941085 4.06447 0
M  V30 1590 H 154.832 -1.26456 2.97 0
M  V30 1591 H 153.884 1.05663 3.65431 0
M  V30 1592 H 155.196 1.1734 4.84802 0
M  V30 1593 H 154.35 -0.879816 6.00287 0
M  V30 1594 H 153.089 -1.08585 4.75458 0
M  V30 1595 H 152.094 1.13251 5.3801 0
M  V30 1596 H 153.319 1.32566 6.66035 0
M  V30 1597 H 151.265 -0.912348 6.49625 0
M  V30 1598 H 151.182 0.464422 7.54572 0
M  V30 1599 H 152.45 -0.704716 7.76308 0
M  V30 1600 N 156.679 -1.44442 0.630414 0
M  V30 1601 C 157.609 -2.33418 -0.0618083 0
M  V30 1602 C 158.59 -1.48165 -0.835541 0
M  V30 1603 O 159.775 -1.76886 -0.801564 0
M  V30 1604 C 156.905 -3.31222 -1.04449 0
M  V30 1605 C 155.859 -4.26288 -0.382436 0
M  V30 1606 C 155.185 -5.13954 -1.47497 0
M  V30 1607 C 156.485 -5.1744 0.710865 0
M  V30 1608 H 158.179 -2.91548 0.681184 0
M  V30 1609 H 155.725 -1.40191 0.329026 0
M  V30 1610 H 157.678 -3.92351 -1.53748 0
M  V30 1611 H 156.402 -2.71299 -1.81836 0
M  V30 1612 H 155.061 -3.6649 0.0899054 0
M  V30 1613 H 154.709 -4.50385 -2.2397 0
M  V30 1614 H 154.409 -5.7837 -1.03737 0
M  V30 1615 H 155.933 -5.77955 -1.96979 0
M  V30 1616 H 157.347 -5.72509 0.300996 0
M  V30 1617 H 155.744 -5.90455 1.07156 0
M  V30 1618 H 156.814 -4.58496 1.57829 0
M  V30 1619 N 158.157 -0.370918 -1.53173 0
M  V30 1620 C 159.09 0.516727 -2.22273 0
M  V30 1621 C 160.068 1.07877 -1.21661 0
M  V30 1622 O 161.252 1.13389 -1.50583 0
M  V30 1623 C 158.379 1.71346 -2.92161 0
M  V30 1624 C 157.425 1.27838 -4.0689 0
M  V30 1625 S 158.258 0.275217 -5.34792 0
M  V30 1626 C 159.414 1.47816 -6.08195 0
M  V30 1627 H 159.647 -0.0701054 -2.97217 0
M  V30 1628 H 157.18 -0.155038 -1.5362 0
M  V30 1629 H 159.138 2.39988 -3.3304 0
M  V30 1630 H 157.799 2.27156 -2.16931 0
M  V30 1631 H 156.992 2.17141 -4.54825 0
M  V30 1632 H 156.594 0.671105 -3.6793 0
M  V30 1633 H 158.886 2.40831 -6.33251 0
M  V30 1634 H 159.829 1.04008 -7.0042 0
M  V30 1635 H 160.237 1.68663 -5.38714 0
M  V30 1636 N 159.635 1.57281 -0.100228 0
M  V30 1637 C 160.865 1.98591 0.569681 0
M  V30 1638 C 161.273 0.978315 1.61943 0
M  V30 1639 O 160.616 -0.0396108 1.83657 0
M  V30 1640 C 160.678 3.36282 1.271 0
M  V30 1641 C 160.342 4.55488 0.371409 0
M  V30 1642 C 161.339 5.18491 -0.382504 0
M  V30 1643 C 159.024 5.01474 0.287965 0
M  V30 1644 C 161.018 6.25852 -1.20779 0
M  V30 1645 C 158.705 6.08701 -0.540965 0
M  V30 1646 C 159.703 6.70755 -1.28749 0
M  V30 1647 O 159.391 7.75914 -2.10269 0
M  V30 1648 H 159.123 0.65752 0.156982 0
M  V30 1649 H 161.677 2.0463 -0.177734 0
M  V30 1650 H 159.907 3.26941 2.0651 0
M  V30 1651 H 161.596 3.62005 1.83595 0
M  V30 1652 H 162.362 4.83891 -0.3278 0
M  V30 1653 H 158.241 4.52932 0.858689 0
M  V30 1654 H 161.785 6.74218 -1.79096 0
M  V30 1655 H 157.682 6.42732 -0.597131 0
M  V30 1656 H 158.45 7.92925 -2.03007 0
M  V30 1657 N 161.113 -0.173488 1.56642 0
M  V30 1658 C 162.06 -1.21482 1.96242 0
M  V30 1659 C 163.03 -1.44104 0.826027 0
M  V30 1660 O 164.215 -1.5688 1.08597 0
M  V30 1661 C 161.355 -2.54964 2.32567 0
M  V30 1662 C 160.468 -2.39739 3.59373 0
M  V30 1663 C 159.603 -3.66072 3.84921 0
M  V30 1664 C 158.642 -3.45771 5.05083 0
M  V30 1665 N 157.779 -4.64169 5.26775 0
M  V30 1666 H 162.619 -0.870123 2.85014 0
M  V30 1667 H 160.156 -0.418245 1.41029 0
M  V30 1668 H 162.114 -3.32758 2.5165 0
M  V30 1669 H 160.744 -2.87433 1.46908 0
M  V30 1670 H 159.796 -1.53131 3.48217 0
M  V30 1671 H 161.108 -2.20683 4.47326 0
M  V30 1672 H 160.262 -4.52303 4.0436 0
M  V30 1673 H 159.001 -3.88105 2.9534 0
M  V30 1674 H 158.006 -2.57927 4.85545 0
M  V30 1675 H 159.231 -3.25163 5.96193 0
M  V30 1676 H 157.177 -4.86425 4.40144 0
M  V30 1677 H 157.094 -4.48019 6.08946 0
M  V30 1678 H 158.362 -5.51689 5.5069 0
M  V30 1679 N 162.591 -1.51276 -0.441967 0
M  V30 1680 C 163.839 -1.63392 -1.18943 0
M  V30 1681 C 164.16 -0.350159 -1.9183 0
M  V30 1682 O 163.43 0.633784 -1.85364 0
M  V30 1683 H 162.01 -0.602164 -0.442049 0
M  V30 1684 H 164.672 -1.88186 -0.507165 0
M  V30 1685 H 163.768 -2.45934 -1.92154 0
M  V30 1686 N 164.069 0.697108 -1.41344 0
M  V30 1687 C 165.001 1.8224 -1.39001 0
M  V30 1688 C 166.014 1.60152 -0.292428 0
M  V30 1689 O 167.203 1.69684 -0.554048 0
M  V30 1690 C 164.303 3.18976 -1.14489 0
M  V30 1691 C 163.476 3.68105 -2.36258 0
M  V30 1692 C 162.535 4.83506 -2.07625 0
M  V30 1693 O 161.561 4.95201 -2.8065 0
M  V30 1694 N 162.763 5.70637 -1.06555 0
M  V30 1695 H 165.528 1.84742 -2.35988 0
M  V30 1696 H 163.089 0.87937 -1.35936 0
M  V30 1697 H 165.081 3.93801 -0.932885 0
M  V30 1698 H 163.651 3.11508 -0.261043 0
M  V30 1699 H 162.871 2.84204 -2.7317 0
M  V30 1700 H 164.159 3.97667 -3.17393 0
M  V30 1701 H 163.557 5.63817 -0.461125 0
M  V30 1702 H 162.114 6.45368 -0.913444 0
M  V30 1703 N 165.547 1.27147 0.931209 0
M  V30 1704 C 166.958 1.12044 1.49342 0
M  V30 1705 C 167.309 -0.295795 1.93957 0
M  V30 1706 O 166.434 -1.18835 1.80852 0
M  V30 1707 C 167.029 2.02781 2.71414 0
M  V30 1708 C 165.588 1.91794 3.2387 0
M  V30 1709 C 164.735 1.95543 1.96617 0
M  V30 1710 H 167.686 1.40091 0.745672 0
M  V30 1711 H 167.707 1.58156 3.46074 0
M  V30 1712 H 167.219 3.05848 2.38911 0
M  V30 1713 H 165.32 0.916992 3.6114 0
M  V30 1714 H 165.433 2.77852 3.90302 0
M  V30 1715 H 163.797 1.39722 2.12955 0
M  V30 1716 H 164.58 3.00259 1.66432 0
M  V30 1717 N 167.025 -1.13721 1.09112 0
M  V30 1718 C 167.958 -2.18094 0.67158 0
M  V30 1719 C 168.936 -1.59414 -0.320299 0
M  V30 1720 O 170.12 -1.87183 -0.222444 0
M  V30 1721 C 167.247 -3.38698 -0.0111189 0
M  V30 1722 C 166.293 -4.15966 0.942055 0
M  V30 1723 S 167.126 -4.7604 2.45246 0
M  V30 1724 C 168.282 -5.99994 1.78208 0
M  V30 1725 H 168.515 -2.53344 1.55577 0
M  V30 1726 H 166.048 -1.24967 0.906789 0
M  V30 1727 H 168.006 -4.08559 -0.398716 0
M  V30 1728 H 166.667 -3.01756 -0.871905 0
M  V30 1729 H 165.86 -5.02318 0.411396 0
M  V30 1730 H 165.462 -3.51745 1.2709 0
M  V30 1731 H 167.754 -6.68441 1.10424 0
M  V30 1732 H 168.697 -6.57662 2.62463 0
M  V30 1733 H 169.105 -5.50432 1.25238 0
M  V30 1734 N 168.503 -0.877838 -1.30888 0
M  V30 1735 C 169.731 -0.507414 -2.00581 0
M  V30 1736 C 170.146 0.902216 -1.65848 0
M  V30 1737 O 169.503 1.59225 -0.891831 0
M  V30 1738 C 169.554 -0.664162 -3.55347 0
M  V30 1739 O 169.275 -2.01829 -3.8884 0
M  V30 1740 C 170.776 -0.295787 -4.42312 0
M  V30 1741 H 167.996 -0.196866 -0.641471 0
M  V30 1742 H 170.54 -1.18117 -1.66939 0
M  V30 1743 H 168.695 -0.0378619 -3.87381 0
M  V30 1744 H 169.109 -2.03174 -4.8355 0
M  V30 1745 H 170.583 -0.456388 -5.5011 0
M  V30 1746 H 171.06 0.765663 -4.32475 0
M  V30 1747 H 171.666 -0.898113 -4.15709 0
M  V30 1748 N 169.982 1.44106 -0.638065 0
M  V30 1749 C 171.229 2.01978 -0.14533 0
M  V30 1750 C 171.557 1.50234 1.23532 0
M  V30 1751 O 170.812 0.679548 1.83523 0
M  V30 1752 C 171.111 3.5729 -0.0887327 0
M  V30 1753 C 170.777 4.28317 -1.40909 0
M  V30 1754 C 169.439 4.47437 -1.77069 0
M  V30 1755 C 171.791 4.6867 -2.28031 0
M  V30 1756 C 169.119 5.04171 -3.00047 0
M  V30 1757 C 171.471 5.26766 -3.50286 0
M  V30 1758 C 170.135 5.44104 -3.86661 0
M  V30 1759 H 169.405 0.739089 -0.0531801 0
M  V30 1760 H 172.052 1.72781 -0.825761 0
M  V30 1761 H 170.357 3.8594 0.675095 0
M  V30 1762 H 172.054 3.99807 0.309145 0
M  V30 1763 H 168.644 4.1377 -1.1177 0
M  V30 1764 H 172.828 4.53604 -2.01388 0
M  V30 1765 H 168.084 5.15782 -3.28298 0
M  V30 1766 H 172.258 5.56983 -4.18023 0
M  V30 1767 H 169.885 5.87832 -4.82034 0
M  V30 1768 N 171.46 0.379036 1.52974 0
M  V30 1769 C 172.876 0.0285448 1.59574 0
M  V30 1770 C 173.076 -1.45542 1.39355 0
M  V30 1771 O 172.132 -2.2187 1.20541 0
M  V30 1772 C 173.445 0.496535 2.96572 0
M  V30 1773 C 174.993 0.451909 3.0972 0
M  V30 1774 C 175.468 0.895924 4.49152 0
M  V30 1775 N 176.959 0.851522 4.55306 0
M  V30 1776 C 177.694 1.16661 5.61407 0
M  V30 1777 N 177.19 1.55166 6.752 0
M  V30 1778 N 178.983 1.08853 5.51459 0
M  V30 1779 H 171.134 1.34525 1.64367 0
M  V30 1780 H 173.397 0.550733 0.771619 0
M  V30 1781 H 173.103 1.53258 3.16552 0
M  V30 1782 H 172.977 -0.109802 3.7704 0
M  V30 1783 H 175.364 -0.575029 2.89443 0
M  V30 1784 H 175.445 1.09392 2.3123 0
M  V30 1785 H 175.089 1.92104 4.70168 0
M  V30 1786 H 175.019 0.23103 5.26093 0
M  V30 1787 H 177.51 0.568038 3.73606 0
M  V30 1788 H 177.823 1.776 7.52116 0
M  V30 1789 H 176.168 1.59044 6.76557 0
M  V30 1790 H 179.359 0.786803 4.6144 0
M  V30 1791 H 179.532 1.33742 6.34048 0
M  V30 1792 N 172.938 -1.57226 0.108567 0
M  V30 1793 C 173.868 -2.17778 -0.84232 0
M  V30 1794 C 174.849 -1.11487 -1.2847 0
M  V30 1795 O 176.034 -1.39681 -1.34918 0
M  V30 1796 C 173.164 -2.76888 -2.09644 0
M  V30 1797 C 172.118 -3.88669 -1.79221 0
M  V30 1798 C 171.444 -4.34541 -3.11574 0
M  V30 1799 C 172.744 -5.11251 -1.06864 0
M  V30 1800 H 174.438 -2.97489 -0.337774 0
M  V30 1801 H 171.984 -1.43097 -0.161025 0
M  V30 1802 H 173.937 -3.17904 -2.76614 0
M  V30 1803 H 172.661 -1.94451 -2.62405 0
M  V30 1804 H 171.32 -3.48213 -1.14644 0
M  V30 1805 H 170.968 -3.48977 -3.62249 0
M  V30 1806 H 170.668 -5.09914 -2.91996 0
M  V30 1807 H 172.192 -4.782 -3.7968 0
M  V30 1808 H 173.606 -5.49352 -1.63968 0
M  V30 1809 H 172.003 -5.9214 -0.974178 0
M  V30 1810 H 173.073 -4.8487 -0.0536168 0
M  V30 1811 N 174.416 0.165178 -1.56732 0
M  V30 1812 C 175.346 1.20651 -1.99914 0
M  V30 1813 C 176.327 1.45827 -0.875705 0
M  V30 1814 O 177.512 1.57057 -1.14223 0
M  V30 1815 C 174.642 2.54401 -2.36427 0
M  V30 1816 C 173.596 2.43782 -3.51787 0
M  V30 1817 C 172.922 3.82078 -3.7406 0
M  V30 1818 C 174.222 1.93732 -4.85041 0
M  V30 1819 H 175.916 0.847534 -2.87154 0
M  V30 1820 H 173.462 0.40625 -1.38151 0
M  V30 1821 H 175.415 3.27458 -2.65234 0
M  V30 1822 H 174.139 2.92098 -1.46103 0
M  V30 1823 H 172.798 1.73178 -3.23117 0
M  V30 1824 H 172.446 4.17179 -2.81017 0
M  V30 1825 H 172.146 3.7584 -4.51684 0
M  V30 1826 H 173.67 4.56712 -4.05274 0
M  V30 1827 H 175.084 2.56569 -5.12684 0
M  V30 1828 H 173.481 1.98428 -5.66345 0
M  V30 1829 H 174.551 0.891962 -4.76626 0
M  V30 1830 N 175.894 1.51508 0.433938 0
M  V30 1831 C 176.824 1.76016 1.53429 0
M  V30 1832 C 177.805 0.610112 1.58782 0
M  V30 1833 O 178.99 0.853177 1.74455 0
M  V30 1834 C 176.12 1.88831 2.9148 0
M  V30 1835 C 175.074 3.04288 3.00987 0
M  V30 1836 C 174.4 3.0229 4.4105 0
M  V30 1837 C 175.7 4.44193 2.74754 0
M  V30 1838 H 177.394 2.68152 1.33171 0
M  V30 1839 H 174.94 1.29035 0.639214 0
M  V30 1840 H 176.893 2.04559 3.6842 0
M  V30 1841 H 175.617 0.933455 3.12976 0
M  V30 1842 H 174.276 2.8827 2.26486 0
M  V30 1843 H 173.924 2.04576 4.59519 0
M  V30 1844 H 173.624 3.79822 4.4834 0
M  V30 1845 H 175.148 3.20116 5.1996 0
M  V30 1846 H 176.562 4.60544 3.41426 0
M  V30 1847 H 174.959 5.23457 2.9345 0
M  V30 1848 H 176.029 4.53996 1.70339 0
M  V30 1849 N 177.372 -0.689602 1.41712 0
M  V30 1850 C 178.618 -1.45181 1.41599 0
M  V30 1851 C 178.951 -1.94181 0.0270081 0
M  V30 1852 O 178.226 -1.6993 -0.946265 0
M  V30 1853 C 178.509 -2.65945 2.42787 0
M  V30 1854 C 178.362 -2.22672 3.90816 0
M  V30 1855 C 179.681 -3.68149 2.41151 0
M  V30 1856 H 176.8 -0.526576 0.515642 0
M  V30 1857 H 179.442 -0.784947 1.73028 0
M  V30 1858 H 177.592 -3.2284 2.16116 0
M  V30 1859 H 179.264 -1.71058 4.28412 0
M  V30 1860 H 177.507 -1.54394 4.05395 0
M  V30 1861 H 178.178 -3.0935 4.57172 0
M  V30 1862 H 180.654 -3.2094 2.64834 0
M  V30 1863 H 179.53 -4.50248 3.13955 0
M  V30 1864 H 179.791 -4.18259 1.43221 0
M  V30 1865 N 178.85 -1.27639 -0.924453 0
M  V30 1866 C 180.127 -1.04887 -1.651 0
M  V30 1867 C 180.507 0.415327 -2.06974 0
M  V30 1868 O 179.855 1.39923 -1.80648 0
M  V30 1869 C 180.065 -2.01348 -2.85061 0
M  V30 1870 C 181.413 -2.30899 -3.56329 0
M  V30 1871 O 182.437 -1.99348 -2.95193 0
M  V30 1872 O 181.296 -2.84699 -4.66485 0
M  V30 1873 H 178.39 -0.400083 -0.723784 0
M  V30 1874 H 180.936 -1.38916 -0.974703 0
M  V30 1875 H 179.708 -3.0008 -2.51133 0
M  V30 1876 H 179.331 -1.679 -3.6041 0
M  V30 1877 N 180.328 1.1314 -1.09713 0
M  V30 1878 C 181.556 1.88321 -0.856898 0
M  V30 1879 C 181.971 1.79276 0.592073 0
M  V30 1880 O 181.328 1.16142 1.40774 0
M  V30 1881 C 181.379 3.37812 -1.28706 0
M  V30 1882 O 181.1 3.46627 -2.67921 0
M  V30 1883 C 182.601 4.29952 -1.07964 0
M  V30 1884 H 179.821 0.596094 -0.308079 0
M  V30 1885 H 182.365 1.43205 -1.45988 0
M  V30 1886 H 180.52 3.805 -0.727912 0
M  V30 1887 H 180.934 4.39579 -2.8613 0
M  V30 1888 H 182.408 5.33159 -1.42986 0
M  V30 1889 H 182.885 4.39196 -0.0176577 0
M  V30 1890 H 183.491 3.93036 -1.62489 0
M  V30 1891 N 181.806 0.884767 1.30421 0
M  V30 1892 C 183.217 0.553656 1.78302 0
M  V30 1893 C 183.568 -0.930153 1.7275 0
M  V30 1894 O 182.693 -1.72681 1.30423 0
M  V30 1895 C 183.288 0.998234 3.2376 0
M  V30 1896 C 181.847 0.71854 3.69478 0
M  V30 1897 C 180.994 1.18132 2.50879 0
M  V30 1898 H 183.945 1.06901 1.17294 0
M  V30 1899 H 183.966 0.327118 3.79091 0
M  V30 1900 H 183.478 2.0782 3.27769 0
M  V30 1901 H 181.579 -0.349444 3.70958 0
M  V30 1902 H 181.692 1.30595 4.60958 0
M  V30 1903 H 180.056 0.600669 2.47516 0
M  V30 1904 H 180.839 2.26902 2.57624 0
M  V30 1905 N 183.284 -1.43765 0.645699 0
M  V30 1906 C 184.194 -2.34544 -0.0512957 0
M  V30 1907 C 185.21 -1.53455 -0.82022 0
M  V30 1908 O 186.386 -1.86133 -0.769176 0
M  V30 1909 C 183.451 -3.31636 -1.01087 0
M  V30 1910 C 182.512 -4.2863 -0.239712 0
M  V30 1911 C 181.745 -5.21084 -1.15358 0
M  V30 1912 O 181.968 -5.1779 -2.39269 0
M  V30 1913 O 180.902 -5.98593 -0.630038 0
M  V30 1914 H 184.728 -2.95624 0.695718 0
M  V30 1915 H 182.313 -1.43781 0.405882 0
M  V30 1916 H 184.195 -3.9136 -1.56254 0
M  V30 1917 H 182.87 -2.73069 -1.73824 0
M  V30 1918 H 181.777 -3.72408 0.355356 0
M  V30 1919 H 183.11 -4.90157 0.447936 0
M  V30 1920 N 184.763 -0.387143 -1.52771 0
M  V30 1921 C 185.991 0.195869 -2.05971 0
M  V30 1922 C 186.406 1.40691 -1.25903 0
M  V30 1923 O 185.763 1.79931 -0.305134 0
M  V30 1924 C 185.814 0.56812 -3.57008 0
M  V30 1925 O 185.535 -0.594803 -4.34043 0
M  V30 1926 C 187.036 1.20723 -4.26545 0
M  V30 1927 H 184.256 0.0300578 -0.670326 0
M  V30 1928 H 186.8 -0.551749 -1.96916 0
M  V30 1929 H 184.955 1.26564 -3.66143 0
M  V30 1930 H 185.369 -0.289322 -5.23701 0
M  V30 1931 H 186.843 1.41807 -5.33474 0
M  V30 1932 H 187.32 2.17395 -3.81623 0
M  V30 1933 H 187.926 0.550535 -4.21722 0
M  V30 1934 N 186.241 1.57166 -0.116904 0
M  V30 1935 C 187.188 2.15202 0.83408 0
M  V30 1936 C 188.158 1.07644 1.26499 0
M  V30 1937 O 189.343 1.35541 1.34288 0
M  V30 1938 C 186.483 2.75405 2.07957 0
M  V30 1939 C 185.596 3.97264 1.69721 0
M  V30 1940 C 184.731 4.45561 2.89221 0
M  V30 1941 C 183.77 5.59956 2.47215 0
M  V30 1942 N 182.907 6.03006 3.59622 0
M  V30 1943 H 187.747 2.96141 0.332335 0
M  V30 1944 H 185.284 1.46309 0.152349 0
M  V30 1945 H 187.242 3.08439 2.80929 0
M  V30 1946 H 185.872 1.97159 2.55594 0
M  V30 1947 H 184.924 3.70404 0.866316 0
M  V30 1948 H 186.236 4.80226 1.34849 0
M  V30 1949 H 185.39 4.80493 3.7042 0
M  V30 1950 H 184.129 3.61544 3.27318 0
M  V30 1951 H 183.134 5.2463 1.64448 0
M  V30 1952 H 184.359 6.45738 2.10238 0
M  V30 1953 H 182.305 5.21931 3.97396 0
M  V30 1954 H 182.222 6.80819 3.28667 0
M  V30 1955 H 183.49 6.42576 4.41267 0
M  V30 1956 N 187.719 -0.156864 1.56817 0
M  V30 1957 C 188.669 -1.19891 1.93934 0
M  V30 1958 C 189.653 -1.39061 0.809372 0
M  V30 1959 O 190.845 -1.40789 1.07273 0
M  V30 1960 C 187.974 -2.53493 2.31508 0
M  V30 1961 C 187.06 -2.37957 3.51052 0
M  V30 1962 N 187.451 -1.92158 4.67877 0
M  V30 1963 C 185.749 -2.68739 3.55943 0
M  V30 1964 C 186.45 -1.8943 5.49992 0
M  V30 1965 N 185.426 -2.32375 4.91429 0
M  V30 1966 H 189.228 -0.836746 2.81737 0
M  V30 1967 H 186.742 -0.365012 1.58245 0
M  V30 1968 H 188.739 -3.28811 2.56299 0
M  V30 1969 H 187.399 -2.905 1.45051 0
M  V30 1970 H 188.41 -1.62274 4.91821 0
M  V30 1971 H 185.087 -3.09687 2.80001 0
M  V30 1972 H 186.477 -1.55596 6.53636 0
M  V30 1973 N 189.197 -1.51736 -0.425897 0
M  V30 1974 C 190.608 -1.5732 -1.00536 0
M  V30 1975 C 190.959 -0.403537 -1.92005 0
M  V30 1976 O 190.084 0.478256 -2.11049 0
M  V30 1977 C 190.679 -2.85119 -1.8301 0
M  V30 1978 C 189.238 -2.93236 -2.35987 0
M  V30 1979 C 188.385 -2.52098 -1.15508 0
M  V30 1980 H 191.336 -1.57348 -0.206739 0
M  V30 1981 H 191.357 -2.69526 -2.68581 0
M  V30 1982 H 190.869 -3.7023 -1.16411 0
M  V30 1983 H 188.97 -2.12581 -3.06007 0
M  V30 1984 H 189.083 -3.9713 -2.68001 0
M  V30 1985 H 187.447 -2.05558 -1.50393 0
M  V30 1986 H 188.23 -3.39565 -0.505014 0
M  V30 1987 N 190.675 0.682077 -1.42076 0
M  V30 1988 C 191.622 1.79578 -1.44984 0
M  V30 1989 C 192.592 1.6332 -0.302614 0
M  V30 1990 O 193.777 1.83978 -0.505633 0
M  V30 1991 C 190.917 3.1756 -1.35091 0
M  V30 1992 C 190.03 3.45156 -2.59791 0
M  V30 1993 C 189.165 4.72826 -2.42093 0
M  V30 1994 C 188.204 4.93433 -3.62202 0
M  V30 1995 N 187.341 6.12338 -3.43491 0
M  V30 1996 H 192.181 1.76427 -2.40161 0
M  V30 1997 H 189.718 0.861376 -1.19242 0
M  V30 1998 H 191.676 3.97287 -1.27354 0
M  V30 1999 H 190.306 3.19854 -0.435133 0
M  V30 2000 H 189.358 2.59736 -2.77923 0
M  V30 2001 H 190.67 3.5628 -3.49094 0
M  V30 2002 H 189.824 5.60631 -2.319 0
M  V30 2003 H 188.563 4.63973 -1.50268 0
M  V30 2004 H 187.568 4.04073 -3.72834 0
M  V30 2005 H 188.793 5.04136 -4.54998 0
M  V30 2006 H 186.739 6.04672 -2.54377 0
M  V30 2007 H 186.656 6.2429 -4.26377 0
M  V30 2008 H 187.924 7.02841 -3.37097 0
M  V30 2009 N 192.153 1.28127 0.917671 0
M  V30 2010 C 193.1 1.11717 2.0196 0
M  V30 2011 C 194.07 0.0153929 1.66093 0
M  V30 2012 O 195.255 0.179596 1.89953 0
M  V30 2013 C 192.395 0.780927 3.36148 0
M  V30 2014 C 191.508 1.96135 3.84909 0
M  V30 2015 C 190.643 1.56609 5.0759 0
M  V30 2016 C 189.682 2.71339 5.48673 0
M  V30 2017 N 188.819 2.32332 6.62545 0
M  V30 2018 H 193.659 2.06003 2.15329 0
M  V30 2019 H 191.196 1.02535 1.05475 0
M  V30 2020 H 193.154 0.56675 4.13333 0
M  V30 2021 H 191.784 -0.124998 3.22558 0
M  V30 2022 H 190.836 2.28777 3.03916 0
M  V30 2023 H 192.148 2.82165 4.1132 0
M  V30 2024 H 191.302 1.31374 5.92305 0
M  V30 2025 H 190.041 0.677014 4.82978 0
M  V30 2026 H 189.046 2.97276 4.62501 0
M  V30 2027 H 190.271 3.60882 5.75274 0
M  V30 2028 H 188.217 1.45889 6.39572 0
M  V30 2029 H 188.134 3.11899 6.88662 0
M  V30 2030 H 189.402 2.10371 7.50576 0
M  V30 2031 N 193.631 -1.12557 1.10312 0
M  V30 2032 C 194.879 -1.83675 0.843091 0
M  V30 2033 C 195.2 -1.84435 -0.633131 0
M  V30 2034 O 194.47 -1.30657 -1.45964 0
M  V30 2035 H 193.05 -0.680138 0.308904 0
M  V30 2036 H 195.712 -1.36301 1.39313 0
M  V30 2037 H 194.808 -2.87908 1.2048 0
M  V30 2038 N 195.109 -0.891671 -1.2995 0
M  V30 2039 C 196.355 -0.514261 -1.96171 0
M  V30 2040 C 196.688 0.935506 -1.70182 0
M  V30 2041 O 195.963 1.66204 -1.01028 0
M  V30 2042 C 196.246 -0.797719 -3.51153 0
M  V30 2043 C 196.099 -2.2986 -3.86632 0
M  V30 2044 C 197.418 -0.278749 -4.39216 0
M  V30 2045 H 194.537 -0.188314 -0.712535 0
M  V30 2046 H 197.179 -1.11689 -1.53706 0
M  V30 2047 H 195.329 -0.284826 -3.87455 0
M  V30 2048 H 197.001 -2.88042 -3.60319 0
M  V30 2049 H 195.244 -2.76257 -3.34462 0
M  V30 2050 H 195.915 -2.44753 -4.94773 0
M  V30 2051 H 198.391 -0.717825 -4.09862 0
M  V30 2052 H 197.267 -0.506353 -5.46559 0
M  V30 2053 H 197.528 0.820266 -4.34424 0
M  V30 2054 N 196.587 1.43421 -0.653314 0
M  V30 2055 C 197.497 2.34568 0.0388565 0
M  V30 2056 C 198.513 1.53888 0.81207 0
M  V30 2057 O 199.689 1.86539 0.759294 0
M  V30 2058 C 196.754 3.32167 0.993269 0
M  V30 2059 C 195.815 4.28751 0.216977 0
M  V30 2060 C 195.048 5.21688 1.12593 0
M  V30 2061 O 195.271 5.19052 2.36519 0
M  V30 2062 O 194.205 5.98919 0.598284 0
M  V30 2063 H 198.031 2.95251 -0.711386 0
M  V30 2064 H 195.616 1.43564 -0.413502 0
M  V30 2065 H 197.498 3.92183 1.54176 0
M  V30 2066 H 196.173 2.73987 1.72374 0
M  V30 2067 H 195.08 3.72215 -0.375101 0
M  V30 2068 H 196.413 4.89913 -0.473924 0
M  V30 2069 N 198.065 0.39524 1.52563 0
M  V30 2070 C 199.012 -0.437036 2.26624 0
M  V30 2071 C 199.982 -1.05281 1.28472 0
M  V30 2072 O 201.167 -1.07971 1.57311 0
M  V30 2073 C 198.307 -1.55524 3.08069 0
M  V30 2074 C 197.42 -0.961745 4.21158 0
M  V30 2075 C 196.555 -2.05149 4.89987 0
M  V30 2076 C 195.594 -1.4342 5.95061 0
M  V30 2077 N 194.731 -2.46351 6.57462 0
M  V30 2078 H 199.571 0.200976 2.97322 0
M  V30 2079 H 197.108 0.110944 1.46681 0
M  V30 2080 H 199.066 -2.21437 3.53584 0
M  V30 2081 H 197.696 -2.16348 2.3957 0
M  V30 2082 H 196.748 -0.192048 3.79915 0
M  V30 2083 H 198.06 -0.470701 4.96574 0
M  V30 2084 H 197.214 -2.78819 5.38837 0
M  V30 2085 H 195.953 -2.57615 4.14109 0
M  V30 2086 H 194.958 -0.682774 5.45544 0
M  V30 2087 H 196.183 -0.917416 6.72875 0
M  V30 2088 H 194.129 -2.97975 5.8442 0
M  V30 2089 H 194.046 -2.02019 7.28508 0
M  V30 2090 H 195.314 -3.19633 7.10954 0
M  V30 2091 N 199.544 -1.57102 0.125237 0
M  V30 2092 C 200.774 -1.99472 -0.538015 0
M  V30 2093 C 201.182 -1.00395 -1.60366 0
M  V30 2094 O 200.525 0.0103875 -1.83697 0
M  V30 2095 C 200.587 -3.38262 -1.21734 0
M  V30 2096 C 200.251 -4.56021 -0.298897 0
M  V30 2097 C 201.248 -5.17817 0.464943 0
M  V30 2098 C 198.933 -5.01869 -0.208149 0
M  V30 2099 C 200.927 -6.23852 1.3072 0
M  V30 2100 C 198.614 -6.07763 0.637736 0
M  V30 2101 C 199.612 -6.68622 1.39403 0
M  V30 2102 O 199.3 -7.7247 2.22586 0
M  V30 2103 H 199.032 -0.659934 -0.146501 0
M  V30 2104 H 201.586 -2.04321 0.210267 0
M  V30 2105 H 199.816 -3.30185 -2.01282 0
M  V30 2106 H 201.505 -3.6488 -1.77813 0
M  V30 2107 H 202.271 -4.83308 0.404741 0
M  V30 2108 H 198.15 -4.54241 -0.786522 0
M  V30 2109 H 201.694 -6.71284 1.898 0
M  V30 2110 H 197.591 -6.41701 0.699309 0
M  V30 2111 H 198.359 -7.89595 2.15596 0
M  V30 2112 N 201.022 0.148545 -1.56898 0
M  V30 2113 C 202.27 0.859717 -1.82902 0
M  V30 2114 C 202.591 1.81775 -0.70588 0
M  V30 2115 O 201.861 1.93994 0.272586 0
M  V30 2116 H 200.441 0.320469 -0.674766 0
M  V30 2117 H 203.103 0.142918 -1.94375 0
M  V30 2118 H 202.199 1.4229 -2.77777 0
M  V30 2119 N 202.5 1.5196 0.417844 0
M  V30 2120 C 203.911 1.57851 0.997 0
M  V30 2121 C 204.262 0.413714 1.91789 0
M  V30 2122 O 203.387 -0.467057 2.113 0
M  V30 2123 C 203.982 2.86085 1.81496 0
M  V30 2124 C 202.541 2.94483 2.34428 0
M  V30 2125 C 201.688 2.52707 1.14169 0
M  V30 2126 H 204.639 1.57455 0.198392 0
M  V30 2127 H 204.66 2.70947 2.67148 0
M  V30 2128 H 204.172 3.70842 1.14446 0
M  V30 2129 H 202.273 2.142 3.04875 0
M  V30 2130 H 202.386 3.98546 2.65891 0
M  V30 2131 H 200.75 2.06353 1.49301 0
M  V30 2132 H 201.533 3.39828 0.486999 0
M  V30 2133 N 203.978 -0.674533 1.42435 0
M  V30 2134 C 204.888 -1.81751 1.48337 0
M  V30 2135 C 205.904 -1.69975 0.372099 0
M  V30 2136 O 207.08 -1.91521 0.62304 0
M  V30 2137 C 204.145 -3.17895 1.38361 0
M  V30 2138 C 203.206 -3.41625 2.59982 0
M  V30 2139 C 202.439 -4.71274 2.50473 0
M  V30 2140 O 202.662 -5.49197 1.54075 0
M  V30 2141 O 201.596 -4.96254 3.4061 0
M  V30 2142 H 205.422 -1.79728 2.44809 0
M  V30 2143 H 203.007 -0.830312 1.24202 0
M  V30 2144 H 204.889 -3.99136 1.35161 0
M  V30 2145 H 203.564 -3.20555 0.450144 0
M  V30 2146 H 202.471 -2.60231 2.68757 0
M  V30 2147 H 203.804 -3.43796 3.52229 0
M  V30 2148 N 205.456 -1.28612 -0.910864 0
M  V30 2149 C 206.419 -1.12803 -1.9952 0
M  V30 2150 C 207.419 -0.0668264 -1.60661 0
M  V30 2151 O 208.609 -0.312847 -1.71368 0
M  V30 2152 C 205.741 -0.72254 -3.33155 0
M  V30 2153 H 206.934 -2.09109 -2.14973 0
M  V30 2154 H 204.487 -1.11639 -1.09391 0
M  V30 2155 H 205.222 0.241152 -3.23402 0
M  V30 2156 H 205.007 -1.48916 -3.62721 0
M  V30 2157 H 206.497 -0.634666 -4.12749 0
M  V30 2158 N 206.934 1.1197 -1.10907 0
M  V30 2159 C 208.159 1.87942 -0.877064 0
M  V30 2160 C 208.584 1.79341 0.567314 0
M  V30 2161 O 207.942 1.15184 1.40009 0
M  V30 2162 C 207.99 3.34926 -1.33629 0
M  V30 2163 O 207.094 4.09303 -0.504447 0
M  V30 2164 H 206.435 0.583785 -0.316371 0
M  V30 2165 H 208.965 1.4157 -1.47712 0
M  V30 2166 H 208.975 3.8577 -1.32837 0
M  V30 2167 H 207.65 3.40504 -2.3881 0
M  V30 2168 H 206.227 3.68393 -0.577993 0
M  V30 2169 N 208.412 0.89855 1.29475 0
M  V30 2170 C 209.375 0.380272 2.26023 0
M  V30 2171 C 210.375 -0.484891 1.53315 0
M  V30 2172 O 211.565 -0.290108 1.71767 0
M  V30 2173 C 208.697 -0.45651 3.3783 0
M  V30 2174 H 209.89 1.23295 2.73383 0
M  V30 2175 H 207.443 0.676589 1.40897 0
M  V30 2176 H 208.178 -1.32922 2.95808 0
M  V30 2177 H 207.963 0.163393 3.91759 0
M  V30 2178 H 209.453 -0.810466 4.0966 0
M  V30 2179 N 209.89 -1.43072 0.660911 0
M  V30 2180 C 211.137 -2.01721 0.177445 0
M  V30 2181 C 211.465 -1.5218 -1.21126 0
M  V30 2182 O 210.72 -0.708659 -1.82419 0
M  V30 2183 C 211.019 -3.57103 0.145563 0
M  V30 2184 C 210.685 -4.26021 1.47705 0
M  V30 2185 C 209.347 -4.44563 1.84165 0
M  V30 2186 C 211.699 -4.64983 2.35458 0
M  V30 2187 C 209.027 -4.99334 3.0803 0
M  V30 2188 C 211.379 -5.21127 3.58622 0
M  V30 2189 C 210.043 -5.37884 3.95268 0
M  V30 2190 H 209.313 -0.73815 0.0649317 0
M  V30 2191 H 211.96 -1.71446 0.853144 0
M  V30 2192 H 210.265 -3.86965 -0.61361 0
M  V30 2193 H 211.962 -4.00248 -0.2455 0
M  V30 2194 H 208.552 -4.11939 1.18339 0
M  V30 2195 H 212.736 -4.50343 2.08579 0
M  V30 2196 H 207.992 -5.10493 3.36462 0
M  V30 2197 H 212.166 -5.50262 4.26831 0
M  V30 2198 H 209.793 -5.80089 4.91325 0
M  V30 2199 N 211.368 -0.403325 -1.52352 0
M  V30 2200 C 212.596 0.174012 -2.06167 0
M  V30 2201 C 213.011 1.39347 -1.27388 0
M  V30 2202 O 212.368 1.79597 -0.324201 0
M  V30 2203 C 212.419 0.530223 -3.5759 0
M  V30 2204 O 212.14 -0.640806 -4.33388 0
M  V30 2205 C 213.641 1.16192 -4.27802 0
M  V30 2206 H 210.861 0.0229464 -0.670608 0
M  V30 2207 H 213.405 -0.572604 -1.9632 0
M  V30 2208 H 211.56 1.22673 -3.67464 0
M  V30 2209 H 211.974 -0.344851 -5.23365 0
M  V30 2210 H 213.448 1.36141 -5.34948 0
M  V30 2211 H 213.925 2.13335 -3.83907 0
M  V30 2212 H 214.531 0.505775 -4.22282 0
M  V30 2213 N 212.846 1.57033 -0.133567 0
M  V30 2214 C 213.793 2.16074 0.811208 0
M  V30 2215 C 214.763 1.08979 1.2535 0
M  V30 2216 O 215.948 1.36958 1.32843 0
M  V30 2217 C 213.088 2.77595 2.05024 0
M  V30 2218 C 212.201 3.99042 1.65498 0
M  V30 2219 C 211.336 4.48603 2.84479 0
M  V30 2220 C 210.375 5.62547 2.41262 0
M  V30 2221 N 209.512 6.06787 3.53206 0
M  V30 2222 H 214.352 2.96477 0.300906 0
M  V30 2223 H 211.889 1.46462 0.136822 0
M  V30 2224 H 213.847 3.11402 2.77642 0
M  V30 2225 H 212.477 1.99859 2.53488 0
M  V30 2226 H 211.529 3.71302 0.826981 0
M  V30 2227 H 212.841 4.81629 1.29748 0
M  V30 2228 H 211.995 4.84395 3.65303 0
M  V30 2229 H 210.734 3.64995 3.23465 0
M  V30 2230 H 209.739 5.26345 1.58874 0
M  V30 2231 H 210.964 6.47931 2.03377 0
M  V30 2232 H 208.91 5.26117 3.91838 0
M  V30 2233 H 208.827 6.84266 3.21427 0
M  V30 2234 H 210.095 6.4722 4.34427 0
M  V30 2235 N 214.325 -0.140222 1.56975 0
M  V30 2236 C 215.272 -1.17292 1.98774 0
M  V30 2237 C 216.242 -1.4232 0.856408 0
M  V30 2238 O 217.427 -1.54541 1.119 0
M  V30 2239 C 214.567 -2.49973 2.37923 0
M  V30 2240 C 213.68 -2.32062 3.64378 0
M  V30 2241 C 212.815 -3.57825 3.926 0
M  V30 2242 C 211.854 -3.3498 5.12303 0
M  V30 2243 N 210.991 -4.52891 5.36502 0
M  V30 2244 H 215.831 -0.809472 2.86795 0
M  V30 2245 H 213.368 -0.388237 1.41884 0
M  V30 2246 H 215.326 -3.27346 2.58652 0
M  V30 2247 H 213.956 -2.84252 1.52972 0
M  V30 2248 H 213.008 -1.45711 3.51387 0
M  V30 2249 H 214.32 -2.11145 4.51906 0
M  V30 2250 H 213.474 -4.43624 4.13863 0
M  V30 2251 H 212.213 -3.81753 3.03506 0
M  V30 2252 H 211.218 -2.4757 4.90906 0
M  V30 2253 H 212.443 -3.12444 6.02956 0
M  V30 2254 H 210.389 -4.76979 4.50363 0
M  V30 2255 H 210.306 -4.35001 6.18312 0
M  V30 2256 H 211.574 -5.39884 5.62268 0
M  V30 2257 N 215.803 -1.52179 -0.40978 0
M  V30 2258 C 216.736 -1.70196 -1.52015 0
M  V30 2259 C 217.714 -0.549542 -1.53032 0
M  V30 2260 O 218.898 -0.776815 -1.71749 0
M  V30 2261 C 216.025 -1.74069 -2.90547 0
M  V30 2262 C 215.071 -2.95601 -3.07445 0
M  V30 2263 S 215.904 -4.55956 -2.80827 0
M  V30 2264 C 217.06 -4.62614 -4.21591 0
M  V30 2265 H 217.293 -2.64109 -1.36504 0
M  V30 2266 H 214.826 -1.4221 -0.601312 0
M  V30 2267 H 216.784 -1.76985 -3.70387 0
M  V30 2268 H 215.445 -0.812835 -3.034 0
M  V30 2269 H 214.638 -2.94791 -4.08796 0
M  V30 2270 H 214.24 -2.90569 -2.35469 0
M  V30 2271 H 216.532 -4.39951 -5.15218 0
M  V30 2272 H 217.475 -5.64548 -4.27424 0
M  V30 2273 H 217.883 -3.91654 -4.06531 0
M  V30 2274 N 217.281 0.66697 -1.42791 0
M  V30 2275 C 218.527 1.4291 -1.43891 0
M  V30 2276 C 218.86 1.94114 -0.0578972 0
M  V30 2277 O 218.135 1.71414 0.91911 0
M  V30 2278 C 218.418 2.62049 -2.46987 0
M  V30 2279 C 218.271 2.16426 -3.94309 0
M  V30 2280 C 219.59 3.64266 -2.46978 0
M  V30 2281 H 216.709 0.518306 -0.523954 0
M  V30 2282 H 219.351 0.757321 -1.74255 0
M  V30 2283 H 217.501 3.19361 -2.21225 0
M  V30 2284 H 219.173 1.64221 -4.31079 0
M  V30 2285 H 217.416 1.47925 -4.078 0
M  V30 2286 H 218.087 3.02038 -4.62036 0
M  V30 2287 H 220.563 3.16686 -2.69906 0
M  V30 2288 H 219.439 4.45196 -3.21079 0
M  V30 2289 H 219.7 4.15927 -1.49857 0
M  V30 2290 N 218.759 1.29093 0.90403 0
M  V30 2291 C 219.669 1.15727 2.0407 0
M  V30 2292 C 220.685 0.0815308 1.73809 0
M  V30 2293 O 221.861 0.292749 1.99261 0
M  V30 2294 C 218.926 0.830424 3.36608 0
M  V30 2295 C 217.987 1.98955 3.80415 0
M  V30 2296 C 217.22 1.6782 5.06628 0
M  V30 2297 O 217.443 0.597105 5.67266 0
M  V30 2298 O 216.377 2.52486 5.46383 0
M  V30 2299 H 220.203 2.11171 2.18267 0
M  V30 2300 H 217.788 1.08504 1.027 0
M  V30 2301 H 219.67 0.662521 4.16159 0
M  V30 2302 H 218.345 -0.0942678 3.23563 0
M  V30 2303 H 217.252 2.21267 3.01648 0
M  V30 2304 H 218.585 2.89529 3.98037 0
M  V30 2305 N 220.237 -1.11381 1.11499 0
M  V30 2306 C 221.185 -2.19522 0.768956 0
M  V30 2307 C 222.179 -1.67693 -0.239857 0
M  V30 2308 O 223.385 -1.79727 -0.0990755 0
M  V30 2309 H 219.76 -0.715711 0.230786 0
M  V30 2310 H 221.731 -2.45954 1.68964 0
M  V30 2311 C 220.48 -3.46945 0.229073 0
M  V30 2312 H 219.803 -3.8718 0.996596 0
M  V30 2313 H 221.243 -4.23993 0.0251441 0
M  V30 2314 C 219.702 -3.2042 -1.04079 0
M  V30 2315 O 220.232 -3.41178 -2.12038 0
M  V30 2316 N 218.438 -2.74151 -0.963823 0
M  V30 2317 H 217.985 -2.57459 -0.0851722 0
M  V30 2318 H 217.943 -2.56781 -1.81414 0
M  V30 2319 N 221.715 -0.905404 -1.28997 0
M  V30 2320 C 222.678 -0.392253 -2.25819 0
M  V30 2321 C 223.678 0.476753 -1.5357 0
M  V30 2322 O 224.868 0.280994 -1.71919 0
M  V30 2323 C 222 0.438588 -3.38067 0
M  V30 2324 H 223.193 -1.24743 -2.72725 0
M  V30 2325 H 220.746 -0.684051 -1.40536 0
M  V30 2326 H 221.481 1.31352 -2.96508 0
M  V30 2327 H 221.266 -0.184167 -3.91667 0
M  V30 2328 H 222.756 0.78873 -4.10084 0
M  V30 2329 N 223.193 1.4272 -0.668489 0
M  V30 2330 C 224.14 2.30796 0.0137489 0
M  V30 2331 C 225.11 1.4561 0.799177 0
M  V30 2332 O 226.295 1.74453 0.772702 0
M  V30 2333 C 223.435 3.31377 0.963507 0
M  V30 2334 C 222.548 4.31655 0.172569 0
M  V30 2335 C 221.683 5.19312 1.1175 0
M  V30 2336 C 220.722 6.11274 0.317886 0
M  V30 2337 N 219.859 6.91504 1.2152 0
M  V30 2338 H 224.699 2.88585 -0.743161 0
M  V30 2339 H 222.236 1.42154 -0.378226 0
M  V30 2340 H 224.194 3.88214 1.52792 0
M  V30 2341 H 222.824 2.75202 1.68712 0
M  V30 2342 H 221.876 3.76988 -0.508374 0
M  V30 2343 H 223.188 4.96779 -0.448527 0
M  V30 2344 H 222.342 5.80851 1.75206 0
M  V30 2345 H 221.081 4.5435 1.77249 0
M  V30 2346 H 220.086 5.48809 -0.329918 0
M  V30 2347 H 221.311 6.78283 -0.332917 0
M  V30 2348 H 219.257 6.29176 1.85671 0
M  V30 2349 H 219.174 7.53209 0.649036 0
M  V30 2350 H 220.442 7.57535 1.83742 0
M  V30 2351 N 224.671 0.411399 1.52136 0
M  V30 2352 C 225.618 -0.412975 2.27075 0
M  V30 2353 C 226.588 -1.03912 1.29582 0
M  V30 2354 O 227.773 -1.06296 1.58448 0
M  V30 2355 C 224.913 -1.52247 3.09701 0
M  V30 2356 C 224.026 -0.917021 4.22155 0
M  V30 2357 C 223.161 -1.9994 4.92135 0
M  V30 2358 C 222.2 -1.37101 5.96548 0
M  V30 2359 N 221.337 -2.39364 6.60038 0
M  V30 2360 H 226.177 0.232499 2.97092 0
M  V30 2361 H 223.714 0.126496 1.46555 0
M  V30 2362 H 225.672 -2.17674 3.55913 0
M  V30 2363 H 224.302 -2.13794 2.41851 0
M  V30 2364 H 223.354 -0.151742 3.80097 0
M  V30 2365 H 224.666 -0.418006 4.97045 0
M  V30 2366 H 223.82 -2.73088 5.41763 0
M  V30 2367 H 222.559 -2.53208 4.16818 0
M  V30 2368 H 221.564 -0.624873 5.46237 0
M  V30 2369 H 222.789 -0.845998 6.7381 0
M  V30 2370 H 220.735 -2.91759 5.87548 0
M  V30 2371 H 220.652 -1.9428 7.3061 0
M  V30 2372 H 221.92 -3.12074 7.14304 0
M  V30 2373 N 226.149 -1.5696 0.141893 0
M  V30 2374 C 227.398 -1.95135 -0.510427 0
M  V30 2375 C 227.711 -1.02896 -1.66348 0
M  V30 2376 O 228.917 -1.30629 -2.38009 0
M  V30 2377 C 227.373 -3.46876 -0.959427 0
M  V30 2378 C 226.981 -4.47691 0.166419 0
M  V30 2379 C 228.725 -3.93927 -1.58183 0
M  V30 2380 C 226.632 -5.90636 -0.300565 0
M  V30 2381 H 225.562 -0.728494 -0.194454 0
M  V30 2382 H 228.213 -1.8211 0.22542 0
M  V30 2383 H 226.595 -3.55215 -1.75038 0
M  V30 2384 H 227.769 -4.51043 0.94325 0
M  V30 2385 H 226.084 -4.10527 0.696905 0
M  V30 2386 H 228.681 -4.98158 -1.94275 0
M  V30 2387 H 229.024 -3.3519 -2.46888 0
M  V30 2388 H 229.557 -3.88484 -0.855863 0
M  V30 2389 H 226.296 -6.5318 0.550989 0
M  V30 2390 H 225.816 -5.90655 -1.04338 0
M  V30 2391 H 227.495 -6.42588 -0.754265 0
M  V30 2392 N 227.627 0.131896 -1.57047 0
M  V30 2393 C 228.537 1.1815 -2.02676 0
M  V30 2394 C 229.553 1.46113 -0.944824 0
M  V30 2395 O 230.729 1.57485 -1.25541 0
M  V30 2396 C 227.794 2.49139 -2.41103 0
M  V30 2397 C 226.855 2.28688 -3.63318 0
M  V30 2398 C 226.088 3.53431 -3.99903 0
M  V30 2399 O 226.311 4.60223 -3.36973 0
M  V30 2400 O 225.245 3.45198 -4.93074 0
M  V30 2401 H 229.071 0.824069 -2.92306 0
M  V30 2402 H 226.656 0.341745 -1.45439 0
M  V30 2403 H 228.538 3.26338 -2.66611 0
M  V30 2404 H 227.213 2.84382 -1.54624 0
M  V30 2405 H 226.12 1.4939 -3.42977 0
M  V30 2406 H 227.453 1.98355 -4.50462 0
M  V30 2407 N 229.106 1.52395 0.401703 0
M  V30 2408 C 230.352 1.67065 1.14966 0
M  V30 2409 C 230.685 0.403052 1.89971 0
M  V30 2410 O 229.96 -0.598774 1.85054 0
M  V30 2411 C 230.243 2.8975 2.13815 0
M  V30 2412 C 230.096 4.26578 1.42658 0
M  V30 2413 C 231.415 3.07965 3.14397 0
M  V30 2414 H 228.534 0.607968 0.416587 0
M  V30 2415 H 231.176 1.84965 0.434511 0
M  V30 2416 H 229.326 2.74619 2.74803 0
M  V30 2417 H 230.998 4.53451 0.847329 0
M  V30 2418 H 229.241 4.27639 0.72849 0
M  V30 2419 H 229.912 5.08483 2.14823 0
M  V30 2420 H 232.388 3.22043 2.63491 0
M  V30 2421 H 231.264 3.95308 3.80819 0
M  V30 2422 H 231.525 2.21611 3.82545 0
M  V30 2423 N 230.584 -0.659388 1.43143 0
M  V30 2424 C 231.494 -1.80167 1.50256 0
M  V30 2425 C 232.51 -1.69571 0.390106 0
M  V30 2426 O 233.686 -1.90849 0.643319 0
M  V30 2427 C 230.751 -3.16409 1.41725 0
M  V30 2428 C 229.812 -3.38848 2.63591 0
M  V30 2429 C 229.045 -4.68591 2.55458 0
M  V30 2430 O 229.268 -5.47532 1.59891 0
M  V30 2431 O 228.202 -4.92614 3.45854 0
M  V30 2432 H 232.028 -1.77121 2.46702 0
M  V30 2433 H 229.613 -0.817092 1.25076 0
M  V30 2434 H 231.495 -3.9768 1.39387 0
M  V30 2435 H 230.17 -3.20059 0.484118 0
M  V30 2436 H 229.077 -2.57366 2.71502 0
M  V30 2437 H 230.41 -3.4004 3.55856 0
M  V30 2438 N 232.062 -1.29571 -0.897171 0
M  V30 2439 C 233.309 -1.17689 -1.6479 0
M  V30 2440 C 233.637 0.27107 -1.92602 0
M  V30 2441 O 232.892 1.21193 -1.53658 0
M  V30 2442 C 233.191 -1.9382 -3.00281 0
M  V30 2443 C 232.857 -3.43522 -2.92068 0
M  V30 2444 C 231.519 -3.84348 -2.89535 0
M  V30 2445 C 233.871 -4.38906 -2.81089 0
M  V30 2446 C 231.199 -5.18869 -2.73846 0
M  V30 2447 C 233.551 -5.73521 -2.66939 0
M  V30 2448 C 232.215 -6.13601 -2.62774 0
M  V30 2449 H 231.485 -0.430654 -0.603008 0
M  V30 2450 H 234.132 -1.60536 -1.04404 0
M  V30 2451 H 232.437 -1.4357 -3.64547 0
M  V30 2452 H 234.134 -1.82028 -3.57305 0
M  V30 2453 H 230.724 -3.11072 -2.94842 0
M  V30 2454 H 234.908 -4.08315 -2.82121 0
M  V30 2455 H 230.164 -5.4903 -2.69027 0
M  V30 2456 H 234.338 -6.47078 -2.57416 0
M  V30 2457 H 231.965 -7.17786 -2.50375 0
M  V30 2458 N 233.54 1.10788 -1.12088 0
M  V30 2459 C 234.817 1.79136 -0.785476 0
M  V30 2460 C 235.197 1.98246 0.725377 0
M  V30 2461 O 234.545 1.57258 1.65778 0
M  V30 2462 C 234.755 3.12375 -1.55636 0
M  V30 2463 C 236.103 3.8731 -1.74001 0
M  V30 2464 O 237.127 3.22085 -1.52117 0
M  V30 2465 O 235.986 5.04369 -2.10415 0
M  V30 2466 H 233.08 0.776226 -0.285311 0
M  V30 2467 H 235.626 1.1747 -1.2247 0
M  V30 2468 H 234.398 2.93863 -2.5838 0
M  V30 2469 H 234.021 3.81758 -1.11114 0
M  V30 2470 N 235.018 0.912232 1.28515 0
M  V30 2471 C 235.965 0.397954 2.27343 0
M  V30 2472 C 236.935 -0.526766 1.57526 0
M  V30 2473 O 238.12 -0.449292 1.85435 0
M  V30 2474 C 235.26 -0.357263 3.43246 0
M  V30 2475 C 234.373 0.599788 4.27816 0
M  V30 2476 C 233.508 -0.173725 5.30916 0
M  V30 2477 C 232.547 0.777039 6.07148 0
M  V30 2478 N 231.684 0.0371398 7.0209 0
M  V30 2479 H 236.524 1.24577 2.70711 0
M  V30 2480 H 234.061 0.625612 1.33133 0
M  V30 2481 H 236.019 -0.8113 4.09236 0
M  V30 2482 H 234.649 -1.16943 3.00872 0
M  V30 2483 H 233.701 1.17235 3.61884 0
M  V30 2484 H 235.013 1.32704 4.80823 0
M  V30 2485 H 234.167 -0.688394 6.02782 0
M  V30 2486 H 232.906 -0.934041 4.78672 0
M  V30 2487 H 231.911 1.3031 5.34134 0
M  V30 2488 H 233.136 1.53689 6.61481 0
M  V30 2489 H 231.082 -0.705213 6.52198 0
M  V30 2490 H 230.999 0.704249 7.52713 0
M  V30 2491 H 232.267 -0.457383 7.78157 0
M  V30 2492 N 236.496 -1.42363 0.676048 0
M  V30 2493 C 237.744 -2.01123 0.198437 0
M  V30 2494 C 238.065 -1.53731 -1.19966 0
M  V30 2495 O 237.335 -0.759518 -1.80577 0
M  V30 2496 H 235.915 -0.743678 0.0703721 0
M  V30 2497 H 238.577 -1.74263 0.872837 0
M  V30 2498 H 237.673 -3.11454 0.200686 0
M  V30 2499 N 237.974 -0.419461 -1.51915 0
M  V30 2500 C 238.906 0.43646 -2.25006 0
M  V30 2501 C 239.919 1.00149 -1.28351 0
M  V30 2502 O 241.108 0.898674 -1.54227 0
M  V30 2503 C 238.208 1.6206 -2.9764 0
M  V30 2504 C 237.381 1.17763 -4.21249 0
M  V30 2505 C 236.44 2.22985 -4.76617 0
M  V30 2506 O 235.466 1.83151 -5.38929 0
M  V30 2507 N 236.668 3.55271 -4.59089 0
M  V30 2508 H 239.433 -0.18989 -2.99098 0
M  V30 2509 H 236.994 -0.247386 -1.59999 0
M  V30 2510 H 238.986 2.32038 -3.31573 0
M  V30 2511 H 237.556 2.15266 -2.2667 0
M  V30 2512 H 236.776 0.305582 -3.93014 0
M  V30 2513 H 238.064 0.858781 -5.015 0
M  V30 2514 H 237.462 3.90377 -4.09417 0
M  V30 2515 H 236.019 4.21195 -4.97432 0
M  V30 2516 N 239.452 1.56882 -0.150215 0
M  V30 2517 C 240.868 1.58263 0.20617 0
M  V30 2518 C 241.068 1.16464 1.64434 0
M  V30 2519 O 240.124 0.866422 2.3717 0
M  V30 2520 C 241.437 3.00649 -0.0555025 0
M  V30 2521 C 242.985 3.12999 0.00795388 0
M  V30 2522 C 243.46 4.5744 -0.226429 0
M  V30 2523 N 244.951 4.62875 -0.173469 0
M  V30 2524 C 245.686 5.72454 -0.329288 0
M  V30 2525 N 245.182 6.90669 -0.543005 0
M  V30 2526 N 246.975 5.61467 -0.266666 0
M  V30 2527 H 239.126 1.82345 -1.08922 0
M  V30 2528 H 241.389 0.844149 -0.431413 0
M  V30 2529 H 241.095 3.3563 -1.05096 0
M  V30 2530 H 240.969 3.71337 0.66246 0
M  V30 2531 H 243.356 2.77857 0.993966 0
M  V30 2532 H 243.437 2.4479 -0.742388 0
M  V30 2533 H 243.081 4.93287 -1.20956 0
M  V30 2534 H 243.011 5.2378 0.544274 0
M  V30 2535 H 245.502 3.77898 -0.0130709 0
M  V30 2536 H 245.815 7.70045 -0.651922 0
M  V30 2537 H 244.16 6.92581 -0.579366 0
M  V30 2538 H 247.351 4.67992 -0.100441 0
M  V30 2539 H 247.524 6.46816 -0.391535 0
M  V30 2540 N 240.93 -0.123565 1.57115 0
M  V30 2541 C 242.158 -0.846461 1.88793 0
M  V30 2542 C 242.573 -1.73652 0.740976 0
M  V30 2543 O 241.93 -1.80207 -0.288393 0
M  V30 2544 C 241.981 -1.6837 3.19897 0
M  V30 2545 O 241.702 -0.829477 4.30176 0
M  V30 2546 C 243.203 -2.51214 3.65248 0
M  V30 2547 H 240.423 -0.243573 0.625231 0
M  V30 2548 H 242.967 -0.109324 2.04208 0
M  V30 2549 H 241.122 -2.37364 3.06165 0
M  V30 2550 H 241.536 -1.40651 5.0529 0
M  V30 2551 H 243.01 -3.05497 4.59756 0
M  V30 2552 H 243.487 -3.28359 2.9168 0
M  V30 2553 H 244.093 -1.8747 3.81752 0
M  V30 2554 N 242.408 -1.52605 -0.393616 0
M  V30 2555 C 243.685 -1.58001 -1.15304 0
M  V30 2556 C 244.065 -0.370385 -2.07825 0
M  V30 2557 O 243.413 0.641638 -2.19306 0
M  V30 2558 C 243.623 -2.91652 -1.91677 0
M  V30 2559 C 244.971 -3.4522 -2.47201 0
M  V30 2560 O 245.995 -2.93495 -2.01839 0
M  V30 2561 O 244.854 -4.35579 -3.3005 0
M  V30 2562 H 241.948 -0.637068 -0.527327 0
M  V30 2563 H 244.494 -1.64939 -0.399141 0
M  V30 2564 H 243.266 -3.71136 -1.23992 0
M  V30 2565 H 242.889 -2.88077 -2.74039 0
M  V30 2566 N 243.887 0.651787 -1.4349 0
M  V30 2567 C 244.834 1.76462 -1.4876 0
M  V30 2568 C 245.804 1.62641 -0.337189 0
M  V30 2569 O 246.989 1.82864 -0.544544 0
M  V30 2570 C 244.129 3.14623 -1.41796 0
M  V30 2571 C 243.242 3.39568 -2.67053 0
M  V30 2572 C 242.377 4.67585 -2.52068 0
M  V30 2573 C 241.416 4.85639 -3.72587 0
M  V30 2574 N 240.553 6.04915 -3.56402 0
M  V30 2575 H 245.393 1.71293 -2.43849 0
M  V30 2576 H 242.93 0.835889 -1.21043 0
M  V30 2577 H 244.888 3.94496 -1.35753 0
M  V30 2578 H 243.518 3.18859 -0.50288 0
M  V30 2579 H 242.57 2.53783 -2.8337 0
M  V30 2580 H 243.882 3.48795 -3.56572 0
M  V30 2581 H 243.036 5.55586 -2.4374 0
M  V30 2582 H 241.775 4.60681 -1.60075 0
M  V30 2583 H 240.78 3.96073 -3.81321 0
M  V30 2584 H 242.005 4.94372 -4.65589 0
M  V30 2585 H 239.951 5.9914 -2.67146 0
M  V30 2586 H 239.868 6.15106 -4.39524 0
M  V30 2587 H 241.136 6.95533 -3.51929 0
M  V30 2588 N 245.365 1.30045 0.890287 0
M  V30 2589 C 246.595 1.21296 1.67245 0
M  V30 2590 C 247.003 -0.227471 1.87828 0
M  V30 2591 O 246.346 -1.16296 1.422 0
M  V30 2592 C 246.408 1.86519 3.07329 0
M  V30 2593 C 246.072 3.35837 3.09939 0
M  V30 2594 C 247.069 4.31915 2.89389 0
M  V30 2595 C 244.754 3.77196 3.31706 0
M  V30 2596 C 246.748 5.67325 2.90552 0
M  V30 2597 C 244.435 5.12725 3.32499 0
M  V30 2598 C 245.433 6.076 3.11947 0
M  V30 2599 O 245.121 7.40655 3.12547 0
M  V30 2600 H 244.853 0.4211 0.528821 0
M  V30 2601 H 247.407 1.72111 1.12103 0
M  V30 2602 H 245.637 1.30228 3.64112 0
M  V30 2603 H 247.326 1.71963 3.67673 0
M  V30 2604 H 248.092 4.01294 2.72375 0
M  V30 2605 H 243.971 3.03796 3.4674 0
M  V30 2606 H 247.515 6.41354 2.74429 0
M  V30 2607 H 243.412 5.42988 3.49047 0
M  V30 2608 H 244.18 7.49577 3.28749 0
M  V30 2609 N 246.843 -1.10192 1.12674 0
M  V30 2610 C 248.091 -1.81845 0.881861 0
M  V30 2611 C 248.412 -1.85737 -0.593867 0
M  V30 2612 O 247.682 -1.33724 -1.4316 0
M  V30 2613 H 246.262 -0.673432 0.323261 0
M  V30 2614 H 248.924 -1.33316 1.42172 0
M  V30 2615 H 248.02 -2.85288 1.2656 0
M  V30 2616 N 248.321 -0.919034 -1.28029 0
M  V30 2617 C 249.737 -0.617972 -1.4715 0
M  V30 2618 C 249.937 0.835242 -1.83374 0
M  V30 2619 O 248.993 1.61388 -1.94191 0
M  V30 2620 C 250.306 -1.56041 -2.57044 0
M  V30 2621 C 251.854 -1.56769 -2.7091 0
M  V30 2622 C 252.329 -2.49688 -3.83953 0
M  V30 2623 N 253.82 -2.47845 -3.91314 0
M  V30 2624 C 254.555 -3.16437 -4.78179 0
M  V30 2625 N 254.051 -3.94376 -5.69596 0
M  V30 2626 N 255.844 -3.05498 -4.71834 0
M  V30 2627 H 247.995 -1.85866 -1.02798 0
M  V30 2628 H 250.258 -0.797506 -0.512531 0
M  V30 2629 H 249.964 -2.59671 -2.372 0
M  V30 2630 H 249.838 -1.29551 -3.54255 0
M  V30 2631 H 252.225 -0.538745 -2.90141 0
M  V30 2632 H 252.306 -1.87305 -1.74214 0
M  V30 2633 H 251.95 -3.52688 -3.65477 0
M  V30 2634 H 251.88 -2.16453 -4.80058 0
M  V30 2635 H 254.371 -1.91234 -3.25941 0
M  V30 2636 H 254.684 -4.43721 -6.32718 0
M  V30 2637 H 253.029 -3.98481 -5.69419 0
M  V30 2638 H 256.22 -2.44108 -3.99411 0
M  V30 2639 H 256.393 -3.59225 -5.39316 0
M  V30 2640 N 249.799 1.42003 -0.683588 0
M  V30 2641 C 251.047 2.01015 -0.209101 0
M  V30 2642 C 251.368 1.54365 1.19149 0
M  V30 2643 O 250.638 0.769083 1.80172 0
M  V30 2644 H 249.218 0.743294 -0.074315 0
M  V30 2645 H 251.88 1.73798 -0.882066 0
M  V30 2646 H 250.976 3.11343 -0.2172 0
M  V30 2647 N 251.277 0.427512 1.51691 0
M  V30 2648 C 252.207 -0.3796 2.30394 0
M  V30 2649 C 253.188 -1.02982 1.35384 0
M  V30 2650 O 254.373 -1.03534 1.643 0
M  V30 2651 C 251.503 -1.48649 3.1388 0
M  V30 2652 C 250.457 -0.960294 4.17088 0
M  V30 2653 C 249.783 -2.16219 4.89033 0
M  V30 2654 C 251.083 -0.00153679 5.223 0
M  V30 2655 H 252.777 0.277164 2.98114 0
M  V30 2656 H 250.323 0.134739 1.43368 0
M  V30 2657 H 252.276 -2.05826 3.67714 0
M  V30 2658 H 251 -2.1714 2.43962 0
M  V30 2659 H 249.659 -0.410806 3.64291 0
M  V30 2660 H 249.307 -2.83307 4.15628 0
M  V30 2661 H 249.007 -1.81654 5.58816 0
M  V30 2662 H 250.531 -2.73968 5.45687 0
M  V30 2663 H 251.945 -0.482687 5.71264 0
M  V30 2664 H 250.342 0.256199 5.99553 0
M  V30 2665 H 251.412 0.938174 4.75738 0
M  V30 2666 N 252.755 -1.56801 0.158532 0
M  V30 2667 C 253.718 -2.16138 -0.762705 0
M  V30 2668 C 254.718 -1.1061 -1.16713 0
M  V30 2669 O 255.908 -1.36191 -1.08617 0
M  V30 2670 C 253.04 -2.73386 -2.03649 0
M  V30 2671 H 254.233 -2.98886 -0.246354 0
M  V30 2672 H 251.786 -1.56035 -0.0909744 0
M  V30 2673 H 252.521 -1.94335 -2.59623 0
M  V30 2674 H 252.306 -3.50601 -1.75559 0
M  V30 2675 H 253.796 -3.19065 -2.6942 0
M  V30 2676 N 254.233 0.115231 -1.57178 0
M  V30 2677 C 255.463 0.835224 -1.88964 0
M  V30 2678 C 255.871 1.73774 -0.74829 0
M  V30 2679 O 255.214 1.81401 0.289739 0
M  V30 2680 C 255.276 1.7178 -3.15804 0
M  V30 2681 C 254.94 0.989198 -4.46166 0
M  V30 2682 C 255.937 0.328263 -5.18863 0
M  V30 2683 C 253.622 0.969256 -4.9286 0
M  V30 2684 C 255.616 -0.342873 -6.36477 0
M  V30 2685 C 253.303 0.294324 -6.10391 0
M  V30 2686 C 254.301 -0.360582 -6.82048 0
M  V30 2687 O 253.989 -1.02474 -7.97342 0
M  V30 2688 H 253.721 0.245197 -0.629964 0
M  V30 2689 H 256.275 0.10303 -2.05141 0
M  V30 2690 H 254.505 2.49173 -2.95719 0
M  V30 2691 H 256.194 2.31255 -3.33581 0
M  V30 2692 H 256.96 0.335263 -4.8384 0
M  V30 2693 H 252.839 1.46844 -4.36987 0
M  V30 2694 H 256.383 -0.854629 -6.92345 0
M  V30 2695 H 252.28 0.285099 -6.4487 0
M  V30 2696 H 253.048 -0.929594 -8.13204 0
M  V30 2697 N 255.711 1.52812 0.385517 0
M  V30 2698 C 256.96 1.67249 1.12741 0
M  V30 2699 C 257.273 0.4205 1.91027 0
M  V30 2700 O 258.479 0.445064 2.67827 0
M  V30 2701 C 256.935 2.95583 2.05326 0
M  V30 2702 C 256.543 4.27974 1.32447 0
M  V30 2703 C 258.287 3.19386 2.7963 0
M  V30 2704 C 256.194 5.47412 2.23818 0
M  V30 2705 H 255.124 0.6231 0.424573 0
M  V30 2706 H 257.775 1.79309 0.389924 0
M  V30 2707 H 256.157 2.77277 2.82725 0
M  V30 2708 H 257.331 4.56844 0.602495 0
M  V30 2709 H 255.646 4.10459 0.700885 0
M  V30 2710 H 258.243 4.05801 3.48181 0
M  V30 2711 H 258.586 2.34604 3.43899 0
M  V30 2712 H 259.119 3.38274 2.09322 0
M  V30 2713 H 255.858 6.34612 1.64157 0
M  V30 2714 H 255.378 5.22849 2.93921 0
M  V30 2715 H 257.057 5.81423 2.83824 0
M  V30 2716 N 257.189 -0.644168 1.43834 0
M  V30 2717 C 258.419 -1.42939 1.49171 0
M  V30 2718 C 258.827 -1.88874 0.111048 0
M  V30 2719 O 258.17 -1.60656 -0.8908 0
M  V30 2720 C 258.232 -2.69151 2.38324 0
M  V30 2721 C 257.896 -2.45097 3.85715 0
M  V30 2722 C 258.893 -2.07747 4.76589 0
M  V30 2723 C 256.578 -2.59141 4.30292 0
M  V30 2724 C 258.572 -1.8475 6.10038 0
M  V30 2725 C 256.259 -2.35759 5.63792 0
M  V30 2726 C 257.257 -1.9862 6.53482 0
M  V30 2727 O 256.945 -1.75489 7.84512 0
M  V30 2728 H 256.677 -0.445271 0.508635 0
M  V30 2729 H 259.231 -0.79621 1.8934 0
M  V30 2730 H 257.461 -3.3506 1.93058 0
M  V30 2731 H 259.15 -3.31123 2.3476 0
M  V30 2732 H 259.916 -1.96465 4.43426 0
M  V30 2733 H 255.795 -2.87022 3.60749 0
M  V30 2734 H 259.339 -1.55686 6.80006 0
M  V30 2735 H 255.236 -2.46646 5.9652 0
M  V30 2736 H 256.004 -1.89841 7.9618 0
M  V30 2737 N 258.668 -1.30515 -0.883378 0
M  V30 2738 C 259.631 -1.1701 -1.97082 0
M  V30 2739 C 260.631 -0.10089 -1.60483 0
M  V30 2740 O 261.821 -0.349127 -1.70666 0
M  V30 2741 C 258.953 -0.793045 -3.31547 0
M  V30 2742 H 260.146 -2.13622 -2.10489 0
M  V30 2743 H 257.699 -1.13935 -1.06998 0
M  V30 2744 H 258.434 0.172499 -3.23841 0
M  V30 2745 H 258.219 -1.56576 -3.5948 0
M  V30 2746 H 259.709 -0.722073 -4.1131 0
M  V30 2747 N 260.146 1.09593 -1.13257 0
M  V30 2748 C 261.423 1.78293 -0.804432 0
M  V30 2749 C 261.803 1.99004 0.70431 0
M  V30 2750 O 261.151 1.59007 1.641 0
M  V30 2751 C 261.361 3.10707 -1.5894 0
M  V30 2752 C 262.709 3.85443 -1.78099 0
M  V30 2753 O 263.733 3.20454 -1.55525 0
M  V30 2754 O 262.592 5.02108 -2.15753 0
M  V30 2755 H 259.686 0.773156 -0.293528 0
M  V30 2756 H 262.232 1.16164 -1.23709 0
M  V30 2757 H 261.004 2.91106 -2.61482 0
M  V30 2758 H 260.627 3.80558 -1.15157 0
M  V30 2759 N 261.624 0.925811 1.2754 0
M  V30 2760 C 262.872 0.564138 1.94067 0
M  V30 2761 C 263.193 -0.897188 1.73134 0
M  V30 2762 O 262.463 -1.63573 1.07799 0
M  V30 2763 H 261.043 0.205645 0.718136 0
M  V30 2764 H 263.705 1.1778 1.55287 0
M  V30 2765 H 262.801 0.76881 3.02483 0
M  V30 2766 N 263.102 -1.41638 0.69111 0
M  V30 2767 C 264.049 -2.30789 0.0229705 0
M  V30 2768 C 265.019 -1.46863 -0.775911 0
M  V30 2769 O 266.204 -1.75661 -0.74485 0
M  V30 2770 C 263.344 -3.32868 -0.910666 0
M  V30 2771 C 262.457 -4.31875 -0.103874 0
M  V30 2772 C 261.592 -5.21024 -1.03475 0
M  V30 2773 C 260.631 -6.11702 -0.220598 0
M  V30 2774 N 259.768 -6.93349 -1.10504 0
M  V30 2775 H 264.608 -2.87366 0.788978 0
M  V30 2776 H 262.145 -1.41535 0.400794 0
M  V30 2777 H 264.103 -3.90596 -1.46597 0
M  V30 2778 H 262.733 -2.77851 -1.64312 0
M  V30 2779 H 261.785 -3.76131 0.568285 0
M  V30 2780 H 263.097 -4.96003 0.527504 0
M  V30 2781 H 262.251 -5.83565 -1.65943 0
M  V30 2782 H 260.99 -4.57112 -1.69999 0
M  V30 2783 H 259.995 -5.48215 0.417187 0
M  V30 2784 H 261.22 -6.77668 0.440784 0
M  V30 2785 H 259.166 -6.3205 -1.75638 0
M  V30 2786 H 259.083 -7.54146 -0.529125 0
M  V30 2787 H 260.351 -7.60362 -1.71667 0
M  V30 2788 N 264.58 -0.43555 -1.51462 0
M  V30 2789 C 265.513 0.421989 -2.24264 0
M  V30 2790 C 266.491 1.02619 -1.26127 0
M  V30 2791 O 267.675 1.069 -1.55257 0
M  V30 2792 C 264.802 1.588 -2.99166 0
M  V30 2793 C 263.848 1.10465 -4.11946 0
M  V30 2794 S 264.681 0.048146 -5.35478 0
M  V30 2795 C 265.837 1.21887 -6.13917 0
M  V30 2796 H 266.07 -0.196102 -2.96653 0
M  V30 2797 H 263.603 -0.220054 -1.52824 0
M  V30 2798 H 265.561 2.25647 -3.42919 0
M  V30 2799 H 264.222 2.1775 -2.26371 0
M  V30 2800 H 263.415 1.97654 -4.63626 0
M  V30 2801 H 263.017 0.51445 -3.70445 0
M  V30 2802 H 265.309 2.13756 -6.42895 0
M  V30 2803 H 266.252 0.742076 -7.04201 0
M  V30 2804 H 266.66 1.45663 -5.45383 0
M  V30 2805 N 266.058 1.56714 -0.166846 0
M  V30 2806 C 267.304 1.97039 0.479962 0
M  V30 2807 C 267.637 1.05264 1.63197 0
M  V30 2808 O 266.912 0.0988833 1.94248 0
M  V30 2809 C 267.195 3.46867 0.967212 0
M  V30 2810 C 267.048 4.49421 -0.18466 0
M  V30 2811 C 268.367 3.9968 1.84238 0
M  V30 2812 H 265.486 0.71641 0.172992 0
M  V30 2813 H 268.128 1.8832 -0.252079 0
M  V30 2814 H 266.278 3.54428 1.59101 0
M  V30 2815 H 267.95 4.53924 -0.821621 0
M  V30 2816 H 266.193 4.25573 -0.840837 0
M  V30 2817 H 266.864 5.51644 0.198317 0
M  V30 2818 H 269.34 3.94723 1.31655 0
M  V30 2819 H 268.216 5.04941 2.15234 0
M  V30 2820 H 268.477 3.43226 2.78654 0
M  V30 2821 N 267.536 -0.106894 1.57237 0
M  V30 2822 C 268.484 -1.14944 2.02215 0
M  V30 2823 C 269.478 -1.42167 0.92114 0
M  V30 2824 O 270.684 -1.41987 1.10634 0
M  V30 2825 H 267.059 -0.387841 0.64427 0
M  V30 2826 H 269.03 -0.743683 2.88984 0
M  V30 2827 C 267.779 -2.4647 2.4525 0
M  V30 2828 H 267.102 -2.26363 3.29545 0
M  V30 2829 H 268.542 -3.17948 2.80508 0
M  V30 2830 C 267.001 -3.09921 1.321 0
M  V30 2831 O 267.531 -3.9651 0.643622 0
M  V30 2832 N 265.737 -2.69986 1.07497 0
M  V30 2833 H 265.284 -1.99667 1.62761 0
M  V30 2834 H 265.242 -3.12769 0.319876 0
M  V30 2835 N 269.014 -1.53014 -0.377408 0
M  V30 2836 C 269.924 -1.81557 -1.48574 0
M  V30 2837 C 270.94 -0.703102 -1.59162 0
M  V30 2838 O 272.116 -0.99192 -1.75279 0
M  V30 2839 C 269.181 -1.9889 -2.83978 0
M  V30 2840 C 268.242 -3.22801 -2.83016 0
M  V30 2841 C 267.475 -3.39298 -4.11962 0
M  V30 2842 O 267.698 -2.60345 -5.0752 0
M  V30 2843 O 266.632 -4.32604 -4.18494 0
M  V30 2844 H 270.458 -2.75695 -1.27382 0
M  V30 2845 H 268.043 -1.38248 -0.566373 0
M  V30 2846 H 269.925 -2.11931 -3.6423 0
M  V30 2847 H 268.6 -1.07942 -3.05172 0
M  V30 2848 H 267.507 -3.15193 -2.01505 0
M  V30 2849 H 268.84 -4.13632 -2.66775 0
M  V30 2850 N 270.492 0.636531 -1.44174 0
M  V30 2851 C 271.455 1.73063 -1.50273 0
M  V30 2852 C 272.455 1.56113 -0.385397 0
M  V30 2853 O 273.645 1.61707 -0.64781 0
M  V30 2854 C 270.777 3.12096 -1.37145 0
M  V30 2855 H 271.97 1.69031 -2.47727 0
M  V30 2856 H 269.523 0.849706 -1.31186 0
M  V30 2857 H 270.258 3.21728 -0.407636 0
M  V30 2858 H 270.043 3.25805 -2.18159 0
M  V30 2859 H 271.533 3.91846 -1.44382 0
M  V30 2860 N 271.97 1.30982 0.876444 0
M  V30 2861 C 272.9 1.20668 1.99903 0
M  V30 2862 C 273.881 0.095354 1.69833 0
M  V30 2863 O 275.066 0.27885 1.92188 0
M  V30 2864 C 272.196 0.90655 3.3526 0
M  V30 2865 C 271.15 1.97675 3.79617 0
M  V30 2866 C 270.476 1.52943 5.1236 0
M  V30 2867 C 271.776 3.389 3.97422 0
M  V30 2868 H 273.47 2.14586 2.0879 0
M  V30 2869 H 271.016 1.03308 1.00317 0
M  V30 2870 H 272.969 0.821025 4.13324 0
M  V30 2871 H 271.693 -0.0682969 3.26529 0
M  V30 2872 H 270.352 2.05205 3.03787 0
M  V30 2873 H 270 0.54262 5.00065 0
M  V30 2874 H 269.7 2.24532 5.43009 0
M  V30 2875 H 271.224 1.45786 5.92941 0
M  V30 2876 H 272.638 3.34081 4.659 0
M  V30 2877 H 271.035 4.0865 4.3946 0
M  V30 2878 H 272.105 3.80163 3.01006 0
M  V30 2879 N 273.449 -1.08991 1.13837 0
M  V30 2880 C 274.695 -1.81526 0.90422 0
M  V30 2881 C 275.028 -1.85706 -0.568066 0
M  V30 2882 O 274.303 -1.32855 -1.42056 0
M  V30 2883 C 274.586 -3.27447 1.49835 0
M  V30 2884 C 274.439 -3.31512 3.04006 0
M  V30 2885 C 275.758 -4.24256 1.17025 0
M  V30 2886 H 272.877 -0.659029 0.329923 0
M  V30 2887 H 275.519 -1.27644 1.40737 0
M  V30 2888 H 273.669 -3.73462 1.07044 0
M  V30 2889 H 275.341 -2.93867 3.55584 0
M  V30 2890 H 273.584 -2.70963 3.38765 0
M  V30 2891 H 274.255 -4.34329 3.40679 0
M  V30 2892 H 276.731 -3.86549 1.54009 0
M  V30 2893 H 275.607 -5.24684 1.61237 0
M  V30 2894 H 275.868 -4.42019 0.0846274 0
M  V30 2895 N 274.927 -0.932562 -1.27047 0
M  V30 2896 C 276.343 -0.633544 -1.46487 0
M  V30 2897 C 276.543 0.815746 -1.84249 0
M  V30 2898 O 275.599 1.59319 -1.95892 0
M  V30 2899 C 276.912 -1.58758 -2.55375 0
M  V30 2900 C 278.46 -1.59634 -2.69232 0
M  V30 2901 C 278.935 -2.53747 -3.81283 0
M  V30 2902 N 280.426 -2.51982 -3.88664 0
M  V30 2903 C 281.161 -3.21491 -4.74796 0
M  V30 2904 N 280.657 -4.00395 -5.65381 0
M  V30 2905 N 282.45 -3.10485 -4.68568 0
M  V30 2906 H 274.601 -1.86946 -1.00821 0
M  V30 2907 H 276.864 -0.802897 -0.504044 0
M  V30 2908 H 276.57 -2.62172 -2.34432 0
M  V30 2909 H 276.444 -1.33301 -3.52861 0
M  V30 2910 H 278.831 -0.569488 -2.89553 0
M  V30 2911 H 278.912 -1.89142 -1.72218 0
M  V30 2912 H 278.556 -3.56545 -3.61715 0
M  V30 2913 H 278.486 -2.21532 -4.77735 0
M  V30 2914 H 280.977 -1.94681 -3.23895 0
M  V30 2915 H 281.29 -4.50406 -6.27976 0
M  V30 2916 H 279.635 -4.04498 -5.65161 0
M  V30 2917 H 282.826 -2.48331 -3.96799 0
M  V30 2918 H 282.999 -3.64925 -5.35475 0
M  V30 2919 N 276.405 1.4127 -0.698611 0
M  V30 2920 C 277.337 2.292 0.00399731 0
M  V30 2921 C 278.35 1.44944 0.741279 0
M  V30 2922 O 279.539 1.68416 0.591477 0
M  V30 2923 C 276.639 3.22875 1.02979 0
M  V30 2924 C 275.812 4.35904 0.36151 0
M  V30 2925 C 274.871 5.10134 1.29033 0
M  V30 2926 O 273.897 5.63809 0.781562 0
M  V30 2927 N 275.099 5.17885 2.6225 0
M  V30 2928 H 277.864 2.9014 -0.750921 0
M  V30 2929 H 275.425 1.52455 -0.544882 0
M  V30 2930 H 277.417 3.69404 1.65296 0
M  V30 2931 H 275.987 2.63221 1.68622 0
M  V30 2932 H 275.207 3.91719 -0.441584 0
M  V30 2933 H 276.495 5.08696 -0.103055 0
M  V30 2934 H 275.893 4.7573 3.061 0
M  V30 2935 H 274.45 5.6798 3.19754 0
M  V30 2936 N 277.883 0.443576 1.51229 0
M  V30 2937 C 279.131 -0.120557 2.0174 0
M  V30 2938 C 279.452 -1.42665 1.32935 0
M  V30 2939 O 278.722 -1.9028 0.465866 0
M  V30 2940 H 277.302 -0.0475426 0.745486 0
M  V30 2941 H 279.964 0.587711 1.85828 0
M  V30 2942 H 279.06 -0.291972 3.10731 0
M  V30 2943 N 279.361 -1.56624 0.175154 0
M  V30 2944 C 280.291 -2.21155 -0.749195 0
M  V30 2945 C 281.272 -1.16836 -1.23626 0
M  V30 2946 O 282.457 -1.45277 -1.28873 0
M  V30 2947 C 279.587 -2.8553 -1.97711 0
M  V30 2948 C 278.541 -3.95921 -1.62575 0
M  V30 2949 C 277.867 -4.47365 -2.92864 0
M  V30 2950 C 279.167 -5.15323 -0.850838 0
M  V30 2951 H 280.861 -2.98653 -0.211295 0
M  V30 2952 H 278.407 -1.43651 -0.100188 0
M  V30 2953 H 280.36 -3.2935 -2.62881 0
M  V30 2954 H 279.084 -2.05406 -2.53921 0
M  V30 2955 H 277.743 -3.52762 -0.997719 0
M  V30 2956 H 277.391 -3.64027 -3.47122 0
M  V30 2957 H 277.091 -5.21839 -2.70106 0
M  V30 2958 H 278.615 -4.93873 -3.59056 0
M  V30 2959 H 280.029 -5.55812 -1.40521 0
M  V30 2960 H 278.426 -5.95739 -0.722154 0
M  V30 2961 H 279.496 -4.84661 0.152082 0
M  V30 2962 N 280.839 0.0985539 -1.57292 0
M  V30 2963 C 281.802 1.10402 -2.00858 0
M  V30 2964 C 282.802 1.33146 -0.901593 0
M  V30 2965 O 283.992 1.29318 -1.16716 0
M  V30 2966 C 281.124 2.45394 -2.36632 0
M  V30 2967 H 282.317 0.729099 -2.90902 0
M  V30 2968 H 279.87 0.343495 -1.52479 0
M  V30 2969 H 280.605 2.87769 -1.49531 0
M  V30 2970 H 280.39 2.30235 -3.17387 0
M  V30 2971 H 281.88 3.17718 -2.71007 0
M  V30 2972 N 282.317 1.53212 0.369288 0
M  V30 2973 C 283.264 1.79388 1.45219 0
M  V30 2974 C 284.234 0.638059 1.53356 0
M  V30 2975 O 285.419 0.879852 1.69302 0
M  V30 2976 C 282.559 1.98623 2.82211 0
M  V30 2977 C 281.672 3.26337 2.8307 0
M  V30 2978 C 280.807 3.35779 4.11614 0
M  V30 2979 C 279.846 4.5754 4.06601 0
M  V30 2980 N 278.983 4.64155 5.26787 0
M  V30 2981 H 283.823 2.71794 1.22198 0
M  V30 2982 H 281.36 1.34642 0.592444 0
M  V30 2983 H 283.318 2.07761 3.61789 0
M  V30 2984 H 281.948 1.09558 3.03639 0
M  V30 2985 H 281 3.26171 1.95747 0
M  V30 2986 H 282.312 4.15988 2.75237 0
M  V30 2987 H 281.466 3.44208 4.99606 0
M  V30 2988 H 280.205 2.44137 4.22195 0
M  V30 2989 H 279.21 4.49215 3.16996 0
M  V30 2990 H 280.435 5.50519 3.97625 0
M  V30 2991 H 278.381 3.75413 5.3796 0
M  V30 2992 H 278.298 5.47706 5.21109 0
M  V30 2993 H 279.566 4.76863 6.16621 0
M  V30 2994 N 283.795 -0.628877 1.44509 0
M  V30 2995 C 285.041 -1.39045 1.47629 0
M  V30 2996 C 285.374 -1.93892 0.109343 0
M  V30 2997 O 284.649 -1.7379 -0.87334 0
M  V30 2998 C 284.932 -2.55408 2.53848 0
M  V30 2999 C 284.785 -2.05896 3.99909 0
M  V30 3000 C 286.104 -3.5759 2.56549 0
M  V30 3001 H 283.223 -0.504232 0.537512 0
M  V30 3002 H 285.865 -0.710854 1.76201 0
M  V30 3003 H 284.015 -3.13384 2.29615 0
M  V30 3004 H 285.687 -1.52734 4.35282 0
M  V30 3005 H 283.93 -1.37061 4.11578 0
M  V30 3006 H 284.601 -2.89681 4.69882 0
M  V30 3007 H 287.077 -3.09419 2.78207 0
M  V30 3008 H 285.953 -4.36527 3.32769 0
M  V30 3009 H 286.214 -4.11808 1.60832 0
M  V30 3010 N 285.273 -1.31445 -0.869486 0
M  V30 3011 C 286.236 -1.19094 -1.9583 0
M  V30 3012 C 287.236 -0.117906 -1.60367 0
M  V30 3013 O 288.426 -0.367208 -1.70286 0
M  V30 3014 C 285.558 -0.828165 -3.30688 0
M  V30 3015 H 286.751 -2.15842 -2.08212 0
M  V30 3016 H 284.304 -1.15063 -1.05784 0
M  V30 3017 H 285.039 0.138142 -3.24006 0
M  V30 3018 H 284.824 -1.6038 -3.578 0
M  V30 3019 H 286.314 -0.765658 -4.10521 0
M  V30 3020 N 286.751 1.08385 -1.14413 0
M  V30 3021 C 287.981 1.8425 -0.934644 0
M  V30 3022 C 288.389 1.81907 0.520234 0
M  V30 3023 O 287.732 1.22126 1.37226 0
M  V30 3024 C 287.794 3.32853 -1.35828 0
M  V30 3025 C 287.458 3.5893 -2.82875 0
M  V30 3026 C 288.455 3.53756 -3.80989 0
M  V30 3027 C 286.14 3.86934 -3.20293 0
M  V30 3028 C 288.134 3.76216 -5.14529 0
M  V30 3029 C 285.821 4.09047 -4.54008 0
M  V30 3030 C 286.819 4.03682 -5.50936 0
M  V30 3031 O 286.507 4.25214 -6.82238 0
M  V30 3032 H 286.239 0.588502 -0.332628 0
M  V30 3033 H 288.793 1.37792 -1.52324 0
M  V30 3034 H 287.023 3.8007 -0.713019 0
M  V30 3035 H 288.712 3.90154 -1.11957 0
M  V30 3036 H 289.478 3.32135 -3.53428 0
M  V30 3037 H 285.357 3.9023 -2.45442 0
M  V30 3038 H 288.901 3.71943 -5.90173 0
M  V30 3039 H 284.798 4.30151 -4.8129 0
M  V30 3040 H 285.566 4.42619 -6.88499 0
M  V30 3041 N 288.23 0.939286 1.26551 0
M  V30 3042 C 289.476 0.586715 1.94128 0
M  V30 3043 C 289.809 -0.8717 1.73537 0
M  V30 3044 O 289.084 -1.62339 1.07127 0
M  V30 3045 C 289.367 0.927497 3.4795 0
M  V30 3046 C 289.22 2.44052 3.77834 0
M  V30 3047 C 290.539 0.441569 4.37879 0
M  V30 3048 H 287.658 0.21463 0.705055 0
M  V30 3049 H 290.3 1.17316 1.49455 0
M  V30 3050 H 288.45 0.428431 3.8613 0
M  V30 3051 H 290.122 3.01216 3.4938 0
M  V30 3052 H 288.365 2.8848 3.23978 0
M  V30 3053 H 289.036 2.62947 4.85348 0
M  V30 3054 H 291.512 0.869448 4.06915 0
M  V30 3055 H 290.388 0.708856 5.44304 0
M  V30 3056 H 290.649 -0.658467 4.37169 0
M  V30 3057 N 289.708 -1.40897 0.706093 0
M  V30 3058 C 290.938 -2.05075 0.250523 0
M  V30 3059 C 291.346 -1.53275 -1.10921 0
M  V30 3060 O 290.689 -0.680281 -1.7064 0
M  V30 3061 C 290.751 -3.59219 0.142178 0
M  V30 3062 C 290.415 -4.33864 1.43566 0
M  V30 3063 C 291.412 -4.62448 2.37566 0
M  V30 3064 C 289.097 -4.72946 1.69195 0
M  V30 3065 C 291.091 -5.29088 3.5545 0
M  V30 3066 C 288.778 -5.3932 2.87362 0
M  V30 3067 C 289.776 -5.6732 3.80312 0
M  V30 3068 O 289.464 -6.32325 4.96408 0
M  V30 3069 H 289.196 -0.666645 0.112074 0
M  V30 3070 H 291.75 -1.81467 0.962239 0
M  V30 3071 H 289.98 -3.81609 -0.6254 0
M  V30 3072 H 291.669 -4.0495 -0.277584 0
M  V30 3073 H 292.435 -4.32727 2.19027 0
M  V30 3074 H 288.314 -4.50527 0.977042 0
M  V30 3075 H 291.858 -5.50859 4.28018 0
M  V30 3076 H 287.755 -5.68461 3.05814 0
M  V30 3077 H 288.523 -6.50821 4.9636 0
M  V30 3078 N 291.186 -0.45159 -1.50991 0
M  V30 3079 C 292.133 0.352625 -2.2809 0
M  V30 3080 C 293.103 1.0044 -1.32291 0
M  V30 3081 O 294.288 1.02058 -1.6121 0
M  V30 3082 C 291.428 1.43983 -3.13629 0
M  V30 3083 C 290.541 0.804772 -4.24438 0
M  V30 3084 C 289.676 1.86822 -4.97263 0
M  V30 3085 C 288.715 1.21236 -5.99973 0
M  V30 3086 N 287.852 2.2178 -6.66152 0
M  V30 3087 H 292.692 -0.311186 -2.96371 0
M  V30 3088 H 290.229 -0.165308 -1.46168 0
M  V30 3089 H 292.187 2.08161 -3.61559 0
M  V30 3090 H 290.817 2.07307 -2.47434 0
M  V30 3091 H 289.869 0.0509129 -3.80366 0
M  V30 3092 H 291.181 0.286076 -4.97979 0
M  V30 3093 H 290.335 2.58628 -5.48813 0
M  V30 3094 H 289.074 2.42068 -4.23385 0
M  V30 3095 H 288.079 0.479828 -5.47702 0
M  V30 3096 H 289.304 0.667051 -6.75816 0
M  V30 3097 H 287.25 2.76079 -5.95077 0
M  V30 3098 H 287.167 1.74841 -7.35504 0
M  V30 3099 H 288.435 2.93026 -7.22327 0
M  V30 3100 N 292.664 1.56529 -0.183458 0
M  V30 3101 C 294.075 1.83739 0.331177 0
M  V30 3102 C 294.426 1.10373 1.62211 0
M  V30 3103 O 293.551 0.36071 2.13373 0
M  V30 3104 C 294.146 3.33306 0.607646 0
M  V30 3105 C 292.705 3.60969 1.06668 0
M  V30 3106 C 291.852 2.77086 0.109029 0
M  V30 3107 H 294.803 1.53379 -0.407484 0
M  V30 3108 H 294.824 3.51444 1.45832 0
M  V30 3109 H 294.336 3.86677 -0.332086 0
M  V30 3110 H 292.437 3.13021 2.0211 0
M  V30 3111 H 292.55 4.69231 0.967447 0
M  V30 3112 H 290.914 2.47319 0.608714 0
M  V30 3113 H 291.697 3.33241 -0.82494 0
M  V30 3114 N 294.142 -0.090211 1.57342 0
M  V30 3115 C 295.09 -1.12792 2.03422 0
M  V30 3116 C 296.084 -1.41182 0.936166 0
M  V30 3117 O 297.29 -1.40805 1.12133 0
M  V30 3118 H 293.665 -0.380986 0.648347 0
M  V30 3119 H 295.636 -0.71299 2.89757 0
M  V30 3120 C 294.385 -2.43855 2.47851 0
M  V30 3121 H 293.708 -2.22855 3.31927 0
M  V30 3122 H 295.148 -3.14955 2.83865 0
M  V30 3123 C 293.607 -3.08503 1.3538 0
M  V30 3124 O 294.137 -3.95805 0.685641 0
M  V30 3125 N 292.343 -2.68831 1.10355 0
M  V30 3126 H 291.89 -1.97929 1.64869 0
M  V30 3127 H 291.848 -3.12412 0.353031 0
M  V30 3128 N 295.62 -1.53406 -0.361157 0
M  V30 3129 C 296.568 -1.80832 -1.46296 0
M  V30 3130 C 297.562 -0.677699 -1.55253 0
M  V30 3131 O 298.768 -0.860723 -1.58087 0
M  V30 3132 H 295.143 -0.572627 -0.487445 0
M  V30 3133 H 297.114 -2.73045 -1.20371 0
M  V30 3134 C 295.863 -2.01907 -2.8307 0
M  V30 3135 H 295.186 -2.88349 -2.76938 0
M  V30 3136 H 296.626 -2.25072 -3.59331 0
M  V30 3137 C 295.085 -0.799449 -3.27277 0
M  V30 3138 O 295.615 0.00971761 -4.01699 0
M  V30 3139 N 293.821 -0.621637 -2.83873 0
M  V30 3140 H 293.368 -1.28126 -2.23476 0
M  V30 3141 H 293.326 0.19298 -3.13807 0
M  V30 3142 N 297.098 0.621204 -1.44841 0
M  V30 3143 C 298.326 1.40752 -1.51646 0
M  V30 3144 C 298.741 1.88246 -0.144549 0
M  V30 3145 O 298.098 1.61422 0.851416 0
M  V30 3146 C 298.149 2.62119 -2.4895 0
M  V30 3147 O 297.87 2.16602 -3.80808 0
M  V30 3148 C 299.371 3.55135 -2.65319 0
M  V30 3149 H 296.591 0.431325 -0.514004 0
M  V30 3150 H 299.135 0.758835 -1.899 0
M  V30 3151 H 297.29 3.23058 -2.13805 0
M  V30 3152 H 297.704 2.95358 -4.33433 0
M  V30 3153 H 299.178 4.36874 -3.37409 0
M  V30 3154 H 299.655 4.04592 -1.70886 0
M  V30 3155 H 300.261 3.00058 -3.01405 0
M  V30 3156 N 298.576 1.31904 0.862503 0
M  V30 3157 C 299.526 1.16772 1.95827 0
M  V30 3158 C 300.51 0.0767098 1.60717 0
M  V30 3159 O 301.702 0.302407 1.74398 0
M  V30 3160 C 298.831 0.884858 3.317 0
M  V30 3161 C 297.917 2.0172 3.73055 0
M  V30 3162 N 298.308 3.265 3.86305 0
M  V30 3163 C 296.606 1.91861 4.02623 0
M  V30 3164 C 297.307 4.00616 4.2176 0
M  V30 3165 N 296.283 3.28847 4.32852 0
M  V30 3166 H 300.085 2.11382 2.04193 0
M  V30 3167 H 297.599 1.2357 1.05377 0
M  V30 3168 H 299.596 0.757419 4.09962 0
M  V30 3169 H 298.256 -0.0529448 3.24657 0
M  V30 3170 H 299.267 3.61529 3.70833 0
M  V30 3171 H 295.944 1.05593 4.03926 0
M  V30 3172 H 297.334 5.08182 4.39546 0
M  V30 3173 N 300.054 -1.07777 1.14986 0
M  V30 3174 C 300.964 -2.18404 0.856546 0
M  V30 3175 C 301.98 -1.73211 -0.165485 0
M  V30 3176 O 303.156 -2.01399 0.00755219 0
M  V30 3177 C 300.221 -3.44977 0.34526 0
M  V30 3178 C 299.282 -4.0476 1.43065 0
M  V30 3179 C 298.515 -5.25291 0.943663 0
M  V30 3180 O 298.738 -5.70004 -0.212426 0
M  V30 3181 O 297.672 -5.76638 1.72547 0
M  V30 3182 H 301.498 -2.45978 1.78125 0
M  V30 3183 H 299.083 -1.17033 0.928631 0
M  V30 3184 H 300.965 -4.21348 0.0663671 0
M  V30 3185 H 299.64 -3.18965 -0.551631 0
M  V30 3186 H 298.547 -3.29949 1.76309 0
M  V30 3187 H 299.88 -4.35035 2.30229 0
M  V30 3188 N 301.532 -0.945985 -1.26051 0
M  V30 3189 C 302.464 -0.416662 -2.25381 0
M  V30 3190 C 303.477 0.462712 -1.56086 0
M  V30 3191 O 304.666 0.272383 -1.7641 0
M  V30 3192 C 301.766 0.419812 -3.3629 0
M  V30 3193 C 300.939 -0.444531 -4.35135 0
M  V30 3194 C 299.998 0.332305 -5.2515 0
M  V30 3195 O 299.024 -0.266324 -5.68577 0
M  V30 3196 N 300.226 1.62763 -5.57215 0
M  V30 3197 H 302.991 -1.27059 -2.71433 0
M  V30 3198 H 300.552 -0.815392 -1.39868 0
M  V30 3199 H 302.544 0.947013 -3.93464 0
M  V30 3200 H 301.114 1.17456 -2.89694 0
M  V30 3201 H 300.334 -1.15291 -3.76964 0
M  V30 3202 H 301.622 -1.03478 -4.98166 0
M  V30 3203 H 301.02 2.13603 -5.23823 0
M  V30 3204 H 299.577 2.10097 -6.17011 0
M  V30 3205 N 303.011 1.40521 -0.713556 0
M  V30 3206 C 303.961 2.27971 -0.036165 0
M  V30 3207 C 304.945 1.43151 0.734623 0
M  V30 3208 O 306.137 1.66261 0.607158 0
M  V30 3209 C 303.266 3.31661 0.886331 0
M  V30 3210 C 302.352 4.23955 0.110836 0
M  V30 3211 N 302.743 4.97641 -0.904847 0
M  V30 3212 C 301.041 4.44674 0.343692 0
M  V30 3213 C 301.742 5.65322 -1.37064 0
M  V30 3214 N 300.718 5.39162 -0.693168 0
M  V30 3215 H 304.52 2.82384 -0.814645 0
M  V30 3216 H 302.034 1.52948 -0.545963 0
M  V30 3217 H 304.031 3.93154 1.38692 0
M  V30 3218 H 302.691 2.78808 1.66421 0
M  V30 3219 H 303.702 5.01689 -1.28563 0
M  V30 3220 H 300.379 4.02801 1.09805 0
M  V30 3221 H 301.769 6.34359 -2.21447 0
M  V30 3222 N 304.489 0.459591 1.5075 0
M  V30 3223 C 305.419 -0.330644 2.31147 0
M  V30 3224 C 306.4 -1.00087 1.37538 0
M  V30 3225 O 307.585 -1.00025 1.66459 0
M  V30 3226 C 304.715 -1.41958 3.16962 0
M  V30 3227 C 303.669 -0.871608 4.19031 0
M  V30 3228 C 302.995 -2.05797 4.9351 0
M  V30 3229 C 304.295 0.109251 5.22186 0
M  V30 3230 H 305.989 0.340336 2.97459 0
M  V30 3231 H 303.535 0.165119 1.4305 0
M  V30 3232 H 305.488 -1.9798 3.71997 0
M  V30 3233 H 304.212 -2.11917 2.48513 0
M  V30 3234 H 302.871 -0.333442 3.6508 0
M  V30 3235 H 302.519 -2.74427 4.21544 0
M  V30 3236 H 302.219 -1.6976 5.62544 0
M  V30 3237 H 303.743 -2.62331 5.51375 0
M  V30 3238 H 305.157 -0.361405 5.7216 0
M  V30 3239 H 303.554 0.383316 5.98875 0
M  V30 3240 H 304.624 1.03887 4.73641 0
M  V30 3241 N 305.967 -1.56429 0.191757 0
M  V30 3242 C 307.383 -1.58754 -0.164137 0
M  V30 3243 C 307.583 -1.20782 -1.61288 0
M  V30 3244 O 306.639 -0.928999 -2.34789 0
M  V30 3245 C 307.952 -3.00396 0.135195 0
M  V30 3246 C 309.5 -3.1291 0.0750351 0
M  V30 3247 C 309.975 -4.56679 0.347632 0
M  V30 3248 N 311.466 -4.62252 0.296131 0
M  V30 3249 C 312.201 -5.71379 0.480948 0
M  V30 3250 N 311.697 -6.88986 0.725933 0
M  V30 3251 N 313.49 -5.60563 0.415435 0
M  V30 3252 H 305.641 -1.79393 1.13718 0
M  V30 3253 H 307.904 -0.832414 0.453643 0
M  V30 3254 H 307.61 -3.32726 1.13958 0
M  V30 3255 H 307.484 -3.72963 -0.563773 0
M  V30 3256 H 309.871 -2.80394 -0.919948 0
M  V30 3257 H 309.952 -2.42736 0.807029 0
M  V30 3258 H 309.596 -4.89907 1.33992 0
M  V30 3259 H 309.526 -5.25039 -0.405212 0
M  V30 3260 H 312.017 -3.7773 0.113259 0
M  V30 3261 H 312.33 -7.68046 0.855857 0
M  V30 3262 H 310.675 -6.90801 0.762788 0
M  V30 3263 H 313.866 -4.67561 0.224486 0
M  V30 3264 H 314.039 -6.45551 0.562889 0
M  V30 3265 N 307.445 0.0818655 -1.57387 0
M  V30 3266 C 308.392 1.09834 -2.0299 0
M  V30 3267 C 309.362 1.39043 -0.908639 0
M  V30 3268 O 310.547 1.50282 -1.17559 0
M  V30 3269 C 307.687 2.40971 -2.47037 0
M  V30 3270 C 306.8 2.18379 -3.7274 0
M  V30 3271 C 305.935 3.43008 -4.0561 0
M  V30 3272 C 304.974 3.15736 -5.24383 0
M  V30 3273 N 304.111 4.32667 -5.52941 0
M  V30 3274 H 308.951 0.702472 -2.89602 0
M  V30 3275 H 306.488 0.33531 -1.43227 0
M  V30 3276 H 308.446 3.1752 -2.70623 0
M  V30 3277 H 307.076 2.78379 -1.63417 0
M  V30 3278 H 306.128 1.32569 -3.56552 0
M  V30 3279 H 307.44 1.94227 -4.59431 0
M  V30 3280 H 306.594 4.27958 -4.30043 0
M  V30 3281 H 305.333 3.70225 -3.17466 0
M  V30 3282 H 304.338 2.2918 -4.99757 0
M  V30 3283 H 305.563 2.8985 -6.14136 0
M  V30 3284 H 303.509 4.59935 -4.67756 0
M  V30 3285 H 303.426 4.11753 -6.34031 0
M  V30 3286 H 304.694 5.18644 -5.81918 0
M  V30 3287 N 308.923 1.53595 0.353017 0
M  V30 3288 C 310.148 1.7462 1.11904 0
M  V30 3289 C 310.573 0.479721 1.8188 0
M  V30 3290 O 309.931 -0.567066 1.72204 0
M  V30 3291 C 309.979 2.92029 2.11545 0
M  V30 3292 O 309.083 2.61516 3.18878 0
M  V30 3293 H 308.424 0.579531 0.324099 0
M  V30 3294 H 310.954 2.00525 0.406301 0
M  V30 3295 H 310.964 3.18551 2.5493 0
M  V30 3296 H 309.639 3.83888 1.60008 0
M  V30 3297 H 308.216 2.45852 2.80377 0
M  V30 3298 N 310.401 -0.613514 1.45168 0
M  V30 3299 C 311.311 -1.75296 1.55912 0
M  V30 3300 C 312.327 -1.68244 0.443856 0
M  V30 3301 O 313.503 -1.88706 0.70371 0
M  V30 3302 C 310.568 -3.1174 1.5172 0
M  V30 3303 C 309.629 -3.30291 2.74238 0
M  V30 3304 C 308.862 -4.60226 2.70236 0
M  V30 3305 O 309.085 -5.42168 1.77229 0
M  V30 3306 O 308.019 -4.81361 3.61352 0
M  V30 3307 H 311.845 -1.69183 2.52212 0
M  V30 3308 H 309.43 -0.776886 1.27612 0
M  V30 3309 H 311.312 -3.93044 1.51968 0
M  V30 3310 H 309.987 -3.18357 0.585697 0
M  V30 3311 H 308.894 -2.48598 2.79553 0
M  V30 3312 H 310.227 -3.28547 3.66494 0
M  V30 3313 N 311.879 -1.3236 -0.855495 0
M  V30 3314 C 312.842 -1.21164 -1.94556 0
M  V30 3315 C 313.842 -0.134908 -1.60233 0
M  V30 3316 O 315.032 -0.385249 -1.69887 0
M  V30 3317 C 312.164 -0.863192 -3.29791 0
M  V30 3318 H 313.357 -2.18038 -2.05911 0
M  V30 3319 H 310.91 -1.16179 -1.04557 0
M  V30 3320 H 311.645 0.103769 -3.24134 0
M  V30 3321 H 311.43 -1.64166 -3.56078 0
M  V30 3322 H 312.92 -0.809156 -4.09686 0
M  V30 3323 N 313.357 1.07166 -1.15556 0
M  V30 3324 C 314.289 2.14341 -0.811815 0
M  V30 3325 C 315.302 1.61835 0.177015 0
M  V30 3326 O 316.491 1.78439 -0.0464996 0
M  V30 3327 C 313.591 3.38387 -0.186481 0
M  V30 3328 C 312.764 4.20238 -1.21321 0
M  V30 3329 C 311.823 5.2266 -0.609302 0
M  V30 3330 O 310.849 5.54719 -1.27576 0
M  V30 3331 N 312.051 5.77306 0.608099 0
M  V30 3332 H 314.816 2.44431 -1.73417 0
M  V30 3333 H 312.377 1.23089 -1.0517 0
M  V30 3334 H 314.369 4.04044 0.230339 0
M  V30 3335 H 312.939 3.05994 0.639249 0
M  V30 3336 H 312.159 3.50369 -1.80652 0
M  V30 3337 H 313.447 4.71736 -1.90638 0
M  V30 3338 H 312.845 5.53513 1.1679 0
M  V30 3339 H 311.402 6.44583 0.96725 0
M  V30 3340 N 314.835 0.952656 1.25548 0
M  V30 3341 C 315.798 0.475794 2.24207 0
M  V30 3342 C 316.798 -0.419428 1.55234 0
M  V30 3343 O 317.988 -0.216994 1.72843 0
M  V30 3344 C 315.12 -0.312814 3.39462 0
M  V30 3345 H 316.313 1.34779 2.67908 0
M  V30 3346 H 313.866 0.735739 1.37901 0
M  V30 3347 H 314.601 -1.20257 3.01179 0
M  V30 3348 H 314.386 0.329404 3.90714 0
M  V30 3349 H 315.876 -0.635986 4.12729 0
M  V30 3350 N 316.313 -1.40141 0.720998 0
M  V30 3351 C 317.26 -2.30688 0.071919 0
M  V30 3352 C 318.23 -1.48476 -0.744584 0
M  V30 3353 O 319.415 -1.77201 -0.707423 0
M  V30 3354 C 316.555 -3.34724 -0.839855 0
M  V30 3355 C 315.668 -4.31998 -0.0122438 0
M  V30 3356 C 314.803 -5.23102 -0.923995 0
M  V30 3357 C 313.842 -6.12033 -0.0907969 0
M  V30 3358 N 312.979 -6.95537 -0.957718 0
M  V30 3359 H 317.819 -2.85628 0.849755 0
M  V30 3360 H 315.356 -1.40653 0.430726 0
M  V30 3361 H 317.314 -3.93618 -1.38279 0
M  V30 3362 H 315.944 -2.81274 -1.58381 0
M  V30 3363 H 314.996 -3.74841 0.64794 0
M  V30 3364 H 316.308 -4.94772 0.632595 0
M  V30 3365 H 315.462 -5.86953 -1.53527 0
M  V30 3366 H 314.201 -4.60615 -1.60264 0
M  V30 3367 H 313.206 -5.47207 0.533377 0
M  V30 3368 H 314.431 -6.76581 0.584428 0
M  V30 3369 H 312.377 -6.35633 -1.62192 0
M  V30 3370 H 312.294 -7.55099 -0.36904 0
M  V30 3371 H 313.562 -7.63832 -1.555 0
M  V30 3372 N 317.792 -0.46758 -1.50504 0
M  V30 3373 C 318.739 0.328413 -2.28452 0
M  V30 3374 C 319.709 0.990313 -1.33349 0
M  V30 3375 O 320.894 1.00343 -1.62284 0
M  V30 3376 C 318.034 1.40648 -3.15138 0
M  V30 3377 C 317.147 0.759709 -4.25267 0
M  V30 3378 C 316.282 1.81537 -4.99217 0
M  V30 3379 C 315.321 1.14866 -6.01226 0
M  V30 3380 N 314.458 2.14702 -6.68467 0
M  V30 3381 H 319.298 -0.342603 -2.96024 0
M  V30 3382 H 316.835 -0.180801 -1.45985 0
M  V30 3383 H 318.793 2.04315 -3.63746 0
M  V30 3384 H 317.423 2.04671 -2.49619 0
M  V30 3385 H 316.475 0.0105671 -3.80399 0
M  V30 3386 H 317.787 0.233243 -4.98254 0
M  V30 3387 H 316.941 2.52793 -5.51526 0
M  V30 3388 H 315.68 2.37564 -4.25928 0
M  V30 3389 H 314.685 0.42171 -5.4818 0
M  V30 3390 H 315.91 0.595334 -6.76485 0
M  V30 3391 H 313.856 2.69752 -5.97972 0
M  V30 3392 H 313.773 1.6703 -7.37317 0
M  V30 3393 H 315.041 2.85348 -7.25394 0
M  V30 3394 N 319.27 1.56325 -0.20005 0
M  V30 3395 C 320.18 2.22931 0.730668 0
M  V30 3396 C 321.196 1.22997 1.23076 0
M  V30 3397 O 322.372 1.55748 1.27689 0
M  V30 3398 C 319.437 2.87948 1.93098 0
M  V30 3399 C 318.498 4.03166 1.47497 0
M  V30 3400 C 317.731 4.65073 2.61807 0
M  V30 3401 O 317.954 4.25913 3.79413 0
M  V30 3402 O 316.888 5.54452 2.34237 0
M  V30 3403 H 320.714 3.03084 0.193391 0
M  V30 3404 H 318.299 1.49371 0.0294621 0
M  V30 3405 H 320.181 3.29063 2.6324 0
M  V30 3406 H 318.856 2.10771 2.45677 0
M  V30 3407 H 317.763 3.66664 0.742201 0
M  V30 3408 H 319.096 4.82022 0.995796 0
M  V30 3409 N 320.748 -0.0735177 1.57428 0
M  V30 3410 C 321.695 -1.08756 2.0357 0
M  V30 3411 C 322.665 -1.38559 0.916 0
M  V30 3412 O 323.85 -1.49656 1.18354 0
M  V30 3413 C 320.99 -2.39657 2.48311 0
M  V30 3414 C 320.103 -2.16399 3.73892 0
M  V30 3415 C 319.238 -3.40852 4.07423 0
M  V30 3416 C 318.277 -3.1295 5.2605 0
M  V30 3417 N 317.414 -4.29729 5.55228 0
M  V30 3418 H 322.254 -0.687104 2.8997 0
M  V30 3419 H 319.791 -0.327709 1.43403 0
M  V30 3420 H 321.749 -3.16081 2.72303 0
M  V30 3421 H 320.379 -2.77508 1.64891 0
M  V30 3422 H 319.431 -1.30676 3.57251 0
M  V30 3423 H 320.743 -1.91788 4.60455 0
M  V30 3424 H 319.897 -4.25671 4.32306 0
M  V30 3425 H 318.636 -3.68537 3.19425 0
M  V30 3426 H 317.641 -2.26526 5.00965 0
M  V30 3427 H 318.866 -2.86589 6.15665 0
M  V30 3428 H 316.812 -4.57448 4.70188 0
M  V30 3429 H 316.729 -4.08385 6.36206 0
M  V30 3430 H 317.997 -5.1555 5.84661 0
M  V30 3431 N 322.226 -1.5378 -0.344866 0
M  V30 3432 C 323.156 -1.84662 -1.42906 0
M  V30 3433 C 324.137 -0.701648 -1.54955 0
M  V30 3434 O 325.322 -0.953438 -1.69184 0
M  V30 3435 C 322.452 -2.05503 -2.79974 0
M  V30 3436 C 321.406 -3.21318 -2.82734 0
M  V30 3437 C 320.732 -3.2749 -4.22675 0
M  V30 3438 C 322.032 -4.59456 -2.48389 0
M  V30 3439 H 323.726 -2.75461 -1.17311 0
M  V30 3440 H 321.272 -1.32542 -0.562896 0
M  V30 3441 H 323.225 -2.25691 -3.55867 0
M  V30 3442 H 321.949 -1.11434 -3.07002 0
M  V30 3443 H 320.608 -3.00984 -2.09294 0
M  V30 3444 H 320.256 -2.31019 -4.4681 0
M  V30 3445 H 319.956 -4.05316 -4.25433 0
M  V30 3446 H 321.48 -3.49887 -5.00412 0
M  V30 3447 H 322.894 -4.79667 -3.13995 0
M  V30 3448 H 321.291 -5.39675 -2.62432 0
M  V30 3449 H 322.361 -4.63155 -1.4358 0
M  V30 3450 N 323.704 0.605807 -1.45491 0
M  V30 3451 C 324.652 1.73754 -1.54636 0
M  V30 3452 C 325.646 1.64207 -0.416219 0
M  V30 3453 O 326.852 1.69979 -0.592199 0
M  V30 3454 H 323.227 0.574073 -0.485741 0
M  V30 3455 H 325.198 1.63169 -2.49837 0
M  V30 3456 C 323.947 3.12135 -1.53189 0
M  V30 3457 H 323.27 3.20141 -2.39478 0
M  V30 3458 H 324.71 3.91147 -1.63645 0
M  V30 3459 C 323.169 3.35921 -0.256616 0
M  V30 3460 O 323.699 3.96194 0.662798 0
M  V30 3461 N 321.905 2.90204 -0.151751 0
M  V30 3462 H 321.452 2.41336 -0.90081 0
M  V30 3463 H 321.41 3.06492 0.700699 0
M  V30 3464 N 325.182 1.32811 0.848464 0
M  V30 3465 C 326.431 1.23075 1.59798 0
M  V30 3466 C 326.744 -0.204419 1.94529 0
M  V30 3467 O 327.95 -0.423701 2.68173 0
M  V30 3468 C 326.406 2.15594 2.88179 0
M  V30 3469 C 326.014 3.64228 2.60849 0
M  V30 3470 C 327.758 2.14709 3.66197 0
M  V30 3471 C 325.665 4.48689 3.85269 0
M  V30 3472 H 324.595 0.457091 0.599653 0
M  V30 3473 H 327.246 1.57813 0.936342 0
M  V30 3474 H 325.628 1.73778 3.55833 0
M  V30 3475 H 326.802 4.14424 2.01467 0
M  V30 3476 H 325.117 3.67306 1.96151 0
M  V30 3477 H 327.714 2.75046 4.58534 0
M  V30 3478 H 328.057 1.13966 4.00397 0
M  V30 3479 H 328.59 2.54837 3.05455 0
M  V30 3480 H 325.329 5.5027 3.56207 0
M  V30 3481 H 324.849 4.03241 4.44024 0
M  V30 3482 H 326.528 4.62006 4.52946 0
M  V30 3483 N 326.66 -1.06551 1.16123 0
M  V30 3484 C 327.906 -1.79719 0.952505 0
M  V30 3485 C 328.261 -1.85396 -0.514385 0
M  V30 3486 O 327.554 -1.33263 -1.37665 0
M  V30 3487 C 327.748 -3.23911 1.51052 0
M  V30 3488 C 327.577 -3.32284 3.03013 0
M  V30 3489 C 326.347 -3.42371 3.71632 0
M  V30 3490 C 328.545 -3.22363 4.00732 0
M  V30 3491 N 326.527 -3.39732 5.11327 0
M  V30 3492 C 327.898 -3.26937 5.26794 0
M  V30 3493 C 329.953 -3.0623 3.92591 0
M  V30 3494 C 328.656 -3.17035 6.45663 0
M  V30 3495 C 330.682 -2.97665 5.11028 0
M  V30 3496 C 330.044 -3.02858 6.35969 0
M  V30 3497 H 326.143 -0.670585 0.402293 0
M  V30 3498 H 328.727 -1.27125 1.4747 0
M  V30 3499 H 326.898 -3.74907 1.01484 0
M  V30 3500 H 328.63 -3.85242 1.2398 0
M  V30 3501 H 325.385 -3.47058 3.22254 0
M  V30 3502 H 325.809 -3.41919 5.84312 0
M  V30 3503 H 330.451 -3.01063 2.96852 0
M  V30 3504 H 328.169 -3.2096 7.41627 0
M  V30 3505 H 331.755 -2.86273 5.06497 0
M  V30 3506 H 330.635 -2.96286 7.26075 0
M  V30 3507 N 328.138 -0.959301 -1.25041 0
M  V30 3508 C 329.363 -0.633507 -1.97488 0
M  V30 3509 C 329.788 0.788555 -1.70773 0
M  V30 3510 O 329.146 1.53394 -0.966431 0
M  V30 3511 C 329.194 -0.904057 -3.49083 0
M  V30 3512 O 328.298 0.0147939 -4.12397 0
M  V30 3513 H 327.639 -0.240368 -0.618966 0
M  V30 3514 H 330.169 -1.28717 -1.59038 0
M  V30 3515 H 330.179 -0.832203 -3.99423 0
M  V30 3516 H 328.854 -1.94048 -3.67856 0
M  V30 3517 H 327.431 -0.109664 -3.72739 0
M  V30 3518 N 329.616 1.39756 -0.72842 0
M  V30 3519 C 330.526 2.34444 -0.0855374 0
M  V30 3520 C 331.542 1.57976 0.729356 0
M  V30 3521 O 332.718 1.90301 0.659346 0
M  V30 3522 C 329.783 3.36965 0.815798 0
M  V30 3523 C 328.844 4.29299 -0.0105996 0
M  V30 3524 C 328.077 5.26923 0.84781 0
M  V30 3525 O 328.3 5.30859 2.08673 0
M  V30 3526 O 327.234 6.01249 0.279969 0
M  V30 3527 H 331.06 2.91065 -0.866892 0
M  V30 3528 H 328.645 1.4117 -0.48902 0
M  V30 3529 H 330.527 3.99804 1.33171 0
M  V30 3530 H 329.202 2.82739 1.57608 0
M  V30 3531 H 328.109 3.69703 -0.571877 0
M  V30 3532 H 329.442 4.86712 -0.73295 0
M  V30 3533 N 331.094 0.475555 1.50254 0
M  V30 3534 C 332.371 -0.139685 1.95101 0
M  V30 3535 C 332.751 -1.56555 1.41611 0
M  V30 3536 O 332.099 -2.19956 0.618993 0
M  V30 3537 C 332.309 -0.0784298 3.48912 0
M  V30 3538 C 333.657 -0.265095 4.23772 0
M  V30 3539 O 334.681 -0.154808 3.55863 0
M  V30 3540 O 333.54 -0.488327 5.44314 0
M  V30 3541 H 330.634 -0.109236 0.819754 0
M  V30 3542 H 333.18 0.536276 1.61004 0
M  V30 3543 H 331.952 0.916918 3.80405 0
M  V30 3544 H 331.575 -0.795655 3.89558 0
M  V30 3545 N 332.573 -1.56217 0.208337 0
M  V30 3546 C 333.521 -2.21053 -0.723769 0
M  V30 3547 C 334.515 -1.18578 -1.20978 0
M  V30 3548 O 335.721 -1.36691 -1.17114 0
M  V30 3549 H 332.096 -0.708595 -0.251788 0
M  V30 3550 H 334.067 -2.98006 -0.153365 0
M  V30 3551 C 332.816 -2.89417 -1.927 0
M  V30 3552 H 332.139 -3.68019 -1.56212 0
M  V30 3553 H 333.579 -3.38201 -2.55727 0
M  V30 3554 C 332.038 -1.91166 -2.77411 0
M  V30 3555 O 332.568 -1.42026 -3.75754 0
M  V30 3556 N 330.774 -1.59105 -2.43175 0
M  V30 3557 H 330.321 -1.99259 -1.63259 0
M  V30 3558 H 330.279 -0.936255 -3.00136 0
M  V30 3559 N 334.051 0.0651679 -1.57465 0
M  V30 3560 C 335.014 1.06117 -2.03155 0
M  V30 3561 C 336.014 1.31204 -0.929632 0
M  V30 3562 O 337.204 1.26813 -1.19432 0
M  V30 3563 C 334.336 2.4032 -2.41783 0
M  V30 3564 H 335.529 0.667231 -2.92383 0
M  V30 3565 H 333.082 0.311075 -1.53173 0
M  V30 3566 H 333.817 2.84532 -1.55601 0
M  V30 3567 H 333.602 2.23451 -3.22199 0
M  V30 3568 H 335.092 3.11898 -2.77685 0
M  V30 3569 N 335.529 1.53961 0.336706 0
M  V30 3570 C 336.806 1.62171 1.09361 0
M  V30 3571 C 337.186 0.447263 2.06307 0
M  V30 3572 O 336.534 -0.559802 2.21537 0
M  V30 3573 C 336.744 2.98565 1.80721 0
M  V30 3574 C 338.092 3.54157 2.34218 0
M  V30 3575 O 339.116 3.00784 1.90807 0
M  V30 3576 O 337.975 4.47528 3.13657 0
M  V30 3577 H 335.069 0.6562 0.503319 0
M  V30 3578 H 337.615 1.66307 0.33765 0
M  V30 3579 H 336.387 3.75482 1.10132 0
M  V30 3580 H 336.01 2.9805 2.63158 0
M  V30 3581 N 337.007 -0.598083 1.45811 0
M  V30 3582 C 338.232 -1.3881 1.54099 0
M  V30 3583 C 338.657 -1.8726 0.177578 0
M  V30 3584 O 338.015 -1.6069 -0.839541 0
M  V30 3585 C 338.063 -2.56217 2.53743 0
M  V30 3586 O 337.167 -3.5716 2.06182 0
M  V30 3587 H 336.508 -0.414024 0.519115 0
M  V30 3588 H 339.038 -0.726971 1.91249 0
M  V30 3589 H 339.048 -3.03337 2.72856 0
M  V30 3590 H 337.723 -2.20303 3.5276 0
M  V30 3591 H 336.3 -3.16624 1.96987 0
M  V30 3592 N 338.485 -1.33259 -0.841409 0
M  V30 3593 C 339.733 -1.24326 -1.59334 0
M  V30 3594 C 340.054 0.191564 -1.94057 0
M  V30 3595 O 339.324 1.11967 -1.60749 0
M  V30 3596 H 337.904 -0.457174 -0.590763 0
M  V30 3597 H 340.566 -1.66947 -1.00571 0
M  V30 3598 H 339.662 -1.8352 -2.52442 0
M  V30 3599 N 339.963 1.05934 -1.16686 0
M  V30 3600 C 340.895 2.13468 -0.834503 0
M  V30 3601 C 341.908 1.62013 0.15984 0
M  V30 3602 O 343.097 1.7838 -0.0654228 0
M  V30 3603 C 340.197 3.3817 -0.222361 0
M  V30 3604 C 339.37 4.18928 -1.25771 0
M  V30 3605 C 338.429 5.21985 -0.664703 0
M  V30 3606 O 337.455 5.53334 -1.33453 0
M  V30 3607 N 338.657 5.77919 0.546834 0
M  V30 3608 H 341.422 2.42578 -1.75999 0
M  V30 3609 H 338.983 1.21967 -1.06469 0
M  V30 3610 H 340.975 4.04266 0.187472 0
M  V30 3611 H 339.545 3.06655 0.606758 0
M  V30 3612 H 338.765 3.48433 -1.84358 0
M  V30 3613 H 340.053 4.69687 -1.95631 0
M  V30 3614 H 339.451 5.54721 1.10912 0
M  V30 3615 H 338.008 6.45573 0.898829 0
M  V30 3616 O 341.48 1.09547 1.18667 0
M  V30 3617 H 342.171 0.792406 1.7675 0
M  V30 END ATOM
M  V30 BEGIN BOND
M  V30 END BOND
M  V30 END CTAB
M  END
$$$$
