drugbank_target|O95263 High affinity cAMP-specific and IBMX-insensitive 3',5'-cyclic phosphodiesterase 8B (DB00201; DB09283)
 OpenBabel12092121003D

  0  0  0     0  0            999 V3000
M  V30 BEGIN CTAB
M  V30 COUNTS 13751 13897 0 0 0
M  V30 BEGIN ATOM
M  V30 1 H -0.908 1.98254 -0.117106 0
M  V30 2 N 0 1.576 0 0
M  V30 3 C 0.933 2.03868 1.02534 0
M  V30 4 C 1.911 0.928543 1.3348 0
M  V30 5 O 3.095 1.19667 1.45644 0
M  V30 6 C 0.222 2.43627 2.35294 0
M  V30 7 C -0.732 3.65373 2.2001 0
M  V30 8 S 0.101 5.13292 1.52614 0
M  V30 9 C 1.257 5.56322 2.86805 0
M  V30 10 H 1.49 2.90518 0.631377 0
M  V30 11 H -0.977 1.52953 0.210867 0
M  V30 12 H 0.981 2.67203 3.11629 0
M  V30 13 H -0.358 1.57376 2.7183 0
M  V30 14 H -1.165 3.90944 3.18086 0
M  V30 15 H -1.563 3.418 1.51819 0
M  V30 16 H 0.729 5.58782 3.83104 0
M  V30 17 H 1.672 6.56266 2.65933 0
M  V30 18 H 2.08 4.83886 2.90714 0
M  V30 19 N 1.4781 -0.272755 1.55222 0
M  V30 20 C 2.7261 -1.00234 1.75492 0
M  V30 21 C 3.0471 -1.8681 0.5592 0
M  V30 22 O 2.3171 -1.91215 -0.425882 0
M  V30 23 H 0.8971 -0.373076 0.647166 0
M  V30 24 H 3.5591 -0.296926 1.92625 0
M  V30 25 H 2.6551 -1.63913 2.65592 0
M  V30 26 N 2.9562 -1.48159 -0.537278 0
M  V30 27 C 4.1962 -1.57397 -1.30405 0
M  V30 28 C 4.5602 -0.239202 -1.90504 0
M  V30 29 O 5.7612 -0.206528 -2.68005 0
M  V30 30 C 4.0322 -2.6754 -2.36974 0
M  V30 31 S 5.5912 -2.96496 -3.23475 0
M  V30 32 H 2.4092 -0.555577 -0.443684 0
M  V30 33 H 5.0112 -1.85644 -0.612912 0
M  V30 34 H 3.7152 -3.63092 -1.91291 0
M  V30 35 H 3.2462 -2.41172 -3.10805 0
M  V30 36 H 5.2612 -2.35234 -4.36897 0
M  V30 37 N 4.4343 0.785586 -1.36625 0
M  V30 38 C 5.3973 1.87999 -1.31107 0
M  V30 39 C 6.3973 1.59316 -0.217959 0
M  V30 40 O 7.5873 1.67656 -0.472977 0
M  V30 41 C 4.7193 3.24861 -1.03334 0
M  V30 42 H 5.9123 1.94307 -2.2844 0
M  V30 43 H 3.4653 0.983813 -1.21453 0
M  V30 44 H 4.2003 3.24235 -0.0647432 0
M  V30 45 H 3.9853 3.4707 -1.82441 0
M  V30 46 H 5.4753 4.04929 -1.02088 0
M  V30 47 N 5.9124 1.20967 1.01018 0
M  V30 48 C 7.3234 1.02319 1.56165 0
M  V30 49 C 7.6744 -0.418546 1.91684 0
M  V30 50 O 6.7994 -1.30096 1.72928 0
M  V30 51 C 7.3944 1.85109 2.8376 0
M  V30 52 C 5.9534 1.70809 3.35412 0
M  V30 53 C 5.1004 1.82643 2.08655 0
M  V30 54 H 8.0514 1.35065 0.833255 0
M  V30 55 H 8.0724 1.35827 3.55431 0
M  V30 56 H 7.5844 2.90035 2.57878 0
M  V30 57 H 5.6854 0.685464 3.66241 0
M  V30 58 H 5.7984 2.52467 4.07182 0
M  V30 59 H 4.1624 1.25896 2.21409 0
M  V30 60 H 4.9454 2.89066 1.85191 0
M  V30 61 N 7.3905 -1.2043 1.01659 0
M  V30 62 C 8.6155 -1.94318 0.724942 0
M  V30 63 C 9.0405 -1.74266 -0.708034 0
M  V30 64 O 8.3985 -1.03694 -1.48719 0
M  V30 65 C 8.4465 -3.44486 1.06591 0
M  V30 66 O 7.5505 -4.12017 0.177599 0
M  V30 67 H 6.8915 -0.60708 0.26898 0
M  V30 68 H 9.4215 -1.52861 1.35995 0
M  V30 69 H 9.4315 -3.95106 1.01762 0
M  V30 70 H 8.1065 -3.58404 2.10997 0
M  V30 71 H 6.6835 -3.71821 0.283421 0
M  V30 72 N 8.8686 -0.792821 -1.36206 0
M  V30 73 C 10.1176 -0.363353 -1.984 0
M  V30 74 C 10.4306 1.07172 -1.63626 0
M  V30 75 O 11.6366 1.60362 -2.19081 0
M  V30 76 C 10.0926 -0.59872 -3.54885 0
M  V30 77 C 9.7006 -2.04543 -3.9858 0
M  V30 78 C 11.4446 -0.233926 -4.23855 0
M  V30 79 C 9.3516 -2.22727 -5.47856 0
M  V30 80 H 8.2816 -0.13212 -0.742334 0
M  V30 81 H 10.9326 -0.974935 -1.55458 0
M  V30 82 H 9.3146 0.0826222 -3.95914 0
M  V30 83 H 10.4886 -2.76345 -3.68741 0
M  V30 84 H 8.8036 -2.36879 -3.42458 0
M  V30 85 H 11.4006 -0.348027 -5.33566 0
M  V30 86 H 11.7436 0.818351 -4.08177 0
M  V30 87 H 12.2766 -0.868639 -3.882 0
M  V30 88 H 9.0156 -3.2635 -5.68486 0
M  V30 89 H 8.5356 -1.55434 -5.7931 0
M  V30 90 H 10.2146 -2.03607 -6.14128 0
M  V30 91 N 10.3467 1.47872 -0.545128 0
M  V30 92 C 11.2967 2.26842 0.229456 0
M  V30 93 C 12.2807 1.33626 0.896267 0
M  V30 94 O 13.4727 1.58063 0.79657 0
M  V30 95 C 10.6017 3.19089 1.26638 0
M  V30 96 C 9.6877 4.19783 0.603598 0
M  V30 97 N 10.0787 5.0479 -0.319405 0
M  V30 98 C 8.3767 4.3765 0.858989 0
M  V30 99 C 9.0777 5.77433 -0.703241 0
M  V30 100 N 8.0537 5.43566 -0.0608309 0
M  V30 101 H 11.8557 2.89947 -0.480391 0
M  V30 102 H 9.3697 1.58263 -0.364209 0
M  V30 103 H 11.3667 3.74337 1.83515 0
M  V30 104 H 10.0267 2.5754 1.97745 0
M  V30 105 H 11.0377 5.13244 -0.692889 0
M  V30 106 H 7.7147 3.87281 1.55948 0
M  V30 107 H 9.1047 6.55824 -1.46098 0
M  V30 108 N 11.8248 0.280983 1.55075 0
M  V30 109 C 13.0708 -0.33461 2.00021 0
M  V30 110 C 13.4038 -1.55063 1.16915 0
M  V30 111 O 12.6788 -1.93006 0.240646 0
M  V30 112 C 12.9618 -0.711007 3.53011 0
M  V30 113 C 12.8148 0.512766 4.46868 0
M  V30 114 C 14.1338 -1.54522 4.12081 0
M  V30 115 H 11.2528 -0.120147 0.727141 0
M  V30 116 H 13.8948 0.389097 1.85973 0
M  V30 117 H 12.0448 -1.32761 3.65112 0
M  V30 118 H 13.7168 1.15131 4.46702 0
M  V30 119 H 11.9598 1.14975 4.18286 0
M  V30 120 H 12.6308 0.205556 5.51617 0
M  V30 121 H 15.1068 -1.02442 4.03293 0
M  V30 122 H 13.9828 -1.77739 5.19327 0
M  V30 123 H 14.2438 -2.52813 3.62682 0
M  V30 124 N 13.3029 -1.57598 0.00835791 0
M  V30 125 C 14.5279 -1.95617 -0.689103 0
M  V30 126 C 14.9529 -0.883753 -1.66046 0
M  V30 127 O 14.3109 0.157352 -1.80616 0
M  V30 128 C 14.3589 -3.32736 -1.38994 0
M  V30 129 O 13.4629 -3.27631 -2.50463 0
M  V30 130 H 12.8039 -0.638379 -0.182668 0
M  V30 131 H 15.3339 -2.045 0.064036 0
M  V30 132 H 15.3439 -3.68494 -1.75147 0
M  V30 133 H 14.0189 -4.1034 -0.677778 0
M  V30 134 H 12.5959 -3.03561 -2.16576 0
M  V30 135 N 14.781 0.264519 -1.55364 0
M  V30 136 C 15.713 1.34965 -1.85248 0
M  V30 137 C 16.726 1.45136 -0.737525 0
M  V30 138 O 17.915 1.46801 -1.01547 0
M  V30 139 C 15.015 2.73008 -2.00797 0
M  V30 140 C 14.188 2.85324 -3.31525 0
M  V30 141 C 13.247 4.04097 -3.37034 0
M  V30 142 O 12.273 3.94455 -4.10358 0
M  V30 143 N 13.475 5.16458 -2.65049 0
M  V30 144 H 16.24 1.09672 -2.78913 0
M  V30 145 H 13.801 0.454635 -1.55386 0
M  V30 146 H 15.793 3.50772 -2.01844 0
M  V30 147 H 14.363 2.91087 -1.1396 0
M  V30 148 H 13.583 1.94377 -3.42945 0
M  V30 149 H 14.871 2.9049 -4.17724 0
M  V30 150 H 14.269 5.27181 -2.05175 0
M  V30 151 H 12.826 5.92422 -2.71809 0
M  V30 152 N 16.2591 1.48442 0.529413 0
M  V30 153 C 17.4841 1.60406 1.31471 0
M  V30 154 C 17.9091 0.264738 1.86228 0
M  V30 155 O 17.2671 -0.763668 1.64432 0
M  V30 156 C 17.3151 2.65419 2.44101 0
M  V30 157 O 16.4191 2.22618 3.47153 0
M  V30 158 H 15.7601 0.537863 0.389357 0
M  V30 159 H 18.2901 1.94432 0.636965 0
M  V30 160 H 18.3001 2.86709 2.90279 0
M  V30 161 H 16.9751 3.62652 2.03608 0
M  V30 162 H 15.5521 2.11543 3.0709 0
M  V30 163 N 17.7372 -0.778329 1.37039 0
M  V30 164 C 18.9852 -1.53361 1.31623 0
M  V30 165 C 19.3062 -1.94739 -0.100831 0
M  V30 166 O 18.5762 -1.65797 -1.04347 0
M  V30 167 H 17.1562 -0.568794 0.484234 0
M  V30 168 H 19.8182 -0.926742 1.71457 0
M  V30 169 H 18.9142 -2.43606 1.95096 0
M  V30 170 N 19.2153 -1.21501 -1.00376 0
M  V30 171 C 20.4613 -1.03452 -1.74429 0
M  V30 172 C 20.7943 0.430764 -1.89362 0
M  V30 173 O 20.0693 1.31962 -1.42886 0
M  V30 174 C 20.3523 -1.73375 -3.15615 0
M  V30 175 C 20.2053 -3.27431 -3.08397 0
M  V30 176 C 21.5243 -1.47732 -4.14564 0
M  V30 177 H 18.6433 -0.377226 -0.633143 0
M  V30 178 H 21.2853 -1.49693 -1.17013 0
M  V30 179 H 19.4353 -1.34064 -3.64636 0
M  V30 180 H 21.1073 -3.76119 -2.67081 0
M  V30 181 H 19.3503 -3.5767 -2.45468 0
M  V30 182 H 20.0213 -3.71524 -4.08258 0
M  V30 183 H 22.4973 -1.8186 -3.74254 0
M  V30 184 H 21.3733 -1.99169 -5.11491 0
M  V30 185 H 21.6343 -0.407589 -4.40217 0
M  V30 186 N 20.6934 1.19889 -1.02296 0
M  V30 187 C 21.9424 1.88743 -0.711257 0
M  V30 188 C 22.2554 1.80112 0.762817 0
M  V30 189 O 23.4614 2.44161 1.18733 0
M  V30 190 C 21.9174 3.38525 -1.22185 0
M  V30 191 C 21.5254 3.55727 -2.72328 0
M  V30 192 C 23.2694 4.12893 -0.985864 0
M  V30 193 C 21.1764 4.99369 -3.16835 0
M  V30 194 H 20.1064 0.706885 -0.262353 0
M  V30 195 H 22.7574 1.35586 -1.23648 0
M  V30 196 H 21.1394 3.91044 -0.624571 0
M  V30 197 H 22.3134 3.13564 -3.3766 0
M  V30 198 H 20.6284 2.94739 -2.9414 0
M  V30 199 H 23.2254 5.18813 -1.29374 0
M  V30 200 H 23.5684 4.16228 0.0775055 0
M  V30 201 H 24.1014 3.66494 -1.54684 0
M  V30 202 H 20.8404 5.01193 -4.22476 0
M  V30 203 H 20.3604 5.42317 -2.56228 0
M  V30 204 H 22.0394 5.67988 -3.09837 0
M  V30 205 N 22.1715 0.800033 1.35784 0
M  V30 206 C 23.4015 0.389041 2.02904 0
M  V30 207 C 23.8095 -1.0027 1.60445 0
M  V30 208 O 23.1525 -1.65633 0.794453 0
M  V30 209 C 23.2145 0.385495 3.57427 0
M  V30 210 C 22.8785 1.72662 4.23127 0
M  V30 211 C 23.8755 2.68385 4.4527 0
M  V30 212 C 21.5605 2.00883 4.60381 0
M  V30 213 C 23.5545 3.90517 5.03761 0
M  V30 214 C 21.2415 3.2328 5.18588 0
M  V30 215 C 22.2395 4.17915 5.40218 0
M  V30 216 O 21.9275 5.38153 5.97199 0
M  V30 217 H 21.6595 0.157032 0.657508 0
M  V30 218 H 24.2135 1.08311 1.74522 0
M  V30 219 H 22.4435 -0.365128 3.84972 0
M  V30 220 H 24.1325 -0.00228296 4.059 0
M  V30 221 H 24.8985 2.47872 4.16874 0
M  V30 222 H 20.7775 1.28037 4.42863 0
M  V30 223 H 24.3215 4.64395 5.2056 0
M  V30 224 H 20.2185 3.43667 5.4641 0
M  V30 225 H 20.9865 5.3936 6.15656 0
M  V30 226 N 23.6496 -1.47581 0.552962 0
M  V30 227 C 24.8896 -2.04379 0.0296245 0
M  V30 228 C 25.2536 -1.4185 -1.29393 0
M  V30 229 O 26.4546 -1.89669 -1.90471 0
M  V30 230 C 24.7256 -3.57339 -0.0661371 0
M  V30 231 S 26.2846 -4.35511 -0.536213 0
M  V30 232 H 23.1026 -0.710625 0.0230991 0
M  V30 233 H 25.7046 -1.81005 0.738734 0
M  V30 234 H 24.4086 -4.00374 0.901596 0
M  V30 235 H 23.9396 -3.85202 -0.798931 0
M  V30 236 H 25.9546 -4.6253 -1.79668 0
M  V30 237 N 25.1277 -0.289203 -1.54924 0
M  V30 238 C 26.5437 0.0645403 -1.59469 0
M  V30 239 C 26.7437 1.53419 -1.30632 0
M  V30 240 O 25.7997 2.2852 -1.074 0
M  V30 241 C 27.1127 -0.32278 -2.98963 0
M  V30 242 C 28.6607 -0.270564 -3.11828 0
M  V30 243 C 29.1357 -0.632532 -4.53611 0
M  V30 244 N 30.6267 -0.584617 -4.59496 0
M  V30 245 C 31.3617 -0.837314 -5.67254 0
M  V30 246 N 30.8577 -1.15536 -6.83098 0
M  V30 247 N 32.6507 -0.765166 -5.56868 0
M  V30 248 H 24.8017 -1.24714 -1.71931 0
M  V30 249 H 27.0647 -0.504809 -0.802416 0
M  V30 250 H 26.7707 -1.34541 -3.24948 0
M  V30 251 H 26.6447 0.32944 -3.75759 0
M  V30 252 H 29.0317 0.742805 -2.85598 0
M  V30 253 H 29.1127 -0.957242 -2.37214 0
M  V30 254 H 28.7567 -1.64365 -4.80569 0
M  V30 255 H 28.6867 0.07609 -5.26545 0
M  V30 256 H 31.1777 -0.349248 -3.76283 0
M  V30 257 H 31.4907 -1.33447 -7.61191 0
M  V30 258 H 29.8357 -1.19328 -6.84679 0
M  V30 259 H 33.0267 -0.516432 -4.65243 0
M  V30 260 H 33.1997 -0.965477 -6.40767 0
M  V30 261 N 26.6058 1.57591 -0.0167156 0
M  V30 262 C 27.8828 1.82547 0.702564 0
M  V30 263 C 28.2628 0.898018 1.91047 0
M  V30 264 O 27.6108 -0.0493456 2.28447 0
M  V30 265 C 27.8208 3.31459 1.09251 0
M  V30 266 C 29.1688 3.97622 1.48937 0
M  V30 267 O 30.1928 3.35881 1.18584 0
M  V30 268 O 29.0518 5.06415 2.05442 0
M  V30 269 H 26.1458 0.752268 0.343544 0
M  V30 270 H 28.6918 1.69644 -0.0434495 0
M  V30 271 H 27.4638 3.9061 0.23227 0
M  V30 272 H 27.0868 3.49422 1.89709 0
M  V30 273 N 28.0839 -0.256276 1.55502 0
M  V30 274 C 29.3089 -1.00766 1.81276 0
M  V30 275 C 29.7339 -1.78524 0.59252 0
M  V30 276 O 29.0919 -1.75413 -0.45827 0
M  V30 277 C 29.1399 -1.92869 3.04687 0
M  V30 278 O 28.2439 -3.019 2.80945 0
M  V30 279 H 27.5849 -0.287224 0.598664 0
M  V30 280 H 30.1149 -0.280109 2.02674 0
M  V30 281 H 30.1249 -2.34511 3.33869 0
M  V30 282 H 28.7999 -1.35689 3.93143 0
M  V30 283 H 27.3769 -2.64454 2.62904 0
M  V30 284 N 29.562 -1.4872 -0.521534 0
M  V30 285 C 30.839 -1.4766 -1.2828 0
M  V30 286 C 31.219 -0.19292 -2.10217 0
M  V30 287 O 30.567 0.825193 -2.13079 0
M  V30 288 C 30.777 -2.74358 -2.15705 0
M  V30 289 C 32.125 -3.23028 -2.75569 0
M  V30 290 O 33.149 -2.75333 -2.25987 0
M  V30 291 O 32.008 -4.0604 -3.65778 0
M  V30 292 H 29.102 -0.590085 -0.579421 0
M  V30 293 H 31.648 -1.60963 -0.537492 0
M  V30 294 H 30.42 -3.59292 -1.54999 0
M  V30 295 H 30.043 -2.63816 -2.97467 0
M  V30 296 N 31.0401 0.771051 -1.3745 0
M  V30 297 C 31.9501 1.91538 -1.35464 0
M  V30 298 C 32.9661 1.72134 -0.254123 0
M  V30 299 O 34.1421 1.95358 -0.489626 0
M  V30 300 C 31.2071 3.26671 -1.16134 0
M  V30 301 C 30.2681 3.58723 -2.35831 0
M  V30 302 C 29.5011 4.87409 -2.17413 0
M  V30 303 O 29.7241 5.58506 -1.15876 0
M  V30 304 O 28.6581 5.18539 -3.05615 0
M  V30 305 H 32.4841 1.96165 -2.31847 0
M  V30 306 H 30.0691 0.9139 -1.18187 0
M  V30 307 H 31.9511 4.07499 -1.07345 0
M  V30 308 H 30.6261 3.22894 -0.228251 0
M  V30 309 H 29.5331 2.78127 -2.50192 0
M  V30 310 H 30.8661 3.67243 -3.27709 0
M  V30 311 N 32.5182 1.22032 0.997298 0
M  V30 312 C 33.7432 1.06921 1.77715 0
M  V30 313 C 34.1682 -0.376226 1.84299 0
M  V30 314 O 33.5262 -1.27165 1.29223 0
M  V30 315 C 33.5742 1.67996 3.19076 0
M  V30 316 O 32.6782 0.930653 4.01762 0
M  V30 317 H 32.0192 0.375814 0.547412 0
M  V30 318 H 34.5492 1.61737 1.25309 0
M  V30 319 H 34.5592 1.72538 3.69723 0
M  V30 320 H 33.2342 2.73182 3.13599 0
M  V30 321 H 31.8112 0.960917 3.60307 0
M  V30 322 N 33.9963 -1.19345 1.0293 0
M  V30 323 C 35.2213 -1.93538 0.745511 0
M  V30 324 C 35.6463 -1.75007 -0.689511 0
M  V30 325 O 35.0043 -1.05265 -1.47611 0
M  V30 326 C 35.0523 -3.43336 1.10239 0
M  V30 327 O 34.1563 -4.11806 0.221289 0
M  V30 328 H 33.4973 -0.604193 0.275404 0
M  V30 329 H 36.0273 -1.5141 1.37609 0
M  V30 330 H 36.0373 -3.94004 1.05947 0
M  V30 331 H 34.7123 -3.56146 2.14786 0
M  V30 332 H 33.2893 -3.715 0.322842 0
M  V30 333 N 35.4744 -0.807222 -1.35358 0
M  V30 334 C 36.6994 -0.399309 -2.0352 0
M  V30 335 C 37.1244 0.981986 -1.60433 0
M  V30 336 O 36.4824 1.63601 -0.781299 0
M  V30 337 C 36.5304 -0.491552 -3.57234 0
M  V30 338 O 35.6344 0.494754 -4.09421 0
M  V30 339 H 34.9754 -0.166682 -0.642739 0
M  V30 340 H 37.5054 -1.09328 -1.72941 0
M  V30 341 H 37.5154 -0.361588 -4.06395 0
M  V30 342 H 36.1904 -1.49907 -3.87944 0
M  V30 343 H 34.7674 0.324977 -3.71481 0
M  V30 344 N 36.9525 1.47285 -0.560781 0
M  V30 345 C 38.3635 1.86258 -0.128343 0
M  V30 346 C 38.7145 1.46699 1.30284 0
M  V30 347 O 37.8395 0.871698 1.98067 0
M  V30 348 C 38.4345 3.38044 -0.22614 0
M  V30 349 C 36.9935 3.76096 0.151283 0
M  V30 350 C 36.1405 2.71335 -0.572084 0
M  V30 351 H 39.0915 1.38752 -0.770297 0
M  V30 352 H 39.1125 3.76441 0.554322 0
M  V30 353 H 38.6245 3.66806 -1.26788 0
M  V30 354 H 36.7255 3.52951 1.19399 0
M  V30 355 H 36.8385 4.78641 -0.209765 0
M  V30 356 H 35.2025 2.54696 -0.0147653 0
M  V30 357 H 35.9855 3.02938 -1.61504 0
M  V30 358 N 38.4306 0.297415 1.54768 0
M  V30 359 C 39.8466 -0.0560823 1.59501 0
M  V30 360 C 40.0466 -1.52725 1.31444 0
M  V30 361 O 39.1026 -2.27947 1.08611 0
M  V30 362 C 40.4156 0.338631 2.98787 0
M  V30 363 C 41.9636 0.287097 3.11681 0
M  V30 364 C 42.4386 0.656579 4.53269 0
M  V30 365 N 43.9296 0.608977 4.59179 0
M  V30 366 C 44.6646 0.867385 5.66802 0
M  V30 367 N 44.1606 1.19157 6.82476 0
M  V30 368 N 45.9536 0.794687 5.56454 0
M  V30 369 H 38.1046 1.25624 1.71267 0
M  V30 370 H 40.3676 0.509057 0.799728 0
M  V30 371 H 40.0736 1.36263 3.2423 0
M  V30 372 H 39.9476 -0.309508 3.75928 0
M  V30 373 H 42.3346 -0.727649 2.85988 0
M  V30 374 H 42.4156 0.969809 2.36703 0
M  V30 375 H 42.0596 1.66912 4.7969 0
M  V30 376 H 41.9896 -0.0481649 5.26578 0
M  V30 377 H 44.4806 0.369198 3.76092 0
M  V30 378 H 44.7936 1.37482 7.60473 0
M  V30 379 H 43.1386 1.22958 6.84037 0
M  V30 380 H 46.3296 0.541098 4.64962 0
M  V30 381 H 46.5026 0.999445 6.40246 0
M  V30 382 N 39.9087 -1.5758 0.0250728 0
M  V30 383 C 40.8407 -2.06869 -0.986796 0
M  V30 384 C 41.8537 -0.991332 -1.29137 0
M  V30 385 O 43.0427 -1.26761 -1.25674 0
M  V30 386 C 40.1427 -2.47486 -2.31525 0
M  V30 387 C 39.3157 -3.78253 -2.19643 0
M  V30 388 C 38.3747 -4.05464 -3.35388 0
M  V30 389 O 37.4007 -4.75774 -3.12454 0
M  V30 390 N 38.6027 -3.55321 -4.59051 0
M  V30 391 H 41.3677 -2.94302 -0.566276 0
M  V30 392 H 38.9287 -1.6109 -0.161776 0
M  V30 393 H 40.9207 -2.62785 -3.07776 0
M  V30 394 H 39.4907 -1.65441 -2.65232 0
M  V30 395 H 38.7107 -3.7279 -1.28144 0
M  V30 396 H 39.9987 -4.63936 -2.08903 0
M  V30 397 H 39.3967 -2.98431 -4.80578 0
M  V30 398 H 37.9537 -3.75905 -5.32483 0
M  V30 399 N 41.3868 0.248026 -1.55636 0
M  V30 400 C 42.6148 0.993808 -1.81469 0
M  V30 401 C 43.0298 1.78991 -0.60064 0
M  V30 402 O 42.3868 1.77345 0.430682 0
M  V30 403 C 42.4378 1.93258 -3.05506 0
M  V30 404 O 42.1588 1.16869 -4.22224 0
M  V30 405 C 43.6598 2.79444 -3.4413 0
M  V30 406 H 40.8798 0.292486 -0.603898 0
M  V30 407 H 43.4238 0.271253 -2.02693 0
M  V30 408 H 41.5788 2.60943 -2.86335 0
M  V30 409 H 41.9928 1.80359 -4.92515 0
M  V30 410 H 43.4668 3.41066 -4.34026 0
M  V30 411 H 43.9438 3.50499 -2.64665 0
M  V30 412 H 44.5498 2.17214 -3.65648 0
M  V30 413 N 42.8649 1.48995 0.513639 0
M  V30 414 C 44.0929 1.61531 1.29288 0
M  V30 415 C 44.5079 0.281801 1.86685 0
M  V30 416 O 43.8649 -0.731111 1.67215 0
M  V30 417 C 43.9159 2.67449 2.43215 0
M  V30 418 O 43.6369 3.95626 1.88179 0
M  V30 419 C 45.1379 2.90575 3.34785 0
M  V30 420 H 42.3579 0.544165 0.392588 0
M  V30 421 H 44.9019 1.9494 0.617956 0
M  V30 422 H 43.0569 2.36853 3.0656 0
M  V30 423 H 43.4709 4.53868 2.62876 0
M  V30 424 H 44.9449 3.68449 4.11035 0
M  V30 425 H 45.4219 2.00011 3.91015 0
M  V30 426 H 46.0279 3.22538 2.77218 0
M  V30 427 N 44.343 -0.763751 1.37857 0
M  V30 428 C 45.568 -1.55805 1.36893 0
M  V30 429 C 45.993 -1.88054 -0.0416135 0
M  V30 430 O 45.351 -1.49825 -1.02089 0
M  V30 431 C 45.399 -2.84012 2.22192 0
M  V30 432 O 44.503 -3.78732 1.63204 0
M  V30 433 H 43.844 -0.471638 0.46739 0
M  V30 434 H 46.374 -0.944657 1.81487 0
M  V30 435 H 46.384 -3.33037 2.35691 0
M  V30 436 H 45.059 -2.59869 3.24716 0
M  V30 437 H 43.636 -3.37402 1.58791 0
M  V30 438 N 45.8211 -1.22559 -0.990812 0
M  V30 439 C 47.0671 -1.05297 -1.73322 0
M  V30 440 C 47.4001 0.410655 -1.89808 0
M  V30 441 O 46.6751 1.30439 -1.44277 0
M  V30 442 C 46.9581 -1.76713 -3.13759 0
M  V30 443 C 46.8111 -3.30684 -3.04907 0
M  V30 444 C 48.1301 -1.52121 -4.12974 0
M  V30 445 H 45.2491 -0.38392 -0.629106 0
M  V30 446 H 47.8911 -1.50926 -1.15418 0
M  V30 447 H 46.0411 -1.37924 -3.63193 0
M  V30 448 H 47.7131 -3.7893 -2.63077 0
M  V30 449 H 45.9561 -3.60253 -2.41661 0
M  V30 450 H 46.6271 -3.75833 -4.04294 0
M  V30 451 H 49.1031 -1.85819 -3.72304 0
M  V30 452 H 47.9791 -2.04582 -5.0935 0
M  V30 453 H 48.2401 -0.454257 -4.3976 0
M  V30 454 N 47.2992 1.18797 -1.03562 0
M  V30 455 C 48.5242 1.9314 -0.755764 0
M  V30 456 C 48.9492 1.7537 0.68022 0
M  V30 457 O 48.3072 1.06046 1.47051 0
M  V30 458 C 48.3552 3.42747 -1.12058 0
M  V30 459 O 47.4592 4.11683 -0.243124 0
M  V30 460 H 46.8002 0.602724 -0.278604 0
M  V30 461 H 49.3302 1.50678 -1.3841 0
M  V30 462 H 49.3402 3.93437 -1.08035 0
M  V30 463 H 48.0152 3.55002 -2.16672 0
M  V30 464 H 46.5922 3.71323 -0.342539 0
M  V30 465 N 48.7773 0.814389 1.34928 0
M  V30 466 C 49.7093 0.187834 2.28429 0
M  V30 467 C 50.7223 -0.617374 1.5064 0
M  V30 468 O 51.9113 -0.448454 1.72775 0
M  V30 469 C 49.0113 -0.755962 3.30361 0
M  V30 470 C 48.1843 0.00456686 4.374 0
M  V30 471 C 47.2433 -0.858876 5.19143 0
M  V30 472 O 46.2693 -0.306968 5.68372 0
M  V30 473 N 47.4713 -2.17988 5.38016 0
M  V30 474 H 50.2363 0.991105 2.82838 0
M  V30 475 H 47.7973 0.670561 1.4736 0
M  V30 476 H 49.7893 -1.338 3.81942 0
M  V30 477 H 48.3593 -1.46001 2.7641 0
M  V30 478 H 47.5793 0.767865 3.86649 0
M  V30 479 H 48.8673 0.528422 5.06049 0
M  V30 480 H 48.2653 -2.65212 4.99679 0
M  V30 481 H 46.8223 -2.71098 5.92747 0
M  V30 482 N 50.2554 -1.46986 0.568584 0
M  V30 483 C 51.5034 -2.02041 0.0487022 0
M  V30 484 C 51.8244 -1.44408 -1.31039 0
M  V30 485 O 51.0944 -0.623477 -1.85714 0
M  V30 486 H 49.6744 -0.746849 0.015014 0
M  V30 487 H 52.3364 -1.80257 0.741168 0
M  V30 488 H 51.4324 -3.12085 -0.0308961 0
M  V30 489 N 51.7335 -0.305618 -1.54608 0
M  V30 490 C 53.1445 0.186098 -1.8577 0
M  V30 491 C 53.4955 1.53058 -1.22751 0
M  V30 492 O 52.6205 2.09888 -0.526893 0
M  V30 493 C 53.2155 0.344449 -3.37044 0
M  V30 494 C 51.7745 0.780384 -3.68221 0
M  V30 495 C 50.9215 -0.108554 -2.77087 0
M  V30 496 H 53.8725 -0.526485 -1.49712 0
M  V30 497 H 53.8935 1.17828 -3.61796 0
M  V30 498 H 53.4055 -0.634235 -3.82883 0
M  V30 499 H 51.5065 1.76945 -3.27904 0
M  V30 500 H 51.6195 0.596572 -4.75371 0
M  V30 501 H 49.9835 0.412931 -2.5133 0
M  V30 502 H 50.7665 -1.08368 -3.25747 0
M  V30 503 N 53.2116 1.57565 -0.0334293 0
M  V30 504 C 54.1746 2.09393 0.932048 0
M  V30 505 C 55.1746 1.00986 1.25134 0
M  V30 506 O 56.3646 1.27129 1.19096 0
M  V30 507 C 53.4966 2.56338 2.2473 0
M  V30 508 H 54.6896 2.95984 0.483085 0
M  V30 509 H 52.2426 1.54819 0.21468 0
M  V30 510 H 52.9776 1.7309 2.74245 0
M  V30 511 H 52.7626 3.35542 2.02865 0
M  V30 512 H 54.2526 2.96646 2.93923 0
M  V30 513 N 54.6897 -0.239769 1.55765 0
M  V30 514 C 55.6527 -1.28038 1.90103 0
M  V30 515 C 56.6527 -1.40723 0.778055 0
M  V30 516 O 57.8427 -1.39301 1.04599 0
M  V30 517 C 54.9747 -2.65702 2.13577 0
M  V30 518 H 56.1677 -0.988048 2.83157 0
M  V30 519 H 53.7207 -0.479382 1.48767 0
M  V30 520 H 54.4557 -3.00063 1.23015 0
M  V30 521 H 54.2407 -2.57875 2.95369 0
M  V30 522 H 55.7307 -3.40828 2.41301 0
M  V30 523 N 56.1678 -1.49265 -0.50573 0
M  V30 524 C 57.5788 -1.51769 -1.08734 0
M  V30 525 C 57.9298 -0.301192 -1.93874 0
M  V30 526 O 57.0548 0.589456 -2.08217 0
M  V30 527 C 57.6498 -2.75017 -1.97867 0
M  V30 528 C 56.2088 -2.80314 -2.51199 0
M  V30 529 C 55.3558 -2.4562 -1.28709 0
M  V30 530 H 58.3068 -1.56031 -0.289855 0
M  V30 531 H 58.3278 -2.5491 -2.82491 0
M  V30 532 H 57.8398 -3.63539 -1.35873 0
M  V30 533 H 55.9408 -1.96061 -3.16845 0
M  V30 534 H 56.0538 -3.82366 -2.88675 0
M  V30 535 H 54.4178 -1.97297 -1.61078 0
M  V30 536 H 55.2008 -3.36411 -0.6843 0
M  V30 537 N 57.6459 0.756429 -1.3826 0
M  V30 538 C 58.5759 1.88374 -1.37976 0
M  V30 539 C 59.5569 1.68311 -0.246082 0
M  V30 540 O 60.7419 1.88944 -0.44874 0
M  V30 541 C 57.8719 3.25864 -1.20125 0
M  V30 542 C 56.8259 3.60523 -2.30666 0
M  V30 543 C 56.1519 4.9672 -1.97923 0
M  V30 544 C 57.4519 3.65692 -3.72916 0
M  V30 545 H 59.1459 1.88869 -2.32312 0
M  V30 546 H 56.6919 0.907272 -1.11824 0
M  V30 547 H 58.6449 4.0438 -1.18552 0
M  V30 548 H 57.3689 3.25841 -0.222498 0
M  V30 549 H 56.0279 2.84324 -2.3142 0
M  V30 550 H 55.6759 4.93253 -0.985393 0
M  V30 551 H 55.3759 5.20878 -2.71955 0
M  V30 552 H 56.8999 5.77618 -1.97964 0
M  V30 553 H 58.3139 4.34328 -3.74208 0
M  V30 554 H 56.7109 4.01358 -4.4613 0
M  V30 555 H 57.7809 2.65987 -4.05436 0
M  V30 556 N 59.124 1.23083 0.984299 0
M  V30 557 C 60.535 1.05609 1.5396 0
M  V30 558 C 60.886 -0.377793 1.92528 0
M  V30 559 O 60.011 -1.26398 1.75649 0
M  V30 560 C 60.606 1.91087 2.7977 0
M  V30 561 C 59.165 1.77885 3.31713 0
M  V30 562 C 58.312 1.87028 2.04733 0
M  V30 563 H 61.263 1.36802 0.804419 0
M  V30 564 H 61.284 1.43336 3.5247 0
M  V30 565 H 60.796 2.9544 2.51668 0
M  V30 566 H 58.897 0.762995 3.64704 0
M  V30 567 H 59.01 2.61047 4.01735 0
M  V30 568 H 57.374 1.30565 2.18689 0
M  V30 569 H 58.157 2.92929 1.79017 0
M  V30 570 N 60.6021 -1.18246 1.0419 0
M  V30 571 C 61.8501 -1.87886 0.744543 0
M  V30 572 C 62.1711 -1.8082 -0.730006 0
M  V30 573 O 61.4411 -1.22736 -1.52685 0
M  V30 574 H 60.0211 -0.695556 0.272417 0
M  V30 575 H 62.6831 -1.43494 1.31892 0
M  V30 576 H 61.7791 -2.9389 1.05049 0
M  V30 577 N 62.0802 -0.821533 -1.34494 0
M  V30 578 C 63.0102 -0.257138 -2.3208 0
M  V30 579 C 63.9912 0.625645 -1.58176 0
M  V30 580 O 65.1762 0.552811 -1.86166 0
M  V30 581 C 62.3062 0.582958 -3.42372 0
M  V30 582 C 61.2602 -0.202571 -4.2752 0
M  V30 583 C 60.5862 0.760179 -5.29269 0
M  V30 584 C 61.8862 -1.40998 -5.02908 0
M  V30 585 H 63.5802 -1.07247 -2.79532 0
M  V30 586 H 61.1262 -0.517163 -1.34393 0
M  V30 587 H 63.0792 0.987972 -4.09655 0
M  V30 588 H 61.8032 1.43133 -2.93565 0
M  V30 589 H 60.4622 -0.588936 -3.61838 0
M  V30 590 H 60.1102 1.60447 -4.76724 0
M  V30 591 H 59.8102 0.238809 -5.87115 0
M  V30 592 H 61.3342 1.16308 -5.9942 0
M  V30 593 H 62.7482 -1.07905 -5.63054 0
M  V30 594 H 61.1452 -1.86689 -5.70322 0
M  V30 595 H 62.2152 -2.1889 -4.32684 0
M  V30 596 N 63.5583 1.46682 -0.576371 0
M  V30 597 C 64.8053 2.02412 -0.0595339 0
M  V30 598 C 65.1333 1.44859 1.29793 0
M  V30 599 O 64.3883 0.601099 1.8624 0
M  V30 600 C 64.6873 3.57345 0.062886 0
M  V30 601 C 64.3533 4.33908 -1.22616 0
M  V30 602 C 63.0153 4.54544 -1.57933 0
M  V30 603 C 65.3673 4.77919 -2.07948 0
M  V30 604 C 62.6953 5.16444 -2.78393 0
M  V30 605 C 65.0473 5.41149 -3.27629 0
M  V30 606 C 63.7113 5.60014 -3.63236 0
M  V30 607 H 62.9813 0.74068 -0.021785 0
M  V30 608 H 65.6283 1.76128 -0.751735 0
M  V30 609 H 63.9333 3.82729 0.838178 0
M  V30 610 H 65.6303 3.98136 0.478439 0
M  V30 611 H 62.2203 4.18138 -0.941202 0
M  V30 612 H 66.4043 4.61738 -1.81967 0
M  V30 613 H 61.6603 5.29242 -3.06126 0
M  V30 614 H 65.8343 5.74211 -3.94023 0
M  V30 615 H 63.4613 6.07748 -4.56669 0
M  V30 616 N 65.0364 0.313813 1.54444 0
M  V30 617 C 66.2824 -0.292108 2.00685 0
M  V30 618 C 66.6154 -1.52548 1.20177 0
M  V30 619 O 65.8904 -1.92452 0.281531 0
M  V30 620 C 66.1734 -0.635968 3.5444 0
M  V30 621 C 66.0264 0.607437 4.4568 0
M  V30 622 C 67.3454 -1.45747 4.15266 0
M  V30 623 H 64.4644 -0.104697 0.729526 0
M  V30 624 H 67.1064 0.428457 1.85106 0
M  V30 625 H 65.2564 -1.24986 3.67846 0
M  V30 626 H 66.9284 1.24581 4.44159 0
M  V30 627 H 65.1714 1.23822 4.15753 0
M  V30 628 H 65.8424 0.322515 5.51057 0
M  V30 629 H 68.3184 -0.938645 4.05375 0
M  V30 630 H 67.1944 -1.66683 5.2298 0
M  V30 631 H 67.4554 -2.45063 3.67963 0
M  V30 632 N 66.5145 -1.57545 0.0417849 0
M  V30 633 C 67.4465 -2.07904 -0.964799 0
M  V30 634 C 68.4595 -1.00497 -1.28079 0
M  V30 635 O 69.6485 -1.28087 -1.24322 0
M  V30 636 C 66.7485 -2.49928 -2.28887 0
M  V30 637 C 65.9215 -3.80562 -2.15619 0
M  V30 638 C 64.9805 -4.08999 -3.31069 0
M  V30 639 O 64.0065 -4.79061 -3.0739 0
M  V30 640 N 65.2085 -3.6017 -4.55256 0
M  V30 641 H 67.9735 -2.94886 -0.535029 0
M  V30 642 H 65.5345 -1.61252 -0.144681 0
M  V30 643 H 67.5265 -2.66034 -3.04972 0
M  V30 644 H 66.0965 -1.68245 -2.63463 0
M  V30 645 H 65.3165 -3.74129 -1.24183 0
M  V30 646 H 66.6045 -4.66126 -2.03971 0
M  V30 647 H 66.0025 -3.03512 -4.77386 0
M  V30 648 H 64.5595 -3.81532 -5.28466 0
M  V30 649 N 67.9926 0.231505 -1.5589 0
M  V30 650 C 69.2206 0.974505 -1.82513 0
M  V30 651 C 69.6356 1.78344 -0.619591 0
M  V30 652 O 68.9926 1.77792 0.411848 0
M  V30 653 C 69.0436 1.90007 -3.07538 0
M  V30 654 O 68.7646 1.12385 -4.2344 0
M  V30 655 C 70.2656 2.75779 -3.47075 0
M  V30 656 H 67.4856 0.286065 -0.606966 0
M  V30 657 H 70.0296 0.249739 -2.02969 0
M  V30 658 H 68.1846 2.57891 -2.89086 0
M  V30 659 H 68.5986 1.75125 -4.944 0
M  V30 660 H 70.0726 3.36443 -4.37619 0
M  V30 661 H 70.5496 3.47672 -2.68367 0
M  V30 662 H 71.1556 2.13323 -3.67931 0
M  V30 663 N 69.4707 1.49531 0.497807 0
M  V30 664 C 70.7477 1.49682 1.25915 0
M  V30 665 C 71.1277 0.226339 2.09883 0
M  V30 666 O 70.4757 -0.791189 2.14365 0
M  V30 667 C 70.6857 2.77755 2.11313 0
M  V30 668 C 72.0337 3.27371 2.70395 0
M  V30 669 O 73.0577 2.78894 2.21578 0
M  V30 670 O 71.9167 4.11808 3.59272 0
M  V30 671 H 69.0107 0.599228 0.56996 0
M  V30 672 H 71.5567 1.61798 0.511816 0
M  V30 673 H 70.3287 3.61713 1.49264 0
M  V30 674 H 69.9517 2.68515 2.93233 0
M  V30 675 N 70.9488 -0.749086 1.3866 0
M  V30 676 C 71.9118 -1.84457 1.36045 0
M  V30 677 C 72.9118 -1.58682 0.260122 0
M  V30 678 O 74.1018 -1.66343 0.517261 0
M  V30 679 C 71.2338 -3.22008 1.11911 0
M  V30 680 H 72.4268 -1.88182 2.33512 0
M  V30 681 H 69.9798 -0.951266 1.24019 0
M  V30 682 H 70.7148 -3.2395 0.150686 0
M  V30 683 H 70.4998 -3.42111 1.91579 0
M  V30 684 H 71.9898 -4.0208 1.12788 0
M  V30 685 N 72.4269 -1.23603 -0.977757 0
M  V30 686 C 73.3899 -1.02069 -2.05218 0
M  V30 687 C 74.3899 0.0184305 -1.60789 0
M  V30 688 O 75.5799 -0.221569 -1.72785 0
M  V30 689 C 72.7119 -0.544926 -3.36517 0
M  V30 690 H 73.9049 -1.9742 -2.25755 0
M  V30 691 H 71.4579 -1.05684 -1.15155 0
M  V30 692 H 72.1929 0.412241 -3.21669 0
M  V30 693 H 71.9779 -1.2948 -3.70105 0
M  V30 694 H 73.4679 -0.414985 -4.15533 0
M  V30 695 N 73.905 1.17692 -1.04816 0
M  V30 696 C 75.182 1.83768 -0.669963 0
M  V30 697 C 75.562 1.93232 0.849986 0
M  V30 698 O 74.91 1.46397 1.75443 0
M  V30 699 C 75.12 3.21641 -1.35455 0
M  V30 700 C 76.468 3.97592 -1.49017 0
M  V30 701 O 77.492 3.31107 -1.31326 0
M  V30 702 O 76.351 5.16729 -1.77914 0
M  V30 703 H 73.445 0.792799 -0.235368 0
M  V30 704 H 75.991 1.25021 -1.14751 0
M  V30 705 H 74.763 3.097 -2.39168 0
M  V30 706 H 74.386 3.88052 -0.866107 0
M  V30 707 N 75.3831 0.828654 1.34056 0
M  V30 708 C 76.3461 0.259927 2.27721 0
M  V30 709 C 77.3461 -0.565478 1.50529 0
M  V30 710 O 78.5361 -0.38075 1.69988 0
M  V30 711 C 75.6681 -0.634944 3.34935 0
M  V30 712 H 76.8611 1.0863 2.79534 0
M  V30 713 H 74.4141 0.600951 1.44285 0
M  V30 714 H 75.1491 -1.48416 2.88346 0
M  V30 715 H 74.9341 -0.0444999 3.92075 0
M  V30 716 H 76.4241 -1.02648 4.04788 0
M  V30 717 N 76.8612 -1.46375 0.584142 0
M  V30 718 C 78.1102 -2.01585 0.0679741 0
M  V30 719 C 78.4232 -1.46109 -1.30045 0
M  V30 720 O 79.6292 -1.93148 -1.90804 0
M  V30 721 C 78.0852 -3.5983 0.0709207 0
M  V30 722 C 77.6932 -4.24303 1.43775 0
M  V30 723 C 79.4372 -4.22693 -0.391228 0
M  V30 724 C 77.3442 -5.74631 1.39834 0
M  V30 725 H 76.2742 -0.753689 0.0216421 0
M  V30 726 H 78.9252 -1.68093 0.736001 0
M  V30 727 H 77.3072 -3.90405 -0.663299 0
M  V30 728 H 78.4812 -4.05335 2.19181 0
M  V30 729 H 76.7962 -3.73539 1.84004 0
M  V30 730 H 79.3932 -5.3289 -0.439524 0
M  V30 731 H 79.7362 -3.91728 -1.40906 0
M  V30 732 H 80.2692 -3.96749 0.288974 0
M  V30 733 H 77.0082 -6.10258 2.39303 0
M  V30 734 H 76.5282 -5.95858 0.686505 0
M  V30 735 H 78.2072 -6.37375 1.11187 0
M  V30 736 N 78.3393 -0.321999 -1.54275 0
M  V30 737 C 79.7503 0.166384 -1.85957 0
M  V30 738 C 80.1013 1.51747 -1.24367 0
M  V30 739 O 79.2263 2.09317 -0.549124 0
M  V30 740 C 79.8213 0.308681 -3.37391 0
M  V30 741 C 78.3803 0.741286 -3.69028 0
M  V30 742 C 77.5273 -0.137937 -2.76957 0
M  V30 743 H 80.4783 -0.542335 -1.49146 0
M  V30 744 H 80.4993 1.13984 -3.63026 0
M  V30 745 H 80.0113 -0.674809 -3.82188 0
M  V30 746 H 78.1123 1.73458 -3.29762 0
M  V30 747 H 78.2253 0.546118 -4.75977 0
M  V30 748 H 76.5893 0.386251 -2.51754 0
M  V30 749 H 77.3723 -1.11816 -3.2458 0
M  V30 750 N 79.8174 1.5752 -0.0501392 0
M  V30 751 C 81.2284 1.80271 0.485705 0
M  V30 752 C 81.5794 0.96228 1.70981 0
M  V30 753 O 80.7044 0.178578 2.15662 0
M  V30 754 C 81.2994 3.26957 0.887938 0
M  V30 755 C 79.8584 3.5063 1.36877 0
M  V30 756 C 79.0054 2.75165 0.343468 0
M  V30 757 H 81.9564 1.56281 -0.276028 0
M  V30 758 H 81.9774 3.37821 1.75093 0
M  V30 759 H 81.4894 3.881 -0.0031809 0
M  V30 760 H 79.5904 2.94766 2.27911 0
M  V30 761 H 79.7034 4.59343 1.36164 0
M  V30 762 H 78.0674 2.4127 0.816128 0
M  V30 763 H 78.8504 3.39034 -0.539548 0
M  V30 764 N 81.2955 -0.223234 1.56011 0
M  V30 765 C 82.5205 -0.968978 1.83373 0
M  V30 766 C 82.9455 -1.77227 0.630254 0
M  V30 767 O 82.3035 -1.76345 -0.420959 0
M  V30 768 C 82.3515 -1.86363 3.08709 0
M  V30 769 O 81.4555 -2.95873 2.87285 0
M  V30 770 H 80.7965 -0.274461 0.604622 0
M  V30 771 H 83.3265 -0.237056 2.03222 0
M  V30 772 H 83.3365 -2.27376 3.38768 0
M  V30 773 H 82.0115 -1.27319 3.95933 0
M  V30 774 H 80.5885 -2.58818 2.68454 0
M  V30 775 N 82.7736 -1.49793 -0.48987 0
M  V30 776 C 84.1896 -1.36803 -0.822022 0
M  V30 777 C 84.3896 -0.409652 -1.97292 0
M  V30 778 O 83.4456 0.154614 -2.52026 0
M  V30 779 C 84.7586 -2.77768 -1.15175 0
M  V30 780 C 86.3066 -2.86549 -1.25931 0
M  V30 781 C 86.7816 -4.28306 -1.62228 0
M  V30 782 N 88.2726 -4.31169 -1.69256 0
M  V30 783 C 89.0076 -5.37832 -1.98807 0
M  V30 784 N 88.5036 -6.54726 -2.26507 0
M  V30 785 N 90.2966 -5.25258 -2.00152 0
M  V30 786 H 82.4476 -2.10691 0.268881 0
M  V30 787 H 84.7106 -0.946241 0.057728 0
M  V30 788 H 84.4166 -3.49648 -0.379335 0
M  V30 789 H 84.2906 -3.13836 -2.09253 0
M  V30 790 H 86.6776 -2.14899 -2.02243 0
M  V30 791 H 86.7586 -2.54049 -0.298776 0
M  V30 792 H 86.4026 -5.00486 -0.864622 0
M  V30 793 H 86.3326 -4.58279 -2.594 0
M  V30 794 H 88.8236 -3.4687 -1.49965 0
M  V30 795 H 89.1366 -7.31833 -2.48276 0
M  V30 796 H 87.4816 -6.57933 -2.23939 0
M  V30 797 H 90.6726 -4.32938 -1.77996 0
M  V30 798 H 90.8456 -6.08476 -2.22848 0
M  V30 799 N 84.2517 0.741722 -1.39055 0
M  V30 800 C 85.2147 1.83733 -1.37021 0
M  V30 801 C 86.2147 1.58542 -0.268534 0
M  V30 802 O 87.4047 1.66067 -0.526076 0
M  V30 803 C 84.5367 3.2141 -1.13617 0
M  V30 804 H 85.7297 1.86941 -2.34506 0
M  V30 805 H 83.2827 0.944676 -1.24521 0
M  V30 806 H 84.0177 3.23865 -0.167863 0
M  V30 807 H 83.8027 3.4109 -1.93391 0
M  V30 808 H 85.2927 4.01477 -1.14918 0
M  V30 809 N 85.7298 1.2412 0.971189 0
M  V30 810 C 86.9548 1.10667 1.75407 0
M  V30 811 C 87.3798 -0.337048 1.85056 0
M  V30 812 O 86.7378 -1.24396 1.31892 0
M  V30 813 C 86.7858 1.74726 3.15441 0
M  V30 814 O 85.8898 1.01566 3.99697 0
M  V30 815 H 85.2308 0.387341 0.539317 0
M  V30 816 H 87.7608 1.64358 1.2185 0
M  V30 817 H 87.7708 1.80341 3.6598 0
M  V30 818 H 86.4458 2.79773 3.07734 0
M  V30 819 H 85.0228 1.03713 3.58187 0
M  V30 820 N 87.2079 -1.17134 1.05439 0
M  V30 821 C 88.4559 -1.87085 0.764429 0
M  V30 822 C 88.7769 -1.81584 -0.710787 0
M  V30 823 O 88.0469 -1.24349 -1.51374 0
M  V30 824 H 86.6269 -0.692627 0.279779 0
M  V30 825 H 89.2889 -1.42087 1.33406 0
M  V30 826 H 88.3849 -2.92759 1.0816 0
M  V30 827 N 88.686 -0.835752 -1.33615 0
M  V30 828 C 90.097 -0.487099 -1.80234 0
M  V30 829 C 90.448 0.993627 -1.69179 0
M  V30 830 O 89.573 1.77403 -1.23924 0
M  V30 831 C 90.168 -0.877385 -3.27242 0
M  V30 832 C 88.727 -0.580915 -3.7189 0
M  V30 833 C 87.874 -1.0874 -2.5509 0
M  V30 834 H 90.825 -1.02474 -1.2118 0
M  V30 835 H 90.846 -0.186195 -3.80044 0
M  V30 836 H 90.358 -1.95512 -3.35256 0
M  V30 837 H 88.459 0.486881 -3.69405 0
M  V30 838 H 88.572 -1.13396 -4.65487 0
M  V30 839 H 86.936 -0.508392 -2.49575 0
M  V30 840 H 87.719 -2.17184 -2.65868 0
M  V30 841 N 90.1641 1.46063 -0.591896 0
M  V30 842 C 91.5751 1.85944 -0.167822 0
M  V30 843 C 91.9261 1.49429 1.27143 0
M  V30 844 O 91.0511 0.913515 1.96173 0
M  V30 845 C 91.6461 3.37489 -0.297794 0
M  V30 846 C 90.2051 3.76332 0.0714732 0
M  V30 847 C 89.3521 2.7006 -0.629509 0
M  V30 848 H 92.3031 1.37087 -0.799555 0
M  V30 849 H 92.3241 3.77532 0.474349 0
M  V30 850 H 91.8361 3.64034 -1.3454 0
M  V30 851 H 89.9371 3.55405 1.11886 0
M  V30 852 H 90.0501 4.78088 -0.311245 0
M  V30 853 H 88.4141 2.54607 -0.0687867 0
M  V30 854 H 89.1971 2.99444 -1.67894 0
M  V30 855 N 91.6422 0.330177 1.54103 0
M  V30 856 C 92.8672 -0.274893 2.0557 0
M  V30 857 C 93.2922 -1.44487 1.20437 0
M  V30 858 O 92.6502 -1.80021 0.214991 0
M  V30 859 C 92.6982 -0.68079 3.54115 0
M  V30 860 O 91.8022 -1.7824 3.71893 0
M  V30 861 H 91.1432 -0.0483849 0.662235 0
M  V30 862 H 93.6732 0.480508 1.98878 0
M  V30 863 H 93.6832 -0.961635 3.96505 0
M  V30 864 H 92.3582 0.174903 4.15532 0
M  V30 865 H 90.9352 -1.49985 3.41407 0
M  V30 866 N 93.1203 -1.57491 0.0584922 0
M  V30 867 C 94.3663 -1.93264 -0.614558 0
M  V30 868 C 94.6993 -0.937717 -1.7006 0
M  V30 869 O 93.9743 0.0351652 -1.94468 0
M  V30 870 C 94.2573 -3.3938 -1.20386 0
M  V30 871 C 94.1103 -4.49625 -0.125375 0
M  V30 872 C 95.4293 -3.86039 -2.11334 0
M  V30 873 H 92.5483 -0.702791 -0.221933 0
M  V30 874 H 95.1903 -1.8961 0.12175 0
M  V30 875 H 93.3403 -3.42626 -1.83139 0
M  V30 876 H 95.0123 -4.58506 0.506971 0
M  V30 877 H 93.2553 -4.30354 0.545672 0
M  V30 878 H 93.9263 -5.48967 -0.577861 0
M  V30 879 H 96.4023 -3.84716 -1.58534 0
M  V30 880 H 95.2783 -4.88914 -2.49507 0
M  V30 881 H 95.5393 -3.23215 -3.01636 0
M  V30 882 N 94.5984 0.214957 -1.56127 0
M  V30 883 C 95.5614 1.24997 -1.92116 0
M  V30 884 C 96.5614 1.39467 -0.800344 0
M  V30 885 O 97.7514 1.37619 -1.06802 0
M  V30 886 C 94.8834 2.62271 -2.17777 0
M  V30 887 H 96.0764 0.942875 -2.84693 0
M  V30 888 H 93.6294 0.455654 -1.49511 0
M  V30 889 H 94.3644 2.98068 -1.27773 0
M  V30 890 H 94.1494 2.53143 -2.99434 0
M  V30 891 H 95.6394 3.36946 -2.46693 0
M  V30 892 N 96.0765 1.50051 0.48192 0
M  V30 893 C 97.4925 1.37237 0.814756 0
M  V30 894 C 97.6925 0.420109 1.97072 0
M  V30 895 O 96.7485 -0.141246 2.52105 0
M  V30 896 C 98.0615 2.78375 1.13701 0
M  V30 897 C 99.6095 2.87213 1.2441 0
M  V30 898 C 100.084 4.29161 1.59954 0
M  V30 899 N 101.575 4.32061 1.66967 0
M  V30 900 C 102.31 5.38879 1.95952 0
M  V30 901 N 101.806 6.55918 2.23031 0
M  V30 902 N 103.599 5.26312 1.97363 0
M  V30 903 H 95.7505 2.10546 -0.28005 0
M  V30 904 H 98.0135 0.945921 -0.0627454 0
M  V30 905 H 97.7195 3.49845 0.360787 0
M  V30 906 H 97.5935 3.14941 2.07586 0
M  V30 907 H 99.9805 2.15969 2.01101 0
M  V30 908 H 100.061 2.54204 0.285299 0
M  V30 909 H 99.7055 5.00938 0.838067 0
M  V30 910 H 99.6355 4.59648 2.56966 0
M  V30 911 H 102.126 3.47661 1.48123 0
M  V30 912 H 102.439 7.33139 2.44391 0
M  V30 913 H 100.784 6.59112 2.20447 0
M  V30 914 H 103.975 4.33876 1.75697 0
M  V30 915 H 104.148 6.09649 2.19618 0
M  V30 916 N 97.5546 -0.734337 1.39446 0
M  V30 917 C 98.8006 -1.49613 1.36908 0
M  V30 918 C 99.1336 -1.94169 -0.0347829 0
M  V30 919 O 98.4086 -1.66833 -0.999847 0
M  V30 920 C 98.6916 -2.73534 2.34203 0
M  V30 921 C 98.5446 -2.34993 3.83534 0
M  V30 922 C 99.8636 -3.75635 2.29317 0
M  V30 923 H 96.9826 -0.542714 0.498629 0
M  V30 924 H 99.6246 -0.839597 1.70443 0
M  V30 925 H 97.7746 -3.29553 2.05736 0
M  V30 926 H 99.4466 -1.84601 4.22753 0
M  V30 927 H 97.6896 -1.67213 4.00278 0
M  V30 928 H 98.3606 -3.23738 4.47099 0
M  V30 929 H 100.837 -3.29203 2.54489 0
M  V30 930 H 99.7126 -4.60008 2.99472 0
M  V30 931 H 99.9736 -4.22603 1.29842 0
M  V30 932 N 99.0327 -1.24633 -0.964593 0
M  V30 933 C 100.449 -1.01239 -1.2338 0
M  V30 934 C 100.649 0.2769 -1.99588 0
M  V30 935 O 99.7047 0.992241 -2.32187 0
M  V30 936 C 101.018 -2.22937 -2.01791 0
M  V30 937 C 102.566 -2.27594 -2.14872 0
M  V30 938 C 103.041 -3.48921 -2.96678 0
M  V30 939 N 104.532 -3.49257 -3.04259 0
M  V30 940 C 105.267 -4.39795 -3.67924 0
M  V30 941 N 104.763 -5.40591 -4.33281 0
M  V30 942 N 106.556 -4.275 -3.64966 0
M  V30 943 H 98.7067 -2.0748 -0.454502 0
M  V30 944 H 100.97 -0.910647 -0.26349 0
M  V30 945 H 100.676 -3.16587 -1.53184 0
M  V30 946 H 100.55 -2.25306 -3.02518 0
M  V30 947 H 102.937 -1.34473 -2.6268 0
M  V30 948 H 103.018 -2.2925 -1.13482 0
M  V30 949 H 102.662 -4.42359 -2.49562 0
M  V30 950 H 102.592 -3.4451 -3.98272 0
M  V30 951 H 105.083 -2.76337 -2.57771 0
M  V30 952 H 105.396 -6.05904 -4.79687 0
M  V30 953 H 103.741 -5.44475 -4.3194 0
M  V30 954 H 106.932 -3.47987 -3.13086 0
M  V30 955 H 107.105 -4.98258 -4.14298 0
M  V30 956 N 100.511 1.16574 -1.06058 0
M  V30 957 C 101.927 1.3904 -0.783585 0
M  V30 958 C 102.127 1.91784 0.618145 0
M  V30 959 O 101.183 2.11511 1.37911 0
M  V30 960 C 102.496 2.37329 -1.84649 0
M  V30 961 C 104.044 2.51018 -1.86973 0
M  V30 962 C 104.519 3.52588 -2.92311 0
M  V30 963 N 106.01 3.60113 -2.91329 0
M  V30 964 C 106.745 4.38486 -3.69482 0
M  V30 965 N 106.241 5.20302 -4.57447 0
M  V30 966 N 108.034 4.33446 -3.57885 0
M  V30 967 H 100.185 0.806725 -1.96483 0
M  V30 968 H 102.448 0.417117 -0.851303 0
M  V30 969 H 102.154 2.05663 -2.85299 0
M  V30 970 H 102.028 3.36946 -1.6955 0
M  V30 971 H 104.415 2.81989 -0.869827 0
M  V30 972 H 104.496 1.51445 -2.0615 0
M  V30 973 H 104.14 3.22354 -3.92492 0
M  V30 974 H 104.07 4.51886 -2.70383 0
M  V30 975 H 106.561 3.01707 -2.27555 0
M  V30 976 H 106.874 5.77311 -5.13743 0
M  V30 977 H 105.219 5.19653 -4.61503 0
M  V30 978 H 108.41 3.68586 -2.88551 0
M  V30 979 H 108.583 4.94279 -4.19037 0
M  V30 980 N 101.989 0.842826 1.3317 0
M  V30 981 C 102.952 0.284065 2.27433 0
M  V30 982 C 103.952 -0.54948 1.5112 0
M  V30 983 O 105.142 -0.362699 1.70382 0
M  V30 984 C 102.274 -0.599384 3.35589 0
M  V30 985 H 103.467 1.11589 2.78366 0
M  V30 986 H 101.02 0.616221 1.4364 0
M  V30 987 H 101.755 -1.45349 2.89904 0
M  V30 988 H 101.54 -0.00291266 3.921 0
M  V30 989 H 103.03 -0.983488 4.05854 0
M  V30 990 N 103.467 -1.45747 0.599634 0
M  V30 991 C 104.883 -1.57424 0.26264 0
M  V30 992 C 105.083 -1.59222 -1.23493 0
M  V30 993 O 104.139 -1.51825 -2.01756 0
M  V30 994 C 105.452 -2.86061 0.926795 0
M  V30 995 C 107 -2.99722 0.901967 0
M  V30 996 C 107.475 -4.31119 1.54598 0
M  V30 997 N 108.966 -4.37858 1.5111 0
M  V30 998 C 109.701 -5.3818 1.97863 0
M  V30 999 N 109.197 -6.45083 2.52666 0
M  V30 1000 N 110.99 -5.29487 1.88679 0
M  V30 1001 H 103.141 -1.42823 1.57211 0
M  V30 1002 H 105.404 -0.68235 0.658105 0
M  V30 1003 H 105.11 -2.90605 1.98095 0
M  V30 1004 H 104.984 -3.74563 0.445238 0
M  V30 1005 H 107.371 -2.9475 -0.143617 0
M  V30 1006 H 107.452 -2.12652 1.42171 0
M  V30 1007 H 107.096 -4.36849 2.59085 0
M  V30 1008 H 107.026 -5.16992 1.00132 0
M  V30 1009 H 109.517 -3.61209 1.11068 0
M  V30 1010 H 109.83 -7.17869 2.86155 0
M  V30 1011 H 108.175 -6.45856 2.56701 0
M  V30 1012 H 111.366 -4.44877 1.4561 0
M  V30 1013 H 111.539 -6.07524 2.25429 0
M  V30 1014 N 104.945 -0.338344 -1.53925 0
M  V30 1015 C 106.173 0.261298 -2.05243 0
M  V30 1016 C 106.588 1.44625 -1.21363 0
M  V30 1017 O 105.945 1.80811 -0.247736 0
M  V30 1018 C 105.996 0.681412 -3.5502 0
M  V30 1019 O 105.717 -0.456414 -4.35716 0
M  V30 1020 C 107.218 1.34232 -4.22489 0
M  V30 1021 H 104.438 0.0513685 -0.669031 0
M  V30 1022 H 106.982 -0.488822 -1.98572 0
M  V30 1023 H 105.137 1.38148 -3.61931 0
M  V30 1024 H 105.551 -0.122564 -5.24357 0
M  V30 1025 H 107.025 1.58708 -5.28693 0
M  V30 1026 H 107.502 2.29426 -3.74514 0
M  V30 1027 H 108.108 0.684424 -4.19757 0
M  V30 1028 N 106.423 1.57458 -0.0668435 0
M  V30 1029 C 107.333 2.15937 0.916975 0
M  V30 1030 C 108.349 1.12123 1.33058 0
M  V30 1031 O 109.525 1.44366 1.40429 0
M  V30 1032 C 106.59 2.70547 2.16807 0
M  V30 1033 C 105.651 3.89215 1.81135 0
M  V30 1034 C 104.884 4.41211 3.0028 0
M  V30 1035 O 105.107 3.92225 4.14144 0
M  V30 1036 O 104.041 5.32605 2.80384 0
M  V30 1037 H 107.867 3.00354 0.449561 0
M  V30 1038 H 105.452 1.48584 0.155949 0
M  V30 1039 H 107.334 3.0557 2.90181 0
M  V30 1040 H 106.009 1.89192 2.62656 0
M  V30 1041 H 104.916 3.59054 1.05028 0
M  V30 1042 H 106.249 4.71848 1.40073 0
M  V30 1043 N 107.901 -0.206675 1.56239 0
M  V30 1044 C 108.831 -1.25909 1.96645 0
M  V30 1045 C 109.812 -1.48097 0.836734 0
M  V30 1046 O 110.997 -1.6003 1.10019 0
M  V30 1047 C 108.127 -2.6058 2.29599 0
M  V30 1048 C 107.081 -2.53024 3.452 0
M  V30 1049 C 106.407 -3.91861 3.63798 0
M  V30 1050 C 107.707 -2.06524 4.79734 0
M  V30 1051 H 109.401 -0.923369 2.84806 0
M  V30 1052 H 106.947 -0.442735 1.37025 0
M  V30 1053 H 108.9 -3.34375 2.56459 0
M  V30 1054 H 107.624 -2.95869 1.38307 0
M  V30 1055 H 106.283 -1.81684 3.18412 0
M  V30 1056 H 105.931 -4.24483 2.69857 0
M  V30 1057 H 105.631 -3.87683 4.4156 0
M  V30 1058 H 107.155 -4.67296 3.93022 0
M  V30 1059 H 108.569 -2.70072 5.05702 0
M  V30 1060 H 106.966 -2.13374 5.60885 0
M  V30 1061 H 108.036 -1.01802 4.74093 0
M  V30 1062 N 109.379 -1.50304 -0.473955 0
M  V30 1063 C 110.627 -1.60832 -1.22382 0
M  V30 1064 C 110.948 -0.30939 -1.9253 0
M  V30 1065 O 110.218 0.67296 -1.83978 0
M  V30 1066 H 108.798 -0.592652 -0.454723 0
M  V30 1067 H 111.46 -1.87068 -0.546968 0
M  V30 1068 H 110.556 -2.41803 -1.97327 0
M  V30 1069 N 110.857 0.726932 -1.39834 0
M  V30 1070 C 112.082 1.52121 -1.40976 0
M  V30 1071 C 112.507 1.88098 -0.00826029 0
M  V30 1072 O 111.865 1.52479 0.980807 0
M  V30 1073 C 111.913 2.78021 -2.29644 0
M  V30 1074 O 111.017 3.74272 -1.73188 0
M  V30 1075 H 110.358 0.45908 -0.479731 0
M  V30 1076 H 112.888 0.896207 -1.83927 0
M  V30 1077 H 112.898 3.26671 -2.44438 0
M  V30 1078 H 111.573 2.51169 -3.31492 0
M  V30 1079 H 110.15 3.33073 -1.6768 0
M  V30 1080 N 112.336 1.25143 0.95797 0
M  V30 1081 C 113.584 1.09476 1.69881 0
M  V30 1082 C 113.905 -0.365502 1.91544 0
M  V30 1083 O 113.175 -1.25985 1.50015 0
M  V30 1084 H 111.755 0.402128 0.629525 0
M  V30 1085 H 114.417 1.57214 1.15194 0
M  V30 1086 H 113.513 1.60046 2.6794 0
M  V30 1087 N 113.814 -1.1601 1.06675 0
M  V30 1088 C 115.039 -1.91068 0.806706 0
M  V30 1089 C 115.464 -1.77112 -0.633485 0
M  V30 1090 O 114.822 -1.09908 -1.44187 0
M  V30 1091 C 114.87 -3.39655 1.21106 0
M  V30 1092 O 113.974 -4.10893 0.352189 0
M  V30 1093 H 113.315 -0.595125 0.294486 0
M  V30 1094 H 115.845 -1.46955 1.42356 0
M  V30 1095 H 115.855 -3.90434 1.18428 0
M  V30 1096 H 114.53 -3.49132 2.26008 0
M  V30 1097 H 113.107 -3.70285 0.440868 0
M  V30 1098 N 115.292 -0.849877 -1.32721 0
M  V30 1099 C 116.517 -0.463856 -2.02146 0
M  V30 1100 C 116.942 0.930449 -1.63476 0
M  V30 1101 O 116.3 1.61033 -0.832952 0
M  V30 1102 C 116.348 -0.604955 -3.55489 0
M  V30 1103 O 115.452 0.36425 -4.10788 0
M  V30 1104 H 114.793 -0.187046 -0.637111 0
M  V30 1105 H 117.323 -1.14775 -1.69375 0
M  V30 1106 H 117.333 -0.490696 -4.05038 0
M  V30 1107 H 116.008 -1.62174 -3.82978 0
M  V30 1108 H 114.585 0.206628 -3.72327 0
M  V30 1109 N 116.77 1.45427 -0.607355 0
M  V30 1110 C 117.733 2.28974 0.101693 0
M  V30 1111 C 118.733 1.39754 0.795329 0
M  V30 1112 O 119.923 1.61878 0.643527 0
M  V30 1113 C 117.055 3.20768 1.15414 0
M  V30 1114 H 118.248 2.93147 -0.632844 0
M  V30 1115 H 115.801 1.51945 -0.366391 0
M  V30 1116 H 116.536 2.61395 1.91945 0
M  V30 1117 H 116.321 3.86489 0.66098 0
M  V30 1118 H 117.811 3.83589 1.65073 0
M  V30 1119 N 118.248 0.346503 1.53744 0
M  V30 1120 C 119.496 -0.248612 2.00565 0
M  V30 1121 C 119.817 -1.5083 1.23593 0
M  V30 1122 O 119.087 -1.92858 0.343912 0
M  V30 1123 H 117.667 -0.0948564 0.740953 0
M  V30 1124 H 120.329 0.468341 1.89189 0
M  V30 1125 H 119.425 -0.488994 3.08245 0
M  V30 1126 N 119.726 -1.57421 0.075193 0
M  V30 1127 C 120.951 -1.98364 -0.605515 0
M  V30 1128 C 121.376 -0.953383 -1.62149 0
M  V30 1129 O 120.734 0.0806053 -1.81121 0
M  V30 1130 C 120.782 -3.38332 -1.24756 0
M  V30 1131 O 119.886 -3.37959 -2.36342 0
M  V30 1132 H 119.227 -0.645553 -0.155428 0
M  V30 1133 H 121.757 -2.04044 0.150714 0
M  V30 1134 H 121.767 -3.75591 -1.5936 0
M  V30 1135 H 120.442 -4.12846 -0.503129 0
M  V30 1136 H 119.019 -3.12474 -2.03506 0
M  V30 1137 N 121.204 0.198386 -1.56346 0
M  V30 1138 C 122.167 1.22952 -1.93431 0
M  V30 1139 C 123.167 1.38611 -0.815092 0
M  V30 1140 O 124.357 1.36479 -1.08255 0
M  V30 1141 C 121.489 2.59946 -2.20546 0
M  V30 1142 H 122.682 0.912626 -2.85677 0
M  V30 1143 H 120.235 0.43977 -1.49986 0
M  V30 1144 H 120.97 2.96696 -1.30927 0
M  V30 1145 H 120.755 2.49953 -3.02102 0
M  V30 1146 H 122.245 3.3431 -2.50253 0
M  V30 1147 N 122.682 1.50554 0.465978 0
M  V30 1148 C 123.645 1.69233 1.54574 0
M  V30 1149 C 124.645 0.562901 1.50626 0
M  V30 1150 O 125.835 0.830016 1.53155 0
M  V30 1151 C 122.967 1.7223 2.94193 0
M  V30 1152 H 124.16 2.65571 1.39327 0
M  V30 1153 H 121.713 1.40111 0.692711 0
M  V30 1154 H 122.448 0.77603 3.14878 0
M  V30 1155 H 122.233 2.54285 2.98466 0
M  V30 1156 H 123.723 1.88618 3.72576 0
M  V30 1157 N 124.16 -0.719506 1.40217 0
M  V30 1158 C 125.571 -1.29848 1.34151 0
M  V30 1159 C 125.922 -1.96196 0.0131349 0
M  V30 1160 O 125.047 -1.973 -0.88892 0
M  V30 1161 C 125.642 -2.36118 2.42968 0
M  V30 1162 C 124.201 -2.8965 2.40374 0
M  V30 1163 C 123.348 -1.63393 2.24049 0
M  V30 1164 H 126.299 -0.51591 1.5008 0
M  V30 1165 H 126.32 -3.16871 2.10649 0
M  V30 1166 H 125.832 -1.878 3.39636 0
M  V30 1167 H 123.933 -3.42208 1.47392 0
M  V30 1168 H 124.046 -3.4171 3.35814 0
M  V30 1169 H 122.41 -1.88312 1.71495 0
M  V30 1170 H 123.193 -1.17104 3.2271 0
M  V30 1171 N 125.638 -1.25649 -0.95132 0
M  V30 1172 C 126.601 -1.06399 -2.03007 0
M  V30 1173 C 127.601 -0.0156794 -1.60792 0
M  V30 1174 O 128.791 -0.25817 -1.72276 0
M  V30 1175 C 125.923 -0.616184 -3.35285 0
M  V30 1176 H 127.116 -2.02164 -2.21517 0
M  V30 1177 H 124.669 -1.08103 -1.12887 0
M  V30 1178 H 125.404 0.343917 -3.22471 0
M  V30 1179 H 125.189 -1.37301 -3.67275 0
M  V30 1180 H 126.679 -0.503032 -4.14559 0
M  V30 1181 N 127.117 1.15442 -1.07289 0
M  V30 1182 C 128.08 2.18358 -0.696591 0
M  V30 1183 C 129.08 1.58637 0.262837 0
M  V30 1184 O 130.27 1.74145 0.0438809 0
M  V30 1185 C 127.402 3.4089 -0.0266151 0
M  V30 1186 H 128.595 2.53162 -1.60776 0
M  V30 1187 H 126.148 1.29893 -0.869342 0
M  V30 1188 H 126.883 3.11653 0.896822 0
M  V30 1189 H 126.668 3.85495 -0.716657 0
M  V30 1190 H 128.158 4.17009 0.222028 0
M  V30 1191 N 128.595 0.856903 1.32268 0
M  V30 1192 C 129.823 0.475439 2.01363 0
M  V30 1193 C 130.238 -0.928486 1.64392 0
M  V30 1194 O 129.595 -1.60624 0.866387 0
M  V30 1195 C 129.646 0.607545 3.56358 0
M  V30 1196 O 129.367 1.95617 3.92002 0
M  V30 1197 C 130.868 0.225382 4.42727 0
M  V30 1198 H 128.088 0.186636 0.644521 0
M  V30 1199 H 130.632 1.15446 1.68797 0
M  V30 1200 H 128.787 -0.0237719 3.87393 0
M  V30 1201 H 129.201 1.95455 4.86721 0
M  V30 1202 H 130.675 0.368813 5.50767 0
M  V30 1203 H 131.152 -0.834369 4.31202 0
M  V30 1204 H 131.758 0.831864 4.17085 0
M  V30 1205 N 130.073 -1.45103 0.615059 0
M  V30 1206 C 131.301 -2.06553 0.11977 0
M  V30 1207 C 131.716 -1.45842 -1.19898 0
M  V30 1208 O 131.073 -0.575325 -1.73194 0
M  V30 1209 C 131.124 -3.61495 -0.018364 0
M  V30 1210 O 130.845 -4.19942 1.24822 0
M  V30 1211 C 132.346 -4.39947 -0.544237 0
M  V30 1212 H 129.566 -0.667096 0.0722739 0
M  V30 1213 H 132.11 -1.8623 0.84491 0
M  V30 1214 H 130.265 -3.81135 -0.693865 0
M  V30 1215 H 130.679 -5.13204 1.0827 0
M  V30 1216 H 132.153 -5.48838 -0.589953 0
M  V30 1217 H 132.63 -4.10255 -1.56805 0
M  V30 1218 H 133.236 -4.25188 0.0974703 0
M  V30 1219 N 131.551 -0.354651 -1.53558 0
M  V30 1220 C 132.776 0.242153 -2.05981 0
M  V30 1221 C 133.201 1.42553 -1.2272 0
M  V30 1222 O 132.559 1.79656 -0.243604 0
M  V30 1223 C 132.607 0.624367 -3.55154 0
M  V30 1224 O 131.711 1.72301 -3.74681 0
M  V30 1225 H 131.052 0.0378432 -0.662921 0
M  V30 1226 H 133.582 -0.512087 -1.98088 0
M  V30 1227 H 133.592 0.898433 -3.97985 0
M  V30 1228 H 132.267 -0.240989 -4.15201 0
M  V30 1229 H 130.844 1.44535 -3.4375 0
M  V30 1230 N 133.029 1.57378 -0.0835403 0
M  V30 1231 C 134.445 1.57246 0.273109 0
M  V30 1232 C 134.645 1.09385 1.69225 0
M  V30 1233 O 133.701 0.765051 2.40631 0
M  V30 1234 C 135.014 3.00614 0.0720628 0
M  V30 1235 C 136.562 3.12684 0.1407 0
M  V30 1236 C 137.037 4.57989 -0.0322094 0
M  V30 1237 N 138.528 4.63194 0.0230085 0
M  V30 1238 C 139.263 5.73335 -0.0861941 0
M  V30 1239 N 138.759 6.9235 -0.24958 0
M  V30 1240 N 140.552 5.62093 -0.0282886 0
M  V30 1241 H 132.703 1.86801 -1.0109 0
M  V30 1242 H 134.966 0.861687 -0.395222 0
M  V30 1243 H 134.672 3.39786 -0.907662 0
M  V30 1244 H 134.546 3.68193 0.81936 0
M  V30 1245 H 136.933 2.73391 1.11092 0
M  V30 1246 H 137.014 2.47719 -0.637896 0
M  V30 1247 H 136.658 4.97973 -0.999247 0
M  V30 1248 H 136.588 5.21 0.765937 0
M  V30 1249 H 139.079 3.77613 0.14722 0
M  V30 1250 H 139.392 7.72117 -0.324733 0
M  V30 1251 H 137.737 6.94415 -0.285097 0
M  V30 1252 H 140.928 4.67997 0.0981408 0
M  V30 1253 H 141.101 6.47895 -0.116845 0
M  V30 1254 N 134.507 -0.190092 1.56449 0
M  V30 1255 C 135.755 -0.907908 1.80559 0
M  V30 1256 C 136.076 -1.83583 0.657438 0
M  V30 1257 O 135.346 -1.93203 -0.323924 0
M  V30 1258 H 133.926 -0.338247 0.666032 0
M  V30 1259 H 136.588 -0.194403 1.93928 0
M  V30 1260 H 135.684 -1.49604 2.73907 0
M  V30 1261 N 135.985 -1.50799 -0.457987 0
M  V30 1262 C 137.401 -1.38515 -0.792819 0
M  V30 1263 C 137.601 -0.451409 -1.96379 0
M  V30 1264 O 136.657 0.10112 -2.52297 0
M  V30 1265 C 137.97 -2.80149 -1.09258 0
M  V30 1266 C 139.518 -2.89156 -1.19825 0
M  V30 1267 C 139.993 -4.31651 -1.53106 0
M  V30 1268 N 141.484 -4.34662 -1.60072 0
M  V30 1269 C 142.219 -5.41928 -1.87354 0
M  V30 1270 N 141.715 -6.59384 -2.12568 0
M  V30 1271 N 143.508 -5.29385 -1.88965 0
M  V30 1272 H 135.659 -2.10073 0.313511 0
M  V30 1273 H 137.922 -0.944803 0.0777862 0
M  V30 1274 H 137.628 -3.50374 -0.305084 0
M  V30 1275 H 137.502 -3.18204 -2.02549 0
M  V30 1276 H 139.889 -2.19141 -1.97639 0
M  V30 1277 H 139.97 -2.54626 -0.244821 0
M  V30 1278 H 139.614 -5.02208 -0.758266 0
M  V30 1279 H 139.544 -4.63678 -2.49621 0
M  V30 1280 H 142.035 -3.49973 -1.42573 0
M  V30 1281 H 142.348 -7.36934 -2.32696 0
M  V30 1282 H 140.693 -6.62535 -2.09933 0
M  V30 1283 H 143.884 -4.36616 -1.68772 0
M  V30 1284 H 144.057 -6.13066 -2.09891 0
M  V30 1285 N 137.463 0.71206 -1.40597 0
M  V30 1286 C 138.879 1.02058 -1.22704 0
M  V30 1287 C 139.079 2.01228 -0.104729 0
M  V30 1288 O 138.135 2.4674 0.53624 0
M  V30 1289 C 139.448 1.56094 -2.57012 0
M  V30 1290 C 140.996 1.6806 -2.64054 0
M  V30 1291 C 141.471 2.25501 -3.9864 0
M  V30 1292 N 142.962 2.32882 -4.004 0
M  V30 1293 C 143.697 2.78317 -5.01325 0
M  V30 1294 N 143.193 3.23478 -6.12645 0
M  V30 1295 N 144.986 2.77733 -4.88693 0
M  V30 1296 H 137.137 0.0547896 -2.12329 0
M  V30 1297 H 139.4 0.0869027 -0.944008 0
M  V30 1298 H 139.106 0.906865 -3.39807 0
M  V30 1299 H 138.98 2.54564 -2.78347 0
M  V30 1300 H 141.367 2.32583 -1.81629 0
M  V30 1301 H 141.448 0.681802 -2.46546 0
M  V30 1302 H 141.092 1.61598 -4.81506 0
M  V30 1303 H 141.022 3.26102 -4.13479 0
M  V30 1304 H 143.513 2.00991 -3.20017 0
M  V30 1305 H 143.826 3.56725 -6.85542 0
M  V30 1306 H 142.171 3.21429 -6.16205 0
M  V30 1307 H 145.362 2.4179 -4.00818 0
M  V30 1308 H 145.535 3.12826 -5.67489 0
M  V30 1309 N 138.941 1.26152 0.944643 0
M  V30 1310 C 140.357 1.03189 1.21754 0
M  V30 1311 C 140.557 -0.245112 2.00004 0
M  V30 1312 O 139.613 -0.955176 2.33736 0
M  V30 1313 C 140.926 2.26119 1.98219 0
M  V30 1314 C 142.474 2.30984 2.11224 0
M  V30 1315 C 142.949 3.53597 2.91089 0
M  V30 1316 N 144.44 3.54053 2.98664 0
M  V30 1317 C 145.175 4.45593 3.60881 0
M  V30 1318 N 144.671 5.47416 4.24626 0
M  V30 1319 N 146.464 4.33252 3.58119 0
M  V30 1320 H 138.615 2.08177 0.421437 0
M  V30 1321 H 140.878 0.914723 0.248969 0
M  V30 1322 H 140.584 3.18984 1.48128 0
M  V30 1323 H 140.458 2.3009 2.98895 0
M  V30 1324 H 142.845 1.38635 2.60508 0
M  V30 1325 H 142.926 2.31026 1.09821 0
M  V30 1326 H 142.57 4.46273 2.42493 0
M  V30 1327 H 142.5 3.50802 3.92741 0
M  V30 1328 H 144.991 2.80403 2.53343 0
M  V30 1329 H 145.304 6.13459 4.69987 0
M  V30 1330 H 143.649 5.51278 4.23223 0
M  V30 1331 H 146.84 3.52924 3.0751 0
M  V30 1332 H 147.013 5.04786 4.06319 0
M  V30 1333 N 140.419 -1.14872 1.07899 0
M  V30 1334 C 141.369 -2.17809 0.674027 0
M  V30 1335 C 142.353 -1.58008 -0.303699 0
M  V30 1336 O 143.545 -1.76616 -0.11654 0
M  V30 1337 C 140.674 -3.43208 0.0793318 0
M  V30 1338 C 139.76 -4.10051 1.08253 0
M  V30 1339 N 140.151 -4.52296 2.2641 0
M  V30 1340 C 138.449 -4.36469 0.917124 0
M  V30 1341 C 139.15 -5.04199 2.901 0
M  V30 1342 N 138.126 -4.98088 2.17736 0
M  V30 1343 H 141.928 -2.48207 1.57386 0
M  V30 1344 H 139.442 -1.315 0.952976 0
M  V30 1345 H 141.439 -4.16272 -0.228719 0
M  V30 1346 H 140.099 -3.14291 -0.815551 0
M  V30 1347 H 141.11 -4.45504 2.64096 0
M  V30 1348 H 137.787 -4.17432 0.0756078 0
M  V30 1349 H 139.177 -5.46802 3.90458 0
M  V30 1350 N 141.898 -0.863906 -1.31812 0
M  V30 1351 C 143.138 -0.47825 -1.98726 0
M  V30 1352 C 143.502 0.950397 -1.66828 0
M  V30 1353 O 144.703 1.44109 -2.26905 0
M  V30 1354 C 142.974 -0.721134 -3.50049 0
M  V30 1355 S 144.533 -0.434432 -4.36644 0
M  V30 1356 H 141.351 -0.178773 -0.688158 0
M  V30 1357 H 143.953 -1.11862 -1.60334 0
M  V30 1358 H 142.657 -1.75981 -3.70755 0
M  V30 1359 H 142.188 -0.0675315 -3.93342 0
M  V30 1360 H 144.203 0.735786 -4.90714 0
M  V30 1361 N 143.376 1.44774 -0.622745 0
M  V30 1362 C 144.616 2.04004 -0.127102 0
M  V30 1363 C 144.98 1.47862 1.22478 0
M  V30 1364 O 146.181 1.98541 1.81204 0
M  V30 1365 C 144.452 3.57247 -0.104429 0
M  V30 1366 S 146.011 4.37574 0.327814 0
M  V30 1367 H 142.829 0.708713 -0.0569776 0
M  V30 1368 H 145.431 1.77275 -0.824253 0
M  V30 1369 H 144.135 3.95616 -1.09159 0
M  V30 1370 H 143.666 3.88575 0.614236 0
M  V30 1371 H 145.681 4.70575 1.57395 0
M  V30 1372 N 144.854 0.36279 1.53368 0
M  V30 1373 C 146.079 -0.231226 2.06107 0
M  V30 1374 C 146.504 -1.419 1.23474 0
M  V30 1375 O 145.862 -1.79524 0.253128 0
M  V30 1376 C 145.91 -0.605523 3.5548 0
M  V30 1377 O 145.014 -1.70312 3.7559 0
M  V30 1378 H 144.355 -0.034327 0.663112 0
M  V30 1379 H 146.885 0.522584 1.97814 0
M  V30 1380 H 146.895 -0.877314 3.98456 0
M  V30 1381 H 145.57 0.263004 4.15068 0
M  V30 1382 H 144.147 -1.4271 3.44512 0
M  V30 1383 N 146.332 -1.57332 0.0918853 0
M  V30 1384 C 147.557 -1.98995 -0.584442 0
M  V30 1385 C 147.982 -0.970528 -1.61128 0
M  V30 1386 O 147.34 0.0613904 -1.81196 0
M  V30 1387 C 147.388 -3.39636 -1.21161 0
M  V30 1388 O 146.492 -3.40447 -2.32744 0
M  V30 1389 H 145.833 -0.647165 -0.148572 0
M  V30 1390 H 148.363 -2.03873 0.172347 0
M  V30 1391 H 148.373 -3.7726 -1.55367 0
M  V30 1392 H 147.048 -4.13356 -0.459313 0
M  V30 1393 H 145.625 -3.14614 -2.0018 0
M  V30 1394 N 147.81 0.181792 -1.56548 0
M  V30 1395 C 148.773 1.20894 -1.94724 0
M  V30 1396 C 149.773 1.37738 -0.829747 0
M  V30 1397 O 150.963 1.35323 -1.09697 0
M  V30 1398 C 148.095 2.57593 -2.23291 0
M  V30 1399 H 149.288 0.882275 -2.86629 0
M  V30 1400 H 146.841 0.423838 -1.50444 0
M  V30 1401 H 147.576 2.95291 -1.34067 0
M  V30 1402 H 147.361 2.46735 -3.04736 0
M  V30 1403 H 148.851 3.31637 -2.53785 0
M  V30 1404 N 149.288 1.51039 0.449983 0
M  V30 1405 C 150.198 1.74261 1.57067 0
M  V30 1406 C 151.214 0.626363 1.62335 0
M  V30 1407 O 152.39 0.907162 1.79812 0
M  V30 1408 C 149.455 1.85114 2.93144 0
M  V30 1409 C 148.516 3.0893 2.98095 0
M  V30 1410 C 147.749 3.19256 4.27681 0
M  V30 1411 O 147.972 2.35835 5.19363 0
M  V30 1412 O 146.906 4.12144 4.38658 0
M  V30 1413 H 150.732 2.69303 1.40391 0
M  V30 1414 H 148.317 1.35389 0.631688 0
M  V30 1415 H 150.199 1.94311 3.73926 0
M  V30 1416 H 148.874 0.932588 3.09975 0
M  V30 1417 H 147.781 3.0522 2.16314 0
M  V30 1418 H 149.114 4.00433 2.86206 0
M  V30 1419 N 150.766 -0.704594 1.40972 0
M  V30 1420 C 151.729 -1.80035 1.41845 0
M  V30 1421 C 152.729 -1.57774 0.310474 0
M  V30 1422 O 153.919 -1.64613 0.56992 0
M  V30 1423 C 151.051 -3.18284 1.22098 0
M  V30 1424 H 152.244 -1.80658 2.3938 0
M  V30 1425 H 149.797 -0.911329 1.26982 0
M  V30 1426 H 150.532 -3.23306 0.253672 0
M  V30 1427 H 150.317 -3.35843 2.02366 0
M  V30 1428 H 151.807 -3.98289 1.25522 0
M  V30 1429 N 152.244 -1.26651 -0.937939 0
M  V30 1430 C 153.154 -1.10276 -2.07066 0
M  V30 1431 C 154.17 -0.0354197 -1.73964 0
M  V30 1432 O 155.346 -0.239816 -1.99967 0
M  V30 1433 C 152.411 -0.740887 -3.38691 0
M  V30 1434 C 151.472 -1.88799 -3.85556 0
M  V30 1435 C 150.705 -1.54329 -5.10899 0
M  V30 1436 O 150.928 -0.446494 -5.6865 0
M  V30 1437 O 149.862 -2.37911 -5.52885 0
M  V30 1438 H 153.688 -2.05309 -2.23789 0
M  V30 1439 H 151.273 -1.05743 -1.0554 0
M  V30 1440 H 153.155 -0.55195 -4.1777 0
M  V30 1441 H 151.83 0.180022 -3.23199 0
M  V30 1442 H 150.737 -2.13191 -3.07409 0
M  V30 1443 H 152.07 -2.78874 -4.05574 0
M  V30 1444 N 153.722 1.14298 -1.08507 0
M  V30 1445 C 154.95 1.89219 -0.836876 0
M  V30 1446 C 155.365 1.78638 0.611054 0
M  V30 1447 O 154.722 1.14643 1.41998 0
M  V30 1448 C 154.773 3.39158 -1.25116 0
M  V30 1449 O 154.494 3.49449 -2.64229 0
M  V30 1450 C 155.995 4.31073 -1.03398 0
M  V30 1451 H 153.215 0.599328 -0.301739 0
M  V30 1452 H 155.759 1.44746 -1.44461 0
M  V30 1453 H 153.914 3.81251 -0.687514 0
M  V30 1454 H 154.328 4.42589 -2.81452 0
M  V30 1455 H 155.802 5.34646 -1.37323 0
M  V30 1456 H 156.279 4.3919 0.0289259 0
M  V30 1457 H 156.885 3.94738 -1.58311 0
M  V30 1458 N 155.201 0.870884 1.31352 0
M  V30 1459 C 156.133 0.28455 2.27427 0
M  V30 1460 C 157.146 -0.552927 1.53123 0
M  V30 1461 O 158.335 -0.374771 1.74521 0
M  V30 1462 C 155.435 -0.615164 3.3327 0
M  V30 1463 C 154.608 0.190079 4.36987 0
M  V30 1464 C 153.667 -0.637917 5.22319 0
M  V30 1465 O 152.693 -0.065626 5.69162 0
M  V30 1466 N 153.895 -1.94973 5.46778 0
M  V30 1467 H 156.66 1.11017 2.7838 0
M  V30 1468 H 154.221 0.732458 1.44384 0
M  V30 1469 H 156.213 -1.1748 3.87273 0
M  V30 1470 H 154.783 -1.34146 2.82354 0
M  V30 1471 H 154.003 0.931165 3.83044 0
M  V30 1472 H 155.291 0.742579 5.03352 0
M  V30 1473 H 154.689 -2.4378 5.10478 0
M  V30 1474 H 153.246 -2.45713 6.03712 0
M  V30 1475 N 156.679 -1.44442 0.630414 0
M  V30 1476 C 157.907 -2.06414 0.141671 0
M  V30 1477 C 158.322 -1.47105 -1.18345 0
M  V30 1478 O 157.679 -0.593662 -1.72574 0
M  V30 1479 C 157.73 -3.61494 0.0199784 0
M  V30 1480 O 157.451 -4.18594 1.29269 0
M  V30 1481 C 158.952 -4.40499 -0.497544 0
M  V30 1482 H 156.172 -0.666292 0.0793452 0
M  V30 1483 H 158.716 -1.85323 0.864614 0
M  V30 1484 H 156.871 -3.8185 -0.653402 0
M  V30 1485 H 157.285 -5.12026 1.13707 0
M  V30 1486 H 158.759 -5.49433 -0.531708 0
M  V30 1487 H 159.236 -4.11895 -1.52445 0
M  V30 1488 H 159.842 -4.25061 0.142562 0
M  V30 1489 N 158.157 -0.370918 -1.53173 0
M  V30 1490 C 159.397 0.217106 -2.03244 0
M  V30 1491 C 159.761 1.45558 -1.25207 0
M  V30 1492 O 160.962 2.11957 -1.65311 0
M  V30 1493 C 159.233 0.496664 -3.53932 0
M  V30 1494 S 160.792 1.0576 -4.25864 0
M  V30 1495 H 157.61 0.0627827 -0.708223 0
M  V30 1496 H 160.212 -0.515019 -1.88594 0
M  V30 1497 H 158.916 -0.412096 -4.08326 0
M  V30 1498 H 158.447 1.25772 -3.72753 0
M  V30 1499 H 160.462 2.34145 -4.37482 0
M  V30 1500 N 159.635 1.57281 -0.100228 0
M  V30 1501 C 160.865 1.98591 0.569681 0
M  V30 1502 C 161.273 0.978315 1.61943 0
M  V30 1503 O 160.616 -0.0396108 1.83657 0
M  V30 1504 C 160.678 3.36282 1.271 0
M  V30 1505 C 160.342 4.55488 0.371409 0
M  V30 1506 C 161.339 5.18491 -0.382504 0
M  V30 1507 C 159.024 5.01474 0.287965 0
M  V30 1508 C 161.018 6.25852 -1.20779 0
M  V30 1509 C 158.705 6.08701 -0.540965 0
M  V30 1510 C 159.703 6.70755 -1.28749 0
M  V30 1511 O 159.391 7.75914 -2.10269 0
M  V30 1512 H 159.123 0.65752 0.156982 0
M  V30 1513 H 161.677 2.0463 -0.177734 0
M  V30 1514 H 159.907 3.26941 2.0651 0
M  V30 1515 H 161.596 3.62005 1.83595 0
M  V30 1516 H 162.362 4.83891 -0.3278 0
M  V30 1517 H 158.241 4.52932 0.858689 0
M  V30 1518 H 161.785 6.74218 -1.79096 0
M  V30 1519 H 157.682 6.42732 -0.597131 0
M  V30 1520 H 158.45 7.92925 -2.03007 0
M  V30 1521 N 161.113 -0.173488 1.56642 0
M  V30 1522 C 162.341 -0.906095 1.86004 0
M  V30 1523 C 162.756 -1.75921 0.685355 0
M  V30 1524 O 162.113 -1.79198 -0.345578 0
M  V30 1525 C 162.164 -1.78462 3.14378 0
M  V30 1526 O 161.885 -0.965914 4.27319 0
M  V30 1527 C 163.386 -2.62707 3.57071 0
M  V30 1528 H 160.606 -0.263341 0.617165 0
M  V30 1529 H 163.15 -0.174236 2.03756 0
M  V30 1530 H 161.305 -2.46984 2.98459 0
M  V30 1531 H 161.719 -1.56655 5.00559 0
M  V30 1532 H 163.193 -3.19969 4.49804 0
M  V30 1533 H 163.67 -3.37472 2.81086 0
M  V30 1534 H 164.276 -1.99521 3.75595 0
M  V30 1535 N 162.591 -1.51276 -0.441967 0
M  V30 1536 C 163.816 -1.67799 -1.21895 0
M  V30 1537 C 164.241 -0.372864 -1.84367 0
M  V30 1538 O 163.599 0.666501 -1.68604 0
M  V30 1539 C 163.647 -2.79199 -2.28211 0
M  V30 1540 O 162.751 -2.42479 -3.33583 0
M  V30 1541 H 162.092 -0.559649 -0.357336 0
M  V30 1542 H 164.622 -1.97815 -0.522522 0
M  V30 1543 H 164.632 -3.03146 -2.73069 0
M  V30 1544 H 163.307 -3.73906 -1.82118 0
M  V30 1545 H 161.884 -2.29087 -2.94234 0
M  V30 1546 N 164.069 0.697108 -1.41344 0
M  V30 1547 C 165.315 1.4593 -1.40827 0
M  V30 1548 C 165.648 1.94193 -0.0167098 0
M  V30 1549 O 164.923 1.69425 0.955263 0
M  V30 1550 C 165.206 2.67229 -2.41373 0
M  V30 1551 C 165.059 2.24741 -3.8963 0
M  V30 1552 C 166.378 3.69423 -2.39196 0
M  V30 1553 H 163.497 0.529303 -0.512842 0
M  V30 1554 H 166.139 0.794112 -1.72609 0
M  V30 1555 H 164.289 3.23982 -2.14401 0
M  V30 1556 H 165.961 1.73327 -4.27499 0
M  V30 1557 H 164.204 1.56542 -4.0457 0
M  V30 1558 H 164.875 3.1177 -4.55525 0
M  V30 1559 H 167.351 3.2234 -2.63128 0
M  V30 1560 H 166.227 4.51907 -3.11563 0
M  V30 1561 H 166.488 4.19012 -1.41001 0
M  V30 1562 N 165.547 1.27147 0.931209 0
M  V30 1563 C 166.494 1.09568 2.03134 0
M  V30 1564 C 167.464 -0.00222433 1.661 0
M  V30 1565 O 168.649 0.159439 1.90133 0
M  V30 1566 C 165.789 0.745231 3.36957 0
M  V30 1567 C 164.902 1.92041 3.86968 0
M  V30 1568 C 164.037 1.51216 5.09222 0
M  V30 1569 C 163.076 2.65504 5.5152 0
M  V30 1570 N 162.213 2.25291 6.64972 0
M  V30 1571 H 167.053 2.03708 2.17502 0
M  V30 1572 H 164.59 1.01411 1.06556 0
M  V30 1573 H 166.548 0.522878 4.1391 0
M  V30 1574 H 165.178 -0.159202 3.22407 0
M  V30 1575 H 164.23 2.25541 3.06326 0
M  V30 1576 H 165.542 2.77787 4.1429 0
M  V30 1577 H 164.696 1.25084 5.93666 0
M  V30 1578 H 163.435 0.625749 4.83669 0
M  V30 1579 H 162.44 2.92354 4.65628 0
M  V30 1580 H 163.665 3.54761 5.7907 0
M  V30 1581 H 161.611 1.39098 6.41083 0
M  V30 1582 H 161.528 3.04577 6.91931 0
M  V30 1583 H 162.796 2.02398 7.52765 0
M  V30 1584 N 167.025 -1.13721 1.09112 0
M  V30 1585 C 167.957 -2.1871 0.685467 0
M  V30 1586 C 168.97 -1.60527 -0.271068 0
M  V30 1587 O 170.159 -1.78407 -0.0576148 0
M  V30 1588 C 167.259 -3.38898 -0.0111255 0
M  V30 1589 C 166.432 -4.26597 0.966131 0
M  V30 1590 C 165.491 -5.25324 0.303539 0
M  V30 1591 O 164.517 -5.61213 0.950177 0
M  V30 1592 N 165.719 -5.72779 -0.943651 0
M  V30 1593 H 168.484 -2.54126 1.58871 0
M  V30 1594 H 166.045 -1.29012 0.978143 0
M  V30 1595 H 168.037 -4.02014 -0.465517 0
M  V30 1596 H 166.607 -3.01747 -0.816565 0
M  V30 1597 H 165.827 -3.60306 1.59917 0
M  V30 1598 H 167.115 -4.82048 1.6281 0
M  V30 1599 H 166.513 -5.45762 -1.48862 0
M  V30 1600 H 165.07 -6.37847 -1.34142 0
M  V30 1601 N 168.503 -0.877838 -1.30888 0
M  V30 1602 C 169.749 -0.493426 -1.96706 0
M  V30 1603 C 170.082 0.953504 -1.6918 0
M  V30 1604 O 169.357 1.67266 -0.992594 0
M  V30 1605 C 169.64 -0.760429 -3.51979 0
M  V30 1606 C 169.493 -2.25747 -3.89048 0
M  V30 1607 C 170.812 -0.232148 -4.39487 0
M  V30 1608 H 167.931 -0.180746 -0.714493 0
M  V30 1609 H 170.573 -1.10052 -1.54882 0
M  V30 1610 H 168.723 -0.243715 -3.87735 0
M  V30 1611 H 170.395 -2.84204 -3.63354 0
M  V30 1612 H 168.638 -2.72694 -3.37373 0
M  V30 1613 H 169.309 -2.39491 -4.97341 0
M  V30 1614 H 171.785 -0.674314 -4.106 0
M  V30 1615 H 170.661 -0.448355 -5.47066 0
M  V30 1616 H 170.922 0.866297 -4.33529 0
M  V30 1617 N 169.982 1.44106 -0.638065 0
M  V30 1618 C 171.207 2.0685 -0.150916 0
M  V30 1619 C 171.632 1.47417 1.16833 0
M  V30 1620 O 170.99 0.578264 1.71831 0
M  V30 1621 C 171.038 3.60555 -0.05708 0
M  V30 1622 O 170.142 4.00465 0.984972 0
M  V30 1623 H 169.483 0.658151 -0.0879399 0
M  V30 1624 H 172.013 1.84865 -0.876707 0
M  V30 1625 H 172.023 4.07789 0.131232 0
M  V30 1626 H 170.698 4.03193 -1.02021 0
M  V30 1627 H 169.275 3.64849 0.770672 0
M  V30 1628 N 171.46 0.379036 1.52974 0
M  V30 1629 C 172.685 -0.209353 2.06341 0
M  V30 1630 C 173.11 -1.40583 1.24972 0
M  V30 1631 O 172.468 -1.79246 0.272155 0
M  V30 1632 C 172.516 -0.567786 3.56102 0
M  V30 1633 O 171.62 -1.66318 3.77375 0
M  V30 1634 H 170.961 -0.0272919 0.663439 0
M  V30 1635 H 173.491 0.543536 1.97248 0
M  V30 1636 H 173.501 -0.835003 3.99364 0
M  V30 1637 H 172.176 0.307013 4.14765 0
M  V30 1638 H 170.753 -1.39048 3.46006 0
M  V30 1639 N 172.938 -1.57226 0.108567 0
M  V30 1640 C 173.901 -2.13602 -0.831082 0
M  V30 1641 C 174.901 -1.06841 -1.20173 0
M  V30 1642 O 176.091 -1.32666 -1.12895 0
M  V30 1643 C 173.223 -2.66769 -2.12243 0
M  V30 1644 H 174.416 -2.97951 -0.341317 0
M  V30 1645 H 171.969 -1.55667 -0.14057 0
M  V30 1646 H 172.704 -1.85977 -2.65675 0
M  V30 1647 H 172.489 -3.44839 -1.86625 0
M  V30 1648 H 173.979 -3.10332 -2.79435 0
M  V30 1649 N 174.416 0.165178 -1.56732 0
M  V30 1650 C 175.326 1.22423 -2.00125 0
M  V30 1651 C 176.342 1.48084 -0.913619 0
M  V30 1652 O 177.518 1.60112 -1.22172 0
M  V30 1653 C 174.583 2.54197 -2.35764 0
M  V30 1654 C 173.644 2.36343 -3.58386 0
M  V30 1655 C 172.877 3.61834 -3.92316 0
M  V30 1656 O 173.1 4.67267 -3.27135 0
M  V30 1657 O 172.034 3.55579 -4.85641 0
M  V30 1658 H 175.86 0.885886 -2.90492 0
M  V30 1659 H 173.445 0.372518 -1.44681 0
M  V30 1660 H 175.327 3.3192 -2.59629 0
M  V30 1661 H 174.002 2.87598 -1.48557 0
M  V30 1662 H 172.909 1.56632 -3.39731 0
M  V30 1663 H 174.242 2.07865 -4.46154 0
M  V30 1664 N 175.894 1.51508 0.433938 0
M  V30 1665 C 177.14 1.64588 1.18484 0
M  V30 1666 C 177.473 0.362666 1.90784 0
M  V30 1667 O 176.748 -0.637892 1.83742 0
M  V30 1668 C 177.031 2.85149 2.19913 0
M  V30 1669 C 176.884 4.23456 1.51674 0
M  V30 1670 C 178.203 3.01227 3.20858 0
M  V30 1671 H 175.322 0.598994 0.429389 0
M  V30 1672 H 177.964 1.84002 0.473647 0
M  V30 1673 H 176.114 2.68729 2.80566 0
M  V30 1674 H 177.786 4.51552 0.943322 0
M  V30 1675 H 176.029 4.25998 0.819035 0
M  V30 1676 H 176.7 5.03812 2.2556 0
M  V30 1677 H 179.176 3.16382 2.70263 0
M  V30 1678 H 178.052 3.87141 3.89118 0
M  V30 1679 H 178.313 2.13447 3.8716 0
M  V30 1680 N 177.372 -0.689602 1.41712 0
M  V30 1681 C 178.788 -1.00093 1.24312 0
M  V30 1682 C 178.988 -2.01036 0.136729 0
M  V30 1683 O 178.044 -2.47562 -0.496918 0
M  V30 1684 C 179.357 -1.51985 2.59463 0
M  V30 1685 C 180.905 -1.63838 2.66695 0
M  V30 1686 C 181.38 -2.1913 4.02177 0
M  V30 1687 N 182.871 -2.26483 4.04054 0
M  V30 1688 C 183.606 -2.70306 5.0569 0
M  V30 1689 N 183.102 -3.13691 6.17713 0
M  V30 1690 N 184.895 -2.69923 4.9305 0
M  V30 1691 H 177.046 -0.0210029 2.1239 0
M  V30 1692 H 179.309 -0.0718733 0.945272 0
M  V30 1693 H 179.015 -0.85269 3.41207 0
M  V30 1694 H 178.889 -2.50103 2.82362 0
M  V30 1695 H 181.276 -2.29664 1.85306 0
M  V30 1696 H 181.357 -0.642492 2.476 0
M  V30 1697 H 181.001 -1.53918 4.84016 0
M  V30 1698 H 180.931 -3.19482 4.18615 0
M  V30 1699 H 183.422 -1.95874 3.23174 0
M  V30 1700 H 183.735 -3.45773 6.9113 0
M  V30 1701 H 182.08 -3.11585 6.21241 0
M  V30 1702 H 185.271 -2.35382 4.04614 0
M  V30 1703 H 185.444 -3.03758 5.72394 0
M  V30 1704 N 178.85 -1.27639 -0.924453 0
M  V30 1705 C 180.099 -1.13549 -1.66702 0
M  V30 1706 C 180.412 0.317487 -1.93006 0
M  V30 1707 O 181.618 0.579333 -2.65247 0
M  V30 1708 C 180.074 -1.98426 -3.00259 0
M  V30 1709 C 179.682 -3.484 -2.81641 0
M  V30 1710 C 181.426 -1.92993 -3.78092 0
M  V30 1711 C 179.333 -4.25464 -4.10773 0
M  V30 1712 H 178.263 -0.421351 -0.625283 0
M  V30 1713 H 180.914 -1.52085 -1.02676 0
M  V30 1714 H 179.296 -1.52736 -3.6536 0
M  V30 1715 H 180.47 -4.01973 -2.25287 0
M  V30 1716 H 178.785 -3.55245 -2.17232 0
M  V30 1717 H 181.382 -2.47844 -4.7379 0
M  V30 1718 H 181.725 -0.904281 -4.0636 0
M  V30 1719 H 182.258 -2.36595 -3.19793 0
M  V30 1720 H 178.997 -5.28566 -3.87683 0
M  V30 1721 H 178.517 -3.76667 -4.66779 0
M  V30 1722 H 180.196 -4.34812 -4.79111 0
M  V30 1723 N 180.328 1.1314 -1.09713 0
M  V30 1724 C 181.576 1.84119 -0.833338 0
M  V30 1725 C 181.897 1.84097 0.642904 0
M  V30 1726 O 181.167 1.29881 1.46655 0
M  V30 1727 H 179.747 0.681766 -0.305293 0
M  V30 1728 H 182.409 1.37038 -1.38588 0
M  V30 1729 H 181.505 2.88543 -1.18951 0
M  V30 1730 N 181.806 0.884767 1.30421 0
M  V30 1731 C 183.217 0.553656 1.78302 0
M  V30 1732 C 183.568 -0.930153 1.7275 0
M  V30 1733 O 182.693 -1.72681 1.30423 0
M  V30 1734 C 183.288 0.998234 3.2376 0
M  V30 1735 C 181.847 0.71854 3.69478 0
M  V30 1736 C 180.994 1.18132 2.50879 0
M  V30 1737 H 183.945 1.06901 1.17294 0
M  V30 1738 H 183.966 0.327118 3.79091 0
M  V30 1739 H 183.478 2.0782 3.27769 0
M  V30 1740 H 181.579 -0.349444 3.70958 0
M  V30 1741 H 181.692 1.30595 4.60958 0
M  V30 1742 H 180.056 0.600669 2.47516 0
M  V30 1743 H 180.839 2.26902 2.57624 0
M  V30 1744 N 183.284 -1.43765 0.645699 0
M  V30 1745 C 184.217 -2.2798 -0.100072 0
M  V30 1746 C 185.195 -1.39391 -0.837194 0
M  V30 1747 O 186.379 -1.68833 -0.838306 0
M  V30 1748 C 183.506 -3.18643 -1.14823 0
M  V30 1749 C 182.552 -4.2344 -0.510009 0
M  V30 1750 S 183.385 -5.30761 0.710824 0
M  V30 1751 C 184.541 -6.24992 -0.33699 0
M  V30 1752 H 184.774 -2.90884 0.614322 0
M  V30 1753 H 182.307 -1.48166 0.434304 0
M  V30 1754 H 184.265 -3.71424 -1.74799 0
M  V30 1755 H 182.926 -2.54932 -1.8349 0
M  V30 1756 H 182.119 -4.86948 -1.29991 0
M  V30 1757 H 181.721 -3.73997 0.0154577 0
M  V30 1758 H 184.013 -6.66691 -1.20537 0
M  V30 1759 H 184.956 -7.07612 0.262879 0
M  V30 1760 H 185.364 -5.60517 -0.669425 0
M  V30 1761 N 184.763 -0.387143 -1.52771 0
M  V30 1762 C 186.179 -0.037007 -1.59557 0
M  V30 1763 C 186.379 1.44801 -1.40124 0
M  V30 1764 O 185.435 2.21227 -1.21716 0
M  V30 1765 C 186.748 -0.512256 -2.96305 0
M  V30 1766 C 188.296 -0.468328 -3.09476 0
M  V30 1767 C 188.771 -0.919731 -4.4867 0
M  V30 1768 N 190.262 -0.875656 -4.54848 0
M  V30 1769 C 190.997 -1.19637 -5.6078 0
M  V30 1770 N 190.493 -1.58745 -6.74368 0
M  V30 1771 N 192.286 -1.11776 -5.50874 0
M  V30 1772 H 184.437 -1.35395 -1.63652 0
M  V30 1773 H 186.7 -0.554818 -0.768688 0
M  V30 1774 H 186.406 -1.54935 -3.15734 0
M  V30 1775 H 186.28 0.089805 -3.77093 0
M  V30 1776 H 188.667 0.559671 -2.89744 0
M  V30 1777 H 188.748 -1.10616 -2.30646 0
M  V30 1778 H 188.392 -1.94595 -4.69143 0
M  V30 1779 H 188.322 -0.258927 -5.25963 0
M  V30 1780 H 190.813 -0.587843 -3.733 0
M  V30 1781 H 191.126 -1.81586 -7.51163 0
M  V30 1782 H 189.471 -1.6263 -6.75705 0
M  V30 1783 H 192.662 -0.811264 -4.61016 0
M  V30 1784 H 192.835 -1.37103 -6.3333 0
M  V30 1785 N 186.241 1.57166 -0.116904 0
M  V30 1786 C 187.171 2.18222 0.830759 0
M  V30 1787 C 188.152 1.12167 1.27877 0
M  V30 1788 O 189.337 1.40394 1.34176 0
M  V30 1789 C 186.467 2.77996 2.08172 0
M  V30 1790 C 185.421 3.89614 1.77157 0
M  V30 1791 C 184.747 4.36187 3.09265 0
M  V30 1792 C 186.047 5.1181 1.04151 0
M  V30 1793 H 187.741 2.97664 0.321992 0
M  V30 1794 H 185.287 1.4318 0.153434 0
M  V30 1795 H 187.24 3.19366 2.74924 0
M  V30 1796 H 185.964 1.9584 2.6137 0
M  V30 1797 H 184.623 3.48816 1.12796 0
M  V30 1798 H 184.271 3.50893 3.60393 0
M  V30 1799 H 183.971 5.11455 2.89288 0
M  V30 1800 H 185.495 4.80207 3.77139 0
M  V30 1801 H 186.909 5.50214 1.61052 0
M  V30 1802 H 185.306 5.92648 0.942762 0
M  V30 1803 H 186.376 4.84892 0.0279022 0
M  V30 1804 N 187.719 -0.156864 1.56817 0
M  V30 1805 C 188.947 -0.886316 1.86955 0
M  V30 1806 C 189.362 -1.75185 0.703975 0
M  V30 1807 O 188.719 -1.79555 -0.326552 0
M  V30 1808 C 188.77 -1.75117 3.16253 0
M  V30 1809 O 188.491 -0.920537 4.2832 0
M  V30 1810 C 189.992 -2.58905 3.59837 0
M  V30 1811 H 187.212 -0.25678 0.619923 0
M  V30 1812 H 189.756 -0.152615 2.0393 0
M  V30 1813 H 187.911 -2.43805 3.01062 0
M  V30 1814 H 188.325 -1.51337 5.02192 0
M  V30 1815 H 189.799 -3.1518 4.53172 0
M  V30 1816 H 190.276 -3.34472 2.84649 0
M  V30 1817 H 190.882 -1.95526 3.7769 0
M  V30 1818 N 189.197 -1.51736 -0.425897 0
M  V30 1819 C 190.129 -1.70083 -1.53638 0
M  V30 1820 C 191.142 -0.581349 -1.52066 0
M  V30 1821 O 192.331 -0.856017 -1.56635 0
M  V30 1822 C 189.431 -1.71078 -2.9255 0
M  V30 1823 C 188.604 -2.99795 -3.185 0
M  V30 1824 C 187.663 -2.92825 -4.37196 0
M  V30 1825 O 186.689 -3.66756 -4.35291 0
M  V30 1826 N 187.891 -2.0946 -5.41393 0
M  V30 1827 H 190.656 -2.65882 -1.383 0
M  V30 1828 H 188.217 -1.49765 -0.614988 0
M  V30 1829 H 190.209 -1.63969 -3.69995 0
M  V30 1830 H 188.779 -0.828242 -3.01428 0
M  V30 1831 H 187.999 -3.20684 -2.2925 0
M  V30 1832 H 189.287 -3.84977 -3.32671 0
M  V30 1833 H 188.685 -1.48792 -5.45781 0
M  V30 1834 H 187.242 -2.08221 -6.17647 0
M  V30 1835 N 190.675 0.682077 -1.42076 0
M  V30 1836 C 191.952 1.43755 -1.32642 0
M  V30 1837 C 192.332 2.11063 0.0396611 0
M  V30 1838 O 191.68 2.02701 1.05474 0
M  V30 1839 C 191.89 2.44596 -2.48946 0
M  V30 1840 C 193.238 3.09454 -2.9073 0
M  V30 1841 O 194.262 2.54922 -2.48783 0
M  V30 1842 O 193.121 4.08253 -3.63307 0
M  V30 1843 H 190.215 0.640857 -0.522715 0
M  V30 1844 H 192.761 0.711415 -1.54068 0
M  V30 1845 H 191.533 1.93609 -3.40046 0
M  V30 1846 H 191.156 3.24701 -2.29467 0
M  V30 1847 N 192.153 1.28127 0.917671 0
M  V30 1848 C 193.564 1.13622 1.48145 0
M  V30 1849 C 193.915 -0.275207 1.9426 0
M  V30 1850 O 193.04 -1.1691 1.82102 0
M  V30 1851 C 193.635 2.05648 2.69248 0
M  V30 1852 C 192.194 1.95219 3.21818 0
M  V30 1853 C 191.341 1.97618 1.94532 0
M  V30 1854 H 194.292 1.40874 0.730772 0
M  V30 1855 H 194.313 1.61818 3.44377 0
M  V30 1856 H 193.825 3.08365 2.35653 0
M  V30 1857 H 191.926 0.955244 3.60147 0
M  V30 1858 H 192.039 2.81976 3.87333 0
M  V30 1859 H 190.403 1.41973 2.11461 0
M  V30 1860 H 191.186 3.02007 1.63238 0
M  V30 1861 N 193.631 -1.12557 1.10312 0
M  V30 1862 C 194.88 -1.83395 0.839588 0
M  V30 1863 C 195.193 -1.84939 -0.636929 0
M  V30 1864 O 196.399 -2.51761 -1.01631 0
M  V30 1865 C 194.855 -3.29303 1.45215 0
M  V30 1866 C 194.463 -3.36122 2.96186 0
M  V30 1867 C 196.207 -4.05121 1.26796 0
M  V30 1868 C 194.114 -4.76357 3.50483 0
M  V30 1869 H 193.044 -0.687133 0.310425 0
M  V30 1870 H 195.695 -1.26746 1.32694 0
M  V30 1871 H 194.077 -3.85812 0.892469 0
M  V30 1872 H 195.251 -2.89559 3.58458 0
M  V30 1873 H 193.566 -2.73776 3.13745 0
M  V30 1874 H 196.163 -5.08668 1.64806 0
M  V30 1875 H 196.506 -4.15773 0.209409 0
M  V30 1876 H 197.039 -3.54967 1.79563 0
M  V30 1877 H 193.778 -4.70899 4.55998 0
M  V30 1878 H 193.298 -5.23377 2.92978 0
M  V30 1879 H 194.977 -5.45294 3.48228 0
M  V30 1880 N 195.109 -0.891671 -1.2995 0
M  V30 1881 C 196.041 -0.320695 -2.26945 0
M  V30 1882 C 197.054 0.528497 -1.53983 0
M  V30 1883 O 198.243 0.346959 -1.75096 0
M  V30 1884 C 195.343 0.562066 -3.34207 0
M  V30 1885 C 194.516 -0.259576 -4.36629 0
M  V30 1886 C 193.575 0.554739 -5.23268 0
M  V30 1887 O 192.601 -0.0249311 -5.69195 0
M  V30 1888 N 193.803 1.8625 -5.4981 0
M  V30 1889 H 196.568 -1.15432 -2.76578 0
M  V30 1890 H 194.129 -0.755336 -1.432 0
M  V30 1891 H 196.121 1.11304 -3.89093 0
M  V30 1892 H 194.691 1.29637 -2.84452 0
M  V30 1893 H 193.911 -0.991986 -3.81514 0
M  V30 1894 H 195.199 -0.822564 -5.02107 0
M  V30 1895 H 194.597 2.35628 -5.14292 0
M  V30 1896 H 193.154 2.36078 -6.07545 0
M  V30 1897 N 196.587 1.43421 -0.653314 0
M  V30 1898 C 197.833 2.02111 -0.166992 0
M  V30 1899 C 198.166 1.51423 1.21592 0
M  V30 1900 O 197.441 0.707389 1.8118 0
M  V30 1901 C 197.724 3.5966 -0.177948 0
M  V30 1902 C 197.577 4.20579 -1.59478 0
M  V30 1903 C 198.896 4.37413 0.4856 0
M  V30 1904 H 196.015 0.734374 -0.0621557 0
M  V30 1905 H 198.657 1.70717 -0.834016 0
M  V30 1906 H 196.807 3.86537 0.390032 0
M  V30 1907 H 198.479 4.04732 -2.21336 0
M  V30 1908 H 196.722 3.77226 -2.14204 0
M  V30 1909 H 197.393 5.29665 -1.5543 0
M  V30 1910 H 199.869 4.161 0.00234528 0
M  V30 1911 H 198.745 5.47075 0.447207 0
M  V30 1912 H 199.006 4.13672 1.55974 0
M  V30 1913 N 198.065 0.39524 1.52563 0
M  V30 1914 C 198.995 -0.428384 2.29537 0
M  V30 1915 C 199.976 -1.05831 1.33169 0
M  V30 1916 O 201.161 -1.06995 1.62067 0
M  V30 1917 C 198.291 -1.55274 3.10656 0
M  V30 1918 C 197.245 -1.04855 4.14957 0
M  V30 1919 C 196.571 -2.26543 4.84337 0
M  V30 1920 C 197.871 -0.112324 5.22179 0
M  V30 1921 H 199.565 0.213867 2.98635 0
M  V30 1922 H 197.111 0.104298 1.43622 0
M  V30 1923 H 199.064 -2.1358 3.63265 0
M  V30 1924 H 197.788 -2.22266 2.39302 0
M  V30 1925 H 196.447 -0.487985 3.63338 0
M  V30 1926 H 196.095 -2.92059 4.09525 0
M  V30 1927 H 195.795 -1.93466 5.54837 0
M  V30 1928 H 197.319 -2.85481 5.39753 0
M  V30 1929 H 198.733 -0.603752 5.70112 0
M  V30 1930 H 197.13 0.128968 5.99961 0
M  V30 1931 H 198.2 0.837052 4.77621 0
M  V30 1932 N 199.544 -1.57102 0.125237 0
M  V30 1933 C 200.474 -2.18659 -0.819174 0
M  V30 1934 C 201.455 -1.12843 -1.27281 0
M  V30 1935 O 202.64 -1.41104 -1.33429 0
M  V30 1936 C 199.77 -2.79096 -2.06695 0
M  V30 1937 C 198.724 -3.90548 -1.75088 0
M  V30 1938 C 198.05 -4.37821 -3.06948 0
M  V30 1939 C 199.35 -5.12356 -1.01435 0
M  V30 1940 H 201.044 -2.9783 -0.306202 0
M  V30 1941 H 198.59 -1.4326 -0.145839 0
M  V30 1942 H 200.543 -3.2082 -2.73226 0
M  V30 1943 H 199.267 -1.97223 -2.60328 0
M  V30 1944 H 197.926 -3.49409 -1.10944 0
M  V30 1945 H 197.574 -3.52799 -3.58527 0
M  V30 1946 H 197.274 -5.12982 -2.86571 0
M  V30 1947 H 198.798 -4.822 -3.74587 0
M  V30 1948 H 200.212 -5.5106 -1.58132 0
M  V30 1949 H 198.609 -5.9314 -0.911319 0
M  V30 1950 H 199.679 -4.849 -0.00218681 0
M  V30 1951 N 201.022 0.148545 -1.56898 0
M  V30 1952 C 202.271 0.85984 -1.82454 0
M  V30 1953 C 202.584 1.82406 -0.706229 0
M  V30 1954 O 203.79 2.57938 -0.847349 0
M  V30 1955 C 202.246 1.57967 -3.2338 0
M  V30 1956 C 201.854 0.65794 -4.43142 0
M  V30 1957 C 203.598 2.27784 -3.58211 0
M  V30 1958 C 201.505 1.3793 -5.75091 0
M  V30 1959 H 200.435 0.324834 -0.68044 0
M  V30 1960 H 203.086 0.112588 -1.83154 0
M  V30 1961 H 201.468 2.37249 -3.17063 0
M  V30 1962 H 202.642 -0.0995497 -4.60692 0
M  V30 1963 H 200.957 0.0682643 -4.16344 0
M  V30 1964 H 203.554 2.8239 -4.54048 0
M  V30 1965 H 203.897 3.04204 -2.84193 0
M  V30 1966 H 204.43 1.55421 -3.66182 0
M  V30 1967 H 201.169 0.656982 -6.52199 0
M  V30 1968 H 200.689 2.10954 -5.61479 0
M  V30 1969 H 202.368 1.92063 -6.17835 0
M  V30 1970 N 202.5 1.5196 0.417844 0
M  V30 1971 C 203.747 1.65591 1.16559 0
M  V30 1972 C 204.075 0.381565 1.90721 0
M  V30 1973 O 203.33 -0.635156 1.85106 0
M  V30 1974 C 203.629 2.82269 2.19223 0
M  V30 1975 C 203.295 4.20819 1.61933 0
M  V30 1976 C 201.957 4.58506 1.46033 0
M  V30 1977 C 204.309 5.07196 1.20008 0
M  V30 1978 C 201.637 5.80257 0.867113 0
M  V30 1979 C 203.989 6.29544 0.621086 0
M  V30 1980 C 202.653 6.65987 0.449144 0
M  V30 1981 H 201.923 0.605939 0.42652 0
M  V30 1982 H 204.57 1.86041 0.45397 0
M  V30 1983 H 202.875 2.56118 2.96498 0
M  V30 1984 H 204.572 2.90012 2.76936 0
M  V30 1985 H 201.162 3.91116 1.7529 0
M  V30 1986 H 205.346 4.7867 1.31105 0
M  V30 1987 H 200.602 6.07124 0.721833 0
M  V30 1988 H 204.776 6.95805 0.287798 0
M  V30 1989 H 202.403 7.60199 -0.012632 0
M  V30 1990 N 203.978 -0.674533 1.42435 0
M  V30 1991 C 204.941 -1.76986 1.45632 0
M  V30 1992 C 205.941 -1.5708 0.343871 0
M  V30 1993 O 207.131 -1.63367 0.604709 0
M  V30 1994 C 204.263 -3.15623 1.28822 0
M  V30 1995 H 205.456 -1.75539 2.43158 0
M  V30 1996 H 203.009 -0.884189 1.28887 0
M  V30 1997 H 203.744 -3.22696 0.322193 0
M  V30 1998 H 203.529 -3.31475 2.09444 0
M  V30 1999 H 205.019 -3.95537 1.33942 0
M  V30 2000 N 205.456 -1.28612 -0.910864 0
M  V30 2001 C 206.403 -1.12786 -2.01365 0
M  V30 2002 C 207.373 -0.024201 -1.66082 0
M  V30 2003 O 208.558 -0.189667 -1.89855 0
M  V30 2004 C 205.698 -0.798743 -3.35729 0
M  V30 2005 C 204.811 -1.98173 -3.83864 0
M  V30 2006 C 203.946 -1.59298 -5.06752 0
M  V30 2007 C 202.985 -2.74245 -5.47226 0
M  V30 2008 N 202.122 -2.35842 -6.61304 0
M  V30 2009 H 206.962 -2.07142 -2.14234 0
M  V30 2010 H 204.499 -1.03093 -1.0493 0
M  V30 2011 H 206.457 -0.588662 -4.13026 0
M  V30 2012 H 205.087 0.10789 -3.2262 0
M  V30 2013 H 204.139 -2.30386 -3.02699 0
M  V30 2014 H 205.451 -2.84343 -4.09818 0
M  V30 2015 H 204.605 -1.34513 -5.916 0
M  V30 2016 H 203.344 -0.702618 -4.82612 0
M  V30 2017 H 202.349 -2.99725 -4.60918 0
M  V30 2018 H 203.574 -3.63928 -5.73353 0
M  V30 2019 H 201.52 -1.49279 -6.38789 0
M  V30 2020 H 201.437 -3.15546 -6.86998 0
M  V30 2021 H 202.705 -2.14348 -7.4945 0
M  V30 2022 N 206.934 1.1197 -1.10907 0
M  V30 2023 C 207.844 2.21433 -0.774896 0
M  V30 2024 C 208.86 1.72478 0.229657 0
M  V30 2025 O 210.036 2.01288 0.0672008 0
M  V30 2026 C 207.101 3.4602 -0.216986 0
M  V30 2027 C 206.162 4.09791 -1.27944 0
M  V30 2028 C 205.395 5.28431 -0.748055 0
M  V30 2029 O 205.618 5.68823 0.423833 0
M  V30 2030 O 204.552 5.82644 -1.51027 0
M  V30 2031 H 208.378 2.5242 -1.68873 0
M  V30 2032 H 205.963 1.20399 -0.884555 0
M  V30 2033 H 207.845 4.21304 0.090059 0
M  V30 2034 H 206.52 3.16698 0.669633 0
M  V30 2035 H 205.427 3.36265 -1.63941 0
M  V30 2036 H 206.76 4.4328 -2.13925 0
M  V30 2037 N 208.412 0.89855 1.29475 0
M  V30 2038 C 209.689 0.443416 1.90508 0
M  V30 2039 C 210.069 -1.07685 1.81569 0
M  V30 2040 O 209.417 -1.9182 1.24166 0
M  V30 2041 C 209.627 0.956708 3.35631 0
M  V30 2042 C 210.975 0.999728 4.12663 0
M  V30 2043 O 211.999 0.904299 3.4453 0
M  V30 2044 O 210.858 1.14289 5.34416 0
M  V30 2045 H 207.952 0.138025 0.815401 0
M  V30 2046 H 210.498 0.98834 1.37949 0
M  V30 2047 H 209.27 2.00067 3.36287 0
M  V30 2048 H 208.893 0.391728 3.95666 0
M  V30 2049 N 209.89 -1.43072 0.660911 0
M  V30 2050 C 211.115 -2.06584 0.183805 0
M  V30 2051 C 211.54 -1.49257 -1.14472 0
M  V30 2052 O 210.898 -0.605528 -1.70889 0
M  V30 2053 C 210.946 -3.60418 0.114434 0
M  V30 2054 O 210.05 -4.01981 -0.921137 0
M  V30 2055 H 209.391 -0.656669 0.0983994 0
M  V30 2056 H 211.921 -1.83447 0.906006 0
M  V30 2057 H 211.931 -4.07946 -0.0663394 0
M  V30 2058 H 210.606 -4.01519 1.08422 0
M  V30 2059 H 209.183 -3.66029 -0.71253 0
M  V30 2060 N 211.368 -0.403325 -1.52352 0
M  V30 2061 C 212.3 0.4603 -2.2453 0
M  V30 2062 C 213.313 1.01505 -1.27282 0
M  V30 2063 O 214.502 0.914982 -1.53266 0
M  V30 2064 C 211.602 1.65208 -2.95905 0
M  V30 2065 C 210.775 1.22224 -4.19976 0
M  V30 2066 C 209.834 2.28028 -4.74226 0
M  V30 2067 O 208.86 1.88857 -5.36956 0
M  V30 2068 N 210.062 3.6012 -4.55295 0
M  V30 2069 H 212.827 -0.158156 -2.99282 0
M  V30 2070 H 210.388 -0.230402 -1.60252 0
M  V30 2071 H 212.38 2.35541 -3.29093 0
M  V30 2072 H 210.95 2.17658 -2.24374 0
M  V30 2073 H 210.17 0.34725 -3.92668 0
M  V30 2074 H 211.458 0.911924 -5.00561 0
M  V30 2075 H 210.856 3.94698 -4.05253 0
M  V30 2076 H 209.413 4.26447 -4.92936 0
M  V30 2077 N 212.846 1.57033 -0.133567 0
M  V30 2078 C 214.071 2.00475 0.531477 0
M  V30 2079 C 214.496 1.01291 1.58499 0
M  V30 2080 O 213.854 -0.0133279 1.81295 0
M  V30 2081 C 213.902 3.42729 1.12113 0
M  V30 2082 O 213.006 3.46498 2.23636 0
M  V30 2083 H 212.347 0.650876 0.131362 0
M  V30 2084 H 214.877 2.03344 -0.22634 0
M  V30 2085 H 214.887 3.81246 1.4531 0
M  V30 2086 H 213.562 4.14428 0.349557 0
M  V30 2087 H 212.139 3.19811 1.91769 0
M  V30 2088 N 214.325 -0.140222 1.56975 0
M  V30 2089 C 215.602 -0.880769 1.74648 0
M  V30 2090 C 215.982 -1.99036 0.703404 0
M  V30 2091 O 215.33 -2.26821 -0.27648 0
M  V30 2092 C 215.54 -1.417 3.18939 0
M  V30 2093 C 216.888 -1.87774 3.80823 0
M  V30 2094 O 217.912 -1.51427 3.2241 0
M  V30 2095 O 216.771 -2.54827 4.83452 0
M  V30 2096 H 213.865 -0.416713 0.714338 0
M  V30 2097 H 216.411 -0.125618 1.69234 0
M  V30 2098 H 215.183 -0.619902 3.86359 0
M  V30 2099 H 214.806 -2.23546 3.28805 0
M  V30 2100 N 215.803 -1.52179 -0.40978 0
M  V30 2101 C 217.051 -1.65878 -1.15451 0
M  V30 2102 C 217.372 -0.390771 -1.91044 0
M  V30 2103 O 216.642 0.594323 -1.86667 0
M  V30 2104 H 215.222 -0.611405 -0.429177 0
M  V30 2105 H 217.884 -1.89219 -0.467134 0
M  V30 2106 H 216.98 -2.49954 -1.86894 0
M  V30 2107 N 217.281 0.66697 -1.42791 0
M  V30 2108 C 218.528 1.42699 -1.43678 0
M  V30 2109 C 218.856 1.94419 -0.0560425 0
M  V30 2110 O 218.111 1.7182 0.936831 0
M  V30 2111 C 218.41 2.6349 -2.4147 0
M  V30 2112 C 218.076 2.30267 -3.8767 0
M  V30 2113 C 216.738 2.20918 -4.27491 0
M  V30 2114 C 219.09 2.03435 -4.79858 0
M  V30 2115 C 216.418 1.82873 -5.57471 0
M  V30 2116 C 218.77 1.66892 -6.10188 0
M  V30 2117 C 217.434 1.56058 -6.49001 0
M  V30 2118 H 216.704 0.522171 -0.525755 0
M  V30 2119 H 219.351 0.759785 -1.75783 0
M  V30 2120 H 217.656 3.35279 -2.0272 0
M  V30 2121 H 219.353 3.21684 -2.39417 0
M  V30 2122 H 215.943 2.38449 -3.56146 0
M  V30 2123 H 220.127 2.09586 -4.49875 0
M  V30 2124 H 215.383 1.7306 -5.86396 0
M  V30 2125 H 219.557 1.45157 -6.81104 0
M  V30 2126 H 217.184 1.26348 -7.49627 0
M  V30 2127 N 218.759 1.29093 0.90403 0
M  V30 2128 C 220.005 1.17996 1.65676 0
M  V30 2129 C 220.36 -0.266816 1.90541 0
M  V30 2130 O 219.653 -1.19 1.50165 0
M  V30 2131 C 219.847 1.92224 3.01305 0
M  V30 2132 C 219.676 3.43972 2.89678 0
M  V30 2133 C 218.446 4.1332 2.90679 0
M  V30 2134 C 220.644 4.39546 2.67028 0
M  V30 2135 N 218.626 5.51463 2.69743 0
M  V30 2136 C 219.997 5.65119 2.5503 0
M  V30 2137 C 222.052 4.29359 2.52101 0
M  V30 2138 C 220.755 6.81663 2.29626 0
M  V30 2139 C 222.781 5.4565 2.28079 0
M  V30 2140 C 222.143 6.70193 2.16843 0
M  V30 2141 H 218.242 0.486759 0.612037 0
M  V30 2142 H 220.826 1.62868 1.06688 0
M  V30 2143 H 218.997 1.49773 3.58361 0
M  V30 2144 H 220.729 1.73429 3.65656 0
M  V30 2145 H 217.484 3.64984 3.01801 0
M  V30 2146 H 217.908 6.24105 2.6234 0
M  V30 2147 H 222.55 3.33769 2.59534 0
M  V30 2148 H 220.268 7.77313 2.20932 0
M  V30 2149 H 223.854 5.39664 2.1738 0
M  V30 2150 H 222.734 7.58659 1.98511 0
M  V30 2151 N 220.237 -1.11381 1.11499 0
M  V30 2152 C 221.483 -1.83597 0.875423 0
M  V30 2153 C 221.838 -1.83048 -0.592555 0
M  V30 2154 O 221.131 -1.27304 -1.43193 0
M  V30 2155 C 221.325 -3.30026 1.37177 0
M  V30 2156 C 221.154 -3.44837 2.88647 0
M  V30 2157 C 219.924 -3.57825 3.56776 0
M  V30 2158 C 222.122 -3.3907 3.86699 0
M  V30 2159 N 220.104 -3.61113 4.96458 0
M  V30 2160 C 221.475 -3.48986 5.12454 0
M  V30 2161 C 223.53 -3.22605 3.7925 0
M  V30 2162 C 222.233 -3.44135 6.31636 0
M  V30 2163 C 224.259 -3.19072 4.97943 0
M  V30 2164 C 223.621 -3.29559 6.22551 0
M  V30 2165 H 219.72 -0.687044 0.37349 0
M  V30 2166 H 222.304 -1.33265 1.41946 0
M  V30 2167 H 220.475 -3.78874 0.854919 0
M  V30 2168 H 222.207 -3.90153 1.07529 0
M  V30 2169 H 218.962 -3.60414 3.07244 0
M  V30 2170 H 219.386 -3.66394 5.69284 0
M  V30 2171 H 224.028 -3.13382 2.83816 0
M  V30 2172 H 221.746 -3.52126 7.27347 0
M  V30 2173 H 225.332 -3.07498 4.93899 0
M  V30 2174 H 224.212 -3.26815 7.12855 0
M  V30 2175 N 221.715 -0.905404 -1.28997 0
M  V30 2176 C 222.678 -0.392253 -2.25819 0
M  V30 2177 C 223.678 0.476753 -1.5357 0
M  V30 2178 O 224.868 0.280994 -1.71919 0
M  V30 2179 C 222 0.438588 -3.38067 0
M  V30 2180 H 223.193 -1.24743 -2.72725 0
M  V30 2181 H 220.746 -0.684051 -1.40536 0
M  V30 2182 H 221.481 1.31352 -2.96508 0
M  V30 2183 H 221.266 -0.184167 -3.91667 0
M  V30 2184 H 222.756 0.78873 -4.10084 0
M  V30 2185 N 223.193 1.4272 -0.668489 0
M  V30 2186 C 224.433 2.03497 -0.19194 0
M  V30 2187 C 224.797 1.51684 1.17712 0
M  V30 2188 O 225.998 2.04205 1.74796 0
M  V30 2189 C 224.269 3.56734 -0.218032 0
M  V30 2190 S 225.828 4.38395 0.188438 0
M  V30 2191 H 222.646 0.706542 -0.0794959 0
M  V30 2192 H 225.248 1.74563 -0.880235 0
M  V30 2193 H 223.952 3.91943 -1.2169 0
M  V30 2194 H 223.483 3.90333 0.490303 0
M  V30 2195 H 225.498 4.75345 1.42345 0
M  V30 2196 N 224.671 0.411399 1.52136 0
M  V30 2197 C 225.948 -0.222308 1.94333 0
M  V30 2198 C 226.328 -1.6242 1.34844 0
M  V30 2199 O 225.676 -2.22384 0.525145 0
M  V30 2200 C 225.886 -0.226345 3.48265 0
M  V30 2201 C 227.234 -0.444592 4.22266 0
M  V30 2202 O 228.258 -0.305602 3.54887 0
M  V30 2203 O 227.117 -0.718749 5.41753 0
M  V30 2204 H 224.211 -0.143907 0.814383 0
M  V30 2205 H 226.757 0.467506 1.63133 0
M  V30 2206 H 225.529 0.75475 3.83952 0
M  V30 2207 H 225.152 -0.960163 3.85832 0
M  V30 2208 N 226.149 -1.5696 0.141893 0
M  V30 2209 C 227.565 -1.58151 -0.21456 0
M  V30 2210 C 227.765 -1.1559 -1.65049 0
M  V30 2211 O 226.821 -0.853832 -2.37626 0
M  V30 2212 C 228.134 -3.00674 0.0395576 0
M  V30 2213 C 229.682 -3.1299 -0.0245529 0
M  V30 2214 C 230.157 -4.57554 0.202167 0
M  V30 2215 N 231.648 -4.62961 0.148919 0
M  V30 2216 C 232.383 -5.7262 0.298924 0
M  V30 2217 N 231.879 -6.90947 0.50637 0
M  V30 2218 N 233.672 -5.61601 0.236886 0
M  V30 2219 H 225.823 -1.8292 1.07953 0
M  V30 2220 H 228.086 -0.846425 0.42693 0
M  V30 2221 H 227.792 -3.36183 1.03315 0
M  V30 2222 H 227.666 -3.70981 -0.682143 0
M  V30 2223 H 230.053 -2.77326 -1.00869 0
M  V30 2224 H 230.134 -2.4518 0.729396 0
M  V30 2225 H 229.778 -4.93922 1.18338 0
M  V30 2226 H 229.708 -5.23484 -0.572044 0
M  V30 2227 H 232.199 -3.77899 -0.00697015 0
M  V30 2228 H 232.512 -7.7038 0.611076 0
M  V30 2229 H 230.857 -6.92878 0.542628 0
M  V30 2230 H 234.048 -4.68039 0.0756209 0
M  V30 2231 H 234.221 -6.47015 0.357227 0
M  V30 2232 N 227.627 0.131896 -1.57047 0
M  V30 2233 C 228.59 1.14638 -1.98471 0
M  V30 2234 C 229.59 1.35029 -0.873148 0
M  V30 2235 O 230.78 1.31764 -1.13946 0
M  V30 2236 C 227.912 2.50358 -2.31373 0
M  V30 2237 H 229.105 0.79064 -2.8929 0
M  V30 2238 H 226.658 0.375761 -1.51716 0
M  V30 2239 H 227.393 2.90876 -1.43393 0
M  V30 2240 H 227.178 2.36915 -3.12432 0
M  V30 2241 H 228.668 3.23395 -2.64207 0
M  V30 2242 N 229.106 1.52395 0.401703 0
M  V30 2243 C 230.354 1.66488 1.14569 0
M  V30 2244 C 230.675 0.400897 1.90835 0
M  V30 2245 O 229.945 -0.584415 1.8698 0
M  V30 2246 H 228.525 0.613672 0.425929 0
M  V30 2247 H 231.187 1.89464 0.457093 0
M  V30 2248 H 230.283 2.50942 1.85566 0
M  V30 2249 N 230.584 -0.659388 1.43143 0
M  V30 2250 C 231.814 -1.44513 1.47646 0
M  V30 2251 C 232.222 -1.88981 0.0910095 0
M  V30 2252 O 231.565 -1.59702 -0.907789 0
M  V30 2253 C 231.627 -2.71663 2.35456 0
M  V30 2254 C 231.291 -2.49175 3.83094 0
M  V30 2255 C 232.288 -2.1279 4.74359 0
M  V30 2256 C 229.973 -2.63691 4.27519 0
M  V30 2257 C 231.967 -1.9121 6.08044 0
M  V30 2258 C 229.654 -2.41726 5.61259 0
M  V30 2259 C 230.652 -2.0554 6.51339 0
M  V30 2260 O 230.34 -1.838 7.82606 0
M  V30 2261 H 230.072 -0.45064 0.503884 0
M  V30 2262 H 232.626 -0.816248 1.88485 0
M  V30 2263 H 230.856 -3.37089 1.89493 0
M  V30 2264 H 232.545 -3.33595 2.31235 0
M  V30 2265 H 233.311 -2.01157 4.41317 0
M  V30 2266 H 229.19 -2.90832 3.57684 0
M  V30 2267 H 232.734 -1.62889 6.78316 0
M  V30 2268 H 228.631 -2.52959 5.9387 0
M  V30 2269 H 229.399 -1.98275 7.94122 0
M  V30 2270 N 232.062 -1.29571 -0.897171 0
M  V30 2271 C 233.478 -1.07637 -1.17841 0
M  V30 2272 C 233.678 0.170713 -2.00776 0
M  V30 2273 O 232.734 0.867768 -2.3712 0
M  V30 2274 C 234.047 -2.3332 -1.8969 0
M  V30 2275 C 235.595 -2.38664 -2.02505 0
M  V30 2276 C 236.07 -3.64157 -2.77765 0
M  V30 2277 N 237.561 -3.64894 -2.85318 0
M  V30 2278 C 238.296 -4.58679 -3.44094 0
M  V30 2279 N 237.792 -5.62799 -4.04017 0
M  V30 2280 N 239.585 -4.46245 -3.41793 0
M  V30 2281 H 231.736 -2.09598 -0.343883 0
M  V30 2282 H 233.999 -0.923333 -0.214848 0
M  V30 2283 H 233.705 -3.24262 -1.36187 0
M  V30 2284 H 233.579 -2.41025 -2.9015 0
M  V30 2285 H 235.966 -1.48208 -2.55183 0
M  V30 2286 H 236.047 -2.34943 -1.01171 0
M  V30 2287 H 235.691 -4.54965 -2.25763 0
M  V30 2288 H 235.621 -3.65137 -3.7945 0
M  V30 2289 H 238.112 -2.89613 -2.42761 0
M  V30 2290 H 238.425 -6.3048 -4.46895 0
M  V30 2291 H 236.77 -5.66605 -4.02472 0
M  V30 2292 H 239.961 -3.64094 -2.94199 0
M  V30 2293 H 240.134 -5.19518 -3.87304 0
M  V30 2294 N 233.54 1.10788 -1.12088 0
M  V30 2295 C 234.78 1.84297 -0.883974 0
M  V30 2296 C 235.144 1.83036 0.579797 0
M  V30 2297 O 236.345 2.52061 0.933734 0
M  V30 2298 C 234.616 3.27173 -1.43849 0
M  V30 2299 S 236.175 4.17853 -1.33957 0
M  V30 2300 H 232.993 0.635433 -0.318977 0
M  V30 2301 H 235.595 1.33341 -1.4297 0
M  V30 2302 H 234.299 3.25658 -2.49749 0
M  V30 2303 H 233.83 3.83198 -0.890096 0
M  V30 2304 H 235.845 4.95239 -0.308603 0
M  V30 2305 N 235.018 0.912232 1.28515 0
M  V30 2306 C 235.966 0.389597 2.29314 0
M  V30 2307 C 236.96 -0.517915 1.61289 0
M  V30 2308 O 238.166 -0.399328 1.75515 0
M  V30 2309 H 234.541 0.107386 0.744293 0
M  V30 2310 H 236.512 1.25286 2.70825 0
M  V30 2311 C 235.261 -0.356496 3.45868 0
M  V30 2312 H 234.584 0.332608 3.98414 0
M  V30 2313 H 236.024 -0.686851 4.184 0
M  V30 2314 C 234.483 -1.56383 2.98406 0
M  V30 2315 O 235.013 -2.66294 3.00749 0
M  V30 2316 N 233.219 -1.41029 2.54085 0
M  V30 2317 H 232.766 -0.516089 2.52377 0
M  V30 2318 H 232.724 -2.21939 2.22689 0
M  V30 2319 N 236.496 -1.42363 0.676048 0
M  V30 2320 C 237.745 -2.00745 0.196037 0
M  V30 2321 C 238.058 -1.54083 -1.20489 0
M  V30 2322 O 239.264 -2.04891 -1.78134 0
M  V30 2323 C 237.72 -3.58651 0.299616 0
M  V30 2324 C 237.328 -4.143 1.70468 0
M  V30 2325 C 239.072 -4.24326 -0.121619 0
M  V30 2326 C 236.979 -5.64574 1.76096 0
M  V30 2327 H 235.909 -0.750787 0.0695301 0
M  V30 2328 H 238.56 -1.63072 0.841412 0
M  V30 2329 H 236.942 -3.93833 -0.413673 0
M  V30 2330 H 238.116 -3.90575 2.44515 0
M  V30 2331 H 236.431 -3.61081 2.07387 0
M  V30 2332 H 239.028 -5.34607 -0.0997362 0
M  V30 2333 H 239.371 -3.99897 -1.15708 0
M  V30 2334 H 239.904 -3.94108 0.540706 0
M  V30 2335 H 236.643 -5.93804 2.77628 0
M  V30 2336 H 236.163 -5.90286 1.06406 0
M  V30 2337 H 237.842 -6.29013 1.51496 0
M  V30 2338 N 237.974 -0.419461 -1.51915 0
M  V30 2339 C 238.937 0.389116 -2.25873 0
M  V30 2340 C 239.937 0.964924 -1.28631 0
M  V30 2341 O 241.127 0.842179 -1.52489 0
M  V30 2342 C 238.259 1.54874 -3.03689 0
M  V30 2343 H 239.452 -0.258799 -2.98781 0
M  V30 2344 H 237.005 -0.172209 -1.55348 0
M  V30 2345 H 237.74 2.23323 -2.35154 0
M  V30 2346 H 237.525 1.14223 -3.75094 0
M  V30 2347 H 239.015 2.12046 -3.59759 0
M  V30 2348 N 239.452 1.56882 -0.150215 0
M  V30 2349 C 240.868 1.58263 0.20617 0
M  V30 2350 C 241.068 1.16464 1.64434 0
M  V30 2351 O 240.124 0.866422 2.3717 0
M  V30 2352 C 241.437 3.00649 -0.0555025 0
M  V30 2353 C 242.985 3.12999 0.00795388 0
M  V30 2354 C 243.46 4.5744 -0.226429 0
M  V30 2355 N 244.951 4.62875 -0.173469 0
M  V30 2356 C 245.686 5.72454 -0.329288 0
M  V30 2357 N 245.182 6.90669 -0.543005 0
M  V30 2358 N 246.975 5.61467 -0.266666 0
M  V30 2359 H 239.126 1.82345 -1.08922 0
M  V30 2360 H 241.389 0.844149 -0.431413 0
M  V30 2361 H 241.095 3.3563 -1.05096 0
M  V30 2362 H 240.969 3.71337 0.66246 0
M  V30 2363 H 243.356 2.77857 0.993966 0
M  V30 2364 H 243.437 2.4479 -0.742388 0
M  V30 2365 H 243.081 4.93287 -1.20956 0
M  V30 2366 H 243.011 5.2378 0.544274 0
M  V30 2367 H 245.502 3.77898 -0.0130709 0
M  V30 2368 H 245.815 7.70045 -0.651922 0
M  V30 2369 H 244.16 6.92581 -0.579366 0
M  V30 2370 H 247.351 4.67992 -0.100441 0
M  V30 2371 H 247.524 6.46816 -0.391535 0
M  V30 2372 N 240.93 -0.123565 1.57115 0
M  V30 2373 C 242.158 -0.846461 1.88793 0
M  V30 2374 C 242.573 -1.73652 0.740976 0
M  V30 2375 O 241.93 -1.80207 -0.288393 0
M  V30 2376 C 241.981 -1.6837 3.19897 0
M  V30 2377 O 241.702 -0.829477 4.30176 0
M  V30 2378 C 243.203 -2.51214 3.65248 0
M  V30 2379 H 240.423 -0.243573 0.625231 0
M  V30 2380 H 242.967 -0.109324 2.04208 0
M  V30 2381 H 241.122 -2.37364 3.06165 0
M  V30 2382 H 241.536 -1.40651 5.0529 0
M  V30 2383 H 243.01 -3.05497 4.59756 0
M  V30 2384 H 243.487 -3.28359 2.9168 0
M  V30 2385 H 244.093 -1.8747 3.81752 0
M  V30 2386 N 242.408 -1.52605 -0.393616 0
M  V30 2387 C 243.819 -1.59417 -0.971761 0
M  V30 2388 C 244.17 -0.444173 -1.91106 0
M  V30 2389 O 243.295 0.433382 -2.12016 0
M  V30 2390 C 243.89 -2.88936 -1.76921 0
M  V30 2391 C 242.449 -2.98175 -2.29714 0
M  V30 2392 C 241.596 -2.54491 -1.10135 0
M  V30 2393 H 244.547 -1.57751 -0.173317 0
M  V30 2394 H 244.568 -2.75163 -2.62804 0
M  V30 2395 H 244.08 -3.72616 -1.08532 0
M  V30 2396 H 242.181 -2.19024 -3.01429 0
M  V30 2397 H 242.294 -4.02726 -2.59517 0
M  V30 2398 H 240.658 -2.08702 -1.45999 0
M  V30 2399 H 241.441 -3.4056 -0.432874 0
M  V30 2400 N 243.887 0.651787 -1.4349 0
M  V30 2401 C 244.797 1.79368 -1.5121 0
M  V30 2402 C 245.813 1.69361 -0.399093 0
M  V30 2403 O 246.989 1.90505 -0.653431 0
M  V30 2404 C 244.054 3.15653 -1.43401 0
M  V30 2405 C 243.115 3.37446 -2.65384 0
M  V30 2406 C 242.348 4.67229 -2.57939 0
M  V30 2407 O 242.571 5.46676 -1.62792 0
M  V30 2408 O 241.505 4.90773 -3.48462 0
M  V30 2409 H 245.331 1.7581 -2.47638 0
M  V30 2410 H 242.916 0.810447 -1.25507 0
M  V30 2411 H 244.798 3.96935 -1.41494 0
M  V30 2412 H 243.473 3.19798 -0.501085 0
M  V30 2413 H 242.38 2.55923 -2.72863 0
M  V30 2414 H 243.713 3.38148 -3.57654 0
M  V30 2415 N 245.365 1.30045 0.890287 0
M  V30 2416 C 246.59 1.21598 1.68014 0
M  V30 2417 C 247.015 -0.218678 1.86825 0
M  V30 2418 O 246.373 -1.15756 1.39536 0
M  V30 2419 C 246.421 1.94434 3.03691 0
M  V30 2420 O 245.525 1.2678 3.92429 0
M  V30 2421 H 244.866 0.420856 0.513592 0
M  V30 2422 H 247.396 1.71775 1.11151 0
M  V30 2423 H 247.406 2.03251 3.5377 0
M  V30 2424 H 246.081 2.98777 2.89318 0
M  V30 2425 H 244.658 1.26282 3.50866 0
M  V30 2426 N 246.843 -1.10192 1.12674 0
M  V30 2427 C 247.806 -2.14786 0.799979 0
M  V30 2428 C 248.806 -1.59711 -0.18685 0
M  V30 2429 O 249.996 -1.74156 0.0392558 0
M  V30 2430 C 247.128 -3.40374 0.189228 0
M  V30 2431 H 248.321 -2.45203 1.72671 0
M  V30 2432 H 245.874 -1.25597 0.930326 0
M  V30 2433 H 246.609 -3.15577 -0.747107 0
M  V30 2434 H 246.394 -3.81637 0.899766 0
M  V30 2435 H 247.884 -4.17594 -0.0228143 0
M  V30 2436 N 248.321 -0.919034 -1.28029 0
M  V30 2437 C 249.251 -0.428581 -2.29533 0
M  V30 2438 C 250.232 0.50659 -1.62381 0
M  V30 2439 O 251.417 0.413195 -1.89753 0
M  V30 2440 C 248.547 0.327388 -3.45753 0
M  V30 2441 C 247.501 -0.519137 -4.2484 0
M  V30 2442 C 246.827 0.365486 -5.33449 0
M  V30 2443 C 248.127 -1.77914 -4.91064 0
M  V30 2444 H 249.821 -1.27687 -2.70807 0
M  V30 2445 H 247.367 -0.615428 -1.30186 0
M  V30 2446 H 249.32 0.681378 -4.15855 0
M  V30 2447 H 248.044 1.20963 -3.03374 0
M  V30 2448 H 246.703 -0.855717 -3.56473 0
M  V30 2449 H 246.351 1.24642 -4.87312 0
M  V30 2450 H 246.051 -0.197356 -5.87268 0
M  V30 2451 H 247.575 0.715241 -6.06396 0
M  V30 2452 H 248.989 -1.49374 -5.53498 0
M  V30 2453 H 247.386 -2.2848 -5.54903 0
M  V30 2454 H 248.456 -2.50382 -4.15255 0
M  V30 2455 N 249.799 1.42003 -0.683588 0
M  V30 2456 C 250.709 2.34597 -0.0109075 0
M  V30 2457 C 251.725 1.55576 0.779245 0
M  V30 2458 O 252.901 1.88107 0.719555 0
M  V30 2459 C 249.966 3.34199 0.922588 0
M  V30 2460 C 249.027 4.29115 0.125984 0
M  V30 2461 C 248.26 5.23959 1.01502 0
M  V30 2462 O 248.483 5.23952 2.25456 0
M  V30 2463 O 247.417 6.00053 0.47111 0
M  V30 2464 H 251.243 2.93675 -0.773853 0
M  V30 2465 H 248.828 1.42654 -0.443861 0
M  V30 2466 H 250.71 3.95365 1.45823 0
M  V30 2467 H 249.385 2.77582 1.66523 0
M  V30 2468 H 248.292 3.71335 -0.453969 0
M  V30 2469 H 249.625 4.88798 -0.577736 0
M  V30 2470 N 251.277 0.427512 1.51691 0
M  V30 2471 C 252.517 -0.141524 2.03909 0
M  V30 2472 C 252.881 -1.40811 1.30523 0
M  V30 2473 O 254.082 -2.05676 1.73063 0
M  V30 2474 C 252.353 -0.364962 3.55532 0
M  V30 2475 S 253.912 -0.898812 4.29496 0
M  V30 2476 H 250.73 -0.0364542 0.710065 0
M  V30 2477 H 253.332 0.584659 1.86553 0
M  V30 2478 H 252.036 0.56336 4.06515 0
M  V30 2479 H 251.567 -1.1185 3.77164 0
M  V30 2480 H 253.582 -2.17747 4.45871 0
M  V30 2481 N 252.755 -1.56801 0.158532 0
M  V30 2482 C 254.002 -1.9649 -0.489679 0
M  V30 2483 C 254.33 -1.04394 -1.6411 0
M  V30 2484 O 253.585 -0.0754401 -1.95555 0
M  V30 2485 C 253.884 -3.4235 -1.02623 0
M  V30 2486 C 253.55 -4.50899 0.00794526 0
M  V30 2487 C 252.212 -4.80312 0.292207 0
M  V30 2488 C 254.564 -5.16333 0.710584 0
M  V30 2489 C 251.892 -5.72461 1.28472 0
M  V30 2490 C 254.244 -6.09553 1.69199 0
M  V30 2491 C 252.908 -6.37339 1.98383 0
M  V30 2492 H 252.178 -0.719009 -0.179186 0
M  V30 2493 H 254.825 -1.8989 0.247798 0
M  V30 2494 H 253.13 -3.45838 -1.84128 0
M  V30 2495 H 254.827 -3.70393 -1.53656 0
M  V30 2496 H 251.417 -4.28015 -0.22379 0
M  V30 2497 H 255.601 -4.93732 0.504174 0
M  V30 2498 H 250.857 -5.92278 1.51714 0
M  V30 2499 H 255.031 -6.59327 2.24189 0
M  V30 2500 H 252.658 -7.08546 2.7544 0
M  V30 2501 N 254.233 0.115231 -1.57178 0
M  V30 2502 C 255.163 1.1423 -2.03651 0
M  V30 2503 C 256.144 1.42967 -0.921655 0
M  V30 2504 O 257.329 1.53343 -1.19162 0
M  V30 2505 C 254.459 2.4675 -2.44401 0
M  V30 2506 C 253.413 2.32467 -3.59365 0
M  V30 2507 C 252.739 3.69984 -3.86026 0
M  V30 2508 C 254.039 1.78203 -4.90959 0
M  V30 2509 H 255.733 0.755749 -2.89705 0
M  V30 2510 H 253.279 0.362093 -1.39373 0
M  V30 2511 H 255.232 3.18854 -2.75517 0
M  V30 2512 H 253.956 2.87302 -1.55322 0
M  V30 2513 H 252.615 1.62811 -3.28463 0
M  V30 2514 H 252.263 4.08028 -2.94147 0
M  V30 2515 H 251.963 3.61279 -4.63412 0
M  V30 2516 H 253.487 4.43587 -4.19599 0
M  V30 2517 H 254.901 2.40128 -5.20587 0
M  V30 2518 H 253.298 1.8031 -5.72371 0
M  V30 2519 H 254.368 0.739876 -4.79222 0
M  V30 2520 N 255.711 1.52812 0.385517 0
M  V30 2521 C 256.988 1.5861 1.14465 0
M  V30 2522 C 257.368 0.381402 2.07626 0
M  V30 2523 O 256.716 -0.629999 2.19643 0
M  V30 2524 C 256.926 2.92664 1.90128 0
M  V30 2525 C 258.274 3.46526 2.45367 0
M  V30 2526 O 259.298 2.94562 2.0028 0
M  V30 2527 O 258.157 4.37323 3.27736 0
M  V30 2528 H 255.251 0.639855 0.523941 0
M  V30 2529 H 257.797 1.65149 0.390389 0
M  V30 2530 H 256.569 3.71788 1.22022 0
M  V30 2531 H 256.192 2.89527 2.72507 0
M  V30 2532 N 257.189 -0.644168 1.43834 0
M  V30 2533 C 258.136 -1.75671 1.49694 0
M  V30 2534 C 259.106 -1.6246 0.345809 0
M  V30 2535 O 260.291 -1.82573 0.554234 0
M  V30 2536 C 257.431 -3.13867 1.43463 0
M  V30 2537 C 256.544 -3.38147 2.6885 0
M  V30 2538 C 255.679 -4.66241 2.54544 0
M  V30 2539 C 254.718 -4.83657 3.75157 0
M  V30 2540 N 253.855 -6.03016 3.59605 0
M  V30 2541 H 258.695 -1.69998 2.44754 0
M  V30 2542 H 256.232 -0.829458 1.21484 0
M  V30 2543 H 258.19 -3.9377 1.37843 0
M  V30 2544 H 256.82 -3.18588 0.519783 0
M  V30 2545 H 255.872 -2.52276 2.84712 0
M  V30 2546 H 257.184 -3.46899 3.58417 0
M  V30 2547 H 256.338 -5.54285 2.46683 0
M  V30 2548 H 255.077 -4.59826 1.62516 0
M  V30 2549 H 254.082 -3.94046 3.83416 0
M  V30 2550 H 255.307 -4.91896 4.68204 0
M  V30 2551 H 253.253 -5.97715 2.7032 0
M  V30 2552 H 253.17 -6.12766 4.42779 0
M  V30 2553 H 254.438 -6.93657 3.55613 0
M  V30 2554 N 258.668 -1.30515 -0.883378 0
M  V30 2555 C 259.618 -1.13641 -1.9766 0
M  V30 2556 C 260.602 -0.0511314 -1.60819 0
M  V30 2557 O 261.794 -0.274623 -1.74857 0
M  V30 2558 C 258.923 -0.831976 -3.33066 0
M  V30 2559 C 258.009 -1.95759 -3.76217 0
M  V30 2560 N 258.4 -3.20313 -3.9145 0
M  V30 2561 C 256.698 -1.85431 -4.05625 0
M  V30 2562 C 257.399 -3.93856 -4.2808 0
M  V30 2563 N 256.375 -3.21919 -4.38029 0
M  V30 2564 H 260.177 -2.08106 -2.07531 0
M  V30 2565 H 257.691 -1.21877 -1.0733 0
M  V30 2566 H 259.688 -0.692102 -4.11115 0
M  V30 2567 H 258.348 0.104588 -3.24532 0
M  V30 2568 H 259.359 -3.55583 -3.76538 0
M  V30 2569 H 256.036 -0.991531 -4.05555 0
M  V30 2570 H 257.426 -5.01125 -4.47575 0
M  V30 2571 N 260.146 1.09593 -1.13257 0
M  V30 2572 C 261.096 2.14345 -0.777179 0
M  V30 2573 C 262.08 1.59277 0.227966 0
M  V30 2574 O 263.272 1.76971 0.0321413 0
M  V30 2575 C 260.401 3.42439 -0.242991 0
M  V30 2576 C 259.487 4.04419 -1.27694 0
M  V30 2577 N 259.878 4.40979 -2.47732 0
M  V30 2578 C 258.176 4.31596 -1.12432 0
M  V30 2579 C 258.877 4.89784 -3.13826 0
M  V30 2580 N 257.853 4.87133 -2.41252 0
M  V30 2581 H 261.655 2.40415 -1.69049 0
M  V30 2582 H 259.169 1.26803 -1.01463 0
M  V30 2583 H 261.166 4.16889 0.0298496 0
M  V30 2584 H 259.826 3.17824 0.66467 0
M  V30 2585 H 260.837 4.32396 -2.85051 0
M  V30 2586 H 257.514 4.16595 -0.274684 0
M  V30 2587 H 258.904 5.2755 -4.16102 0
M  V30 2588 N 261.624 0.925811 1.2754 0
M  V30 2589 C 262.534 0.428993 2.30644 0
M  V30 2590 C 263.55 -0.489387 1.66976 0
M  V30 2591 O 264.726 -0.372653 1.97922 0
M  V30 2592 C 261.791 -0.311967 3.45294 0
M  V30 2593 C 260.852 0.641098 4.24486 0
M  V30 2594 C 260.085 -0.0645955 5.33661 0
M  V30 2595 O 260.308 -1.28429 5.55754 0
M  V30 2596 O 259.242 0.606265 5.98839 0
M  V30 2597 H 263.068 1.28504 2.75173 0
M  V30 2598 H 260.653 0.691086 1.32455 0
M  V30 2599 H 262.535 -0.729972 4.15029 0
M  V30 2600 H 261.21 -1.14365 3.02824 0
M  V30 2601 H 260.117 1.10874 3.57292 0
M  V30 2602 H 261.45 1.43995 4.70666 0
M  V30 2603 N 263.102 -1.41638 0.69111 0
M  V30 2604 C 264.351 -2.00526 0.217318 0
M  V30 2605 C 264.664 -1.55353 -1.18848 0
M  V30 2606 O 265.87 -2.06769 -1.75951 0
M  V30 2607 C 264.326 -3.58313 0.337639 0
M  V30 2608 C 263.934 -4.12469 1.74852 0
M  V30 2609 C 265.678 -4.24431 -0.0766066 0
M  V30 2610 C 263.585 -5.62675 1.82074 0
M  V30 2611 H 262.515 -0.750008 0.0774893 0
M  V30 2612 H 265.166 -1.6217 0.858661 0
M  V30 2613 H 263.548 -3.9425 -0.371879 0
M  V30 2614 H 264.722 -3.8796 2.48644 0
M  V30 2615 H 263.037 -3.58861 2.11205 0
M  V30 2616 H 265.634 -5.34683 -0.0430284 0
M  V30 2617 H 265.977 -4.01101 -1.1146 0
M  V30 2618 H 266.51 -3.93512 0.582476 0
M  V30 2619 H 263.249 -5.90826 2.83911 0
M  V30 2620 H 262.769 -5.89124 1.12661 0
M  V30 2621 H 264.448 -6.27371 1.58159 0
M  V30 2622 N 264.58 -0.43555 -1.51462 0
M  V30 2623 C 265.829 0.133007 -2.01261 0
M  V30 2624 C 266.142 1.43942 -1.32439 0
M  V30 2625 O 267.348 2.09081 -1.73198 0
M  V30 2626 C 265.804 0.287581 -3.58749 0
M  V30 2627 C 265.412 -1.00829 -4.36506 0
M  V30 2628 C 267.156 0.810004 -4.167 0
M  V30 2629 C 265.063 -0.819454 -5.85695 0
M  V30 2630 H 263.993 0.0534822 -0.752101 0
M  V30 2631 H 266.644 -0.565038 -1.74584 0
M  V30 2632 H 265.026 1.04859 -3.81865 0
M  V30 2633 H 266.2 -1.77749 -4.25138 0
M  V30 2634 H 264.515 -1.45911 -3.89999 0
M  V30 2635 H 267.112 0.967743 -5.2587 0
M  V30 2636 H 267.455 1.79196 -3.75758 0
M  V30 2637 H 267.988 0.107357 -3.97655 0
M  V30 2638 H 264.727 -1.77374 -6.31046 0
M  V30 2639 H 264.247 -0.0900208 -5.99732 0
M  V30 2640 H 265.926 -0.471949 -6.45276 0
M  V30 2641 N 266.058 1.56714 -0.166846 0
M  V30 2642 C 267.304 1.97039 0.479962 0
M  V30 2643 C 267.637 1.05264 1.63197 0
M  V30 2644 O 266.912 0.0988833 1.94248 0
M  V30 2645 C 267.195 3.46867 0.967212 0
M  V30 2646 C 267.048 4.49421 -0.18466 0
M  V30 2647 C 268.367 3.9968 1.84238 0
M  V30 2648 H 265.486 0.71641 0.172992 0
M  V30 2649 H 268.128 1.8832 -0.252079 0
M  V30 2650 H 266.278 3.54428 1.59101 0
M  V30 2651 H 267.95 4.53924 -0.821621 0
M  V30 2652 H 266.193 4.25573 -0.840837 0
M  V30 2653 H 266.864 5.51644 0.198317 0
M  V30 2654 H 269.34 3.94723 1.31655 0
M  V30 2655 H 268.216 5.04941 2.15234 0
M  V30 2656 H 268.477 3.43226 2.78654 0
M  V30 2657 N 267.536 -0.106894 1.57237 0
M  V30 2658 C 268.785 -0.811163 1.8467 0
M  V30 2659 C 269.098 -1.80469 0.754342 0
M  V30 2660 O 270.304 -2.55601 0.915439 0
M  V30 2661 C 268.76 -1.49337 3.27454 0
M  V30 2662 C 268.368 -0.540217 4.44731 0
M  V30 2663 C 270.112 -2.18206 3.64124 0
M  V30 2664 C 268.019 -1.22634 5.78545 0
M  V30 2665 H 266.949 -0.306679 0.688813 0
M  V30 2666 H 269.6 -0.0639887 1.83388 0
M  V30 2667 H 267.982 -2.2876 3.23241 0
M  V30 2668 H 269.156 0.221659 4.60267 0
M  V30 2669 H 267.471 0.042146 4.16379 0
M  V30 2670 H 270.068 -2.70253 4.61376 0
M  V30 2671 H 270.411 -2.96562 2.92158 0
M  V30 2672 H 270.944 -1.45658 3.70174 0
M  V30 2673 H 267.683 -0.483832 6.53712 0
M  V30 2674 H 267.203 -1.95993 5.66874 0
M  V30 2675 H 268.882 -1.75615 6.2271 0
M  V30 2676 N 269.014 -1.53014 -0.377408 0
M  V30 2677 C 270.291 -1.59215 -1.13622 0
M  V30 2678 C 270.671 -0.392407 -2.07421 0
M  V30 2679 O 270.019 0.618342 -2.19975 0
M  V30 2680 C 270.229 -2.93669 -1.88573 0
M  V30 2681 C 271.577 -3.47822 -2.43526 0
M  V30 2682 O 272.601 -2.9562 -1.98715 0
M  V30 2683 O 271.46 -4.39055 -3.25412 0
M  V30 2684 H 268.554 -0.642625 -0.52054 0
M  V30 2685 H 271.1 -1.65353 -0.381625 0
M  V30 2686 H 269.872 -3.7243 -1.20048 0
M  V30 2687 H 269.495 -2.90968 -2.70968 0
M  V30 2688 N 270.492 0.636531 -1.44174 0
M  V30 2689 C 271.442 1.74233 -1.47061 0
M  V30 2690 C 272.426 1.57331 -0.337034 0
M  V30 2691 O 273.618 1.67159 -0.581973 0
M  V30 2692 C 270.747 3.12897 -1.41246 0
M  V30 2693 C 269.833 3.35288 -2.59698 0
M  V30 2694 N 270.224 3.2807 -3.84972 0
M  V30 2695 C 268.522 3.66065 -2.54778 0
M  V30 2696 C 269.223 3.51001 -4.63867 0
M  V30 2697 N 268.199 3.73616 -3.94857 0
M  V30 2698 H 272.001 1.67103 -2.41773 0
M  V30 2699 H 269.515 0.838806 -1.3906 0
M  V30 2700 H 271.512 3.92189 -1.41398 0
M  V30 2701 H 270.172 3.21197 -0.47569 0
M  V30 2702 H 271.183 3.07109 -4.17019 0
M  V30 2703 H 267.86 3.81379 -1.6987 0
M  V30 2704 H 269.25 3.51059 -5.72894 0
M  V30 2705 N 271.97 1.30982 0.876444 0
M  V30 2706 C 273.386 1.09498 1.16113 0
M  V30 2707 C 273.586 -0.13875 2.01022 0
M  V30 2708 O 272.642 -0.829935 2.38471 0
M  V30 2709 C 273.955 2.36308 1.85954 0
M  V30 2710 C 275.503 2.41856 1.98683 0
M  V30 2711 C 275.978 3.6853 2.71937 0
M  V30 2712 N 277.469 3.69387 2.79477 0
M  V30 2713 C 278.204 4.64096 3.36753 0
M  V30 2714 N 277.7 5.69155 3.95012 0
M  V30 2715 N 279.493 4.51626 3.3465 0
M  V30 2716 H 271.644 2.10118 0.310494 0
M  V30 2717 H 273.907 0.926634 0.200131 0
M  V30 2718 H 273.613 3.26388 1.31011 0
M  V30 2719 H 273.487 2.4561 2.86278 0
M  V30 2720 H 275.874 1.52249 2.52793 0
M  V30 2721 H 275.955 2.36523 0.9742 0
M  V30 2722 H 275.599 4.58499 2.18496 0
M  V30 2723 H 275.529 3.71127 3.73593 0
M  V30 2724 H 278.02 2.93438 2.38123 0
M  V30 2725 H 278.333 6.3751 4.36808 0
M  V30 2726 H 276.678 5.72937 3.93406 0
M  V30 2727 H 279.869 3.68728 2.8837 0
M  V30 2728 H 280.042 5.25614 3.7899 0
M  V30 2729 N 273.449 -1.08991 1.13837 0
M  V30 2730 C 274.381 -2.15606 0.777612 0
M  V30 2731 C 275.394 -1.61533 -0.202739 0
M  V30 2732 O 276.583 -1.78491 0.0181055 0
M  V30 2733 C 273.683 -3.3864 0.132623 0
M  V30 2734 C 272.856 -4.22115 1.1462 0
M  V30 2735 C 271.915 -5.23564 0.526074 0
M  V30 2736 O 270.941 -5.56678 1.18735 0
M  V30 2737 N 272.143 -5.76266 -0.699866 0
M  V30 2738 H 274.908 -2.47159 1.69506 0
M  V30 2739 H 272.469 -1.24747 1.03198 0
M  V30 2740 H 274.461 -4.03626 -0.29459 0
M  V30 2741 H 273.031 -3.04938 -0.687849 0
M  V30 2742 H 272.251 -3.53199 1.75055 0
M  V30 2743 H 273.539 -4.74709 1.83109 0
M  V30 2744 H 272.937 -5.51585 -1.25581 0
M  V30 2745 H 271.494 -6.42963 -1.06968 0
M  V30 2746 N 274.927 -0.932562 -1.27047 0
M  V30 2747 C 276.155 -0.592031 -1.98249 0
M  V30 2748 C 276.57 0.831062 -1.69525 0
M  V30 2749 O 275.927 1.55299 -0.958561 0
M  V30 2750 C 275.978 -0.814279 -3.5221 0
M  V30 2751 O 275.699 -2.18139 -3.7993 0
M  V30 2752 C 277.2 -0.483121 -4.4066 0
M  V30 2753 H 274.42 -0.223896 -0.632544 0
M  V30 2754 H 276.964 -1.25091 -1.61779 0
M  V30 2755 H 275.119 -0.20213 -3.86872 0
M  V30 2756 H 275.533 -2.235 -4.74498 0
M  V30 2757 H 277.007 -0.689298 -5.47679 0
M  V30 2758 H 277.484 0.581546 -4.35333 0
M  V30 2759 H 278.09 -1.07362 -4.11526 0
M  V30 2760 N 276.405 1.4127 -0.698611 0
M  V30 2761 C 277.337 2.292 0.00399731 0
M  V30 2762 C 278.35 1.44944 0.741279 0
M  V30 2763 O 279.539 1.68416 0.591477 0
M  V30 2764 C 276.639 3.22875 1.02979 0
M  V30 2765 C 275.812 4.35904 0.36151 0
M  V30 2766 C 274.871 5.10134 1.29033 0
M  V30 2767 O 273.897 5.63809 0.781562 0
M  V30 2768 N 275.099 5.17885 2.6225 0
M  V30 2769 H 277.864 2.9014 -0.750921 0
M  V30 2770 H 275.425 1.52455 -0.544882 0
M  V30 2771 H 277.417 3.69404 1.65296 0
M  V30 2772 H 275.987 2.63221 1.68622 0
M  V30 2773 H 275.207 3.91719 -0.441584 0
M  V30 2774 H 276.495 5.08696 -0.103055 0
M  V30 2775 H 275.893 4.7573 3.061 0
M  V30 2776 H 274.45 5.6798 3.19754 0
M  V30 2777 N 277.883 0.443576 1.51229 0
M  V30 2778 C 278.831 -0.37904 2.29491 0
M  V30 2779 C 279.825 -1.0153 1.35603 0
M  V30 2780 O 281.031 -0.94955 1.52917 0
M  V30 2781 H 277.406 -0.141053 0.738653 0
M  V30 2782 H 279.377 0.301799 2.9687 0
M  V30 2783 C 278.126 -1.46426 3.15364 0
M  V30 2784 H 277.449 -0.984037 3.87501 0
M  V30 2785 H 278.889 -2.01297 3.7317 0
M  V30 2786 C 277.348 -2.45099 2.31146 0
M  V30 2787 O 277.878 -3.49773 1.9754 0
M  V30 2788 N 276.084 -2.16139 1.94249 0
M  V30 2789 H 275.631 -1.31044 2.21777 0
M  V30 2790 H 275.589 -2.82398 1.38198 0
M  V30 2791 N 279.361 -1.56624 0.175154 0
M  V30 2792 C 280.608 -1.96999 -0.468811 0
M  V30 2793 C 280.936 -1.06129 -1.62994 0
M  V30 2794 O 280.191 -0.0961771 -1.95464 0
M  V30 2795 C 280.49 -3.43419 -0.989864 0
M  V30 2796 C 280.156 -4.50866 0.0557687 0
M  V30 2797 C 278.818 -4.79975 0.343134 0
M  V30 2798 C 281.17 -5.15551 0.765308 0
M  V30 2799 C 278.498 -5.71066 1.34536 0
M  V30 2800 C 280.85 -6.07724 1.75654 0
M  V30 2801 C 279.514 -6.35199 2.05132 0
M  V30 2802 H 278.784 -0.720869 -0.17155 0
M  V30 2803 H 281.431 -1.89616 0.267924 0
M  V30 2804 H 279.736 -3.47772 -1.80449 0
M  V30 2805 H 281.433 -3.72002 -1.49719 0
M  V30 2806 H 278.023 -4.28229 -0.178381 0
M  V30 2807 H 282.207 -4.9317 0.556513 0
M  V30 2808 H 277.463 -5.90635 1.57988 0
M  V30 2809 H 281.637 -6.56912 2.31169 0
M  V30 2810 H 279.264 -7.05584 2.8294 0
M  V30 2811 N 280.839 0.0985539 -1.57292 0
M  V30 2812 C 282.116 0.834155 -1.76921 0
M  V30 2813 C 282.496 1.97101 -0.755928 0
M  V30 2814 O 281.844 2.27474 0.216245 0
M  V30 2815 C 282.054 1.33194 -3.22584 0
M  V30 2816 C 283.402 1.77611 -3.85668 0
M  V30 2817 O 284.426 1.42825 -3.26312 0
M  V30 2818 O 283.285 2.4192 -4.90038 0
M  V30 2819 H 280.379 0.397628 -0.725135 0
M  V30 2820 H 282.925 0.0807044 -1.69508 0
M  V30 2821 H 281.697 0.517248 -3.87866 0
M  V30 2822 H 281.32 2.1475 -3.34616 0
M  V30 2823 N 282.317 1.53212 0.369288 0
M  V30 2824 C 283.28 1.7872 1.43498 0
M  V30 2825 C 284.28 0.657554 1.46741 0
M  V30 2826 O 285.47 0.925736 1.47566 0
M  V30 2827 C 282.602 1.90591 2.82645 0
M  V30 2828 H 283.795 2.73894 1.22156 0
M  V30 2829 H 281.348 1.44233 0.602203 0
M  V30 2830 H 282.083 0.974709 3.09306 0
M  V30 2831 H 281.868 2.72751 2.8169 0
M  V30 2832 H 283.358 2.11931 3.59826 0
M  V30 2833 N 283.795 -0.628877 1.44509 0
M  V30 2834 C 284.705 -1.7694 1.54044 0
M  V30 2835 C 285.721 -1.68705 0.425987 0
M  V30 2836 O 286.897 -1.89442 0.683656 0
M  V30 2837 C 283.962 -3.13332 1.48405 0
M  V30 2838 C 283.023 -3.33181 2.70719 0
M  V30 2839 C 282.256 -4.63067 2.6534 0
M  V30 2840 O 282.479 -5.44017 1.71469 0
M  V30 2841 O 281.413 -4.85167 3.56226 0
M  V30 2842 H 285.239 -1.71848 2.50403 0
M  V30 2843 H 282.824 -0.790378 1.26781 0
M  V30 2844 H 284.706 -3.94634 1.47791 0
M  V30 2845 H 283.381 -3.1896 0.551898 0
M  V30 2846 H 282.288 -2.51549 2.769 0
M  V30 2847 H 283.621 -3.32416 3.62988 0
M  V30 2848 N 285.273 -1.31445 -0.869486 0
M  V30 2849 C 286.236 -1.19094 -1.9583 0
M  V30 2850 C 287.236 -0.117906 -1.60367 0
M  V30 2851 O 288.426 -0.367208 -1.70286 0
M  V30 2852 C 285.558 -0.828165 -3.30688 0
M  V30 2853 H 286.751 -2.15842 -2.08212 0
M  V30 2854 H 284.304 -1.15063 -1.05784 0
M  V30 2855 H 285.039 0.138142 -3.24006 0
M  V30 2856 H 284.824 -1.6038 -3.578 0
M  V30 2857 H 286.314 -0.765658 -4.10521 0
M  V30 2858 N 286.751 1.08385 -1.14413 0
M  V30 2859 C 287.997 1.81044 -0.913834 0
M  V30 2860 C 288.33 1.86004 0.558209 0
M  V30 2861 O 287.605 1.33606 1.4135 0
M  V30 2862 C 287.888 3.26648 -1.51569 0
M  V30 2863 C 287.741 3.29895 -3.0576 0
M  V30 2864 C 289.06 4.23629 -1.19273 0
M  V30 2865 H 286.179 0.65727 -0.333414 0
M  V30 2866 H 288.821 1.26896 -1.41412 0
M  V30 2867 H 286.971 3.72889 -1.09023 0
M  V30 2868 H 288.643 2.91977 -3.57137 0
M  V30 2869 H 286.886 2.69163 -3.40197 0
M  V30 2870 H 287.557 4.32516 -3.42977 0
M  V30 2871 H 290.033 3.85727 -1.56057 0
M  V30 2872 H 288.909 5.23822 -1.64017 0
M  V30 2873 H 289.17 4.41968 -0.108068 0
M  V30 2874 N 288.23 0.939286 1.26551 0
M  V30 2875 C 289.47 0.5933 1.956 0
M  V30 2876 C 289.834 -0.851515 1.72085 0
M  V30 2877 O 291.035 -1.30634 2.34921 0
M  V30 2878 C 289.306 0.923996 3.45249 0
M  V30 2879 S 290.865 0.688269 4.33369 0
M  V30 2880 H 287.683 0.218591 0.676564 0
M  V30 2881 H 290.285 1.2102 1.5354 0
M  V30 2882 H 288.989 1.97297 3.59864 0
M  V30 2883 H 288.52 0.296746 3.92279 0
M  V30 2884 H 290.535 -0.448434 4.9417 0
M  V30 2885 N 289.708 -1.40897 0.706093 0
M  V30 2886 C 291.124 -1.55042 0.37869 0
M  V30 2887 C 291.324 -1.67944 -1.11342 0
M  V30 2888 O 290.38 -1.66372 -1.89938 0
M  V30 2889 C 291.693 -2.78398 1.13643 0
M  V30 2890 C 293.241 -2.92206 1.12181 0
M  V30 2891 C 293.716 -4.18463 1.86152 0
M  V30 2892 N 295.207 -4.25443 1.83173 0
M  V30 2893 C 295.942 -5.2202 2.37239 0
M  V30 2894 N 295.438 -6.24563 2.99821 0
M  V30 2895 N 297.231 -5.14033 2.27435 0
M  V30 2896 H 289.382 -1.30769 1.67372 0
M  V30 2897 H 291.645 -0.631653 0.706907 0
M  V30 2898 H 291.351 -2.7511 2.19106 0
M  V30 2899 H 291.225 -3.70228 0.721853 0
M  V30 2900 H 293.612 -2.95004 0.0754171 0
M  V30 2901 H 293.693 -2.01521 1.57554 0
M  V30 2902 H 293.337 -4.16427 2.90776 0
M  V30 2903 H 293.267 -5.08141 1.38206 0
M  V30 2904 H 295.758 -3.51976 1.37556 0
M  V30 2905 H 296.071 -6.94665 3.38616 0
M  V30 2906 H 294.416 -6.25035 3.03902 0
M  V30 2907 H 297.607 -4.3285 1.78208 0
M  V30 2908 H 297.78 -5.89129 2.69873 0
M  V30 2909 N 291.186 -0.45159 -1.50991 0
M  V30 2910 C 292.411 0.110667 -2.07105 0
M  V30 2911 C 292.836 1.3446 -1.31538 0
M  V30 2912 O 292.194 1.77743 -0.357365 0
M  V30 2913 C 292.242 0.397238 -3.58405 0
M  V30 2914 O 291.346 1.48124 -3.84881 0
M  V30 2915 H 290.687 -0.00439271 -0.663985 0
M  V30 2916 H 293.217 -0.637026 -1.9443 0
M  V30 2917 H 293.227 0.64351 -4.02893 0
M  V30 2918 H 291.902 -0.504553 -4.12828 0
M  V30 2919 H 290.479 1.22381 -3.52246 0
M  V30 2920 N 292.664 1.56529 -0.183458 0
M  V30 2921 C 293.913 1.96419 0.458511 0
M  V30 2922 C 294.226 1.0727 1.63562 0
M  V30 2923 O 295.432 1.36893 2.34462 0
M  V30 2924 C 293.888 3.49298 0.867122 0
M  V30 2925 C 293.496 4.47092 -0.285057 0
M  V30 2926 C 295.24 3.97983 1.47683 0
M  V30 2927 C 293.147 5.91225 0.143862 0
M  V30 2928 H 292.077 0.733394 0.175071 0
M  V30 2929 H 294.728 1.81448 -0.273624 0
M  V30 2930 H 293.11 3.59731 1.65559 0
M  V30 2931 H 294.284 4.48383 -1.0625 0
M  V30 2932 H 292.599 4.08535 -0.805503 0
M  V30 2933 H 295.196 5.03134 1.80999 0
M  V30 2934 H 295.539 3.41618 2.37914 0
M  V30 2935 H 296.072 3.90617 0.752562 0
M  V30 2936 H 292.811 6.5149 -0.723974 0
M  V30 2937 H 292.331 5.93214 0.886413 0
M  V30 2938 H 294.01 6.44362 0.583628 0
M  V30 2939 N 294.142 -0.090211 1.57342 0
M  V30 2940 C 295.558 -0.444547 1.53284 0
M  V30 2941 C 295.758 -1.80238 0.900914 0
M  V30 2942 O 294.814 -2.4759 0.495513 0
M  V30 2943 C 296.127 -0.402543 2.97993 0
M  V30 2944 C 297.675 -0.48405 3.09234 0
M  V30 2945 C 298.15 -0.472144 4.5556 0
M  V30 2946 N 299.641 -0.532757 4.60126 0
M  V30 2947 C 300.376 -0.545462 5.708 0
M  V30 2948 N 299.872 -0.514082 6.9089 0
M  V30 2949 N 301.665 -0.59064 5.58988 0
M  V30 2950 H 293.816 0.799121 1.96794 0
M  V30 2951 H 296.079 0.297965 0.899956 0
M  V30 2952 H 295.785 0.528106 3.47712 0
M  V30 2953 H 295.659 -1.21969 3.56936 0
M  V30 2954 H 298.046 -1.40512 2.595 0
M  V30 2955 H 298.127 0.361328 2.53235 0
M  V30 2956 H 297.771 0.445 5.05947 0
M  V30 2957 H 297.701 -1.3348 5.09402 0
M  V30 2958 H 300.192 -0.562006 3.73698 0
M  V30 2959 H 300.505 -0.527195 7.71 0
M  V30 2960 H 298.85 -0.481054 6.93333 0
M  V30 2961 H 302.041 -0.61272 4.64073 0
M  V30 2962 H 302.214 -0.597073 6.45243 0
M  V30 2963 N 295.62 -1.53406 -0.361157 0
M  V30 2964 C 296.583 -1.79479 -1.42548 0
M  V30 2965 C 297.583 -0.665327 -1.4639 0
M  V30 2966 O 298.773 -0.933549 -1.47073 0
M  V30 2967 C 295.905 -1.92087 -2.8163 0
M  V30 2968 H 297.098 -2.74538 -1.20701 0
M  V30 2969 H 294.651 -1.4455 -0.594546 0
M  V30 2970 H 295.386 -0.991099 -3.08784 0
M  V30 2971 H 295.171 -2.74241 -2.80239 0
M  V30 2972 H 296.661 -2.13836 -3.58697 0
M  V30 2973 N 297.098 0.621204 -1.44841 0
M  V30 2974 C 298.326 1.40752 -1.51646 0
M  V30 2975 C 298.741 1.88246 -0.144549 0
M  V30 2976 O 298.098 1.61422 0.851416 0
M  V30 2977 C 298.149 2.62119 -2.4895 0
M  V30 2978 O 297.87 2.16602 -3.80808 0
M  V30 2979 C 299.371 3.55135 -2.65319 0
M  V30 2980 H 296.591 0.431325 -0.514004 0
M  V30 2981 H 299.135 0.758835 -1.899 0
M  V30 2982 H 297.29 3.23058 -2.13805 0
M  V30 2983 H 297.704 2.95358 -4.33433 0
M  V30 2984 H 299.178 4.36874 -3.37409 0
M  V30 2985 H 299.655 4.04592 -1.70886 0
M  V30 2986 H 300.261 3.00058 -3.01405 0
M  V30 2987 N 298.576 1.31904 0.862503 0
M  V30 2988 C 299.524 1.20125 1.9918 0
M  V30 2989 C 300.518 0.107824 1.69056 0
M  V30 2990 O 301.724 0.270223 1.7796 0
M  V30 2991 H 298.099 0.372148 0.65346 0
M  V30 2992 H 300.07 2.15652 2.06244 0
M  V30 2993 C 298.819 0.933099 3.34946 0
M  V30 2994 H 298.142 1.76664 3.5865 0
M  V30 2995 H 299.582 0.890892 4.14535 0
M  V30 2996 C 298.041 -0.364172 3.34926 0
M  V30 2997 O 298.571 -1.37858 3.77304 0
M  V30 2998 N 296.777 -0.383362 2.8806 0
M  V30 2999 H 296.324 0.442651 2.53768 0
M  V30 3000 H 296.282 -1.25123 2.8843 0
M  V30 3001 N 300.054 -1.07777 1.14986 0
M  V30 3002 C 301.465 -1.61766 0.932127 0
M  V30 3003 C 301.816 -1.88974 -0.527581 0
M  V30 3004 O 300.941 -1.65198 -1.39781 0
M  V30 3005 C 301.536 -2.93891 1.68563 0
M  V30 3006 C 300.095 -3.44639 1.5133 0
M  V30 3007 C 299.242 -2.18767 1.704 0
M  V30 3008 H 302.193 -0.909201 1.30074 0
M  V30 3009 H 302.214 -3.62623 1.15259 0
M  V30 3010 H 301.726 -2.74057 2.74799 0
M  V30 3011 H 299.827 -3.69564 0.474702 0
M  V30 3012 H 299.94 -4.20966 2.28746 0
M  V30 3013 H 298.304 -2.28253 1.13016 0
M  V30 3014 H 299.087 -2.01433 2.77992 0
M  V30 3015 N 301.532 -0.945985 -1.26051 0
M  V30 3016 C 302.757 -0.612525 -1.98149 0
M  V30 3017 C 303.182 0.806623 -1.69927 0
M  V30 3018 O 302.54 1.54411 -0.950108 0
M  V30 3019 C 302.588 -0.866981 -3.50023 0
M  V30 3020 O 301.692 0.0585333 -4.12358 0
M  V30 3021 H 301.033 -0.23379 -0.621481 0
M  V30 3022 H 303.563 -1.27023 -1.60395 0
M  V30 3023 H 303.573 -0.789792 -4.00283 0
M  V30 3024 H 302.248 -1.90135 -3.69894 0
M  V30 3025 H 300.825 -0.0701241 -3.72834 0
M  V30 3026 N 303.011 1.40521 -0.713556 0
M  V30 3027 C 303.921 2.34522 -0.0606667 0
M  V30 3028 C 304.937 1.57193 0.74607 0
M  V30 3029 O 306.113 1.89591 0.679493 0
M  V30 3030 C 303.178 3.36081 0.851491 0
M  V30 3031 C 302.239 4.29286 0.0349339 0
M  V30 3032 C 301.472 5.25994 0.903649 0
M  V30 3033 O 301.695 5.28616 2.14292 0
M  V30 3034 O 300.629 6.00918 0.343723 0
M  V30 3035 H 304.455 2.91968 -0.835972 0
M  V30 3036 H 302.04 1.41681 -0.47402 0
M  V30 3037 H 303.922 3.98369 1.37404 0
M  V30 3038 H 302.597 2.81052 1.60598 0
M  V30 3039 H 301.504 3.70289 -0.532633 0
M  V30 3040 H 302.837 4.87462 -0.681287 0
M  V30 3041 N 304.489 0.459591 1.5075 0
M  V30 3042 C 305.439 -0.358926 2.25157 0
M  V30 3043 C 306.423 -0.971285 1.28276 0
M  V30 3044 O 307.615 -0.885739 1.53244 0
M  V30 3045 C 304.744 -1.44695 3.11317 0
M  V30 3046 C 303.83 -0.842894 4.15639 0
M  V30 3047 N 304.221 0.0299373 5.05791 0
M  V30 3048 C 302.519 -1.10809 4.32015 0
M  V30 3049 C 303.22 0.371563 5.80512 0
M  V30 3050 N 302.196 -0.250409 5.43023 0
M  V30 3051 H 305.998 0.313636 2.92222 0
M  V30 3052 H 303.512 0.273021 1.60089 0
M  V30 3053 H 305.509 -2.04641 3.63218 0
M  V30 3054 H 304.169 -2.12162 2.45799 0
M  V30 3055 H 305.18 0.39797 5.16369 0
M  V30 3056 H 301.857 -1.7786 3.77719 0
M  V30 3057 H 303.247 1.08319 6.63111 0
M  V30 3058 N 305.967 -1.56429 0.191757 0
M  V30 3059 C 307.195 -2.01867 -0.453586 0
M  V30 3060 C 307.61 -1.07191 -1.5542 0
M  V30 3061 O 306.967 -0.0762108 -1.82341 0
M  V30 3062 C 307.018 -3.47017 -1.013 0
M  V30 3063 O 306.739 -4.38078 0.0437005 0
M  V30 3064 C 308.24 -4.07956 -1.73456 0
M  V30 3065 H 305.46 -0.661211 -0.114199 0
M  V30 3066 H 308.004 -2.02295 0.299483 0
M  V30 3067 H 306.159 -3.47298 -1.71647 0
M  V30 3068 H 306.573 -5.23178 -0.372212 0
M  V30 3069 H 308.047 -5.1138 -2.07833 0
M  V30 3070 H 308.524 -3.51222 -2.63704 0
M  V30 3071 H 309.13 -4.11437 -1.07702 0
M  V30 3072 N 307.445 0.0818655 -1.57387 0
M  V30 3073 C 308.691 0.784074 -1.8703 0
M  V30 3074 C 309.024 1.77729 -0.782689 0
M  V30 3075 O 308.299 1.93384 0.208051 0
M  V30 3076 C 308.582 1.50105 -3.27323 0
M  V30 3077 C 308.435 0.524925 -4.46727 0
M  V30 3078 C 309.754 2.44843 -3.65705 0
M  V30 3079 H 306.873 0.283582 -0.680257 0
M  V30 3080 H 309.515 0.0474352 -1.89941 0
M  V30 3081 H 307.665 2.12897 -3.24972 0
M  V30 3082 H 309.337 -0.0970111 -4.61198 0
M  V30 3083 H 307.58 -0.160606 -4.33503 0
M  V30 3084 H 308.251 1.064 -5.41648 0
M  V30 3085 H 310.727 1.92135 -3.69085 0
M  V30 3086 H 309.603 2.92018 -4.64776 0
M  V30 3087 H 309.864 3.29197 -2.95096 0
M  V30 3088 N 308.923 1.53595 0.353017 0
M  V30 3089 C 310.172 1.69603 1.09168 0
M  V30 3090 C 310.485 0.460925 1.90092 0
M  V30 3091 O 311.691 0.501774 2.66823 0
M  V30 3092 C 310.147 2.99872 1.9901 0
M  V30 3093 C 309.755 4.30687 1.23339 0
M  V30 3094 C 311.499 3.25246 2.72792 0
M  V30 3095 C 309.406 5.52036 2.12156 0
M  V30 3096 H 308.336 0.631966 0.411261 0
M  V30 3097 H 310.987 1.80096 0.351802 0
M  V30 3098 H 309.369 2.83212 2.7678 0
M  V30 3099 H 310.543 4.58019 0.505456 0
M  V30 3100 H 308.858 4.11853 0.613663 0
M  V30 3101 H 311.455 4.13095 3.39495 0
M  V30 3102 H 311.798 2.41846 3.38846 0
M  V30 3103 H 312.331 3.42638 2.021 0
M  V30 3104 H 309.07 6.37951 1.50659 0
M  V30 3105 H 308.59 5.28966 2.82764 0
M  V30 3106 H 310.269 5.87313 2.71427 0
M  V30 3107 N 310.401 -0.613514 1.45168 0
M  V30 3108 C 311.331 -1.7354 1.56225 0
M  V30 3109 C 312.312 -1.64981 0.41414 0
M  V30 3110 O 313.497 -1.83472 0.636526 0
M  V30 3111 C 310.627 -3.12128 1.52295 0
M  V30 3112 C 309.581 -3.35491 2.65762 0
M  V30 3113 C 308.907 -4.74291 2.46885 0
M  V30 3114 C 310.207 -3.26325 4.0781 0
M  V30 3115 H 311.901 -1.64543 2.50132 0
M  V30 3116 H 309.447 -0.790185 1.20383 0
M  V30 3117 H 311.4 -3.90404 1.58628 0
M  V30 3118 H 310.124 -3.2195 0.549139 0
M  V30 3119 H 308.783 -2.59603 2.58847 0
M  V30 3120 H 308.431 -4.80839 1.47657 0
M  V30 3121 H 308.131 -4.9088 3.22972 0
M  V30 3122 H 309.655 -5.54775 2.55063 0
M  V30 3123 H 311.069 -3.94483 4.16 0
M  V30 3124 H 309.466 -3.54445 4.8424 0
M  V30 3125 H 310.536 -2.23855 4.30136 0
M  V30 3126 N 311.879 -1.3236 -0.855495 0
M  V30 3127 C 312.842 -1.21164 -1.94556 0
M  V30 3128 C 313.842 -0.134908 -1.60233 0
M  V30 3129 O 315.032 -0.385249 -1.69887 0
M  V30 3130 C 312.164 -0.863192 -3.29791 0
M  V30 3131 H 313.357 -2.18038 -2.05911 0
M  V30 3132 H 310.91 -1.16179 -1.04557 0
M  V30 3133 H 311.645 0.103769 -3.24134 0
M  V30 3134 H 311.43 -1.64166 -3.56078 0
M  V30 3135 H 312.92 -0.809156 -4.09686 0
M  V30 3136 N 313.357 1.07166 -1.15556 0
M  V30 3137 C 314.603 1.80065 -0.932984 0
M  V30 3138 C 314.936 1.86586 0.53845 0
M  V30 3139 O 314.211 1.35098 1.39924 0
M  V30 3140 C 314.494 3.25022 -1.55025 0
M  V30 3141 C 314.347 3.26634 -3.09242 0
M  V30 3142 C 315.666 4.22341 -1.2376 0
M  V30 3143 H 312.785 0.653697 -0.340366 0
M  V30 3144 H 315.427 1.25389 -1.4275 0
M  V30 3145 H 313.577 3.71712 -1.12972 0
M  V30 3146 H 315.249 2.88173 -3.60214 0
M  V30 3147 H 313.492 2.65539 -3.43033 0
M  V30 3148 H 314.163 4.28854 -3.47546 0
M  V30 3149 H 316.639 3.8405 -1.60139 0
M  V30 3150 H 315.515 5.22053 -1.69564 0
M  V30 3151 H 315.776 4.41828 -0.154938 0
M  V30 3152 N 314.835 0.952656 1.25548 0
M  V30 3153 C 316.081 0.607272 1.93494 0
M  V30 3154 C 316.414 -0.853245 1.74452 0
M  V30 3155 O 315.689 -1.61194 1.08843 0
M  V30 3156 C 315.972 0.96435 3.46947 0
M  V30 3157 C 315.825 2.48045 3.75225 0
M  V30 3158 C 317.144 0.487987 4.37386 0
M  V30 3159 H 314.263 0.222096 0.702739 0
M  V30 3160 H 316.905 1.18895 1.48203 0
M  V30 3161 H 315.055 0.469361 3.85654 0
M  V30 3162 H 316.727 3.04905 3.46166 0
M  V30 3163 H 314.97 2.919 3.209 0
M  V30 3164 H 315.641 2.6808 4.82532 0
M  V30 3165 H 318.117 0.912558 4.0597 0
M  V30 3166 H 316.993 0.766547 5.43521 0
M  V30 3167 H 317.254 -0.612063 4.37843 0
M  V30 3168 N 316.313 -1.40141 0.720998 0
M  V30 3169 C 317.538 -2.05618 0.271258 0
M  V30 3170 C 317.963 -1.53978 -1.08039 0
M  V30 3171 O 317.321 -0.677463 -1.68167 0
M  V30 3172 C 317.369 -3.59609 0.267197 0
M  V30 3173 O 316.473 -4.05526 -0.749814 0
M  V30 3174 H 315.814 -0.651904 0.126162 0
M  V30 3175 H 318.344 -1.79439 0.982997 0
M  V30 3176 H 318.354 -4.0786 0.106744 0
M  V30 3177 H 317.029 -3.96559 1.25354 0
M  V30 3178 H 315.606 -3.68722 -0.556644 0
M  V30 3179 N 317.792 -0.46758 -1.50504 0
M  V30 3180 C 319.208 -0.121533 -1.59137 0
M  V30 3181 C 319.408 1.3717 -1.47603 0
M  V30 3182 O 318.464 2.14464 -1.33272 0
M  V30 3183 C 319.777 -0.6686 -2.93173 0
M  V30 3184 C 321.325 -0.631716 -3.06559 0
M  V30 3185 C 321.8 -1.15627 -4.43164 0
M  V30 3186 N 323.291 -1.11553 -4.49567 0
M  V30 3187 C 324.026 -1.49195 -5.5365 0
M  V30 3188 N 323.522 -1.94269 -6.65005 0
M  V30 3189 N 325.315 -1.4082 -5.44175 0
M  V30 3190 H 317.466 -1.4388 -1.56245 0
M  V30 3191 H 319.729 -0.594784 -0.738198 0
M  V30 3192 H 319.435 -1.71453 -3.07078 0
M  V30 3193 H 319.309 -0.11021 -3.77039 0
M  V30 3194 H 321.696 0.405297 -2.92304 0
M  V30 3195 H 321.777 -1.22687 -2.24458 0
M  V30 3196 H 321.421 -2.1919 -4.58168 0
M  V30 3197 H 321.351 -0.537365 -5.23851 0
M  V30 3198 H 323.842 -0.784895 -3.69659 0
M  V30 3199 H 324.155 -2.21148 -7.40482 0
M  V30 3200 H 322.5 -1.98219 -6.66134 0
M  V30 3201 H 325.691 -1.0545 -4.56068 0
M  V30 3202 H 325.864 -1.70481 -6.25172 0
M  V30 3203 N 319.27 1.56325 -0.20005 0
M  V30 3204 C 320.516 1.98012 0.438059 0
M  V30 3205 C 320.849 1.08702 1.60927 0
M  V30 3206 O 320.124 0.140064 1.93995 0
M  V30 3207 C 320.407 3.48841 0.893419 0
M  V30 3208 C 320.26 4.48928 -0.279947 0
M  V30 3209 C 321.579 4.03498 1.75719 0
M  V30 3210 H 318.698 0.719918 0.157757 0
M  V30 3211 H 321.34 1.87743 -0.291968 0
M  V30 3212 H 319.49 3.57723 1.51547 0
M  V30 3213 H 321.162 4.52079 -0.91772 0
M  V30 3214 H 319.405 4.23694 -0.930919 0
M  V30 3215 H 320.076 5.5194 0.0812601 0
M  V30 3216 H 322.552 3.97427 1.23253 0
M  V30 3217 H 321.428 5.09393 2.04476 0
M  V30 3218 H 321.689 3.4906 2.71311 0
M  V30 3219 N 320.748 -0.0735177 1.57428 0
M  V30 3220 C 321.973 -0.789787 1.91774 0
M  V30 3221 C 322.398 -1.70413 0.796306 0
M  V30 3222 O 321.756 -1.79555 -0.250961 0
M  V30 3223 C 321.804 -1.5609 3.25067 0
M  V30 3224 O 320.908 -2.67144 3.14178 0
M  V30 3225 H 320.249 -0.215582 0.628029 0
M  V30 3226 H 322.779 -0.0422781 2.04556 0
M  V30 3227 H 322.789 -1.94052 3.58898 0
M  V30 3228 H 321.464 -0.890015 4.06265 0
M  V30 3229 H 320.041 -2.32052 2.91901 0
M  V30 3230 N 322.226 -1.5378 -0.344866 0
M  V30 3231 C 323.503 -1.61589 -1.10219 0
M  V30 3232 C 323.883 -0.436316 -2.06542 0
M  V30 3233 O 323.231 0.571543 -2.21237 0
M  V30 3234 C 323.441 -2.97602 -1.82301 0
M  V30 3235 C 324.789 -3.5291 -2.36093 0
M  V30 3236 O 325.813 -2.99768 -1.924 0
M  V30 3237 O 324.672 -4.45859 -3.16026 0
M  V30 3238 H 321.766 -0.653522 -0.506792 0
M  V30 3239 H 324.312 -1.66126 -0.346465 0
M  V30 3240 H 323.084 -3.74893 -1.12121 0
M  V30 3241 H 322.707 -2.9665 -2.64735 0
M  V30 3242 N 323.704 0.605807 -1.45491 0
M  V30 3243 C 324.981 1.36522 -1.40075 0
M  V30 3244 C 325.361 2.10976 -0.0722744 0
M  V30 3245 O 324.709 2.08007 0.945808 0
M  V30 3246 C 324.919 2.31056 -2.61561 0
M  V30 3247 C 326.267 2.93608 -3.06724 0
M  V30 3248 O 327.291 2.41376 -2.61946 0
M  V30 3249 O 326.15 3.88421 -3.84437 0
M  V30 3250 H 323.244 0.612248 -0.555951 0
M  V30 3251 H 325.79 0.628747 -1.57623 0
M  V30 3252 H 324.562 1.75311 -3.49831 0
M  V30 3253 H 324.185 3.12081 -2.46356 0
M  V30 3254 N 325.182 1.32811 0.848464 0
M  V30 3255 C 326.132 1.18842 1.94578 0
M  V30 3256 C 327.116 0.0937517 1.60627 0
M  V30 3257 O 328.308 0.320887 1.74067 0
M  V30 3258 C 325.437 0.91999 3.30743 0
M  V30 3259 C 324.523 2.05665 3.70894 0
M  V30 3260 N 324.914 3.30579 3.8282 0
M  V30 3261 C 323.212 1.9612 4.00566 0
M  V30 3262 C 323.913 4.05067 4.17487 0
M  V30 3263 N 322.889 3.33419 4.2934 0
M  V30 3264 H 326.691 2.13536 2.0194 0
M  V30 3265 H 324.205 1.2468 1.0406 0
M  V30 3266 H 326.202 0.800859 4.09136 0
M  V30 3267 H 324.862 -0.0185076 3.24695 0
M  V30 3268 H 325.873 3.65441 3.66978 0
M  V30 3269 H 322.55 1.09871 4.02784 0
M  V30 3270 H 323.94 5.12815 4.34131 0
M  V30 3271 N 326.66 -1.06551 1.16123 0
M  V30 3272 C 327.57 -2.17484 0.879662 0
M  V30 3273 C 328.586 -1.73377 -0.147104 0
M  V30 3274 O 329.762 -2.01379 0.0289128 0
M  V30 3275 C 326.827 -3.44591 0.381829 0
M  V30 3276 C 325.888 -4.0322 1.4735 0
M  V30 3277 C 325.121 -5.24261 0.999324 0
M  V30 3278 O 325.344 -5.70198 -0.151957 0
M  V30 3279 O 324.278 -5.74775 1.78653 0
M  V30 3280 H 328.104 -2.44075 1.80724 0
M  V30 3281 H 325.689 -1.16042 0.940992 0
M  V30 3282 H 327.571 -4.21254 0.111053 0
M  V30 3283 H 326.246 -3.19532 -0.51777 0
M  V30 3284 H 325.153 -3.2806 1.79798 0
M  V30 3285 H 326.486 -4.32568 2.34831 0
M  V30 3286 N 328.138 -0.959301 -1.25041 0
M  V30 3287 C 329.048 -0.489994 -2.29426 0
M  V30 3288 C 330.064 0.444944 -1.68215 0
M  V30 3289 O 331.24 0.320046 -1.98841 0
M  V30 3290 C 328.305 0.220309 -3.45999 0
M  V30 3291 C 327.366 -0.753418 -4.22637 0
M  V30 3292 C 326.599 -0.076918 -5.33645 0
M  V30 3293 O 326.822 1.13649 -5.58963 0
M  V30 3294 O 325.756 -0.764824 -5.97021 0
M  V30 3295 H 329.582 -1.35755 -2.71669 0
M  V30 3296 H 327.167 -0.725961 -1.30576 0
M  V30 3297 H 329.049 0.619677 -4.16819 0
M  V30 3298 H 327.724 1.06296 -3.0575 0
M  V30 3299 H 326.631 -1.20308 -3.54227 0
M  V30 3300 H 327.964 -1.56423 -4.66683 0
M  V30 3301 N 329.616 1.39756 -0.72842 0
M  V30 3302 C 330.579 2.29012 -0.0927297 0
M  V30 3303 C 331.579 1.45992 0.674025 0
M  V30 3304 O 332.769 1.66749 0.50402 0
M  V30 3305 C 329.901 3.29396 0.878137 0
M  V30 3306 H 331.094 2.86729 -0.879011 0
M  V30 3307 H 328.647 1.48293 -0.493847 0
M  V30 3308 H 329.382 2.76722 1.69101 0
M  V30 3309 H 329.167 3.907 0.331051 0
M  V30 3310 H 330.657 3.96199 1.3197 0
M  V30 3311 N 331.094 0.475555 1.50254 0
M  V30 3312 C 332.319 -0.0777042 2.07254 0
M  V30 3313 C 332.744 -1.3235 1.3366 0
M  V30 3314 O 332.102 -1.77152 0.385597 0
M  V30 3315 C 332.15 -0.340169 3.58992 0
M  V30 3316 O 331.254 -1.41982 3.87188 0
M  V30 3317 H 330.595 0.0149556 0.663832 0
M  V30 3318 H 333.125 0.667878 1.93392 0
M  V30 3319 H 333.135 -0.579332 4.03866 0
M  V30 3320 H 331.81 0.570167 4.11973 0
M  V30 3321 H 330.387 -1.16762 3.54148 0
M  V30 3322 N 332.573 -1.56217 0.208337 0
M  V30 3323 C 333.819 -1.98242 -0.427552 0
M  V30 3324 C 334.152 -1.09554 -1.60348 0
M  V30 3325 O 333.427 -0.15035 -1.93918 0
M  V30 3326 C 333.71 -3.4931 -0.874907 0
M  V30 3327 C 333.563 -4.48773 0.303751 0
M  V30 3328 C 334.882 -4.04424 -1.73577 0
M  V30 3329 H 332.001 -0.720744 -0.153936 0
M  V30 3330 H 334.643 -1.87586 0.30192 0
M  V30 3331 H 332.793 -3.58522 -1.49648 0
M  V30 3332 H 334.465 -4.51586 0.941682 0
M  V30 3333 H 332.708 -4.23194 0.953375 0
M  V30 3334 H 333.379 -5.51976 -0.0519883 0
M  V30 3335 H 335.855 -3.98075 -1.21143 0
M  V30 3336 H 334.731 -5.1047 -2.01771 0
M  V30 3337 H 334.992 -3.50494 -2.69456 0
M  V30 3338 N 334.051 0.0651679 -1.57465 0
M  V30 3339 C 334.981 1.07693 -2.07182 0
M  V30 3340 C 335.962 1.39962 -0.966673 0
M  V30 3341 O 337.147 1.49475 -1.2398 0
M  V30 3342 C 334.277 2.3885 -2.52127 0
M  V30 3343 C 333.231 2.20917 -3.66579 0
M  V30 3344 C 332.557 3.57515 -3.97601 0
M  V30 3345 C 333.857 1.62493 -4.9638 0
M  V30 3346 H 335.551 0.663199 -2.91962 0
M  V30 3347 H 333.097 0.317569 -1.40455 0
M  V30 3348 H 335.05 3.09928 -2.85522 0
M  V30 3349 H 333.774 2.82215 -1.64384 0
M  V30 3350 H 332.433 1.52279 -3.33477 0
M  V30 3351 H 332.081 3.98463 -3.06979 0
M  V30 3352 H 331.781 3.46353 -4.74672 0
M  V30 3353 H 333.305 4.30013 -4.33499 0
M  V30 3354 H 334.719 2.23445 -5.27963 0
M  V30 3355 H 333.116 1.62009 -5.77818 0
M  V30 3356 H 334.186 0.587041 -4.81333 0
M  V30 3357 N 335.529 1.53961 0.336706 0
M  V30 3358 C 336.94 1.62914 0.911925 0
M  V30 3359 C 337.291 0.514795 1.89326 0
M  V30 3360 O 336.416 -0.354395 2.13478 0
M  V30 3361 C 337.011 2.95304 1.66076 0
M  V30 3362 C 335.57 3.06496 2.18489 0
M  V30 3363 C 334.717 2.58403 1.00613 0
M  V30 3364 H 337.668 1.58285 0.114649 0
M  V30 3365 H 337.689 2.84727 2.5241 0
M  V30 3366 H 337.201 3.76387 0.946276 0
M  V30 3367 H 335.302 2.3006 2.93092 0
M  V30 3368 H 335.415 4.1208 2.44391 0
M  V30 3369 H 333.779 2.13977 1.38152 0
M  V30 3370 H 334.562 3.41932 0.306179 0
M  V30 3371 N 337.007 -0.598083 1.45811 0
M  V30 3372 C 337.937 -1.71873 1.58057 0
M  V30 3373 C 338.918 -1.64533 0.431615 0
M  V30 3374 O 340.103 -1.82787 0.65595 0
M  V30 3375 C 337.233 -3.10495 1.55597 0
M  V30 3376 C 336.187 -3.32654 2.69305 0
M  V30 3377 C 335.513 -4.71646 2.51902 0
M  V30 3378 C 336.813 -3.21981 4.11248 0
M  V30 3379 H 338.507 -1.61881 2.51863 0
M  V30 3380 H 336.053 -0.777372 1.21214 0
M  V30 3381 H 338.006 -3.88699 1.6276 0
M  V30 3382 H 336.73 -3.2135 0.583255 0
M  V30 3383 H 335.389 -2.56843 2.61586 0
M  V30 3384 H 335.037 -4.79246 1.52748 0
M  V30 3385 H 334.737 -4.87426 3.2816 0
M  V30 3386 H 336.261 -5.52038 2.60933 0
M  V30 3387 H 337.675 -3.90049 4.20161 0
M  V30 3388 H 336.072 -3.49289 4.87972 0
M  V30 3389 H 337.142 -2.1928 4.32486 0
M  V30 3390 N 338.485 -1.33259 -0.841409 0
M  V30 3391 C 339.415 -1.25926 -1.96634 0
M  V30 3392 C 340.396 -0.140349 -1.6952 0
M  V30 3393 O 341.581 -0.329707 -1.91381 0
M  V30 3394 C 338.711 -0.99512 -3.32738 0
M  V30 3395 C 337.665 -2.0767 -3.74242 0
M  V30 3396 C 336.991 -1.66474 -5.08125 0
M  V30 3397 C 338.291 -3.49318 -3.88297 0
M  V30 3398 H 339.985 -2.20046 -2.03027 0
M  V30 3399 H 337.531 -1.05931 -0.975425 0
M  V30 3400 H 339.484 -0.930323 -4.11002 0
M  V30 3401 H 338.208 -0.0183004 -3.26595 0
M  V30 3402 H 336.867 -2.13187 -2.98239 0
M  V30 3403 H 336.515 -0.675012 -4.9845 0
M  V30 3404 H 336.215 -2.3885 -5.36865 0
M  V30 3405 H 337.739 -1.61455 -5.88867 0
M  V30 3406 H 339.153 -3.46316 -4.56879 0
M  V30 3407 H 337.55 -4.20158 -4.28471 0
M  V30 3408 H 338.62 -3.8801 -2.9082 0
M  V30 3409 N 339.963 1.05934 -1.16686 0
M  V30 3410 C 340.913 2.11764 -0.844978 0
M  V30 3411 C 341.897 1.59922 0.177178 0
M  V30 3412 O 343.089 1.76983 -0.0241768 0
M  V30 3413 C 340.218 3.41493 -0.351812 0
M  V30 3414 C 339.304 4.00152 -1.40496 0
M  V30 3415 N 339.695 4.32874 -2.61636 0
M  V30 3416 C 337.993 4.278 -1.26106 0
M  V30 3417 C 338.694 4.79552 -3.29249 0
M  V30 3418 N 337.67 4.79211 -2.56628 0
M  V30 3419 H 341.472 2.34916 -1.76612 0
M  V30 3420 H 338.986 1.23511 -1.05446 0
M  V30 3421 H 340.983 4.16773 -0.102796 0
M  V30 3422 H 339.643 3.19778 0.56322 0
M  V30 3423 H 340.654 4.23109 -2.98663 0
M  V30 3424 H 337.331 4.15511 -0.407081 0
M  V30 3425 H 338.721 5.14045 -4.32675 0
M  V30 3426 N 341.441 0.965919 1.2453 0
M  V30 3427 C 342.404 0.499547 2.2369 0
M  V30 3428 C 343.404 -0.40294 1.5567 0
M  V30 3429 O 344.594 -0.19865 1.73064 0
M  V30 3430 C 341.726 -0.276792 3.39774 0
M  V30 3431 H 342.919 1.37613 2.66463 0
M  V30 3432 H 340.472 0.750324 1.37112 0
M  V30 3433 H 341.207 -1.17055 3.02438 0
M  V30 3434 H 340.992 0.370826 3.90343 0
M  V30 3435 H 342.482 -0.592175 4.1338 0
M  V30 3436 N 342.919 -1.39368 0.735821 0
M  V30 3437 C 344.167 -2.00101 0.283562 0
M  V30 3438 C 344.488 -1.5868 -1.13338 0
M  V30 3439 O 343.758 -0.835423 -1.77193 0
M  V30 3440 H 342.338 -0.740024 0.101851 0
M  V30 3441 H 345 -1.70404 0.945962 0
M  V30 3442 H 344.096 -3.10323 0.332604 0
M  V30 3443 N 344.397 -0.483516 -1.5 0
M  V30 3444 C 345.644 0.0671597 -2.02389 0
M  V30 3445 C 345.972 1.38597 -1.36459 0
M  V30 3446 O 345.227 1.89634 -0.483458 0
M  V30 3447 C 345.526 0.286226 -3.56252 0
M  V30 3448 C 345.192 -0.952416 -4.40726 0
M  V30 3449 C 343.854 -1.29199 -4.63531 0
M  V30 3450 C 346.206 -1.77655 -4.89988 0
M  V30 3451 C 343.534 -2.45553 -5.32842 0
M  V30 3452 C 345.886 -2.93147 -5.60578 0
M  V30 3453 C 344.55 -3.27505 -5.81633 0
M  V30 3454 H 343.82 0.0245755 -0.740592 0
M  V30 3455 H 346.467 -0.640124 -1.80485 0
M  V30 3456 H 344.772 1.07587 -3.76739 0
M  V30 3457 H 346.469 0.726473 -3.94365 0
M  V30 3458 H 343.059 -0.677881 -4.23205 0
M  V30 3459 H 347.243 -1.52737 -4.72213 0
M  V30 3460 H 342.499 -2.72431 -5.47349 0
M  V30 3461 H 346.673 -3.57344 -5.97727 0
M  V30 3462 H 344.3 -4.1777 -6.35116 0
M  V30 3463 N 345.875 1.56104 -0.216619 0
M  V30 3464 C 346.823 2.21434 0.712036 0
M  V30 3465 C 347.817 1.19218 1.20348 0
M  V30 3466 O 349.023 1.3731 1.16387 0
M  V30 3467 H 345.398 0.70992 0.248026 0
M  V30 3468 H 347.369 2.98083 0.137558 0
M  V30 3469 C 346.118 2.90434 1.91163 0
M  V30 3470 H 345.441 3.68842 1.54258 0
M  V30 3471 H 346.881 3.39552 2.5393 0
M  V30 3472 C 345.34 1.92635 2.76394 0
M  V30 3473 O 345.87 1.44017 3.74996 0
M  V30 3474 N 344.076 1.60392 2.42328 0
M  V30 3475 H 343.623 2.00122 1.622 0
M  V30 3476 H 343.581 0.952159 2.99635 0
M  V30 3477 N 347.353 -0.0568162 1.57498 0
M  V30 3478 C 348.769 -0.411933 1.54192 0
M  V30 3479 C 348.969 -1.78287 0.938942 0
M  V30 3480 O 348.025 -2.46483 0.547919 0
M  V30 3481 C 349.338 -0.339244 2.9878 0
M  V30 3482 C 350.886 -0.418348 3.10192 0
M  V30 3483 C 351.361 -0.375407 4.56459 0
M  V30 3484 N 352.852 -0.435038 4.61153 0
M  V30 3485 C 353.587 -0.424265 5.71828 0
M  V30 3486 N 353.083 -0.367418 6.91825 0
M  V30 3487 N 354.876 -0.471938 5.60115 0
M  V30 3488 H 347.027 0.840684 1.95055 0
M  V30 3489 H 349.29 0.316987 0.893433 0
M  V30 3490 H 348.996 0.601742 3.46514 0
M  V30 3491 H 348.87 -1.14371 3.59443 0
M  V30 3492 H 351.257 -1.34976 2.62422 0
M  V30 3493 H 351.338 0.414962 2.52412 0
M  V30 3494 H 350.982 0.552219 5.04889 0
M  V30 3495 H 350.912 -1.22645 5.12119 0
M  V30 3496 H 353.403 -0.482612 3.74806 0
M  V30 3497 H 353.716 -0.363535 7.71944 0
M  V30 3498 H 352.061 -0.333879 6.94198 0
M  V30 3499 H 355.252 -0.514145 4.65268 0
M  V30 3500 H 355.425 -0.460073 6.46365 0
M  V30 3501 N 348.832 -1.54138 -0.328536 0
M  V30 3502 C 350.248 -1.44736 -0.672574 0
M  V30 3503 C 350.448 -0.616217 -1.91846 0
M  V30 3504 O 349.504 -0.113067 -2.52247 0
M  V30 3505 C 350.817 -2.884 -0.851217 0
M  V30 3506 C 352.365 -2.98271 -0.948877 0
M  V30 3507 C 352.84 -4.43074 -1.15973 0
M  V30 3508 N 354.331 -4.46665 -1.22658 0
M  V30 3509 C 355.066 -5.55857 -1.40751 0
M  V30 3510 N 354.562 -6.75026 -1.5592 0
M  V30 3511 N 356.355 -5.43495 -1.4342 0
M  V30 3512 H 348.506 -2.06661 0.490421 0
M  V30 3513 H 350.769 -0.934812 0.157579 0
M  V30 3514 H 350.475 -3.51699 -0.00704236 0
M  V30 3515 H 350.349 -3.34225 -1.74853 0
M  V30 3516 H 352.736 -2.35102 -1.78356 0
M  V30 3517 H 352.817 -2.55785 -0.0281435 0
M  V30 3518 H 352.461 -5.06827 -0.329915 0
M  V30 3519 H 352.391 -4.83165 -2.09426 0
M  V30 3520 H 354.882 -3.60797 -1.124 0
M  V30 3521 H 355.195 -7.54004 -1.69404 0
M  V30 3522 H 353.54 -6.77944 -1.53027 0
M  V30 3523 H 356.731 -4.49349 -1.31162 0
M  V30 3524 H 356.904 -6.28649 -1.57178 0
M  V30 3525 N 350.31 0.590341 -1.46126 0
M  V30 3526 C 351.557 1.34882 -1.5104 0
M  V30 3527 C 351.885 1.93849 -0.159021 0
M  V30 3528 O 351.14 1.76544 0.844436 0
M  V30 3529 C 351.439 2.5032 -2.55097 0
M  V30 3530 C 351.105 2.09394 -3.99331 0
M  V30 3531 C 349.767 1.97947 -4.38601 0
M  V30 3532 C 352.119 1.77712 -4.89967 0
M  V30 3533 C 349.447 1.53065 -5.66381 0
M  V30 3534 C 351.799 1.34312 -6.18177 0
M  V30 3535 C 350.463 1.21436 -6.56361 0
M  V30 3536 H 349.733 0.493568 -0.552695 0
M  V30 3537 H 352.38 0.665539 -1.79563 0
M  V30 3538 H 350.685 3.24062 -2.20207 0
M  V30 3539 H 352.382 3.08541 -2.56132 0
M  V30 3540 H 348.972 2.19235 -3.68285 0
M  V30 3541 H 353.156 1.85445 -4.60352 0
M  V30 3542 H 348.412 1.41733 -5.94745 0
M  V30 3543 H 352.586 1.08849 -6.87841 0
M  V30 3544 H 350.213 0.864345 -7.5527 0
M  V30 3545 N 351.788 1.33704 0.83433 0
M  V30 3546 C 352.721 1.18675 1.94914 0
M  V30 3547 C 353.699 0.0811145 1.62398 0
M  V30 3548 O 354.883 0.244186 1.86912 0
M  V30 3549 C 352.01 0.821231 3.28593 0
M  V30 3550 C 351.056 1.93501 3.80079 0
M  V30 3551 S 351.889 3.54671 4.01209 0
M  V30 3552 C 353.045 3.20136 5.37833 0
M  V30 3553 H 353.278 2.13043 2.07364 0
M  V30 3554 H 350.811 1.18598 0.988624 0
M  V30 3555 H 352.769 0.617123 4.05835 0
M  V30 3556 H 351.43 -0.103927 3.13928 0
M  V30 3557 H 350.623 1.63273 4.76821 0
M  V30 3558 H 350.225 2.09601 3.09747 0
M  V30 3559 H 352.517 2.71242 6.20833 0
M  V30 3560 H 353.46 4.15975 5.73036 0
M  V30 3561 H 353.868 2.56613 5.02802 0
M  V30 3562 N 353.266 -1.05314 1.17247 0
M  V30 3563 C 354.176 -2.16538 0.90268 0
M  V30 3564 C 355.192 -1.73523 -0.128707 0
M  V30 3565 O 356.368 -2.01337 0.0502701 0
M  V30 3566 C 353.433 -3.44167 0.418356 0
M  V30 3567 C 352.494 -4.01635 1.51618 0
M  V30 3568 C 351.727 -5.23171 1.05487 0
M  V30 3569 O 351.95 -5.70327 -0.0914715 0
M  V30 3570 O 350.884 -5.72848 1.8474 0
M  V30 3571 H 354.71 -2.42145 1.83302 0
M  V30 3572 H 352.295 -1.15037 0.953246 0
M  V30 3573 H 354.177 -4.21112 0.155726 0
M  V30 3574 H 352.852 -3.20063 -0.48385 0
M  V30 3575 H 351.759 -3.26135 1.83268 0
M  V30 3576 H 353.092 -4.30053 2.39405 0
M  V30 3577 N 354.744 -0.972509 -1.24016 0
M  V30 3578 C 355.692 -0.498562 -2.27194 0
M  V30 3579 C 356.686 0.440372 -1.63576 0
M  V30 3580 O 357.892 0.315133 -1.7722 0
M  V30 3581 H 354.267 -0.142775 -0.738322 0
M  V30 3582 H 356.238 -1.38065 -2.64539 0
M  V30 3583 C 354.987 0.191072 -3.47175 0
M  V30 3584 H 354.31 -0.522318 -3.96373 0
M  V30 3585 H 355.75 0.486445 -4.212 0
M  V30 3586 C 354.209 1.41967 -3.05527 0
M  V30 3587 O 354.739 2.51642 -3.13112 0
M  V30 3588 N 352.945 1.28746 -2.60524 0
M  V30 3589 H 352.492 0.395089 -2.54552 0
M  V30 3590 H 352.45 2.11061 -2.33025 0
M  V30 3591 N 356.222 1.38976 -0.743202 0
M  V30 3592 C 357.447 2.05161 -0.303936 0
M  V30 3593 C 357.872 1.55677 1.05576 0
M  V30 3594 O 357.23 0.704131 1.67068 0
M  V30 3595 C 357.278 3.59138 -0.324373 0
M  V30 3596 O 356.382 4.06668 0.685204 0
M  V30 3597 H 355.723 0.649815 -0.136518 0
M  V30 3598 H 358.253 1.77852 -1.01142 0
M  V30 3599 H 358.263 4.07639 -0.171618 0
M  V30 3600 H 356.938 3.94515 -1.31647 0
M  V30 3601 H 355.515 3.69561 0.497913 0
M  V30 3602 N 357.7 0.491464 1.49741 0
M  V30 3603 C 358.925 -0.0557177 2.07325 0
M  V30 3604 C 359.35 -1.30925 1.35056 0
M  V30 3605 O 358.708 -1.76733 0.404365 0
M  V30 3606 C 358.756 -0.302074 3.59333 0
M  V30 3607 O 357.86 -1.37868 3.88672 0
M  V30 3608 H 357.201 0.0219956 0.663636 0
M  V30 3609 H 359.731 0.688352 1.92673 0
M  V30 3610 H 359.741 -0.536464 4.04458 0
M  V30 3611 H 358.416 0.61383 4.11345 0
M  V30 3612 H 356.993 -1.12999 3.55367 0
M  V30 3613 N 359.178 -1.55987 0.224894 0
M  V30 3614 C 360.427 -1.97566 -0.406273 0
M  V30 3615 C 360.74 -1.11569 -1.6066 0
M  V30 3616 O 361.946 -1.43062 -2.3075 0
M  V30 3617 C 360.402 -3.51474 -0.774207 0
M  V30 3618 C 360.01 -4.46179 0.403496 0
M  V30 3619 C 361.754 -4.01758 -1.37079 0
M  V30 3620 C 359.661 -5.91399 0.0129412 0
M  V30 3621 H 358.591 -0.737777 -0.155565 0
M  V30 3622 H 361.242 -1.80659 0.321635 0
M  V30 3623 H 359.624 -3.63994 -1.55963 0
M  V30 3624 H 360.798 -4.45409 1.18101 0
M  V30 3625 H 359.113 -4.06255 0.913536 0
M  V30 3626 H 361.71 -5.07756 -1.67596 0
M  V30 3627 H 362.053 -3.47805 -2.28773 0
M  V30 3628 H 362.586 -3.92475 -0.648733 0
M  V30 3629 H 359.325 -6.49341 0.896451 0
M  V30 3630 H 358.845 -5.95356 -0.728821 0
M  V30 3631 H 360.524 -6.45683 -0.412582 0
M  V30 3632 N 360.656 0.0484629 -1.57525 0
M  V30 3633 C 361.905 0.742065 -1.87553 0
M  V30 3634 C 362.218 1.77545 -0.820802 0
M  V30 3635 O 363.424 2.52027 -1.00967 0
M  V30 3636 C 361.88 1.37081 -3.32771 0
M  V30 3637 C 361.488 0.374786 -4.4643 0
M  V30 3638 C 363.232 2.04542 -3.71972 0
M  V30 3639 C 361.139 1.01077 -5.82698 0
M  V30 3640 H 360.069 0.280903 -0.699721 0
M  V30 3641 H 362.72 -0.00411877 -1.835 0
M  V30 3642 H 361.102 2.16605 -3.31509 0
M  V30 3643 H 362.276 -0.392331 -4.59127 0
M  V30 3644 H 360.591 -0.196653 -4.15935 0
M  V30 3645 H 363.188 2.52943 -4.71088 0
M  V30 3646 H 363.531 2.85515 -3.02964 0
M  V30 3647 H 364.064 1.31819 -3.75325 0
M  V30 3648 H 360.803 0.240878 -6.55057 0
M  V30 3649 H 360.323 1.74819 -5.73758 0
M  V30 3650 H 362.002 1.52383 -6.28799 0
M  V30 3651 N 362.134 1.5431 0.320358 0
M  V30 3652 C 363.097 1.83195 1.3774 0
M  V30 3653 C 364.097 0.703906 1.44575 0
M  V30 3654 O 365.287 0.972214 1.44546 0
M  V30 3655 C 362.419 1.99487 2.76438 0
M  V30 3656 H 363.612 2.77642 1.1338 0
M  V30 3657 H 361.165 1.46076 0.556012 0
M  V30 3658 H 361.9 1.07262 3.06048 0
M  V30 3659 H 361.685 2.81575 2.7287 0
M  V30 3660 H 363.175 2.23271 3.52902 0
M  V30 3661 N 363.613 -0.582584 1.46437 0
M  V30 3662 C 364.853 -1.35184 1.53312 0
M  V30 3663 C 365.217 -1.9115 0.180508 0
M  V30 3664 O 366.418 -2.68514 0.124017 0
M  V30 3665 C 364.689 -2.45089 2.60127 0
M  V30 3666 S 366.248 -3.32439 2.86408 0
M  V30 3667 H 363.066 -0.460559 0.54167 0
M  V30 3668 H 365.668 -0.669709 1.83671 0
M  V30 3669 H 364.372 -2.02366 3.57038 0
M  V30 3670 H 363.903 -3.18074 2.315 0
M  V30 3671 H 365.918 -4.43924 2.21688 0
M  V30 3672 N 365.091 -1.34144 -0.827227 0
M  V30 3673 C 366.321 -1.29138 -1.61267 0
M  V30 3674 C 366.729 0.137597 -1.88699 0
M  V30 3675 O 366.072 1.09379 -1.47587 0
M  V30 3676 C 366.134 -2.0097 -2.9808 0
M  V30 3677 C 365.798 -3.50242 -2.93563 0
M  V30 3678 C 366.795 -4.4523 -2.68452 0
M  V30 3679 C 364.48 -3.92592 -3.13331 0
M  V30 3680 C 366.474 -5.80542 -2.63154 0
M  V30 3681 C 364.161 -5.28005 -3.07658 0
M  V30 3682 C 365.159 -6.21792 -2.82602 0
M  V30 3683 O 364.847 -7.54723 -2.76853 0
M  V30 3684 H 364.579 -0.445851 -0.508127 0
M  V30 3685 H 367.133 -1.77263 -1.03763 0
M  V30 3686 H 365.363 -1.47451 -3.57484 0
M  V30 3687 H 367.052 -1.89309 -3.5905 0
M  V30 3688 H 367.818 -4.13832 -2.52919 0
M  V30 3689 H 363.697 -3.19994 -3.31851 0
M  V30 3690 H 367.241 -6.53717 -2.43516 0
M  V30 3691 H 363.138 -5.59023 -3.22743 0
M  V30 3692 H 363.906 -7.64409 -2.92611 0
M  V30 3693 N 366.569 1.04691 -1.17803 0
M  V30 3694 C 367.517 2.14665 -0.895635 0
M  V30 3695 C 368.511 1.68806 0.141679 0
M  V30 3696 O 369.717 1.79999 -0.00587914 0
M  V30 3697 H 366.092 0.701038 -0.272121 0
M  V30 3698 H 368.063 2.35685 -1.83017 0
M  V30 3699 C 366.812 3.45019 -0.430962 0
M  V30 3700 H 366.135 3.8071 -1.22064 0
M  V30 3701 H 367.575 4.23125 -0.272301 0
M  V30 3702 C 366.034 3.25943 0.852207 0
M  V30 3703 O 366.564 3.5296 1.91786 0
M  V30 3704 N 364.77 2.79304 0.802346 0
M  V30 3705 H 364.317 2.57518 -0.0650788 0
M  V30 3706 H 364.275 2.66921 1.66134 0
M  V30 3707 N 368.047 0.979072 1.23499 0
M  V30 3708 C 368.957 0.526431 2.28617 0
M  V30 3709 C 369.973 -0.418126 1.68901 0
M  V30 3710 O 371.149 -0.288372 1.99325 0
M  V30 3711 C 368.214 -0.165235 3.46306 0
M  V30 3712 C 367.275 0.82056 4.21385 0
M  V30 3713 C 366.508 0.161807 5.33455 0
M  V30 3714 O 366.731 -1.04742 5.60701 0
M  V30 3715 O 365.665 0.859708 5.95729 0
M  V30 3716 H 369.491 1.4006 2.69475 0
M  V30 3717 H 367.076 0.746643 1.29405 0
M  V30 3718 H 368.958 -0.553287 4.17752 0
M  V30 3719 H 367.633 -1.01419 3.07402 0
M  V30 3720 H 366.54 1.25929 3.52268 0
M  V30 3721 H 367.873 1.63828 4.64135 0
M  V30 3722 N 369.525 -1.3858 0.750561 0
M  V30 3723 C 370.455 -2.33102 0.136237 0
M  V30 3724 C 371.436 -1.54713 -0.706965 0
M  V30 3725 O 372.621 -1.83043 -0.648769 0
M  V30 3726 C 369.751 -3.38882 -0.760017 0
M  V30 3727 C 368.705 -4.27995 -0.0197785 0
M  V30 3728 C 368.031 -5.24605 -1.03408 0
M  V30 3729 C 369.331 -5.09554 1.14684 0
M  V30 3730 H 371.025 -2.84726 0.925822 0
M  V30 3731 H 368.571 -1.36898 0.446654 0
M  V30 3732 H 370.524 -4.0397 -1.19943 0
M  V30 3733 H 369.248 -2.85734 -1.58189 0
M  V30 3734 H 367.907 -3.64409 0.400184 0
M  V30 3735 H 367.555 -4.67746 -1.84994 0
M  V30 3736 H 367.255 -5.85081 -0.543464 0
M  V30 3737 H 368.779 -5.9257 -1.47288 0
M  V30 3738 H 370.193 -5.67899 0.785118 0
M  V30 3739 H 368.59 -5.7925 1.56812 0
M  V30 3740 H 369.66 -4.4347 1.96118 0
M  V30 3741 N 371.003 -0.499398 -1.49478 0
M  V30 3742 C 372.252 0.0475259 -2.01644 0
M  V30 3743 C 372.565 1.38195 -1.38425 0
M  V30 3744 O 373.771 2.01547 -1.8191 0
M  V30 3745 C 372.227 0.135164 -3.59646 0
M  V30 3746 C 371.835 -1.19252 -4.31837 0
M  V30 3747 C 373.579 0.632538 -4.19761 0
M  V30 3748 C 371.486 -1.06713 -5.81693 0
M  V30 3749 H 370.416 0.0215349 -0.753692 0
M  V30 3750 H 373.067 -0.638577 -1.7203 0
M  V30 3751 H 371.449 0.885681 -3.85969 0
M  V30 3752 H 372.623 -1.9562 -4.17216 0
M  V30 3753 H 370.938 -1.62321 -3.83459 0
M  V30 3754 H 373.535 0.743833 -5.29501 0
M  V30 3755 H 373.878 1.63098 -3.83021 0
M  V30 3756 H 374.411 -0.0613987 -3.97753 0
M  V30 3757 H 371.15 -2.03979 -6.22955 0
M  V30 3758 H 370.67 -0.344307 -5.98811 0
M  V30 3759 H 372.349 -0.745208 -6.42694 0
M  V30 3760 N 372.481 1.55866 -0.233164 0
M  V30 3761 C 373.413 2.18099 0.704668 0
M  V30 3762 C 374.426 1.15334 1.14899 0
M  V30 3763 O 375.615 1.42262 1.07814 0
M  V30 3764 C 372.715 2.7592 1.96777 0
M  V30 3765 C 371.888 4.03969 1.67713 0
M  V30 3766 C 370.947 4.46242 2.78845 0
M  V30 3767 O 369.973 5.12903 2.46818 0
M  V30 3768 N 371.175 4.12886 4.08051 0
M  V30 3769 H 373.94 2.99205 0.172258 0
M  V30 3770 H 371.501 1.61815 -0.0525945 0
M  V30 3771 H 373.493 3.01165 2.70337 0
M  V30 3772 H 372.063 1.99051 2.41034 0
M  V30 3773 H 371.283 3.86459 0.777391 0
M  V30 3774 H 372.571 4.8748 1.4574 0
M  V30 3775 H 371.969 3.59342 4.3691 0
M  V30 3776 H 370.526 4.42997 4.78118 0
M  V30 3777 N 373.959 -0.0401083 1.57549 0
M  V30 3778 C 375.208 -0.732108 1.87944 0
M  V30 3779 C 375.521 -1.77107 0.830206 0
M  V30 3780 O 376.727 -2.51488 1.02302 0
M  V30 3781 C 375.183 -1.35315 3.33494 0
M  V30 3782 C 374.791 -0.351105 4.46622 0
M  V30 3783 C 376.535 -2.02566 3.73051 0
M  V30 3784 C 374.442 -0.979859 5.83226 0
M  V30 3785 H 373.372 -0.277188 0.701201 0
M  V30 3786 H 376.023 0.0138501 1.83495 0
M  V30 3787 H 374.405 -2.14844 3.32653 0
M  V30 3788 H 375.579 0.416674 4.58912 0
M  V30 3789 H 373.894 0.218708 4.15825 0
M  V30 3790 H 376.491 -2.50441 4.72423 0
M  V30 3791 H 376.834 -2.83904 3.04474 0
M  V30 3792 H 377.367 -1.29827 3.76018 0
M  V30 3793 H 374.106 -0.206135 6.55176 0
M  V30 3794 H 373.626 -1.71774 5.74677 0
M  V30 3795 H 375.305 -1.49046 6.29599 0
M  V30 3796 N 375.437 -1.54477 -0.31217 0
M  V30 3797 C 376.347 -1.87695 -1.4074 0
M  V30 3798 C 377.363 -0.769975 -1.56036 0
M  V30 3799 O 378.539 -1.06537 -1.70915 0
M  V30 3800 C 375.604 -2.10755 -2.75287 0
M  V30 3801 C 374.665 -3.34514 -2.69071 0
M  V30 3802 C 373.898 -3.56465 -3.97201 0
M  V30 3803 O 374.121 -2.81637 -4.96021 0
M  V30 3804 O 373.055 -4.49964 -3.9977 0
M  V30 3805 H 376.881 -2.80849 -1.15574 0
M  V30 3806 H 374.466 -1.40526 -0.507228 0
M  V30 3807 H 376.348 -2.27188 -3.54913 0
M  V30 3808 H 375.023 -1.20788 -3.0032 0
M  V30 3809 H 373.93 -3.23456 -1.87955 0
M  V30 3810 H 375.263 -4.24575 -2.48992 0
M  V30 3811 N 376.915 0.57481 -1.46744 0
M  V30 3812 C 377.865 1.67838 -1.54319 0
M  V30 3813 C 378.849 1.55759 -0.40346 0
M  V30 3814 O 380.041 1.6454 -0.652347 0
M  V30 3815 C 377.17 3.06624 -1.5439 0
M  V30 3816 C 376.256 3.23971 -2.73685 0
M  V30 3817 N 376.647 3.11447 -3.9854 0
M  V30 3818 C 374.945 3.5493 -2.70075 0
M  V30 3819 C 375.646 3.31011 -4.78337 0
M  V30 3820 N 374.622 3.56533 -4.10348 0
M  V30 3821 H 378.424 1.56698 -2.48642 0
M  V30 3822 H 375.938 0.779071 -1.42493 0
M  V30 3823 H 377.935 3.85839 -1.57905 0
M  V30 3824 H 376.595 3.1889 -0.611493 0
M  V30 3825 H 377.606 2.89145 -4.29669 0
M  V30 3826 H 374.283 3.73832 -1.85893 0
M  V30 3827 H 375.673 3.26445 -5.87268 0
M  V30 3828 N 378.394 1.34581 0.820102 0
M  V30 3829 C 379.642 1.26845 1.57336 0
M  V30 3830 C 379.963 -0.160667 1.94337 0
M  V30 3831 O 379.233 -1.09396 1.6251 0
M  V30 3832 H 377.813 0.466514 0.583415 0
M  V30 3833 H 380.475 1.68526 0.979027 0
M  V30 3834 H 379.571 1.87513 2.4949 0
M  V30 3835 N 379.872 -1.04064 1.18357 0
M  V30 3836 C 380.782 -2.15569 0.925596 0
M  V30 3837 C 381.798 -1.7365 -0.110295 0
M  V30 3838 O 382.974 -2.01273 0.0716218 0
M  V30 3839 C 380.039 -3.43704 0.454836 0
M  V30 3840 C 379.1 -4.00004 1.55869 0
M  V30 3841 C 378.333 -5.22023 1.1103 0
M  V30 3842 O 378.556 -5.70392 -0.0309756 0
M  V30 3843 O 377.49 -5.70856 1.90805 0
M  V30 3844 H 381.316 -2.40187 1.8586 0
M  V30 3845 H 378.901 -1.1402 0.965394 0
M  V30 3846 H 380.783 -4.20923 0.200382 0
M  V30 3847 H 379.458 -3.20559 -0.449876 0
M  V30 3848 H 378.365 -3.24172 1.86716 0
M  V30 3849 H 379.698 -4.2749 2.43953 0
M  V30 3850 N 381.35 -0.985608 -1.22978 0
M  V30 3851 C 382.596 -0.65836 -1.91816 0
M  V30 3852 C 382.929 0.806692 -1.76653 0
M  V30 3853 O 382.204 1.58252 -1.13078 0
M  V30 3854 C 382.487 -1.056 -3.44268 0
M  V30 3855 C 382.34 -2.57906 -3.68516 0
M  V30 3856 C 383.659 -0.603781 -4.35939 0
M  V30 3857 H 380.778 -0.24065 -0.696604 0
M  V30 3858 H 383.42 -1.22783 -1.44998 0
M  V30 3859 H 381.57 -0.571445 -3.84274 0
M  V30 3860 H 383.242 -3.13976 -3.3796 0
M  V30 3861 H 381.485 -3.00305 -3.13048 0
M  V30 3862 H 382.156 -2.80779 -4.75255 0
M  V30 3863 H 384.632 -1.01987 -4.03408 0
M  V30 3864 H 383.508 -0.910383 -5.41298 0
M  V30 3865 H 383.769 0.495761 -4.39312 0
M  V30 3866 N 382.828 1.3818 -0.7579 0
M  V30 3867 C 384.244 1.5353 -0.435972 0
M  V30 3868 C 384.444 1.71961 1.05032 0
M  V30 3869 O 383.5 1.73307 1.83633 0
M  V30 3870 C 384.813 2.73989 -1.23898 0
M  V30 3871 C 386.361 2.87841 -1.22949 0
M  V30 3872 C 386.836 4.11266 -2.01554 0
M  V30 3873 N 388.327 4.18352 -1.98837 0
M  V30 3874 C 389.062 5.12856 -2.5645 0
M  V30 3875 N 388.558 6.13005 -3.22794 0
M  V30 3876 N 390.351 5.05238 -2.46356 0
M  V30 3877 H 382.502 1.24467 -1.7211 0
M  V30 3878 H 384.765 0.604982 -0.729864 0
M  V30 3879 H 384.471 2.66789 -2.29165 0
M  V30 3880 H 384.345 3.67294 -0.858764 0
M  V30 3881 H 386.732 2.9452 -0.184854 0
M  V30 3882 H 386.813 1.95534 -1.64924 0
M  V30 3883 H 386.457 4.05349 -3.06031 0
M  V30 3884 H 386.387 5.02661 -1.5697 0
M  V30 3885 H 388.878 3.46628 -1.50524 0
M  V30 3886 H 389.191 6.81619 -3.64165 0
M  V30 3887 H 387.536 6.13325 -3.2689 0
M  V30 3888 H 390.727 4.25938 -1.9415 0
M  V30 3889 H 390.9 5.78707 -2.91552 0
M  V30 3890 N 384.306 0.507319 1.49211 0
M  V30 3891 C 385.531 -0.033725 2.07373 0
M  V30 3892 C 385.956 -1.29485 1.36437 0
M  V30 3893 O 385.314 -1.76294 0.423087 0
M  V30 3894 C 385.362 -0.263945 3.59633 0
M  V30 3895 O 384.466 -1.33737 3.90113 0
M  V30 3896 H 383.807 0.0290331 0.663365 0
M  V30 3897 H 386.337 0.708749 1.91932 0
M  V30 3898 H 386.347 -0.493536 4.05004 0
M  V30 3899 H 385.022 0.657424 4.10671 0
M  V30 3900 H 383.599 -1.09224 3.56545 0
M  V30 3901 N 385.784 -1.5574 0.241426 0
M  V30 3902 C 386.716 -2.18469 -0.693091 0
M  V30 3903 C 387.729 -1.15942 -1.14286 0
M  V30 3904 O 388.918 -1.42832 -1.07058 0
M  V30 3905 C 386.018 -2.7696 -1.95311 0
M  V30 3906 C 385.191 -4.04853 -1.65568 0
M  V30 3907 C 384.25 -4.47715 -2.76474 0
M  V30 3908 O 383.276 -5.14205 -2.44094 0
M  V30 3909 N 384.478 -4.15044 -4.05855 0
M  V30 3910 H 387.243 -2.99292 -0.156388 0
M  V30 3911 H 384.804 -1.61784 0.0611752 0
M  V30 3912 H 386.796 -3.02594 -2.68736 0
M  V30 3913 H 385.366 -2.00326 -2.39975 0
M  V30 3914 H 384.586 -3.86865 -0.756886 0
M  V30 3915 H 385.874 -4.88246 -1.43153 0
M  V30 3916 H 385.272 -3.61654 -4.34998 0
M  V30 3917 H 383.829 -4.45526 -4.75762 0
M  V30 3918 N 387.262 0.0317525 -1.57568 0
M  V30 3919 C 388.509 0.723104 -1.89149 0
M  V30 3920 C 388.837 1.75504 -0.838377 0
M  V30 3921 O 388.092 1.95037 0.160982 0
M  V30 3922 C 388.391 1.43167 -3.27472 0
M  V30 3923 C 388.057 0.535972 -4.47703 0
M  V30 3924 C 386.719 0.289262 -4.8033 0
M  V30 3925 C 389.071 -0.0826125 -5.21135 0
M  V30 3926 C 386.399 -0.584853 -5.83778 0
M  V30 3927 C 388.751 -0.944414 -6.25511 0
M  V30 3928 C 387.415 -1.20061 -6.56614 0
M  V30 3929 H 386.685 0.264602 -0.692146 0
M  V30 3930 H 389.332 -0.0169496 -1.91492 0
M  V30 3931 H 387.637 2.24497 -3.21105 0
M  V30 3932 H 389.334 1.97209 -3.49155 0
M  V30 3933 H 385.924 0.738414 -4.22191 0
M  V30 3934 H 390.108 0.0950302 -4.96209 0
M  V30 3935 H 385.364 -0.79168 -6.06253 0
M  V30 3936 H 389.538 -1.43026 -6.81554 0
M  V30 3937 H 387.165 -1.87967 -7.36595 0
M  V30 3938 N 388.74 1.54641 0.303973 0
M  V30 3939 C 389.687 1.85386 1.37479 0
M  V30 3940 C 390.657 0.702528 1.50512 0
M  V30 3941 O 391.842 0.950867 1.65418 0
M  V30 3942 C 388.982 2.10413 2.73533 0
M  V30 3943 C 388.095 3.38049 2.68974 0
M  V30 3944 C 387.23 3.52934 3.97002 0
M  V30 3945 C 386.269 4.74373 3.86829 0
M  V30 3946 N 385.406 4.8608 5.06627 0
M  V30 3947 H 390.246 2.76732 1.1056 0
M  V30 3948 H 387.783 1.37034 0.534805 0
M  V30 3949 H 389.741 2.22919 3.52652 0
M  V30 3950 H 388.371 1.22338 2.98719 0
M  V30 3951 H 387.423 3.3418 1.81736 0
M  V30 3952 H 388.735 4.27288 2.57346 0
M  V30 3953 H 387.889 3.65088 4.84557 0
M  V30 3954 H 386.628 2.61824 4.1146 0
M  V30 3955 H 385.633 4.62255 2.97658 0
M  V30 3956 H 386.858 5.66888 3.73918 0
M  V30 3957 H 384.804 3.97891 5.21554 0
M  V30 3958 H 384.721 5.69315 4.9741 0
M  V30 3959 H 385.989 5.02587 5.95841 0
M  V30 3960 N 390.218 -0.567019 1.47046 0
M  V30 3961 C 391.148 -1.68482 1.61667 0
M  V30 3962 C 392.129 -1.6358 0.466418 0
M  V30 3963 O 393.314 -1.81354 0.694574 0
M  V30 3964 C 390.444 -3.07124 1.62148 0
M  V30 3965 C 389.398 -3.26867 2.76301 0
M  V30 3966 C 388.724 -4.66196 2.61849 0
M  V30 3967 C 390.024 -3.13186 4.17986 0
M  V30 3968 H 391.718 -1.56502 2.5524 0
M  V30 3969 H 389.264 -0.751486 1.22836 0
M  V30 3970 H 391.217 -3.8516 1.70968 0
M  V30 3971 H 389.941 -3.2004 0.651287 0
M  V30 3972 H 388.6 -2.51237 2.66975 0
M  V30 3973 H 388.248 -4.75898 1.62879 0
M  V30 3974 H 387.948 -4.80356 3.38425 0
M  V30 3975 H 389.472 -5.46379 2.72584 0
M  V30 3976 H 390.886 -3.81049 4.2834 0
M  V30 3977 H 389.283 -3.3886 4.95272 0
M  V30 3978 H 390.353 -2.10057 4.3704 0
M  V30 3979 N 391.696 -1.35014 -0.812953 0
M  V30 3980 C 393.112 -1.14914 -1.10757 0
M  V30 3981 C 393.312 0.0426818 -2.01455 0
M  V30 3982 O 392.368 0.715212 -2.42159 0
M  V30 3983 C 393.681 -2.44911 -1.74468 0
M  V30 3984 C 395.229 -2.5106 -1.86917 0
M  V30 3985 C 395.704 -3.81085 -2.54044 0
M  V30 3986 N 397.195 -3.82301 -2.61535 0
M  V30 3987 C 397.93 -4.79634 -3.14227 0
M  V30 3988 N 397.426 -5.87353 -3.67407 0
M  V30 3989 N 399.219 -4.67078 -3.12721 0
M  V30 3990 H 391.37 -2.1136 -0.20989 0
M  V30 3991 H 393.633 -0.935128 -0.155692 0
M  V30 3992 H 393.339 -3.32267 -1.15289 0
M  V30 3993 H 393.213 -2.58989 -2.74234 0
M  V30 3994 H 395.6 -1.64137 -2.45241 0
M  V30 3995 H 395.681 -2.40901 -0.860242 0
M  V30 3996 H 395.325 -4.68402 -1.96372 0
M  V30 3997 H 395.255 -3.88529 -3.55461 0
M  V30 3998 H 397.746 -3.04465 -2.23851 0
M  V30 3999 H 398.059 -6.57624 -4.05894 0
M  V30 4000 H 396.404 -5.91054 -3.65623 0
M  V30 4001 H 399.595 -3.82067 -2.70449 0
M  V30 4002 H 399.768 -5.43098 -3.53481 0
M  V30 4003 N 393.175 1.03435 -1.18907 0
M  V30 4004 C 394.138 2.09756 -0.923844 0
M  V30 4005 C 395.138 1.60528 0.093416 0
M  V30 4006 O 396.328 1.73631 -0.140727 0
M  V30 4007 C 393.46 3.38692 -0.387354 0
M  V30 4008 H 394.653 2.34719 -1.86674 0
M  V30 4009 H 392.206 1.19959 -1.00197 0
M  V30 4010 H 392.941 3.19396 0.561845 0
M  V30 4011 H 392.726 3.75742 -1.12074 0
M  V30 4012 H 394.216 4.17016 -0.220694 0
M  V30 4013 N 394.653 0.992116 1.22453 0
M  V30 4014 C 395.893 0.675727 1.92907 0
M  V30 4015 C 396.257 -0.777762 1.75542 0
M  V30 4016 O 397.458 -1.20553 2.40251 0
M  V30 4017 C 395.729 1.0696 3.4102 0
M  V30 4018 S 397.288 0.871456 4.30059 0
M  V30 4019 H 394.106 0.247089 0.666684 0
M  V30 4020 H 396.708 1.27423 1.48269 0
M  V30 4021 H 395.412 2.12383 3.51172 0
M  V30 4022 H 394.943 0.462858 3.90668 0
M  V30 4023 H 396.958 -0.238436 4.95627 0
M  V30 4024 N 396.131 -1.37776 0.765217 0
M  V30 4025 C 397.079 -2.32209 0.134798 0
M  V30 4026 C 398.073 -1.54607 -0.692315 0
M  V30 4027 O 399.279 -1.70052 -0.590109 0
M  V30 4028 H 395.654 -0.751591 0.0248005 0
M  V30 4029 H 397.625 -2.8297 0.947119 0
M  V30 4030 C 396.374 -3.39841 -0.735063 0
M  V30 4031 H 395.697 -3.99654 -0.107991 0
M  V30 4032 H 397.137 -4.08296 -1.14326 0
M  V30 4033 C 395.596 -2.79378 -1.88281 0
M  V30 4034 O 396.126 -2.69608 -2.97783 0
M  V30 4035 N 394.332 -2.37016 -1.68142 0
M  V30 4036 H 393.879 -2.45162 -0.790772 0
M  V30 4037 H 393.837 -1.96905 -2.45104 0
M  V30 4038 N 397.609 -0.515225 -1.4894 0
M  V30 4039 C 398.834 0.022727 -2.07388 0
M  V30 4040 C 399.259 1.2876 -1.37122 0
M  V30 4041 O 398.617 1.76067 -0.432431 0
M  V30 4042 C 398.665 0.244869 -3.59768 0
M  V30 4043 O 397.769 1.31667 -3.90817 0
M  V30 4044 H 397.11 -0.0325506 -0.663202 0
M  V30 4045 H 399.64 -0.718918 -1.91553 0
M  V30 4046 H 399.65 0.47205 -4.0526 0
M  V30 4047 H 398.325 -0.679194 -4.10317 0
M  V30 4048 H 396.902 1.07331 -3.5712 0
M  V30 4049 N 399.087 1.5561 -0.249682 0
M  V30 4050 C 400.333 1.99306 0.374841 0
M  V30 4051 C 400.666 1.13767 1.57387 0
M  V30 4052 O 399.941 0.201711 1.93451 0
M  V30 4053 C 400.224 3.51507 0.781986 0
M  V30 4054 C 400.077 4.4781 -0.422629 0
M  V30 4055 C 401.396 4.08884 1.62793 0
M  V30 4056 H 398.515 0.724572 0.134773 0
M  V30 4057 H 401.157 1.86719 -0.351549 0
M  V30 4058 H 399.307 3.62363 1.4009 0
M  V30 4059 H 400.979 4.48931 -1.06108 0
M  V30 4060 H 399.222 4.20518 -1.06524 0
M  V30 4061 H 399.893 5.51919 -0.0943766 0
M  V30 4062 H 402.369 4.01147 1.10547 0
M  V30 4063 H 401.245 5.1564 1.88166 0
M  V30 4064 H 401.506 3.57515 2.60068 0
M  V30 4065 N 400.565 -0.0233959 1.57583 0
M  V30 4066 C 401.812 -0.713063 1.8953 0
M  V30 4067 C 402.14 -1.75056 0.847673 0
M  V30 4068 O 401.395 -1.95119 -0.150636 0
M  V30 4069 C 401.694 -1.41428 3.28227 0
M  V30 4070 C 401.36 -0.512222 4.47981 0
M  V30 4071 C 400.022 -0.263785 4.80476 0
M  V30 4072 C 402.374 0.110248 5.21083 0
M  V30 4073 C 399.702 0.615804 5.83459 0
M  V30 4074 C 402.054 0.977573 6.25001 0
M  V30 4075 C 400.718 1.23542 6.55968 0
M  V30 4076 H 399.988 -0.260928 0.69354 0
M  V30 4077 H 402.635 0.0271047 1.91481 0
M  V30 4078 H 400.94 -2.22791 3.22291 0
M  V30 4079 H 402.637 -1.95355 3.50196 0
M  V30 4080 H 399.227 -0.716013 4.22577 0
M  V30 4081 H 403.411 -0.0687137 4.96252 0
M  V30 4082 H 398.667 0.82382 6.05824 0
M  V30 4083 H 402.841 1.46638 6.80786 0
M  V30 4084 H 400.468 1.91871 7.35588 0
M  V30 4085 N 402.043 -1.548 -0.295768 0
M  V30 4086 C 403.271 -1.78327 -1.04914 0
M  V30 4087 C 403.686 -0.545316 -1.80753 0
M  V30 4088 O 403.043 0.485013 -1.75937 0
M  V30 4089 C 403.094 -2.99418 -2.02561 0
M  V30 4090 O 402.815 -4.18431 -1.29798 0
M  V30 4091 C 404.316 -3.35375 -2.89895 0
M  V30 4092 H 401.536 -0.594618 -0.310918 0
M  V30 4093 H 404.08 -2.01763 -0.333454 0
M  V30 4094 H 402.235 -2.78175 -2.69624 0
M  V30 4095 H 402.649 -4.86736 -1.95419 0
M  V30 4096 H 404.123 -4.23332 -3.54251 0
M  V30 4097 H 404.6 -2.53761 -3.58472 0
M  V30 4098 H 405.206 -3.58796 -2.28355 0
M  V30 4099 N 403.521 0.559213 -1.47345 0
M  V30 4100 C 404.484 1.64854 -1.59235 0
M  V30 4101 C 405.484 1.53851 -0.467607 0
M  V30 4102 O 406.674 1.58045 -0.732617 0
M  V30 4103 C 403.806 3.04388 -1.53496 0
M  V30 4104 H 404.999 1.55662 -2.56339 0
M  V30 4105 H 402.552 0.778973 -1.35505 0
M  V30 4106 H 403.287 3.19115 -0.577604 0
M  V30 4107 H 403.072 3.13783 -2.35123 0
M  V30 4108 H 404.562 3.83642 -1.6495 0
M  V30 4109 N 404.999 1.35443 0.805782 0
M  V30 4110 C 405.929 1.31095 1.93226 0
M  V30 4111 C 406.91 0.185244 1.69088 0
M  V30 4112 O 408.095 0.380332 1.90439 0
M  V30 4113 C 405.225 1.08299 3.29983 0
M  V30 4114 C 404.179 2.17519 3.68605 0
M  V30 4115 C 403.505 1.79887 5.03532 0
M  V30 4116 C 404.805 3.5949 3.78898 0
M  V30 4117 H 406.499 2.25352 1.97122 0
M  V30 4118 H 404.045 1.0848 0.946996 0
M  V30 4119 H 405.998 1.03897 4.08391 0
M  V30 4120 H 404.722 0.104885 3.26432 0
M  V30 4121 H 403.381 2.2102 2.92482 0
M  V30 4122 H 403.029 0.80693 4.96485 0
M  V30 4123 H 402.729 2.53001 5.30344 0
M  V30 4124 H 404.253 1.77011 5.84379 0
M  V30 4125 H 405.667 3.58307 4.47536 0
M  V30 4126 H 404.064 4.31371 4.1718 0
M  V30 4127 H 405.134 3.95584 2.80431 0
M  V30 4128 N 406.477 -1.02803 1.19454 0
M  V30 4129 C 407.754 -1.73299 0.907013 0
M  V30 4130 C 408.134 -2.02772 -0.587086 0
M  V30 4131 O 407.482 -1.68304 -1.54551 0
M  V30 4132 C 407.692 -3.00912 1.76785 0
M  V30 4133 C 409.04 -3.74403 2.00268 0
M  V30 4134 O 410.064 -3.10841 1.73943 0
M  V30 4135 O 408.923 -4.88675 2.4466 0
M  V30 4136 H 406.017 -0.754727 0.338106 0
M  V30 4137 H 408.563 -1.08754 1.30271 0
M  V30 4138 H 407.335 -2.75366 2.7801 0
M  V30 4139 H 406.958 -3.73197 1.37149 0
M  V30 4140 N 407.956 -0.998596 -1.21925 0
M  V30 4141 C 408.906 -0.524743 -2.21879 0
M  V30 4142 C 409.89 0.41017 -1.55584 0
M  V30 4143 O 411.082 0.236063 -1.75419 0
M  V30 4144 C 408.211 0.153636 -3.42956 0
M  V30 4145 C 407.297 -0.801918 -4.16449 0
M  V30 4146 N 407.688 -1.95211 -4.66611 0
M  V30 4147 C 405.986 -0.618972 -4.41684 0
M  V30 4148 C 406.687 -2.55234 -5.22715 0
M  V30 4149 N 405.663 -1.83451 -5.1171 0
M  V30 4150 H 409.465 -1.40189 -2.58311 0
M  V30 4151 H 406.979 -0.86159 -1.3766 0
M  V30 4152 H 408.976 0.510534 -4.13762 0
M  V30 4153 H 407.636 1.02684 -3.08036 0
M  V30 4154 H 408.647 -2.33271 -4.62391 0
M  V30 4155 H 405.324 0.207694 -4.16983 0
M  V30 4156 H 406.714 -3.52471 -5.72026 0
M  V30 4157 N 409.434 1.37368 -0.772513 0
M  V30 4158 C 410.674 2.01512 -0.342361 0
M  V30 4159 C 411.038 1.59997 1.06136 0
M  V30 4160 O 412.239 2.16609 1.59167 0
M  V30 4161 C 410.51 3.54134 -0.482048 0
M  V30 4162 S 412.069 4.38585 -0.137272 0
M  V30 4163 H 408.887 0.698699 -0.131686 0
M  V30 4164 H 411.489 1.67552 -1.0073 0
M  V30 4165 H 410.193 3.81837 -1.50428 0
M  V30 4166 H 409.724 3.92894 0.199413 0
M  V30 4167 H 411.739 4.84594 1.06692 0
M  V30 4168 N 410.912 0.523116 1.48665 0
M  V30 4169 C 411.862 -0.263106 2.26477 0
M  V30 4170 C 412.846 -0.916005 1.32281 0
M  V30 4171 O 414.038 -0.819946 1.56863 0
M  V30 4172 C 411.167 -1.31361 3.17174 0
M  V30 4173 C 410.253 -0.665849 4.1884 0
M  V30 4174 N 410.644 0.244434 5.05209 0
M  V30 4175 C 408.942 -0.923863 4.36326 0
M  V30 4176 C 409.643 0.617443 5.78414 0
M  V30 4177 N 408.619 -0.0198686 5.43596 0
M  V30 4178 H 412.421 0.437295 2.90629 0
M  V30 4179 H 409.935 0.340675 1.58787 0
M  V30 4180 H 411.932 -1.89052 3.71571 0
M  V30 4181 H 410.592 -2.01546 2.54576 0
M  V30 4182 H 411.603 0.616621 5.14216 0
M  V30 4183 H 408.28 -1.6168 3.84923 0
M  V30 4184 H 409.67 1.36346 6.57921 0
M  V30 4185 N 412.39 -1.55475 0.257931 0
M  V30 4186 C 413.3 -2.2549 -0.647425 0
M  V30 4187 C 414.316 -1.2748 -1.18427 0
M  V30 4188 O 415.492 -1.6038 -1.2182 0
M  V30 4189 C 412.557 -2.94916 -1.82278 0
M  V30 4190 C 411.618 -4.08363 -1.32432 0
M  V30 4191 C 410.851 -4.74469 -2.44366 0
M  V30 4192 O 411.074 -4.39701 -3.63344 0
M  V30 4193 O 410.008 -5.62763 -2.13497 0
M  V30 4194 H 413.834 -3.03593 -0.0807707 0
M  V30 4195 H 411.419 -1.49377 0.0259962 0
M  V30 4196 H 413.301 -3.38606 -2.50846 0
M  V30 4197 H 411.976 -2.19744 -2.37685 0
M  V30 4198 H 410.883 -3.69166 -0.605605 0
M  V30 4199 H 412.216 -4.85385 -0.816211 0
M  V30 4200 N 413.868 0.0150385 -1.57593 0
M  V30 4201 C 414.831 0.995996 -2.06428 0
M  V30 4202 C 415.831 1.2818 -0.970903 0
M  V30 4203 O 417.021 1.22949 -1.23406 0
M  V30 4204 C 414.153 2.32506 -2.49307 0
M  V30 4205 H 415.346 0.573873 -2.94358 0
M  V30 4206 H 412.899 0.262186 -1.54085 0
M  V30 4207 H 413.634 2.79438 -1.64575 0
M  V30 4208 H 413.419 2.13087 -3.29145 0
M  V30 4209 H 414.909 3.02906 -2.87468 0
M  V30 4210 N 415.346 1.54954 0.287554 0
M  V30 4211 C 416.595 1.74081 1.01877 0
M  V30 4212 C 416.908 0.541135 1.87966 0
M  V30 4213 O 418.114 0.614491 2.64455 0
M  V30 4214 C 416.57 3.08042 1.86113 0
M  V30 4215 C 416.178 4.35531 1.04961 0
M  V30 4216 C 417.922 3.36523 2.58752 0
M  V30 4217 C 415.829 5.60538 1.88551 0
M  V30 4218 H 414.759 0.64884 0.384087 0
M  V30 4219 H 417.41 1.81426 0.275101 0
M  V30 4220 H 415.792 2.94696 2.64519 0
M  V30 4221 H 416.966 4.59751 0.31074 0
M  V30 4222 H 415.281 4.14085 0.43843 0
M  V30 4223 H 417.878 4.27122 3.21668 0
M  V30 4224 H 418.221 2.56 3.28283 0
M  V30 4225 H 418.754 3.50901 1.87386 0
M  V30 4226 H 415.493 6.43767 1.23466 0
M  V30 4227 H 415.013 5.40483 2.60074 0
M  V30 4228 H 416.692 5.98297 2.46273 0
M  V30 4229 N 416.824 -0.551391 1.4764 0
M  V30 4230 C 417.734 -1.68525 1.63207 0
M  V30 4231 C 418.75 -1.6621 0.514815 0
M  V30 4232 O 419.926 -1.85551 0.783113 0
M  V30 4233 C 416.991 -3.05025 1.64805 0
M  V30 4234 C 416.052 -3.18362 2.88 0
M  V30 4235 C 415.285 -4.4835 2.89513 0
M  V30 4236 O 415.508 -5.34163 2.00065 0
M  V30 4237 O 414.442 -4.65602 3.81443 0
M  V30 4238 H 418.268 -1.58333 2.59161 0
M  V30 4239 H 415.853 -0.722063 1.30792 0
M  V30 4240 H 417.735 -3.86245 1.68502 0
M  V30 4241 H 416.41 -3.15587 0.720197 0
M  V30 4242 H 415.317 -2.36518 2.89845 0
M  V30 4243 H 416.65 -3.12707 3.80099 0
M  V30 4244 N 418.302 -1.35869 -0.798587 0
M  V30 4245 C 419.551 -1.28921 -1.5512 0
M  V30 4246 C 419.864 0.13208 -1.95154 0
M  V30 4247 O 421.07 0.323879 -2.69561 0
M  V30 4248 C 419.526 -2.26141 -2.79979 0
M  V30 4249 C 419.134 -3.73658 -2.47151 0
M  V30 4250 C 420.878 -2.28152 -3.57976 0
M  V30 4251 C 418.785 -4.62679 -3.6835 0
M  V30 4252 H 417.715 -0.479031 -0.582276 0
M  V30 4253 H 420.366 -1.61179 -0.877125 0
M  V30 4254 H 418.748 -1.86865 -3.49138 0
M  V30 4255 H 419.922 -4.21616 -1.85947 0
M  V30 4256 H 418.237 -3.74333 -1.82383 0
M  V30 4257 H 420.834 -2.91875 -4.4801 0
M  V30 4258 H 421.177 -1.28748 -3.95891 0
M  V30 4259 H 421.71 -2.65998 -2.95787 0
M  V30 4260 H 418.449 -5.63111 -3.35538 0
M  V30 4261 H 417.969 -4.19442 -4.28752 0
M  V30 4262 H 419.648 -4.78498 -4.35487 0
M  V30 4263 N 419.78 1.02168 -1.19998 0
M  V30 4264 C 421.008 1.79296 -1.03249 0
M  V30 4265 C 421.423 1.84103 0.418502 0
M  V30 4266 O 420.78 1.29031 1.29063 0
M  V30 4267 C 420.831 3.24007 -1.60319 0
M  V30 4268 O 420.552 3.19512 -2.99739 0
M  V30 4269 C 422.053 4.17704 -1.48453 0
M  V30 4270 H 419.273 0.564016 -0.363493 0
M  V30 4271 H 421.817 1.28639 -1.58973 0
M  V30 4272 H 419.972 3.7183 -1.08727 0
M  V30 4273 H 420.386 4.10306 -3.26725 0
M  V30 4274 H 421.86 5.17104 -1.93153 0
M  V30 4275 H 422.337 4.37029 -0.436193 0
M  V30 4276 H 422.943 3.7576 -1.99211 0
M  V30 4277 N 421.258 1.00505 1.21394 0
M  V30 4278 C 422.483 0.706367 1.95001 0
M  V30 4279 C 422.908 -0.72463 1.73582 0
M  V30 4280 O 422.266 -1.49702 1.0227 0
M  V30 4281 C 422.314 1.03299 3.45487 0
M  V30 4282 O 421.418 0.138275 4.12168 0
M  V30 4283 H 420.759 0.263175 0.609619 0
M  V30 4284 H 423.289 1.34531 1.54151 0
M  V30 4285 H 423.299 0.979872 3.96059 0
M  V30 4286 H 421.974 2.07567 3.60401 0
M  V30 4287 H 420.551 0.247928 3.72075 0
M  V30 4288 N 422.737 -1.36956 0.779787 0
M  V30 4289 C 424.014 -1.93697 0.272156 0
M  V30 4290 C 424.394 -1.71267 -1.23413 0
M  V30 4291 O 423.742 -1.06607 -2.02107 0
M  V30 4292 C 423.952 -3.42812 0.654291 0
M  V30 4293 C 425.3 -4.19921 0.628602 0
M  V30 4294 O 426.324 -3.51209 0.594172 0
M  V30 4295 O 425.183 -5.42465 0.662864 0
M  V30 4296 H 422.277 -0.824447 0.0649286 0
M  V30 4297 H 424.823 -1.46196 0.861682 0
M  V30 4298 H 423.595 -3.52754 1.69353 0
M  V30 4299 H 423.218 -3.97582 0.0381369 0
M  V30 4300 N 424.215 -0.530993 -1.48385 0
M  V30 4301 C 425.492 0.0671788 -1.95485 0
M  V30 4302 C 425.872 1.51191 -1.47324 0
M  V30 4303 O 425.22 2.17507 -0.700202 0
M  V30 4304 C 425.43 -0.0511206 -3.48963 0
M  V30 4305 C 426.778 0.107632 -4.24464 0
M  V30 4306 O 427.802 0.0226248 -3.56193 0
M  V30 4307 O 426.661 0.285972 -5.45751 0
M  V30 4308 H 423.755 0.0787365 -0.823243 0
M  V30 4309 H 426.301 -0.595662 -1.58902 0
M  V30 4310 H 425.073 -1.05747 -3.7674 0
M  V30 4311 H 424.696 0.650525 -3.92242 0
M  V30 4312 N 425.693 1.55336 -0.266172 0
M  V30 4313 C 426.643 2.18848 0.639497 0
M  V30 4314 C 427.627 1.1503 1.12503 0
M  V30 4315 O 428.819 1.40875 1.0716 0
M  V30 4316 C 425.948 2.90626 1.82733 0
M  V30 4317 C 425.034 4.01723 1.35939 0
M  V30 4318 N 425.425 5.02145 0.606988 0
M  V30 4319 C 423.723 4.1463 1.6431 0
M  V30 4320 C 424.424 5.80572 0.362138 0
M  V30 4321 N 423.4 5.35551 0.931971 0
M  V30 4322 H 427.202 2.93845 0.0567057 0
M  V30 4323 H 424.716 1.62252 -0.0693312 0
M  V30 4324 H 426.713 3.34569 2.48735 0
M  V30 4325 H 425.373 2.17137 2.41416 0
M  V30 4326 H 426.384 5.17271 0.255198 0
M  V30 4327 H 423.061 3.52326 2.23993 0
M  V30 4328 H 424.451 6.71472 -0.239848 0
M  V30 4329 N 427.171 -0.0066808 1.57599 0
M  V30 4330 C 428.417 -0.693947 1.90558 0
M  V30 4331 C 428.75 -1.73792 0.866594 0
M  V30 4332 O 428.025 -1.94156 -0.115548 0
M  V30 4333 C 428.308 -1.34317 3.34112 0
M  V30 4334 C 428.161 -0.311189 4.48722 0
M  V30 4335 C 429.48 -2.27116 3.7697 0
M  V30 4336 H 426.599 -0.250803 0.693013 0
M  V30 4337 H 429.241 0.043242 1.89951 0
M  V30 4338 H 427.391 -1.9715 3.3476 0
M  V30 4339 H 429.063 0.316944 4.6021 0
M  V30 4340 H 427.306 0.367253 4.32243 0
M  V30 4341 H 427.977 -0.804366 5.46108 0
M  V30 4342 H 430.453 -1.74306 3.77831 0
M  V30 4343 H 429.329 -2.69511 4.78179 0
M  V30 4344 H 429.59 -3.14743 3.10466 0
M  V30 4345 N 428.649 -1.55105 -0.279332 0
M  V30 4346 C 429.898 -1.74618 -1.00952 0
M  V30 4347 C 430.211 -0.551096 -1.87676 0
M  V30 4348 O 431.417 -0.628507 -2.64125 0
M  V30 4349 C 429.873 -3.09025 -1.84476 0
M  V30 4350 C 429.481 -4.36081 -1.0265 0
M  V30 4351 C 431.225 -3.37891 -2.56963 0
M  V30 4352 C 429.132 -5.6153 -1.85576 0
M  V30 4353 H 428.062 -0.650868 -0.38064 0
M  V30 4354 H 430.713 -1.81569 -0.265475 0
M  V30 4355 H 429.095 -2.96095 -2.62952 0
M  V30 4356 H 430.269 -4.59909 -0.286354 0
M  V30 4357 H 428.584 -4.14312 -0.416464 0
M  V30 4358 H 431.181 -4.28822 -3.19399 0
M  V30 4359 H 431.524 -2.57737 -3.26921 0
M  V30 4360 H 432.057 -3.5189 -1.85522 0
M  V30 4361 H 428.796 -6.44413 -1.2005 0
M  V30 4362 H 428.316 -5.41854 -2.57204 0
M  V30 4363 H 429.995 -5.99594 -2.43096 0
M  V30 4364 N 430.127 0.543554 -1.4793 0
M  V30 4365 C 431.059 1.665 -1.57513 0
M  V30 4366 C 432.072 1.56156 -0.460333 0
M  V30 4367 O 433.261 1.62865 -0.730573 0
M  V30 4368 C 430.361 3.05063 -1.47614 0
M  V30 4369 C 429.534 3.41024 -2.739 0
M  V30 4370 C 428.593 4.58809 -2.57645 0
M  V30 4371 O 427.619 4.62707 -3.31498 0
M  V30 4372 N 428.821 5.56149 -1.66368 0
M  V30 4373 H 431.586 1.5872 -2.5422 0
M  V30 4374 H 429.147 0.730517 -1.44482 0
M  V30 4375 H 431.139 3.81712 -1.34455 0
M  V30 4376 H 429.709 3.06994 -0.589359 0
M  V30 4377 H 428.929 2.53687 -3.01723 0
M  V30 4378 H 430.217 3.61831 -3.57709 0
M  V30 4379 H 429.615 5.55767 -1.05543 0
M  V30 4380 H 428.172 6.32071 -1.59154 0
M  V30 4381 N 431.605 1.3629 0.791371 0
M  V30 4382 C 432.835 1.33368 1.57786 0
M  V30 4383 C 433.243 -0.0875188 1.88997 0
M  V30 4384 O 432.586 -1.05427 1.50435 0
M  V30 4385 C 432.648 2.08802 2.92646 0
M  V30 4386 C 432.312 3.57903 2.84174 0
M  V30 4387 C 433.309 4.52191 2.56553 0
M  V30 4388 C 430.994 4.00762 3.02812 0
M  V30 4389 C 432.988 5.87315 2.47669 0
M  V30 4390 C 430.675 5.35977 2.93551 0
M  V30 4391 C 431.673 6.29066 2.66017 0
M  V30 4392 O 431.361 7.61798 2.56746 0
M  V30 4393 H 431.093 0.459166 0.496128 0
M  V30 4394 H 433.647 1.79952 0.990269 0
M  V30 4395 H 431.877 1.56878 3.53449 0
M  V30 4396 H 433.566 1.98762 3.53904 0
M  V30 4397 H 434.332 4.20393 2.41858 0
M  V30 4398 H 430.211 3.2868 3.2325 0
M  V30 4399 H 433.755 6.59943 2.26099 0
M  V30 4400 H 429.652 5.67384 3.07808 0
M  V30 4401 H 430.42 7.71898 2.72242 0
M  V30 4402 N 433.083 -1.0153 1.20538 0
M  V30 4403 C 434.329 -1.75408 1.01783 0
M  V30 4404 C 434.662 -1.88943 -0.448814 0
M  V30 4405 O 433.937 -1.4162 -1.33319 0
M  V30 4406 C 434.22 -3.17255 1.70356 0
M  V30 4407 C 434.073 -3.11508 3.24473 0
M  V30 4408 C 435.392 -4.15955 1.43769 0
M  V30 4409 H 432.511 -0.636713 0.371167 0
M  V30 4410 H 435.153 -1.18436 1.4857 0
M  V30 4411 H 433.303 -3.65898 1.30578 0
M  V30 4412 H 434.975 -2.70658 3.73553 0
M  V30 4413 H 433.218 -2.4887 3.55311 0
M  V30 4414 H 433.889 -4.11784 3.67611 0
M  V30 4415 H 436.365 -3.75973 1.7828 0
M  V30 4416 H 435.241 -5.13368 1.94279 0
M  V30 4417 H 435.502 -4.40586 0.365564 0
M  V30 4418 N 434.561 -1.01147 -1.20859 0
M  V30 4419 C 435.509 -0.57059 -2.25493 0
M  V30 4420 C 436.503 0.388109 -1.64894 0
M  V30 4421 O 437.709 0.258592 -1.78133 0
M  V30 4422 H 434.084 -0.166191 -0.733406 0
M  V30 4423 H 436.055 -1.46411 -2.60012 0
M  V30 4424 C 434.804 0.0805241 -3.47607 0
M  V30 4425 H 434.127 -0.648156 -3.94511 0
M  V30 4426 H 435.567 0.352197 -4.22535 0
M  V30 4427 C 434.026 1.32175 -3.09889 0
M  V30 4428 O 434.556 2.41553 -3.20959 0
M  V30 4429 N 432.762 1.20392 -2.64488 0
M  V30 4430 H 432.309 0.313905 -2.5568 0
M  V30 4431 H 432.267 2.03541 -2.39621 0
M  V30 4432 N 436.039 1.36541 -0.78704 0
M  V30 4433 C 437.45 1.81873 -0.421807 0
M  V30 4434 C 437.801 1.65487 1.05397 0
M  V30 4435 O 436.926 1.17448 1.81755 0
M  V30 4436 C 437.521 3.30192 -0.758841 0
M  V30 4437 C 436.08 3.73743 -0.446468 0
M  V30 4438 C 435.227 2.58844 -0.994728 0
M  V30 4439 H 438.178 1.24796 -0.98039 0
M  V30 4440 H 438.199 3.80468 -0.0490648 0
M  V30 4441 H 437.711 3.42087 -1.83299 0
M  V30 4442 H 435.812 3.6741 0.619739 0
M  V30 4443 H 435.925 4.69272 -0.965415 0
M  V30 4444 H 434.289 2.51245 -0.418087 0
M  V30 4445 H 435.072 2.73525 -2.07458 0
M  V30 4446 N 437.518 0.538854 1.48102 0
M  V30 4447 C 438.481 -0.208395 2.28251 0
M  V30 4448 C 439.481 -0.859656 1.35892 0
M  V30 4449 O 440.671 -0.71834 1.58699 0
M  V30 4450 C 437.803 -1.30252 3.15035 0
M  V30 4451 H 438.996 0.495407 2.9578 0
M  V30 4452 H 436.549 0.295112 1.53489 0
M  V30 4453 H 437.284 -2.0393 2.52157 0
M  V30 4454 H 437.069 -0.840551 3.82985 0
M  V30 4455 H 438.559 -1.82787 3.75471 0
M  V30 4456 N 438.996 -1.55193 0.274407 0
M  V30 4457 C 440.243 -1.99581 -0.342579 0
M  V30 4458 C 440.571 -1.1628 -1.55914 0
M  V30 4459 O 439.826 -0.22029 -1.94456 0
M  V30 4460 C 440.125 -3.49019 -0.769458 0
M  V30 4461 C 439.791 -4.49598 0.342389 0
M  V30 4462 C 438.453 -4.76821 0.647686 0
M  V30 4463 C 440.805 -5.0964 1.09163 0
M  V30 4464 C 438.133 -5.61354 1.70581 0
M  V30 4465 C 440.485 -5.95323 2.13948 0
M  V30 4466 C 439.149 -6.20867 2.45113 0
M  V30 4467 H 438.419 -0.730319 -0.125358 0
M  V30 4468 H 441.066 -1.87529 0.387971 0
M  V30 4469 H 439.371 -3.58544 -1.57967 0
M  V30 4470 H 441.068 -3.8077 -1.25757 0
M  V30 4471 H 437.658 -4.28496 0.094318 0
M  V30 4472 H 441.842 -4.88632 0.869024 0
M  V30 4473 H 437.098 -5.79392 1.9523 0
M  V30 4474 H 441.272 -6.40881 2.72478 0
M  V30 4475 H 438.899 -6.86162 3.27239 0
M  V30 4476 N 440.474 -0.00167713 -1.576 0
M  V30 4477 C 441.384 1.00548 -2.1196 0
M  V30 4478 C 442.4 1.3758 -1.06526 0
M  V30 4479 O 443.576 1.46278 -1.38436 0
M  V30 4480 C 440.641 2.27809 -2.6135 0
M  V30 4481 C 439.702 1.97074 -3.81393 0
M  V30 4482 C 438.935 3.18267 -4.28417 0
M  V30 4483 O 439.158 4.30009 -3.74765 0
M  V30 4484 O 438.092 3.02167 -5.20556 0
M  V30 4485 H 441.918 0.573373 -2.98238 0
M  V30 4486 H 439.503 0.217255 -1.47812 0
M  V30 4487 H 441.385 3.02568 -2.93309 0
M  V30 4488 H 440.06 2.70254 -1.78169 0
M  V30 4489 H 438.967 1.19785 -3.54404 0
M  V30 4490 H 440.3 1.59464 -4.65652 0
M  V30 4491 N 441.952 1.55251 0.271103 0
M  V30 4492 C 443.368 1.47133 0.618393 0
M  V30 4493 C 443.568 0.686994 1.89427 0
M  V30 4494 O 442.624 0.206609 2.51653 0
M  V30 4495 C 443.937 2.91361 0.743593 0
M  V30 4496 C 445.485 3.01587 0.837522 0
M  V30 4497 C 445.96 4.47073 0.994483 0
M  V30 4498 N 447.451 4.50909 1.05996 0
M  V30 4499 C 448.186 5.60698 1.20024 0
M  V30 4500 N 447.682 6.80348 1.30759 0
M  V30 4501 N 449.475 5.48444 1.23149 0
M  V30 4502 H 441.626 2.04698 -0.566784 0
M  V30 4503 H 443.889 0.928319 -0.192165 0
M  V30 4504 H 443.595 3.51483 -0.123493 0
M  V30 4505 H 443.469 3.40484 1.62328 0
M  V30 4506 H 445.856 2.4156 1.69507 0
M  V30 4507 H 445.937 2.55713 -0.0668086 0
M  V30 4508 H 445.581 5.07703 0.141582 0
M  V30 4509 H 445.511 4.90605 1.91349 0
M  V30 4510 H 448.002 3.6472 0.989316 0
M  V30 4511 H 448.315 7.59772 1.41303 0
M  V30 4512 H 446.66 6.83156 1.27761 0
M  V30 4513 H 449.851 4.53907 1.14394 0
M  V30 4514 H 450.024 6.34049 1.33738 0
M  V30 4515 N 443.43 -0.535701 1.48216 0
M  V30 4516 C 444.363 -1.65726 1.56876 0
M  V30 4517 C 445.341 -1.57094 0.419542 0
M  V30 4518 O 446.525 -1.77648 0.630352 0
M  V30 4519 C 443.652 -3.04096 1.49142 0
M  V30 4520 C 442.698 -3.31105 2.68834 0
M  V30 4521 S 443.531 -3.18001 4.30854 0
M  V30 4522 C 444.687 -4.58828 4.25709 0
M  V30 4523 H 444.92 -1.58129 2.51759 0
M  V30 4524 H 442.453 -0.718218 1.36678 0
M  V30 4525 H 444.411 -3.839 1.45366 0
M  V30 4526 H 443.072 -3.09139 0.556067 0
M  V30 4527 H 442.265 -4.32033 2.59545 0
M  V30 4528 H 441.867 -2.58961 2.69843 0
M  V30 4529 H 444.159 -5.5023 3.95289 0
M  V30 4530 H 445.102 -4.73172 5.26796 0
M  V30 4531 H 445.51 -4.37883 3.56257 0
M  V30 4532 N 444.908 -1.36708 -0.784132 0
M  V30 4533 C 445.841 -1.25827 -1.90375 0
M  V30 4534 C 446.819 -0.141331 -1.61985 0
M  V30 4535 O 448.003 -0.313389 -1.85877 0
M  V30 4536 C 445.13 -0.942621 -3.25319 0
M  V30 4537 C 444.176 -2.07474 -3.72635 0
M  V30 4538 S 445.009 -3.69317 -3.8777 0
M  V30 4539 C 446.165 -3.39876 -5.25581 0
M  V30 4540 H 446.398 -2.20593 -1.99314 0
M  V30 4541 H 443.931 -1.22186 -0.943926 0
M  V30 4542 H 445.889 -0.767321 -4.03265 0
M  V30 4543 H 444.55 -0.0126566 -3.14097 0
M  V30 4544 H 443.743 -1.80858 -4.70432 0
M  V30 4545 H 443.345 -2.20953 -3.01754 0
M  V30 4546 H 445.637 -2.94097 -6.10339 0
M  V30 4547 H 446.58 -4.36956 -5.57203 0
M  V30 4548 H 446.988 -2.75098 -4.92931 0
M  V30 4549 N 446.386 1.0089 -1.21074 0
M  V30 4550 C 447.634 1.74262 -1.02358 0
M  V30 4551 C 447.955 1.89869 0.444393 0
M  V30 4552 O 447.225 1.44677 1.32081 0
M  V30 4553 H 445.805 0.645615 -0.375754 0
M  V30 4554 H 448.467 1.21596 -1.52317 0
M  V30 4555 H 447.563 2.74328 -1.4883 0
M  V30 4556 N 447.864 1.01787 1.20321 0
M  V30 4557 C 449.094 0.72614 1.93419 0
M  V30 4558 C 449.502 -0.717317 1.75075 0
M  V30 4559 O 448.845 -1.49836 1.06278 0
M  V30 4560 C 448.907 0.983621 3.45782 0
M  V30 4561 C 448.571 2.41645 3.87888 0
M  V30 4562 C 449.568 3.39732 3.93545 0
M  V30 4563 C 447.253 2.75752 4.19841 0
M  V30 4564 C 449.247 4.69988 4.30569 0
M  V30 4565 C 446.934 4.06221 4.56539 0
M  V30 4566 C 447.932 5.0315 4.61876 0
M  V30 4567 O 447.62 6.31284 4.97731 0
M  V30 4568 H 447.352 0.265824 0.621541 0
M  V30 4569 H 449.906 1.3623 1.53722 0
M  V30 4570 H 448.136 0.290301 3.85609 0
M  V30 4571 H 449.825 0.683279 4.00108 0
M  V30 4572 H 450.591 3.14718 3.69022 0
M  V30 4573 H 446.47 2.00993 4.14877 0
M  V30 4574 H 450.014 5.45642 4.3465 0
M  V30 4575 H 445.911 4.31013 4.80518 0
M  V30 4576 H 446.679 6.35591 5.15719 0
M  V30 4577 N 449.342 -1.36122 0.79427 0
M  V30 4578 C 450.292 -2.27373 0.169017 0
M  V30 4579 C 451.276 -1.4719 -0.649913 0
M  V30 4580 O 452.468 -1.69518 -0.50919 0
M  V30 4581 C 449.597 -3.36264 -0.691455 0
M  V30 4582 C 448.683 -4.2388 0.13653 0
M  V30 4583 N 449.074 -4.91519 1.19345 0
M  V30 4584 C 447.372 -4.45921 -0.0838499 0
M  V30 4585 C 448.073 -5.56369 1.6979 0
M  V30 4586 N 447.049 -5.34204 1.00634 0
M  V30 4587 H 450.851 -2.77154 0.977897 0
M  V30 4588 H 448.365 -1.49504 0.634208 0
M  V30 4589 H 450.362 -4.00572 -1.15534 0
M  V30 4590 H 449.022 -2.88037 -1.49883 0
M  V30 4591 H 450.033 -4.9334 1.57594 0
M  V30 4592 H 446.71 -4.08518 -0.861341 0
M  V30 4593 H 448.1 -6.20368 2.58055 0
M  V30 4594 N 450.82 -0.546701 -1.47814 0
M  V30 4595 C 451.767 0.206854 -2.29871 0
M  V30 4596 C 452.737 0.918235 -1.38411 0
M  V30 4597 O 453.922 0.915991 -1.67375 0
M  V30 4598 C 451.062 1.23746 -3.22151 0
M  V30 4599 C 450.175 0.533216 -4.28697 0
M  V30 4600 C 449.31 1.5482 -5.08138 0
M  V30 4601 C 448.349 0.828347 -6.06469 0
M  V30 4602 N 447.486 1.78966 -6.78908 0
M  V30 4603 H 452.326 -0.499037 -2.93792 0
M  V30 4604 H 449.863 -0.25793 -1.44821 0
M  V30 4605 H 451.821 1.84746 -3.74065 0
M  V30 4606 H 450.451 1.91151 -2.60117 0
M  V30 4607 H 449.503 -0.191089 -3.7992 0
M  V30 4608 H 450.815 -0.0311987 -4.9879 0
M  V30 4609 H 449.969 2.23202 -5.6415 0
M  V30 4610 H 448.708 2.14652 -4.37922 0
M  V30 4611 H 447.713 0.130539 -5.49645 0
M  V30 4612 H 448.938 0.235907 -6.7869 0
M  V30 4613 H 446.884 2.37675 -6.1143 0
M  V30 4614 H 446.801 1.27712 -7.45135 0
M  V30 4615 H 448.069 2.46496 -7.395 0
M  V30 4616 N 452.299 1.55045 -0.282633 0
M  V30 4617 C 453.547 1.99365 0.331334 0
M  V30 4618 C 453.868 1.1725 1.55812 0
M  V30 4619 O 453.138 0.263871 1.94115 0
M  V30 4620 H 451.718 0.736397 0.125414 0
M  V30 4621 H 454.38 1.90964 -0.389711 0
M  V30 4622 H 453.476 3.0596 0.616036 0
M  V30 4623 N 453.777 0.010035 1.57597 0
M  V30 4624 C 454.687 -0.994226 2.12491 0
M  V30 4625 C 455.703 -1.37013 1.07254 0
M  V30 4626 O 456.879 -1.45542 1.3921 0
M  V30 4627 C 453.944 -2.2642 2.62555 0
M  V30 4628 C 453.005 -1.95049 3.82432 0
M  V30 4629 C 452.238 -3.15991 4.30099 0
M  V30 4630 O 452.461 -4.28015 3.7704 0
M  V30 4631 O 451.395 -2.99403 5.22151 0
M  V30 4632 H 455.221 -0.557549 2.98538 0
M  V30 4633 H 452.806 -0.209413 1.47925 0
M  V30 4634 H 454.688 -3.01009 2.9491 0
M  V30 4635 H 453.363 -2.69306 1.796 0
M  V30 4636 H 452.27 -1.17904 3.55034 0
M  V30 4637 H 453.603 -1.56992 4.66491 0
M  V30 4638 N 455.255 -1.55392 -0.262866 0
M  V30 4639 C 456.185 -1.91978 -1.32917 0
M  V30 4640 C 457.166 -0.7828 -1.51017 0
M  V30 4641 O 458.351 -1.04178 -1.63892 0
M  V30 4642 C 455.481 -2.20055 -2.68687 0
M  V30 4643 C 454.435 -3.35854 -2.65304 0
M  V30 4644 C 453.761 -3.49435 -4.04721 0
M  V30 4645 C 455.061 -4.71977 -2.23685 0
M  V30 4646 H 456.755 -2.81292 -1.02544 0
M  V30 4647 H 454.301 -1.3534 -0.491846 0
M  V30 4648 H 456.254 -2.44237 -3.43404 0
M  V30 4649 H 454.978 -1.27551 -3.00663 0
M  V30 4650 H 453.637 -3.11655 -1.93045 0
M  V30 4651 H 453.285 -2.54379 -4.33936 0
M  V30 4652 H 452.985 -4.27297 -4.0335 0
M  V30 4653 H 454.509 -3.7592 -4.81161 0
M  V30 4654 H 455.923 -4.95637 -2.88127 0
M  V30 4655 H 454.32 -5.52828 -2.33456 0
M  V30 4656 H 455.39 -4.70115 -1.18827 0
M  V30 4657 N 456.733 0.527833 -1.48498 0
M  V30 4658 C 457.663 1.64136 -1.66077 0
M  V30 4659 C 458.644 1.62286 -0.509625 0
M  V30 4660 O 459.829 1.79449 -0.742413 0
M  V30 4661 C 456.959 3.02717 -1.70234 0
M  V30 4662 C 455.913 3.19426 -2.8487 0
M  V30 4663 C 455.239 4.5909 -2.74118 0
M  V30 4664 C 456.539 3.01993 -4.26142 0
M  V30 4665 H 458.233 1.4968 -2.593 0
M  V30 4666 H 455.779 0.718654 -1.24785 0
M  V30 4667 H 457.732 3.80491 -1.8112 0
M  V30 4668 H 456.456 3.18201 -0.735911 0
M  V30 4669 H 455.115 2.4407 -2.73542 0
M  V30 4670 H 454.763 4.71413 -1.7544 0
M  V30 4671 H 454.463 4.71214 -3.51042 0
M  V30 4672 H 455.987 5.3896 -2.86974 0
M  V30 4673 H 457.401 3.69558 -4.38292 0
M  V30 4674 H 455.798 3.2561 -5.04082 0
M  V30 4675 H 456.868 1.98396 -4.42456 0
M  V30 4676 N 458.211 1.37122 0.776871 0
M  V30 4677 C 459.459 1.31787 1.53221 0
M  V30 4678 C 459.78 -0.0987589 1.9475 0
M  V30 4679 O 459.05 -1.0417 1.65908 0
M  V30 4680 H 457.63 0.484839 0.568278 0
M  V30 4681 H 460.292 1.71556 0.924917 0
M  V30 4682 H 459.388 1.95355 2.43398 0
M  V30 4683 N 459.689 -1.00246 1.21608 0
M  V30 4684 C 460.636 -2.09073 0.977613 0
M  V30 4685 C 461.606 -1.65815 -0.097297 0
M  V30 4686 O 462.791 -1.90734 0.0503445 0
M  V30 4687 C 459.931 -3.40671 0.551133 0
M  V30 4688 C 459.044 -3.97326 1.69576 0
M  V30 4689 C 458.179 -5.17043 1.2182 0
M  V30 4690 C 457.218 -5.65813 2.335 0
M  V30 4691 N 456.355 -6.76778 1.86859 0
M  V30 4692 H 461.195 -2.28806 1.90924 0
M  V30 4693 H 458.732 -1.12186 0.951452 0
M  V30 4694 H 460.69 -4.16225 0.285097 0
M  V30 4695 H 459.32 -3.20967 -0.343489 0
M  V30 4696 H 458.372 -3.18734 2.07637 0
M  V30 4697 H 459.684 -4.29511 2.53617 0
M  V30 4698 H 458.838 -5.99852 0.908975 0
M  V30 4699 H 457.577 -4.86458 0.347869 0
M  V30 4700 H 456.582 -4.81599 2.65222 0
M  V30 4701 H 457.807 -5.98427 3.21033 0
M  V30 4702 H 455.753 -6.47994 1.02174 0
M  V30 4703 H 455.67 -7.08231 2.64471 0
M  V30 4704 H 456.938 -7.63116 1.58978 0
M  V30 4705 N 461.167 -1.02423 -1.1978 0
M  V30 4706 C 462.077 -0.610919 -2.26506 0
M  V30 4707 C 463.093 0.355152 -1.70337 0
M  V30 4708 O 464.269 0.214195 -2.00258 0
M  V30 4709 C 461.334 0.0365921 -3.46681 0
M  V30 4710 C 460.395 -0.976389 -4.18049 0
M  V30 4711 C 459.628 -0.359683 -5.32487 0
M  V30 4712 O 459.851 0.838601 -5.64202 0
M  V30 4713 O 458.785 -1.08022 -5.92127 0
M  V30 4714 H 462.611 -1.49965 -2.64091 0
M  V30 4715 H 460.196 -0.794156 -1.26545 0
M  V30 4716 H 462.078 0.39786 -4.19518 0
M  V30 4717 H 460.753 0.899398 -3.10954 0
M  V30 4718 H 459.66 -1.38916 -3.47352 0
M  V30 4719 H 460.993 -1.80941 -4.57735 0
M  V30 4720 N 462.645 1.35699 -0.801477 0
M  V30 4721 C 463.575 2.32436 -0.222658 0
M  V30 4722 C 464.556 1.5723 0.649057 0
M  V30 4723 O 465.741 1.85324 0.580387 0
M  V30 4724 C 462.871 3.41469 0.633719 0
M  V30 4725 C 461.825 4.27774 -0.139083 0
M  V30 4726 C 461.151 5.28082 0.838666 0
M  V30 4727 C 462.451 5.04946 -1.33517 0
M  V30 4728 H 464.145 2.81094 -1.03086 0
M  V30 4729 H 461.691 1.35146 -0.497155 0
M  V30 4730 H 463.644 4.08143 1.04868 0
M  V30 4731 H 462.368 2.91408 1.47475 0
M  V30 4732 H 461.027 3.62673 -0.535156 0
M  V30 4733 H 460.675 4.7429 1.67506 0
M  V30 4734 H 460.375 5.86695 0.32594 0
M  V30 4735 H 461.899 5.97628 1.25194 0
M  V30 4736 H 463.313 5.64593 -0.995349 0
M  V30 4737 H 461.71 5.7303 -1.78202 0
M  V30 4738 H 462.78 4.35886 -2.12442 0
M  V30 4739 N 464.123 0.554532 1.47522 0
M  V30 4740 C 465.086 -0.184174 2.28459 0
M  V30 4741 C 466.086 -0.845195 1.36796 0
M  V30 4742 O 467.276 -0.701467 1.59452 0
M  V30 4743 C 464.408 -1.26903 3.16399 0
M  V30 4744 H 465.601 0.526751 2.95238 0
M  V30 4745 H 463.154 0.311375 1.53167 0
M  V30 4746 H 463.889 -2.01244 2.54306 0
M  V30 4747 H 463.674 -0.799883 3.83854 0
M  V30 4748 H 465.164 -1.78794 3.77389 0
M  V30 4749 N 465.601 -1.54893 0.290851 0
M  V30 4750 C 466.878 -1.91991 -0.373989 0
M  V30 4751 C 467.258 -1.21694 -1.72493 0
M  V30 4752 O 466.606 -0.34917 -2.25816 0
M  V30 4753 C 466.816 -3.45419 -0.498703 0
M  V30 4754 C 468.164 -4.1748 -0.774298 0
M  V30 4755 O 469.188 -3.51398 -0.582908 0
M  V30 4756 O 468.047 -5.3445 -1.14129 0
M  V30 4757 H 465.141 -0.800593 -0.207315 0
M  V30 4758 H 467.687 -1.66297 0.338164 0
M  V30 4759 H 466.459 -3.88688 0.451392 0
M  V30 4760 H 466.082 -3.77117 -1.25972 0
M  V30 4761 N 467.08 -0.0183926 -1.57589 0
M  V30 4762 C 468.01 0.965596 -2.12599 0
M  V30 4763 C 468.991 1.34641 -1.0395 0
M  V30 4764 O 470.176 1.42693 -1.31729 0
M  V30 4765 C 467.306 2.25149 -2.64434 0
M  V30 4766 C 466.26 2.01175 -3.77773 0
M  V30 4767 C 465.586 3.35937 -4.15994 0
M  V30 4768 C 466.886 1.35953 -5.04296 0
M  V30 4769 H 468.58 0.507504 -2.95067 0
M  V30 4770 H 466.126 0.242671 -1.41941 0
M  V30 4771 H 468.079 2.94357 -3.01549 0
M  V30 4772 H 466.803 2.73105 -1.79112 0
M  V30 4773 H 465.462 1.34388 -3.4108 0
M  V30 4774 H 465.11 3.81631 -3.27669 0
M  V30 4775 H 464.81 3.20705 -4.92364 0
M  V30 4776 H 466.334 4.0643 -4.55683 0
M  V30 4777 H 467.748 1.95144 -5.39065 0
M  V30 4778 H 466.145 1.31152 -5.85593 0
M  V30 4779 H 467.215 0.331071 -4.83768 0
M  V30 4780 N 468.558 1.5553 0.254621 0
M  V30 4781 C 469.969 1.67518 0.824286 0
M  V30 4782 C 470.32 0.614429 1.86331 0
M  V30 4783 O 469.445 -0.240736 2.15057 0
M  V30 4784 C 470.04 3.03692 1.50189 0
M  V30 4785 C 468.599 3.17646 2.01935 0
M  V30 4786 C 467.746 2.63373 0.867746 0
M  V30 4787 H 470.697 1.58671 0.0305843 0
M  V30 4788 H 470.718 2.97706 2.36962 0
M  V30 4789 H 470.23 3.80874 0.745431 0
M  V30 4790 H 468.331 2.45273 2.80485 0
M  V30 4791 H 468.444 4.24455 2.22204 0
M  V30 4792 H 466.808 2.20999 1.26616 0
M  V30 4793 H 467.591 3.43074 0.124498 0
M  V30 4794 N 470.036 -0.519951 1.48776 0
M  V30 4795 C 470.983 -1.62352 1.64044 0
M  V30 4796 C 471.953 -1.58945 0.482251 0
M  V30 4797 O 473.138 -1.77219 0.706971 0
M  V30 4798 C 470.278 -3.00579 1.69547 0
M  V30 4799 C 469.391 -3.14145 2.96541 0
M  V30 4800 C 468.526 -4.42991 2.93142 0
M  V30 4801 C 467.565 -4.50122 4.14797 0
M  V30 4802 N 466.702 -5.7037 4.09418 0
M  V30 4803 H 471.542 -1.48643 2.58281 0
M  V30 4804 H 469.079 -0.723516 1.28077 0
M  V30 4805 H 471.037 -3.80671 1.70719 0
M  V30 4806 H 469.667 -3.13036 0.787918 0
M  V30 4807 H 468.719 -2.27239 3.05068 0
M  V30 4808 H 470.031 -3.15275 3.86527 0
M  V30 4809 H 469.185 -5.31385 2.92772 0
M  V30 4810 H 467.924 -4.44398 2.00902 0
M  V30 4811 H 466.929 -3.60133 4.15433 0
M  V30 4812 H 468.154 -4.50445 5.08208 0
M  V30 4813 H 466.1 -5.72655 3.20004 0
M  V30 4814 H 466.017 -5.73036 4.93119 0
M  V30 4815 H 467.285 -6.61023 4.13121 0
M  V30 4816 N 471.514 -1.37532 -0.769588 0
M  V30 4817 C 472.739 -1.36231 -1.56384 0
M  V30 4818 C 473.164 0.0495849 -1.88035 0
M  V30 4819 O 472.522 1.02723 -1.49391 0
M  V30 4820 C 472.57 -2.20986 -2.84952 0
M  V30 4821 O 471.674 -1.61597 -3.79421 0
M  V30 4822 H 471.015 -0.465387 -0.473615 0
M  V30 4823 H 473.545 -1.81085 -0.952342 0
M  V30 4824 H 473.555 -2.34277 -3.34034 0
M  V30 4825 H 472.23 -3.23612 -2.61243 0
M  V30 4826 H 470.807 -1.57359 -3.38072 0
M  V30 4827 N 472.992 0.995999 -1.22138 0
M  V30 4828 C 474.269 1.70834 -0.952642 0
M  V30 4829 C 474.649 2.04257 0.533119 0
M  V30 4830 O 473.997 1.72343 1.50034 0
M  V30 4831 C 474.207 2.96119 -1.84701 0
M  V30 4832 C 475.555 3.68962 -2.10124 0
M  V30 4833 O 476.579 3.0612 -1.82124 0
M  V30 4834 O 475.438 4.82017 -2.57531 0
M  V30 4835 H 472.532 0.745498 -0.357997 0
M  V30 4836 H 475.078 1.05262 -1.33109 0
M  V30 4837 H 473.85 2.67898 -2.85213 0
M  V30 4838 H 473.473 3.6943 -1.46995 0
M  V30 4839 N 474.47 1.03057 1.19235 0
M  V30 4840 C 475.417 0.612832 2.22515 0
M  V30 4841 C 476.387 -0.374224 1.61829 0
M  V30 4842 O 477.572 -0.270501 1.88873 0
M  V30 4843 C 474.712 -0.028475 3.45088 0
M  V30 4844 C 473.825 1.00483 4.20151 0
M  V30 4845 C 472.96 0.333102 5.30155 0
M  V30 4846 C 471.999 1.3522 5.96977 0
M  V30 4847 N 471.136 0.70616 6.9854 0
M  V30 4848 H 475.976 1.49812 2.57605 0
M  V30 4849 H 473.513 0.749658 1.26564 0
M  V30 4850 H 475.471 -0.417548 4.15105 0
M  V30 4851 H 474.101 -0.877334 3.10649 0
M  V30 4852 H 473.153 1.51194 3.49062 0
M  V30 4853 H 474.465 1.77929 4.65986 0
M  V30 4854 H 473.619 -0.110725 6.06599 0
M  V30 4855 H 472.358 -0.473547 4.85396 0
M  V30 4856 H 471.363 1.80627 5.19282 0
M  V30 4857 H 472.588 2.16037 6.4382 0
M  V30 4858 H 470.534 -0.0803667 6.55951 0
M  V30 4859 H 470.451 1.41848 7.42573 0
M  V30 4860 H 471.719 0.286391 7.78974 0
M  V30 4861 N 475.948 -1.35272 0.808662 0
M  V30 4862 C 476.896 -2.31663 0.208606 0
M  V30 4863 C 477.89 -1.56731 -0.642778 0
M  V30 4864 O 479.096 -1.71843 -0.53571 0
M  V30 4865 H 475.471 -0.750421 0.0486993 0
M  V30 4866 H 477.442 -2.79814 1.03666 0
M  V30 4867 C 476.191 -3.42008 -0.626573 0
M  V30 4868 H 475.514 -3.99795 0.0192103 0
M  V30 4869 H 476.954 -4.11727 -1.01278 0
M  V30 4870 C 475.413 -2.85226 -1.79298 0
M  V30 4871 O 475.943 -2.78945 -2.89055 0
M  V30 4872 N 474.149 -2.42245 -1.60516 0
M  V30 4873 H 473.696 -2.47554 -0.712375 0
M  V30 4874 H 473.654 -2.04603 -2.38715 0
M  V30 4875 N 477.426 -0.562348 -1.47226 0
M  V30 4876 C 478.842 -0.222492 -1.58042 0
M  V30 4877 C 479.042 1.27505 -1.56028 0
M  V30 4878 O 478.098 2.05555 -1.46641 0
M  V30 4879 C 479.411 -0.853694 -2.88327 0
M  V30 4880 C 480.959 -0.825397 -3.01921 0
M  V30 4881 C 481.434 -1.43576 -4.34914 0
M  V30 4882 N 482.925 -1.39918 -4.41562 0
M  V30 4883 C 483.66 -1.84103 -5.43041 0
M  V30 4884 N 483.156 -2.36167 -6.51304 0
M  V30 4885 N 484.949 -1.75142 -5.34118 0
M  V30 4886 H 477.1 -1.53525 -1.46778 0
M  V30 4887 H 479.363 -0.640527 -0.698877 0
M  V30 4888 H 479.069 -1.90635 -2.95552 0
M  V30 4889 H 478.943 -0.34977 -3.75575 0
M  V30 4890 H 481.33 0.218583 -2.94289 0
M  V30 4891 H 481.411 -1.36713 -2.16202 0
M  V30 4892 H 481.055 -2.47884 -4.43301 0
M  V30 4893 H 480.985 -0.869427 -5.19373 0
M  V30 4894 H 483.476 -1.0184 -3.63919 0
M  V30 4895 H 483.789 -2.67793 -7.24919 0
M  V30 4896 H 482.134 -2.40181 -6.52179 0
M  V30 4897 H 485.325 -1.34241 -4.48439 0
M  V30 4898 H 485.498 -2.09895 -6.13065 0
M  V30 4899 N 478.904 1.54736 -0.299062 0
M  V30 4900 C 479.867 2.22127 0.565012 0
M  V30 4901 C 480.867 1.20669 1.06281 0
M  V30 4902 O 482.057 1.45417 0.959145 0
M  V30 4903 C 479.189 2.90611 1.78208 0
M  V30 4904 H 480.382 2.99891 -0.0237448 0
M  V30 4905 H 477.935 1.5622 -0.0498788 0
M  V30 4906 H 478.67 2.16921 2.41072 0
M  V30 4907 H 478.455 3.64984 1.43281 0
M  V30 4908 H 479.945 3.42026 2.396 0
M  V30 4909 N 480.382 0.0267497 1.57577 0
M  V30 4910 C 481.659 -0.690926 1.82991 0
M  V30 4911 C 482.039 -1.90471 0.910164 0
M  V30 4912 O 481.387 -2.28474 -0.0347985 0
M  V30 4913 C 481.597 -1.07139 3.32148 0
M  V30 4914 C 482.945 -1.46402 3.98562 0
M  V30 4915 O 483.969 -1.16443 3.36629 0
M  V30 4916 O 482.828 -2.02214 5.07712 0
M  V30 4917 H 479.922 -0.338747 0.75444 0
M  V30 4918 H 482.468 0.0542506 1.69613 0
M  V30 4919 H 481.24 -0.207394 3.9075 0
M  V30 4920 H 480.863 -1.87481 3.50623 0
M  V30 4921 N 481.861 -1.55662 -0.24637 0
M  V30 4922 C 482.791 -1.93377 -1.30873 0
M  V30 4923 C 483.772 -0.798773 -1.50179 0
M  V30 4924 O 484.957 -1.0591 -1.62778 0
M  V30 4925 C 482.087 -2.22893 -2.66338 0
M  V30 4926 C 481.041 -3.38649 -2.61727 0
M  V30 4927 C 480.367 -3.53708 -4.00992 0
M  V30 4928 C 481.667 -4.74323 -2.18666 0
M  V30 4929 H 483.361 -2.82363 -0.995552 0
M  V30 4930 H 480.907 -1.35854 -0.477464 0
M  V30 4931 H 482.86 -2.47866 -3.40794 0
M  V30 4932 H 481.584 -1.30733 -2.99293 0
M  V30 4933 H 480.243 -3.13685 -1.89729 0
M  V30 4934 H 479.891 -2.58967 -4.31214 0
M  V30 4935 H 479.591 -4.31551 -3.98795 0
M  V30 4936 H 481.115 -3.81003 -4.77147 0
M  V30 4937 H 482.529 -4.98665 -2.82854 0
M  V30 4938 H 480.926 -5.55273 -2.27579 0
M  V30 4939 H 481.996 -4.71349 -1.13834 0
M  V30 4940 N 483.339 0.512053 -1.4905 0
M  V30 4941 C 484.269 1.62365 -1.67809 0
M  V30 4942 C 485.25 1.61737 -0.526809 0
M  V30 4943 O 486.435 1.78651 -0.761404 0
M  V30 4944 C 483.565 3.00895 -1.73435 0
M  V30 4945 C 482.519 3.16387 -2.88242 0
M  V30 4946 C 481.845 4.56157 -2.78971 0
M  V30 4947 C 483.145 2.97457 -4.29321 0
M  V30 4948 H 484.839 1.46921 -2.60873 0
M  V30 4949 H 482.385 0.705379 -1.2554 0
M  V30 4950 H 484.338 3.78549 -1.85145 0
M  V30 4951 H 483.062 3.17403 -0.769619 0
M  V30 4952 H 481.721 2.41155 -2.76116 0
M  V30 4953 H 481.369 4.69525 -1.8043 0
M  V30 4954 H 481.069 4.67465 -3.5602 0
M  V30 4955 H 482.593 5.35886 -2.92675 0
M  V30 4956 H 484.007 3.64888 -4.42187 0
M  V30 4957 H 482.404 3.20245 -5.07507 0
M  V30 4958 H 483.474 1.93692 -4.44535 0
M  V30 4959 N 484.817 1.37938 0.762283 0
M  V30 4960 C 486.094 1.24196 1.51112 0
M  V30 4961 C 486.474 -0.160409 2.1049 0
M  V30 4962 O 485.822 -1.16904 1.96331 0
M  V30 4963 C 486.032 2.34537 2.58445 0
M  V30 4964 C 487.38 2.7254 3.25588 0
M  V30 4965 O 488.404 2.33783 2.68745 0
M  V30 4966 O 487.263 3.39343 4.28379 0
M  V30 4967 H 484.357 0.485175 0.669727 0
M  V30 4968 H 486.903 1.49743 0.798438 0
M  V30 4969 H 485.675 3.28406 2.12756 0
M  V30 4970 H 485.298 2.10505 3.37303 0
M  V30 4971 N 486.295 -0.989507 1.22664 0
M  V30 4972 C 487.523 -1.76496 1.07967 0
M  V30 4973 C 487.938 -1.85148 -0.369543 0
M  V30 4974 O 487.295 -1.32408 -1.25596 0
M  V30 4975 C 487.346 -3.19642 1.68853 0
M  V30 4976 O 487.067 -3.11453 3.08105 0
M  V30 4977 C 488.568 -4.13621 1.59475 0
M  V30 4978 H 485.788 -0.55418 0.378319 0
M  V30 4979 H 488.332 -1.24378 1.62328 0
M  V30 4980 H 486.487 -3.68816 1.18547 0
M  V30 4981 H 486.901 -4.01499 3.37489 0
M  V30 4982 H 488.375 -5.11801 2.06795 0
M  V30 4983 H 488.852 -4.35718 0.55191 0
M  V30 4984 H 489.458 -3.70346 2.09103 0
M  V30 4985 N 487.773 -1.03688 -1.18687 0
M  V30 4986 C 489.022 -0.733235 -1.879 0
M  V30 4987 C 489.335 0.741745 -1.8099 0
M  V30 4988 O 490.541 1.15875 -2.4553 0
M  V30 4989 C 488.997 -1.26127 -3.37076 0
M  V30 4990 C 488.605 -2.76461 -3.52524 0
M  V30 4991 C 490.349 -1.03398 -4.11715 0
M  V30 4992 C 488.256 -3.22642 -4.95637 0
M  V30 4993 H 487.186 -0.270584 -0.703776 0
M  V30 4994 H 489.837 -1.25222 -1.34133 0
M  V30 4995 H 488.219 -0.670165 -3.90288 0
M  V30 4996 H 489.393 -3.41296 -3.09602 0
M  V30 4997 H 487.708 -2.97559 -2.91286 0
M  V30 4998 H 490.305 -1.3542 -5.17267 0
M  V30 4999 H 490.648 0.0289246 -4.1629 0
M  V30 5000 H 491.181 -1.5895 -3.64664 0
M  V30 5001 H 487.92 -4.28296 -4.96228 0
M  V30 5002 H 487.44 -2.62539 -5.39289 0
M  V30 5003 H 489.119 -3.16444 -5.64333 0
M  V30 5004 N 489.251 1.34841 -0.815825 0
M  V30 5005 C 490.199 2.31549 -0.220888 0
M  V30 5006 C 491.193 1.5707 0.634457 0
M  V30 5007 O 492.399 1.72125 0.526589 0
M  V30 5008 H 488.774 0.750153 -0.0526782 0
M  V30 5009 H 490.745 2.7926 -1.05149 0
M  V30 5010 C 489.494 3.42335 0.608427 0
M  V30 5011 H 488.817 3.9978 -0.0404121 0
M  V30 5012 H 490.257 4.12258 0.990931 0
M  V30 5013 C 488.716 2.86173 1.77782 0
M  V30 5014 O 489.246 2.80474 2.87571 0
M  V30 5015 N 487.452 2.43093 1.59229 0
M  V30 5016 H 486.999 2.47928 0.699237 0
M  V30 5017 H 486.957 2.05866 2.37627 0
M  V30 5018 N 490.729 0.570148 1.46925 0
M  V30 5019 C 491.957 0.0561966 2.06824 0
M  V30 5020 C 492.372 -1.24326 1.42086 0
M  V30 5021 O 491.729 -1.74882 0.521794 0
M  V30 5022 C 491.78 -0.129517 3.61268 0
M  V30 5023 O 491.501 1.1185 4.23581 0
M  V30 5024 C 493.002 -0.679266 4.38065 0
M  V30 5025 H 490.222 0.0517261 0.669003 0
M  V30 5026 H 492.766 0.787243 1.8874 0
M  V30 5027 H 490.921 -0.810739 3.78822 0
M  V30 5028 H 491.335 0.924375 5.1629 0
M  V30 5029 H 492.809 -0.758445 5.46765 0
M  V30 5030 H 493.286 -1.69346 4.05239 0
M  V30 5031 H 493.892 -0.0333237 4.25287 0
M  V30 5032 N 492.207 -1.54576 0.307264 0
M  V30 5033 C 493.447 -2.02172 -0.300962 0
M  V30 5034 C 493.811 -1.19081 -1.50611 0
M  V30 5035 O 495.012 -1.56405 -2.18612 0
M  V30 5036 C 493.283 -3.51576 -0.642591 0
M  V30 5037 S 494.842 -4.21127 -1.23279 0
M  V30 5038 H 491.66 -0.705021 -0.0920141 0
M  V30 5039 H 494.262 -1.90563 0.436594 0
M  V30 5040 H 492.966 -4.09681 0.242901 0
M  V30 5041 H 492.497 -3.67234 -1.41077 0
M  V30 5042 H 494.512 -4.27426 -2.52034 0
M  V30 5043 N 493.685 -0.035106 -1.57561 0
M  V30 5044 C 494.934 0.641604 -1.91223 0
M  V30 5045 C 495.247 1.72944 -0.913761 0
M  V30 5046 O 496.453 2.46321 -1.14185 0
M  V30 5047 C 494.909 1.19249 -3.3957 0
M  V30 5048 C 494.517 0.137616 -4.47789 0
M  V30 5049 C 496.261 1.84537 -3.82291 0
M  V30 5050 C 494.168 0.700478 -5.87237 0
M  V30 5051 H 493.098 0.243417 -0.713627 0
M  V30 5052 H 495.749 -0.101382 -1.8322 0
M  V30 5053 H 494.131 1.98728 -3.42525 0
M  V30 5054 H 495.305 -0.635153 -4.56402 0
M  V30 5055 H 493.62 -0.416855 -4.14308 0
M  V30 5056 H 496.217 2.27616 -4.83834 0
M  V30 5057 H 496.56 2.69054 -3.17672 0
M  V30 5058 H 497.093 1.11739 -3.81784 0
M  V30 5059 H 493.832 -0.106693 -6.55413 0
M  V30 5060 H 493.352 1.4416 -5.82218 0
M  V30 5061 H 495.031 1.18837 -6.35993 0
M  V30 5062 N 495.163 1.55791 0.238111 0
M  V30 5063 C 496.11 1.9105 1.29493 0
M  V30 5064 C 497.08 0.765733 1.47397 0
M  V30 5065 O 498.265 1.02017 1.61236 0
M  V30 5066 C 495.405 2.21826 2.64362 0
M  V30 5067 C 494.518 3.49153 2.54394 0
M  V30 5068 C 493.653 3.69455 3.81676 0
M  V30 5069 C 492.692 4.90353 3.66361 0
M  V30 5070 N 491.829 5.07131 4.85554 0
M  V30 5071 H 496.669 2.81172 0.987233 0
M  V30 5072 H 494.206 1.39179 0.476203 0
M  V30 5073 H 496.164 2.37675 3.4288 0
M  V30 5074 H 494.794 1.34897 2.93262 0
M  V30 5075 H 493.846 3.41587 1.67399 0
M  V30 5076 H 495.158 4.37818 2.38991 0
M  V30 5077 H 494.312 3.85311 4.68636 0
M  V30 5078 H 493.051 2.7904 3.99985 0
M  V30 5079 H 492.056 4.74464 2.77784 0
M  V30 5080 H 493.281 5.82237 3.49538 0
M  V30 5081 H 491.227 4.19654 5.04209 0
M  V30 5082 H 491.144 5.89899 4.72816 0
M  V30 5083 H 492.412 5.27407 5.73988 0
M  V30 5084 N 496.642 -0.504142 1.49319 0
M  V30 5085 C 497.589 -1.60603 1.65756 0
M  V30 5086 C 498.559 -1.58425 0.499082 0
M  V30 5087 O 499.744 -1.76459 0.725728 0
M  V30 5088 C 496.884 -2.98764 1.72726 0
M  V30 5089 C 495.997 -3.10982 2.99857 0
M  V30 5090 C 495.132 -4.39857 2.97824 0
M  V30 5091 C 494.171 -4.45697 4.19548 0
M  V30 5092 N 493.308 -5.65995 4.15444 0
M  V30 5093 H 498.148 -1.45895 2.59843 0
M  V30 5094 H 495.685 -0.709891 1.28837 0
M  V30 5095 H 497.643 -3.78839 1.74747 0
M  V30 5096 H 496.273 -3.12183 0.821075 0
M  V30 5097 H 495.325 -2.23991 3.07461 0
M  V30 5098 H 496.637 -3.11157 3.89849 0
M  V30 5099 H 495.791 -5.2825 2.98391 0
M  V30 5100 H 494.53 -4.42242 2.05604 0
M  V30 5101 H 493.535 -3.55707 4.19229 0
M  V30 5102 H 494.76 -4.4503 5.12957 0
M  V30 5103 H 492.706 -5.69229 3.26059 0
M  V30 5104 H 492.623 -5.67773 4.99169 0
M  V30 5105 H 493.891 -6.56604 4.20109 0
M  V30 5106 N 498.12 -1.38341 -0.754957 0
M  V30 5107 C 499.368 -1.34208 -1.51105 0
M  V30 5108 C 499.689 0.0677634 -1.94882 0
M  V30 5109 O 498.959 1.01517 -1.67544 0
M  V30 5110 H 497.539 -0.493819 -0.560493 0
M  V30 5111 H 500.201 -1.73005 -0.897507 0
M  V30 5112 H 499.297 -1.99203 -2.4026 0
M  V30 5113 N 499.598 0.982988 -1.23187 0
M  V30 5114 C 500.545 2.07491 -1.01075 0
M  V30 5115 C 501.515 1.65949 0.070905 0
M  V30 5116 O 502.7 1.90629 -0.0806822 0
M  V30 5117 C 499.84 3.39751 -0.605261 0
M  V30 5118 C 498.953 3.94578 -1.75876 0
M  V30 5119 C 498.088 5.15039 -1.3003 0
M  V30 5120 C 497.127 5.62027 -2.42472 0
M  V30 5121 N 496.264 6.73719 -1.97602 0
M  V30 5122 H 501.104 2.25739 -1.9454 0
M  V30 5123 H 498.641 1.10659 -0.969179 0
M  V30 5124 H 500.599 4.15719 -0.351279 0
M  V30 5125 H 499.229 3.21473 0.292382 0
M  V30 5126 H 498.281 3.1539 -2.12681 0
M  V30 5127 H 499.593 4.25422 -2.60418 0
M  V30 5128 H 498.747 5.9833 -1.00429 0
M  V30 5129 H 497.486 4.85843 -0.425216 0
M  V30 5130 H 496.491 4.77318 -2.7285 0
M  V30 5131 H 497.716 5.93244 -3.30512 0
M  V30 5132 H 495.662 6.46287 -1.1247 0
M  V30 5133 H 495.579 7.03934 -2.75705 0
M  V30 5134 H 496.847 7.6049 -1.71098 0
M  V30 5135 N 501.076 1.04316 1.18135 0
M  V30 5136 C 501.986 0.646876 2.25505 0
M  V30 5137 C 503.002 -0.328008 1.7088 0
M  V30 5138 O 504.178 -0.182309 2.00573 0
M  V30 5139 C 501.243 0.0185664 3.46695 0
M  V30 5140 C 500.304 1.04277 4.16443 0
M  V30 5141 C 499.537 0.444352 5.31847 0
M  V30 5142 O 499.76 -0.748735 5.65465 0
M  V30 5143 O 498.694 1.17428 5.90334 0
M  V30 5144 H 502.52 1.54147 2.61672 0
M  V30 5145 H 500.105 0.814188 1.25265 0
M  V30 5146 H 501.987 -0.331068 4.20097 0
M  V30 5147 H 500.662 -0.849814 3.12346 0
M  V30 5148 H 499.569 1.44425 3.45098 0
M  V30 5149 H 500.902 1.882 4.54798 0
M  V30 5150 N 502.554 -1.34406 0.822964 0
M  V30 5151 C 503.8 -1.98999 0.420847 0
M  V30 5152 C 504.155 -1.64067 -1.00498 0
M  V30 5153 O 503.448 -0.902071 -1.69036 0
M  V30 5154 C 503.642 -3.52981 0.560268 0
M  V30 5155 C 503.471 -4.02873 1.99809 0
M  V30 5156 C 502.241 -4.31463 2.62998 0
M  V30 5157 C 504.439 -4.20241 2.96483 0
M  V30 5158 N 502.421 -4.6739 3.9802 0
M  V30 5159 C 503.792 -4.59348 4.16413 0
M  V30 5160 C 505.847 -4.02489 2.93098 0
M  V30 5161 C 504.55 -4.82559 5.33413 0
M  V30 5162 C 506.576 -4.26866 4.09315 0
M  V30 5163 C 505.938 -4.6626 5.27997 0
M  V30 5164 H 502.037 -0.755432 0.202104 0
M  V30 5165 H 504.621 -1.62815 1.06767 0
M  V30 5166 H 502.792 -3.88359 -0.0566596 0
M  V30 5167 H 504.524 -4.04487 0.131146 0
M  V30 5168 H 501.279 -4.22373 2.14238 0
M  V30 5169 H 501.703 -4.89588 4.67582 0
M  V30 5170 H 506.345 -3.71161 2.02483 0
M  V30 5171 H 504.063 -5.12754 6.24587 0
M  V30 5172 H 507.649 -4.14667 4.08096 0
M  V30 5173 H 506.529 -4.84752 6.16429 0
M  V30 5174 N 504.032 -0.577932 -1.46621 0
M  V30 5175 C 504.964 0.195801 -2.28362 0
M  V30 5176 C 505.977 0.859983 -1.38232 0
M  V30 5177 O 507.166 0.730349 -1.62875 0
M  V30 5178 C 504.266 1.29639 -3.13124 0
M  V30 5179 C 503.439 0.725049 -4.31349 0
M  V30 5180 C 502.498 1.71274 -4.97546 0
M  V30 5181 O 501.524 1.25067 -5.5529 0
M  V30 5182 N 502.726 3.04672 -4.94121 0
M  V30 5183 H 505.491 -0.505468 -2.95407 0
M  V30 5184 H 503.052 -0.415381 -1.56481 0
M  V30 5185 H 505.044 1.95631 -3.54275 0
M  V30 5186 H 503.614 1.90059 -2.48186 0
M  V30 5187 H 502.834 -0.112205 -3.9404 0
M  V30 5188 H 504.122 0.323034 -5.07774 0
M  V30 5189 H 503.52 3.4484 -4.48444 0
M  V30 5190 H 502.077 3.66166 -5.39227 0
M  V30 5191 N 505.51 1.54411 -0.315457 0
M  V30 5192 C 506.758 2.00023 0.288971 0
M  V30 5193 C 507.079 1.20529 1.5329 0
M  V30 5194 O 506.349 0.304986 1.93511 0
M  V30 5195 H 504.929 0.738891 0.109766 0
M  V30 5196 H 507.591 1.90094 -0.430129 0
M  V30 5197 H 506.687 3.07198 0.550999 0
M  V30 5198 N 506.988 0.0434614 1.5754 0
M  V30 5199 C 508.234 -0.632971 1.92669 0
M  V30 5200 C 508.567 -1.70947 0.921446 0
M  V30 5201 O 507.842 -1.94426 -0.0537202 0
M  V30 5202 C 508.125 -1.23619 3.38216 0
M  V30 5203 C 507.978 -0.168274 4.49485 0
M  V30 5204 C 509.297 -2.15008 3.84005 0
M  V30 5205 H 506.416 -0.228629 0.700641 0
M  V30 5206 H 509.058 0.103651 1.89717 0
M  V30 5207 H 507.208 -1.864 3.40863 0
M  V30 5208 H 508.88 0.463196 4.58969 0
M  V30 5209 H 507.123 0.504581 4.30855 0
M  V30 5210 H 507.794 -0.630218 5.48391 0
M  V30 5211 H 510.27 -1.62198 3.83185 0
M  V30 5212 H 509.146 -2.54161 4.86511 0
M  V30 5213 H 509.407 -3.04707 3.20322 0
M  V30 5214 N 508.466 -1.55915 -0.229846 0
M  V30 5215 C 509.696 -1.82352 -0.971152 0
M  V30 5216 C 510.104 -0.619231 -1.7878 0
M  V30 5217 O 509.447 0.421597 -1.78797 0
M  V30 5218 C 509.509 -3.02399 -1.9441 0
M  V30 5219 C 509.173 -4.37739 -1.31277 0
M  V30 5220 C 510.17 -5.15074 -0.706757 0
M  V30 5221 C 507.855 -4.84454 -1.32702 0
M  V30 5222 C 509.849 -6.37281 -0.123413 0
M  V30 5223 C 507.536 -6.06605 -0.739831 0
M  V30 5224 C 508.534 -6.82858 -0.139071 0
M  V30 5225 O 508.222 -8.027 0.439007 0
M  V30 5226 H 507.954 -0.61035 -0.290601 0
M  V30 5227 H 510.508 -2.03839 -0.252746 0
M  V30 5228 H 508.738 -2.76709 -2.70128 0
M  V30 5229 H 510.427 -3.15779 -2.55026 0
M  V30 5230 H 511.193 -4.80093 -0.688131 0
M  V30 5231 H 507.072 -4.25081 -1.78402 0
M  V30 5232 H 510.616 -6.96741 0.346124 0
M  V30 5233 H 506.513 -6.4106 -0.755841 0
M  V30 5234 H 507.281 -8.17824 0.332521 0
M  V30 5235 N 509.944 0.496216 -1.49584 0
M  V30 5236 C 511.174 1.27209 -1.62793 0
M  V30 5237 C 511.582 1.86799 -0.300476 0
M  V30 5238 O 510.925 1.68802 0.724674 0
M  V30 5239 C 510.987 2.43812 -2.64189 0
M  V30 5240 C 510.651 2.05055 -4.08414 0
M  V30 5241 C 511.648 1.58752 -4.9507 0
M  V30 5242 C 509.333 2.14543 -4.54177 0
M  V30 5243 C 511.327 1.22448 -6.25528 0
M  V30 5244 C 509.014 1.77851 -5.84647 0
M  V30 5245 C 510.012 1.31878 -6.70147 0
M  V30 5246 O 509.7 0.956834 -7.98185 0
M  V30 5247 H 509.432 0.391848 -0.550846 0
M  V30 5248 H 511.986 0.601712 -1.96389 0
M  V30 5249 H 510.216 3.13941 -2.25783 0
M  V30 5250 H 511.905 3.05829 -2.66877 0
M  V30 5251 H 512.671 1.50863 -4.60939 0
M  V30 5252 H 508.55 2.49277 -3.87791 0
M  V30 5253 H 512.094 0.864933 -6.92217 0
M  V30 5254 H 507.991 1.8539 -6.18305 0
M  V30 5255 H 508.759 1.08789 -8.11238 0
M  V30 5256 N 511.423 1.38739 0.74761 0
M  V30 5257 C 512.386 1.36241 1.84312 0
M  V30 5258 C 513.386 0.261811 1.58654 0
M  V30 5259 O 514.576 0.519031 1.66288 0
M  V30 5260 C 511.708 1.12253 3.21888 0
M  V30 5261 H 512.901 2.33712 1.87933 0
M  V30 5262 H 510.454 1.2412 0.949946 0
M  V30 5263 H 511.189 0.154133 3.23934 0
M  V30 5264 H 510.974 1.91943 3.41907 0
M  V30 5265 H 512.464 1.13215 4.0196 0
M  V30 5266 N 512.901 -0.976442 1.23707 0
M  V30 5267 C 514.317 -1.24341 1.00058 0
M  V30 5268 C 514.517 -1.99315 -0.295932 0
M  V30 5269 O 513.573 -2.3123 -1.01435 0
M  V30 5270 C 514.886 -2.03909 2.21001 0
M  V30 5271 C 516.434 -2.17034 2.25534 0
M  V30 5272 C 516.909 -2.99994 3.46075 0
M  V30 5273 N 518.4 -3.07578 3.46338 0
M  V30 5274 C 519.135 -3.72104 4.36264 0
M  V30 5275 N 518.631 -4.3842 5.36432 0
M  V30 5276 N 520.424 -3.69029 4.23998 0
M  V30 5277 H 512.575 -0.47428 2.07037 0
M  V30 5278 H 514.838 -0.272167 0.908091 0
M  V30 5279 H 514.544 -1.56198 3.15111 0
M  V30 5280 H 514.418 -3.04654 2.22409 0
M  V30 5281 H 516.805 -2.63951 1.31961 0
M  V30 5282 H 516.886 -1.15664 2.28156 0
M  V30 5283 H 516.53 -2.53772 4.39957 0
M  V30 5284 H 516.46 -4.01541 3.40694 0
M  V30 5285 H 518.951 -2.60397 2.73865 0
M  V30 5286 H 519.264 -4.85447 6.013 0
M  V30 5287 H 517.609 -4.37116 5.40328 0
M  V30 5288 H 520.8 -3.16392 3.44984 0
M  V30 5289 H 520.973 -4.19034 4.94282 0
M  V30 5290 N 514.379 -1.04941 -1.1758 0
M  V30 5291 C 515.795 -0.770282 -1.39781 0
M  V30 5292 C 515.995 0.636417 -1.91186 0
M  V30 5293 O 515.051 1.39923 -2.10185 0
M  V30 5294 C 516.364 -1.82376 -2.3908 0
M  V30 5295 C 517.912 -1.84569 -2.52791 0
M  V30 5296 C 518.387 -2.88933 -3.55361 0
M  V30 5297 N 519.878 -2.8788 -3.62877 0
M  V30 5298 C 520.613 -3.65282 -4.41992 0
M  V30 5299 N 520.109 -4.52461 -5.24643 0
M  V30 5300 N 521.902 -3.53732 -4.36841 0
M  V30 5301 H 514.053 -1.95705 -0.825438 0
M  V30 5302 H 516.316 -0.847284 -0.425222 0
M  V30 5303 H 516.022 -2.83323 -2.08376 0
M  V30 5304 H 515.896 -1.66327 -3.38549 0
M  V30 5305 H 518.283 -0.842879 -2.82807 0
M  V30 5306 H 518.364 -2.04696 -1.53406 0
M  V30 5307 H 518.008 -3.89398 -3.26085 0
M  V30 5308 H 517.938 -2.66059 -4.54445 0
M  V30 5309 H 520.429 -2.24666 -3.03864 0
M  V30 5310 H 520.742 -5.08211 -5.82187 0
M  V30 5311 H 519.087 -4.56524 -5.24033 0
M  V30 5312 H 522.278 -2.85021 -3.71323 0
M  V30 5313 H 522.451 -4.14302 -4.98255 0
M  V30 5314 N 515.857 1.33968 -0.830081 0
M  V30 5315 C 516.804 2.29387 -0.255008 0
M  V30 5316 C 517.774 1.53923 0.624243 0
M  V30 5317 O 518.959 1.82262 0.564372 0
M  V30 5318 C 516.099 3.4034 0.571209 0
M  V30 5319 C 515.212 4.30729 -0.331083 0
M  V30 5320 C 514.347 5.2879 0.505389 0
M  V30 5321 C 513.386 6.10819 -0.395843 0
M  V30 5322 N 512.523 7.00948 0.401979 0
M  V30 5323 H 517.363 2.77972 -1.07404 0
M  V30 5324 H 514.9 1.36785 -0.541133 0
M  V30 5325 H 516.858 4.03361 1.06562 0
M  V30 5326 H 515.488 2.9297 1.35529 0
M  V30 5327 H 514.54 3.68507 -0.943759 0
M  V30 5328 H 515.852 4.88181 -1.02377 0
M  V30 5329 H 515.006 5.97297 1.06399 0
M  V30 5330 H 513.745 4.71894 1.23155 0
M  V30 5331 H 512.75 5.41238 -0.966529 0
M  V30 5332 H 513.975 6.69797 -1.12023 0
M  V30 5333 H 511.921 6.46512 1.11168 0
M  V30 5334 H 511.838 7.55643 -0.232167 0
M  V30 5335 H 513.106 7.73774 0.943102 0
M  V30 5336 N 517.335 0.585699 1.46312 0
M  V30 5337 C 518.56 0.0762461 2.0726 0
M  V30 5338 C 518.985 -1.22071 1.43109 0
M  V30 5339 O 518.343 -1.73804 0.515942 0
M  V30 5340 C 518.391 -0.0729404 3.60526 0
M  V30 5341 O 517.495 -1.1287 3.96654 0
M  V30 5342 H 516.836 0.0641558 0.660893 0
M  V30 5343 H 519.366 0.809492 1.87905 0
M  V30 5344 H 519.376 -0.278158 4.07051 0
M  V30 5345 H 518.051 0.874188 4.06609 0
M  V30 5346 H 516.628 -0.901703 3.61834 0
M  V30 5347 N 518.813 -1.54241 0.323641 0
M  V30 5348 C 520.061 -2.00174 -0.278359 0
M  V30 5349 C 520.382 -1.2134 -1.52648 0
M  V30 5350 O 519.652 -0.315244 -1.93347 0
M  V30 5351 H 518.232 -0.739463 -0.105845 0
M  V30 5352 H 520.894 -1.89864 0.440204 0
M  V30 5353 H 519.99 -3.07486 -0.5347 0
M  V30 5354 N 520.291 -0.0518155 -1.57515 0
M  V30 5355 C 521.568 0.661727 -1.84067 0
M  V30 5356 C 521.948 1.88999 -0.940351 0
M  V30 5357 O 521.296 2.285 -0.00155404 0
M  V30 5358 C 521.506 1.01841 -3.3381 0
M  V30 5359 C 522.854 1.40043 -4.00841 0
M  V30 5360 O 523.878 1.11073 -3.38439 0
M  V30 5361 O 522.737 1.94111 -5.10865 0
M  V30 5362 H 519.831 0.326702 -0.759733 0
M  V30 5363 H 522.377 -0.0812277 -1.69505 0
M  V30 5364 H 521.149 0.145202 -3.91031 0
M  V30 5365 H 520.772 1.81879 -3.53562 0
M  V30 5366 N 521.769 1.56035 0.221574 0
M  V30 5367 C 522.994 1.83476 0.967026 0
M  V30 5368 C 523.419 0.632139 1.7716 0
M  V30 5369 O 522.777 -0.419082 1.7639 0
M  V30 5370 C 522.825 3.08907 1.86034 0
M  V30 5371 O 521.929 2.876 2.95567 0
M  V30 5372 H 521.27 0.604913 0.273817 0
M  V30 5373 H 523.8 2.03247 0.234893 0
M  V30 5374 H 523.81 3.3901 2.27016 0
M  V30 5375 H 522.485 3.96068 1.26898 0
M  V30 5376 H 521.062 2.6873 2.58532 0
M  V30 5377 N 523.247 -0.488276 1.49845 0
M  V30 5378 C 524.496 -1.23826 1.59217 0
M  V30 5379 C 524.809 -1.93439 0.289966 0
M  V30 5380 O 526.015 -2.70229 0.262382 0
M  V30 5381 C 524.471 -2.24902 2.80976 0
M  V30 5382 C 524.079 -1.6117 4.18005 0
M  V30 5383 C 525.823 -3.00648 2.99685 0
M  V30 5384 C 523.73 -2.60431 5.3097 0
M  V30 5385 H 522.66 -0.465858 0.592868 0
M  V30 5386 H 525.311 -0.510645 1.76252 0
M  V30 5387 H 523.693 -3.0088 2.57463 0
M  V30 5388 H 524.867 -0.910968 4.51706 0
M  V30 5389 H 523.182 -0.97767 4.0476 0
M  V30 5390 H 525.779 -3.74903 3.81251 0
M  V30 5391 H 526.122 -3.5902 2.10738 0
M  V30 5392 H 526.655 -2.31784 3.23297 0
M  V30 5393 H 523.394 -2.06823 6.22017 0
M  V30 5394 H 522.914 -3.28707 5.01709 0
M  V30 5395 H 524.593 -3.22606 5.60834 0
M  V30 5396 N 524.725 -1.39134 -0.740242 0
M  V30 5397 C 525.657 -1.33332 -1.86428 0
M  V30 5398 C 526.67 -0.243042 -1.60976 0
M  V30 5399 O 527.859 -0.501608 -1.71307 0
M  V30 5400 C 524.959 -1.04626 -3.22346 0
M  V30 5401 C 524.132 -2.24826 -3.75196 0
M  V30 5402 C 523.191 -1.92659 -4.89662 0
M  V30 5403 O 522.217 -2.6529 -5.03597 0
M  V30 5404 N 523.419 -0.889575 -5.73643 0
M  V30 5405 H 526.184 -2.30196 -1.91911 0
M  V30 5406 H 523.745 -1.33168 -0.920756 0
M  V30 5407 H 525.737 -0.811347 -3.96484 0
M  V30 5408 H 524.307 -0.165129 -3.12164 0
M  V30 5409 H 523.527 -2.64301 -2.9247 0
M  V30 5410 H 524.815 -3.05015 -4.07239 0
M  V30 5411 H 524.213 -0.287529 -5.64969 0
M  V30 5412 H 522.77 -0.714557 -6.47871 0
M  V30 5413 N 526.204 0.969867 -1.24223 0
M  V30 5414 C 527.136 2.0669 -0.99055 0
M  V30 5415 C 528.149 1.62753 0.0392222 0
M  V30 5416 O 529.338 1.77403 -0.197561 0
M  V30 5417 C 526.438 3.35589 -0.472594 0
M  V30 5418 C 525.611 4.08444 -1.56499 0
M  V30 5419 C 524.67 5.15616 -1.05007 0
M  V30 5420 O 523.696 5.41911 -1.7413 0
M  V30 5421 N 524.898 5.80383 0.116641 0
M  V30 5422 H 527.663 2.28855 -1.93508 0
M  V30 5423 H 525.224 1.13733 -1.15223 0
M  V30 5424 H 527.216 4.04542 -0.112919 0
M  V30 5425 H 525.786 3.10311 0.377617 0
M  V30 5426 H 525.006 3.33798 -2.09696 0
M  V30 5427 H 526.294 4.53882 -2.29932 0
M  V30 5428 H 525.692 5.6142 0.694589 0
M  V30 5429 H 524.249 6.50462 0.417483 0
M  V30 5430 N 527.682 1.05563 1.17022 0
M  V30 5431 C 528.632 0.630007 2.19123 0
M  V30 5432 C 529.616 -0.335472 1.57364 0
M  V30 5433 O 530.808 -0.1521 1.76345 0
M  V30 5434 C 527.937 0.0101676 3.43298 0
M  V30 5435 C 527.023 0.999698 4.12149 0
M  V30 5436 N 527.414 2.17251 4.56766 0
M  V30 5437 C 525.712 0.829 4.38228 0
M  V30 5438 C 526.413 2.79883 5.09942 0
M  V30 5439 N 525.389 2.07656 5.02374 0
M  V30 5440 H 529.191 1.52353 2.51328 0
M  V30 5441 H 526.705 0.926288 1.33393 0
M  V30 5442 H 528.702 -0.312541 4.15727 0
M  V30 5443 H 527.362 -0.878707 3.12584 0
M  V30 5444 H 528.373 2.55067 4.50734 0
M  V30 5445 H 525.05 -0.00850974 4.17499 0
M  V30 5446 H 526.44 3.79362 5.54558 0
M  V30 5447 N 529.16 -1.33526 0.837174 0
M  V30 5448 C 530.406 -1.9813 0.432704 0
M  V30 5449 C 530.739 -1.66168 -1.00508 0
M  V30 5450 O 530.014 -0.94069 -1.70239 0
M  V30 5451 C 530.297 -3.54151 0.651834 0
M  V30 5452 C 530.15 -3.95806 2.13676 0
M  V30 5453 C 531.469 -4.39993 0.0968937 0
M  V30 5454 H 528.588 -0.719713 0.15869 0
M  V30 5455 H 531.23 -1.58193 1.05237 0
M  V30 5456 H 529.38 -3.88301 0.124369 0
M  V30 5457 H 531.052 -3.71921 2.72896 0
M  V30 5458 H 529.295 -3.45599 2.62191 0
M  V30 5459 H 529.966 -5.0447 2.24084 0
M  V30 5460 H 532.442 -4.12479 0.547733 0
M  V30 5461 H 531.318 -5.48186 0.279917 0
M  V30 5462 H 531.579 -4.3066 -0.9992 0
M  V30 5463 N 530.638 -0.59345 -1.46 0
M  V30 5464 C 531.585 0.133618 -2.30413 0
M  V30 5465 C 532.555 0.873736 -1.41262 0
M  V30 5466 O 533.74 0.862279 -1.70204 0
M  V30 5467 C 530.88 1.13434 -3.25924 0
M  V30 5468 C 529.993 0.39656 -4.30176 0
M  V30 5469 C 529.128 1.38575 -5.12806 0
M  V30 5470 C 528.167 0.634984 -6.08797 0
M  V30 5471 N 527.304 1.57276 -6.84258 0
M  V30 5472 H 532.144 -0.592252 -2.92055 0
M  V30 5473 H 529.681 -0.303874 -1.43927 0
M  V30 5474 H 531.639 1.72752 -3.79753 0
M  V30 5475 H 530.269 1.82779 -2.66067 0
M  V30 5476 H 529.321 -0.311861 -3.79119 0
M  V30 5477 H 530.633 -0.189869 -4.98438 0
M  V30 5478 H 529.787 2.05141 -5.70966 0
M  V30 5479 H 528.526 2.00611 -4.44529 0
M  V30 5480 H 527.531 -0.0443925 -5.49782 0
M  V30 5481 H 528.756 0.0198678 -6.79097 0
M  V30 5482 H 526.702 2.18103 -6.18682 0
M  V30 5483 H 526.619 1.03941 -7.48821 0
M  V30 5484 H 527.887 2.22844 -7.46968 0
M  V30 5485 N 532.116 1.54067 -0.331816 0
M  V30 5486 C 533.365 1.99895 0.269209 0
M  V30 5487 C 533.678 1.22371 1.52593 0
M  V30 5488 O 534.884 1.58618 2.20347 0
M  V30 5489 C 533.34 3.55972 0.530244 0
M  V30 5490 C 532.948 4.4234 -0.709901 0
M  V30 5491 C 534.692 4.10247 1.09077 0
M  V30 5492 C 532.599 5.89905 -0.420312 0
M  V30 5493 H 531.529 0.746741 0.104371 0
M  V30 5494 H 534.18 1.78014 -0.445324 0
M  V30 5495 H 532.562 3.73873 1.30518 0
M  V30 5496 H 533.736 4.36215 -1.48504 0
M  V30 5497 H 532.051 3.98997 -1.19123 0
M  V30 5498 H 534.648 5.18095 1.32219 0
M  V30 5499 H 534.991 3.62739 2.0427 0
M  V30 5500 H 535.524 3.96011 0.376824 0
M  V30 5501 H 532.263 6.41623 -1.34164 0
M  V30 5502 H 531.783 5.98962 0.316962 0
M  V30 5503 H 533.462 6.46991 -0.0331956 0
M  V30 5504 N 533.594 0.0601682 1.57485 0
M  V30 5505 C 534.822 -0.620937 1.97363 0
M  V30 5506 C 535.237 -1.63846 0.938082 0
M  V30 5507 O 534.594 -1.82339 -0.0766578 0
M  V30 5508 C 534.645 -1.29987 3.37321 0
M  V30 5509 O 534.366 -0.323081 4.36907 0
M  V30 5510 C 535.867 -2.06989 3.92008 0
M  V30 5511 H 533.087 -0.169135 0.649334 0
M  V30 5512 H 535.631 0.129132 2.04092 0
M  V30 5513 H 533.786 -2.0011 3.31715 0
M  V30 5514 H 534.2 -0.808754 5.18227 0
M  V30 5515 H 535.674 -2.49901 4.92192 0
M  V30 5516 H 536.151 -2.92173 3.2792 0
M  V30 5517 H 536.757 -1.41757 4.0098 0
M  V30 5518 N 535.072 -1.5615 -0.213296 0
M  V30 5519 C 536.483 -1.69645 -0.779582 0
M  V30 5520 C 536.834 -0.663615 -1.84636 0
M  V30 5521 O 535.959 0.183633 -2.15619 0
M  V30 5522 C 536.554 -3.07567 -1.42084 0
M  V30 5523 C 535.113 -3.22889 -1.93442 0
M  V30 5524 C 534.26 -2.65581 -0.797612 0
M  V30 5525 H 537.211 -1.58696 0.0114951 0
M  V30 5526 H 537.232 -3.03884 -2.28986 0
M  V30 5527 H 536.744 -3.82716 -0.644187 0
M  V30 5528 H 534.845 -2.52623 -2.73884 0
M  V30 5529 H 534.958 -4.30197 -2.10872 0
M  V30 5530 H 533.322 -2.24278 -1.20712 0
M  V30 5531 H 534.105 -3.43284 -0.033494 0
M  V30 5532 N 536.55 0.480323 -1.50102 0
M  V30 5533 C 537.796 1.23489 -1.60867 0
M  V30 5534 C 538.129 1.91809 -0.303827 0
M  V30 5535 O 537.404 1.81694 0.694092 0
M  V30 5536 C 537.687 2.28578 -2.78252 0
M  V30 5537 C 537.54 1.64624 -4.18592 0
M  V30 5538 C 538.859 3.2997 -2.91218 0
M  V30 5539 H 535.978 0.447605 -0.585507 0
M  V30 5540 H 538.62 0.530005 -1.82458 0
M  V30 5541 H 536.77 2.88697 -2.59974 0
M  V30 5542 H 538.442 1.08173 -4.48438 0
M  V30 5543 H 536.685 0.949645 -4.23278 0
M  V30 5544 H 537.356 2.40946 -4.96638 0
M  V30 5545 H 539.832 2.79864 -3.07921 0
M  V30 5546 H 538.708 4.00839 -3.74993 0
M  V30 5547 H 538.969 3.93541 -2.0144 0
M  V30 5548 N 538.028 1.39524 0.732853 0
M  V30 5549 C 539.277 1.36175 1.48792 0
M  V30 5550 C 539.59 -0.0388195 1.95561 0
M  V30 5551 O 540.796 -0.194899 2.708 0
M  V30 5552 C 539.252 2.39242 2.68871 0
M  V30 5553 C 538.86 3.85024 2.29042 0
M  V30 5554 C 540.604 2.44972 3.46683 0
M  V30 5555 C 538.511 4.79727 3.45856 0
M  V30 5556 H 537.441 0.506267 0.558757 0
M  V30 5557 H 540.092 1.65181 0.799226 0
M  V30 5558 H 538.474 2.0331 3.39825 0
M  V30 5559 H 539.648 4.30008 1.6562 0
M  V30 5560 H 537.963 3.82609 1.64316 0
M  V30 5561 H 540.56 3.12918 4.33574 0
M  V30 5562 H 540.903 1.4749 3.89297 0
M  V30 5563 H 541.436 2.79808 2.82759 0
M  V30 5564 H 538.175 5.78479 3.08289 0
M  V30 5565 H 537.695 4.39421 4.08251 0
M  V30 5566 H 539.374 4.98731 4.12161 0
M  V30 5567 N 539.506 -0.963266 1.24736 0
M  V30 5568 C 540.754 -1.70343 1.08755 0
M  V30 5569 C 541.075 -1.91387 -0.373619 0
M  V30 5570 O 540.345 -1.4948 -1.2662 0
M  V30 5571 H 538.925 -0.631224 0.399456 0
M  V30 5572 H 541.587 -1.15859 1.56725 0
M  V30 5573 H 540.683 -2.68616 1.58909 0
M  V30 5574 N 540.985 -1.06182 -1.16461 0
M  V30 5575 C 541.917 -0.629584 -2.20383 0
M  V30 5576 C 542.93 0.311834 -1.59786 0
M  V30 5577 O 544.119 0.103 -1.78203 0
M  V30 5578 C 541.219 0.0973695 -3.3876 0
M  V30 5579 C 540.392 -0.857252 -4.28917 0
M  V30 5580 C 539.451 -0.169749 -5.25926 0
M  V30 5581 O 538.477 -0.807044 -5.6345 0
M  V30 5582 N 539.679 1.08911 -5.70192 0
M  V30 5583 H 542.444 -1.52352 -2.58087 0
M  V30 5584 H 540.005 -0.944993 -1.31459 0
M  V30 5585 H 541.997 0.567676 -4.00699 0
M  V30 5586 H 540.567 0.893093 -2.99571 0
M  V30 5587 H 539.787 -1.50696 -3.64259 0
M  V30 5588 H 541.075 -1.50489 -4.86035 0
M  V30 5589 H 540.473 1.62703 -5.41797 0
M  V30 5590 H 539.03 1.50331 -6.34227 0
M  V30 5591 N 542.463 1.3308 -0.844243 0
M  V30 5592 C 543.711 1.97215 -0.441676 0
M  V30 5593 C 544.032 1.67185 1.0037 0
M  V30 5594 O 543.302 0.973588 1.69994 0
M  V30 5595 H 541.882 0.72959 -0.160335 0
M  V30 5596 H 544.544 1.62348 -1.07838 0
M  V30 5597 H 543.64 3.06698 -0.57815 0
M  V30 5598 N 543.941 0.601185 1.45683 0
M  V30 5599 C 545.189 0.0936957 2.01883 0
M  V30 5600 C 545.51 -1.2779 1.47291 0
M  V30 5601 O 544.78 -1.84279 0.664691 0
M  V30 5602 H 543.36 0.0316466 0.746329 0
M  V30 5603 H 546.022 0.781137 1.78562 0
M  V30 5604 H 545.118 0.0386297 3.12076 0
M  V30 5605 N 545.419 -1.53889 0.339982 0
M  V30 5606 C 546.366 -2.24902 -0.518452 0
M  V30 5607 C 547.336 -1.24593 -1.09844 0
M  V30 5608 O 548.521 -1.53317 -1.13572 0
M  V30 5609 C 545.661 -3.02262 -1.66529 0
M  V30 5610 C 544.774 -4.17418 -1.11295 0
M  V30 5611 C 543.909 -4.82273 -2.2268 0
M  V30 5612 C 542.948 -5.89503 -1.6478 0
M  V30 5613 N 542.085 -6.48153 -2.69893 0
M  V30 5614 H 546.925 -2.97853 0.0936579 0
M  V30 5615 H 544.462 -1.46986 0.0579924 0
M  V30 5616 H 546.42 -3.45371 -2.3404 0
M  V30 5617 H 545.05 -2.31614 -2.24844 0
M  V30 5618 H 544.102 -3.78976 -0.328886 0
M  V30 5619 H 545.414 -4.94554 -0.649414 0
M  V30 5620 H 544.568 -5.28435 -2.98063 0
M  V30 5621 H 543.307 -4.04552 -2.72376 0
M  V30 5622 H 542.312 -5.42728 -0.879004 0
M  V30 5623 H 543.537 -6.6913 -1.1594 0
M  V30 5624 H 541.483 -5.73298 -3.1885 0
M  V30 5625 H 541.4 -7.20752 -2.28151 0
M  V30 5626 H 542.668 -6.98968 -3.45056 0
M  V30 5627 N 546.897 -0.0685191 -1.57451 0
M  V30 5628 C 548.146 0.600898 -1.92541 0
M  V30 5629 C 548.459 1.70967 -0.950239 0
M  V30 5630 O 549.665 2.43844 -1.19384 0
M  V30 5631 C 548.121 1.12019 -3.42023 0
M  V30 5632 C 547.729 0.0426028 -4.4798 0
M  V30 5633 C 549.473 1.76386 -3.86119 0
M  V30 5634 C 547.38 0.575759 -5.88591 0
M  V30 5635 H 546.31 0.228225 -0.71863 0
M  V30 5636 H 548.961 -0.140223 -1.82963 0
M  V30 5637 H 547.343 1.91418 -3.46663 0
M  V30 5638 H 548.517 -0.73182 -4.54952 0
M  V30 5639 H 546.832 -0.504642 -4.13331 0
M  V30 5640 H 549.429 2.17302 -4.88553 0
M  V30 5641 H 549.772 2.62255 -3.23308 0
M  V30 5642 H 550.305 1.03615 -3.84069 0
M  V30 5643 H 547.044 -0.245691 -6.55039 0
M  V30 5644 H 546.564 1.31778 -5.85145 0
M  V30 5645 H 548.243 1.0532 -6.3837 0
M  V30 5646 N 548.375 1.56261 0.205012 0
M  V30 5647 C 549.791 1.49623 0.555433 0
M  V30 5648 C 549.991 0.766719 1.86343 0
M  V30 5649 O 549.047 0.313158 2.50551 0
M  V30 5650 C 550.36 2.94253 0.619347 0
M  V30 5651 C 551.908 3.04868 0.708855 0
M  V30 5652 C 552.383 4.50888 0.803969 0
M  V30 5653 N 553.874 4.54999 0.867758 0
M  V30 5654 C 554.609 5.65284 0.96135 0
M  V30 5655 N 554.105 6.85282 1.01786 0
M  V30 5656 N 555.898 5.53174 0.997771 0
M  V30 5657 H 548.049 2.0211 -0.653094 0
M  V30 5658 H 550.312 0.919333 -0.231366 0
M  V30 5659 H 550.018 3.50643 -0.272458 0
M  V30 5660 H 549.892 3.47063 1.47741 0
M  V30 5661 H 552.279 2.48532 1.5911 0
M  V30 5662 H 552.36 2.55199 -0.175205 0
M  V30 5663 H 552.004 5.07846 -0.0738798 0
M  V30 5664 H 551.934 4.98279 1.70369 0
M  V30 5665 H 554.425 3.68588 0.833735 0
M  V30 5666 H 554.738 7.65081 1.08951 0
M  V30 5667 H 553.083 6.8796 0.986706 0
M  V30 5668 H 556.274 4.5835 0.950392 0
M  V30 5669 H 556.447 6.39151 1.06725 0
M  V30 5670 N 549.853 -0.472356 1.50355 0
M  V30 5671 C 550.803 -1.56809 1.65514 0
M  V30 5672 C 551.787 -1.5261 0.509801 0
M  V30 5673 O 552.979 -1.59655 0.764145 0
M  V30 5674 C 550.108 -2.9526 1.75146 0
M  V30 5675 C 549.194 -3.04348 2.95353 0
M  V30 5676 N 549.585 -2.83253 4.19048 0
M  V30 5677 C 547.883 -3.35482 2.93884 0
M  V30 5678 C 548.584 -2.97273 5.00003 0
M  V30 5679 N 547.56 -3.27418 4.33934 0
M  V30 5680 H 551.362 -1.39197 2.58846 0
M  V30 5681 H 548.876 -0.67906 1.47521 0
M  V30 5682 H 550.873 -3.74044 1.8411 0
M  V30 5683 H 549.533 -3.1392 0.829717 0
M  V30 5684 H 550.544 -2.5886 4.48567 0
M  V30 5685 H 547.221 -3.60138 2.11204 0
M  V30 5686 H 548.611 -2.85214 6.08361 0
M  V30 5687 N 551.331 -1.39911 -0.725443 0
M  V30 5688 C 552.578 -1.37654 -1.48518 0
M  V30 5689 C 552.906 0.0243982 -1.94485 0
M  V30 5690 O 552.161 1.00708 -1.67799 0
M  V30 5691 C 552.46 -2.30368 -2.7325 0
M  V30 5692 C 552.126 -3.77817 -2.461 0
M  V30 5693 C 550.788 -4.17991 -2.38405 0
M  V30 5694 C 553.14 -4.71036 -2.23103 0
M  V30 5695 C 550.468 -5.49433 -2.05768 0
M  V30 5696 C 552.82 -6.02766 -1.9198 0
M  V30 5697 C 551.484 -6.41993 -1.82761 0
M  V30 5698 H 550.754 -0.503713 -0.543465 0
M  V30 5699 H 553.401 -1.7249 -0.831822 0
M  V30 5700 H 551.706 -1.88683 -3.43375 0
M  V30 5701 H 553.403 -2.2591 -3.31309 0
M  V30 5702 H 549.993 -3.45982 -2.52972 0
M  V30 5703 H 554.177 -4.40823 -2.2801 0
M  V30 5704 H 549.433 -5.78738 -1.9716 0
M  V30 5705 H 553.607 -6.74519 -1.73197 0
M  V30 5706 H 551.234 -7.43761 -1.57237 0
M  V30 5707 N 552.809 0.956637 -1.25245 0
M  V30 5708 C 554.055 1.70352 -1.10036 0
M  V30 5709 C 554.388 1.90869 0.358156 0
M  V30 5710 O 553.663 1.47819 1.26411 0
M  V30 5711 C 553.946 3.08766 -1.85298 0
M  V30 5712 C 553.799 2.95672 -3.38966 0
M  V30 5713 C 555.118 4.08622 -1.63451 0
M  V30 5714 H 552.237 0.618279 -0.401123 0
M  V30 5715 H 554.879 1.11212 -1.54051 0
M  V30 5716 H 553.029 3.59252 -1.47887 0
M  V30 5717 H 554.701 2.52527 -3.86041 0
M  V30 5718 H 552.944 2.31634 -3.6678 0
M  V30 5719 H 553.615 3.93776 -3.86839 0
M  V30 5720 H 556.091 3.67038 -1.96015 0
M  V30 5721 H 554.967 5.03514 -2.18551 0
M  V30 5722 H 555.228 4.3834 -0.575357 0
M  V30 5723 N 554.287 1.06798 1.15896 0
M  V30 5724 C 555.512 0.808739 1.90982 0
M  V30 5725 C 555.937 -0.6316 1.77179 0
M  V30 5726 O 555.295 -1.4407 1.10061 0
M  V30 5727 C 555.343 1.21468 3.39526 0
M  V30 5728 O 554.447 0.356562 4.10856 0
M  V30 5729 H 553.788 0.29512 0.594811 0
M  V30 5730 H 556.318 1.42513 1.46804 0
M  V30 5731 H 556.328 1.18844 3.90308 0
M  V30 5732 H 555.003 2.26379 3.48891 0
M  V30 5733 H 553.58 0.444808 3.70238 0
M  V30 5734 N 555.766 -1.3263 0.851289 0
M  V30 5735 C 556.696 -2.31449 0.308771 0
M  V30 5736 C 557.677 -1.59531 -0.590255 0
M  V30 5737 O 558.862 -1.87351 -0.511205 0
M  V30 5738 C 555.992 -3.43586 -0.506548 0
M  V30 5739 C 554.946 -4.26963 0.297753 0
M  V30 5740 C 554.272 -5.30831 -0.642094 0
M  V30 5741 C 555.572 -4.99643 1.52166 0
M  V30 5742 H 557.266 -2.77074 1.13447 0
M  V30 5743 H 554.812 -1.33207 0.546971 0
M  V30 5744 H 556.765 -4.11754 -0.896474 0
M  V30 5745 H 555.489 -2.96681 -1.36558 0
M  V30 5746 H 554.148 -3.60437 0.669391 0
M  V30 5747 H 553.796 -4.8018 -1.49788 0
M  V30 5748 H 553.496 -5.87501 -0.107968 0
M  V30 5749 H 555.02 -6.01862 -1.02927 0
M  V30 5750 H 556.434 -5.6051 1.20421 0
M  V30 5751 H 554.831 -5.66022 1.99347 0
M  V30 5752 H 555.901 -4.27701 2.28474 0
M  V30 5753 N 557.244 -0.608902 -1.45362 0
M  V30 5754 C 558.191 0.109172 -2.30542 0
M  V30 5755 C 559.161 0.858704 -1.42181 0
M  V30 5756 O 560.346 0.844178 -1.71109 0
M  V30 5757 C 557.486 1.09971 -3.27109 0
M  V30 5758 C 556.599 0.350911 -4.30572 0
M  V30 5759 C 555.734 1.33129 -5.14247 0
M  V30 5760 C 554.773 0.570377 -6.09437 0
M  V30 5761 N 553.91 1.5001 -6.85887 0
M  V30 5762 H 558.75 -0.623195 -2.91411 0
M  V30 5763 H 556.287 -0.319122 -1.43597 0
M  V30 5764 H 558.245 1.68714 -3.81564 0
M  V30 5765 H 556.875 1.79947 -2.67991 0
M  V30 5766 H 555.927 -0.352054 -3.78767 0
M  V30 5767 H 557.239 -0.242725 -4.98209 0
M  V30 5768 H 556.393 1.99074 -5.73109 0
M  V30 5769 H 555.132 1.95885 -4.46632 0
M  V30 5770 H 554.137 -0.102702 -5.49704 0
M  V30 5771 H 555.362 -0.0521607 -6.7908 0
M  V30 5772 H 553.308 2.11529 -6.2096 0
M  V30 5773 H 553.225 0.959934 -7.49881 0
M  V30 5774 H 554.493 2.14909 -7.49289 0
M  V30 5775 N 558.722 1.53707 -0.348139 0
M  V30 5776 C 559.669 2.25173 0.506518 0
M  V30 5777 C 560.639 1.25174 1.09182 0
M  V30 5778 O 561.824 1.53917 1.12757 0
M  V30 5779 C 558.964 3.03141 1.64923 0
M  V30 5780 C 558.077 4.18002 1.0908 0
M  V30 5781 C 557.212 4.83447 2.20119 0
M  V30 5782 C 556.251 5.90369 1.61651 0
M  V30 5783 N 555.388 6.49575 2.66451 0
M  V30 5784 H 560.228 2.97799 -0.109452 0
M  V30 5785 H 557.765 1.46953 -0.0657866 0
M  V30 5786 H 559.723 3.46607 2.32205 0
M  V30 5787 H 558.353 2.32803 2.23612 0
M  V30 5788 H 557.405 3.79145 0.308783 0
M  V30 5789 H 558.717 4.94892 0.623178 0
M  V30 5790 H 557.871 5.30008 2.95257 0
M  V30 5791 H 556.61 4.05991 2.70227 0
M  V30 5792 H 555.615 5.43186 0.850209 0
M  V30 5793 H 556.84 6.69735 1.1239 0
M  V30 5794 H 554.786 5.74981 3.15805 0
M  V30 5795 H 554.703 7.21952 2.24325 0
M  V30 5796 H 555.971 7.00789 3.41344 0
M  V30 5797 N 560.2 0.0768682 1.57412 0
M  V30 5798 C 561.13 -0.886026 2.16037 0
M  V30 5799 C 562.111 -1.30691 1.08876 0
M  V30 5800 O 563.296 -1.37705 1.36934 0
M  V30 5801 C 560.426 -2.1518 2.72608 0
M  V30 5802 C 559.38 -1.87015 3.8498 0
M  V30 5803 C 558.706 -3.20266 4.28175 0
M  V30 5804 C 560.006 -1.17143 5.08994 0
M  V30 5805 H 561.7 -0.397642 2.96748 0
M  V30 5806 H 559.246 -0.189823 1.42743 0
M  V30 5807 H 561.199 -2.82962 3.12266 0
M  V30 5808 H 559.923 -2.66269 1.89125 0
M  V30 5809 H 558.582 -1.21636 3.45833 0
M  V30 5810 H 558.23 -3.69207 3.41607 0
M  V30 5811 H 557.93 -3.0221 5.03927 0
M  V30 5812 H 559.454 -3.89237 4.70454 0
M  V30 5813 H 560.868 -1.75003 5.45937 0
M  V30 5814 H 559.265 -1.09328 5.90057 0
M  V30 5815 H 560.335 -0.151295 4.84664 0
M  V30 5816 N 561.678 -1.56367 -0.196722 0
M  V30 5817 C 562.918 -1.82315 -0.92415 0
M  V30 5818 C 563.282 -0.654117 -1.80514 0
M  V30 5819 O 564.483 -0.79345 -2.56823 0
M  V30 5820 C 562.754 -3.13279 -1.72021 0
M  V30 5821 S 564.313 -3.60627 -2.49988 0
M  V30 5822 H 561.131 -0.639862 -0.309997 0
M  V30 5823 H 563.733 -1.94597 -0.187684 0
M  V30 5824 H 562.437 -3.96379 -1.06358 0
M  V30 5825 H 561.968 -3.03871 -2.49852 0
M  V30 5826 H 563.983 -3.25934 -3.74141 0
M  V30 5827 N 563.156 0.464375 -1.50603 0
M  V30 5828 C 564.396 1.22573 -1.6357 0
M  V30 5829 C 564.76 1.89111 -0.331834 0
M  V30 5830 O 565.961 2.66679 -0.336999 0
M  V30 5831 C 564.232 2.23643 -2.7878 0
M  V30 5832 S 565.791 3.08628 -3.1192 0
M  V30 5833 H 562.609 0.416058 -0.576556 0
M  V30 5834 H 565.211 0.521637 -1.88412 0
M  V30 5835 H 563.915 1.73354 -3.7199 0
M  V30 5836 H 563.446 2.98672 -2.56044 0
M  V30 5837 H 565.461 4.24904 -2.56264 0
M  V30 5838 N 564.634 1.40294 0.718013 0
M  V30 5839 C 565.862 1.4175 1.50714 0
M  V30 5840 C 566.277 0.0165366 1.88793 0
M  V30 5841 O 565.634 -0.958942 1.55276 0
M  V30 5842 C 565.685 2.30598 2.784 0
M  V30 5843 O 565.406 3.6524 2.41932 0
M  V30 5844 C 566.907 2.4062 3.72313 0
M  V30 5845 H 564.127 0.483565 0.465194 0
M  V30 5846 H 566.671 1.84316 0.885889 0
M  V30 5847 H 564.826 1.91401 3.36815 0
M  V30 5848 H 565.24 4.12402 3.24076 0
M  V30 5849 H 566.714 3.07001 4.58753 0
M  V30 5850 H 567.191 1.4305 4.15251 0
M  V30 5851 H 567.797 2.80359 3.19811 0
M  V30 5852 N 566.112 -0.949982 1.2575 0
M  V30 5853 C 567.34 -1.72972 1.13527 0
M  V30 5854 C 567.755 -1.8623 -0.310453 0
M  V30 5855 O 567.112 -1.36336 -1.2132 0
M  V30 5856 C 567.163 -3.14108 1.78936 0
M  V30 5857 O 566.884 -3.01493 3.17858 0
M  V30 5858 C 568.385 -4.08338 1.72554 0
M  V30 5859 H 565.605 -0.541864 0.395758 0
M  V30 5860 H 568.149 -1.19151 1.66202 0
M  V30 5861 H 566.304 -3.64858 1.30221 0
M  V30 5862 H 566.718 -3.90559 3.50092 0
M  V30 5863 H 568.192 -5.04963 2.22973 0
M  V30 5864 H 568.669 -4.33742 0.690251 0
M  V30 5865 H 569.275 -3.63506 2.2078 0
M  V30 5866 N 567.59 -1.07411 -1.15328 0
M  V30 5867 C 568.867 -0.710732 -1.82231 0
M  V30 5868 C 569.247 0.806732 -1.95077 0
M  V30 5869 O 568.595 1.72139 -1.50268 0
M  V30 5870 C 568.805 -1.42586 -3.18544 0
M  V30 5871 C 570.153 -1.57836 -3.94174 0
M  V30 5872 O 571.177 -1.38669 -3.281 0
M  V30 5873 O 570.036 -1.8938 -5.12638 0
M  V30 5874 H 567.13 -0.25297 -0.78736 0
M  V30 5875 H 569.676 -1.17508 -1.22434 0
M  V30 5876 H 568.448 -2.46008 -3.04296 0
M  V30 5877 H 568.071 -0.952332 -3.86026 0
M  V30 5878 N 569.068 1.32177 -0.85831 0
M  V30 5879 C 570.016 2.30729 -0.294442 0
M  V30 5880 C 571.01 1.59009 0.584165 0
M  V30 5881 O 572.216 1.73713 0.471562 0
M  V30 5882 H 568.591 0.748097 -0.0765171 0
M  V30 5883 H 570.562 2.75774 -1.1398 0
M  V30 5884 C 569.311 3.44098 0.499208 0
M  V30 5885 H 568.634 3.99449 -0.167579 0
M  V30 5886 H 570.074 4.15202 0.859273 0
M  V30 5887 C 568.533 2.91684 1.68588 0
M  V30 5888 O 569.063 2.89481 2.78503 0
M  V30 5889 N 567.269 2.48036 1.51415 0
M  V30 5890 H 566.816 2.50027 0.620006 0
M  V30 5891 H 566.774 2.13322 2.30957 0
M  V30 5892 N 570.547 0.616602 1.45037 0
M  V30 5893 C 571.495 -0.109318 2.32343 0
M  V30 5894 C 572.489 -0.850543 1.465 0
M  V30 5895 O 573.695 -0.765088 1.62931 0
M  V30 5896 H 570.07 -0.0541091 0.750051 0
M  V30 5897 H 572.041 0.645326 2.91338 0
M  V30 5898 C 570.79 -1.0872 3.30266 0
M  V30 5899 H 570.113 -0.526267 3.96321 0
M  V30 5900 H 571.553 -1.56489 3.94065 0
M  V30 5901 C 570.012 -2.16525 2.58105 0
M  V30 5902 O 570.542 -3.244 2.36913 0
M  V30 5903 N 568.748 -1.92057 2.18088 0
M  V30 5904 H 568.295 -1.04337 2.35524 0
M  V30 5905 H 568.253 -2.64391 1.70131 0
M  V30 5906 N 572.025 -1.5352 0.356285 0
M  V30 5907 C 572.972 -2.25439 -0.494569 0
M  V30 5908 C 573.942 -1.25752 -1.08516 0
M  V30 5909 O 575.127 -1.54513 -1.1194 0
M  V30 5910 C 572.267 -3.04011 -1.63313 0
M  V30 5911 C 571.38 -4.18574 -1.06862 0
M  V30 5912 C 570.515 -4.84607 -2.17552 0
M  V30 5913 C 569.554 -5.91218 -1.58518 0
M  V30 5914 N 568.691 -6.50979 -2.63003 0
M  V30 5915 H 573.531 -2.97737 0.125244 0
M  V30 5916 H 571.068 -1.46916 0.0735789 0
M  V30 5917 H 573.026 -3.47834 -2.30363 0
M  V30 5918 H 571.656 -2.33986 -2.22374 0
M  V30 5919 H 570.708 -3.79303 -0.288672 0
M  V30 5920 H 572.02 -4.95215 -0.596924 0
M  V30 5921 H 571.174 -5.31566 -2.92442 0
M  V30 5922 H 569.913 -4.07418 -2.6807 0
M  V30 5923 H 568.918 -5.4363 -0.821391 0
M  V30 5924 H 570.143 -6.70322 -1.08836 0
M  V30 5925 H 568.089 -5.76648 -3.12751 0
M  V30 5926 H 568.006 -7.23131 -2.20493 0
M  V30 5927 H 569.274 -7.02589 -3.37623 0
M  V30 5928 N 573.503 -0.0852151 -1.57369 0
M  V30 5929 C 574.435 0.907099 -2.10486 0
M  V30 5930 C 575.448 1.25259 -1.03991 0
M  V30 5931 O 576.637 1.20743 -1.31467 0
M  V30 5932 C 573.737 2.21908 -2.56145 0
M  V30 5933 C 572.91 2.05042 -3.86363 0
M  V30 5934 C 571.969 3.19664 -4.17973 0
M  V30 5935 O 570.995 2.94062 -4.87356 0
M  V30 5936 N 572.197 4.45151 -3.72587 0
M  V30 5937 H 574.962 0.453505 -2.96249 0
M  V30 5938 H 572.523 0.100157 -1.6159 0
M  V30 5939 H 574.515 2.97519 -2.74343 0
M  V30 5940 H 573.085 2.58723 -1.75446 0
M  V30 5941 H 572.305 1.13819 -3.77411 0
M  V30 5942 H 573.593 1.91039 -4.71574 0
M  V30 5943 H 572.991 4.68834 -3.16561 0
M  V30 5944 H 571.548 5.17744 -3.9596 0
M  V30 5945 N 574.981 1.5647 0.188427 0
M  V30 5946 C 576.23 1.80207 0.905995 0
M  V30 5947 C 576.543 0.659579 1.84144 0
M  V30 5948 O 577.749 0.781431 2.60011 0
M  V30 5949 C 576.205 3.19255 1.66145 0
M  V30 5950 C 575.813 4.41324 0.770504 0
M  V30 5951 C 577.557 3.52298 2.36826 0
M  V30 5952 C 575.464 5.71394 1.52521 0
M  V30 5953 H 574.394 0.671953 0.342045 0
M  V30 5954 H 577.045 1.82808 0.159164 0
M  V30 5955 H 575.427 3.10922 2.45242 0
M  V30 5956 H 576.601 4.60797 0.0177261 0
M  V30 5957 H 574.916 4.16035 0.174199 0
M  V30 5958 H 577.513 4.46715 2.93854 0
M  V30 5959 H 577.856 2.76359 3.11338 0
M  V30 5960 H 578.389 3.62108 1.6469 0
M  V30 5961 H 575.128 6.50316 0.82275 0
M  V30 5962 H 574.648 5.55928 2.25175 0
M  V30 5963 H 576.327 6.12747 2.07725 0
M  V30 5964 N 576.459 -0.456382 1.50847 0
M  V30 5965 C 577.409 -1.55045 1.67168 0
M  V30 5966 C 578.393 -1.52061 0.525958 0
M  V30 5967 O 579.585 -1.58836 0.781036 0
M  V30 5968 C 576.714 -2.93386 1.78268 0
M  V30 5969 C 575.8 -3.01198 2.98564 0
M  V30 5970 N 576.191 -2.78792 4.22029 0
M  V30 5971 C 574.489 -3.32346 2.97426 0
M  V30 5972 C 575.19 -2.91953 5.03128 0
M  V30 5973 N 574.166 -3.22797 4.37382 0
M  V30 5974 H 577.968 -1.36444 2.60308 0
M  V30 5975 H 575.482 -0.663375 1.48233 0
M  V30 5976 H 577.479 -3.72071 1.88067 0
M  V30 5977 H 576.139 -3.13022 0.862965 0
M  V30 5978 H 577.15 -2.54087 4.51287 0
M  V30 5979 H 573.827 -3.57877 2.15012 0
M  V30 5980 H 575.217 -2.78745 6.11351 0
M  V30 5981 N 577.937 -1.40673 -0.710563 0
M  V30 5982 C 578.884 -1.41336 -1.82463 0
M  V30 5983 C 579.854 -0.269648 -1.63897 0
M  V30 5984 O 581.039 -0.468463 -1.8496 0
M  V30 5985 C 578.179 -1.28665 -3.20218 0
M  V30 5986 C 577.292 -2.52784 -3.5032 0
M  V30 5987 C 576.427 -2.32517 -4.77608 0
M  V30 5988 C 575.466 -3.52187 -5.0063 0
M  V30 5989 N 574.603 -3.31084 -6.19135 0
M  V30 5990 H 579.443 -2.36558 -1.8123 0
M  V30 5991 H 576.98 -1.17483 -0.885226 0
M  V30 5992 H 578.938 -1.19324 -3.99772 0
M  V30 5993 H 577.568 -0.370602 -3.20666 0
M  V30 5994 H 576.62 -2.72634 -2.65283 0
M  V30 5995 H 577.932 -3.41845 -3.63241 0
M  V30 5996 H 577.086 -2.20558 -5.65189 0
M  V30 5997 H 575.825 -1.40889 -4.66906 0
M  V30 5998 H 574.83 -3.64617 -4.11502 0
M  V30 5999 H 576.055 -4.44749 -5.13201 0
M  V30 6000 H 574.001 -2.42143 -6.09674 0
M  V30 6001 H 573.918 -4.13713 -6.32754 0
M  V30 6002 H 575.186 -3.22868 -7.0949 0
M  V30 6003 N 579.415 0.9433 -1.26252 0
M  V30 6004 C 580.664 1.68369 -1.11062 0
M  V30 6005 C 580.977 1.92514 0.346104 0
M  V30 6006 O 582.183 2.64358 0.618646 0
M  V30 6007 C 580.639 3.03171 -1.93946 0
M  V30 6008 C 580.247 2.86782 -3.4418 0
M  V30 6009 C 581.991 3.80916 -1.87359 0
M  V30 6010 C 579.898 4.17044 -4.19319 0
M  V30 6011 H 578.828 0.631469 -0.412023 0
M  V30 6012 H 581.479 1.04922 -1.50544 0
M  V30 6013 H 579.861 3.67587 -1.47296 0
M  V30 6014 H 581.035 2.31229 -3.98585 0
M  V30 6015 H 579.35 2.22482 -3.51981 0
M  V30 6016 H 581.947 4.77417 -2.40784 0
M  V30 6017 H 582.29 4.07658 -0.843857 0
M  V30 6018 H 582.823 3.2327 -2.31821 0
M  V30 6019 H 579.562 3.95487 -5.22753 0
M  V30 6020 H 579.082 4.72319 -3.69696 0
M  V30 6021 H 580.761 4.85513 -4.27651 0
M  V30 6022 N 580.893 1.08022 1.14757 0
M  V30 6023 C 581.843 0.676345 2.17737 0
M  V30 6024 C 582.827 -0.302018 1.5804 0
M  V30 6025 O 584.019 -0.11466 1.76628 0
M  V30 6026 C 581.148 0.082984 3.432 0
M  V30 6027 C 580.234 1.0869 4.09936 0
M  V30 6028 N 580.625 2.26891 4.52055 0
M  V30 6029 C 578.923 0.921768 4.36371 0
M  V30 6030 C 579.624 2.90636 5.0389 0
M  V30 6031 N 578.6 2.18266 4.97856 0
M  V30 6032 H 582.402 1.5765 2.4804 0
M  V30 6033 H 579.916 0.954374 1.31398 0
M  V30 6034 H 581.913 -0.224289 4.16296 0
M  V30 6035 H 580.573 -0.812206 3.14378 0
M  V30 6036 H 581.584 2.6457 4.45223 0
M  V30 6037 H 578.261 0.0800499 4.17423 0
M  V30 6038 H 579.651 3.9104 5.46386 0
M  V30 6039 N 582.371 -1.3172 0.865308 0
M  V30 6040 C 583.787 -1.4958 0.556596 0
M  V30 6041 C 583.987 -1.79763 -0.910353 0
M  V30 6042 O 583.043 -1.87351 -1.6928 0
M  V30 6043 C 584.356 -2.63277 1.45279 0
M  V30 6044 C 585.904 -2.77161 1.45433 0
M  V30 6045 C 586.379 -3.93949 2.33598 0
M  V30 6046 N 587.87 -4.01228 2.31453 0
M  V30 6047 C 588.605 -4.90855 2.96393 0
M  V30 6048 N 588.101 -5.85416 3.70486 0
M  V30 6049 N 589.894 -4.84063 2.85726 0
M  V30 6050 H 582.045 -1.10396 1.81456 0
M  V30 6051 H 584.308 -0.54507 0.775631 0
M  V30 6052 H 584.014 -2.47734 2.49641 0
M  V30 6053 H 583.888 -3.59309 1.14792 0
M  V30 6054 H 586.275 -2.9212 0.41831 0
M  V30 6055 H 586.356 -1.8181 1.79941 0
M  V30 6056 H 586 -3.79748 3.37274 0
M  V30 6057 H 585.93 -4.88598 1.96417 0
M  V30 6058 H 588.421 -3.3357 1.77593 0
M  V30 6059 H 588.734 -6.50525 4.17178 0
M  V30 6060 H 587.079 -5.85409 3.74594 0
M  V30 6061 H 590.27 -4.09163 2.27384 0
M  V30 6062 H 590.443 -5.53708 3.36617 0
M  V30 6063 N 583.85 -0.624285 -1.44708 0
M  V30 6064 C 585.127 -0.0572781 -1.95516 0
M  V30 6065 C 585.507 1.41516 -1.56641 0
M  V30 6066 O 584.855 2.12614 -0.837111 0
M  V30 6067 C 585.065 -0.272944 -3.47931 0
M  V30 6068 C 586.413 -0.162529 -4.24289 0
M  V30 6069 O 587.437 -0.203946 -3.55616 0
M  V30 6070 O 586.296 -0.0616847 -5.46465 0
M  V30 6071 H 583.389 0.0262219 -0.826584 0
M  V30 6072 H 585.936 -0.695512 -1.54793 0
M  V30 6073 H 584.707 -1.29492 -3.69253 0
M  V30 6074 H 584.331 0.399756 -3.95585 0
M  V30 6075 N 585.328 1.53329 -0.364422 0
M  V30 6076 C 586.553 2.06132 0.229033 0
M  V30 6077 C 586.978 1.23625 1.41769 0
M  V30 6078 O 586.336 0.255038 1.79497 0
M  V30 6079 C 586.384 3.55544 0.60174 0
M  V30 6080 O 585.488 3.75771 1.69912 0
M  V30 6081 H 584.829 0.663148 0.0336213 0
M  V30 6082 H 587.359 1.97758 -0.524689 0
M  V30 6083 H 587.369 3.98549 0.873073 0
M  V30 6084 H 586.044 4.15039 -0.267421 0
M  V30 6085 H 584.621 3.44663 1.42343 0
M  V30 6086 N 586.806 0.0935595 1.57322 0
M  V30 6087 C 588.054 -0.569383 1.93913 0
M  V30 6088 C 588.375 -1.68817 0.976009 0
M  V30 6089 O 587.645 -1.9588 0.0278099 0
M  V30 6090 H 586.225 -0.21332 0.715894 0
M  V30 6091 H 588.887 0.156531 1.9427 0
M  V30 6092 H 587.983 -0.980577 2.96296 0
M  V30 6093 N 588.284 -1.56567 -0.180126 0
M  V30 6094 C 589.561 -1.7235 -0.924931 0
M  V30 6095 C 589.941 -0.652523 -2.00762 0
M  V30 6096 O 589.289 0.334115 -2.26044 0
M  V30 6097 C 589.499 -3.1523 -1.49771 0
M  V30 6098 C 590.847 -3.75921 -1.97405 0
M  V30 6099 O 591.871 -3.18452 -1.59583 0
M  V30 6100 O 590.73 -4.7681 -2.67048 0
M  V30 6101 H 587.824 -0.703502 -0.434758 0
M  V30 6102 H 590.37 -1.6886 -0.168647 0
M  V30 6103 H 589.142 -3.84656 -0.718027 0
M  V30 6104 H 588.765 -3.23009 -2.31842 0
M  V30 6105 N 589.762 0.448376 -1.51087 0
M  V30 6106 C 590.71 1.56407 -1.72161 0
M  V30 6107 C 591.704 1.58878 -0.587721 0
M  V30 6108 O 592.91 1.62755 -0.768822 0
M  V30 6109 H 589.285 0.519423 -0.543786 0
M  V30 6110 H 591.256 1.35803 -2.65707 0
M  V30 6111 C 590.005 2.94163 -1.85373 0
M  V30 6112 H 589.328 2.9299 -2.72024 0
M  V30 6113 H 590.768 3.71625 -2.04135 0
M  V30 6114 C 589.227 3.31317 -0.610803 0
M  V30 6115 O 589.757 4.00985 0.239636 0
M  V30 6116 N 587.963 2.86966 -0.458127 0
M  V30 6117 H 587.51 2.30443 -1.15124 0
M  V30 6118 H 587.468 3.12188 0.372289 0
M  V30 6119 N 591.24 1.41047 0.703093 0
M  V30 6120 C 592.465 1.43537 1.49706 0
M  V30 6121 C 592.89 0.0401853 1.88057 0
M  V30 6122 O 592.248 -0.954785 1.54122 0
M  V30 6123 C 592.296 2.3433 2.74084 0
M  V30 6124 O 591.4 1.79515 3.71279 0
M  V30 6125 H 590.741 0.487454 0.450871 0
M  V30 6126 H 593.271 1.85422 0.86486 0
M  V30 6127 H 593.281 2.49947 3.22476 0
M  V30 6128 H 591.956 3.35708 2.45506 0
M  V30 6129 H 590.533 1.7331 3.30179 0
M  V30 6130 N 592.718 -0.936591 1.26751 0
M  V30 6131 C 593.65 -2.03991 1.045 0
M  V30 6132 C 594.663 -1.628 0.00394261 0
M  V30 6133 O 595.852 -1.76817 0.244526 0
M  V30 6134 C 592.952 -3.34218 0.561403 0
M  V30 6135 C 592.125 -4.04151 1.67274 0
M  V30 6136 C 591.184 -5.12651 1.1864 0
M  V30 6137 O 590.21 -5.37104 1.88437 0
M  V30 6138 N 591.412 -5.80488 0.037278 0
M  V30 6139 H 594.177 -2.23644 1.99508 0
M  V30 6140 H 591.738 -1.10638 1.18198 0
M  V30 6141 H 593.73 -4.04101 0.220136 0
M  V30 6142 H 592.3 -3.11203 -0.295211 0
M  V30 6143 H 591.52 -3.28121 2.18472 0
M  V30 6144 H 592.808 -4.47626 2.41885 0
M  V30 6145 H 592.206 -5.63064 -0.545494 0
M  V30 6146 H 590.763 -6.5134 -0.244877 0
M  V30 6147 N 594.196 -1.08629 -1.14182 0
M  V30 6148 C 595.424 -0.838889 -1.8913 0
M  V30 6149 C 595.839 0.609153 -1.78703 0
M  V30 6150 O 595.196 1.41876 -1.14794 0
M  V30 6151 C 595.247 -1.25477 -3.39025 0
M  V30 6152 O 594.968 -2.64601 -3.49167 0
M  V30 6153 C 596.469 -1.03856 -4.30963 0
M  V30 6154 H 593.689 -0.302377 -0.599007 0
M  V30 6155 H 596.233 -1.44615 -1.44592 0
M  V30 6156 H 594.388 -0.691571 -3.81177 0
M  V30 6157 H 594.802 -2.81922 -4.42289 0
M  V30 6158 H 596.276 -1.37892 -5.345 0
M  V30 6159 H 596.753 0.0242522 -4.39193 0
M  V30 6160 H 597.359 -1.58731 -3.94569 0
M  V30 6161 N 595.674 1.31259 -0.872281 0
M  V30 6162 C 596.584 2.32221 -0.333255 0
M  V30 6163 C 597.6 1.6481 0.558013 0
M  V30 6164 O 598.776 1.96212 0.454175 0
M  V30 6165 C 595.841 3.43708 0.454479 0
M  V30 6166 C 594.902 4.26774 -0.465024 0
M  V30 6167 C 594.135 5.32937 0.28521 0
M  V30 6168 O 594.358 5.49968 1.513 0
M  V30 6169 O 593.292 6.00834 -0.358126 0
M  V30 6170 H 597.118 2.80252 -1.17016 0
M  V30 6171 H 594.703 1.352 -0.635724 0
M  V30 6172 H 596.585 4.11656 0.900963 0
M  V30 6173 H 595.26 2.97836 1.26789 0
M  V30 6174 H 594.167 3.61571 -0.960055 0
M  V30 6175 H 595.5 4.76217 -1.2441 0
M  V30 6176 N 597.152 0.631951 1.44375 0
M  V30 6177 C 598.563 0.219036 1.85411 0
M  V30 6178 C 598.914 -1.22974 1.52879 0
M  V30 6179 O 598.039 -1.93579 0.967266 0
M  V30 6180 C 598.634 0.39075 3.36539 0
M  V30 6181 C 597.193 0.0323351 3.76386 0
M  V30 6182 C 596.34 0.703744 2.68221 0
M  V30 6183 H 599.291 0.837056 1.3483 0
M  V30 6184 H 599.312 -0.370056 3.78696 0
M  V30 6185 H 598.824 1.44527 3.60185 0
M  V30 6186 H 596.925 -1.02042 3.58355 0
M  V30 6187 H 597.038 0.442969 4.77048 0
M  V30 6188 H 595.402 0.138974 2.54321 0
M  V30 6189 H 596.185 1.76088 2.947 0
M  V30 6190 N 598.631 -1.53133 0.372548 0
M  V30 6191 C 599.581 -2.22733 -0.487218 0
M  V30 6192 C 600.565 -1.22506 -1.04312 0
M  V30 6193 O 601.757 -1.47923 -0.972005 0
M  V30 6194 C 598.886 -3.02524 -1.62278 0
M  V30 6195 C 597.972 -4.10133 -1.07943 0
M  V30 6196 N 598.363 -5.05133 -0.259629 0
M  V30 6197 C 596.661 -4.24964 -1.35356 0
M  V30 6198 C 597.362 -5.81687 0.0386656 0
M  V30 6199 N 596.338 -5.40699 -0.560827 0
M  V30 6200 H 600.14 -2.93538 0.145853 0
M  V30 6201 H 597.654 -1.61389 0.180938 0
M  V30 6202 H 599.651 -3.50909 -2.25096 0
M  V30 6203 H 598.311 -2.33252 -2.25884 0
M  V30 6204 H 599.322 -5.178 0.101746 0
M  V30 6205 H 595.999 -3.66919 -1.9919 0
M  V30 6206 H 597.389 -6.68224 0.701841 0
M  V30 6207 N 600.109 -0.101901 -1.5727 0
M  V30 6208 C 601.334 0.571759 -1.99363 0
M  V30 6209 C 601.759 1.60507 -0.980768 0
M  V30 6210 O 601.117 1.81231 0.0498517 0
M  V30 6211 C 601.165 1.18996 -3.404 0
M  V30 6212 O 600.269 2.30572 -3.41922 0
M  V30 6213 H 599.61 0.144449 -0.648098 0
M  V30 6214 H 602.14 -0.185325 -2.03759 0
M  V30 6215 H 602.15 1.52962 -3.78241 0
M  V30 6216 H 600.825 0.432984 -4.1364 0
M  V30 6217 H 599.402 1.98173 -3.15883 0
M  V30 6218 N 601.587 1.56661 0.17182 0
M  V30 6219 C 602.834 1.81965 0.888529 0
M  V30 6220 C 603.162 0.6789 1.82267 0
M  V30 6221 O 602.417 -0.333875 1.92831 0
M  V30 6222 C 602.716 3.13435 1.71736 0
M  V30 6223 C 602.382 4.41159 0.932184 0
M  V30 6224 C 601.044 4.75851 0.715481 0
M  V30 6225 C 603.396 5.19803 0.381387 0
M  V30 6226 C 600.724 5.86666 -0.063126 0
M  V30 6227 C 603.076 6.31433 -0.384129 0
M  V30 6228 C 601.74 6.64692 -0.611637 0
M  V30 6229 H 601.01 0.665859 0.325136 0
M  V30 6230 H 603.657 1.90884 0.153495 0
M  V30 6231 H 601.962 2.99857 2.52177 0
M  V30 6232 H 603.659 3.30224 2.27493 0
M  V30 6233 H 600.249 4.13947 1.11112 0
M  V30 6234 H 604.433 4.93396 0.536148 0
M  V30 6235 H 599.689 6.10892 -0.249136 0
M  V30 6236 H 603.863 6.91577 -0.818185 0
M  V30 6237 H 601.49 7.50398 -1.21684 0
M  V30 6238 N 603.065 -0.440357 1.51323 0
M  V30 6239 C 604.481 -0.7766 1.39431 0
M  V30 6240 C 604.681 -1.95838 0.474296 0
M  V30 6241 O 603.737 -2.52398 -0.0716692 0
M  V30 6242 C 605.05 -1.05981 2.81405 0
M  V30 6243 C 606.598 -1.16442 2.90534 0
M  V30 6244 C 607.073 -1.48058 4.33408 0
M  V30 6245 N 608.564 -1.54988 4.36501 0
M  V30 6246 C 609.299 -1.81017 5.44078 0
M  V30 6247 N 608.795 -2.04858 6.61819 0
M  V30 6248 N 610.588 -1.82774 5.31554 0
M  V30 6249 H 602.739 0.338006 2.09693 0
M  V30 6250 H 605.002 0.0888072 0.943831 0
M  V30 6251 H 604.708 -0.264173 3.50706 0
M  V30 6252 H 604.582 -1.98822 3.20546 0
M  V30 6253 H 606.969 -1.95068 2.21432 0
M  V30 6254 H 607.05 -0.215088 2.54894 0
M  V30 6255 H 606.694 -0.699605 5.03059 0
M  V30 6256 H 606.624 -2.44192 4.66559 0
M  V30 6257 H 609.115 -1.38479 3.51613 0
M  V30 6258 H 609.428 -2.2408 7.396 0
M  V30 6259 H 607.773 -2.02187 6.6494 0
M  V30 6260 H 610.964 -1.63665 4.38556 0
M  V30 6261 H 611.137 -2.02722 6.15474 0
M  V30 6262 N 604.543 -1.41418 -0.695603 0
M  V30 6263 C 605.773 -1.43921 -1.48224 0
M  V30 6264 C 606.181 -0.0428855 -1.89151 0
M  V30 6265 O 605.524 0.948138 -1.5734 0
M  V30 6266 C 605.586 -2.28466 -2.77567 0
M  V30 6267 C 605.25 -3.76629 -2.58844 0
M  V30 6268 C 606.247 -4.6879 -2.24793 0
M  V30 6269 C 603.932 -4.2067 -2.74485 0
M  V30 6270 C 605.926 -6.02981 -2.06622 0
M  V30 6271 C 603.613 -5.54926 -2.55931 0
M  V30 6272 C 604.611 -6.45897 -2.2205 0
M  V30 6273 O 604.299 -7.77675 -2.03657 0
M  V30 6274 H 604.031 -0.492252 -0.463318 0
M  V30 6275 H 606.585 -1.86347 -0.863952 0
M  V30 6276 H 604.815 -1.80853 -3.41802 0
M  V30 6277 H 606.504 -2.2267 -3.39371 0
M  V30 6278 H 607.27 -4.36055 -2.12323 0
M  V30 6279 H 603.149 -3.50167 -2.9984 0
M  V30 6280 H 606.693 -6.73951 -1.80099 0
M  V30 6281 H 602.59 -5.8724 -2.67991 0
M  V30 6282 H 603.358 -7.88819 -2.1842 0
M  V30 6283 N 606.021 0.929856 -1.27246 0
M  V30 6284 C 606.968 2.03017 -1.09785 0
M  V30 6285 C 607.938 1.661 0.000456744 0
M  V30 6286 O 609.123 1.90116 -0.161462 0
M  V30 6287 C 606.263 3.36878 -0.748816 0
M  V30 6288 C 605.376 3.86763 -1.92453 0
M  V30 6289 C 604.511 5.09061 -1.51758 0
M  V30 6290 C 603.55 5.51237 -2.66091 0
M  V30 6291 N 602.687 6.64732 -2.25999 0
M  V30 6292 H 607.527 2.17285 -2.03939 0
M  V30 6293 H 605.064 1.06448 -1.01524 0
M  V30 6294 H 607.022 4.13855 -0.527283 0
M  V30 6295 H 605.652 3.22424 0.155771 0
M  V30 6296 H 604.704 3.06086 -2.25867 0
M  V30 6297 H 606.016 4.13994 -2.78227 0
M  V30 6298 H 605.17 5.93532 -1.25716 0
M  V30 6299 H 603.909 4.83602 -0.630896 0
M  V30 6300 H 602.914 4.65316 -2.92849 0
M  V30 6301 H 604.139 5.78692 -3.55377 0
M  V30 6302 H 602.085 6.40935 -1.3978 0
M  V30 6303 H 602.002 6.91607 -3.05313 0
M  V30 6304 H 603.27 7.52549 -2.03199 0
M  V30 6305 N 607.499 1.09233 1.13605 0
M  V30 6306 C 608.447 0.724572 2.21027 0
M  V30 6307 C 609.441 -0.273595 1.67176 0
M  V30 6308 O 610.647 -0.135266 1.79491 0
M  V30 6309 H 607.022 0.216319 0.720215 0
M  V30 6310 H 608.993 1.63975 2.49309 0
M  V30 6311 C 607.742 0.159126 3.47336 0
M  V30 6312 H 607.065 0.918387 3.89109 0
M  V30 6313 H 608.505 -0.0602851 4.23957 0
M  V30 6314 C 606.964 -1.10514 3.18258 0
M  V30 6315 O 607.494 -2.18869 3.36837 0
M  V30 6316 N 605.7 -1.01886 2.72154 0
M  V30 6317 H 605.247 -0.137027 2.57235 0
M  V30 6318 H 605.205 -1.8655 2.53074 0
M  V30 6319 N 608.977 -1.30795 0.87923 0
M  V30 6320 C 610.393 -1.48981 0.57243 0
M  V30 6321 C 610.593 -1.80719 -0.891236 0
M  V30 6322 O 609.649 -1.89136 -1.67283 0
M  V30 6323 C 610.962 -2.61721 1.48063 0
M  V30 6324 C 612.51 -2.75603 1.48365 0
M  V30 6325 C 612.985 -3.91449 2.37763 0
M  V30 6326 N 614.476 -3.98751 2.35695 0
M  V30 6327 C 615.211 -4.87684 3.01583 0
M  V30 6328 N 614.707 -5.81454 3.76674 0
M  V30 6329 N 616.5 -4.81005 2.90844 0
M  V30 6330 H 608.651 -1.08465 1.82617 0
M  V30 6331 H 610.914 -0.536813 0.781368 0
M  V30 6332 H 610.62 -2.45073 2.52254 0
M  V30 6333 H 610.494 -3.58071 1.18596 0
M  V30 6334 H 612.881 -2.9166 0.44927 0
M  V30 6335 H 612.962 -1.79891 1.81859 0
M  V30 6336 H 612.606 -3.76149 3.41283 0
M  V30 6337 H 612.536 -4.86487 2.01589 0
M  V30 6338 H 615.027 -3.31668 1.81121 0
M  V30 6339 H 615.34 -6.46063 4.24054 0
M  V30 6340 H 613.685 -5.81403 3.80782 0
M  V30 6341 H 616.876 -4.06728 2.31711 0
M  V30 6342 H 617.049 -5.50107 3.42471 0
M  V30 6343 N 610.455 -0.639598 -1.44038 0
M  V30 6344 C 611.871 -0.305953 -1.5664 0
M  V30 6345 C 612.071 1.19055 -1.62567 0
M  V30 6346 O 611.127 1.97492 -1.57331 0
M  V30 6347 C 612.44 -1.00533 -2.83397 0
M  V30 6348 C 613.988 -0.984278 -2.97121 0
M  V30 6349 C 614.463 -1.66428 -4.26691 0
M  V30 6350 N 615.954 -1.63127 -4.33525 0
M  V30 6351 C 616.689 -2.12629 -5.32519 0
M  V30 6352 N 616.185 -2.70359 -6.3787 0
M  V30 6353 N 617.978 -2.03208 -5.24083 0
M  V30 6354 H 610.129 -1.6109 -1.38434 0
M  V30 6355 H 612.392 -0.676672 -0.663942 0
M  V30 6356 H 612.098 -2.06034 -2.85032 0
M  V30 6357 H 611.972 -0.548362 -3.73193 0
M  V30 6358 H 614.359 0.0622792 -2.95034 0
M  V30 6359 H 614.44 -1.47981 -2.08651 0
M  V30 6360 H 614.084 -2.71034 -4.29538 0
M  V30 6361 H 614.014 -1.14351 -5.14034 0
M  V30 6362 H 616.505 -1.20987 -3.58009 0
M  V30 6363 H 616.818 -3.05842 -7.09704 0
M  V30 6364 H 615.163 -2.74414 -6.38531 0
M  V30 6365 H 618.354 -1.57823 -4.40692 0
M  V30 6366 H 618.527 -2.42097 -6.01077 0
M  V30 6367 N 611.933 1.52934 -0.380664 0
M  V30 6368 C 612.88 2.26197 0.458641 0
M  V30 6369 C 613.85 1.27462 1.06502 0
M  V30 6370 O 615.035 1.56274 1.09467 0
M  V30 6371 C 612.175 3.06571 1.58456 0
M  V30 6372 C 611.288 4.20222 1.00189 0
M  V30 6373 C 610.423 4.88007 2.09815 0
M  V30 6374 C 609.462 5.93665 1.49092 0
M  V30 6375 N 608.599 6.55081 2.52613 0
M  V30 6376 H 613.439 2.975 -0.172595 0
M  V30 6377 H 610.976 1.4678 -0.0969426 0
M  V30 6378 H 612.934 3.51455 2.24801 0
M  V30 6379 H 611.564 2.37494 2.18624 0
M  V30 6380 H 610.616 3.79714 0.228292 0
M  V30 6381 H 611.928 4.96102 0.518064 0
M  V30 6382 H 611.082 5.36151 2.83948 0
M  V30 6383 H 609.821 4.11632 2.61555 0
M  V30 6384 H 608.826 5.44868 0.7348 0
M  V30 6385 H 610.051 6.71969 0.981582 0
M  V30 6386 H 607.997 5.8155 3.03538 0
M  V30 6387 H 607.914 7.26548 2.08961 0
M  V30 6388 H 609.182 7.07871 3.26402 0
M  V30 6389 N 613.412 0.11024 1.57214 0
M  V30 6390 C 614.322 -0.857077 2.18383 0
M  V30 6391 C 615.338 -1.29915 1.1575 0
M  V30 6392 O 616.514 -1.36394 1.48184 0
M  V30 6393 C 613.579 -2.09264 2.76423 0
M  V30 6394 C 612.64 -1.70333 3.94063 0
M  V30 6395 C 611.873 -2.87999 4.49324 0
M  V30 6396 O 612.096 -4.0317 4.03497 0
M  V30 6397 O 611.03 -2.6559 5.40135 0
M  V30 6398 H 614.856 -0.366561 3.0148 0
M  V30 6399 H 612.441 -0.114914 1.48957 0
M  V30 6400 H 614.323 -2.81644 3.13456 0
M  V30 6401 H 612.998 -2.57339 1.96363 0
M  V30 6402 H 611.905 -0.950864 3.61814 0
M  V30 6403 H 613.238 -1.27007 4.75531 0
M  V30 6404 N 614.89 -1.56749 -0.16351 0
M  V30 6405 C 616.115 -1.86938 -0.898264 0
M  V30 6406 C 616.54 -0.697456 -1.74692 0
M  V30 6407 O 615.898 0.353327 -1.77824 0
M  V30 6408 C 615.946 -3.15599 -1.74441 0
M  V30 6409 O 615.05 -2.98371 -2.8469 0
M  V30 6410 H 614.391 -0.614659 -0.251178 0
M  V30 6411 H 616.921 -2.03979 -0.159298 0
M  V30 6412 H 616.931 -3.47202 -2.14277 0
M  V30 6413 H 615.606 -4.00505 -1.1211 0
M  V30 6414 H 614.183 -2.7814 -2.4838 0
M  V30 6415 N 616.368 0.432326 -1.51554 0
M  V30 6416 C 617.617 1.17831 -1.63703 0
M  V30 6417 C 617.93 1.92229 -0.36156 0
M  V30 6418 O 619.136 2.69069 -0.362495 0
M  V30 6419 C 617.592 2.14318 -2.89129 0
M  V30 6420 C 617.2 1.45544 -4.23699 0
M  V30 6421 C 618.944 2.89319 -3.10636 0
M  V30 6422 C 616.851 2.40545 -5.4027 0
M  V30 6423 H 615.781 0.443533 -0.60975 0
M  V30 6424 H 618.432 0.444878 -1.78026 0
M  V30 6425 H 616.814 2.91117 -2.68452 0
M  V30 6426 H 617.988 0.742693 -4.54775 0
M  V30 6427 H 616.303 0.826772 -4.0811 0
M  V30 6428 H 618.9 3.60495 -3.94902 0
M  V30 6429 H 619.243 3.50951 -2.23918 0
M  V30 6430 H 619.776 2.19625 -3.31677 0
M  V30 6431 H 616.515 1.83594 -6.29264 0
M  V30 6432 H 616.035 3.09859 -5.13563 0
M  V30 6433 H 617.714 3.01569 -5.72421 0
M  V30 6434 N 617.846 1.41785 0.688094 0
M  V30 6435 C 619.123 1.32031 1.44316 0
M  V30 6436 C 619.503 -0.0486079 2.11044 0
M  V30 6437 O 618.851 -1.06332 2.02252 0
M  V30 6438 C 619.061 2.47906 2.45649 0
M  V30 6439 C 620.409 2.89415 3.10683 0
M  V30 6440 O 621.433 2.477 2.55975 0
M  V30 6441 O 620.292 3.61573 4.09789 0
M  V30 6442 H 617.386 0.519994 0.643067 0
M  V30 6443 H 619.932 1.53765 0.71794 0
M  V30 6444 H 618.704 3.39222 1.95048 0
M  V30 6445 H 618.327 2.28089 3.25671 0
M  V30 6446 N 619.324 -0.923095 1.27737 0
M  V30 6447 C 620.57 -1.67375 1.14514 0
M  V30 6448 C 620.903 -1.91751 -0.307424 0
M  V30 6449 O 620.178 -1.51119 -1.22447 0
M  V30 6450 C 620.461 -3.03745 1.9342 0
M  V30 6451 C 620.314 -2.86581 3.46686 0
M  V30 6452 C 621.633 -4.04144 1.74228 0
M  V30 6453 H 618.752 -0.607427 0.417374 0
M  V30 6454 H 621.394 -1.07089 1.56946 0
M  V30 6455 H 619.544 -3.55204 1.5736 0
M  V30 6456 H 621.216 -2.42203 3.92601 0
M  V30 6457 H 619.459 -2.21829 3.72793 0
M  V30 6458 H 620.13 -3.83381 3.97143 0
M  V30 6459 H 622.606 -3.61712 2.05678 0
M  V30 6460 H 621.482 -4.97543 2.31824 0
M  V30 6461 H 621.743 -4.36661 0.691373 0
M  V30 6462 N 620.802 -1.09834 -1.13024 0
M  V30 6463 C 621.749 -0.741522 -2.18564 0
M  V30 6464 C 622.719 0.279236 -1.63736 0
M  V30 6465 O 623.904 0.159923 -1.90129 0
M  V30 6466 C 621.044 -0.17277 -3.44667 0
M  V30 6467 C 620.157 -1.24808 -4.13578 0
M  V30 6468 C 619.292 -0.641631 -5.27311 0
M  V30 6469 C 618.331 -1.69795 -5.88078 0
M  V30 6470 N 617.468 -1.11223 -6.93234 0
M  V30 6471 H 622.308 -1.64576 -2.48432 0
M  V30 6472 H 619.845 -0.822174 -1.21978 0
M  V30 6473 H 621.803 0.17482 -4.16834 0
M  V30 6474 H 620.433 0.694725 -3.15235 0
M  V30 6475 H 619.485 -1.71288 -3.39653 0
M  V30 6476 H 620.797 -2.04795 -4.54819 0
M  V30 6477 H 619.951 -0.243128 -6.06213 0
M  V30 6478 H 618.69 0.189742 -4.87331 0
M  V30 6479 H 617.695 -2.10595 -5.07868 0
M  V30 6480 H 618.92 -2.53206 -6.3013 0
M  V30 6481 H 616.866 -0.302208 -6.55304 0
M  V30 6482 H 616.783 -1.84901 -7.3304 0
M  V30 6483 H 618.051 -0.740068 -7.75979 0
M  V30 6484 N 622.28 1.30327 -0.886154 0
M  V30 6485 C 623.505 2.0079 -0.519425 0
M  V30 6486 C 623.93 1.65979 0.885013 0
M  V30 6487 O 623.288 0.877043 1.58675 0
M  V30 6488 C 623.336 3.53686 -0.702758 0
M  V30 6489 O 622.44 4.11637 0.250828 0
M  V30 6490 H 621.781 0.63171 -0.204544 0
M  V30 6491 H 624.311 1.66145 -1.19402 0
M  V30 6492 H 624.321 4.03531 -0.602207 0
M  V30 6493 H 622.996 3.78361 -1.72673 0
M  V30 6494 H 621.573 3.72755 0.103873 0
M  V30 6495 N 623.758 0.647228 1.43697 0
M  V30 6496 C 625.007 0.155552 2.01099 0
M  V30 6497 C 625.32 -1.23569 1.51624 0
M  V30 6498 O 626.526 -1.82226 2.01261 0
M  V30 6499 C 624.982 0.227296 3.59182 0
M  V30 6500 C 624.59 1.62086 4.17651 0
M  V30 6501 C 626.334 -0.207085 4.23995 0
M  V30 6502 C 624.241 1.64685 5.68008 0
M  V30 6503 H 623.171 0.0543895 0.752036 0
M  V30 6504 H 625.822 0.808386 1.64734 0
M  V30 6505 H 624.204 -0.492937 3.9292 0
M  V30 6506 H 625.378 2.36597 3.95422 0
M  V30 6507 H 623.693 2.0007 3.65186 0
M  V30 6508 H 626.29 -0.207426 5.34298 0
M  V30 6509 H 626.633 -1.23742 3.97484 0
M  V30 6510 H 627.166 0.461193 3.95118 0
M  V30 6511 H 623.905 2.65608 5.99277 0
M  V30 6512 H 623.425 0.944914 5.9231 0
M  V30 6513 H 625.104 1.38792 6.31938 0
M  V30 6514 N 625.236 -1.5273 0.388769 0
M  V30 6515 C 626.461 -2.0647 -0.19621 0
M  V30 6516 C 626.886 -1.25865 -1.39784 0
M  V30 6517 O 626.244 -0.283562 -1.79069 0
M  V30 6518 C 626.292 -3.56456 -0.5451 0
M  V30 6519 O 625.396 -3.78426 -1.63912 0
M  V30 6520 H 624.737 -0.663599 -0.023067 0
M  V30 6521 H 627.267 -1.96898 0.556084 0
M  V30 6522 H 627.277 -3.99888 -0.809557 0
M  V30 6523 H 625.952 -4.14561 0.333417 0
M  V30 6524 H 624.529 -3.46884 -1.36842 0
M  V30 6525 N 626.714 -0.118576 -1.57153 0
M  V30 6526 C 627.939 0.550582 -1.99958 0
M  V30 6527 C 628.364 1.59458 -0.997736 0
M  V30 6528 O 627.722 1.81274 0.0306269 0
M  V30 6529 C 627.77 1.15379 -3.41643 0
M  V30 6530 O 626.874 2.26932 -3.44348 0
M  V30 6531 H 626.215 0.137567 -0.649593 0
M  V30 6532 H 628.745 -0.206926 -2.03551 0
M  V30 6533 H 628.755 1.48942 -3.79843 0
M  V30 6534 H 627.43 0.389087 -4.14076 0
M  V30 6535 H 626.007 1.94812 -3.17967 0
M  V30 6536 N 628.193 1.56834 0.155195 0
M  V30 6537 C 629.609 1.51315 0.50755 0
M  V30 6538 C 629.809 0.825614 1.83809 0
M  V30 6539 O 628.865 0.39271 2.49427 0
M  V30 6540 C 630.178 2.96074 0.52542 0
M  V30 6541 C 631.726 3.06968 0.611505 0
M  V30 6542 C 632.201 4.53218 0.660115 0
M  V30 6543 N 633.692 4.5753 0.722564 0
M  V30 6544 C 634.427 5.68056 0.781023 0
M  V30 6545 N 633.923 6.88173 0.799327 0
M  V30 6546 N 635.716 5.56068 0.821278 0
M  V30 6547 H 627.867 1.9993 -0.717063 0
M  V30 6548 H 630.13 0.911507 -0.260496 0
M  V30 6549 H 629.836 3.49599 -0.383875 0
M  V30 6550 H 629.71 3.51587 1.36624 0
M  V30 6551 H 632.097 2.53468 1.51122 0
M  V30 6552 H 632.178 2.54513 -0.256306 0
M  V30 6553 H 631.822 5.07354 -0.23541 0
M  V30 6554 H 631.752 5.03447 1.5443 0
M  V30 6555 H 634.243 3.71054 0.716049 0
M  V30 6556 H 634.556 7.6816 0.845553 0
M  V30 6557 H 632.901 6.90751 0.767337 0
M  V30 6558 H 636.092 4.61142 0.804091 0
M  V30 6559 H 636.265 6.42223 0.863372 0
M  V30 6560 N 629.671 -0.424282 1.51781 0
M  V30 6561 C 630.919 -1.17028 1.64769 0
M  V30 6562 C 631.24 -1.91409 0.372523 0
M  V30 6563 O 630.51 -1.86091 -0.612108 0
M  V30 6564 H 629.09 -0.434992 0.607282 0
M  V30 6565 H 631.752 -0.485169 1.88765 0
M  V30 6566 H 630.848 -1.8927 2.4816 0
M  V30 6567 N 631.149 -1.42148 -0.680565 0
M  V30 6568 C 632.374 -1.45901 -1.47403 0
M  V30 6569 C 632.799 -0.0700985 -1.87969 0
M  V30 6570 O 632.157 0.930145 -1.55621 0
M  V30 6571 C 632.205 -2.38661 -2.70321 0
M  V30 6572 O 631.309 -1.85399 -3.68376 0
M  V30 6573 H 630.65 -0.494565 -0.443059 0
M  V30 6574 H 633.18 -1.86774 -0.835251 0
M  V30 6575 H 633.19 -2.55046 -3.18458 0
M  V30 6576 H 631.865 -3.39571 -2.40134 0
M  V30 6577 H 630.442 -1.78541 -3.2738 0
M  V30 6578 N 632.627 0.916307 -1.28225 0
M  V30 6579 C 633.904 1.64429 -1.05936 0
M  V30 6580 C 634.284 2.07234 0.402139 0
M  V30 6581 O 633.632 1.81535 1.3877 0
M  V30 6582 C 633.842 2.83773 -2.03159 0
M  V30 6583 C 635.19 3.54852 -2.33164 0
M  V30 6584 O 636.214 2.93918 -2.01223 0
M  V30 6585 O 635.073 4.64663 -2.87664 0
M  V30 6586 H 632.167 0.721221 -0.404683 0
M  V30 6587 H 634.713 0.965838 -1.39534 0
M  V30 6588 H 633.485 2.49217 -3.01673 0
M  V30 6589 H 633.108 3.59333 -1.70192 0
M  V30 6590 N 634.105 1.10431 1.1244 0
M  V30 6591 C 635.068 0.756542 2.16354 0
M  V30 6592 C 636.068 -0.21899 1.59302 0
M  V30 6593 O 637.258 0.00415969 1.742 0
M  V30 6594 C 634.39 0.120612 3.40687 0
M  V30 6595 H 635.583 1.67696 2.48632 0
M  V30 6596 H 633.136 0.904832 1.27446 0
M  V30 6597 H 633.871 -0.810536 3.14008 0
M  V30 6598 H 633.656 0.822693 3.83372 0
M  V30 6599 H 635.146 -0.106945 4.17463 0
M  V30 6600 N 635.583 -1.29855 0.893053 0
M  V30 6601 C 636.994 -1.77946 0.564998 0
M  V30 6602 C 637.345 -1.73339 -0.919134 0
M  V30 6603 O 636.47 -1.3152 -1.71847 0
M  V30 6604 C 637.065 -3.23118 1.01883 0
M  V30 6605 C 635.624 -3.69013 0.742051 0
M  V30 6606 C 634.771 -2.50121 1.19727 0
M  V30 6607 H 637.722 -1.16611 1.07646 0
M  V30 6608 H 637.743 -3.78875 0.351249 0
M  V30 6609 H 637.255 -3.26439 2.09903 0
M  V30 6610 H 635.356 -3.71173 -0.325816 0
M  V30 6611 H 635.469 -4.60117 1.33527 0
M  V30 6612 H 633.833 -2.47128 0.616418 0
M  V30 6613 H 634.616 -2.56174 2.28538 0
M  V30 6614 N 637.061 -0.65484 -1.43351 0
M  V30 6615 C 638.286 -0.175046 -2.0666 0
M  V30 6616 C 638.711 1.15104 -1.4877 0
M  V30 6617 O 638.069 1.71144 -0.598279 0
M  V30 6618 C 638.117 -0.0991544 -3.60464 0
M  V30 6619 O 637.221 0.938169 -4.01587 0
M  V30 6620 H 636.562 -0.0956148 -0.65708 0
M  V30 6621 H 639.092 -0.898222 -1.83829 0
M  V30 6622 H 639.102 0.083632 -4.07914 0
M  V30 6623 H 637.777 -1.06719 -4.01975 0
M  V30 6624 H 636.354 0.72804 -3.65724 0
M  V30 6625 N 638.539 1.52521 -0.396863 0
M  V30 6626 C 639.469 2.29582 0.425941 0
M  V30 6627 C 640.45 1.33281 1.05689 0
M  V30 6628 O 641.635 1.62181 1.06823 0
M  V30 6629 C 638.765 3.10821 1.54943 0
M  V30 6630 C 637.719 4.15069 1.04413 0
M  V30 6631 C 637.045 4.84578 2.26028 0
M  V30 6632 C 638.345 5.22191 0.106767 0
M  V30 6633 H 640.039 2.98612 -0.217045 0
M  V30 6634 H 637.585 1.43611 -0.105826 0
M  V30 6635 H 639.538 3.63492 2.13193 0
M  V30 6636 H 638.262 2.39538 2.22011 0
M  V30 6637 H 636.921 3.63389 0.484118 0
M  V30 6638 H 636.569 4.09835 2.91623 0
M  V30 6639 H 636.269 5.55043 1.92876 0
M  V30 6640 H 637.793 5.40056 2.84906 0
M  V30 6641 H 639.207 5.70176 0.597685 0
M  V30 6642 H 637.604 5.99947 -0.135352 0
M  V30 6643 H 638.674 4.77531 -0.842134 0
M  V30 6644 N 640.017 0.126909 1.57088 0
M  V30 6645 C 640.949 -0.850973 2.12817 0
M  V30 6646 C 641.962 -1.22457 1.07276 0
M  V30 6647 O 643.151 -1.17215 1.34622 0
M  V30 6648 C 640.251 -2.15039 2.61938 0
M  V30 6649 C 639.424 -1.94726 3.91664 0
M  V30 6650 C 638.483 -3.0847 4.26301 0
M  V30 6651 O 637.509 -2.81038 4.94981 0
M  V30 6652 N 638.711 -4.35116 3.84259 0
M  V30 6653 H 641.476 -0.3748 2.97347 0
M  V30 6654 H 639.037 -0.0572793 1.61799 0
M  V30 6655 H 641.029 -2.90141 2.82135 0
M  V30 6656 H 639.599 -2.5398 1.82244 0
M  V30 6657 H 638.819 -1.03772 3.80296 0
M  V30 6658 H 640.107 -1.78469 4.76473 0
M  V30 6659 H 639.505 -4.60276 3.2888 0
M  V30 6660 H 638.062 -5.07064 4.09548 0
M  V30 6661 N 641.495 -1.56914 -0.146875 0
M  V30 6662 C 642.443 -1.99224 -1.20053 0
M  V30 6663 C 643.437 -0.884661 -1.44465 0
M  V30 6664 O 644.643 -1.06984 -1.44756 0
M  V30 6665 H 641.018 -0.634191 -0.404112 0
M  V30 6666 H 642.989 -2.86998 -0.816987 0
M  V30 6667 C 641.738 -2.38899 -2.52632 0
M  V30 6668 H 641.061 -3.23677 -2.34677 0
M  V30 6669 H 642.501 -2.72326 -3.24984 0
M  V30 6670 C 640.96 -1.2417 -3.13183 0
M  V30 6671 O 641.49 -0.542503 -3.9802 0
M  V30 6672 N 639.696 -1.00592 -2.72635 0
M  V30 6673 H 639.243 -1.57627 -2.03744 0
M  V30 6674 H 639.201 -0.240174 -3.13481 0
M  V30 6675 N 642.974 0.416227 -1.52004 0
M  V30 6676 C 644.39 0.754319 -1.40649 0
M  V30 6677 C 644.59 1.95059 -0.505392 0
M  V30 6678 O 643.646 2.5248 0.0315057 0
M  V30 6679 C 644.959 1.0149 -2.83055 0
M  V30 6680 C 646.507 1.11805 -2.9235 0
M  V30 6681 C 646.982 1.41144 -4.35709 0
M  V30 6682 N 648.473 1.48024 -4.38911 0
M  V30 6683 C 649.208 1.72338 -5.46889 0
M  V30 6684 N 648.704 1.94303 -6.64995 0
M  V30 6685 N 650.497 1.74294 -5.34395 0
M  V30 6686 H 642.648 -0.371324 -2.09129 0
M  V30 6687 H 644.911 -0.103811 -0.942299 0
M  V30 6688 H 644.617 0.208345 -3.51082 0
M  V30 6689 H 644.491 1.93697 -3.23668 0
M  V30 6690 H 646.878 1.91521 -2.24508 0
M  V30 6691 H 646.959 0.17451 -2.55204 0
M  V30 6692 H 646.603 0.619484 -5.04108 0
M  V30 6693 H 646.533 2.36739 -4.70385 0
M  V30 6694 H 649.024 1.32868 -3.53772 0
M  V30 6695 H 649.337 2.12286 -7.43071 0
M  V30 6696 H 647.682 1.91582 -6.68073 0
M  V30 6697 H 650.873 1.56667 -4.41104 0
M  V30 6698 H 651.046 1.92904 -6.18621 0
M  V30 6699 N 644.452 1.42507 0.673017 0
M  V30 6700 C 645.868 1.25472 0.986355 0
M  V30 6701 C 646.068 0.160181 2.00862 0
M  V30 6702 O 645.124 -0.467993 2.48125 0
M  V30 6703 C 646.437 2.61219 1.48947 0
M  V30 6704 C 647.985 2.68589 1.60715 0
M  V30 6705 C 648.46 4.04707 2.14422 0
M  V30 6706 N 649.951 4.0667 2.21752 0
M  V30 6707 C 650.686 5.0881 2.64386 0
M  V30 6708 N 650.182 6.21332 3.0646 0
M  V30 6709 N 651.975 4.96166 2.64151 0
M  V30 6710 H 644.126 2.124 -0.00378532 0
M  V30 6711 H 646.389 0.946046 0.0608367 0
M  V30 6712 H 646.095 3.42179 0.812812 0
M  V30 6713 H 645.969 2.85261 2.46791 0
M  V30 6714 H 648.356 1.87974 2.27486 0
M  V30 6715 H 648.437 2.48333 0.613552 0
M  V30 6716 H 648.081 4.8578 1.48258 0
M  V30 6717 H 648.011 4.22315 3.14575 0
M  V30 6718 H 650.502 3.25438 1.92089 0
M  V30 6719 H 650.815 6.95118 3.37684 0
M  V30 6720 H 649.16 6.24835 3.04313 0
M  V30 6721 H 652.351 4.07334 2.30644 0
M  V30 6722 H 652.524 5.759 2.97057 0
M  V30 6723 N 645.93 -0.909495 1.28709 0
M  V30 6724 C 647.16 -1.69027 1.188 0
M  V30 6725 C 647.568 -1.87469 -0.255329 0
M  V30 6726 O 646.911 -1.40458 -1.18394 0
M  V30 6727 C 646.973 -3.10064 1.81936 0
M  V30 6728 C 646.637 -3.14891 3.31199 0
M  V30 6729 C 647.634 -2.95768 4.27571 0
M  V30 6730 C 645.319 -3.37269 3.7223 0
M  V30 6731 C 647.313 -2.98942 5.6295 0
M  V30 6732 C 645 -3.40074 5.07733 0
M  V30 6733 C 645.998 -3.20932 6.02903 0
M  V30 6734 O 645.686 -3.23507 7.35934 0
M  V30 6735 H 645.418 -0.535014 0.413203 0
M  V30 6736 H 647.972 -1.14645 1.70428 0
M  V30 6737 H 646.202 -3.66005 1.24808 0
M  V30 6738 H 647.891 -3.70185 1.66486 0
M  V30 6739 H 648.657 -2.78302 3.97206 0
M  V30 6740 H 644.536 -3.51212 2.98615 0
M  V30 6741 H 648.08 -2.83919 6.37209 0
M  V30 6742 H 643.977 -3.5707 5.37747 0
M  V30 6743 H 644.745 -3.3984 7.44615 0
M  V30 6744 N 647.408 -1.11026 -1.11852 0
M  V30 6745 C 648.819 -0.873203 -1.65021 0
M  V30 6746 C 649.17 0.595364 -1.86949 0
M  V30 6747 O 648.295 1.45645 -1.60051 0
M  V30 6748 C 648.89 -1.57859 -2.99777 0
M  V30 6749 C 647.449 -1.38807 -3.49871 0
M  V30 6750 C 646.596 -1.62403 -2.24768 0
M  V30 6751 H 649.547 -1.26712 -0.955503 0
M  V30 6752 H 649.568 -1.02111 -3.66543 0
M  V30 6753 H 649.08 -2.6474 -2.83786 0
M  V30 6754 H 647.181 -0.341163 -3.71035 0
M  V30 6755 H 647.294 -2.13421 -4.28938 0
M  V30 6756 H 645.658 -1.04714 -2.32179 0
M  V30 6757 H 646.441 -2.70549 -2.11324 0
M  V30 6758 N 648.886 1.2938 -0.899927 0
M  V30 6759 C 650.111 2.00228 -0.540692 0
M  V30 6760 C 650.536 1.66909 0.867359 0
M  V30 6761 O 649.894 0.893824 1.57735 0
M  V30 6762 C 649.942 3.52921 -0.740232 0
M  V30 6763 O 649.046 4.11879 0.207154 0
M  V30 6764 H 648.387 0.629505 -0.211233 0
M  V30 6765 H 650.917 1.6487 -1.21158 0
M  V30 6766 H 650.927 4.0287 -0.644973 0
M  V30 6767 H 649.602 3.76508 -1.76677 0
M  V30 6768 H 648.179 3.72845 0.0643315 0
M  V30 6769 N 650.364 0.662433 1.43002 0
M  V30 6770 C 651.297 -0.073459 2.28082 0
M  V30 6771 C 652.275 -0.820869 1.40358 0
M  V30 6772 O 653.459 -0.818545 1.698 0
M  V30 6773 C 650.586 -1.11097 3.19961 0
M  V30 6774 C 649.632 -0.460557 4.24006 0
M  V30 6775 S 650.465 0.772717 5.29896 0
M  V30 6776 C 651.621 -0.264028 6.25343 0
M  V30 6777 H 651.854 0.648227 2.90147 0
M  V30 6778 H 649.387 0.451566 1.47649 0
M  V30 6779 H 651.345 -1.70452 3.73439 0
M  V30 6780 H 650.006 -1.80503 2.57056 0
M  V30 6781 H 649.199 -1.24299 4.88432 0
M  V30 6782 H 648.801 0.0591038 3.73953 0
M  V30 6783 H 651.093 -1.12748 6.68052 0
M  V30 6784 H 652.036 0.345443 7.07257 0
M  V30 6785 H 652.444 -0.603964 5.6126 0
M  V30 6786 N 651.842 -1.52309 0.404946 0
M  V30 6787 C 652.805 -2.25491 -0.410651 0
M  V30 6788 C 653.805 -1.27704 -0.977154 0
M  V30 6789 O 654.995 -1.51679 -0.856691 0
M  V30 6790 C 652.127 -3.02197 -1.57765 0
M  V30 6791 H 653.32 -2.99015 0.230277 0
M  V30 6792 H 650.873 -1.55506 0.157377 0
M  V30 6793 H 651.608 -2.33013 -2.25556 0
M  V30 6794 H 651.393 -3.73987 -1.17797 0
M  V30 6795 H 652.883 -3.57719 -2.15469 0
M  V30 6796 N 653.32 -0.135238 -1.57019 0
M  V30 6797 C 654.736 0.221262 -1.58059 0
M  V30 6798 C 654.936 1.65538 -1.14889 0
M  V30 6799 O 653.992 2.37985 -0.843751 0
M  V30 6800 C 655.305 -0.0268114 -3.00688 0
M  V30 6801 C 656.853 0.0378206 -3.12977 0
M  V30 6802 C 657.328 -0.182769 -4.57635 0
M  V30 6803 N 658.819 -0.129292 -4.6302 0
M  V30 6804 C 659.554 -0.274648 -5.72742 0
M  V30 6805 N 659.05 -0.477075 -6.91155 0
M  V30 6806 N 660.843 -0.213077 -5.61696 0
M  V30 6807 H 652.994 -1.07177 -1.83376 0
M  V30 6808 H 655.257 -0.423338 -0.848227 0
M  V30 6809 H 654.963 -1.01889 -3.36618 0
M  V30 6810 H 654.837 0.697863 -3.70688 0
M  V30 6811 H 657.224 1.02043 -2.76896 0
M  V30 6812 H 657.305 -0.718996 -2.45487 0
M  V30 6813 H 656.949 -1.16243 -4.94419 0
M  V30 6814 H 656.879 0.59423 -5.23237 0
M  V30 6815 H 659.37 0.0229896 -3.77893 0
M  V30 6816 H 659.683 -0.578413 -7.70632 0
M  V30 6817 H 658.028 -0.513252 -6.93102 0
M  V30 6818 H 661.219 -0.0557796 -4.68067 0
M  V30 6819 H 661.392 -0.329796 -6.4716 0
M  V30 6820 N 654.798 1.5699 0.138552 0
M  V30 6821 C 656.047 1.82998 0.848205 0
M  V30 6822 C 656.36 0.717829 1.81952 0
M  V30 6823 O 657.566 0.863756 2.57394 0
M  V30 6824 C 656.022 3.24379 1.55904 0
M  V30 6825 C 655.63 4.43552 0.62971 0
M  V30 6826 C 657.374 3.59654 2.25498 0
M  V30 6827 C 655.281 5.75957 1.34266 0
M  V30 6828 H 654.211 0.682495 0.320495 0
M  V30 6829 H 656.862 1.83222 0.100924 0
M  V30 6830 H 655.244 3.18567 2.35226 0
M  V30 6831 H 656.418 4.6062 -0.128882 0
M  V30 6832 H 654.733 4.16379 0.0417526 0
M  V30 6833 H 657.33 4.55837 2.79493 0
M  V30 6834 H 657.673 2.86124 3.02388 0
M  V30 6835 H 658.206 3.67164 1.53087 0
M  V30 6836 H 654.945 6.52604 0.615441 0
M  V30 6837 H 654.465 5.62811 2.07375 0
M  V30 6838 H 656.144 6.19046 1.88126 0
M  V30 6839 N 656.276 -0.40816 1.52223 0
M  V30 6840 C 657.226 -1.49648 1.72016 0
M  V30 6841 C 658.21 -1.50311 0.574069 0
M  V30 6842 O 659.402 -1.56271 0.831173 0
M  V30 6843 C 656.531 -2.87566 1.87512 0
M  V30 6844 C 655.617 -2.91547 3.07995 0
M  V30 6845 N 656.008 -2.65225 4.30685 0
M  V30 6846 C 654.306 -3.22715 3.07849 0
M  V30 6847 C 655.007 -2.75799 5.12162 0
M  V30 6848 N 653.983 -3.08719 4.4743 0
M  V30 6849 H 657.785 -1.28093 2.64517 0
M  V30 6850 H 655.299 -0.61588 1.50269 0
M  V30 6851 H 657.296 -3.65899 1.99809 0
M  V30 6852 H 655.956 -3.10118 0.962114 0
M  V30 6853 H 656.967 -2.39601 4.59142 0
M  V30 6854 H 653.644 -3.50856 2.26289 0
M  V30 6855 H 655.034 -2.59155 6.1991 0
M  V30 6856 N 657.755 -1.42862 -0.66545 0
M  V30 6857 C 658.98 -1.47456 -1.45848 0
M  V30 6858 C 659.405 -0.0900312 -1.87884 0
M  V30 6859 O 658.763 0.913587 -1.56599 0
M  V30 6860 C 658.811 -2.41514 -2.67774 0
M  V30 6861 O 657.915 -1.89296 -3.66389 0
M  V30 6862 H 657.256 -0.499236 -0.437789 0
M  V30 6863 H 659.786 -1.8765 -0.815394 0
M  V30 6864 H 659.796 -2.58409 -3.15735 0
M  V30 6865 H 658.471 -3.42099 -2.36519 0
M  V30 6866 H 657.048 -1.82003 -3.25468 0
M  V30 6867 N 659.233 0.902656 -1.29189 0
M  V30 6868 C 660.166 2.00816 -1.0839 0
M  V30 6869 C 661.144 1.626 0.00335266 0
M  V30 6870 O 662.328 1.87928 -0.146765 0
M  V30 6871 C 659.455 3.32415 -0.649435 0
M  V30 6872 C 658.501 3.89617 -1.73496 0
M  V30 6873 S 659.334 4.19091 -3.33351 0
M  V30 6874 C 660.49 5.53736 -2.91766 0
M  V30 6875 H 660.723 2.18151 -2.01984 0
M  V30 6876 H 658.256 1.0489 -1.13303 0
M  V30 6877 H 660.214 4.08492 -0.405479 0
M  V30 6878 H 658.875 3.12964 0.266857 0
M  V30 6879 H 658.068 4.84658 -1.38284 0
M  V30 6880 H 657.67 3.20217 -1.93229 0
M  V30 6881 H 659.962 6.34085 -2.38627 0
M  V30 6882 H 660.905 5.93871 -3.85647 0
M  V30 6883 H 661.313 5.15453 -2.30149 0
M  V30 6884 N 660.711 1.11618 1.11262 0
M  V30 6885 C 661.939 0.888739 1.8684 0
M  V30 6886 C 662.354 -0.561558 1.80255 0
M  V30 6887 O 661.711 -1.38782 1.18515 0
M  V30 6888 C 661.762 1.34422 3.35579 0
M  V30 6889 O 661.483 2.73766 3.42029 0
M  V30 6890 C 662.984 1.15246 4.28058 0
M  V30 6891 H 660.204 0.318152 0.590779 0
M  V30 6892 H 662.748 1.48398 1.40707 0
M  V30 6893 H 660.903 0.79239 3.7921 0
M  V30 6894 H 661.317 2.9355 4.34659 0
M  V30 6895 H 662.791 1.52015 5.30656 0
M  V30 6896 H 663.268 0.0922007 4.39103 0
M  V30 6897 H 663.874 1.69136 3.90222 0
M  V30 6898 N 662.189 -1.289 0.906776 0
M  V30 6899 C 663.438 -1.9455 0.532262 0
M  V30 6900 C 663.751 -1.72219 -0.927353 0
M  V30 6901 O 664.957 -2.32033 -1.40971 0
M  V30 6902 C 663.413 -3.48438 0.901041 0
M  V30 6903 C 663.021 -3.79558 2.37991 0
M  V30 6904 C 664.765 -4.20284 0.596777 0
M  V30 6905 C 662.672 -5.26723 2.68918 0
M  V30 6906 H 661.602 -0.728259 0.195333 0
M  V30 6907 H 664.253 -1.46519 1.10474 0
M  V30 6908 H 662.635 -3.95162 0.257419 0
M  V30 6909 H 663.809 -3.43668 3.06967 0
M  V30 6910 H 662.124 -3.20868 2.65391 0
M  V30 6911 H 664.721 -5.28612 0.8046 0
M  V30 6912 H 665.064 -4.13694 -0.465072 0
M  V30 6913 H 665.597 -3.79315 1.19855 0
M  V30 6914 H 662.336 -5.38384 3.73928 0
M  V30 6915 H 661.856 -5.63836 2.04571 0
M  V30 6916 H 663.535 -5.94391 2.55555 0
M  V30 6917 N 663.667 -0.670007 -1.42649 0
M  V30 6918 C 664.577 0.0114788 -2.34597 0
M  V30 6919 C 665.593 0.794055 -1.54825 0
M  V30 6920 O 666.769 0.737472 -1.87412 0
M  V30 6921 C 663.834 0.954436 -3.33304 0
M  V30 6922 C 662.895 0.166925 -4.28975 0
M  V30 6923 C 662.128 1.06497 -5.22967 0
M  V30 6924 O 662.351 2.30446 -5.21777 0
M  V30 6925 O 661.285 0.528347 -5.99577 0
M  V30 6926 H 665.111 -0.745794 -2.944 0
M  V30 6927 H 662.696 -0.430228 -1.43071 0
M  V30 6928 H 664.578 1.49589 -3.93956 0
M  V30 6929 H 663.253 1.69164 -2.7598 0
M  V30 6930 H 662.16 -0.418515 -3.71752 0
M  V30 6931 H 663.493 -0.531067 -4.89327 0
M  V30 6932 N 665.145 1.52092 -0.413018 0
M  V30 6933 C 666.108 2.25706 0.398687 0
M  V30 6934 C 667.108 1.28221 0.970368 0
M  V30 6935 O 668.298 1.52131 0.848635 0
M  V30 6936 C 665.43 3.03029 1.5616 0
M  V30 6937 H 666.623 2.98888 -0.246131 0
M  V30 6938 H 664.176 1.5542 -0.165622 0
M  V30 6939 H 664.911 2.34205 2.24317 0
M  V30 6940 H 664.696 3.74606 1.15812 0
M  V30 6941 H 666.186 3.58857 2.13569 0
M  V30 6942 N 666.623 0.143563 1.56945 0
M  V30 6943 C 668.034 -0.37783 1.82837 0
M  V30 6944 C 668.385 -1.64967 1.06209 0
M  V30 6945 O 667.51 -2.14221 0.306291 0
M  V30 6946 C 668.105 -0.692274 3.31652 0
M  V30 6947 C 666.664 -1.1582 3.58138 0
M  V30 6948 C 665.811 -0.17951 2.76718 0
M  V30 6949 H 668.762 0.368317 1.54367 0
M  V30 6950 H 668.783 -1.54729 3.47619 0
M  V30 6951 H 668.295 0.233572 3.87397 0
M  V30 6952 H 666.396 -2.10011 3.07776 0
M  V30 6953 H 666.509 -1.08655 4.66616 0
M  V30 6954 H 664.873 -0.671458 2.4569 0
M  V30 6955 H 665.656 0.739865 3.35233 0
M  V30 6956 N 668.101 -1.57061 -0.130224 0
M  V30 6957 C 669.35 -1.83446 -0.838488 0
M  V30 6958 C 669.663 -0.727468 -1.81569 0
M  V30 6959 O 670.869 -0.877394 -2.56932 0
M  V30 6960 C 669.325 -3.25201 -1.54182 0
M  V30 6961 C 668.933 -4.4388 -0.606178 0
M  V30 6962 C 670.677 -3.60844 -2.23588 0
M  V30 6963 C 668.584 -5.76661 -1.31209 0
M  V30 6964 H 667.514 -0.684185 -0.316871 0
M  V30 6965 H 670.165 -1.83273 -0.0912059 0
M  V30 6966 H 668.547 -3.1981 -2.33533 0
M  V30 6967 H 669.721 -4.60545 0.153308 0
M  V30 6968 H 668.036 -4.16395 -0.0196705 0
M  V30 6969 H 670.633 -4.57313 -2.77072 0
M  V30 6970 H 670.976 -2.87724 -3.00867 0
M  V30 6971 H 671.509 -3.67971 -1.51137 0
M  V30 6972 H 668.248 -6.52922 -0.580823 0
M  V30 6973 H 667.768 -5.63902 -2.04387 0
M  V30 6974 H 669.447 -6.20035 -1.8484 0
M  V30 6975 N 669.579 0.400081 -1.52437 0
M  V30 6976 C 670.807 1.16768 -1.70801 0
M  V30 6977 C 671.222 1.84036 -0.421462 0
M  V30 6978 O 670.579 1.72242 0.603228 0
M  V30 6979 C 670.63 2.22403 -2.8499 0
M  V30 6980 O 670.351 1.57879 -4.08663 0
M  V30 6981 C 671.852 3.11974 -3.1494 0
M  V30 6982 H 669.072 0.350533 -0.57216 0
M  V30 6983 H 671.616 0.469534 -1.99037 0
M  V30 6984 H 669.771 2.87871 -2.59247 0
M  V30 6985 H 670.185 2.27982 -4.7236 0
M  V30 6986 H 671.659 3.82148 -3.9833 0
M  V30 6987 H 672.136 3.74858 -2.28863 0
M  V30 6988 H 672.742 2.52165 -3.42481 0
M  V30 6989 N 671.057 1.43213 0.657864 0
M  V30 6990 C 672.004 1.48011 1.77092 0
M  V30 6991 C 672.974 0.330291 1.62783 0
M  V30 6992 O 674.159 0.536787 1.83094 0
M  V30 6993 C 671.299 1.40461 3.15222 0
M  V30 6994 C 670.412 2.65612 3.40697 0
M  V30 6995 C 669.547 2.50083 4.68649 0
M  V30 6996 C 668.586 3.70525 4.87214 0
M  V30 6997 N 667.723 3.53835 6.0642 0
M  V30 6998 H 672.563 2.43121 1.72326 0
M  V30 6999 H 670.1 1.20687 0.841013 0
M  V30 7000 H 672.058 1.34079 3.95068 0
M  V30 7001 H 670.688 0.489359 3.19069 0
M  V30 7002 H 669.74 2.82292 2.54982 0
M  V30 7003 H 671.052 3.5509 3.50303 0
M  V30 7004 H 670.206 2.41383 5.56614 0
M  V30 7005 H 668.945 1.58121 4.61356 0
M  V30 7006 H 667.95 3.79639 3.97686 0
M  V30 7007 H 669.175 4.63489 4.96341 0
M  V30 7008 H 667.121 2.64604 6.00267 0
M  V30 7009 H 667.038 4.36912 6.16963 0
M  V30 7010 H 668.306 3.48978 6.97019 0
M  V30 7011 N 672.536 -0.895792 1.29666 0
M  V30 7012 C 673.782 -1.64908 1.18039 0
M  V30 7013 C 674.115 -1.9236 -0.266682 0
M  V30 7014 O 673.39 -1.53682 -1.19214 0
M  V30 7015 C 673.673 -2.99574 1.99819 0
M  V30 7016 C 673.526 -2.79163 3.52687 0
M  V30 7017 C 674.845 -4.00358 1.82761 0
M  V30 7018 H 671.964 -0.598437 0.430165 0
M  V30 7019 H 674.606 -1.03736 1.59182 0
M  V30 7020 H 672.756 -3.51786 1.64859 0
M  V30 7021 H 674.428 -2.33821 3.9765 0
M  V30 7022 H 672.671 -2.13871 3.77414 0
M  V30 7023 H 673.342 -3.74871 4.05186 0
M  V30 7024 H 675.818 -3.57268 2.13304 0
M  V30 7025 H 674.694 -4.92514 2.42325 0
M  V30 7026 H 674.955 -4.35096 0.783839 0
M  V30 7027 N 674.014 -1.12206 -1.10668 0
M  V30 7028 C 675.263 -0.870595 -1.81944 0
M  V30 7029 C 675.576 0.605447 -1.85994 0
M  V30 7030 O 676.782 0.973433 -2.53449 0
M  V30 7031 C 675.238 -1.50783 -3.26791 0
M  V30 7032 C 674.846 -3.01849 -3.31046 0
M  V30 7033 C 676.59 -1.33653 -4.02911 0
M  V30 7034 C 674.497 -3.58518 -4.70339 0
M  V30 7035 H 673.427 -0.322043 -0.681765 0
M  V30 7036 H 676.078 -1.34827 -1.24475 0
M  V30 7037 H 674.46 -0.957825 -3.84242 0
M  V30 7038 H 675.634 -3.63321 -2.83433 0
M  V30 7039 H 673.949 -3.18346 -2.68411 0
M  V30 7040 H 676.546 -1.73416 -5.05797 0
M  V30 7041 H 676.889 -0.279949 -4.15358 0
M  V30 7042 H 677.422 -1.85562 -3.51868 0
M  V30 7043 H 674.161 -4.63925 -4.63091 0
M  V30 7044 H 673.681 -3.01819 -5.18329 0
M  V30 7045 H 675.36 -3.57434 -5.39305 0
M  V30 7046 N 675.492 1.28418 -0.913599 0
M  V30 7047 C 676.44 2.29272 -0.392037 0
M  V30 7048 C 677.434 1.61344 0.516198 0
M  V30 7049 O 678.64 1.75557 0.39746 0
M  V30 7050 H 675.015 0.744178 -0.108178 0
M  V30 7051 H 676.986 2.70691 -1.25574 0
M  V30 7052 C 675.735 3.45905 0.352815 0
M  V30 7053 H 675.058 3.98378 -0.336848 0
M  V30 7054 H 676.498 4.18473 0.682398 0
M  V30 7055 C 674.957 2.98572 1.56065 0
M  V30 7056 O 675.487 3.01033 2.65974 0
M  V30 7057 N 673.693 2.54235 1.40759 0
M  V30 7058 H 673.24 2.52432 0.513403 0
M  V30 7059 H 673.198 2.22925 2.21702 0
M  V30 7060 N 676.97 0.677563 1.42291 0
M  V30 7061 C 678.219 0.198173 2.00724 0
M  V30 7062 C 678.532 -1.20325 1.54211 0
M  V30 7063 O 679.738 -1.77916 2.05081 0
M  V30 7064 C 678.194 0.303432 3.58619 0
M  V30 7065 C 677.802 1.70909 4.14119 0
M  V30 7066 C 679.546 -0.117103 4.24338 0
M  V30 7067 C 677.453 1.76696 5.64387 0
M  V30 7068 H 676.383 0.070329 0.750713 0
M  V30 7069 H 679.034 0.843147 1.62982 0
M  V30 7070 H 677.416 -0.409482 3.93877 0
M  V30 7071 H 678.59 2.44931 3.90315 0
M  V30 7072 H 676.905 2.07771 3.6086 0
M  V30 7073 H 679.502 -0.0940471 5.34617 0
M  V30 7074 H 679.845 -1.15283 4.00019 0
M  V30 7075 H 680.378 0.5449 3.9405 0
M  V30 7076 H 677.117 2.7826 5.93508 0
M  V30 7077 H 676.637 1.07034 5.90173 0
M  V30 7078 H 678.316 1.52166 6.28852 0
M  V30 7079 N 678.448 -1.51871 0.421078 0
M  V30 7080 C 679.697 -2.01125 -0.152206 0
M  V30 7081 C 680.01 -1.3106 -1.45199 0
M  V30 7082 O 681.216 -1.71195 -2.10724 0
M  V30 7083 C 679.672 -3.58458 -0.3218 0
M  V30 7084 C 679.28 -4.37448 0.96659 0
M  V30 7085 C 681.024 -4.15908 -0.84973 0
M  V30 7086 C 678.931 -5.86451 0.763529 0
M  V30 7087 H 677.861 -0.751556 -0.0606565 0
M  V30 7088 H 680.512 -1.75115 0.548354 0
M  V30 7089 H 678.894 -3.80847 -1.08498 0
M  V30 7090 H 680.068 -4.26814 1.73684 0
M  V30 7091 H 678.383 -3.91373 1.42183 0
M  V30 7092 H 680.98 -5.24922 -1.01788 0
M  V30 7093 H 681.323 -3.74031 -1.82774 0
M  V30 7094 H 681.856 -3.97535 -0.145297 0
M  V30 7095 H 678.595 -6.3271 1.71344 0
M  V30 7096 H 678.115 -5.99791 0.0327889 0
M  V30 7097 H 679.794 -6.45697 0.410354 0
M  V30 7098 N 679.926 -0.151884 -1.56866 0
M  V30 7099 C 680.874 0.80299 -2.183 0
M  V30 7100 C 681.868 1.25174 -1.14139 0
M  V30 7101 O 683.074 1.21966 -1.3238 0
M  V30 7102 H 679.449 0.277169 -0.699057 0
M  V30 7103 H 681.42 0.260699 -2.97259 0
M  V30 7104 C 680.169 2.03009 -2.82281 0
M  V30 7105 H 679.492 1.69377 -3.62148 0
M  V30 7106 H 680.932 2.67753 -3.28762 0
M  V30 7107 C 679.391 2.84123 -1.81041 0
M  V30 7108 O 679.921 3.8063 -1.28388 0
M  V30 7109 N 678.127 2.48753 -1.50234 0
M  V30 7110 H 677.674 1.70337 -1.93244 0
M  V30 7111 H 677.632 3.03316 -0.827445 0
M  V30 7112 N 681.404 1.57128 0.121893 0
M  V30 7113 C 682.367 1.99197 1.13372 0
M  V30 7114 C 683.367 0.881728 1.3447 0
M  V30 7115 O 684.557 1.14783 1.31036 0
M  V30 7116 C 681.689 2.32963 2.4888 0
M  V30 7117 H 682.882 2.89788 0.772204 0
M  V30 7118 H 680.435 1.51952 0.366093 0
M  V30 7119 H 681.17 1.45243 2.89957 0
M  V30 7120 H 680.955 3.13934 2.34921 0
M  V30 7121 H 682.445 2.66261 3.21706 0
M  V30 7122 N 682.882 -0.391992 1.52647 0
M  V30 7123 C 683.845 -1.46135 1.7657 0
M  V30 7124 C 684.845 -1.47701 0.635698 0
M  V30 7125 O 686.035 -1.48924 0.903728 0
M  V30 7126 C 683.167 -2.85443 1.86374 0
M  V30 7127 H 684.36 -1.26208 2.72051 0
M  V30 7128 H 681.913 -0.623549 1.43323 0
M  V30 7129 H 682.648 -3.10718 0.928685 0
M  V30 7130 H 682.433 -2.85708 2.68539 0
M  V30 7131 H 683.923 -3.62933 2.06566 0
M  V30 7132 N 684.36 -1.4356 -0.65026 0
M  V30 7133 C 685.292 -1.44918 -1.77571 0
M  V30 7134 C 686.305 -0.344925 -1.59104 0
M  V30 7135 O 687.494 -0.609537 -1.6777 0
M  V30 7136 C 684.594 -1.24914 -3.15039 0
M  V30 7137 C 683.767 -2.48232 -3.60138 0
M  V30 7138 C 682.826 -2.23409 -4.76419 0
M  V30 7139 O 681.852 -2.9678 -4.85706 0
M  V30 7140 N 683.054 -1.25259 -5.66825 0
M  V30 7141 H 685.819 -2.41935 -1.76883 0
M  V30 7142 H 683.38 -1.38754 -0.834202 0
M  V30 7143 H 685.372 -1.06185 -3.90521 0
M  V30 7144 H 683.942 -0.363319 -3.10481 0
M  V30 7145 H 683.162 -2.82366 -2.75069 0
M  V30 7146 H 684.45 -3.30296 -3.87017 0
M  V30 7147 H 683.848 -0.646246 -5.61997 0
M  V30 7148 H 682.405 -1.12513 -6.42016 0
M  V30 7149 N 685.838 0.888903 -1.30139 0
M  V30 7150 C 686.748 2.02705 -1.18101 0
M  V30 7151 C 687.764 1.73702 -0.101809 0
M  V30 7152 O 688.94 1.98906 -0.315984 0
M  V30 7153 C 686.005 3.35616 -0.869651 0
M  V30 7154 C 685.066 3.78067 -2.03381 0
M  V30 7155 C 684.299 5.04635 -1.73721 0
M  V30 7156 O 684.522 5.66531 -0.663267 0
M  V30 7157 O 683.456 5.43399 -2.58845 0
M  V30 7158 H 687.282 2.15788 -2.13704 0
M  V30 7159 H 684.867 1.01426 -1.09695 0
M  V30 7160 H 686.749 4.15358 -0.711043 0
M  V30 7161 H 685.424 3.23651 0.0565002 0
M  V30 7162 H 684.331 2.99046 -2.24772 0
M  V30 7163 H 685.664 3.94631 -2.94155 0
M  V30 7164 N 687.317 1.12792 1.10072 0
M  V30 7165 C 688.265 0.794523 2.18609 0
M  V30 7166 C 689.259 -0.220271 1.67962 0
M  V30 7167 O 690.465 -0.0780938 1.79831 0
M  V30 7168 H 686.84 0.239123 0.712969 0
M  V30 7169 H 688.811 1.71823 2.43966 0
M  V30 7170 C 687.56 0.269548 3.46654 0
M  V30 7171 H 686.883 1.04171 3.8599 0
M  V30 7172 H 688.323 0.0746242 4.23934 0
M  V30 7173 C 686.782 -1.00333 3.21613 0
M  V30 7174 O 687.312 -2.08042 3.4363 0
M  V30 7175 N 685.518 -0.931763 2.75257 0
M  V30 7176 H 685.065 -0.0551197 2.57541 0
M  V30 7177 H 685.023 -1.78405 2.58881 0
M  V30 7178 N 688.795 -1.27931 0.920396 0
M  V30 7179 C 690.02 -1.99343 0.572478 0
M  V30 7180 C 690.445 -1.68267 -0.840696 0
M  V30 7181 O 689.803 -0.918805 -1.56294 0
M  V30 7182 C 689.851 -3.51698 0.796284 0
M  V30 7183 O 688.955 -4.12157 -0.141602 0
M  V30 7184 H 688.296 -0.626065 0.221221 0
M  V30 7185 H 690.826 -1.62921 1.23765 0
M  V30 7186 H 690.836 -4.01793 0.708984 0
M  V30 7187 H 689.511 -3.73649 1.82644 0
M  V30 7188 H 688.088 -3.729 -0.005007 0
M  V30 7189 N 690.273 -0.685099 -1.4193 0
M  V30 7190 C 691.684 -0.287699 -1.8447 0
M  V30 7191 C 692.035 1.17215 -1.57338 0
M  V30 7192 O 691.16 1.89856 -1.03845 0
M  V30 7193 C 691.755 -0.515385 -3.34857 0
M  V30 7194 C 690.314 -0.172006 -3.76007 0
M  V30 7195 C 689.461 -0.802808 -2.65425 0
M  V30 7196 H 692.412 -0.88652 -1.3163 0
M  V30 7197 H 692.433 0.229251 -3.79809 0
M  V30 7198 H 691.945 -1.57796 -3.54573 0
M  V30 7199 H 690.046 0.886716 -3.61895 0
M  V30 7200 H 690.159 -0.619717 -4.75075 0
M  V30 7201 H 688.523 -0.233267 -2.5363 0
M  V30 7202 H 689.306 -1.86904 -2.87961 0
M  V30 7203 N 691.751 1.51645 -0.429126 0
M  V30 7204 C 692.997 2.02314 0.140286 0
M  V30 7205 C 693.33 1.31314 1.43074 0
M  V30 7206 O 692.605 0.425531 1.89788 0
M  V30 7207 C 692.888 3.5822 0.36749 0
M  V30 7208 C 692.741 4.39846 -0.941039 0
M  V30 7209 C 694.06 4.25055 1.14089 0
M  V30 7210 H 691.179 0.735335 0.0495112 0
M  V30 7211 H 693.821 1.81358 -0.566514 0
M  V30 7212 H 691.971 3.76207 0.969556 0
M  V30 7213 H 693.643 4.33527 -1.57646 0
M  V30 7214 H 691.886 4.05259 -1.54751 0
M  V30 7215 H 692.557 5.47069 -0.73621 0
M  V30 7216 H 695.033 4.11288 0.630986 0
M  V30 7217 H 693.909 5.34038 1.26863 0
M  V30 7218 H 694.17 3.85358 2.16683 0
M  V30 7219 N 693.229 0.160201 1.56784 0
M  V30 7220 C 694.457 -0.494165 2.00912 0
M  V30 7221 C 694.872 -1.57548 1.04038 0
M  V30 7222 O 694.229 -1.82457 0.0394581 0
M  V30 7223 C 694.28 -1.08271 3.44905 0
M  V30 7224 O 694.001 -0.0445704 4.38077 0
M  V30 7225 C 695.502 -1.8164 4.04378 0
M  V30 7226 H 692.722 -0.127498 0.658776 0
M  V30 7227 H 695.266 0.258665 2.02858 0
M  V30 7228 H 693.421 -1.78609 3.4377 0
M  V30 7229 H 693.835 -0.477544 5.22322 0
M  V30 7230 H 695.309 -2.18094 5.07089 0
M  V30 7231 H 695.786 -2.70727 3.45838 0
M  V30 7232 H 696.392 -1.15969 4.09184 0
M  V30 7233 N 694.707 -1.5719 -0.113559 0
M  V30 7234 C 695.953 -1.85412 -0.821597 0
M  V30 7235 C 696.286 -0.746722 -1.7927 0
M  V30 7236 O 695.561 0.246971 -1.92926 0
M  V30 7237 C 695.844 -3.24233 -1.56669 0
M  V30 7238 C 695.697 -4.45578 -0.614823 0
M  V30 7239 C 697.016 -3.60697 -2.52161 0
M  V30 7240 H 694.135 -0.674406 -0.29723 0
M  V30 7241 H 696.777 -1.89807 -0.085694 0
M  V30 7242 H 694.927 -3.20617 -2.19401 0
M  V30 7243 H 696.599 -4.613 0.00407137 0
M  V30 7244 H 694.842 -4.33738 0.0732332 0
M  V30 7245 H 695.513 -5.39395 -1.17292 0
M  V30 7246 H 697.989 -3.65139 -1.99532 0
M  V30 7247 H 696.865 -4.58798 -3.01323 0
M  V30 7248 H 697.126 -2.88403 -3.35076 0
M  V30 7249 N 696.185 0.383891 -1.52853 0
M  V30 7250 C 697.148 1.45197 -1.77343 0
M  V30 7251 C 698.148 1.47362 -0.643522 0
M  V30 7252 O 699.338 1.48443 -0.911613 0
M  V30 7253 C 696.47 2.8445 -1.87885 0
M  V30 7254 H 697.663 1.24764 -2.72716 0
M  V30 7255 H 695.216 0.615939 -1.43652 0
M  V30 7256 H 695.951 3.10222 -0.94515 0
M  V30 7257 H 695.736 2.8428 -2.70051 0
M  V30 7258 H 697.226 3.61832 -2.08488 0
M  V30 7259 N 697.663 1.43903 0.642637 0
M  V30 7260 C 698.573 1.52349 1.78401 0
M  V30 7261 C 699.589 0.409869 1.69104 0
M  V30 7262 O 700.765 0.665548 1.90085 0
M  V30 7263 C 697.83 1.45408 3.14734 0
M  V30 7264 C 696.891 2.67528 3.35749 0
M  V30 7265 C 696.124 2.60909 4.65577 0
M  V30 7266 O 696.347 1.6627 5.45628 0
M  V30 7267 O 695.281 3.5158 4.88544 0
M  V30 7268 H 699.107 2.48752 1.7423 0
M  V30 7269 H 696.692 1.26021 0.802439 0
M  V30 7270 H 698.574 1.44019 3.96026 0
M  V30 7271 H 697.249 0.521437 3.19473 0
M  V30 7272 H 696.156 2.74487 2.5418 0
M  V30 7273 H 697.489 3.598 3.35864 0
M  V30 7274 N 699.141 -0.881989 1.30609 0
M  V30 7275 C 700.104 -1.96957 1.1722 0
M  V30 7276 C 701.104 -1.60472 0.102598 0
M  V30 7277 O 702.294 -1.70628 0.350943 0
M  V30 7278 C 699.426 -3.31463 0.796572 0
M  V30 7279 H 700.619 -2.10262 2.13846 0
M  V30 7280 H 698.172 -1.06877 1.14048 0
M  V30 7281 H 698.907 -3.23859 -0.169053 0
M  V30 7282 H 698.692 -3.59314 1.56959 0
M  V30 7283 H 700.182 -4.11233 0.72645 0
M  V30 7284 N 700.619 -1.13374 -1.09472 0
M  V30 7285 C 701.549 -0.833268 -2.18126 0
M  V30 7286 C 702.53 0.207169 -1.68834 0
M  V30 7287 O 703.715 0.0662012 -1.94087 0
M  V30 7288 C 700.845 -0.297979 -3.46019 0
M  V30 7289 C 699.799 -1.27261 -4.08642 0
M  V30 7290 C 699.125 -0.597104 -5.31356 0
M  V30 7291 C 700.425 -2.63095 -4.51197 0
M  V30 7292 H 702.119 -1.74182 -2.43518 0
M  V30 7293 H 699.665 -0.838921 -1.17039 0
M  V30 7294 H 701.618 -0.0754444 -4.21332 0
M  V30 7295 H 700.342 0.645959 -3.20148 0
M  V30 7296 H 699.001 -1.48113 -3.35348 0
M  V30 7297 H 698.649 0.352293 -5.01765 0
M  V30 7298 H 698.349 -1.24734 -5.74208 0
M  V30 7299 H 699.873 -0.38384 -6.09392 0
M  V30 7300 H 701.287 -2.46214 -5.17737 0
M  V30 7301 H 699.684 -3.2429 -5.04932 0
M  V30 7302 H 700.754 -3.20793 -3.6362 0
M  V30 7303 N 702.098 1.27442 -0.927168 0
M  V30 7304 C 703.375 1.89473 -0.485742 0
M  V30 7305 C 703.755 1.83922 1.03614 0
M  V30 7306 O 703.103 1.28409 1.89007 0
M  V30 7307 C 703.313 3.33417 -1.03123 0
M  V30 7308 C 704.661 4.10333 -1.0914 0
M  V30 7309 O 705.685 3.4243 -0.98082 0
M  V30 7310 O 704.544 5.31737 -1.26165 0
M  V30 7311 H 701.638 0.812124 -0.156154 0
M  V30 7312 H 704.184 1.35713 -1.01882 0
M  V30 7313 H 702.956 3.31747 -2.07508 0
M  V30 7314 H 702.579 3.94695 -0.479767 0
M  V30 7315 N 703.576 0.692616 1.41565 0
M  V30 7316 C 704.992 0.363878 1.55397 0
M  V30 7317 C 705.192 -1.1294 1.66874 0
M  V30 7318 O 704.248 -1.91517 1.64552 0
M  V30 7319 C 705.561 1.10982 2.7947 0
M  V30 7320 C 707.109 1.09387 2.93263 0
M  V30 7321 C 707.584 1.8215 4.20221 0
M  V30 7322 N 709.075 1.79105 4.27172 0
M  V30 7323 C 709.81 2.32247 5.2426 0
M  V30 7324 N 709.306 2.93847 6.27396 0
M  V30 7325 N 711.099 2.22519 5.1618 0
M  V30 7326 H 703.25 1.66116 1.3236 0
M  V30 7327 H 705.513 0.700848 0.63837 0
M  V30 7328 H 705.219 2.1647 2.77188 0
M  V30 7329 H 705.093 0.686492 3.709 0
M  V30 7330 H 707.48 0.0472638 2.95062 0
M  V30 7331 H 707.561 1.55623 2.03015 0
M  V30 7332 H 707.205 2.86789 4.19183 0
M  V30 7333 H 707.135 1.33351 5.09436 0
M  V30 7334 H 709.626 1.34191 3.53272 0
M  V30 7335 H 709.939 3.31972 6.97864 0
M  V30 7336 H 708.284 2.97924 6.27906 0
M  V30 7337 H 711.475 1.7407 4.34531 0
M  V30 7338 H 711.648 2.64239 5.91677 0
M  V30 7339 N 705.054 -1.51416 0.437162 0
M  V30 7340 C 706.3 -2.02386 -0.129555 0
M  V30 7341 C 706.633 -1.32071 -1.42376 0
M  V30 7342 O 705.908 -0.43559 -1.8956 0
M  V30 7343 C 706.191 -3.5841 -0.348487 0
M  V30 7344 C 706.044 -4.39341 0.964352 0
M  V30 7345 C 707.363 -4.25654 -1.11834 0
M  V30 7346 H 704.482 -0.735587 -0.0456109 0
M  V30 7347 H 707.124 -1.81055 0.576124 0
M  V30 7348 H 705.274 -3.76716 -0.949592 0
M  V30 7349 H 706.946 -4.32685 1.59942 0
M  V30 7350 H 705.189 -4.04432 1.56898 0
M  V30 7351 H 705.86 -5.4667 0.765212 0
M  V30 7352 H 708.336 -4.11617 -0.609165 0
M  V30 7353 H 707.212 -5.34704 -1.24029 0
M  V30 7354 H 707.473 -3.86502 -2.14636 0
M  V30 7355 N 706.532 -0.168513 -1.56696 0
M  V30 7356 C 707.462 0.758563 -2.20835 0
M  V30 7357 C 708.443 1.24121 -1.1631 0
M  V30 7358 O 709.628 1.29487 -1.4473 0
M  V30 7359 C 706.758 1.9892 -2.8469 0
M  V30 7360 C 705.712 1.64252 -3.95228 0
M  V30 7361 C 705.038 2.94757 -4.46119 0
M  V30 7362 C 706.338 0.872675 -5.14958 0
M  V30 7363 H 708.032 0.223953 -2.98561 0
M  V30 7364 H 705.578 0.106277 -1.43607 0
M  V30 7365 H 707.531 2.64275 -3.28233 0
M  V30 7366 H 706.255 2.5479 -2.04327 0
M  V30 7367 H 704.914 1.01266 -3.52336 0
M  V30 7368 H 704.562 3.48662 -3.62552 0
M  V30 7369 H 704.262 2.72316 -5.2069 0
M  V30 7370 H 705.786 3.61147 -4.92347 0
M  V30 7371 H 707.2 1.42875 -5.55211 0
M  V30 7372 H 705.597 0.747402 -5.95428 0
M  V30 7373 H 706.667 -0.131535 -4.84722 0
M  V30 7374 N 708.01 1.57248 0.105221 0
M  V30 7375 C 708.92 2.04653 1.14693 0
M  V30 7376 C 709.936 0.969488 1.44489 0
M  V30 7377 O 711.112 1.28196 1.55331 0
M  V30 7378 C 708.177 2.45297 2.45011 0
M  V30 7379 C 707.238 3.67148 2.22489 0
M  V30 7380 C 706.471 4.05844 3.46592 0
M  V30 7381 O 706.694 3.44736 4.54437 0
M  V30 7382 O 705.628 4.98862 3.36779 0
M  V30 7383 H 709.454 2.93663 0.774336 0
M  V30 7384 H 707.039 1.45998 0.31701 0
M  V30 7385 H 708.921 2.72112 3.21766 0
M  V30 7386 H 707.596 1.59429 2.81717 0
M  V30 7387 H 706.503 3.45463 1.43547 0
M  V30 7388 H 707.836 4.53764 1.9068 0
M  V30 7389 N 709.488 -0.375779 1.53054 0
M  V30 7390 C 710.737 -1.11674 1.67964 0
M  V30 7391 C 711.05 -1.90755 0.432655 0
M  V30 7392 O 712.256 -2.67538 0.462109 0
M  V30 7393 C 710.712 -2.0344 2.96884 0
M  V30 7394 C 710.32 -1.29719 4.28809 0
M  V30 7395 C 712.064 -2.7759 3.2116 0
M  V30 7396 C 709.971 -2.20327 5.48826 0
M  V30 7397 H 708.901 -0.420597 0.625791 0
M  V30 7398 H 711.552 -0.378499 1.79554 0
M  V30 7399 H 709.934 -2.80953 2.79072 0
M  V30 7400 H 711.108 -0.573394 4.57219 0
M  V30 7401 H 709.423 -0.674735 4.10897 0
M  V30 7402 H 712.02 -3.4559 4.0801 0
M  V30 7403 H 712.363 -3.42399 2.36789 0
M  V30 7404 H 712.896 -2.07164 3.396 0
M  V30 7405 H 709.635 -1.60113 6.35645 0
M  V30 7406 H 709.155 -2.90585 5.2471 0
M  V30 7407 H 710.834 -2.80116 5.83219 0
M  V30 7408 N 710.966 -1.44241 -0.634997 0
M  V30 7409 C 711.896 -1.53632 -1.7584 0
M  V30 7410 C 712.877 -0.389603 -1.65578 0
M  V30 7411 O 714.062 -0.609219 -1.84397 0
M  V30 7412 C 711.192 -1.47644 -3.14354 0
M  V30 7413 C 710.146 -2.60752 -3.394 0
M  V30 7414 C 709.472 -2.39817 -4.77904 0
M  V30 7415 C 710.772 -4.02921 -3.32343 0
M  V30 7416 H 712.466 -2.47662 -1.68238 0
M  V30 7417 H 710.012 -1.19197 -0.807969 0
M  V30 7418 H 711.965 -1.52815 -3.92716 0
M  V30 7419 H 710.689 -0.501284 -3.2273 0
M  V30 7420 H 709.348 -2.54965 -2.63417 0
M  V30 7421 H 708.996 -1.40502 -4.82978 0
M  V30 7422 H 708.696 -3.15649 -4.9562 0
M  V30 7423 H 710.22 -2.46799 -5.585 0
M  V30 7424 H 711.634 -4.10098 -4.00615 0
M  V30 7425 H 710.031 -4.78925 -3.61595 0
M  V30 7426 H 711.101 -4.26766 -2.30215 0
M  V30 7427 N 712.444 0.87505 -1.31075 0
M  V30 7428 C 713.86 1.15997 -1.09622 0
M  V30 7429 C 714.06 2.01036 0.136611 0
M  V30 7430 O 713.116 2.38559 0.827397 0
M  V30 7431 C 714.429 1.85702 -2.36506 0
M  V30 7432 C 715.977 1.98425 -2.42067 0
M  V30 7433 C 716.452 2.71544 -3.68819 0
M  V30 7434 N 717.943 2.79084 -3.69684 0
M  V30 7435 C 718.678 3.36259 -4.64454 0
M  V30 7436 N 718.174 3.94406 -5.69575 0
M  V30 7437 N 719.967 3.34169 -4.51982 0
M  V30 7438 H 712.118 0.308258 -2.10151 0
M  V30 7439 H 714.381 0.199145 -0.926847 0
M  V30 7440 H 714.087 1.30663 -3.26527 0
M  V30 7441 H 713.961 2.86017 -2.45915 0
M  V30 7442 H 716.348 2.5263 -1.52518 0
M  V30 7443 H 716.429 0.971682 -2.36626 0
M  V30 7444 H 716.073 2.18008 -4.58732 0
M  V30 7445 H 716.003 3.73198 -3.71525 0
M  V30 7446 H 718.494 2.3781 -2.93691 0
M  V30 7447 H 718.807 4.36129 -6.37974 0
M  V30 7448 H 717.152 3.92797 -5.73355 0
M  V30 7449 H 720.343 2.87977 -3.69035 0
M  V30 7450 H 720.516 3.78431 -5.26017 0
M  V30 7451 N 713.922 1.13953 1.08869 0
M  V30 7452 C 715.15 0.92817 1.84912 0
M  V30 7453 C 715.565 -0.523197 1.81406 0
M  V30 7454 O 714.922 -1.36237 1.21432 0
M  V30 7455 C 714.973 1.41509 3.32652 0
M  V30 7456 O 714.694 2.80959 3.36145 0
M  V30 7457 C 716.195 1.243 4.25517 0
M  V30 7458 H 713.415 0.330612 0.583898 0
M  V30 7459 H 715.959 1.51349 1.37527 0
M  V30 7460 H 714.114 0.872648 3.77444 0
M  V30 7461 H 714.528 3.02704 4.28335 0
M  V30 7462 H 716.002 1.63237 5.27312 0
M  V30 7463 H 716.479 0.18532 4.38809 0
M  V30 7464 H 717.085 1.77375 3.86546 0
M  V30 7465 N 715.4 -1.26948 0.933913 0
M  V30 7466 C 716.628 -1.98186 0.59414 0
M  V30 7467 C 717.043 -1.69614 -0.829257 0
M  V30 7468 O 716.4 -0.960213 -1.55197 0
M  V30 7469 C 716.451 -3.52123 0.818026 0
M  V30 7470 O 716.172 -3.79698 2.18543 0
M  V30 7471 C 717.673 -4.40608 0.48781 0
M  V30 7472 H 714.893 -0.632305 0.224569 0
M  V30 7473 H 717.437 -1.61646 1.25263 0
M  V30 7474 H 715.592 -3.86851 0.206246 0
M  V30 7475 H 716.006 -4.7426 2.24005 0
M  V30 7476 H 717.48 -5.47606 0.695126 0
M  V30 7477 H 717.957 -4.35394 -0.576913 0
M  V30 7478 H 718.563 -4.11411 1.078 0
M  V30 7479 N 716.879 -0.700114 -1.41195 0
M  V30 7480 C 717.789 -0.0382854 -2.34569 0
M  V30 7481 C 718.805 0.761036 -1.56474 0
M  V30 7482 O 719.981 0.697553 -1.88934 0
M  V30 7483 C 717.046 0.883522 -3.35253 0
M  V30 7484 C 716.107 0.0758957 -4.29233 0
M  V30 7485 C 715.34 0.9538 -5.25108 0
M  V30 7486 O 715.563 2.19326 -5.26547 0
M  V30 7487 O 714.497 0.401049 -6.00562 0
M  V30 7488 H 718.323 -0.808073 -2.92752 0
M  V30 7489 H 715.908 -0.460479 -1.42127 0
M  V30 7490 H 717.79 1.41199 -3.9704 0
M  V30 7491 H 716.465 1.63272 -2.79506 0
M  V30 7492 H 715.372 -0.497274 -3.7078 0
M  V30 7493 H 716.705 -0.634741 -4.8809 0
M  V30 7494 N 718.357 1.51182 -0.445186 0
M  V30 7495 C 719.287 2.30821 0.352686 0
M  V30 7496 C 720.268 1.36576 1.01395 0
M  V30 7497 O 721.453 1.65497 1.01609 0
M  V30 7498 C 718.583 3.15593 1.44976 0
M  V30 7499 C 717.537 4.1818 0.911553 0
M  V30 7500 C 716.863 4.91523 2.10497 0
M  V30 7501 C 718.163 5.22266 -0.059418 0
M  V30 7502 H 719.857 2.97771 -0.311936 0
M  V30 7503 H 717.403 1.43201 -0.151461 0
M  V30 7504 H 719.356 3.70091 2.01521 0
M  V30 7505 H 718.08 2.4648 2.14278 0
M  V30 7506 H 716.739 3.64746 0.368264 0
M  V30 7507 H 716.387 4.18906 2.78437 0
M  V30 7508 H 716.087 5.60898 1.7512 0
M  V30 7509 H 717.611 5.48847 2.6758 0
M  V30 7510 H 719.025 5.71789 0.415985 0
M  V30 7511 H 717.422 5.99213 -0.326152 0
M  V30 7512 H 718.492 4.7461 -0.993631 0
M  V30 7513 N 719.835 0.176821 1.56605 0
M  V30 7514 C 721.065 -0.472142 2.01133 0
M  V30 7515 C 721.473 -1.56979 1.05614 0
M  V30 7516 O 720.816 -1.83632 0.0500137 0
M  V30 7517 C 720.878 -1.10547 3.42081 0
M  V30 7518 C 720.542 -0.148806 4.56758 0
M  V30 7519 C 721.539 0.634939 5.16008 0
M  V30 7520 C 719.224 -0.0430325 5.02282 0
M  V30 7521 C 721.218 1.5116 6.19217 0
M  V30 7522 C 718.905 0.83721 6.05338 0
M  V30 7523 C 719.903 1.61311 6.63677 0
M  V30 7524 O 719.591 2.47863 7.64735 0
M  V30 7525 H 719.323 -0.124725 0.664394 0
M  V30 7526 H 721.877 0.277329 2.03519 0
M  V30 7527 H 720.107 -1.90318 3.36625 0
M  V30 7528 H 721.796 -1.6572 3.70529 0
M  V30 7529 H 722.562 0.563424 4.81716 0
M  V30 7530 H 718.441 -0.636753 4.56581 0
M  V30 7531 H 721.985 2.11767 6.64681 0
M  V30 7532 H 717.882 0.909908 6.39055 0
M  V30 7533 H 718.65 2.4144 7.8208 0
M  V30 7534 N 721.313 -1.57302 -0.09688 0
M  V30 7535 C 722.538 -1.9058 -0.818169 0
M  V30 7536 C 722.963 -0.770921 -1.71576 0
M  V30 7537 O 722.321 0.277588 -1.79162 0
M  V30 7538 C 722.369 -3.22714 -1.60898 0
M  V30 7539 O 721.473 -3.10178 -2.71779 0
M  V30 7540 H 720.814 -0.624759 -0.224882 0
M  V30 7541 H 723.344 -2.04471 -0.07264 0
M  V30 7542 H 723.354 -3.55978 -1.99358 0
M  V30 7543 H 722.029 -4.04899 -0.950227 0
M  V30 7544 H 720.606 -2.88424 -2.3636 0
M  V30 7545 N 722.791 0.367657 -1.53252 0
M  V30 7546 C 724.202 0.944563 -1.61043 0
M  V30 7547 C 724.553 1.90325 -0.476546 0
M  V30 7548 O 723.678 2.12721 0.397333 0
M  V30 7549 C 724.273 1.71992 -2.91898 0
M  V30 7550 C 722.832 2.2462 -3.02031 0
M  V30 7551 C 721.979 1.05799 -2.56324 0
M  V30 7552 H 724.93 0.146516 -1.58022 0
M  V30 7553 H 724.951 2.58095 -2.79584 0
M  V30 7554 H 724.463 1.02192 -3.74404 0
M  V30 7555 H 722.564 2.97668 -2.24108 0
M  V30 7556 H 722.677 2.52644 -4.07073 0
M  V30 7557 H 721.041 1.42435 -2.1115 0
M  V30 7558 H 721.824 0.375008 -3.41246 0
M  V30 7559 N 724.269 1.44576 0.627338 0
M  V30 7560 C 725.201 1.47724 1.75243 0
M  V30 7561 C 726.214 0.370193 1.58535 0
M  V30 7562 O 727.403 0.636151 1.66779 0
M  V30 7563 C 724.503 1.2991 3.13012 0
M  V30 7564 C 723.676 2.5393 3.56143 0
M  V30 7565 C 722.735 2.30961 4.72804 0
M  V30 7566 O 721.761 3.04469 4.80923 0
M  V30 7567 N 722.963 1.34261 5.6476 0
M  V30 7568 H 725.728 2.44718 1.73012 0
M  V30 7569 H 723.289 1.40064 0.812022 0
M  V30 7570 H 725.281 1.12385 3.88782 0
M  V30 7571 H 723.851 0.412668 3.09864 0
M  V30 7572 H 723.071 2.86707 2.70542 0
M  V30 7573 H 724.359 3.36411 3.81713 0
M  V30 7574 H 723.757 0.735573 5.60897 0
M  V30 7575 H 722.314 1.22713 6.40144 0
M  V30 7576 N 725.747 -0.868086 1.31537 0
M  V30 7577 C 726.677 -1.99131 1.21939 0
M  V30 7578 C 727.658 -1.69768 0.106166 0
M  V30 7579 O 728.843 -1.92006 0.291081 0
M  V30 7580 C 725.973 -3.34676 0.927879 0
M  V30 7581 C 724.927 -3.7835 2.00088 0
M  V30 7582 C 724.253 -5.11375 1.56203 0
M  V30 7583 C 725.553 -3.95256 3.41424 0
M  V30 7584 H 727.247 -2.07419 2.15911 0
M  V30 7585 H 724.793 -0.996569 1.03945 0
M  V30 7586 H 726.746 -4.12793 0.847327 0
M  V30 7587 H 725.47 -3.26565 -0.0475042 0
M  V30 7588 H 724.129 -3.02474 2.07135 0
M  V30 7589 H 723.777 -4.99709 0.57445 0
M  V30 7590 H 723.477 -5.41568 2.27985 0
M  V30 7591 H 725.001 -5.92001 1.49558 0
M  V30 7592 H 726.415 -4.63764 3.3704 0
M  V30 7593 H 724.812 -4.36849 4.1144 0
M  V30 7594 H 725.882 -2.98579 3.82072 0
M  V30 7595 N 727.225 -1.14528 -1.08264 0
M  V30 7596 C 728.473 -0.912599 -1.80322 0
M  V30 7597 C 728.794 0.562256 -1.86718 0
M  V30 7598 O 728.064 1.40869 -1.36135 0
M  V30 7599 H 726.644 -0.334645 -0.667849 0
M  V30 7600 H 729.306 -1.44415 -1.30883 0
M  V30 7601 H 728.402 -1.31384 -2.83098 0
M  V30 7602 N 728.703 1.26451 -0.940633 0
M  V30 7603 C 729.931 1.97868 -0.604642 0
M  V30 7604 C 730.346 1.70051 0.820251 0
M  V30 7605 O 729.703 0.96843 1.54686 0
M  V30 7606 C 729.754 3.51684 -0.836689 0
M  V30 7607 O 729.475 3.78533 -2.20554 0
M  V30 7608 C 730.976 4.40343 -0.511169 0
M  V30 7609 H 728.196 0.631105 -0.227919 0
M  V30 7610 H 730.74 1.60979 -1.26119 0
M  V30 7611 H 728.895 3.86736 -0.226759 0
M  V30 7612 H 729.309 4.73065 -2.26517 0
M  V30 7613 H 730.783 5.47229 -0.724157 0
M  V30 7614 H 731.26 4.35694 0.553815 0
M  V30 7615 H 731.866 4.10834 -1.0998 0
M  V30 7616 N 730.181 0.707592 1.40822 0
M  V30 7617 C 731.128 0.0499029 2.30746 0
M  V30 7618 C 732.098 -0.758718 1.47759 0
M  V30 7619 O 733.283 -0.724299 1.76518 0
M  V30 7620 C 730.423 -0.871756 3.33908 0
M  V30 7621 C 729.536 -0.0534655 4.31967 0
M  V30 7622 C 728.671 -0.973869 5.22197 0
M  V30 7623 C 727.71 -0.149194 6.11918 0
M  V30 7624 N 726.847 -1.02404 6.94592 0
M  V30 7625 H 731.687 0.822461 2.86426 0
M  V30 7626 H 729.224 0.417285 1.41057 0
M  V30 7627 H 731.182 -1.42028 3.9228 0
M  V30 7628 H 729.812 -1.61058 2.7975 0
M  V30 7629 H 728.864 0.612142 3.75442 0
M  V30 7630 H 730.176 0.585354 4.95353 0
M  V30 7631 H 729.33 -1.59121 5.85462 0
M  V30 7632 H 728.069 -1.64652 4.59065 0
M  V30 7633 H 727.074 0.481137 5.47691 0
M  V30 7634 H 728.299 0.519841 6.77107 0
M  V30 7635 H 726.245 -1.6825 6.34057 0
M  V30 7636 H 726.162 -0.441076 7.54712 0
M  V30 7637 H 727.43 -1.62782 7.62314 0
M  V30 7638 N 731.66 -1.50943 0.453197 0
M  V30 7639 C 732.937 -1.94872 -0.168633 0
M  V30 7640 C 733.317 -1.39272 -1.5864 0
M  V30 7641 O 732.665 -0.586272 -2.20851 0
M  V30 7642 C 732.875 -3.48757 -0.130217 0
M  V30 7643 C 734.223 -4.23331 -0.327975 0
M  V30 7644 O 735.247 -3.55594 -0.207619 0
M  V30 7645 O 734.106 -5.43529 -0.569077 0
M  V30 7646 H 731.2 -0.818042 -0.121394 0
M  V30 7647 H 733.746 -1.61782 0.512316 0
M  V30 7648 H 732.518 -3.81725 0.860346 0
M  V30 7649 H 732.141 -3.88333 -0.853397 0
M  V30 7650 N 733.138 -0.185124 -1.56509 0
M  V30 7651 C 734.048 0.751908 -2.22224 0
M  V30 7652 C 735.064 1.24244 -1.21817 0
M  V30 7653 O 736.24 1.29169 -1.54523 0
M  V30 7654 C 733.305 1.95837 -2.86092 0
M  V30 7655 C 732.366 1.51337 -4.01741 0
M  V30 7656 C 731.599 2.66233 -4.62554 0
M  V30 7657 O 731.822 3.8346 -4.22273 0
M  V30 7658 O 730.756 2.39517 -5.52191 0
M  V30 7659 H 734.582 0.222304 -3.02885 0
M  V30 7660 H 732.167 0.0437141 -1.49336 0
M  V30 7661 H 734.049 2.66368 -3.26536 0
M  V30 7662 H 732.724 2.47677 -2.08417 0
M  V30 7663 H 731.631 0.777155 -3.65939 0
M  V30 7664 H 732.964 1.04175 -4.81049 0
M  V30 7665 N 734.616 1.57351 0.0885366 0
M  V30 7666 C 735.893 1.77449 0.822873 0
M  V30 7667 C 736.273 0.768463 1.96616 0
M  V30 7668 O 735.621 -0.201757 2.27608 0
M  V30 7669 C 735.831 3.23425 1.31137 0
M  V30 7670 C 737.179 3.86791 1.75152 0
M  V30 7671 O 738.203 3.27215 1.40745 0
M  V30 7672 O 737.062 4.91568 2.38794 0
M  V30 7673 H 734.156 0.727653 0.393002 0
M  V30 7674 H 736.702 1.69556 0.0699095 0
M  V30 7675 H 735.474 3.88188 0.49254 0
M  V30 7676 H 735.097 3.35977 2.12615 0
M  V30 7677 N 736.094 -0.359525 1.53444 0
M  V30 7678 C 737.505 -0.936009 1.61542 0
M  V30 7679 C 737.856 -1.90069 0.486633 0
M  V30 7680 O 736.981 -2.12929 -0.386047 0
M  V30 7681 C 737.576 -1.70441 2.92806 0
M  V30 7682 C 736.135 -2.23015 3.03218 0
M  V30 7683 C 735.282 -1.04438 2.56881 0
M  V30 7684 H 738.233 -0.138134 1.58098 0
M  V30 7685 H 738.254 -2.56609 2.80948 0
M  V30 7686 H 737.766 -1.00205 3.74941 0
M  V30 7687 H 735.867 -2.96475 2.25684 0
M  V30 7688 H 735.98 -2.50481 4.08407 0
M  V30 7689 H 734.344 -1.41314 2.11902 0
M  V30 7690 H 735.127 -0.356905 3.4144 0
M  V30 7691 N 737.572 -1.44907 -0.619662 0
M  V30 7692 C 738.522 -1.49085 -1.72504 0
M  V30 7693 C 739.506 -0.355372 -1.56926 0
M  V30 7694 O 740.698 -0.601441 -1.66468 0
M  V30 7695 C 737.827 -1.44889 -3.11227 0
M  V30 7696 C 736.913 -2.63593 -3.32234 0
M  V30 7697 N 737.304 -3.88775 -3.23555 0
M  V30 7698 C 735.602 -2.59033 -3.63067 0
M  V30 7699 C 736.303 -4.67932 -3.45564 0
M  V30 7700 N 735.279 -3.9919 -3.68983 0
M  V30 7701 H 739.081 -2.43706 -1.6427 0
M  V30 7702 H 736.595 -1.4003 -0.82252 0
M  V30 7703 H 738.592 -1.45966 -3.90512 0
M  V30 7704 H 737.252 -0.513143 -3.2062 0
M  V30 7705 H 738.263 -4.20574 -3.02221 0
M  V30 7706 H 734.94 -1.7431 -3.79371 0
M  V30 7707 H 736.33 -5.76952 -3.44349 0
M  V30 7708 N 739.05 0.861098 -1.31996 0
M  V30 7709 C 740.278 1.6474 -1.25173 0
M  V30 7710 C 740.693 1.87926 0.181425 0
M  V30 7711 O 740.05 1.4437 1.1164 0
M  V30 7712 C 740.101 3.01036 -2.0015 0
M  V30 7713 O 739.822 2.7888 -3.37872 0
M  V30 7714 C 741.323 3.95481 -2.00273 0
M  V30 7715 H 738.543 0.513314 -0.432146 0
M  V30 7716 H 741.087 1.07419 -1.74016 0
M  V30 7717 H 739.242 3.55021 -1.55046 0
M  V30 7718 H 739.656 3.65514 -3.76165 0
M  V30 7719 H 741.13 4.88403 -2.57229 0
M  V30 7720 H 741.607 4.27957 -0.987407 0
M  V30 7721 H 742.213 3.47433 -2.45296 0
M  V30 7722 N 740.528 1.15101 1.07655 0
M  V30 7723 C 741.753 0.948177 1.84457 0
M  V30 7724 C 742.178 -0.498432 1.81376 0
M  V30 7725 O 741.536 -1.35509 1.20445 0
M  V30 7726 C 741.584 1.46318 3.29581 0
M  V30 7727 O 740.688 0.660342 4.07079 0
M  V30 7728 H 740.029 0.338428 0.571281 0
M  V30 7729 H 742.559 1.5301 1.35828 0
M  V30 7730 H 742.569 1.47468 3.80417 0
M  V30 7731 H 741.244 2.51635 3.31138 0
M  V30 7732 H 739.821 0.718216 3.65918 0
M  V30 7733 N 742.006 -1.2595 0.947325 0
M  V30 7734 C 743.283 -1.88676 0.515824 0
M  V30 7735 C 743.663 -1.85547 -1.00675 0
M  V30 7736 O 743.011 -1.31399 -1.8694 0
M  V30 7737 C 743.221 -3.31734 1.08415 0
M  V30 7738 C 744.569 -4.08545 1.15654 0
M  V30 7739 O 745.593 -3.40826 1.03517 0
M  V30 7740 O 744.452 -5.29663 1.34608 0
M  V30 7741 H 741.546 -0.809537 0.169055 0
M  V30 7742 H 744.092 -1.34075 1.04029 0
M  V30 7743 H 742.864 -3.28404 2.1276 0
M  V30 7744 H 742.487 -3.93882 0.542499 0
M  V30 7745 N 743.484 -0.715051 -1.40445 0
M  V30 7746 C 744.414 -0.0768699 -2.33373 0
M  V30 7747 C 745.395 0.746109 -1.52863 0
M  V30 7748 O 746.58 0.695142 -1.81332 0
M  V30 7749 C 743.71 0.846014 -3.36838 0
M  V30 7750 C 742.664 0.128694 -4.27806 0
M  V30 7751 C 741.99 1.16726 -5.21804 0
M  V30 7752 C 743.29 -1.01679 -5.12307 0
M  V30 7753 H 744.984 -0.853061 -2.8699 0
M  V30 7754 H 742.53 -0.41167 -1.3799 0
M  V30 7755 H 744.483 1.30185 -4.00786 0
M  V30 7756 H 743.207 1.6541 -2.81615 0
M  V30 7757 H 741.866 -0.307314 -3.6531 0
M  V30 7758 H 741.514 1.96838 -4.62887 0
M  V30 7759 H 741.214 0.692188 -5.83509 0
M  V30 7760 H 742.738 1.62321 -5.88629 0
M  V30 7761 H 744.152 -0.640337 -5.69713 0
M  V30 7762 H 742.549 -1.4202 -5.83053 0
M  V30 7763 H 743.619 -1.84769 -4.48317 0
M  V30 7764 N 744.962 1.50701 -0.461195 0
M  V30 7765 C 746.208 2.02566 0.0973411 0
M  V30 7766 C 746.541 1.3432 1.40257 0
M  V30 7767 O 745.816 0.465692 1.88843 0
M  V30 7768 C 746.099 3.58919 0.291423 0
M  V30 7769 C 745.952 4.37751 -1.03413 0
M  V30 7770 C 747.271 4.27379 1.05048 0
M  V30 7771 H 744.39 0.73622 0.0339026 0
M  V30 7772 H 747.032 1.80115 -0.604855 0
M  V30 7773 H 745.182 3.78179 0.889539 0
M  V30 7774 H 746.854 4.30085 -1.66806 0
M  V30 7775 H 745.097 4.01885 -1.63313 0
M  V30 7776 H 745.768 5.45384 -0.852085 0
M  V30 7777 H 748.244 4.12534 0.543603 0
M  V30 7778 H 747.12 5.36609 1.15506 0
M  V30 7779 H 747.381 3.89868 2.0846 0
M  V30 7780 N 746.441 0.193421 1.56409 0
M  V30 7781 C 747.689 -0.444908 1.97142 0
M  V30 7782 C 748.01 -1.62268 1.08139 0
M  V30 7783 O 747.28 -1.95307 0.152326 0
M  V30 7784 H 745.86 -0.16736 0.728011 0
M  V30 7785 H 748.522 0.279763 1.92882 0
M  V30 7786 H 747.618 -0.790159 3.01932 0
M  V30 7787 N 747.919 -1.57396 -0.0801906 0
M  V30 7788 C 749.167 -1.86467 -0.779384 0
M  V30 7789 C 749.488 -0.784243 -1.78535 0
M  V30 7790 O 748.758 0.187986 -1.94996 0
M  V30 7791 H 747.338 -0.68806 -0.29083 0
M  V30 7792 H 750 -1.94813 -0.0582749 0
M  V30 7793 H 749.096 -2.83701 -1.30078 0
M  V30 7794 N 749.397 0.351382 -1.53633 0
M  V30 7795 C 750.327 1.43688 -1.84055 0
M  V30 7796 C 751.308 1.55251 -0.695073 0
M  V30 7797 O 752.493 1.69587 -0.946257 0
M  V30 7798 C 749.623 2.80843 -2.04315 0
M  V30 7799 C 748.577 2.84094 -3.20117 0
M  V30 7800 C 747.903 4.2406 -3.25696 0
M  V30 7801 C 749.203 2.50334 -4.58399 0
M  V30 7802 H 750.897 1.18478 -2.74961 0
M  V30 7803 H 748.443 0.568509 -1.32303 0
M  V30 7804 H 750.396 3.56821 -2.2418 0
M  V30 7805 H 749.12 3.07471 -1.10132 0
M  V30 7806 H 747.779 2.10568 -3.00094 0
M  V30 7807 H 747.427 4.47785 -2.29123 0
M  V30 7808 H 747.127 4.27147 -4.03509 0
M  V30 7809 H 748.651 5.0189 -3.47762 0
M  V30 7810 H 750.065 3.16025 -4.78332 0
M  V30 7811 H 748.462 2.64717 -5.38558 0
M  V30 7812 H 749.532 1.45542 -4.62543 0
M  V30 7813 N 750.875 1.45233 0.611969 0
M  V30 7814 C 751.808 1.48056 1.73651 0
M  V30 7815 C 752.786 0.337373 1.59061 0
M  V30 7816 O 753.97 0.537222 1.80683 0
M  V30 7817 C 751.097 1.33144 3.11433 0
M  V30 7818 C 750.143 2.51272 3.44623 0
M  V30 7819 S 750.976 4.13754 3.39953 0
M  V30 7820 C 752.132 4.013 4.80322 0
M  V30 7821 H 752.365 2.43205 1.70993 0
M  V30 7822 H 749.898 1.32763 0.788246 0
M  V30 7823 H 751.856 1.25228 3.90932 0
M  V30 7824 H 750.517 0.394734 3.1161 0
M  V30 7825 H 749.71 2.36753 4.44932 0
M  V30 7826 H 749.312 2.56027 2.72629 0
M  V30 7827 H 751.604 3.66174 5.7002 0
M  V30 7828 H 752.547 5.01506 4.99897 0
M  V30 7829 H 752.955 3.3303 4.55797 0
M  V30 7830 N 752.353 -0.854086 1.3245 0
M  V30 7831 C 753.581 -1.64074 1.26045 0
M  V30 7832 C 753.996 -1.8802 -0.171456 0
M  V30 7833 O 753.353 -1.4496 -1.10873 0
M  V30 7834 C 753.404 -2.9997 2.01743 0
M  V30 7835 O 753.125 -2.77084 3.39346 0
M  V30 7836 C 754.626 -3.94414 2.02368 0
M  V30 7837 H 751.846 -0.511015 0.434862 0
M  V30 7838 H 754.39 -1.06494 1.74583 0
M  V30 7839 H 752.545 -3.54193 1.56926 0
M  V30 7840 H 752.959 -3.63514 3.78098 0
M  V30 7841 H 754.433 -4.87032 2.59815 0
M  V30 7842 H 754.91 -4.27427 1.01009 0
M  V30 7843 H 755.516 -3.46127 2.47135 0
M  V30 7844 N 753.831 -1.1567 -1.07043 0
M  V30 7845 C 755.108 -0.843948 -1.76456 0
M  V30 7846 C 755.488 0.659806 -2.00524 0
M  V30 7847 O 754.836 1.60518 -1.62623 0
M  V30 7848 C 755.046 -1.65822 -3.0709 0
M  V30 7849 C 756.394 -1.8664 -3.8138 0
M  V30 7850 O 757.418 -1.62624 -3.1691 0
M  V30 7851 O 756.277 -2.26884 -4.97178 0
M  V30 7852 H 753.371 -0.310677 -0.766426 0
M  V30 7853 H 755.917 -1.26266 -1.1338 0
M  V30 7854 H 754.689 -2.67902 -2.85209 0
M  V30 7855 H 754.312 -1.23605 -3.77899 0
M  V30 7856 N 755.309 1.25446 -0.953992 0
M  V30 7857 C 756.557 1.92762 -0.607227 0
M  V30 7858 C 756.878 1.7509 0.858399 0
M  V30 7859 O 756.148 1.11416 1.61132 0
M  V30 7860 H 754.728 0.713377 -0.221591 0
M  V30 7861 H 757.39 1.52625 -1.21209 0
M  V30 7862 H 756.486 3.00695 -0.835998 0
M  V30 7863 N 756.787 0.722489 1.40064 0
M  V30 7864 C 757.717 0.0892452 2.33329 0
M  V30 7865 C 758.698 -0.737992 1.53257 0
M  V30 7866 O 759.883 -0.685516 1.81698 0
M  V30 7867 C 757.013 -0.828139 3.37282 0
M  V30 7868 C 755.967 -0.106005 4.27869 0
M  V30 7869 C 755.293 -1.13957 5.22415 0
M  V30 7870 C 756.593 1.04395 5.11761 0
M  V30 7871 H 758.287 0.868269 2.86534 0
M  V30 7872 H 755.833 0.418982 1.3777 0
M  V30 7873 H 757.786 -1.28058 4.01471 0
M  V30 7874 H 756.51 -1.63914 2.82489 0
M  V30 7875 H 755.169 0.326683 3.65142 0
M  V30 7876 H 754.817 -1.9438 4.63924 0
M  V30 7877 H 754.517 -0.661233 5.83868 0
M  V30 7878 H 756.041 -1.59197 5.89482 0
M  V30 7879 H 757.455 0.670541 5.69365 0
M  V30 7880 H 755.852 1.4511 5.82291 0
M  V30 7881 H 756.922 1.87144 4.47331 0
M  V30 7882 N 758.265 -1.50454 0.469181 0
M  V30 7883 C 759.681 -1.59124 0.123226 0
M  V30 7884 C 759.881 -1.47749 -1.37013 0
M  V30 7885 O 758.937 -1.335 -2.14322 0
M  V30 7886 C 760.25 -2.93101 0.67172 0
M  V30 7887 C 761.798 -3.06491 0.634978 0
M  V30 7888 C 762.273 -4.43041 1.16098 0
M  V30 7889 N 763.764 -4.49448 1.12031 0
M  V30 7890 C 764.499 -5.53491 1.49784 0
M  V30 7891 N 763.995 -6.64798 1.94976 0
M  V30 7892 N 765.788 -5.44025 1.41399 0
M  V30 7893 H 757.939 -1.56091 1.44046 0
M  V30 7894 H 760.202 -0.737564 0.59557 0
M  V30 7895 H 759.908 -3.06895 1.7178 0
M  V30 7896 H 759.782 -3.77027 0.114222 0
M  V30 7897 H 762.169 -2.92346 -0.402187 0
M  V30 7898 H 762.25 -2.24328 1.22926 0
M  V30 7899 H 761.894 -4.57935 2.19677 0
M  V30 7900 H 761.824 -5.23794 0.542939 0
M  V30 7901 H 764.315 -3.69575 0.788828 0
M  V30 7902 H 764.628 -7.40246 2.21936 0
M  V30 7903 H 762.973 -6.65923 1.98927 0
M  V30 7904 H 766.164 -4.55955 1.05935 0
M  V30 7905 H 766.337 -6.2499 1.71147 0
M  V30 7906 N 759.743 -0.201713 -1.56304 0
M  V30 7907 C 761.159 0.154025 -1.58855 0
M  V30 7908 C 761.359 1.60516 -1.21807 0
M  V30 7909 O 760.415 2.34193 -0.94393 0
M  V30 7910 C 761.728 -0.154319 -3.00304 0
M  V30 7911 C 763.276 -0.0949578 -3.12856 0
M  V30 7912 C 763.751 -0.376703 -4.56448 0
M  V30 7913 N 765.242 -0.325558 -4.62054 0
M  V30 7914 C 765.977 -0.51732 -5.71062 0
M  V30 7915 N 765.473 -0.769789 -6.8851 0
M  V30 7916 N 767.266 -0.45112 -5.60287 0
M  V30 7917 H 759.417 -1.14858 -1.78666 0
M  V30 7918 H 761.68 -0.458934 -0.829508 0
M  V30 7919 H 761.386 -1.16074 -3.31994 0
M  V30 7920 H 761.26 0.540014 -3.73314 0
M  V30 7921 H 763.647 0.902075 -2.80974 0
M  V30 7922 H 763.728 -0.822468 -2.42217 0
M  V30 7923 H 763.372 -1.37108 -4.89044 0
M  V30 7924 H 763.302 0.371772 -5.25286 0
M  V30 7925 H 765.793 -0.137308 -3.7765 0
M  V30 7926 H 766.106 -0.904744 -7.67486 0
M  V30 7927 H 764.451 -0.806758 -6.90302 0
M  V30 7928 H 767.642 -0.254253 -4.67409 0
M  V30 7929 H 767.815 -0.603982 -6.45179 0
M  V30 7930 N 761.222 1.57436 0.0718424 0
M  V30 7931 C 762.152 2.06724 1.08571 0
M  V30 7932 C 763.133 0.960731 1.40371 0
M  V30 7933 O 764.318 1.23345 1.49999 0
M  V30 7934 C 761.448 2.51112 2.39916 0
M  V30 7935 C 760.402 3.65639 2.22469 0
M  V30 7936 C 759.728 3.96082 3.59198 0
M  V30 7937 C 761.028 4.95687 1.64596 0
M  V30 7938 H 762.722 2.91679 0.675569 0
M  V30 7939 H 760.268 1.40319 0.32352 0
M  V30 7940 H 762.221 2.84206 3.11135 0
M  V30 7941 H 760.945 1.63186 2.8291 0
M  V30 7942 H 759.604 3.32828 1.53691 0
M  V30 7943 H 759.252 3.05287 3.99761 0
M  V30 7944 H 758.952 4.73199 3.48362 0
M  V30 7945 H 760.476 4.31672 4.31847 0
M  V30 7946 H 761.89 5.27011 2.25681 0
M  V30 7947 H 760.287 5.77126 1.64457 0
M  V30 7948 H 761.357 4.8108 0.60744 0
M  V30 7949 N 762.7 -0.34323 1.53817 0
M  V30 7950 C 763.925 -1.1079 1.75329 0
M  V30 7951 C 764.35 -1.81571 0.491293 0
M  V30 7952 O 763.708 -1.72561 -0.556089 0
M  V30 7953 C 763.756 -2.09681 2.9337 0
M  V30 7954 O 762.86 -3.17207 2.63541 0
M  V30 7955 H 762.201 -0.320402 0.581583 0
M  V30 7956 H 764.731 -0.393525 2.0078 0
M  V30 7957 H 764.741 -2.52897 3.20168 0
M  V30 7958 H 763.416 -1.5756 3.84899 0
M  V30 7959 H 761.993 -2.78806 2.47632 0
M  V30 7960 N 764.178 -1.45556 -0.604258 0
M  V30 7961 C 765.426 -1.4945 -1.36048 0
M  V30 7962 C 765.747 -0.138933 -1.94504 0
M  V30 7963 O 765.017 0.832097 -1.7735 0
M  V30 7964 H 763.597 -0.550381 -0.505064 0
M  V30 7965 H 766.259 -1.81535 -0.709308 0
M  V30 7966 H 765.355 -2.23519 -2.17821 0
M  V30 7967 N 765.656 0.84705 -1.32902 0
M  V30 7968 C 766.604 1.97765 -1.22441 0
M  V30 7969 C 767.598 1.68919 -0.127546 0
M  V30 7970 O 768.804 1.77633 -0.290973 0
M  V30 7971 H 765.179 0.649072 -0.379748 0
M  V30 7972 H 767.15 2.03713 -2.18044 0
M  V30 7973 C 765.899 3.33834 -0.972125 0
M  V30 7974 H 765.222 3.56564 -1.80837 0
M  V30 7975 H 766.662 4.13467 -0.939209 0
M  V30 7976 C 765.121 3.35328 0.325059 0
M  V30 7977 O 765.651 3.78887 1.33445 0
M  V30 7978 N 763.857 2.88488 0.349718 0
M  V30 7979 H 763.404 2.53234 -0.472236 0
M  V30 7980 H 763.362 2.8987 1.21748 0
M  V30 7981 N 767.134 1.16236 1.06428 0
M  V30 7982 C 768.044 0.881976 2.1739 0
M  V30 7983 C 769.06 -0.145259 1.73393 0
M  V30 7984 O 770.236 0.0310558 2.01376 0
M  V30 7985 C 767.301 0.385496 3.4455 0
M  V30 7986 C 766.362 1.47779 4.03063 0
M  V30 7987 C 765.595 1.0049 5.24154 0
M  V30 7988 O 765.818 -0.145889 5.70213 0
M  V30 7989 O 764.752 1.79265 5.74585 0
M  V30 7990 H 768.578 1.80983 2.43883 0
M  V30 7991 H 766.163 0.942226 1.15942 0
M  V30 7992 H 768.045 0.115536 4.21242 0
M  V30 7993 H 766.72 -0.514369 3.19587 0
M  V30 7994 H 765.627 1.80147 3.27869 0
M  V30 7995 H 766.96 2.35291 4.32318 0
M  V30 7996 N 768.612 -1.24939 0.960631 0
M  V30 7997 C 769.842 -1.96595 0.635123 0
M  V30 7998 C 770.25 -1.71538 -0.798206 0
M  V30 7999 O 769.593 -0.991727 -1.5463 0
M  V30 8000 C 769.655 -3.49994 0.821248 0
M  V30 8001 C 769.319 -3.98738 2.23287 0
M  V30 8002 C 770.316 -4.08965 3.21004 0
M  V30 8003 C 768.001 -4.32247 2.55867 0
M  V30 8004 C 769.995 -4.52025 4.49391 0
M  V30 8005 C 767.682 -4.74991 3.84482 0
M  V30 8006 C 768.68 -4.84844 4.81056 0
M  V30 8007 O 768.368 -5.26638 6.07378 0
M  V30 8008 H 768.1 -0.633265 0.23654 0
M  V30 8009 H 770.654 -1.5991 1.28911 0
M  V30 8010 H 768.884 -3.86543 0.110105 0
M  V30 8011 H 770.573 -4.02859 0.495892 0
M  V30 8012 H 771.339 -3.83302 2.97161 0
M  V30 8013 H 767.218 -4.23801 1.81421 0
M  V30 8014 H 770.762 -4.5963 5.24773 0
M  V30 8015 H 766.659 -5.00101 4.08129 0
M  V30 8016 H 767.427 -5.44807 6.10842 0
M  V30 8017 N 770.09 -0.729906 -1.39679 0
M  V30 8018 C 771.336 -0.27603 -2.00913 0
M  V30 8019 C 771.669 1.13227 -1.57776 0
M  V30 8020 O 770.944 1.7709 -0.804319 0
M  V30 8021 C 771.227 -0.372157 -3.58172 0
M  V30 8022 C 771.08 -1.81986 -4.11341 0
M  V30 8023 C 772.399 0.248378 -4.39399 0
M  V30 8024 H 769.518 -0.101773 -0.729939 0
M  V30 8025 H 772.16 -0.925104 -1.65957 0
M  V30 8026 H 770.31 0.180459 -3.88081 0
M  V30 8027 H 771.982 -2.42896 -3.92172 0
M  V30 8028 H 770.225 -2.34287 -3.65092 0
M  V30 8029 H 770.896 -1.83842 -5.20486 0
M  V30 8030 H 773.372 -0.222645 -4.15504 0
M  V30 8031 H 772.248 0.150746 -5.48693 0
M  V30 8032 H 772.509 1.33378 -4.21501 0
M  V30 8033 N 771.568 1.50203 -0.477153 0
M  V30 8034 C 772.815 2.02358 0.0757385 0
M  V30 8035 C 773.143 1.3587 1.39174 0
M  V30 8036 O 772.398 0.475415 1.89838 0
M  V30 8037 C 772.697 3.56127 0.301325 0
M  V30 8038 C 772.363 4.41126 -0.933725 0
M  V30 8039 C 771.025 4.64075 -1.27233 0
M  V30 8040 C 773.377 4.90737 -1.75576 0
M  V30 8041 C 770.705 5.33878 -2.43292 0
M  V30 8042 C 773.057 5.61816 -2.90768 0
M  V30 8043 C 771.721 5.83016 -3.25036 0
M  V30 8044 H 770.991 0.740482 0.0277147 0
M  V30 8045 H 773.638 1.80754 -0.632467 0
M  V30 8046 H 771.943 3.76279 1.09183 0
M  V30 8047 H 773.64 3.94053 0.743184 0
M  V30 8048 H 770.23 4.23489 -0.659935 0
M  V30 8049 H 774.414 4.72856 -1.50734 0
M  V30 8050 H 769.67 5.48499 -2.70109 0
M  V30 8051 H 773.844 5.99237 -3.54807 0
M  V30 8052 H 771.471 6.36881 -4.15074 0
M  V30 8053 N 773.046 0.209999 1.56195 0
M  V30 8054 C 774.274 -0.429996 2.02382 0
M  V30 8055 C 774.689 -1.54159 1.08998 0
M  V30 8056 O 774.046 -1.82239 0.0974856 0
M  V30 8057 C 774.097 -0.972433 3.48175 0
M  V30 8058 O 773.818 0.0948231 4.37997 0
M  V30 8059 C 775.319 -1.68683 4.09952 0
M  V30 8060 H 772.539 -0.106475 0.662498 0
M  V30 8061 H 775.083 0.323072 2.01932 0
M  V30 8062 H 773.238 -1.67582 3.49278 0
M  V30 8063 H 773.652 -0.31113 5.23576 0
M  V30 8064 H 775.126 -2.01851 5.13771 0
M  V30 8065 H 775.603 -2.59587 3.54276 0
M  V30 8066 H 776.209 -1.02893 4.12666 0
M  V30 8067 N 774.524 -1.57472 -0.0634922 0
M  V30 8068 C 775.471 -2.04258 -1.07457 0
M  V30 8069 C 776.441 -0.924804 -1.37973 0
M  V30 8070 O 777.626 -1.19305 -1.48899 0
M  V30 8071 C 774.766 -2.49832 -2.38071 0
M  V30 8072 C 773.879 -3.75263 -2.14014 0
M  V30 8073 C 773.014 -4.09585 -3.38251 0
M  V30 8074 C 772.053 -5.28032 -3.09594 0
M  V30 8075 N 771.19 -5.57953 -4.26185 0
M  V30 8076 H 776.03 -2.90402 -0.668626 0
M  V30 8077 H 773.567 -1.43609 -0.318572 0
M  V30 8078 H 775.525 -2.7431 -3.14341 0
M  V30 8079 H 774.155 -1.66654 -2.76453 0
M  V30 8080 H 773.207 -3.58075 -1.28399 0
M  V30 8081 H 774.519 -4.61667 -1.88852 0
M  V30 8082 H 773.673 -4.35008 -4.2291 0
M  V30 8083 H 772.412 -3.21765 -3.66495 0
M  V30 8084 H 771.417 -5.02397 -2.23332 0
M  V30 8085 H 772.642 -6.17477 -2.82663 0
M  V30 8086 H 770.588 -4.73092 -4.54445 0
M  V30 8087 H 770.505 -6.38793 -4.04326 0
M  V30 8088 H 771.773 -5.87931 -5.11817 0
M  V30 8089 N 776.003 0.335068 -1.53997 0
M  V30 8090 C 776.951 1.43206 -1.83289 0
M  V30 8091 C 777.945 1.54081 -0.703953 0
M  V30 8092 O 779.151 1.56603 -0.887432 0
M  V30 8093 H 775.526 0.477655 -0.580818 0
M  V30 8094 H 777.497 1.15719 -2.75049 0
M  V30 8095 C 776.246 2.79602 -2.06683 0
M  V30 8096 H 775.569 2.72004 -2.93008 0
M  V30 8097 H 777.009 3.55459 -2.31139 0
M  V30 8098 C 775.468 3.25873 -0.854883 0
M  V30 8099 O 775.998 4.01657 -0.0584648 0
M  V30 8100 N 774.204 2.82777 -0.669729 0
M  V30 8101 H 773.751 2.21269 -1.31901 0
M  V30 8102 H 773.709 3.1409 0.13969 0
M  V30 8103 N 777.481 1.45874 0.596531 0
M  V30 8104 C 778.727 1.5069 1.35722 0
M  V30 8105 C 779.06 0.152506 1.936 0
M  V30 8106 O 778.335 -0.834411 1.75692 0
M  V30 8107 C 778.618 2.59474 2.4969 0
M  V30 8108 C 778.471 4.04396 1.96937 0
M  V30 8109 C 779.79 2.64451 3.51787 0
M  V30 8110 H 776.909 0.548611 0.492133 0
M  V30 8111 H 779.551 1.77741 0.671428 0
M  V30 8112 H 777.701 2.36539 3.08191 0
M  V30 8113 H 779.373 4.38576 1.43 0
M  V30 8114 H 777.616 4.14529 1.27859 0
M  V30 8115 H 778.287 4.76218 2.79143 0
M  V30 8116 H 780.763 2.85031 3.03145 0
M  V30 8117 H 779.639 3.42411 4.29006 0
M  V30 8118 H 779.9 1.69965 4.08123 0
M  V30 8119 N 778.959 -0.83999 1.33349 0
M  V30 8120 C 779.909 -1.93817 1.20079 0
M  V30 8121 C 780.893 -1.60564 0.103978 0
M  V30 8122 O 782.085 -1.73859 0.331964 0
M  V30 8123 C 779.214 -3.30151 0.941031 0
M  V30 8124 C 778.3 -3.69577 2.08023 0
M  V30 8125 N 778.691 -3.80707 3.3301 0
M  V30 8126 C 776.989 -3.99309 1.98667 0
M  V30 8127 C 777.69 -4.14899 4.07717 0
M  V30 8128 N 776.666 -4.27208 3.36146 0
M  V30 8129 H 780.468 -2.00576 2.14817 0
M  V30 8130 H 777.982 -1.03264 1.2534 0
M  V30 8131 H 779.979 -4.08617 0.826894 0
M  V30 8132 H 778.639 -3.247 0.00216738 0
M  V30 8133 H 779.65 -3.64644 3.67771 0
M  V30 8134 H 776.327 -4.02076 1.12433 0
M  V30 8135 H 777.717 -4.30857 5.15569 0
M  V30 8136 N 780.437 -1.16799 -1.0581 0
M  V30 8137 C 781.369 -0.836774 -2.13379 0
M  V30 8138 C 782.382 0.158116 -1.6203 0
M  V30 8139 O 783.571 -0.0673211 -1.78373 0
M  V30 8140 C 780.671 -0.225959 -3.38146 0
M  V30 8141 C 779.844 -1.26217 -4.18794 0
M  V30 8142 C 778.903 -0.670257 -5.21914 0
M  V30 8143 O 777.929 -1.34042 -5.53192 0
M  V30 8144 N 779.131 0.540683 -5.77977 0
M  V30 8145 H 781.896 -1.76257 -2.42391 0
M  V30 8146 H 779.457 -1.06599 -1.21853 0
M  V30 8147 H 781.449 0.18317 -4.04285 0
M  V30 8148 H 780.019 0.603494 -3.06719 0
M  V30 8149 H 779.239 -1.84729 -3.48237 0
M  V30 8150 H 780.527 -1.9613 -4.69479 0
M  V30 8151 H 779.925 1.10322 -5.54838 0
M  V30 8152 H 778.482 0.891958 -6.45668 0
M  V30 8153 N 781.915 1.24427 -0.967243 0
M  V30 8154 C 783.14 1.9708 -0.646069 0
M  V30 8155 C 783.565 1.71272 0.777665 0
M  V30 8156 O 782.923 0.976179 1.52776 0
M  V30 8157 C 782.971 3.48501 -0.926266 0
M  V30 8158 O 782.075 4.12398 -0.0114653 0
M  V30 8159 H 781.416 0.617423 -0.244304 0
M  V30 8160 H 783.946 1.58215 -1.29727 0
M  V30 8161 H 783.956 3.98885 -0.857619 0
M  V30 8162 H 782.631 3.66613 -1.96386 0
M  V30 8163 H 781.208 3.72661 -0.133396 0
M  V30 8164 N 783.393 0.737304 1.3929 0
M  V30 8165 C 784.343 0.0748537 2.27877 0
M  V30 8166 C 785.327 -0.71022 1.44377 0
M  V30 8167 O 786.519 -0.578851 1.67267 0
M  V30 8168 C 783.648 -0.82991 3.33118 0
M  V30 8169 C 782.734 -0.0388619 4.24082 0
M  V30 8170 N 783.125 0.989182 4.96033 0
M  V30 8171 C 781.423 -0.268167 4.45193 0
M  V30 8172 C 782.124 1.46639 5.62914 0
M  V30 8173 N 781.1 0.784581 5.37908 0
M  V30 8174 H 784.902 0.862457 2.80961 0
M  V30 8175 H 782.416 0.571845 1.51999 0
M  V30 8176 H 784.413 -1.31999 3.95452 0
M  V30 8177 H 783.073 -1.61665 2.81593 0
M  V30 8178 H 784.084 1.3706 4.99435 0
M  V30 8179 H 780.761 -1.02953 4.04607 0
M  V30 8180 H 782.151 2.32182 6.30508 0
M  V30 8181 N 784.871 -1.49948 0.485112 0
M  V30 8182 C 786.096 -2.073 -0.0645059 0
M  V30 8183 C 786.521 -1.345 -1.31497 0
M  V30 8184 O 785.879 -0.39687 -1.76903 0
M  V30 8185 C 785.927 -3.59201 -0.317304 0
M  V30 8186 O 785.031 -3.88085 -1.39514 0
M  V30 8187 H 784.372 -0.663723 0.0191822 0
M  V30 8188 H 786.902 -1.92963 0.680179 0
M  V30 8189 H 786.912 -4.04227 -0.553604 0
M  V30 8190 H 785.587 -4.11602 0.596387 0
M  V30 8191 H 784.164 -3.54885 -1.14504 0
M  V30 8192 N 786.349 -0.21828 -1.56081 0
M  V30 8193 C 787.299 0.706492 -2.16778 0
M  V30 8194 C 788.283 1.15987 -1.11516 0
M  V30 8195 O 789.475 1.11441 -1.37513 0
M  V30 8196 C 786.604 1.91583 -2.8487 0
M  V30 8197 C 785.69 1.48228 -3.97353 0
M  V30 8198 N 786.081 0.761113 -5.00041 0
M  V30 8199 C 784.379 1.76982 -4.09382 0
M  V30 8200 C 785.08 0.540496 -5.79184 0
M  V30 8201 N 784.056 1.09622 -5.32432 0
M  V30 8202 H 787.858 0.147038 -2.93532 0
M  V30 8203 H 785.372 -0.0194049 -1.62388 0
M  V30 8204 H 787.369 2.58906 -3.26762 0
M  V30 8205 H 786.029 2.47979 -2.09611 0
M  V30 8206 H 787.04 0.414141 -5.16241 0
M  V30 8207 H 783.717 2.34721 -3.45271 0
M  V30 8208 H 785.107 -0.0332531 -6.71892 0
M  V30 8209 N 787.827 1.57504 0.0551401 0
M  V30 8210 C 788.757 2.07864 1.06372 0
M  V30 8211 C 789.738 0.975565 1.39344 0
M  V30 8212 O 790.923 1.24929 1.48682 0
M  V30 8213 C 788.053 2.53643 2.3724 0
M  V30 8214 C 787.007 3.67978 2.18578 0
M  V30 8215 C 786.333 3.9987 3.54976 0
M  V30 8216 C 787.633 4.97405 1.59329 0
M  V30 8217 H 789.327 2.92379 0.644595 0
M  V30 8218 H 786.873 1.40654 0.308619 0
M  V30 8219 H 788.826 2.8749 3.08103 0
M  V30 8220 H 787.55 1.66177 2.81163 0
M  V30 8221 H 786.209 3.3444 1.50152 0
M  V30 8222 H 785.857 3.0951 3.965 0
M  V30 8223 H 785.557 4.76867 3.43324 0
M  V30 8224 H 787.081 4.36228 4.27244 0
M  V30 8225 H 788.495 5.29375 2.20078 0
M  V30 8226 H 786.892 5.78837 1.58327 0
M  V30 8227 H 787.962 4.81697 0.55638 0
M  V30 8228 N 789.305 -0.326896 1.54172 0
M  V30 8229 C 790.268 -1.38515 1.8261 0
M  V30 8230 C 791.268 -1.44872 0.697771 0
M  V30 8231 O 792.458 -1.44957 0.966078 0
M  V30 8232 C 789.59 -2.77281 1.98313 0
M  V30 8233 H 790.783 -1.14556 2.77159 0
M  V30 8234 H 788.336 -0.562199 1.45839 0
M  V30 8235 H 789.071 -3.065 1.05964 0
M  V30 8236 H 788.856 -2.74061 2.80416 0
M  V30 8237 H 790.346 -3.53845 2.21773 0
M  V30 8238 N 790.784 -1.46188 -0.588786 0
M  V30 8239 C 791.717 -1.508 -1.71274 0
M  V30 8240 C 792.695 -0.362635 -1.58505 0
M  V30 8241 O 793.879 -0.565899 -1.79805 0
M  V30 8242 C 791.006 -1.38082 -3.09275 0
M  V30 8243 C 790.052 -2.56723 -3.40581 0
M  V30 8244 S 790.885 -4.1911 -3.33327 0
M  V30 8245 C 792.041 -4.08891 -4.73877 0
M  V30 8246 H 792.274 -2.45895 -1.67102 0
M  V30 8247 H 789.807 -1.34 -0.767025 0
M  V30 8248 H 791.765 -1.31432 -3.88891 0
M  V30 8249 H 790.426 -0.444259 -3.10942 0
M  V30 8250 H 789.619 -2.43801 -4.41109 0
M  V30 8251 H 789.221 -2.60332 -2.68521 0
M  V30 8252 H 791.513 -3.75196 -5.64123 0
M  V30 8253 H 792.456 -5.09395 -4.91856 0
M  V30 8254 H 792.864 -3.40239 -4.50441 0
M  V30 8255 N 792.262 0.832906 -1.33792 0
M  V30 8256 C 793.673 1.40489 -1.22963 0
M  V30 8257 C 794.024 1.95633 0.149026 0
M  V30 8258 O 793.149 1.8928 1.04891 0
M  V30 8259 C 793.744 2.55387 -2.22627 0
M  V30 8260 C 792.303 3.08522 -2.15618 0
M  V30 8261 C 791.45 1.81347 -2.09782 0
M  V30 8262 H 794.401 0.638156 -1.45304 0
M  V30 8263 H 794.422 3.33193 -1.83746 0
M  V30 8264 H 793.934 2.15222 -3.22957 0
M  V30 8265 H 792.035 3.53217 -1.18611 0
M  V30 8266 H 792.148 3.6829 -3.0643 0
M  V30 8267 H 790.512 2.01839 -1.55349 0
M  V30 8268 H 791.295 1.43369 -3.1193 0
M  V30 8269 N 793.74 1.17359 1.05189 0
M  V30 8270 C 794.989 0.956412 1.77583 0
M  V30 8271 C 795.302 -0.516018 1.88671 0
M  V30 8272 O 796.508 -0.851401 2.57805 0
M  V30 8273 C 794.964 1.66203 3.19225 0
M  V30 8274 C 794.572 3.17299 3.16267 0
M  V30 8275 C 796.316 1.52725 3.96075 0
M  V30 8276 C 794.223 3.8055 4.52698 0
M  V30 8277 H 793.153 0.354204 0.665624 0
M  V30 8278 H 795.804 1.40612 1.17901 0
M  V30 8279 H 794.186 1.14006 3.79234 0
M  V30 8280 H 795.36 3.76431 2.65776 0
M  V30 8281 H 793.675 3.3079 2.52917 0
M  V30 8282 H 796.272 1.97351 4.96947 0
M  V30 8283 H 796.615 0.477803 4.13549 0
M  V30 8284 H 797.148 2.02139 3.42614 0
M  V30 8285 H 793.887 4.85492 4.4043 0
M  V30 8286 H 793.407 3.26206 5.03339 0
M  V30 8287 H 795.086 3.82757 5.21638 0
M  V30 8288 N 795.218 -1.23913 0.973828 0
M  V30 8289 C 796.446 -1.96195 0.656891 0
M  V30 8290 C 796.861 -1.72166 -0.774876 0
M  V30 8291 O 796.218 -1.0091 -1.52064 0
M  V30 8292 C 796.269 -3.49342 0.929638 0
M  V30 8293 O 795.99 -3.72553 2.30512 0
M  V30 8294 C 797.491 -4.38833 0.627739 0
M  V30 8295 H 794.711 -0.624841 0.244572 0
M  V30 8296 H 797.255 -1.57579 1.30343 0
M  V30 8297 H 795.41 -3.85999 0.329216 0
M  V30 8298 H 795.824 -4.66893 2.3898 0
M  V30 8299 H 797.298 -5.45117 0.868991 0
M  V30 8300 H 797.775 -4.37009 -0.438104 0
M  V30 8301 H 798.381 -4.07773 1.20834 0
M  V30 8302 N 796.696 -0.74468 -1.38897 0
M  V30 8303 C 797.945 -0.293716 -1.9955 0
M  V30 8304 C 798.258 1.12831 -1.59777 0
M  V30 8305 O 799.464 1.67929 -2.13336 0
M  V30 8306 C 797.92 -0.474188 -3.56762 0
M  V30 8307 C 797.528 -1.90472 -4.05493 0
M  V30 8308 C 799.272 -0.0854875 -4.24414 0
M  V30 8309 C 797.179 -2.03423 -5.55314 0
M  V30 8310 H 796.109 -0.106066 -0.746502 0
M  V30 8311 H 798.76 -0.919948 -1.58774 0
M  V30 8312 H 797.142 0.221092 -3.95382 0
M  V30 8313 H 798.316 -2.63274 -3.78184 0
M  V30 8314 H 796.631 -2.24752 -3.50536 0
M  V30 8315 H 799.228 -0.161133 -5.34457 0
M  V30 8316 H 799.571 0.96066 -4.05064 0
M  V30 8317 H 800.104 -0.732286 -3.91002 0
M  V30 8318 H 796.843 -3.0626 -5.79556 0
M  V30 8319 H 796.363 -1.3507 -5.84394 0
M  V30 8320 H 798.042 -1.81996 -6.20876 0
M  V30 8321 N 798.174 1.49689 -0.493057 0
M  V30 8322 C 799.122 2.30613 0.303383 0
M  V30 8323 C 800.116 1.38867 0.970165 0
M  V30 8324 O 801.322 1.55956 0.898761 0
M  V30 8325 H 797.697 0.742891 0.116691 0
M  V30 8326 H 799.668 2.95717 -0.39924 0
M  V30 8327 C 798.417 3.20008 1.35978 0
M  V30 8328 H 797.74 3.90526 0.856103 0
M  V30 8329 H 799.18 3.79586 1.88919 0
M  V30 8330 C 797.639 2.39079 2.37367 0
M  V30 8331 O 798.169 2.08933 3.43089 0
M  V30 8332 N 796.375 2.0125 2.09635 0
M  V30 8333 H 795.922 2.25966 1.23682 0
M  V30 8334 H 795.88 1.47408 2.77702 0
M  V30 8335 N 799.652 0.226554 1.55963 0
M  V30 8336 C 800.929 -0.453058 1.90281 0
M  V30 8337 C 801.309 -1.77377 1.14458 0
M  V30 8338 O 800.657 -2.27067 0.255496 0
M  V30 8339 C 800.867 -0.641108 3.43061 0
M  V30 8340 C 802.215 -0.946265 4.13921 0
M  V30 8341 O 803.239 -0.727713 3.48687 0
M  V30 8342 O 802.098 -1.36131 5.29274 0
M  V30 8343 H 799.192 -0.240242 0.791336 0
M  V30 8344 H 801.738 0.26911 1.67553 0
M  V30 8345 H 800.51 0.290283 3.90222 0
M  V30 8346 H 800.133 -1.41458 3.71585 0
M  V30 8347 N 801.13 -1.57531 -0.0467866 0
M  V30 8348 C 802.376 -1.8873 -0.742218 0
M  V30 8349 C 802.709 -0.822084 -1.75941 0
M  V30 8350 O 801.984 0.164922 -1.938 0
M  V30 8351 C 802.267 -3.30586 -1.42776 0
M  V30 8352 C 802.12 -4.47785 -0.425285 0
M  V30 8353 C 803.439 -3.71068 -2.36636 0
M  V30 8354 H 800.558 -0.686406 -0.268359 0
M  V30 8355 H 803.2 -1.89999 -0.00511341 0
M  V30 8356 H 801.35 -3.29634 -2.05605 0
M  V30 8357 H 803.022 -4.60867 0.199721 0
M  V30 8358 H 801.265 -4.33037 0.25713 0
M  V30 8359 H 801.936 -5.43884 -0.943086 0
M  V30 8360 H 804.412 -3.73273 -1.83866 0
M  V30 8361 H 803.288 -4.71165 -2.81593 0
M  V30 8362 H 803.549 -3.02355 -3.22542 0
M  V30 8363 N 802.608 0.318715 -1.54344 0
M  V30 8364 C 804.019 0.89285 -1.63967 0
M  V30 8365 C 804.37 1.88712 -0.536855 0
M  V30 8366 O 803.495 2.13877 0.329457 0
M  V30 8367 C 804.09 1.62618 -2.97222 0
M  V30 8368 C 802.649 2.14897 -3.09025 0
M  V30 8369 C 801.796 0.975909 -2.5956 0
M  V30 8370 H 804.747 0.0961687 -1.58408 0
M  V30 8371 H 804.768 2.4907 -2.87653 0
M  V30 8372 H 804.28 0.902286 -3.77466 0
M  V30 8373 H 802.381 2.90387 -2.33465 0
M  V30 8374 H 802.494 2.39565 -4.14904 0
M  V30 8375 H 800.858 1.35646 -2.15574 0
M  V30 8376 H 801.641 0.266253 -3.42266 0
M  V30 8377 N 804.086 1.46499 0.581025 0
M  V30 8378 C 805.497 1.4604 1.16315 0
M  V30 8379 C 805.848 0.202154 1.95156 0
M  V30 8380 O 804.973 -0.694638 2.04948 0
M  V30 8381 C 805.568 2.64593 2.11604 0
M  V30 8382 C 804.127 2.6717 2.65136 0
M  V30 8383 C 803.274 2.38753 1.4104 0
M  V30 8384 H 806.225 1.54354 0.368871 0
M  V30 8385 H 806.246 2.40207 2.95095 0
M  V30 8386 H 805.758 3.56154 1.54194 0
M  V30 8387 H 803.859 1.79685 3.26411 0
M  V30 8388 H 803.972 3.67182 3.07757 0
M  V30 8389 H 802.336 1.88845 1.70908 0
M  V30 8390 H 803.119 3.32493 0.854588 0
M  V30 8391 N 805.565 -0.825799 1.34232 0
M  V30 8392 C 806.805 -1.59541 1.27773 0
M  V30 8393 C 807.169 -1.91405 -0.150998 0
M  V30 8394 O 808.37 -2.66644 -0.339728 0
M  V30 8395 C 806.641 -2.86183 2.14089 0
M  V30 8396 S 808.2 -3.76751 2.24953 0
M  V30 8397 H 805.018 -0.546871 0.454371 0
M  V30 8398 H 807.62 -0.975677 1.69413 0
M  V30 8399 H 806.324 -2.60767 3.16905 0
M  V30 8400 H 805.855 -3.53155 1.73335 0
M  V30 8401 H 807.87 -4.75442 1.4202 0
M  V30 8402 N 807.043 -1.17915 -1.04565 0
M  V30 8403 C 808.292 -0.965816 -1.77073 0
M  V30 8404 C 808.605 0.506005 -1.88942 0
M  V30 8405 O 809.811 0.837717 -2.58253 0
M  V30 8406 C 808.267 -1.67894 -3.18339 0
M  V30 8407 C 807.875 -3.18972 -3.1458 0
M  V30 8408 C 809.619 -1.54823 -3.9526 0
M  V30 8409 C 807.526 -3.82946 -4.50674 0
M  V30 8410 H 806.456 -0.357729 -0.663736 0
M  V30 8411 H 809.107 -1.41235 -1.17153 0
M  V30 8412 H 807.489 -1.16016 -3.78624 0
M  V30 8413 H 808.663 -3.77835 -2.63776 0
M  V30 8414 H 806.978 -3.32127 -2.51159 0
M  V30 8415 H 809.575 -1.99984 -4.95894 0
M  V30 8416 H 809.918 -0.499727 -4.1329 0
M  V30 8417 H 810.451 -2.03953 -3.41538 0
M  V30 8418 H 807.19 -4.8782 -4.37849 0
M  V30 8419 H 806.71 -3.2887 -5.01602 0
M  V30 8420 H 808.389 -3.85518 -5.196 0
M  V30 8421 N 808.521 1.23394 -0.980386 0
M  V30 8422 C 809.746 1.96384 -0.666935 0
M  V30 8423 C 810.171 1.72087 0.759456 0
M  V30 8424 O 809.529 0.992328 1.51732 0
M  V30 8425 C 809.577 3.47499 -0.963177 0
M  V30 8426 O 808.681 4.12363 -0.0552051 0
M  V30 8427 H 808.022 0.614797 -0.250839 0
M  V30 8428 H 810.552 1.56831 -1.31398 0
M  V30 8429 H 810.562 3.97953 -0.899877 0
M  V30 8430 H 809.237 3.6451 -2.00264 0
M  V30 8431 H 807.814 3.72499 -0.172914 0
M  V30 8432 N 809.999 0.752036 1.385 0
M  V30 8433 C 810.931 0.0835089 2.29048 0
M  V30 8434 C 811.944 -0.685402 1.47669 0
M  V30 8435 O 813.133 -0.526748 1.70551 0
M  V30 8436 C 810.233 -0.905772 3.26572 0
M  V30 8437 C 809.406 -0.194828 4.36966 0
M  V30 8438 C 808.465 -1.09464 5.14688 0
M  V30 8439 O 807.491 -0.565743 5.66381 0
M  V30 8440 N 808.693 -2.42287 5.2752 0
M  V30 8441 H 811.458 0.861142 2.87062 0
M  V30 8442 H 809.019 0.602689 1.50264 0
M  V30 8443 H 811.011 -1.51072 3.75446 0
M  V30 8444 H 809.581 -1.58449 2.69467 0
M  V30 8445 H 808.801 0.590812 3.89747 0
M  V30 8446 H 810.089 0.297189 5.07931 0
M  V30 8447 H 809.487 -2.87715 4.8707 0
M  V30 8448 H 808.044 -2.97836 5.79773 0
M  V30 8449 N 811.477 -1.49425 0.500989 0
M  V30 8450 C 812.407 -2.31971 -0.266775 0
M  V30 8451 C 813.388 -1.40245 -0.962563 0
M  V30 8452 O 814.573 -1.69154 -0.953968 0
M  V30 8453 C 811.703 -3.20757 -1.33163 0
M  V30 8454 C 810.657 -4.21275 -0.75572 0
M  V30 8455 C 809.983 -4.98997 -1.92109 0
M  V30 8456 C 811.283 -5.21686 0.253213 0
M  V30 8457 H 812.977 -2.96408 0.422237 0
M  V30 8458 H 810.523 -1.4254 0.204505 0
M  V30 8459 H 812.476 -3.77315 -1.87646 0
M  V30 8460 H 811.2 -2.54263 -2.04983 0
M  V30 8461 H 809.859 -3.65861 -0.232637 0
M  V30 8462 H 809.507 -4.28951 -2.62698 0
M  V30 8463 H 809.207 -5.67011 -1.54182 0
M  V30 8464 H 810.731 -5.584 -2.47026 0
M  V30 8465 H 812.145 -5.72939 -0.203483 0
M  V30 8466 H 810.542 -5.9759 0.548322 0
M  V30 8467 H 811.612 -4.70596 1.16909 0
M  V30 8468 N 812.955 -0.234822 -1.55841 0
M  V30 8469 C 813.885 0.664217 -2.23854 0
M  V30 8470 C 814.866 1.19076 -1.2147 0
M  V30 8471 O 816.051 1.23232 -1.50091 0
M  V30 8472 C 813.181 1.86666 -2.9287 0
M  V30 8473 C 812.135 1.47341 -4.01839 0
M  V30 8474 C 811.461 2.75571 -4.58219 0
M  V30 8475 C 812.761 0.653479 -5.18196 0
M  V30 8476 H 814.455 0.0971213 -2.99242 0
M  V30 8477 H 812.001 0.0452724 -1.43929 0
M  V30 8478 H 813.954 2.50116 -3.39146 0
M  V30 8479 H 812.678 2.45894 -2.1495 0
M  V30 8480 H 811.337 0.862314 -3.56314 0
M  V30 8481 H 810.985 3.32971 -3.77014 0
M  V30 8482 H 810.685 2.49987 -5.31771 0
M  V30 8483 H 812.209 3.39939 -5.07221 0
M  V30 8484 H 813.623 1.19198 -5.60771 0
M  V30 8485 H 812.02 0.494188 -5.98062 0
M  V30 8486 H 813.09 -0.337004 -4.83728 0
M  V30 8487 N 814.433 1.57553 0.0384317 0
M  V30 8488 C 815.71 1.79977 0.766002 0
M  V30 8489 C 816.09 0.830625 1.94072 0
M  V30 8490 O 815.438 -0.129243 2.28134 0
M  V30 8491 C 815.648 3.27434 1.20781 0
M  V30 8492 C 816.996 3.92167 1.62758 0
M  V30 8493 O 818.02 3.31527 1.30263 0
M  V30 8494 O 816.879 4.98917 2.23035 0
M  V30 8495 H 813.973 0.739787 0.369654 0
M  V30 8496 H 816.519 1.69693 0.0159312 0
M  V30 8497 H 815.291 3.89558 0.368792 0
M  V30 8498 H 814.914 3.42571 2.01819 0
M  V30 8499 N 815.911 -0.310526 1.54511 0
M  V30 8500 C 816.859 -1.40272 1.85544 0
M  V30 8501 C 817.853 -1.52941 0.728377 0
M  V30 8502 O 819.059 -1.55172 0.912234 0
M  V30 8503 H 815.434 -0.468355 0.588343 0
M  V30 8504 H 817.405 -1.11329 2.76855 0
M  V30 8505 C 816.154 -2.76279 2.11105 0
M  V30 8506 H 815.477 -2.67308 2.97298 0
M  V30 8507 H 816.917 -3.51736 2.36765 0
M  V30 8508 C 815.376 -3.24472 0.906618 0
M  V30 8509 O 815.906 -4.01514 0.122358 0
M  V30 8510 N 814.112 -2.81676 0.714632 0
M  V30 8511 H 813.659 -2.19143 1.35404 0
M  V30 8512 H 813.617 -3.14272 -0.089703 0
M  V30 8513 N 817.389 -1.46805 -0.573248 0
M  V30 8514 C 818.299 -1.60687 -1.70929 0
M  V30 8515 C 819.315 -0.490084 -1.66956 0
M  V30 8516 O 820.491 -0.755482 -1.86693 0
M  V30 8517 C 817.556 -1.60259 -3.07438 0
M  V30 8518 C 816.617 -2.83242 -3.22603 0
M  V30 8519 C 815.85 -2.82825 -4.52599 0
M  V30 8520 O 816.073 -1.92113 -5.37074 0
M  V30 8521 O 815.007 -3.74489 -4.71213 0
M  V30 8522 H 818.833 -2.56782 -1.62163 0
M  V30 8523 H 816.418 -1.29706 -0.741399 0
M  V30 8524 H 818.3 -1.6275 -3.88704 0
M  V30 8525 H 816.975 -0.673268 -3.16621 0
M  V30 8526 H 815.882 -2.86302 -2.40794 0
M  V30 8527 H 817.215 -3.75415 -3.18315 0
M  V30 8528 N 818.867 0.818669 -1.34668 0
M  V30 8529 C 819.777 1.9616 -1.2868 0
M  V30 8530 C 820.793 1.72918 -0.193742 0
M  V30 8531 O 821.969 1.96951 -0.420975 0
M  V30 8532 C 819.034 3.30534 -1.04633 0
M  V30 8533 C 818.095 3.66755 -2.23136 0
M  V30 8534 C 817.328 4.94717 -2.00227 0
M  V30 8535 O 817.551 5.62218 -0.96264 0
M  V30 8536 O 816.485 5.28915 -2.87286 0
M  V30 8537 H 820.311 2.04157 -2.24842 0
M  V30 8538 H 817.896 0.954691 -1.14917 0
M  V30 8539 H 819.778 4.11005 -0.930216 0
M  V30 8540 H 818.453 3.23495 -0.115139 0
M  V30 8541 H 817.36 2.8671 -2.40308 0
M  V30 8542 H 818.693 3.78484 -3.1466 0
M  V30 8543 N 820.346 1.18468 1.03938 0
M  V30 8544 C 821.571 1.00638 1.81347 0
M  V30 8545 C 821.996 -0.440477 1.8287 0
M  V30 8546 O 821.354 -1.31609 1.24695 0
M  V30 8547 C 821.402 1.5673 3.24759 0
M  V30 8548 O 820.506 0.789517 4.04772 0
M  V30 8549 H 819.847 0.356432 0.560225 0
M  V30 8550 H 822.377 1.57253 1.30891 0
M  V30 8551 H 822.387 1.59496 3.75533 0
M  V30 8552 H 821.062 2.62043 3.22965 0
M  V30 8553 H 819.639 0.834267 3.63448 0
M  V30 8554 N 821.824 -1.22873 0.986916 0
M  V30 8555 C 823.07 -1.92047 0.670042 0
M  V30 8556 C 823.425 -1.75497 -0.788587 0
M  V30 8557 O 822.718 -1.10934 -1.56218 0
M  V30 8558 C 822.912 -3.43014 1.00379 0
M  V30 8559 C 822.741 -3.74251 2.49332 0
M  V30 8560 C 821.511 -3.94589 3.15638 0
M  V30 8561 C 823.709 -3.79208 3.47428 0
M  V30 8562 N 821.691 -4.13086 4.54129 0
M  V30 8563 C 823.062 -4.02775 4.71352 0
M  V30 8564 C 825.117 -3.62029 3.41818 0
M  V30 8565 C 823.82 -4.10946 5.90352 0
M  V30 8566 C 825.846 -3.71457 4.60189 0
M  V30 8567 C 825.208 -3.95468 5.82911 0
M  V30 8568 H 821.307 -0.723668 0.29636 0
M  V30 8569 H 823.891 -1.47946 1.26571 0
M  V30 8570 H 822.062 -3.85936 0.436762 0
M  V30 8571 H 823.794 -3.99551 0.643522 0
M  V30 8572 H 820.549 -3.91762 2.66119 0
M  V30 8573 H 820.973 -4.26275 5.25945 0
M  V30 8574 H 825.615 -3.42457 2.47958 0
M  V30 8575 H 823.333 -4.29324 6.84621 0
M  V30 8576 H 826.919 -3.59511 4.57431 0
M  V30 8577 H 825.799 -4.02584 6.72975 0
M  V30 8578 N 823.302 -0.75937 -1.38099 0
M  V30 8579 C 824.579 -0.243371 -1.9408 0
M  V30 8580 C 824.959 1.25942 -1.69416 0
M  V30 8581 O 824.307 2.03667 -1.03595 0
M  V30 8582 C 824.517 -0.603328 -3.43745 0
M  V30 8583 C 825.865 -0.566195 -4.20808 0
M  V30 8584 O 826.889 -0.541969 -3.52053 0
M  V30 8585 O 825.748 -0.582261 -5.43389 0
M  V30 8586 H 822.842 -0.0526825 -0.82532 0
M  V30 8587 H 825.388 -0.839884 -1.47459 0
M  V30 8588 H 824.16 -1.64098 -3.55229 0
M  V30 8589 H 823.783 0.0208887 -3.97595 0
M  V30 8590 N 824.78 1.49157 -0.508906 0
M  V30 8591 C 826.027 2.02473 0.0327983 0
M  V30 8592 C 826.355 1.38792 1.36261 0
M  V30 8593 O 825.61 0.515576 1.88786 0
M  V30 8594 C 825.909 3.56687 0.225717 0
M  V30 8595 C 825.575 4.39046 -1.02708 0
M  V30 8596 C 824.237 4.61271 -1.37048 0
M  V30 8597 C 826.589 4.86902 -1.85946 0
M  V30 8598 C 823.917 5.28598 -2.54562 0
M  V30 8599 C 826.269 5.55521 -3.0262 0
M  V30 8600 C 824.933 5.7599 -3.3733 0
M  V30 8601 H 824.203 0.740903 0.0120017 0
M  V30 8602 H 826.85 1.79372 -0.670665 0
M  V30 8603 H 825.155 3.78511 1.01177 0
M  V30 8604 H 826.852 3.95541 0.659433 0
M  V30 8605 H 823.442 4.21994 -0.749615 0
M  V30 8606 H 827.626 4.69553 -1.6073 0
M  V30 8607 H 822.882 5.42646 -2.81682 0
M  V30 8608 H 827.056 5.91576 -3.67438 0
M  V30 8609 H 824.683 6.27934 -4.2849 0
M  V30 8610 N 826.258 0.243083 1.55714 0
M  V30 8611 C 827.206 -0.674349 2.2261 0
M  V30 8612 C 828.2 -1.18307 1.21243 0
M  V30 8613 O 829.406 -1.1404 1.39265 0
M  V30 8614 H 825.781 -0.235941 0.714028 0
M  V30 8615 H 827.752 -0.0869446 2.98273 0
M  V30 8616 C 826.501 -1.86206 2.93637 0
M  V30 8617 H 825.824 -1.47975 3.71407 0
M  V30 8618 H 827.264 -2.4813 3.43813 0
M  V30 8619 C 825.723 -2.73084 1.97298 0
M  V30 8620 O 826.253 -3.72497 1.50361 0
M  V30 8621 N 824.459 -2.39571 1.64482 0
M  V30 8622 H 824.006 -1.5878 2.02846 0
M  V30 8623 H 823.964 -2.97976 1.00288 0
M  V30 8624 N 827.736 -1.57571 -0.0300757 0
M  V30 8625 C 828.985 -1.88407 -0.720126 0
M  V30 8626 C 829.298 -0.841466 -1.76575 0
M  V30 8627 O 830.504 -1.03902 -2.50832 0
M  V30 8628 C 828.96 -3.34348 -1.33188 0
M  V30 8629 C 828.568 -4.46837 -0.32266 0
M  V30 8630 C 830.312 -3.74333 -2.00187 0
M  V30 8631 C 828.219 -5.83838 -0.942703 0
M  V30 8632 H 827.149 -0.702952 -0.272718 0
M  V30 8633 H 829.8 -1.83482 0.0255337 0
M  V30 8634 H 828.182 -3.34014 -2.12721 0
M  V30 8635 H 829.356 -4.58638 0.445887 0
M  V30 8636 H 827.671 -4.15678 0.245181 0
M  V30 8637 H 830.268 -4.74008 -2.47428 0
M  V30 8638 H 830.611 -3.06275 -2.81959 0
M  V30 8639 H 831.144 -3.76837 -1.2743 0
M  V30 8640 H 827.883 -6.55294 -0.164413 0
M  V30 8641 H 827.403 -5.75759 -1.68111 0
M  V30 8642 H 829.082 -6.30535 -1.45034 0
M  V30 8643 N 829.214 0.302327 -1.54673 0
M  V30 8644 C 830.461 1.0377 -1.73891 0
M  V30 8645 C 830.789 1.87309 -0.523979 0
M  V30 8646 O 830.044 1.8936 0.494084 0
M  V30 8647 C 830.343 1.97365 -2.97963 0
M  V30 8648 C 830.009 1.29812 -4.3181 0
M  V30 8649 C 828.671 1.11121 -4.68194 0
M  V30 8650 C 831.023 0.815073 -5.14787 0
M  V30 8651 C 828.351 0.428077 -5.85136 0
M  V30 8652 C 830.703 0.145665 -6.32432 0
M  V30 8653 C 829.367 -0.0532098 -6.67479 0
M  V30 8654 H 828.637 0.379721 -0.636312 0
M  V30 8655 H 831.284 0.312708 -1.8893 0
M  V30 8656 H 829.589 2.76387 -2.777 0
M  V30 8657 H 831.286 2.54331 -3.10027 0
M  V30 8658 H 827.876 1.45366 -4.03196 0
M  V30 8659 H 832.06 0.947191 -4.87178 0
M  V30 8660 H 827.316 0.262995 -6.10834 0
M  V30 8661 H 831.49 -0.236533 -6.95998 0
M  V30 8662 H 829.117 -0.58456 -7.57949 0
M  V30 8663 N 830.692 1.47107 0.565454 0
M  V30 8664 C 831.602 1.61591 1.70075 0
M  V30 8665 C 832.618 0.498931 1.66693 0
M  V30 8666 O 833.794 0.765372 1.8629 0
M  V30 8667 C 830.859 1.61887 3.06583 0
M  V30 8668 C 829.92 2.84949 3.21096 0
M  V30 8669 C 829.153 2.85221 4.51093 0
M  V30 8670 O 829.376 1.94959 5.36048 0
M  V30 8671 O 828.31 3.76982 4.69221 0
M  V30 8672 H 832.136 2.57638 1.60799 0
M  V30 8673 H 829.721 1.30097 0.73451 0
M  V30 8674 H 831.603 1.64809 3.87835 0
M  V30 8675 H 830.278 0.69005 3.16259 0
M  V30 8676 H 829.185 2.87575 2.39273 0
M  V30 8677 H 830.518 3.77098 3.1632 0
M  V30 8678 N 832.17 -0.811516 1.35101 0
M  V30 8679 C 833.1 -1.9378 1.30275 0
M  V30 8680 C 834.081 -1.69165 0.178075 0
M  V30 8681 O 835.266 -1.90599 0.372256 0
M  V30 8682 C 832.396 -3.30439 1.06899 0
M  V30 8683 C 831.35 -3.69523 2.15955 0
M  V30 8684 C 830.676 -5.0429 1.77751 0
M  V30 8685 C 831.976 -3.80419 3.57881 0
M  V30 8686 H 833.67 -1.98075 2.24514 0
M  V30 8687 H 831.216 -0.951586 1.08078 0
M  V30 8688 H 833.169 -4.08828 1.02164 0
M  V30 8689 H 831.893 -3.26473 0.0910462 0
M  V30 8690 H 830.552 -2.93416 2.19778 0
M  V30 8691 H 830.2 -4.96823 0.785876 0
M  V30 8692 H 829.9 -5.31411 2.5075 0
M  V30 8693 H 831.424 -5.85125 1.74533 0
M  V30 8694 H 832.838 -4.49051 3.56407 0
M  V30 8695 H 831.235 -4.19005 4.29598 0
M  V30 8696 H 832.305 -2.82105 3.94391 0
M  V30 8697 N 833.648 -1.19017 -1.03309 0
M  V30 8698 C 834.558 -0.939303 -2.14975 0
M  V30 8699 C 835.574 0.0992359 -1.73717 0
M  V30 8700 O 836.75 -0.0844362 -2.01223 0
M  V30 8701 C 833.815 -0.476712 -3.43407 0
M  V30 8702 C 832.876 -1.58413 -3.99003 0
M  V30 8703 C 832.109 -1.14352 -5.21305 0
M  V30 8704 O 832.332 -0.00534408 -5.704 0
M  V30 8705 O 831.266 -1.94436 -5.6963 0
M  V30 8706 H 835.092 -1.87386 -2.38998 0
M  V30 8707 H 832.677 -0.972635 -1.13403 0
M  V30 8708 H 834.559 -0.22718 -4.20787 0
M  V30 8709 H 833.234 0.429455 -3.20839 0
M  V30 8710 H 832.141 -1.88777 -3.22977 0
M  V30 8711 H 833.474 -2.4667 -4.25928 0
M  V30 8712 N 835.127 1.22348 -0.993418 0
M  V30 8713 C 836.09 2.22522 -0.549251 0
M  V30 8714 C 837.09 1.56529 0.368164 0
M  V30 8715 O 838.28 1.73463 0.16005 0
M  V30 8716 C 835.412 3.40307 0.201037 0
M  V30 8717 H 836.605 2.63332 -1.43515 0
M  V30 8718 H 834.158 1.35407 -0.78068 0
M  V30 8719 H 834.893 3.0497 1.10289 0
M  V30 8720 H 834.678 3.8942 -0.457685 0
M  V30 8721 H 836.168 4.14597 0.499946 0
M  V30 8722 N 836.605 0.766683 1.37694 0
M  V30 8723 C 837.854 0.325425 1.99057 0
M  V30 8724 C 838.167 -1.10275 1.61551 0
M  V30 8725 O 839.373 -1.64513 2.1598 0
M  V30 8726 C 837.829 0.530886 3.55963 0
M  V30 8727 C 837.437 1.96899 4.02411 0
M  V30 8728 C 839.181 0.152997 4.24224 0
M  V30 8729 C 837.088 2.12232 5.52007 0
M  V30 8730 H 836.018 0.117929 0.744721 0
M  V30 8731 H 838.669 0.945091 1.5729 0
M  V30 8732 H 837.051 -0.158162 3.95684 0
M  V30 8733 H 838.225 2.69258 3.73948 0
M  V30 8734 H 836.54 2.303 3.46916 0
M  V30 8735 H 839.137 0.24614 5.34133 0
M  V30 8736 H 839.48 -0.896096 4.06541 0
M  V30 8737 H 840.013 0.794398 3.89787 0
M  V30 8738 H 836.752 3.15442 5.7461 0
M  V30 8739 H 836.272 1.4435 5.82171 0
M  V30 8740 H 837.951 1.9185 6.17902 0
M  V30 8741 N 838.083 -1.48885 0.516809 0
M  V30 8742 C 839.311 -2.06892 -0.0184017 0
M  V30 8743 C 839.726 -1.37511 -1.29368 0
M  V30 8744 O 839.083 -0.458409 -1.76649 0
M  V30 8745 C 839.134 -3.60566 -0.259673 0
M  V30 8746 O 838.855 -4.27338 0.965065 0
M  V30 8747 C 840.356 -4.35331 -0.836751 0
M  V30 8748 H 837.576 -0.670433 0.0275743 0
M  V30 8749 H 840.12 -1.91455 0.718689 0
M  V30 8750 H 838.275 -3.75653 -0.94678 0
M  V30 8751 H 838.689 -5.19287 0.737647 0
M  V30 8752 H 840.163 -5.43675 -0.955065 0
M  V30 8753 H 840.64 -3.9887 -1.83845 0
M  V30 8754 H 841.246 -4.2489 -0.186622 0
M  V30 8755 N 839.561 -0.251338 -1.55583 0
M  V30 8756 C 840.511 0.660351 -2.18228 0
M  V30 8757 C 841.495 1.13596 -1.13951 0
M  V30 8758 O 842.687 1.08499 -1.39846 0
M  V30 8759 C 839.816 1.85498 -2.88869 0
M  V30 8760 C 838.902 1.39767 -4.00407 0
M  V30 8761 N 839.293 0.654876 -5.01543 0
M  V30 8762 C 837.591 1.68259 -4.13044 0
M  V30 8763 C 838.292 0.417521 -5.802 0
M  V30 8764 N 837.268 0.983032 -5.34638 0
M  V30 8765 H 841.07 0.0847425 -2.93778 0
M  V30 8766 H 838.584 -0.0538456 -1.62311 0
M  V30 8767 H 840.581 2.51916 -3.3218 0
M  V30 8768 H 839.241 2.43477 -2.14823 0
M  V30 8769 H 840.252 0.304545 -5.17004 0
M  V30 8770 H 836.929 2.27344 -3.50172 0
M  V30 8771 H 838.319 -0.175764 -6.7167 0
M  V30 8772 N 841.039 1.57585 0.0217189 0
M  V30 8773 C 841.986 2.07036 1.02004 0
M  V30 8774 C 842.956 0.96106 1.35473 0
M  V30 8775 O 844.141 1.23211 1.45684 0
M  V30 8776 C 841.281 2.56056 2.31364 0
M  V30 8777 C 840.394 3.80805 2.03989 0
M  V30 8778 C 839.529 4.18409 3.27272 0
M  V30 8779 C 838.568 5.36055 2.95486 0
M  V30 8780 N 837.705 5.69056 4.11242 0
M  V30 8781 H 842.545 2.92073 0.591396 0
M  V30 8782 H 840.082 1.44403 0.280384 0
M  V30 8783 H 842.04 2.82548 3.06957 0
M  V30 8784 H 840.67 1.73925 2.71937 0
M  V30 8785 H 839.722 3.61354 1.1886 0
M  V30 8786 H 841.034 4.66512 1.76546 0
M  V30 8787 H 840.188 4.46068 4.11228 0
M  V30 8788 H 838.927 3.31369 3.57835 0
M  V30 8789 H 837.932 5.08142 2.09933 0
M  V30 8790 H 839.157 6.24755 2.66193 0
M  V30 8791 H 837.103 4.84974 4.41742 0
M  V30 8792 H 837.02 6.49288 3.87247 0
M  V30 8793 H 838.288 6.01295 4.96049 0
M  V30 8794 N 842.517 -0.29412 1.54831 0
M  V30 8795 C 843.933 -0.640167 1.46199 0
M  V30 8796 C 844.133 -1.90426 0.658798 0
M  V30 8797 O 843.189 -2.51932 0.169228 0
M  V30 8798 C 844.502 -0.786763 2.90225 0
M  V30 8799 C 846.05 -0.882201 3.0031 0
M  V30 8800 C 846.525 -1.06074 4.45547 0
M  V30 8801 N 848.016 -1.12678 4.49286 0
M  V30 8802 C 848.751 -1.28334 5.58854 0
M  V30 8803 N 848.247 -1.40845 6.78332 0
M  V30 8804 N 850.04 -1.31277 5.46555 0
M  V30 8805 H 842.191 0.536334 2.05517 0
M  V30 8806 H 844.454 0.178363 0.93107 0
M  V30 8807 H 844.16 0.0713018 3.51628 0
M  V30 8808 H 844.034 -1.67364 3.38037 0
M  V30 8809 H 846.421 -1.73075 2.39017 0
M  V30 8810 H 846.502 0.0288405 2.55784 0
M  V30 8811 H 846.146 -0.216935 5.07437 0
M  V30 8812 H 846.076 -1.98611 4.8771 0
M  V30 8813 H 848.567 -1.04335 3.63212 0
M  V30 8814 H 848.88 -1.52566 7.57591 0
M  V30 8815 H 847.225 -1.37888 6.81184 0
M  V30 8816 H 850.416 -1.2112 4.52159 0
M  V30 8817 H 850.589 -1.43136 6.31994 0
M  V30 8818 N 843.995 -1.47404 -0.557645 0
M  V30 8819 C 845.406 -1.47872 -1.13977 0
M  V30 8820 C 845.757 -0.233176 -1.94809 0
M  V30 8821 O 844.882 0.661945 -2.06027 0
M  V30 8822 C 845.477 -2.67926 -2.07368 0
M  V30 8823 C 844.036 -2.71354 -2.60852 0
M  V30 8824 C 843.183 -2.40967 -1.37223 0
M  V30 8825 H 846.134 -1.54921 -0.344268 0
M  V30 8826 H 846.155 -2.44871 -2.91236 0
M  V30 8827 H 845.667 -3.58562 -1.48509 0
M  V30 8828 H 843.768 -1.84855 -3.23511 0
M  V30 8829 H 843.881 -3.72032 -3.01876 0
M  V30 8830 H 842.245 -1.91541 -1.67882 0
M  V30 8831 H 843.028 -3.33811 -0.801583 0
M  V30 8832 N 845.473 0.80434 -1.35529 0
M  V30 8833 C 846.403 1.93086 -1.31301 0
M  V30 8834 C 847.384 1.69068 -0.187044 0
M  V30 8835 O 848.569 1.90399 -0.382359 0
M  V30 8836 C 845.699 3.29867 -1.0865 0
M  V30 8837 C 844.653 3.68373 -2.17911 0
M  V30 8838 C 843.979 5.0334 -1.80423 0
M  V30 8839 C 845.279 3.78516 -3.59893 0
M  V30 8840 H 846.973 1.96882 -2.25561 0
M  V30 8841 H 844.519 0.945841 -1.08581 0
M  V30 8842 H 846.472 4.08281 -1.04331 0
M  V30 8843 H 845.196 3.2642 -0.108359 0
M  V30 8844 H 843.855 2.92247 -2.21331 0
M  V30 8845 H 843.503 4.96399 -0.812213 0
M  V30 8846 H 843.203 5.30074 -2.53565 0
M  V30 8847 H 844.727 5.84191 -1.77633 0
M  V30 8848 H 846.141 4.47155 -3.58783 0
M  V30 8849 H 844.538 4.16721 -4.31814 0
M  V30 8850 H 845.608 2.8001 -3.95882 0
M  V30 8851 N 846.951 1.19563 1.02676 0
M  V30 8852 C 848.197 1.00105 1.76371 0
M  V30 8853 C 848.53 -0.466823 1.88506 0
M  V30 8854 O 847.805 -1.34665 1.40341 0
M  V30 8855 C 848.088 1.67321 3.18866 0
M  V30 8856 C 847.941 3.21486 3.1459 0
M  V30 8857 C 849.26 1.39794 4.17308 0
M  V30 8858 H 846.379 0.365075 0.640226 0
M  V30 8859 H 849.021 1.47433 1.19848 0
M  V30 8860 H 847.171 1.27081 3.67128 0
M  V30 8861 H 848.843 3.70953 2.7421 0
M  V30 8862 H 847.086 3.5292 2.52249 0
M  V30 8863 H 847.757 3.63665 4.15273 0
M  V30 8864 H 850.233 1.74685 3.77657 0
M  V30 8865 H 849.109 1.89371 5.15199 0
M  V30 8866 H 849.37 0.323505 4.40915 0
M  V30 8867 N 848.429 -1.21819 0.999893 0
M  V30 8868 C 849.659 -1.94475 0.697346 0
M  V30 8869 C 850.067 -1.73991 -0.743228 0
M  V30 8870 O 849.41 -1.04042 -1.51397 0
M  V30 8871 C 849.472 -3.47204 0.932181 0
M  V30 8872 C 849.136 -3.91432 2.3586 0
M  V30 8873 C 850.133 -3.98545 3.33853 0
M  V30 8874 C 847.818 -4.23888 2.69489 0
M  V30 8875 C 849.812 -4.37499 4.63545 0
M  V30 8876 C 847.499 -4.62519 3.99399 0
M  V30 8877 C 848.497 -4.69294 4.96238 0
M  V30 8878 O 848.185 -5.07048 6.23825 0
M  V30 8879 H 847.917 -0.625419 0.256567 0
M  V30 8880 H 850.471 -1.55728 1.33933 0
M  V30 8881 H 848.701 -3.85997 0.233025 0
M  V30 8882 H 850.39 -4.01078 0.623807 0
M  V30 8883 H 851.156 -3.73654 3.09205 0
M  V30 8884 H 847.035 -4.17815 1.94812 0
M  V30 8885 H 850.579 -4.42702 5.3913 0
M  V30 8886 H 846.476 -4.86864 4.23833 0
M  V30 8887 H 847.244 -5.25098 6.27865 0
M  V30 8888 N 849.908 -0.773975 -1.37286 0
M  V30 8889 C 850.838 -0.175782 -2.32837 0
M  V30 8890 C 851.819 0.680603 -1.5589 0
M  V30 8891 O 853.004 0.617607 -1.84117 0
M  V30 8892 C 850.134 0.702388 -3.40123 0
M  V30 8893 C 849.088 -0.0528687 -4.27967 0
M  V30 8894 C 848.414 0.944891 -5.26285 0
M  V30 8895 C 849.714 -1.23316 -5.07534 0
M  V30 8896 H 851.408 -0.974016 -2.83114 0
M  V30 8897 H 848.954 -0.469826 -1.3612 0
M  V30 8898 H 850.907 1.13069 -4.05947 0
M  V30 8899 H 849.631 1.53316 -2.88378 0
M  V30 8900 H 848.29 -0.461978 -3.63678 0
M  V30 8901 H 847.938 1.77028 -4.70819 0
M  V30 8902 H 847.638 0.444079 -5.8592 0
M  V30 8903 H 849.162 1.37209 -5.94984 0
M  V30 8904 H 850.576 -0.881395 -5.66484 0
M  V30 8905 H 848.973 -1.66621 -5.76504 0
M  V30 8906 H 850.043 -2.03617 -4.40077 0
M  V30 8907 N 851.386 1.48609 -0.524698 0
M  V30 8908 C 852.634 2.02097 0.0112991 0
M  V30 8909 C 852.955 1.40455 1.35268 0
M  V30 8910 O 852.225 0.56807 1.87483 0
M  V30 8911 H 850.805 0.746966 0.00716426 0
M  V30 8912 H 853.467 1.82378 -0.687329 0
M  V30 8913 H 852.563 3.11855 0.123531 0
M  V30 8914 N 852.864 0.259585 1.55447 0
M  V30 8915 C 853.794 -0.62852 2.24882 0
M  V30 8916 C 854.775 -1.17128 1.23349 0
M  V30 8917 O 855.96 -1.20829 1.52033 0
M  V30 8918 C 853.09 -1.81983 2.95803 0
M  V30 8919 C 852.044 -1.40929 4.04132 0
M  V30 8920 C 851.37 -2.68246 4.62545 0
M  V30 8921 C 852.67 -0.570956 5.1917 0
M  V30 8922 H 854.364 -0.0495021 2.99359 0
M  V30 8923 H 851.91 -0.0223688 1.43983 0
M  V30 8924 H 853.863 -2.44689 3.43082 0
M  V30 8925 H 852.587 -2.42444 2.18835 0
M  V30 8926 H 851.246 -0.805519 3.57641 0
M  V30 8927 H 850.894 -3.26931 3.82263 0
M  V30 8928 H 850.594 -2.41495 5.35681 0
M  V30 8929 H 852.118 -3.31827 5.12565 0
M  V30 8930 H 853.532 -1.10262 5.62597 0
M  V30 8931 H 851.929 -0.398979 5.98772 0
M  V30 8932 H 852.999 0.413918 4.8313 0
M  V30 8933 N 854.342 -1.57594 -0.0133615 0
M  V30 8934 C 855.289 -2.07574 -1.00905 0
M  V30 8935 C 856.259 -0.968231 -1.34961 0
M  V30 8936 O 857.444 -1.23981 -1.45028 0
M  V30 8937 C 854.584 -2.5728 -2.30002 0
M  V30 8938 C 853.697 -3.81881 -2.01967 0
M  V30 8939 C 852.832 -4.20139 -3.25049 0
M  V30 8940 C 851.871 -5.37614 -2.92639 0
M  V30 8941 N 851.008 -5.71229 -4.08218 0
M  V30 8942 H 855.848 -2.92382 -0.575899 0
M  V30 8943 H 853.385 -1.4455 -0.272722 0
M  V30 8944 H 855.343 -2.84171 -3.05454 0
M  V30 8945 H 853.973 -1.75365 -2.71011 0
M  V30 8946 H 853.025 -3.61979 -1.16942 0
M  V30 8947 H 854.337 -4.67441 -1.74069 0
M  V30 8948 H 853.491 -4.48242 -4.08857 0
M  V30 8949 H 852.23 -3.33262 -3.56073 0
M  V30 8950 H 851.235 -5.09248 -2.07235 0
M  V30 8951 H 852.46 -6.26157 -2.62876 0
M  V30 8952 H 850.406 -4.8731 -4.39164 0
M  V30 8953 H 850.323 -6.51333 -3.83799 0
M  V30 8954 H 851.591 -6.03917 -4.92854 0
M  V30 8955 N 855.82 0.285905 -1.54985 0
M  V30 8956 C 857.066 1.02071 -1.75241 0
M  V30 8957 C 857.399 1.864 -0.544842 0
M  V30 8958 O 856.674 1.89034 0.457844 0
M  V30 8959 C 856.957 1.91409 -3.05016 0
M  V30 8960 C 856.81 1.10158 -4.36102 0
M  V30 8961 C 858.129 2.90335 -3.30747 0
M  V30 8962 H 855.248 0.369663 -0.637588 0
M  V30 8963 H 857.89 0.294114 -1.8771 0
M  V30 8964 H 856.04 2.53362 -2.94517 0
M  V30 8965 H 857.712 0.503756 -4.58541 0
M  V30 8966 H 855.955 0.404675 -4.31908 0
M  V30 8967 H 856.626 1.75956 -5.23205 0
M  V30 8968 H 859.102 2.38514 -3.40955 0
M  V30 8969 H 857.978 3.49997 -4.2284 0
M  V30 8970 H 858.239 3.64787 -2.49765 0
M  V30 8971 N 857.298 1.47698 0.54982 0
M  V30 8972 C 858.545 1.54702 1.30665 0
M  V30 8973 C 858.873 0.212418 1.93337 0
M  V30 8974 O 858.128 -0.79543 1.78805 0
M  V30 8975 C 858.427 2.61903 2.4319 0
M  V30 8976 C 858.093 4.04953 1.98302 0
M  V30 8977 C 856.755 4.43893 1.85776 0
M  V30 8978 C 859.107 4.94682 1.64133 0
M  V30 8979 C 856.435 5.70387 1.37388 0
M  V30 8980 C 858.787 6.21646 1.17214 0
M  V30 8981 C 857.451 6.5946 1.0329 0
M  V30 8982 H 856.721 0.566096 0.478139 0
M  V30 8983 H 859.368 1.8133 0.615767 0
M  V30 8984 H 857.673 2.2906 3.17866 0
M  V30 8985 H 859.37 2.64543 3.0136 0
M  V30 8986 H 855.96 3.74191 2.08995 0
M  V30 8987 H 860.144 4.65291 1.72679 0
M  V30 8988 H 855.4 5.98427 1.25278 0
M  V30 8989 H 859.574 6.90581 0.898391 0
M  V30 8990 H 857.201 7.57367 0.655735 0
M  V30 8991 N 858.776 -0.797141 1.35954 0
M  V30 8992 C 860.001 -1.59097 1.33053 0
M  V30 8993 C 860.426 -1.87897 -0.0874592 0
M  V30 8994 O 859.784 -1.47291 -1.05712 0
M  V30 8995 C 859.832 -2.89346 2.152 0
M  V30 8996 O 858.936 -3.826 1.5392 0
M  V30 8997 H 858.277 -0.482895 0.45575 0
M  V30 8998 H 860.807 -0.988633 1.79129 0
M  V30 8999 H 860.817 -3.38686 2.27499 0
M  V30 9000 H 859.492 -2.6771 3.18283 0
M  V30 9001 H 858.069 -3.41174 1.50516 0
M  V30 9002 N 860.254 -1.20106 -1.0204 0
M  V30 9003 C 861.67 -0.955099 -1.27867 0
M  V30 9004 C 861.87 0.367595 -1.98119 0
M  V30 9005 O 860.926 1.09705 -2.27423 0
M  V30 9006 C 862.239 -2.13507 -2.11744 0
M  V30 9007 C 863.787 -2.17563 -2.25023 0
M  V30 9008 C 864.262 -3.35035 -3.12275 0
M  V30 9009 N 865.753 -3.35024 -3.19864 0
M  V30 9010 C 866.488 -4.22566 -3.8759 0
M  V30 9011 N 865.984 -5.20278 -4.57474 0
M  V30 9012 N 867.777 -4.10418 -3.84075 0
M  V30 9013 H 859.928 -2.05193 -0.54861 0
M  V30 9014 H 862.191 -0.897689 -0.304728 0
M  V30 9015 H 861.897 -3.09275 -1.67456 0
M  V30 9016 H 861.771 -2.11281 -3.12474 0
M  V30 9017 H 864.158 -1.22359 -2.68537 0
M  V30 9018 H 864.239 -2.23838 -1.23815 0
M  V30 9019 H 863.883 -4.30522 -2.69468 0
M  V30 9020 H 863.813 -3.25996 -4.13563 0
M  V30 9021 H 866.304 -2.64299 -2.701 0
M  V30 9022 H 866.617 -5.83408 -5.06809 0
M  V30 9023 H 864.962 -5.24219 -4.56311 0
M  V30 9024 H 868.153 -3.33353 -3.28623 0
M  V30 9025 H 868.326 -4.78854 -4.36581 0
M  V30 9026 N 861.732 1.21287 -1.00634 0
M  V30 9027 C 862.979 1.90389 -0.6898 0
M  V30 9028 C 863.307 1.78193 0.779574 0
M  V30 9029 O 862.562 1.15358 1.58085 0
M  V30 9030 C 862.861 3.41374 -1.05824 0
M  V30 9031 C 862.527 3.73766 -2.5221 0
M  V30 9032 C 861.189 3.82317 -2.92211 0
M  V30 9033 C 863.541 3.88871 -3.47028 0
M  V30 9034 C 860.869 4.03423 -4.2599 0
M  V30 9035 C 863.221 4.11484 -4.80483 0
M  V30 9036 C 861.885 4.18263 -5.20204 0
M  V30 9037 H 861.155 0.696683 -0.252416 0
M  V30 9038 H 863.802 1.43769 -1.26502 0
M  V30 9039 H 862.107 3.8974 -0.401281 0
M  V30 9040 H 863.804 3.93118 -0.79116 0
M  V30 9041 H 860.394 3.67702 -2.20212 0
M  V30 9042 H 864.578 3.8163 -3.17289 0
M  V30 9043 H 859.834 4.06902 -4.56334 0
M  V30 9044 H 864.008 4.22115 -5.53888 0
M  V30 9045 H 861.635 4.34369 -6.23881 0
M  V30 9046 N 863.21 0.781244 1.36873 0
M  V30 9047 C 864.458 0.349198 1.9906 0
M  V30 9048 C 864.779 -1.0806 1.62321 0
M  V30 9049 O 864.049 -1.74351 0.893229 0
M  V30 9050 H 862.629 0.126126 0.736275 0
M  V30 9051 H 865.291 1.00148 1.67202 0
M  V30 9052 H 864.387 0.434451 3.09061 0
M  V30 9053 N 864.689 -1.48329 0.532571 0
M  V30 9054 C 865.935 -2.028 -0.000583219 0
M  V30 9055 C 866.268 -1.40858 -1.33688 0
M  V30 9056 O 865.543 -0.555261 -1.86406 0
M  V30 9057 C 865.826 -3.59901 -0.119846 0
M  V30 9058 C 865.679 -4.32318 1.2418 0
M  V30 9059 C 866.998 -4.31904 -0.845372 0
M  V30 9060 H 864.117 -0.736999 0.00126205 0
M  V30 9061 H 866.759 -1.77024 0.690102 0
M  V30 9062 H 864.909 -3.81993 -0.708092 0
M  V30 9063 H 866.581 -4.21637 1.87136 0
M  V30 9064 H 864.824 -3.93635 1.82301 0
M  V30 9065 H 865.495 -5.40697 1.11132 0
M  V30 9066 H 867.971 -4.14658 -0.346159 0
M  V30 9067 H 866.847 -5.41509 -0.897723 0
M  V30 9068 H 867.108 -3.99369 -1.89622 0
M  V30 9069 N 866.167 -0.267825 -1.55308 0
M  V30 9070 C 867.407 0.352316 -2.01341 0
M  V30 9071 C 867.771 1.53593 -1.1521 0
M  V30 9072 O 868.972 2.22521 -1.50791 0
M  V30 9073 C 867.243 0.731857 -3.49827 0
M  V30 9074 S 868.802 1.33956 -4.17853 0
M  V30 9075 H 865.62 0.109927 -0.702451 0
M  V30 9076 H 868.222 -0.387955 -1.91612 0
M  V30 9077 H 866.926 -0.138561 -4.10166 0
M  V30 9078 H 866.457 1.50378 -3.63525 0
M  V30 9079 H 868.472 2.62831 -4.20874 0
M  V30 9080 N 867.645 1.57599 0.00500368 0
M  V30 9081 C 868.555 2.11532 1.01446 0
M  V30 9082 C 869.571 1.05941 1.3803 0
M  V30 9083 O 870.747 1.37815 1.46864 0
M  V30 9084 C 867.812 2.60382 2.28915 0
M  V30 9085 C 866.873 3.80554 1.98689 0
M  V30 9086 C 866.106 4.27064 3.20081 0
M  V30 9087 O 866.329 3.72939 4.31593 0
M  V30 9088 O 865.263 5.1927 3.04371 0
M  V30 9089 H 869.089 2.97993 0.586011 0
M  V30 9090 H 866.674 1.47718 0.223519 0
M  V30 9091 H 868.556 2.92024 3.03809 0
M  V30 9092 H 867.231 1.77022 2.71007 0
M  V30 9093 H 866.138 3.53893 1.21286 0
M  V30 9094 H 867.471 4.64972 1.61437 0
M  V30 9095 N 869.123 -0.277682 1.55134 0
M  V30 9096 C 870.37 -1.0099 1.7552 0
M  V30 9097 C 870.698 -1.86452 0.553712 0
M  V30 9098 O 869.953 -1.90122 -0.463896 0
M  V30 9099 C 870.252 -1.92599 3.01065 0
M  V30 9100 C 869.918 -1.22926 4.3382 0
M  V30 9101 C 868.58 -1.03659 4.69902 0
M  V30 9102 C 870.932 -0.733071 5.16019 0
M  V30 9103 C 868.26 -0.334933 5.85743 0
M  V30 9104 C 870.612 -0.0450319 6.32584 0
M  V30 9105 C 869.276 0.159393 6.6731 0
M  V30 9106 H 868.546 -0.36955 0.642273 0
M  V30 9107 H 871.193 -0.282611 1.89403 0
M  V30 9108 H 869.498 -2.71934 2.82062 0
M  V30 9109 H 871.195 -2.49367 3.14034 0
M  V30 9110 H 867.785 -1.38933 4.05457 0
M  V30 9111 H 871.969 -0.869565 4.88623 0
M  V30 9112 H 867.225 -0.165783 6.11175 0
M  V30 9113 H 871.399 0.34723 6.95534 0
M  V30 9114 H 869.026 0.70507 7.56923 0
M  V30 9115 N 870.601 -1.47988 -0.541979 0
M  V30 9116 C 871.531 -1.64503 -1.65713 0
M  V30 9117 C 872.512 -0.494116 -1.62765 0
M  V30 9118 O 873.697 -0.725256 -1.80149 0
M  V30 9119 C 870.827 -1.67337 -3.04328 0
M  V30 9120 C 869.781 -2.81809 -3.2213 0
M  V30 9121 C 869.107 -2.69724 -4.61685 0
M  V30 9122 C 870.407 -4.23241 -3.06046 0
M  V30 9123 H 872.101 -2.5786 -1.52147 0
M  V30 9124 H 869.647 -1.24094 -0.730529 0
M  V30 9125 H 871.6 -1.77481 -3.82202 0
M  V30 9126 H 870.324 -0.705514 -3.18889 0
M  V30 9127 H 868.983 -2.71201 -2.46669 0
M  V30 9128 H 868.631 -1.70934 -4.73065 0
M  V30 9129 H 868.331 -3.4653 -4.74543 0
M  V30 9130 H 869.855 -2.81818 -5.41674 0
M  V30 9131 H 871.269 -4.34746 -3.73723 0
M  V30 9132 H 869.666 -5.00952 -3.30405 0
M  V30 9133 H 870.736 -4.40543 -2.02609 0
M  V30 9134 N 872.079 0.78992 -1.36375 0
M  V30 9135 C 873.027 1.92394 -1.30719 0
M  V30 9136 C 874.021 1.68226 -0.199076 0
M  V30 9137 O 875.227 1.76239 -0.366051 0
M  V30 9138 H 871.602 0.632382 -0.406936 0
M  V30 9139 H 873.573 1.94282 -2.26488 0
M  V30 9140 C 872.322 3.2941 -1.11284 0
M  V30 9141 H 871.645 3.48573 -1.95798 0
M  V30 9142 H 873.085 4.09111 -1.11373 0
M  V30 9143 C 871.544 3.36405 0.182543 0
M  V30 9144 O 872.074 3.84206 1.17255 0
M  V30 9145 N 870.28 2.89712 0.227046 0
M  V30 9146 H 869.827 2.51004 -0.579217 0
M  V30 9147 H 869.785 2.94773 1.09344 0
M  V30 9148 N 873.557 1.20646 1.01402 0
M  V30 9149 C 874.797 1.02951 1.7658 0
M  V30 9150 C 875.161 -0.430522 1.87111 0
M  V30 9151 O 876.362 -0.727727 2.58762 0
M  V30 9152 C 874.633 1.69728 3.14527 0
M  V30 9153 S 876.192 1.6717 4.05709 0
M  V30 9154 H 873.01 0.36911 0.607683 0
M  V30 9155 H 875.612 1.53243 1.21395 0
M  V30 9156 H 874.316 2.75162 3.0449 0
M  V30 9157 H 873.847 1.19578 3.74786 0
M  V30 9158 H 875.862 0.706397 4.91146 0
M  V30 9159 N 875.035 -1.20752 1.01276 0
M  V30 9160 C 876.26 -1.94547 0.718769 0
M  V30 9161 C 876.685 -1.7404 -0.713563 0
M  V30 9162 O 876.043 -1.03221 -1.49047 0
M  V30 9163 C 876.091 -3.44823 1.05497 0
M  V30 9164 O 875.195 -4.12072 0.164516 0
M  V30 9165 H 874.536 -0.607931 0.267051 0
M  V30 9166 H 877.066 -1.53292 1.35509 0
M  V30 9167 H 877.076 -3.95427 1.00507 0
M  V30 9168 H 875.751 -3.59072 2.09858 0
M  V30 9169 H 874.328 -3.71909 0.271615 0
M  V30 9170 N 876.513 -0.788492 -1.36457 0
M  V30 9171 C 877.423 -0.187385 -2.3385 0
M  V30 9172 C 878.439 0.659984 -1.60998 0
M  V30 9173 O 879.615 0.575986 -1.92988 0
M  V30 9174 C 876.68 0.668525 -3.40194 0
M  V30 9175 C 875.741 -0.197234 -4.28847 0
M  V30 9176 C 874.974 0.61792 -5.30111 0
M  V30 9177 O 875.197 1.85396 -5.3943 0
M  V30 9178 O 874.131 0.0183016 -6.01897 0
M  V30 9179 H 877.957 -0.992617 -2.87021 0
M  V30 9180 H 875.542 -0.549934 -1.3891 0
M  V30 9181 H 877.424 1.15663 -4.05216 0
M  V30 9182 H 876.099 1.45166 -2.89324 0
M  V30 9183 H 875.006 -0.73207 -3.66867 0
M  V30 9184 H 876.339 -0.943863 -4.83065 0
M  V30 9185 N 877.991 1.48044 -0.54043 0
M  V30 9186 C 879.219 2.06895 -0.0145153 0
M  V30 9187 C 879.634 1.39552 1.27164 0
M  V30 9188 O 878.991 0.486454 1.75897 0
M  V30 9189 C 879.042 3.60934 0.202278 0
M  V30 9190 O 878.763 4.25749 -1.03293 0
M  V30 9191 C 880.264 4.36607 0.767387 0
M  V30 9192 H 877.484 0.66991 -0.0382368 0
M  V30 9193 H 880.028 1.90288 -0.749057 0
M  V30 9194 H 878.183 3.77111 0.886897 0
M  V30 9195 H 878.597 5.18048 -0.820167 0
M  V30 9196 H 880.071 5.45126 0.86845 0
M  V30 9197 H 880.548 4.01745 1.77477 0
M  V30 9198 H 881.154 4.25133 0.119002 0
M  V30 9199 N 879.47 0.276058 1.55163 0
M  V30 9200 C 880.698 -0.343772 2.04024 0
M  V30 9201 C 881.113 -1.49397 1.15438 0
M  V30 9202 O 880.47 -1.81662 0.174692 0
M  V30 9203 C 880.521 -0.823885 3.51986 0
M  V30 9204 O 880.242 0.280507 4.37201 0
M  V30 9205 C 881.743 -1.51143 4.16738 0
M  V30 9206 H 878.963 -0.07828 0.666418 0
M  V30 9207 H 881.507 0.408427 2.0038 0
M  V30 9208 H 879.662 -1.52617 3.56071 0
M  V30 9209 H 880.076 -0.0887831 5.24425 0
M  V30 9210 H 881.55 -1.79878 5.2187 0
M  V30 9211 H 882.027 -2.44327 3.64967 0
M  V30 9212 H 882.633 -0.852975 4.16659 0
M  V30 9213 N 880.948 -1.576 0.00335426 0
M  V30 9214 C 881.878 -2.11668 -0.985839 0
M  V30 9215 C 882.859 -1.02661 -1.35627 0
M  V30 9216 O 884.044 -1.30361 -1.43943 0
M  V30 9217 C 881.174 -2.62273 -2.27662 0
M  V30 9218 C 880.128 -3.75837 -2.0477 0
M  V30 9219 C 879.454 -4.12769 -3.39891 0
M  V30 9220 C 880.754 -5.02975 -1.40759 0
M  V30 9221 H 882.448 -2.9457 -0.535637 0
M  V30 9222 H 879.994 -1.41702 -0.256204 0
M  V30 9223 H 881.947 -2.98727 -2.97221 0
M  V30 9224 H 880.671 -1.76498 -2.74802 0
M  V30 9225 H 879.33 -3.39782 -1.37636 0
M  V30 9226 H 878.978 -3.24013 -3.8474 0
M  V30 9227 H 878.678 -4.89281 -3.25389 0
M  V30 9228 H 880.202 -4.51784 -4.1076 0
M  V30 9229 H 881.616 -5.37179 -2.00279 0
M  V30 9230 H 880.013 -5.84315 -1.36734 0
M  V30 9231 H 881.083 -4.83431 -0.377218 0
M  V30 9232 N 882.426 0.269451 -1.5528 0
M  V30 9233 C 883.842 0.616827 -1.47199 0
M  V30 9234 C 884.042 1.89354 -0.68901 0
M  V30 9235 O 883.098 2.51631 -0.209287 0
M  V30 9236 C 884.411 0.740492 -2.9144 0
M  V30 9237 C 885.959 0.834312 -3.01676 0
M  V30 9238 C 886.434 0.989725 -4.47178 0
M  V30 9239 N 887.925 1.05516 -4.51022 0
M  V30 9240 C 888.66 1.19427 -5.60825 0
M  V30 9241 N 888.156 1.30035 -6.80487 0
M  V30 9242 N 889.949 1.22566 -5.48575 0
M  V30 9243 H 882.1 -0.568962 -2.04638 0
M  V30 9244 H 884.363 -0.193153 -0.928114 0
M  V30 9245 H 884.069 -0.127234 -3.5147 0
M  V30 9246 H 883.943 1.61965 -3.40657 0
M  V30 9247 H 886.33 1.6925 -2.4174 0
M  V30 9248 H 886.411 -0.0695298 -2.55705 0
M  V30 9249 H 886.055 0.136179 -5.07717 0
M  V30 9250 H 885.985 1.90827 -4.90808 0
M  V30 9251 H 888.476 0.985434 -3.64825 0
M  V30 9252 H 888.789 1.40494 -7.59922 0
M  V30 9253 H 887.134 1.27033 -6.83292 0
M  V30 9254 H 890.325 1.13911 -4.54029 0
M  V30 9255 H 890.498 1.33063 -6.34191 0
M  V30 9256 N 883.904 1.48273 0.534124 0
M  V30 9257 C 884.867 1.6201 1.62127 0
M  V30 9258 C 885.867 0.493653 1.53035 0
M  V30 9259 O 887.057 0.759337 1.56779 0
M  V30 9260 C 884.189 1.5864 3.01739 0
M  V30 9261 H 885.382 2.58944 1.51288 0
M  V30 9262 H 882.935 1.36808 0.755861 0
M  V30 9263 H 883.67 0.631685 3.18088 0
M  V30 9264 H 883.455 2.40415 3.09747 0
M  V30 9265 H 884.945 1.71438 3.80787 0
M  V30 9266 N 885.382 -0.782676 1.36792 0
M  V30 9267 C 886.628 -1.54238 1.32597 0
M  V30 9268 C 886.983 -1.92179 -0.0921366 0
M  V30 9269 O 886.276 -1.60381 -1.04826 0
M  V30 9270 C 886.47 -2.82542 2.18872 0
M  V30 9271 C 886.299 -2.5714 3.6893 0
M  V30 9272 C 885.069 -2.5182 4.38081 0
M  V30 9273 C 887.267 -2.25878 4.62043 0
M  V30 9274 N 885.249 -2.18387 5.73742 0
M  V30 9275 C 886.62 -2.02491 5.86001 0
M  V30 9276 C 888.675 -2.11941 4.50539 0
M  V30 9277 C 887.378 -1.66576 6.99746 0
M  V30 9278 C 889.404 -1.77426 5.64158 0
M  V30 9279 C 888.766 -1.54891 6.87159 0
M  V30 9280 H 884.865 -0.565152 0.540488 0
M  V30 9281 H 887.449 -0.914079 1.71909 0
M  V30 9282 H 885.62 -3.43228 1.81794 0
M  V30 9283 H 887.352 -3.48338 2.06017 0
M  V30 9284 H 884.107 -2.67298 3.90958 0
M  V30 9285 H 884.531 -2.04398 6.45407 0
M  V30 9286 H 889.173 -2.28051 3.56024 0
M  V30 9287 H 886.891 -1.49205 7.94206 0
M  V30 9288 H 890.477 -1.67316 5.57222 0
M  V30 9289 H 889.357 -1.28577 7.73588 0
M  V30 9290 N 886.86 -1.21182 -1.00761 0
M  V30 9291 C 888.107 -1.02746 -1.74498 0
M  V30 9292 C 888.435 0.439344 -1.89473 0
M  V30 9293 O 887.69 1.34232 -1.42409 0
M  V30 9294 C 887.989 -1.6667 -3.16158 0
M  V30 9295 C 887.655 -3.16515 -3.21137 0
M  V30 9296 C 886.317 -3.57405 -3.22203 0
M  V30 9297 C 888.669 -4.12495 -3.18587 0
M  V30 9298 C 885.997 -4.92786 -3.18401 0
M  V30 9299 C 888.349 -5.47833 -3.16326 0
M  V30 9300 C 887.013 -5.88124 -3.157 0
M  V30 9301 H 886.283 -0.375974 -0.638533 0
M  V30 9302 H 888.93 -1.50736 -1.18114 0
M  V30 9303 H 887.235 -1.10966 -3.75758 0
M  V30 9304 H 888.932 -1.49911 -3.71924 0
M  V30 9305 H 885.522 -2.83947 -3.21048 0
M  V30 9306 H 889.706 -3.81932 -3.16925 0
M  V30 9307 H 884.962 -5.23253 -3.16253 0
M  V30 9308 H 889.136 -6.21942 -3.13306 0
M  V30 9309 H 886.763 -6.92995 -3.12508 0
M  V30 9310 N 888.338 1.20213 -1.01915 0
M  V30 9311 C 889.27 2.2251 -0.549725 0
M  V30 9312 C 890.283 1.58558 0.369235 0
M  V30 9313 O 891.472 1.77715 0.167176 0
M  V30 9314 C 888.572 3.38189 0.219432 0
M  V30 9315 C 887.745 4.31729 -0.702066 0
M  V30 9316 C 886.804 5.26196 0.0199624 0
M  V30 9317 O 885.83 5.65993 -0.60339 0
M  V30 9318 N 887.032 5.65895 1.29397 0
M  V30 9319 H 889.797 2.63412 -1.42948 0
M  V30 9320 H 887.358 1.3478 -0.896987 0
M  V30 9321 H 889.35 3.98392 0.711763 0
M  V30 9322 H 887.92 2.96156 1.00051 0
M  V30 9323 H 887.14 3.69455 -1.37466 0
M  V30 9324 H 888.428 4.91145 -1.3287 0
M  V30 9325 H 887.826 5.35579 1.8213 0
M  V30 9326 H 886.383 6.28395 1.73098 0
M  V30 9327 N 889.816 0.795718 1.36037 0
M  V30 9328 C 891.062 0.371574 1.99367 0
M  V30 9329 C 891.395 -1.0557 1.62999 0
M  V30 9330 O 890.67 -1.73051 0.887895 0
M  V30 9331 C 890.953 0.542622 3.55988 0
M  V30 9332 C 890.806 2.01404 4.0219 0
M  V30 9333 C 892.125 -0.0384527 4.40083 0
M  V30 9334 H 889.244 0.136483 0.724252 0
M  V30 9335 H 891.886 1.00323 1.61355 0
M  V30 9336 H 890.036 0.0049053 3.885 0
M  V30 9337 H 891.708 2.6133 3.80137 0
M  V30 9338 H 889.951 2.51439 3.53498 0
M  V30 9339 H 890.622 2.08466 5.11122 0
M  V30 9340 H 893.098 0.420634 4.13968 0
M  V30 9341 H 891.974 0.111214 5.48787 0
M  V30 9342 H 892.235 -1.13116 4.27384 0
M  V30 9343 N 891.294 -1.47756 0.548274 0
M  V30 9344 C 892.543 -2.01691 0.0187961 0
M  V30 9345 C 892.856 -1.42894 -1.33569 0
M  V30 9346 O 894.062 -1.88438 -1.95457 0
M  V30 9347 C 892.518 -3.59896 -0.016847 0
M  V30 9348 C 892.126 -4.27683 1.33385 0
M  V30 9349 C 893.87 -4.21614 -0.494188 0
M  V30 9350 C 891.777 -5.7787 1.2578 0
M  V30 9351 H 890.707 -0.753993 0.00325648 0
M  V30 9352 H 893.358 -1.69838 0.694792 0
M  V30 9353 H 891.74 -3.88672 -0.758304 0
M  V30 9354 H 892.914 -4.10559 2.09232 0
M  V30 9355 H 891.229 -3.77915 1.7484 0
M  V30 9356 H 893.826 -5.3166 -0.569342 0
M  V30 9357 H 894.169 -3.88176 -1.50417 0
M  V30 9358 H 894.702 -3.97336 0.192138 0
M  V30 9359 H 891.441 -6.15912 2.2435 0
M  V30 9360 H 890.961 -5.97355 0.540997 0
M  V30 9361 H 892.64 -6.39897 0.956109 0
M  V30 9362 N 892.772 -0.284283 -1.55015 0
M  V30 9363 C 893.682 0.60906 -2.26556 0
M  V30 9364 C 894.698 1.16246 -1.29472 0
M  V30 9365 O 895.874 1.1908 -1.62425 0
M  V30 9366 C 892.939 1.77246 -2.97968 0
M  V30 9367 C 892 1.25482 -4.10552 0
M  V30 9368 C 891.233 2.36277 -4.78549 0
M  V30 9369 O 891.456 3.55829 -4.45805 0
M  V30 9370 O 890.39 2.03914 -5.66306 0
M  V30 9371 H 894.216 0.0292298 -3.03686 0
M  V30 9372 H 891.801 -0.0513466 -1.49312 0
M  V30 9373 H 893.683 2.45062 -3.42815 0
M  V30 9374 H 892.358 2.33921 -2.23747 0
M  V30 9375 H 891.265 0.542859 -3.7014 0
M  V30 9376 H 892.598 0.733708 -4.86701 0
M  V30 9377 N 894.251 1.57596 -0.0117121 0
M  V30 9378 C 895.214 2.08089 0.960816 0
M  V30 9379 C 896.214 0.992519 1.26514 0
M  V30 9380 O 897.404 1.25475 1.20837 0
M  V30 9381 C 894.536 2.53217 2.28241 0
M  V30 9382 H 895.729 2.9529 0.523829 0
M  V30 9383 H 893.282 1.54508 0.235995 0
M  V30 9384 H 894.017 1.69294 2.76604 0
M  V30 9385 H 893.802 3.32714 2.0747 0
M  V30 9386 H 895.292 2.92568 2.97983 0
M  V30 9387 N 895.729 -0.261212 1.5542 0
M  V30 9388 C 896.677 -1.34298 1.89913 0
M  V30 9389 C 897.671 -1.50547 0.776665 0
M  V30 9390 O 898.877 -1.52191 0.961139 0
M  V30 9391 H 895.252 -0.4494 0.602946 0
M  V30 9392 H 897.223 -1.02464 2.80256 0
M  V30 9393 C 895.972 -2.69423 2.19788 0
M  V30 9394 H 895.295 -2.57715 3.05652 0
M  V30 9395 H 896.735 -3.44026 2.47835 0
M  V30 9396 C 895.194 -3.21423 1.00939 0
M  V30 9397 O 895.724 -4.00921 0.250034 0
M  V30 9398 N 893.93 -2.7926 0.803883 0
M  V30 9399 H 893.477 -2.14724 1.42308 0
M  V30 9400 H 893.435 -3.14398 0.0103257 0
M  V30 9401 N 897.207 -1.48554 -0.526253 0
M  V30 9402 C 898.437 -1.60197 -1.30463 0
M  V30 9403 C 898.845 -0.26278 -1.87366 0
M  V30 9404 O 898.188 0.758537 -1.67308 0
M  V30 9405 C 898.25 -2.59223 -2.49085 0
M  V30 9406 C 897.914 -4.04199 -2.13241 0
M  V30 9407 C 898.911 -4.91771 -1.68694 0
M  V30 9408 C 896.596 -4.49762 -2.2365 0
M  V30 9409 C 898.59 -6.22934 -1.35026 0
M  V30 9410 C 896.277 -5.80945 -1.89594 0
M  V30 9411 C 897.275 -6.67354 -1.45353 0
M  V30 9412 O 896.963 -7.96096 -1.11745 0
M  V30 9413 H 896.695 -0.54284 -0.402866 0
M  V30 9414 H 899.249 -1.95137 -0.641157 0
M  V30 9415 H 897.479 -2.19412 -3.18426 0
M  V30 9416 H 899.168 -2.60661 -3.11144 0
M  V30 9417 H 899.934 -4.57806 -1.6012 0
M  V30 9418 H 895.813 -3.8269 -2.5704 0
M  V30 9419 H 899.357 -6.90334 -1.00422 0
M  V30 9420 H 895.254 -6.14444 -1.9781 0
M  V30 9421 H 896.022 -8.08882 -1.25111 0
M  V30 9422 N 898.685 0.775411 -1.37205 0
M  V30 9423 C 899.635 1.87867 -1.29189 0
M  V30 9424 C 900.619 1.59885 -0.180466 0
M  V30 9425 O 901.811 1.72077 -0.414536 0
M  V30 9426 C 898.94 3.25285 -1.09748 0
M  V30 9427 C 898.026 3.59231 -2.25419 0
M  V30 9428 N 898.417 3.64386 -3.50795 0
M  V30 9429 C 896.715 3.89375 -2.17492 0
M  V30 9430 C 897.416 3.94974 -4.27048 0
M  V30 9431 N 896.392 4.10684 -3.56146 0
M  V30 9432 H 900.194 1.90099 -2.24142 0
M  V30 9433 H 897.708 0.971667 -1.30125 0
M  V30 9434 H 899.705 4.04207 -1.02091 0
M  V30 9435 H 898.365 3.2432 -0.157083 0
M  V30 9436 H 899.376 3.46682 -3.8475 0
M  V30 9437 H 896.053 3.96254 -1.31489 0
M  V30 9438 H 897.443 4.05768 -5.35539 0
M  V30 9439 N 900.163 1.21714 1.00117 0
M  V30 9440 C 901.388 1.06357 1.78054 0
M  V30 9441 C 901.813 -0.382075 1.84179 0
M  V30 9442 O 901.171 -1.27575 1.28819 0
M  V30 9443 C 901.219 1.66982 3.19608 0
M  V30 9444 O 900.323 0.917892 4.02055 0
M  V30 9445 H 899.664 0.374074 0.548602 0
M  V30 9446 H 902.194 1.61338 1.25822 0
M  V30 9447 H 902.204 1.71363 3.70268 0
M  V30 9448 H 900.879 2.72185 3.14465 0
M  V30 9449 H 899.456 0.949473 3.6061 0
M  V30 9450 N 901.641 -1.19671 1.02551 0
M  V30 9451 C 902.866 -1.93774 0.739363 0
M  V30 9452 C 903.291 -1.74787 -0.695064 0
M  V30 9453 O 902.649 -1.04796 -1.47944 0
M  V30 9454 C 902.697 -3.43684 1.09149 0
M  V30 9455 O 901.801 -4.11874 0.208213 0
M  V30 9456 H 901.142 -0.605064 0.273484 0
M  V30 9457 H 903.672 -1.51846 1.37128 0
M  V30 9458 H 903.682 -3.94339 1.04695 0
M  V30 9459 H 902.357 -3.56826 2.13654 0
M  V30 9460 H 900.934 -3.716 0.311045 0
M  V30 9461 N 903.119 -0.802921 -1.35613 0
M  V30 9462 C 904.067 -0.198783 -2.31749 0
M  V30 9463 C 905.061 0.649416 -1.56458 0
M  V30 9464 O 906.267 0.542989 -1.71615 0
M  V30 9465 H 902.642 -0.0455177 -0.750621 0
M  V30 9466 H 904.613 -1.02479 -2.80251 0
M  V30 9467 C 903.362 0.641066 -3.41739 0
M  V30 9468 H 902.685 -0.00226244 -3.998 0
M  V30 9469 H 904.125 1.03022 -4.11294 0
M  V30 9470 C 902.584 1.80505 -2.84464 0
M  V30 9471 O 903.114 2.90235 -2.77717 0
M  V30 9472 N 901.32 1.61542 -2.41563 0
M  V30 9473 H 900.867 0.722863 -2.4725 0
M  V30 9474 H 900.825 2.39581 -2.03589 0
M  V30 9475 N 904.597 1.47463 -0.556102 0
M  V30 9476 C 905.56 2.28478 0.181743 0
M  V30 9477 C 906.56 1.36886 0.843738 0
M  V30 9478 O 907.75 1.59527 0.69977 0
M  V30 9479 C 904.882 3.16534 1.26566 0
M  V30 9480 H 906.075 2.95182 -0.529892 0
M  V30 9481 H 903.628 1.53134 -0.313005 0
M  V30 9482 H 904.363 2.5452 2.00973 0
M  V30 9483 H 904.148 3.83939 0.795798 0
M  V30 9484 H 905.638 3.77579 1.78393 0
M  V30 9485 N 906.075 0.2925 1.54862 0
M  V30 9486 C 907.305 -0.321646 2.04081 0
M  V30 9487 C 907.713 -1.48712 1.16967 0
M  V30 9488 O 907.056 -1.82755 0.18609 0
M  V30 9489 C 907.118 -0.848678 3.49339 0
M  V30 9490 C 906.782 0.190416 4.56603 0
M  V30 9491 C 907.779 1.01595 5.09877 0
M  V30 9492 C 905.464 0.329666 5.01217 0
M  V30 9493 C 907.458 1.96676 6.06298 0
M  V30 9494 C 905.145 1.28393 5.9746 0
M  V30 9495 C 906.143 2.10097 6.49883 0
M  V30 9496 O 905.831 3.03907 7.44242 0
M  V30 9497 H 905.563 -0.075098 0.671816 0
M  V30 9498 H 908.117 0.427531 2.00901 0
M  V30 9499 H 906.347 -1.64823 3.49815 0
M  V30 9500 H 908.036 -1.37779 3.81801 0
M  V30 9501 H 908.802 0.919197 4.7621 0
M  V30 9502 H 904.681 -0.296317 4.60047 0
M  V30 9503 H 908.225 2.60488 6.47141 0
M  V30 9504 H 904.122 1.38144 6.30545 0
M  V30 9505 H 904.89 2.98787 7.62016 0
M  V30 9506 N 907.553 -1.57587 0.0200696 0
M  V30 9507 C 908.503 -2.0616 -0.973751 0
M  V30 9508 C 909.487 -0.960282 -1.29102 0
M  V30 9509 O 910.679 -1.22391 -1.27865 0
M  V30 9510 C 907.808 -2.58487 -2.25919 0
M  V30 9511 C 906.894 -3.75533 -1.97068 0
M  V30 9512 N 907.285 -4.86482 -1.38451 0
M  V30 9513 C 905.583 -3.83847 -2.27107 0
M  V30 9514 C 906.284 -5.67773 -1.26527 0
M  V30 9515 N 905.26 -5.14398 -1.75772 0
M  V30 9516 H 909.062 -2.89346 -0.515365 0
M  V30 9517 H 906.576 -1.61341 -0.185163 0
M  V30 9518 H 908.573 -2.91572 -2.97979 0
M  V30 9519 H 907.233 -1.76728 -2.72392 0
M  V30 9520 H 908.244 -5.06922 -1.06069 0
M  V30 9521 H 904.921 -3.12978 -2.76316 0
M  V30 9522 H 906.311 -6.66966 -0.812785 0
M  V30 9523 N 909.032 0.252966 -1.55557 0
M  V30 9524 C 909.98 1.33289 -1.90622 0
M  V30 9525 C 910.974 1.50133 -0.784638 0
M  V30 9526 O 912.18 1.51679 -0.969196 0
M  V30 9527 H 908.555 0.446196 -0.605321 0
M  V30 9528 H 910.526 1.00977 -2.80796 0
M  V30 9529 C 909.275 2.68254 -2.21213 0
M  V30 9530 H 908.598 2.5609 -3.07014 0
M  V30 9531 H 910.038 3.42707 -2.49656 0
M  V30 9532 C 908.497 3.20884 -1.02642 0
M  V30 9533 O 909.027 4.00783 -0.271292 0
M  V30 9534 N 907.233 2.7883 -0.818682 0
M  V30 9535 H 906.78 2.13966 -1.43444 0
M  V30 9536 H 906.738 3.14388 -0.0269989 0
M  V30 9537 N 910.51 1.48831 0.518367 0
M  V30 9538 C 911.735 1.61379 1.30275 0
M  V30 9539 C 912.16 0.278571 1.86026 0
M  V30 9540 O 911.518 -0.751427 1.64995 0
M  V30 9541 C 911.566 2.67225 2.42122 0
M  V30 9542 O 910.67 2.25192 3.45489 0
M  V30 9543 H 910.011 0.540742 0.385349 0
M  V30 9544 H 912.541 1.949 0.622498 0
M  V30 9545 H 912.551 2.88859 2.8814 0
M  V30 9546 H 911.226 3.64155 2.00907 0
M  V30 9547 H 909.803 2.13819 3.05509 0
M  V30 9548 N 911.988 -0.768124 1.37614 0
M  V30 9549 C 913.216 -1.55726 1.36224 0
M  V30 9550 C 913.631 -1.8873 -0.0515357 0
M  V30 9551 O 912.988 -1.51718 -1.0143 0
M  V30 9552 C 913.039 -2.86533 2.20412 0
M  V30 9553 O 912.76 -2.54942 3.56281 0
M  V30 9554 C 914.261 -3.80745 2.27041 0
M  V30 9555 H 911.481 -0.482325 0.46648 0
M  V30 9556 H 914.025 -0.95176 1.81002 0
M  V30 9557 H 912.18 -3.43496 1.79134 0
M  V30 9558 H 912.594 -3.38732 4.00451 0
M  V30 9559 H 914.068 -4.69523 2.90263 0
M  V30 9560 H 914.545 -4.20138 1.27987 0
M  V30 9561 H 915.151 -3.2971 2.68647 0
M  V30 9562 N 913.466 -1.22244 -0.994698 0
M  V30 9563 C 914.416 -0.958244 -2.06886 0
M  V30 9564 C 915.4 0.0904481 -1.60646 0
M  V30 9565 O 916.592 -0.119837 -1.76594 0
M  V30 9566 C 913.721 -0.535944 -3.39091 0
M  V30 9567 C 912.807 -1.61927 -3.9197 0
M  V30 9568 N 913.198 -2.84659 -4.18094 0
M  V30 9569 C 911.496 -1.49053 -4.20356 0
M  V30 9570 C 912.197 -3.54697 -4.61048 0
M  V30 9571 N 911.173 -2.82164 -4.64634 0
M  V30 9572 H 914.975 -1.89056 -2.25022 0
M  V30 9573 H 912.489 -1.1197 -1.17629 0
M  V30 9574 H 914.486 -0.327997 -4.15608 0
M  V30 9575 H 913.146 0.38949 -3.22355 0
M  V30 9576 H 914.157 -3.21104 -4.06341 0
M  V30 9577 H 910.834 -0.631154 -4.12702 0
M  V30 9578 H 912.224 -4.59837 -4.89898 0
M  V30 9579 N 914.944 1.19125 -1.03184 0
M  V30 9580 C 915.907 2.20662 -0.619766 0
M  V30 9581 C 916.907 1.57621 0.318179 0
M  V30 9582 O 918.097 1.73885 0.104783 0
M  V30 9583 C 915.229 3.40774 0.0926696 0
M  V30 9584 H 916.422 2.58633 -1.5182 0
M  V30 9585 H 913.975 1.32855 -0.823364 0
M  V30 9586 H 914.71 3.08324 1.00531 0
M  V30 9587 H 914.495 3.87766 -0.581344 0
M  V30 9588 H 915.985 4.15977 0.367792 0
M  V30 9589 N 916.422 0.810101 1.35185 0
M  V30 9590 C 917.385 0.22852 2.28058 0
M  V30 9591 C 918.385 -0.586168 1.49735 0
M  V30 9592 O 919.575 -0.40414 1.69447 0
M  V30 9593 C 916.707 -0.681041 3.34028 0
M  V30 9594 H 917.9 1.04768 2.81005 0
M  V30 9595 H 915.453 0.58101 1.451 0
M  V30 9596 H 916.188 -1.52375 2.86273 0
M  V30 9597 H 915.973 -0.0985276 3.91976 0
M  V30 9598 H 917.463 -1.08217 4.03335 0
M  V30 9599 N 917.9 -1.47166 0.563914 0
M  V30 9600 C 919.177 -1.95586 -0.0236172 0
M  V30 9601 C 919.557 -1.50655 -1.47872 0
M  V30 9602 O 918.905 -0.748479 -2.15894 0
M  V30 9603 C 919.115 -3.48762 0.128841 0
M  V30 9604 C 920.463 -4.24598 -0.0130544 0
M  V30 9605 O 921.487 -3.56155 0.0567242 0
M  V30 9606 O 920.346 -5.46253 -0.164332 0
M  V30 9607 H 917.44 -0.824793 -0.0603789 0
M  V30 9608 H 919.986 -1.57536 0.63091 0
M  V30 9609 H 918.758 -3.74291 1.14113 0
M  V30 9610 H 918.381 -3.93594 -0.56299 0
M  V30 9611 N 919.378 -0.300708 -1.54705 0
M  V30 9612 C 920.624 0.309111 -2.0043 0
M  V30 9613 C 920.957 1.53562 -1.1888 0
M  V30 9614 O 920.232 1.92683 -0.265205 0
M  V30 9615 C 920.515 0.665995 -3.53888 0
M  V30 9616 C 920.368 -0.56963 -4.46178 0
M  V30 9617 C 921.687 1.49262 -4.14016 0
M  V30 9618 H 918.806 0.110878 -0.728612 0
M  V30 9619 H 921.448 -0.412748 -1.85463 0
M  V30 9620 H 919.598 1.281 -3.66773 0
M  V30 9621 H 921.27 -1.20811 -4.45199 0
M  V30 9622 H 919.513 -1.20292 -4.16788 0
M  V30 9623 H 920.184 -0.275785 -5.51311 0
M  V30 9624 H 922.66 0.972979 -4.04564 0
M  V30 9625 H 921.536 1.71111 -5.21548 0
M  V30 9626 H 921.797 2.48174 -3.65872 0
M  V30 9627 N 920.856 1.57574 -0.0284266 0
M  V30 9628 C 921.786 2.1321 0.952039 0
M  V30 9629 C 922.767 1.04806 1.33977 0
M  V30 9630 O 923.952 1.32635 1.41851 0
M  V30 9631 C 921.082 2.65862 2.23461 0
M  V30 9632 C 920.036 3.79047 1.98765 0
M  V30 9633 C 919.362 4.18124 3.33281 0
M  V30 9634 C 920.662 5.05151 1.32739 0
M  V30 9635 H 922.356 2.95385 0.488705 0
M  V30 9636 H 919.902 1.42092 0.233628 0
M  V30 9637 H 921.855 3.03417 2.92431 0
M  V30 9638 H 920.579 1.80848 2.71959 0
M  V30 9639 H 919.238 3.41929 1.32213 0
M  V30 9640 H 918.886 3.30092 3.79537 0
M  V30 9641 H 918.586 4.94396 3.17563 0
M  V30 9642 H 920.11 4.58262 4.0352 0
M  V30 9643 H 921.524 5.40297 1.91708 0
M  V30 9644 H 919.921 5.86416 1.27421 0
M  V30 9645 H 920.991 4.83969 0.300261 0
M  V30 9646 N 922.334 -0.244713 1.55689 0
M  V30 9647 C 923.284 -1.30596 1.86892 0
M  V30 9648 C 924.268 -1.43388 0.729972 0
M  V30 9649 O 925.46 -1.46593 0.99194 0
M  V30 9650 C 922.589 -2.66099 2.16902 0
M  V30 9651 C 921.675 -2.57302 3.37129 0
M  V30 9652 N 922.066 -2.18139 4.56343 0
M  V30 9653 C 920.364 -2.88311 3.40283 0
M  V30 9654 C 921.065 -2.20028 5.38482 0
M  V30 9655 N 920.041 -2.59616 4.77599 0
M  V30 9656 H 923.843 -0.993699 2.76591 0
M  V30 9657 H 921.357 -0.453334 1.55944 0
M  V30 9658 H 923.354 -3.4269 2.37422 0
M  V30 9659 H 922.014 -2.9819 1.28502 0
M  V30 9660 H 923.025 -1.89647 4.81928 0
M  V30 9661 H 919.702 -3.24928 2.62161 0
M  V30 9662 H 921.092 -1.9207 6.43862 0
M  V30 9663 N 923.813 -1.49104 -0.510467 0
M  V30 9664 C 924.776 -1.64569 -1.59529 0
M  V30 9665 C 925.776 -0.517937 -1.5223 0
M  V30 9666 O 926.966 -0.784183 -1.55551 0
M  V30 9667 C 924.098 -1.6342 -2.99177 0
M  V30 9668 H 925.291 -2.61318 -1.4715 0
M  V30 9669 H 922.844 -1.37993 -0.734001 0
M  V30 9670 H 923.579 -0.68221 -3.17043 0
M  V30 9671 H 923.364 -2.45312 -3.05883 0
M  V30 9672 H 924.854 -1.77474 -3.78011 0
M  V30 9673 N 925.291 0.760815 -1.38019 0
M  V30 9674 C 926.519 1.55001 -1.37048 0
M  V30 9675 C 926.934 1.88754 0.0415261 0
M  V30 9676 O 926.291 1.52254 1.00624 0
M  V30 9677 C 926.342 2.8536 -2.21928 0
M  V30 9678 O 926.063 2.53049 -3.57628 0
M  V30 9679 C 927.564 3.79536 -2.29057 0
M  V30 9680 H 924.784 0.479844 -0.469032 0
M  V30 9681 H 927.328 0.942148 -1.81504 0
M  V30 9682 H 925.483 3.42542 -1.80953 0
M  V30 9683 H 925.897 3.36604 -4.02241 0
M  V30 9684 H 927.371 4.67977 -2.92749 0
M  V30 9685 H 927.848 4.19453 -1.30213 0
M  V30 9686 H 928.454 3.28281 -2.70392 0
M  V30 9687 N 926.769 1.22769 0.988202 0
M  V30 9688 C 927.732 1.00325 2.06076 0
M  V30 9689 C 928.732 -0.0320618 1.60768 0
M  V30 9690 O 929.922 0.206912 1.72967 0
M  V30 9691 C 927.054 0.516376 3.36966 0
M  V30 9692 H 928.247 1.95499 2.27421 0
M  V30 9693 H 925.8 1.04704 1.16047 0
M  V30 9694 H 926.535 -0.439498 3.21308 0
M  V30 9695 H 926.32 1.26337 3.71189 0
M  V30 9696 H 927.81 0.37974 4.1587 0
M  V30 9697 N 928.247 -1.18576 1.03814 0
M  V30 9698 C 929.494 -1.88493 0.740036 0
M  V30 9699 C 929.822 -1.80198 -0.732056 0
M  V30 9700 O 929.077 -1.19509 -1.54971 0
M  V30 9701 C 929.376 -3.38448 1.14837 0
M  V30 9702 C 929.042 -3.66947 2.62031 0
M  V30 9703 C 927.704 -3.74435 3.02244 0
M  V30 9704 C 930.056 -3.79534 3.57217 0
M  V30 9705 C 927.384 -3.91986 4.36536 0
M  V30 9706 C 929.736 -3.986 4.91223 0
M  V30 9707 C 928.4 -4.04323 5.31111 0
M  V30 9708 H 927.67 -0.689746 0.270798 0
M  V30 9709 H 930.317 -1.40364 1.3027 0
M  V30 9710 H 928.622 -3.88539 0.504472 0
M  V30 9711 H 930.319 -3.90882 0.89511 0
M  V30 9712 H 926.909 -3.61734 2.29883 0
M  V30 9713 H 931.093 -3.73083 3.27296 0
M  V30 9714 H 926.349 -3.9466 4.66962 0
M  V30 9715 H 930.523 -4.07281 5.64885 0
M  V30 9716 H 928.15 -4.17676 6.35178 0
M  V30 9717 N 929.725 -0.817259 -1.34754 0
M  V30 9718 C 930.972 -0.402648 -1.98457 0
M  V30 9719 C 931.3 1.03287 -1.64809 0
M  V30 9720 O 930.555 1.73316 -0.908851 0
M  V30 9721 C 930.854 -0.5453 -3.53216 0
M  V30 9722 C 930.52 -1.9457 -4.06759 0
M  V30 9723 C 929.182 -2.32881 -4.21094 0
M  V30 9724 C 931.534 -2.86141 -4.35629 0
M  V30 9725 C 928.862 -3.62108 -4.61622 0
M  V30 9726 C 931.214 -4.14826 -4.776 0
M  V30 9727 C 929.878 -4.53121 -4.9014 0
M  V30 9728 H 929.148 -0.147339 -0.726204 0
M  V30 9729 H 931.795 -1.04011 -1.60791 0
M  V30 9730 H 930.1 0.175576 -3.91406 0
M  V30 9731 H 931.797 -0.205112 -4.00475 0
M  V30 9732 H 928.387 -1.6381 -3.96061 0
M  V30 9733 H 932.571 -2.57788 -4.24098 0
M  V30 9734 H 927.827 -3.91613 -4.69521 0
M  V30 9735 H 932.001 -4.85874 -4.98899 0
M  V30 9736 H 929.628 -5.53307 -5.21302 0
M  V30 9737 N 931.203 1.46865 -0.571711 0
M  V30 9738 C 932.133 2.3298 0.155795 0
M  V30 9739 C 933.114 1.44678 0.894553 0
M  V30 9740 O 934.299 1.73513 0.872176 0
M  V30 9741 C 931.429 3.26745 1.17708 0
M  V30 9742 C 930.383 4.24401 0.553863 0
M  V30 9743 C 929.709 5.07595 1.68083 0
M  V30 9744 C 931.009 5.19884 -0.501827 0
M  V30 9745 H 932.703 2.94056 -0.563176 0
M  V30 9746 H 930.249 1.41402 -0.27228 0
M  V30 9747 H 932.202 3.85838 1.6943 0
M  V30 9748 H 930.926 2.63753 1.92618 0
M  V30 9749 H 929.585 3.66554 0.057815 0
M  V30 9750 H 929.233 4.40996 2.41933 0
M  V30 9751 H 928.933 5.73722 1.26953 0
M  V30 9752 H 930.457 5.6955 2.20103 0
M  V30 9753 H 931.871 5.73257 -0.0701057 0
M  V30 9754 H 930.268 5.94293 -0.832815 0
M  V30 9755 H 931.338 4.64482 -1.39229 0
M  V30 9756 N 932.681 0.308908 1.54543 0
M  V30 9757 C 933.929 -0.297447 1.99899 0
M  V30 9758 C 934.25 -1.53799 1.19878 0
M  V30 9759 O 933.52 -1.93639 0.29678 0
M  V30 9760 H 932.1 -0.112897 0.738419 0
M  V30 9761 H 934.762 0.422067 1.90275 0
M  V30 9762 H 933.858 -0.564016 3.06961 0
M  V30 9763 N 934.159 -1.57557 0.0367827 0
M  V30 9764 C 935.106 -2.10679 -0.942499 0
M  V30 9765 C 936.076 -1.01068 -1.31812 0
M  V30 9766 O 937.261 -1.28533 -1.41011 0
M  V30 9767 C 934.401 -2.64467 -2.21701 0
M  V30 9768 C 933.514 -3.88114 -1.89715 0
M  V30 9769 C 932.649 -4.30268 -3.11518 0
M  V30 9770 C 931.688 -5.46652 -2.75387 0
M  V30 9771 N 930.825 -5.83927 -3.89838 0
M  V30 9772 H 935.665 -2.94066 -0.482588 0
M  V30 9773 H 933.202 -1.45344 -0.226597 0
M  V30 9774 H 935.16 -2.93745 -2.96259 0
M  V30 9775 H 933.79 -1.83898 -2.65295 0
M  V30 9776 H 932.842 -3.65516 -1.05366 0
M  V30 9777 H 934.154 -4.72743 -1.5911 0
M  V30 9778 H 933.308 -4.61023 -3.94389 0
M  V30 9779 H 932.047 -3.44421 -3.4529 0
M  V30 9780 H 931.052 -5.15583 -1.90929 0
M  V30 9781 H 932.277 -6.34204 -2.42822 0
M  V30 9782 H 930.223 -5.01035 -4.23438 0
M  V30 9783 H 930.14 -6.63214 -3.62883 0
M  V30 9784 H 931.408 -6.19291 -4.73391 0
M  V30 9785 N 935.637 0.236453 -1.55816 0
M  V30 9786 C 936.547 1.31418 -1.94336 0
M  V30 9787 C 937.563 1.52095 -0.845164 0
M  V30 9788 O 938.739 1.65515 -1.14746 0
M  V30 9789 C 935.804 2.6468 -2.23932 0
M  V30 9790 C 934.865 2.52435 -3.47239 0
M  V30 9791 C 934.098 3.79342 -3.75414 0
M  V30 9792 O 934.321 4.81694 -3.05495 0
M  V30 9793 O 933.255 3.77347 -4.68927 0
M  V30 9794 H 937.081 1.01739 -2.86152 0
M  V30 9795 H 934.666 0.438084 -1.42833 0
M  V30 9796 H 936.548 3.4341 -2.44228 0
M  V30 9797 H 935.223 2.94071 -1.35292 0
M  V30 9798 H 934.13 1.71955 -3.32238 0
M  V30 9799 H 935.463 2.27987 -4.36214 0
M  V30 9800 N 937.115 1.49373 0.502552 0
M  V30 9801 C 938.531 1.36101 0.833591 0
M  V30 9802 C 938.731 0.392911 1.97632 0
M  V30 9803 O 937.787 -0.175975 2.51886 0
M  V30 9804 C 939.1 2.76782 1.17526 0
M  V30 9805 C 940.648 2.85471 1.28356 0
M  V30 9806 C 941.123 4.26915 1.65853 0
M  V30 9807 N 942.614 4.29719 1.72905 0
M  V30 9808 C 943.349 5.36127 2.0336 0
M  V30 9809 N 942.845 6.52782 2.32049 0
M  V30 9810 N 944.638 5.23542 2.04598 0
M  V30 9811 H 936.789 2.10912 -0.251008 0
M  V30 9812 H 939.052 0.946696 -0.0497037 0
M  V30 9813 H 938.758 3.49314 0.408965 0
M  V30 9814 H 938.632 3.1205 2.11907 0
M  V30 9815 H 941.019 2.13177 2.04058 0
M  V30 9816 H 941.1 2.53787 0.320304 0
M  V30 9817 H 940.744 4.99735 0.907022 0
M  V30 9818 H 940.674 4.56063 2.63276 0
M  V30 9819 H 943.165 3.45586 1.529 0
M  V30 9820 H 943.478 7.29701 2.54471 0
M  V30 9821 H 941.823 6.56011 2.29509 0
M  V30 9822 H 945.014 4.31413 1.8166 0
M  V30 9823 H 945.187 6.06565 2.27998 0
M  V30 9824 N 938.594 -0.753485 1.38421 0
M  V30 9825 C 939.84 -1.51485 1.34834 0
M  V30 9826 C 940.173 -1.94102 -0.0615381 0
M  V30 9827 O 939.448 -1.65439 -1.02274 0
M  V30 9828 C 939.731 -2.76736 2.30411 0
M  V30 9829 C 939.584 -2.40256 3.80259 0
M  V30 9830 C 940.903 -3.7876 2.24119 0
M  V30 9831 H 938.022 -0.549534 0.491102 0
M  V30 9832 H 940.664 -0.863006 1.6927 0
M  V30 9833 H 938.814 -3.32357 2.01175 0
M  V30 9834 H 940.486 -1.90409 4.20169 0
M  V30 9835 H 938.729 -1.72714 3.97935 0
M  V30 9836 H 939.4 -3.29869 4.42595 0
M  V30 9837 H 941.876 -3.32679 2.49928 0
M  V30 9838 H 940.752 -4.64092 2.93104 0
M  V30 9839 H 941.013 -4.24352 1.24006 0
M  V30 9840 N 940.072 -1.23292 -0.981677 0
M  V30 9841 C 941.019 -1.01296 -2.07383 0
M  V30 9842 C 941.989 0.069139 -1.65956 0
M  V30 9843 O 943.174 -0.0827108 -1.90621 0
M  V30 9844 C 940.314 -0.608876 -3.39686 0
M  V30 9845 C 939.427 -1.76296 -3.9439 0
M  V30 9846 C 938.562 -1.30578 -5.14901 0
M  V30 9847 C 937.601 -2.4307 -5.61768 0
M  V30 9848 N 936.738 -1.98319 -6.73509 0
M  V30 9849 H 941.578 -1.9478 -2.25532 0
M  V30 9850 H 939.115 -0.970356 -1.10555 0
M  V30 9851 H 941.073 -0.355702 -4.15681 0
M  V30 9852 H 939.703 0.288961 -3.21504 0
M  V30 9853 H 938.755 -2.13017 -3.15163 0
M  V30 9854 H 940.067 -2.60871 -4.25145 0
M  V30 9855 H 939.221 -1.01066 -5.98223 0
M  V30 9856 H 937.96 -0.430386 -4.85797 0
M  V30 9857 H 936.965 -2.73358 -4.77028 0
M  V30 9858 H 938.19 -3.31144 -5.92892 0
M  V30 9859 H 936.136 -1.13157 -6.46167 0
M  V30 9860 H 936.053 -2.76454 -7.0364 0
M  V30 9861 H 937.321 -1.71907 -7.60308 0
M  V30 9862 N 941.55 1.18024 -1.04442 0
M  V30 9863 C 942.798 1.87727 -0.74854 0
M  V30 9864 C 943.119 1.80975 0.726156 0
M  V30 9865 O 942.389 1.23061 1.52423 0
M  V30 9866 H 940.969 0.694974 -0.273897 0
M  V30 9867 H 943.631 1.43213 -1.32197 0
M  V30 9868 H 942.727 2.93665 -1.05674 0
M  V30 9869 N 943.028 0.824394 1.34319 0
M  V30 9870 C 944.253 0.425194 2.02995 0
M  V30 9871 C 944.678 -0.961476 1.6167 0
M  V30 9872 O 944.036 -1.62593 0.80207 0
M  V30 9873 C 944.084 0.537004 3.56579 0
M  V30 9874 O 943.188 -0.442576 4.10018 0
M  V30 9875 H 942.529 0.174853 0.640564 0
M  V30 9876 H 945.059 1.11522 1.71534 0
M  V30 9877 H 945.069 0.413311 4.05901 0
M  V30 9878 H 943.744 1.54836 3.86004 0
M  V30 9879 H 942.321 -0.277644 3.71865 0
M  V30 9880 N 944.506 -1.46559 0.579492 0
M  V30 9881 C 945.436 -2.33059 -0.143437 0
M  V30 9882 C 946.417 -1.4515 -0.886868 0
M  V30 9883 O 947.602 -1.73973 -0.862961 0
M  V30 9884 C 944.732 -3.27364 -1.15973 0
M  V30 9885 C 943.686 -4.24689 -0.531348 0
M  V30 9886 C 943.012 -5.08479 -1.65388 0
M  V30 9887 C 944.312 -5.1961 0.529391 0
M  V30 9888 H 946.006 -2.93753 0.578762 0
M  V30 9889 H 943.552 -1.41256 0.279775 0
M  V30 9890 H 945.505 -3.86732 -1.67382 0
M  V30 9891 H 944.229 -2.64771 -1.91217 0
M  V30 9892 H 942.888 -3.6658 -0.0383749 0
M  V30 9893 H 942.536 -4.42273 -2.3959 0
M  V30 9894 H 942.236 -5.74387 -1.23909 0
M  V30 9895 H 943.76 -5.70709 -2.17079 0
M  V30 9896 H 945.174 -5.73212 0.100506 0
M  V30 9897 H 943.571 -5.93843 0.86432 0
M  V30 9898 H 944.641 -4.63737 1.4169 0
M  V30 9899 N 945.984 -0.3171 -1.54377 0
M  V30 9900 C 947.261 0.341348 -1.92598 0
M  V30 9901 C 947.641 1.70402 -1.24605 0
M  V30 9902 O 946.989 2.25191 -0.387448 0
M  V30 9903 C 947.199 0.440003 -3.46215 0
M  V30 9904 C 948.547 0.703327 -4.18734 0
M  V30 9905 O 949.571 0.523181 -3.52337 0
M  V30 9906 O 948.43 1.05042 -5.3631 0
M  V30 9907 H 945.524 0.193696 -0.803997 0
M  V30 9908 H 948.07 -0.366341 -1.65699 0
M  V30 9909 H 946.842 -0.517299 -3.87866 0
M  V30 9910 H 946.465 1.19553 -3.792 0
M  V30 9911 N 947.462 1.57535 -0.0451378 0
M  V30 9912 C 948.394 2.08109 0.960372 0
M  V30 9913 C 949.407 1.0077 1.27864 0
M  V30 9914 O 950.596 1.28351 1.24049 0
M  V30 9915 C 947.696 2.50414 2.28355 0
M  V30 9916 C 946.869 3.8102 2.14808 0
M  V30 9917 C 945.928 4.09702 3.30198 0
M  V30 9918 O 944.954 4.79715 3.0637 0
M  V30 9919 N 946.156 3.61138 4.54489 0
M  V30 9920 H 948.921 2.94999 0.528752 0
M  V30 9921 H 946.482 1.61283 0.141248 0
M  V30 9922 H 948.474 2.66683 3.04405 0
M  V30 9923 H 947.044 1.68805 2.63104 0
M  V30 9924 H 946.264 3.74392 1.23387 0
M  V30 9925 H 947.552 4.66559 2.02978 0
M  V30 9926 H 946.95 3.04527 4.76739 0
M  V30 9927 H 945.507 3.82656 5.27653 0
M  V30 9928 N 948.94 -0.228186 1.55939 0
M  V30 9929 C 949.87 -1.28607 1.94891 0
M  V30 9930 C 950.851 -1.49236 0.816245 0
M  V30 9931 O 952.036 -1.61531 1.07803 0
M  V30 9932 C 949.166 -2.63719 2.25986 0
M  V30 9933 C 948.12 -2.57757 3.4168 0
M  V30 9934 C 947.446 -3.96837 3.58364 0
M  V30 9935 C 948.746 -2.13116 4.76843 0
M  V30 9936 H 950.44 -0.962531 2.83506 0
M  V30 9937 H 947.986 -0.461577 1.36402 0
M  V30 9938 H 949.939 -3.37878 2.51826 0
M  V30 9939 H 948.663 -2.97747 1.34217 0
M  V30 9940 H 947.322 -1.86055 3.15878 0
M  V30 9941 H 946.97 -4.28162 2.63982 0
M  V30 9942 H 946.67 -3.93731 4.36176 0
M  V30 9943 H 948.194 -4.72668 3.86545 0
M  V30 9944 H 949.608 -2.77015 5.01932 0
M  V30 9945 H 948.005 -2.21083 5.57891 0
M  V30 9946 H 949.075 -1.08326 4.72645 0
M  V30 9947 N 950.418 -1.49637 -0.494624 0
M  V30 9948 C 951.695 -1.4995 -1.25596 0
M  V30 9949 C 952.075 -0.230805 -2.09834 0
M  V30 9950 O 951.423 0.786625 -2.14533 0
M  V30 9951 C 951.633 -2.78204 -2.10721 0
M  V30 9952 C 952.981 -3.27946 -2.69698 0
M  V30 9953 O 954.005 -2.79365 -2.20984 0
M  V30 9954 O 952.864 -4.12571 -3.58395 0
M  V30 9955 H 949.958 -0.60044 -0.568684 0
M  V30 9956 H 952.504 -1.61906 -0.508371 0
M  V30 9957 H 951.276 -3.62029 -1.48494 0
M  V30 9958 H 950.899 -2.69139 -2.92661 0
M  V30 9959 N 951.896 0.746133 -1.38819 0
M  V30 9960 C 952.806 1.89063 -1.38897 0
M  V30 9961 C 953.822 1.71648 -0.28513 0
M  V30 9962 O 954.998 1.94443 -0.524783 0
M  V30 9963 C 952.063 3.24523 -1.22007 0
M  V30 9964 C 951.124 3.54411 -2.42263 0
M  V30 9965 C 950.357 4.83408 -2.26169 0
M  V30 9966 O 950.58 5.56325 -1.25931 0
M  V30 9967 O 949.514 5.12943 -3.14918 0
M  V30 9968 H 953.34 1.91951 -2.35347 0
M  V30 9969 H 950.925 0.892433 -1.19816 0
M  V30 9970 H 952.807 4.05496 -1.14677 0
M  V30 9971 H 951.482 3.2243 -0.286455 0
M  V30 9972 H 950.389 2.73569 -2.55168 0
M  V30 9973 H 951.722 3.61273 -3.3428 0
M  V30 9974 N 953.375 1.23811 0.975125 0
M  V30 9975 C 954.621 1.07495 1.71967 0
M  V30 9976 C 954.954 -0.386451 1.90316 0
M  V30 9977 O 954.229 -1.28591 1.45927 0
M  V30 9978 C 954.512 1.80694 3.11483 0
M  V30 9979 C 954.365 3.3454 3.00671 0
M  V30 9980 C 955.684 1.57367 4.11003 0
M  V30 9981 H 952.803 0.3919 0.624166 0
M  V30 9982 H 955.445 1.52383 1.13487 0
M  V30 9983 H 953.595 1.42538 3.61407 0
M  V30 9984 H 955.267 3.8225 2.5823 0
M  V30 9985 H 953.51 3.63301 2.37054 0
M  V30 9986 H 954.181 3.80951 3.99475 0
M  V30 9987 H 956.657 1.90545 3.69908 0
M  V30 9988 H 955.533 2.11052 5.06703 0
M  V30 9989 H 955.794 0.510221 4.39146 0
M  V30 9990 N 954.853 -1.17469 1.05066 0
M  V30 9991 C 955.816 -2.19648 0.654793 0
M  V30 9992 C 956.816 -1.58107 -0.293063 0
M  V30 9993 O 958.006 -1.74029 -0.077106 0
M  V30 9994 C 955.138 -3.40878 -0.0384437 0
M  V30 9995 H 956.331 -2.56184 1.55915 0
M  V30 9996 H 953.884 -1.31528 0.844396 0
M  V30 9997 H 954.619 -3.09885 -0.956133 0
M  V30 9998 H 954.404 -3.86792 0.642961 0
M  V30 9999 H 955.894 -4.1651 -0.301568 0
M  V30 10000 N 956.331 -0.831506 -1.3388 0
M  V30 10001 C 957.294 -0.264773 -2.27666 0
M  V30 10002 C 958.294 0.562273 -1.50649 0
M  V30 10003 O 959.484 0.377131 -1.70069 0
M  V30 10004 C 956.616 0.627814 -3.35069 0
M  V30 10005 H 957.809 -1.09225 -2.79303 0
M  V30 10006 H 955.362 -0.604021 -1.44157 0
M  V30 10007 H 956.097 1.47802 -2.88661 0
M  V30 10008 H 955.882 0.0361552 -3.92083 0
M  V30 10009 H 957.372 1.01786 -4.05005 0
M  V30 10010 N 957.809 1.4625 -0.587256 0
M  V30 10011 C 958.739 2.33132 0.131076 0
M  V30 10012 C 959.72 1.45619 0.879158 0
M  V30 10013 O 960.905 1.74428 0.853723 0
M  V30 10014 C 958.035 3.27975 1.14236 0
M  V30 10015 C 956.989 4.24965 0.508819 0
M  V30 10016 C 956.315 5.09349 1.62689 0
M  V30 10017 C 957.615 5.19322 -0.55694 0
M  V30 10018 H 959.309 2.93442 -0.594333 0
M  V30 10019 H 956.855 1.41106 -0.287263 0
M  V30 10020 H 958.808 3.87614 1.65328 0
M  V30 10021 H 957.532 2.65781 1.8981 0
M  V30 10022 H 956.191 3.66595 0.0189337 0
M  V30 10023 H 955.839 4.43537 2.37242 0
M  V30 10024 H 955.539 5.75036 1.20861 0
M  V30 10025 H 957.063 5.71852 2.14049 0
M  V30 10026 H 958.477 5.73151 -0.130903 0
M  V30 10027 H 956.874 5.93376 -0.895801 0
M  V30 10028 H 957.944 4.62979 -1.44148 0
M  V30 10029 N 959.287 0.325282 1.54207 0
M  V30 10030 C 960.536 -0.27768 1.99779 0
M  V30 10031 C 960.849 -1.5311 1.21723 0
M  V30 10032 O 962.055 -2.21017 1.57682 0
M  V30 10033 C 960.511 -0.545329 3.55745 0
M  V30 10034 C 960.119 0.691143 4.42637 0
M  V30 10035 C 961.863 -1.10815 4.09781 0
M  V30 10036 C 959.77 0.395302 5.90077 0
M  V30 10037 H 958.7 -0.107536 0.746292 0
M  V30 10038 H 961.351 0.437773 1.78202 0
M  V30 10039 H 959.733 -1.32101 3.73317 0
M  V30 10040 H 960.907 1.46653 4.3684 0
M  V30 10041 H 959.222 1.1743 3.99499 0
M  V30 10042 H 961.819 -1.34414 5.1753 0
M  V30 10043 H 962.162 -2.05806 3.6187 0
M  V30 10044 H 962.695 -0.393608 3.95848 0
M  V30 10045 H 959.434 1.31443 6.42186 0
M  V30 10046 H 958.954 -0.34235 5.98822 0
M  V30 10047 H 960.633 0.00576877 6.47 0
M  V30 10048 N 960.765 -1.57509 0.0534917 0
M  V30 10049 C 961.728 -2.10563 -0.905307 0
M  V30 10050 C 962.728 -1.02571 -1.23838 0
M  V30 10051 O 963.918 -1.28635 -1.17468 0
M  V30 10052 C 961.05 -2.5918 -2.21447 0
M  V30 10053 H 962.243 -2.96575 -0.445354 0
M  V30 10054 H 959.796 -1.55079 -0.194947 0
M  V30 10055 H 960.531 -1.76568 -2.72019 0
M  V30 10056 H 960.316 -3.38098 -1.98575 0
M  V30 10057 H 961.806 -3.00365 -2.90122 0
M  V30 10058 N 962.243 0.219913 -1.56058 0
M  V30 10059 C 963.206 1.25606 -1.91718 0
M  V30 10060 C 964.206 1.39721 -0.795912 0
M  V30 10061 O 965.396 1.37958 -1.06364 0
M  V30 10062 C 962.528 2.62961 -2.16943 0
M  V30 10063 H 963.721 0.951909 -2.84392 0
M  V30 10064 H 961.274 0.460398 -1.49365 0
M  V30 10065 H 962.009 2.98472 -1.26826 0
M  V30 10066 H 961.794 2.54093 -2.98629 0
M  V30 10067 H 963.284 3.37727 -2.45622 0
M  V30 10068 N 963.721 1.49897 0.486681 0
M  V30 10069 C 964.949 1.63837 1.26353 0
M  V30 10070 C 965.364 0.315428 1.86146 0
M  V30 10071 O 964.721 -0.700831 1.68507 0
M  V30 10072 C 964.772 2.71792 2.38351 0
M  V30 10073 O 964.493 3.98956 1.81013 0
M  V30 10074 C 965.994 2.96566 3.2949 0
M  V30 10075 H 963.214 0.551158 0.382709 0
M  V30 10076 H 965.758 1.96023 0.582694 0
M  V30 10077 H 963.913 2.42344 3.02238 0
M  V30 10078 H 964.327 4.58536 2.54647 0
M  V30 10079 H 965.801 3.75803 4.04322 0
M  V30 10080 H 966.278 2.07031 3.87343 0
M  V30 10081 H 966.884 3.27485 2.71355 0
M  V30 10082 N 965.199 -0.738761 1.39212 0
M  V30 10083 C 966.445 -1.50046 1.36433 0
M  V30 10084 C 966.778 -1.94157 -0.0409474 0
M  V30 10085 O 966.053 -1.66515 -1.00514 0
M  V30 10086 C 966.336 -2.74277 2.33333 0
M  V30 10087 C 966.189 -2.36209 3.82786 0
M  V30 10088 C 967.508 -3.76361 2.28123 0
M  V30 10089 H 964.627 -0.544294 0.496903 0
M  V30 10090 H 967.269 -0.845005 1.70175 0
M  V30 10091 H 965.419 -3.30204 2.04689 0
M  V30 10092 H 967.091 -1.85942 4.22165 0
M  V30 10093 H 965.334 -1.68483 3.99745 0
M  V30 10094 H 966.005 -3.25156 4.46069 0
M  V30 10095 H 968.481 -3.30009 2.53443 0
M  V30 10096 H 967.357 -4.60957 2.9801 0
M  V30 10097 H 967.618 -4.23013 1.28499 0
M  V30 10098 N 966.677 -1.24326 -0.968545 0
M  V30 10099 C 967.627 -1.00191 -2.04807 0
M  V30 10100 C 968.611 0.0563524 -1.60801 0
M  V30 10101 O 969.803 -0.157268 -1.763 0
M  V30 10102 C 966.932 -0.607749 -3.37878 0
M  V30 10103 C 966.018 -1.70204 -3.88447 0
M  V30 10104 N 966.409 -2.93463 -4.11962 0
M  V30 10105 C 964.707 -1.57936 -4.171 0
M  V30 10106 C 965.408 -3.64397 -4.5342 0
M  V30 10107 N 964.384 -2.91956 -4.58544 0
M  V30 10108 H 968.186 -1.93786 -2.20962 0
M  V30 10109 H 965.7 -1.1444 -1.15227 0
M  V30 10110 H 967.697 -0.416079 -4.14819 0
M  V30 10111 H 966.357 0.321026 -3.23109 0
M  V30 10112 H 967.368 -3.2965 -3.99438 0
M  V30 10113 H 964.045 -0.718552 -4.1127 0
M  V30 10114 H 965.435 -4.70125 -4.80034 0
M  V30 10115 N 968.156 1.1691 -1.05688 0
M  V30 10116 C 969.433 1.83266 -0.683601 0
M  V30 10117 C 969.813 1.93858 0.835602 0
M  V30 10118 O 969.161 1.47696 1.7435 0
M  V30 10119 C 969.371 3.20625 -1.37842 0
M  V30 10120 C 970.719 3.96473 -1.51967 0
M  V30 10121 O 971.743 3.30122 -1.33783 0
M  V30 10122 O 970.602 5.15393 -1.81749 0
M  V30 10123 H 967.696 0.791028 -0.241254 0
M  V30 10124 H 970.242 1.24165 -1.15677 0
M  V30 10125 H 969.014 3.07914 -2.41463 0
M  V30 10126 H 968.637 3.87398 -0.894921 0
M  V30 10127 N 969.634 0.838594 1.33437 0
M  V30 10128 C 970.88 0.434813 1.98084 0
M  V30 10129 C 971.213 -1.00331 1.66275 0
M  V30 10130 O 970.488 -1.70139 0.942501 0
M  V30 10131 C 970.771 0.655602 3.54082 0
M  V30 10132 C 970.624 2.14097 3.95578 0
M  V30 10133 C 971.943 0.101576 4.39983 0
M  V30 10134 H 969.062 0.159456 0.719544 0
M  V30 10135 H 971.704 1.05406 1.58081 0
M  V30 10136 H 969.854 0.128501 3.88287 0
M  V30 10137 H 971.526 2.73292 3.71631 0
M  V30 10138 H 969.769 2.62558 3.4532 0
M  V30 10139 H 970.44 2.24621 5.04231 0
M  V30 10140 H 972.916 0.552122 4.12421 0
M  V30 10141 H 971.792 0.28575 5.48156 0
M  V30 10142 H 972.053 -0.994616 4.30767 0
M  V30 10143 N 971.112 -1.45937 0.595003 0
M  V30 10144 C 972.389 -1.95592 0.0178748 0
M  V30 10145 C 972.769 -1.53758 -1.44643 0
M  V30 10146 O 972.117 -0.794104 -2.14257 0
M  V30 10147 C 972.327 -3.4841 0.202789 0
M  V30 10148 C 973.675 -4.2453 0.0770121 0
M  V30 10149 O 974.699 -3.55954 0.132257 0
M  V30 10150 O 973.558 -5.46479 -0.0484271 0
M  V30 10151 H 970.652 -0.825888 -0.0428702 0
M  V30 10152 H 973.198 -1.56162 0.664184 0
M  V30 10153 H 971.97 -3.71787 1.22027 0
M  V30 10154 H 971.593 -3.947 -0.479376 0
M  V30 10155 N 972.59 -0.333456 -1.54032 0
M  V30 10156 C 973.54 0.543745 -2.21421 0
M  V30 10157 C 974.524 1.07396 -1.19812 0
M  V30 10158 O 975.716 1.00934 -1.45401 0
M  V30 10159 C 972.845 1.69925 -2.98296 0
M  V30 10160 C 971.931 1.18345 -4.07253 0
M  V30 10161 N 972.322 0.388098 -5.04309 0
M  V30 10162 C 970.62 1.46128 -4.21382 0
M  V30 10163 C 971.321 0.109383 -5.81597 0
M  V30 10164 N 970.297 0.69825 -5.39097 0
M  V30 10165 H 974.099 -0.0711018 -2.93814 0
M  V30 10166 H 971.613 -0.139807 -1.61797 0
M  V30 10167 H 973.61 2.33954 -3.45067 0
M  V30 10168 H 972.27 2.31747 -2.27428 0
M  V30 10169 H 973.281 0.0300645 -5.17891 0
M  V30 10170 H 969.958 2.08463 -3.61731 0
M  V30 10171 H 971.348 -0.531554 -6.69794 0
M  V30 10172 N 974.068 1.57479 -0.061844 0
M  V30 10173 C 975.479 1.80627 0.472295 0
M  V30 10174 C 975.83 0.97496 1.70261 0
M  V30 10175 O 974.955 0.1946 2.15523 0
M  V30 10176 C 975.55 3.27608 0.863616 0
M  V30 10177 C 974.109 3.51638 1.34267 0
M  V30 10178 C 973.256 2.75412 0.323009 0
M  V30 10179 H 976.207 1.56072 -0.287634 0
M  V30 10180 H 976.228 3.39113 1.72577 0
M  V30 10181 H 975.74 3.88087 -0.0320226 0
M  V30 10182 H 973.841 2.96452 2.25714 0
M  V30 10183 H 973.954 4.60342 1.32747 0
M  V30 10184 H 972.318 2.4187 0.798175 0
M  V30 10185 H 973.101 3.38623 -0.564729 0
M  V30 10186 N 975.546 -0.211634 1.56173 0
M  V30 10187 C 976.794 -0.932704 1.7929 0
M  V30 10188 C 977.115 -1.84472 0.632076 0
M  V30 10189 O 976.385 -1.92739 -0.350519 0
M  V30 10190 H 974.965 -0.347393 0.661307 0
M  V30 10191 H 977.627 -0.22111 1.93642 0
M  V30 10192 H 976.723 -1.53365 2.71819 0
M  V30 10193 N 977.024 -1.50153 -0.478725 0
M  V30 10194 C 978.44 -1.3741 -0.811833 0
M  V30 10195 C 978.64 -0.424303 -1.96982 0
M  V30 10196 O 977.696 0.13588 -2.52134 0
M  V30 10197 C 979.009 -2.78616 -1.13108 0
M  V30 10198 C 980.557 -2.87477 -1.23798 0
M  V30 10199 C 981.032 -4.295 -1.5904 0
M  V30 10200 N 982.523 -4.32415 -1.66047 0
M  V30 10201 C 983.258 -5.39295 -1.94805 0
M  V30 10202 N 982.754 -6.56392 -2.21635 0
M  V30 10203 N 984.547 -5.26731 -1.96243 0
M  V30 10204 H 976.698 -2.10486 0.284531 0
M  V30 10205 H 978.961 -0.945786 0.0647585 0
M  V30 10206 H 978.667 -3.49921 -0.35334 0
M  V30 10207 H 978.541 -3.15382 -2.06915 0
M  V30 10208 H 980.928 -2.16396 -2.00641 0
M  V30 10209 H 981.009 -2.54264 -0.279888 0
M  V30 10210 H 980.653 -5.01115 -0.827404 0
M  V30 10211 H 980.583 -4.60194 -2.55987 0
M  V30 10212 H 983.074 -3.47975 -1.47383 0
M  V30 10213 H 983.387 -7.33658 -2.4283 0
M  V30 10214 H 981.732 -6.59579 -2.19043 0
M  V30 10215 H 984.923 -4.34249 -1.74773 0
M  V30 10216 H 985.096 -6.10115 -2.1832 0
M  V30 10217 N 978.502 0.731368 -1.39602 0
M  V30 10218 C 979.73 1.52059 -1.40305 0
M  V30 10219 C 980.145 1.888 0.00147921 0
M  V30 10220 O 979.502 1.54354 0.973715 0
M  V30 10221 C 979.553 2.80588 -2.27931 0
M  V30 10222 O 979.274 2.45406 -3.62915 0
M  V30 10223 C 980.775 3.74592 -2.37056 0
M  V30 10224 H 977.995 0.469787 -0.479104 0
M  V30 10225 H 980.539 0.903436 -1.83462 0
M  V30 10226 H 978.694 3.38626 -1.88178 0
M  V30 10227 H 979.108 3.27996 -4.09291 0
M  V30 10228 H 980.582 4.61662 -3.02609 0
M  V30 10229 H 981.059 4.16597 -1.39081 0
M  V30 10230 H 981.665 3.22471 -2.77295 0
M  V30 10231 N 979.98 1.24838 0.961938 0
M  V30 10232 C 980.928 1.0436 2.07874 0
M  V30 10233 C 981.922 -0.0232531 1.69384 0
M  V30 10234 O 983.128 0.131773 1.79517 0
M  V30 10235 H 979.503 0.320492 0.680286 0
M  V30 10236 H 981.474 1.99055 2.22306 0
M  V30 10237 C 980.223 0.671246 3.41159 0
M  V30 10238 H 979.546 1.48395 3.7124 0
M  V30 10239 H 980.986 0.567608 4.20184 0
M  V30 10240 C 979.445 -0.622124 3.31106 0
M  V30 10241 O 979.975 -1.66627 3.65511 0
M  V30 10242 N 978.181 -0.605009 2.84232 0
M  V30 10243 H 977.728 0.245052 2.56432 0
M  V30 10244 H 977.686 -1.47056 2.77888 0
M  V30 10245 N 981.458 -1.16348 1.06306 0
M  V30 10246 C 982.683 -1.91323 0.800636 0
M  V30 10247 C 983.108 -1.7691 -0.639105 0
M  V30 10248 O 982.466 -1.0945 -1.44535 0
M  V30 10249 C 982.514 -3.40038 1.20027 0
M  V30 10250 O 981.618 -4.11003 0.339142 0
M  V30 10251 H 980.959 -0.596057 0.292595 0
M  V30 10252 H 983.489 -1.47406 1.41889 0
M  V30 10253 H 983.499 -3.90808 1.17188 0
M  V30 10254 H 982.174 -3.49848 2.24898 0
M  V30 10255 H 980.751 -3.70423 0.42911 0
M  V30 10256 N 982.937 -0.845659 -1.3299 0
M  V30 10257 C 984.184 -0.444653 -1.97558 0
M  V30 10258 C 984.512 0.997682 -1.66963 0
M  V30 10259 O 983.767 1.71349 -0.94541 0
M  V30 10260 C 984.066 -0.6201 -3.51979 0
M  V30 10261 C 983.732 -2.03155 -4.02541 0
M  V30 10262 C 982.394 -2.4176 -4.16059 0
M  V30 10263 C 984.746 -2.95317 -4.29462 0
M  V30 10264 C 982.074 -3.71818 -4.53837 0
M  V30 10265 C 984.426 -4.24863 -4.68694 0
M  V30 10266 C 983.09 -4.63416 -4.80419 0
M  V30 10267 H 982.36 -0.16271 -0.722915 0
M  V30 10268 H 985.007 -1.07399 -1.58549 0
M  V30 10269 H 983.312 0.092513 -3.91691 0
M  V30 10270 H 985.009 -0.290012 -3.9995 0
M  V30 10271 H 981.599 -1.72174 -3.92497 0
M  V30 10272 H 985.783 -2.66726 -4.18534 0
M  V30 10273 H 981.039 -4.01484 -4.61108 0
M  V30 10274 H 985.213 -4.96347 -4.8848 0
M  V30 10275 H 982.84 -5.6424 -5.09448 0
M  V30 10276 N 984.415 1.45619 -0.602734 0
M  V30 10277 C 985.345 2.33258 0.106342 0
M  V30 10278 C 986.326 1.46543 0.863664 0
M  V30 10279 O 987.511 1.75324 0.835175 0
M  V30 10280 C 984.641 3.29168 1.10751 0
M  V30 10281 C 983.595 4.25481 0.463717 0
M  V30 10282 C 982.921 5.11046 1.57278 0
M  V30 10283 C 984.221 5.18702 -0.61199 0
M  V30 10284 H 985.915 2.92795 -0.625423 0
M  V30 10285 H 983.461 1.40793 -0.302213 0
M  V30 10286 H 985.414 3.89346 1.61208 0
M  V30 10287 H 984.138 2.6778 1.8698 0
M  V30 10288 H 982.797 3.66595 -0.0199496 0
M  V30 10289 H 982.445 4.46029 2.32524 0
M  V30 10290 H 982.145 5.76286 1.14755 0
M  V30 10291 H 983.669 5.74091 2.07972 0
M  V30 10292 H 985.083 5.72979 -0.191686 0
M  V30 10293 H 983.48 5.92393 -0.958686 0
M  V30 10294 H 984.55 4.61424 -1.4905 0
M  V30 10295 N 985.893 0.34162 1.53853 0
M  V30 10296 C 987.133 -0.255853 2.02792 0
M  V30 10297 C 987.497 -1.47921 1.22407 0
M  V30 10298 O 988.698 -2.15073 1.61236 0
M  V30 10299 C 986.969 -0.564117 3.5292 0
M  V30 10300 S 988.528 -1.13868 4.23768 0
M  V30 10301 H 985.346 -0.0762867 0.706896 0
M  V30 10302 H 987.948 0.478934 1.89543 0
M  V30 10303 H 986.652 0.334098 4.09038 0
M  V30 10304 H 986.183 -1.32862 3.70285 0
M  V30 10305 H 988.198 -2.42451 4.32934 0
M  V30 10306 N 987.371 -1.57444 0.0701946 0
M  V30 10307 C 988.319 -2.13834 -0.915302 0
M  V30 10308 C 989.313 -1.07483 -1.30934 0
M  V30 10309 O 990.519 -1.25865 -1.28678 0
M  V30 10310 H 986.894 -0.683716 -0.313108 0
M  V30 10311 H 988.865 -2.95503 -0.414758 0
M  V30 10312 C 987.614 -2.71355 -2.17398 0
M  V30 10313 H 986.937 -3.52861 -1.87961 0
M  V30 10314 H 988.377 -3.1441 -2.84469 0
M  V30 10315 C 986.836 -1.66038 -2.93143 0
M  V30 10316 O 987.366 -1.08443 -3.86786 0
M  V30 10317 N 985.572 -1.3711 -2.56221 0
M  V30 10318 H 985.119 -1.84135 -1.80145 0
M  V30 10319 H 985.077 -0.66877 -3.07205 0
M  V30 10320 N 988.849 0.203349 -1.56283 0
M  V30 10321 C 989.812 1.23566 -1.93039 0
M  V30 10322 C 990.812 1.38869 -0.810687 0
M  V30 10323 O 992.002 1.36822 -1.07821 0
M  V30 10324 C 989.134 2.60645 -2.1972 0
M  V30 10325 H 990.327 0.921692 -2.85385 0
M  V30 10326 H 987.88 0.44453 -1.49845 0
M  V30 10327 H 988.615 2.9711 -1.29985 0
M  V30 10328 H 988.4 2.50911 -3.01307 0
M  V30 10329 H 989.89 3.35103 -2.4919 0
M  V30 10330 N 990.327 1.50405 0.470755 0
M  V30 10331 C 991.575 1.61092 1.2204 0
M  V30 10332 C 991.896 0.313487 1.92464 0
M  V30 10333 O 991.166 -0.669043 1.84121 0
M  V30 10334 H 989.746 0.593618 0.45346 0
M  V30 10335 H 992.408 1.87184 0.542985 0
M  V30 10336 H 991.504 2.42222 1.96812 0
M  V30 10337 N 991.805 -0.723954 1.39988 0
M  V30 10338 C 993.03 -1.5182 1.41299 0
M  V30 10339 C 993.455 -1.88096 0.0122636 0
M  V30 10340 O 992.813 -1.52687 -0.977559 0
M  V30 10341 C 992.861 -2.77532 2.30235 0
M  V30 10342 O 991.965 -3.73903 1.73984 0
M  V30 10343 H 991.306 -0.458058 0.480707 0
M  V30 10344 H 993.836 -0.892291 1.84118 0
M  V30 10345 H 993.846 -3.2615 2.45132 0
M  V30 10346 H 992.521 -2.50462 3.32026 0
M  V30 10347 H 991.098 -3.32715 1.68389 0
M  V30 10348 N 993.283 -1.25346 -0.955304 0
M  V30 10349 C 994.193 -1.07412 -2.08566 0
M  V30 10350 C 995.209 -0.0114424 -1.73996 0
M  V30 10351 O 996.385 -0.212236 -2.00279 0
M  V30 10352 C 993.45 -0.694141 -3.3968 0
M  V30 10353 C 992.511 -1.83468 -3.88121 0
M  V30 10354 C 991.744 -1.47274 -5.12978 0
M  V30 10355 O 991.967 -0.368086 -5.69211 0
M  V30 10356 O 990.901 -2.30269 -5.56111 0
M  V30 10357 H 994.727 -2.02206 -2.26598 0
M  V30 10358 H 992.312 -1.04279 -1.06988 0
M  V30 10359 H 994.194 -0.494325 -4.18491 0
M  V30 10360 H 992.869 0.224545 -3.2292 0
M  V30 10361 H 991.776 -2.08935 -3.10318 0
M  V30 10362 H 993.109 -2.73258 -4.09379 0
M  V30 10363 N 994.761 1.15782 -1.06922 0
M  V30 10364 C 995.691 2.22538 -0.707045 0
M  V30 10365 C 996.672 1.67371 0.303471 0
M  V30 10366 O 997.857 1.9339 0.177189 0
M  V30 10367 C 994.987 3.47158 -0.0994269 0
M  V30 10368 C 993.941 4.15257 -1.03661 0
M  V30 10369 C 993.267 5.33902 -0.291974 0
M  V30 10370 C 994.567 4.65516 -2.36837 0
M  V30 10371 H 996.261 2.53089 -1.59958 0
M  V30 10372 H 993.807 1.21649 -0.770552 0
M  V30 10373 H 995.76 4.21073 0.165852 0
M  V30 10374 H 994.484 3.15926 0.828155 0
M  V30 10375 H 993.143 3.43276 -1.28674 0
M  V30 10376 H 992.791 4.98926 0.638928 0
M  V30 10377 H 992.491 5.80407 -0.916613 0
M  V30 10378 H 994.015 6.1059 -0.0343915 0
M  V30 10379 H 995.429 5.30981 -2.16175 0
M  V30 10380 H 993.826 5.22666 -2.94856 0
M  V30 10381 H 994.896 3.81387 -2.99453 0
M  V30 10382 N 996.239 0.8527 1.3254 0
M  V30 10383 C 997.202 0.300959 2.27215 0
M  V30 10384 C 998.202 -0.538235 1.51525 0
M  V30 10385 O 999.392 -0.350027 1.70647 0
M  V30 10386 C 996.524 -0.574428 3.36025 0
M  V30 10387 H 997.717 1.13655 2.77529 0
M  V30 10388 H 995.27 0.626878 1.43178 0
M  V30 10389 H 996.005 -1.43191 2.90976 0
M  V30 10390 H 995.79 0.0262265 3.92091 0
M  V30 10391 H 997.28 -0.9533 4.06573 0
M  V30 10392 N 997.718 -1.45297 0.610449 0
M  V30 10393 C 998.964 -2.02518 0.106917 0
M  V30 10394 C 999.297 -1.47747 -1.26034 0
M  V30 10395 O 998.572 -0.65329 -1.832 0
M  V30 10396 C 998.855 -3.6003 0.0710975 0
M  V30 10397 C 998.708 -4.25128 1.46922 0
M  V30 10398 C 1000.03 -4.35778 -0.61524 0
M  V30 10399 H 997.146 -0.735896 0.040327 0
M  V30 10400 H 999.788 -1.73117 0.782968 0
M  V30 10401 H 997.938 -3.85209 -0.504611 0
M  V30 10402 H 999.61 -4.11125 2.09223 0
M  V30 10403 H 997.853 -3.83418 2.02911 0
M  V30 10404 H 998.524 -5.34046 1.39637 0
M  V30 10405 H 1001 -4.1591 -0.125871 0
M  V30 10406 H 999.876 -5.45506 -0.609419 0
M  V30 10407 H 1000.14 -4.08859 -1.68186 0
M  V30 10408 N 999.196 -0.349774 -1.5367 0
M  V30 10409 C 1000.13 0.496338 -2.28164 0
M  V30 10410 C 1001.11 1.09737 -1.29968 0
M  V30 10411 O 1002.29 1.11759 -1.58819 0
M  V30 10412 C 999.422 1.64428 -3.0591 0
M  V30 10413 C 998.376 1.17127 -4.11661 0
M  V30 10414 C 997.702 2.40822 -4.77398 0
M  V30 10415 C 999.002 0.267293 -5.21616 0
M  V30 10416 H 1000.7 -0.125117 -2.99138 0
M  V30 10417 H 998.242 -0.0616152 -1.43868 0
M  V30 10418 H 1000.19 2.2427 -3.56765 0
M  V30 10419 H 998.919 2.29272 -2.32598 0
M  V30 10420 H 997.578 0.595634 -3.61729 0
M  V30 10421 H 997.226 3.04088 -4.00674 0
M  V30 10422 H 996.926 2.09852 -5.48849 0
M  V30 10423 H 998.45 3.01378 -5.3104 0
M  V30 10424 H 999.864 0.772734 -5.68068 0
M  V30 10425 H 998.261 0.0491991 -6.0008 0
M  V30 10426 H 999.331 -0.694892 -4.79895 0
M  V30 10427 N 1000.67 1.57404 -0.0785433 0
M  V30 10428 C 1001.9 1.97787 0.596995 0
M  V30 10429 C 1002.31 0.955904 1.63276 0
M  V30 10430 O 1001.65 -0.0649169 1.83585 0
M  V30 10431 C 1001.72 3.34499 1.31723 0
M  V30 10432 C 1001.38 4.54933 0.434144 0
M  V30 10433 C 1002.38 5.18969 -0.311015 0
M  V30 10434 C 1000.06 5.01029 0.357046 0
M  V30 10435 C 1002.06 6.27457 -1.12142 0
M  V30 10436 C 999.744 6.09389 -0.457029 0
M  V30 10437 C 1000.74 6.72466 -1.19493 0
M  V30 10438 O 1000.43 7.78738 -1.99556 0
M  V30 10439 H 1000.16 0.655294 0.166028 0
M  V30 10440 H 1002.72 2.04855 -0.149517 0
M  V30 10441 H 1000.95 3.24064 2.10996 0
M  V30 10442 H 1002.63 3.5944 1.88567 0
M  V30 10443 H 1003.4 4.84297 -0.261084 0
M  V30 10444 H 999.28 4.51706 0.921026 0
M  V30 10445 H 1002.82 6.76622 -1.69788 0
M  V30 10446 H 998.721 6.43494 -0.508499 0
M  V30 10447 H 999.489 7.95648 -1.9206 0
M  V30 10448 N 1002.15 -0.195058 1.56388 0
M  V30 10449 C 1003.1 -1.26122 1.95438 0
M  V30 10450 C 1004.09 -1.47117 0.839818 0
M  V30 10451 O 1005.3 -1.47978 1.02482 0
M  V30 10452 H 1001.67 -0.423422 0.621464 0
M  V30 10453 H 1003.65 -0.904854 2.8435 0
M  V30 10454 C 1002.39 -2.59858 2.31017 0
M  V30 10455 H 1001.72 -2.44519 3.16308 0
M  V30 10456 H 1003.16 -3.33205 2.62203 0
M  V30 10457 C 1001.62 -3.16853 1.14481 0
M  V30 10458 O 1002.15 -3.995 0.419853 0
M  V30 10459 N 1000.35 -2.75599 0.921604 0
M  V30 10460 H 999.9 -2.08495 1.51287 0
M  V30 10461 H 999.858 -3.14072 0.143663 0
M  V30 10462 N 1003.63 -1.50653 -0.462772 0
M  V30 10463 C 1004.91 -1.5258 -1.22387 0
M  V30 10464 C 1005.29 -0.275263 -2.09298 0
M  V30 10465 O 1004.63 0.740943 -2.16153 0
M  V30 10466 C 1004.84 -2.82611 -2.04773 0
M  V30 10467 C 1006.19 -3.33592 -2.62681 0
M  V30 10468 O 1007.22 -2.83989 -2.15008 0
M  V30 10469 O 1006.08 -4.20081 -3.49563 0
M  V30 10470 H 1003.17 -0.612367 -0.55582 0
M  V30 10471 H 1005.72 -1.62948 -0.473914 0
M  V30 10472 H 1004.49 -3.65098 -1.40781 0
M  V30 10473 H 1004.11 -2.75286 -2.86886 0
M  V30 10474 N 1005.11 0.71652 -1.4037 0
M  V30 10475 C 1006.34 1.50563 -1.4191 0
M  V30 10476 C 1006.75 1.88791 -0.0185456 0
M  V30 10477 O 1006.11 1.55378 0.957289 0
M  V30 10478 C 1006.16 2.78155 -2.30894 0
M  V30 10479 O 1005.88 2.41543 -3.65497 0
M  V30 10480 C 1007.38 3.72057 -2.41016 0
M  V30 10481 H 1004.6 0.464679 -0.48406 0
M  V30 10482 H 1007.15 0.883927 -1.8441 0
M  V30 10483 H 1005.3 3.36611 -1.91759 0
M  V30 10484 H 1005.71 3.23636 -4.12747 0
M  V30 10485 H 1007.19 4.58426 -3.07489 0
M  V30 10486 H 1007.67 4.15098 -1.43492 0
M  V30 10487 H 1008.27 3.19512 -2.80699 0
M  V30 10488 N 1006.59 1.25851 0.948643 0
M  V30 10489 C 1007.55 1.0683 2.0278 0
M  V30 10490 C 1008.55 0.0191016 1.60789 0
M  V30 10491 O 1009.74 0.261836 1.72221 0
M  V30 10492 C 1006.87 0.623318 3.35153 0
M  V30 10493 H 1008.06 2.02635 2.21086 0
M  V30 10494 H 1005.62 1.08343 1.12657 0
M  V30 10495 H 1006.35 -0.337053 3.22544 0
M  V30 10496 H 1006.14 1.38082 3.66982 0
M  V30 10497 H 1007.63 0.511854 4.14451 0
M  V30 10498 N 1008.06 -1.15214 1.07534 0
M  V30 10499 C 1009.31 -1.86319 0.800814 0
M  V30 10500 C 1009.64 -1.82221 -0.671494 0
M  V30 10501 O 1008.92 -1.24664 -1.49295 0
M  V30 10502 C 1009.2 -3.35347 1.31203 0
M  V30 10503 C 1009.05 -3.48067 2.84902 0
M  V30 10504 C 1010.37 -4.3016 0.930064 0
M  V30 10505 H 1007.49 -0.676523 0.292379 0
M  V30 10506 H 1010.13 -1.35349 1.33344 0
M  V30 10507 H 1008.28 -3.78886 0.858949 0
M  V30 10508 H 1009.96 -3.13379 3.38514 0
M  V30 10509 H 1008.2 -2.89566 3.23008 0
M  V30 10510 H 1008.87 -4.52782 3.15741 0
M  V30 10511 H 1011.35 -3.94591 1.3205 0
M  V30 10512 H 1010.22 -5.32914 1.31507 0
M  V30 10513 H 1010.48 -4.41796 -0.163824 0
M  V30 10514 N 1009.54 -0.859717 -1.32086 0
M  V30 10515 C 1010.47 -0.323502 -2.31248 0
M  V30 10516 C 1011.45 0.580085 -1.59903 0
M  V30 10517 O 1012.64 0.499265 -1.87673 0
M  V30 10518 C 1009.77 0.484661 -3.43902 0
M  V30 10519 C 1008.72 -0.324933 -4.26765 0
M  V30 10520 C 1008.05 0.608281 -5.31229 0
M  V30 10521 C 1009.35 -1.55344 -4.98664 0
M  V30 10522 H 1011.04 -1.15209 -2.76346 0
M  V30 10523 H 1008.59 -0.555442 -1.32856 0
M  V30 10524 H 1010.54 0.870238 -4.12316 0
M  V30 10525 H 1009.27 1.34666 -2.97544 0
M  V30 10526 H 1007.92 -0.692328 -3.60003 0
M  V30 10527 H 1007.57 1.46727 -4.81124 0
M  V30 10528 H 1007.27 0.0705571 -5.87558 0
M  V30 10529 H 1008.8 0.990925 -6.02506 0
M  V30 10530 H 1010.21 -1.23987 -5.59732 0
M  V30 10531 H 1008.61 -2.02947 -5.64741 0
M  V30 10532 H 1009.68 -2.31192 -4.26237 0
M  V30 10533 N 1011.02 1.44971 -0.618145 0
M  V30 10534 C 1011.93 2.34403 0.0960457 0
M  V30 10535 C 1012.95 1.51862 0.849355 0
M  V30 10536 O 1014.12 1.84632 0.804557 0
M  V30 10537 C 1011.19 3.29646 1.07397 0
M  V30 10538 C 1010.25 4.28095 0.321466 0
M  V30 10539 C 1009.48 5.18787 1.25281 0
M  V30 10540 O 1009.7 5.1313 2.49106 0
M  V30 10541 O 1008.64 5.97282 0.744156 0
M  V30 10542 H 1012.46 2.96898 -0.639176 0
M  V30 10543 H 1010.05 1.44529 -0.37837 0
M  V30 10544 H 1011.93 3.88307 1.63694 0
M  V30 10545 H 1010.61 2.69702 1.79004 0
M  V30 10546 H 1009.51 3.73019 -0.284223 0
M  V30 10547 H 1010.85 4.90923 -0.354315 0
M  V30 10548 N 1012.5 0.357919 1.53482 0
M  V30 10549 C 1013.72 -0.237769 2.06033 0
M  V30 10550 C 1014.15 -1.42292 1.23023 0
M  V30 10551 O 1013.51 -1.79604 0.247427 0
M  V30 10552 C 1013.55 -0.616806 3.55286 0
M  V30 10553 O 1012.66 -1.71503 3.75047 0
M  V30 10554 H 1012 -0.0364322 0.663 0
M  V30 10555 H 1014.53 0.516301 1.97979 0
M  V30 10556 H 1014.54 -0.88996 3.98175 0
M  V30 10557 H 1013.21 0.249825 4.15149 0
M  V30 10558 H 1011.79 -1.43803 3.44057 0
M  V30 10559 N 1013.98 -1.5736 0.0868897 0
M  V30 10560 C 1014.93 -2.10105 -0.885435 0
M  V30 10561 C 1015.91 -1.01417 -1.24913 0
M  V30 10562 O 1017.1 -1.27704 -1.22558 0
M  V30 10563 C 1014.23 -2.67837 -2.14752 0
M  V30 10564 C 1013.32 -3.83553 -1.80963 0
M  V30 10565 N 1013.71 -4.91917 -1.17693 0
M  V30 10566 C 1012.01 -3.93134 -2.10622 0
M  V30 10567 C 1012.71 -5.72628 -1.02332 0
M  V30 10568 N 1011.68 -5.2139 -1.53796 0
M  V30 10569 H 1015.49 -2.91272 -0.392179 0
M  V30 10570 H 1013 -1.61981 -0.116566 0
M  V30 10571 H 1015 -3.03948 -2.85344 0
M  V30 10572 H 1013.66 -1.88122 -2.64651 0
M  V30 10573 H 1014.67 -5.10964 -0.844731 0
M  V30 10574 H 1011.34 -3.24416 -2.62793 0
M  V30 10575 H 1012.73 -6.69813 -0.529171 0
M  V30 10576 N 1015.45 0.186762 -1.56489 0
M  V30 10577 C 1016.4 1.2357 -1.9161 0
M  V30 10578 C 1017.39 1.4058 -0.782686 0
M  V30 10579 O 1018.58 1.42811 -1.04566 0
M  V30 10580 C 1015.71 2.57865 -2.26628 0
M  V30 10581 C 1014.8 2.44613 -3.46447 0
M  V30 10582 N 1015.19 2.01052 -4.64125 0
M  V30 10583 C 1013.48 2.75483 -3.50749 0
M  V30 10584 C 1014.19 1.99891 -5.46277 0
M  V30 10585 N 1013.16 2.41711 -4.86905 0
M  V30 10586 H 1016.96 0.890359 -2.80089 0
M  V30 10587 H 1014.48 0.395144 -1.57519 0
M  V30 10588 H 1016.47 3.33642 -2.49977 0
M  V30 10589 H 1015.13 2.93215 -1.39481 0
M  V30 10590 H 1016.15 1.7163 -4.88634 0
M  V30 10591 H 1012.82 3.14974 -2.7404 0
M  V30 10592 H 1014.21 1.68042 -6.50547 0
M  V30 10593 N 1016.93 1.50896 0.454776 0
M  V30 10594 C 1018.16 1.6648 1.22849 0
M  V30 10595 C 1018.58 0.354841 1.85435 0
M  V30 10596 O 1017.93 -0.664931 1.69956 0
M  V30 10597 C 1017.98 2.76787 2.32532 0
M  V30 10598 O 1017.7 4.02706 1.72509 0
M  V30 10599 C 1019.21 3.03488 3.23125 0
M  V30 10600 H 1016.43 0.559152 0.370932 0
M  V30 10601 H 1018.97 1.97215 0.540983 0
M  V30 10602 H 1017.12 2.48701 2.9703 0
M  V30 10603 H 1017.54 4.63834 2.44863 0
M  V30 10604 H 1019.01 3.84294 3.9626 0
M  V30 10605 H 1019.49 2.152 3.82865 0
M  V30 10606 H 1020.1 3.33167 2.64347 0
M  V30 10607 N 1018.41 -0.709066 1.40748 0
M  V30 10608 C 1019.37 -1.80485 1.41272 0
M  V30 10609 C 1020.37 -1.57872 0.305463 0
M  V30 10610 O 1021.56 -1.64793 0.564691 0
M  V30 10611 C 1018.7 -3.1867 1.21087 0
M  V30 10612 H 1019.89 -1.81417 2.38805 0
M  V30 10613 H 1017.44 -0.915356 1.26692 0
M  V30 10614 H 1018.18 -3.23385 0.243406 0
M  V30 10615 H 1017.96 -3.36484 2.01299 0
M  V30 10616 H 1019.45 -3.98685 1.24257 0
M  V30 10617 N 1019.89 -1.26353 -0.941956 0
M  V30 10618 C 1020.82 -1.10341 -2.05784 0
M  V30 10619 C 1021.8 -0.00881565 -1.70098 0
M  V30 10620 O 1022.99 -0.180699 -1.93357 0
M  V30 10621 C 1020.12 -0.734788 -3.39438 0
M  V30 10622 C 1019.07 -1.78103 -3.89183 0
M  V30 10623 C 1018.4 -1.26675 -5.19478 0
M  V30 10624 C 1019.7 -3.1824 -4.14151 0
M  V30 10625 H 1021.39 -2.03684 -2.19438 0
M  V30 10626 H 1018.94 -0.980698 -1.05443 0
M  V30 10627 H 1020.89 -0.609653 -4.16967 0
M  V30 10628 H 1019.61 0.234354 -3.25758 0
M  V30 10629 H 1018.27 -1.89482 -3.13835 0
M  V30 10630 H 1017.92 -0.287472 -5.02178 0
M  V30 10631 H 1017.62 -1.96612 -5.53731 0
M  V30 10632 H 1019.14 -1.15427 -5.99591 0
M  V30 10633 H 1020.56 -3.09942 -4.82296 0
M  V30 10634 H 1018.95 -3.8576 -4.59684 0
M  V30 10635 H 1020.02 -3.64354 -3.19959 0
M  V30 10636 N 1021.37 1.14642 -1.08144 0
M  V30 10637 C 1022.33 2.17834 -0.712799 0
M  V30 10638 C 1023.33 1.58828 0.251041 0
M  V30 10639 O 1024.52 1.74173 0.0309381 0
M  V30 10640 C 1021.65 3.4086 -0.0519477 0
M  V30 10641 H 1022.85 2.51961 -1.62653 0
M  V30 10642 H 1020.4 1.29243 -0.878971 0
M  V30 10643 H 1021.13 3.12311 0.873636 0
M  V30 10644 H 1020.92 3.84952 -0.745286 0
M  V30 10645 H 1022.41 4.17163 0.191031 0
M  V30 10646 N 1022.85 0.866709 1.31628 0
M  V30 10647 C 1024.09 0.476026 1.96825 0
M  V30 10648 C 1024.42 -0.970994 1.68529 0
M  V30 10649 O 1023.68 -1.69823 0.97255 0
M  V30 10650 C 1023.97 0.676018 3.50948 0
M  V30 10651 C 1023.64 2.09533 3.99258 0
M  V30 10652 C 1022.3 2.48349 4.1216 0
M  V30 10653 C 1024.65 3.02112 4.24709 0
M  V30 10654 C 1021.98 3.78991 4.47864 0
M  V30 10655 C 1024.33 4.32266 4.61875 0
M  V30 10656 C 1023 4.71 4.72985 0
M  V30 10657 H 1022.27 0.17419 0.720235 0
M  V30 10658 H 1024.92 1.09907 1.5682 0
M  V30 10659 H 1023.22 -0.0301867 3.91788 0
M  V30 10660 H 1024.92 0.353604 3.99438 0
M  V30 10661 H 1021.51 1.78396 3.89709 0
M  V30 10662 H 1025.69 2.73351 4.14238 0
M  V30 10663 H 1020.95 4.08769 4.54663 0
M  V30 10664 H 1025.12 5.04055 4.80522 0
M  V30 10665 H 1022.75 5.72273 5.00407 0
M  V30 10666 N 1024.32 -1.44642 0.625825 0
M  V30 10667 C 1025.26 -2.28882 -0.120614 0
M  V30 10668 C 1026.27 -1.40985 -0.81407 0
M  V30 10669 O 1027.46 -1.65188 -0.676404 0
M  V30 10670 C 1024.56 -3.17217 -1.19274 0
M  V30 10671 C 1023.73 -4.33499 -0.582839 0
M  V30 10672 C 1022.79 -5.02908 -1.54823 0
M  V30 10673 O 1021.82 -5.59102 -1.06743 0
M  V30 10674 N 1023.02 -5.0387 -2.88262 0
M  V30 10675 H 1025.78 -2.93585 0.602318 0
M  V30 10676 H 1023.34 -1.5503 0.466604 0
M  V30 10677 H 1025.34 -3.60515 -1.83878 0
M  V30 10678 H 1023.91 -2.54301 -1.81797 0
M  V30 10679 H 1023.13 -3.93458 0.241696 0
M  V30 10680 H 1024.41 -5.08561 -0.155914 0
M  V30 10681 H 1023.81 -4.59539 -3.2991 0
M  V30 10682 H 1022.37 -5.50974 -3.4824 0
M  V30 10683 N 1025.8 -0.366053 -1.5329 0
M  V30 10684 C 1026.73 0.47211 -2.28677 0
M  V30 10685 C 1027.71 1.08353 -1.31125 0
M  V30 10686 O 1028.9 1.10069 -1.59995 0
M  V30 10687 C 1026.03 1.61174 -3.07637 0
M  V30 10688 C 1024.98 1.12755 -4.12881 0
M  V30 10689 C 1024.31 2.35745 -4.79925 0
M  V30 10690 C 1025.61 0.211954 -5.2187 0
M  V30 10691 H 1027.3 -0.156838 -2.98989 0
M  V30 10692 H 1024.85 -0.0768709 -1.43795 0
M  V30 10693 H 1026.8 2.20473 -3.59123 0
M  V30 10694 H 1025.52 2.26793 -2.35016 0
M  V30 10695 H 1024.18 0.557234 -3.6234 0
M  V30 10696 H 1023.83 2.99821 -4.03877 0
M  V30 10697 H 1023.53 2.04019 -5.51044 0
M  V30 10698 H 1025.06 2.95729 -5.34207 0
M  V30 10699 H 1026.47 0.71244 -5.68856 0
M  V30 10700 H 1024.87 -0.0144501 -6.00098 0
M  V30 10701 H 1025.94 -0.745753 -4.79131 0
M  V30 10702 N 1027.28 1.57312 -0.0952337 0
M  V30 10703 C 1028.51 1.98697 0.57682 0
M  V30 10704 C 1028.92 0.974347 1.61716 0
M  V30 10705 O 1028.28 -0.036022 1.82464 0
M  V30 10706 C 1028.33 3.40133 1.2244 0
M  V30 10707 O 1028.05 4.37518 0.225678 0
M  V30 10708 C 1029.55 3.96522 1.98205 0
M  V30 10709 H 1026.77 0.65294 0.154629 0
M  V30 10710 H 1029.32 2.03754 -0.174562 0
M  V30 10711 H 1027.47 3.3609 1.92671 0
M  V30 10712 H 1027.89 5.199 0.693116 0
M  V30 10713 H 1029.36 4.97637 2.38875 0
M  V30 10714 H 1029.84 3.34347 2.84796 0
M  V30 10715 H 1030.44 4.04038 1.3279 0
M  V30 10716 N 1028.76 -0.17846 1.56586 0
M  V30 10717 C 1030 -0.897562 1.81856 0
M  V30 10718 C 1030.34 -1.82204 0.671955 0
M  V30 10719 O 1029.61 -1.91739 -0.326535 0
M  V30 10720 C 1029.89 -1.69942 3.17477 0
M  V30 10721 C 1029.75 -0.798545 4.42655 0
M  V30 10722 C 1031.07 -2.66861 3.49962 0
M  V30 10723 H 1028.19 -0.324863 0.661539 0
M  V30 10724 H 1030.83 -0.164106 1.8929 0
M  V30 10725 H 1028.98 -2.32471 3.11271 0
M  V30 10726 H 1030.65 -0.18668 4.60922 0
M  V30 10727 H 1028.89 -0.106181 4.3367 0
M  V30 10728 H 1029.56 -1.39496 5.34083 0
M  V30 10729 H 1032.04 -2.1446 3.56576 0
M  V30 10730 H 1030.92 -3.20037 4.45946 0
M  V30 10731 H 1031.18 -3.46715 2.74301 0
M  V30 10732 N 1030.24 -1.51135 -0.446768 0
M  V30 10733 C 1031.18 -1.71767 -1.54158 0
M  V30 10734 C 1032.15 -0.559201 -1.56404 0
M  V30 10735 O 1033.34 -0.792567 -1.7356 0
M  V30 10736 C 1030.48 -1.84006 -2.91952 0
M  V30 10737 C 1029.59 -3.11511 -2.99308 0
M  V30 10738 C 1028.73 -3.144 -4.28166 0
M  V30 10739 C 1027.76 -4.36258 -4.29355 0
M  V30 10740 N 1026.9 -4.3675 -5.49722 0
M  V30 10741 H 1031.74 -2.65224 -1.35869 0
M  V30 10742 H 1029.28 -1.31453 -0.660186 0
M  V30 10743 H 1031.24 -1.89083 -3.71892 0
M  V30 10744 H 1029.87 -0.939661 -3.08821 0
M  V30 10745 H 1028.92 -3.15788 -2.12089 0
M  V30 10746 H 1030.23 -4.01445 -2.96047 0
M  V30 10747 H 1029.38 -3.18341 -5.16473 0
M  V30 10748 H 1028.12 -2.22338 -4.3407 0
M  V30 10749 H 1027.13 -4.32503 -3.39442 0
M  V30 10750 H 1028.35 -5.29574 -4.25122 0
M  V30 10751 H 1026.3 -3.47554 -5.56365 0
M  V30 10752 H 1026.22 -5.20481 -5.48302 0
M  V30 10753 H 1027.48 -4.4487 -6.40086 0
M  V30 10754 N 1031.71 0.701592 -1.41122 0
M  V30 10755 C 1032.99 1.45569 -1.30648 0
M  V30 10756 C 1033.37 2.10988 0.068744 0
M  V30 10757 O 1032.72 2.01228 1.08257 0
M  V30 10758 C 1032.93 2.48003 -2.45551 0
M  V30 10759 C 1034.28 3.13431 -2.86437 0
M  V30 10760 O 1035.3 2.58327 -2.45247 0
M  V30 10761 O 1034.16 4.13221 -3.57646 0
M  V30 10762 H 1031.25 0.648 -0.513834 0
M  V30 10763 H 1033.8 0.73258 -1.53073 0
M  V30 10764 H 1032.57 1.98276 -3.37346 0
M  V30 10765 H 1032.19 3.27832 -2.24971 0
M  V30 10766 N 1033.19 1.2685 0.935242 0
M  V30 10767 C 1034.42 1.15538 1.71635 0
M  V30 10768 C 1034.83 -0.288698 1.8658 0
M  V30 10769 O 1034.19 -1.19721 1.37743 0
M  V30 10770 C 1034.24 1.8259 3.11999 0
M  V30 10771 O 1033.96 3.21355 2.97763 0
M  V30 10772 C 1035.46 1.77307 4.06297 0
M  V30 10773 H 1032.68 0.402055 0.537208 0
M  V30 10774 H 1035.23 1.67582 1.17203 0
M  V30 10775 H 1033.38 1.3447 3.63313 0
M  V30 10776 H 1033.8 3.54626 3.86446 0
M  V30 10777 H 1035.27 2.28851 5.02326 0
M  V30 10778 H 1035.75 0.740823 4.32907 0
M  V30 10779 H 1036.35 2.25007 3.60904 0
M  V30 10780 N 1034.67 -1.14067 1.0875 0
M  V30 10781 C 1035.62 -2.19261 0.720633 0
M  V30 10782 C 1036.59 -1.63462 -0.294847 0
M  V30 10783 O 1037.77 -1.89967 -0.178058 0
M  V30 10784 C 1034.91 -3.44816 0.139873 0
M  V30 10785 C 1034.03 -4.1475 1.20856 0
M  V30 10786 C 1033.16 -5.27899 0.591285 0
M  V30 10787 C 1032.2 -5.89672 1.64176 0
M  V30 10788 N 1031.34 -6.94264 1.04603 0
M  V30 10789 H 1036.18 -2.49991 1.62198 0
M  V30 10790 H 1033.71 -1.22757 0.810497 0
M  V30 10791 H 1035.67 -4.16648 -0.214587 0
M  V30 10792 H 1034.3 -3.14558 -0.724774 0
M  V30 10793 H 1033.35 -3.41272 1.6804 0
M  V30 10794 H 1034.67 -4.56753 2.00446 0
M  V30 10795 H 1033.82 -6.06417 0.185271 0
M  V30 10796 H 1032.56 -4.87128 -0.236236 0
M  V30 10797 H 1031.56 -5.09854 2.05739 0
M  V30 10798 H 1032.79 -6.32517 2.47182 0
M  V30 10799 H 1030.73 -6.55562 0.239664 0
M  V30 10800 H 1030.65 -7.34771 1.77898 0
M  V30 10801 H 1031.92 -7.7665 0.665989 0
M  V30 10802 N 1036.15 -0.873678 -1.31166 0
M  V30 10803 C 1037.39 -0.493006 -1.98365 0
M  V30 10804 C 1037.75 0.937973 -1.67529 0
M  V30 10805 O 1038.95 1.42419 -2.2797 0
M  V30 10806 C 1037.22 -0.747128 -3.49504 0
M  V30 10807 S 1038.78 -0.466869 -4.36309 0
M  V30 10808 H 1035.6 -0.183882 -0.68681 0
M  V30 10809 H 1038.2 -1.13051 -1.59499 0
M  V30 10810 H 1036.91 -1.78731 -3.69437 0
M  V30 10811 H 1036.44 -0.096761 -3.93281 0
M  V30 10812 H 1038.45 0.699298 -4.91248 0
M  V30 10813 N 1037.63 1.44308 -0.633487 0
M  V30 10814 C 1038.57 2.32455 0.0821956 0
M  V30 10815 C 1039.57 1.47482 0.833388 0
M  V30 10816 O 1040.77 1.63812 0.746021 0
M  V30 10817 H 1037.15 0.750631 0.045352 0
M  V30 10818 H 1039.12 2.90566 -0.679282 0
M  V30 10819 C 1037.87 3.31512 1.04858 0
M  V30 10820 H 1037.19 3.96908 0.479979 0
M  V30 10821 H 1038.63 3.95865 1.51879 0
M  V30 10822 C 1037.09 2.60615 2.13498 0
M  V30 10823 O 1037.62 2.40682 3.21613 0
M  V30 10824 N 1035.83 2.20315 1.89499 0
M  V30 10825 H 1035.37 2.36726 1.01581 0
M  V30 10826 H 1035.33 1.73205 2.62388 0
M  V30 10827 N 1039.1 0.374177 1.53094 0
M  V30 10828 C 1040.35 -0.213981 2.00562 0
M  V30 10829 C 1040.67 -1.4916 1.26533 0
M  V30 10830 O 1041.87 -2.15889 1.64634 0
M  V30 10831 C 1040.33 -0.431876 3.57299 0
M  V30 10832 C 1039.94 0.831615 4.40214 0
M  V30 10833 C 1041.68 -0.977222 4.13099 0
M  V30 10834 C 1039.59 0.582831 5.88521 0
M  V30 10835 H 1038.52 -0.0837386 0.749336 0
M  V30 10836 H 1041.17 0.494245 1.76719 0
M  V30 10837 H 1039.55 -1.20158 3.7733 0
M  V30 10838 H 1040.72 1.60477 4.31953 0
M  V30 10839 H 1039.04 1.30081 3.9556 0
M  V30 10840 H 1041.64 -1.17881 5.21544 0
M  V30 10841 H 1041.98 -1.94189 3.68234 0
M  V30 10842 H 1042.51 -0.267473 3.969 0
M  V30 10843 H 1039.25 1.51807 6.37679 0
M  V30 10844 H 1038.77 -0.151666 5.99608 0
M  V30 10845 H 1040.45 0.211604 6.46654 0
M  V30 10846 N 1040.58 -1.57259 0.103575 0
M  V30 10847 C 1041.83 -1.94657 -0.558126 0
M  V30 10848 C 1042.16 -0.985886 -1.67662 0
M  V30 10849 O 1041.41 -0.0069745 -1.95699 0
M  V30 10850 C 1041.71 -3.38549 -1.14538 0
M  V30 10851 C 1041.38 -4.50651 -0.149818 0
M  V30 10852 C 1040.04 -4.8104 0.12398 0
M  V30 10853 C 1042.39 -5.18503 0.529497 0
M  V30 10854 C 1039.72 -5.76606 1.08364 0
M  V30 10855 C 1042.07 -6.15099 1.47769 0
M  V30 10856 C 1040.74 -6.43889 1.75963 0
M  V30 10857 H 1040.01 -0.712299 -0.204233 0
M  V30 10858 H 1042.65 -1.90641 0.181208 0
M  V30 10859 H 1040.96 -3.39185 -1.96115 0
M  V30 10860 H 1042.65 -3.6479 -1.66521 0
M  V30 10861 H 1039.24 -4.2697 -0.373404 0
M  V30 10862 H 1043.43 -4.95194 0.331121 0
M  V30 10863 H 1038.68 -5.97223 1.30899 0
M  V30 10864 H 1042.86 -6.66767 2.00983 0
M  V30 10865 H 1040.49 -7.17749 2.50481 0
M  V30 10866 N 1042.06 0.170153 -1.56679 0
M  V30 10867 C 1043.01 1.21064 -1.965 0
M  V30 10868 C 1043.98 1.43928 -0.829092 0
M  V30 10869 O 1045.16 1.56649 -1.08931 0
M  V30 10870 C 1042.3 2.54468 -2.33109 0
M  V30 10871 C 1041.42 2.38974 -3.59883 0
M  V30 10872 C 1040.55 3.65252 -3.857 0
M  V30 10873 C 1039.59 3.44696 -5.05817 0
M  V30 10874 N 1038.73 4.63047 -5.27761 0
M  V30 10875 H 1043.57 0.864055 -2.85198 0
M  V30 10876 H 1041.1 0.415243 -1.41117 0
M  V30 10877 H 1043.06 3.32222 -2.52358 0
M  V30 10878 H 1041.69 2.8712 -1.4752 0
M  V30 10879 H 1040.74 1.5239 -3.48542 0
M  V30 10880 H 1042.06 2.19731 -4.47794 0
M  V30 10881 H 1041.21 4.51441 -4.05322 0
M  V30 10882 H 1039.95 3.87475 -2.96166 0
M  V30 10883 H 1038.95 2.56893 -4.86092 0
M  V30 10884 H 1040.18 3.23894 -5.96883 0
M  V30 10885 H 1038.12 4.85487 -4.41179 0
M  V30 10886 H 1038.04 4.46722 -6.09898 0
M  V30 10887 H 1039.31 5.50516 -5.51863 0
M  V30 10888 N 1043.54 1.5137 0.438746 0
M  V30 10889 C 1044.49 1.73154 1.55308 0
M  V30 10890 C 1045.48 0.597825 1.58501 0
M  V30 10891 O 1046.69 0.77917 1.62262 0
M  V30 10892 H 1043.06 0.547083 0.51595 0
M  V30 10893 H 1045.03 2.66566 1.34108 0
M  V30 10894 C 1043.78 1.87242 2.92977 0
M  V30 10895 H 1043.1 2.73884 2.91252 0
M  V30 10896 H 1044.54 2.06497 3.70317 0
M  V30 10897 C 1043 0.631887 3.30921 0
M  V30 10898 O 1043.53 -0.214099 4.01129 0
M  V30 10899 N 1041.74 0.47639 2.86669 0
M  V30 10900 H 1041.29 1.16589 2.29706 0
M  V30 10901 H 1041.24 -0.352403 3.12419 0
M  V30 10902 N 1045.02 -0.694098 1.41492 0
M  V30 10903 C 1046.27 -1.4498 1.40227 0
M  V30 10904 C 1046.58 -1.95594 0.0151253 0
M  V30 10905 O 1047.78 -2.71234 -0.120146 0
M  V30 10906 C 1046.24 -2.62171 2.46565 0
M  V30 10907 C 1045.85 -2.18337 3.91194 0
M  V30 10908 C 1047.59 -3.39796 2.54439 0
M  V30 10909 C 1045.5 -3.32495 4.89082 0
M  V30 10910 H 1044.43 -0.544584 0.521483 0
M  V30 10911 H 1047.08 -0.75337 1.67322 0
M  V30 10912 H 1045.46 -3.34089 2.12604 0
M  V30 10913 H 1046.64 -1.53698 4.34412 0
M  V30 10914 H 1044.95 -1.53702 3.86994 0
M  V30 10915 H 1047.55 -4.2478 3.24755 0
M  V30 10916 H 1047.89 -3.85082 1.5817 0
M  V30 10917 H 1048.42 -2.74935 2.87499 0
M  V30 10918 H 1045.16 -2.92219 5.86761 0
M  V30 10919 H 1044.68 -3.95978 4.50512 0
M  V30 10920 H 1046.36 -3.98251 5.09907 0
M  V30 10921 N 1046.49 -1.27344 -0.928501 0
M  V30 10922 C 1047.77 -1.04362 -1.65433 0
M  V30 10923 C 1048.15 0.421896 -2.06841 0
M  V30 10924 O 1047.5 1.40496 -1.80203 0
M  V30 10925 C 1047.71 -2.00442 -2.85699 0
M  V30 10926 C 1049.06 -2.29767 -3.57061 0
M  V30 10927 O 1050.08 -1.98409 -2.95825 0
M  V30 10928 O 1048.94 -2.83217 -4.67387 0
M  V30 10929 H 1046.03 -0.397783 -0.72505 0
M  V30 10930 H 1048.58 -1.38606 -0.979109 0
M  V30 10931 H 1047.35 -2.99281 -2.52085 0
M  V30 10932 H 1046.98 -1.66755 -3.60941 0
M  V30 10933 N 1047.97 1.13488 -1.09353 0
M  V30 10934 C 1049.39 1.36739 -0.823086 0
M  V30 10935 C 1049.59 1.93476 0.562963 0
M  V30 10936 O 1048.64 2.15374 1.31796 0
M  V30 10937 C 1049.96 2.31943 -1.91371 0
M  V30 10938 C 1051.51 2.4556 -1.94085 0
M  V30 10939 C 1051.98 3.44072 -3.02289 0
M  V30 10940 N 1053.47 3.51622 -3.01524 0
M  V30 10941 C 1054.21 4.27724 -3.8189 0
M  V30 10942 N 1053.7 5.06987 -4.72161 0
M  V30 10943 N 1055.5 4.23018 -3.70152 0
M  V30 10944 H 1047.65 0.75012 -1.98713 0
M  V30 10945 H 1049.91 0.392564 -0.862901 0
M  V30 10946 H 1049.62 1.97408 -2.91072 0
M  V30 10947 H 1049.49 3.31952 -1.79131 0
M  V30 10948 H 1051.88 2.79382 -0.950234 0
M  V30 10949 H 1051.96 1.45479 -2.10403 0
M  V30 10950 H 1051.6 3.10981 -4.01564 0
M  V30 10951 H 1051.53 4.43956 -2.83214 0
M  V30 10952 H 1054.02 2.95066 -2.36103 0
M  V30 10953 H 1054.34 5.6236 -5.30067 0
M  V30 10954 H 1052.68 5.06222 -4.76197 0
M  V30 10955 H 1055.87 3.60171 -2.98989 0
M  V30 10956 H 1056.04 4.82075 -4.33022 0
M  V30 10957 N 1049.45 0.880621 1.30701 0
M  V30 10958 C 1050.4 0.333562 2.30196 0
M  V30 10959 C 1051.39 -0.557092 1.59978 0
M  V30 10960 O 1052.6 -0.442009 1.74489 0
M  V30 10961 H 1048.97 0.0892036 0.746691 0
M  V30 10962 H 1050.95 1.18644 2.73799 0
M  V30 10963 C 1049.69 -0.440731 3.44895 0
M  V30 10964 H 1049.02 0.235353 3.99107 0
M  V30 10965 H 1050.46 -0.788676 4.166 0
M  V30 10966 C 1048.92 -1.63613 2.94504 0
M  V30 10967 O 1049.45 -2.73549 2.94166 0
M  V30 10968 N 1047.65 -1.47183 2.5057 0
M  V30 10969 H 1047.2 -0.577479 2.51044 0
M  V30 10970 H 1047.16 -2.27303 2.17211 0
M  V30 10971 N 1050.93 -1.4397 0.641131 0
M  V30 10972 C 1051.88 -2.2786 -0.079879 0
M  V30 10973 C 1052.86 -1.39227 -0.80651 0
M  V30 10974 O 1054.06 -1.62956 -0.690969 0
M  V30 10975 C 1051.18 -3.26722 -1.05394 0
M  V30 10976 C 1050.27 -4.22842 -0.326411 0
M  V30 10977 N 1050.66 -5.016 0.650464 0
M  V30 10978 C 1048.96 -4.42349 -0.569507 0
M  V30 10979 C 1049.66 -5.71563 1.08121 0
M  V30 10980 N 1048.64 -5.41991 0.417932 0
M  V30 10981 H 1052.44 -2.86163 0.669906 0
M  V30 10982 H 1049.95 -1.55528 0.467433 0
M  V30 10983 H 1051.95 -3.85588 -1.58517 0
M  V30 10984 H 1050.61 -2.69979 -1.80392 0
M  V30 10985 H 1051.62 -5.07581 1.0287 0
M  V30 10986 H 1048.3 -3.96693 -1.30159 0
M  V30 10987 H 1049.69 -6.44805 1.88883 0
M  V30 10988 N 1052.41 -0.382291 -1.52893 0
M  V30 10989 C 1053.64 0.202114 -2.05609 0
M  V30 10990 C 1054.05 1.4164 -1.25438 0
M  V30 10991 O 1053.39 1.81359 -0.292324 0
M  V30 10992 C 1053.45 0.64356 -3.53693 0
M  V30 10993 C 1053.11 -0.456305 -4.54716 0
M  V30 10994 C 1054.11 -1.3115 -5.03086 0
M  V30 10995 C 1051.8 -0.621329 -4.98442 0
M  V30 10996 C 1053.79 -2.3169 -5.938 0
M  V30 10997 C 1051.48 -1.63008 -5.88958 0
M  V30 10998 C 1052.48 -2.47629 -6.36529 0
M  V30 10999 O 1052.16 -3.46781 -7.25257 0
M  V30 11000 H 1051.9 0.0358014 -0.675051 0
M  V30 11001 H 1054.45 -0.543935 -1.98067 0
M  V30 11002 H 1052.68 1.44148 -3.58829 0
M  V30 11003 H 1054.37 1.15284 -3.89184 0
M  V30 11004 H 1055.13 -1.19528 -4.70041 0
M  V30 11005 H 1051.01 0.027593 -4.60992 0
M  V30 11006 H 1054.56 -2.97776 -6.30853 0
M  V30 11007 H 1050.45 -1.74671 -6.21418 0
M  V30 11008 H 1051.22 -3.42707 -7.433 0
M  V30 11009 N 1053.89 1.57202 -0.111913 0
M  V30 11010 C 1055.3 1.57713 0.244702 0
M  V30 11011 C 1055.5 1.12419 1.67225 0
M  V30 11012 O 1054.56 0.808329 2.39212 0
M  V30 11013 C 1055.87 3.00695 0.0178289 0
M  V30 11014 C 1057.42 3.12887 0.0842781 0
M  V30 11015 C 1057.89 4.57856 -0.114812 0
M  V30 11016 N 1059.38 4.6316 -0.0605423 0
M  V30 11017 C 1060.12 5.73086 -0.189594 0
M  V30 11018 N 1059.62 6.91787 -0.37442 0
M  V30 11019 N 1061.41 5.6195 -0.12967 0
M  V30 11020 H 1053.56 1.84947 -1.04443 0
M  V30 11021 H 1055.82 0.854418 -0.4107 0
M  V30 11022 H 1055.53 3.38093 -0.968802 0
M  V30 11023 H 1055.4 3.69611 0.752815 0
M  V30 11024 H 1057.79 2.7535 1.06143 0
M  V30 11025 H 1057.87 2.46528 -0.682474 0
M  V30 11026 H 1057.51 4.9609 -1.0889 0
M  V30 11027 H 1057.44 5.22297 0.671839 0
M  V30 11028 H 1059.94 3.77817 0.0790856 0
M  V30 11029 H 1060.25 7.71406 -0.463948 0
M  V30 11030 H 1058.59 6.93788 -0.410303 0
M  V30 11031 H 1061.78 4.68098 0.0137115 0
M  V30 11032 H 1061.96 6.47578 -0.233688 0
M  V30 11033 N 1055.36 -0.161842 1.56767 0
M  V30 11034 C 1056.59 -0.892247 1.86672 0
M  V30 11035 C 1057.01 -1.75407 0.69841 0
M  V30 11036 O 1056.36 -1.7945 -0.332251 0
M  V30 11037 C 1056.41 -1.7612 3.15696 0
M  V30 11038 O 1056.14 -0.934131 4.28025 0
M  V30 11039 C 1057.64 -2.60046 3.59014 0
M  V30 11040 H 1054.86 -0.258747 0.619105 0
M  V30 11041 H 1057.4 -0.159089 2.0388 0
M  V30 11042 H 1055.56 -2.44759 3.00286 0
M  V30 11043 H 1055.97 -1.52931 5.01709 0
M  V30 11044 H 1057.44 -3.16618 4.5217 0
M  V30 11045 H 1057.92 -3.35374 2.83586 0
M  V30 11046 H 1058.53 -1.96724 3.77067 0
M  V30 11047 N 1056.84 -1.516 -0.430713 0
M  V30 11048 C 1057.77 -1.76342 -1.53054 0
M  V30 11049 C 1058.75 -0.61349 -1.58652 0
M  V30 11050 O 1059.94 -0.856888 -1.74273 0
M  V30 11051 C 1057.07 -1.8945 -2.91077 0
M  V30 11052 C 1056.02 -3.04928 -3.00339 0
M  V30 11053 C 1055.35 -3.03228 -4.40405 0
M  V30 11054 C 1056.65 -4.44777 -2.73808 0
M  V30 11055 H 1058.34 -2.68435 -1.326 0
M  V30 11056 H 1055.89 -1.29171 -0.636466 0
M  V30 11057 H 1057.84 -2.05343 -3.67984 0
M  V30 11058 H 1056.56 -0.940114 -3.12777 0
M  V30 11059 H 1055.22 -2.88751 -2.25872 0
M  V30 11060 H 1054.87 -2.05553 -4.59083 0
M  V30 11061 H 1054.57 -3.80776 -4.47531 0
M  V30 11062 H 1056.1 -3.21222 -5.19277 0
M  V30 11063 H 1057.51 -4.6127 -3.40445 0
M  V30 11064 H 1055.91 -5.2408 -2.92335 0
M  V30 11065 H 1056.98 -4.54358 -1.69372 0
M  V30 11066 N 1058.32 0.686584 -1.41858 0
M  V30 11067 C 1059.74 0.998283 -1.24525 0
M  V30 11068 C 1059.94 2.01006 -0.141007 0
M  V30 11069 O 1058.99 2.47667 0.491648 0
M  V30 11070 C 1060.3 1.51432 -2.59786 0
M  V30 11071 C 1061.85 1.6327 -2.67043 0
M  V30 11072 C 1062.33 2.18274 -4.02642 0
M  V30 11073 N 1063.82 2.25622 -4.04535 0
M  V30 11074 C 1064.55 2.69229 -5.06264 0
M  V30 11075 N 1064.05 3.12375 -6.1838 0
M  V30 11076 N 1065.84 2.68873 -4.93623 0
M  V30 11077 H 1057.99 0.0164825 -2.12394 0
M  V30 11078 H 1060.26 0.0698613 -0.945422 0
M  V30 11079 H 1059.96 0.845426 -3.41388 0
M  V30 11080 H 1059.84 2.49502 -2.82894 0
M  V30 11081 H 1062.22 2.29269 -1.85794 0
M  V30 11082 H 1062.3 0.637221 -2.47736 0
M  V30 11083 H 1061.95 1.52887 -4.84343 0
M  V30 11084 H 1061.88 3.18591 -4.19294 0
M  V30 11085 H 1064.37 1.95186 -3.23591 0
M  V30 11086 H 1064.68 3.44301 -6.91864 0
M  V30 11087 H 1063.03 3.10262 -6.21902 0
M  V30 11088 H 1066.22 2.34521 -4.05114 0
M  V30 11089 H 1066.39 3.02539 -5.7304 0
M  V30 11090 N 1059.8 1.27835 0.921735 0
M  V30 11091 C 1060.73 1.06874 2.02758 0
M  V30 11092 C 1061.74 0.0229418 1.62784 0
M  V30 11093 O 1062.93 0.265145 1.7652 0
M  V30 11094 C 1060.03 0.60037 3.3354 0
M  V30 11095 C 1059.2 1.71979 4.02172 0
M  V30 11096 C 1058.26 1.24615 5.11231 0
M  V30 11097 O 1057.29 1.94692 5.34868 0
M  V30 11098 N 1058.49 0.105021 5.80405 0
M  V30 11099 H 1061.26 2.02105 2.213 0
M  V30 11100 H 1058.82 1.19481 1.09251 0
M  V30 11101 H 1060.81 0.267281 4.03816 0
M  V30 11102 H 1059.38 -0.258872 3.11526 0
M  V30 11103 H 1058.6 2.22287 3.25549 0
M  V30 11104 H 1059.89 2.47092 4.44773 0
M  V30 11105 H 1059.29 -0.479745 5.63662 0
M  V30 11106 H 1057.84 -0.168846 6.51581 0
M  V30 11107 N 1061.28 -1.12907 1.09954 0
M  V30 11108 C 1062.24 -2.16673 0.747364 0
M  V30 11109 C 1063.24 -1.59208 -0.225741 0
M  V30 11110 O 1064.43 -1.742 -0.00322482 0
M  V30 11111 C 1061.56 -3.40735 0.106169 0
M  V30 11112 H 1062.75 -2.49341 1.6664 0
M  V30 11113 H 1060.31 -1.27828 0.899421 0
M  V30 11114 H 1061.04 -3.13661 -0.82384 0
M  V30 11115 H 1060.83 -3.83717 0.806434 0
M  V30 11116 H 1062.32 -4.17414 -0.12464 0
M  V30 11117 N 1062.75 -0.88754 -1.30232 0
M  V30 11118 C 1064 -0.503322 -1.95319 0
M  V30 11119 C 1064.32 0.952817 -1.70824 0
M  V30 11120 O 1065.52 1.444 -2.29915 0
M  V30 11121 C 1063.98 -0.849216 -3.49738 0
M  V30 11122 C 1063.59 -2.3233 -3.83049 0
M  V30 11123 C 1065.33 -0.53432 -4.21124 0
M  V30 11124 C 1063.24 -2.61069 -5.30657 0
M  V30 11125 H 1062.17 -0.1845 -0.731078 0
M  V30 11126 H 1064.82 -1.08287 -1.48143 0
M  V30 11127 H 1063.2 -0.198729 -3.95501 0
M  V30 11128 H 1064.37 -3.01832 -3.48187 0
M  V30 11129 H 1062.69 -2.60599 -3.24773 0
M  V30 11130 H 1065.29 -0.726039 -5.29748 0
M  V30 11131 H 1065.63 0.526434 -4.12958 0
M  V30 11132 H 1066.16 -1.14211 -3.81052 0
M  V30 11133 H 1062.9 -3.65895 -5.43876 0
M  V30 11134 H 1062.42 -1.96179 -5.6681 0
M  V30 11135 H 1064.1 -2.46703 -5.98119 0
M  V30 11136 N 1064.23 1.43628 -0.648757 0
M  V30 11137 C 1065.48 2.01083 -0.157692 0
M  V30 11138 C 1065.79 1.51756 1.23408 0
M  V30 11139 O 1067 2.01455 1.82012 0
M  V30 11140 C 1065.46 3.59157 -0.231118 0
M  V30 11141 C 1065.06 4.17478 -1.6253 0
M  V30 11142 C 1066.81 4.24016 0.202573 0
M  V30 11143 C 1064.72 5.67832 -1.6529 0
M  V30 11144 H 1063.65 0.751977 -0.0551897 0
M  V30 11145 H 1066.3 1.64648 -0.810139 0
M  V30 11146 H 1064.68 3.92972 0.488755 0
M  V30 11147 H 1065.85 3.9517 -2.37017 0
M  V30 11148 H 1064.17 3.64973 -2.00459 0
M  V30 11149 H 1066.76 5.34319 0.20174 0
M  V30 11150 H 1067.11 3.97616 1.23319 0
M  V30 11151 H 1067.64 3.95068 -0.465398 0
M  V30 11152 H 1064.38 5.98994 -2.66246 0
M  V30 11153 H 1063.9 5.92209 -0.951217 0
M  V30 11154 H 1065.58 6.3179 -1.39465 0
M  V30 11155 N 1065.71 0.390394 1.52688 0
M  V30 11156 C 1066.99 -0.249068 1.94008 0
M  V30 11157 C 1067.37 -1.64263 1.32593 0
M  V30 11158 O 1066.72 -2.23086 0.494448 0
M  V30 11159 C 1066.93 -0.274318 3.4792 0
M  V30 11160 C 1068.27 -0.502743 4.21613 0
M  V30 11161 O 1069.3 -0.35448 3.54432 0
M  V30 11162 O 1068.16 -0.79334 5.40711 0
M  V30 11163 H 1065.25 -0.155116 0.812323 0
M  V30 11164 H 1067.8 0.44498 1.63762 0
M  V30 11165 H 1066.57 0.701766 3.84956 0
M  V30 11166 H 1066.19 -1.01324 3.84473 0
M  V30 11167 N 1067.19 -1.57141 0.120249 0
M  V30 11168 C 1068.12 -2.11097 -0.8668 0
M  V30 11169 C 1069.1 -1.02768 -1.26006 0
M  V30 11170 O 1070.28 -1.3043 -1.36089 0
M  V30 11171 C 1067.41 -2.6087 -2.1602 0
M  V30 11172 C 1066.46 -3.81095 -1.91491 0
M  V30 11173 S 1067.29 -5.23441 -1.13005 0
M  V30 11174 C 1068.45 -5.76583 -2.43521 0
M  V30 11175 H 1068.68 -2.94489 -0.407871 0
M  V30 11176 H 1066.21 -1.54116 -0.0935491 0
M  V30 11177 H 1068.17 -2.90201 -2.90333 0
M  V30 11178 H 1066.83 -1.77657 -2.5903 0
M  V30 11179 H 1066.02 -4.14074 -2.8733 0
M  V30 11180 H 1065.63 -3.52387 -1.25297 0
M  V30 11181 H 1067.92 -5.86384 -3.39352 0
M  V30 11182 H 1068.86 -6.74644 -2.15085 0
M  V30 11183 H 1069.27 -5.04657 -2.52946 0
M  V30 11184 N 1068.67 0.153526 -1.5685 0
M  V30 11185 C 1069.91 0.868517 -1.83261 0
M  V30 11186 C 1070.25 1.81112 -0.700857 0
M  V30 11187 O 1069.52 1.92235 0.295989 0
M  V30 11188 C 1069.8 1.6487 -3.2014 0
M  V30 11189 C 1069.66 0.728021 -4.43869 0
M  V30 11190 C 1070.98 2.61259 -3.54163 0
M  V30 11191 H 1068.09 0.314297 -0.666623 0
M  V30 11192 H 1070.74 0.133971 -1.89527 0
M  V30 11193 H 1068.89 2.2749 -3.1493 0
M  V30 11194 H 1070.56 0.113328 -4.61161 0
M  V30 11195 H 1068.8 0.0371744 -4.33784 0
M  V30 11196 H 1069.47 1.30981 -5.36235 0
M  V30 11197 H 1071.95 2.0876 -3.59942 0
M  V30 11198 H 1070.82 3.12902 -4.50981 0
M  V30 11199 H 1071.09 3.42307 -2.79782 0
M  V30 11200 N 1070.14 1.51827 0.422667 0
M  V30 11201 C 1071.07 1.77152 1.52117 0
M  V30 11202 C 1072.06 0.621895 1.58324 0
M  V30 11203 O 1073.24 0.866118 1.73816 0
M  V30 11204 C 1070.37 1.90991 2.90068 0
M  V30 11205 C 1069.32 3.06516 2.98717 0
M  V30 11206 C 1068.65 3.05559 4.38791 0
M  V30 11207 C 1069.95 4.46223 2.71445 0
M  V30 11208 H 1071.64 2.69135 1.31175 0
M  V30 11209 H 1069.19 1.29507 0.629607 0
M  V30 11210 H 1071.14 2.07291 3.6689 0
M  V30 11211 H 1069.87 0.956688 3.12274 0
M  V30 11212 H 1068.53 2.89945 2.24338 0
M  V30 11213 H 1068.17 2.07985 4.57986 0
M  V30 11214 H 1067.87 3.83144 4.45505 0
M  V30 11215 H 1069.4 3.23971 5.17566 0
M  V30 11216 H 1070.81 4.63069 3.37994 0
M  V30 11217 H 1069.21 5.25623 2.89552 0
M  V30 11218 H 1070.28 4.5525 1.6696 0
M  V30 11219 N 1071.62 -0.679052 1.4222 0
M  V30 11220 C 1072.59 -1.77448 1.45069 0
M  V30 11221 C 1073.59 -1.57189 0.338882 0
M  V30 11222 O 1074.78 -1.63559 0.599519 0
M  V30 11223 C 1071.91 -3.1603 1.27819 0
M  V30 11224 H 1073.1 -1.7631 2.426 0
M  V30 11225 H 1070.65 -0.888277 1.28605 0
M  V30 11226 H 1071.39 -3.22796 0.311946 0
M  V30 11227 H 1071.17 -3.32138 2.08391 0
M  V30 11228 H 1072.66 -3.9596 1.32686 0
M  V30 11229 N 1073.1 -1.28322 -0.914942 0
M  V30 11230 C 1074.33 -1.18254 -1.69775 0
M  V30 11231 C 1074.74 0.258978 -1.87015 0
M  V30 11232 O 1074.1 1.17514 -1.3963 0
M  V30 11233 C 1074.15 -1.8753 -3.09054 0
M  V30 11234 O 1073.87 -3.26051 -2.92613 0
M  V30 11235 C 1075.37 -1.83749 -4.03424 0
M  V30 11236 H 1072.59 -0.41055 -0.530744 0
M  V30 11237 H 1075.14 -1.69425 -1.14523 0
M  V30 11238 H 1073.29 -1.40233 -3.61128 0
M  V30 11239 H 1073.71 -3.60729 -3.80756 0
M  V30 11240 H 1075.18 -2.36813 -4.98622 0
M  V30 11241 H 1075.66 -0.809601 -4.31674 0
M  V30 11242 H 1076.26 -2.3072 -3.57279 0
M  V30 11243 N 1074.58 1.12322 -1.10551 0
M  V30 11244 C 1075.49 2.21678 -0.767862 0
M  V30 11245 C 1076.5 1.72404 0.235132 0
M  V30 11246 O 1077.68 2.01266 0.0735912 0
M  V30 11247 C 1074.75 3.46087 -0.205999 0
M  V30 11248 C 1073.81 4.10195 -1.26642 0
M  V30 11249 C 1073.04 5.28666 -0.731274 0
M  V30 11250 O 1073.26 5.68686 0.44189 0
M  V30 11251 O 1072.2 5.83121 -1.49176 0
M  V30 11252 H 1076.02 2.52955 -1.6807 0
M  V30 11253 H 1073.61 1.2068 -0.880728 0
M  V30 11254 H 1075.49 4.21273 0.103435 0
M  V30 11255 H 1074.16 3.16484 0.679685 0
M  V30 11256 H 1073.07 3.36784 -1.62873 0
M  V30 11257 H 1074.4 4.43957 -2.12516 0
M  V30 11258 N 1076.06 0.894434 1.2976 0
M  V30 11259 C 1076.99 0.312806 2.26046 0
M  V30 11260 C 1077.97 -0.572024 1.52206 0
M  V30 11261 O 1079.15 -0.520009 1.81185 0
M  V30 11262 C 1076.28 -0.554624 3.34128 0
M  V30 11263 C 1075.32 0.262168 4.25693 0
M  V30 11264 S 1076.16 1.65656 5.09233 0
M  V30 11265 C 1077.31 0.795914 6.20819 0
M  V30 11266 H 1077.55 1.12895 2.75031 0
M  V30 11267 H 1075.08 0.694446 1.37901 0
M  V30 11268 H 1077.04 -1.04933 3.96862 0
M  V30 11269 H 1075.7 -1.34495 2.83848 0
M  V30 11270 H 1074.89 -0.400216 5.02408 0
M  V30 11271 H 1074.49 0.689829 3.67583 0
M  V30 11272 H 1076.79 0.0169942 6.77498 0
M  V30 11273 H 1077.73 1.53497 6.91263 0
M  V30 11274 H 1078.14 0.35263 5.63398 0
M  V30 11275 N 1077.53 -1.43282 0.656365 0
M  V30 11276 C 1078.76 -2.06125 0.178879 0
M  V30 11277 C 1079.18 -1.49216 -1.15672 0
M  V30 11278 O 1078.53 -0.624693 -1.71475 0
M  V30 11279 C 1078.59 -3.614 0.0851785 0
M  V30 11280 O 1078.31 -4.16194 1.36798 0
M  V30 11281 C 1079.81 -4.41325 -0.41801 0
M  V30 11282 H 1077.03 -0.664753 0.0913504 0
M  V30 11283 H 1079.57 -1.83733 0.897901 0
M  V30 11284 H 1077.73 -3.82966 -0.584421 0
M  V30 11285 H 1078.14 -5.09892 1.22924 0
M  V30 11286 H 1079.61 -5.50303 -0.432519 0
M  V30 11287 H 1080.09 -4.14577 -1.44991 0
M  V30 11288 H 1080.7 -4.24735 0.219208 0
M  V30 11289 N 1079.01 -0.398486 -1.52479 0
M  V30 11290 C 1079.96 0.432212 -2.26717 0
M  V30 11291 C 1080.93 1.05007 -1.28696 0
M  V30 11292 O 1082.12 1.07636 -1.57541 0
M  V30 11293 C 1079.26 1.54868 -3.08399 0
M  V30 11294 C 1078.37 0.952779 -4.21362 0
M  V30 11295 C 1077.5 2.04106 -4.90423 0
M  V30 11296 C 1076.54 1.42153 -5.95364 0
M  V30 11297 N 1075.68 2.44951 -6.57984 0
M  V30 11298 H 1080.52 -0.207303 -2.97278 0
M  V30 11299 H 1078.06 -0.114066 -1.46657 0
M  V30 11300 H 1080.01 2.20684 -3.54054 0
M  V30 11301 H 1078.64 2.15837 -2.4003 0
M  V30 11302 H 1077.7 0.183962 -3.79955 0
M  V30 11303 H 1079.01 0.460131 -4.96673 0
M  V30 11304 H 1078.16 2.77672 -5.39429 0
M  V30 11305 H 1076.9 2.56733 -4.14656 0
M  V30 11306 H 1075.91 0.671161 -5.45688 0
M  V30 11307 H 1077.13 0.903093 -6.73068 0
M  V30 11308 H 1075.08 2.9673 -5.85053 0
M  V30 11309 H 1074.99 2.00468 -7.28937 0
M  V30 11310 H 1076.26 3.18119 -7.11632 0
M  V30 11311 N 1080.49 1.57075 -0.12858 0
M  V30 11312 C 1081.44 2.12379 0.829418 0
M  V30 11313 C 1082.43 1.04694 1.2218 0
M  V30 11314 O 1083.62 1.30909 1.1913 0
M  V30 11315 C 1080.75 2.73436 2.07575 0
M  V30 11316 C 1079.83 3.88217 1.7073 0
M  V30 11317 N 1080.22 4.94864 1.04609 0
M  V30 11318 C 1078.52 3.9858 2.00125 0
M  V30 11319 C 1079.22 5.7514 0.871137 0
M  V30 11320 N 1078.2 5.25284 1.39918 0
M  V30 11321 H 1082 2.92209 0.314816 0
M  V30 11322 H 1079.51 1.62233 0.0735788 0
M  V30 11323 H 1081.51 3.11406 2.77185 0
M  V30 11324 H 1080.17 1.95073 2.5957 0
M  V30 11325 H 1081.18 5.13025 0.708961 0
M  V30 11326 H 1077.86 3.3127 2.541 0
M  V30 11327 H 1079.25 6.7098 0.351395 0
M  V30 11328 N 1081.97 -0.145205 1.5693 0
M  V30 11329 C 1083.22 -0.857516 1.83447 0
M  V30 11330 C 1083.54 -1.81088 0.709739 0
M  V30 11331 O 1082.8 -1.9337 -0.301097 0
M  V30 11332 C 1083.1 -1.66391 3.16305 0
M  V30 11333 C 1082.76 -0.857171 4.42678 0
M  V30 11334 C 1081.43 -0.634611 4.76997 0
M  V30 11335 C 1083.78 -0.293105 5.20375 0
M  V30 11336 C 1081.11 0.162693 5.86474 0
M  V30 11337 C 1083.46 0.491248 6.3069 0
M  V30 11338 C 1082.12 0.724368 6.63558 0
M  V30 11339 H 1081.39 -0.313787 0.671281 0
M  V30 11340 H 1084.04 -0.121074 1.91117 0
M  V30 11341 H 1082.34 -2.47051 3.04094 0
M  V30 11342 H 1084.04 -2.21855 3.34038 0
M  V30 11343 H 1080.63 -1.0407 4.15773 0
M  V30 11344 H 1084.82 -0.452326 4.94234 0
M  V30 11345 H 1080.07 0.352788 6.10381 0
M  V30 11346 H 1084.25 0.935449 6.90089 0
M  V30 11347 H 1081.87 1.34403 7.48224 0
M  V30 11348 N 1083.45 -1.52049 -0.414609 0
M  V30 11349 C 1084.36 -1.7788 -1.52958 0
M  V30 11350 C 1085.37 -0.66408 -1.60829 0
M  V30 11351 O 1086.55 -0.948882 -1.77646 0
M  V30 11352 C 1083.61 -1.91906 -2.88744 0
M  V30 11353 C 1082.68 -3.15803 -2.90804 0
M  V30 11354 C 1081.91 -3.29151 -4.20114 0
M  V30 11355 O 1082.13 -2.47892 -5.13718 0
M  V30 11356 O 1081.07 -4.2227 -4.28919 0
M  V30 11357 H 1084.89 -2.72506 -1.34067 0
M  V30 11358 H 1082.48 -1.36826 -0.599918 0
M  V30 11359 H 1084.36 -2.02986 -3.6929 0
M  V30 11360 H 1083.03 -1.00468 -3.07714 0
M  V30 11361 H 1081.94 -3.10185 -2.09131 0
M  V30 11362 H 1083.27 -4.07004 -2.76783 0
M  V30 11363 N 1084.93 0.6715 -1.42579 0
M  V30 11364 C 1085.88 1.77767 -1.42769 0
M  V30 11365 C 1086.86 1.58106 -0.298568 0
M  V30 11366 O 1088.05 1.68528 -0.541037 0
M  V30 11367 C 1085.18 3.16248 -1.33574 0
M  V30 11368 C 1084.27 3.41521 -2.51445 0
M  V30 11369 N 1084.66 3.37361 -3.76857 0
M  V30 11370 C 1082.96 3.7217 -2.45776 0
M  V30 11371 C 1083.66 3.62209 -4.5517 0
M  V30 11372 N 1082.63 3.83134 -3.85628 0
M  V30 11373 H 1086.43 1.72949 -2.37626 0
M  V30 11374 H 1083.95 0.872467 -1.36974 0
M  V30 11375 H 1085.95 3.9552 -1.31793 0
M  V30 11376 H 1084.61 3.22261 -0.397223 0
M  V30 11377 H 1085.62 3.17187 -4.09406 0
M  V30 11378 H 1082.29 3.85408 -1.6052 0
M  V30 11379 H 1083.68 3.64925 -5.64162 0
M  V30 11380 N 1086.4 1.28806 0.908124 0
M  V30 11381 C 1087.65 1.1646 1.66027 0
M  V30 11382 C 1087.98 -0.285025 1.92097 0
M  V30 11383 O 1087.26 -1.20675 1.52538 0
M  V30 11384 C 1087.54 1.96951 3.01467 0
M  V30 11385 C 1087.39 3.50007 2.82515 0
M  V30 11386 C 1088.71 1.78932 4.02084 0
M  V30 11387 H 1085.83 0.424435 0.602515 0
M  V30 11388 H 1088.47 1.58185 1.0525 0
M  V30 11389 H 1086.62 1.61495 3.53344 0
M  V30 11390 H 1088.3 3.95401 2.37605 0
M  V30 11391 H 1086.54 3.75356 2.17463 0
M  V30 11392 H 1087.21 4.01591 3.7872 0
M  V30 11393 H 1089.69 2.09885 3.59287 0
M  V30 11394 H 1088.56 2.37615 4.94803 0
M  V30 11395 H 1088.82 0.742286 4.35824 0
M  V30 11396 N 1087.88 -1.11734 1.11145 0
M  V30 11397 C 1088.83 -2.19765 0.761982 0
M  V30 11398 C 1089.82 -1.67616 -0.24518 0
M  V30 11399 O 1091.03 -1.79695 -0.104781 0
M  V30 11400 H 1087.4 -0.71644 0.228513 0
M  V30 11401 H 1089.38 -2.4649 1.68183 0
M  V30 11402 C 1088.12 -3.47016 0.218057 0
M  V30 11403 H 1087.45 -3.87494 0.984299 0
M  V30 11404 H 1088.89 -4.23998 0.0116825 0
M  V30 11405 C 1087.35 -3.20088 -1.05096 0
M  V30 11406 O 1087.88 -3.40503 -2.1312 0
M  V30 11407 N 1086.08 -2.73844 -0.972523 0
M  V30 11408 H 1085.63 -2.57431 -0.0933459 0
M  V30 11409 H 1085.59 -2.56204 -1.82228 0
M  V30 11410 N 1089.36 -0.901303 -1.29284 0
M  V30 11411 C 1090.31 -0.378666 -2.27672 0
M  V30 11412 C 1091.28 0.540102 -1.57074 0
M  V30 11413 O 1092.46 0.464997 -1.85047 0
M  V30 11414 C 1089.6 0.38635 -3.42931 0
M  V30 11415 C 1088.71 -0.563496 -4.28309 0
M  V30 11416 C 1087.85 0.218731 -5.30749 0
M  V30 11417 C 1086.89 -0.725536 -6.07785 0
M  V30 11418 N 1086.03 0.0223854 -7.02096 0
M  V30 11419 H 1090.87 -1.22277 -2.71758 0
M  V30 11420 H 1088.4 -0.614302 -1.33659 0
M  V30 11421 H 1090.36 0.845967 -4.08533 0
M  V30 11422 H 1088.99 1.1949 -2.9987 0
M  V30 11423 H 1088.04 -1.14163 -3.62865 0
M  V30 11424 H 1089.35 -1.28623 -4.81931 0
M  V30 11425 H 1088.51 0.739473 -6.02177 0
M  V30 11426 H 1087.25 0.97459 -4.77863 0
M  V30 11427 H 1086.25 -1.25776 -5.3522 0
M  V30 11428 H 1087.48 -1.48075 -6.6276 0
M  V30 11429 H 1085.42 0.760482 -6.51577 0
M  V30 11430 H 1085.34 -0.640408 -7.53283 0
M  V30 11431 H 1086.61 0.523339 -7.77741 0
M  V30 11432 N 1090.84 1.42931 -0.663954 0
M  V30 11433 C 1092.08 2.01683 -0.181738 0
M  V30 11434 C 1092.41 1.52437 1.20802 0
M  V30 11435 O 1091.67 0.71254 1.82267 0
M  V30 11436 C 1091.97 3.57072 -0.153163 0
M  V30 11437 C 1091.63 4.25706 -1.48612 0
M  V30 11438 C 1090.29 4.4417 -1.85111 0
M  V30 11439 C 1092.65 4.6448 -2.36448 0
M  V30 11440 C 1089.97 4.98677 -3.09092 0
M  V30 11441 C 1092.33 5.20362 -3.5973 0
M  V30 11442 C 1090.99 5.37041 -3.96412 0
M  V30 11443 H 1090.26 0.73801 -0.0665026 0
M  V30 11444 H 1092.91 1.71264 -0.856791 0
M  V30 11445 H 1091.21 3.87095 0.605372 0
M  V30 11446 H 1092.91 4.00299 0.236981 0
M  V30 11447 H 1089.5 4.11686 -1.19215 0
M  V30 11448 H 1093.68 4.49898 -2.09537 0
M  V30 11449 H 1088.94 5.09776 -3.37547 0
M  V30 11450 H 1093.11 5.49352 -4.28001 0
M  V30 11451 H 1090.74 5.79042 -4.92559 0
M  V30 11452 N 1092.32 0.406567 1.52266 0
M  V30 11453 C 1093.56 -0.170305 2.02084 0
M  V30 11454 C 1093.89 -1.45008 1.29176 0
M  V30 11455 O 1093.17 -1.90399 0.39731 0
M  V30 11456 C 1093.45 -0.420627 3.57635 0
M  V30 11457 C 1093.31 0.87564 4.41194 0
M  V30 11458 C 1094.62 -1.20387 4.23314 0
M  V30 11459 H 1091.74 -0.0604219 0.734519 0
M  V30 11460 H 1094.39 0.539529 1.82179 0
M  V30 11461 H 1092.54 -1.0253 3.74726 0
M  V30 11462 H 1094.21 1.51192 4.35819 0
M  V30 11463 H 1092.45 1.48718 4.07511 0
M  V30 11464 H 1093.12 0.654916 5.48101 0
M  V30 11465 H 1095.6 -0.691972 4.10306 0
M  V30 11466 H 1094.47 -1.34776 5.32096 0
M  V30 11467 H 1094.73 -2.2238 3.82099 0
M  V30 11468 N 1093.79 -1.57004 0.136909 0
M  V30 11469 C 1094.74 -2.17524 -0.823784 0
M  V30 11470 C 1095.74 -1.1294 -1.26258 0
M  V30 11471 O 1096.94 -1.3121 -1.23223 0
M  V30 11472 H 1093.32 -0.696381 -0.283827 0
M  V30 11473 H 1095.29 -2.96997 -0.289052 0
M  V30 11474 C 1094.04 -2.80331 -2.05693 0
M  V30 11475 H 1093.36 -3.60515 -1.72825 0
M  V30 11476 H 1094.8 -3.26192 -2.70878 0
M  V30 11477 C 1093.26 -1.78322 -2.85837 0
M  V30 11478 O 1093.79 -1.2475 -3.81838 0
M  V30 11479 N 1092 -1.47854 -2.50175 0
M  V30 11480 H 1091.54 -1.9161 -1.72173 0
M  V30 11481 H 1091.5 -0.798464 -3.04092 0
M  V30 11482 N 1095.27 0.136881 -1.57004 0
M  V30 11483 C 1096.5 0.866405 -1.88436 0
M  V30 11484 C 1096.92 1.73483 -0.727006 0
M  V30 11485 O 1096.28 1.78398 0.323094 0
M  V30 11486 C 1096.33 1.69059 -3.18514 0
M  V30 11487 O 1095.43 2.79584 -3.03161 0
M  V30 11488 H 1094.77 0.240709 -0.618834 0
M  V30 11489 H 1097.3 0.124653 -2.0422 0
M  V30 11490 H 1097.31 2.08353 -3.50789 0
M  V30 11491 H 1095.99 1.05296 -4.0235 0
M  V30 11492 H 1094.57 2.43623 -2.82315 0
M  V30 11493 N 1096.75 1.52266 0.40654 0
M  V30 11494 C 1098 1.6568 1.15035 0
M  V30 11495 C 1098.31 0.394135 1.91588 0
M  V30 11496 O 1099.52 0.408113 2.68415 0
M  V30 11497 C 1097.97 2.92725 2.0938 0
M  V30 11498 C 1097.58 4.26108 1.38332 0
M  V30 11499 C 1099.33 3.15502 2.84004 0
M  V30 11500 C 1097.23 5.44275 2.3134 0
M  V30 11501 H 1096.16 0.61719 0.43312 0
M  V30 11502 H 1098.81 1.78755 0.414598 0
M  V30 11503 H 1097.2 2.73355 2.86519 0
M  V30 11504 H 1098.37 4.55971 0.665396 0
M  V30 11505 H 1096.69 4.09454 0.757384 0
M  V30 11506 H 1099.28 4.00964 3.5374 0
M  V30 11507 H 1099.63 2.29842 3.471 0
M  V30 11508 H 1100.16 3.35357 2.13964 0
M  V30 11509 H 1096.9 6.3229 1.72887 0
M  V30 11510 H 1096.42 5.18749 3.01098 0
M  V30 11511 H 1098.1 5.77457 2.91809 0
M  V30 11512 N 1098.23 -0.663929 1.42933 0
M  V30 11513 C 1099.18 -1.79843 1.4751 0
M  V30 11514 C 1100.17 -1.65751 0.349727 0
M  V30 11515 O 1101.38 -1.72227 0.523239 0
M  V30 11516 H 1097.75 -0.593176 0.462219 0
M  V30 11517 H 1099.72 -1.73102 2.4306 0
M  V30 11518 C 1098.47 -3.18053 1.4049 0
M  V30 11519 H 1097.79 -3.29529 2.26386 0
M  V30 11520 H 1099.23 -3.97423 1.47754 0
M  V30 11521 C 1097.69 -3.36682 0.121076 0
M  V30 11522 O 1098.22 -3.93202 -0.821874 0
M  V30 11523 N 1096.43 -2.90579 0.0347141 0
M  V30 11524 H 1095.98 -2.44769 0.802852 0
M  V30 11525 H 1095.93 -3.03421 -0.823607 0
M  V30 11526 N 1099.71 -1.29285 -0.901281 0
M  V30 11527 C 1100.65 -1.1428 -2.00521 0
M  V30 11528 C 1101.62 -0.0365428 -1.6606 0
M  V30 11529 O 1102.81 -0.203771 -1.89709 0
M  V30 11530 C 1099.95 -0.823671 -3.35126 0
M  V30 11531 C 1099.06 -2.01021 -3.8238 0
M  V30 11532 C 1098.2 -1.6306 -5.05554 0
M  V30 11533 C 1097.24 -2.78304 -5.45173 0
M  V30 11534 N 1096.37 -2.4075 -6.59533 0
M  V30 11535 H 1101.21 -2.08729 -2.12688 0
M  V30 11536 H 1098.75 -1.0387 -1.04161 0
M  V30 11537 H 1100.71 -0.61934 -4.12577 0
M  V30 11538 H 1099.34 0.0839113 -3.22691 0
M  V30 11539 H 1098.39 -2.32629 -3.00978 0
M  V30 11540 H 1099.7 -2.8738 -4.07694 0
M  V30 11541 H 1098.86 -1.38906 -5.90584 0
M  V30 11542 H 1097.59 -0.738464 -4.82077 0
M  V30 11543 H 1096.6 -3.03142 -4.58678 0
M  V30 11544 H 1097.82 -3.68179 -5.70632 0
M  V30 11545 H 1095.77 -1.54022 -6.37662 0
M  V30 11546 H 1095.69 -3.20643 -6.84634 0
M  V30 11547 H 1096.96 -2.19912 -7.47836 0
M  V30 11548 N 1101.18 1.11143 -1.11736 0
M  V30 11549 C 1102.6 1.64462 -0.883693 0
M  V30 11550 C 1102.95 1.87324 0.583448 0
M  V30 11551 O 1102.07 1.60975 1.44623 0
M  V30 11552 C 1102.67 2.98765 -1.59764 0
M  V30 11553 C 1101.23 3.4898 -1.41032 0
M  V30 11554 C 1100.37 2.23729 -1.63831 0
M  V30 11555 H 1103.32 0.947415 -1.27317 0
M  V30 11556 H 1103.34 3.65885 -1.04443 0
M  V30 11557 H 1102.86 2.82094 -2.66542 0
M  V30 11558 H 1100.96 3.7081 -0.364781 0
M  V30 11559 H 1101.07 4.27571 -2.16148 0
M  V30 11560 H 1099.43 2.31507 -1.06191 0
M  V30 11561 H 1100.22 2.09597 -2.7189 0
M  V30 11562 N 1102.66 0.908147 1.28804 0
M  V30 11563 C 1103.6 0.336764 2.25701 0
M  V30 11564 C 1104.57 -0.555849 1.52804 0
M  V30 11565 O 1105.76 -0.500763 1.81727 0
M  V30 11566 C 1102.88 -0.519154 3.34698 0
M  V30 11567 C 1101.93 0.307304 4.25391 0
M  V30 11568 S 1102.76 1.71048 5.07447 0
M  V30 11569 C 1103.92 0.861715 6.1994 0
M  V30 11570 H 1104.15 1.15806 2.73818 0
M  V30 11571 H 1101.69 0.709033 1.37157 0
M  V30 11572 H 1103.64 -1.00718 3.97952 0
M  V30 11573 H 1102.3 -1.31477 2.85259 0
M  V30 11574 H 1101.5 -0.346906 5.02805 0
M  V30 11575 H 1101.1 0.728777 3.66831 0
M  V30 11576 H 1103.39 0.088851 6.77442 0
M  V30 11577 H 1104.33 1.60821 6.89596 0
M  V30 11578 H 1104.74 0.412366 5.62992 0
M  V30 11579 N 1104.14 -1.42577 0.671525 0
M  V30 11580 C 1105.1 -2.292 0.000392482 0
M  V30 11581 C 1106.1 -1.43158 -0.732294 0
M  V30 11582 O 1107.29 -1.64583 -0.570789 0
M  V30 11583 C 1104.43 -3.25591 -1.01013 0
M  V30 11584 H 1105.62 -2.90037 0.762783 0
M  V30 11585 H 1103.17 -1.50162 0.433703 0
M  V30 11586 H 1103.91 -2.69685 -1.80112 0
M  V30 11587 H 1103.69 -3.89049 -0.488183 0
M  V30 11588 H 1105.18 -3.90561 -1.47824 0
M  V30 11589 N 1105.62 -0.414636 -1.52048 0
M  V30 11590 C 1106.58 0.396285 -2.25748 0
M  V30 11591 C 1107.58 0.969003 -1.28324 0
M  V30 11592 O 1108.77 0.847016 -1.52221 0
M  V30 11593 C 1105.9 1.55838 -3.03195 0
M  V30 11594 H 1107.1 -0.249311 -2.98862 0
M  V30 11595 H 1104.65 -0.167276 -1.55402 0
M  V30 11596 H 1105.38 2.24068 -2.34444 0
M  V30 11597 H 1105.17 1.15414 -3.74729 0
M  V30 11598 H 1106.66 2.13187 -3.59084 0
M  V30 11599 N 1107.1 1.56929 -0.145233 0
M  V30 11600 C 1108.01 2.20238 0.808219 0
M  V30 11601 C 1109.02 1.18615 1.27304 0
M  V30 11602 O 1110.2 1.51186 1.3306 0
M  V30 11603 C 1107.26 2.81016 2.03055 0
M  V30 11604 C 1106.32 3.97759 1.61512 0
M  V30 11605 C 1105.56 4.55628 2.77918 0
M  V30 11606 O 1105.78 4.12378 3.94082 0
M  V30 11607 O 1104.71 5.45917 2.53492 0
M  V30 11608 H 1108.54 3.02221 0.299314 0
M  V30 11609 H 1106.13 1.49176 0.0817051 0
M  V30 11610 H 1108.01 3.19652 2.74592 0
M  V30 11611 H 1106.68 2.02047 2.52901 0
M  V30 11612 H 1105.59 3.63842 0.870033 0
M  V30 11613 H 1106.92 4.78242 1.16383 0
M  V30 11614 N 1108.58 -0.128553 1.57075 0
M  V30 11615 C 1109.82 -0.836536 1.83535 0
M  V30 11616 C 1110.14 -1.81491 0.7294 0
M  V30 11617 O 1111.34 -2.56838 0.880128 0
M  V30 11618 C 1109.8 -1.53836 3.25365 0
M  V30 11619 C 1109.41 -0.601454 4.43944 0
M  V30 11620 C 1111.15 -2.23204 3.61082 0
M  V30 11621 C 1109.06 -1.30596 5.768 0
M  V30 11622 H 1107.99 -0.316142 0.684522 0
M  V30 11623 H 1110.64 -0.0892555 1.83283 0
M  V30 11624 H 1109.02 -2.33192 3.20058 0
M  V30 11625 H 1110.2 0.158209 4.60528 0
M  V30 11626 H 1108.51 -0.0152393 4.16397 0
M  V30 11627 H 1111.11 -2.76585 4.57608 0
M  V30 11628 H 1111.45 -3.0056 2.88044 0
M  V30 11629 H 1111.98 -1.50746 3.68131 0
M  V30 11630 H 1108.72 -0.573874 6.52983 0
M  V30 11631 H 1108.24 -2.03787 5.6412 0
M  V30 11632 H 1109.92 -1.8418 6.20231 0
M  V30 11633 N 1110.05 -1.5248 -0.398459 0
M  V30 11634 C 1110.96 -1.79492 -1.51062 0
M  V30 11635 C 1111.98 -0.681101 -1.60116 0
M  V30 11636 O 1113.16 -0.967671 -1.7663 0
M  V30 11637 C 1110.22 -1.94958 -2.86692 0
M  V30 11638 C 1109.28 -3.1887 -2.87438 0
M  V30 11639 C 1108.51 -3.33588 -4.16599 0
M  V30 11640 O 1108.74 -2.53327 -5.11059 0
M  V30 11641 O 1107.67 -4.26795 -4.24416 0
M  V30 11642 H 1111.5 -2.73913 -1.31169 0
M  V30 11643 H 1109.08 -1.37455 -0.585372 0
M  V30 11644 H 1110.96 -2.06891 -3.67116 0
M  V30 11645 H 1109.64 -1.03726 -3.06631 0
M  V30 11646 H 1108.55 -3.12386 -2.0583 0
M  V30 11647 H 1109.88 -4.09917 -2.7245 0
M  V30 11648 N 1111.53 0.65634 -1.43283 0
M  V30 11649 C 1112.78 1.41347 -1.44449 0
M  V30 11650 C 1113.1 1.94879 -0.0687217 0
M  V30 11651 O 1112.37 1.74235 0.895492 0
M  V30 11652 H 1110.95 0.524578 -0.531815 0
M  V30 11653 H 1113.61 0.774292 -1.7886 0
M  V30 11654 H 1112.71 2.25737 -2.15521 0
M  V30 11655 N 1113.01 1.29761 0.894412 0
M  V30 11656 C 1114.23 1.21064 1.68399 0
M  V30 11657 C 1114.66 -0.224608 1.86754 0
M  V30 11658 O 1114.02 -1.16199 1.39167 0
M  V30 11659 C 1114.07 1.93468 3.04306 0
M  V30 11660 O 1113.17 1.25533 3.9283 0
M  V30 11661 H 1112.51 0.419223 0.514925 0
M  V30 11662 H 1115.04 1.71421 1.11696 0
M  V30 11663 H 1115.05 2.02127 3.54413 0
M  V30 11664 H 1113.73 2.97857 2.90265 0
M  V30 11665 H 1112.3 1.25168 3.51266 0
M  V30 11666 N 1114.49 -1.10549 1.12324 0
M  V30 11667 C 1115.76 -1.78968 0.789287 0
M  V30 11668 C 1116.14 -1.984 -0.721156 0
M  V30 11669 O 1115.49 -1.5761 -1.65443 0
M  V30 11670 C 1115.7 -3.12044 1.563 0
M  V30 11671 C 1117.05 -3.86939 1.74825 0
M  V30 11672 O 1118.07 -3.21761 1.52802 0
M  V30 11673 O 1116.93 -5.0392 2.11488 0
M  V30 11674 H 1114.03 -0.775617 0.286962 0
M  V30 11675 H 1116.57 -1.17209 1.2272 0
M  V30 11676 H 1115.35 -2.93313 2.59005 0
M  V30 11677 H 1114.97 -3.81521 1.11926 0
M  V30 11678 N 1115.97 -0.914965 -1.28321 0
M  V30 11679 C 1117.21 -0.555865 -1.96696 0
M  V30 11680 C 1117.57 0.8842 -1.70429 0
M  V30 11681 O 1118.77 1.35094 -2.32386 0
M  V30 11682 C 1117.04 -0.857942 -3.4695 0
M  V30 11683 S 1118.6 -0.605441 -4.34603 0
M  V30 11684 H 1115.42 -0.20564 -0.680612 0
M  V30 11685 H 1118.02 -1.18068 -1.55821 0
M  V30 11686 H 1116.72 -1.90394 -3.63563 0
M  V30 11687 H 1116.26 -0.221831 -3.92774 0
M  V30 11688 H 1118.27 0.542657 -4.93224 0
M  V30 11689 N 1117.44 1.42219 -0.679077 0
M  V30 11690 C 1118.35 2.346 -0.00345919 0
M  V30 11691 C 1119.37 1.55327 0.784181 0
M  V30 11692 O 1120.55 1.87878 0.725524 0
M  V30 11693 C 1117.61 3.33905 0.933194 0
M  V30 11694 C 1116.67 4.29073 0.139607 0
M  V30 11695 C 1115.9 5.23634 1.03165 0
M  V30 11696 O 1116.13 5.23234 2.27119 0
M  V30 11697 O 1115.06 5.99901 0.490159 0
M  V30 11698 H 1118.89 2.9392 -0.764525 0
M  V30 11699 H 1116.47 1.42794 -0.439329 0
M  V30 11700 H 1118.35 3.949 1.47077 0
M  V30 11701 H 1117.03 2.77052 1.67404 0
M  V30 11702 H 1115.94 3.71478 -0.442177 0
M  V30 11703 H 1117.27 4.88979 -0.562214 0
M  V30 11704 N 1118.92 0.422693 1.51826 0
M  V30 11705 C 1120.16 -0.147997 2.03864 0
M  V30 11706 C 1120.53 -1.41224 1.30076 0
M  V30 11707 O 1121.73 -2.06224 1.72409 0
M  V30 11708 C 1120 -0.376248 3.55414 0
M  V30 11709 S 1121.56 -0.912444 4.29208 0
M  V30 11710 H 1118.37 -0.0387084 0.709946 0
M  V30 11711 H 1120.98 0.578733 1.86738 0
M  V30 11712 H 1119.68 0.550451 4.06692 0
M  V30 11713 H 1119.21 -1.13047 3.76807 0
M  V30 11714 H 1121.23 -2.19161 4.45177 0
M  V30 11715 N 1120.4 -1.5685 0.153553 0
M  V30 11716 C 1121.35 -2.18385 -0.800667 0
M  V30 11717 C 1122.34 -1.14272 -1.25053 0
M  V30 11718 O 1123.55 -1.32509 -1.21825 0
M  V30 11719 H 1119.92 -0.699352 -0.276425 0
M  V30 11720 H 1121.89 -2.97287 -0.257535 0
M  V30 11721 C 1120.64 -2.82497 -2.02708 0
M  V30 11722 H 1119.97 -3.62328 -1.68992 0
M  V30 11723 H 1121.41 -3.29047 -2.67403 0
M  V30 11724 C 1119.86 -1.81343 -2.8393 0
M  V30 11725 O 1120.39 -1.28793 -3.80493 0
M  V30 11726 N 1118.6 -1.50499 -2.48593 0
M  V30 11727 H 1118.15 -1.93425 -1.70131 0
M  V30 11728 H 1118.11 -0.830672 -3.03228 0
M  V30 11729 N 1121.88 0.120221 -1.57141 0
M  V30 11730 C 1123.29 0.677497 -1.73974 0
M  V30 11731 C 1123.64 1.80371 -0.772055 0
M  V30 11732 O 1122.76 2.16329 0.0553062 0
M  V30 11733 C 1123.36 1.23575 -3.1546 0
M  V30 11734 C 1121.92 1.73933 -3.33803 0
M  V30 11735 C 1121.07 0.638542 -2.69848 0
M  V30 11736 H 1124.02 -0.105685 -1.58348 0
M  V30 11737 H 1124.04 2.10542 -3.16942 0
M  V30 11738 H 1123.55 0.415851 -3.85866 0
M  V30 11739 H 1121.65 2.58404 -2.68437 0
M  V30 11740 H 1121.76 1.84961 -4.41957 0
M  V30 11741 H 1120.13 1.07185 -2.31049 0
M  V30 11742 H 1120.91 -0.170356 -3.42877 0
M  V30 11743 N 1123.36 1.52689 0.390367 0
M  V30 11744 C 1124.32 1.76726 1.45947 0
M  V30 11745 C 1125.32 0.637269 1.47633 0
M  V30 11746 O 1126.51 0.905312 1.48828 0
M  V30 11747 C 1123.64 1.86678 2.85244 0
M  V30 11748 H 1124.83 2.72185 1.25918 0
M  V30 11749 H 1122.39 1.4339 0.622023 0
M  V30 11750 H 1123.12 0.931991 3.10619 0
M  V30 11751 H 1122.91 2.68843 2.85422 0
M  V30 11752 H 1124.4 2.06952 3.62713 0
M  V30 11753 N 1124.83 -0.648732 1.43629 0
M  V30 11754 C 1126.08 -1.40579 1.45196 0
M  V30 11755 C 1126.4 -1.9484 0.0790556 0
M  V30 11756 O 1125.67 -1.74707 -0.886239 0
M  V30 11757 H 1124.25 -0.52175 0.53459 0
M  V30 11758 H 1126.92 -0.764796 1.79268 0
M  V30 11759 H 1126.01 -2.24591 2.16715 0
M  V30 11760 N 1126.31 -1.30234 -0.887518 0
M  V30 11761 C 1127.26 -1.164 -1.99298 0
M  V30 11762 C 1128.23 -0.0541536 -1.66012 0
M  V30 11763 O 1129.41 -0.223881 -1.89482 0
M  V30 11764 C 1126.55 -0.859169 -3.34234 0
M  V30 11765 C 1125.67 -2.05065 -3.80227 0
M  V30 11766 C 1124.8 -1.68413 -5.03796 0
M  V30 11767 C 1123.84 -2.8407 -5.4219 0
M  V30 11768 N 1122.98 -2.47732 -6.56942 0
M  V30 11769 H 1127.82 -2.10973 -2.10463 0
M  V30 11770 H 1125.36 -1.04969 -1.03053 0
M  V30 11771 H 1127.31 -0.663064 -4.11897 0
M  V30 11772 H 1125.94 0.0496808 -3.22762 0
M  V30 11773 H 1125 -2.35808 -2.98494 0
M  V30 11774 H 1126.31 -2.91688 -4.04623 0
M  V30 11775 H 1125.46 -1.45162 -5.89078 0
M  V30 11776 H 1124.2 -0.789553 -4.81266 0
M  V30 11777 H 1123.21 -3.0799 -4.55437 0
M  V30 11778 H 1124.43 -3.74211 -5.66695 0
M  V30 11779 H 1122.38 -1.60777 -6.35993 0
M  V30 11780 H 1122.29 -3.27887 -6.81195 0
M  V30 11781 H 1123.56 -2.27831 -7.45462 0
M  V30 11782 N 1127.79 1.09952 -1.12909 0
M  V30 11783 C 1128.74 2.18525 -0.796849 0
M  V30 11784 C 1129.73 1.67985 0.218483 0
M  V30 11785 O 1130.94 1.79839 0.07618 0
M  V30 11786 H 1127.31 0.712714 -0.239882 0
M  V30 11787 H 1129.28 2.43783 -1.72083 0
M  V30 11788 C 1128.03 3.46625 -0.273237 0
M  V30 11789 H 1127.36 3.85879 -1.04582 0
M  V30 11790 H 1128.8 4.23926 -0.0791355 0
M  V30 11791 C 1127.26 3.2172 0.999903 0
M  V30 11792 O 1127.79 3.43851 2.07676 0
M  V30 11793 N 1125.99 2.75356 0.928833 0
M  V30 11794 H 1125.54 2.57547 0.052379 0
M  V30 11795 H 1125.5 2.5907 1.78129 0
M  V30 11796 N 1129.27 0.921757 1.27833 0
M  V30 11797 C 1130.52 0.559078 1.94629 0
M  V30 11798 C 1130.84 -0.898641 1.72495 0
M  V30 11799 O 1130.1 -1.65546 1.0437 0
M  V30 11800 C 1130.4 0.824259 3.47765 0
M  V30 11801 C 1130.06 2.26278 3.90011 0
M  V30 11802 C 1128.73 2.65607 4.01256 0
M  V30 11803 C 1131.08 3.19853 4.11513 0
M  V30 11804 C 1128.41 3.97646 4.31387 0
M  V30 11805 C 1130.76 4.51467 4.43126 0
M  V30 11806 C 1129.42 4.90637 4.52583 0
M  V30 11807 H 1128.69 0.204581 0.712199 0
M  V30 11808 H 1131.34 1.1646 1.52018 0
M  V30 11809 H 1129.64 0.136011 3.91564 0
M  V30 11810 H 1131.34 0.522701 3.97579 0
M  V30 11811 H 1127.93 1.94765 3.81791 0
M  V30 11812 H 1132.11 2.90674 4.02271 0
M  V30 11813 H 1127.37 4.27685 4.36916 0
M  V30 11814 H 1131.54 5.23982 4.58711 0
M  V30 11815 H 1129.17 5.92982 4.75685 0
M  V30 11816 N 1130.75 -1.41857 0.686609 0
M  V30 11817 C 1132.16 -1.84439 0.289662 0
M  V30 11818 C 1132.51 -1.57462 -1.17047 0
M  V30 11819 O 1131.63 -1.04046 -1.89745 0
M  V30 11820 C 1132.23 -3.34802 0.518948 0
M  V30 11821 C 1130.79 -3.75988 0.176007 0
M  V30 11822 C 1129.93 -2.65339 0.805632 0
M  V30 11823 H 1132.89 -1.31536 0.88792 0
M  V30 11824 H 1132.91 -3.79833 -0.225209 0
M  V30 11825 H 1132.42 -3.54405 1.58173 0
M  V30 11826 H 1130.52 -3.61989 -0.882865 0
M  V30 11827 H 1130.63 -4.75009 0.624772 0
M  V30 11828 H 1129 -2.53605 0.235966 0
M  V30 11829 H 1129.78 -2.87762 1.8721 0
M  V30 11830 N 1132.22 -0.430739 -1.51599 0
M  V30 11831 C 1133.13 0.390347 -2.3133 0
M  V30 11832 C 1134.15 1.03376 -1.39962 0
M  V30 11833 O 1135.33 1.03057 -1.73035 0
M  V30 11834 C 1132.39 1.48039 -3.13505 0
M  V30 11835 C 1131.45 0.857792 -4.20643 0
M  V30 11836 C 1130.69 1.89589 -4.9889 0
M  V30 11837 O 1130.91 3.11717 -4.77691 0
M  V30 11838 O 1129.84 1.49009 -5.83164 0
M  V30 11839 H 1133.67 -0.260358 -3.02582 0
M  V30 11840 H 1131.25 -0.193428 -1.48143 0
M  V30 11841 H 1133.14 2.11272 -3.64612 0
M  V30 11842 H 1131.81 2.1153 -2.45024 0
M  V30 11843 H 1130.72 0.187592 -3.73629 0
M  V30 11844 H 1132.05 0.266474 -4.91478 0
M  V30 11845 N 1133.7 1.56767 -0.161869 0
M  V30 11846 C 1134.65 2.18807 0.789074 0
M  V30 11847 C 1135.64 1.14934 1.24445 0
M  V30 11848 O 1136.85 1.33154 1.2112 0
M  V30 11849 H 1133.23 0.700808 0.272713 0
M  V30 11850 H 1135.2 2.97419 0.241766 0
M  V30 11851 C 1133.95 2.83568 2.01207 0
M  V30 11852 H 1133.27 3.63219 1.67068 0
M  V30 11853 H 1134.71 3.3046 2.65654 0
M  V30 11854 C 1133.17 1.82846 2.82964 0
M  V30 11855 O 1133.7 1.30809 3.79805 0
M  V30 11856 N 1131.9 1.51815 2.47791 0
M  V30 11857 H 1131.45 1.94325 1.69103 0
M  V30 11858 H 1131.41 0.846742 3.02783 0
M  V30 11859 N 1135.18 -0.111886 1.57202 0
M  V30 11860 C 1136.11 -1.16274 1.97517 0
M  V30 11861 C 1137.13 -1.37259 0.875425 0
M  V30 11862 O 1138.31 -1.36208 1.15367 0
M  V30 11863 C 1135.41 -2.52145 2.26442 0
M  V30 11864 C 1134.59 -2.51666 3.57747 0
M  V30 11865 C 1133.65 -3.69337 3.74802 0
M  V30 11866 O 1132.67 -3.52596 4.46839 0
M  V30 11867 N 1133.87 -4.88177 3.14108 0
M  V30 11868 H 1136.64 -0.819747 2.88271 0
M  V30 11869 H 1134.2 -0.301076 1.59076 0
M  V30 11870 H 1136.19 -3.29437 2.3506 0
M  V30 11871 H 1134.76 -2.78599 1.41779 0
M  V30 11872 H 1133.98 -1.60038 3.60252 0
M  V30 11873 H 1135.27 -2.48408 4.44039 0
M  V30 11874 H 1134.67 -5.04682 2.55564 0
M  V30 11875 H 1133.23 -5.6312 3.28237 0
M  V30 11876 N 1136.66 -1.52894 -0.382264 0
M  V30 11877 C 1137.91 -1.67489 -1.12385 0
M  V30 11878 C 1138.22 -0.424565 -1.90937 0
M  V30 11879 O 1139.43 -0.450763 -2.67732 0
M  V30 11880 C 1137.88 -2.96019 -2.04697 0
M  V30 11881 C 1137.49 -4.28255 -1.31535 0
M  V30 11882 C 1139.23 -3.19981 -2.78949 0
M  V30 11883 C 1137.14 -5.47887 -2.22652 0
M  V30 11884 H 1136.07 -0.624002 -0.423246 0
M  V30 11885 H 1138.72 -1.79392 -0.386107 0
M  V30 11886 H 1137.1 -2.77878 -2.82134 0
M  V30 11887 H 1138.28 -4.56971 -0.592771 0
M  V30 11888 H 1136.59 -4.10607 -0.692148 0
M  V30 11889 H 1139.19 -4.06541 -3.47316 0
M  V30 11890 H 1139.53 -2.35335 -3.43399 0
M  V30 11891 H 1140.07 -3.38718 -2.08602 0
M  V30 11892 H 1136.81 -6.3496 -1.62806 0
M  V30 11893 H 1136.33 -5.23473 -2.92807 0
M  V30 11894 H 1138 -5.82026 -2.82586 0
M  V30 11895 N 1138.14 0.641106 -1.43971 0
M  V30 11896 C 1139.07 1.76489 -1.52885 0
M  V30 11897 C 1140.05 1.65742 -0.38258 0
M  V30 11898 O 1141.23 1.84653 -0.601397 0
M  V30 11899 C 1138.36 3.14977 -1.4631 0
M  V30 11900 C 1137.32 3.40502 -2.59311 0
M  V30 11901 C 1136.64 4.78916 -2.37789 0
M  V30 11902 C 1137.94 3.34048 -4.01509 0
M  V30 11903 H 1139.64 1.69286 -2.46946 0
M  V30 11904 H 1137.18 0.813015 -1.18853 0
M  V30 11905 H 1139.14 3.9336 -1.51149 0
M  V30 11906 H 1137.86 3.2294 -0.487599 0
M  V30 11907 H 1136.52 2.64495 -2.53846 0
M  V30 11908 H 1136.17 4.8357 -1.38454 0
M  V30 11909 H 1135.87 4.96954 -3.13545 0
M  V30 11910 H 1137.39 5.59541 -2.4443 0
M  V30 11911 H 1138.81 4.0235 -4.08396 0
M  V30 11912 H 1137.2 3.63622 -4.77388 0
M  V30 11913 H 1138.27 2.32022 -4.25786 0
M  V30 11914 N 1139.62 1.30703 0.880598 0
M  V30 11915 C 1140.86 1.19142 1.62752 0
M  V30 11916 C 1141.18 -0.251795 1.93973 0
M  V30 11917 O 1142.38 -0.488971 2.67061 0
M  V30 11918 C 1140.84 2.08503 2.93351 0
M  V30 11919 C 1140.45 3.57758 2.69653 0
M  V30 11920 C 1142.19 2.05715 3.71324 0
M  V30 11921 C 1140.1 4.39161 3.96096 0
M  V30 11922 H 1139.03 0.442332 0.610622 0
M  V30 11923 H 1141.68 1.55483 0.974547 0
M  V30 11924 H 1140.06 1.65049 3.59965 0
M  V30 11925 H 1141.24 4.09388 2.11513 0
M  V30 11926 H 1139.55 3.62414 2.0505 0
M  V30 11927 H 1142.15 2.63783 4.65105 0
M  V30 11928 H 1142.49 1.04168 4.03057 0
M  V30 11929 H 1143.02 2.47313 3.11579 0
M  V30 11930 H 1139.76 5.4142 3.69519 0
M  V30 11931 H 1139.28 3.92293 4.53725 0
M  V30 11932 H 1140.96 4.50823 4.64077 0
M  V30 11933 N 1141.09 -1.09351 1.1349 0
M  V30 11934 C 1142.04 -2.16008 0.812981 0
M  V30 11935 C 1143.01 -1.64566 -0.225252 0
M  V30 11936 O 1144.2 -1.90552 -0.0973261 0
M  V30 11937 C 1141.34 -3.43913 0.285996 0
M  V30 11938 C 1140.45 -4.09251 1.38338 0
M  V30 11939 C 1139.58 -5.24916 0.814652 0
M  V30 11940 C 1138.62 -5.82178 1.89038 0
M  V30 11941 N 1137.76 -6.89203 1.33955 0
M  V30 11942 H 1142.6 -2.42887 1.72655 0
M  V30 11943 H 1140.14 -1.19209 0.861833 0
M  V30 11944 H 1142.09 -4.17183 -0.0376794 0
M  V30 11945 H 1140.72 -3.17349 -0.590707 0
M  V30 11946 H 1139.78 -3.33838 1.82363 0
M  V30 11947 H 1141.09 -4.4784 2.19638 0
M  V30 11948 H 1140.24 -6.05086 0.442306 0
M  V30 11949 H 1138.98 -4.87691 -0.029416 0
M  V30 11950 H 1137.99 -5.00669 2.27179 0
M  V30 11951 H 1139.21 -6.21464 2.73787 0
M  V30 11952 H 1137.16 -6.53956 0.517494 0
M  V30 11953 H 1137.07 -7.26565 2.08902 0
M  V30 11954 H 1138.34 -7.73126 0.994793 0
M  V30 11955 N 1142.57 -0.928524 -1.27343 0
M  V30 11956 C 1143.99 -0.62889 -1.46687 0
M  V30 11957 C 1144.19 0.821592 -1.83989 0
M  V30 11958 O 1143.24 1.59941 -1.95385 0
M  V30 11959 C 1144.56 -1.57947 -2.55878 0
M  V30 11960 C 1146.1 -1.58778 -2.69738 0
M  V30 11961 C 1146.58 -2.52535 -3.82087 0
M  V30 11962 N 1148.07 -2.50747 -3.89462 0
M  V30 11963 C 1148.81 -3.19981 -4.75814 0
M  V30 11964 N 1148.3 -3.98598 -5.66649 0
M  V30 11965 N 1150.09 -3.08996 -4.69551 0
M  V30 11966 H 1142.25 -1.86625 -1.01414 0
M  V30 11967 H 1144.51 -0.801293 -0.50659 0
M  V30 11968 H 1144.21 -2.61427 -2.35264 0
M  V30 11969 H 1144.09 -1.3218 -3.53282 0
M  V30 11970 H 1146.48 -0.560292 -2.89732 0
M  V30 11971 H 1146.56 -1.88594 -1.72817 0
M  V30 11972 H 1146.2 -3.55395 -3.62846 0
M  V30 11973 H 1146.13 -2.20015 -4.78436 0
M  V30 11974 H 1148.62 -1.93651 -3.24511 0
M  V30 11975 H 1148.93 -4.4841 -6.29403 0
M  V30 11976 H 1147.28 -4.02701 -5.66442 0
M  V30 11977 H 1150.47 -2.4707 -3.97585 0
M  V30 11978 H 1150.64 -3.63223 -5.36631 0
M  V30 11979 N 1144.05 1.41491 -0.694123 0
M  V30 11980 C 1144.98 2.28189 0.0226347 0
M  V30 11981 C 1145.96 1.42152 0.7894 0
M  V30 11982 O 1147.14 1.71581 0.780519 0
M  V30 11983 C 1144.27 3.22357 1.03942 0
M  V30 11984 C 1143.32 4.24927 0.365994 0
M  V30 11985 S 1144.15 5.28043 -0.890562 0
M  V30 11986 C 1145.31 6.25776 0.124665 0
M  V30 11987 H 1145.54 2.88631 -0.712698 0
M  V30 11988 H 1143.07 1.46607 -0.484344 0
M  V30 11989 H 1145.03 3.77143 1.62091 0
M  V30 11990 H 1143.69 2.61013 1.74732 0
M  V30 11991 H 1142.88 4.9108 1.13388 0
M  V30 11992 H 1142.49 3.73729 -0.142389 0
M  V30 11993 H 1144.78 6.70398 0.978393 0
M  V30 11994 H 1145.72 7.06312 -0.502901 0
M  V30 11995 H 1146.13 5.62466 0.478792 0
M  V30 11996 N 1145.53 0.438773 1.51369 0
M  V30 11997 C 1146.46 -0.417215 2.24354 0
M  V30 11998 C 1147.44 -1.02351 1.26345 0
M  V30 11999 O 1148.62 -1.06569 1.55484 0
M  V30 12000 C 1145.75 -1.58163 2.99503 0
M  V30 12001 C 1144.8 -1.09588 4.1218 0
M  V30 12002 S 1145.63 -0.0367491 5.35487 0
M  V30 12003 C 1146.78 -1.2058 6.14175 0
M  V30 12004 H 1147.02 0.202416 2.9661 0
M  V30 12005 H 1144.55 0.223306 1.52777 0
M  V30 12006 H 1146.51 -2.24917 3.43399 0
M  V30 12007 H 1145.17 -2.17268 2.26833 0
M  V30 12008 H 1144.36 -1.96667 4.64045 0
M  V30 12009 H 1143.96 -0.506564 3.70554 0
M  V30 12010 H 1146.26 -2.12387 6.43349 0
M  V30 12011 H 1147.2 -0.727087 7.04357 0
M  V30 12012 H 1147.61 -1.44501 5.45692 0
M  V30 12013 N 1147.01 -1.56678 0.170181 0
M  V30 12014 C 1148.25 -1.96024 -0.475147 0
M  V30 12015 C 1148.57 -1.0588 -1.64465 0
M  V30 12016 O 1149.77 -1.34901 -2.35614 0
M  V30 12017 C 1148.23 -3.4855 -0.896704 0
M  V30 12018 C 1147.84 -4.47318 0.247142 0
M  V30 12019 C 1149.58 -3.96716 -1.51052 0
M  V30 12020 C 1147.49 -5.91082 -0.193982 0
M  V30 12021 H 1146.42 -0.731883 -0.181282 0
M  V30 12022 H 1149.07 -1.81674 0.25823 0
M  V30 12023 H 1147.45 -3.58314 -1.68603 0
M  V30 12024 H 1148.63 -4.49268 1.02445 0
M  V30 12025 H 1146.94 -4.09203 0.770839 0
M  V30 12026 H 1149.54 -5.01581 -1.85258 0
M  V30 12027 H 1149.88 -3.39588 -2.40802 0
M  V30 12028 H 1150.41 -3.89965 -0.785652 0
M  V30 12029 H 1147.15 -6.5208 0.668714 0
M  V30 12030 H 1146.67 -5.92441 -0.936675 0
M  V30 12031 H 1148.35 -6.43844 -0.638237 0
M  V30 12032 N 1148.48 0.103547 -1.57259 0
M  V30 12033 C 1149.43 1.12621 -2.01458 0
M  V30 12034 C 1150.4 1.40282 -0.889391 0
M  V30 12035 O 1151.59 1.51887 -1.15477 0
M  V30 12036 C 1148.73 2.44352 -2.43692 0
M  V30 12037 C 1147.84 2.23495 -3.69695 0
M  V30 12038 C 1146.97 3.48565 -4.00844 0
M  V30 12039 C 1146.01 3.22932 -5.19982 0
M  V30 12040 N 1145.15 4.40246 -5.46926 0
M  V30 12041 H 1149.99 0.742315 -2.88606 0
M  V30 12042 H 1147.53 0.355016 -1.42752 0
M  V30 12043 H 1149.48 3.2122 -2.66221 0
M  V30 12044 H 1148.11 2.80605 -1.59565 0
M  V30 12045 H 1147.17 1.3747 -3.54692 0
M  V30 12046 H 1148.48 2.0054 -4.56711 0
M  V30 12047 H 1147.63 4.33844 -4.24104 0
M  V30 12048 H 1146.37 3.74565 -3.12333 0
M  V30 12049 H 1145.38 2.36045 -4.96551 0
M  V30 12050 H 1146.6 2.98286 -6.10084 0
M  V30 12051 H 1144.55 4.66338 -4.61373 0
M  V30 12052 H 1144.46 4.20452 -6.28296 0
M  V30 12053 H 1145.73 5.26614 -5.74716 0
M  V30 12054 N 1149.96 1.53094 0.37415 0
M  V30 12055 C 1151.2 1.70558 1.12647 0
M  V30 12056 C 1151.57 0.443515 1.86807 0
M  V30 12057 O 1152.77 0.49472 2.64208 0
M  V30 12058 C 1151.04 2.91565 2.06699 0
M  V30 12059 S 1152.6 3.29692 2.89567 0
M  V30 12060 H 1149.41 0.600238 0.381097 0
M  V30 12061 H 1152.02 1.91177 0.408865 0
M  V30 12062 H 1150.72 3.81625 1.50965 0
M  V30 12063 H 1150.25 2.73323 2.82945 0
M  V30 12064 H 1152.27 2.81036 4.08942 0
M  V30 12065 N 1151.44 -0.633461 1.44309 0
M  V30 12066 C 1152.4 -1.72743 1.50641 0
M  V30 12067 C 1153.4 -1.56031 0.388718 0
M  V30 12068 O 1154.59 -1.61568 0.651251 0
M  V30 12069 C 1151.72 -3.11804 1.37809 0
M  V30 12070 H 1152.92 -1.68503 2.48086 0
M  V30 12071 H 1150.47 -0.846912 1.31366 0
M  V30 12072 H 1151.21 -3.2164 0.414483 0
M  V30 12073 H 1150.99 -3.2534 2.18852 0
M  V30 12074 H 1152.48 -3.91538 1.45216 0
M  V30 12075 N 1152.92 -1.31168 -0.873655 0
M  V30 12076 C 1154.2 -1.11285 -1.60857 0
M  V30 12077 C 1154.58 0.333788 -2.08444 0
M  V30 12078 O 1153.92 1.32726 -1.86 0
M  V30 12079 C 1154.13 -2.12379 -2.7694 0
M  V30 12080 C 1155.48 -2.44704 -3.46994 0
M  V30 12081 O 1156.51 -2.10778 -2.87143 0
M  V30 12082 O 1155.36 -3.02786 -4.54954 0
M  V30 12083 H 1152.46 -0.428177 -0.707526 0
M  V30 12084 H 1155 -1.42634 -0.91944 0
M  V30 12085 H 1153.78 -3.09703 -2.39164 0
M  V30 12086 H 1153.4 -1.81914 -3.53544 0
M  V30 12087 N 1154.4 1.08748 -1.14068 0
M  V30 12088 C 1155.64 1.81333 -0.908081 0
M  V30 12089 C 1155.98 1.85826 0.564112 0
M  V30 12090 O 1155.25 1.33157 1.41773 0
M  V30 12091 C 1155.53 3.27127 -1.50531 0
M  V30 12092 C 1155.39 3.30865 -3.04711 0
M  V30 12093 C 1156.71 4.24006 -1.17928 0
M  V30 12094 H 1153.82 0.658326 -0.331325 0
M  V30 12095 H 1156.47 1.27345 -1.41008 0
M  V30 12096 H 1154.62 3.73233 -1.07839 0
M  V30 12097 H 1156.29 2.93109 -3.56209 0
M  V30 12098 H 1154.53 2.70241 -3.39341 0
M  V30 12099 H 1155.2 4.33603 -3.41603 0
M  V30 12100 H 1157.68 3.86221 -1.54831 0
M  V30 12101 H 1156.55 5.2434 -1.62353 0
M  V30 12102 H 1156.82 4.42 -0.0940349 0
M  V30 12103 N 1155.87 0.935264 1.26849 0
M  V30 12104 C 1156.84 0.44485 2.24842 0
M  V30 12105 C 1157.84 -0.440781 1.54641 0
M  V30 12106 O 1159.03 -0.240793 1.72528 0
M  V30 12107 C 1156.16 -0.359566 3.38998 0
M  V30 12108 H 1157.35 1.31074 2.6974 0
M  V30 12109 H 1154.91 0.716665 1.38901 0
M  V30 12110 H 1155.64 -1.24396 2.99493 0
M  V30 12111 H 1155.43 0.275529 3.91131 0
M  V30 12112 H 1156.92 -0.692804 4.11813 0
M  V30 12113 N 1157.35 -1.41121 0.701616 0
M  V30 12114 C 1158.3 -2.32582 0.0288052 0
M  V30 12115 C 1159.29 -1.5129 -0.762074 0
M  V30 12116 O 1160.5 -1.67185 -0.667014 0
M  V30 12117 H 1156.88 -0.75194 -0.00948675 0
M  V30 12118 H 1158.85 -2.86994 0.817141 0
M  V30 12119 C 1157.6 -3.36137 -0.889217 0
M  V30 12120 H 1156.92 -3.98746 -0.290062 0
M  V30 12121 H 1158.36 -4.0266 -1.32819 0
M  V30 12122 C 1156.82 -2.70504 -2.00821 0
M  V30 12123 O 1157.35 -2.55753 -3.09763 0
M  V30 12124 N 1155.55 -2.29105 -1.78772 0
M  V30 12125 H 1155.1 -2.41303 -0.901708 0
M  V30 12126 H 1155.06 -1.85527 -2.53825 0
M  V30 12127 N 1158.83 -0.446794 -1.51134 0
M  V30 12128 C 1160.24 0.0141132 -1.86695 0
M  V30 12129 C 1160.59 1.41095 -1.36333 0
M  V30 12130 O 1159.72 2.04139 -0.718068 0
M  V30 12131 C 1160.31 0.0323866 -3.38785 0
M  V30 12132 C 1158.87 0.437737 -3.73846 0
M  V30 12133 C 1158.02 -0.363436 -2.74908 0
M  V30 12134 H 1160.97 -0.66221 -1.44224 0
M  V30 12135 H 1160.99 0.839865 -3.71115 0
M  V30 12136 H 1160.5 -0.984374 -3.75409 0
M  V30 12137 H 1158.6 1.45975 -3.42815 0
M  V30 12138 H 1158.72 0.155964 -4.78846 0
M  V30 12139 H 1157.08 0.179566 -2.54066 0
M  V30 12140 H 1157.86 -1.37925 -3.14375 0
M  V30 12141 N 1160.31 1.56586 -0.178487 0
M  V30 12142 C 1161.55 1.98994 0.466987 0
M  V30 12143 C 1161.91 1.06229 1.59935 0
M  V30 12144 O 1163.11 1.37806 2.30788 0
M  V30 12145 C 1161.38 3.45064 0.930899 0
M  V30 12146 S 1162.94 4.095 1.57655 0
M  V30 12147 H 1159.76 0.695007 0.149955 0
M  V30 12148 H 1162.36 1.93519 -0.27764 0
M  V30 12149 H 1161.07 4.10287 0.0964476 0
M  V30 12150 H 1160.6 3.54321 1.70939 0
M  V30 12151 H 1162.61 4.05139 2.86491 0
M  V30 12152 N 1161.79 -0.095206 1.57312 0
M  V30 12153 C 1163.2 -0.449411 1.53142 0
M  V30 12154 C 1163.4 -1.80523 0.895187 0
M  V30 12155 O 1162.46 -2.47746 0.487649 0
M  V30 12156 C 1163.77 -0.412002 2.97864 0
M  V30 12157 C 1165.32 -0.493866 3.09079 0
M  V30 12158 C 1165.79 -0.486606 4.55408 0
M  V30 12159 N 1167.29 -0.547363 4.59955 0
M  V30 12160 C 1168.02 -0.563582 5.70624 0
M  V30 12161 N 1167.52 -0.536015 6.90723 0
M  V30 12162 N 1169.31 -0.608385 5.58798 0
M  V30 12163 H 1161.46 0.792869 1.97047 0
M  V30 12164 H 1163.72 0.295106 0.900898 0
M  V30 12165 H 1163.43 0.517064 3.47878 0
M  V30 12166 H 1163.3 -1.23102 3.56547 0
M  V30 12167 H 1165.69 -1.41335 2.59053 0
M  V30 12168 H 1165.77 0.353286 2.53349 0
M  V30 12169 H 1165.42 0.428935 5.06086 0
M  V30 12170 H 1165.35 -1.35097 5.08976 0
M  V30 12171 H 1167.84 -0.573867 3.73517 0
M  V30 12172 H 1168.15 -0.551671 7.70828 0
M  V30 12173 H 1166.49 -0.503064 6.93177 0
M  V30 12174 H 1169.69 -0.627451 4.63876 0
M  V30 12175 H 1169.86 -0.617556 6.45051 0
M  V30 12176 N 1163.26 -1.53291 -0.366026 0
M  V30 12177 C 1164.68 -1.61144 -0.942849 0
M  V30 12178 C 1165.03 -0.478571 -1.90274 0
M  V30 12179 O 1164.15 0.395069 -2.12763 0
M  V30 12180 C 1164.75 -2.92081 -1.71681 0
M  V30 12181 C 1163.31 -3.0227 -2.24298 0
M  V30 12182 C 1162.45 -2.56436 -1.05526 0
M  V30 12183 H 1165.4 -1.58038 -0.144835 0
M  V30 12184 H 1165.42 -2.79858 -2.57798 0
M  V30 12185 H 1164.94 -3.74513 -1.01793 0
M  V30 12186 H 1163.04 -2.24425 -2.97429 0
M  V30 12187 H 1163.15 -4.07341 -2.5221 0
M  V30 12188 H 1161.51 -2.11301 -1.42211 0
M  V30 12189 H 1162.3 -3.41285 -0.371376 0
M  V30 12190 N 1164.74 0.6258 -1.44643 0
M  V30 12191 C 1165.67 1.74858 -1.54748 0
M  V30 12192 C 1166.65 1.65327 -0.400138 0
M  V30 12193 O 1167.84 1.84005 -0.620948 0
M  V30 12194 C 1164.97 3.13408 -1.49643 0
M  V30 12195 C 1163.92 3.37733 -2.62908 0
M  V30 12196 C 1163.25 4.76367 -2.42855 0
M  V30 12197 C 1164.55 3.29771 -4.05029 0
M  V30 12198 H 1166.24 1.66658 -2.48728 0
M  V30 12199 H 1163.79 0.800363 -1.19709 0
M  V30 12200 H 1165.74 3.91735 -1.55312 0
M  V30 12201 H 1164.47 3.22404 -0.521824 0
M  V30 12202 H 1163.12 2.61788 -2.56637 0
M  V30 12203 H 1162.77 4.82074 -1.43575 0
M  V30 12204 H 1162.47 4.936 -3.18799 0
M  V30 12205 H 1164 5.56917 -2.50351 0
M  V30 12206 H 1165.41 3.97996 -4.12641 0
M  V30 12207 H 1163.81 3.58538 -4.81218 0
M  V30 12208 H 1164.88 2.27493 -4.28223 0
M  V30 12209 N 1166.22 1.31629 0.866686 0
M  V30 12210 C 1167.5 1.12136 1.60265 0
M  V30 12211 C 1167.88 -0.322729 2.08618 0
M  V30 12212 O 1167.23 -1.31738 1.86701 0
M  V30 12213 C 1167.44 2.13845 2.7581 0
M  V30 12214 C 1168.78 2.46541 3.45692 0
M  V30 12215 O 1169.81 2.12298 2.86021 0
M  V30 12216 O 1168.67 3.05194 4.53342 0
M  V30 12217 H 1165.76 0.431923 0.705246 0
M  V30 12218 H 1168.31 1.43119 0.911863 0
M  V30 12219 H 1167.08 3.10967 2.37518 0
M  V30 12220 H 1166.7 1.83786 3.52574 0
M  V30 12221 N 1167.7 -1.08142 1.14644 0
M  V30 12222 C 1168.63 -2.17139 0.858667 0
M  V30 12223 C 1169.61 -1.69064 -0.187452 0
M  V30 12224 O 1170.8 -1.94151 -0.0435458 0
M  V30 12225 C 1167.93 -3.45648 0.33834 0
M  V30 12226 C 1166.88 -4.07129 1.32021 0
M  V30 12227 C 1166.21 -5.30623 0.659075 0
M  V30 12228 C 1167.51 -4.48095 2.68343 0
M  V30 12229 H 1169.2 -2.41468 1.77012 0
M  V30 12230 H 1166.75 -1.16052 0.852523 0
M  V30 12231 H 1168.7 -4.21216 0.124611 0
M  V30 12232 H 1167.42 -3.2088 -0.608553 0
M  V30 12233 H 1166.08 -3.33596 1.52016 0
M  V30 12234 H 1165.73 -5.02142 -0.293711 0
M  V30 12235 H 1165.43 -5.72714 1.31427 0
M  V30 12236 H 1166.95 -6.08903 0.454933 0
M  V30 12237 H 1168.37 -5.14828 2.5224 0
M  V30 12238 H 1166.76 -5.01113 3.30161 0
M  V30 12239 H 1167.83 -3.59852 3.25015 0
M  V30 12240 N 1169.18 -0.941978 -1.26351 0
M  V30 12241 C 1170.42 -0.597462 -1.95473 0
M  V30 12242 C 1170.78 0.847851 -1.72266 0
M  V30 12243 O 1171.98 1.30134 -2.35199 0
M  V30 12244 C 1170.25 -0.931342 -3.45052 0
M  V30 12245 S 1171.81 -0.697491 -4.33221 0
M  V30 12246 H 1168.63 -0.22003 -0.676097 0
M  V30 12247 H 1171.23 -1.21346 -1.53282 0
M  V30 12248 H 1169.94 -1.98063 -3.59443 0
M  V30 12249 H 1169.47 -0.305095 -3.92215 0
M  V30 12250 H 1171.48 0.437915 -4.94264 0
M  V30 12251 N 1170.66 1.40747 -0.709091 0
M  V30 12252 C 1171.9 2.00233 -0.242836 0
M  V30 12253 C 1172.22 1.56853 1.1686 0
M  V30 12254 O 1173.42 2.08993 1.73304 0
M  V30 12255 C 1171.88 3.57854 -0.383241 0
M  V30 12256 C 1171.49 4.10209 -1.80091 0
M  V30 12257 C 1173.23 4.24494 0.0225511 0
M  V30 12258 C 1171.14 5.60311 -1.89225 0
M  V30 12259 H 1170.07 0.74896 -0.087034 0
M  V30 12260 H 1172.72 1.61064 -0.879243 0
M  V30 12261 H 1171.1 3.94692 0.321642 0
M  V30 12262 H 1172.28 3.84762 -2.53564 0
M  V30 12263 H 1170.59 3.56142 -2.15758 0
M  V30 12264 H 1173.19 5.34694 -0.0250644 0
M  V30 12265 H 1173.53 4.02488 1.06344 0
M  V30 12266 H 1174.06 3.92739 -0.632541 0
M  V30 12267 H 1170.8 5.87162 -2.91412 0
M  V30 12268 H 1170.32 5.87642 -1.20154 0
M  V30 12269 H 1172 6.25306 -1.66136 0
M  V30 12270 N 1172.13 0.454803 1.50895 0
M  V30 12271 C 1173.04 -0.353495 2.31921 0
M  V30 12272 C 1174.06 -1.01136 1.41589 0
M  V30 12273 O 1175.24 -1.00291 1.74653 0
M  V30 12274 C 1172.3 -1.43032 3.15821 0
M  V30 12275 C 1171.36 -0.790763 4.21954 0
M  V30 12276 C 1170.59 -1.81628 5.01843 0
M  V30 12277 O 1170.82 -3.04078 4.8259 0
M  V30 12278 O 1169.75 -1.39713 5.8546 0
M  V30 12279 H 1173.58 0.308463 3.02129 0
M  V30 12280 H 1171.16 0.216971 1.47816 0
M  V30 12281 H 1173.04 -2.05444 3.67927 0
M  V30 12282 H 1171.72 -2.07605 2.48358 0
M  V30 12283 H 1170.63 -0.128127 3.73881 0
M  V30 12284 H 1171.96 -0.188251 4.9184 0
M  V30 12285 N 1173.61 -1.56489 0.186789 0
M  V30 12286 C 1174.86 -1.98399 -0.448244 0
M  V30 12287 C 1175.21 -1.07139 -1.59809 0
M  V30 12288 O 1174.51 -0.114119 -1.9126 0
M  V30 12289 C 1174.7 -3.44145 -0.964315 0
M  V30 12290 C 1174.53 -4.495 0.133992 0
M  V30 12291 C 1173.3 -5.01857 0.588851 0
M  V30 12292 C 1175.5 -5.05637 0.939971 0
M  V30 12293 N 1173.48 -5.90866 1.66585 0
M  V30 12294 C 1174.85 -5.91236 1.86655 0
M  V30 12295 C 1176.9 -4.88093 0.983319 0
M  V30 12296 C 1175.61 -6.61167 2.83286 0
M  V30 12297 C 1177.63 -5.58757 1.93764 0
M  V30 12298 C 1177 -6.44096 2.85167 0
M  V30 12299 H 1173.09 -0.770833 -0.131684 0
M  V30 12300 H 1175.68 -1.9252 0.290571 0
M  V30 12301 H 1173.85 -3.50541 -1.6726 0
M  V30 12302 H 1175.58 -3.73036 -1.56926 0
M  V30 12303 H 1172.34 -4.73244 0.183712 0
M  V30 12304 H 1172.76 -6.40075 2.2053 0
M  V30 12305 H 1177.4 -4.218 0.290658 0
M  V30 12306 H 1175.12 -7.26664 3.53532 0
M  V30 12307 H 1178.71 -5.47163 1.97748 0
M  V30 12308 H 1177.59 -6.97813 3.57808 0
M  V30 12309 N 1175.09 0.086862 -1.5736 0
M  V30 12310 C 1176.05 1.08906 -2.01673 0
M  V30 12311 C 1177.05 1.32473 -0.911463 0
M  V30 12312 O 1178.24 1.28447 -1.17673 0
M  V30 12313 C 1175.37 2.43629 -2.38449 0
M  V30 12314 H 1176.57 0.707461 -2.91436 0
M  V30 12315 H 1174.12 0.332154 -1.5273 0
M  V30 12316 H 1174.86 2.8665 -1.51665 0
M  V30 12317 H 1174.64 2.2787 -3.19089 0
M  V30 12318 H 1176.13 3.15695 -2.73361 0
M  V30 12319 N 1176.57 1.53483 0.357892 0
M  V30 12320 C 1177.82 1.69701 1.09754 0
M  V30 12321 C 1178.14 0.455389 1.89608 0
M  V30 12322 O 1177.41 -0.530623 1.88577 0
M  V30 12323 H 1175.99 0.62562 0.408178 0
M  V30 12324 H 1178.65 1.90696 0.402641 0
M  V30 12325 H 1177.74 2.56154 1.78302 0
M  V30 12326 N 1178.05 -0.61812 1.44973 0
M  V30 12327 C 1179.46 -0.937734 1.29146 0
M  V30 12328 C 1179.66 -2.00104 0.236749 0
M  V30 12329 O 1178.72 -2.49731 -0.372923 0
M  V30 12330 C 1180.03 -1.38865 2.66715 0
M  V30 12331 C 1181.58 -1.50343 2.74529 0
M  V30 12332 C 1182.05 -1.98814 4.12598 0
M  V30 12333 N 1183.54 -2.06064 4.14839 0
M  V30 12334 C 1184.28 -2.44768 5.18533 0
M  V30 12335 N 1183.78 -2.82516 6.32579 0
M  V30 12336 N 1185.57 -2.45016 5.05889 0
M  V30 12337 H 1177.72 0.084872 2.1223 0
M  V30 12338 H 1179.98 -0.0246744 0.947679 0
M  V30 12339 H 1179.69 -0.681583 3.45032 0
M  V30 12340 H 1179.56 -2.3572 2.94475 0
M  V30 12341 H 1181.95 -2.20144 1.96522 0
M  V30 12342 H 1182.03 -0.518297 2.50494 0
M  V30 12343 H 1181.67 -1.29604 4.91086 0
M  V30 12344 H 1181.6 -2.98223 4.34017 0
M  V30 12345 H 1184.1 -1.79525 3.32535 0
M  V30 12346 H 1184.41 -3.109 7.07504 0
M  V30 12347 H 1182.75 -2.80237 6.35997 0
M  V30 12348 H 1185.94 -2.14925 4.15842 0
M  V30 12349 H 1186.12 -2.74854 5.86821 0
M  V30 12350 N 1179.52 -1.32087 -0.859693 0
M  V30 12351 C 1180.77 -1.21716 -1.60836 0
M  V30 12352 C 1181.09 0.220904 -1.94349 0
M  V30 12353 O 1182.29 0.446422 -2.67805 0
M  V30 12354 C 1180.75 -2.13143 -2.89997 0
M  V30 12355 C 1180.36 -3.62003 -2.63928 0
M  V30 12356 C 1182.1 -2.11596 -3.68004 0
M  V30 12357 C 1180.01 -4.45407 -3.89059 0
M  V30 12358 H 1178.94 -0.45199 -0.603507 0
M  V30 12359 H 1181.59 -1.57013 -0.949687 0
M  V30 12360 H 1179.97 -1.70755 -3.57294 0
M  V30 12361 H 1181.14 -4.12701 -2.04974 0
M  V30 12362 H 1179.46 -3.6563 -1.99258 0
M  V30 12363 H 1182.06 -2.71149 -4.6085 0
M  V30 12364 H 1182.4 -1.10568 -4.01348 0
M  V30 12365 H 1182.93 -2.52238 -3.07605 0
M  V30 12366 H 1179.67 -5.4723 -3.60859 0
M  V30 12367 H 1179.19 -3.99462 -4.47427 0
M  V30 12368 H 1180.87 -4.58149 -4.56846 0
M  V30 12369 N 1181 1.07532 -1.15215 0
M  V30 12370 C 1182.23 1.84356 -0.950139 0
M  V30 12371 C 1182.65 1.81429 0.496502 0
M  V30 12372 O 1182.01 1.20589 1.35381 0
M  V30 12373 C 1182.06 3.29425 -1.46669 0
M  V30 12374 O 1181.16 4.07008 -0.664674 0
M  V30 12375 H 1180.5 0.570921 -0.339036 0
M  V30 12376 H 1183.03 1.35665 -1.53154 0
M  V30 12377 H 1183.04 3.8026 -1.47873 0
M  V30 12378 H 1181.72 3.3087 -2.51988 0
M  V30 12379 H 1180.29 3.65841 -0.72211 0
M  V30 12380 N 1182.48 0.948665 1.2585 0
M  V30 12381 C 1183.39 0.470525 2.29833 0
M  V30 12382 C 1184.41 -0.45919 1.67832 0
M  V30 12383 O 1185.58 -0.336893 1.98562 0
M  V30 12384 C 1182.65 -0.249635 3.458 0
M  V30 12385 C 1181.71 0.717559 4.23261 0
M  V30 12386 C 1180.94 0.0316724 5.33691 0
M  V30 12387 O 1181.16 -1.18384 5.5798 0
M  V30 12388 O 1180.1 0.71418 5.97648 0
M  V30 12389 H 1183.92 1.33447 2.72811 0
M  V30 12390 H 1181.51 0.714864 1.31187 0
M  V30 12391 H 1183.39 -0.654993 4.16279 0
M  V30 12392 H 1182.07 -1.08885 3.04837 0
M  V30 12393 H 1180.97 1.17301 3.55234 0
M  V30 12394 H 1182.31 1.52461 4.67992 0
M  V30 12395 N 1183.96 -1.40369 0.716545 0
M  V30 12396 C 1184.87 -2.34508 0.065658 0
M  V30 12397 C 1185.88 -1.57352 -0.742723 0
M  V30 12398 O 1187.06 -1.89735 -0.675456 0
M  V30 12399 C 1184.13 -3.36262 -0.844337 0
M  V30 12400 C 1183.19 -4.29292 -0.0257971 0
M  V30 12401 C 1182.42 -5.26185 -0.892452 0
M  V30 12402 O 1182.64 -5.29071 -2.13166 0
M  V30 12403 O 1181.58 -6.0099 -0.330933 0
M  V30 12404 H 1185.4 -2.91789 0.842184 0
M  V30 12405 H 1182.99 -1.41579 0.477034 0
M  V30 12406 H 1184.87 -3.98661 -1.36555 0
M  V30 12407 H 1183.54 -2.81393 -1.59999 0
M  V30 12408 H 1182.45 -3.70175 0.540512 0
M  V30 12409 H 1183.78 -4.87316 0.69166 0
M  V30 12410 N 1185.44 -0.462799 -1.50652 0
M  V30 12411 C 1186.67 0.0928413 -2.06391 0
M  V30 12412 C 1187.07 1.34791 -1.3277 0
M  V30 12413 O 1186.42 1.79555 -0.388048 0
M  V30 12414 C 1186.48 0.45517 -3.56607 0
M  V30 12415 C 1186.14 -0.696698 -4.51658 0
M  V30 12416 C 1187.14 -1.57633 -4.95427 0
M  V30 12417 C 1184.83 -0.884669 -4.94448 0
M  V30 12418 C 1186.82 -2.62841 -5.80684 0
M  V30 12419 C 1184.51 -1.93998 -5.79489 0
M  V30 12420 C 1185.5 -2.81022 -6.22508 0
M  V30 12421 O 1185.19 -3.84738 -7.05856 0
M  V30 12422 H 1184.92 -3.18898e-05 -0.676 0
M  V30 12423 H 1187.48 -0.648161 -1.94905 0
M  V30 12424 H 1185.71 1.24924 -3.65966 0
M  V30 12425 H 1187.4 0.944923 -3.94748 0
M  V30 12426 H 1188.16 -1.44276 -4.63044 0
M  V30 12427 H 1184.04 -0.216807 -4.6049 0
M  V30 12428 H 1187.59 -3.30797 -6.14182 0
M  V30 12429 H 1183.48 -2.07366 -6.11285 0
M  V30 12430 H 1184.25 -3.81626 -7.24088 0
M  V30 12431 N 1186.91 1.56388 -0.195085 0
M  V30 12432 C 1188.16 1.9758 0.443686 0
M  V30 12433 C 1188.49 1.08196 1.61629 0
M  V30 12434 O 1187.74 0.121061 1.95325 0
M  V30 12435 C 1188.04 3.44651 0.946051 0
M  V30 12436 C 1187.71 4.50758 -0.11318 0
M  V30 12437 C 1186.37 4.79499 -0.404229 0
M  V30 12438 C 1188.72 5.14534 -0.830899 0
M  V30 12439 C 1186.05 5.69307 -1.41797 0
M  V30 12440 C 1188.4 6.05438 -1.83379 0
M  V30 12441 C 1187.07 6.32535 -2.13204 0
M  V30 12442 H 1186.34 0.722995 0.162356 0
M  V30 12443 H 1188.98 1.8926 -0.292049 0
M  V30 12444 H 1187.29 3.50042 1.76006 0
M  V30 12445 H 1188.99 3.73878 1.44969 0
M  V30 12446 H 1185.58 4.28421 0.123833 0
M  V30 12447 H 1189.76 4.92421 -0.61927 0
M  V30 12448 H 1185.02 5.88575 -1.65496 0
M  V30 12449 H 1189.19 6.53915 -2.39516 0
M  V30 12450 H 1186.82 7.01924 -2.91902 0
M  V30 12451 N 1188.39 -0.0785156 1.57404 0
M  V30 12452 C 1189.36 -1.07835 2.02248 0
M  V30 12453 C 1190.36 -1.31987 0.918475 0
M  V30 12454 O 1191.55 -1.27821 1.18353 0
M  V30 12455 C 1188.68 -2.42361 2.39737 0
M  V30 12456 H 1189.87 -0.691995 2.91807 0
M  V30 12457 H 1187.42 -0.32405 1.52904 0
M  V30 12458 H 1188.16 -2.85841 1.53183 0
M  V30 12459 H 1187.94 -2.26174 3.20293 0
M  V30 12460 H 1189.43 -3.14241 2.75031 0
M  V30 12461 N 1189.87 -1.5367 -0.349747 0
M  V30 12462 C 1190.8 -1.77528 -1.4497 0
M  V30 12463 C 1191.82 -0.656412 -1.4898 0
M  V30 12464 O 1193 -0.933016 -1.52174 0
M  V30 12465 C 1190.1 -1.85445 -2.8366 0
M  V30 12466 C 1189.28 -3.15295 -3.03163 0
M  V30 12467 C 1188.34 -3.1425 -4.22059 0
M  V30 12468 O 1187.36 -3.87994 -4.16472 0
M  V30 12469 N 1188.56 -2.36181 -5.30282 0
M  V30 12470 H 1191.33 -2.72444 -1.24877 0
M  V30 12471 H 1188.89 -1.52644 -0.539586 0
M  V30 12472 H 1190.88 -1.82204 -3.61364 0
M  V30 12473 H 1189.45 -0.977436 -2.96926 0
M  V30 12474 H 1188.67 -3.31711 -2.12983 0
M  V30 12475 H 1189.96 -4.01078 -3.13072 0
M  V30 12476 H 1189.36 -1.75808 -5.37688 0
M  V30 12477 H 1187.92 -2.38744 -6.06502 0
M  V30 12478 N 1191.35 0.610423 -1.45298 0
M  V30 12479 C 1192.58 1.39621 -1.52688 0
M  V30 12480 C 1192.99 1.88133 -0.158535 0
M  V30 12481 O 1192.35 1.62051 0.839396 0
M  V30 12482 C 1192.4 2.60261 -2.50891 0
M  V30 12483 O 1192.12 2.13766 -3.82408 0
M  V30 12484 C 1193.62 3.53154 -2.6795 0
M  V30 12485 H 1190.84 0.427493 -0.517195 0
M  V30 12486 H 1193.39 0.744701 -1.90459 0
M  V30 12487 H 1191.54 3.2146 -2.162 0
M  V30 12488 H 1191.95 2.92128 -4.35616 0
M  V30 12489 H 1193.43 4.34355 -3.40647 0
M  V30 12490 H 1193.91 4.03311 -1.73888 0
M  V30 12491 H 1194.51 2.9781 -3.03627 0
M  V30 12492 N 1192.83 1.32541 0.852676 0
M  V30 12493 C 1194.1 1.1383 1.59067 0
M  V30 12494 C 1194.48 -0.300584 2.08949 0
M  V30 12495 O 1193.83 -1.29751 1.88088 0
M  V30 12496 C 1194.04 2.16758 2.73527 0
M  V30 12497 C 1195.39 2.50194 3.43057 0
M  V30 12498 O 1196.41 2.15319 2.83754 0
M  V30 12499 O 1195.27 3.09985 4.50079 0
M  V30 12500 H 1192.37 0.439379 0.700625 0
M  V30 12501 H 1194.91 1.44078 0.896632 0
M  V30 12502 H 1193.68 3.13469 2.34207 0
M  V30 12503 H 1193.31 1.87515 3.50605 0
M  V30 12504 N 1194.3 -1.0692 1.15784 0
M  V30 12505 C 1195.21 -2.17762 0.872753 0
M  V30 12506 C 1196.23 -1.73329 -0.152608 0
M  V30 12507 O 1197.41 -2.01387 0.022519 0
M  V30 12508 C 1194.47 -3.4471 0.370887 0
M  V30 12509 C 1193.53 -4.03686 1.46069 0
M  V30 12510 C 1192.77 -5.24575 0.982675 0
M  V30 12511 O 1192.99 -5.70146 -0.17006 0
M  V30 12512 O 1191.92 -5.7534 1.76828 0
M  V30 12513 H 1195.75 -2.44648 1.79948 0
M  V30 12514 H 1193.33 -1.1634 0.937303 0
M  V30 12515 H 1195.22 -4.21287 0.0976779 0
M  V30 12516 H 1193.89 -3.19366 -0.527912 0
M  V30 12517 H 1192.8 -3.28629 1.78756 0
M  V30 12518 H 1194.13 -4.33312 2.33456 0
M  V30 12519 N 1195.78 -0.955326 -1.25345 0
M  V30 12520 C 1196.69 -0.482707 -2.2958 0
M  V30 12521 C 1197.71 0.450283 -1.68073 0
M  V30 12522 O 1198.88 0.326358 -1.98738 0
M  V30 12523 C 1195.95 0.231293 -3.45928 0
M  V30 12524 C 1195.01 -0.739995 -4.22874 0
M  V30 12525 C 1194.24 -0.0599748 -5.33666 0
M  V30 12526 O 1194.47 1.15423 -5.586 0
M  V30 12527 O 1193.4 -0.745865 -5.97261 0
M  V30 12528 H 1197.23 -1.34892 -2.72099 0
M  V30 12529 H 1194.81 -0.721812 -1.30806 0
M  V30 12530 H 1196.69 0.632908 -4.1662 0
M  V30 12531 H 1195.37 1.07267 -3.0541 0
M  V30 12532 H 1194.28 -1.19183 -3.54607 0
M  V30 12533 H 1195.61 -1.54941 -4.67177 0
M  V30 12534 N 1197.26 1.39987 -0.723979 0
M  V30 12535 C 1198.21 2.30672 -0.0768286 0
M  V30 12536 C 1199.18 1.48634 0.741422 0
M  V30 12537 O 1200.36 1.77351 0.703649 0
M  V30 12538 C 1197.5 3.34902 0.832729 0
M  V30 12539 C 1196.62 4.32 0.00304942 0
M  V30 12540 C 1195.75 5.23298 0.91286 0
M  V30 12541 C 1194.79 6.12051 0.0777706 0
M  V30 12542 N 1193.93 6.9574 0.942912 0
M  V30 12543 H 1198.77 2.85446 -0.855832 0
M  V30 12544 H 1196.3 1.40561 -0.433718 0
M  V30 12545 H 1198.26 3.93911 1.37441 0
M  V30 12546 H 1196.89 2.81611 1.57782 0
M  V30 12547 H 1195.94 3.74702 -0.655916 0
M  V30 12548 H 1197.26 4.94637 -0.643124 0
M  V30 12549 H 1196.41 5.87279 1.52277 0
M  V30 12550 H 1195.15 4.60956 1.59284 0
M  V30 12551 H 1194.15 5.47092 -0.545022 0
M  V30 12552 H 1195.38 6.76455 -0.598827 0
M  V30 12553 H 1193.33 6.35977 1.60838 0
M  V30 12554 H 1193.24 7.55176 0.352968 0
M  V30 12555 H 1194.51 7.64162 1.53874 0
M  V30 12556 N 1198.74 0.470782 1.50404 0
M  V30 12557 C 1200.16 0.124919 1.5911 0
M  V30 12558 C 1200.36 -1.36855 1.47895 0
M  V30 12559 O 1199.41 -2.1418 1.33728 0
M  V30 12560 C 1200.72 0.674839 2.9303 0
M  V30 12561 C 1202.27 0.638239 3.06424 0
M  V30 12562 C 1202.75 1.1657 4.42917 0
M  V30 12563 N 1204.24 1.1251 4.49328 0
M  V30 12564 C 1204.97 1.50373 5.53331 0
M  V30 12565 N 1204.47 1.95684 6.6459 0
M  V30 12566 N 1206.26 1.41978 5.43874 0
M  V30 12567 H 1198.41 1.44212 1.55938 0
M  V30 12568 H 1200.68 0.596354 0.73693 0
M  V30 12569 H 1200.38 1.72106 3.06712 0
M  V30 12570 H 1200.26 0.118234 3.77015 0
M  V30 12571 H 1202.64 -0.399075 2.92389 0
M  V30 12572 H 1202.72 1.23164 2.24197 0
M  V30 12573 H 1202.37 2.20164 4.57701 0
M  V30 12574 H 1202.3 0.548513 5.23736 0
M  V30 12575 H 1204.79 0.79276 3.69491 0
M  V30 12576 H 1205.1 2.22724 7.40009 0
M  V30 12577 H 1203.45 1.99636 6.65711 0
M  V30 12578 H 1206.64 1.0642 4.55842 0
M  V30 12579 H 1206.81 1.71812 6.24808 0
M  V30 12580 N 1200.22 -1.56282 0.203376 0
M  V30 12581 C 1201.15 -2.16714 -0.74616 0
M  V30 12582 C 1202.16 -1.13121 -1.17079 0
M  V30 12583 O 1203.35 -1.40179 -1.10509 0
M  V30 12584 C 1200.45 -2.72115 -2.02007 0
M  V30 12585 C 1199.62 -4.00695 -1.75391 0
M  V30 12586 C 1198.68 -4.40839 -2.8731 0
M  V30 12587 O 1197.71 -5.081 -2.56561 0
M  V30 12588 N 1198.91 -4.05024 -4.15856 0
M  V30 12589 H 1201.68 -2.98821 -0.229326 0
M  V30 12590 H 1199.24 -1.61885 0.0217049 0
M  V30 12591 H 1201.23 -2.95951 -2.76035 0
M  V30 12592 H 1199.8 -1.94415 -2.44789 0
M  V30 12593 H 1199.02 -3.84905 -0.851 0
M  V30 12594 H 1200.31 -4.8461 -1.55017 0
M  V30 12595 H 1199.71 -3.50938 -4.43688 0
M  V30 12596 H 1198.26 -4.33792 -4.86485 0
M  V30 12597 N 1201.7 0.070167 -1.57444 0
M  V30 12598 C 1202.94 0.767495 -1.8696 0
M  V30 12599 C 1203.26 1.78032 -0.795595 0
M  V30 12600 O 1202.53 1.95112 0.175566 0
M  V30 12601 H 1201.11 0.286443 -0.689898 0
M  V30 12602 H 1203.78 0.0458692 -1.94846 0
M  V30 12603 H 1202.87 1.28269 -2.84523 0
M  V30 12604 N 1203.17 1.53854 0.341593 0
M  V30 12605 C 1204.1 1.84966 1.42513 0
M  V30 12606 C 1205.08 0.704944 1.54805 0
M  V30 12607 O 1206.27 0.957036 1.68981 0
M  V30 12608 C 1203.4 2.06099 2.79536 0
M  V30 12609 C 1202.35 3.21919 2.82049 0
M  V30 12610 C 1201.68 3.28389 4.21977 0
M  V30 12611 C 1202.98 4.59984 2.4741 0
M  V30 12612 H 1204.67 2.7571 1.16724 0
M  V30 12613 H 1202.22 1.32662 0.560073 0
M  V30 12614 H 1204.17 2.26448 3.55386 0
M  V30 12615 H 1202.9 1.12087 3.06764 0
M  V30 12616 H 1201.56 3.01429 2.08653 0
M  V30 12617 H 1201.2 2.3197 4.46317 0
M  V30 12618 H 1200.9 4.0622 4.24569 0
M  V30 12619 H 1202.43 3.50951 4.99666 0
M  V30 12620 H 1203.84 4.80334 3.12973 0
M  V30 12621 H 1202.24 5.40233 2.61282 0
M  V30 12622 H 1203.31 4.6346 1.42594 0
M  V30 12623 N 1204.65 -0.602709 1.4562 0
M  V30 12624 C 1206.06 -1.1847 1.44297 0
M  V30 12625 C 1206.41 -1.95434 0.17316 0
M  V30 12626 O 1205.54 -2.03894 -0.724986 0
M  V30 12627 C 1206.13 -2.15508 2.61422 0
M  V30 12628 C 1204.69 -2.69073 2.63204 0
M  V30 12629 C 1203.84 -1.44568 2.36633 0
M  V30 12630 H 1206.79 -0.391745 1.53789 0
M  V30 12631 H 1206.81 -2.98628 2.35799 0
M  V30 12632 H 1206.32 -1.59464 3.53826 0
M  V30 12633 H 1204.42 -3.29042 1.7482 0
M  V30 12634 H 1204.54 -3.13173 3.62573 0
M  V30 12635 H 1202.9 -1.73692 1.86287 0
M  V30 12636 H 1203.68 -0.903852 3.31188 0
M  V30 12637 N 1206.13 -1.32992 -0.845635 0
M  V30 12638 C 1207.38 -1.24249 -1.60281 0
M  V30 12639 C 1207.71 0.193049 -1.93238 0
M  V30 12640 O 1206.98 1.1326 -1.58122 0
M  V30 12641 C 1207.27 -2.1111 -2.91727 0
M  V30 12642 C 1207.12 -3.63088 -2.65494 0
M  V30 12643 C 1208.44 -1.97913 -3.93089 0
M  V30 12644 H 1205.56 -0.452698 -0.581578 0
M  V30 12645 H 1208.2 -1.63026 -0.975828 0
M  V30 12646 H 1206.35 -1.78169 -3.45236 0
M  V30 12647 H 1208.02 -4.06287 -2.18469 0
M  V30 12648 H 1206.26 -3.85304 -1.99306 0
M  V30 12649 H 1206.94 -4.19202 -3.59129 0
M  V30 12650 H 1209.41 -2.26788 -3.48864 0
M  V30 12651 H 1208.29 -2.60952 -4.82903 0
M  V30 12652 H 1208.55 -0.949378 -4.31786 0
M  V30 12653 N 1207.61 1.06304 -1.1635 0
M  V30 12654 C 1208.85 1.79366 -0.94634 0
M  V30 12655 C 1209.19 1.86981 0.524569 0
M  V30 12656 O 1208.46 1.36134 1.38917 0
M  V30 12657 C 1208.74 3.23861 -1.57436 0
M  V30 12658 C 1208.6 3.24327 -3.1166 0
M  V30 12659 C 1209.92 4.21409 -1.26895 0
M  V30 12660 H 1207.04 0.65115 -0.345215 0
M  V30 12661 H 1209.68 1.24325 -1.43678 0
M  V30 12662 H 1207.83 3.70862 -1.15731 0
M  V30 12663 H 1209.5 2.85488 -3.62346 0
M  V30 12664 H 1207.74 2.62983 -3.44997 0
M  V30 12665 H 1208.41 4.2626 -3.50723 0
M  V30 12666 H 1210.89 3.8285 -1.62989 0
M  V30 12667 H 1209.77 5.20778 -1.73439 0
M  V30 12668 H 1210.03 4.41701 -0.187768 0
M  V30 12669 N 1209.09 0.96196 1.24836 0
M  V30 12670 C 1210.02 0.432188 2.2407 0
M  V30 12671 C 1211 -0.490539 1.55024 0
M  V30 12672 O 1212.18 -0.423236 1.83687 0
M  V30 12673 C 1209.31 -0.37673 3.36598 0
M  V30 12674 C 1208.35 0.48745 4.23705 0
M  V30 12675 S 1209.19 1.92417 4.99736 0
M  V30 12676 C 1210.34 1.12388 6.15727 0
M  V30 12677 H 1210.58 1.27315 2.6866 0
M  V30 12678 H 1208.11 0.766568 1.34026 0
M  V30 12679 H 1210.07 -0.837488 4.01866 0
M  V30 12680 H 1208.73 -1.1926 2.90579 0
M  V30 12681 H 1207.92 -0.133338 5.03824 0
M  V30 12682 H 1207.52 0.883707 3.6341 0
M  V30 12683 H 1209.81 0.376097 6.76455 0
M  V30 12684 H 1210.76 1.89924 6.82154 0
M  V30 12685 H 1211.17 0.650779 5.60736 0
M  V30 12686 N 1210.56 -1.39601 0.731392 0
M  V30 12687 C 1211.97 -1.83424 0.348194 0
M  V30 12688 C 1212.33 -1.61106 -1.11979 0
M  V30 12689 O 1211.45 -1.1003 -1.86339 0
M  V30 12690 C 1212.05 -3.32982 0.6252 0
M  V30 12691 C 1210.6 -3.75238 0.295536 0
M  V30 12692 C 1209.75 -2.62642 0.88964 0
M  V30 12693 H 1212.7 -1.28644 0.929318 0
M  V30 12694 H 1212.72 -3.80357 -0.104254 0
M  V30 12695 H 1212.24 -3.49193 1.69368 0
M  V30 12696 H 1210.34 -3.64615 -0.767254 0
M  V30 12697 H 1210.45 -4.72781 0.775576 0
M  V30 12698 H 1208.81 -2.52726 0.316529 0
M  V30 12699 H 1209.6 -2.81661 1.96271 0
M  V30 12700 N 1212.04 -0.478751 -1.50152 0
M  V30 12701 C 1213.29 0.073694 -2.02666 0
M  V30 12702 C 1213.62 1.38679 -1.35947 0
M  V30 12703 O 1212.9 1.88286 -0.4877 0
M  V30 12704 C 1213.18 0.249516 -3.59235 0
M  V30 12705 C 1213.03 -1.08514 -4.36514 0
M  V30 12706 C 1214.35 1.00053 -4.28576 0
M  V30 12707 H 1211.47 0.0253082 -0.736565 0
M  V30 12708 H 1214.11 -0.625834 -1.79397 0
M  V30 12709 H 1212.26 0.845343 -3.79192 0
M  V30 12710 H 1213.93 -1.71814 -4.28109 0
M  V30 12711 H 1212.18 -1.67992 -3.99952 0
M  V30 12712 H 1212.85 -0.915676 -5.44352 0
M  V30 12713 H 1215.32 0.495422 -4.1314 0
M  V30 12714 H 1214.2 1.09236 -5.37921 0
M  V30 12715 H 1214.46 2.03896 -3.92274 0
M  V30 12716 N 1213.52 1.56172 -0.211661 0
M  V30 12717 C 1214.77 1.98039 0.422706 0
M  V30 12718 C 1215.1 1.09904 1.60472 0
M  V30 12719 O 1214.35 0.141771 1.95186 0
M  V30 12720 C 1214.65 3.45636 0.909442 0
M  V30 12721 C 1214.32 4.50613 -0.160982 0
M  V30 12722 C 1212.98 4.79043 -0.455064 0
M  V30 12723 C 1215.33 5.13624 -0.885426 0
M  V30 12724 C 1212.66 5.67771 -1.47828 0
M  V30 12725 C 1215.01 6.03459 -1.8979 0
M  V30 12726 C 1213.67 6.30238 -2.19901 0
M  V30 12727 H 1212.94 0.724676 0.154679 0
M  V30 12728 H 1215.59 1.8894 -0.312106 0
M  V30 12729 H 1213.9 3.51889 1.72283 0
M  V30 12730 H 1215.59 3.75395 1.40995 0
M  V30 12731 H 1212.18 4.28528 0.0783864 0
M  V30 12732 H 1216.37 4.91737 -0.671463 0
M  V30 12733 H 1211.62 5.86787 -1.7173 0
M  V30 12734 H 1215.8 6.51338 -2.46438 0
M  V30 12735 H 1213.42 6.98788 -2.9933 0
M  V30 12736 N 1215 -0.0618163 1.57479 0
M  V30 12737 C 1216.28 -0.792636 1.7882 0
M  V30 12738 C 1216.66 -1.95283 0.801724 0
M  V30 12739 O 1216 -2.27917 -0.163095 0
M  V30 12740 C 1216.21 -1.25629 3.25605 0
M  V30 12741 C 1217.56 -1.68561 3.89708 0
M  V30 12742 O 1218.59 -1.35171 3.29556 0
M  V30 12743 O 1217.44 -2.30417 4.95551 0
M  V30 12744 H 1214.54 -0.380595 0.734218 0
M  V30 12745 H 1217.08 -0.0411205 1.6965 0
M  V30 12746 H 1215.86 -0.426582 3.88968 0
M  V30 12747 H 1215.48 -2.06882 3.39537 0
M  V30 12748 N 1216.48 -1.54033 -0.333429 0
M  V30 12749 C 1217.89 -1.44522 -0.677166 0
M  V30 12750 C 1218.09 -0.610122 -1.92041 0
M  V30 12751 O 1217.15 -0.105058 -2.52281 0
M  V30 12752 C 1218.46 -2.88129 -0.860369 0
M  V30 12753 C 1220.01 -2.97968 -0.958342 0
M  V30 12754 C 1220.48 -4.42703 -1.17379 0
M  V30 12755 N 1221.98 -4.46273 -1.24075 0
M  V30 12756 C 1222.71 -5.55407 -1.42515 0
M  V30 12757 N 1222.21 -6.74528 -1.58062 0
M  V30 12758 N 1224 -5.43037 -1.45144 0
M  V30 12759 H 1216.15 -2.06815 0.483858 0
M  V30 12760 H 1218.41 -0.935307 0.15461 0
M  V30 12761 H 1218.12 -3.51695 -0.0182085 0
M  V30 12762 H 1217.99 -3.33668 -1.75913 0
M  V30 12763 H 1220.38 -2.34535 -1.79102 0
M  V30 12764 H 1220.46 -2.55774 -0.0362643 0
M  V30 12765 H 1220.11 -5.0672 -0.346004 0
M  V30 12766 H 1220.04 -4.82498 -2.10959 0
M  V30 12767 H 1222.53 -3.60439 -1.13545 0
M  V30 12768 H 1222.84 -7.53462 -1.71797 0
M  V30 12769 H 1221.18 -6.77454 -1.55179 0
M  V30 12770 H 1224.38 -4.4893 -1.32588 0
M  V30 12771 H 1224.55 -6.28146 -1.59173 0
M  V30 12772 N 1217.95 0.594978 -1.45938 0
M  V30 12773 C 1218.9 1.726 -1.55923 0
M  V30 12774 C 1219.9 1.63893 -0.428411 0
M  V30 12775 O 1221.1 1.69535 -0.604815 0
M  V30 12776 H 1217.48 0.570447 -0.489994 0
M  V30 12777 H 1219.45 1.61308 -2.51043 0
M  V30 12778 C 1218.2 3.10988 -1.55505 0
M  V30 12779 H 1217.52 3.18353 -2.4185 0
M  V30 12780 H 1218.96 3.8992 -1.66548 0
M  V30 12781 C 1217.42 3.35721 -0.281573 0
M  V30 12782 O 1217.95 3.96676 0.633336 0
M  V30 12783 N 1216.16 2.90083 -0.173314 0
M  V30 12784 H 1215.7 2.4066 -0.91872 0
M  V30 12785 H 1215.66 3.07005 0.677903 0
M  V30 12786 N 1219.43 1.33438 0.838571 0
M  V30 12787 C 1220.66 1.27951 1.62592 0
M  V30 12788 C 1221.08 -0.149502 1.88207 0
M  V30 12789 O 1220.43 -1.09174 1.46244 0
M  V30 12790 C 1220.48 2.0523 2.97595 0
M  V30 12791 O 1220.2 3.42557 2.73105 0
M  V30 12792 C 1221.71 2.06957 3.92025 0
M  V30 12793 H 1218.93 0.440796 0.505905 0
M  V30 12794 H 1221.47 1.75814 1.0445 0
M  V30 12795 H 1219.62 1.61049 3.52338 0
M  V30 12796 H 1220.04 3.82314 3.59076 0
M  V30 12797 H 1221.51 2.65481 4.83967 0
M  V30 12798 H 1221.99 1.0599 4.26219 0
M  V30 12799 H 1222.6 2.51158 3.4322 0
M  V30 12800 N 1220.91 -1.05686 1.16912 0
M  V30 12801 C 1222.15 -1.80177 0.965182 0
M  V30 12802 C 1222.51 -1.85437 -0.497698 0
M  V30 12803 O 1223.72 -2.5597 -0.82054 0
M  V30 12804 C 1221.99 -3.20441 1.58279 0
M  V30 12805 S 1223.55 -4.11472 1.52435 0
M  V30 12806 H 1220.36 -0.620595 0.346962 0
M  V30 12807 H 1222.97 -1.26841 1.48767 0
M  V30 12808 H 1221.67 -3.14211 2.64006 0
M  V30 12809 H 1221.2 -3.78853 1.05989 0
M  V30 12810 H 1223.22 -4.93373 0.528876 0
M  V30 12811 N 1222.39 -0.968567 -1.24324 0
M  V30 12812 C 1223.61 -0.648166 -1.97012 0
M  V30 12813 C 1224.04 0.775842 -1.71354 0
M  V30 12814 O 1223.4 1.52672 -0.977804 0
M  V30 12815 C 1223.44 -0.929974 -3.48402 0
M  V30 12816 O 1222.55 -0.015854 -4.12397 0
M  V30 12817 H 1221.89 -0.244961 -0.617163 0
M  V30 12818 H 1224.42 -1.29895 -1.58077 0
M  V30 12819 H 1224.43 -0.861863 -3.98793 0
M  V30 12820 H 1223.1 -1.96776 -3.66404 0
M  V30 12821 H 1221.68 -0.137361 -3.72647 0
M  V30 12822 N 1223.87 1.39211 -0.738786 0
M  V30 12823 C 1225.12 1.99673 -0.285254 0
M  V30 12824 C 1225.43 1.59297 1.13507 0
M  V30 12825 O 1226.63 2.12622 1.68832 0
M  V30 12826 C 1225.09 3.5696 -0.45906 0
M  V30 12827 C 1224.7 4.06297 -1.88751 0
M  V30 12828 C 1226.44 4.24446 -0.0674954 0
M  V30 12829 C 1224.35 5.56171 -2.01067 0
M  V30 12830 H 1223.28 0.746945 -0.102901 0
M  V30 12831 H 1225.93 1.59163 -0.913209 0
M  V30 12832 H 1224.31 3.95285 0.23785 0
M  V30 12833 H 1225.49 3.79297 -2.61669 0
M  V30 12834 H 1223.8 3.51486 -2.23264 0
M  V30 12835 H 1226.4 5.34521 -0.138475 0
M  V30 12836 H 1226.74 4.04653 0.977823 0
M  V30 12837 H 1227.27 3.91309 -0.715704 0
M  V30 12838 H 1224.01 5.80849 -3.03801 0
M  V30 12839 H 1223.53 5.84961 -1.32591 0
M  V30 12840 H 1225.21 6.21642 -1.79362 0
M  V30 12841 N 1225.34 0.486708 1.49896 0
M  V30 12842 C 1226.76 0.0353906 1.86666 0
M  V30 12843 C 1227.11 -1.3743 1.40026 0
M  V30 12844 O 1226.23 -2.02163 0.77194 0
M  V30 12845 C 1226.83 0.0574475 3.38751 0
M  V30 12846 C 1225.39 -0.338464 3.74875 0
M  V30 12847 C 1224.53 0.436196 2.73848 0
M  V30 12848 H 1227.48 0.700215 1.42417 0
M  V30 12849 H 1227.5 -0.741175 3.73212 0
M  V30 12850 H 1227.02 1.08356 3.72667 0
M  V30 12851 H 1225.12 -1.36835 3.46565 0
M  V30 12852 H 1225.23 -0.0289519 4.79091 0
M  V30 12853 H 1223.59 -0.112141 2.54453 0
M  V30 12854 H 1224.38 1.46212 3.10608 0
M  V30 12855 N 1226.82 -1.56058 0.219941 0
M  V30 12856 C 1227.77 -2.20218 -0.690846 0
M  V30 12857 C 1228.74 -1.15725 -1.19151 0
M  V30 12858 O 1229.93 -1.44073 -1.2509 0
M  V30 12859 C 1227.07 -2.88477 -1.89408 0
M  V30 12860 C 1226.18 -4.07559 -1.43246 0
M  V30 12861 C 1225.31 -4.63605 -2.59314 0
M  V30 12862 C 1224.35 -5.74993 -2.0988 0
M  V30 12863 N 1223.49 -6.25337 -3.19214 0
M  V30 12864 H 1228.33 -2.97685 -0.136992 0
M  V30 12865 H 1225.87 -1.46994 -0.055865 0
M  V30 12866 H 1227.82 -3.26235 -2.60051 0
M  V30 12867 H 1226.45 -2.1353 -2.42084 0
M  V30 12868 H 1225.51 -3.75297 -0.621013 0
M  V30 12869 H 1226.82 -4.8805 -1.02997 0
M  V30 12870 H 1225.97 -5.03798 -3.38041 0
M  V30 12871 H 1224.71 -3.82274 -3.0285 0
M  V30 12872 H 1223.72 -5.34304 -1.29613 0
M  V30 12873 H 1224.94 -6.58158 -1.67345 0
M  V30 12874 H 1222.89 -5.4692 -3.62236 0
M  V30 12875 H 1222.8 -7.00947 -2.83213 0
M  V30 12876 H 1224.07 -6.70187 -3.98083 0
M  V30 12877 N 1228.3 0.053464 -1.57509 0
M  V30 12878 C 1229.53 0.765301 -1.92764 0
M  V30 12879 C 1229.95 1.69385 -0.817943 0
M  V30 12880 O 1229.31 1.7986 0.228075 0
M  V30 12881 C 1229.36 1.51938 -3.27028 0
M  V30 12882 O 1228.46 2.63121 -3.17555 0
M  V30 12883 H 1227.8 0.207567 -0.630723 0
M  V30 12884 H 1230.33 0.0162254 -2.04594 0
M  V30 12885 H 1230.34 1.89466 -3.6134 0
M  V30 12886 H 1229.02 0.838207 -4.07366 0
M  V30 12887 H 1227.59 2.28316 -2.94832 0
M  V30 12888 N 1229.78 1.54207 0.325255 0
M  V30 12889 C 1230.71 1.79812 1.42128 0
M  V30 12890 C 1231.72 0.68003 1.47917 0
M  V30 12891 O 1232.91 0.957107 1.50671 0
M  V30 12892 C 1230.01 1.89935 2.80674 0
M  V30 12893 C 1229.19 3.20078 2.98108 0
M  V30 12894 C 1228.25 3.20924 4.17006 0
M  V30 12895 O 1227.27 3.94571 4.10247 0
M  V30 12896 N 1228.47 2.44588 5.26457 0
M  V30 12897 H 1231.24 2.74396 1.20527 0
M  V30 12898 H 1228.8 1.53483 0.515233 0
M  V30 12899 H 1230.79 1.8793 3.58419 0
M  V30 12900 H 1229.36 1.02455 2.95333 0
M  V30 12901 H 1228.58 3.35057 2.07679 0
M  V30 12902 H 1229.87 4.06008 3.06651 0
M  V30 12903 H 1229.27 1.8434 5.34823 0
M  V30 12904 H 1227.82 2.48363 6.02627 0
M  V30 12905 N 1231.26 -0.58723 1.46251 0
M  V30 12906 C 1232.51 -1.34179 1.50595 0
M  V30 12907 C 1232.82 -1.94943 0.160171 0
M  V30 12908 O 1234.03 -2.71378 0.0813797 0
M  V30 12909 C 1232.48 -2.43159 2.65333 0
M  V30 12910 C 1232.09 -1.88718 4.06312 0
M  V30 12911 C 1233.83 -3.19986 2.78943 0
M  V30 12912 C 1231.74 -2.953 5.12398 0
M  V30 12913 H 1230.67 -0.504401 0.560442 0
M  V30 12914 H 1233.32 -0.627179 1.72449 0
M  V30 12915 H 1231.7 -3.17398 2.368 0
M  V30 12916 H 1232.88 -1.21051 4.44616 0
M  V30 12917 H 1231.19 -1.24572 3.97329 0
M  V30 12918 H 1233.79 -3.9952 3.5537 0
M  V30 12919 H 1234.13 -3.72288 1.86298 0
M  V30 12920 H 1234.67 -2.52852 3.07101 0
M  V30 12921 H 1231.4 -2.4789 6.0682 0
M  V30 12922 H 1230.92 -3.61469 4.78644 0
M  V30 12923 H 1232.6 -3.5933 5.38044 0
M  V30 12924 N 1232.74 -1.33881 -0.831482 0
M  V30 12925 C 1233.96 -1.28961 -1.62431 0
M  V30 12926 C 1234.39 0.135249 -1.87613 0
M  V30 12927 O 1233.74 1.09426 -1.44553 0
M  V30 12928 C 1233.79 -2.07767 -2.94729 0
M  V30 12929 O 1232.9 -1.44133 -3.86393 0
M  V30 12930 H 1232.24 -0.443313 -0.494337 0
M  V30 12931 H 1234.77 -1.76555 -1.0339 0
M  V30 12932 H 1234.78 -2.18806 -3.44366 0
M  V30 12933 H 1233.45 -3.11367 -2.75724 0
M  V30 12934 H 1232.03 -1.41784 -3.44894 0
M  V30 12935 N 1234.21 1.05064 -1.1747 0
M  V30 12936 C 1235.46 1.78089 -0.963883 0
M  V30 12937 C 1235.79 1.87766 0.507365 0
M  V30 12938 O 1235.04 1.37477 1.39279 0
M  V30 12939 C 1235.34 3.21961 -1.55164 0
M  V30 12940 C 1235.01 3.32339 -3.04732 0
M  V30 12941 C 1233.67 3.34878 -3.45557 0
M  V30 12942 C 1236.02 3.3325 -4.00741 0
M  V30 12943 C 1233.35 3.35959 -4.80987 0
M  V30 12944 C 1235.7 3.3587 -5.36073 0
M  V30 12945 C 1234.37 3.36697 -5.7636 0
M  V30 12946 H 1233.64 0.651672 -0.35271 0
M  V30 12947 H 1236.28 1.23471 -1.4638 0
M  V30 12948 H 1234.59 3.79514 -0.973471 0
M  V30 12949 H 1236.29 3.77087 -1.36406 0
M  V30 12950 H 1232.88 3.31076 -2.72188 0
M  V30 12951 H 1237.06 3.30488 -3.70258 0
M  V30 12952 H 1232.32 3.34911 -5.11512 0
M  V30 12953 H 1236.49 3.35524 -6.10243 0
M  V30 12954 H 1234.12 3.37288 -6.81279 0
M  V30 12955 N 1235.69 0.975146 1.23809 0
M  V30 12956 C 1236.94 0.636678 1.91388 0
M  V30 12957 C 1237.25 -0.832876 1.76982 0
M  V30 12958 O 1238.46 -1.28218 2.39316 0
M  V30 12959 C 1236.92 1.08813 3.43057 0
M  V30 12960 C 1236.52 2.58165 3.66135 0
M  V30 12961 C 1238.27 0.823154 4.16443 0
M  V30 12962 C 1236.17 2.97004 5.11412 0
M  V30 12963 H 1235.1 0.234424 0.716632 0
M  V30 12964 H 1237.76 1.18235 1.40331 0
M  V30 12965 H 1236.14 0.470709 3.93192 0
M  V30 12966 H 1237.31 3.25101 3.26567 0
M  V30 12967 H 1235.63 2.82353 3.06049 0
M  V30 12968 H 1238.22 1.08925 5.23488 0
M  V30 12969 H 1238.57 -0.240705 4.15604 0
M  V30 12970 H 1239.1 1.4019 3.72279 0
M  V30 12971 H 1235.84 4.02492 5.17378 0
M  V30 12972 H 1235.36 2.34759 5.51949 0
M  V30 12973 H 1237.04 2.8732 5.79704 0
M  V30 12974 N 1237.17 -1.38817 0.746158 0
M  V30 12975 C 1238.45 -1.94303 0.224841 0
M  V30 12976 C 1238.83 -1.68207 -1.27552 0
M  V30 12977 O 1238.17 -1.01647 -2.04646 0
M  V30 12978 C 1238.38 -3.44306 0.5705 0
M  V30 12979 C 1239.73 -4.21329 0.526015 0
M  V30 12980 O 1240.76 -3.52554 0.508351 0
M  V30 12981 O 1239.62 -5.4392 0.530383 0
M  V30 12982 H 1236.71 -0.825785 0.0448047 0
M  V30 12983 H 1239.26 -1.48253 0.825775 0
M  V30 12984 H 1238.03 -3.56779 1.60701 0
M  V30 12985 H 1237.65 -3.97556 -0.0588271 0
M  V30 12986 N 1238.65 -0.49465 -1.49636 0
M  V30 12987 C 1239.88 0.0490417 -2.06542 0
M  V30 12988 C 1240.29 1.31945 -1.35599 0
M  V30 12989 O 1239.63 1.78691 -0.426047 0
M  V30 12990 C 1239.69 0.379426 -3.57492 0
M  V30 12991 C 1239.35 -0.792345 -4.50079 0
M  V30 12992 C 1240.35 -1.68106 -4.91972 0
M  V30 12993 C 1238.04 -0.98935 -4.9246 0
M  V30 12994 C 1240.03 -2.75099 -5.74978 0
M  V30 12995 C 1237.72 -2.06247 -5.75244 0
M  V30 12996 C 1238.72 -2.94163 -6.16407 0
M  V30 12997 O 1238.4 -3.99623 -6.97536 0
M  V30 12998 H 1238.14 -0.0143708 -0.675847 0
M  V30 12999 H 1240.69 -0.689358 -1.93486 0
M  V30 13000 H 1238.92 1.17133 -3.68533 0
M  V30 13001 H 1240.61 0.860979 -3.96664 0
M  V30 13002 H 1241.37 -1.54065 -4.59879 0
M  V30 13003 H 1237.25 -0.314435 -4.59926 0
M  V30 13004 H 1240.8 -3.4375 -6.07027 0
M  V30 13005 H 1236.69 -2.20285 -6.06749 0
M  V30 13006 H 1237.46 -3.96899 -7.15831 0
M  V30 13007 N 1240.13 1.55939 -0.228214 0
M  V30 13008 C 1241.37 1.98476 0.401677 0
M  V30 13009 C 1241.7 1.116 1.59297 0
M  V30 13010 O 1240.96 0.162465 1.95024 0
M  V30 13011 C 1241.25 3.46581 0.872732 0
M  V30 13012 C 1240.92 4.50416 -0.208767 0
M  V30 13013 C 1239.58 4.78534 -0.505847 0
M  V30 13014 C 1241.93 5.12656 -0.939852 0
M  V30 13015 C 1239.26 5.66171 -1.53841 0
M  V30 13016 C 1241.61 6.01412 -1.9618 0
M  V30 13017 C 1240.28 6.2787 -2.26573 0
M  V30 13018 H 1239.55 0.726276 0.146984 0
M  V30 13019 H 1242.2 1.88598 -0.332128 0
M  V30 13020 H 1240.5 3.53696 1.68541 0
M  V30 13021 H 1242.2 3.76869 1.37006 0
M  V30 13022 H 1238.79 4.28587 0.0329308 0
M  V30 13023 H 1242.97 4.90997 -0.723581 0
M  V30 13024 H 1238.23 5.84933 -1.77944 0
M  V30 13025 H 1242.4 6.48688 -2.53332 0
M  V30 13026 H 1240.03 6.95574 -3.06725 0
M  V30 13027 N 1241.6 -0.0451101 1.57535 0
M  V30 13028 C 1242.85 -0.738072 1.87711 0
M  V30 13029 C 1243.17 -1.7737 0.824579 0
M  V30 13030 O 1244.37 -2.51812 1.01503 0
M  V30 13031 C 1242.83 -1.36373 3.33062 0
M  V30 13032 C 1242.44 -0.365283 4.46508 0
M  V30 13033 C 1244.18 -2.0375 3.72406 0
M  V30 13034 C 1242.09 -0.998371 5.82912 0
M  V30 13035 H 1241.02 -0.279413 0.700317 0
M  V30 13036 H 1243.67 0.00802425 1.83498 0
M  V30 13037 H 1242.05 -2.15899 3.31969 0
M  V30 13038 H 1243.22 0.402102 4.59042 0
M  V30 13039 H 1241.54 0.205505 4.15893 0
M  V30 13040 H 1244.14 -2.51939 4.71625 0
M  V30 13041 H 1244.48 -2.84869 3.03571 0
M  V30 13042 H 1245.01 -1.3102 3.75604 0
M  V30 13043 H 1241.75 -0.226935 6.55107 0
M  V30 13044 H 1241.27 -1.73598 5.74129 0
M  V30 13045 H 1242.95 -1.51044 6.29122 0
M  V30 13046 N 1243.08 -1.54377 -0.317073 0
M  V30 13047 C 1244.31 -1.76865 -1.07362 0
M  V30 13048 C 1244.73 -0.520354 -1.81488 0
M  V30 13049 O 1244.08 0.509213 -1.75252 0
M  V30 13050 C 1244.13 -2.96598 -2.06668 0
M  V30 13051 O 1243.85 -4.16602 -1.35552 0
M  V30 13052 C 1245.36 -3.31348 -2.94489 0
M  V30 13053 H 1242.58 -0.590277 -0.319083 0
M  V30 13054 H 1245.12 -2.01284 -0.361227 0
M  V30 13055 H 1243.27 -2.74433 -2.73432 0
M  V30 13056 H 1243.69 -4.83996 -2.02108 0
M  V30 13057 H 1245.16 -4.1841 -3.60051 0
M  V30 13058 H 1245.64 -2.48797 -3.61935 0
M  V30 13059 H 1246.25 -3.55614 -2.33278 0
M  V30 13060 N 1244.56 0.579466 -1.4656 0
M  V30 13061 C 1245.84 1.33973 -1.42515 0
M  V30 13062 C 1246.22 2.10812 -0.110317 0
M  V30 13063 O 1245.57 2.09679 0.908135 0
M  V30 13064 C 1245.78 2.26301 -2.65686 0
M  V30 13065 C 1247.12 2.88027 -3.1197 0
M  V30 13066 O 1248.15 2.36612 -2.66257 0
M  V30 13067 O 1247.01 3.81423 -3.9138 0
M  V30 13068 H 1244.1 0.602121 -0.566903 0
M  V30 13069 H 1246.65 0.600214 -1.58731 0
M  V30 13070 H 1245.42 1.68973 -3.52936 0
M  V30 13071 H 1245.04 3.07586 -2.51945 0
M  V30 13072 N 1246.04 1.3432 0.824371 0
M  V30 13073 C 1246.97 1.2012 1.94027 0
M  V30 13074 C 1247.95 0.0931808 1.62333 0
M  V30 13075 O 1249.13 0.258069 1.86725 0
M  V30 13076 C 1246.26 0.845628 3.27974 0
M  V30 13077 C 1245.31 1.9632 3.7863 0
M  V30 13078 S 1246.14 3.57642 3.98563 0
M  V30 13079 C 1247.3 3.24124 5.35439 0
M  V30 13080 H 1247.53 2.14579 2.05775 0
M  V30 13081 H 1245.06 1.1933 0.979783 0
M  V30 13082 H 1247.02 0.647266 4.05365 0
M  V30 13083 H 1245.68 -0.0805948 3.13997 0
M  V30 13084 H 1244.87 1.66812 4.75594 0
M  V30 13085 H 1244.48 2.11897 3.08181 0
M  V30 13086 H 1246.77 2.75848 6.188 0
M  V30 13087 H 1247.71 4.20222 5.69929 0
M  V30 13088 H 1248.12 2.60343 5.00881 0
M  V30 13089 N 1247.52 -1.0444 1.18026 0
M  V30 13090 C 1248.76 -1.77575 0.973314 0
M  V30 13091 C 1249.09 -1.88032 -0.4974 0
M  V30 13092 O 1248.35 -1.38214 -1.38548 0
M  V30 13093 C 1248.65 -3.21134 1.56869 0
M  V30 13094 C 1248.31 -3.30718 3.0649 0
M  V30 13095 C 1246.97 -3.33041 3.47328 0
M  V30 13096 C 1249.33 -3.3112 4.02503 0
M  V30 13097 C 1246.65 -3.33404 4.82762 0
M  V30 13098 C 1249.01 -3.33023 5.37846 0
M  V30 13099 C 1247.67 -3.33636 5.78138 0
M  V30 13100 H 1246.94 -0.649793 0.356161 0
M  V30 13101 H 1249.59 -1.22693 1.47033 0
M  V30 13102 H 1247.89 -3.78992 0.993584 0
M  V30 13103 H 1249.59 -3.76358 1.38404 0
M  V30 13104 H 1246.18 -3.29628 2.7394 0
M  V30 13105 H 1250.36 -3.2852 3.72006 0
M  V30 13106 H 1245.62 -3.32194 5.13281 0
M  V30 13107 H 1249.79 -3.32283 6.12014 0
M  V30 13108 H 1247.42 -3.33671 6.83058 0
M  V30 13109 N 1248.99 -0.981699 -1.2329 0
M  V30 13110 C 1250.27 -0.567659 -1.87182 0
M  V30 13111 C 1250.65 0.955194 -1.88253 0
M  V30 13112 O 1250 1.83245 -1.36504 0
M  V30 13113 C 1250.21 -1.17522 -3.28618 0
M  V30 13114 C 1251.56 -1.26877 -4.052 0
M  V30 13115 O 1252.58 -1.12877 -3.37842 0
M  V30 13116 O 1251.44 -1.49163 -5.2575 0
M  V30 13117 H 1248.53 -0.191315 -0.804567 0
M  V30 13118 H 1251.08 -1.07686 -1.31155 0
M  V30 13119 H 1249.85 -2.21735 -3.22411 0
M  V30 13120 H 1249.48 -0.650913 -3.92236 0
M  V30 13121 N 1250.47 1.3842 -0.753509 0
M  V30 13122 C 1251.44 2.28808 -0.134022 0
M  V30 13123 C 1252.44 1.47184 0.647583 0
M  V30 13124 O 1253.63 1.67631 0.473861 0
M  V30 13125 C 1250.76 3.30926 0.81858 0
M  V30 13126 H 1251.95 2.85097 -0.930586 0
M  V30 13127 H 1249.5 1.47378 -0.520514 0
M  V30 13128 H 1250.24 2.79728 1.64082 0
M  V30 13129 H 1250.02 3.91234 0.260526 0
M  V30 13130 H 1251.51 3.98515 1.24802 0
M  V30 13131 N 1251.95 0.502579 1.49372 0
M  V30 13132 C 1253.2 -0.0334303 2.03373 0
M  V30 13133 C 1253.55 -1.34548 1.3753 0
M  V30 13134 O 1252.84 -1.84894 0.502484 0
M  V30 13135 C 1253.04 -0.240835 3.56588 0
M  V30 13136 C 1252.87 1.04956 4.37281 0
M  V30 13137 C 1251.64 1.6018 4.7924 0
M  V30 13138 C 1253.84 1.95323 4.75766 0
M  V30 13139 N 1251.82 2.83793 5.44366 0
M  V30 13140 C 1253.19 3.03516 5.40628 0
M  V30 13141 C 1255.24 1.95982 4.57707 0
M  V30 13142 C 1253.95 4.12396 5.89341 0
M  V30 13143 C 1255.97 3.03839 5.07382 0
M  V30 13144 C 1255.33 4.10749 5.72245 0
M  V30 13145 H 1251.43 0.0285863 0.781477 0
M  V30 13146 H 1254.02 0.677787 1.82522 0
M  V30 13147 H 1252.19 -0.921111 3.7732 0
M  V30 13148 H 1253.92 -0.773993 3.9723 0
M  V30 13149 H 1250.68 1.14674 4.59507 0
M  V30 13150 H 1251.1 3.46654 5.81515 0
M  V30 13151 H 1255.74 1.14632 4.06963 0
M  V30 13152 H 1253.46 4.94542 6.39104 0
M  V30 13153 H 1257.05 3.0537 4.95218 0
M  V30 13154 H 1255.93 4.92833 6.09988 0
M  V30 13155 N 1253.43 -1.55816 0.23648 0
M  V30 13156 C 1254.71 -1.90565 -0.440933 0
M  V30 13157 C 1255.09 -1.15585 -1.76645 0
M  V30 13158 O 1254.43 -0.269949 -2.269 0
M  V30 13159 C 1254.64 -3.43462 -0.61925 0
M  V30 13160 C 1255.99 -4.14516 -0.91989 0
M  V30 13161 O 1257.02 -3.49144 -0.705496 0
M  V30 13162 O 1255.87 -5.3013 -1.32759 0
M  V30 13163 H 1252.97 -0.79285 -0.235199 0
M  V30 13164 H 1255.51 -1.67378 0.279774 0
M  V30 13165 H 1254.29 -3.90029 0.315124 0
M  V30 13166 H 1253.91 -3.72478 -1.39089 0
M  V30 13167 N 1254.91 0.036755 -1.57557 0
M  V30 13168 C 1255.87 1.02435 -2.05036 0
M  V30 13169 C 1256.87 1.29506 -0.953146 0
M  V30 13170 O 1258.06 1.24638 -1.217 0
M  V30 13171 C 1255.19 2.3592 -2.46079 0
M  V30 13172 H 1256.38 0.614384 -2.93539 0
M  V30 13173 H 1253.94 0.283396 -1.53709 0
M  V30 13174 H 1254.67 2.8168 -1.60708 0
M  V30 13175 H 1254.46 2.17603 -3.26177 0
M  V30 13176 H 1255.95 3.06839 -2.83266 0
M  V30 13177 N 1256.39 1.54543 0.308881 0
M  V30 13178 C 1257.63 1.73449 1.04506 0
M  V30 13179 C 1257.96 0.516034 1.8753 0
M  V30 13180 O 1257.22 -0.502106 1.89149 0
M  V30 13181 C 1257.51 2.97124 1.98626 0
M  V30 13182 C 1257.18 4.31256 1.31641 0
M  V30 13183 C 1255.84 4.67719 1.13105 0
M  V30 13184 C 1258.19 5.14437 0.836888 0
M  V30 13185 C 1255.52 5.84949 0.452878 0
M  V30 13186 C 1257.87 6.32365 0.172473 0
M  V30 13187 C 1256.54 6.67495 -0.0249143 0
M  V30 13188 H 1255.81 0.634697 0.382415 0
M  V30 13189 H 1258.46 1.88795 0.320714 0
M  V30 13190 H 1256.76 2.76526 2.77562 0
M  V30 13191 H 1258.46 3.08946 2.55643 0
M  V30 13192 H 1255.05 4.02576 1.47074 0
M  V30 13193 H 1259.23 4.86772 0.967834 0
M  V30 13194 H 1254.49 6.10717 0.288886 0
M  V30 13195 H 1258.66 6.96092 -0.207027 0
M  V30 13196 H 1256.29 7.5819 -0.552425 0
M  V30 13197 N 1257.86 -0.571685 1.46866 0
M  V30 13198 C 1258.83 -1.66198 1.57832 0
M  V30 13199 C 1259.83 -1.54242 0.454547 0
M  V30 13200 O 1261.02 -1.58661 0.719191 0
M  V30 13201 C 1258.15 -3.05678 1.5091 0
M  V30 13202 H 1259.34 -1.57829 2.5501 0
M  V30 13203 H 1256.89 -0.790433 1.3484 0
M  V30 13204 H 1257.63 -3.19593 0.550529 0
M  V30 13205 H 1257.41 -3.15765 2.32454 0
M  V30 13206 H 1258.9 -3.85027 1.61692 0
M  V30 13207 N 1259.34 -1.34755 -0.817236 0
M  V30 13208 C 1260.29 -1.23351 -1.91751 0
M  V30 13209 C 1261.28 -0.131215 -1.60364 0
M  V30 13210 O 1262.47 -0.361425 -1.73271 0
M  V30 13211 C 1259.6 -0.996932 -3.28506 0
M  V30 13212 C 1258.68 -2.14265 -3.65993 0
M  V30 13213 N 1259.07 -3.39424 -3.75 0
M  V30 13214 C 1257.37 -2.05416 -3.95879 0
M  V30 13215 C 1258.07 -4.14701 -4.07919 0
M  V30 13216 N 1257.05 -3.43349 -4.21441 0
M  V30 13217 H 1260.85 -2.18191 -1.96901 0
M  V30 13218 H 1258.36 -1.27075 -1.01122 0
M  V30 13219 H 1260.36 -0.89613 -4.07155 0
M  V30 13220 H 1259.02 -0.0572789 -3.24649 0
M  V30 13221 H 1260.03 -3.73907 -3.58349 0
M  V30 13222 H 1256.71 -1.19242 -4.0011 0
M  V30 13223 H 1258.1 -5.22808 -4.22044 0
M  V30 13224 N 1260.82 1.03812 -1.18578 0
M  V30 13225 C 1261.75 2.13802 -0.938665 0
M  V30 13226 C 1262.73 1.69643 0.124575 0
M  V30 13227 O 1263.92 1.94179 -0.0285421 0
M  V30 13228 C 1261.05 3.44154 -0.466392 0
M  V30 13229 C 1260 4.01949 -1.47041 0
M  V30 13230 C 1259.33 5.27811 -0.855558 0
M  V30 13231 C 1260.63 4.37827 -2.84789 0
M  V30 13232 H 1262.32 2.34732 -1.85852 0
M  V30 13233 H 1259.87 1.12808 -0.895007 0
M  V30 13234 H 1261.82 4.20463 -0.280856 0
M  V30 13235 H 1260.54 3.22918 0.489041 0
M  V30 13236 H 1259.2 3.27725 -1.64293 0
M  V30 13237 H 1258.85 5.02886 0.107142 0
M  V30 13238 H 1258.55 5.67441 -1.52592 0
M  V30 13239 H 1260.07 6.06795 -0.680609 0
M  V30 13240 H 1261.49 5.05112 -2.71173 0
M  V30 13241 H 1259.88 4.88514 -3.48532 0
M  V30 13242 H 1260.95 3.47541 -3.38147 0
M  V30 13243 N 1262.3 0.988223 1.22768 0
M  V30 13244 C 1263.71 0.697281 1.7319 0
M  V30 13245 C 1264.06 -0.786111 1.79763 0
M  V30 13246 O 1263.18 -1.61465 1.44077 0
M  V30 13247 C 1263.78 1.25905 3.14537 0
M  V30 13248 C 1262.34 1.01759 3.62384 0
M  V30 13249 C 1261.49 1.38207 2.40404 0
M  V30 13250 H 1264.44 1.16114 1.08181 0
M  V30 13251 H 1264.46 0.635315 3.75159 0
M  V30 13252 H 1263.97 2.33869 3.09721 0
M  V30 13253 H 1262.07 -0.045627 3.72572 0
M  V30 13254 H 1262.18 1.67767 4.48766 0
M  V30 13255 H 1260.55 0.800607 2.4179 0
M  V30 13256 H 1261.33 2.47165 2.38253 0
M  V30 13257 N 1263.78 -1.38018 0.760839 0
M  V30 13258 C 1264.74 -2.28734 0.146154 0
M  V30 13259 C 1265.74 -1.47525 -0.639768 0
M  V30 13260 O 1266.93 -1.6788 -0.464964 0
M  V30 13261 C 1264.06 -3.31356 -0.801019 0
M  V30 13262 H 1265.25 -2.84599 0.945692 0
M  V30 13263 H 1262.81 -1.471 0.528323 0
M  V30 13264 H 1263.54 -2.80594 -1.62597 0
M  V30 13265 H 1263.33 -3.91366 -0.239775 0
M  V30 13266 H 1264.82 -3.99171 -1.22687 0
M  V30 13267 N 1265.25 -0.510493 -1.49103 0
M  V30 13268 C 1266.18 0.251999 -2.32136 0
M  V30 13269 C 1267.16 0.953613 -1.40855 0
M  V30 13270 O 1268.35 0.943178 -1.69758 0
M  V30 13271 C 1265.48 1.31118 -3.21598 0
M  V30 13272 C 1264.43 0.72888 -4.21748 0
M  V30 13273 C 1263.76 1.88928 -5.0021 0
M  V30 13274 C 1265.06 -0.286425 -5.21514 0
M  V30 13275 H 1266.75 -0.441102 -2.96133 0
M  V30 13276 H 1264.3 -0.213577 -1.42407 0
M  V30 13277 H 1266.25 1.8524 -3.78503 0
M  V30 13278 H 1264.98 2.0336 -2.55563 0
M  V30 13279 H 1263.64 0.209336 -3.66002 0
M  V30 13280 H 1263.28 2.59961 -4.30615 0
M  V30 13281 H 1262.98 1.50568 -5.67981 0
M  V30 13282 H 1264.51 2.43465 -5.59962 0
M  V30 13283 H 1265.92 0.166997 -5.73057 0
M  V30 13284 H 1264.32 -0.586361 -5.97228 0
M  V30 13285 H 1265.39 -1.19904 -4.69842 0
M  V30 13286 N 1266.73 1.55688 -0.24474 0
M  V30 13287 C 1267.66 2.17317 0.696311 0
M  V30 13288 C 1268.64 1.12456 1.17441 0
M  V30 13289 O 1269.83 1.40832 1.25294 0
M  V30 13290 C 1266.95 2.77211 1.94606 0
M  V30 13291 C 1266 3.95107 1.60602 0
M  V30 13292 S 1266.83 5.30765 0.710525 0
M  V30 13293 C 1267.99 5.94111 1.96933 0
M  V30 13294 H 1268.22 2.96799 0.172566 0
M  V30 13295 H 1265.75 1.54372 -0.0292155 0
M  V30 13296 H 1267.71 3.12355 2.66354 0
M  V30 13297 H 1266.37 1.9768 2.44093 0
M  V30 13298 H 1265.57 4.35598 2.53517 0
M  V30 13299 H 1265.17 3.61229 0.968986 0
M  V30 13300 H 1267.46 6.11496 2.91682 0
M  V30 13301 H 1268.4 6.89602 1.60794 0
M  V30 13302 H 1268.81 5.23161 2.12043 0
M  V30 13303 N 1268.21 -0.0283989 1.57574 0
M  V30 13304 C 1269.14 -1.05641 2.03403 0
M  V30 13305 C 1270.15 -1.32426 0.946953 0
M  V30 13306 O 1271.34 -1.29902 1.22425 0
M  V30 13307 C 1268.44 -2.39788 2.39489 0
M  V30 13308 C 1267.62 -2.32348 3.70585 0
M  V30 13309 C 1266.68 -3.4895 3.93853 0
M  V30 13310 O 1265.7 -3.28414 4.64901 0
M  V30 13311 N 1266.9 -4.7084 3.39543 0
M  V30 13312 H 1269.67 -0.665788 2.92211 0
M  V30 13313 H 1267.23 -0.21633 1.60448 0
M  V30 13314 H 1269.22 -3.16514 2.52193 0
M  V30 13315 H 1267.79 -2.70692 1.56348 0
M  V30 13316 H 1267.01 -1.40717 3.68229 0
M  V30 13317 H 1268.3 -2.24521 4.56582 0
M  V30 13318 H 1267.7 -4.90425 2.81956 0
M  V30 13319 H 1266.25 -5.44929 3.57625 0
M  V30 13320 N 1269.69 -1.54705 -0.300681 0
M  V30 13321 C 1270.64 -1.82062 -1.37249 0
M  V30 13322 C 1271.62 -0.677804 -1.45927 0
M  V30 13323 O 1272.81 -0.938447 -1.50074 0
M  V30 13324 C 1269.94 -2.07168 -2.73745 0
M  V30 13325 C 1269.03 -3.27634 -2.69289 0
M  V30 13326 N 1269.42 -4.48182 -2.34449 0
M  V30 13327 C 1267.72 -3.29668 -3.00391 0
M  V30 13328 C 1268.42 -5.30199 -2.39298 0
M  V30 13329 N 1267.39 -4.67929 -2.76665 0
M  V30 13330 H 1271.2 -2.72829 -1.09277 0
M  V30 13331 H 1268.71 -1.54209 -0.509259 0
M  V30 13332 H 1270.71 -2.24914 -3.51026 0
M  V30 13333 H 1269.37 -1.17668 -3.02629 0
M  V30 13334 H 1270.38 -4.74778 -2.06898 0
M  V30 13335 H 1267.06 -2.50276 -3.34168 0
M  V30 13336 H 1268.45 -6.36519 -2.15157 0
M  V30 13337 N 1271.17 0.563888 -1.47167 0
M  V30 13338 C 1272.1 1.68137 -1.62025 0
M  V30 13339 C 1273.08 1.63481 -0.469899 0
M  V30 13340 O 1274.26 1.81206 -0.698432 0
M  V30 13341 C 1271.39 3.06779 -1.62801 0
M  V30 13342 C 1270.35 3.26278 -2.76996 0
M  V30 13343 C 1269.67 4.65638 -2.62841 0
M  V30 13344 C 1270.97 3.12295 -4.18651 0
M  V30 13345 H 1272.67 1.55958 -2.55573 0
M  V30 13346 H 1270.21 0.74887 -1.22996 0
M  V30 13347 H 1272.17 3.84795 -1.71787 0
M  V30 13348 H 1270.89 3.19901 -0.658097 0
M  V30 13349 H 1269.55 2.50668 -2.67509 0
M  V30 13350 H 1269.2 4.75551 -1.63892 0
M  V30 13351 H 1268.9 4.79635 -3.39447 0
M  V30 13352 H 1270.42 5.45798 -2.73746 0
M  V30 13353 H 1271.83 3.80136 -4.2915 0
M  V30 13354 H 1270.23 3.37805 -4.95992 0
M  V30 13355 H 1271.3 2.09126 -4.37486 0
M  V30 13356 N 1272.64 1.35187 0.810078 0
M  V30 13357 C 1273.61 1.27698 1.90331 0
M  V30 13358 C 1274.61 0.189216 1.59683 0
M  V30 13359 O 1275.8 0.442689 1.68481 0
M  V30 13360 C 1272.93 0.974631 3.26671 0
M  V30 13361 H 1274.12 2.24902 1.98392 0
M  V30 13362 H 1271.68 1.1966 1.00554 0
M  V30 13363 H 1272.41 0.0063068 3.24299 0
M  V30 13364 H 1272.2 1.76158 3.50301 0
M  V30 13365 H 1273.69 0.947743 4.06703 0
M  V30 13366 N 1274.12 -1.03182 1.19127 0
M  V30 13367 C 1275.4 -1.73586 0.901507 0
M  V30 13368 C 1275.78 -2.02585 -0.593521 0
M  V30 13369 O 1275.13 -1.67813 -1.55084 0
M  V30 13370 C 1275.34 -3.01472 1.75829 0
M  V30 13371 C 1276.69 -3.75037 1.99078 0
M  V30 13372 O 1277.71 -3.11392 1.72956 0
M  V30 13373 O 1276.57 -4.8945 2.43108 0
M  V30 13374 H 1273.66 -0.755797 0.335708 0
M  V30 13375 H 1276.21 -1.09167 1.29925 0
M  V30 13376 H 1274.98 -2.76247 2.77134 0
M  V30 13377 H 1274.6 -3.73631 1.35963 0
M  V30 13378 N 1275.6 -0.99472 -1.22242 0
M  V30 13379 C 1276.55 -0.53946 -2.26258 0
M  V30 13380 C 1277.54 0.410796 -1.64344 0
M  V30 13381 O 1278.75 0.283116 -1.7776 0
M  V30 13382 H 1275.12 -0.156069 -0.735627 0
M  V30 13383 H 1277.09 -1.42814 -2.62005 0
M  V30 13384 C 1275.84 0.12842 -3.47463 0
M  V30 13385 H 1275.17 -0.593727 -3.95367 0
M  V30 13386 H 1276.61 0.410393 -4.22009 0
M  V30 13387 C 1275.07 1.36433 -3.08038 0
M  V30 13388 O 1275.6 2.45953 -3.176 0
M  V30 13389 N 1273.8 1.24026 -2.62804 0
M  V30 13390 H 1273.35 0.349111 -2.55223 0
M  V30 13391 H 1273.31 2.06824 -2.36794 0
M  V30 13392 N 1277.08 1.37613 -0.768148 0
M  V30 13393 C 1278.31 2.03756 -0.341615 0
M  V30 13394 C 1278.72 1.58063 1.03984 0
M  V30 13395 O 1278.06 0.755609 1.6744 0
M  V30 13396 C 1278.12 3.58229 -0.302032 0
M  V30 13397 C 1277.79 4.27039 -1.62747 0
M  V30 13398 C 1278.78 4.51408 -2.57928 0
M  V30 13399 C 1276.47 4.64941 -1.90092 0
M  V30 13400 C 1278.46 5.12731 -3.78663 0
M  V30 13401 C 1276.15 5.25986 -3.11098 0
M  V30 13402 C 1277.15 5.49818 -4.05203 0
M  V30 13403 O 1276.83 6.09588 -5.24078 0
M  V30 13404 H 1276.57 0.660992 -0.141655 0
M  V30 13405 H 1279.12 1.77001 -1.04211 0
M  V30 13406 H 1277.35 3.84016 0.454811 0
M  V30 13407 H 1279.04 4.05784 0.0969452 0
M  V30 13408 H 1279.81 4.22542 -2.38083 0
M  V30 13409 H 1275.68 4.45729 -1.17674 0
M  V30 13410 H 1279.23 5.31249 -4.52129 0
M  V30 13411 H 1275.13 5.54276 -3.3083 0
M  V30 13412 H 1275.89 6.28068 -5.24855 0
M  V30 13413 N 1278.56 0.518393 1.4883 0
M  V30 13414 C 1279.5 -0.250684 2.29435 0
M  V30 13415 C 1280.47 -0.944481 1.36634 0
M  V30 13416 O 1281.66 -0.947766 1.65596 0
M  V30 13417 C 1278.8 -1.29871 3.1973 0
M  V30 13418 C 1277.91 -0.61493 4.27601 0
M  V30 13419 C 1277.05 -1.64489 5.05091 0
M  V30 13420 C 1276.09 -0.943932 6.04778 0
M  V30 13421 N 1275.22 -1.91889 6.75369 0
M  V30 13422 H 1280.06 0.44288 2.94691 0
M  V30 13423 H 1277.6 0.230246 1.45287 0
M  V30 13424 H 1279.56 -1.91851 3.70471 0
M  V30 13425 H 1278.19 -1.96081 2.56422 0
M  V30 13426 H 1277.24 0.118552 3.80215 0
M  V30 13427 H 1278.55 -0.063994 4.98759 0
M  V30 13428 H 1277.71 -2.33928 5.59788 0
M  V30 13429 H 1276.44 -2.2297 4.33746 0
M  V30 13430 H 1275.45 -0.235407 5.49296 0
M  V30 13431 H 1276.67 -0.365383 6.78116 0
M  V30 13432 H 1274.62 -2.493 6.06783 0
M  V30 13433 H 1274.54 -1.41909 7.42562 0
M  V30 13434 H 1275.81 -2.60563 7.34661 0
M  V30 13435 N 1280.03 -1.55556 0.252993 0
M  V30 13436 C 1280.98 -2.18298 -0.658028 0
M  V30 13437 C 1281.97 -1.14072 -1.13474 0
M  V30 13438 O 1283.16 -1.39962 -1.0835 0
M  V30 13439 C 1280.29 -2.89067 -1.8519 0
M  V30 13440 C 1279.38 -4.00556 -1.3934 0
M  V30 13441 N 1279.77 -5.01612 -0.649538 0
M  V30 13442 C 1278.06 -4.13222 -1.67819 0
M  V30 13443 C 1278.77 -5.80244 -0.411347 0
M  V30 13444 N 1277.74 -5.34742 -0.977342 0
M  V30 13445 H 1281.54 -2.93787 -0.0816162 0
M  V30 13446 H 1279.06 -1.62305 0.0555728 0
M  V30 13447 H 1281.05 -3.32448 -2.51563 0
M  V30 13448 H 1279.71 -2.15082 -2.43248 0
M  V30 13449 H 1280.73 -5.17036 -0.299043 0
M  V30 13450 H 1277.4 -3.50414 -2.26972 0
M  V30 13451 H 1278.79 -6.71651 0.182911 0
M  V30 13452 N 1281.51 0.0200419 -1.57587 0
M  V30 13453 C 1282.76 0.704552 -1.90808 0
M  V30 13454 C 1283.11 1.72479 -0.852568 0
M  V30 13455 O 1282.41 1.91105 0.137682 0
M  V30 13456 C 1282.6 1.40729 -3.28527 0
M  V30 13457 C 1282.43 0.456634 -4.47376 0
M  V30 13458 C 1281.2 0.0743638 -5.05245 0
M  V30 13459 C 1283.4 -0.268767 -5.13597 0
M  V30 13460 N 1281.38 -0.876606 -6.07609 0
M  V30 13461 C 1282.75 -1.07509 -6.10608 0
M  V30 13462 C 1284.81 -0.334748 -4.96773 0
M  V30 13463 C 1283.51 -1.94135 -6.92607 0
M  V30 13464 C 1285.53 -1.18816 -5.79342 0
M  V30 13465 C 1284.9 -1.98238 -6.7593 0
M  V30 13466 H 1281 0.231633 -0.746907 0
M  V30 13467 H 1283.58 -0.0355944 -1.94667 0
M  V30 13468 H 1281.75 2.11785 -3.25579 0
M  V30 13469 H 1283.48 2.04491 -3.49236 0
M  V30 13470 H 1280.24 0.43848 -4.71566 0
M  V30 13471 H 1280.66 -1.34687 -6.63467 0
M  V30 13472 H 1285.3 0.264995 -4.21969 0
M  V30 13473 H 1283.02 -2.55185 -7.6675 0
M  V30 13474 H 1286.61 -1.24286 -5.6837 0
M  V30 13475 H 1285.49 -2.63208 -7.38709 0
M  V30 13476 N 1282.99 1.54862 0.292472 0
M  V30 13477 C 1283.94 1.86403 1.36098 0
M  V30 13478 C 1284.91 0.713694 1.49985 0
M  V30 13479 O 1286.09 0.963134 1.64707 0
M  V30 13480 C 1283.23 2.1244 2.71962 0
M  V30 13481 C 1282.35 3.40038 2.66454 0
M  V30 13482 C 1281.48 3.55875 3.94368 0
M  V30 13483 C 1280.52 4.77235 3.83293 0
M  V30 13484 N 1279.66 4.89832 5.03 0
M  V30 13485 H 1284.5 2.77546 1.085 0
M  V30 13486 H 1282.03 1.37427 0.524607 0
M  V30 13487 H 1283.99 2.25533 3.50985 0
M  V30 13488 H 1282.62 1.24554 2.97802 0
M  V30 13489 H 1281.67 3.35521 1.79248 0
M  V30 13490 H 1282.99 4.29188 2.54163 0
M  V30 13491 H 1282.14 3.68679 4.8183 0
M  V30 13492 H 1280.88 2.64874 4.09503 0
M  V30 13493 H 1279.88 4.64455 2.94214 0
M  V30 13494 H 1281.11 5.69651 3.69695 0
M  V30 13495 H 1279.05 4.01756 5.18582 0
M  V30 13496 H 1278.97 5.72996 4.93165 0
M  V30 13497 H 1280.24 5.07001 5.92089 0
M  V30 13498 N 1284.47 -0.556076 1.47464 0
M  V30 13499 C 1285.7 -1.33858 1.57764 0
M  V30 13500 C 1286.11 -1.87415 0.22825 0
M  V30 13501 O 1285.47 -1.65054 -0.778674 0
M  V30 13502 C 1285.52 -2.5077 2.60378 0
M  V30 13503 O 1285.24 -1.99426 3.90078 0
M  V30 13504 C 1286.74 -3.42965 2.80873 0
M  V30 13505 H 1283.96 -0.408003 0.532705 0
M  V30 13506 H 1286.51 -0.673501 1.93091 0
M  V30 13507 H 1284.66 -3.13214 2.27982 0
M  V30 13508 H 1285.07 -2.75759 4.46158 0
M  V30 13509 H 1286.55 -4.21412 3.56533 0
M  V30 13510 H 1287.03 -3.96579 1.88737 0
M  V30 13511 H 1287.63 -2.86336 3.14471 0
M  V30 13512 N 1285.95 -1.35615 -0.802897 0
M  V30 13513 C 1286.88 -1.31506 -1.92947 0
M  V30 13514 C 1287.86 -0.188843 -1.69048 0
M  V30 13515 O 1289.04 -0.384384 -1.90358 0
M  V30 13516 C 1286.17 -1.09001 -3.29752 0
M  V30 13517 C 1285.13 -2.18303 -3.68141 0
M  V30 13518 C 1284.45 -1.80959 -5.03148 0
M  V30 13519 C 1285.75 -3.60296 -3.78132 0
M  V30 13520 H 1287.45 -2.25771 -1.96642 0
M  V30 13521 H 1284.99 -1.08682 -0.944685 0
M  V30 13522 H 1286.95 -1.04766 -4.08169 0
M  V30 13523 H 1285.67 -0.111832 -3.26408 0
M  V30 13524 H 1284.33 -2.21642 -2.92011 0
M  V30 13525 H 1283.98 -0.817495 -4.96312 0
M  V30 13526 H 1283.68 -2.54129 -5.29804 0
M  V30 13527 H 1285.2 -1.78255 -5.84001 0
M  V30 13528 H 1286.62 -3.59259 -4.46773 0
M  V30 13529 H 1285.01 -4.32258 -4.16261 0
M  V30 13530 H 1286.08 -3.9618 -2.79588 0
M  V30 13531 N 1287.43 1.02549 -1.19673 0
M  V30 13532 C 1288.7 1.73106 -0.9107 0
M  V30 13533 C 1289.08 2.02897 0.582769 0
M  V30 13534 O 1288.43 1.68633 1.54192 0
M  V30 13535 C 1288.64 3.00535 -1.77425 0
M  V30 13536 C 1289.99 3.73976 -2.01065 0
M  V30 13537 O 1291.01 3.1047 -1.74605 0
M  V30 13538 O 1289.87 4.88153 -2.457 0
M  V30 13539 H 1286.97 0.754006 -0.339711 0
M  V30 13540 H 1289.51 1.08477 -1.30502 0
M  V30 13541 H 1288.28 2.74773 -2.78595 0
M  V30 13542 H 1287.91 3.72904 -1.37943 0
M  V30 13543 N 1288.9 1.00119 1.21713 0
M  V30 13544 C 1290.18 0.597366 1.86255 0
M  V30 13545 C 1290.56 -0.925124 1.89749 0
M  V30 13546 O 1289.91 -1.8105 1.39402 0
M  V30 13547 C 1290.12 1.22735 3.26707 0
M  V30 13548 C 1291.47 1.33307 4.03131 0
M  V30 13549 O 1292.49 1.18237 3.36003 0
M  V30 13550 O 1291.35 1.57509 5.2331 0
M  V30 13551 H 1288.44 0.204091 0.801421 0
M  V30 13552 H 1290.99 1.09759 1.29426 0
M  V30 13553 H 1289.76 2.26837 3.18843 0
M  V30 13554 H 1289.38 0.713232 3.91151 0
M  V30 13555 N 1290.38 -1.37203 0.775435 0
M  V30 13556 C 1291.31 -2.32819 0.17826 0
M  V30 13557 C 1292.29 -1.55963 -0.678944 0
M  V30 13558 O 1293.48 -1.84183 -0.615648 0
M  V30 13559 C 1290.61 -3.40198 -0.698768 0
M  V30 13560 C 1289.56 -4.27961 0.057423 0
M  V30 13561 C 1288.89 -5.26385 -0.93929 0
M  V30 13562 C 1290.19 -5.07402 1.23856 0
M  V30 13563 H 1291.88 -2.8301 0.977028 0
M  V30 13564 H 1289.43 -1.3607 0.471274 0
M  V30 13565 H 1291.38 -4.06067 -1.12637 0
M  V30 13566 H 1290.1 -2.88541 -1.53009 0
M  V30 13567 H 1288.76 -3.63628 0.465848 0
M  V30 13568 H 1288.41 -4.71007 -1.76527 0
M  V30 13569 H 1288.11 -5.85966 -0.437844 0
M  V30 13570 H 1289.64 -5.9513 -1.36576 0
M  V30 13571 H 1291.05 -5.6639 0.887423 0
M  V30 13572 H 1289.45 -5.76327 1.67234 0
M  V30 13573 H 1290.52 -4.3986 2.04085 0
M  V30 13574 N 1291.86 -0.526279 -1.48553 0
M  V30 13575 C 1292.81 0.238513 -2.29564 0
M  V30 13576 C 1293.78 0.937222 -1.37133 0
M  V30 13577 O 1294.96 0.93897 -1.66096 0
M  V30 13578 C 1292.1 1.28173 -3.20415 0
M  V30 13579 C 1291.21 0.592244 -4.27921 0
M  V30 13580 C 1290.35 1.61808 -5.05956 0
M  V30 13581 C 1289.39 0.911846 -6.0527 0
M  V30 13582 N 1288.53 1.88305 -6.76377 0
M  V30 13583 H 1293.37 -0.458502 -2.94452 0
M  V30 13584 H 1290.9 -0.237948 -1.45163 0
M  V30 13585 H 1292.86 1.89883 -3.71484 0
M  V30 13586 H 1291.49 1.94718 -2.57458 0
M  V30 13587 H 1290.54 -0.138714 -3.80147 0
M  V30 13588 H 1291.85 0.0375427 -4.98786 0
M  V30 13589 H 1291.01 2.30956 -5.61021 0
M  V30 13590 H 1289.75 2.20667 -4.34922 0
M  V30 13591 H 1288.75 0.206273 -5.49413 0
M  V30 13592 H 1289.98 0.329415 -6.78301 0
M  V30 13593 H 1287.92 2.46079 -6.08096 0
M  V30 13594 H 1287.84 1.37969 -7.43304 0
M  V30 13595 H 1289.11 2.56663 -7.36033 0
M  V30 13596 N 1293.34 1.5542 -0.261239 0
M  V30 13597 C 1294.58 2.0119 0.360848 0
M  V30 13598 C 1294.94 1.14558 1.5408 0
M  V30 13599 O 1296.14 1.49846 2.23158 0
M  V30 13600 C 1294.41 3.49513 0.74668 0
M  V30 13601 S 1295.97 4.17281 1.35726 0
M  V30 13602 H 1292.79 0.701978 0.112903 0
M  V30 13603 H 1295.39 1.91775 -0.379829 0
M  V30 13604 H 1294.1 4.10221 -0.121172 0
M  V30 13605 H 1293.63 3.62884 1.51917 0
M  V30 13606 H 1295.64 4.19756 2.64612 0
M  V30 13607 N 1294.82 -0.0116844 1.57596 0
M  V30 13608 C 1295.76 -1.00684 2.07681 0
M  V30 13609 C 1296.73 -1.34858 0.969666 0
M  V30 13610 O 1297.92 -1.44896 1.24136 0
M  V30 13611 C 1295.06 -2.29729 2.57524 0
M  V30 13612 C 1294.17 -2.0156 3.82096 0
M  V30 13613 C 1293.31 -3.24601 4.20485 0
M  V30 13614 C 1292.34 -2.92066 5.37925 0
M  V30 13615 N 1291.48 -4.0761 5.71663 0
M  V30 13616 H 1296.32 -0.572787 2.92443 0
M  V30 13617 H 1293.86 -0.271184 1.44579 0
M  V30 13618 H 1295.82 -3.05152 2.84496 0
M  V30 13619 H 1294.45 -2.70824 1.75653 0
M  V30 13620 H 1293.5 -1.16556 3.62103 0
M  V30 13621 H 1294.81 -1.73572 4.67626 0
M  V30 13622 H 1293.96 -4.08379 4.48677 0
M  V30 13623 H 1292.7 -3.55718 3.3364 0
M  V30 13624 H 1291.71 -2.06693 5.09468 0
M  V30 13625 H 1292.93 -2.62209 6.26437 0
M  V30 13626 H 1290.88 -4.38645 4.87777 0
M  V30 13627 H 1290.8 -3.83105 6.51741 0
M  V30 13628 H 1292.06 -4.92211 6.04441 0
M  V30 13629 N 1296.29 -1.55015 -0.284256 0
M  V30 13630 C 1297.52 -1.79431 -1.04016 0
M  V30 13631 C 1297.94 -0.560254 -1.79563 0
M  V30 13632 O 1297.3 0.489804 -1.74558 0
M  V30 13633 C 1297.35 -3.01162 -1.98328 0
M  V30 13634 O 1296.45 -2.75459 -3.06914 0
M  V30 13635 H 1295.79 -0.593391 -0.297965 0
M  V30 13636 H 1298.32 -2.02136 -0.316585 0
M  V30 13637 H 1298.33 -3.29589 -2.40489 0
M  V30 13638 H 1297.01 -3.90634 -1.42751 0
M  V30 13639 H 1295.59 -2.58096 -2.69148 0
M  V30 13640 N 1297.77 0.548248 -1.47757 0
M  V30 13641 C 1298.7 1.66409 -1.63799 0
M  V30 13642 C 1299.68 1.62973 -0.487211 0
M  V30 13643 O 1300.87 1.80455 -0.717612 0
M  V30 13644 C 1298 3.05035 -1.66046 0
M  V30 13645 C 1296.95 3.23322 -2.80441 0
M  V30 13646 C 1296.28 4.62824 -2.67765 0
M  V30 13647 C 1297.58 3.07837 -4.2194 0
M  V30 13648 H 1299.27 1.53239 -2.57212 0
M  V30 13649 H 1296.82 0.735783 -1.23783 0
M  V30 13650 H 1298.77 3.82951 -1.75859 0
M  V30 13651 H 1297.49 3.19185 -0.69199 0
M  V30 13652 H 1296.15 2.47816 -2.70153 0
M  V30 13653 H 1295.8 4.73786 -1.68927 0
M  V30 13654 H 1295.5 4.76007 -3.44515 0
M  V30 13655 H 1297.03 5.42864 -2.7952 0
M  V30 13656 H 1298.44 3.75563 -4.33157 0
M  V30 13657 H 1296.84 3.32525 -4.99547 0
M  V30 13658 H 1297.91 2.04474 -4.3968 0
M  V30 13659 N 1299.25 1.36039 0.795694 0
M  V30 13660 C 1300.67 1.16315 1.09284 0
M  V30 13661 C 1300.87 -0.017024 2.01493 0
M  V30 13662 O 1299.92 -0.684316 2.4305 0
M  V30 13663 C 1301.23 2.47113 1.71335 0
M  V30 13664 C 1302.78 2.5342 1.83705 0
M  V30 13665 C 1303.26 3.84289 2.49171 0
M  V30 13666 N 1304.75 3.856 2.56645 0
M  V30 13667 C 1305.48 4.83597 3.08094 0
M  V30 13668 N 1304.98 5.91985 3.59897 0
M  V30 13669 N 1306.77 4.71023 3.06748 0
M  V30 13670 H 1298.92 2.11611 0.182957 0
M  V30 13671 H 1301.19 0.937035 0.143771 0
M  V30 13672 H 1300.89 3.33708 1.11049 0
M  V30 13673 H 1300.77 2.62461 2.70914 0
M  V30 13674 H 1303.15 1.67247 2.43131 0
M  V30 13675 H 1303.23 2.41977 0.829495 0
M  V30 13676 H 1302.88 4.70865 1.90391 0
M  V30 13677 H 1302.81 3.93025 3.50484 0
M  V30 13678 H 1305.3 3.07291 2.19956 0
M  V30 13679 H 1305.61 6.6274 3.97487 0
M  V30 13680 H 1303.96 5.95662 3.58066 0
M  V30 13681 H 1307.15 3.8548 2.65561 0
M  V30 13682 H 1307.32 5.47555 3.46536 0
M  V30 13683 N 1300.73 -1.01913 1.20215 0
M  V30 13684 C 1301.66 -2.12282 0.97256 0
M  V30 13685 C 1302.64 -1.6982 -0.0975709 0
M  V30 13686 O 1303.82 -1.94109 0.0594307 0
M  V30 13687 C 1300.95 -3.43369 0.521085 0
M  V30 13688 C 1299.91 -3.99559 1.53417 0
M  V30 13689 C 1299.23 -5.26383 0.93942 0
M  V30 13690 C 1300.53 -4.33241 2.91718 0
M  V30 13691 H 1302.23 -2.31746 1.89563 0
M  V30 13692 H 1299.77 -1.1137 0.912841 0
M  V30 13693 H 1301.73 -4.19963 0.347713 0
M  V30 13694 H 1300.45 -3.23655 -0.437605 0
M  V30 13695 H 1299.11 -3.25069 1.69486 0
M  V30 13696 H 1298.76 -5.02993 -0.0271236 0
M  V30 13697 H 1298.46 -5.64942 1.616 0
M  V30 13698 H 1299.98 -6.05635 0.777059 0
M  V30 13699 H 1301.4 -5.00734 2.79175 0
M  V30 13700 H 1299.79 -4.82907 3.56259 0
M  V30 13701 H 1300.86 -3.42118 3.43633 0
M  V30 13702 N 1302.21 -1.00763 -1.2118 0
M  V30 13703 C 1303.62 -0.724746 -1.72059 0
M  V30 13704 C 1303.97 0.757413 -1.80991 0
M  V30 13705 O 1303.09 1.59152 -1.46627 0
M  V30 13706 C 1303.69 -1.30893 -3.12494 0
M  V30 13707 C 1302.25 -1.07511 -3.60719 0
M  V30 13708 C 1301.39 -1.42014 -2.38175 0
M  V30 13709 H 1304.35 -1.17821 -1.0632 0
M  V30 13710 H 1304.37 -0.694919 -3.741 0
M  V30 13711 H 1303.88 -2.38767 -3.05961 0
M  V30 13712 H 1301.98 -0.0136518 -3.72597 0
M  V30 13713 H 1302.09 -1.74885 -4.4604 0
M  V30 13714 H 1300.46 -0.838972 -2.40486 0
M  V30 13715 H 1301.24 -2.50924 -2.34291 0
M  V30 13716 N 1303.68 1.3679 -0.7827 0
M  V30 13717 C 1304.91 2.04206 -0.362571 0
M  V30 13718 C 1305.33 1.58637 1.01074 0
M  V30 13719 O 1304.69 0.751692 1.64983 0
M  V30 13720 C 1304.74 3.58062 -0.4271 0
M  V30 13721 O 1303.84 4.08463 0.56845 0
M  V30 13722 H 1303.19 0.645638 -0.155073 0
M  V30 13723 H 1305.72 1.74883 -1.06194 0
M  V30 13724 H 1305.73 4.0698 -0.288298 0
M  V30 13725 H 1304.4 3.90582 -1.42893 0
M  V30 13726 H 1302.98 3.70835 0.391863 0
M  V30 13727 N 1305.16 0.53415 1.48272 0
M  V30 13728 C 1306.44 -0.0630181 1.95498 0
M  V30 13729 C 1306.82 -1.50877 1.47646 0
M  V30 13730 O 1306.17 -2.17358 0.704829 0
M  V30 13731 C 1306.38 0.0585475 3.48951 0
M  V30 13732 C 1307.73 -0.0985978 4.24486 0
M  V30 13733 O 1308.75 -0.0150438 3.56197 0
M  V30 13734 O 1307.61 -0.274356 5.45811 0
M  V30 13735 H 1304.7 -0.0769841 0.823409 0
M  V30 13736 H 1307.25 0.599043 1.58775 0
M  V30 13737 H 1306.02 1.06549 3.76514 0
M  V30 13738 H 1305.64 -0.642175 3.9238 0
M  V30 13739 N 1306.64 -1.55279 0.269478 0
M  V30 13740 C 1307.87 -2.04334 -0.355313 0
M  V30 13741 C 1308.29 -1.14677 -1.491 0
M  V30 13742 O 1307.65 -0.144215 -1.80726 0
M  V30 13743 C 1307.7 -3.51172 -0.819162 0
M  V30 13744 O 1306.8 -3.64615 -1.9269 0
M  V30 13745 H 1306.14 -0.659827 -0.0743229 0
M  V30 13746 H 1308.67 -2.00609 0.402131 0
M  V30 13747 H 1308.68 -3.92428 -1.11642 0
M  V30 13748 H 1307.36 -4.15898 0.0117821 0
M  V30 13749 H 1305.93 -3.35261 -1.63261 0
M  V30 13750 O 1308.16 -0.134904 -1.60936 0
M  V30 13751 H 1308.85 0.461128 -1.88131 0
M  V30 END ATOM
M  V30 BEGIN BOND
M  V30 END BOND
M  V30 END CTAB
M  END
$$$$
